# Generated by pormake.
# Topology umd, (4)-cn, num edge types: 1
# Building blocks:
#     Node 0, Type 0, BuildingBlock: QUQFOY_clean_sbu_1, # of connection points: 4
#     Node 1, Type 0, BuildingBlock: QUQFOY_clean_sbu_1, # of connection points: 4
#     Node 2, Type 0, BuildingBlock: QUQFOY_clean_sbu_1, # of connection points: 4
#     Node 3, Type 0, BuildingBlock: QUQFOY_clean_sbu_1, # of connection points: 4
#     Node 4, Type 0, BuildingBlock: QUQFOY_clean_sbu_1, # of connection points: 4
#     Node 5, Type 0, BuildingBlock: QUQFOY_clean_sbu_1, # of connection points: 4
#     Node 6, Type 0, BuildingBlock: QUQFOY_clean_sbu_1, # of connection points: 4
#     Node 7, Type 0, BuildingBlock: QUQFOY_clean_sbu_1, # of connection points: 4
#     Node 8, Type 0, BuildingBlock: QUQFOY_clean_sbu_1, # of connection points: 4
#     Node 9, Type 0, BuildingBlock: QUQFOY_clean_sbu_1, # of connection points: 4
#     Node 10, Type 0, BuildingBlock: QUQFOY_clean_sbu_1, # of connection points: 4
#     Node 11, Type 0, BuildingBlock: QUQFOY_clean_sbu_1, # of connection points: 4
#     Node 12, Type 0, BuildingBlock: QUQFOY_clean_sbu_1, # of connection points: 4
#     Node 13, Type 0, BuildingBlock: QUQFOY_clean_sbu_1, # of connection points: 4
#     Node 14, Type 0, BuildingBlock: QUQFOY_clean_sbu_1, # of connection points: 4
#     Node 15, Type 0, BuildingBlock: QUQFOY_clean_sbu_1, # of connection points: 4
#     Edge 16, Type (0, 0), BuildingBlock: ZUJKAS_clean_linker_0, # of connection points: 2
#     Edge 17, Type (0, 0), BuildingBlock: ZUJKAS_clean_linker_0, # of connection points: 2
#     Edge 18, Type (0, 0), BuildingBlock: ZUJKAS_clean_linker_0, # of connection points: 2
#     Edge 19, Type (0, 0), BuildingBlock: ZUJKAS_clean_linker_0, # of connection points: 2
#     Edge 20, Type (0, 0), BuildingBlock: ZUJKAS_clean_linker_0, # of connection points: 2
#     Edge 21, Type (0, 0), BuildingBlock: ZUJKAS_clean_linker_0, # of connection points: 2
#     Edge 22, Type (0, 0), BuildingBlock: ZUJKAS_clean_linker_0, # of connection points: 2
#     Edge 23, Type (0, 0), BuildingBlock: ZUJKAS_clean_linker_0, # of connection points: 2
#     Edge 24, Type (0, 0), BuildingBlock: ZUJKAS_clean_linker_0, # of connection points: 2
#     Edge 25, Type (0, 0), BuildingBlock: ZUJKAS_clean_linker_0, # of connection points: 2
#     Edge 26, Type (0, 0), BuildingBlock: ZUJKAS_clean_linker_0, # of connection points: 2
#     Edge 27, Type (0, 0), BuildingBlock: ZUJKAS_clean_linker_0, # of connection points: 2
#     Edge 28, Type (0, 0), BuildingBlock: ZUJKAS_clean_linker_0, # of connection points: 2
#     Edge 29, Type (0, 0), BuildingBlock: ZUJKAS_clean_linker_0, # of connection points: 2
#     Edge 30, Type (0, 0), BuildingBlock: ZUJKAS_clean_linker_0, # of connection points: 2
#     Edge 31, Type (0, 0), BuildingBlock: ZUJKAS_clean_linker_0, # of connection points: 2
#     Edge 32, Type (0, 0), BuildingBlock: ZUJKAS_clean_linker_0, # of connection points: 2
#     Edge 33, Type (0, 0), BuildingBlock: ZUJKAS_clean_linker_0, # of connection points: 2
#     Edge 34, Type (0, 0), BuildingBlock: ZUJKAS_clean_linker_0, # of connection points: 2
#     Edge 35, Type (0, 0), BuildingBlock: ZUJKAS_clean_linker_0, # of connection points: 2
#     Edge 36, Type (0, 0), BuildingBlock: ZUJKAS_clean_linker_0, # of connection points: 2
#     Edge 37, Type (0, 0), BuildingBlock: ZUJKAS_clean_linker_0, # of connection points: 2
#     Edge 38, Type (0, 0), BuildingBlock: ZUJKAS_clean_linker_0, # of connection points: 2
#     Edge 39, Type (0, 0), BuildingBlock: ZUJKAS_clean_linker_0, # of connection points: 2
#     Edge 40, Type (0, 0), BuildingBlock: ZUJKAS_clean_linker_0, # of connection points: 2
#     Edge 41, Type (0, 0), BuildingBlock: ZUJKAS_clean_linker_0, # of connection points: 2
#     Edge 42, Type (0, 0), BuildingBlock: ZUJKAS_clean_linker_0, # of connection points: 2
#     Edge 43, Type (0, 0), BuildingBlock: ZUJKAS_clean_linker_0, # of connection points: 2
#     Edge 44, Type (0, 0), BuildingBlock: ZUJKAS_clean_linker_0, # of connection points: 2
#     Edge 45, Type (0, 0), BuildingBlock: ZUJKAS_clean_linker_0, # of connection points: 2
#     Edge 46, Type (0, 0), BuildingBlock: ZUJKAS_clean_linker_0, # of connection points: 2
#     Edge 47, Type (0, 0), BuildingBlock: ZUJKAS_clean_linker_0, # of connection points: 2
# Relax obj value: 0.063
# Max RMSD: 0.194
# Mean RMSD: 0.194
data_MOF--net-umd--node1-QUQFOY_clean_sbu_1--edge1-ZUJKAS_clean_linker_0
_symmetry_space_group_name_H-M    P1
_symmetry_Int_Tables_number       1
_symmetry_cell_setting            triclinic
loop_
_symmetry_equiv_pos_as_xyz
'x, y, z'
_cell_length_a     52.633861
_cell_length_b     52.631265
_cell_length_c     74.782739
_cell_angle_alpha  89.968664
_cell_angle_beta   90.020459
_cell_angle_gamma 90.005995
loop_
_atom_site_label
_atom_site_type_symbol
_atom_site_fract_x
_atom_site_fract_y
_atom_site_fract_z
_atom_type_partial_charge
O0 O 0.19794 0.43809 0.10559 0.0
Cd1 Cd 0.18235 0.42622 0.12946 0.0
Cd2 Cd 0.19536 0.47475 0.13878 0.0
O3 O 0.20959 0.4771 0.11294 0.0
O4 O 0.18345 0.38811 0.12863 0.0
O5 O 0.20643 0.41099 0.14738 0.0
C6 C 0.20077 0.38902 0.14084 0.0
C7 C 0.21875 0.48172 0.16479 0.0
C8 C 0.20811 0.45922 0.10154 0.0
C9 C 0.13971 0.46126 0.14003 0.0
O10 O 0.1567 0.47821 0.14186 0.0
O11 O 0.14566 0.4387 0.13546 0.0
O12 O 0.21113 0.50051 0.15505 0.0
O13 O 0.21445 0.45898 0.15907 0.0
O14 O 0.57709 0.19353 0.60458 0.0
Cd15 Cd 0.58833 0.18063 0.62945 0.0
Cd16 Cd 0.54046 0.19525 0.63721 0.0
O17 O 0.54066 0.21145 0.61195 0.0
O18 O 0.6265 0.18246 0.62938 0.0
O19 O 0.60228 0.20678 0.64636 0.0
C20 C 0.62466 0.20098 0.64062 0.0
C21 C 0.53179 0.21698 0.66373 0.0
C22 C 0.55763 0.20654 0.60033 0.0
C23 C 0.55197 0.13919 0.6391 0.0
O24 O 0.53516 0.15652 0.63845 0.0
O25 O 0.5754 0.14481 0.63726 0.0
O26 O 0.51377 0.21096 0.65279 0.0
O27 O 0.55484 0.21192 0.65904 0.0
O28 O 0.82885 0.58062 0.10467 0.0
Cd29 Cd 0.84198 0.59317 0.12904 0.0
Cd30 Cd 0.82926 0.54498 0.13841 0.0
O31 O 0.81509 0.54254 0.11244 0.0
O32 O 0.83779 0.63104 0.12906 0.0
O33 O 0.81592 0.60531 0.14666 0.0
C34 C 0.8201 0.62804 0.14083 0.0
C35 C 0.80664 0.53327 0.16397 0.0
C36 C 0.8181 0.55975 0.10064 0.0
C37 C 0.88496 0.56013 0.14028 0.0
O38 O 0.86816 0.54291 0.14166 0.0
O39 O 0.8788 0.58266 0.13585 0.0
O40 O 0.81652 0.51639 0.15358 0.0
O41 O 0.80811 0.55681 0.15922 0.0
O42 O 0.43823 0.82591 0.60468 0.0
Cd43 Cd 0.42655 0.83905 0.62939 0.0
Cd44 Cd 0.47463 0.82405 0.63763 0.0
O45 O 0.47491 0.8085 0.61216 0.0
O46 O 0.38831 0.83739 0.62914 0.0
O47 O 0.4123 0.81307 0.64629 0.0
C48 C 0.38999 0.81895 0.64047 0.0
C49 C 0.48168 0.80167 0.66414 0.0
C50 C 0.45794 0.81323 0.60049 0.0
C51 C 0.46309 0.8802 0.63965 0.0
O52 O 0.47978 0.86274 0.63935 0.0
O53 O 0.4397 0.87478 0.63727 0.0
O54 O 0.50039 0.80786 0.65384 0.0
O55 O 0.45897 0.80693 0.65878 0.0
O56 O 0.19045 0.57799 0.40661 0.0
Cd57 Cd 0.17918 0.58772 0.38107 0.0
Cd58 Cd 0.19598 0.5403 0.37506 0.0
O59 O 0.21087 0.54237 0.40069 0.0
O60 O 0.17894 0.62588 0.38063 0.0
O61 O 0.20591 0.60264 0.36501 0.0
C62 C 0.19842 0.6248 0.37017 0.0
C63 C 0.21916 0.53196 0.34915 0.0
C64 C 0.20416 0.55947 0.41176 0.0
C65 C 0.13974 0.54947 0.37122 0.0
O66 O 0.15756 0.53334 0.37301 0.0
O67 O 0.14448 0.57317 0.37239 0.0
O68 O 0.21361 0.51397 0.36024 0.0
O69 O 0.21285 0.55487 0.35341 0.0
O70 O 0.43561 0.18901 0.90688 0.0
Cd71 Cd 0.42477 0.17763 0.88159 0.0
Cd72 Cd 0.47281 0.19305 0.8749 0.0
O73 O 0.47192 0.20798 0.90056 0.0
O74 O 0.38655 0.17837 0.88168 0.0
O75 O 0.41005 0.20452 0.86556 0.0
C76 C 0.38785 0.19767 0.87106 0.0
C77 C 0.48015 0.21582 0.84865 0.0
C78 C 0.45476 0.20201 0.9118 0.0
C79 C 0.46174 0.13707 0.87134 0.0
O80 O 0.47841 0.15444 0.87278 0.0
O81 O 0.43822 0.14245 0.87292 0.0
O82 O 0.49871 0.20979 0.85914 0.0
O83 O 0.45737 0.21029 0.85374 0.0
O84 O 0.82658 0.43839 0.40718 0.0
Cd85 Cd 0.83861 0.42657 0.38223 0.0
Cd86 Cd 0.82535 0.4747 0.37457 0.0
O87 O 0.81001 0.47558 0.40011 0.0
O88 O 0.83556 0.3886 0.38249 0.0
O89 O 0.8119 0.41342 0.36541 0.0
C90 C 0.81711 0.39091 0.37122 0.0
C91 C 0.80365 0.4858 0.34852 0.0
C92 C 0.81453 0.45836 0.41165 0.0
C93 C 0.88111 0.46082 0.37207 0.0
O94 O 0.86427 0.4781 0.37269 0.0
O95 O 0.87485 0.43764 0.37424 0.0
O96 O 0.81223 0.50296 0.35927 0.0
O97 O 0.80595 0.46227 0.35315 0.0
O98 O 0.58006 0.82732 0.90689 0.0
Cd99 Cd 0.59019 0.83895 0.88152 0.0
Cd100 Cd 0.54232 0.82291 0.87512 0.0
O101 O 0.54409 0.80765 0.90069 0.0
O102 O 0.62838 0.8374 0.88081 0.0
O103 O 0.60355 0.81204 0.86503 0.0
C104 C 0.62614 0.81826 0.87012 0.0
C105 C 0.53334 0.80048 0.84894 0.0
C106 C 0.56126 0.81387 0.91186 0.0
C107 C 0.55266 0.87914 0.87181 0.0
O108 O 0.53628 0.86151 0.87332 0.0
O109 O 0.57629 0.8741 0.87312 0.0
O110 O 0.51552 0.80613 0.86013 0.0
O111 O 0.55639 0.80617 0.85327 0.0
O112 O 0.82589 0.57895 0.9079 0.0
Cd113 Cd 0.8379 0.59048 0.88286 0.0
Cd114 Cd 0.82394 0.54227 0.87513 0.0
O115 O 0.80874 0.54205 0.90071 0.0
O116 O 0.83555 0.62863 0.88275 0.0
O117 O 0.8111 0.60386 0.86624 0.0
C118 C 0.81683 0.6264 0.8717 0.0
C119 C 0.80167 0.53353 0.84884 0.0
C120 C 0.81357 0.5591 0.9123 0.0
C121 C 0.87963 0.5549 0.87232 0.0
O122 O 0.86267 0.53773 0.87317 0.0
O123 O 0.87364 0.57817 0.87446 0.0
O124 O 0.80813 0.51549 0.85965 0.0
O125 O 0.80649 0.5566 0.8536 0.0
O126 O 0.4348 0.82638 0.40865 0.0
Cd127 Cd 0.42231 0.83969 0.38433 0.0
Cd128 Cd 0.47023 0.8256 0.37468 0.0
O129 O 0.47212 0.81104 0.40056 0.0
O130 O 0.38421 0.83757 0.38493 0.0
O131 O 0.40812 0.81385 0.3673 0.0
C132 C 0.38586 0.81938 0.3734 0.0
C133 C 0.47772 0.80222 0.34867 0.0
C134 C 0.45527 0.81477 0.41251 0.0
C135 C 0.45718 0.88153 0.3728 0.0
O136 O 0.4741 0.86437 0.37159 0.0
O137 O 0.43444 0.87587 0.37707 0.0
O138 O 0.4963 0.80965 0.35867 0.0
O139 O 0.45489 0.80674 0.35411 0.0
O140 O 0.18264 0.43663 0.90699 0.0
Cd141 Cd 0.17438 0.42498 0.88134 0.0
Cd142 Cd 0.19322 0.47077 0.87429 0.0
O143 O 0.20814 0.46842 0.90001 0.0
O144 O 0.1755 0.38678 0.8811 0.0
O145 O 0.20324 0.41101 0.8669 0.0
C146 C 0.19594 0.38858 0.87162 0.0
C147 C 0.21639 0.47948 0.84836 0.0
C148 C 0.19828 0.45381 0.91167 0.0
C149 C 0.13676 0.46311 0.86965 0.0
O150 O 0.15487 0.47874 0.87213 0.0
O151 O 0.14089 0.43929 0.87067 0.0
O152 O 0.21127 0.49722 0.85973 0.0
O153 O 0.20975 0.45657 0.85236 0.0
O154 O 0.57933 0.19147 0.40874 0.0
Cd155 Cd 0.59155 0.17779 0.38447 0.0
Cd156 Cd 0.54344 0.19221 0.37497 0.0
O157 O 0.54209 0.20714 0.40074 0.0
O158 O 0.62967 0.18046 0.38463 0.0
O159 O 0.60495 0.20334 0.36698 0.0
C160 C 0.62743 0.19832 0.37289 0.0
C161 C 0.53563 0.21535 0.34888 0.0
C162 C 0.55904 0.20338 0.41262 0.0
C163 C 0.55636 0.13612 0.37327 0.0
O164 O 0.53954 0.15339 0.37209 0.0
O165 O 0.57919 0.14163 0.37743 0.0
O166 O 0.51715 0.20801 0.359 0.0
O167 O 0.5585 0.21088 0.35422 0.0
O168 O 0.8252 0.43876 0.6046 0.0
Cd169 Cd 0.83781 0.42742 0.62952 0.0
Cd170 Cd 0.82287 0.47571 0.63714 0.0
O171 O 0.80726 0.47534 0.61166 0.0
O172 O 0.83597 0.38918 0.62955 0.0
O173 O 0.81142 0.41353 0.64625 0.0
C174 C 0.81729 0.39111 0.64066 0.0
C175 C 0.80066 0.483 0.66367 0.0
C176 C 0.81234 0.45824 0.60015 0.0
C177 C 0.87892 0.46404 0.63966 0.0
O178 O 0.86157 0.48083 0.63888 0.0
O179 O 0.87341 0.44061 0.63767 0.0
O180 O 0.80666 0.50162 0.65322 0.0
O181 O 0.80594 0.46026 0.65842 0.0
O182 O 0.58003 0.82561 0.10686 0.0
Cd183 Cd 0.59005 0.83693 0.13231 0.0
Cd184 Cd 0.54207 0.8214 0.13845 0.0
O185 O 0.54389 0.80617 0.11288 0.0
O186 O 0.6282 0.83527 0.13309 0.0
O187 O 0.6033 0.80987 0.14877 0.0
C188 C 0.62591 0.81609 0.14374 0.0
C189 C 0.53256 0.79902 0.16456 0.0
C190 C 0.56117 0.81233 0.10178 0.0
C191 C 0.5529 0.87749 0.14189 0.0
O192 O 0.53634 0.86004 0.14024 0.0
O193 O 0.57648 0.87218 0.14071 0.0
O194 O 0.51494 0.80484 0.15324 0.0
O195 O 0.55572 0.80449 0.1604 0.0
O196 O 0.18969 0.58085 0.60614 0.0
Cd197 Cd 0.17761 0.5917 0.63125 0.0
Cd198 Cd 0.19353 0.54378 0.63832 0.0
O199 O 0.20876 0.54469 0.61276 0.0
O200 O 0.17906 0.62993 0.63131 0.0
O201 O 0.20414 0.60576 0.64779 0.0
C202 C 0.19798 0.62814 0.64223 0.0
C203 C 0.2163 0.5359 0.66453 0.0
C204 C 0.20291 0.56176 0.60141 0.0
C205 C 0.13722 0.55443 0.64119 0.0
O206 O 0.1549 0.53802 0.64019 0.0
O207 O 0.14227 0.57801 0.63946 0.0
O208 O 0.21019 0.51755 0.65389 0.0
O209 O 0.21074 0.55876 0.65967 0.0
O210 O 0.43697 0.18765 0.10672 0.0
Cd211 Cd 0.42685 0.17659 0.13222 0.0
Cd212 Cd 0.47475 0.19201 0.1384 0.0
O213 O 0.47314 0.20701 0.11277 0.0
O214 O 0.38868 0.17735 0.13265 0.0
O215 O 0.41264 0.20375 0.14822 0.0
C216 C 0.39029 0.19682 0.14308 0.0
C217 C 0.48328 0.21482 0.16445 0.0
C218 C 0.4559 0.20084 0.10164 0.0
C219 C 0.46403 0.1361 0.1422 0.0
O220 O 0.48069 0.15343 0.14046 0.0
O221 O 0.44048 0.14152 0.14094 0.0
O222 O 0.50127 0.20909 0.15342 0.0
O223 O 0.4603 0.20895 0.16005 0.0
H224 H 0.12069 0.49474 0.16417 0.0
H225 H 0.07713 0.51043 0.16651 0.0
H226 H 0.05514 0.46234 0.12238 0.0
H227 H 0.0984 0.44535 0.1209 0.0
H228 H 0.05151 0.53708 0.14526 0.0
H229 H 0.99726 0.44811 0.15382 0.0
H230 H 0.03143 0.44887 0.15509 0.0
H231 H 0.01565 0.44714 0.1337 0.0
C232 C 0.10638 0.48711 0.15525 0.0
C233 C 0.11282 0.46864 0.14248 0.0
C234 C 0.08149 0.49619 0.15652 0.0
C235 C 0.06254 0.48743 0.14479 0.0
C236 C 0.06902 0.46887 0.13202 0.0
H237 H 0.92624 0.57669 0.12146 0.0
H238 H 0.96956 0.55985 0.12288 0.0
C239 C 0.09382 0.45923 0.13109 0.0
C240 C 0.03659 0.49892 0.14529 0.0
H241 H 0.97328 0.48474 0.14522 0.0
C242 C 0.03442 0.52557 0.14547 0.0
C243 C 0.01414 0.48409 0.14582 0.0
C244 C 0.01474 0.45549 0.1473 0.0
C245 C 0.01065 0.53772 0.14602 0.0
C246 C 0.98819 0.5229 0.14548 0.0
C247 C 0.99036 0.49626 0.14545 0.0
C248 C 0.96224 0.5344 0.14511 0.0
C249 C 0.01007 0.5663 0.14771 0.0
C250 C 0.94332 0.52542 0.15678 0.0
C251 C 0.91839 0.53441 0.15554 0.0
C252 C 0.91189 0.55303 0.14288 0.0
C253 C 0.93088 0.5627 0.13159 0.0
C254 C 0.95571 0.55315 0.13247 0.0
H255 H 0.02758 0.57356 0.15426 0.0
H256 H 0.00911 0.57488 0.13418 0.0
H257 H 0.99341 0.57281 0.15557 0.0
H258 H 0.94771 0.51103 0.16667 0.0
H259 H 0.90408 0.52657 0.16437 0.0
H260 H 0.51152 0.89743 0.64455 0.0
H261 H 0.52619 0.94126 0.64644 0.0
H262 H 0.44903 0.96783 0.64161 0.0
H263 H 0.43399 0.92377 0.63975 0.0
H264 H 0.51889 0.97891 0.61985 0.0
H265 H 0.47742 1.00762 0.68511 0.0
H266 H 0.48101 0.97476 0.67862 0.0
H267 H 0.45562 0.9935 0.66949 0.0
C268 C 0.49753 0.9125 0.64405 0.0
C269 C 0.4715 0.90698 0.64198 0.0
C270 C 0.50602 0.93759 0.64512 0.0
C271 C 0.48874 0.95781 0.64431 0.0
C272 C 0.46268 0.95249 0.64254 0.0
H273 H 0.50341 0.12129 0.64181 0.0
H274 H 0.48923 0.07729 0.64345 0.0
C275 C 0.45412 0.92729 0.64141 0.0
C276 C 0.49829 0.98438 0.6444 0.0
H277 H 0.49725 0.0399 0.66802 0.0
C278 C 0.51426 0.99224 0.63041 0.0
C279 C 0.49219 1.00171 0.65818 0.0
C280 C 0.47579 0.99403 0.67381 0.0
C281 C 0.52388 0.01712 0.62962 0.0
C282 C 0.51789 0.03448 0.64345 0.0
C283 C 0.50196 0.02657 0.65747 0.0
C284 C 0.52705 0.06124 0.6432 0.0
C285 C 0.53974 0.02477 0.61369 0.0
C286 C 0.55314 0.067 0.64287 0.0
C287 C 0.5614 0.0923 0.64181 0.0
C288 C 0.54371 0.11232 0.64125 0.0
C289 C 0.51764 0.10643 0.64215 0.0
C290 C 0.50943 0.08122 0.64312 0.0
H291 H 0.53706 0.01158 0.60225 0.0
H292 H 0.53496 0.04432 0.60922 0.0
H293 H 0.56012 0.02438 0.61747 0.0
H294 H 0.56712 0.05193 0.64333 0.0
H295 H 0.58161 0.09612 0.64127 0.0
H296 H 0.12375 0.50025 0.36839 0.0
H297 H 0.0803 0.48449 0.36612 0.0
H298 H 0.05212 0.56138 0.36629 0.0
H299 H 0.09573 0.57748 0.36846 0.0
H300 H 0.0414 0.49308 0.39103 0.0
H301 H 0.01476 0.52863 0.32366 0.0
H302 H 0.04735 0.52665 0.3311 0.0
H303 H 0.02744 0.55228 0.33852 0.0
C304 C 0.1084 0.51392 0.36776 0.0
C305 C 0.11331 0.5402 0.36861 0.0
C306 C 0.08353 0.50481 0.36648 0.0
C307 C 0.06298 0.52172 0.36587 0.0
C308 C 0.06773 0.54799 0.36644 0.0
H309 H 0.90001 0.5087 0.36766 0.0
H310 H 0.94428 0.52181 0.3656 0.0
C311 C 0.09268 0.55716 0.36776 0.0
C312 C 0.03658 0.51172 0.36563 0.0
H313 H 0.98166 0.51097 0.34129 0.0
C314 C 0.02836 0.49683 0.3801 0.0
C315 C 0.01964 0.51666 0.35137 0.0
C316 C 0.02772 0.53174 0.33519 0.0
C317 C 1.00345 0.48731 0.38095 0.0
C318 C 0.98642 0.49234 0.36672 0.0
C319 C 0.99474 0.50703 0.35215 0.0
C320 C 0.95952 0.48371 0.36716 0.0
C321 C 0.99534 0.47273 0.39737 0.0
C322 C 0.95322 0.4578 0.36836 0.0
C323 C 0.92776 0.45015 0.36964 0.0
C324 C 0.90812 0.46829 0.3696 0.0
C325 C 0.91456 0.49415 0.36782 0.0
C326 C 0.93992 0.50173 0.3666 0.0
H327 H 0.00851 0.47587 0.40877 0.0
H328 H 0.97588 0.47825 0.40157 0.0
H329 H 0.99527 0.45211 0.39429 0.0
H330 H 0.96801 0.4435 0.36842 0.0
H331 H 0.9235 0.4301 0.37088 0.0
H332 H 0.58104 0.92312 0.87028 0.0
H333 H 0.56518 0.96692 0.8683 0.0
H334 H 0.48829 0.939 0.8657 0.0
H335 H 0.50376 0.89545 0.86774 0.0
H336 H 0.53307 0.99098 0.84158 0.0
H337 H 0.48788 0.98844 0.90867 0.0
H338 H 0.51127 0.96541 0.90168 0.0
H339 H 0.47899 0.96286 0.89406 0.0
C340 C 0.56077 0.9263 0.86918 0.0
C341 C 0.5437 0.90571 0.86933 0.0
C342 C 0.55175 0.95133 0.86806 0.0
C343 C 0.52553 0.9562 0.86717 0.0
C344 C 0.50855 0.9357 0.86672 0.0
H345 H 0.4326 0.09364 0.86994 0.0
H346 H 0.44756 0.04964 0.8674 0.0
C347 C 0.5175 0.91076 0.86782 0.0
C348 C 0.51573 0.98267 0.86697 0.0
H349 H 0.47941 0.02451 0.89075 0.0
C350 C 0.52142 0.99838 0.85234 0.0
C351 C 0.50041 0.99221 0.88099 0.0
C352 C 0.4944 0.97648 0.89733 0.0
C353 C 0.51187 0.0233 0.85124 0.0
C354 C 0.49665 0.0329 0.86532 0.0
C355 C 0.49093 0.01711 0.87991 0.0
C356 C 0.48738 0.05959 0.86562 0.0
C357 C 0.51778 0.03892 0.83484 0.0
C358 C 0.50475 0.0798 0.8655 0.0
C359 C 0.49629 0.10488 0.8669 0.0
C360 C 0.47022 0.11039 0.86863 0.0
C361 C 0.45278 0.09012 0.86857 0.0
C362 C 0.46131 0.06496 0.86715 0.0
H363 H 0.52274 0.0267 0.82325 0.0
H364 H 0.50144 0.05116 0.83108 0.0
H365 H 0.53432 0.05135 0.83767 0.0
H366 H 0.52498 0.07616 0.86477 0.0
H367 H 0.51032 0.11993 0.86698 0.0
H368 H 0.89817 0.50686 0.86789 0.0
H369 H 0.94232 0.49355 0.86512 0.0
H370 H 0.96646 0.57178 0.86721 0.0
H371 H 0.92211 0.58538 0.87035 0.0
H372 H 0.97903 0.50433 0.84005 0.0
H373 H 1.00799 0.53933 0.90712 0.0
H374 H 0.97515 0.53697 0.90042 0.0
H375 H 0.99433 0.56305 0.89278 0.0
C376 C 0.91279 0.52135 0.86774 0.0
C377 C 0.90653 0.54724 0.86951 0.0
C378 C 0.93807 0.51365 0.86611 0.0
C379 C 0.95775 0.5316 0.86625 0.0
C380 C 0.95162 0.55754 0.86745 0.0
H381 H 0.122 0.5127 0.86661 0.0
H382 H 0.0789 0.52944 0.8642 0.0
C383 C 0.92624 0.5653 0.86914 0.0
C384 C 0.9846 0.52287 0.86542 0.0
H385 H 0.04017 0.52167 0.88903 0.0
C386 C 0.99243 0.50816 0.85074 0.0
C387 C 1.00204 0.52779 0.87941 0.0
C388 C 0.99448 0.54245 0.89591 0.0
C389 C 0.01723 0.49836 0.84963 0.0
C390 C 0.03456 0.50311 0.86369 0.0
C391 C 0.02685 0.51807 0.87825 0.0
C392 C 0.06076 0.49258 0.86375 0.0
C393 C 0.02476 0.48325 0.83334 0.0
C394 C 0.06495 0.46622 0.8642 0.0
C395 C 0.08967 0.45651 0.86558 0.0
C396 C 0.11066 0.473 0.86665 0.0
C397 C 0.10634 0.49939 0.86584 0.0
C398 C 0.08168 0.50904 0.86447 0.0
H399 H 0.01176 0.48683 0.82191 0.0
H400 H 0.04448 0.48787 0.82916 0.0
H401 H 0.02395 0.46269 0.83657 0.0
H402 H 0.04905 0.45316 0.86398 0.0
H403 H 0.09225 0.43612 0.86627 0.0
H404 H 0.57249 0.0943 0.39165 0.0
H405 H 0.55544 0.05113 0.38975 0.0
H406 H 0.50624 0.07442 0.34653 0.0
H407 H 0.52195 0.11795 0.34938 0.0
H408 H 0.48021 0.04786 0.36726 0.0
H409 H 0.56921 0.99428 0.35755 0.0
H410 H 0.57062 0.01203 0.37793 0.0
H411 H 0.56837 0.02848 0.3568 0.0
C412 C 0.55832 0.09004 0.38158 0.0
C413 C 0.54863 0.10938 0.37059 0.0
C414 C 0.54867 0.06528 0.3804 0.0
C415 C 0.52984 0.05916 0.36773 0.0
C416 C 0.52072 0.07848 0.35642 0.0
H417 H 0.49111 0.90009 0.3487 0.0
H418 H 0.50668 0.9437 0.346 0.0
C419 C 0.52979 0.10335 0.35798 0.0
C420 C 0.51846 0.03316 0.36696 0.0
H421 H 0.533 0.96993 0.36674 0.0
C422 C 0.49183 0.03084 0.36691 0.0
C423 C 0.5334 0.01079 0.36618 0.0
C424 C 0.56196 0.01154 0.36441 0.0
C425 C 0.4798 1.00701 0.36635 0.0
C426 C 0.49474 0.98463 0.36682 0.0
C427 C 0.52137 0.98695 0.36661 0.0
C428 C 0.48338 0.95862 0.36746 0.0
C429 C 0.45122 1.0063 0.36476 0.0
C430 C 0.46474 0.95228 0.38021 0.0
C431 C 0.45515 0.9275 0.38131 0.0
C432 C 0.46473 0.90832 0.37014 0.0
C433 C 0.48335 0.91456 0.35744 0.0
C434 C 0.49235 0.93947 0.35597 0.0
H435 H 0.44387 0.02368 0.35807 0.0
H436 H 0.44468 0.98949 0.35707 0.0
H437 H 0.44274 1.00559 0.37833 0.0
H438 H 0.45809 0.96628 0.38971 0.0
H439 H 0.44116 0.92306 0.39146 0.0
H440 H 0.92227 0.43469 0.64068 0.0
H441 H 0.96634 0.44943 0.64342 0.0
H442 H 0.94016 0.52692 0.64655 0.0
H443 H 0.89636 0.51249 0.64417 0.0
H444 H 0.99217 0.48134 0.62071 0.0
H445 H 0.98887 0.524 0.68836 0.0
H446 H 0.96438 0.50301 0.68014 0.0
H447 H 0.96457 0.536 0.6738 0.0
C448 C 0.92589 0.45484 0.64218 0.0
C449 C 0.90569 0.47235 0.64226 0.0
C450 C 0.95109 0.46324 0.64372 0.0
C451 C 0.95657 0.48927 0.64549 0.0
C452 C 0.93644 0.50672 0.64565 0.0
H453 H 0.09319 0.58282 0.642 0.0
H454 H 0.04935 0.56695 0.64352 0.0
C455 C 0.91133 0.49838 0.64415 0.0
C456 C 0.98331 0.49844 0.64609 0.0
H457 H 0.02483 0.53468 0.67035 0.0
C458 C 0.99937 0.49278 0.63165 0.0
C459 C 0.99269 0.51354 0.66032 0.0
C460 C 0.97681 0.51931 0.67662 0.0
C461 C 0.02431 0.50223 0.63086 0.0
C462 C 0.03359 0.51751 0.645 0.0
C463 C 0.01762 0.5231 0.65948 0.0
C464 C 0.06005 0.52733 0.64508 0.0
C465 C 0.04039 0.49626 0.61469 0.0
C466 C 0.08055 0.51037 0.64592 0.0
C467 C 0.1055 0.51932 0.6451 0.0
C468 C 0.11059 0.54551 0.64346 0.0
C469 C 0.09 0.56256 0.6432 0.0
C470 C 0.06494 0.55353 0.64407 0.0
H471 H 0.0287 0.48957 0.60325 0.0
H472 H 0.05139 0.51321 0.6104 0.0
H473 H 0.05409 0.48101 0.61814 0.0
H474 H 0.07722 0.49012 0.64702 0.0
H475 H 0.12081 0.50559 0.64547 0.0
H476 H 0.43476 0.09283 0.14412 0.0
H477 H 0.44956 0.0488 0.14667 0.0
H478 H 0.52716 0.07493 0.14831 0.0
H479 H 0.51266 0.11878 0.14607 0.0
H480 H 0.48088 0.02348 0.12296 0.0
H481 H 0.52542 0.02566 0.19011 0.0
H482 H 0.50402 0.05014 0.18242 0.0
H483 H 0.53674 0.05022 0.17549 0.0
C484 C 0.45495 0.08923 0.14528 0.0
C485 C 0.47248 0.10942 0.14492 0.0
C486 C 0.46338 0.06405 0.1467 0.0
C487 C 0.48946 0.05856 0.14795 0.0
C488 C 0.50694 0.07868 0.14779 0.0
H489 H 0.58175 0.92114 0.14336 0.0
H490 H 0.56638 0.96511 0.1453 0.0
C491 C 0.49856 0.10379 0.14637 0.0
C492 C 0.49857 0.03182 0.14824 0.0
H493 H 0.53491 0.98967 0.17188 0.0
C494 C 0.49249 0.01602 0.13374 0.0
C495 C 0.51391 0.02216 0.16224 0.0
C496 C 0.52024 0.03784 0.17853 0.0
C497 C 0.5017 0.99102 0.13268 0.0
C498 C 0.51711 0.98139 0.14664 0.0
C499 C 0.52318 0.99713 0.16117 0.0
C500 C 0.52662 0.95482 0.14649 0.0
C501 C 0.49533 0.97529 0.11642 0.0
C502 C 0.50942 0.9345 0.14698 0.0
C503 C 0.51809 0.90947 0.14589 0.0
C504 C 0.54422 0.90414 0.14436 0.0
C505 C 0.56152 0.92454 0.14447 0.0
C506 C 0.55277 0.94967 0.14558 0.0
H507 H 0.48891 0.9873 0.10506 0.0
H508 H 0.51199 0.96394 0.11205 0.0
H509 H 0.47973 0.96194 0.11979 0.0
H510 H 0.48919 0.93802 0.14803 0.0
H511 H 0.50418 0.8943 0.14601 0.0
H512 H 0.23312 0.48561 0.33581 0.0
H513 H 0.24351 0.4753 0.30478 0.0
H514 H 0.23835 0.55463 0.29077 0.0
H515 H 0.22844 0.56514 0.32178 0.0
H516 H 0.21031 0.48387 0.27785 0.0
H517 H 0.30054 0.53335 0.26266 0.0
H518 H 0.28976 0.52786 0.28526 0.0
H519 H 0.27726 0.55398 0.27245 0.0
C520 C 0.23486 0.50095 0.32623 0.0
C521 C 0.22984 0.52619 0.33127 0.0
C522 C 0.24078 0.49502 0.30848 0.0
C523 C 0.24193 0.5142 0.29544 0.0
C524 C 0.23814 0.53955 0.30062 0.0
H525 H 0.22474 0.52703 0.1822 0.0
H526 H 0.23434 0.5333 0.21389 0.0
C527 C 0.2323 0.54552 0.31838 0.0
C528 C 0.24366 0.50744 0.27619 0.0
H529 H 0.27528 0.52064 0.23736 0.0
C530 C 0.22479 0.49155 0.26905 0.0
C531 C 0.26242 0.51766 0.26469 0.0
C532 C 0.28378 0.53397 0.27168 0.0
C533 C 0.22355 0.48638 0.25068 0.0
C534 C 0.24199 0.49699 0.23911 0.0
C535 C 0.26121 0.51247 0.24626 0.0
C536 C 0.24045 0.49343 0.21945 0.0
C537 C 0.20177 0.47052 0.24372 0.0
C538 C 0.2418 0.46906 0.21191 0.0
C539 C 0.2362 0.46537 0.19381 0.0
C540 C 0.22933 0.48606 0.18291 0.0
C541 C 0.22985 0.51067 0.19023 0.0
C542 C 0.23536 0.51431 0.20834 0.0
H543 H 0.18634 0.46847 0.25375 0.0
H544 H 0.19364 0.47903 0.23139 0.0
H545 H 0.20881 0.45123 0.24037 0.0
H546 H 0.24616 0.45274 0.22019 0.0
H547 H 0.23617 0.44619 0.18857 0.0
H548 H 0.48525 0.22875 0.67775 0.0
H549 H 0.47525 0.23817 0.70898 0.0
H550 H 0.55499 0.23566 0.72213 0.0
H551 H 0.5652 0.2267 0.6909 0.0
H552 H 0.48571 0.20491 0.73569 0.0
H553 H 0.53196 0.297 0.75065 0.0
H554 H 0.52634 0.28616 0.72808 0.0
H555 H 0.55311 0.27443 0.74057 0.0
C556 C 0.50072 0.23083 0.68719 0.0
C557 C 0.52602 0.22687 0.68184 0.0
C558 C 0.49496 0.2362 0.70505 0.0
C559 C 0.51436 0.23784 0.7179 0.0
C560 C 0.53973 0.23505 0.71243 0.0
H561 H 0.52594 0.22267 0.83197 0.0
H562 H 0.53308 0.23159 0.80025 0.0
C563 C 0.54552 0.22975 0.69455 0.0
C564 C 0.50792 0.23919 0.73722 0.0
H565 H 0.51973 0.27166 0.77593 0.0
C566 C 0.49283 0.21974 0.74443 0.0
C567 C 0.51743 0.2584 0.74865 0.0
C568 C 0.53292 0.28032 0.74158 0.0
C569 C 0.48764 0.21846 0.7628 0.0
C570 C 0.49739 0.23748 0.77429 0.0
C571 C 0.51221 0.25717 0.76709 0.0
C572 C 0.49326 0.2363 0.79391 0.0
C573 C 0.47258 0.19618 0.76985 0.0
C574 C 0.46859 0.23711 0.80101 0.0
C575 C 0.46442 0.2319 0.81911 0.0
C576 C 0.4849 0.22599 0.83047 0.0
C577 C 0.50975 0.22706 0.82358 0.0
C578 C 0.51388 0.23217 0.80545 0.0
H579 H 0.47145 0.18045 0.75997 0.0
H580 H 0.48112 0.1887 0.78237 0.0
H581 H 0.45292 0.20245 0.77287 0.0
H582 H 0.45245 0.24074 0.79238 0.0
H583 H 0.44507 0.23145 0.82401 0.0
H584 H 0.82417 0.49579 0.18537 0.0
H585 H 0.81328 0.48777 0.21643 0.0
H586 H 0.75545 0.5459 0.2139 0.0
H587 H 0.76819 0.55555 0.18307 0.0
H588 H 0.77678 0.55217 0.24239 0.0
H589 H 0.76155 0.44933 0.24108 0.0
H590 H 0.79267 0.45471 0.23233 0.0
H591 H 0.76523 0.46721 0.2207 0.0
C592 C 0.80878 0.50652 0.19133 0.0
C593 C 0.79685 0.52613 0.18178 0.0
C594 C 0.80233 0.50174 0.20912 0.0
C595 C 0.78294 0.51563 0.2176 0.0
C596 C 0.77039 0.53475 0.20778 0.0
H597 H 0.76667 0.46248 0.32862 0.0
H598 H 0.75487 0.47188 0.29758 0.0
C599 C 0.77754 0.54019 0.19013 0.0
C600 C 0.77779 0.51186 0.23709 0.0
H601 H 0.77747 0.4663 0.26956 0.0
C602 C 0.77631 0.53332 0.24824 0.0
C603 C 0.77614 0.48742 0.245 0.0
C604 C 0.77365 0.46346 0.23405 0.0
C605 C 0.7751 0.53101 0.26694 0.0
C606 C 0.77713 0.50662 0.27489 0.0
C607 C 0.7767 0.48514 0.26371 0.0
C608 C 0.78159 0.50297 0.29447 0.0
C609 C 0.7715 0.55488 0.27782 0.0
C610 C 0.80021 0.51741 0.30336 0.0
C611 C 0.80609 0.51275 0.32127 0.0
C612 C 0.79437 0.49274 0.33054 0.0
C613 C 0.77584 0.47814 0.32178 0.0
C614 C 0.76922 0.48345 0.30401 0.0
H615 H 0.7593 0.56867 0.27055 0.0
H616 H 0.76267 0.55088 0.291 0.0
H617 H 0.7902 0.56416 0.27992 0.0
H618 H 0.81102 0.53172 0.29629 0.0
H619 H 0.8209 0.5239 0.32757 0.0
H620 H 0.56611 0.79264 0.82114 0.0
H621 H 0.55512 0.78405 0.78997 0.0
H622 H 0.47617 0.77714 0.80454 0.0
H623 H 0.4869 0.78631 0.83573 0.0
H624 H 0.52992 0.74548 0.77109 0.0
H625 H 0.47611 0.83634 0.76926 0.0
H626 H 0.49669 0.82793 0.78761 0.0
H627 H 0.46553 0.81415 0.78591 0.0
C628 C 0.54644 0.78887 0.8178 0.0
C629 C 0.52732 0.79054 0.83089 0.0
C630 C 0.54021 0.78394 0.79995 0.0
C631 C 0.51477 0.78053 0.79487 0.0
C632 C 0.49586 0.78029 0.80811 0.0
H633 H 0.44615 0.78784 0.68895 0.0
H634 H 0.45335 0.77793 0.72049 0.0
C635 C 0.50205 0.78539 0.82595 0.0
C636 C 0.50796 0.77939 0.77561 0.0
H637 H 0.47653 0.81207 0.74293 0.0
C638 C 0.51812 0.75993 0.76493 0.0
C639 C 0.49269 0.79837 0.76756 0.0
C640 C 0.48228 0.82052 0.7781 0.0
C641 C 0.51338 0.75895 0.74642 0.0
C642 C 0.49838 0.77811 0.73839 0.0
C643 C 0.48788 0.79728 0.74913 0.0
C644 C 0.49434 0.77975 0.71876 0.0
C645 C 0.5244 0.73739 0.73565 0.0
C646 C 0.51501 0.78355 0.7072 0.0
C647 C 0.51097 0.78921 0.68913 0.0
C648 C 0.48614 0.79138 0.68233 0.0
C649 C 0.46552 0.78634 0.69375 0.0
C650 C 0.46958 0.78067 0.7118 0.0
H651 H 0.52879 0.7207 0.74421 0.0
H652 H 0.51116 0.73138 0.72489 0.0
H653 H 0.54237 0.74378 0.72933 0.0
H654 H 0.53426 0.78346 0.71233 0.0
H655 H 0.52727 0.79309 0.68073 0.0
H656 H 0.78822 0.4872 0.83513 0.0
H657 H 0.77897 0.47706 0.80387 0.0
H658 H 0.78452 0.55644 0.79013 0.0
H659 H 0.79318 0.56684 0.82141 0.0
H660 H 0.74621 0.53113 0.77111 0.0
H661 H 0.83774 0.47862 0.76835 0.0
H662 H 0.81596 0.46729 0.78501 0.0
H663 H 0.82921 0.49867 0.78695 0.0
C664 C 0.787 0.50256 0.82553 0.0
C665 C 0.79176 0.52779 0.83073 0.0
C666 C 0.78185 0.49671 0.80764 0.0
C667 C 0.78168 0.51592 0.7946 0.0
C668 C 0.78473 0.54129 0.79995 0.0
H669 H 0.79228 0.52872 0.68013 0.0
H670 H 0.78328 0.53592 0.7118 0.0
C671 C 0.7897 0.54719 0.81785 0.0
C672 C 0.78043 0.5095 0.77528 0.0
H673 H 0.81287 0.47868 0.74224 0.0
C674 C 0.76069 0.51956 0.76479 0.0
C675 C 0.79947 0.49455 0.76703 0.0
C676 C 0.82193 0.48432 0.77734 0.0
C677 C 0.75944 0.51495 0.74627 0.0
C678 C 0.77858 0.50016 0.73805 0.0
C679 C 0.79809 0.48985 0.74859 0.0
C680 C 0.77977 0.49603 0.71842 0.0
C681 C 0.73759 0.52581 0.7357 0.0
C682 C 0.78054 0.47124 0.71154 0.0
C683 C 0.78582 0.46706 0.69345 0.0
C684 C 0.79063 0.48761 0.6819 0.0
C685 C 0.78857 0.51248 0.68864 0.0
C686 C 0.78329 0.51664 0.70675 0.0
H687 H 0.72111 0.53028 0.74442 0.0
H688 H 0.74379 0.54371 0.72917 0.0
H689 H 0.73135 0.51243 0.72509 0.0
H690 H 0.77799 0.45505 0.72032 0.0
H691 H 0.78724 0.44766 0.68872 0.0
H692 H 0.44252 0.78729 0.3239 0.0
H693 H 0.45008 0.77682 0.2925 0.0
H694 H 0.53085 0.7835 0.30095 0.0
H695 H 0.5235 0.79372 0.33239 0.0
H696 H 0.47317 0.81093 0.26984 0.0
H697 H 0.52635 0.72011 0.26963 0.0
H698 H 0.50835 0.73087 0.28874 0.0
H699 H 0.53951 0.7435 0.28444 0.0
C700 C 0.46193 0.7859 0.31921 0.0
C701 C 0.48241 0.79146 0.33065 0.0
C702 C 0.46621 0.77992 0.30124 0.0
C703 C 0.49103 0.77917 0.29438 0.0
C704 C 0.51156 0.78346 0.30599 0.0
H705 H 0.56472 0.79148 0.19278 0.0
H706 H 0.55304 0.78306 0.22385 0.0
C707 C 0.50731 0.78945 0.32397 0.0
C708 C 0.49528 0.77727 0.2748 0.0
H709 H 0.52778 0.74463 0.2426 0.0
C710 C 0.48477 0.7962 0.26384 0.0
C711 C 0.51062 0.75817 0.26702 0.0
C712 C 0.52168 0.73686 0.27804 0.0
C713 C 0.48993 0.79716 0.24545 0.0
C714 C 0.50557 0.77827 0.23767 0.0
C715 C 0.5157 0.75901 0.24856 0.0
C716 C 0.51282 0.77933 0.21848 0.0
C717 C 0.47952 0.81912 0.23469 0.0
C718 C 0.49423 0.77892 0.20501 0.0
C719 C 0.50081 0.78394 0.18723 0.0
C720 C 0.52617 0.78915 0.18258 0.0
C721 C 0.54499 0.78765 0.1959 0.0
C722 C 0.53836 0.78281 0.21369 0.0
H723 H 0.47303 0.83496 0.24338 0.0
H724 H 0.49404 0.82658 0.22529 0.0
H725 H 0.46298 0.81253 0.22675 0.0
H726 H 0.47447 0.77569 0.20836 0.0
H727 H 0.48589 0.78472 0.17727 0.0
H728 H 0.23225 0.52574 0.83581 0.0
H729 H 0.24189 0.53699 0.80479 0.0
H730 H 0.23258 0.45869 0.78918 0.0
H731 H 0.22346 0.44716 0.82019 0.0
H732 H 0.27216 0.48365 0.77065 0.0
H733 H 0.18235 0.53927 0.76961 0.0
H734 H 0.20472 0.54877 0.78645 0.0
H735 H 0.19028 0.51786 0.7876 0.0
C736 C 0.23275 0.51082 0.82585 0.0
C737 C 0.22675 0.4856 0.83044 0.0
C738 C 0.23814 0.51731 0.80811 0.0
C739 C 0.23736 0.49877 0.79462 0.0
C740 C 0.23313 0.47332 0.79936 0.0
H741 H 0.22477 0.48975 0.68036 0.0
H742 H 0.23449 0.48171 0.71181 0.0
C743 C 0.22789 0.46678 0.81711 0.0
C744 C 0.23865 0.50609 0.77547 0.0
H745 H 0.20656 0.53904 0.74326 0.0
C746 C 0.25793 0.49589 0.76465 0.0
C747 C 0.21996 0.52193 0.76765 0.0
C748 C 0.19801 0.53244 0.77835 0.0
C749 C 0.25903 0.50117 0.74622 0.0
C750 C 0.24013 0.51675 0.7384 0.0
C751 C 0.22114 0.52726 0.74929 0.0
C752 C 0.23856 0.52139 0.71884 0.0
C753 C 0.28041 0.49012 0.7353 0.0
C754 C 0.23781 0.54636 0.71225 0.0
C755 C 0.23207 0.55103 0.69429 0.0
C756 C 0.22679 0.5308 0.68258 0.0
C757 C 0.22884 0.50576 0.68899 0.0
C758 C 0.23455 0.50111 0.70698 0.0
H759 H 0.29706 0.48532 0.7438 0.0
H760 H 0.27379 0.47236 0.7288 0.0
H761 H 0.28658 0.50351 0.72467 0.0
H762 H 0.24073 0.56231 0.72118 0.0
H763 H 0.23067 0.57055 0.68979 0.0
H764 H 0.57064 0.23082 0.32417 0.0
H765 H 0.56306 0.24076 0.29269 0.0
H766 H 0.48239 0.23255 0.30089 0.0
H767 H 0.48975 0.22286 0.33244 0.0
H768 H 0.54082 0.20568 0.27034 0.0
H769 H 0.48586 0.29545 0.26892 0.0
H770 H 0.50394 0.28543 0.28822 0.0
H771 H 0.4731 0.27205 0.28391 0.0
C772 C 0.55123 0.23176 0.31941 0.0
C773 C 0.5308 0.22591 0.33081 0.0
C774 C 0.54694 0.23744 0.30139 0.0
C775 C 0.52216 0.23758 0.29444 0.0
C776 C 0.50164 0.23305 0.30601 0.0
H777 H 0.45037 0.2221 0.19226 0.0
H778 H 0.46122 0.23125 0.22338 0.0
C779 C 0.5059 0.22737 0.32404 0.0
C780 C 0.51804 0.23903 0.27482 0.0
H781 H 0.4854 0.27051 0.2421 0.0
C782 C 0.52903 0.2201 0.26412 0.0
C783 C 0.50243 0.25769 0.26677 0.0
C784 C 0.49082 0.27896 0.27751 0.0
C785 C 0.52416 0.21874 0.24571 0.0
C786 C 0.50831 0.23722 0.23764 0.0
C787 C 0.49764 0.25645 0.24828 0.0
C788 C 0.50146 0.23576 0.2184 0.0
C789 C 0.53512 0.19679 0.23523 0.0
C790 C 0.52032 0.23636 0.20513 0.0
C791 C 0.51421 0.23092 0.18732 0.0
C792 C 0.48907 0.22508 0.18245 0.0
C793 C 0.46994 0.2264 0.19556 0.0
C794 C 0.4761 0.23166 0.21337 0.0
H795 H 0.54172 0.1812 0.24411 0.0
H796 H 0.52089 0.18895 0.22576 0.0
H797 H 0.55169 0.20355 0.22739 0.0
H798 H 0.53993 0.24006 0.20865 0.0
H799 H 0.52936 0.2303 0.17753 0.0
H800 H 0.16577 0.44551 0.939 0.0
H801 H 0.17346 0.45036 0.97089 0.0
H802 H 0.25063 0.47357 0.96004 0.0
H803 H 0.24234 0.47021 0.92778 0.0
H804 H 0.20292 0.42531 0.99101 0.0
H805 H 0.23262 0.52614 0.99581 0.0
H806 H 0.21942 0.51286 0.97562 0.0
H807 H 0.25232 0.50773 0.98116 0.0
C808 C 0.18434 0.45188 0.94339 0.0
C809 C 0.20349 0.45744 0.93093 0.0
C810 C 0.18874 0.45466 0.96166 0.0
C811 C 0.21258 0.46255 0.96801 0.0
C812 C 0.23186 0.46811 0.95556 0.0
H813 H 0.23719 0.42797 0.08124 0.0
H814 H 0.24371 0.43032 0.04886 0.0
C815 C 0.22721 0.46597 0.93713 0.0
C816 C 0.21714 0.46339 0.98768 0.0
H817 H 0.23596 0.50148 0.02228 0.0
C818 C 0.21012 0.44203 0.99781 0.0
C819 C 0.22639 0.48522 0.99665 0.0
C820 C 0.23289 0.50938 0.98679 0.0
C821 C 0.21122 0.44208 0.01654 0.0
C822 C 0.22111 0.46363 0.02553 0.0
C823 C 0.2287 0.48485 0.01542 0.0
C824 C 0.22203 0.46497 0.04543 0.0
C825 C 0.20042 0.41945 0.02639 0.0
C826 C 0.20979 0.4849 0.05453 0.0
C827 C 0.20707 0.48414 0.07315 0.0
C828 C 0.21615 0.46321 0.08288 0.0
C829 C 0.22986 0.44419 0.07396 0.0
C830 C 0.2333 0.44539 0.05545 0.0
H831 H 0.18695 0.40852 0.01792 0.0
H832 H 0.2161 0.40643 0.03018 0.0
H833 H 0.19026 0.42537 0.03871 0.0
H834 H 0.20111 0.50036 0.04715 0.0
H835 H 0.19631 0.49895 0.07976 0.0
H836 H 0.59369 0.20293 0.43966 0.0
H837 H 0.58684 0.21253 0.47111 0.0
H838 H 0.50896 0.23241 0.45997 0.0
H839 H 0.51556 0.22246 0.42821 0.0
H840 H 0.57044 0.25724 0.48857 0.0
H841 H 0.50334 0.1765 0.49853 0.0
H842 H 0.52297 0.17914 0.47883 0.0
H843 H 0.49567 0.19923 0.48138 0.0
C844 C 0.57508 0.20947 0.44379 0.0
C845 C 0.55509 0.21167 0.43139 0.0
C846 C 0.57124 0.21504 0.46181 0.0
C847 C 0.54733 0.22286 0.46794 0.0
C848 C 0.52748 0.22602 0.45556 0.0
H849 H 0.51453 0.22454 0.58378 0.0
H850 H 0.50887 0.23375 0.55182 0.0
C851 C 0.53132 0.22047 0.43741 0.0
C852 C 0.54345 0.22653 0.48742 0.0
H853 H 0.51692 0.19831 0.52409 0.0
C854 C 0.55839 0.24465 0.49632 0.0
C855 C 0.52763 0.21017 0.49752 0.0
C856 C 0.51155 0.19002 0.48868 0.0
C857 C 0.55884 0.24606 0.51507 0.0
C858 C 0.54427 0.22865 0.52518 0.0
C859 C 0.52811 0.2116 0.51629 0.0
C860 C 0.54789 0.22565 0.54475 0.0
C861 C 0.57548 0.26573 0.5239 0.0
C862 C 0.57166 0.21807 0.55135 0.0
C863 C 0.57491 0.21268 0.56947 0.0
C864 C 0.55442 0.2147 0.58146 0.0
C865 C 0.53072 0.22293 0.57493 0.0
C866 C 0.52744 0.22816 0.55668 0.0
H867 H 0.57855 0.28237 0.515 0.0
H868 H 0.56708 0.27241 0.53668 0.0
H869 H 0.59433 0.25723 0.52682 0.0
H870 H 0.58758 0.21549 0.54235 0.0
H871 H 0.59341 0.20639 0.57401 0.0
H872 H 0.80277 0.51517 0.08452 0.0
H873 H 0.79371 0.50844 0.05262 0.0
H874 H 0.80717 0.58793 0.04237 0.0
H875 H 0.81591 0.59488 0.07394 0.0
H876 H 0.76406 0.56825 0.02454 0.0
H877 H 0.85016 0.5084 0.0142 0.0
H878 H 0.82819 0.49846 0.03125 0.0
H879 H 0.84579 0.52739 0.03405 0.0
C880 C 0.80353 0.53124 0.07548 0.0
C881 C 0.81029 0.55552 0.08179 0.0
C882 C 0.7985 0.52733 0.05725 0.0
C883 C 0.80012 0.54763 0.04509 0.0
C884 C 0.80589 0.57198 0.05149 0.0
H885 H 0.81244 0.59497 0.93856 0.0
H886 H 0.80461 0.58873 0.97038 0.0
C887 C 0.81097 0.57588 0.06959 0.0
C888 C 0.79688 0.54386 0.02554 0.0
H889 H 0.82701 0.52006 0.98871 0.0
C890 C 0.77757 0.55737 0.01672 0.0
C891 C 0.81448 0.5296 0.01535 0.0
C892 C 0.83596 0.51522 0.02409 0.0
C893 C 0.77603 0.55785 0.99798 0.0
C894 C 0.79448 0.54478 0.98778 0.0
C895 C 0.8129 0.53008 0.99658 0.0
C896 C 0.79682 0.54849 0.96817 0.0
C897 C 0.75505 0.57289 0.98922 0.0
C898 C 0.79516 0.52789 0.95631 0.0
C899 C 0.79958 0.53141 0.93798 0.0
C900 C 0.80618 0.55553 0.93129 0.0
C901 C 0.8074 0.57614 0.94322 0.0
C902 C 0.80276 0.57265 0.96144 0.0
H903 H 0.73845 0.57503 0.99827 0.0
H904 H 0.76218 0.59219 0.98596 0.0
H905 H 0.74868 0.56373 0.97662 0.0
H906 H 0.79083 0.50904 0.96127 0.0
H907 H 0.79865 0.51511 0.92917 0.0
H908 H 0.42188 0.81127 0.5744 0.0
H909 H 0.42786 0.80255 0.54268 0.0
H910 H 0.50763 0.78908 0.55171 0.0
H911 H 0.50181 0.79782 0.58373 0.0
H912 H 0.49644 0.82452 0.52392 0.0
H913 H 0.44128 0.73585 0.51548 0.0
H914 H 0.42417 0.75982 0.52759 0.0
H915 H 0.45272 0.74655 0.53699 0.0
C916 C 0.44067 0.8061 0.56974 0.0
C917 C 0.46138 0.80526 0.58162 0.0
C918 C 0.44401 0.80094 0.55159 0.0
C919 C 0.46812 0.79484 0.54486 0.0
C920 C 0.48882 0.79353 0.55668 0.0
H921 H 0.49977 0.79863 0.42831 0.0
H922 H 0.50688 0.78973 0.46019 0.0
C923 C 0.48545 0.79846 0.57496 0.0
C924 C 0.47167 0.79206 0.52528 0.0
H925 H 0.44756 0.76111 0.48893 0.0
C926 C 0.48629 0.81029 0.51623 0.0
C927 C 0.45841 0.77346 0.51532 0.0
C928 C 0.44346 0.75265 0.52435 0.0
C929 C 0.4865 0.81156 0.49745 0.0
C930 C 0.47202 0.79384 0.48751 0.0
C931 C 0.4586 0.7747 0.49657 0.0
C932 C 0.46793 0.79684 0.46798 0.0
C933 C 0.5008 0.83286 0.48843 0.0
C934 C 0.44357 0.80295 0.46174 0.0
C935 C 0.43945 0.80797 0.44366 0.0
C936 C 0.4596 0.80686 0.43132 0.0
C937 C 0.48386 0.7997 0.43746 0.0
C938 C 0.48799 0.79476 0.45568 0.0
H939 H 0.50799 0.8471 0.49816 0.0
H940 H 0.5173 0.8249 0.48109 0.0
H941 H 0.48843 0.84268 0.47858 0.0
H942 H 0.42781 0.80459 0.47099 0.0
H943 H 0.42049 0.81322 0.43942 0.0
H944 H 0.19512 0.59423 0.43798 0.0
H945 H 0.2013 0.58931 0.47006 0.0
H946 H 0.23375 0.51509 0.4617 0.0
H947 H 0.22764 0.51979 0.42928 0.0
H948 H 0.17806 0.5462 0.48943 0.0
H949 H 0.28306 0.55353 0.49792 0.0
H950 H 0.26695 0.56732 0.47889 0.0
H951 H 0.27052 0.53354 0.48044 0.0
C952 C 0.20388 0.57693 0.44284 0.0
C953 C 0.21073 0.55732 0.43101 0.0
C954 C 0.20742 0.57419 0.46122 0.0
C955 C 0.21803 0.55189 0.46822 0.0
C956 C 0.22576 0.53256 0.45651 0.0
H957 H 0.22419 0.52043 0.58443 0.0
H958 H 0.23038 0.51484 0.55207 0.0
C959 C 0.2222 0.53527 0.43801 0.0
C960 C 0.21883 0.54845 0.48787 0.0
H961 H 0.25834 0.55038 0.52414 0.0
C962 C 0.19563 0.54675 0.49701 0.0
C963 C 0.2418 0.54904 0.49768 0.0
C964 C 0.2671 0.55104 0.48835 0.0
C965 C 0.19471 0.54655 0.51574 0.0
C966 C 0.21755 0.54845 0.52558 0.0
C967 C 0.24088 0.54896 0.5165 0.0
C968 C 0.21699 0.55242 0.54516 0.0
C969 C 0.16922 0.54508 0.52491 0.0
C970 C 0.20812 0.5756 0.55191 0.0
C971 C 0.20457 0.57886 0.57024 0.0
C972 C 0.20983 0.55897 0.58227 0.0
C973 C 0.21992 0.53611 0.57554 0.0
C974 C 0.22348 0.53287 0.55708 0.0
H975 H 0.15415 0.53801 0.51577 0.0
H976 H 0.17017 0.53244 0.53679 0.0
H977 H 0.1637 0.56433 0.52956 0.0
H978 H 0.20319 0.59096 0.5429 0.0
H979 H 0.19699 0.5968 0.57491 0.0
H980 H 0.41986 0.19496 0.93823 0.0
H981 H 0.42547 0.20089 0.97028 0.0
H982 H 0.50121 0.22937 0.96143 0.0
H983 H 0.49581 0.22348 0.92904 0.0
H984 H 0.4681 0.17528 0.98924 0.0
H985 H 0.46536 0.28044 0.99808 0.0
H986 H 0.4503 0.2651 0.97923 0.0
H987 H 0.48424 0.26709 0.9803 0.0
C988 C 0.43765 0.2028 0.94298 0.0
C989 C 0.45747 0.20858 0.93102 0.0
C990 C 0.44078 0.20621 0.96134 0.0
C991 C 0.4637 0.21561 0.9682 0.0
C992 C 0.48327 0.22232 0.95635 0.0
H993 H 0.49667 0.22236 0.08413 0.0
H994 H 0.50167 0.22812 0.05168 0.0
C995 C 0.48017 0.21889 0.93787 0.0
C996 C 0.46744 0.21612 0.98783 0.0
H997 H 0.46754 0.25539 0.02422 0.0
C998 C 0.46833 0.1928 0.99688 0.0
C999 C 0.4679 0.23901 0.9977 0.0
C1000 C 0.46683 0.26444 0.98845 0.0
C1001 C 0.46874 0.19171 0.0156 0.0
C1002 C 0.46782 0.21454 0.02553 0.0
C1003 C 0.46815 0.23794 0.01652 0.0
C1004 C 0.46421 0.21401 0.04517 0.0
C1005 C 0.46949 0.16609 0.02465 0.0
C1006 C 0.44126 0.20492 0.05219 0.0
C1007 C 0.43834 0.20161 0.07057 0.0
C1008 C 0.45833 0.20737 0.0824 0.0
C1009 C 0.48093 0.21768 0.0754 0.0
C1010 C 0.48383 0.22099 0.05689 0.0
H1011 H 0.47646 0.15101 0.01549 0.0
H1012 H 0.48188 0.1666 0.03667 0.0
H1013 H 0.45002 0.16087 0.02902 0.0
H1014 H 0.4258 0.19968 0.04335 0.0
H1015 H 0.42058 0.19386 0.07545 0.0
H1016 H 0.79465 0.50086 0.42802 0.0
H1017 H 0.78549 0.50649 0.45999 0.0
H1018 H 0.80844 0.42916 0.47006 0.0
H1019 H 0.81733 0.42326 0.43839 0.0
H1020 H 0.7633 0.44378 0.48811 0.0
H1021 H 0.84203 0.51317 0.4981 0.0
H1022 H 0.81892 0.52043 0.48113 0.0
H1023 H 0.83974 0.49374 0.47828 0.0
C1024 C 0.79752 0.485 0.43703 0.0
C1025 C 0.80693 0.46167 0.43063 0.0
C1026 C 0.79241 0.4883 0.4553 0.0
C1027 C 0.79662 0.46834 0.46743 0.0
C1028 C 0.80512 0.44484 0.46096 0.0
H1029 H 0.8136 0.42235 0.57393 0.0
H1030 H 0.80491 0.42782 0.54218 0.0
C1031 C 0.81027 0.44154 0.44281 0.0
C1032 C 0.79316 0.47171 0.48699 0.0
H1033 H 0.82058 0.49898 0.52368 0.0
C1034 C 0.77554 0.45615 0.49587 0.0
C1035 C 0.80905 0.48796 0.4971 0.0
C1036 C 0.82865 0.50472 0.48827 0.0
C1037 C 0.77413 0.45563 0.51462 0.0
C1038 C 0.79106 0.47073 0.52475 0.0
C1039 C 0.80764 0.48739 0.51587 0.0
C1040 C 0.79399 0.46733 0.54436 0.0
C1041 C 0.7549 0.43844 0.52342 0.0
C1042 C 0.79097 0.48782 0.5562 0.0
C1043 C 0.79599 0.48476 0.57451 0.0
C1044 C 0.80451 0.46125 0.58119 0.0
C1045 C 0.80707 0.44073 0.56928 0.0
C1046 C 0.80191 0.44376 0.5511 0.0
H1047 H 0.73835 0.43497 0.51451 0.0
H1048 H 0.76389 0.41981 0.5263 0.0
H1049 H 0.74798 0.44661 0.53621 0.0
H1050 H 0.7851 0.50625 0.55124 0.0
H1051 H 0.79396 0.50099 0.58329 0.0
H1052 H 0.52067 0.79032 0.08423 0.0
H1053 H 0.51581 0.78443 0.0518 0.0
H1054 H 0.59132 0.81384 0.04352 0.0
H1055 H 0.59639 0.8198 0.07561 0.0
H1056 H 0.54928 0.83899 0.02423 0.0
H1057 H 0.55201 0.73385 0.01538 0.0
H1058 H 0.53255 0.74707 0.0329 0.0
H1059 H 0.56645 0.74919 0.03446 0.0
C1060 C 0.53639 0.79512 0.07552 0.0
C1061 C 0.55886 0.8057 0.08254 0.0
C1062 C 0.53359 0.79168 0.05701 0.0
C1063 C 0.55325 0.79865 0.04531 0.0
C1064 C 0.57595 0.80832 0.05234 0.0
H1065 H 0.59675 0.82032 0.93799 0.0
H1066 H 0.5916 0.81433 0.97009 0.0
C1067 C 0.57877 0.81174 0.07073 0.0
C1068 C 0.54977 0.79815 0.02565 0.0
H1069 H 0.54961 0.75889 0.98924 0.0
C1070 C 0.54903 0.82147 0.01659 0.0
C1071 C 0.54926 0.77526 0.01577 0.0
C1072 C 0.55019 0.74982 0.025 0.0
C1073 C 0.54869 0.82256 0.99787 0.0
C1074 C 0.54952 0.79974 0.98793 0.0
C1075 C 0.54907 0.77633 0.99694 0.0
C1076 C 0.5531 0.80026 0.96829 0.0
C1077 C 0.54808 0.84819 0.98882 0.0
C1078 C 0.53339 0.79346 0.95658 0.0
C1079 C 0.53625 0.79687 0.93807 0.0
C1080 C 0.55889 0.8071 0.93107 0.0
C1081 C 0.57896 0.81265 0.94288 0.0
C1082 C 0.57608 0.80923 0.96126 0.0
H1083 H 0.54122 0.86331 0.99799 0.0
H1084 H 0.56757 0.85329 0.98443 0.0
H1085 H 0.53567 0.84776 0.97681 0.0
H1086 H 0.51553 0.78643 0.96179 0.0
H1087 H 0.52045 0.79236 0.92936 0.0
H1088 H 0.19347 0.34024 0.12926 0.0
H1089 H 0.22157 0.30379 0.13377 0.0
H1090 H 0.27021 0.34946 0.16724 0.0
H1091 H 0.24198 0.38584 0.16308 0.0
H1092 H 0.27058 0.30279 0.12283 0.0
H1093 H 0.26714 0.284 0.19567 0.0
H1094 H 0.2438 0.30341 0.1844 0.0
H1095 H 0.2742 0.31651 0.19041 0.0
C1096 C 0.20982 0.34239 0.13793 0.0
C1097 C 0.21548 0.366 0.14579 0.0
C1098 C 0.22591 0.32152 0.14047 0.0
C1099 C 0.24792 0.32376 0.15097 0.0
C1100 C 0.25308 0.34704 0.1594 0.0
H1101 H 0.38818 0.24075 0.16262 0.0
H1102 H 0.35202 0.26965 0.16568 0.0
C1103 C 0.23696 0.36791 0.15692 0.0
C1104 C 0.26679 0.3027 0.15149 0.0
H1105 H 0.30149 0.26483 0.17953 0.0
C1106 C 0.27707 0.29426 0.13522 0.0
C1107 C 0.27544 0.2917 0.16767 0.0
C1108 C 0.26441 0.29919 0.18552 0.0
C1109 C 0.29621 0.27569 0.13469 0.0
C1110 C 0.30506 0.26488 0.15086 0.0
C1111 C 0.29464 0.27309 0.16715 0.0
C1112 C 0.32586 0.24577 0.15101 0.0
C1113 C 0.30742 0.26848 0.11681 0.0
C1114 C 0.32291 0.2223 0.14234 0.0
C1115 C 0.34356 0.20574 0.14054 0.0
C1116 C 0.36754 0.21229 0.14746 0.0
C1117 C 0.37002 0.23514 0.15708 0.0
C1118 C 0.34935 0.2517 0.15885 0.0
H1119 H 0.30268 0.28255 0.10624 0.0
H1120 H 0.32842 0.26681 0.1177 0.0
H1121 H 0.29971 0.24978 0.11264 0.0
H1122 H 0.30482 0.21713 0.13648 0.0
H1123 H 0.34093 0.18824 0.13315 0.0
H1124 H 0.77666 0.38958 0.66342 0.0
H1125 H 0.74678 0.35457 0.66783 0.0
H1126 H 0.79121 0.30747 0.63253 0.0
H1127 H 0.82139 0.34228 0.62823 0.0
H1128 H 0.71863 0.33391 0.64066 0.0
H1129 H 0.77572 0.25849 0.67331 0.0
H1130 H 0.7859 0.29125 0.67247 0.0
H1131 H 0.7899 0.27099 0.65332 0.0
C1132 C 0.78042 0.3716 0.65689 0.0
C1133 C 0.80144 0.36877 0.64545 0.0
C1134 C 0.76327 0.3516 0.65941 0.0
C1135 C 0.76681 0.32828 0.65064 0.0
C1136 C 0.78831 0.32507 0.63974 0.0
H1137 H 0.6731 0.19736 0.62746 0.0
H1138 H 0.70796 0.22758 0.63163 0.0
C1139 C 0.80551 0.34507 0.63723 0.0
C1140 C 0.74671 0.3084 0.65142 0.0
H1141 H 0.7355 0.24596 0.66137 0.0
C1142 C 0.72226 0.31476 0.64539 0.0
C1143 C 0.7515 0.28334 0.65743 0.0
C1144 C 0.77711 0.27561 0.66466 0.0
C1145 C 0.70266 0.29669 0.64479 0.0
C1146 C 0.70742 0.27159 0.65074 0.0
C1147 C 0.73183 0.26521 0.65688 0.0
C1148 C 0.68741 0.25165 0.65006 0.0
C1149 C 0.67723 0.30445 0.63719 0.0
C1150 C 0.66459 0.25457 0.65958 0.0
C1151 C 0.64458 0.23738 0.65718 0.0
C1152 C 0.64707 0.21678 0.64532 0.0
C1153 C 0.67051 0.21304 0.63666 0.0
C1154 C 0.69048 0.2303 0.63902 0.0
H1155 H 0.67857 0.32225 0.62925 0.0
H1156 H 0.6693 0.28927 0.62852 0.0
H1157 H 0.66371 0.3078 0.64832 0.0
H1158 H 0.66198 0.27059 0.66847 0.0
H1159 H 0.62687 0.24074 0.66416 0.0
H1160 H 0.82283 0.67753 0.12973 0.0
H1161 H 0.79194 0.71134 0.13507 0.0
H1162 H 0.74866 0.66122 0.16902 0.0
H1163 H 0.77933 0.62714 0.16357 0.0
H1164 H 0.71998 0.68325 0.14247 0.0
H1165 H 0.77597 0.75726 0.17745 0.0
H1166 H 0.7905 0.74629 0.15715 0.0
H1167 H 0.78659 0.72473 0.17562 0.0
C1168 C 0.80703 0.67382 0.13863 0.0
C1169 C 0.80355 0.64958 0.1462 0.0
C1170 C 0.78944 0.69326 0.14176 0.0
C1171 C 0.76809 0.68895 0.1526 0.0
C1172 C 0.76505 0.66503 0.16067 0.0
H1173 H 0.62723 0.77534 0.16649 0.0
H1174 H 0.66215 0.74527 0.1708 0.0
C1175 C 0.78264 0.64558 0.15757 0.0
C1176 C 0.74771 0.70843 0.15401 0.0
H1177 H 0.73595 0.77027 0.16532 0.0
C1178 C 0.72339 0.70218 0.14769 0.0
C1179 C 0.75222 0.73319 0.16068 0.0
C1180 C 0.77767 0.74075 0.16827 0.0
C1181 C 0.70368 0.72015 0.14733 0.0
C1182 C 0.70822 0.74501 0.15385 0.0
C1183 C 0.73246 0.75121 0.16038 0.0
C1184 C 0.68823 0.76497 0.15324 0.0
C1185 C 0.67845 0.71261 0.13932 0.0
C1186 C 0.69172 0.78679 0.14271 0.0
C1187 C 0.67186 0.80419 0.14037 0.0
C1188 C 0.64812 0.80009 0.14853 0.0
C1189 C 0.64519 0.77898 0.15989 0.0
C1190 C 0.66509 0.76167 0.16229 0.0
H1191 H 0.68 0.69514 0.13106 0.0
H1192 H 0.6647 0.70878 0.15024 0.0
H1193 H 0.67065 0.7281 0.13085 0.0
H1194 H 0.70946 0.78982 0.13569 0.0
H1195 H 0.6748 0.82026 0.13156 0.0
H1196 H 0.1943 0.6765 0.62885 0.0
H1197 H 0.2248 0.71124 0.63255 0.0
H1198 H 0.26815 0.66543 0.66936 0.0
H1199 H 0.23803 0.63046 0.66552 0.0
H1200 H 0.24402 0.73904 0.66195 0.0
H1201 H 0.31916 0.68103 0.62955 0.0
H1202 H 0.28608 0.67206 0.62918 0.0
H1203 H 0.30497 0.66648 0.64883 0.0
C1204 C 0.2101 0.67393 0.63795 0.0
C1205 C 0.21387 0.65057 0.64673 0.0
C1206 C 0.22754 0.69383 0.64005 0.0
C1207 C 0.24906 0.69075 0.65093 0.0
C1208 C 0.25199 0.66804 0.66058 0.0
H1209 H 0.388 0.77852 0.66343 0.0
H1210 H 0.35264 0.74909 0.66798 0.0
C1211 C 0.23465 0.64811 0.65845 0.0
C1212 C 0.26919 0.71059 0.6513 0.0
H1213 H 0.3315 0.721 0.6408 0.0
C1214 C 0.26316 0.73513 0.65735 0.0
C1215 C 0.29414 0.7055 0.6452 0.0
C1216 C 0.30151 0.67993 0.63766 0.0
C1217 C 0.28153 0.75459 0.6577 0.0
C1218 C 0.30646 0.74945 0.65159 0.0
C1219 C 0.31245 0.72489 0.64562 0.0
C1220 C 0.32658 0.76928 0.65068 0.0
C1221 C 0.27419 0.78035 0.66484 0.0
C1222 C 0.32362 0.7907 0.63966 0.0
C1223 C 0.34383 0.80763 0.63705 0.0
C1224 C 0.36748 0.80336 0.64531 0.0
C1225 C 0.37007 0.78242 0.65687 0.0
C1226 C 0.34987 0.76553 0.65947 0.0
H1227 H 0.25707 0.77927 0.6735 0.0
H1228 H 0.28998 0.78893 0.67262 0.0
H1229 H 0.26976 0.79315 0.65346 0.0
H1230 H 0.30604 0.79375 0.63244 0.0
H1231 H 0.34122 0.82346 0.62798 0.0
H1232 H 0.33643 0.82644 0.38371 0.0
H1233 H 0.30077 0.79719 0.37954 0.0
H1234 H 0.34882 0.74711 0.34896 0.0
H1235 H 0.38445 0.77648 0.35274 0.0
H1236 H 0.29952 0.75076 0.33506 0.0
H1237 H 0.29798 0.73116 0.40806 0.0
H1238 H 0.29412 0.76405 0.40228 0.0
H1239 H 0.32359 0.7482 0.39743 0.0
C1240 C 0.33933 0.8094 0.37586 0.0
C1241 C 0.36338 0.80369 0.36872 0.0
C1242 C 0.31895 0.79261 0.37359 0.0
C1243 C 0.32228 0.76967 0.36429 0.0
C1244 C 0.34585 0.76461 0.35628 0.0
H1245 H 0.24159 0.62827 0.34989 0.0
H1246 H 0.26957 0.66507 0.34669 0.0
C1247 C 0.36622 0.78145 0.35847 0.0
C1248 C 0.30174 0.75026 0.36381 0.0
H1249 H 0.26641 0.71135 0.39063 0.0
C1250 C 0.29221 0.74219 0.3472 0.0
C1251 C 0.29229 0.73897 0.37966 0.0
C1252 C 0.30263 0.74581 0.39787 0.0
C1253 C 0.27336 0.72328 0.34605 0.0
C1254 C 0.26406 0.71191 0.3619 0.0
C1255 C 0.2734 0.7202 0.37849 0.0
C1256 C 0.24549 0.69061 0.36175 0.0
C1257 C 0.2634 0.71579 0.32789 0.0
C1258 C 0.22254 0.69267 0.37122 0.0
C1259 C 0.20653 0.67161 0.37314 0.0
C1260 C 0.21325 0.64796 0.36575 0.0
C1261 C 0.23576 0.64621 0.35568 0.0
C1262 C 0.25175 0.6673 0.35375 0.0
H1263 H 0.26686 0.73089 0.31779 0.0
H1264 H 0.27333 0.69834 0.32336 0.0
H1265 H 0.24272 0.7117 0.3284 0.0
H1266 H 0.21738 0.71042 0.37758 0.0
H1267 H 0.18939 0.67364 0.38101 0.0
H1268 H 0.33882 0.18951 0.88193 0.0
H1269 H 0.30247 0.21805 0.87833 0.0
H1270 H 0.34892 0.26964 0.84769 0.0
H1271 H 0.38519 0.24106 0.85097 0.0
H1272 H 0.30086 0.2664 0.89122 0.0
H1273 H 0.28438 0.26824 0.81809 0.0
H1274 H 0.30343 0.24409 0.82881 0.0
H1275 H 0.31673 0.27486 0.82407 0.0
C1276 C 0.34117 0.20665 0.87408 0.0
C1277 C 0.36495 0.21298 0.86674 0.0
C1278 C 0.32037 0.22298 0.87207 0.0
C1279 C 0.32283 0.2459 0.86259 0.0
C1280 C 0.34633 0.25183 0.85473 0.0
H1281 H 0.2409 0.38686 0.85331 0.0
H1282 H 0.26973 0.35066 0.85025 0.0
C1283 C 0.36713 0.2355 0.85671 0.0
C1284 C 0.30171 0.26471 0.86246 0.0
H1285 H 0.26488 0.30153 0.83509 0.0
C1286 C 0.29274 0.27381 0.87894 0.0
C1287 C 0.29124 0.27453 0.84645 0.0
C1288 C 0.29925 0.26476 0.82835 0.0
C1289 C 0.27424 0.293 0.87986 0.0
C1290 C 0.26403 0.3031 0.86385 0.0
C1291 C 0.27269 0.29376 0.84735 0.0
C1292 C 0.2452 0.32417 0.86407 0.0
C1293 C 0.26653 0.30299 0.89799 0.0
C1294 C 0.22142 0.32111 0.87232 0.0
C1295 C 0.20489 0.3418 0.87413 0.0
C1296 C 0.21176 0.36593 0.86762 0.0
C1297 C 0.23503 0.36858 0.85853 0.0
C1298 C 0.25154 0.34789 0.85676 0.0
H1299 H 0.28023 0.29741 0.90859 0.0
H1300 H 0.26499 0.32403 0.89781 0.0
H1301 H 0.24766 0.29511 0.9016 0.0
H1302 H 0.21591 0.30285 0.87776 0.0
H1303 H 0.18708 0.33904 0.88111 0.0
H1304 H 0.62812 0.23821 0.34943 0.0
H1305 H 0.6627 0.26838 0.34432 0.0
H1306 H 0.71083 0.22563 0.38001 0.0
H1307 H 0.67645 0.19521 0.38505 0.0
H1308 H 0.68349 0.2975 0.37116 0.0
H1309 H 0.75884 0.24051 0.33845 0.0
H1310 H 0.72617 0.23011 0.33959 0.0
H1311 H 0.74675 0.2265 0.35863 0.0
C1312 C 0.64623 0.23488 0.3559 0.0
C1313 C 0.64948 0.21429 0.36768 0.0
C1314 C 0.66598 0.25219 0.35297 0.0
C1315 C 0.68946 0.24919 0.36165 0.0
C1316 C 0.69309 0.2281 0.37288 0.0
H1317 H 0.82026 0.34231 0.38407 0.0
H1318 H 0.78973 0.30782 0.37979 0.0
C1319 C 0.67333 0.21076 0.37582 0.0
C1320 C 0.70907 0.26947 0.36046 0.0
H1321 H 0.77133 0.28088 0.35018 0.0
C1322 C 0.70261 0.29394 0.36635 0.0
C1323 C 0.73407 0.26476 0.35433 0.0
C1324 C 0.74187 0.23911 0.34723 0.0
C1325 C 0.72059 0.31364 0.3668 0.0
C1326 C 0.74567 0.30893 0.36081 0.0
C1327 C 0.75209 0.28451 0.35471 0.0
C1328 C 0.76566 0.32887 0.3616 0.0
C1329 C 0.71279 0.33907 0.37436 0.0
C1330 C 0.76281 0.35188 0.35228 0.0
C1331 C 0.78019 0.37172 0.35477 0.0
C1332 C 0.80089 0.36883 0.3665 0.0
C1333 C 0.8045 0.34523 0.37498 0.0
C1334 C 0.78706 0.32545 0.37254 0.0
H1335 H 0.69499 0.33772 0.3823 0.0
H1336 H 0.72795 0.34704 0.38303 0.0
H1337 H 0.70941 0.35257 0.36321 0.0
H1338 H 0.74675 0.35475 0.34346 0.0
H1339 H 0.77693 0.38957 0.34793 0.0
H1340 H 0.77556 0.62732 0.84946 0.0
H1341 H 0.7459 0.66244 0.84467 0.0
H1342 H 0.79157 0.71051 0.87853 0.0
H1343 H 0.8215 0.6756 0.88321 0.0
H1344 H 0.71862 0.68466 0.87176 0.0
H1345 H 0.77584 0.75779 0.83676 0.0
H1346 H 0.78558 0.72494 0.83818 0.0
H1347 H 0.79037 0.74596 0.85683 0.0
C1348 C 0.77961 0.64552 0.85559 0.0
C1349 C 0.80092 0.64862 0.86675 0.0
C1350 C 0.7626 0.66558 0.85286 0.0
C1351 C 0.76659 0.68921 0.8611 0.0
C1352 C 0.78833 0.69265 0.87172 0.0
H1353 H 0.67497 0.82213 0.88256 0.0
H1354 H 0.70947 0.79145 0.87859 0.0
C1355 C 0.80538 0.67259 0.87446 0.0
C1356 C 0.74673 0.70929 0.86009 0.0
H1357 H 0.7361 0.7714 0.84887 0.0
C1358 C 0.72237 0.70353 0.86656 0.0
C1359 C 0.7517 0.73399 0.85346 0.0
C1360 C 0.77723 0.74105 0.84576 0.0
C1361 C 0.70303 0.72189 0.867 0.0
C1362 C 0.70798 0.74664 0.86042 0.0
C1363 C 0.7323 0.75241 0.85384 0.0
C1364 C 0.68824 0.76685 0.86088 0.0
C1365 C 0.67771 0.71483 0.87509 0.0
C1366 C 0.6652 0.76377 0.85167 0.0
C1367 C 0.6454 0.78122 0.85396 0.0
C1368 C 0.64835 0.80224 0.86539 0.0
C1369 C 0.67203 0.80614 0.87369 0.0
C1370 C 0.69179 0.7886 0.87144 0.0
H1371 H 0.67902 0.69738 0.88341 0.0
H1372 H 0.67022 0.73051 0.88351 0.0
H1373 H 0.66385 0.71117 0.86421 0.0
H1374 H 0.66223 0.74741 0.84314 0.0
H1375 H 0.6275 0.77772 0.84725 0.0
loop_
_geom_bond_atom_site_label_1
_geom_bond_atom_site_label_2
_geom_bond_distance
_geom_bond_site_symmetry_2
_ccdc_geom_bond_type
O0 Cd1 2.223 . S
O0 C8 1.315 . S
Cd1 O0 2.223 . S
Cd1 O4 2.297 . S
Cd1 O5 2.439 . S
Cd1 O11 2.240 . S
Cd2 O3 2.240 . S
Cd2 O10 2.223 . S
Cd2 O12 2.297 . S
Cd2 O13 2.439 . S
O3 Cd2 2.240 . S
O3 C8 1.279 . S
O4 Cd1 2.297 . S
O4 C6 1.247 . S
O5 Cd1 2.439 . S
O5 C6 1.208 . S
C6 O4 1.247 . S
C6 O5 1.208 . S
C7 O12 1.247 . S
C7 O13 1.208 . S
C8 O0 1.315 . S
C8 O3 1.279 . S
C9 O10 1.315 . S
C9 O11 1.279 . S
O10 Cd2 2.223 . S
O10 C9 1.315 . S
O11 Cd1 2.240 . S
O11 C9 1.279 . S
O12 Cd2 2.297 . S
O12 C7 1.247 . S
O13 Cd2 2.439 . S
O13 C7 1.208 . S
O14 Cd15 2.223 . S
O14 C22 1.315 . S
Cd15 O14 2.223 . S
Cd15 O18 2.297 . S
Cd15 O19 2.439 . S
Cd15 O25 2.240 . S
Cd16 O17 2.240 . S
Cd16 O24 2.223 . S
Cd16 O26 2.297 . S
Cd16 O27 2.439 . S
O17 Cd16 2.240 . S
O17 C22 1.279 . S
O18 Cd15 2.297 . S
O18 C20 1.247 . S
O19 Cd15 2.439 . S
O19 C20 1.208 . S
C20 O18 1.247 . S
C20 O19 1.208 . S
C21 O26 1.247 . S
C21 O27 1.208 . S
C22 O14 1.315 . S
C22 O17 1.279 . S
C23 O24 1.315 . S
C23 O25 1.279 . S
O24 Cd16 2.223 . S
O24 C23 1.315 . S
O25 Cd15 2.240 . S
O25 C23 1.279 . S
O26 Cd16 2.297 . S
O26 C21 1.247 . S
O27 Cd16 2.439 . S
O27 C21 1.208 . S
O28 Cd29 2.223 . S
O28 C36 1.315 . S
Cd29 O28 2.223 . S
Cd29 O32 2.297 . S
Cd29 O33 2.439 . S
Cd29 O39 2.240 . S
Cd30 O31 2.240 . S
Cd30 O38 2.223 . S
Cd30 O40 2.297 . S
Cd30 O41 2.439 . S
O31 Cd30 2.240 . S
O31 C36 1.279 . S
O32 Cd29 2.297 . S
O32 C34 1.247 . S
O33 Cd29 2.439 . S
O33 C34 1.208 . S
C34 O32 1.247 . S
C34 O33 1.208 . S
C35 O40 1.247 . S
C35 O41 1.208 . S
C36 O28 1.315 . S
C36 O31 1.279 . S
C37 O38 1.315 . S
C37 O39 1.279 . S
O38 Cd30 2.223 . S
O38 C37 1.315 . S
O39 Cd29 2.240 . S
O39 C37 1.279 . S
O40 Cd30 2.297 . S
O40 C35 1.247 . S
O41 Cd30 2.439 . S
O41 C35 1.208 . S
O42 Cd43 2.223 . S
O42 C50 1.315 . S
Cd43 O42 2.223 . S
Cd43 O46 2.297 . S
Cd43 O47 2.439 . S
Cd43 O53 2.240 . S
Cd44 O45 2.240 . S
Cd44 O52 2.223 . S
Cd44 O54 2.297 . S
Cd44 O55 2.439 . S
O45 Cd44 2.240 . S
O45 C50 1.279 . S
O46 Cd43 2.297 . S
O46 C48 1.247 . S
O47 Cd43 2.439 . S
O47 C48 1.208 . S
C48 O46 1.247 . S
C48 O47 1.208 . S
C49 O54 1.247 . S
C49 O55 1.208 . S
C50 O42 1.315 . S
C50 O45 1.279 . S
C51 O52 1.315 . S
C51 O53 1.279 . S
O52 Cd44 2.223 . S
O52 C51 1.315 . S
O53 Cd43 2.240 . S
O53 C51 1.279 . S
O54 Cd44 2.297 . S
O54 C49 1.247 . S
O55 Cd44 2.439 . S
O55 C49 1.208 . S
O56 Cd57 2.223 . S
O56 C64 1.315 . S
Cd57 O56 2.223 . S
Cd57 O60 2.297 . S
Cd57 O61 2.439 . S
Cd57 O67 2.240 . S
Cd58 O59 2.240 . S
Cd58 O66 2.223 . S
Cd58 O68 2.297 . S
Cd58 O69 2.439 . S
O59 Cd58 2.240 . S
O59 C64 1.279 . S
O60 Cd57 2.297 . S
O60 C62 1.247 . S
O61 Cd57 2.439 . S
O61 C62 1.208 . S
C62 O60 1.247 . S
C62 O61 1.208 . S
C63 O68 1.247 . S
C63 O69 1.208 . S
C64 O56 1.315 . S
C64 O59 1.279 . S
C65 O66 1.315 . S
C65 O67 1.279 . S
O66 Cd58 2.223 . S
O66 C65 1.315 . S
O67 Cd57 2.240 . S
O67 C65 1.279 . S
O68 Cd58 2.297 . S
O68 C63 1.247 . S
O69 Cd58 2.439 . S
O69 C63 1.208 . S
O70 Cd71 2.223 . S
O70 C78 1.315 . S
Cd71 O70 2.223 . S
Cd71 O74 2.297 . S
Cd71 O75 2.439 . S
Cd71 O81 2.240 . S
Cd72 O73 2.240 . S
Cd72 O80 2.223 . S
Cd72 O82 2.297 . S
Cd72 O83 2.439 . S
O73 Cd72 2.240 . S
O73 C78 1.279 . S
O74 Cd71 2.297 . S
O74 C76 1.247 . S
O75 Cd71 2.439 . S
O75 C76 1.208 . S
C76 O74 1.247 . S
C76 O75 1.208 . S
C77 O82 1.247 . S
C77 O83 1.208 . S
C78 O70 1.315 . S
C78 O73 1.279 . S
C79 O80 1.315 . S
C79 O81 1.279 . S
O80 Cd72 2.223 . S
O80 C79 1.315 . S
O81 Cd71 2.240 . S
O81 C79 1.279 . S
O82 Cd72 2.297 . S
O82 C77 1.247 . S
O83 Cd72 2.439 . S
O83 C77 1.208 . S
O84 Cd85 2.223 . S
O84 C92 1.315 . S
Cd85 O84 2.223 . S
Cd85 O88 2.297 . S
Cd85 O89 2.439 . S
Cd85 O95 2.240 . S
Cd86 O87 2.240 . S
Cd86 O94 2.223 . S
Cd86 O96 2.297 . S
Cd86 O97 2.439 . S
O87 Cd86 2.240 . S
O87 C92 1.279 . S
O88 Cd85 2.297 . S
O88 C90 1.247 . S
O89 Cd85 2.439 . S
O89 C90 1.208 . S
C90 O88 1.247 . S
C90 O89 1.208 . S
C91 O96 1.247 . S
C91 O97 1.208 . S
C92 O84 1.315 . S
C92 O87 1.279 . S
C93 O94 1.315 . S
C93 O95 1.279 . S
O94 Cd86 2.223 . S
O94 C93 1.315 . S
O95 Cd85 2.240 . S
O95 C93 1.279 . S
O96 Cd86 2.297 . S
O96 C91 1.247 . S
O97 Cd86 2.439 . S
O97 C91 1.208 . S
O98 Cd99 2.223 . S
O98 C106 1.315 . S
Cd99 O98 2.223 . S
Cd99 O102 2.297 . S
Cd99 O103 2.439 . S
Cd99 O109 2.240 . S
Cd100 O101 2.240 . S
Cd100 O108 2.223 . S
Cd100 O110 2.297 . S
Cd100 O111 2.439 . S
O101 Cd100 2.240 . S
O101 C106 1.279 . S
O102 Cd99 2.297 . S
O102 C104 1.247 . S
O103 Cd99 2.439 . S
O103 C104 1.208 . S
C104 O102 1.247 . S
C104 O103 1.208 . S
C105 O110 1.247 . S
C105 O111 1.208 . S
C106 O98 1.315 . S
C106 O101 1.279 . S
C107 O108 1.315 . S
C107 O109 1.279 . S
O108 Cd100 2.223 . S
O108 C107 1.315 . S
O109 Cd99 2.240 . S
O109 C107 1.279 . S
O110 Cd100 2.297 . S
O110 C105 1.247 . S
O111 Cd100 2.439 . S
O111 C105 1.208 . S
O112 Cd113 2.223 . S
O112 C120 1.315 . S
Cd113 O112 2.223 . S
Cd113 O116 2.297 . S
Cd113 O117 2.439 . S
Cd113 O123 2.240 . S
Cd114 O115 2.240 . S
Cd114 O122 2.223 . S
Cd114 O124 2.297 . S
Cd114 O125 2.439 . S
O115 Cd114 2.240 . S
O115 C120 1.279 . S
O116 Cd113 2.297 . S
O116 C118 1.247 . S
O117 Cd113 2.439 . S
O117 C118 1.208 . S
C118 O116 1.247 . S
C118 O117 1.208 . S
C119 O124 1.247 . S
C119 O125 1.208 . S
C120 O112 1.315 . S
C120 O115 1.279 . S
C121 O122 1.315 . S
C121 O123 1.279 . S
O122 Cd114 2.223 . S
O122 C121 1.315 . S
O123 Cd113 2.240 . S
O123 C121 1.279 . S
O124 Cd114 2.297 . S
O124 C119 1.247 . S
O125 Cd114 2.439 . S
O125 C119 1.208 . S
O126 Cd127 2.223 . S
O126 C134 1.315 . S
Cd127 O126 2.223 . S
Cd127 O130 2.297 . S
Cd127 O131 2.439 . S
Cd127 O137 2.240 . S
Cd128 O129 2.240 . S
Cd128 O136 2.223 . S
Cd128 O138 2.297 . S
Cd128 O139 2.439 . S
O129 Cd128 2.240 . S
O129 C134 1.279 . S
O130 Cd127 2.297 . S
O130 C132 1.247 . S
O131 Cd127 2.439 . S
O131 C132 1.208 . S
C132 O130 1.247 . S
C132 O131 1.208 . S
C133 O138 1.247 . S
C133 O139 1.208 . S
C134 O126 1.315 . S
C134 O129 1.279 . S
C135 O136 1.315 . S
C135 O137 1.279 . S
O136 Cd128 2.223 . S
O136 C135 1.315 . S
O137 Cd127 2.240 . S
O137 C135 1.279 . S
O138 Cd128 2.297 . S
O138 C133 1.247 . S
O139 Cd128 2.439 . S
O139 C133 1.208 . S
O140 Cd141 2.223 . S
O140 C148 1.315 . S
Cd141 O140 2.223 . S
Cd141 O144 2.297 . S
Cd141 O145 2.439 . S
Cd141 O151 2.240 . S
Cd142 O143 2.240 . S
Cd142 O150 2.223 . S
Cd142 O152 2.297 . S
Cd142 O153 2.439 . S
O143 Cd142 2.240 . S
O143 C148 1.279 . S
O144 Cd141 2.297 . S
O144 C146 1.247 . S
O145 Cd141 2.439 . S
O145 C146 1.208 . S
C146 O144 1.247 . S
C146 O145 1.208 . S
C147 O152 1.247 . S
C147 O153 1.208 . S
C148 O140 1.315 . S
C148 O143 1.279 . S
C149 O150 1.315 . S
C149 O151 1.279 . S
O150 Cd142 2.223 . S
O150 C149 1.315 . S
O151 Cd141 2.240 . S
O151 C149 1.279 . S
O152 Cd142 2.297 . S
O152 C147 1.247 . S
O153 Cd142 2.439 . S
O153 C147 1.208 . S
O154 Cd155 2.223 . S
O154 C162 1.315 . S
Cd155 O154 2.223 . S
Cd155 O158 2.297 . S
Cd155 O159 2.439 . S
Cd155 O165 2.240 . S
Cd156 O157 2.240 . S
Cd156 O164 2.223 . S
Cd156 O166 2.297 . S
Cd156 O167 2.439 . S
O157 Cd156 2.240 . S
O157 C162 1.279 . S
O158 Cd155 2.297 . S
O158 C160 1.247 . S
O159 Cd155 2.439 . S
O159 C160 1.208 . S
C160 O158 1.247 . S
C160 O159 1.208 . S
C161 O166 1.247 . S
C161 O167 1.208 . S
C162 O154 1.315 . S
C162 O157 1.279 . S
C163 O164 1.315 . S
C163 O165 1.279 . S
O164 Cd156 2.223 . S
O164 C163 1.315 . S
O165 Cd155 2.240 . S
O165 C163 1.279 . S
O166 Cd156 2.297 . S
O166 C161 1.247 . S
O167 Cd156 2.439 . S
O167 C161 1.208 . S
O168 Cd169 2.223 . S
O168 C176 1.315 . S
Cd169 O168 2.223 . S
Cd169 O172 2.297 . S
Cd169 O173 2.439 . S
Cd169 O179 2.240 . S
Cd170 O171 2.240 . S
Cd170 O178 2.223 . S
Cd170 O180 2.297 . S
Cd170 O181 2.439 . S
O171 Cd170 2.240 . S
O171 C176 1.279 . S
O172 Cd169 2.297 . S
O172 C174 1.247 . S
O173 Cd169 2.439 . S
O173 C174 1.208 . S
C174 O172 1.247 . S
C174 O173 1.208 . S
C175 O180 1.247 . S
C175 O181 1.208 . S
C176 O168 1.315 . S
C176 O171 1.279 . S
C177 O178 1.315 . S
C177 O179 1.279 . S
O178 Cd170 2.223 . S
O178 C177 1.315 . S
O179 Cd169 2.240 . S
O179 C177 1.279 . S
O180 Cd170 2.297 . S
O180 C175 1.247 . S
O181 Cd170 2.439 . S
O181 C175 1.208 . S
O182 Cd183 2.223 . S
O182 C190 1.315 . S
Cd183 O182 2.223 . S
Cd183 O186 2.297 . S
Cd183 O187 2.439 . S
Cd183 O193 2.240 . S
Cd184 O185 2.240 . S
Cd184 O192 2.223 . S
Cd184 O194 2.297 . S
Cd184 O195 2.439 . S
O185 Cd184 2.240 . S
O185 C190 1.279 . S
O186 Cd183 2.297 . S
O186 C188 1.247 . S
O187 Cd183 2.439 . S
O187 C188 1.208 . S
C188 O186 1.247 . S
C188 O187 1.208 . S
C189 O194 1.247 . S
C189 O195 1.208 . S
C190 O182 1.315 . S
C190 O185 1.279 . S
C191 O192 1.315 . S
C191 O193 1.279 . S
O192 Cd184 2.223 . S
O192 C191 1.315 . S
O193 Cd183 2.240 . S
O193 C191 1.279 . S
O194 Cd184 2.297 . S
O194 C189 1.247 . S
O195 Cd184 2.439 . S
O195 C189 1.208 . S
O196 Cd197 2.223 . S
O196 C204 1.315 . S
Cd197 O196 2.223 . S
Cd197 O200 2.297 . S
Cd197 O201 2.439 . S
Cd197 O207 2.240 . S
Cd198 O199 2.240 . S
Cd198 O206 2.223 . S
Cd198 O208 2.297 . S
Cd198 O209 2.439 . S
O199 Cd198 2.240 . S
O199 C204 1.279 . S
O200 Cd197 2.297 . S
O200 C202 1.247 . S
O201 Cd197 2.439 . S
O201 C202 1.208 . S
C202 O200 1.247 . S
C202 O201 1.208 . S
C203 O208 1.247 . S
C203 O209 1.208 . S
C204 O196 1.315 . S
C204 O199 1.279 . S
C205 O206 1.315 . S
C205 O207 1.279 . S
O206 Cd198 2.223 . S
O206 C205 1.315 . S
O207 Cd197 2.240 . S
O207 C205 1.279 . S
O208 Cd198 2.297 . S
O208 C203 1.247 . S
O209 Cd198 2.439 . S
O209 C203 1.208 . S
O210 Cd211 2.223 . S
O210 C218 1.315 . S
Cd211 O210 2.223 . S
Cd211 O214 2.297 . S
Cd211 O215 2.439 . S
Cd211 O221 2.240 . S
Cd212 O213 2.240 . S
Cd212 O220 2.223 . S
Cd212 O222 2.297 . S
Cd212 O223 2.439 . S
O213 Cd212 2.240 . S
O213 C218 1.279 . S
O214 Cd211 2.297 . S
O214 C216 1.247 . S
O215 Cd211 2.439 . S
O215 C216 1.208 . S
C216 O214 1.247 . S
C216 O215 1.208 . S
C217 O222 1.247 . S
C217 O223 1.208 . S
C218 O210 1.315 . S
C218 O213 1.279 . S
C219 O220 1.315 . S
C219 O221 1.279 . S
O220 Cd212 2.223 . S
O220 C219 1.315 . S
O221 Cd211 2.240 . S
O221 C219 1.279 . S
O222 Cd212 2.297 . S
O222 C217 1.247 . S
O223 Cd212 2.439 . S
O223 C217 1.208 . S
H224 C232 0.929 . S
H225 C234 0.930 . S
H226 C236 0.930 . S
H227 C239 0.929 . S
H228 C242 0.930 . S
H229 C244 0.960 1_655 S
H230 C244 0.960 . S
H231 C244 0.960 . S
C232 H224 0.929 . S
C232 C233 1.377 . S
C232 C234 1.384 . S
C233 C232 1.377 . S
C233 C239 1.390 . S
C234 H225 0.930 . S
C234 C232 1.384 . S
C234 C235 1.372 . S
C235 C234 1.372 . S
C235 C236 1.400 . S
C235 C240 1.490 . S
C236 H226 0.930 . S
C236 C235 1.400 . S
C236 C239 1.386 . S
H237 C253 0.930 . S
H238 C254 0.931 . S
C239 H227 0.929 . S
C239 C233 1.390 . S
C239 C236 1.386 . S
C240 C235 1.490 . S
C240 C242 1.395 . S
C240 C243 1.403 . S
H241 C247 0.930 . S
C242 H228 0.930 . S
C242 C240 1.395 . S
C242 C245 1.377 1_455 S
C243 C240 1.403 . S
C243 C244 1.524 . S
C243 C247 1.400 1_455 S
C244 H229 0.960 1_455 S
C244 H230 0.960 . S
C244 H231 0.960 . S
C244 C243 1.524 . S
C245 C242 1.377 1_655 S
C245 C246 1.418 . S
C245 C249 1.496 . S
C246 C245 1.418 . S
C246 C247 1.385 . S
C246 C248 1.478 . S
C247 H241 0.930 . S
C247 C243 1.400 1_655 S
C247 C246 1.385 . S
C248 C246 1.478 . S
C248 C250 1.381 . S
C248 C254 1.383 . S
C249 C245 1.496 . S
C249 H255 0.959 1_655 S
C249 H256 0.961 . S
C249 H257 0.960 . S
C250 C248 1.381 . S
C250 C251 1.394 . S
C250 H258 0.930 . S
C251 C250 1.394 . S
C251 C252 1.383 . S
C251 H259 0.929 . S
C252 C251 1.383 . S
C252 C253 1.377 . S
C253 H237 0.930 . S
C253 C252 1.377 . S
C253 C254 1.379 . S
C254 H238 0.931 . S
C254 C248 1.383 . S
C254 C253 1.379 . S
H255 C249 0.959 1_455 S
H256 C249 0.961 . S
H257 C249 0.960 . S
H258 C250 0.930 . S
H259 C251 0.929 . S
H260 C268 0.929 . S
H261 C270 0.930 . S
H262 C272 0.930 . S
H263 C275 0.929 . S
H264 C278 0.930 . S
H265 C280 0.960 1_545 S
H266 C280 0.960 . S
H267 C280 0.960 . S
C268 H260 0.929 . S
C268 C269 1.377 . S
C268 C270 1.384 . S
C269 C268 1.377 . S
C269 C275 1.390 . S
C270 H261 0.930 . S
C270 C268 1.384 . S
C270 C271 1.372 . S
C271 C270 1.372 . S
C271 C272 1.400 . S
C271 C276 1.490 . S
C272 H262 0.930 . S
C272 C271 1.400 . S
C272 C275 1.386 . S
H273 C289 0.930 . S
H274 C290 0.931 . S
C275 H263 0.929 . S
C275 C269 1.390 . S
C275 C272 1.386 . S
C276 C271 1.490 . S
C276 C278 1.395 . S
C276 C279 1.403 . S
H277 C283 0.930 . S
C278 H264 0.930 . S
C278 C276 1.395 . S
C278 C281 1.403 1_565 S
C279 C276 1.403 . S
C279 C280 1.524 . S
C279 C283 1.400 1_565 S
C280 H265 0.960 1_565 S
C280 H266 0.960 . S
C280 H267 0.960 . S
C280 C279 1.524 . S
C281 C278 1.403 1_545 S
C281 C282 1.392 . S
C281 C285 1.495 . S
C282 C281 1.392 . S
C282 C283 1.385 . S
C282 C284 1.478 . S
C283 H277 0.930 . S
C283 C279 1.400 1_545 S
C283 C282 1.385 . S
C284 C282 1.478 . S
C284 C286 1.381 . S
C284 C290 1.383 . S
C285 C281 1.495 . S
C285 H291 0.959 1_545 S
C285 H292 0.961 . S
C285 H293 0.960 . S
C286 C284 1.381 . S
C286 C287 1.394 . S
C286 H294 0.930 . S
C287 C286 1.394 . S
C287 C288 1.383 . S
C287 H295 0.929 . S
C288 C287 1.383 . S
C288 C289 1.377 . S
C289 H273 0.930 . S
C289 C288 1.377 . S
C289 C290 1.379 . S
C290 H274 0.931 . S
C290 C284 1.383 . S
C290 C289 1.379 . S
H291 C285 0.959 1_565 S
H292 C285 0.961 . S
H293 C285 0.960 . S
H294 C286 0.930 . S
H295 C287 0.929 . S
H296 C304 0.929 . S
H297 C306 0.930 . S
H298 C308 0.930 . S
H299 C311 0.929 . S
H300 C314 0.930 . S
H301 C316 0.960 1_655 S
H302 C316 0.960 . S
H303 C316 0.960 . S
C304 H296 0.929 . S
C304 C305 1.377 . S
C304 C306 1.384 . S
C305 C304 1.377 . S
C305 C311 1.390 . S
C306 H297 0.930 . S
C306 C304 1.384 . S
C306 C307 1.372 . S
C307 C306 1.372 . S
C307 C308 1.400 . S
C307 C312 1.490 . S
C308 H298 0.930 . S
C308 C307 1.400 . S
C308 C311 1.386 . S
H309 C325 0.930 . S
H310 C326 0.931 . S
C311 H299 0.929 . S
C311 C305 1.390 . S
C311 C308 1.386 . S
C312 C307 1.490 . S
C312 C314 1.395 . S
C312 C315 1.403 . S
H313 C319 0.930 . S
C314 H300 0.930 . S
C314 C312 1.395 . S
C314 C317 1.399 . S
C315 C312 1.403 . S
C315 C316 1.524 . S
C315 C319 1.400 1_455 S
C316 H301 0.960 1_455 S
C316 H302 0.960 . S
C316 H303 0.960 . S
C316 C315 1.524 . S
C317 C314 1.399 . S
C317 C318 1.397 1_455 S
C317 C321 1.495 . S
C318 C317 1.397 1_655 S
C318 C319 1.385 . S
C318 C320 1.478 . S
C319 H313 0.930 . S
C319 C315 1.400 1_655 S
C319 C318 1.385 . S
C320 C318 1.478 . S
C320 C322 1.381 . S
C320 C326 1.383 . S
C321 C317 1.495 . S
C321 H327 0.958 . S
C321 H328 0.961 1_455 S
C321 H329 0.960 1_455 S
C322 C320 1.381 . S
C322 C323 1.394 . S
C322 H330 0.930 . S
C323 C322 1.394 . S
C323 C324 1.383 . S
C323 H331 0.929 . S
C324 C323 1.383 . S
C324 C325 1.377 . S
C325 H309 0.930 . S
C325 C324 1.377 . S
C325 C326 1.379 . S
C326 H310 0.931 . S
C326 C320 1.383 . S
C326 C325 1.379 . S
H327 C321 0.958 . S
H328 C321 0.961 1_655 S
H329 C321 0.960 1_655 S
H330 C322 0.930 . S
H331 C323 0.929 . S
H332 C340 0.929 . S
H333 C342 0.930 . S
H334 C344 0.930 . S
H335 C347 0.929 . S
H336 C350 0.930 . S
H337 C352 0.960 . S
H338 C352 0.960 . S
H339 C352 0.960 . S
C340 H332 0.929 . S
C340 C341 1.377 . S
C340 C342 1.384 . S
C341 C340 1.377 . S
C341 C347 1.390 . S
C342 H333 0.930 . S
C342 C340 1.384 . S
C342 C343 1.372 . S
C343 C342 1.372 . S
C343 C344 1.400 . S
C343 C348 1.490 . S
C344 H334 0.930 . S
C344 C343 1.400 . S
C344 C347 1.386 . S
H345 C361 0.930 . S
H346 C362 0.931 . S
C347 H335 0.929 . S
C347 C341 1.390 . S
C347 C344 1.386 . S
C348 C343 1.490 . S
C348 C350 1.395 . S
C348 C351 1.403 . S
H349 C355 0.930 . S
C350 H336 0.930 . S
C350 C348 1.395 . S
C350 C353 1.403 1_565 S
C351 C348 1.403 . S
C351 C352 1.524 . S
C351 C355 1.400 1_565 S
C352 H337 0.960 . S
C352 H338 0.960 . S
C352 H339 0.960 . S
C352 C351 1.524 . S
C353 C350 1.403 1_545 S
C353 C354 1.392 . S
C353 C357 1.495 . S
C354 C353 1.392 . S
C354 C355 1.385 . S
C354 C356 1.478 . S
C355 H349 0.930 . S
C355 C351 1.400 1_545 S
C355 C354 1.385 . S
C356 C354 1.478 . S
C356 C358 1.381 . S
C356 C362 1.383 . S
C357 C353 1.495 . S
C357 H363 0.959 . S
C357 H364 0.961 . S
C357 H365 0.960 . S
C358 C356 1.381 . S
C358 C359 1.394 . S
C358 H366 0.930 . S
C359 C358 1.394 . S
C359 C360 1.383 . S
C359 H367 0.929 . S
C360 C359 1.383 . S
C360 C361 1.377 . S
C361 H345 0.930 . S
C361 C360 1.377 . S
C361 C362 1.379 . S
C362 H346 0.931 . S
C362 C356 1.383 . S
C362 C361 1.379 . S
H363 C357 0.959 . S
H364 C357 0.961 . S
H365 C357 0.960 . S
H366 C358 0.930 . S
H367 C359 0.929 . S
H368 C376 0.929 . S
H369 C378 0.930 . S
H370 C380 0.930 . S
H371 C383 0.929 . S
H372 C386 0.930 . S
H373 C388 0.960 1_455 S
H374 C388 0.960 . S
H375 C388 0.960 . S
C376 H368 0.929 . S
C376 C377 1.377 . S
C376 C378 1.384 . S
C377 C376 1.377 . S
C377 C383 1.390 . S
C378 H369 0.930 . S
C378 C376 1.384 . S
C378 C379 1.372 . S
C379 C378 1.372 . S
C379 C380 1.400 . S
C379 C384 1.490 . S
C380 H370 0.930 . S
C380 C379 1.400 . S
C380 C383 1.386 . S
H381 C397 0.930 . S
H382 C398 0.931 . S
C383 H371 0.929 . S
C383 C377 1.390 . S
C383 C380 1.386 . S
C384 C379 1.490 . S
C384 C386 1.395 . S
C384 C387 1.403 . S
H385 C391 0.930 . S
C386 H372 0.930 . S
C386 C384 1.395 . S
C386 C389 1.403 1_655 S
C387 C384 1.403 . S
C387 C388 1.524 . S
C387 C391 1.400 1_655 S
C388 H373 0.960 1_655 S
C388 H374 0.960 . S
C388 H375 0.960 . S
C388 C387 1.524 . S
C389 C386 1.403 1_455 S
C389 C390 1.392 . S
C389 C393 1.495 . S
C390 C389 1.392 . S
C390 C391 1.385 . S
C390 C392 1.478 . S
C391 H385 0.930 . S
C391 C387 1.400 1_455 S
C391 C390 1.385 . S
C392 C390 1.478 . S
C392 C394 1.381 . S
C392 C398 1.383 . S
C393 C389 1.495 . S
C393 H399 0.959 1_455 S
C393 H400 0.961 . S
C393 H401 0.960 . S
C394 C392 1.381 . S
C394 C395 1.394 . S
C394 H402 0.930 . S
C395 C394 1.394 . S
C395 C396 1.383 . S
C395 H403 0.929 . S
C396 C395 1.383 . S
C396 C397 1.377 . S
C397 H381 0.930 . S
C397 C396 1.377 . S
C397 C398 1.379 . S
C398 H382 0.931 . S
C398 C392 1.383 . S
C398 C397 1.379 . S
H399 C393 0.959 1_655 S
H400 C393 0.961 . S
H401 C393 0.960 . S
H402 C394 0.930 . S
H403 C395 0.929 . S
H404 C412 0.929 . S
H405 C414 0.930 . S
H406 C416 0.930 . S
H407 C419 0.929 . S
H408 C422 0.930 . S
H409 C424 0.960 1_565 S
H410 C424 0.960 . S
H411 C424 0.960 . S
C412 H404 0.929 . S
C412 C413 1.377 . S
C412 C414 1.384 . S
C413 C412 1.377 . S
C413 C419 1.390 . S
C414 H405 0.930 . S
C414 C412 1.384 . S
C414 C415 1.372 . S
C415 C414 1.372 . S
C415 C416 1.400 . S
C415 C420 1.490 . S
C416 H406 0.930 . S
C416 C415 1.400 . S
C416 C419 1.386 . S
H417 C433 0.930 . S
H418 C434 0.931 . S
C419 H407 0.929 . S
C419 C413 1.390 . S
C419 C416 1.386 . S
C420 C415 1.490 . S
C420 C422 1.395 . S
C420 C423 1.403 . S
H421 C427 0.930 . S
C422 H408 0.930 . S
C422 C420 1.395 . S
C422 C425 1.403 1_545 S
C423 C420 1.403 . S
C423 C424 1.524 . S
C423 C427 1.400 1_545 S
C424 H409 0.960 1_545 S
C424 H410 0.960 . S
C424 H411 0.960 . S
C424 C423 1.524 . S
C425 C422 1.403 1_565 S
C425 C426 1.392 . S
C425 C429 1.495 . S
C426 C425 1.392 . S
C426 C427 1.385 . S
C426 C428 1.478 . S
C427 H421 0.930 . S
C427 C423 1.400 1_565 S
C427 C426 1.385 . S
C428 C426 1.478 . S
C428 C430 1.381 . S
C428 C434 1.383 . S
C429 C425 1.495 . S
C429 H435 0.959 1_565 S
C429 H436 0.961 . S
C429 H437 0.960 . S
C430 C428 1.381 . S
C430 C431 1.394 . S
C430 H438 0.930 . S
C431 C430 1.394 . S
C431 C432 1.383 . S
C431 H439 0.929 . S
C432 C431 1.383 . S
C432 C433 1.377 . S
C433 H417 0.930 . S
C433 C432 1.377 . S
C433 C434 1.379 . S
C434 H418 0.931 . S
C434 C428 1.383 . S
C434 C433 1.379 . S
H435 C429 0.959 1_545 S
H436 C429 0.961 . S
H437 C429 0.960 . S
H438 C430 0.930 . S
H439 C431 0.929 . S
H440 C448 0.929 . S
H441 C450 0.930 . S
H442 C452 0.930 . S
H443 C455 0.929 . S
H444 C458 0.930 . S
H445 C460 0.960 . S
H446 C460 0.960 . S
H447 C460 0.960 . S
C448 H440 0.929 . S
C448 C449 1.377 . S
C448 C450 1.384 . S
C449 C448 1.377 . S
C449 C455 1.390 . S
C450 H441 0.930 . S
C450 C448 1.384 . S
C450 C451 1.372 . S
C451 C450 1.372 . S
C451 C452 1.400 . S
C451 C456 1.490 . S
C452 H442 0.930 . S
C452 C451 1.400 . S
C452 C455 1.386 . S
H453 C469 0.930 . S
H454 C470 0.931 . S
C455 H443 0.929 . S
C455 C449 1.390 . S
C455 C452 1.386 . S
C456 C451 1.490 . S
C456 C458 1.395 . S
C456 C459 1.403 . S
H457 C463 0.930 . S
C458 H444 0.930 . S
C458 C456 1.395 . S
C458 C461 1.403 1_655 S
C459 C456 1.403 . S
C459 C460 1.524 . S
C459 C463 1.400 1_655 S
C460 H445 0.960 . S
C460 H446 0.960 . S
C460 H447 0.960 . S
C460 C459 1.524 . S
C461 C458 1.403 1_455 S
C461 C462 1.392 . S
C461 C465 1.495 . S
C462 C461 1.392 . S
C462 C463 1.385 . S
C462 C464 1.478 . S
C463 H457 0.930 . S
C463 C459 1.400 1_455 S
C463 C462 1.385 . S
C464 C462 1.478 . S
C464 C466 1.381 . S
C464 C470 1.383 . S
C465 C461 1.495 . S
C465 H471 0.959 . S
C465 H472 0.961 . S
C465 H473 0.960 . S
C466 C464 1.381 . S
C466 C467 1.394 . S
C466 H474 0.930 . S
C467 C466 1.394 . S
C467 C468 1.383 . S
C467 H475 0.929 . S
C468 C467 1.383 . S
C468 C469 1.377 . S
C469 H453 0.930 . S
C469 C468 1.377 . S
C469 C470 1.379 . S
C470 H454 0.931 . S
C470 C464 1.383 . S
C470 C469 1.379 . S
H471 C465 0.959 . S
H472 C465 0.961 . S
H473 C465 0.960 . S
H474 C466 0.930 . S
H475 C467 0.929 . S
H476 C484 0.929 . S
H477 C486 0.930 . S
H478 C488 0.930 . S
H479 C491 0.929 . S
H480 C494 0.930 . S
H481 C496 0.960 1_565 S
H482 C496 0.960 . S
H483 C496 0.960 . S
C484 H476 0.929 . S
C484 C485 1.377 . S
C484 C486 1.384 . S
C485 C484 1.377 . S
C485 C491 1.390 . S
C486 H477 0.930 . S
C486 C484 1.384 . S
C486 C487 1.372 . S
C487 C486 1.372 . S
C487 C488 1.400 . S
C487 C492 1.490 . S
C488 H478 0.930 . S
C488 C487 1.400 . S
C488 C491 1.386 . S
H489 C505 0.930 . S
H490 C506 0.931 . S
C491 H479 0.929 . S
C491 C485 1.390 . S
C491 C488 1.386 . S
C492 C487 1.490 . S
C492 C494 1.395 . S
C492 C495 1.403 . S
H493 C499 0.930 . S
C494 H480 0.930 . S
C494 C492 1.395 . S
C494 C497 1.403 1_545 S
C495 C492 1.403 . S
C495 C496 1.524 . S
C495 C499 1.400 1_545 S
C496 H481 0.960 1_545 S
C496 H482 0.960 . S
C496 H483 0.960 . S
C496 C495 1.524 . S
C497 C494 1.403 1_565 S
C497 C498 1.392 . S
C497 C501 1.495 . S
C498 C497 1.392 . S
C498 C499 1.385 . S
C498 C500 1.478 . S
C499 H493 0.930 . S
C499 C495 1.400 1_565 S
C499 C498 1.385 . S
C500 C498 1.478 . S
C500 C502 1.381 . S
C500 C506 1.383 . S
C501 C497 1.495 . S
C501 H507 0.959 1_565 S
C501 H508 0.961 . S
C501 H509 0.960 . S
C502 C500 1.381 . S
C502 C503 1.394 . S
C502 H510 0.930 . S
C503 C502 1.394 . S
C503 C504 1.383 . S
C503 H511 0.929 . S
C504 C503 1.383 . S
C504 C505 1.377 . S
C505 H489 0.930 . S
C505 C504 1.377 . S
C505 C506 1.379 . S
C506 H490 0.931 . S
C506 C500 1.383 . S
C506 C505 1.379 . S
H507 C501 0.959 1_545 S
H508 C501 0.961 . S
H509 C501 0.960 . S
H510 C502 0.930 . S
H511 C503 0.929 . S
H512 C520 0.929 . S
H513 C522 0.930 . S
H514 C524 0.930 . S
H515 C527 0.929 . S
H516 C530 0.930 . S
H517 C532 0.960 . S
H518 C532 0.960 . S
H519 C532 0.960 . S
C520 H512 0.929 . S
C520 C521 1.377 . S
C520 C522 1.384 . S
C521 C520 1.377 . S
C521 C527 1.390 . S
C522 H513 0.930 . S
C522 C520 1.384 . S
C522 C523 1.372 . S
C523 C522 1.372 . S
C523 C524 1.400 . S
C523 C528 1.490 . S
C524 H514 0.930 . S
C524 C523 1.400 . S
C524 C527 1.386 . S
H525 C541 0.930 . S
H526 C542 0.931 . S
C527 H515 0.929 . S
C527 C521 1.390 . S
C527 C524 1.386 . S
C528 C523 1.490 . S
C528 C530 1.395 . S
C528 C531 1.403 . S
H529 C535 0.930 . S
C530 H516 0.930 . S
C530 C528 1.395 . S
C530 C533 1.403 . S
C531 C528 1.403 . S
C531 C532 1.524 . S
C531 C535 1.400 . S
C532 H517 0.960 . S
C532 H518 0.960 . S
C532 H519 0.960 . S
C532 C531 1.524 . S
C533 C530 1.403 . S
C533 C534 1.392 . S
C533 C537 1.495 . S
C534 C533 1.392 . S
C534 C535 1.385 . S
C534 C536 1.478 . S
C535 H529 0.930 . S
C535 C531 1.400 . S
C535 C534 1.385 . S
C536 C534 1.478 . S
C536 C538 1.381 . S
C536 C542 1.383 . S
C537 C533 1.495 . S
C537 H543 0.959 . S
C537 H544 0.961 . S
C537 H545 0.960 . S
C538 C536 1.381 . S
C538 C539 1.394 . S
C538 H546 0.930 . S
C539 C538 1.394 . S
C539 C540 1.383 . S
C539 H547 0.929 . S
C540 C539 1.383 . S
C540 C541 1.377 . S
C541 H525 0.930 . S
C541 C540 1.377 . S
C541 C542 1.379 . S
C542 H526 0.931 . S
C542 C536 1.383 . S
C542 C541 1.379 . S
H543 C537 0.959 . S
H544 C537 0.961 . S
H545 C537 0.960 . S
H546 C538 0.930 . S
H547 C539 0.929 . S
H548 C556 0.929 . S
H549 C558 0.930 . S
H550 C560 0.930 . S
H551 C563 0.929 . S
H552 C566 0.930 . S
H553 C568 0.960 . S
H554 C568 0.960 . S
H555 C568 0.960 . S
C556 H548 0.929 . S
C556 C557 1.377 . S
C556 C558 1.384 . S
C557 C556 1.377 . S
C557 C563 1.390 . S
C558 H549 0.930 . S
C558 C556 1.384 . S
C558 C559 1.372 . S
C559 C558 1.372 . S
C559 C560 1.400 . S
C559 C564 1.490 . S
C560 H550 0.930 . S
C560 C559 1.400 . S
C560 C563 1.386 . S
H561 C577 0.930 . S
H562 C578 0.931 . S
C563 H551 0.929 . S
C563 C557 1.390 . S
C563 C560 1.386 . S
C564 C559 1.490 . S
C564 C566 1.395 . S
C564 C567 1.403 . S
H565 C571 0.930 . S
C566 H552 0.930 . S
C566 C564 1.395 . S
C566 C569 1.403 . S
C567 C564 1.403 . S
C567 C568 1.524 . S
C567 C571 1.400 . S
C568 H553 0.960 . S
C568 H554 0.960 . S
C568 H555 0.960 . S
C568 C567 1.524 . S
C569 C566 1.403 . S
C569 C570 1.392 . S
C569 C573 1.495 . S
C570 C569 1.392 . S
C570 C571 1.385 . S
C570 C572 1.478 . S
C571 H565 0.930 . S
C571 C567 1.400 . S
C571 C570 1.385 . S
C572 C570 1.478 . S
C572 C574 1.381 . S
C572 C578 1.383 . S
C573 C569 1.495 . S
C573 H579 0.959 . S
C573 H580 0.961 . S
C573 H581 0.960 . S
C574 C572 1.381 . S
C574 C575 1.394 . S
C574 H582 0.930 . S
C575 C574 1.394 . S
C575 C576 1.383 . S
C575 H583 0.929 . S
C576 C575 1.383 . S
C576 C577 1.377 . S
C577 H561 0.930 . S
C577 C576 1.377 . S
C577 C578 1.379 . S
C578 H562 0.931 . S
C578 C572 1.383 . S
C578 C577 1.379 . S
H579 C573 0.959 . S
H580 C573 0.961 . S
H581 C573 0.960 . S
H582 C574 0.930 . S
H583 C575 0.929 . S
H584 C592 0.929 . S
H585 C594 0.930 . S
H586 C596 0.930 . S
H587 C599 0.929 . S
H588 C602 0.930 . S
H589 C604 0.960 . S
H590 C604 0.960 . S
H591 C604 0.960 . S
C592 H584 0.929 . S
C592 C593 1.377 . S
C592 C594 1.384 . S
C593 C592 1.377 . S
C593 C599 1.390 . S
C594 H585 0.930 . S
C594 C592 1.384 . S
C594 C595 1.372 . S
C595 C594 1.372 . S
C595 C596 1.400 . S
C595 C600 1.490 . S
C596 H586 0.930 . S
C596 C595 1.400 . S
C596 C599 1.386 . S
H597 C613 0.930 . S
H598 C614 0.931 . S
C599 H587 0.929 . S
C599 C593 1.390 . S
C599 C596 1.386 . S
C600 C595 1.490 . S
C600 C602 1.395 . S
C600 C603 1.403 . S
H601 C607 0.930 . S
C602 H588 0.930 . S
C602 C600 1.395 . S
C602 C605 1.403 . S
C603 C600 1.403 . S
C603 C604 1.524 . S
C603 C607 1.400 . S
C604 H589 0.960 . S
C604 H590 0.960 . S
C604 H591 0.960 . S
C604 C603 1.524 . S
C605 C602 1.403 . S
C605 C606 1.392 . S
C605 C609 1.495 . S
C606 C605 1.392 . S
C606 C607 1.385 . S
C606 C608 1.478 . S
C607 H601 0.930 . S
C607 C603 1.400 . S
C607 C606 1.385 . S
C608 C606 1.478 . S
C608 C610 1.381 . S
C608 C614 1.383 . S
C609 C605 1.495 . S
C609 H615 0.959 . S
C609 H616 0.961 . S
C609 H617 0.960 . S
C610 C608 1.381 . S
C610 C611 1.394 . S
C610 H618 0.930 . S
C611 C610 1.394 . S
C611 C612 1.383 . S
C611 H619 0.929 . S
C612 C611 1.383 . S
C612 C613 1.377 . S
C613 H597 0.930 . S
C613 C612 1.377 . S
C613 C614 1.379 . S
C614 H598 0.931 . S
C614 C608 1.383 . S
C614 C613 1.379 . S
H615 C609 0.959 . S
H616 C609 0.961 . S
H617 C609 0.960 . S
H618 C610 0.930 . S
H619 C611 0.929 . S
H620 C628 0.929 . S
H621 C630 0.930 . S
H622 C632 0.930 . S
H623 C635 0.929 . S
H624 C638 0.930 . S
H625 C640 0.960 . S
H626 C640 0.960 . S
H627 C640 0.960 . S
C628 H620 0.929 . S
C628 C629 1.377 . S
C628 C630 1.384 . S
C629 C628 1.377 . S
C629 C635 1.390 . S
C630 H621 0.930 . S
C630 C628 1.384 . S
C630 C631 1.372 . S
C631 C630 1.372 . S
C631 C632 1.400 . S
C631 C636 1.490 . S
C632 H622 0.930 . S
C632 C631 1.400 . S
C632 C635 1.386 . S
H633 C649 0.930 . S
H634 C650 0.931 . S
C635 H623 0.929 . S
C635 C629 1.390 . S
C635 C632 1.386 . S
C636 C631 1.490 . S
C636 C638 1.395 . S
C636 C639 1.403 . S
H637 C643 0.930 . S
C638 H624 0.930 . S
C638 C636 1.395 . S
C638 C641 1.403 . S
C639 C636 1.403 . S
C639 C640 1.524 . S
C639 C643 1.400 . S
C640 H625 0.960 . S
C640 H626 0.960 . S
C640 H627 0.960 . S
C640 C639 1.524 . S
C641 C638 1.403 . S
C641 C642 1.392 . S
C641 C645 1.495 . S
C642 C641 1.392 . S
C642 C643 1.385 . S
C642 C644 1.478 . S
C643 H637 0.930 . S
C643 C639 1.400 . S
C643 C642 1.385 . S
C644 C642 1.478 . S
C644 C646 1.381 . S
C644 C650 1.383 . S
C645 C641 1.495 . S
C645 H651 0.959 . S
C645 H652 0.961 . S
C645 H653 0.960 . S
C646 C644 1.381 . S
C646 C647 1.394 . S
C646 H654 0.930 . S
C647 C646 1.394 . S
C647 C648 1.383 . S
C647 H655 0.929 . S
C648 C647 1.383 . S
C648 C649 1.377 . S
C649 H633 0.930 . S
C649 C648 1.377 . S
C649 C650 1.379 . S
C650 H634 0.931 . S
C650 C644 1.383 . S
C650 C649 1.379 . S
H651 C645 0.959 . S
H652 C645 0.961 . S
H653 C645 0.960 . S
H654 C646 0.930 . S
H655 C647 0.929 . S
H656 C664 0.929 . S
H657 C666 0.930 . S
H658 C668 0.930 . S
H659 C671 0.929 . S
H660 C674 0.930 . S
H661 C676 0.960 . S
H662 C676 0.960 . S
H663 C676 0.960 . S
C664 H656 0.929 . S
C664 C665 1.377 . S
C664 C666 1.384 . S
C665 C664 1.377 . S
C665 C671 1.390 . S
C666 H657 0.930 . S
C666 C664 1.384 . S
C666 C667 1.372 . S
C667 C666 1.372 . S
C667 C668 1.400 . S
C667 C672 1.490 . S
C668 H658 0.930 . S
C668 C667 1.400 . S
C668 C671 1.386 . S
H669 C685 0.930 . S
H670 C686 0.931 . S
C671 H659 0.929 . S
C671 C665 1.390 . S
C671 C668 1.386 . S
C672 C667 1.490 . S
C672 C674 1.395 . S
C672 C675 1.403 . S
H673 C679 0.930 . S
C674 H660 0.930 . S
C674 C672 1.395 . S
C674 C677 1.403 . S
C675 C672 1.403 . S
C675 C676 1.524 . S
C675 C679 1.400 . S
C676 H661 0.960 . S
C676 H662 0.960 . S
C676 H663 0.960 . S
C676 C675 1.524 . S
C677 C674 1.403 . S
C677 C678 1.392 . S
C677 C681 1.495 . S
C678 C677 1.392 . S
C678 C679 1.385 . S
C678 C680 1.478 . S
C679 H673 0.930 . S
C679 C675 1.400 . S
C679 C678 1.385 . S
C680 C678 1.478 . S
C680 C682 1.381 . S
C680 C686 1.383 . S
C681 C677 1.495 . S
C681 H687 0.959 . S
C681 H688 0.961 . S
C681 H689 0.960 . S
C682 C680 1.381 . S
C682 C683 1.394 . S
C682 H690 0.930 . S
C683 C682 1.394 . S
C683 C684 1.383 . S
C683 H691 0.929 . S
C684 C683 1.383 . S
C684 C685 1.377 . S
C685 H669 0.930 . S
C685 C684 1.377 . S
C685 C686 1.379 . S
C686 H670 0.931 . S
C686 C680 1.383 . S
C686 C685 1.379 . S
H687 C681 0.959 . S
H688 C681 0.961 . S
H689 C681 0.960 . S
H690 C682 0.930 . S
H691 C683 0.929 . S
H692 C700 0.929 . S
H693 C702 0.930 . S
H694 C704 0.930 . S
H695 C707 0.929 . S
H696 C710 0.930 . S
H697 C712 0.960 . S
H698 C712 0.960 . S
H699 C712 0.960 . S
C700 H692 0.929 . S
C700 C701 1.377 . S
C700 C702 1.384 . S
C701 C700 1.377 . S
C701 C707 1.390 . S
C702 H693 0.930 . S
C702 C700 1.384 . S
C702 C703 1.372 . S
C703 C702 1.372 . S
C703 C704 1.400 . S
C703 C708 1.490 . S
C704 H694 0.930 . S
C704 C703 1.400 . S
C704 C707 1.386 . S
H705 C721 0.930 . S
H706 C722 0.931 . S
C707 H695 0.929 . S
C707 C701 1.390 . S
C707 C704 1.386 . S
C708 C703 1.490 . S
C708 C710 1.395 . S
C708 C711 1.403 . S
H709 C715 0.930 . S
C710 H696 0.930 . S
C710 C708 1.395 . S
C710 C713 1.403 . S
C711 C708 1.403 . S
C711 C712 1.524 . S
C711 C715 1.400 . S
C712 H697 0.960 . S
C712 H698 0.960 . S
C712 H699 0.960 . S
C712 C711 1.524 . S
C713 C710 1.403 . S
C713 C714 1.392 . S
C713 C717 1.495 . S
C714 C713 1.392 . S
C714 C715 1.385 . S
C714 C716 1.478 . S
C715 H709 0.930 . S
C715 C711 1.400 . S
C715 C714 1.385 . S
C716 C714 1.478 . S
C716 C718 1.381 . S
C716 C722 1.383 . S
C717 C713 1.495 . S
C717 H723 0.959 . S
C717 H724 0.961 . S
C717 H725 0.960 . S
C718 C716 1.381 . S
C718 C719 1.394 . S
C718 H726 0.930 . S
C719 C718 1.394 . S
C719 C720 1.383 . S
C719 H727 0.929 . S
C720 C719 1.383 . S
C720 C721 1.377 . S
C721 H705 0.930 . S
C721 C720 1.377 . S
C721 C722 1.379 . S
C722 H706 0.931 . S
C722 C716 1.383 . S
C722 C721 1.379 . S
H723 C717 0.959 . S
H724 C717 0.961 . S
H725 C717 0.960 . S
H726 C718 0.930 . S
H727 C719 0.929 . S
H728 C736 0.929 . S
H729 C738 0.930 . S
H730 C740 0.930 . S
H731 C743 0.929 . S
H732 C746 0.930 . S
H733 C748 0.960 . S
H734 C748 0.960 . S
H735 C748 0.960 . S
C736 H728 0.929 . S
C736 C737 1.377 . S
C736 C738 1.384 . S
C737 C736 1.377 . S
C737 C743 1.390 . S
C738 H729 0.930 . S
C738 C736 1.384 . S
C738 C739 1.372 . S
C739 C738 1.372 . S
C739 C740 1.400 . S
C739 C744 1.490 . S
C740 H730 0.930 . S
C740 C739 1.400 . S
C740 C743 1.386 . S
H741 C757 0.930 . S
H742 C758 0.931 . S
C743 H731 0.929 . S
C743 C737 1.390 . S
C743 C740 1.386 . S
C744 C739 1.490 . S
C744 C746 1.395 . S
C744 C747 1.403 . S
H745 C751 0.930 . S
C746 H732 0.930 . S
C746 C744 1.395 . S
C746 C749 1.403 . S
C747 C744 1.403 . S
C747 C748 1.524 . S
C747 C751 1.400 . S
C748 H733 0.960 . S
C748 H734 0.960 . S
C748 H735 0.960 . S
C748 C747 1.524 . S
C749 C746 1.403 . S
C749 C750 1.392 . S
C749 C753 1.495 . S
C750 C749 1.392 . S
C750 C751 1.385 . S
C750 C752 1.478 . S
C751 H745 0.930 . S
C751 C747 1.400 . S
C751 C750 1.385 . S
C752 C750 1.478 . S
C752 C754 1.381 . S
C752 C758 1.383 . S
C753 C749 1.495 . S
C753 H759 0.959 . S
C753 H760 0.961 . S
C753 H761 0.960 . S
C754 C752 1.381 . S
C754 C755 1.394 . S
C754 H762 0.930 . S
C755 C754 1.394 . S
C755 C756 1.383 . S
C755 H763 0.929 . S
C756 C755 1.383 . S
C756 C757 1.377 . S
C757 H741 0.930 . S
C757 C756 1.377 . S
C757 C758 1.379 . S
C758 H742 0.931 . S
C758 C752 1.383 . S
C758 C757 1.379 . S
H759 C753 0.959 . S
H760 C753 0.961 . S
H761 C753 0.960 . S
H762 C754 0.930 . S
H763 C755 0.929 . S
H764 C772 0.929 . S
H765 C774 0.930 . S
H766 C776 0.930 . S
H767 C779 0.929 . S
H768 C782 0.930 . S
H769 C784 0.960 . S
H770 C784 0.960 . S
H771 C784 0.960 . S
C772 H764 0.929 . S
C772 C773 1.377 . S
C772 C774 1.384 . S
C773 C772 1.377 . S
C773 C779 1.390 . S
C774 H765 0.930 . S
C774 C772 1.384 . S
C774 C775 1.372 . S
C775 C774 1.372 . S
C775 C776 1.400 . S
C775 C780 1.490 . S
C776 H766 0.930 . S
C776 C775 1.400 . S
C776 C779 1.386 . S
H777 C793 0.930 . S
H778 C794 0.931 . S
C779 H767 0.929 . S
C779 C773 1.390 . S
C779 C776 1.386 . S
C780 C775 1.490 . S
C780 C782 1.395 . S
C780 C783 1.403 . S
H781 C787 0.930 . S
C782 H768 0.930 . S
C782 C780 1.395 . S
C782 C785 1.403 . S
C783 C780 1.403 . S
C783 C784 1.524 . S
C783 C787 1.400 . S
C784 H769 0.960 . S
C784 H770 0.960 . S
C784 H771 0.960 . S
C784 C783 1.524 . S
C785 C782 1.403 . S
C785 C786 1.392 . S
C785 C789 1.495 . S
C786 C785 1.392 . S
C786 C787 1.385 . S
C786 C788 1.478 . S
C787 H781 0.930 . S
C787 C783 1.400 . S
C787 C786 1.385 . S
C788 C786 1.478 . S
C788 C790 1.381 . S
C788 C794 1.383 . S
C789 C785 1.495 . S
C789 H795 0.959 . S
C789 H796 0.961 . S
C789 H797 0.960 . S
C790 C788 1.381 . S
C790 C791 1.394 . S
C790 H798 0.930 . S
C791 C790 1.394 . S
C791 C792 1.383 . S
C791 H799 0.929 . S
C792 C791 1.383 . S
C792 C793 1.377 . S
C793 H777 0.930 . S
C793 C792 1.377 . S
C793 C794 1.379 . S
C794 H778 0.931 . S
C794 C788 1.383 . S
C794 C793 1.379 . S
H795 C789 0.959 . S
H796 C789 0.961 . S
H797 C789 0.960 . S
H798 C790 0.930 . S
H799 C791 0.929 . S
H800 C808 0.929 . S
H801 C810 0.930 . S
H802 C812 0.930 . S
H803 C815 0.929 . S
H804 C818 0.930 . S
H805 C820 0.960 . S
H806 C820 0.960 . S
H807 C820 0.960 . S
C808 H800 0.929 . S
C808 C809 1.377 . S
C808 C810 1.384 . S
C809 C808 1.377 . S
C809 C815 1.390 . S
C810 H801 0.930 . S
C810 C808 1.384 . S
C810 C811 1.372 . S
C811 C810 1.372 . S
C811 C812 1.400 . S
C811 C816 1.490 . S
C812 H802 0.930 . S
C812 C811 1.400 . S
C812 C815 1.386 . S
H813 C829 0.930 . S
H814 C830 0.931 . S
C815 H803 0.929 . S
C815 C809 1.390 . S
C815 C812 1.386 . S
C816 C811 1.490 . S
C816 C818 1.395 . S
C816 C819 1.403 . S
H817 C823 0.930 . S
C818 H804 0.930 . S
C818 C816 1.395 . S
C818 C821 1.403 1_556 S
C819 C816 1.403 . S
C819 C820 1.524 . S
C819 C823 1.400 1_556 S
C820 H805 0.960 . S
C820 H806 0.960 . S
C820 H807 0.960 . S
C820 C819 1.524 . S
C821 C818 1.403 1_554 S
C821 C822 1.392 . S
C821 C825 1.495 . S
C822 C821 1.392 . S
C822 C823 1.385 . S
C822 C824 1.478 . S
C823 H817 0.930 . S
C823 C819 1.400 1_554 S
C823 C822 1.385 . S
C824 C822 1.478 . S
C824 C826 1.381 . S
C824 C830 1.383 . S
C825 C821 1.495 . S
C825 H831 0.959 . S
C825 H832 0.961 . S
C825 H833 0.960 . S
C826 C824 1.381 . S
C826 C827 1.394 . S
C826 H834 0.930 . S
C827 C826 1.394 . S
C827 C828 1.383 . S
C827 H835 0.929 . S
C828 C827 1.383 . S
C828 C829 1.377 . S
C829 H813 0.930 . S
C829 C828 1.377 . S
C829 C830 1.379 . S
C830 H814 0.931 . S
C830 C824 1.383 . S
C830 C829 1.379 . S
H831 C825 0.959 . S
H832 C825 0.961 . S
H833 C825 0.960 . S
H834 C826 0.930 . S
H835 C827 0.929 . S
H836 C844 0.929 . S
H837 C846 0.930 . S
H838 C848 0.930 . S
H839 C851 0.929 . S
H840 C854 0.930 . S
H841 C856 0.960 . S
H842 C856 0.960 . S
H843 C856 0.960 . S
C844 H836 0.929 . S
C844 C845 1.377 . S
C844 C846 1.384 . S
C845 C844 1.377 . S
C845 C851 1.390 . S
C846 H837 0.930 . S
C846 C844 1.384 . S
C846 C847 1.372 . S
C847 C846 1.372 . S
C847 C848 1.400 . S
C847 C852 1.490 . S
C848 H838 0.930 . S
C848 C847 1.400 . S
C848 C851 1.386 . S
H849 C865 0.930 . S
H850 C866 0.931 . S
C851 H839 0.929 . S
C851 C845 1.390 . S
C851 C848 1.386 . S
C852 C847 1.490 . S
C852 C854 1.395 . S
C852 C855 1.403 . S
H853 C859 0.930 . S
C854 H840 0.930 . S
C854 C852 1.395 . S
C854 C857 1.403 . S
C855 C852 1.403 . S
C855 C856 1.524 . S
C855 C859 1.400 . S
C856 H841 0.960 . S
C856 H842 0.960 . S
C856 H843 0.960 . S
C856 C855 1.524 . S
C857 C854 1.403 . S
C857 C858 1.392 . S
C857 C861 1.495 . S
C858 C857 1.392 . S
C858 C859 1.385 . S
C858 C860 1.478 . S
C859 H853 0.930 . S
C859 C855 1.400 . S
C859 C858 1.385 . S
C860 C858 1.478 . S
C860 C862 1.381 . S
C860 C866 1.383 . S
C861 C857 1.495 . S
C861 H867 0.959 . S
C861 H868 0.961 . S
C861 H869 0.960 . S
C862 C860 1.381 . S
C862 C863 1.394 . S
C862 H870 0.930 . S
C863 C862 1.394 . S
C863 C864 1.383 . S
C863 H871 0.929 . S
C864 C863 1.383 . S
C864 C865 1.377 . S
C865 H849 0.930 . S
C865 C864 1.377 . S
C865 C866 1.379 . S
C866 H850 0.931 . S
C866 C860 1.383 . S
C866 C865 1.379 . S
H867 C861 0.959 . S
H868 C861 0.961 . S
H869 C861 0.960 . S
H870 C862 0.930 . S
H871 C863 0.929 . S
H872 C880 0.929 . S
H873 C882 0.930 . S
H874 C884 0.930 . S
H875 C887 0.929 . S
H876 C890 0.930 . S
H877 C892 0.960 . S
H878 C892 0.960 . S
H879 C892 0.960 . S
C880 H872 0.929 . S
C880 C881 1.377 . S
C880 C882 1.384 . S
C881 C880 1.377 . S
C881 C887 1.390 . S
C882 H873 0.930 . S
C882 C880 1.384 . S
C882 C883 1.372 . S
C883 C882 1.372 . S
C883 C884 1.400 . S
C883 C888 1.490 . S
C884 H874 0.930 . S
C884 C883 1.400 . S
C884 C887 1.386 . S
H885 C901 0.930 . S
H886 C902 0.931 . S
C887 H875 0.929 . S
C887 C881 1.390 . S
C887 C884 1.386 . S
C888 C883 1.490 . S
C888 C890 1.395 . S
C888 C891 1.403 . S
H889 C895 0.930 . S
C890 H876 0.930 . S
C890 C888 1.395 . S
C890 C893 1.403 1_554 S
C891 C888 1.403 . S
C891 C892 1.524 . S
C891 C895 1.400 1_554 S
C892 H877 0.960 . S
C892 H878 0.960 . S
C892 H879 0.960 . S
C892 C891 1.524 . S
C893 C890 1.403 1_556 S
C893 C894 1.392 . S
C893 C897 1.495 . S
C894 C893 1.392 . S
C894 C895 1.385 . S
C894 C896 1.478 . S
C895 H889 0.930 . S
C895 C891 1.400 1_556 S
C895 C894 1.385 . S
C896 C894 1.478 . S
C896 C898 1.381 . S
C896 C902 1.383 . S
C897 C893 1.495 . S
C897 H903 0.959 . S
C897 H904 0.961 . S
C897 H905 0.960 . S
C898 C896 1.381 . S
C898 C899 1.394 . S
C898 H906 0.930 . S
C899 C898 1.394 . S
C899 C900 1.383 . S
C899 H907 0.929 . S
C900 C899 1.383 . S
C900 C901 1.377 . S
C901 H885 0.930 . S
C901 C900 1.377 . S
C901 C902 1.379 . S
C902 H886 0.931 . S
C902 C896 1.383 . S
C902 C901 1.379 . S
H903 C897 0.959 . S
H904 C897 0.961 . S
H905 C897 0.960 . S
H906 C898 0.930 . S
H907 C899 0.929 . S
H908 C916 0.929 . S
H909 C918 0.930 . S
H910 C920 0.930 . S
H911 C923 0.929 . S
H912 C926 0.930 . S
H913 C928 0.960 . S
H914 C928 0.960 . S
H915 C928 0.960 . S
C916 H908 0.929 . S
C916 C917 1.377 . S
C916 C918 1.384 . S
C917 C916 1.377 . S
C917 C923 1.390 . S
C918 H909 0.930 . S
C918 C916 1.384 . S
C918 C919 1.372 . S
C919 C918 1.372 . S
C919 C920 1.400 . S
C919 C924 1.490 . S
C920 H910 0.930 . S
C920 C919 1.400 . S
C920 C923 1.386 . S
H921 C937 0.930 . S
H922 C938 0.931 . S
C923 H911 0.929 . S
C923 C917 1.390 . S
C923 C920 1.386 . S
C924 C919 1.490 . S
C924 C926 1.395 . S
C924 C927 1.403 . S
H925 C931 0.930 . S
C926 H912 0.930 . S
C926 C924 1.395 . S
C926 C929 1.403 . S
C927 C924 1.403 . S
C927 C928 1.524 . S
C927 C931 1.400 . S
C928 H913 0.960 . S
C928 H914 0.960 . S
C928 H915 0.960 . S
C928 C927 1.524 . S
C929 C926 1.403 . S
C929 C930 1.392 . S
C929 C933 1.495 . S
C930 C929 1.392 . S
C930 C931 1.385 . S
C930 C932 1.478 . S
C931 H925 0.930 . S
C931 C927 1.400 . S
C931 C930 1.385 . S
C932 C930 1.478 . S
C932 C934 1.381 . S
C932 C938 1.383 . S
C933 C929 1.495 . S
C933 H939 0.959 . S
C933 H940 0.961 . S
C933 H941 0.960 . S
C934 C932 1.381 . S
C934 C935 1.394 . S
C934 H942 0.930 . S
C935 C934 1.394 . S
C935 C936 1.383 . S
C935 H943 0.929 . S
C936 C935 1.383 . S
C936 C937 1.377 . S
C937 H921 0.930 . S
C937 C936 1.377 . S
C937 C938 1.379 . S
C938 H922 0.931 . S
C938 C932 1.383 . S
C938 C937 1.379 . S
H939 C933 0.959 . S
H940 C933 0.961 . S
H941 C933 0.960 . S
H942 C934 0.930 . S
H943 C935 0.929 . S
H944 C952 0.929 . S
H945 C954 0.930 . S
H946 C956 0.930 . S
H947 C959 0.929 . S
H948 C962 0.930 . S
H949 C964 0.960 . S
H950 C964 0.960 . S
H951 C964 0.960 . S
C952 H944 0.929 . S
C952 C953 1.377 . S
C952 C954 1.384 . S
C953 C952 1.377 . S
C953 C959 1.390 . S
C954 H945 0.930 . S
C954 C952 1.384 . S
C954 C955 1.372 . S
C955 C954 1.372 . S
C955 C956 1.400 . S
C955 C960 1.490 . S
C956 H946 0.930 . S
C956 C955 1.400 . S
C956 C959 1.386 . S
H957 C973 0.930 . S
H958 C974 0.931 . S
C959 H947 0.929 . S
C959 C953 1.390 . S
C959 C956 1.386 . S
C960 C955 1.490 . S
C960 C962 1.395 . S
C960 C963 1.403 . S
H961 C967 0.930 . S
C962 H948 0.930 . S
C962 C960 1.395 . S
C962 C965 1.403 . S
C963 C960 1.403 . S
C963 C964 1.524 . S
C963 C967 1.400 . S
C964 H949 0.960 . S
C964 H950 0.960 . S
C964 H951 0.960 . S
C964 C963 1.524 . S
C965 C962 1.403 . S
C965 C966 1.392 . S
C965 C969 1.495 . S
C966 C965 1.392 . S
C966 C967 1.385 . S
C966 C968 1.478 . S
C967 H961 0.930 . S
C967 C963 1.400 . S
C967 C966 1.385 . S
C968 C966 1.478 . S
C968 C970 1.381 . S
C968 C974 1.383 . S
C969 C965 1.495 . S
C969 H975 0.959 . S
C969 H976 0.961 . S
C969 H977 0.960 . S
C970 C968 1.381 . S
C970 C971 1.394 . S
C970 H978 0.930 . S
C971 C970 1.394 . S
C971 C972 1.383 . S
C971 H979 0.929 . S
C972 C971 1.383 . S
C972 C973 1.377 . S
C973 H957 0.930 . S
C973 C972 1.377 . S
C973 C974 1.379 . S
C974 H958 0.931 . S
C974 C968 1.383 . S
C974 C973 1.379 . S
H975 C969 0.959 . S
H976 C969 0.961 . S
H977 C969 0.960 . S
H978 C970 0.930 . S
H979 C971 0.929 . S
H980 C988 0.929 . S
H981 C990 0.930 . S
H982 C992 0.930 . S
H983 C995 0.929 . S
H984 C998 0.930 . S
H985 C1000 0.960 . S
H986 C1000 0.960 . S
H987 C1000 0.960 . S
C988 H980 0.929 . S
C988 C989 1.377 . S
C988 C990 1.384 . S
C989 C988 1.377 . S
C989 C995 1.390 . S
C990 H981 0.930 . S
C990 C988 1.384 . S
C990 C991 1.372 . S
C991 C990 1.372 . S
C991 C992 1.400 . S
C991 C996 1.490 . S
C992 H982 0.930 . S
C992 C991 1.400 . S
C992 C995 1.386 . S
H993 C1009 0.930 . S
H994 C1010 0.931 . S
C995 H983 0.929 . S
C995 C989 1.390 . S
C995 C992 1.386 . S
C996 C991 1.490 . S
C996 C998 1.395 . S
C996 C999 1.403 . S
H997 C1003 0.930 . S
C998 H984 0.930 . S
C998 C996 1.395 . S
C998 C1001 1.403 1_556 S
C999 C996 1.403 . S
C999 C1000 1.524 . S
C999 C1003 1.400 1_556 S
C1000 H985 0.960 . S
C1000 H986 0.960 . S
C1000 H987 0.960 . S
C1000 C999 1.524 . S
C1001 C998 1.403 1_554 S
C1001 C1002 1.392 . S
C1001 C1005 1.495 . S
C1002 C1001 1.392 . S
C1002 C1003 1.385 . S
C1002 C1004 1.478 . S
C1003 H997 0.930 . S
C1003 C999 1.400 1_554 S
C1003 C1002 1.385 . S
C1004 C1002 1.478 . S
C1004 C1006 1.381 . S
C1004 C1010 1.383 . S
C1005 C1001 1.495 . S
C1005 H1011 0.959 . S
C1005 H1012 0.961 . S
C1005 H1013 0.960 . S
C1006 C1004 1.381 . S
C1006 C1007 1.394 . S
C1006 H1014 0.930 . S
C1007 C1006 1.394 . S
C1007 C1008 1.383 . S
C1007 H1015 0.929 . S
C1008 C1007 1.383 . S
C1008 C1009 1.377 . S
C1009 H993 0.930 . S
C1009 C1008 1.377 . S
C1009 C1010 1.379 . S
C1010 H994 0.931 . S
C1010 C1004 1.383 . S
C1010 C1009 1.379 . S
H1011 C1005 0.959 . S
H1012 C1005 0.961 . S
H1013 C1005 0.960 . S
H1014 C1006 0.930 . S
H1015 C1007 0.929 . S
H1016 C1024 0.929 . S
H1017 C1026 0.930 . S
H1018 C1028 0.930 . S
H1019 C1031 0.929 . S
H1020 C1034 0.930 . S
H1021 C1036 0.960 . S
H1022 C1036 0.960 . S
H1023 C1036 0.960 . S
C1024 H1016 0.929 . S
C1024 C1025 1.377 . S
C1024 C1026 1.384 . S
C1025 C1024 1.377 . S
C1025 C1031 1.390 . S
C1026 H1017 0.930 . S
C1026 C1024 1.384 . S
C1026 C1027 1.372 . S
C1027 C1026 1.372 . S
C1027 C1028 1.400 . S
C1027 C1032 1.490 . S
C1028 H1018 0.930 . S
C1028 C1027 1.400 . S
C1028 C1031 1.386 . S
H1029 C1045 0.930 . S
H1030 C1046 0.931 . S
C1031 H1019 0.929 . S
C1031 C1025 1.390 . S
C1031 C1028 1.386 . S
C1032 C1027 1.490 . S
C1032 C1034 1.395 . S
C1032 C1035 1.403 . S
H1033 C1039 0.930 . S
C1034 H1020 0.930 . S
C1034 C1032 1.395 . S
C1034 C1037 1.403 . S
C1035 C1032 1.403 . S
C1035 C1036 1.524 . S
C1035 C1039 1.400 . S
C1036 H1021 0.960 . S
C1036 H1022 0.960 . S
C1036 H1023 0.960 . S
C1036 C1035 1.524 . S
C1037 C1034 1.403 . S
C1037 C1038 1.392 . S
C1037 C1041 1.495 . S
C1038 C1037 1.392 . S
C1038 C1039 1.385 . S
C1038 C1040 1.478 . S
C1039 H1033 0.930 . S
C1039 C1035 1.400 . S
C1039 C1038 1.385 . S
C1040 C1038 1.478 . S
C1040 C1042 1.381 . S
C1040 C1046 1.383 . S
C1041 C1037 1.495 . S
C1041 H1047 0.959 . S
C1041 H1048 0.961 . S
C1041 H1049 0.960 . S
C1042 C1040 1.381 . S
C1042 C1043 1.394 . S
C1042 H1050 0.930 . S
C1043 C1042 1.394 . S
C1043 C1044 1.383 . S
C1043 H1051 0.929 . S
C1044 C1043 1.383 . S
C1044 C1045 1.377 . S
C1045 H1029 0.930 . S
C1045 C1044 1.377 . S
C1045 C1046 1.379 . S
C1046 H1030 0.931 . S
C1046 C1040 1.383 . S
C1046 C1045 1.379 . S
H1047 C1041 0.959 . S
H1048 C1041 0.961 . S
H1049 C1041 0.960 . S
H1050 C1042 0.930 . S
H1051 C1043 0.929 . S
H1052 C1060 0.929 . S
H1053 C1062 0.930 . S
H1054 C1064 0.930 . S
H1055 C1067 0.929 . S
H1056 C1070 0.930 . S
H1057 C1072 0.960 . S
H1058 C1072 0.960 . S
H1059 C1072 0.960 . S
C1060 H1052 0.929 . S
C1060 C1061 1.377 . S
C1060 C1062 1.384 . S
C1061 C1060 1.377 . S
C1061 C1067 1.390 . S
C1062 H1053 0.930 . S
C1062 C1060 1.384 . S
C1062 C1063 1.372 . S
C1063 C1062 1.372 . S
C1063 C1064 1.400 . S
C1063 C1068 1.490 . S
C1064 H1054 0.930 . S
C1064 C1063 1.400 . S
C1064 C1067 1.386 . S
H1065 C1081 0.930 . S
H1066 C1082 0.931 . S
C1067 H1055 0.929 . S
C1067 C1061 1.390 . S
C1067 C1064 1.386 . S
C1068 C1063 1.490 . S
C1068 C1070 1.395 . S
C1068 C1071 1.403 . S
H1069 C1075 0.930 . S
C1070 H1056 0.930 . S
C1070 C1068 1.395 . S
C1070 C1073 1.403 1_554 S
C1071 C1068 1.403 . S
C1071 C1072 1.524 . S
C1071 C1075 1.400 1_554 S
C1072 H1057 0.960 . S
C1072 H1058 0.960 . S
C1072 H1059 0.960 . S
C1072 C1071 1.524 . S
C1073 C1070 1.403 1_556 S
C1073 C1074 1.392 . S
C1073 C1077 1.495 . S
C1074 C1073 1.392 . S
C1074 C1075 1.385 . S
C1074 C1076 1.478 . S
C1075 H1069 0.930 . S
C1075 C1071 1.400 1_556 S
C1075 C1074 1.385 . S
C1076 C1074 1.478 . S
C1076 C1078 1.381 . S
C1076 C1082 1.383 . S
C1077 C1073 1.495 . S
C1077 H1083 0.959 . S
C1077 H1084 0.961 . S
C1077 H1085 0.960 . S
C1078 C1076 1.381 . S
C1078 C1079 1.394 . S
C1078 H1086 0.930 . S
C1079 C1078 1.394 . S
C1079 C1080 1.383 . S
C1079 H1087 0.929 . S
C1080 C1079 1.383 . S
C1080 C1081 1.377 . S
C1081 H1065 0.930 . S
C1081 C1080 1.377 . S
C1081 C1082 1.379 . S
C1082 H1066 0.931 . S
C1082 C1076 1.383 . S
C1082 C1081 1.379 . S
H1083 C1077 0.959 . S
H1084 C1077 0.961 . S
H1085 C1077 0.960 . S
H1086 C1078 0.930 . S
H1087 C1079 0.929 . S
H1088 C1096 0.929 . S
H1089 C1098 0.930 . S
H1090 C1100 0.930 . S
H1091 C1103 0.929 . S
H1092 C1106 0.930 . S
H1093 C1108 0.960 . S
H1094 C1108 0.960 . S
H1095 C1108 0.960 . S
C1096 H1088 0.929 . S
C1096 C1097 1.377 . S
C1096 C1098 1.384 . S
C1097 C1096 1.377 . S
C1097 C1103 1.390 . S
C1098 H1089 0.930 . S
C1098 C1096 1.384 . S
C1098 C1099 1.372 . S
C1099 C1098 1.372 . S
C1099 C1100 1.400 . S
C1099 C1104 1.490 . S
C1100 H1090 0.930 . S
C1100 C1099 1.400 . S
C1100 C1103 1.386 . S
H1101 C1117 0.930 . S
H1102 C1118 0.931 . S
C1103 H1091 0.929 . S
C1103 C1097 1.390 . S
C1103 C1100 1.386 . S
C1104 C1099 1.490 . S
C1104 C1106 1.395 . S
C1104 C1107 1.403 . S
H1105 C1111 0.930 . S
C1106 H1092 0.930 . S
C1106 C1104 1.395 . S
C1106 C1109 1.403 . S
C1107 C1104 1.403 . S
C1107 C1108 1.524 . S
C1107 C1111 1.400 . S
C1108 H1093 0.960 . S
C1108 H1094 0.960 . S
C1108 H1095 0.960 . S
C1108 C1107 1.524 . S
C1109 C1106 1.403 . S
C1109 C1110 1.392 . S
C1109 C1113 1.495 . S
C1110 C1109 1.392 . S
C1110 C1111 1.385 . S
C1110 C1112 1.478 . S
C1111 H1105 0.930 . S
C1111 C1107 1.400 . S
C1111 C1110 1.385 . S
C1112 C1110 1.478 . S
C1112 C1114 1.381 . S
C1112 C1118 1.383 . S
C1113 C1109 1.495 . S
C1113 H1119 0.959 . S
C1113 H1120 0.961 . S
C1113 H1121 0.960 . S
C1114 C1112 1.381 . S
C1114 C1115 1.394 . S
C1114 H1122 0.930 . S
C1115 C1114 1.394 . S
C1115 C1116 1.383 . S
C1115 H1123 0.929 . S
C1116 C1115 1.383 . S
C1116 C1117 1.377 . S
C1117 H1101 0.930 . S
C1117 C1116 1.377 . S
C1117 C1118 1.379 . S
C1118 H1102 0.931 . S
C1118 C1112 1.383 . S
C1118 C1117 1.379 . S
H1119 C1113 0.959 . S
H1120 C1113 0.961 . S
H1121 C1113 0.960 . S
H1122 C1114 0.930 . S
H1123 C1115 0.929 . S
H1124 C1132 0.929 . S
H1125 C1134 0.930 . S
H1126 C1136 0.930 . S
H1127 C1139 0.929 . S
H1128 C1142 0.930 . S
H1129 C1144 0.960 . S
H1130 C1144 0.960 . S
H1131 C1144 0.960 . S
C1132 H1124 0.929 . S
C1132 C1133 1.377 . S
C1132 C1134 1.384 . S
C1133 C1132 1.377 . S
C1133 C1139 1.390 . S
C1134 H1125 0.930 . S
C1134 C1132 1.384 . S
C1134 C1135 1.372 . S
C1135 C1134 1.372 . S
C1135 C1136 1.400 . S
C1135 C1140 1.490 . S
C1136 H1126 0.930 . S
C1136 C1135 1.400 . S
C1136 C1139 1.386 . S
H1137 C1153 0.930 . S
H1138 C1154 0.931 . S
C1139 H1127 0.929 . S
C1139 C1133 1.390 . S
C1139 C1136 1.386 . S
C1140 C1135 1.490 . S
C1140 C1142 1.395 . S
C1140 C1143 1.403 . S
H1141 C1147 0.930 . S
C1142 H1128 0.930 . S
C1142 C1140 1.395 . S
C1142 C1145 1.403 . S
C1143 C1140 1.403 . S
C1143 C1144 1.524 . S
C1143 C1147 1.400 . S
C1144 H1129 0.960 . S
C1144 H1130 0.960 . S
C1144 H1131 0.960 . S
C1144 C1143 1.524 . S
C1145 C1142 1.403 . S
C1145 C1146 1.392 . S
C1145 C1149 1.495 . S
C1146 C1145 1.392 . S
C1146 C1147 1.385 . S
C1146 C1148 1.478 . S
C1147 H1141 0.930 . S
C1147 C1143 1.400 . S
C1147 C1146 1.385 . S
C1148 C1146 1.478 . S
C1148 C1150 1.381 . S
C1148 C1154 1.383 . S
C1149 C1145 1.495 . S
C1149 H1155 0.959 . S
C1149 H1156 0.961 . S
C1149 H1157 0.960 . S
C1150 C1148 1.381 . S
C1150 C1151 1.394 . S
C1150 H1158 0.930 . S
C1151 C1150 1.394 . S
C1151 C1152 1.383 . S
C1151 H1159 0.929 . S
C1152 C1151 1.383 . S
C1152 C1153 1.377 . S
C1153 H1137 0.930 . S
C1153 C1152 1.377 . S
C1153 C1154 1.379 . S
C1154 H1138 0.931 . S
C1154 C1148 1.383 . S
C1154 C1153 1.379 . S
H1155 C1149 0.959 . S
H1156 C1149 0.961 . S
H1157 C1149 0.960 . S
H1158 C1150 0.930 . S
H1159 C1151 0.929 . S
H1160 C1168 0.929 . S
H1161 C1170 0.930 . S
H1162 C1172 0.930 . S
H1163 C1175 0.929 . S
H1164 C1178 0.930 . S
H1165 C1180 0.960 . S
H1166 C1180 0.960 . S
H1167 C1180 0.960 . S
C1168 H1160 0.929 . S
C1168 C1169 1.377 . S
C1168 C1170 1.384 . S
C1169 C1168 1.377 . S
C1169 C1175 1.390 . S
C1170 H1161 0.930 . S
C1170 C1168 1.384 . S
C1170 C1171 1.372 . S
C1171 C1170 1.372 . S
C1171 C1172 1.400 . S
C1171 C1176 1.490 . S
C1172 H1162 0.930 . S
C1172 C1171 1.400 . S
C1172 C1175 1.386 . S
H1173 C1189 0.930 . S
H1174 C1190 0.931 . S
C1175 H1163 0.929 . S
C1175 C1169 1.390 . S
C1175 C1172 1.386 . S
C1176 C1171 1.490 . S
C1176 C1178 1.395 . S
C1176 C1179 1.403 . S
H1177 C1183 0.930 . S
C1178 H1164 0.930 . S
C1178 C1176 1.395 . S
C1178 C1181 1.403 . S
C1179 C1176 1.403 . S
C1179 C1180 1.524 . S
C1179 C1183 1.400 . S
C1180 H1165 0.960 . S
C1180 H1166 0.960 . S
C1180 H1167 0.960 . S
C1180 C1179 1.524 . S
C1181 C1178 1.403 . S
C1181 C1182 1.392 . S
C1181 C1185 1.495 . S
C1182 C1181 1.392 . S
C1182 C1183 1.385 . S
C1182 C1184 1.478 . S
C1183 H1177 0.930 . S
C1183 C1179 1.400 . S
C1183 C1182 1.385 . S
C1184 C1182 1.478 . S
C1184 C1186 1.381 . S
C1184 C1190 1.383 . S
C1185 C1181 1.495 . S
C1185 H1191 0.959 . S
C1185 H1192 0.961 . S
C1185 H1193 0.960 . S
C1186 C1184 1.381 . S
C1186 C1187 1.394 . S
C1186 H1194 0.930 . S
C1187 C1186 1.394 . S
C1187 C1188 1.383 . S
C1187 H1195 0.929 . S
C1188 C1187 1.383 . S
C1188 C1189 1.377 . S
C1189 H1173 0.930 . S
C1189 C1188 1.377 . S
C1189 C1190 1.379 . S
C1190 H1174 0.931 . S
C1190 C1184 1.383 . S
C1190 C1189 1.379 . S
H1191 C1185 0.959 . S
H1192 C1185 0.961 . S
H1193 C1185 0.960 . S
H1194 C1186 0.930 . S
H1195 C1187 0.929 . S
H1196 C1204 0.929 . S
H1197 C1206 0.930 . S
H1198 C1208 0.930 . S
H1199 C1211 0.929 . S
H1200 C1214 0.930 . S
H1201 C1216 0.960 . S
H1202 C1216 0.960 . S
H1203 C1216 0.960 . S
C1204 H1196 0.929 . S
C1204 C1205 1.377 . S
C1204 C1206 1.384 . S
C1205 C1204 1.377 . S
C1205 C1211 1.390 . S
C1206 H1197 0.930 . S
C1206 C1204 1.384 . S
C1206 C1207 1.372 . S
C1207 C1206 1.372 . S
C1207 C1208 1.400 . S
C1207 C1212 1.490 . S
C1208 H1198 0.930 . S
C1208 C1207 1.400 . S
C1208 C1211 1.386 . S
H1209 C1225 0.930 . S
H1210 C1226 0.931 . S
C1211 H1199 0.929 . S
C1211 C1205 1.390 . S
C1211 C1208 1.386 . S
C1212 C1207 1.490 . S
C1212 C1214 1.395 . S
C1212 C1215 1.403 . S
H1213 C1219 0.930 . S
C1214 H1200 0.930 . S
C1214 C1212 1.395 . S
C1214 C1217 1.403 . S
C1215 C1212 1.403 . S
C1215 C1216 1.524 . S
C1215 C1219 1.400 . S
C1216 H1201 0.960 . S
C1216 H1202 0.960 . S
C1216 H1203 0.960 . S
C1216 C1215 1.524 . S
C1217 C1214 1.403 . S
C1217 C1218 1.392 . S
C1217 C1221 1.495 . S
C1218 C1217 1.392 . S
C1218 C1219 1.385 . S
C1218 C1220 1.478 . S
C1219 H1213 0.930 . S
C1219 C1215 1.400 . S
C1219 C1218 1.385 . S
C1220 C1218 1.478 . S
C1220 C1222 1.381 . S
C1220 C1226 1.383 . S
C1221 C1217 1.495 . S
C1221 H1227 0.959 . S
C1221 H1228 0.961 . S
C1221 H1229 0.960 . S
C1222 C1220 1.381 . S
C1222 C1223 1.394 . S
C1222 H1230 0.930 . S
C1223 C1222 1.394 . S
C1223 C1224 1.383 . S
C1223 H1231 0.929 . S
C1224 C1223 1.383 . S
C1224 C1225 1.377 . S
C1225 H1209 0.930 . S
C1225 C1224 1.377 . S
C1225 C1226 1.379 . S
C1226 H1210 0.931 . S
C1226 C1220 1.383 . S
C1226 C1225 1.379 . S
H1227 C1221 0.959 . S
H1228 C1221 0.961 . S
H1229 C1221 0.960 . S
H1230 C1222 0.930 . S
H1231 C1223 0.929 . S
H1232 C1240 0.929 . S
H1233 C1242 0.930 . S
H1234 C1244 0.930 . S
H1235 C1247 0.929 . S
H1236 C1250 0.930 . S
H1237 C1252 0.960 . S
H1238 C1252 0.960 . S
H1239 C1252 0.960 . S
C1240 H1232 0.929 . S
C1240 C1241 1.377 . S
C1240 C1242 1.384 . S
C1241 C1240 1.377 . S
C1241 C1247 1.390 . S
C1242 H1233 0.930 . S
C1242 C1240 1.384 . S
C1242 C1243 1.372 . S
C1243 C1242 1.372 . S
C1243 C1244 1.400 . S
C1243 C1248 1.490 . S
C1244 H1234 0.930 . S
C1244 C1243 1.400 . S
C1244 C1247 1.386 . S
H1245 C1261 0.930 . S
H1246 C1262 0.931 . S
C1247 H1235 0.929 . S
C1247 C1241 1.390 . S
C1247 C1244 1.386 . S
C1248 C1243 1.490 . S
C1248 C1250 1.395 . S
C1248 C1251 1.403 . S
H1249 C1255 0.930 . S
C1250 H1236 0.930 . S
C1250 C1248 1.395 . S
C1250 C1253 1.403 . S
C1251 C1248 1.403 . S
C1251 C1252 1.524 . S
C1251 C1255 1.400 . S
C1252 H1237 0.960 . S
C1252 H1238 0.960 . S
C1252 H1239 0.960 . S
C1252 C1251 1.524 . S
C1253 C1250 1.403 . S
C1253 C1254 1.392 . S
C1253 C1257 1.495 . S
C1254 C1253 1.392 . S
C1254 C1255 1.385 . S
C1254 C1256 1.478 . S
C1255 H1249 0.930 . S
C1255 C1251 1.400 . S
C1255 C1254 1.385 . S
C1256 C1254 1.478 . S
C1256 C1258 1.381 . S
C1256 C1262 1.383 . S
C1257 C1253 1.495 . S
C1257 H1263 0.959 . S
C1257 H1264 0.961 . S
C1257 H1265 0.960 . S
C1258 C1256 1.381 . S
C1258 C1259 1.394 . S
C1258 H1266 0.930 . S
C1259 C1258 1.394 . S
C1259 C1260 1.383 . S
C1259 H1267 0.929 . S
C1260 C1259 1.383 . S
C1260 C1261 1.377 . S
C1261 H1245 0.930 . S
C1261 C1260 1.377 . S
C1261 C1262 1.379 . S
C1262 H1246 0.931 . S
C1262 C1256 1.383 . S
C1262 C1261 1.379 . S
H1263 C1257 0.959 . S
H1264 C1257 0.961 . S
H1265 C1257 0.960 . S
H1266 C1258 0.930 . S
H1267 C1259 0.929 . S
H1268 C1276 0.929 . S
H1269 C1278 0.930 . S
H1270 C1280 0.930 . S
H1271 C1283 0.929 . S
H1272 C1286 0.930 . S
H1273 C1288 0.960 . S
H1274 C1288 0.960 . S
H1275 C1288 0.960 . S
C1276 H1268 0.929 . S
C1276 C1277 1.377 . S
C1276 C1278 1.384 . S
C1277 C1276 1.377 . S
C1277 C1283 1.390 . S
C1278 H1269 0.930 . S
C1278 C1276 1.384 . S
C1278 C1279 1.372 . S
C1279 C1278 1.372 . S
C1279 C1280 1.400 . S
C1279 C1284 1.490 . S
C1280 H1270 0.930 . S
C1280 C1279 1.400 . S
C1280 C1283 1.386 . S
H1281 C1297 0.930 . S
H1282 C1298 0.931 . S
C1283 H1271 0.929 . S
C1283 C1277 1.390 . S
C1283 C1280 1.386 . S
C1284 C1279 1.490 . S
C1284 C1286 1.395 . S
C1284 C1287 1.403 . S
H1285 C1291 0.930 . S
C1286 H1272 0.930 . S
C1286 C1284 1.395 . S
C1286 C1289 1.403 . S
C1287 C1284 1.403 . S
C1287 C1288 1.524 . S
C1287 C1291 1.400 . S
C1288 H1273 0.960 . S
C1288 H1274 0.960 . S
C1288 H1275 0.960 . S
C1288 C1287 1.524 . S
C1289 C1286 1.403 . S
C1289 C1290 1.392 . S
C1289 C1293 1.495 . S
C1290 C1289 1.392 . S
C1290 C1291 1.385 . S
C1290 C1292 1.478 . S
C1291 H1285 0.930 . S
C1291 C1287 1.400 . S
C1291 C1290 1.385 . S
C1292 C1290 1.478 . S
C1292 C1294 1.381 . S
C1292 C1298 1.383 . S
C1293 C1289 1.495 . S
C1293 H1299 0.959 . S
C1293 H1300 0.961 . S
C1293 H1301 0.960 . S
C1294 C1292 1.381 . S
C1294 C1295 1.394 . S
C1294 H1302 0.930 . S
C1295 C1294 1.394 . S
C1295 C1296 1.383 . S
C1295 H1303 0.929 . S
C1296 C1295 1.383 . S
C1296 C1297 1.377 . S
C1297 H1281 0.930 . S
C1297 C1296 1.377 . S
C1297 C1298 1.379 . S
C1298 H1282 0.931 . S
C1298 C1292 1.383 . S
C1298 C1297 1.379 . S
H1299 C1293 0.959 . S
H1300 C1293 0.961 . S
H1301 C1293 0.960 . S
H1302 C1294 0.930 . S
H1303 C1295 0.929 . S
H1304 C1312 0.929 . S
H1305 C1314 0.930 . S
H1306 C1316 0.930 . S
H1307 C1319 0.929 . S
H1308 C1322 0.930 . S
H1309 C1324 0.960 . S
H1310 C1324 0.960 . S
H1311 C1324 0.960 . S
C1312 H1304 0.929 . S
C1312 C1313 1.377 . S
C1312 C1314 1.384 . S
C1313 C1312 1.377 . S
C1313 C1319 1.390 . S
C1314 H1305 0.930 . S
C1314 C1312 1.384 . S
C1314 C1315 1.372 . S
C1315 C1314 1.372 . S
C1315 C1316 1.400 . S
C1315 C1320 1.490 . S
C1316 H1306 0.930 . S
C1316 C1315 1.400 . S
C1316 C1319 1.386 . S
H1317 C1333 0.930 . S
H1318 C1334 0.931 . S
C1319 H1307 0.929 . S
C1319 C1313 1.390 . S
C1319 C1316 1.386 . S
C1320 C1315 1.490 . S
C1320 C1322 1.395 . S
C1320 C1323 1.403 . S
H1321 C1327 0.930 . S
C1322 H1308 0.930 . S
C1322 C1320 1.395 . S
C1322 C1325 1.403 . S
C1323 C1320 1.403 . S
C1323 C1324 1.524 . S
C1323 C1327 1.400 . S
C1324 H1309 0.960 . S
C1324 H1310 0.960 . S
C1324 H1311 0.960 . S
C1324 C1323 1.524 . S
C1325 C1322 1.403 . S
C1325 C1326 1.392 . S
C1325 C1329 1.495 . S
C1326 C1325 1.392 . S
C1326 C1327 1.385 . S
C1326 C1328 1.478 . S
C1327 H1321 0.930 . S
C1327 C1323 1.400 . S
C1327 C1326 1.385 . S
C1328 C1326 1.478 . S
C1328 C1330 1.381 . S
C1328 C1334 1.383 . S
C1329 C1325 1.495 . S
C1329 H1335 0.959 . S
C1329 H1336 0.961 . S
C1329 H1337 0.960 . S
C1330 C1328 1.381 . S
C1330 C1331 1.394 . S
C1330 H1338 0.930 . S
C1331 C1330 1.394 . S
C1331 C1332 1.383 . S
C1331 H1339 0.929 . S
C1332 C1331 1.383 . S
C1332 C1333 1.377 . S
C1333 H1317 0.930 . S
C1333 C1332 1.377 . S
C1333 C1334 1.379 . S
C1334 H1318 0.931 . S
C1334 C1328 1.383 . S
C1334 C1333 1.379 . S
H1335 C1329 0.959 . S
H1336 C1329 0.961 . S
H1337 C1329 0.960 . S
H1338 C1330 0.930 . S
H1339 C1331 0.929 . S
H1340 C1348 0.929 . S
H1341 C1350 0.930 . S
H1342 C1352 0.930 . S
H1343 C1355 0.929 . S
H1344 C1358 0.930 . S
H1345 C1360 0.960 . S
H1346 C1360 0.960 . S
H1347 C1360 0.960 . S
C1348 H1340 0.929 . S
C1348 C1349 1.377 . S
C1348 C1350 1.384 . S
C1349 C1348 1.377 . S
C1349 C1355 1.390 . S
C1350 H1341 0.930 . S
C1350 C1348 1.384 . S
C1350 C1351 1.372 . S
C1351 C1350 1.372 . S
C1351 C1352 1.400 . S
C1351 C1356 1.490 . S
C1352 H1342 0.930 . S
C1352 C1351 1.400 . S
C1352 C1355 1.386 . S
H1353 C1369 0.930 . S
H1354 C1370 0.931 . S
C1355 H1343 0.929 . S
C1355 C1349 1.390 . S
C1355 C1352 1.386 . S
C1356 C1351 1.490 . S
C1356 C1358 1.395 . S
C1356 C1359 1.403 . S
H1357 C1363 0.930 . S
C1358 H1344 0.930 . S
C1358 C1356 1.395 . S
C1358 C1361 1.403 . S
C1359 C1356 1.403 . S
C1359 C1360 1.524 . S
C1359 C1363 1.400 . S
C1360 H1345 0.960 . S
C1360 H1346 0.960 . S
C1360 H1347 0.960 . S
C1360 C1359 1.524 . S
C1361 C1358 1.403 . S
C1361 C1362 1.392 . S
C1361 C1365 1.495 . S
C1362 C1361 1.392 . S
C1362 C1363 1.385 . S
C1362 C1364 1.478 . S
C1363 H1357 0.930 . S
C1363 C1359 1.400 . S
C1363 C1362 1.385 . S
C1364 C1362 1.478 . S
C1364 C1366 1.381 . S
C1364 C1370 1.383 . S
C1365 C1361 1.495 . S
C1365 H1371 0.959 . S
C1365 H1372 0.961 . S
C1365 H1373 0.960 . S
C1366 C1364 1.381 . S
C1366 C1367 1.394 . S
C1366 H1374 0.930 . S
C1367 C1366 1.394 . S
C1367 C1368 1.383 . S
C1367 H1375 0.929 . S
C1368 C1367 1.383 . S
C1368 C1369 1.377 . S
C1369 H1353 0.930 . S
C1369 C1368 1.377 . S
C1369 C1370 1.379 . S
C1370 H1354 0.931 . S
C1370 C1364 1.383 . S
C1370 C1369 1.379 . S
H1371 C1365 0.959 . S
H1372 C1365 0.961 . S
H1373 C1365 0.960 . S
H1374 C1366 0.930 . S
H1375 C1367 0.929 . S
C233 C9 1.211 . S
C252 C37 1.235 . S
C269 C51 1.201 . S
C288 C23 1.233 . S
C305 C65 1.209 . S
C324 C93 1.238 . S
C341 C107 1.214 . S
C360 C79 1.194 . S
C377 C121 1.206 . S
C396 C149 1.219 . S
C413 C163 1.214 . S
C432 C135 1.241 . S
C449 C177 1.202 . S
C468 C205 1.172 . S
C485 C219 1.214 . S
C504 C191 1.233 . S
C521 C63 1.323 . S
C540 C7 1.319 . S
C557 C21 1.323 . S
C576 C77 1.320 . S
C593 C35 1.319 . S
C612 C91 1.312 . S
C629 C105 1.319 . S
C648 C49 1.319 . S
C665 C119 1.320 . S
C684 C175 1.323 . S
C701 C133 1.322 . S
C720 C189 1.315 . S
C737 C147 1.320 . S
C756 C203 1.324 . S
C773 C161 1.322 . S
C792 C217 1.316 . S
C809 C148 1.117 . S
C828 C8 1.077 . S
C845 C162 1.104 . S
C864 C22 1.096 . S
C881 C36 1.113 . S
C900 C120 1.130 . S
C917 C50 1.107 . S
C936 C134 1.084 . S
C953 C64 1.103 . S
C972 C204 1.109 . S
C989 C78 1.107 . S
C1008 C218 1.083 . S
C1025 C92 1.117 . S
C1044 C176 1.076 . S
C1061 C190 1.117 . S
C1080 C106 1.078 . S
C1097 C6 1.376 . S
C1116 C216 1.359 . S
C1133 C174 1.375 . S
C1152 C20 1.380 . S
C1169 C34 1.371 . S
C1188 C188 1.379 . S
C1205 C202 1.372 . S
C1224 C48 1.367 . S
C1241 C132 1.371 . S
C1260 C62 1.380 . S
C1277 C76 1.375 . S
C1296 C146 1.358 . S
C1313 C160 1.374 . S
C1332 C90 1.382 . S
C1349 C118 1.375 . S
C1368 C104 1.378 . S
