# Generated by pormake.
# Topology rhr-a, (3)-cn, num edge types: 1
# Building blocks:
#     Node 0, Type 0, BuildingBlock: WUSLED_clean_sbu_0, # of connection points: 3
#     Node 1, Type 0, BuildingBlock: WUSLED_clean_sbu_0, # of connection points: 3
#     Node 2, Type 0, BuildingBlock: WUSLED_clean_sbu_0, # of connection points: 3
#     Node 3, Type 0, BuildingBlock: WUSLED_clean_sbu_0, # of connection points: 3
#     Node 4, Type 0, BuildingBlock: WUSLED_clean_sbu_0, # of connection points: 3
#     Node 5, Type 0, BuildingBlock: WUSLED_clean_sbu_0, # of connection points: 3
#     Node 6, Type 0, BuildingBlock: WUSLED_clean_sbu_0, # of connection points: 3
#     Node 7, Type 0, BuildingBlock: WUSLED_clean_sbu_0, # of connection points: 3
#     Node 8, Type 0, BuildingBlock: WUSLED_clean_sbu_0, # of connection points: 3
#     Node 9, Type 0, BuildingBlock: WUSLED_clean_sbu_0, # of connection points: 3
#     Node 10, Type 0, BuildingBlock: WUSLED_clean_sbu_0, # of connection points: 3
#     Node 11, Type 0, BuildingBlock: WUSLED_clean_sbu_0, # of connection points: 3
#     Node 12, Type 0, BuildingBlock: WUSLED_clean_sbu_0, # of connection points: 3
#     Node 13, Type 0, BuildingBlock: WUSLED_clean_sbu_0, # of connection points: 3
#     Node 14, Type 0, BuildingBlock: WUSLED_clean_sbu_0, # of connection points: 3
#     Node 15, Type 0, BuildingBlock: WUSLED_clean_sbu_0, # of connection points: 3
#     Node 16, Type 0, BuildingBlock: WUSLED_clean_sbu_0, # of connection points: 3
#     Node 17, Type 0, BuildingBlock: WUSLED_clean_sbu_0, # of connection points: 3
#     Node 18, Type 0, BuildingBlock: WUSLED_clean_sbu_0, # of connection points: 3
#     Node 19, Type 0, BuildingBlock: WUSLED_clean_sbu_0, # of connection points: 3
#     Node 20, Type 0, BuildingBlock: WUSLED_clean_sbu_0, # of connection points: 3
#     Node 21, Type 0, BuildingBlock: WUSLED_clean_sbu_0, # of connection points: 3
#     Node 22, Type 0, BuildingBlock: WUSLED_clean_sbu_0, # of connection points: 3
#     Node 23, Type 0, BuildingBlock: WUSLED_clean_sbu_0, # of connection points: 3
#     Node 24, Type 0, BuildingBlock: WUSLED_clean_sbu_0, # of connection points: 3
#     Node 25, Type 0, BuildingBlock: WUSLED_clean_sbu_0, # of connection points: 3
#     Node 26, Type 0, BuildingBlock: WUSLED_clean_sbu_0, # of connection points: 3
#     Node 27, Type 0, BuildingBlock: WUSLED_clean_sbu_0, # of connection points: 3
#     Node 28, Type 0, BuildingBlock: WUSLED_clean_sbu_0, # of connection points: 3
#     Node 29, Type 0, BuildingBlock: WUSLED_clean_sbu_0, # of connection points: 3
#     Node 30, Type 0, BuildingBlock: WUSLED_clean_sbu_0, # of connection points: 3
#     Node 31, Type 0, BuildingBlock: WUSLED_clean_sbu_0, # of connection points: 3
#     Node 32, Type 0, BuildingBlock: WUSLED_clean_sbu_0, # of connection points: 3
#     Node 33, Type 0, BuildingBlock: WUSLED_clean_sbu_0, # of connection points: 3
#     Node 34, Type 0, BuildingBlock: WUSLED_clean_sbu_0, # of connection points: 3
#     Node 35, Type 0, BuildingBlock: WUSLED_clean_sbu_0, # of connection points: 3
#     Node 36, Type 0, BuildingBlock: WUSLED_clean_sbu_0, # of connection points: 3
#     Node 37, Type 0, BuildingBlock: WUSLED_clean_sbu_0, # of connection points: 3
#     Node 38, Type 0, BuildingBlock: WUSLED_clean_sbu_0, # of connection points: 3
#     Node 39, Type 0, BuildingBlock: WUSLED_clean_sbu_0, # of connection points: 3
#     Node 40, Type 0, BuildingBlock: WUSLED_clean_sbu_0, # of connection points: 3
#     Node 41, Type 0, BuildingBlock: WUSLED_clean_sbu_0, # of connection points: 3
#     Node 42, Type 0, BuildingBlock: WUSLED_clean_sbu_0, # of connection points: 3
#     Node 43, Type 0, BuildingBlock: WUSLED_clean_sbu_0, # of connection points: 3
#     Node 44, Type 0, BuildingBlock: WUSLED_clean_sbu_0, # of connection points: 3
#     Node 45, Type 0, BuildingBlock: WUSLED_clean_sbu_0, # of connection points: 3
#     Node 46, Type 0, BuildingBlock: WUSLED_clean_sbu_0, # of connection points: 3
#     Node 47, Type 0, BuildingBlock: WUSLED_clean_sbu_0, # of connection points: 3
#     Node 48, Type 0, BuildingBlock: WUSLED_clean_sbu_0, # of connection points: 3
#     Node 49, Type 0, BuildingBlock: WUSLED_clean_sbu_0, # of connection points: 3
#     Node 50, Type 0, BuildingBlock: WUSLED_clean_sbu_0, # of connection points: 3
#     Node 51, Type 0, BuildingBlock: WUSLED_clean_sbu_0, # of connection points: 3
#     Node 52, Type 0, BuildingBlock: WUSLED_clean_sbu_0, # of connection points: 3
#     Node 53, Type 0, BuildingBlock: WUSLED_clean_sbu_0, # of connection points: 3
#     Node 54, Type 0, BuildingBlock: WUSLED_clean_sbu_0, # of connection points: 3
#     Node 55, Type 0, BuildingBlock: WUSLED_clean_sbu_0, # of connection points: 3
#     Node 56, Type 0, BuildingBlock: WUSLED_clean_sbu_0, # of connection points: 3
#     Node 57, Type 0, BuildingBlock: WUSLED_clean_sbu_0, # of connection points: 3
#     Node 58, Type 0, BuildingBlock: WUSLED_clean_sbu_0, # of connection points: 3
#     Node 59, Type 0, BuildingBlock: WUSLED_clean_sbu_0, # of connection points: 3
#     Node 60, Type 0, BuildingBlock: WUSLED_clean_sbu_0, # of connection points: 3
#     Node 61, Type 0, BuildingBlock: WUSLED_clean_sbu_0, # of connection points: 3
#     Node 62, Type 0, BuildingBlock: WUSLED_clean_sbu_0, # of connection points: 3
#     Node 63, Type 0, BuildingBlock: WUSLED_clean_sbu_0, # of connection points: 3
#     Node 64, Type 0, BuildingBlock: WUSLED_clean_sbu_0, # of connection points: 3
#     Node 65, Type 0, BuildingBlock: WUSLED_clean_sbu_0, # of connection points: 3
#     Node 66, Type 0, BuildingBlock: WUSLED_clean_sbu_0, # of connection points: 3
#     Node 67, Type 0, BuildingBlock: WUSLED_clean_sbu_0, # of connection points: 3
#     Node 68, Type 0, BuildingBlock: WUSLED_clean_sbu_0, # of connection points: 3
#     Node 69, Type 0, BuildingBlock: WUSLED_clean_sbu_0, # of connection points: 3
#     Node 70, Type 0, BuildingBlock: WUSLED_clean_sbu_0, # of connection points: 3
#     Node 71, Type 0, BuildingBlock: WUSLED_clean_sbu_0, # of connection points: 3
#     Node 72, Type 0, BuildingBlock: WUSLED_clean_sbu_0, # of connection points: 3
#     Node 73, Type 0, BuildingBlock: WUSLED_clean_sbu_0, # of connection points: 3
#     Node 74, Type 0, BuildingBlock: WUSLED_clean_sbu_0, # of connection points: 3
#     Node 75, Type 0, BuildingBlock: WUSLED_clean_sbu_0, # of connection points: 3
#     Node 76, Type 0, BuildingBlock: WUSLED_clean_sbu_0, # of connection points: 3
#     Node 77, Type 0, BuildingBlock: WUSLED_clean_sbu_0, # of connection points: 3
#     Node 78, Type 0, BuildingBlock: WUSLED_clean_sbu_0, # of connection points: 3
#     Node 79, Type 0, BuildingBlock: WUSLED_clean_sbu_0, # of connection points: 3
#     Node 80, Type 0, BuildingBlock: WUSLED_clean_sbu_0, # of connection points: 3
#     Node 81, Type 0, BuildingBlock: WUSLED_clean_sbu_0, # of connection points: 3
#     Node 82, Type 0, BuildingBlock: WUSLED_clean_sbu_0, # of connection points: 3
#     Node 83, Type 0, BuildingBlock: WUSLED_clean_sbu_0, # of connection points: 3
#     Node 84, Type 0, BuildingBlock: WUSLED_clean_sbu_0, # of connection points: 3
#     Node 85, Type 0, BuildingBlock: WUSLED_clean_sbu_0, # of connection points: 3
#     Node 86, Type 0, BuildingBlock: WUSLED_clean_sbu_0, # of connection points: 3
#     Node 87, Type 0, BuildingBlock: WUSLED_clean_sbu_0, # of connection points: 3
#     Node 88, Type 0, BuildingBlock: WUSLED_clean_sbu_0, # of connection points: 3
#     Node 89, Type 0, BuildingBlock: WUSLED_clean_sbu_0, # of connection points: 3
#     Node 90, Type 0, BuildingBlock: WUSLED_clean_sbu_0, # of connection points: 3
#     Node 91, Type 0, BuildingBlock: WUSLED_clean_sbu_0, # of connection points: 3
#     Node 92, Type 0, BuildingBlock: WUSLED_clean_sbu_0, # of connection points: 3
#     Node 93, Type 0, BuildingBlock: WUSLED_clean_sbu_0, # of connection points: 3
#     Node 94, Type 0, BuildingBlock: WUSLED_clean_sbu_0, # of connection points: 3
#     Node 95, Type 0, BuildingBlock: WUSLED_clean_sbu_0, # of connection points: 3
#     Edge 96, Type (0, 0), BuildingBlock: KIFKEQ_clean_linker_1, # of connection points: 2
#     Edge 97, Type (0, 0), BuildingBlock: KIFKEQ_clean_linker_1, # of connection points: 2
#     Edge 98, Type (0, 0), BuildingBlock: KIFKEQ_clean_linker_1, # of connection points: 2
#     Edge 99, Type (0, 0), BuildingBlock: KIFKEQ_clean_linker_1, # of connection points: 2
#     Edge 100, Type (0, 0), BuildingBlock: KIFKEQ_clean_linker_1, # of connection points: 2
#     Edge 101, Type (0, 0), BuildingBlock: KIFKEQ_clean_linker_1, # of connection points: 2
#     Edge 102, Type (0, 0), BuildingBlock: KIFKEQ_clean_linker_1, # of connection points: 2
#     Edge 103, Type (0, 0), BuildingBlock: KIFKEQ_clean_linker_1, # of connection points: 2
#     Edge 104, Type (0, 0), BuildingBlock: KIFKEQ_clean_linker_1, # of connection points: 2
#     Edge 105, Type (0, 0), BuildingBlock: KIFKEQ_clean_linker_1, # of connection points: 2
#     Edge 106, Type (0, 0), BuildingBlock: KIFKEQ_clean_linker_1, # of connection points: 2
#     Edge 107, Type (0, 0), BuildingBlock: KIFKEQ_clean_linker_1, # of connection points: 2
#     Edge 108, Type (0, 0), BuildingBlock: KIFKEQ_clean_linker_1, # of connection points: 2
#     Edge 109, Type (0, 0), BuildingBlock: KIFKEQ_clean_linker_1, # of connection points: 2
#     Edge 110, Type (0, 0), BuildingBlock: KIFKEQ_clean_linker_1, # of connection points: 2
#     Edge 111, Type (0, 0), BuildingBlock: KIFKEQ_clean_linker_1, # of connection points: 2
#     Edge 112, Type (0, 0), BuildingBlock: KIFKEQ_clean_linker_1, # of connection points: 2
#     Edge 113, Type (0, 0), BuildingBlock: KIFKEQ_clean_linker_1, # of connection points: 2
#     Edge 114, Type (0, 0), BuildingBlock: KIFKEQ_clean_linker_1, # of connection points: 2
#     Edge 115, Type (0, 0), BuildingBlock: KIFKEQ_clean_linker_1, # of connection points: 2
#     Edge 116, Type (0, 0), BuildingBlock: KIFKEQ_clean_linker_1, # of connection points: 2
#     Edge 117, Type (0, 0), BuildingBlock: KIFKEQ_clean_linker_1, # of connection points: 2
#     Edge 118, Type (0, 0), BuildingBlock: KIFKEQ_clean_linker_1, # of connection points: 2
#     Edge 119, Type (0, 0), BuildingBlock: KIFKEQ_clean_linker_1, # of connection points: 2
#     Edge 120, Type (0, 0), BuildingBlock: KIFKEQ_clean_linker_1, # of connection points: 2
#     Edge 121, Type (0, 0), BuildingBlock: KIFKEQ_clean_linker_1, # of connection points: 2
#     Edge 122, Type (0, 0), BuildingBlock: KIFKEQ_clean_linker_1, # of connection points: 2
#     Edge 123, Type (0, 0), BuildingBlock: KIFKEQ_clean_linker_1, # of connection points: 2
#     Edge 124, Type (0, 0), BuildingBlock: KIFKEQ_clean_linker_1, # of connection points: 2
#     Edge 125, Type (0, 0), BuildingBlock: KIFKEQ_clean_linker_1, # of connection points: 2
#     Edge 126, Type (0, 0), BuildingBlock: KIFKEQ_clean_linker_1, # of connection points: 2
#     Edge 127, Type (0, 0), BuildingBlock: KIFKEQ_clean_linker_1, # of connection points: 2
#     Edge 128, Type (0, 0), BuildingBlock: KIFKEQ_clean_linker_1, # of connection points: 2
#     Edge 129, Type (0, 0), BuildingBlock: KIFKEQ_clean_linker_1, # of connection points: 2
#     Edge 130, Type (0, 0), BuildingBlock: KIFKEQ_clean_linker_1, # of connection points: 2
#     Edge 131, Type (0, 0), BuildingBlock: KIFKEQ_clean_linker_1, # of connection points: 2
#     Edge 132, Type (0, 0), BuildingBlock: KIFKEQ_clean_linker_1, # of connection points: 2
#     Edge 133, Type (0, 0), BuildingBlock: KIFKEQ_clean_linker_1, # of connection points: 2
#     Edge 134, Type (0, 0), BuildingBlock: KIFKEQ_clean_linker_1, # of connection points: 2
#     Edge 135, Type (0, 0), BuildingBlock: KIFKEQ_clean_linker_1, # of connection points: 2
#     Edge 136, Type (0, 0), BuildingBlock: KIFKEQ_clean_linker_1, # of connection points: 2
#     Edge 137, Type (0, 0), BuildingBlock: KIFKEQ_clean_linker_1, # of connection points: 2
#     Edge 138, Type (0, 0), BuildingBlock: KIFKEQ_clean_linker_1, # of connection points: 2
#     Edge 139, Type (0, 0), BuildingBlock: KIFKEQ_clean_linker_1, # of connection points: 2
#     Edge 140, Type (0, 0), BuildingBlock: KIFKEQ_clean_linker_1, # of connection points: 2
#     Edge 141, Type (0, 0), BuildingBlock: KIFKEQ_clean_linker_1, # of connection points: 2
#     Edge 142, Type (0, 0), BuildingBlock: KIFKEQ_clean_linker_1, # of connection points: 2
#     Edge 143, Type (0, 0), BuildingBlock: KIFKEQ_clean_linker_1, # of connection points: 2
#     Edge 144, Type (0, 0), BuildingBlock: KIFKEQ_clean_linker_1, # of connection points: 2
#     Edge 145, Type (0, 0), BuildingBlock: KIFKEQ_clean_linker_1, # of connection points: 2
#     Edge 146, Type (0, 0), BuildingBlock: KIFKEQ_clean_linker_1, # of connection points: 2
#     Edge 147, Type (0, 0), BuildingBlock: KIFKEQ_clean_linker_1, # of connection points: 2
#     Edge 148, Type (0, 0), BuildingBlock: KIFKEQ_clean_linker_1, # of connection points: 2
#     Edge 149, Type (0, 0), BuildingBlock: KIFKEQ_clean_linker_1, # of connection points: 2
#     Edge 150, Type (0, 0), BuildingBlock: KIFKEQ_clean_linker_1, # of connection points: 2
#     Edge 151, Type (0, 0), BuildingBlock: KIFKEQ_clean_linker_1, # of connection points: 2
#     Edge 152, Type (0, 0), BuildingBlock: KIFKEQ_clean_linker_1, # of connection points: 2
#     Edge 153, Type (0, 0), BuildingBlock: KIFKEQ_clean_linker_1, # of connection points: 2
#     Edge 154, Type (0, 0), BuildingBlock: KIFKEQ_clean_linker_1, # of connection points: 2
#     Edge 155, Type (0, 0), BuildingBlock: KIFKEQ_clean_linker_1, # of connection points: 2
#     Edge 156, Type (0, 0), BuildingBlock: KIFKEQ_clean_linker_1, # of connection points: 2
#     Edge 157, Type (0, 0), BuildingBlock: KIFKEQ_clean_linker_1, # of connection points: 2
#     Edge 158, Type (0, 0), BuildingBlock: KIFKEQ_clean_linker_1, # of connection points: 2
#     Edge 159, Type (0, 0), BuildingBlock: KIFKEQ_clean_linker_1, # of connection points: 2
#     Edge 160, Type (0, 0), BuildingBlock: KIFKEQ_clean_linker_1, # of connection points: 2
#     Edge 161, Type (0, 0), BuildingBlock: KIFKEQ_clean_linker_1, # of connection points: 2
#     Edge 162, Type (0, 0), BuildingBlock: KIFKEQ_clean_linker_1, # of connection points: 2
#     Edge 163, Type (0, 0), BuildingBlock: KIFKEQ_clean_linker_1, # of connection points: 2
#     Edge 164, Type (0, 0), BuildingBlock: KIFKEQ_clean_linker_1, # of connection points: 2
#     Edge 165, Type (0, 0), BuildingBlock: KIFKEQ_clean_linker_1, # of connection points: 2
#     Edge 166, Type (0, 0), BuildingBlock: KIFKEQ_clean_linker_1, # of connection points: 2
#     Edge 167, Type (0, 0), BuildingBlock: KIFKEQ_clean_linker_1, # of connection points: 2
#     Edge 168, Type (0, 0), BuildingBlock: KIFKEQ_clean_linker_1, # of connection points: 2
#     Edge 169, Type (0, 0), BuildingBlock: KIFKEQ_clean_linker_1, # of connection points: 2
#     Edge 170, Type (0, 0), BuildingBlock: KIFKEQ_clean_linker_1, # of connection points: 2
#     Edge 171, Type (0, 0), BuildingBlock: KIFKEQ_clean_linker_1, # of connection points: 2
#     Edge 172, Type (0, 0), BuildingBlock: KIFKEQ_clean_linker_1, # of connection points: 2
#     Edge 173, Type (0, 0), BuildingBlock: KIFKEQ_clean_linker_1, # of connection points: 2
#     Edge 174, Type (0, 0), BuildingBlock: KIFKEQ_clean_linker_1, # of connection points: 2
#     Edge 175, Type (0, 0), BuildingBlock: KIFKEQ_clean_linker_1, # of connection points: 2
#     Edge 176, Type (0, 0), BuildingBlock: KIFKEQ_clean_linker_1, # of connection points: 2
#     Edge 177, Type (0, 0), BuildingBlock: KIFKEQ_clean_linker_1, # of connection points: 2
#     Edge 178, Type (0, 0), BuildingBlock: KIFKEQ_clean_linker_1, # of connection points: 2
#     Edge 179, Type (0, 0), BuildingBlock: KIFKEQ_clean_linker_1, # of connection points: 2
#     Edge 180, Type (0, 0), BuildingBlock: KIFKEQ_clean_linker_1, # of connection points: 2
#     Edge 181, Type (0, 0), BuildingBlock: KIFKEQ_clean_linker_1, # of connection points: 2
#     Edge 182, Type (0, 0), BuildingBlock: KIFKEQ_clean_linker_1, # of connection points: 2
#     Edge 183, Type (0, 0), BuildingBlock: KIFKEQ_clean_linker_1, # of connection points: 2
#     Edge 184, Type (0, 0), BuildingBlock: KIFKEQ_clean_linker_1, # of connection points: 2
#     Edge 185, Type (0, 0), BuildingBlock: KIFKEQ_clean_linker_1, # of connection points: 2
#     Edge 186, Type (0, 0), BuildingBlock: KIFKEQ_clean_linker_1, # of connection points: 2
#     Edge 187, Type (0, 0), BuildingBlock: KIFKEQ_clean_linker_1, # of connection points: 2
#     Edge 188, Type (0, 0), BuildingBlock: KIFKEQ_clean_linker_1, # of connection points: 2
#     Edge 189, Type (0, 0), BuildingBlock: KIFKEQ_clean_linker_1, # of connection points: 2
#     Edge 190, Type (0, 0), BuildingBlock: KIFKEQ_clean_linker_1, # of connection points: 2
#     Edge 191, Type (0, 0), BuildingBlock: KIFKEQ_clean_linker_1, # of connection points: 2
#     Edge 192, Type (0, 0), BuildingBlock: KIFKEQ_clean_linker_1, # of connection points: 2
#     Edge 193, Type (0, 0), BuildingBlock: KIFKEQ_clean_linker_1, # of connection points: 2
#     Edge 194, Type (0, 0), BuildingBlock: KIFKEQ_clean_linker_1, # of connection points: 2
#     Edge 195, Type (0, 0), BuildingBlock: KIFKEQ_clean_linker_1, # of connection points: 2
#     Edge 196, Type (0, 0), BuildingBlock: KIFKEQ_clean_linker_1, # of connection points: 2
#     Edge 197, Type (0, 0), BuildingBlock: KIFKEQ_clean_linker_1, # of connection points: 2
#     Edge 198, Type (0, 0), BuildingBlock: KIFKEQ_clean_linker_1, # of connection points: 2
#     Edge 199, Type (0, 0), BuildingBlock: KIFKEQ_clean_linker_1, # of connection points: 2
#     Edge 200, Type (0, 0), BuildingBlock: KIFKEQ_clean_linker_1, # of connection points: 2
#     Edge 201, Type (0, 0), BuildingBlock: KIFKEQ_clean_linker_1, # of connection points: 2
#     Edge 202, Type (0, 0), BuildingBlock: KIFKEQ_clean_linker_1, # of connection points: 2
#     Edge 203, Type (0, 0), BuildingBlock: KIFKEQ_clean_linker_1, # of connection points: 2
#     Edge 204, Type (0, 0), BuildingBlock: KIFKEQ_clean_linker_1, # of connection points: 2
#     Edge 205, Type (0, 0), BuildingBlock: KIFKEQ_clean_linker_1, # of connection points: 2
#     Edge 206, Type (0, 0), BuildingBlock: KIFKEQ_clean_linker_1, # of connection points: 2
#     Edge 207, Type (0, 0), BuildingBlock: KIFKEQ_clean_linker_1, # of connection points: 2
#     Edge 208, Type (0, 0), BuildingBlock: KIFKEQ_clean_linker_1, # of connection points: 2
#     Edge 209, Type (0, 0), BuildingBlock: KIFKEQ_clean_linker_1, # of connection points: 2
#     Edge 210, Type (0, 0), BuildingBlock: KIFKEQ_clean_linker_1, # of connection points: 2
#     Edge 211, Type (0, 0), BuildingBlock: KIFKEQ_clean_linker_1, # of connection points: 2
#     Edge 212, Type (0, 0), BuildingBlock: KIFKEQ_clean_linker_1, # of connection points: 2
#     Edge 213, Type (0, 0), BuildingBlock: KIFKEQ_clean_linker_1, # of connection points: 2
#     Edge 214, Type (0, 0), BuildingBlock: KIFKEQ_clean_linker_1, # of connection points: 2
#     Edge 215, Type (0, 0), BuildingBlock: KIFKEQ_clean_linker_1, # of connection points: 2
#     Edge 216, Type (0, 0), BuildingBlock: KIFKEQ_clean_linker_1, # of connection points: 2
#     Edge 217, Type (0, 0), BuildingBlock: KIFKEQ_clean_linker_1, # of connection points: 2
#     Edge 218, Type (0, 0), BuildingBlock: KIFKEQ_clean_linker_1, # of connection points: 2
#     Edge 219, Type (0, 0), BuildingBlock: KIFKEQ_clean_linker_1, # of connection points: 2
#     Edge 220, Type (0, 0), BuildingBlock: KIFKEQ_clean_linker_1, # of connection points: 2
#     Edge 221, Type (0, 0), BuildingBlock: KIFKEQ_clean_linker_1, # of connection points: 2
#     Edge 222, Type (0, 0), BuildingBlock: KIFKEQ_clean_linker_1, # of connection points: 2
#     Edge 223, Type (0, 0), BuildingBlock: KIFKEQ_clean_linker_1, # of connection points: 2
#     Edge 224, Type (0, 0), BuildingBlock: KIFKEQ_clean_linker_1, # of connection points: 2
#     Edge 225, Type (0, 0), BuildingBlock: KIFKEQ_clean_linker_1, # of connection points: 2
#     Edge 226, Type (0, 0), BuildingBlock: KIFKEQ_clean_linker_1, # of connection points: 2
#     Edge 227, Type (0, 0), BuildingBlock: KIFKEQ_clean_linker_1, # of connection points: 2
#     Edge 228, Type (0, 0), BuildingBlock: KIFKEQ_clean_linker_1, # of connection points: 2
#     Edge 229, Type (0, 0), BuildingBlock: KIFKEQ_clean_linker_1, # of connection points: 2
#     Edge 230, Type (0, 0), BuildingBlock: KIFKEQ_clean_linker_1, # of connection points: 2
#     Edge 231, Type (0, 0), BuildingBlock: KIFKEQ_clean_linker_1, # of connection points: 2
#     Edge 232, Type (0, 0), BuildingBlock: KIFKEQ_clean_linker_1, # of connection points: 2
#     Edge 233, Type (0, 0), BuildingBlock: KIFKEQ_clean_linker_1, # of connection points: 2
#     Edge 234, Type (0, 0), BuildingBlock: KIFKEQ_clean_linker_1, # of connection points: 2
#     Edge 235, Type (0, 0), BuildingBlock: KIFKEQ_clean_linker_1, # of connection points: 2
#     Edge 236, Type (0, 0), BuildingBlock: KIFKEQ_clean_linker_1, # of connection points: 2
#     Edge 237, Type (0, 0), BuildingBlock: KIFKEQ_clean_linker_1, # of connection points: 2
#     Edge 238, Type (0, 0), BuildingBlock: KIFKEQ_clean_linker_1, # of connection points: 2
#     Edge 239, Type (0, 0), BuildingBlock: KIFKEQ_clean_linker_1, # of connection points: 2
# Relax obj value: 0.126
# Max RMSD: 0.104
# Mean RMSD: 0.104
data_MOF--net-rhr-a--node1-WUSLED_clean_sbu_0--edge1-KIFKEQ_clean_linker_1
_symmetry_space_group_name_H-M    P1
_symmetry_Int_Tables_number       1
_symmetry_cell_setting            triclinic
loop_
_symmetry_equiv_pos_as_xyz
'x, y, z'
_cell_length_a     185.03945
_cell_length_b     185.0424
_cell_length_c     185.04213
_cell_angle_alpha  89.999031
_cell_angle_beta   90.001514
_cell_angle_gamma 89.994078
loop_
_atom_site_label
_atom_site_type_symbol
_atom_site_fract_x
_atom_site_fract_y
_atom_site_fract_z
_atom_type_partial_charge
C0 C 0.07596 0.28562 0.34486 0.0
C1 C 0.07075 0.28546 0.33935 0.0
C2 C 0.07669 0.29551 0.33325 0.0
C3 C 0.07114 0.29032 0.33359 0.0
C4 C 0.08195 0.29559 0.33876 0.0
C5 C 0.08158 0.29068 0.34451 0.0
U6 U 0.06418 0.27422 0.35695 0.0
O7 O 0.06589 0.26366 0.36211 0.0
O8 O 0.06372 0.27322 0.36879 0.0
C9 C 0.06556 0.26636 0.36867 0.0
C10 C 0.0753 0.28084 0.35118 0.0
C11 C 0.07147 0.26432 0.37358 0.0
C12 C 0.08427 0.26299 0.37626 0.0
C13 C 0.07873 0.26491 0.37147 0.0
C14 C 0.07532 0.25992 0.38532 0.0
C15 C 0.08262 0.2605 0.38326 0.0
C16 C 0.06981 0.26181 0.38052 0.0
C17 C 0.04397 0.27373 0.3519 0.0
C18 C 0.03434 0.26897 0.35946 0.0
C19 C 0.03164 0.27343 0.34745 0.0
C20 C 0.03894 0.27506 0.34642 0.0
C21 C 0.02923 0.27042 0.354 0.0
C22 C 0.04166 0.27061 0.35842 0.0
C23 C 0.05151 0.27593 0.35078 0.0
O24 O 0.07155 0.28355 0.35657 0.0
O25 O 0.07363 0.27408 0.34975 0.0
O26 O 0.05605 0.27078 0.34896 0.0
O27 O 0.05415 0.28043 0.3556 0.0
H28 H 0.06633 0.28162 0.33955 0.0
H29 H 0.06706 0.29002 0.3294 0.0
H30 H 0.08624 0.29956 0.33874 0.0
H31 H 0.08561 0.29094 0.34876 0.0
H32 H 0.08983 0.26356 0.37454 0.0
H33 H 0.08012 0.26689 0.36613 0.0
H34 H 0.07387 0.25793 0.39063 0.0
H35 H 0.06423 0.26131 0.38224 0.0
H36 H 0.03267 0.26659 0.36454 0.0
H37 H 0.02786 0.27474 0.34317 0.0
H38 H 0.04063 0.27751 0.34137 0.0
H39 H 0.04549 0.26953 0.36271 0.0
C40 C 0.71754 0.0753 0.34715 0.0
C41 C 0.71706 0.06979 0.34196 0.0
C42 C 0.70743 0.07629 0.33577 0.0
C43 C 0.71208 0.07029 0.33631 0.0
C44 C 0.70796 0.08181 0.34097 0.0
C45 C 0.71298 0.08132 0.34661 0.0
U46 U 0.7293 0.06368 0.35919 0.0
O47 O 0.74004 0.0656 0.36392 0.0
O48 O 0.73072 0.06367 0.37099 0.0
C49 C 0.73757 0.06549 0.37058 0.0
C50 C 0.72253 0.07465 0.35329 0.0
C51 C 0.73976 0.0716 0.37515 0.0
C52 C 0.73946 0.08439 0.37816 0.0
C53 C 0.73736 0.07865 0.37369 0.0
C54 C 0.74637 0.07608 0.38556 0.0
C55 C 0.74399 0.08317 0.38415 0.0
C56 C 0.74427 0.07036 0.38109 0.0
C57 C 0.72992 0.04326 0.35499 0.0
C58 C 0.73102 0.03278 0.36286 0.0
C59 C 0.73394 0.03174 0.35014 0.0
C60 C 0.73229 0.03904 0.34916 0.0
C61 C 0.7332 0.02849 0.35697 0.0
C62 C 0.72942 0.04011 0.36188 0.0
C63 C 0.72756 0.05076 0.35361 0.0
O64 O 0.71998 0.07105 0.35885 0.0
O65 O 0.72921 0.07287 0.35165 0.0
O66 O 0.73256 0.05528 0.35139 0.0
O67 O 0.7231 0.05361 0.35836 0.0
H68 H 0.72049 0.06505 0.34234 0.0
H69 H 0.71174 0.0659 0.33245 0.0
H70 H 0.7045 0.08652 0.34068 0.0
H71 H 0.71325 0.08561 0.35058 0.0
H72 H 0.73758 0.08978 0.37688 0.0
H73 H 0.73387 0.0797 0.36911 0.0
H74 H 0.74976 0.07492 0.39018 0.0
H75 H 0.74614 0.06494 0.38231 0.0
H76 H 0.73047 0.03045 0.3682 0.0
H77 H 0.73553 0.02857 0.34548 0.0
H78 H 0.73269 0.04135 0.3438 0.0
H79 H 0.72764 0.04326 0.36649 0.0
C80 C 0.9276 0.71734 0.34534 0.0
C81 C 0.9329 0.71698 0.33993 0.0
C82 C 0.92632 0.70728 0.33395 0.0
C83 C 0.93225 0.71202 0.33427 0.0
C84 C 0.921 0.70768 0.33938 0.0
C85 C 0.92164 0.71269 0.34502 0.0
U86 U 0.93978 0.72888 0.35692 0.0
O87 O 0.9383 0.73966 0.3617 0.0
O88 O 0.94037 0.73031 0.36871 0.0
C89 C 0.93869 0.73721 0.36836 0.0
C90 C 0.92846 0.72231 0.35149 0.0
C91 C 0.9329 0.73956 0.37326 0.0
C92 C 0.92024 0.73999 0.37675 0.0
C93 C 0.92564 0.73778 0.37193 0.0
C94 C 0.92929 0.74578 0.38423 0.0
C95 C 0.92201 0.74398 0.38298 0.0
C96 C 0.93468 0.74359 0.37941 0.0
C97 C 0.95993 0.72887 0.35171 0.0
C98 C 0.96965 0.73387 0.359 0.0
C99 C 0.97224 0.72883 0.34719 0.0
C100 C 0.96493 0.72723 0.34627 0.0
C101 C 0.97471 0.73213 0.35359 0.0
C102 C 0.96231 0.73226 0.35806 0.0
C103 C 0.95235 0.72673 0.35071 0.0
O104 O 0.93222 0.7197 0.35692 0.0
O105 O 0.93025 0.72898 0.34981 0.0
O106 O 0.94788 0.73189 0.34874 0.0
O107 O 0.94968 0.72245 0.3557 0.0
H108 H 0.9376 0.72047 0.34013 0.0
H109 H 0.93649 0.71178 0.33024 0.0
H110 H 0.91635 0.70414 0.33926 0.0
H111 H 0.91752 0.71287 0.34917 0.0
H112 H 0.91469 0.73846 0.37566 0.0
H113 H 0.92418 0.73465 0.3672 0.0
H114 H 0.93083 0.74894 0.38891 0.0
H115 H 0.94025 0.74502 0.3805 0.0
H116 H 0.97136 0.73646 0.36396 0.0
H117 H 0.97599 0.72731 0.34297 0.0
H118 H 0.96319 0.72458 0.34135 0.0
H119 H 0.9585 0.73357 0.36232 0.0
C120 C 0.28602 0.92746 0.34639 0.0
C121 C 0.2859 0.93271 0.34092 0.0
C122 C 0.29605 0.92687 0.3349 0.0
C123 C 0.29084 0.9324 0.33522 0.0
C124 C 0.29607 0.92155 0.34035 0.0
C125 C 0.29109 0.92185 0.34604 0.0
U126 U 0.27444 0.93918 0.35834 0.0
O127 O 0.26385 0.93742 0.36343 0.0
O128 O 0.27335 0.9397 0.37017 0.0
C129 C 0.26649 0.93785 0.37002 0.0
C130 C 0.28118 0.92808 0.35267 0.0
C131 C 0.26442 0.93201 0.37499 0.0
C132 C 0.26335 0.91926 0.378 0.0
C133 C 0.26535 0.92471 0.37313 0.0
C134 C 0.25954 0.92836 0.38661 0.0
C135 C 0.26045 0.92103 0.38481 0.0
C136 C 0.26151 0.93379 0.38174 0.0
C137 C 0.27386 0.95936 0.35316 0.0
C138 C 0.26903 0.96903 0.36063 0.0
C139 C 0.2735 0.97164 0.3486 0.0
C140 C 0.27518 0.96435 0.34764 0.0
C141 C 0.27046 0.97409 0.35513 0.0
C142 C 0.27071 0.96171 0.35965 0.0
C143 C 0.27611 0.95182 0.35211 0.0
O144 O 0.28381 0.93186 0.35807 0.0
O145 O 0.27441 0.92968 0.35118 0.0
O146 O 0.271 0.94724 0.35028 0.0
O147 O 0.28059 0.94924 0.35697 0.0
H148 H 0.28205 0.93712 0.34112 0.0
H149 H 0.29058 0.93653 0.33107 0.0
H150 H 0.30007 0.91728 0.34034 0.0
H151 H 0.29131 0.91779 0.35025 0.0
H152 H 0.26418 0.91367 0.37647 0.0
H153 H 0.26763 0.92324 0.36795 0.0
H154 H 0.25723 0.92991 0.39176 0.0
H155 H 0.26074 0.93939 0.38326 0.0
H156 H 0.26663 0.97072 0.36569 0.0
H157 H 0.27479 0.97539 0.3443 0.0
H158 H 0.27764 0.96263 0.34261 0.0
H159 H 0.26964 0.9579 0.36397 0.0
C160 C 0.07641 0.71749 0.65698 0.0
C161 C 0.0714 0.7174 0.66268 0.0
C162 C 0.07764 0.7072 0.66817 0.0
C163 C 0.07203 0.71233 0.66824 0.0
C164 C 0.08268 0.70734 0.66248 0.0
C165 C 0.08207 0.71246 0.65694 0.0
U166 U 0.06425 0.7293 0.64563 0.0
O167 O 0.06583 0.74007 0.64087 0.0
O168 O 0.06354 0.73078 0.63386 0.0
C169 C 0.06534 0.73764 0.63421 0.0
C170 C 0.07553 0.72253 0.65089 0.0
C171 C 0.07111 0.73992 0.62925 0.0
C172 C 0.0838 0.74065 0.62591 0.0
C173 C 0.07841 0.73852 0.63078 0.0
C174 C 0.07464 0.74558 0.61795 0.0
C175 C 0.08197 0.74417 0.61941 0.0
C176 C 0.06927 0.74347 0.62283 0.0
C177 C 0.04414 0.72951 0.65106 0.0
C178 C 0.03438 0.73458 0.64387 0.0
C179 C 0.03188 0.72957 0.65571 0.0
C180 C 0.03919 0.72791 0.65655 0.0
C181 C 0.02936 0.73288 0.64934 0.0
C182 C 0.04172 0.73292 0.64473 0.0
C183 C 0.05171 0.72729 0.65197 0.0
O184 O 0.07168 0.72001 0.64549 0.0
O185 O 0.07384 0.72921 0.65264 0.0
O186 O 0.05626 0.73238 0.6539 0.0
O187 O 0.05428 0.723 0.64693 0.0
H188 H 0.06692 0.72118 0.66276 0.0
H189 H 0.06801 0.71229 0.67249 0.0
H190 H 0.08709 0.7035 0.6623 0.0
H191 H 0.08597 0.71242 0.65256 0.0
H192 H 0.08939 0.73943 0.62716 0.0
H193 H 0.07992 0.73575 0.63571 0.0
H194 H 0.07304 0.74837 0.61306 0.0
H195 H 0.06366 0.7446 0.62157 0.0
H196 H 0.03263 0.73719 0.63894 0.0
H197 H 0.02817 0.72806 0.65998 0.0
H198 H 0.04097 0.72524 0.66146 0.0
H199 H 0.04549 0.7342 0.64044 0.0
C200 C 0.2858 0.0762 0.65774 0.0
C201 C 0.28618 0.07091 0.66317 0.0
C202 C 0.29596 0.07747 0.66904 0.0
C203 C 0.29119 0.07156 0.66878 0.0
C204 C 0.29554 0.08277 0.6636 0.0
C205 C 0.29049 0.08214 0.658 0.0
U206 U 0.27408 0.06411 0.64621 0.0
O207 O 0.26325 0.06568 0.64158 0.0
O208 O 0.2725 0.06366 0.63444 0.0
C209 C 0.26563 0.0654 0.63489 0.0
C210 C 0.28077 0.07537 0.65165 0.0
C211 C 0.2633 0.07134 0.63017 0.0
C212 C 0.26323 0.08408 0.62693 0.0
C213 C 0.26543 0.07849 0.63154 0.0
C214 C 0.25675 0.07541 0.61955 0.0
C215 C 0.25887 0.0826 0.62087 0.0
C216 C 0.25895 0.06984 0.62416 0.0
C217 C 0.27404 0.04392 0.65131 0.0
C218 C 0.26893 0.03424 0.64405 0.0
C219 C 0.27403 0.03161 0.65582 0.0
C220 C 0.27569 0.03891 0.65673 0.0
C221 C 0.27067 0.02916 0.64945 0.0
C222 C 0.27059 0.04157 0.64498 0.0
C223 C 0.27623 0.05148 0.65231 0.0
O224 O 0.28331 0.07162 0.64617 0.0
O225 O 0.27411 0.07358 0.6534 0.0
O226 O 0.27113 0.05597 0.65437 0.0
O227 O 0.28046 0.05416 0.64727 0.0
H228 H 0.28266 0.06623 0.66301 0.0
H229 H 0.29145 0.06734 0.67283 0.0
H230 H 0.29911 0.08741 0.66368 0.0
H231 H 0.29029 0.08625 0.65384 0.0
H232 H 0.2649 0.08955 0.62815 0.0
H233 H 0.2688 0.07974 0.63617 0.0
H234 H 0.2535 0.07406 0.61488 0.0
H235 H 0.25729 0.06435 0.62301 0.0
H236 H 0.26628 0.03255 0.63911 0.0
H237 H 0.27557 0.02785 0.66004 0.0
H238 H 0.27838 0.04063 0.66164 0.0
H239 H 0.26927 0.04539 0.64074 0.0
C240 C 0.92739 0.28481 0.6575 0.0
C241 C 0.93255 0.28474 0.66305 0.0
C242 C 0.9267 0.29505 0.6688 0.0
C243 C 0.93219 0.28978 0.66867 0.0
C244 C 0.92147 0.29502 0.66327 0.0
C245 C 0.92182 0.28994 0.65767 0.0
U246 U 0.93921 0.27326 0.64558 0.0
O247 O 0.93755 0.26258 0.64063 0.0
O248 O 0.93962 0.27203 0.63377 0.0
C249 C 0.93789 0.26515 0.63402 0.0
C250 C 0.92806 0.27988 0.6513 0.0
C251 C 0.93203 0.26292 0.62913 0.0
C252 C 0.91936 0.26278 0.62566 0.0
C253 C 0.92482 0.26484 0.63049 0.0
C254 C 0.92829 0.25685 0.61813 0.0
C255 C 0.92105 0.2588 0.6194 0.0
C256 C 0.93372 0.2589 0.62295 0.0
C257 C 0.95948 0.27306 0.65035 0.0
C258 C 0.96924 0.26932 0.64239 0.0
C259 C 0.97176 0.27236 0.65488 0.0
C260 C 0.96444 0.27377 0.65602 0.0
C261 C 0.97428 0.27021 0.64802 0.0
C262 C 0.96189 0.27072 0.64355 0.0
C263 C 0.95193 0.2752 0.65158 0.0
O264 O 0.93173 0.2825 0.64581 0.0
O265 O 0.92982 0.27317 0.65287 0.0
O266 O 0.94747 0.27003 0.65354 0.0
O267 O 0.94915 0.27962 0.64676 0.0
H268 H 0.93693 0.28085 0.66299 0.0
H269 H 0.93624 0.28956 0.67289 0.0
H270 H 0.91724 0.29905 0.66314 0.0
H271 H 0.91783 0.29012 0.65339 0.0
H272 H 0.91385 0.26441 0.62676 0.0
H273 H 0.92343 0.26797 0.63524 0.0
H274 H 0.92976 0.2537 0.61342 0.0
H275 H 0.93926 0.25736 0.62184 0.0
H276 H 0.97098 0.2676 0.63708 0.0
H277 H 0.97549 0.27321 0.6593 0.0
H278 H 0.96267 0.2756 0.66129 0.0
H279 H 0.95811 0.27012 0.63911 0.0
C280 C 0.71743 0.92785 0.6573 0.0
C281 C 0.71419 0.93408 0.66015 0.0
C282 C 0.70737 0.92677 0.66873 0.0
C283 C 0.7092 0.93355 0.66579 0.0
C284 C 0.7107 0.92054 0.66588 0.0
C285 C 0.71568 0.92109 0.66021 0.0
U286 U 0.72917 0.93945 0.64531 0.0
O287 O 0.7401 0.93776 0.64095 0.0
O288 O 0.73095 0.93932 0.63357 0.0
C289 C 0.73785 0.93774 0.63421 0.0
C290 C 0.72258 0.92841 0.65128 0.0
C291 C 0.74042 0.93171 0.62973 0.0
C292 C 0.74041 0.919 0.62643 0.0
C293 C 0.73798 0.92463 0.63087 0.0
C294 C 0.74776 0.9275 0.61972 0.0
C295 C 0.74533 0.92038 0.62079 0.0
C296 C 0.74533 0.93311 0.62415 0.0
C297 C 0.72909 0.95996 0.64918 0.0
C298 C 0.72996 0.97046 0.6413 0.0
C299 C 0.73306 0.97153 0.65397 0.0
C300 C 0.7315 0.96421 0.65497 0.0
C301 C 0.73219 0.97477 0.64715 0.0
C302 C 0.72845 0.96311 0.6423 0.0
C303 C 0.72688 0.95242 0.65059 0.0
O304 O 0.72012 0.93177 0.64553 0.0
O305 O 0.72914 0.93045 0.6531 0.0
O306 O 0.73193 0.94807 0.65306 0.0
O307 O 0.72266 0.94936 0.64576 0.0
H308 H 0.71548 0.93936 0.65797 0.0
H309 H 0.70667 0.93845 0.66776 0.0
H310 H 0.70951 0.91525 0.66807 0.0
H311 H 0.71817 0.91622 0.6581 0.0
H312 H 0.73848 0.91357 0.62744 0.0
H313 H 0.73418 0.92346 0.63518 0.0
H314 H 0.75145 0.92879 0.61536 0.0
H315 H 0.74724 0.93856 0.62318 0.0
H316 H 0.72931 0.97278 0.63597 0.0
H317 H 0.73468 0.97472 0.65861 0.0
H318 H 0.73201 0.9619 0.66033 0.0
H319 H 0.72664 0.95995 0.63771 0.0
C320 C 0.34528 0.07545 0.28621 0.0
C321 C 0.34011 0.0699 0.28642 0.0
C322 C 0.33385 0.07591 0.29633 0.0
C323 C 0.33443 0.07015 0.29139 0.0
C324 C 0.339 0.08152 0.29602 0.0
C325 C 0.34466 0.08128 0.29101 0.0
U326 U 0.35807 0.06383 0.27545 0.0
O327 O 0.36293 0.06515 0.26467 0.0
O328 O 0.36988 0.06417 0.27424 0.0
C329 C 0.36955 0.06545 0.26726 0.0
C330 C 0.35155 0.07494 0.28134 0.0
C331 C 0.37398 0.07152 0.2647 0.0
C332 C 0.37684 0.08434 0.26437 0.0
C333 C 0.37241 0.07866 0.26671 0.0
C334 C 0.38441 0.07578 0.25797 0.0
C335 C 0.38291 0.08296 0.25999 0.0
C336 C 0.37998 0.07012 0.26031 0.0
C337 C 0.35461 0.04327 0.27668 0.0
C338 C 0.35914 0.03376 0.26881 0.0
C339 C 0.35409 0.03074 0.28051 0.0
C340 C 0.35277 0.03805 0.28184 0.0
C341 C 0.35727 0.0285 0.27398 0.0
C342 C 0.35785 0.04111 0.27017 0.0
C343 C 0.35297 0.05089 0.27827 0.0
O344 O 0.35727 0.07185 0.2842 0.0
O345 O 0.35015 0.07267 0.27475 0.0
O346 O 0.3507 0.05488 0.27284 0.0
O347 O 0.35763 0.05423 0.28246 0.0
H348 H 0.34052 0.06532 0.2828 0.0
H349 H 0.33052 0.0658 0.29139 0.0
H350 H 0.33878 0.08598 0.2998 0.0
H351 H 0.34864 0.08557 0.29097 0.0
H352 H 0.37548 0.08981 0.26597 0.0
H353 H 0.36778 0.07983 0.2701 0.0
H354 H 0.38909 0.07451 0.25471 0.0
H355 H 0.38129 0.06464 0.25874 0.0
H356 H 0.36164 0.03221 0.26375 0.0
H357 H 0.35247 0.02683 0.28455 0.0
H358 H 0.35025 0.03962 0.28688 0.0
H359 H 0.35934 0.04508 0.26613 0.0
C360 C 0.92724 0.34616 0.28601 0.0
C361 C 0.93255 0.34074 0.28628 0.0
C362 C 0.92623 0.33488 0.29622 0.0
C363 C 0.93202 0.33513 0.29131 0.0
C364 C 0.9209 0.34029 0.29589 0.0
C365 C 0.9214 0.34587 0.29082 0.0
U366 U 0.93926 0.35855 0.27512 0.0
O367 O 0.93805 0.36328 0.26427 0.0
O368 O 0.93912 0.37034 0.27374 0.0
C369 C 0.93781 0.36992 0.26677 0.0
C370 C 0.928 0.35233 0.28104 0.0
C371 C 0.93175 0.37436 0.26418 0.0
C372 C 0.91893 0.37719 0.26382 0.0
C373 C 0.92461 0.37277 0.26616 0.0
C374 C 0.92749 0.3848 0.25747 0.0
C375 C 0.9203 0.38328 0.25946 0.0
C376 C 0.93315 0.38038 0.25981 0.0
C377 C 0.95975 0.3548 0.27648 0.0
C378 C 0.96932 0.3592 0.26861 0.0
C379 C 0.97227 0.3541 0.28031 0.0
C380 C 0.96495 0.35288 0.28163 0.0
C381 C 0.97456 0.35726 0.27378 0.0
C382 C 0.96196 0.358 0.26996 0.0
C383 C 0.95211 0.35329 0.27806 0.0
O384 O 0.93119 0.35802 0.28384 0.0
O385 O 0.9303 0.35077 0.2745 0.0
O386 O 0.94811 0.351 0.27265 0.0
O387 O 0.94882 0.35805 0.28217 0.0
H388 H 0.93717 0.34091 0.28268 0.0
H389 H 0.93627 0.3311 0.2915 0.0
H390 H 0.91635 0.34021 0.29957 0.0
H391 H 0.91728 0.35003 0.29071 0.0
H392 H 0.91346 0.37581 0.26539 0.0
H393 H 0.92344 0.36813 0.26954 0.0
H394 H 0.92876 0.38949 0.25422 0.0
H395 H 0.93864 0.3817 0.25827 0.0
H396 H 0.97091 0.36168 0.26356 0.0
H397 H 0.97616 0.35244 0.28435 0.0
H398 H 0.96335 0.35038 0.28668 0.0
H399 H 0.95801 0.35956 0.26592 0.0
C400 C 0.65729 0.92801 0.28561 0.0
C401 C 0.66259 0.93343 0.28577 0.0
C402 C 0.66862 0.92743 0.29582 0.0
C403 C 0.66822 0.93312 0.29079 0.0
C404 C 0.66333 0.92196 0.29558 0.0
C405 C 0.65772 0.92226 0.29052 0.0
U406 U 0.64508 0.9394 0.27384 0.0
O407 O 0.64031 0.93741 0.26314 0.0
O408 O 0.63327 0.93933 0.27249 0.0
C409 C 0.63366 0.93749 0.26564 0.0
C410 C 0.65111 0.92853 0.28064 0.0
C411 C 0.62911 0.93135 0.26349 0.0
C412 C 0.62624 0.91853 0.26373 0.0
C413 C 0.63068 0.9243 0.2658 0.0
C414 C 0.61864 0.92682 0.25702 0.0
C415 C 0.62016 0.91973 0.2593 0.0
C416 C 0.62308 0.93257 0.25909 0.0
C417 C 0.64914 0.95986 0.27315 0.0
C418 C 0.64123 0.97033 0.27216 0.0
C419 C 0.65391 0.9714 0.26908 0.0
C420 C 0.65493 0.9641 0.27071 0.0
C421 C 0.64708 0.97464 0.26991 0.0
C422 C 0.64224 0.963 0.27374 0.0
C423 C 0.65057 0.95238 0.27552 0.0
O424 O 0.64552 0.93208 0.28319 0.0
O425 O 0.6527 0.93028 0.27393 0.0
O426 O 0.6528 0.94786 0.27051 0.0
O427 O 0.64587 0.9495 0.28 0.0
H428 H 0.66232 0.93795 0.28205 0.0
H429 H 0.67225 0.93737 0.29075 0.0
H430 H 0.6634 0.91755 0.29943 0.0
H431 H 0.65363 0.91806 0.29052 0.0
H432 H 0.62761 0.91313 0.26552 0.0
H433 H 0.63534 0.92326 0.2692 0.0
H434 H 0.61394 0.92796 0.25372 0.0
H435 H 0.62177 0.93799 0.25729 0.0
H436 H 0.63589 0.97265 0.27277 0.0
H437 H 0.65854 0.97459 0.26745 0.0
H438 H 0.66029 0.9618 0.27025 0.0
H439 H 0.63767 0.95984 0.27557 0.0
C440 C 0.07638 0.65714 0.28586 0.0
C441 C 0.07087 0.66232 0.28639 0.0
C442 C 0.07759 0.66868 0.29576 0.0
C443 C 0.07149 0.66806 0.29126 0.0
C444 C 0.08312 0.66349 0.29517 0.0
C445 C 0.08252 0.65777 0.29025 0.0
U446 U 0.06415 0.64469 0.27535 0.0
O447 O 0.06518 0.6397 0.2646 0.0
O448 O 0.06407 0.63286 0.27423 0.0
C449 C 0.06527 0.6331 0.26723 0.0
C450 C 0.07556 0.65086 0.28105 0.0
C451 C 0.07109 0.62838 0.26461 0.0
C452 C 0.0838 0.62512 0.2638 0.0
C453 C 0.07837 0.62985 0.26617 0.0
C454 C 0.07471 0.61748 0.25829 0.0
C455 C 0.08202 0.61885 0.25989 0.0
C456 C 0.06931 0.6222 0.26063 0.0
C457 C 0.04375 0.64875 0.27677 0.0
C458 C 0.03411 0.6441 0.26914 0.0
C459 C 0.03125 0.6497 0.28062 0.0
C460 C 0.03858 0.65092 0.28186 0.0
C461 C 0.02891 0.64629 0.27425 0.0
C462 C 0.04148 0.64529 0.27041 0.0
C463 C 0.05141 0.65021 0.27828 0.0
O464 O 0.07231 0.64528 0.28399 0.0
O465 O 0.07323 0.65231 0.27449 0.0
O466 O 0.0554 0.65232 0.27279 0.0
O467 O 0.05467 0.6455 0.28248 0.0
H468 H 0.06604 0.66187 0.28311 0.0
H469 H 0.06709 0.6719 0.29166 0.0
H470 H 0.08791 0.66384 0.29852 0.0
H471 H 0.08681 0.65379 0.28994 0.0
H472 H 0.08937 0.6263 0.26518 0.0
H473 H 0.07983 0.6346 0.26927 0.0
H474 H 0.07316 0.61276 0.25518 0.0
H475 H 0.06372 0.621 0.25937 0.0
H476 H 0.03248 0.64141 0.2642 0.0
H477 H 0.02739 0.65156 0.28461 0.0
H478 H 0.04023 0.65361 0.2868 0.0
H479 H 0.0454 0.64353 0.26643 0.0
C480 C 0.34654 0.92803 0.71763 0.0
C481 C 0.34081 0.93301 0.71777 0.0
C482 C 0.33529 0.92711 0.70737 0.0
C483 C 0.33522 0.93253 0.71271 0.0
C484 C 0.34101 0.9221 0.70731 0.0
C485 C 0.34657 0.92255 0.71241 0.0
U486 U 0.35839 0.93977 0.72948 0.0
O487 O 0.36331 0.93785 0.74013 0.0
O488 O 0.37021 0.9401 0.73075 0.0
C489 C 0.36994 0.93825 0.73759 0.0
C490 C 0.35269 0.92875 0.72264 0.0
C491 C 0.37485 0.93239 0.73975 0.0
C492 C 0.3781 0.91966 0.74031 0.0
C493 C 0.37326 0.92512 0.73826 0.0
C494 C 0.38612 0.9287 0.74535 0.0
C495 C 0.38461 0.9214 0.74385 0.0
C496 C 0.38129 0.93413 0.74332 0.0
C497 C 0.35384 0.96008 0.73024 0.0
C498 C 0.36172 0.97052 0.73162 0.0
C499 C 0.34889 0.97167 0.73396 0.0
C500 C 0.34794 0.96436 0.73232 0.0
C501 C 0.35577 0.97487 0.7335 0.0
C502 C 0.36077 0.96319 0.73003 0.0
C503 C 0.35253 0.95258 0.72787 0.0
O504 O 0.35817 0.93247 0.72009 0.0
O505 O 0.35105 0.93041 0.72935 0.0
O506 O 0.35047 0.948 0.73289 0.0
O507 O 0.35726 0.94984 0.72333 0.0
H508 H 0.34073 0.93734 0.7217 0.0
H509 H 0.33094 0.93652 0.71284 0.0
H510 H 0.34119 0.91783 0.7033 0.0
H511 H 0.35097 0.91868 0.7122 0.0
H512 H 0.3768 0.9141 0.73902 0.0
H513 H 0.36831 0.92369 0.73548 0.0
H514 H 0.39103 0.93022 0.74816 0.0
H515 H 0.38259 0.93971 0.74454 0.0
H516 H 0.36709 0.97281 0.7313 0.0
H517 H 0.34418 0.97488 0.73532 0.0
H518 H 0.34254 0.96208 0.7325 0.0
H519 H 0.36543 0.95999 0.72849 0.0
C520 C 0.07525 0.34612 0.71789 0.0
C521 C 0.06972 0.34095 0.71735 0.0
C522 C 0.0764 0.33462 0.70794 0.0
C523 C 0.0703 0.33524 0.71244 0.0
C524 C 0.08195 0.33979 0.70854 0.0
C525 C 0.08137 0.34548 0.71348 0.0
U526 U 0.06344 0.35822 0.7294 0.0
O527 O 0.06529 0.36324 0.74001 0.0
O528 O 0.06323 0.37005 0.73052 0.0
C529 C 0.06507 0.36984 0.73738 0.0
C530 C 0.07451 0.35234 0.72277 0.0
C531 C 0.07108 0.3746 0.73944 0.0
C532 C 0.08394 0.37714 0.74045 0.0
C533 C 0.07831 0.37246 0.73853 0.0
C534 C 0.07517 0.38614 0.74416 0.0
C535 C 0.08243 0.38405 0.74325 0.0
C536 C 0.06956 0.38145 0.74228 0.0
C537 C 0.04302 0.35375 0.73004 0.0
C538 C 0.03159 0.36019 0.72885 0.0
C539 C 0.03224 0.34939 0.7362 0.0
C540 C 0.0396 0.34873 0.73459 0.0
C541 C 0.02811 0.35504 0.73324 0.0
C542 C 0.03896 0.35955 0.72726 0.0
C543 C 0.05058 0.35246 0.72774 0.0
O544 O 0.07083 0.3578 0.7201 0.0
O545 O 0.07273 0.35079 0.72948 0.0
O546 O 0.05513 0.35038 0.73279 0.0
O547 O 0.0534 0.35712 0.72318 0.0
H548 H 0.0649 0.3414 0.72065 0.0
H549 H 0.06589 0.33141 0.71204 0.0
H550 H 0.08674 0.33942 0.7052 0.0
H551 H 0.08568 0.34944 0.71382 0.0
H552 H 0.08947 0.3754 0.73961 0.0
H553 H 0.07958 0.3672 0.7363 0.0
H554 H 0.07383 0.39138 0.74639 0.0
H555 H 0.06402 0.38318 0.74302 0.0
H556 H 0.02857 0.36456 0.7264 0.0
H557 H 0.02977 0.34539 0.73969 0.0
H558 H 0.04257 0.34419 0.73677 0.0
H559 H 0.0414 0.36349 0.72369 0.0
C560 C 0.65703 0.07534 0.7179 0.0
C561 C 0.66239 0.06999 0.71747 0.0
C562 C 0.66843 0.07666 0.70786 0.0
C563 C 0.66806 0.07066 0.71251 0.0
C564 C 0.66306 0.08202 0.70835 0.0
C565 C 0.65742 0.08137 0.71334 0.0
U566 U 0.64525 0.0633 0.7295 0.0
O567 O 0.64032 0.06502 0.74017 0.0
O568 O 0.63343 0.06287 0.73075 0.0
C569 C 0.63369 0.06465 0.73762 0.0
C570 C 0.65087 0.07449 0.72285 0.0
C571 C 0.62881 0.07051 0.73982 0.0
C572 C 0.62556 0.08324 0.74032 0.0
C573 C 0.63037 0.07777 0.73824 0.0
C574 C 0.61762 0.07424 0.74556 0.0
C575 C 0.61911 0.08153 0.74397 0.0
C576 C 0.62243 0.0688 0.7435 0.0
C577 C 0.64999 0.04303 0.73002 0.0
C578 C 0.6422 0.03252 0.73135 0.0
C579 C 0.65504 0.03146 0.73365 0.0
C580 C 0.65593 0.03878 0.73205 0.0
C581 C 0.64818 0.02821 0.73319 0.0
C582 C 0.64308 0.03987 0.72981 0.0
C583 C 0.65123 0.05056 0.72773 0.0
O584 O 0.64544 0.07074 0.72022 0.0
O585 O 0.6525 0.07272 0.72953 0.0
O586 O 0.65325 0.0551 0.7328 0.0
O587 O 0.64647 0.05332 0.72322 0.0
H588 H 0.66214 0.06524 0.72089 0.0
H589 H 0.67205 0.06638 0.7122 0.0
H590 H 0.66323 0.08674 0.70488 0.0
H591 H 0.6533 0.08553 0.71359 0.0
H592 H 0.62684 0.08879 0.73896 0.0
H593 H 0.63527 0.07918 0.73537 0.0
H594 H 0.61276 0.07275 0.74845 0.0
H595 H 0.62115 0.06322 0.74478 0.0
H596 H 0.63684 0.03019 0.73103 0.0
H597 H 0.65977 0.02827 0.73497 0.0
H598 H 0.6613 0.0411 0.73223 0.0
H599 H 0.6384 0.04304 0.7283 0.0
C600 C 0.92746 0.65834 0.71797 0.0
C601 C 0.93304 0.66345 0.71738 0.0
C602 C 0.92635 0.66984 0.70802 0.0
C603 C 0.93247 0.66917 0.71248 0.0
C604 C 0.92076 0.66473 0.70866 0.0
C605 C 0.92131 0.65903 0.71361 0.0
U606 U 0.93954 0.64573 0.7285 0.0
O607 O 0.9385 0.64093 0.73933 0.0
O608 O 0.93932 0.63392 0.7298 0.0
C609 C 0.9382 0.63429 0.7368 0.0
C610 C 0.92821 0.6521 0.72284 0.0
C611 C 0.93223 0.62982 0.73953 0.0
C612 C 0.91948 0.62669 0.74001 0.0
C613 C 0.92505 0.63116 0.73749 0.0
C614 C 0.92822 0.61958 0.74667 0.0
C615 C 0.92101 0.62083 0.74462 0.0
C616 C 0.93377 0.62403 0.74415 0.0
C617 C 0.96002 0.64933 0.72687 0.0
C618 C 0.96967 0.64494 0.73465 0.0
C619 C 0.97249 0.64984 0.72284 0.0
C620 C 0.96516 0.65111 0.72161 0.0
C621 C 0.97484 0.64677 0.72938 0.0
C622 C 0.9623 0.64619 0.73339 0.0
C623 C 0.95237 0.65092 0.72539 0.0
O624 O 0.93131 0.64641 0.71993 0.0
O625 O 0.93064 0.65356 0.72936 0.0
O626 O 0.94846 0.6532 0.73087 0.0
O627 O 0.94898 0.64621 0.72129 0.0
H628 H 0.93788 0.66296 0.72064 0.0
H629 H 0.93692 0.67296 0.71205 0.0
H630 H 0.91596 0.66513 0.70534 0.0
H631 H 0.91698 0.65511 0.71397 0.0
H632 H 0.91398 0.62786 0.73838 0.0
H633 H 0.92377 0.63562 0.73392 0.0
H634 H 0.92961 0.61505 0.75012 0.0
H635 H 0.93929 0.62291 0.74576 0.0
H636 H 0.97131 0.64252 0.73972 0.0
H637 H 0.97633 0.65142 0.71871 0.0
H638 H 0.9635 0.65356 0.71655 0.0
H639 H 0.9584 0.64473 0.73751 0.0
C640 C 0.28547 0.34582 0.07598 0.0
C641 C 0.28536 0.34044 0.07065 0.0
C642 C 0.29553 0.33435 0.07639 0.0
C643 C 0.29031 0.33474 0.07086 0.0
C644 C 0.29554 0.33972 0.08178 0.0
C645 C 0.29055 0.3454 0.08158 0.0
U646 U 0.27369 0.35793 0.06457 0.0
O647 O 0.26318 0.36308 0.06662 0.0
O648 O 0.27268 0.36978 0.0642 0.0
C649 C 0.26586 0.36965 0.06618 0.0
C650 C 0.28062 0.3521 0.07548 0.0
C651 C 0.2639 0.37463 0.07207 0.0
C652 C 0.26267 0.37748 0.08484 0.0
C653 C 0.26459 0.37263 0.07936 0.0
C654 C 0.25941 0.38638 0.0758 0.0
C655 C 0.26007 0.38443 0.08312 0.0
C656 C 0.26131 0.38152 0.07034 0.0
C657 C 0.2726 0.35306 0.04426 0.0
C658 C 0.27232 0.36022 0.03322 0.0
C659 C 0.26797 0.34788 0.03311 0.0
C660 C 0.26953 0.34726 0.04047 0.0
C661 C 0.2695 0.35431 0.02935 0.0
C662 C 0.27385 0.3596 0.04061 0.0
C663 C 0.27499 0.35192 0.05179 0.0
O664 O 0.2832 0.35754 0.07171 0.0
O665 O 0.27383 0.35064 0.07397 0.0
O666 O 0.26999 0.35001 0.05646 0.0
O667 O 0.27965 0.3566 0.05441 0.0
H668 H 0.2815 0.3407 0.06625 0.0
H669 H 0.29006 0.33065 0.06668 0.0
H670 H 0.29954 0.33965 0.08606 0.0
H671 H 0.29077 0.34955 0.0857 0.0
H672 H 0.2633 0.37585 0.09043 0.0
H673 H 0.26663 0.36733 0.0808 0.0
H674 H 0.25734 0.39163 0.07427 0.0
H675 H 0.26073 0.38314 0.06474 0.0
H676 H 0.27363 0.36523 0.0305 0.0
H677 H 0.26567 0.34327 0.03033 0.0
H678 H 0.26851 0.34216 0.04317 0.0
H679 H 0.2762 0.36418 0.04339 0.0
C680 C 0.28575 0.65816 0.92693 0.0
C681 C 0.28626 0.66338 0.93241 0.0
C682 C 0.29574 0.66962 0.92574 0.0
C683 C 0.29118 0.66908 0.9318 0.0
C684 C 0.29517 0.66439 0.92025 0.0
C685 C 0.29021 0.65871 0.92084 0.0
U686 U 0.27425 0.6464 0.93898 0.0
O687 O 0.26358 0.64141 0.93736 0.0
O688 O 0.27304 0.63458 0.93954 0.0
C689 C 0.26617 0.6348 0.93774 0.0
C690 C 0.28086 0.65195 0.92774 0.0
C691 C 0.26404 0.6299 0.93185 0.0
C692 C 0.26292 0.62706 0.91907 0.0
C693 C 0.26489 0.63187 0.92458 0.0
C694 C 0.25926 0.61828 0.92807 0.0
C695 C 0.26011 0.62019 0.92076 0.0
C696 C 0.2612 0.6231 0.93356 0.0
C697 C 0.27396 0.65158 0.95915 0.0
C698 C 0.2691 0.64416 0.96884 0.0
C699 C 0.27375 0.65612 0.97145 0.0
C700 C 0.27539 0.65708 0.96415 0.0
C701 C 0.27063 0.64964 0.97391 0.0
C702 C 0.27074 0.64513 0.96151 0.0
C703 C 0.27614 0.65262 0.95159 0.0
O704 O 0.28351 0.64655 0.93152 0.0
O705 O 0.27415 0.65355 0.92948 0.0
O706 O 0.271 0.6545 0.94707 0.0
O707 O 0.28054 0.64771 0.94895 0.0
H708 H 0.28291 0.663 0.9372 0.0
H709 H 0.29155 0.67296 0.93617 0.0
H710 H 0.29856 0.66469 0.91548 0.0
H711 H 0.28992 0.6547 0.91658 0.0
H712 H 0.26371 0.62867 0.9135 0.0
H713 H 0.26712 0.63709 0.92316 0.0
H714 H 0.25703 0.61308 0.92956 0.0
H715 H 0.2605 0.62149 0.93915 0.0
H716 H 0.26664 0.63913 0.97055 0.0
H717 H 0.27512 0.66041 0.97519 0.0
H718 H 0.2779 0.66208 0.96241 0.0
H719 H 0.26959 0.64083 0.95771 0.0
C720 C 0.34598 0.28647 0.9285 0.0
C721 C 0.34289 0.28914 0.9349 0.0
C722 C 0.33466 0.29667 0.92792 0.0
C723 C 0.3373 0.2942 0.93461 0.0
C724 C 0.33767 0.29387 0.92152 0.0
C725 C 0.34331 0.28882 0.92182 0.0
U726 U 0.35775 0.27438 0.9398 0.0
O727 O 0.36239 0.26361 0.93783 0.0
O728 O 0.36953 0.27282 0.94006 0.0
C729 C 0.36908 0.266 0.93813 0.0
C730 C 0.35203 0.28134 0.92887 0.0
C731 C 0.37385 0.26385 0.93215 0.0
C732 C 0.37647 0.26277 0.91931 0.0
C733 C 0.37175 0.26472 0.92491 0.0
C734 C 0.38541 0.2591 0.92816 0.0
C735 C 0.38338 0.25999 0.92088 0.0
C736 C 0.38068 0.26101 0.93373 0.0
C737 C 0.35302 0.27399 0.96012 0.0
C738 C 0.36054 0.26915 0.96975 0.0
C739 C 0.34849 0.27354 0.97241 0.0
C740 C 0.3475 0.27524 0.96514 0.0
C741 C 0.35504 0.27052 0.97483 0.0
C742 C 0.35953 0.27086 0.96244 0.0
C743 C 0.35191 0.27627 0.9526 0.0
O744 O 0.35769 0.2837 0.93245 0.0
O745 O 0.35025 0.27468 0.93056 0.0
O746 O 0.34978 0.27123 0.94807 0.0
O747 O 0.35689 0.28055 0.9499 0.0
H748 H 0.34485 0.28734 0.94011 0.0
H749 H 0.33502 0.29617 0.93963 0.0
H750 H 0.33579 0.29571 0.91629 0.0
H751 H 0.34563 0.28681 0.91683 0.0
H752 H 0.37477 0.26358 0.91377 0.0
H753 H 0.3665 0.26695 0.92359 0.0
H754 H 0.39065 0.25689 0.92955 0.0
H755 H 0.38239 0.2603 0.93929 0.0
H756 H 0.36562 0.26677 0.97142 0.0
H757 H 0.34419 0.27479 0.97618 0.0
H758 H 0.34245 0.27769 0.96344 0.0
H759 H 0.36385 0.26984 0.95862 0.0
C760 C 0.71715 0.34607 0.92784 0.0
C761 C 0.71681 0.34079 0.93328 0.0
C762 C 0.70719 0.33457 0.9268 0.0
C763 C 0.7119 0.33508 0.93275 0.0
C764 C 0.7076 0.33985 0.92134 0.0
C765 C 0.71255 0.34554 0.92186 0.0
U766 U 0.72871 0.35816 0.9396 0.0
O767 O 0.73928 0.36326 0.93771 0.0
O768 O 0.72976 0.37001 0.9399 0.0
C769 C 0.73662 0.36984 0.93804 0.0
C770 C 0.72202 0.35231 0.92856 0.0
C771 C 0.73869 0.37474 0.93214 0.0
C772 C 0.73975 0.37758 0.91935 0.0
C773 C 0.73775 0.37279 0.92486 0.0
C774 C 0.74358 0.3863 0.92834 0.0
C775 C 0.74266 0.38441 0.92103 0.0
C776 C 0.74162 0.3815 0.93383 0.0
C777 C 0.72953 0.35365 0.95992 0.0
C778 C 0.73082 0.36157 0.97033 0.0
C779 C 0.73335 0.34878 0.97151 0.0
C780 C 0.7317 0.34779 0.9642 0.0
C781 C 0.7328 0.35566 0.97469 0.0
C782 C 0.72923 0.36059 0.96301 0.0
C783 C 0.72718 0.35229 0.95242 0.0
O784 O 0.71936 0.35774 0.93227 0.0
O785 O 0.72875 0.35079 0.93027 0.0
O786 O 0.73224 0.35031 0.94785 0.0
O787 O 0.72257 0.35694 0.94967 0.0
H788 H 0.72027 0.34116 0.93799 0.0
H789 H 0.71165 0.33116 0.93709 0.0
H790 H 0.70409 0.33958 0.91666 0.0
H791 H 0.71272 0.34959 0.91763 0.0
H792 H 0.73891 0.376 0.91378 0.0
H793 H 0.73546 0.36759 0.92346 0.0
H794 H 0.74591 0.39146 0.92983 0.0
H795 H 0.74239 0.38308 0.93942 0.0
H796 H 0.73043 0.36695 0.97262 0.0
H797 H 0.73478 0.34411 0.97473 0.0
H798 H 0.73195 0.3424 0.96193 0.0
H799 H 0.72762 0.36521 0.9598 0.0
C800 C 0.65802 0.71727 0.92738 0.0
C801 C 0.66314 0.71697 0.93296 0.0
C802 C 0.66934 0.70704 0.92693 0.0
C803 C 0.66877 0.71194 0.93272 0.0
C804 C 0.66424 0.70744 0.92129 0.0
C805 C 0.65863 0.71251 0.92152 0.0
U806 U 0.64531 0.72805 0.93904 0.0
O807 O 0.64062 0.73892 0.93786 0.0
O808 O 0.63352 0.72945 0.93866 0.0
C809 C 0.63397 0.73645 0.93751 0.0
C810 C 0.6518 0.72221 0.92788 0.0
C811 C 0.62956 0.73922 0.93151 0.0
C812 C 0.62649 0.73972 0.91875 0.0
C813 C 0.63089 0.73713 0.92434 0.0
C814 C 0.61946 0.74653 0.92745 0.0
C815 C 0.62071 0.74445 0.92024 0.0
C816 C 0.62385 0.74395 0.93302 0.0
C817 C 0.64866 0.72656 0.95958 0.0
C818 C 0.64416 0.73443 0.9691 0.0
C819 C 0.6491 0.72268 0.97209 0.0
C820 C 0.65043 0.72137 0.96479 0.0
C821 C 0.64597 0.72922 0.97435 0.0
C822 C 0.64547 0.73309 0.96176 0.0
C823 C 0.65031 0.725 0.95196 0.0
O824 O 0.64602 0.71939 0.93091 0.0
O825 O 0.65326 0.72876 0.93023 0.0
O826 O 0.65269 0.73043 0.94803 0.0
O827 O 0.6456 0.72093 0.94856 0.0
H828 H 0.66274 0.72056 0.93757 0.0
H829 H 0.67265 0.71188 0.9371 0.0
H830 H 0.66445 0.70369 0.9168 0.0
H831 H 0.65468 0.71262 0.9172 0.0
H832 H 0.62764 0.73806 0.91326 0.0
H833 H 0.63529 0.73348 0.92309 0.0
H834 H 0.615 0.75006 0.92881 0.0
H835 H 0.62274 0.74558 0.93853 0.0
H836 H 0.64169 0.7395 0.97067 0.0
H837 H 0.65067 0.7186 0.976 0.0
H838 H 0.65292 0.71631 0.96321 0.0
H839 H 0.64402 0.73716 0.9578 0.0
C840 C 0.7174 0.65786 0.07556 0.0
C841 C 0.71721 0.66317 0.07015 0.0
C842 C 0.70707 0.66909 0.07612 0.0
C843 C 0.71213 0.66875 0.07044 0.0
C844 C 0.70734 0.66379 0.08158 0.0
C845 C 0.71246 0.65823 0.0813 0.0
U846 U 0.72927 0.64601 0.06401 0.0
O847 O 0.74008 0.6414 0.06581 0.0
O848 O 0.73084 0.63423 0.06384 0.0
C849 C 0.7377 0.63471 0.06563 0.0
C850 C 0.72244 0.65174 0.07503 0.0
C851 C 0.73999 0.63008 0.07167 0.0
C852 C 0.74001 0.62705 0.08446 0.0
C853 C 0.73783 0.63157 0.07879 0.0
C854 C 0.74651 0.61953 0.07593 0.0
C855 C 0.74437 0.62097 0.08309 0.0
C856 C 0.74434 0.62405 0.07029 0.0
C857 C 0.7295 0.65069 0.04368 0.0
C858 C 0.7343 0.64314 0.03406 0.0
C859 C 0.72984 0.65515 0.03136 0.0
C860 C 0.72818 0.65618 0.03865 0.0
C861 C 0.73287 0.64861 0.02896 0.0
C862 C 0.73264 0.64418 0.04138 0.0
C863 C 0.72726 0.65182 0.05122 0.0
O864 O 0.71996 0.64615 0.07141 0.0
O865 O 0.72913 0.65342 0.0733 0.0
O866 O 0.73233 0.65398 0.05571 0.0
O867 O 0.72301 0.64684 0.05396 0.0
H868 H 0.72095 0.66295 0.06565 0.0
H869 H 0.71216 0.67278 0.06621 0.0
H870 H 0.70348 0.66382 0.08597 0.0
H871 H 0.71249 0.65414 0.08549 0.0
H872 H 0.73832 0.62836 0.08991 0.0
H873 H 0.73447 0.63623 0.07995 0.0
H874 H 0.74977 0.61484 0.07466 0.0
H875 H 0.74602 0.62281 0.06482 0.0
H876 H 0.73669 0.63806 0.03241 0.0
H877 H 0.72855 0.65943 0.02758 0.0
H878 H 0.72573 0.66123 0.04033 0.0
H879 H 0.73371 0.63989 0.04522 0.0
C880 C 0.34524 0.71812 0.07539 0.0
C881 C 0.33992 0.71813 0.06999 0.0
C882 C 0.33363 0.70823 0.07598 0.0
C883 C 0.33415 0.71326 0.0703 0.0
C884 C 0.33894 0.70832 0.08144 0.0
C885 C 0.34469 0.71322 0.08114 0.0
U886 U 0.35759 0.72947 0.0638 0.0
O887 O 0.36279 0.73999 0.06561 0.0
O888 O 0.36944 0.73038 0.06357 0.0
C889 C 0.36934 0.73725 0.06539 0.0
C890 C 0.35157 0.7229 0.07482 0.0
C891 C 0.37417 0.73927 0.07136 0.0
C892 C 0.3767 0.74061 0.08419 0.0
C893 C 0.37196 0.73871 0.0786 0.0
C894 C 0.3859 0.74359 0.07536 0.0
C895 C 0.38374 0.74305 0.08263 0.0
C896 C 0.38116 0.74172 0.06979 0.0
C897 C 0.35305 0.72996 0.04348 0.0
C898 C 0.36116 0.73368 0.03385 0.0
C899 C 0.34868 0.73079 0.03114 0.0
C900 C 0.34744 0.72934 0.03844 0.0
C901 C 0.35558 0.73288 0.02873 0.0
C902 C 0.3599 0.73224 0.04117 0.0
C903 C 0.35169 0.72779 0.051 0.0
O904 O 0.35702 0.72017 0.07119 0.0
O905 O 0.35018 0.72966 0.0731 0.0
O906 O 0.34981 0.73297 0.05548 0.0
O907 O 0.35638 0.72323 0.05378 0.0
H908 H 0.34027 0.72184 0.06547 0.0
H909 H 0.33012 0.71343 0.06606 0.0
H910 H 0.33877 0.70447 0.08584 0.0
H911 H 0.34879 0.7131 0.08532 0.0
H912 H 0.3749 0.74006 0.08973 0.0
H913 H 0.3666 0.73677 0.07992 0.0
H914 H 0.39124 0.74554 0.07397 0.0
H915 H 0.38295 0.7422 0.06423 0.0
H916 H 0.36652 0.73536 0.03218 0.0
H917 H 0.34429 0.73001 0.02736 0.0
H918 H 0.34212 0.72755 0.04013 0.0
H919 H 0.3643 0.73277 0.045 0.0
C920 C 0.65768 0.28544 0.07611 0.0
C921 C 0.6631 0.28587 0.07082 0.0
C922 C 0.66891 0.29566 0.07741 0.0
C923 C 0.66868 0.29091 0.07148 0.0
C924 C 0.66347 0.2952 0.0827 0.0
C925 C 0.65791 0.29011 0.08206 0.0
U926 U 0.6462 0.27376 0.06395 0.0
O927 O 0.64171 0.26284 0.06539 0.0
O928 O 0.63445 0.27204 0.06353 0.0
C929 C 0.63499 0.26514 0.06515 0.0
C930 C 0.65162 0.28036 0.07526 0.0
C931 C 0.63029 0.26263 0.07104 0.0
C932 C 0.62679 0.26253 0.0837 0.0
C933 C 0.63138 0.26493 0.07818 0.0
C934 C 0.62001 0.2555 0.07497 0.0
C935 C 0.62104 0.25778 0.08216 0.0
C936 C 0.6246 0.2579 0.06947 0.0
C937 C 0.65124 0.27402 0.04374 0.0
C938 C 0.644 0.26895 0.03402 0.0
C939 C 0.65574 0.27414 0.03143 0.0
C940 C 0.65665 0.27574 0.03875 0.0
C941 C 0.64939 0.27076 0.02896 0.0
C942 C 0.64492 0.27055 0.04136 0.0
C943 C 0.65223 0.27613 0.05133 0.0
O944 O 0.6461 0.28289 0.07158 0.0
O945 O 0.65342 0.27374 0.0734 0.0
O946 O 0.65437 0.271 0.05575 0.0
O947 O 0.64715 0.28026 0.05407 0.0
H948 H 0.66296 0.28236 0.06613 0.0
H949 H 0.67272 0.2912 0.06726 0.0
H950 H 0.66353 0.29875 0.08735 0.0
H951 H 0.65375 0.28987 0.08617 0.0
H952 H 0.62778 0.26434 0.08917 0.0
H953 H 0.63577 0.26858 0.07948 0.0
H954 H 0.61558 0.25194 0.07356 0.0
H955 H 0.62367 0.2561 0.06398 0.0
H956 H 0.63908 0.26629 0.0323 0.0
H957 H 0.65995 0.27572 0.02768 0.0
H958 H 0.66154 0.27844 0.04049 0.0
H959 H 0.64069 0.26917 0.04516 0.0
C960 C 0.92833 0.71799 0.65739 0.0
C961 C 0.93455 0.71475 0.66028 0.0
C962 C 0.92724 0.70832 0.66915 0.0
C963 C 0.93401 0.70994 0.66608 0.0
C964 C 0.92104 0.71168 0.66629 0.0
C965 C 0.92158 0.71646 0.66046 0.0
U966 U 0.93982 0.72952 0.64506 0.0
O967 O 0.93997 0.73052 0.63321 0.0
O968 O 0.93782 0.74006 0.63995 0.0
C969 C 0.93806 0.73736 0.63338 0.0
C970 C 0.92888 0.72286 0.65114 0.0
C971 C 0.93207 0.73935 0.62853 0.0
C972 C 0.91927 0.74108 0.6261 0.0
C973 C 0.92485 0.73922 0.63087 0.0
C974 C 0.92807 0.74315 0.61663 0.0
C975 C 0.92082 0.74303 0.61891 0.0
C976 C 0.93363 0.74133 0.6214 0.0
C977 C 0.96023 0.73029 0.64943 0.0
C978 C 0.97079 0.73124 0.64164 0.0
C979 C 0.97175 0.73426 0.65434 0.0
C980 C 0.96443 0.73268 0.65527 0.0
C981 C 0.97505 0.73344 0.64754 0.0
C982 C 0.96344 0.7297 0.64257 0.0
C983 C 0.95272 0.72798 0.65078 0.0
O984 O 0.93065 0.72957 0.65265 0.0
O985 O 0.93246 0.72023 0.64559 0.0
O986 O 0.94992 0.72338 0.64615 0.0
O987 O 0.94818 0.73306 0.65279 0.0
H988 H 0.93982 0.71588 0.65798 0.0
H989 H 0.9389 0.70739 0.66805 0.0
H990 H 0.91575 0.71065 0.66859 0.0
H991 H 0.91673 0.71895 0.65832 0.0
H992 H 0.91374 0.74089 0.628 0.0
H993 H 0.92354 0.73765 0.63636 0.0
H994 H 0.92946 0.74472 0.61117 0.0
H995 H 0.93917 0.74146 0.61951 0.0
H996 H 0.97315 0.73063 0.63632 0.0
H997 H 0.9749 0.73586 0.65901 0.0
H998 H 0.96208 0.73314 0.66061 0.0
H999 H 0.96031 0.72791 0.63795 0.0
C1000 C 0.28684 0.92866 0.65703 0.0
C1001 C 0.29025 0.93498 0.65947 0.0
C1002 C 0.29696 0.92806 0.66842 0.0
C1003 C 0.29529 0.93468 0.66509 0.0
C1004 C 0.2934 0.92176 0.66607 0.0
C1005 C 0.2884 0.92206 0.6604 0.0
U1006 U 0.27466 0.93968 0.64495 0.0
O1007 O 0.27329 0.93973 0.63314 0.0
O1008 O 0.26401 0.93743 0.64017 0.0
C1009 C 0.26648 0.93774 0.63352 0.0
C1010 C 0.28173 0.92896 0.65094 0.0
C1011 C 0.26439 0.93178 0.62868 0.0
C1012 C 0.2628 0.91898 0.6261 0.0
C1013 C 0.26479 0.92452 0.63088 0.0
C1014 C 0.26006 0.92791 0.61692 0.0
C1015 C 0.26044 0.92062 0.61905 0.0
C1016 C 0.26201 0.93342 0.62169 0.0
C1017 C 0.2737 0.96013 0.64915 0.0
C1018 C 0.27254 0.97067 0.64137 0.0
C1019 C 0.26959 0.97159 0.65408 0.0
C1020 C 0.27127 0.96429 0.655 0.0
C1021 C 0.27033 0.9749 0.64728 0.0
C1022 C 0.27419 0.96334 0.64228 0.0
C1023 C 0.27615 0.95266 0.65049 0.0
O1024 O 0.27503 0.9306 0.65265 0.0
O1025 O 0.28409 0.93248 0.64523 0.0
O1026 O 0.28066 0.94988 0.64575 0.0
O1027 O 0.27121 0.94806 0.6527 0.0
H1028 H 0.28906 0.94015 0.65698 0.0
H1029 H 0.29785 0.93964 0.66684 0.0
H1030 H 0.29462 0.91657 0.6685 0.0
H1031 H 0.2858 0.91713 0.6586 0.0
H1032 H 0.26321 0.91342 0.62789 0.0
H1033 H 0.26666 0.92315 0.63625 0.0
H1034 H 0.25817 0.92936 0.61158 0.0
H1035 H 0.26166 0.93899 0.61991 0.0
H1036 H 0.27309 0.97305 0.63605 0.0
H1037 H 0.26798 0.97471 0.65877 0.0
H1038 H 0.27089 0.96193 0.66035 0.0
H1039 H 0.27601 0.96025 0.63766 0.0
C1040 C 0.07533 0.2862 0.65754 0.0
C1041 C 0.06908 0.28956 0.66021 0.0
C1042 C 0.07623 0.29604 0.66917 0.0
C1043 C 0.06952 0.29444 0.66595 0.0
C1044 C 0.08248 0.29259 0.66651 0.0
C1045 C 0.08203 0.28772 0.66074 0.0
U1046 U 0.06372 0.27511 0.64505 0.0
O1047 O 0.06405 0.27347 0.6333 0.0
O1048 O 0.06511 0.26415 0.64057 0.0
C1049 C 0.06543 0.26653 0.63388 0.0
C1050 C 0.07484 0.28113 0.65145 0.0
C1051 C 0.0715 0.26384 0.62949 0.0
C1052 C 0.08344 0.26538 0.62421 0.0
C1053 C 0.07793 0.2678 0.62881 0.0
C1054 C 0.07624 0.25489 0.62114 0.0
C1055 C 0.08262 0.25894 0.62024 0.0
C1056 C 0.07074 0.25733 0.62571 0.0
C1057 C 0.04315 0.27652 0.64842 0.0
C1058 C 0.03359 0.26847 0.64434 0.0
C1059 C 0.03063 0.28041 0.64885 0.0
C1060 C 0.03795 0.28178 0.65004 0.0
C1061 C 0.02835 0.27373 0.64602 0.0
C1062 C 0.04094 0.26987 0.6455 0.0
C1063 C 0.05078 0.27813 0.64999 0.0
O1064 O 0.07247 0.27464 0.65311 0.0
O1065 O 0.07182 0.28378 0.64559 0.0
O1066 O 0.05414 0.28215 0.64521 0.0
O1067 O 0.05473 0.27277 0.65245 0.0
H1068 H 0.06386 0.28843 0.65781 0.0
H1069 H 0.06462 0.29706 0.66777 0.0
H1070 H 0.08771 0.29362 0.66892 0.0
H1071 H 0.0869 0.28514 0.65877 0.0
H1072 H 0.08824 0.26867 0.62361 0.0
H1073 H 0.07864 0.27284 0.63171 0.0
H1074 H 0.07547 0.24983 0.61829 0.0
H1075 H 0.06583 0.25417 0.62621 0.0
H1076 H 0.032 0.2633 0.6421 0.0
H1077 H 0.02674 0.28453 0.65032 0.0
H1078 H 0.03955 0.28693 0.65231 0.0
H1079 H 0.04489 0.26575 0.64418 0.0
C1080 C 0.71686 0.07582 0.65746 0.0
C1081 C 0.71373 0.06954 0.66033 0.0
C1082 C 0.70691 0.07675 0.66899 0.0
C1083 C 0.70879 0.07 0.66602 0.0
C1084 C 0.71011 0.08303 0.66611 0.0
C1085 C 0.71504 0.08256 0.66038 0.0
U1086 U 0.7287 0.06414 0.64579 0.0
O1087 O 0.73057 0.06395 0.63406 0.0
O1088 O 0.73967 0.06571 0.64147 0.0
C1089 C 0.73746 0.06557 0.63472 0.0
C1090 C 0.72203 0.07529 0.65145 0.0
C1091 C 0.74001 0.07152 0.63012 0.0
C1092 C 0.7402 0.08423 0.62681 0.0
C1093 C 0.7378 0.07867 0.63135 0.0
C1094 C 0.74705 0.07554 0.61982 0.0
C1095 C 0.74486 0.08273 0.62098 0.0
C1096 C 0.74465 0.07 0.62435 0.0
C1097 C 0.72836 0.04381 0.65051 0.0
C1098 C 0.73334 0.03408 0.64323 0.0
C1099 C 0.7284 0.03153 0.65509 0.0
C1100 C 0.72676 0.03884 0.65598 0.0
C1101 C 0.73167 0.02904 0.6487 0.0
C1102 C 0.73171 0.04142 0.64414 0.0
C1103 C 0.72625 0.0514 0.65154 0.0
O1104 O 0.72861 0.07336 0.65331 0.0
O1105 O 0.71963 0.07181 0.64574 0.0
O1106 O 0.7222 0.05422 0.64643 0.0
O1107 O 0.73135 0.05577 0.65383 0.0
H1108 H 0.71508 0.06428 0.65814 0.0
H1109 H 0.70636 0.06506 0.66801 0.0
H1110 H 0.70887 0.0883 0.66832 0.0
H1111 H 0.71745 0.08746 0.65825 0.0
H1112 H 0.73846 0.08971 0.62791 0.0
H1113 H 0.73421 0.07993 0.6358 0.0
H1114 H 0.75053 0.07417 0.61531 0.0
H1115 H 0.74638 0.0645 0.6233 0.0
H1116 H 0.73592 0.03235 0.63827 0.0
H1117 H 0.72692 0.02781 0.65935 0.0
H1118 H 0.72415 0.0406 0.66092 0.0
H1119 H 0.73299 0.04521 0.63986 0.0
C1120 C 0.92844 0.28635 0.34641 0.0
C1121 C 0.93458 0.2903 0.34435 0.0
C1122 C 0.92757 0.29661 0.33518 0.0
C1123 C 0.93414 0.29541 0.3388 0.0
C1124 C 0.92147 0.29254 0.33717 0.0
C1125 C 0.9219 0.28746 0.34277 0.0
U1126 U 0.93965 0.27414 0.35836 0.0
O1127 O 0.93941 0.27232 0.3701 0.0
O1128 O 0.93758 0.26325 0.36268 0.0
C1129 C 0.93757 0.2655 0.36942 0.0
C1130 C 0.92885 0.28109 0.35237 0.0
C1131 C 0.93137 0.2632 0.37382 0.0
C1132 C 0.91855 0.26353 0.37666 0.0
C1133 C 0.92435 0.26564 0.37229 0.0
C1134 C 0.92673 0.25649 0.38408 0.0
C1135 C 0.91967 0.25893 0.38263 0.0
C1136 C 0.93251 0.2586 0.37971 0.0
C1137 C 0.9602 0.27372 0.35458 0.0
C1138 C 0.97081 0.27294 0.36232 0.0
C1139 C 0.97162 0.26935 0.34976 0.0
C1140 C 0.96432 0.27101 0.34882 0.0
C1141 C 0.97499 0.27042 0.35649 0.0
C1142 C 0.96348 0.27455 0.36138 0.0
C1143 C 0.95271 0.2761 0.35318 0.0
O1144 O 0.93073 0.2745 0.35048 0.0
O1145 O 0.93221 0.28339 0.35819 0.0
O1146 O 0.94974 0.28038 0.35802 0.0
O1147 O 0.94825 0.27117 0.35067 0.0
H1148 H 0.93971 0.28945 0.34705 0.0
H1149 H 0.93896 0.29838 0.33732 0.0
H1150 H 0.91632 0.29338 0.3345 0.0
H1151 H 0.91712 0.28444 0.34428 0.0
H1152 H 0.91318 0.26545 0.37534 0.0
H1153 H 0.92338 0.26921 0.36775 0.0
H1154 H 0.92781 0.25304 0.38869 0.0
H1155 H 0.9379 0.2567 0.38099 0.0
H1156 H 0.97324 0.27375 0.36758 0.0
H1157 H 0.9747 0.26751 0.34514 0.0
H1158 H 0.96192 0.27036 0.34351 0.0
H1159 H 0.96044 0.27661 0.36594 0.0
C1160 C 0.71684 0.9279 0.34654 0.0
C1161 C 0.71396 0.9343 0.34368 0.0
C1162 C 0.70657 0.92738 0.33529 0.0
C1163 C 0.70886 0.93405 0.33813 0.0
C1164 C 0.70956 0.92097 0.33808 0.0
C1165 C 0.71465 0.92123 0.34368 0.0
U1166 U 0.72912 0.93913 0.35816 0.0
O1167 O 0.73104 0.93922 0.36989 0.0
O1168 O 0.74005 0.9372 0.36244 0.0
C1169 C 0.73786 0.93736 0.3692 0.0
C1170 C 0.72209 0.92822 0.35249 0.0
C1171 C 0.74019 0.93127 0.37374 0.0
C1172 C 0.7401 0.91847 0.37672 0.0
C1173 C 0.73796 0.92418 0.37223 0.0
C1174 C 0.74673 0.9269 0.38423 0.0
C1175 C 0.74451 0.91977 0.38279 0.0
C1176 C 0.74459 0.93259 0.37975 0.0
C1177 C 0.72924 0.95951 0.35351 0.0
C1178 C 0.73437 0.96917 0.36078 0.0
C1179 C 0.72944 0.97179 0.34893 0.0
C1180 C 0.72772 0.9645 0.34804 0.0
C1181 C 0.73275 0.97423 0.35533 0.0
C1182 C 0.73264 0.96185 0.35987 0.0
C1183 C 0.72699 0.95197 0.35249 0.0
O1184 O 0.7287 0.92997 0.35058 0.0
O1185 O 0.71985 0.93172 0.35825 0.0
O1186 O 0.72289 0.94922 0.3576 0.0
O1187 O 0.73198 0.94748 0.35017 0.0
H1188 H 0.71563 0.93951 0.34578 0.0
H1189 H 0.70674 0.93908 0.33602 0.0
H1190 H 0.70787 0.91576 0.33603 0.0
H1191 H 0.71684 0.91624 0.34582 0.0
H1192 H 0.73836 0.91305 0.3754 0.0
H1193 H 0.73455 0.92307 0.3676 0.0
H1194 H 0.75002 0.92812 0.38892 0.0
H1195 H 0.74632 0.93804 0.38101 0.0
H1196 H 0.73697 0.97086 0.36574 0.0
H1197 H 0.728 0.97554 0.34468 0.0
H1198 H 0.72507 0.96278 0.34311 0.0
H1199 H 0.73387 0.95804 0.36415 0.0
C1200 C 0.07573 0.71702 0.34621 0.0
C1201 C 0.06951 0.7138 0.34332 0.0
C1202 C 0.07681 0.70727 0.33451 0.0
C1203 C 0.07004 0.70895 0.33756 0.0
C1204 C 0.08303 0.71061 0.33737 0.0
C1205 C 0.08249 0.71544 0.34317 0.0
U1206 U 0.06424 0.72866 0.35843 0.0
O1207 O 0.06414 0.72984 0.37026 0.0
O1208 O 0.0662 0.73928 0.36337 0.0
C1209 C 0.06601 0.73669 0.36999 0.0
C1210 C 0.07519 0.72196 0.35241 0.0
C1211 C 0.07204 0.73877 0.37473 0.0
C1212 C 0.0849 0.7401 0.37713 0.0
C1213 C 0.07926 0.73815 0.37247 0.0
C1214 C 0.07615 0.74324 0.38636 0.0
C1215 C 0.0834 0.74264 0.38415 0.0
C1216 C 0.07053 0.74133 0.38169 0.0
C1217 C 0.04382 0.72932 0.35407 0.0
C1218 C 0.03321 0.73027 0.36179 0.0
C1219 C 0.03234 0.73335 0.3491 0.0
C1220 C 0.03967 0.73176 0.34821 0.0
C1221 C 0.029 0.73251 0.35587 0.0
C1222 C 0.04056 0.72871 0.36091 0.0
C1223 C 0.05134 0.72701 0.35276 0.0
O1224 O 0.0734 0.72865 0.35082 0.0
O1225 O 0.07164 0.71938 0.35799 0.0
O1226 O 0.05416 0.72248 0.35746 0.0
O1227 O 0.05587 0.73206 0.35066 0.0
H1228 H 0.06424 0.71497 0.34559 0.0
H1229 H 0.06515 0.70641 0.33558 0.0
H1230 H 0.08831 0.70953 0.3351 0.0
H1231 H 0.08734 0.71791 0.34531 0.0
H1232 H 0.09042 0.7395 0.3753 0.0
H1233 H 0.08053 0.73613 0.36712 0.0
H1234 H 0.07481 0.74527 0.39169 0.0
H1235 H 0.06499 0.74185 0.38352 0.0
H1236 H 0.0308 0.72964 0.36709 0.0
H1237 H 0.02924 0.73498 0.34442 0.0
H1238 H 0.04206 0.73223 0.34289 0.0
H1239 H 0.04365 0.72688 0.36554 0.0
C1240 C 0.28552 0.07483 0.34694 0.0
C1241 C 0.28851 0.06844 0.34418 0.0
C1242 C 0.29571 0.07537 0.33562 0.0
C1243 C 0.29358 0.0687 0.33859 0.0
C1244 C 0.29258 0.08176 0.33832 0.0
C1245 C 0.28754 0.08149 0.34395 0.0
U1246 U 0.27349 0.06375 0.35911 0.0
O1247 O 0.27183 0.06403 0.37087 0.0
O1248 O 0.26265 0.06581 0.36356 0.0
C1249 C 0.26498 0.06582 0.37028 0.0
C1250 C 0.28036 0.07453 0.35298 0.0
C1251 C 0.26266 0.07198 0.37473 0.0
C1252 C 0.26287 0.08478 0.37766 0.0
C1253 C 0.26503 0.07903 0.37324 0.0
C1254 C 0.25594 0.07649 0.38505 0.0
C1255 C 0.2583 0.08358 0.38363 0.0
C1256 C 0.2581 0.07075 0.38064 0.0
C1257 C 0.27309 0.04319 0.35534 0.0
C1258 C 0.27242 0.0326 0.36311 0.0
C1259 C 0.26885 0.03171 0.35055 0.0
C1260 C 0.27043 0.03903 0.34959 0.0
C1261 C 0.26995 0.02837 0.35729 0.0
C1262 C 0.27395 0.03994 0.36216 0.0
C1263 C 0.27541 0.05069 0.35392 0.0
O1264 O 0.27373 0.07267 0.35122 0.0
O1265 O 0.28274 0.07119 0.35877 0.0
O1266 O 0.27974 0.05368 0.3587 0.0
O1267 O 0.27043 0.05513 0.35147 0.0
H1268 H 0.28697 0.06324 0.34639 0.0
H1269 H 0.2958 0.06368 0.33656 0.0
H1270 H 0.29415 0.08698 0.33618 0.0
H1271 H 0.28526 0.08647 0.34602 0.0
H1272 H 0.26472 0.09018 0.37636 0.0
H1273 H 0.26856 0.08006 0.36868 0.0
H1274 H 0.25253 0.07533 0.38966 0.0
H1275 H 0.25626 0.06533 0.38188 0.0
H1276 H 0.27325 0.0302 0.36839 0.0
H1277 H 0.26705 0.02859 0.34594 0.0
H1278 H 0.26976 0.0414 0.34428 0.0
H1279 H 0.27596 0.04302 0.36671 0.0
C1280 C 0.65701 0.92697 0.71716 0.0
C1281 C 0.66233 0.93237 0.71682 0.0
C1282 C 0.66849 0.92585 0.70719 0.0
C1283 C 0.66803 0.9318 0.71191 0.0
C1284 C 0.66316 0.92044 0.70759 0.0
C1285 C 0.65747 0.92099 0.71254 0.0
U1286 U 0.64542 0.939 0.72881 0.0
O1287 O 0.63361 0.93971 0.73009 0.0
O1288 O 0.64047 0.93738 0.73949 0.0
C1289 C 0.63385 0.93787 0.73694 0.0
C1290 C 0.6508 0.92776 0.72207 0.0
C1291 C 0.62887 0.93206 0.73909 0.0
C1292 C 0.62566 0.91934 0.73985 0.0
C1293 C 0.63053 0.92477 0.73782 0.0
C1294 C 0.61744 0.92846 0.74442 0.0
C1295 C 0.61903 0.92113 0.74315 0.0
C1296 C 0.62231 0.93386 0.74241 0.0
C1297 C 0.65102 0.9591 0.72917 0.0
C1298 C 0.64405 0.9689 0.73446 0.0
C1299 C 0.65573 0.97133 0.72907 0.0
C1300 C 0.65648 0.96401 0.72739 0.0
C1301 C 0.64949 0.97388 0.73259 0.0
C1302 C 0.64481 0.96155 0.73277 0.0
C1303 C 0.65185 0.95152 0.72696 0.0
O1304 O 0.65242 0.9294 0.72879 0.0
O1305 O 0.64544 0.93163 0.71948 0.0
O1306 O 0.64684 0.94902 0.72259 0.0
O1307 O 0.65366 0.94694 0.73208 0.0
H1308 H 0.66201 0.93708 0.72029 0.0
H1309 H 0.67198 0.93611 0.71167 0.0
H1310 H 0.6634 0.91576 0.70407 0.0
H1311 H 0.65339 0.9168 0.71271 0.0
H1312 H 0.62702 0.91376 0.73874 0.0
H1313 H 0.63556 0.92329 0.73522 0.0
H1314 H 0.61244 0.93002 0.74704 0.0
H1315 H 0.62095 0.93947 0.74344 0.0
H1316 H 0.6392 0.97068 0.73722 0.0
H1317 H 0.65997 0.97501 0.72743 0.0
H1318 H 0.66129 0.96221 0.72458 0.0
H1319 H 0.64053 0.95781 0.73419 0.0
C1320 C 0.07574 0.65734 0.71706 0.0
C1321 C 0.06957 0.65956 0.71324 0.0
C1322 C 0.07672 0.66839 0.7066 0.0
C1323 C 0.07007 0.665 0.70803 0.0
C1324 C 0.08286 0.66624 0.71054 0.0
C1325 C 0.08237 0.66074 0.71572 0.0
U1326 U 0.06418 0.64587 0.72931 0.0
O1327 O 0.06418 0.63418 0.73145 0.0
O1328 O 0.06591 0.64182 0.74036 0.0
C1329 C 0.06584 0.63502 0.7383 0.0
C1330 C 0.07522 0.65152 0.72245 0.0
C1331 C 0.07187 0.63055 0.74091 0.0
C1332 C 0.08459 0.62726 0.74091 0.0
C1333 C 0.07896 0.63171 0.73849 0.0
C1334 C 0.07608 0.62049 0.7482 0.0
C1335 C 0.08321 0.62158 0.74579 0.0
C1336 C 0.07047 0.62494 0.74578 0.0
C1337 C 0.04376 0.65005 0.72898 0.0
C1338 C 0.03396 0.64214 0.73274 0.0
C1339 C 0.03153 0.6547 0.72994 0.0
C1340 C 0.03884 0.65578 0.72844 0.0
C1341 C 0.02897 0.64785 0.73202 0.0
C1342 C 0.0413 0.64324 0.73125 0.0
C1343 C 0.0513 0.65127 0.72681 0.0
O1344 O 0.07325 0.65358 0.72896 0.0
O1345 O 0.07185 0.64567 0.72024 0.0
O1346 O 0.05426 0.64619 0.72281 0.0
O1347 O 0.05564 0.65378 0.73184 0.0
H1348 H 0.06438 0.65705 0.71426 0.0
H1349 H 0.06522 0.66661 0.70517 0.0
H1350 H 0.08806 0.66871 0.70953 0.0
H1351 H 0.08717 0.65911 0.71864 0.0
H1352 H 0.09003 0.6283 0.739 0.0
H1353 H 0.08013 0.63604 0.73472 0.0
H1354 H 0.07479 0.61611 0.75185 0.0
H1355 H 0.06502 0.62394 0.74767 0.0
H1356 H 0.03217 0.63682 0.7344 0.0
H1357 H 0.02784 0.65919 0.72922 0.0
H1358 H 0.04064 0.66107 0.72667 0.0
H1359 H 0.04503 0.63875 0.73174 0.0
C1360 C 0.34656 0.0759 0.71723 0.0
C1361 C 0.34347 0.06967 0.71423 0.0
C1362 C 0.33497 0.07702 0.70737 0.0
C1363 C 0.33775 0.07021 0.70933 0.0
C1364 C 0.33806 0.08326 0.71045 0.0
C1365 C 0.34381 0.0827 0.71534 0.0
U1366 U 0.35819 0.06416 0.7291 0.0
O1367 O 0.36997 0.06373 0.73064 0.0
O1368 O 0.36286 0.0659 0.73989 0.0
C1369 C 0.36955 0.06559 0.73748 0.0
C1370 C 0.35265 0.07529 0.7223 0.0
C1371 C 0.37432 0.07155 0.73968 0.0
C1372 C 0.37692 0.08438 0.74088 0.0
C1373 C 0.37222 0.0788 0.73888 0.0
C1374 C 0.38589 0.07553 0.74445 0.0
C1375 C 0.38383 0.0828 0.74364 0.0
C1376 C 0.38117 0.06996 0.74249 0.0
C1377 C 0.353 0.04392 0.72926 0.0
C1378 C 0.36002 0.03417 0.73458 0.0
C1379 C 0.34834 0.03168 0.7292 0.0
C1380 C 0.34756 0.03898 0.7275 0.0
C1381 C 0.35459 0.02916 0.73274 0.0
C1382 C 0.35923 0.04151 0.73286 0.0
C1383 C 0.35211 0.0515 0.72707 0.0
O1384 O 0.35087 0.07354 0.72895 0.0
O1385 O 0.35821 0.07162 0.71986 0.0
O1386 O 0.35717 0.05413 0.72283 0.0
O1387 O 0.35007 0.05602 0.73215 0.0
H1388 H 0.34552 0.06437 0.71564 0.0
H1389 H 0.3356 0.0653 0.707 0.0
H1390 H 0.336 0.08857 0.70914 0.0
H1391 H 0.34612 0.08757 0.71764 0.0
H1392 H 0.37521 0.08993 0.74012 0.0
H1393 H 0.36696 0.08013 0.73667 0.0
H1394 H 0.39113 0.07413 0.74664 0.0
H1395 H 0.38288 0.0644 0.74314 0.0
H1396 H 0.36487 0.03242 0.73735 0.0
H1397 H 0.34411 0.02797 0.72758 0.0
H1398 H 0.34274 0.04075 0.72468 0.0
H1399 H 0.36348 0.04528 0.73427 0.0
C1400 C 0.92746 0.34627 0.71647 0.0
C1401 C 0.93385 0.34306 0.71396 0.0
C1402 C 0.92689 0.33482 0.70642 0.0
C1403 C 0.93357 0.3374 0.70897 0.0
C1404 C 0.92049 0.33797 0.70906 0.0
C1405 C 0.92078 0.34367 0.71404 0.0
U1406 U 0.93868 0.35805 0.72865 0.0
O1407 O 0.93906 0.36986 0.73004 0.0
O1408 O 0.93654 0.36288 0.7393 0.0
C1409 C 0.937 0.36952 0.73683 0.0
C1410 C 0.92782 0.35239 0.72152 0.0
C1411 C 0.93108 0.37444 0.73884 0.0
C1412 C 0.9183 0.37713 0.74038 0.0
C1413 C 0.92381 0.3723 0.73847 0.0
C1414 C 0.92728 0.3863 0.74298 0.0
C1415 C 0.91998 0.3842 0.74263 0.0
C1416 C 0.93276 0.38146 0.74111 0.0
C1417 C 0.95893 0.35304 0.72965 0.0
C1418 C 0.96913 0.36072 0.73277 0.0
C1419 C 0.97071 0.34775 0.73197 0.0
C1420 C 0.96342 0.34697 0.73022 0.0
C1421 C 0.97369 0.35464 0.73317 0.0
C1422 C 0.9618 0.35993 0.73105 0.0
C1423 C 0.95144 0.35202 0.72719 0.0
O1424 O 0.92933 0.35068 0.72825 0.0
O1425 O 0.93154 0.35796 0.71916 0.0
O1426 O 0.9489 0.35694 0.72273 0.0
O1427 O 0.94675 0.35 0.73212 0.0
H1428 H 0.93906 0.34497 0.71583 0.0
H1429 H 0.93859 0.33502 0.70713 0.0
H1430 H 0.91526 0.33614 0.70716 0.0
H1431 H 0.91579 0.3461 0.71593 0.0
H1432 H 0.91273 0.37537 0.73999 0.0
H1433 H 0.9224 0.3669 0.73668 0.0
H1434 H 0.92876 0.39167 0.74478 0.0
H1435 H 0.93834 0.38321 0.74143 0.0
H1436 H 0.97123 0.3661 0.73374 0.0
H1437 H 0.97408 0.34297 0.73213 0.0
H1438 H 0.96131 0.34161 0.72914 0.0
H1439 H 0.95841 0.36469 0.73066 0.0
C1440 C 0.65729 0.07526 0.28702 0.0
C1441 C 0.66 0.06896 0.29024 0.0
C1442 C 0.66869 0.07606 0.29713 0.0
C1443 C 0.66563 0.06935 0.29526 0.0
C1444 C 0.66597 0.08236 0.29384 0.0
C1445 C 0.66031 0.08196 0.28883 0.0
U1446 U 0.64581 0.06395 0.27457 0.0
O1447 O 0.63412 0.06381 0.2725 0.0
O1448 O 0.64165 0.06605 0.2636 0.0
C1449 C 0.63487 0.06587 0.26574 0.0
C1450 C 0.65136 0.07483 0.28174 0.0
C1451 C 0.63037 0.07203 0.26348 0.0
C1452 C 0.62475 0.08366 0.26591 0.0
C1453 C 0.62928 0.07799 0.26804 0.0
C1454 C 0.62251 0.07757 0.25453 0.0
C1455 C 0.62127 0.08349 0.25914 0.0
C1456 C 0.627 0.07188 0.2567 0.0
C1457 C 0.6505 0.04359 0.27423 0.0
C1458 C 0.6432 0.03395 0.26908 0.0
C1459 C 0.6551 0.03132 0.27386 0.0
C1460 C 0.65599 0.03859 0.27565 0.0
C1461 C 0.64868 0.02889 0.27061 0.0
C1462 C 0.64411 0.04126 0.27087 0.0
C1463 C 0.6515 0.0511 0.27659 0.0
O1464 O 0.65335 0.07314 0.27514 0.0
O1465 O 0.64563 0.07125 0.28393 0.0
O1466 O 0.64635 0.05379 0.28068 0.0
O1467 O 0.65384 0.05565 0.27167 0.0
H1468 H 0.65774 0.06373 0.28889 0.0
H1469 H 0.6675 0.0644 0.29775 0.0
H1470 H 0.66827 0.0876 0.29506 0.0
H1471 H 0.65831 0.08688 0.28635 0.0
H1472 H 0.62398 0.08818 0.26954 0.0
H1473 H 0.63189 0.07824 0.27328 0.0
H1474 H 0.61986 0.07724 0.24932 0.0
H1475 H 0.62778 0.06733 0.2531 0.0
H1476 H 0.63821 0.03227 0.26652 0.0
H1477 H 0.65938 0.02757 0.27524 0.0
H1478 H 0.66095 0.0403 0.27827 0.0
H1479 H 0.63981 0.04506 0.26973 0.0
C1480 C 0.92791 0.65687 0.28557 0.0
C1481 C 0.93415 0.65993 0.28859 0.0
C1482 C 0.92682 0.66848 0.29541 0.0
C1483 C 0.93361 0.66566 0.29348 0.0
C1484 C 0.92058 0.66543 0.29228 0.0
C1485 C 0.92113 0.65967 0.28741 0.0
U1486 U 0.9396 0.64483 0.27401 0.0
O1487 O 0.93982 0.63301 0.2727 0.0
O1488 O 0.93787 0.63998 0.2633 0.0
C1489 C 0.93806 0.63334 0.26583 0.0
C1490 C 0.9285 0.65071 0.28058 0.0
C1491 C 0.9321 0.62858 0.26361 0.0
C1492 C 0.91928 0.62603 0.26227 0.0
C1493 C 0.92486 0.63073 0.26429 0.0
C1494 C 0.92814 0.61699 0.25891 0.0
C1495 C 0.92086 0.61908 0.2596 0.0
C1496 C 0.93369 0.6217 0.2609 0.0
C1497 C 0.95995 0.64936 0.27392 0.0
C1498 C 0.96984 0.64134 0.27065 0.0
C1499 C 0.97215 0.65405 0.27276 0.0
C1500 C 0.96481 0.65515 0.27417 0.0
C1501 C 0.97477 0.64712 0.27108 0.0
C1502 C 0.96248 0.64245 0.27204 0.0
C1503 C 0.9524 0.65061 0.27604 0.0
O1504 O 0.93038 0.65237 0.27393 0.0
O1505 O 0.93203 0.64511 0.28315 0.0
O1506 O 0.94955 0.64579 0.2804 0.0
O1507 O 0.94799 0.65268 0.27087 0.0
H1508 H 0.93945 0.65783 0.28722 0.0
H1509 H 0.93853 0.66778 0.29585 0.0
H1510 H 0.91527 0.66753 0.29356 0.0
H1511 H 0.91626 0.65739 0.2851 0.0
H1512 H 0.91373 0.62778 0.26292 0.0
H1513 H 0.92352 0.63602 0.26643 0.0
H1514 H 0.92954 0.61172 0.25679 0.0
H1515 H 0.93926 0.61995 0.26034 0.0
H1516 H 0.97167 0.63595 0.26929 0.0
H1517 H 0.97579 0.6586 0.27326 0.0
H1518 H 0.96296 0.66051 0.27564 0.0
H1519 H 0.95879 0.63791 0.27178 0.0
C1520 C 0.34608 0.92796 0.28598 0.0
C1521 C 0.34309 0.93434 0.28876 0.0
C1522 C 0.33491 0.92735 0.29633 0.0
C1523 C 0.33757 0.93405 0.2939 0.0
C1524 C 0.33784 0.92096 0.29343 0.0
C1525 C 0.3434 0.92127 0.2883 0.0
U1526 U 0.35794 0.93922 0.27388 0.0
O1527 O 0.36969 0.93914 0.2721 0.0
O1528 O 0.36232 0.93729 0.26299 0.0
C1529 C 0.36906 0.93734 0.26526 0.0
C1530 C 0.35205 0.92831 0.28076 0.0
C1531 C 0.37353 0.9312 0.26293 0.0
C1532 C 0.37634 0.91837 0.26295 0.0
C1533 C 0.37191 0.92412 0.2651 0.0
C1534 C 0.38402 0.92675 0.25644 0.0
C1535 C 0.38247 0.91962 0.2586 0.0
C1536 C 0.37959 0.93248 0.25858 0.0
C1537 C 0.35381 0.95967 0.27379 0.0
C1538 C 0.36185 0.96942 0.27018 0.0
C1539 C 0.34924 0.97191 0.27268 0.0
C1540 C 0.34809 0.96461 0.27418 0.0
C1541 C 0.35615 0.97444 0.27076 0.0
C1542 C 0.36069 0.96209 0.27167 0.0
C1543 C 0.35252 0.95215 0.27601 0.0
O1544 O 0.3502 0.93018 0.27416 0.0
O1545 O 0.35783 0.93173 0.28309 0.0
O1546 O 0.35746 0.94924 0.2802 0.0
O1547 O 0.35015 0.94775 0.27097 0.0
H1548 H 0.34506 0.93956 0.28699 0.0
H1549 H 0.33535 0.93906 0.29595 0.0
H1550 H 0.33594 0.91573 0.29523 0.0
H1551 H 0.34565 0.91629 0.2862 0.0
H1552 H 0.37495 0.91295 0.26465 0.0
H1553 H 0.36724 0.92305 0.26846 0.0
H1554 H 0.38875 0.92793 0.2532 0.0
H1555 H 0.38094 0.93792 0.2569 0.0
H1556 H 0.36722 0.97118 0.26865 0.0
H1557 H 0.34476 0.97563 0.27329 0.0
H1558 H 0.34276 0.96284 0.27583 0.0
H1559 H 0.36517 0.95834 0.2713 0.0
C1560 C 0.07542 0.34595 0.28492 0.0
C1561 C 0.06914 0.34262 0.28755 0.0
C1562 C 0.07639 0.33421 0.29461 0.0
C1563 C 0.06961 0.33683 0.29236 0.0
C1564 C 0.08268 0.33753 0.29189 0.0
C1565 C 0.08219 0.34335 0.28709 0.0
U1566 U 0.06378 0.35817 0.27355 0.0
O1567 O 0.06353 0.37001 0.27246 0.0
O1568 O 0.06552 0.36322 0.26293 0.0
C1569 C 0.06531 0.36981 0.26559 0.0
C1570 C 0.07487 0.3522 0.28005 0.0
C1571 C 0.07128 0.37462 0.26348 0.0
C1572 C 0.0841 0.37722 0.2623 0.0
C1573 C 0.07852 0.37248 0.26423 0.0
C1574 C 0.07525 0.38626 0.25892 0.0
C1575 C 0.08253 0.38418 0.25967 0.0
C1576 C 0.06969 0.38152 0.2608 0.0
C1577 C 0.04344 0.3536 0.27332 0.0
C1578 C 0.03365 0.36164 0.26983 0.0
C1579 C 0.03119 0.34902 0.27234 0.0
C1580 C 0.03852 0.34788 0.27377 0.0
C1581 C 0.02865 0.35593 0.27045 0.0
C1582 C 0.041 0.36048 0.27124 0.0
C1583 C 0.05099 0.35232 0.27544 0.0
O1584 O 0.07302 0.35066 0.27336 0.0
O1585 O 0.07132 0.35774 0.28271 0.0
O1586 O 0.05381 0.35707 0.27989 0.0
O1587 O 0.05542 0.35036 0.27024 0.0
H1588 H 0.06385 0.34457 0.28594 0.0
H1589 H 0.06466 0.3345 0.29442 0.0
H1590 H 0.08799 0.3356 0.29343 0.0
H1591 H 0.08709 0.34585 0.28509 0.0
H1592 H 0.08965 0.37548 0.26301 0.0
H1593 H 0.07984 0.36718 0.26634 0.0
H1594 H 0.07385 0.39154 0.25681 0.0
H1595 H 0.06413 0.38325 0.26019 0.0
H1596 H 0.03187 0.367 0.26831 0.0
H1597 H 0.02749 0.34453 0.27298 0.0
H1598 H 0.04031 0.34254 0.27539 0.0
H1599 H 0.04474 0.36496 0.27084 0.0
C1600 C 0.71755 0.65631 0.92821 0.0
C1601 C 0.71448 0.65904 0.93459 0.0
C1602 C 0.70735 0.66762 0.92761 0.0
C1603 C 0.70941 0.66463 0.93429 0.0
C1604 C 0.71054 0.66495 0.92124 0.0
C1605 C 0.71559 0.65932 0.92155 0.0
U1606 U 0.72962 0.64419 0.93931 0.0
O1607 O 0.73131 0.63243 0.93903 0.0
O1608 O 0.74046 0.63976 0.93722 0.0
C1609 C 0.73814 0.63304 0.9372 0.0
C1610 C 0.72272 0.65029 0.92853 0.0
C1611 C 0.74042 0.62862 0.931 0.0
C1612 C 0.74014 0.62581 0.91817 0.0
C1613 C 0.73802 0.63018 0.92397 0.0
C1614 C 0.74707 0.61831 0.92637 0.0
C1615 C 0.74468 0.61981 0.9193 0.0
C1616 C 0.74495 0.62268 0.93215 0.0
C1617 C 0.73008 0.64798 0.95988 0.0
C1618 C 0.73073 0.64026 0.97051 0.0
C1619 C 0.73438 0.6528 0.97132 0.0
C1620 C 0.73279 0.65374 0.964 0.0
C1621 C 0.73324 0.64609 0.9747 0.0
C1622 C 0.72918 0.64119 0.96316 0.0
C1623 C 0.72773 0.64938 0.95237 0.0
O1624 O 0.72934 0.65207 0.93039 0.0
O1625 O 0.72035 0.6445 0.9319 0.0
O1626 O 0.7234 0.64459 0.94941 0.0
O1627 O 0.73269 0.65183 0.94792 0.0
H1628 H 0.71598 0.65682 0.93979 0.0
H1629 H 0.70714 0.66664 0.93929 0.0
H1630 H 0.70902 0.66711 0.91602 0.0
H1631 H 0.71792 0.65728 0.91658 0.0
H1632 H 0.73826 0.62716 0.91279 0.0
H1633 H 0.73451 0.63477 0.92299 0.0
H1634 H 0.75046 0.61367 0.92747 0.0
H1635 H 0.74682 0.62138 0.93755 0.0
H1636 H 0.72987 0.63501 0.97294 0.0
H1637 H 0.73623 0.65742 0.9744 0.0
H1638 H 0.73348 0.65903 0.96159 0.0
H1639 H 0.72712 0.63663 0.96011 0.0
C1640 C 0.71681 0.34652 0.07575 0.0
C1641 C 0.71382 0.34341 0.06952 0.0
C1642 C 0.70701 0.33489 0.0769 0.0
C1643 C 0.70895 0.33767 0.07009 0.0
C1644 C 0.71009 0.338 0.08313 0.0
C1645 C 0.71495 0.34377 0.08255 0.0
U1646 U 0.72861 0.35816 0.06396 0.0
O1647 O 0.73011 0.36995 0.0635 0.0
O1648 O 0.73939 0.36288 0.06567 0.0
C1649 C 0.73696 0.36955 0.06535 0.0
C1650 C 0.72186 0.35262 0.07512 0.0
C1651 C 0.73916 0.37434 0.07129 0.0
C1652 C 0.74022 0.37703 0.08411 0.0
C1653 C 0.73822 0.37231 0.07854 0.0
C1654 C 0.74406 0.38585 0.07523 0.0
C1655 C 0.74313 0.38388 0.08252 0.0
C1656 C 0.7421 0.38113 0.06968 0.0
C1657 C 0.72876 0.35296 0.04374 0.0
C1658 C 0.734 0.36002 0.03398 0.0
C1659 C 0.72875 0.34828 0.0315 0.0
C1660 C 0.72706 0.34749 0.0388 0.0
C1661 C 0.73221 0.35456 0.02898 0.0
C1662 C 0.73229 0.35922 0.04132 0.0
C1663 C 0.72658 0.35205 0.05132 0.0
O1664 O 0.72852 0.35086 0.07336 0.0
O1665 O 0.71939 0.35817 0.07144 0.0
O1666 O 0.72232 0.35709 0.05395 0.0
O1667 O 0.73168 0.35004 0.05583 0.0
H1668 H 0.71521 0.34546 0.06422 0.0
H1669 H 0.70661 0.3355 0.06518 0.0
H1670 H 0.7088 0.33593 0.08845 0.0
H1671 H 0.71725 0.34609 0.08742 0.0
H1672 H 0.73937 0.37538 0.08966 0.0
H1673 H 0.73591 0.3671 0.07989 0.0
H1674 H 0.74637 0.39105 0.07382 0.0
H1675 H 0.74285 0.38278 0.06411 0.0
H1676 H 0.73672 0.36489 0.03222 0.0
H1677 H 0.72718 0.34402 0.0278 0.0
H1678 H 0.7243 0.34264 0.04059 0.0
H1679 H 0.73366 0.36349 0.04508 0.0
C1680 C 0.65649 0.71745 0.07504 0.0
C1681 C 0.65937 0.7145 0.06868 0.0
C1682 C 0.66769 0.70713 0.07572 0.0
C1683 C 0.6649 0.70938 0.06902 0.0
C1684 C 0.66486 0.7102 0.08209 0.0
C1685 C 0.65929 0.71531 0.08174 0.0
U1686 U 0.64475 0.7295 0.06363 0.0
O1687 O 0.63301 0.73134 0.06358 0.0
O1688 O 0.64041 0.74043 0.0654 0.0
C1689 C 0.63366 0.7382 0.06528 0.0
C1690 C 0.65053 0.72269 0.07464 0.0
C1691 C 0.62909 0.74068 0.07128 0.0
C1692 C 0.62591 0.74081 0.08403 0.0
C1693 C 0.63044 0.7385 0.07842 0.0
C1694 C 0.61868 0.74751 0.07541 0.0
C1695 C 0.61996 0.74534 0.08259 0.0
C1696 C 0.62321 0.7452 0.06982 0.0
C1697 C 0.64906 0.72939 0.04322 0.0
C1698 C 0.64113 0.73304 0.03341 0.0
C1699 C 0.65372 0.73037 0.03101 0.0
C1700 C 0.6548 0.72889 0.03832 0.0
C1701 C 0.64685 0.73237 0.02843 0.0
C1702 C 0.64223 0.73158 0.04075 0.0
C1703 C 0.65028 0.72722 0.05077 0.0
O1704 O 0.65242 0.72927 0.07274 0.0
O1705 O 0.64476 0.72036 0.07122 0.0
O1706 O 0.64529 0.72308 0.05367 0.0
O1707 O 0.65263 0.73228 0.05515 0.0
H1708 H 0.65731 0.71614 0.06345 0.0
H1709 H 0.66703 0.7072 0.06401 0.0
H1710 H 0.66686 0.70854 0.08733 0.0
H1711 H 0.65713 0.71754 0.0867 0.0
H1712 H 0.6271 0.73909 0.0895 0.0
H1713 H 0.63497 0.735 0.07964 0.0
H1714 H 0.61409 0.75089 0.07407 0.0
H1715 H 0.62207 0.7469 0.06433 0.0
H1716 H 0.63579 0.73464 0.03161 0.0
H1717 H 0.65822 0.72968 0.02733 0.0
H1718 H 0.6601 0.72718 0.04014 0.0
H1719 H 0.63773 0.73202 0.04448 0.0
C1720 C 0.28527 0.65776 0.07484 0.0
C1721 C 0.28814 0.66079 0.06851 0.0
C1722 C 0.29508 0.66943 0.07563 0.0
C1723 C 0.293 0.66655 0.0689 0.0
C1724 C 0.29212 0.66641 0.08196 0.0
C1725 C 0.28726 0.66062 0.08156 0.0
U1726 U 0.27361 0.64545 0.06353 0.0
O1727 O 0.27217 0.63365 0.06371 0.0
O1728 O 0.26285 0.64077 0.06546 0.0
C1729 C 0.2653 0.6341 0.06546 0.0
C1730 C 0.28027 0.6516 0.07442 0.0
C1731 C 0.26304 0.6296 0.07159 0.0
C1732 C 0.26318 0.62671 0.08441 0.0
C1733 C 0.26531 0.63115 0.07866 0.0
C1734 C 0.2565 0.61914 0.07606 0.0
C1735 C 0.25875 0.62064 0.08317 0.0
C1736 C 0.25862 0.62359 0.07033 0.0
C1737 C 0.27322 0.6494 0.04301 0.0
C1738 C 0.27252 0.64163 0.03242 0.0
C1739 C 0.26906 0.65422 0.03151 0.0
C1740 C 0.27062 0.65518 0.03884 0.0
C1741 C 0.27012 0.64747 0.02819 0.0
C1742 C 0.27404 0.64258 0.03977 0.0
C1743 C 0.27549 0.6508 0.05053 0.0
O1744 O 0.27362 0.65323 0.07253 0.0
O1745 O 0.28282 0.64591 0.07101 0.0
O1746 O 0.27989 0.64607 0.05349 0.0
O1747 O 0.27045 0.65311 0.05497 0.0
H1748 H 0.28666 0.65864 0.06327 0.0
H1749 H 0.29524 0.66865 0.06392 0.0
H1750 H 0.29351 0.66855 0.08722 0.0
H1751 H 0.28507 0.65836 0.0865 0.0
H1752 H 0.26495 0.62805 0.08982 0.0
H1753 H 0.26872 0.63579 0.07972 0.0
H1754 H 0.25319 0.61446 0.07489 0.0
H1755 H 0.25686 0.62229 0.0649 0.0
H1756 H 0.27331 0.63635 0.03003 0.0
H1757 H 0.26731 0.65885 0.02839 0.0
H1758 H 0.26999 0.66049 0.04121 0.0
H1759 H 0.276 0.63801 0.04287 0.0
C1760 C 0.34629 0.28617 0.07535 0.0
C1761 C 0.34333 0.28887 0.06892 0.0
C1762 C 0.33486 0.29624 0.07578 0.0
C1763 C 0.33768 0.29388 0.06913 0.0
C1764 C 0.33777 0.29341 0.08222 0.0
C1765 C 0.34346 0.28842 0.082 0.0
U1766 U 0.35865 0.27421 0.0644 0.0
O1767 O 0.37043 0.27271 0.06474 0.0
O1768 O 0.36324 0.26346 0.06656 0.0
C1769 C 0.36992 0.26587 0.06658 0.0
C1770 C 0.3524 0.28109 0.07511 0.0
C1771 C 0.37438 0.26365 0.07277 0.0
C1772 C 0.37725 0.26397 0.08558 0.0
C1773 C 0.37285 0.26607 0.07979 0.0
C1774 C 0.38471 0.25702 0.07737 0.0
C1775 C 0.38325 0.25942 0.08444 0.0
C1776 C 0.38032 0.25911 0.0716 0.0
C1777 C 0.35498 0.27356 0.04384 0.0
C1778 C 0.36284 0.27282 0.03332 0.0
C1779 C 0.35031 0.26916 0.03237 0.0
C1780 C 0.34928 0.27081 0.03966 0.0
C1781 C 0.35707 0.27028 0.02907 0.0
C1782 C 0.36181 0.27443 0.04064 0.0
C1783 C 0.35348 0.27594 0.05131 0.0
O1784 O 0.35074 0.27443 0.0733 0.0
O1785 O 0.35817 0.28353 0.07175 0.0
O1786 O 0.35819 0.28036 0.05427 0.0
O1787 O 0.35108 0.27098 0.05579 0.0
H1788 H 0.34543 0.28715 0.06373 0.0
H1789 H 0.33549 0.29587 0.06408 0.0
H1790 H 0.33575 0.29517 0.08743 0.0
H1791 H 0.34568 0.28638 0.08702 0.0
H1792 H 0.37593 0.26586 0.09096 0.0
H1793 H 0.36827 0.26958 0.08078 0.0
H1794 H 0.38935 0.25361 0.07626 0.0
H1795 H 0.38159 0.25723 0.0662 0.0
H1796 H 0.36813 0.27366 0.03095 0.0
H1797 H 0.34573 0.26729 0.02924 0.0
H1798 H 0.34395 0.27013 0.042 0.0
H1799 H 0.36633 0.27651 0.04374 0.0
C1800 C 0.28559 0.34655 0.92804 0.0
C1801 C 0.28547 0.34114 0.93335 0.0
C1802 C 0.29558 0.33502 0.92753 0.0
C1803 C 0.29039 0.33541 0.93308 0.0
C1804 C 0.29561 0.34042 0.92217 0.0
C1805 C 0.29065 0.34613 0.92243 0.0
U1806 U 0.27415 0.35903 0.93947 0.0
O1807 O 0.27312 0.37088 0.93943 0.0
O1808 O 0.26357 0.36409 0.93754 0.0
C1809 C 0.26625 0.37067 0.93762 0.0
C1810 C 0.28075 0.35284 0.92856 0.0
C1811 C 0.2642 0.37536 0.93154 0.0
C1812 C 0.26307 0.37769 0.91866 0.0
C1813 C 0.26496 0.37307 0.92435 0.0
C1814 C 0.25967 0.38692 0.92731 0.0
C1815 C 0.26044 0.38469 0.92008 0.0
C1816 C 0.26153 0.3823 0.93298 0.0
C1817 C 0.27372 0.35502 0.96003 0.0
C1818 C 0.27703 0.35894 0.97216 0.0
C1819 C 0.26541 0.3533 0.97011 0.0
C1820 C 0.26703 0.35261 0.96275 0.0
C1821 C 0.27043 0.35637 0.97492 0.0
C1822 C 0.27866 0.35824 0.96482 0.0
C1823 C 0.27588 0.35357 0.95245 0.0
O1824 O 0.27401 0.35141 0.93034 0.0
O1825 O 0.28345 0.35838 0.93207 0.0
O1826 O 0.28042 0.35818 0.94952 0.0
O1827 O 0.27081 0.3514 0.94796 0.0
H1828 H 0.28163 0.34139 0.93777 0.0
H1829 H 0.29013 0.3313 0.93724 0.0
H1830 H 0.29959 0.34036 0.91788 0.0
H1831 H 0.29086 0.3503 0.91832 0.0
H1832 H 0.26378 0.37584 0.91315 0.0
H1833 H 0.26706 0.36774 0.92314 0.0
H1834 H 0.25757 0.39223 0.92859 0.0
H1835 H 0.26091 0.38415 0.9385 0.0
H1836 H 0.28108 0.36122 0.97572 0.0
H1837 H 0.26025 0.35133 0.97206 0.0
H1838 H 0.26312 0.35004 0.95925 0.0
H1839 H 0.28391 0.36003 0.96293 0.0
C1840 C 0.65679 0.28613 0.92808 0.0
C1841 C 0.65975 0.28916 0.93437 0.0
C1842 C 0.66849 0.29589 0.92717 0.0
C1843 C 0.66551 0.29402 0.93392 0.0
C1844 C 0.66556 0.29273 0.92089 0.0
C1845 C 0.65976 0.2879 0.92134 0.0
U1846 U 0.64458 0.27442 0.93946 0.0
O1847 O 0.63274 0.27326 0.93961 0.0
O1848 O 0.6396 0.26382 0.93743 0.0
C1849 C 0.63299 0.26642 0.93771 0.0
C1850 C 0.65058 0.28119 0.92855 0.0
C1851 C 0.62814 0.26434 0.93177 0.0
C1852 C 0.62546 0.26301 0.91896 0.0
C1853 C 0.63023 0.26499 0.9245 0.0
C1854 C 0.61646 0.25978 0.92791 0.0
C1855 C 0.6185 0.26042 0.92061 0.0
C1856 C 0.62124 0.26172 0.93342 0.0
C1857 C 0.64899 0.27362 0.95986 0.0
C1858 C 0.64125 0.27257 0.97044 0.0
C1859 C 0.65398 0.26963 0.97134 0.0
C1860 C 0.65486 0.27125 0.96401 0.0
C1861 C 0.64719 0.27039 0.97467 0.0
C1862 C 0.64213 0.27415 0.9631 0.0
C1863 C 0.65029 0.27597 0.95235 0.0
O1864 O 0.65216 0.27448 0.93027 0.0
O1865 O 0.645 0.28375 0.93213 0.0
O1866 O 0.64559 0.28053 0.94957 0.0
O1867 O 0.65236 0.27094 0.94778 0.0
H1868 H 0.65753 0.28784 0.93962 0.0
H1869 H 0.66754 0.29641 0.93886 0.0
H1870 H 0.66778 0.29397 0.91561 0.0
H1871 H 0.65757 0.28557 0.91644 0.0
H1872 H 0.62716 0.26363 0.9134 0.0
H1873 H 0.63554 0.26705 0.92312 0.0
H1874 H 0.61119 0.2577 0.92937 0.0
H1875 H 0.61953 0.26117 0.939 0.0
H1876 H 0.63594 0.27313 0.97284 0.0
H1877 H 0.65867 0.26805 0.97445 0.0
H1878 H 0.6602 0.27084 0.96164 0.0
H1879 H 0.63749 0.27592 0.96 0.0
C1880 C 0.34633 0.71778 0.92752 0.0
C1881 C 0.34355 0.71443 0.93373 0.0
C1882 C 0.33465 0.70803 0.92644 0.0
C1883 C 0.33778 0.70959 0.93319 0.0
C1884 C 0.33743 0.71147 0.92024 0.0
C1885 C 0.34322 0.7163 0.92078 0.0
U1886 U 0.35899 0.72855 0.93928 0.0
O1887 O 0.37077 0.73001 0.93888 0.0
O1888 O 0.36363 0.73944 0.93806 0.0
C1889 C 0.37029 0.73698 0.93765 0.0
C1890 C 0.35249 0.72277 0.9281 0.0
C1891 C 0.37459 0.73965 0.93153 0.0
C1892 C 0.37721 0.74009 0.91867 0.0
C1893 C 0.37287 0.73773 0.9244 0.0
C1894 C 0.38497 0.74636 0.92715 0.0
C1895 C 0.38334 0.74442 0.91997 0.0
C1896 C 0.38064 0.744 0.93286 0.0
C1897 C 0.35567 0.72698 0.95985 0.0
C1898 C 0.35977 0.73494 0.96947 0.0
C1899 C 0.35521 0.72301 0.97234 0.0
C1900 C 0.35403 0.72169 0.96501 0.0
C1901 C 0.35806 0.72966 0.97467 0.0
C1902 C 0.35861 0.7336 0.96211 0.0
C1903 C 0.35405 0.72545 0.95222 0.0
O1904 O 0.35091 0.72924 0.93057 0.0
O1905 O 0.35831 0.71999 0.93108 0.0
O1906 O 0.35878 0.7214 0.94879 0.0
O1907 O 0.35164 0.73088 0.94832 0.0
H1908 H 0.34589 0.71552 0.93898 0.0
H1909 H 0.33587 0.70697 0.93806 0.0
H1910 H 0.33509 0.71047 0.91497 0.0
H1911 H 0.34529 0.71887 0.91594 0.0
H1912 H 0.37575 0.73856 0.91321 0.0
H1913 H 0.36821 0.73436 0.92329 0.0
H1914 H 0.3897 0.74958 0.92837 0.0
H1915 H 0.38206 0.74549 0.93834 0.0
H1916 H 0.36202 0.7401 0.97109 0.0
H1917 H 0.35372 0.71887 0.9762 0.0
H1918 H 0.35173 0.71656 0.96338 0.0
H1919 H 0.35994 0.73775 0.95819 0.0
C1920 C 0.57598 0.78664 0.84619 0.0
C1921 C 0.56966 0.78953 0.84316 0.0
C1922 C 0.57681 0.79662 0.8347 0.0
C1923 C 0.57007 0.79448 0.83748 0.0
C1924 C 0.58314 0.7936 0.83766 0.0
C1925 C 0.58272 0.78866 0.84339 0.0
U1926 U 0.5643 0.77587 0.85885 0.0
O1927 O 0.56556 0.76508 0.86369 0.0
O1928 O 0.56455 0.77462 0.87066 0.0
C1929 C 0.56582 0.76765 0.87031 0.0
C1930 C 0.57549 0.78168 0.85238 0.0
C1931 C 0.57183 0.76508 0.87484 0.0
C1932 C 0.58467 0.76341 0.87708 0.0
C1933 C 0.57904 0.76564 0.87254 0.0
C1934 C 0.57593 0.76006 0.88624 0.0
C1935 C 0.58318 0.76066 0.88402 0.0
C1936 C 0.57032 0.76225 0.88169 0.0
C1937 C 0.54376 0.77735 0.85538 0.0
C1938 C 0.53415 0.76951 0.85976 0.0
C1939 C 0.53126 0.7813 0.85483 0.0
C1940 C 0.53859 0.78257 0.85358 0.0
C1941 C 0.52895 0.77474 0.85791 0.0
C1942 C 0.54152 0.77082 0.85853 0.0
C1943 C 0.5514 0.77886 0.85376 0.0
O1944 O 0.57246 0.78447 0.85816 0.0
O1945 O 0.57309 0.77517 0.85085 0.0
O1946 O 0.55532 0.77339 0.85147 0.0
O1947 O 0.55478 0.78299 0.85843 0.0
H1948 H 0.5644 0.788 0.84524 0.0
H1949 H 0.5651 0.79661 0.83524 0.0
H1950 H 0.58841 0.79518 0.83567 0.0
H1951 H 0.58765 0.78648 0.84567 0.0
H1952 H 0.59019 0.764 0.87524 0.0
H1953 H 0.5803 0.76787 0.86727 0.0
H1954 H 0.57459 0.75788 0.8915 0.0
H1955 H 0.56478 0.76179 0.88355 0.0
H1956 H 0.53254 0.76444 0.86218 0.0
H1957 H 0.5274 0.78539 0.85323 0.0
H1958 H 0.54022 0.78763 0.85112 0.0
H1959 H 0.54544 0.76672 0.86 0.0
C1960 C 0.21849 0.5758 0.84605 0.0
C1961 C 0.21841 0.57039 0.84074 0.0
C1962 C 0.20829 0.57627 0.8347 0.0
C1963 C 0.21339 0.57064 0.8351 0.0
C1964 C 0.20846 0.58174 0.83999 0.0
C1965 C 0.21352 0.5815 0.84561 0.0
U1966 U 0.22993 0.56421 0.85827 0.0
O1967 O 0.24067 0.56586 0.86309 0.0
O1968 O 0.23125 0.56415 0.87008 0.0
C1969 C 0.23815 0.56577 0.86973 0.0
C1970 C 0.22342 0.57527 0.85227 0.0
C1971 C 0.24051 0.57174 0.8744 0.0
C1972 C 0.24078 0.5845 0.87752 0.0
C1973 C 0.23848 0.57891 0.87297 0.0
C1974 C 0.24715 0.57581 0.88495 0.0
C1975 C 0.24516 0.58302 0.88357 0.0
C1976 C 0.24485 0.57023 0.88041 0.0
C1977 C 0.22992 0.54382 0.85391 0.0
C1978 C 0.23282 0.53391 0.86204 0.0
C1979 C 0.23122 0.53163 0.84924 0.0
C1980 C 0.2299 0.53897 0.8481 0.0
C1981 C 0.23259 0.52898 0.85624 0.0
C1982 C 0.23151 0.54127 0.86088 0.0
C1983 C 0.22785 0.55138 0.85259 0.0
O1984 O 0.22077 0.57178 0.85786 0.0
O1985 O 0.23011 0.57341 0.85074 0.0
O1986 O 0.23304 0.55575 0.85048 0.0
O1987 O 0.22349 0.55429 0.85739 0.0
H1988 H 0.22217 0.56591 0.841 0.0
H1989 H 0.2135 0.5664 0.83107 0.0
H1990 H 0.20455 0.58609 0.83992 0.0
H1991 H 0.21345 0.58568 0.84971 0.0
H1992 H 0.2392 0.58999 0.87626 0.0
H1993 H 0.23513 0.58016 0.86833 0.0
H1994 H 0.25041 0.57444 0.88962 0.0
H1995 H 0.24645 0.56473 0.8816 0.0
H1996 H 0.23393 0.53205 0.86747 0.0
H1997 H 0.2309 0.52799 0.84467 0.0
H1998 H 0.22866 0.54084 0.84269 0.0
H1999 H 0.23159 0.54495 0.86544 0.0
C2000 C 0.42735 0.21808 0.84628 0.0
C2001 C 0.43275 0.21783 0.84096 0.0
C2002 C 0.4267 0.2077 0.83511 0.0
C2003 C 0.43241 0.21272 0.83541 0.0
C2004 C 0.42125 0.20804 0.84041 0.0
C2005 C 0.42158 0.21319 0.84594 0.0
U2006 U 0.43902 0.22987 0.85812 0.0
O2007 O 0.4373 0.24068 0.86276 0.0
O2008 O 0.43921 0.2314 0.8699 0.0
C2009 C 0.43749 0.23828 0.86945 0.0
C2010 C 0.42794 0.22314 0.85239 0.0
C2011 C 0.43153 0.24065 0.87413 0.0
C2012 C 0.41879 0.24083 0.87733 0.0
C2013 C 0.42437 0.23854 0.87276 0.0
C2014 C 0.42747 0.24734 0.88465 0.0
C2015 C 0.42027 0.24527 0.88333 0.0
C2016 C 0.43304 0.24505 0.88008 0.0
C2017 C 0.45936 0.22999 0.85352 0.0
C2018 C 0.46927 0.23337 0.86147 0.0
C2019 C 0.47152 0.23116 0.84876 0.0
C2020 C 0.46419 0.22972 0.84771 0.0
C2021 C 0.47418 0.2329 0.85567 0.0
C2022 C 0.46191 0.23194 0.8604 0.0
C2023 C 0.45181 0.22781 0.85233 0.0
O2024 O 0.43154 0.22062 0.85797 0.0
O2025 O 0.42973 0.2298 0.8507 0.0
O2026 O 0.44736 0.23291 0.85017 0.0
O2027 O 0.449 0.22352 0.85724 0.0
H2028 H 0.43728 0.22154 0.84115 0.0
H2029 H 0.43664 0.2127 0.83137 0.0
H2030 H 0.41683 0.20421 0.84041 0.0
H2031 H 0.4174 0.21326 0.85005 0.0
H2032 H 0.4133 0.23919 0.87612 0.0
H2033 H 0.42312 0.23513 0.86816 0.0
H2034 H 0.42884 0.25065 0.88928 0.0
H2035 H 0.43854 0.2467 0.88123 0.0
H2036 H 0.47112 0.23476 0.86684 0.0
H2037 H 0.47515 0.23064 0.8442 0.0
H2038 H 0.46232 0.2282 0.84237 0.0
H2039 H 0.45824 0.23221 0.86495 0.0
C2040 C 0.78546 0.42644 0.84601 0.0
C2041 C 0.78574 0.43159 0.84044 0.0
C2042 C 0.79582 0.4252 0.83488 0.0
C2043 C 0.79084 0.43095 0.8349 0.0
C2044 C 0.79547 0.42003 0.84044 0.0
C2045 C 0.79032 0.42064 0.84595 0.0
U2046 U 0.77379 0.43865 0.85746 0.0
O2047 O 0.763 0.43715 0.86223 0.0
O2048 O 0.77233 0.43927 0.86924 0.0
C2049 C 0.76544 0.43758 0.86889 0.0
C2050 C 0.78041 0.42734 0.85208 0.0
C2051 C 0.76308 0.43183 0.87382 0.0
C2052 C 0.76273 0.41921 0.87747 0.0
C2053 C 0.76493 0.42457 0.8726 0.0
C2054 C 0.75682 0.42831 0.8848 0.0
C2055 C 0.75869 0.42103 0.88366 0.0
C2056 C 0.759 0.43365 0.87992 0.0
C2057 C 0.77379 0.45882 0.85241 0.0
C2058 C 0.76946 0.46855 0.8601 0.0
C2059 C 0.77347 0.47113 0.8479 0.0
C2060 C 0.77496 0.4638 0.84684 0.0
C2061 C 0.77079 0.47361 0.85457 0.0
C2062 C 0.77094 0.46121 0.85902 0.0
C2063 C 0.77593 0.45125 0.8513 0.0
O2064 O 0.78297 0.43109 0.85754 0.0
O2065 O 0.77376 0.42914 0.85033 0.0
O2066 O 0.77078 0.44679 0.8493 0.0
O2067 O 0.78024 0.44853 0.85625 0.0
H2068 H 0.78208 0.43617 0.84043 0.0
H2069 H 0.79103 0.43508 0.83076 0.0
H2070 H 0.79919 0.41551 0.84055 0.0
H2071 H 0.79021 0.41665 0.85023 0.0
H2072 H 0.76431 0.41366 0.87647 0.0
H2073 H 0.7681 0.42308 0.86791 0.0
H2074 H 0.75362 0.42989 0.88944 0.0
H2075 H 0.75751 0.43923 0.88094 0.0
H2076 H 0.76733 0.47028 0.86527 0.0
H2077 H 0.77467 0.47487 0.84357 0.0
H2078 H 0.77718 0.46205 0.84172 0.0
H2079 H 0.76998 0.45741 0.86338 0.0
C2080 C 0.57523 0.21771 0.15709 0.0
C2081 C 0.56974 0.21778 0.16232 0.0
C2082 C 0.57549 0.20776 0.16866 0.0
C2083 C 0.56989 0.21288 0.16807 0.0
C2084 C 0.58103 0.2078 0.16344 0.0
C2085 C 0.58089 0.21273 0.15771 0.0
U2086 U 0.56395 0.22918 0.14455 0.0
O2087 O 0.56598 0.23964 0.13931 0.0
O2088 O 0.56387 0.23002 0.13269 0.0
C2089 C 0.56578 0.23686 0.13277 0.0
C2090 C 0.5748 0.22249 0.15074 0.0
C2091 C 0.57183 0.23878 0.12799 0.0
C2092 C 0.5847 0.24011 0.12563 0.0
C2093 C 0.57904 0.23826 0.13031 0.0
C2094 C 0.576 0.24295 0.11626 0.0
C2095 C 0.58323 0.24245 0.11854 0.0
C2096 C 0.57036 0.24114 0.12095 0.0
C2097 C 0.54355 0.22995 0.1489 0.0
C2098 C 0.53356 0.23224 0.14067 0.0
C2099 C 0.53148 0.23204 0.1536 0.0
C2100 C 0.53881 0.23067 0.15475 0.0
C2101 C 0.52873 0.23271 0.14654 0.0
C2102 C 0.54092 0.23089 0.14184 0.0
C2103 C 0.55106 0.22772 0.1503 0.0
O2104 O 0.57121 0.21979 0.14525 0.0
O2105 O 0.57315 0.22927 0.15209 0.0
O2106 O 0.55558 0.23286 0.15221 0.0
O2107 O 0.55384 0.22308 0.14569 0.0
H2108 H 0.56528 0.22155 0.16191 0.0
H2109 H 0.56559 0.21309 0.17203 0.0
H2110 H 0.58537 0.20388 0.16366 0.0
H2111 H 0.58513 0.21256 0.15367 0.0
H2112 H 0.59021 0.2396 0.12752 0.0
H2113 H 0.58028 0.2364 0.13572 0.0
H2114 H 0.57468 0.24483 0.11088 0.0
H2115 H 0.56483 0.24158 0.11907 0.0
H2116 H 0.53163 0.23281 0.13518 0.0
H2117 H 0.52792 0.23228 0.15823 0.0
H2118 H 0.54075 0.22994 0.16023 0.0
H2119 H 0.5445 0.23039 0.13724 0.0
C2120 C 0.78613 0.57531 0.15697 0.0
C2121 C 0.78936 0.569 0.15966 0.0
C2122 C 0.79608 0.57607 0.16851 0.0
C2123 C 0.7943 0.56938 0.16536 0.0
C2124 C 0.79275 0.58237 0.16583 0.0
C2125 C 0.78783 0.58199 0.1601 0.0
U2126 U 0.77442 0.56398 0.14473 0.0
O2127 O 0.76358 0.5658 0.14021 0.0
O2128 O 0.77283 0.5642 0.13296 0.0
C2129 C 0.76594 0.56587 0.13351 0.0
C2130 C 0.78103 0.5749 0.15088 0.0
C2131 C 0.76355 0.57199 0.12905 0.0
C2132 C 0.76355 0.58481 0.12619 0.0
C2133 C 0.76578 0.57908 0.1306 0.0
C2134 C 0.75684 0.57643 0.11869 0.0
C2135 C 0.75907 0.58356 0.12016 0.0
C2136 C 0.75907 0.57071 0.1231 0.0
C2137 C 0.77452 0.54347 0.14859 0.0
C2138 C 0.77161 0.53366 0.14034 0.0
C2139 C 0.77303 0.53125 0.15313 0.0
C2140 C 0.77442 0.53857 0.15435 0.0
C2141 C 0.77172 0.52868 0.1461 0.0
C2142 C 0.77299 0.541 0.14158 0.0
C2143 C 0.77663 0.551 0.15001 0.0
O2144 O 0.78352 0.5716 0.14511 0.0
O2145 O 0.77443 0.57292 0.15259 0.0
O2146 O 0.7715 0.55531 0.15236 0.0
O2147 O 0.78087 0.55403 0.14519 0.0
H2148 H 0.7881 0.56379 0.15731 0.0
H2149 H 0.79683 0.56443 0.1672 0.0
H2150 H 0.79391 0.5876 0.16819 0.0
H2151 H 0.78535 0.5869 0.15811 0.0
H2152 H 0.7653 0.59024 0.12752 0.0
H2153 H 0.76924 0.58016 0.13519 0.0
H2154 H 0.7535 0.57524 0.11404 0.0
H2155 H 0.75733 0.56527 0.12181 0.0
H2156 H 0.77055 0.53186 0.13487 0.0
H2157 H 0.77326 0.52757 0.15768 0.0
H2158 H 0.77561 0.54037 0.1598 0.0
H2159 H 0.773 0.54471 0.13705 0.0
C2160 C 0.4278 0.78548 0.15686 0.0
C2161 C 0.43291 0.78559 0.16247 0.0
C2162 C 0.42678 0.79584 0.16801 0.0
C2163 C 0.43238 0.7907 0.16801 0.0
C2164 C 0.42165 0.79568 0.16239 0.0
C2165 C 0.42215 0.79053 0.15688 0.0
U2166 U 0.43955 0.77356 0.14509 0.0
O2167 O 0.43773 0.76273 0.14053 0.0
O2168 O 0.43966 0.77194 0.13332 0.0
C2169 C 0.43791 0.76508 0.13383 0.0
C2170 C 0.42851 0.78038 0.1508 0.0
C2171 C 0.43192 0.76271 0.12919 0.0
C2172 C 0.41921 0.76274 0.12589 0.0
C2173 C 0.42482 0.76505 0.13042 0.0
C2174 C 0.42777 0.75573 0.11889 0.0
C2175 C 0.42062 0.75804 0.12007 0.0
C2176 C 0.43336 0.75804 0.12341 0.0
C2177 C 0.45994 0.77311 0.14944 0.0
C2178 C 0.4705 0.77198 0.14168 0.0
C2179 C 0.47142 0.76909 0.15441 0.0
C2180 C 0.4641 0.77075 0.15532 0.0
C2181 C 0.47473 0.76981 0.14761 0.0
C2182 C 0.46316 0.77358 0.14258 0.0
C2183 C 0.45242 0.77546 0.15073 0.0
O2184 O 0.43213 0.78286 0.14522 0.0
O2185 O 0.4303 0.77372 0.15255 0.0
O2186 O 0.44791 0.77048 0.15301 0.0
O2187 O 0.44958 0.77983 0.14589 0.0
H2188 H 0.43737 0.7818 0.1625 0.0
H2189 H 0.43647 0.79074 0.1722 0.0
H2190 H 0.41724 0.79953 0.16227 0.0
H2191 H 0.41818 0.79055 0.15257 0.0
H2192 H 0.41376 0.76457 0.12699 0.0
H2193 H 0.42362 0.76865 0.13487 0.0
H2194 H 0.42909 0.75222 0.11439 0.0
H2195 H 0.43883 0.75621 0.12237 0.0
H2196 H 0.47288 0.7725 0.13636 0.0
H2197 H 0.47454 0.76751 0.15911 0.0
H2198 H 0.46174 0.77037 0.16066 0.0
H2199 H 0.46006 0.77535 0.13793 0.0
C2200 C 0.21727 0.4273 0.15761 0.0
C2201 C 0.21685 0.4327 0.16292 0.0
C2202 C 0.20718 0.42615 0.16898 0.0
C2203 C 0.21187 0.43211 0.16857 0.0
C2204 C 0.20764 0.42074 0.16365 0.0
C2205 C 0.21266 0.42131 0.15802 0.0
U2206 U 0.22891 0.43936 0.14604 0.0
O2207 O 0.23972 0.43783 0.14132 0.0
O2208 O 0.23042 0.43992 0.13426 0.0
C2209 C 0.2373 0.43822 0.13465 0.0
C2210 C 0.22226 0.42809 0.15147 0.0
C2211 C 0.23967 0.43241 0.12978 0.0
C2212 C 0.23981 0.41979 0.12612 0.0
C2213 C 0.2376 0.42521 0.13092 0.0
C2214 C 0.24621 0.42875 0.11901 0.0
C2215 C 0.24411 0.42151 0.12007 0.0
C2216 C 0.244 0.43414 0.12382 0.0
C2217 C 0.22894 0.45953 0.15126 0.0
C2218 C 0.23389 0.46929 0.14399 0.0
C2219 C 0.22898 0.47181 0.15587 0.0
C2220 C 0.22736 0.46449 0.15675 0.0
C2221 C 0.23221 0.47432 0.14946 0.0
C2222 C 0.23227 0.46195 0.14489 0.0
C2223 C 0.22678 0.45196 0.15223 0.0
O2224 O 0.2197 0.43184 0.14602 0.0
O2225 O 0.22893 0.42986 0.15317 0.0
O2226 O 0.23191 0.44747 0.15423 0.0
O2227 O 0.22252 0.4493 0.14721 0.0
H2228 H 0.22031 0.43742 0.16264 0.0
H2229 H 0.21158 0.43642 0.17253 0.0
H2230 H 0.20414 0.41605 0.16385 0.0
H2231 H 0.21289 0.41712 0.15394 0.0
H2232 H 0.23805 0.41429 0.12705 0.0
H2233 H 0.23423 0.42379 0.1355 0.0
H2234 H 0.2496 0.43024 0.11449 0.0
H2235 H 0.24567 0.43967 0.12287 0.0
H2236 H 0.23644 0.47103 0.13902 0.0
H2237 H 0.2275 0.47553 0.16014 0.0
H2238 H 0.22476 0.46272 0.16169 0.0
H2239 H 0.23353 0.45817 0.14059 0.0
C2240 C 0.84598 0.57568 0.78464 0.0
C2241 C 0.84071 0.57022 0.78464 0.0
C2242 C 0.83441 0.57611 0.79459 0.0
C2243 C 0.83497 0.57045 0.78953 0.0
C2244 C 0.83965 0.58163 0.79449 0.0
C2245 C 0.84538 0.58141 0.78955 0.0
U2246 U 0.85844 0.56415 0.77337 0.0
O2247 O 0.8637 0.56597 0.76288 0.0
O2248 O 0.8703 0.56397 0.77253 0.0
C2249 C 0.87023 0.56579 0.76566 0.0
C2250 C 0.85233 0.57515 0.77988 0.0
C2251 C 0.87503 0.57182 0.76368 0.0
C2252 C 0.87749 0.58467 0.76254 0.0
C2253 C 0.8728 0.57903 0.76441 0.0
C2254 C 0.88667 0.57593 0.75926 0.0
C2255 C 0.8845 0.58318 0.75997 0.0
C2256 C 0.88197 0.57031 0.7611 0.0
C2257 C 0.85393 0.54378 0.77294 0.0
C2258 C 0.86208 0.53392 0.76996 0.0
C2259 C 0.84932 0.53156 0.77173 0.0
C2260 C 0.84815 0.5389 0.77305 0.0
C2261 C 0.85632 0.52896 0.77028 0.0
C2262 C 0.86089 0.54128 0.77127 0.0
C2263 C 0.85259 0.55133 0.77505 0.0
O2264 O 0.85779 0.57156 0.78265 0.0
O2265 O 0.85097 0.5734 0.77313 0.0
O2266 O 0.85072 0.55578 0.76984 0.0
O2267 O 0.85724 0.55414 0.77962 0.0
H2268 H 0.84111 0.56571 0.78092 0.0
H2269 H 0.83099 0.56617 0.78938 0.0
H2270 H 0.83945 0.58601 0.79836 0.0
H2271 H 0.84944 0.58563 0.78968 0.0
H2272 H 0.87568 0.5902 0.76322 0.0
H2273 H 0.86746 0.5803 0.76645 0.0
H2274 H 0.89199 0.57459 0.75721 0.0
H2275 H 0.88378 0.56477 0.7605 0.0
H2276 H 0.86752 0.5321 0.76879 0.0
H2277 H 0.84478 0.5279 0.77212 0.0
H2278 H 0.84274 0.54073 0.77435 0.0
H2279 H 0.86542 0.54499 0.77114 0.0
C2280 C 0.42792 0.8461 0.78534 0.0
C2281 C 0.43337 0.84085 0.78578 0.0
C2282 C 0.42676 0.8346 0.79529 0.0
C2283 C 0.43279 0.83513 0.79068 0.0
C2284 C 0.42129 0.83986 0.79479 0.0
C2285 C 0.42186 0.84555 0.78985 0.0
U2286 U 0.43989 0.85811 0.77398 0.0
O2287 O 0.43824 0.86319 0.76336 0.0
O2288 O 0.4403 0.86994 0.77289 0.0
C2289 C 0.43857 0.86978 0.76601 0.0
C2290 C 0.4287 0.85234 0.78048 0.0
C2291 C 0.43271 0.87469 0.76383 0.0
C2292 C 0.41997 0.87784 0.76311 0.0
C2293 C 0.42544 0.87302 0.76518 0.0
C2294 C 0.42903 0.88603 0.75837 0.0
C2295 C 0.42171 0.88442 0.75972 0.0
C2296 C 0.43446 0.8812 0.76041 0.0
C2297 C 0.46017 0.85336 0.77367 0.0
C2298 C 0.47024 0.86142 0.77117 0.0
C2299 C 0.47222 0.84849 0.7718 0.0
C2300 C 0.46487 0.84744 0.77318 0.0
C2301 C 0.47502 0.85551 0.77091 0.0
C2302 C 0.46287 0.86036 0.77252 0.0
C2303 C 0.45262 0.8521 0.77581 0.0
O2304 O 0.43239 0.85777 0.7832 0.0
O2305 O 0.43051 0.85081 0.77378 0.0
O2306 O 0.44815 0.85018 0.77063 0.0
O2307 O 0.44983 0.85683 0.78032 0.0
H2308 H 0.43814 0.84123 0.78239 0.0
H2309 H 0.43714 0.83123 0.791 0.0
H2310 H 0.41655 0.83956 0.79823 0.0
H2311 H 0.41762 0.84958 0.78961 0.0
H2312 H 0.41441 0.87647 0.76428 0.0
H2313 H 0.424 0.86801 0.76785 0.0
H2314 H 0.43055 0.89099 0.75567 0.0
H2315 H 0.44005 0.88257 0.75932 0.0
H2316 H 0.47222 0.86688 0.77042 0.0
H2317 H 0.47575 0.84383 0.77173 0.0
H2318 H 0.46289 0.842 0.77407 0.0
H2319 H 0.45932 0.865 0.77284 0.0
C2320 C 0.15818 0.42711 0.78449 0.0
C2321 C 0.16354 0.43247 0.78457 0.0
C2322 C 0.16967 0.42637 0.79451 0.0
C2323 C 0.16925 0.43209 0.7895 0.0
C2324 C 0.16431 0.42097 0.79434 0.0
C2325 C 0.15862 0.42134 0.78937 0.0
U2326 U 0.14609 0.43889 0.77307 0.0
O2327 O 0.14118 0.43726 0.76237 0.0
O2328 O 0.13427 0.43915 0.77183 0.0
C2329 C 0.13456 0.43749 0.76493 0.0
C2330 C 0.15193 0.42775 0.77961 0.0
C2331 C 0.12977 0.4316 0.76261 0.0
C2332 C 0.12644 0.41889 0.76237 0.0
C2333 C 0.13109 0.42441 0.76465 0.0
C2334 C 0.11913 0.42771 0.75602 0.0
C2335 C 0.1204 0.42048 0.75801 0.0
C2336 C 0.12377 0.4332 0.7583 0.0
C2337 C 0.1508 0.45926 0.77278 0.0
C2338 C 0.14362 0.47028 0.77283 0.0
C2339 C 0.15589 0.47051 0.76829 0.0
C2340 C 0.15655 0.46312 0.76971 0.0
C2341 C 0.14947 0.47422 0.76999 0.0
C2342 C 0.14427 0.46287 0.77421 0.0
C2343 C 0.15197 0.45166 0.77496 0.0
O2344 O 0.14644 0.43138 0.78229 0.0
O2345 O 0.15345 0.42955 0.7729 0.0
O2346 O 0.15403 0.44718 0.76985 0.0
O2347 O 0.14722 0.44884 0.77943 0.0
H2348 H 0.16327 0.437 0.78087 0.0
H2349 H 0.17332 0.43628 0.78939 0.0
H2350 H 0.1644 0.41655 0.79817 0.0
H2351 H 0.15448 0.4172 0.78942 0.0
H2352 H 0.12762 0.41338 0.76395 0.0
H2353 H 0.13572 0.42309 0.76798 0.0
H2354 H 0.11447 0.42914 0.75278 0.0
H2355 H 0.12266 0.43873 0.7567 0.0
H2356 H 0.13862 0.47297 0.77427 0.0
H2357 H 0.16046 0.47333 0.76597 0.0
H2358 H 0.16163 0.46045 0.76855 0.0
H2359 H 0.13973 0.46004 0.77658 0.0
C2360 C 0.57488 0.15679 0.786 0.0
C2361 C 0.56851 0.15986 0.78874 0.0
C2362 C 0.57556 0.16822 0.79606 0.0
C2363 C 0.56885 0.1655 0.79374 0.0
C2364 C 0.58193 0.16522 0.79317 0.0
C2365 C 0.58159 0.15953 0.78819 0.0
U2366 U 0.56355 0.14469 0.77419 0.0
O2367 O 0.56551 0.13985 0.76351 0.0
O2368 O 0.56341 0.13288 0.77287 0.0
C2369 C 0.56522 0.13321 0.76601 0.0
C2370 C 0.57448 0.15065 0.78096 0.0
C2371 C 0.57112 0.12837 0.7638 0.0
C2372 C 0.58387 0.12529 0.76306 0.0
C2373 C 0.57839 0.1301 0.7651 0.0
C2374 C 0.57485 0.11702 0.7584 0.0
C2375 C 0.58216 0.11867 0.75973 0.0
C2376 C 0.5694 0.12183 0.76042 0.0
C2377 C 0.54314 0.14892 0.77363 0.0
C2378 C 0.53267 0.14104 0.77251 0.0
C2379 C 0.53156 0.15378 0.76976 0.0
C2380 C 0.53888 0.15477 0.77136 0.0
C2381 C 0.52834 0.14693 0.77044 0.0
C2382 C 0.54001 0.14201 0.77407 0.0
C2383 C 0.55064 0.1503 0.77594 0.0
O2384 O 0.57097 0.145 0.78346 0.0
O2385 O 0.5727 0.15231 0.77429 0.0
O2386 O 0.55515 0.15247 0.7709 0.0
O2387 O 0.5535 0.14558 0.78043 0.0
H2388 H 0.56328 0.15783 0.78707 0.0
H2389 H 0.56385 0.16777 0.79577 0.0
H2390 H 0.58718 0.16716 0.79489 0.0
H2391 H 0.58655 0.15722 0.78612 0.0
H2392 H 0.58944 0.1267 0.7642 0.0
H2393 H 0.5798 0.13513 0.76774 0.0
H2394 H 0.57335 0.11202 0.75575 0.0
H2395 H 0.56381 0.12041 0.75936 0.0
H2396 H 0.53037 0.13568 0.77301 0.0
H2397 H 0.52836 0.15845 0.76827 0.0
H2398 H 0.54117 0.16014 0.77102 0.0
H2399 H 0.54319 0.1374 0.77575 0.0
C2400 C 0.84584 0.42703 0.21766 0.0
C2401 C 0.84051 0.43241 0.21743 0.0
C2402 C 0.83461 0.42631 0.20736 0.0
C2403 C 0.83493 0.43204 0.21236 0.0
C2404 C 0.83991 0.42087 0.2077 0.0
C2405 C 0.84548 0.42123 0.21281 0.0
U2406 U 0.85756 0.43886 0.22936 0.0
O2407 O 0.86225 0.43725 0.24016 0.0
O2408 O 0.86934 0.43924 0.23087 0.0
C2409 C 0.86893 0.4375 0.23774 0.0
C2410 C 0.85198 0.42768 0.22267 0.0
C2411 C 0.87364 0.43153 0.24003 0.0
C2412 C 0.8769 0.4188 0.23997 0.0
C2413 C 0.8723 0.42441 0.23779 0.0
C2414 C 0.88418 0.4274 0.24665 0.0
C2415 C 0.8829 0.42023 0.24443 0.0
C2416 C 0.87959 0.43298 0.24447 0.0
C2417 C 0.85246 0.4591 0.22937 0.0
C2418 C 0.8597 0.46889 0.23429 0.0
C2419 C 0.84782 0.47136 0.22936 0.0
C2420 C 0.84696 0.46404 0.22777 0.0
C2421 C 0.85422 0.4739 0.2326 0.0
C2422 C 0.85883 0.46154 0.2327 0.0
C2423 C 0.8515 0.45151 0.22724 0.0
O2424 O 0.8575 0.43136 0.22012 0.0
O2425 O 0.85031 0.42944 0.22935 0.0
O2426 O 0.84946 0.44705 0.23237 0.0
O2427 O 0.85652 0.44883 0.223 0.0
H2428 H 0.84072 0.43696 0.22111 0.0
H2429 H 0.83088 0.43627 0.21233 0.0
H2430 H 0.83989 0.41643 0.20388 0.0
H2431 H 0.84959 0.41706 0.21287 0.0
H2432 H 0.87571 0.41335 0.23822 0.0
H2433 H 0.86771 0.42319 0.23436 0.0
H2434 H 0.88881 0.42871 0.24998 0.0
H2435 H 0.88071 0.43846 0.24622 0.0
H2436 H 0.86467 0.47066 0.23684 0.0
H2437 H 0.84354 0.47506 0.22786 0.0
H2438 H 0.84203 0.46225 0.22517 0.0
H2439 H 0.86313 0.45778 0.23397 0.0
C2440 C 0.5753 0.84563 0.21758 0.0
C2441 C 0.56895 0.8428 0.21456 0.0
C2442 C 0.576 0.83436 0.20733 0.0
C2443 C 0.56929 0.83723 0.20948 0.0
C2444 C 0.58235 0.83713 0.21048 0.0
C2445 C 0.582 0.84274 0.21555 0.0
U2446 U 0.56379 0.85814 0.22869 0.0
O2447 O 0.56507 0.86255 0.23966 0.0
O2448 O 0.56426 0.86988 0.23037 0.0
C2449 C 0.5655 0.86925 0.23734 0.0
C2450 C 0.57489 0.85166 0.22272 0.0
C2451 C 0.57163 0.87349 0.24007 0.0
C2452 C 0.58449 0.87613 0.24045 0.0
C2453 C 0.57875 0.87181 0.23807 0.0
C2454 C 0.57605 0.88377 0.24691 0.0
C2455 C 0.5832 0.88219 0.24487 0.0
C2456 C 0.57032 0.87946 0.24453 0.0
C2457 C 0.5432 0.85509 0.22701 0.0
C2458 C 0.53364 0.85931 0.23499 0.0
C2459 C 0.53071 0.85487 0.22303 0.0
C2460 C 0.53802 0.85356 0.22171 0.0
C2461 C 0.52842 0.85773 0.22969 0.0
C2462 C 0.54099 0.85802 0.23366 0.0
C2463 C 0.55081 0.85339 0.22547 0.0
O2464 O 0.57198 0.85759 0.22011 0.0
O2465 O 0.57242 0.84997 0.22917 0.0
O2466 O 0.55468 0.85083 0.23086 0.0
O2467 O 0.55429 0.85816 0.22152 0.0
H2468 H 0.56372 0.84494 0.2161 0.0
H2469 H 0.5643 0.83515 0.20725 0.0
H2470 H 0.5876 0.83507 0.2089 0.0
H2471 H 0.58696 0.84487 0.21783 0.0
H2472 H 0.58994 0.87471 0.23884 0.0
H2473 H 0.57985 0.86721 0.23461 0.0
H2474 H 0.57483 0.88845 0.2502 0.0
H2475 H 0.56485 0.88085 0.24608 0.0
H2476 H 0.53205 0.86156 0.24015 0.0
H2477 H 0.52683 0.85348 0.21887 0.0
H2478 H 0.53963 0.85127 0.21657 0.0
H2479 H 0.54492 0.85927 0.23781 0.0
C2480 C 0.15765 0.57691 0.21742 0.0
C2481 C 0.16284 0.5714 0.21694 0.0
C2482 C 0.16927 0.5781 0.20762 0.0
C2483 C 0.16862 0.57201 0.21211 0.0
C2484 C 0.16409 0.58364 0.20816 0.0
C2485 C 0.15833 0.58305 0.21303 0.0
U2486 U 0.14512 0.56458 0.22768 0.0
O2487 O 0.13994 0.56552 0.23834 0.0
O2488 O 0.13327 0.56441 0.22859 0.0
C2489 C 0.13339 0.56557 0.2356 0.0
C2490 C 0.15131 0.57606 0.22214 0.0
C2491 C 0.12858 0.57136 0.23816 0.0
C2492 C 0.12557 0.58408 0.23955 0.0
C2493 C 0.13035 0.57867 0.23723 0.0
C2494 C 0.11725 0.57488 0.24374 0.0
C2495 C 0.11893 0.58223 0.24278 0.0
C2496 C 0.12202 0.5695 0.24145 0.0
C2497 C 0.14938 0.54423 0.22617 0.0
C2498 C 0.14414 0.53454 0.23333 0.0
C2499 C 0.15088 0.53175 0.22245 0.0
C2500 C 0.15212 0.5391 0.22133 0.0
C2501 C 0.14687 0.52937 0.22846 0.0
C2502 C 0.14536 0.54193 0.23218 0.0
C2503 C 0.1508 0.55192 0.22475 0.0
O2504 O 0.14578 0.5728 0.21911 0.0
O2505 O 0.15267 0.57371 0.22871 0.0
O2506 O 0.15277 0.55587 0.23032 0.0
O2507 O 0.14614 0.55516 0.22051 0.0
H2508 H 0.16236 0.56657 0.22021 0.0
H2509 H 0.17246 0.5676 0.21175 0.0
H2510 H 0.16447 0.58842 0.20481 0.0
H2511 H 0.15434 0.58733 0.2133 0.0
H2512 H 0.127 0.58968 0.23868 0.0
H2513 H 0.13539 0.5802 0.23466 0.0
H2514 H 0.11224 0.57327 0.2463 0.0
H2515 H 0.12058 0.56388 0.24221 0.0
H2516 H 0.14099 0.53287 0.23797 0.0
H2517 H 0.15315 0.52791 0.21866 0.0
H2518 H 0.15525 0.54078 0.21668 0.0
H2519 H 0.14316 0.54583 0.23595 0.0
C2520 C 0.42675 0.15675 0.21793 0.0
C2521 C 0.43185 0.16236 0.21774 0.0
C2522 C 0.42549 0.16796 0.20767 0.0
C2523 C 0.43121 0.16793 0.21268 0.0
C2524 C 0.42037 0.16234 0.20791 0.0
C2525 C 0.42099 0.15679 0.21302 0.0
U2526 U 0.43883 0.1452 0.22968 0.0
O2527 O 0.43724 0.1406 0.24053 0.0
O2528 O 0.43922 0.13343 0.23129 0.0
C2529 C 0.43747 0.13391 0.23816 0.0
C2530 C 0.4276 0.15068 0.22299 0.0
C2531 C 0.43147 0.12925 0.24047 0.0
C2532 C 0.41871 0.12611 0.24045 0.0
C2533 C 0.42435 0.13065 0.23825 0.0
C2534 C 0.42726 0.11875 0.24711 0.0
C2535 C 0.4201 0.12009 0.24491 0.0
C2536 C 0.43288 0.12329 0.24491 0.0
C2537 C 0.45906 0.15021 0.2297 0.0
C2538 C 0.46878 0.14286 0.23461 0.0
C2539 C 0.47135 0.15479 0.22986 0.0
C2540 C 0.46404 0.15571 0.22821 0.0
C2541 C 0.47383 0.14834 0.23303 0.0
C2542 C 0.46145 0.1438 0.23297 0.0
C2543 C 0.4515 0.15123 0.22751 0.0
O2544 O 0.43131 0.14518 0.22046 0.0
O2545 O 0.4294 0.15244 0.22964 0.0
O2546 O 0.44702 0.15333 0.23261 0.0
O2547 O 0.44879 0.14619 0.2233 0.0
H2548 H 0.4364 0.16237 0.22143 0.0
H2549 H 0.43529 0.17212 0.21256 0.0
H2550 H 0.41588 0.16224 0.20416 0.0
H2551 H 0.41702 0.15249 0.21306 0.0
H2552 H 0.41326 0.12735 0.23871 0.0
H2553 H 0.42317 0.13524 0.23482 0.0
H2554 H 0.42854 0.11411 0.25044 0.0
H2555 H 0.43835 0.12212 0.24665 0.0
H2556 H 0.4705 0.13786 0.23711 0.0
H2557 H 0.47508 0.15907 0.22845 0.0
H2558 H 0.46229 0.16068 0.22566 0.0
H2559 H 0.45766 0.1395 0.23416 0.0
C2560 C 0.78565 0.84566 0.5749 0.0
C2561 C 0.7857 0.84042 0.56941 0.0
C2562 C 0.79568 0.83416 0.5753 0.0
C2563 C 0.79064 0.83471 0.56963 0.0
C2564 C 0.79553 0.83938 0.58084 0.0
C2565 C 0.79056 0.84508 0.58063 0.0
U2566 U 0.77399 0.85808 0.56364 0.0
O2567 O 0.76348 0.8632 0.56577 0.0
O2568 O 0.77301 0.86993 0.56361 0.0
C2569 C 0.76619 0.86977 0.56558 0.0
C2570 C 0.78081 0.85194 0.57444 0.0
C2571 C 0.76427 0.87452 0.57166 0.0
C2572 C 0.76286 0.87677 0.58453 0.0
C2573 C 0.76471 0.87213 0.57885 0.0
C2574 C 0.7602 0.88625 0.57589 0.0
C2575 C 0.76061 0.8839 0.58311 0.0
C2576 C 0.76201 0.8816 0.57023 0.0
C2577 C 0.77294 0.85391 0.54322 0.0
C2578 C 0.77182 0.86189 0.53283 0.0
C2579 C 0.76896 0.84917 0.53163 0.0
C2580 C 0.7706 0.84812 0.53893 0.0
C2581 C 0.76969 0.85604 0.52846 0.0
C2582 C 0.7734 0.86085 0.54015 0.0
C2583 C 0.77533 0.85245 0.55068 0.0
O2584 O 0.78344 0.85745 0.57082 0.0
O2585 O 0.77404 0.85051 0.57281 0.0
O2586 O 0.7703 0.85042 0.55527 0.0
O2587 O 0.77999 0.85704 0.55347 0.0
H2588 H 0.78198 0.84081 0.56491 0.0
H2589 H 0.79052 0.83074 0.56533 0.0
H2590 H 0.7994 0.8392 0.58523 0.0
H2591 H 0.79064 0.84911 0.58488 0.0
H2592 H 0.7633 0.87483 0.59003 0.0
H2593 H 0.76649 0.86668 0.58006 0.0
H2594 H 0.7584 0.89167 0.57461 0.0
H2595 H 0.76163 0.88353 0.56471 0.0
H2596 H 0.77235 0.86726 0.53055 0.0
H2597 H 0.76742 0.84454 0.5284 0.0
H2598 H 0.77022 0.84273 0.54118 0.0
H2599 H 0.77515 0.86542 0.54335 0.0
C2600 C 0.78441 0.15833 0.42808 0.0
C2601 C 0.78477 0.16351 0.43361 0.0
C2602 C 0.79454 0.16972 0.42733 0.0
C2603 C 0.78975 0.16917 0.43321 0.0
C2604 C 0.79407 0.16457 0.42174 0.0
C2605 C 0.78904 0.15892 0.42213 0.0
U2606 U 0.77381 0.14569 0.44002 0.0
O2607 O 0.76304 0.14077 0.43886 0.0
O2608 O 0.77263 0.13387 0.43984 0.0
C2609 C 0.76565 0.13417 0.43859 0.0
C2610 C 0.77956 0.15207 0.42875 0.0
C2611 C 0.7631 0.1297 0.43254 0.0
C2612 C 0.76269 0.1269 0.41972 0.0
C2613 C 0.76499 0.13135 0.42539 0.0
C2614 C 0.75656 0.11915 0.42831 0.0
C2615 C 0.75847 0.12072 0.42112 0.0
C2616 C 0.75886 0.1236 0.43396 0.0
C2617 C 0.77525 0.1494 0.46051 0.0
C2618 C 0.76754 0.14482 0.47013 0.0
C2619 C 0.77915 0.15015 0.47301 0.0
C2620 C 0.7804 0.15141 0.46568 0.0
C2621 C 0.7727 0.14686 0.47533 0.0
C2622 C 0.76881 0.14605 0.46276 0.0
C2623 C 0.77675 0.15095 0.45286 0.0
O2624 O 0.78246 0.1464 0.43189 0.0
O2625 O 0.773 0.15349 0.43109 0.0
O2626 O 0.77127 0.15316 0.44891 0.0
O2627 O 0.78092 0.14627 0.44953 0.0
H2628 H 0.78127 0.16312 0.43829 0.0
H2629 H 0.78987 0.1731 0.43755 0.0
H2630 H 0.79773 0.16476 0.41718 0.0
H2631 H 0.78889 0.15493 0.41785 0.0
H2632 H 0.76419 0.12831 0.41424 0.0
H2633 H 0.76827 0.13605 0.4242 0.0
H2634 H 0.75342 0.11438 0.4296 0.0
H2635 H 0.75739 0.12223 0.43946 0.0
H2636 H 0.76255 0.14223 0.47175 0.0
H2637 H 0.78318 0.1519 0.47687 0.0
H2638 H 0.78538 0.15401 0.46404 0.0
H2639 H 0.76478 0.14443 0.45884 0.0
C2640 C 0.84684 0.7862 0.42605 0.0
C2641 C 0.84116 0.78616 0.43108 0.0
C2642 C 0.8356 0.79647 0.42508 0.0
C2643 C 0.83557 0.79122 0.43058 0.0
C2644 C 0.84127 0.79645 0.42001 0.0
C2645 C 0.84683 0.79135 0.42049 0.0
U2646 U 0.85846 0.77432 0.43792 0.0
O2647 O 0.86344 0.76369 0.43607 0.0
O2648 O 0.87028 0.77307 0.4385 0.0
C2649 C 0.87005 0.76624 0.43658 0.0
C2650 C 0.85298 0.78122 0.42682 0.0
C2651 C 0.87504 0.76415 0.43076 0.0
C2652 C 0.87813 0.76312 0.41802 0.0
C2653 C 0.87325 0.76514 0.42345 0.0
C2654 C 0.88663 0.75917 0.42717 0.0
C2655 C 0.8849 0.76013 0.41983 0.0
C2656 C 0.88175 0.76115 0.43257 0.0
C2657 C 0.85334 0.77351 0.45816 0.0
C2658 C 0.86037 0.77323 0.46927 0.0
C2659 C 0.84804 0.76886 0.46925 0.0
C2660 C 0.8475 0.77044 0.46188 0.0
C2661 C 0.85443 0.77039 0.47308 0.0
C2662 C 0.85984 0.77476 0.46189 0.0
C2663 C 0.8523 0.77588 0.4506 0.0
O2664 O 0.85839 0.78374 0.43067 0.0
O2665 O 0.85133 0.77449 0.42841 0.0
O2666 O 0.85035 0.77087 0.44595 0.0
O2667 O 0.85709 0.78043 0.44799 0.0
H2668 H 0.84111 0.78229 0.43548 0.0
H2669 H 0.83133 0.79116 0.43462 0.0
H2670 H 0.84141 0.80038 0.41568 0.0
H2671 H 0.85119 0.79149 0.41658 0.0
H2672 H 0.87666 0.76399 0.41243 0.0
H2673 H 0.8681 0.76748 0.42196 0.0
H2674 H 0.89175 0.75679 0.42874 0.0
H2675 H 0.88322 0.76034 0.43818 0.0
H2676 H 0.86536 0.77454 0.47205 0.0
H2677 H 0.8434 0.76655 0.47197 0.0
H2678 H 0.84243 0.76942 0.45913 0.0
H2679 H 0.86445 0.77713 0.45916 0.0
C2680 C 0.21792 0.84608 0.42665 0.0
C2681 C 0.21739 0.84074 0.432 0.0
C2682 C 0.20796 0.83464 0.42514 0.0
C2683 C 0.21248 0.83505 0.43124 0.0
C2684 C 0.20855 0.83999 0.41977 0.0
C2685 C 0.2135 0.84566 0.42051 0.0
U2686 U 0.22842 0.85821 0.43922 0.0
O2687 O 0.23922 0.86313 0.43837 0.0
O2688 O 0.22963 0.87002 0.43954 0.0
C2689 C 0.23663 0.86975 0.43837 0.0
C2690 C 0.22277 0.85231 0.42764 0.0
C2691 C 0.2393 0.87451 0.4326 0.0
C2692 C 0.24 0.87798 0.41994 0.0
C2693 C 0.2376 0.87322 0.42532 0.0
C2694 C 0.24586 0.8853 0.42908 0.0
C2695 C 0.24411 0.88412 0.42177 0.0
C2696 C 0.24347 0.88055 0.43443 0.0
C2697 C 0.22677 0.85371 0.45952 0.0
C2698 C 0.23405 0.8586 0.46931 0.0
C2699 C 0.22298 0.85213 0.47198 0.0
C2700 C 0.22184 0.85103 0.4646 0.0
C2701 C 0.22909 0.85593 0.47443 0.0
C2702 C 0.23288 0.85752 0.4619 0.0
C2703 C 0.22533 0.85243 0.45181 0.0
O2704 O 0.21985 0.85785 0.43098 0.0
O2705 O 0.2293 0.85076 0.42999 0.0
O2706 O 0.23086 0.85039 0.44784 0.0
O2707 O 0.22121 0.85725 0.44862 0.0
H2708 H 0.22068 0.84103 0.43684 0.0
H2709 H 0.21208 0.83108 0.43553 0.0
H2710 H 0.20518 0.83979 0.41499 0.0
H2711 H 0.21382 0.84976 0.41635 0.0
H2712 H 0.23851 0.87694 0.41438 0.0
H2713 H 0.23435 0.86858 0.42382 0.0
H2714 H 0.24911 0.88991 0.43066 0.0
H2715 H 0.24485 0.88161 0.44002 0.0
H2716 H 0.23878 0.86159 0.47103 0.0
H2717 H 0.21912 0.8499 0.47577 0.0
H2718 H 0.21711 0.84806 0.46286 0.0
H2719 H 0.23673 0.85967 0.45804 0.0
C2720 C 0.15622 0.2176 0.42826 0.0
C2721 C 0.15902 0.21436 0.43452 0.0
C2722 C 0.16773 0.20763 0.4273 0.0
C2723 C 0.1647 0.20941 0.43404 0.0
C2724 C 0.16494 0.21095 0.42104 0.0
C2725 C 0.15923 0.21589 0.42153 0.0
U2726 U 0.14414 0.22935 0.43975 0.0
O2727 O 0.13972 0.24025 0.43799 0.0
O2728 O 0.13238 0.23106 0.43958 0.0
C2729 C 0.13299 0.23795 0.43796 0.0
C2730 C 0.15017 0.22272 0.42877 0.0
C2731 C 0.12851 0.24046 0.43191 0.0
C2732 C 0.12544 0.24057 0.41913 0.0
C2733 C 0.12986 0.23818 0.4248 0.0
C2734 C 0.11833 0.24754 0.42764 0.0
C2735 C 0.11961 0.24528 0.42049 0.0
C2736 C 0.12274 0.24515 0.43329 0.0
C2737 C 0.14802 0.22939 0.46027 0.0
C2738 C 0.14021 0.23015 0.47083 0.0
C2739 C 0.15283 0.23346 0.4718 0.0
C2740 C 0.1538 0.23191 0.46448 0.0
C2741 C 0.14605 0.23248 0.47509 0.0
C2742 C 0.14117 0.22864 0.46347 0.0
C2743 C 0.14942 0.22716 0.45274 0.0
O2744 O 0.14442 0.22025 0.43213 0.0
O2745 O 0.15194 0.22931 0.43076 0.0
O2746 O 0.15186 0.2322 0.44836 0.0
O2747 O 0.14461 0.2229 0.4497 0.0
H2748 H 0.15676 0.21563 0.43978 0.0
H2749 H 0.16663 0.20689 0.43896 0.0
H2750 H 0.16721 0.20979 0.41578 0.0
H2751 H 0.15716 0.21838 0.41665 0.0
H2752 H 0.12661 0.23878 0.41369 0.0
H2753 H 0.13431 0.23455 0.42365 0.0
H2754 H 0.11383 0.25106 0.42891 0.0
H2755 H 0.12161 0.24693 0.43875 0.0
H2756 H 0.1349 0.22941 0.47319 0.0
H2757 H 0.15746 0.23516 0.47495 0.0
H2758 H 0.15914 0.23249 0.46213 0.0
H2759 H 0.1366 0.22675 0.46035 0.0
C2760 C 0.21742 0.15632 0.57571 0.0
C2761 C 0.21692 0.16156 0.57024 0.0
C2762 C 0.20726 0.16765 0.5768 0.0
C2763 C 0.21191 0.16719 0.5708 0.0
C2764 C 0.20781 0.1624 0.58228 0.0
C2765 C 0.21286 0.15679 0.58173 0.0
U2766 U 0.22924 0.14445 0.56397 0.0
O2767 O 0.24 0.13977 0.56583 0.0
O2768 O 0.23072 0.13266 0.56385 0.0
C2769 C 0.23757 0.13309 0.56566 0.0
C2770 C 0.22245 0.15021 0.57501 0.0
C2771 C 0.2398 0.12848 0.57173 0.0
C2772 C 0.23973 0.12548 0.58452 0.0
C2773 C 0.23758 0.12998 0.57882 0.0
C2774 C 0.24633 0.11796 0.57607 0.0
C2775 C 0.24413 0.11941 0.58321 0.0
C2776 C 0.24418 0.12245 0.57039 0.0
C2777 C 0.22976 0.1489 0.54359 0.0
C2778 C 0.2309 0.14118 0.53299 0.0
C2779 C 0.23363 0.15395 0.53209 0.0
C2780 C 0.23203 0.15481 0.53942 0.0
C2781 C 0.23296 0.14715 0.52876 0.0
C2782 C 0.22934 0.14204 0.54035 0.0
C2783 C 0.22743 0.15015 0.55111 0.0
O2784 O 0.21991 0.14467 0.57135 0.0
O2785 O 0.22912 0.1519 0.57323 0.0
O2786 O 0.23243 0.15236 0.55564 0.0
O2787 O 0.22301 0.14534 0.55391 0.0
H2788 H 0.22034 0.16124 0.5655 0.0
H2789 H 0.21155 0.17109 0.56645 0.0
H2790 H 0.20436 0.16264 0.58699 0.0
H2791 H 0.21316 0.15277 0.58599 0.0
H2792 H 0.238 0.1268 0.58995 0.0
H2793 H 0.2342 0.13462 0.57994 0.0
H2794 H 0.24961 0.11327 0.57484 0.0
H2795 H 0.24591 0.1212 0.56494 0.0
H2796 H 0.23041 0.13587 0.5306 0.0
H2797 H 0.23513 0.15867 0.52897 0.0
H2798 H 0.23236 0.16015 0.5418 0.0
H2799 H 0.22765 0.13737 0.54345 0.0
C2800 C 0.84567 0.21755 0.57517 0.0
C2801 C 0.84244 0.21501 0.5688 0.0
C2802 C 0.83423 0.2075 0.57582 0.0
C2803 C 0.83679 0.21002 0.56912 0.0
C2804 C 0.83739 0.21018 0.5822 0.0
C2805 C 0.84309 0.21515 0.58187 0.0
U2806 U 0.85772 0.22929 0.56378 0.0
O2807 O 0.86261 0.23996 0.56565 0.0
O2808 O 0.86953 0.23056 0.56351 0.0
C2809 C 0.86924 0.23742 0.56534 0.0
C2810 C 0.85183 0.22256 0.57477 0.0
C2811 C 0.87411 0.23958 0.57123 0.0
C2812 C 0.87705 0.24059 0.584 0.0
C2813 C 0.87223 0.2386 0.57851 0.0
C2814 C 0.88567 0.24453 0.57496 0.0
C2815 C 0.88386 0.24353 0.58228 0.0
C2816 C 0.88085 0.24257 0.5695 0.0
C2817 C 0.85322 0.22965 0.54344 0.0
C2818 C 0.86125 0.23354 0.5338 0.0
C2819 C 0.84877 0.23056 0.53114 0.0
C2820 C 0.84759 0.22903 0.53844 0.0
C2821 C 0.85564 0.23274 0.52871 0.0
C2822 C 0.86004 0.23202 0.54112 0.0
C2823 C 0.85192 0.22744 0.55096 0.0
O2824 O 0.85745 0.22005 0.57122 0.0
O2825 O 0.85018 0.22924 0.573 0.0
O2826 O 0.84987 0.23257 0.55543 0.0
O2827 O 0.85672 0.22302 0.55376 0.0
H2828 H 0.84435 0.21683 0.56357 0.0
H2829 H 0.8344 0.20814 0.56412 0.0
H2830 H 0.83558 0.2083 0.58744 0.0
H2831 H 0.84553 0.21706 0.58684 0.0
H2832 H 0.87552 0.2397 0.58958 0.0
H2833 H 0.86705 0.23625 0.57994 0.0
H2834 H 0.89082 0.24688 0.57345 0.0
H2835 H 0.88239 0.24338 0.56391 0.0
H2836 H 0.86658 0.23527 0.53211 0.0
H2837 H 0.84437 0.22978 0.52737 0.0
H2838 H 0.84229 0.22719 0.54014 0.0
H2839 H 0.86445 0.23256 0.54493 0.0
C2840 C 0.15673 0.78649 0.57501 0.0
C2841 C 0.15965 0.78962 0.56875 0.0
C2842 C 0.16841 0.79627 0.576 0.0
C2843 C 0.16542 0.79448 0.56924 0.0
C2844 C 0.1655 0.79304 0.58225 0.0
C2845 C 0.15971 0.7882 0.58175 0.0
U2846 U 0.14457 0.77486 0.5635 0.0
O2847 O 0.13973 0.76416 0.56537 0.0
O2848 O 0.13276 0.77355 0.56337 0.0
C2849 C 0.13309 0.76668 0.56513 0.0
C2850 C 0.15056 0.78152 0.57449 0.0
C2851 C 0.12828 0.76443 0.57104 0.0
C2852 C 0.12521 0.76374 0.5838 0.0
C2853 C 0.12997 0.76584 0.5783 0.0
C2854 C 0.11705 0.75881 0.57482 0.0
C2855 C 0.11866 0.76024 0.58212 0.0
C2856 C 0.12181 0.76088 0.56935 0.0
C2857 C 0.14888 0.77439 0.54308 0.0
C2858 C 0.14106 0.77334 0.53255 0.0
C2859 C 0.15381 0.77055 0.53152 0.0
C2860 C 0.15474 0.77212 0.53885 0.0
C2861 C 0.14698 0.77126 0.52826 0.0
C2862 C 0.14199 0.77486 0.53991 0.0
C2863 C 0.15021 0.77666 0.55061 0.0
O2864 O 0.14494 0.78408 0.57097 0.0
O2865 O 0.15218 0.77485 0.57265 0.0
O2866 O 0.15236 0.77159 0.55509 0.0
O2867 O 0.14548 0.78113 0.55347 0.0
H2868 H 0.15742 0.78836 0.56348 0.0
H2869 H 0.16743 0.79693 0.56432 0.0
H2870 H 0.16774 0.79421 0.58754 0.0
H2871 H 0.15754 0.7858 0.58663 0.0
H2872 H 0.12658 0.76498 0.58936 0.0
H2873 H 0.13494 0.76861 0.57969 0.0
H2874 H 0.11212 0.75603 0.57334 0.0
H2875 H 0.12043 0.75973 0.56378 0.0
H2876 H 0.13572 0.77385 0.53021 0.0
H2877 H 0.15849 0.76905 0.52835 0.0
H2878 H 0.1601 0.77175 0.54118 0.0
H2879 H 0.13736 0.77656 0.54306 0.0
C2880 C 0.4275 0.21693 0.15794 0.0
C2881 C 0.4336 0.21298 0.16009 0.0
C2882 C 0.4264 0.20649 0.16898 0.0
C2883 C 0.43305 0.20778 0.16554 0.0
C2884 C 0.42033 0.21056 0.16691 0.0
C2885 C 0.42087 0.21574 0.1614 0.0
U2886 U 0.43931 0.22839 0.14598 0.0
O2887 O 0.43909 0.23036 0.13428 0.0
O2888 O 0.43808 0.23947 0.14181 0.0
C2889 C 0.43779 0.2373 0.13505 0.0
C2890 C 0.42807 0.22227 0.15207 0.0
C2891 C 0.4317 0.24007 0.13077 0.0
C2892 C 0.41884 0.24057 0.12811 0.0
C2893 C 0.42455 0.23816 0.13245 0.0
C2894 C 0.42737 0.24687 0.12042 0.0
C2895 C 0.42019 0.24492 0.12201 0.0
C2896 C 0.43306 0.24447 0.12477 0.0
C2897 C 0.45981 0.22657 0.14954 0.0
C2898 C 0.46935 0.23366 0.14393 0.0
C2899 C 0.47236 0.22325 0.1513 0.0
C2900 C 0.46503 0.22203 0.15258 0.0
C2901 C 0.47462 0.22906 0.14694 0.0
C2902 C 0.46198 0.2324 0.1452 0.0
C2903 C 0.45216 0.22503 0.15098 0.0
O2904 O 0.43051 0.22865 0.15401 0.0
O2905 O 0.43109 0.21983 0.14612 0.0
O2906 O 0.44879 0.22122 0.14603 0.0
O2907 O 0.44827 0.23041 0.15352 0.0
H2908 H 0.43879 0.21388 0.15753 0.0
H2909 H 0.43785 0.20481 0.1671 0.0
H2910 H 0.41513 0.20965 0.16943 0.0
H2911 H 0.41611 0.21876 0.15982 0.0
H2912 H 0.41338 0.23903 0.12954 0.0
H2913 H 0.42341 0.23476 0.13708 0.0
H2914 H 0.42862 0.25011 0.11571 0.0
H2915 H 0.43855 0.24595 0.12337 0.0
H2916 H 0.47092 0.23815 0.14052 0.0
H2917 H 0.47628 0.21969 0.1538 0.0
H2918 H 0.46344 0.21752 0.15596 0.0
H2919 H 0.458 0.23595 0.14279 0.0
C2920 C 0.78647 0.42748 0.15661 0.0
C2921 C 0.78957 0.43379 0.15944 0.0
C2922 C 0.79674 0.42665 0.16784 0.0
C2923 C 0.79466 0.43338 0.16499 0.0
C2924 C 0.79352 0.42034 0.16507 0.0
C2925 C 0.78843 0.42075 0.15948 0.0
U2926 U 0.77546 0.43923 0.14426 0.0
O2927 O 0.77374 0.43894 0.13252 0.0
O2928 O 0.76446 0.43816 0.13987 0.0
C2929 C 0.76675 0.43782 0.13315 0.0
C2930 C 0.78131 0.42797 0.15059 0.0
C2931 C 0.76388 0.43184 0.12879 0.0
C2932 C 0.76314 0.41905 0.12587 0.0
C2933 C 0.76573 0.42464 0.13028 0.0
C2934 C 0.7568 0.42783 0.1185 0.0
C2935 C 0.75866 0.42059 0.11991 0.0
C2936 C 0.75938 0.43339 0.1229 0.0
C2937 C 0.77742 0.45973 0.14769 0.0
C2938 C 0.76998 0.46936 0.14272 0.0
C2939 C 0.78118 0.47224 0.14886 0.0
C2940 C 0.78238 0.4649 0.15011 0.0
C2941 C 0.77497 0.47456 0.14515 0.0
C2942 C 0.77121 0.46198 0.14395 0.0
C2943 C 0.77886 0.45208 0.14924 0.0
O2944 O 0.77489 0.43048 0.15232 0.0
O2945 O 0.78394 0.43091 0.14468 0.0
O2946 O 0.78274 0.44863 0.14439 0.0
O2947 O 0.77341 0.44825 0.15172 0.0
H2948 H 0.78808 0.43904 0.15731 0.0
H2949 H 0.79695 0.43835 0.16707 0.0
H2950 H 0.79504 0.41507 0.16713 0.0
H2951 H 0.78609 0.41583 0.15735 0.0
H2952 H 0.76462 0.41354 0.12715 0.0
H2953 H 0.7692 0.42335 0.13481 0.0
H2954 H 0.75347 0.42923 0.1139 0.0
H2955 H 0.75794 0.43893 0.12166 0.0
H2956 H 0.76517 0.47098 0.1398 0.0
H2957 H 0.78506 0.4761 0.15092 0.0
H2958 H 0.78719 0.46326 0.15303 0.0
H2959 H 0.76733 0.45805 0.14202 0.0
C2960 C 0.57579 0.785 0.15779 0.0
C2961 C 0.57044 0.78505 0.16316 0.0
C2962 C 0.57644 0.79509 0.16922 0.0
C2963 C 0.57078 0.79002 0.16884 0.0
C2964 C 0.58186 0.79493 0.16387 0.0
C2965 C 0.58153 0.78992 0.1582 0.0
U2966 U 0.564 0.77345 0.14589 0.0
O2967 O 0.56346 0.77235 0.13406 0.0
O2968 O 0.56572 0.76285 0.1408 0.0
C2969 C 0.56534 0.76551 0.13421 0.0
C2970 C 0.57514 0.78014 0.15153 0.0
C2971 C 0.57127 0.7635 0.12932 0.0
C2972 C 0.58408 0.76244 0.12659 0.0
C2973 C 0.57853 0.7643 0.13138 0.0
C2974 C 0.57518 0.75902 0.11762 0.0
C2975 C 0.58247 0.75981 0.11964 0.0
C2976 C 0.56964 0.76084 0.12242 0.0
C2977 C 0.54382 0.77302 0.15119 0.0
C2978 C 0.53405 0.76808 0.14392 0.0
C2979 C 0.53155 0.77296 0.15582 0.0
C2980 C 0.53887 0.77457 0.15669 0.0
C2981 C 0.52903 0.76973 0.14941 0.0
C2982 C 0.5414 0.7697 0.14482 0.0
C2983 C 0.55138 0.7752 0.15216 0.0
O2984 O 0.5735 0.77339 0.15304 0.0
O2985 O 0.57136 0.78278 0.14613 0.0
O2986 O 0.55396 0.77964 0.14726 0.0
O2987 O 0.55594 0.77005 0.15397 0.0
H2988 H 0.56594 0.78131 0.16291 0.0
H2989 H 0.56658 0.78991 0.17291 0.0
H2990 H 0.58624 0.79881 0.16393 0.0
H2991 H 0.58566 0.79 0.15406 0.0
H2992 H 0.58964 0.76318 0.12828 0.0
H2993 H 0.57989 0.7664 0.13668 0.0
H2994 H 0.57375 0.75692 0.11235 0.0
H2995 H 0.56407 0.76019 0.12074 0.0
H2996 H 0.5323 0.76554 0.13895 0.0
H2997 H 0.52784 0.77443 0.1601 0.0
H2998 H 0.54064 0.77717 0.16163 0.0
H2999 H 0.54517 0.76846 0.14051 0.0
C3000 C 0.21787 0.5756 0.15745 0.0
C3001 C 0.21451 0.56942 0.16028 0.0
C3002 C 0.20799 0.57681 0.16902 0.0
C3003 C 0.2096 0.57002 0.16599 0.0
C3004 C 0.21145 0.58298 0.1662 0.0
C3005 C 0.21634 0.58237 0.16046 0.0
U3006 U 0.22949 0.56395 0.14534 0.0
O3007 O 0.23101 0.56402 0.13355 0.0
O3008 O 0.2403 0.56574 0.14072 0.0
C3009 C 0.23789 0.56573 0.13404 0.0
C3010 C 0.22292 0.57498 0.15135 0.0
C3011 C 0.24021 0.57184 0.12952 0.0
C3012 C 0.24021 0.58465 0.12665 0.0
C3013 C 0.23804 0.57893 0.1311 0.0
C3014 C 0.24672 0.57623 0.11902 0.0
C3015 C 0.24457 0.58337 0.12054 0.0
C3016 C 0.24456 0.57053 0.12347 0.0
C3017 C 0.22966 0.54347 0.14942 0.0
C3018 C 0.23046 0.53288 0.14166 0.0
C3019 C 0.23364 0.53194 0.15432 0.0
C3020 C 0.2321 0.53928 0.15525 0.0
C3021 C 0.23272 0.52863 0.14754 0.0
C3022 C 0.22897 0.54024 0.14258 0.0
C3023 C 0.22744 0.55101 0.15077 0.0
O3024 O 0.22952 0.57302 0.15306 0.0
O3025 O 0.22037 0.57155 0.14568 0.0
O3026 O 0.2231 0.55398 0.146 0.0
O3027 O 0.23251 0.55542 0.15309 0.0
H3028 H 0.21564 0.56413 0.15803 0.0
H3029 H 0.20697 0.56517 0.16794 0.0
H3030 H 0.21042 0.58828 0.16846 0.0
H3031 H 0.21892 0.58719 0.15836 0.0
H3032 H 0.23851 0.59008 0.12802 0.0
H3033 H 0.23468 0.58003 0.13577 0.0
H3034 H 0.24997 0.57503 0.11431 0.0
H3035 H 0.24625 0.56508 0.12216 0.0
H3036 H 0.22977 0.5305 0.13635 0.0
H3037 H 0.23528 0.5288 0.15898 0.0
H3038 H 0.23264 0.54164 0.16058 0.0
H3039 H 0.22713 0.54336 0.13798 0.0
C3040 C 0.42812 0.78605 0.84558 0.0
C3041 C 0.43438 0.78925 0.84276 0.0
C3042 C 0.42717 0.79592 0.83398 0.0
C3043 C 0.43391 0.79416 0.83703 0.0
C3044 C 0.42091 0.79262 0.8368 0.0
C3045 C 0.42139 0.78773 0.84255 0.0
U3046 U 0.43964 0.77447 0.85776 0.0
O3047 O 0.43957 0.77295 0.86954 0.0
O3048 O 0.43792 0.76365 0.86237 0.0
C3049 C 0.43791 0.76606 0.86906 0.0
C3050 C 0.42862 0.781 0.85169 0.0
C3051 C 0.43183 0.76369 0.87358 0.0
C3052 C 0.41905 0.76381 0.87663 0.0
C3053 C 0.42475 0.76601 0.87216 0.0
C3054 C 0.42747 0.75694 0.88394 0.0
C3055 C 0.42035 0.75926 0.88259 0.0
C3056 C 0.43314 0.75914 0.87947 0.0
C3057 C 0.46009 0.7746 0.85367 0.0
C3058 C 0.4698 0.77104 0.86178 0.0
C3059 C 0.47239 0.77366 0.84922 0.0
C3060 C 0.46509 0.7751 0.84801 0.0
C3061 C 0.47486 0.7717 0.85614 0.0
C3062 C 0.46246 0.77246 0.86055 0.0
C3063 C 0.45255 0.7767 0.8523 0.0
O3064 O 0.43061 0.77439 0.85 0.0
O3065 O 0.43199 0.78354 0.85741 0.0
O3066 O 0.44957 0.78095 0.85715 0.0
O3067 O 0.44823 0.77154 0.85004 0.0
H3068 H 0.43963 0.78801 0.84503 0.0
H3069 H 0.43883 0.79666 0.83509 0.0
H3070 H 0.41564 0.79377 0.83452 0.0
H3071 H 0.4165 0.78527 0.84464 0.0
H3072 H 0.41363 0.76564 0.87539 0.0
H3073 H 0.42364 0.76954 0.86761 0.0
H3074 H 0.42869 0.75353 0.88854 0.0
H3075 H 0.43858 0.75733 0.88066 0.0
H3076 H 0.47151 0.76947 0.86716 0.0
H3077 H 0.47615 0.77434 0.84478 0.0
H3078 H 0.46336 0.77676 0.84267 0.0
H3079 H 0.45867 0.77202 0.86499 0.0
C3080 C 0.21781 0.42768 0.84513 0.0
C3081 C 0.21484 0.43394 0.84207 0.0
C3082 C 0.20809 0.42667 0.83341 0.0
C3083 C 0.21002 0.43345 0.83628 0.0
C3084 C 0.21113 0.4204 0.83649 0.0
C3085 C 0.21595 0.42091 0.8423 0.0
U3086 U 0.22838 0.43956 0.85775 0.0
O3087 O 0.22987 0.43926 0.86953 0.0
O3088 O 0.23931 0.43859 0.86237 0.0
C3089 C 0.23688 0.4382 0.86903 0.0
C3090 C 0.22277 0.42826 0.8513 0.0
C3091 C 0.23973 0.43223 0.87342 0.0
C3092 C 0.24031 0.41946 0.87647 0.0
C3093 C 0.23772 0.42504 0.87206 0.0
C3094 C 0.24699 0.42821 0.88357 0.0
C3095 C 0.24496 0.42098 0.88231 0.0
C3096 C 0.2444 0.43376 0.87917 0.0
C3097 C 0.22648 0.46005 0.85433 0.0
C3098 C 0.23397 0.46964 0.85931 0.0
C3099 C 0.22271 0.47257 0.85328 0.0
C3100 C 0.2215 0.46524 0.85199 0.0
C3101 C 0.22897 0.47486 0.85694 0.0
C3102 C 0.23272 0.46227 0.85804 0.0
C3103 C 0.22505 0.45241 0.85272 0.0
O3104 O 0.22922 0.43081 0.84974 0.0
O3105 O 0.21995 0.43122 0.85711 0.0
O3106 O 0.22107 0.44895 0.85748 0.0
O3107 O 0.23054 0.44859 0.85033 0.0
H3108 H 0.2162 0.43922 0.8442 0.0
H3109 H 0.2077 0.43838 0.83415 0.0
H3110 H 0.20983 0.41511 0.83436 0.0
H3111 H 0.21822 0.41602 0.84459 0.0
H3112 H 0.2387 0.41396 0.8753 0.0
H3113 H 0.23412 0.42377 0.86762 0.0
H3114 H 0.25046 0.4296 0.88808 0.0
H3115 H 0.24597 0.43929 0.88031 0.0
H3116 H 0.23881 0.47124 0.86219 0.0
H3117 H 0.21882 0.47645 0.85128 0.0
H3118 H 0.21666 0.46362 0.8491 0.0
H3119 H 0.23662 0.45833 0.85991 0.0
C3120 C 0.57555 0.21801 0.84522 0.0
C3121 C 0.57021 0.21796 0.83983 0.0
C3122 C 0.57616 0.20785 0.83384 0.0
C3123 C 0.57054 0.21296 0.83418 0.0
C3124 C 0.58157 0.20801 0.8392 0.0
C3125 C 0.58126 0.21305 0.84484 0.0
U3126 U 0.56362 0.2287 0.85777 0.0
O3127 O 0.56365 0.22988 0.86959 0.0
O3128 O 0.56477 0.23947 0.86269 0.0
C3129 C 0.56488 0.23687 0.8693 0.0
C3130 C 0.57491 0.22287 0.85149 0.0
C3131 C 0.57073 0.2395 0.87399 0.0
C3132 C 0.58337 0.23982 0.87756 0.0
C3133 C 0.57795 0.23747 0.87283 0.0
C3134 C 0.57442 0.24631 0.88457 0.0
C3135 C 0.58165 0.24422 0.88353 0.0
C3136 C 0.56902 0.24397 0.87985 0.0
C3137 C 0.54317 0.22732 0.85386 0.0
C3138 C 0.53353 0.23498 0.85847 0.0
C3139 C 0.53067 0.22344 0.85298 0.0
C3140 C 0.538 0.2222 0.85175 0.0
C3141 C 0.52833 0.22984 0.85635 0.0
C3142 C 0.5409 0.23371 0.85726 0.0
C3143 C 0.55083 0.2258 0.85237 0.0
O3144 O 0.57264 0.22946 0.85006 0.0
O3145 O 0.57172 0.22 0.85714 0.0
O3146 O 0.5541 0.22162 0.85708 0.0
O3147 O 0.55481 0.23127 0.85021 0.0
H3148 H 0.56572 0.22171 0.84006 0.0
H3149 H 0.56635 0.21308 0.8301 0.0
H3150 H 0.58592 0.2041 0.83917 0.0
H3151 H 0.58539 0.21296 0.84899 0.0
H3152 H 0.58888 0.23807 0.87664 0.0
H3153 H 0.57936 0.234 0.86833 0.0
H3154 H 0.57292 0.24978 0.88904 0.0
H3155 H 0.56347 0.2456 0.8808 0.0
H3156 H 0.5319 0.23994 0.86112 0.0
H3157 H 0.52681 0.21943 0.85118 0.0
H3158 H 0.53965 0.21724 0.8491 0.0
H3159 H 0.54482 0.23771 0.85896 0.0
C3160 C 0.78601 0.57459 0.8451 0.0
C3161 C 0.78904 0.56824 0.84229 0.0
C3162 C 0.79619 0.57527 0.83377 0.0
C3163 C 0.79409 0.56857 0.83669 0.0
C3164 C 0.79303 0.58162 0.83652 0.0
C3165 C 0.78799 0.58128 0.84216 0.0
U3166 U 0.77486 0.56316 0.85767 0.0
O3167 O 0.77324 0.56365 0.86942 0.0
O3168 O 0.76392 0.56455 0.86214 0.0
C3169 C 0.76628 0.56496 0.86883 0.0
C3170 C 0.7809 0.5742 0.85116 0.0
C3171 C 0.76363 0.57111 0.87309 0.0
C3172 C 0.76329 0.58398 0.87568 0.0
C3173 C 0.76562 0.57822 0.87136 0.0
C3174 C 0.75691 0.57557 0.88343 0.0
C3175 C 0.75894 0.58272 0.8818 0.0
C3176 C 0.75924 0.56983 0.87911 0.0
C3177 C 0.77632 0.54253 0.85455 0.0
C3178 C 0.7681 0.5329 0.85809 0.0
C3179 C 0.78041 0.53007 0.85463 0.0
C3180 C 0.78176 0.53739 0.85345 0.0
C3181 C 0.77355 0.52772 0.85691 0.0
C3182 C 0.76948 0.54026 0.85694 0.0
C3183 C 0.77791 0.55015 0.85289 0.0
O3184 O 0.77442 0.5718 0.8495 0.0
O3185 O 0.78352 0.57126 0.85707 0.0
O3186 O 0.78192 0.55358 0.85764 0.0
O3187 O 0.77256 0.55408 0.85036 0.0
H3188 H 0.78754 0.56301 0.84448 0.0
H3189 H 0.79633 0.56357 0.83462 0.0
H3190 H 0.79457 0.58686 0.83442 0.0
H3191 H 0.7857 0.58624 0.84427 0.0
H3192 H 0.76488 0.58942 0.87423 0.0
H3193 H 0.76902 0.5793 0.86672 0.0
H3194 H 0.75367 0.57438 0.88816 0.0
H3195 H 0.75769 0.56437 0.88055 0.0
H3196 H 0.76278 0.53126 0.85991 0.0
H3197 H 0.78469 0.52622 0.85355 0.0
H3198 H 0.78706 0.53904 0.85158 0.0
H3199 H 0.7652 0.54415 0.85785 0.0
C3200 C 0.15683 0.42817 0.21743 0.0
C3201 C 0.15976 0.43439 0.21424 0.0
C3202 C 0.16836 0.42703 0.2075 0.0
C3203 C 0.16545 0.43382 0.20931 0.0
C3204 C 0.16543 0.42081 0.21079 0.0
C3205 C 0.15971 0.42139 0.21571 0.0
U3206 U 0.14485 0.43993 0.22899 0.0
O3207 O 0.13308 0.43996 0.23061 0.0
O3208 O 0.14032 0.43836 0.23987 0.0
C3209 C 0.13362 0.43839 0.23752 0.0
C3210 C 0.15076 0.42878 0.22252 0.0
C3211 C 0.12905 0.4324 0.24002 0.0
C3212 C 0.12589 0.41965 0.24023 0.0
C3213 C 0.1304 0.42526 0.23787 0.0
C3214 C 0.11869 0.42829 0.24693 0.0
C3215 C 0.11997 0.4211 0.24479 0.0
C3216 C 0.12318 0.43388 0.24457 0.0
C3217 C 0.14909 0.46034 0.22868 0.0
C3218 C 0.14101 0.47035 0.23136 0.0
C3219 C 0.15388 0.47245 0.23026 0.0
C3220 C 0.15497 0.46511 0.2289 0.0
C3221 C 0.14688 0.47519 0.2314 0.0
C3222 C 0.14211 0.46298 0.23004 0.0
C3223 C 0.15039 0.45277 0.22662 0.0
O3224 O 0.15252 0.43082 0.2291 0.0
O3225 O 0.14506 0.43218 0.21999 0.0
O3226 O 0.14551 0.44978 0.22241 0.0
O3227 O 0.15268 0.44846 0.23179 0.0
H3228 H 0.15759 0.43968 0.21551 0.0
H3229 H 0.16748 0.43871 0.20681 0.0
H3230 H 0.1676 0.41551 0.20961 0.0
H3231 H 0.15753 0.41654 0.21816 0.0
H3232 H 0.12708 0.41418 0.23854 0.0
H3233 H 0.13492 0.42403 0.23435 0.0
H3234 H 0.11412 0.42963 0.25033 0.0
H3235 H 0.12205 0.43937 0.24625 0.0
H3236 H 0.13556 0.47227 0.2323 0.0
H3237 H 0.15852 0.47603 0.23014 0.0
H3238 H 0.1604 0.46318 0.22785 0.0
H3239 H 0.1375 0.45937 0.22993 0.0
C3240 C 0.57425 0.15719 0.21703 0.0
C3241 C 0.56781 0.15999 0.21417 0.0
C3242 C 0.57464 0.16859 0.20691 0.0
C3243 C 0.568 0.16563 0.20914 0.0
C3244 C 0.58108 0.16584 0.20989 0.0
C3245 C 0.58088 0.16017 0.2149 0.0
U3246 U 0.56349 0.14492 0.2293 0.0
O3247 O 0.5639 0.13319 0.231 0.0
O3248 O 0.56592 0.14053 0.24011 0.0
C3249 C 0.56598 0.13382 0.23777 0.0
C3250 C 0.57405 0.15115 0.22218 0.0
C3251 C 0.5723 0.12945 0.2399 0.0
C3252 C 0.58376 0.12365 0.23712 0.0
C3253 C 0.578 0.12811 0.23507 0.0
C3254 C 0.57831 0.12202 0.24891 0.0
C3255 C 0.58396 0.12052 0.24405 0.0
C3256 C 0.57253 0.12643 0.24684 0.0
C3257 C 0.54288 0.1485 0.23016 0.0
C3258 C 0.53238 0.14063 0.23103 0.0
C3259 C 0.5314 0.15323 0.23445 0.0
C3260 C 0.5387 0.15424 0.23279 0.0
C3261 C 0.52811 0.14645 0.23345 0.0
C3262 C 0.5397 0.14164 0.22942 0.0
C3263 C 0.55033 0.14998 0.22769 0.0
O3264 O 0.57231 0.1529 0.22884 0.0
O3265 O 0.57068 0.14534 0.21986 0.0
O3266 O 0.55326 0.14522 0.2233 0.0
O3267 O 0.55485 0.15246 0.23258 0.0
H3268 H 0.56263 0.15779 0.2158 0.0
H3269 H 0.56295 0.1677 0.20704 0.0
H3270 H 0.58627 0.16796 0.20824 0.0
H3271 H 0.5859 0.15807 0.21706 0.0
H3272 H 0.58807 0.12266 0.23328 0.0
H3273 H 0.57796 0.13044 0.2297 0.0
H3274 H 0.57827 0.11964 0.25426 0.0
H3275 H 0.56818 0.12741 0.25065 0.0
H3276 H 0.53002 0.13533 0.23029 0.0
H3277 H 0.52825 0.15784 0.23621 0.0
H3278 H 0.54102 0.15959 0.23336 0.0
H3279 H 0.54281 0.1371 0.22743 0.0
C3280 C 0.84624 0.57512 0.21723 0.0
C3281 C 0.84109 0.56958 0.2167 0.0
C3282 C 0.83483 0.57615 0.20717 0.0
C3283 C 0.83541 0.5701 0.21174 0.0
C3284 C 0.83999 0.5817 0.20774 0.0
C3285 C 0.84565 0.58119 0.21274 0.0
U3286 U 0.85826 0.56342 0.2289 0.0
O3287 O 0.87006 0.56336 0.23036 0.0
O3288 O 0.86295 0.5652 0.23968 0.0
C3289 C 0.86963 0.56506 0.23724 0.0
C3290 C 0.85239 0.57445 0.22222 0.0
C3291 C 0.87428 0.57103 0.23962 0.0
C3292 C 0.87751 0.58377 0.23976 0.0
C3293 C 0.87297 0.57817 0.23742 0.0
C3294 C 0.88468 0.57512 0.24648 0.0
C3295 C 0.88342 0.58231 0.24433 0.0
C3296 C 0.88016 0.56955 0.24415 0.0
C3297 C 0.85398 0.543 0.22933 0.0
C3298 C 0.86178 0.53246 0.23037 0.0
C3299 C 0.84907 0.5315 0.23334 0.0
C3300 C 0.84814 0.53881 0.23171 0.0
C3301 C 0.85588 0.52821 0.23257 0.0
C3302 C 0.86085 0.5398 0.22879 0.0
C3303 C 0.85265 0.55052 0.22702 0.0
O3304 O 0.85075 0.57263 0.22889 0.0
O3305 O 0.85795 0.57087 0.21964 0.0
O3306 O 0.85743 0.55339 0.22261 0.0
O3307 O 0.85042 0.55502 0.23205 0.0
H3308 H 0.8415 0.5648 0.22007 0.0
H3309 H 0.83158 0.56569 0.21136 0.0
H3310 H 0.83965 0.58645 0.20434 0.0
H3311 H 0.84959 0.5855 0.21306 0.0
H3312 H 0.87635 0.58924 0.23805 0.0
H3313 H 0.86844 0.57941 0.23392 0.0
H3314 H 0.88925 0.57377 0.24989 0.0
H3315 H 0.88126 0.56406 0.24587 0.0
H3316 H 0.86711 0.5301 0.2298 0.0
H3317 H 0.8444 0.52836 0.23494 0.0
H3318 H 0.84279 0.54116 0.23214 0.0
H3319 H 0.86548 0.54292 0.227 0.0
C3320 C 0.428 0.84594 0.2167 0.0
C3321 C 0.43424 0.84376 0.21299 0.0
C3322 C 0.42731 0.83478 0.20634 0.0
C3323 C 0.4339 0.83825 0.20783 0.0
C3324 C 0.42108 0.83688 0.21017 0.0
C3325 C 0.42143 0.84244 0.21529 0.0
U3326 U 0.43921 0.85767 0.22901 0.0
O3327 O 0.43912 0.86939 0.23095 0.0
O3328 O 0.43724 0.86189 0.23995 0.0
C3329 C 0.4373 0.86866 0.23777 0.0
C3330 C 0.42835 0.85184 0.22202 0.0
C3331 C 0.43118 0.87312 0.24015 0.0
C3332 C 0.41838 0.87608 0.24001 0.0
C3333 C 0.42411 0.87163 0.23785 0.0
C3334 C 0.42675 0.88351 0.24682 0.0
C3335 C 0.41964 0.88209 0.24451 0.0
C3336 C 0.43245 0.87906 0.24466 0.0
C3337 C 0.45967 0.85361 0.22911 0.0
C3338 C 0.46928 0.86161 0.23314 0.0
C3339 C 0.47196 0.84916 0.23008 0.0
C3340 C 0.46468 0.84799 0.22848 0.0
C3341 C 0.47437 0.85601 0.23234 0.0
C3342 C 0.46197 0.86042 0.23155 0.0
C3343 C 0.45217 0.85231 0.22683 0.0
O3344 O 0.43021 0.84988 0.22859 0.0
O3345 O 0.43173 0.85768 0.21979 0.0
O3346 O 0.44925 0.8573 0.2227 0.0
O3347 O 0.44775 0.84986 0.23183 0.0
H3348 H 0.43939 0.84634 0.21406 0.0
H3349 H 0.4388 0.83668 0.20505 0.0
H3350 H 0.41592 0.83433 0.2091 0.0
H3351 H 0.41656 0.84404 0.21813 0.0
H3352 H 0.41297 0.87479 0.2382 0.0
H3353 H 0.42304 0.86706 0.23435 0.0
H3354 H 0.42794 0.88815 0.25018 0.0
H3355 H 0.43789 0.88031 0.24645 0.0
H3356 H 0.47095 0.86692 0.23494 0.0
H3357 H 0.47574 0.84476 0.22929 0.0
H3358 H 0.463 0.84271 0.22658 0.0
H3359 H 0.45816 0.86482 0.2321 0.0
C3360 C 0.15726 0.57522 0.78681 0.0
C3361 C 0.16018 0.56881 0.78961 0.0
C3362 C 0.16871 0.57573 0.79686 0.0
C3363 C 0.16584 0.56906 0.7946 0.0
C3364 C 0.16585 0.58214 0.79393 0.0
C3365 C 0.16015 0.58188 0.78896 0.0
U3366 U 0.1449 0.56413 0.77501 0.0
O3367 O 0.1331 0.56433 0.77364 0.0
O3368 O 0.14018 0.56618 0.7643 0.0
C3369 C 0.13352 0.56615 0.76679 0.0
C3370 C 0.15113 0.57493 0.78176 0.0
C3371 C 0.12891 0.57226 0.76462 0.0
C3372 C 0.12672 0.58514 0.76319 0.0
C3373 C 0.13131 0.57943 0.76513 0.0
C3374 C 0.1173 0.57654 0.76025 0.0
C3375 C 0.11964 0.58375 0.76078 0.0
C3376 C 0.1219 0.57085 0.76215 0.0
C3377 C 0.14861 0.5435 0.77473 0.0
C3378 C 0.14484 0.53135 0.77809 0.0
C3379 C 0.15012 0.53348 0.76632 0.0
C3380 C 0.15082 0.54083 0.76796 0.0
C3381 C 0.14722 0.52864 0.7714 0.0
C3382 C 0.14556 0.53868 0.77974 0.0
C3383 C 0.1501 0.55106 0.77692 0.0
O3384 O 0.15278 0.57306 0.77511 0.0
O3385 O 0.14538 0.57158 0.78425 0.0
O3386 O 0.14539 0.55407 0.78131 0.0
O3387 O 0.15248 0.55551 0.77191 0.0
H3388 H 0.15804 0.56361 0.78798 0.0
H3389 H 0.168 0.56403 0.79667 0.0
H3390 H 0.16791 0.58736 0.7956 0.0
H3391 H 0.15795 0.58688 0.78684 0.0
H3392 H 0.12866 0.59064 0.76372 0.0
H3393 H 0.13671 0.58062 0.76708 0.0
H3394 H 0.11192 0.57528 0.75832 0.0
H3395 H 0.11995 0.56535 0.76172 0.0
H3396 H 0.14269 0.52775 0.78218 0.0
H3397 H 0.15195 0.53157 0.76109 0.0
H3398 H 0.15325 0.54437 0.76399 0.0
H3399 H 0.14391 0.54054 0.78505 0.0
C3400 C 0.42757 0.15681 0.78707 0.0
C3401 C 0.43393 0.15968 0.79005 0.0
C3402 C 0.42688 0.168 0.7974 0.0
C3403 C 0.43358 0.16521 0.79518 0.0
C3404 C 0.42052 0.16519 0.79431 0.0
C3405 C 0.42087 0.15962 0.7892 0.0
U3406 U 0.43904 0.1454 0.7748 0.0
O3407 O 0.43927 0.1337 0.77278 0.0
O3408 O 0.43728 0.14121 0.76382 0.0
C3409 C 0.43753 0.13443 0.76593 0.0
C3410 C 0.428 0.15091 0.78177 0.0
C3411 C 0.43159 0.1298 0.76341 0.0
C3412 C 0.41887 0.1265 0.76317 0.0
C3413 C 0.42442 0.13108 0.76553 0.0
C3414 C 0.42763 0.11936 0.75654 0.0
C3415 C 0.42041 0.12057 0.75864 0.0
C3416 C 0.43315 0.12393 0.7589 0.0
C3417 C 0.45935 0.1502 0.77489 0.0
C3418 C 0.46903 0.14304 0.76961 0.0
C3419 C 0.47163 0.15478 0.77481 0.0
C3420 C 0.46434 0.15563 0.77654 0.0
C3421 C 0.47408 0.14846 0.77135 0.0
C3422 C 0.46171 0.14391 0.77136 0.0
C3423 C 0.4518 0.15117 0.77712 0.0
O3424 O 0.42979 0.15289 0.77519 0.0
O3425 O 0.43153 0.14516 0.784 0.0
O3426 O 0.44906 0.146 0.78115 0.0
O3427 O 0.44733 0.1535 0.77212 0.0
H3428 H 0.43916 0.15762 0.78842 0.0
H3429 H 0.43858 0.16733 0.79736 0.0
H3430 H 0.41527 0.16721 0.79595 0.0
H3431 H 0.41591 0.15748 0.78693 0.0
H3432 H 0.41338 0.12763 0.76483 0.0
H3433 H 0.42313 0.1356 0.76903 0.0
H3434 H 0.42904 0.11478 0.75317 0.0
H3435 H 0.43866 0.12285 0.75725 0.0
H3436 H 0.47073 0.13814 0.7669 0.0
H3437 H 0.47538 0.15901 0.77634 0.0
H3438 H 0.46262 0.16051 0.7793 0.0
H3439 H 0.4579 0.13967 0.77002 0.0
C3440 C 0.84641 0.42771 0.78679 0.0
C3441 C 0.84426 0.43375 0.79085 0.0
C3442 C 0.83519 0.42651 0.79705 0.0
C3443 C 0.83873 0.43315 0.79595 0.0
C3444 C 0.83727 0.4205 0.79288 0.0
C3445 C 0.84286 0.4211 0.7878 0.0
U3446 U 0.85841 0.43962 0.77547 0.0
O3447 O 0.87012 0.43949 0.77356 0.0
O3448 O 0.86265 0.43845 0.76441 0.0
C3449 C 0.86941 0.43827 0.7666 0.0
C3450 C 0.85232 0.42834 0.78152 0.0
C3451 C 0.87387 0.43237 0.76372 0.0
C3452 C 0.87751 0.41974 0.76351 0.0
C3453 C 0.8729 0.4252 0.76601 0.0
C3454 C 0.88401 0.42856 0.75633 0.0
C3455 C 0.88319 0.42138 0.75871 0.0
C3456 C 0.8794 0.43399 0.75882 0.0
C3457 C 0.85486 0.4601 0.77719 0.0
C3458 C 0.85959 0.46961 0.76945 0.0
C3459 C 0.85385 0.47266 0.78081 0.0
C3460 C 0.85262 0.46534 0.78216 0.0
C3461 C 0.85733 0.47489 0.77444 0.0
C3462 C 0.85839 0.46225 0.77083 0.0
C3463 C 0.85336 0.45246 0.77879 0.0
O3464 O 0.85043 0.43078 0.77512 0.0
O3465 O 0.85824 0.43138 0.78402 0.0
O3466 O 0.85829 0.4491 0.78265 0.0
O3467 O 0.85082 0.44854 0.77344 0.0
H3468 H 0.84689 0.43893 0.79008 0.0
H3469 H 0.83717 0.4379 0.79899 0.0
H3470 H 0.83467 0.41531 0.79364 0.0
H3471 H 0.84443 0.41639 0.7847 0.0
H3472 H 0.87677 0.41429 0.76549 0.0
H3473 H 0.86866 0.42386 0.76982 0.0
H3474 H 0.88824 0.42999 0.75254 0.0
H3475 H 0.88021 0.43949 0.75699 0.0
H3476 H 0.86234 0.47115 0.76451 0.0
H3477 H 0.85193 0.47658 0.78471 0.0
H3478 H 0.84988 0.46377 0.78709 0.0
H3479 H 0.86019 0.45827 0.76694 0.0
C3480 C 0.57677 0.84536 0.78455 0.0
C3481 C 0.57149 0.83992 0.78461 0.0
C3482 C 0.57751 0.83399 0.79471 0.0
C3483 C 0.57188 0.83427 0.7896 0.0
C3484 C 0.58288 0.83938 0.79452 0.0
C3485 C 0.58251 0.84502 0.78948 0.0
U3486 U 0.56452 0.85774 0.77408 0.0
O3487 O 0.56423 0.86958 0.77311 0.0
O3488 O 0.56549 0.86288 0.7634 0.0
C3489 C 0.56546 0.86945 0.76612 0.0
C3490 C 0.57599 0.85167 0.77976 0.0
C3491 C 0.57123 0.87428 0.76359 0.0
C3492 C 0.58391 0.87762 0.76276 0.0
C3493 C 0.57853 0.8728 0.76503 0.0
C3494 C 0.57474 0.8854 0.75758 0.0
C3495 C 0.58207 0.88401 0.75906 0.0
C3496 C 0.56938 0.88058 0.75983 0.0
C3497 C 0.54419 0.85318 0.7756 0.0
C3498 C 0.53437 0.85853 0.7687 0.0
C3499 C 0.53175 0.85121 0.77924 0.0
C3500 C 0.53913 0.85008 0.78029 0.0
C3501 C 0.52927 0.85546 0.77345 0.0
C3502 C 0.54179 0.85742 0.76978 0.0
C3503 C 0.55191 0.85191 0.77699 0.0
O3504 O 0.57373 0.85027 0.77316 0.0
O3505 O 0.57268 0.85721 0.78271 0.0
O3506 O 0.55508 0.85666 0.78121 0.0
O3507 O 0.55589 0.85001 0.77141 0.0
H3508 H 0.56697 0.84011 0.78089 0.0
H3509 H 0.56771 0.83016 0.78951 0.0
H3510 H 0.58724 0.83939 0.79842 0.0
H3511 H 0.58659 0.84921 0.78956 0.0
H3512 H 0.5895 0.87642 0.76404 0.0
H3513 H 0.58004 0.86796 0.76796 0.0
H3514 H 0.57314 0.89021 0.75465 0.0
H3515 H 0.56377 0.8818 0.75867 0.0
H3516 H 0.53262 0.86186 0.76421 0.0
H3517 H 0.52798 0.84868 0.78293 0.0
H3518 H 0.5409 0.84678 0.7848 0.0
H3519 H 0.54563 0.85988 0.76612 0.0
C3520 C 0.21681 0.15785 0.42767 0.0
C3521 C 0.21631 0.16307 0.43315 0.0
C3522 C 0.20664 0.16917 0.42662 0.0
C3523 C 0.2113 0.1687 0.43262 0.0
C3524 C 0.20718 0.16393 0.42113 0.0
C3525 C 0.21224 0.15832 0.42165 0.0
U3526 U 0.22866 0.14622 0.43951 0.0
O3527 O 0.23028 0.13445 0.43984 0.0
O3528 O 0.23949 0.14164 0.43781 0.0
C3529 C 0.23714 0.13494 0.43805 0.0
C3530 C 0.22186 0.15176 0.42837 0.0
C3531 C 0.23943 0.13028 0.43204 0.0
C3532 C 0.23955 0.12724 0.41926 0.0
C3533 C 0.23738 0.1318 0.4249 0.0
C3534 C 0.24585 0.11963 0.42785 0.0
C3535 C 0.24381 0.12109 0.42067 0.0
C3536 C 0.24368 0.12418 0.43348 0.0
C3537 C 0.22881 0.15122 0.45975 0.0
C3538 C 0.23402 0.14397 0.4694 0.0
C3539 C 0.22885 0.15571 0.47207 0.0
C3540 C 0.22715 0.15662 0.46478 0.0
C3541 C 0.23226 0.14936 0.47449 0.0
C3542 C 0.23231 0.1449 0.46208 0.0
C3543 C 0.22659 0.15222 0.4522 0.0
O3544 O 0.22853 0.1535 0.43011 0.0
O3545 O 0.21937 0.14623 0.43207 0.0
O3546 O 0.22237 0.14717 0.44953 0.0
O3547 O 0.23166 0.15433 0.44769 0.0
H3548 H 0.21975 0.16274 0.43788 0.0
H3549 H 0.21095 0.17258 0.43698 0.0
H3550 H 0.20371 0.16418 0.41643 0.0
H3551 H 0.21253 0.15432 0.41739 0.0
H3552 H 0.23795 0.12858 0.41379 0.0
H3553 H 0.23409 0.13649 0.4237 0.0
H3554 H 0.24902 0.11489 0.42916 0.0
H3555 H 0.24528 0.12292 0.43896 0.0
H3556 H 0.2367 0.13905 0.47108 0.0
H3557 H 0.2273 0.15991 0.47584 0.0
H3558 H 0.22442 0.16151 0.46307 0.0
H3559 H 0.23365 0.14067 0.45825 0.0
C3560 C 0.21764 0.84591 0.57567 0.0
C3561 C 0.21717 0.84068 0.5702 0.0
C3562 C 0.20749 0.83457 0.57669 0.0
C3563 C 0.21217 0.83504 0.57072 0.0
C3564 C 0.20801 0.8398 0.58219 0.0
C3565 C 0.21305 0.84542 0.58168 0.0
U3566 U 0.22925 0.85778 0.56382 0.0
O3567 O 0.23066 0.86958 0.56354 0.0
O3568 O 0.24002 0.86255 0.56549 0.0
C3569 C 0.23756 0.86921 0.56522 0.0
C3570 C 0.22263 0.85205 0.57497 0.0
C3571 C 0.23992 0.87401 0.57108 0.0
C3572 C 0.2398 0.87776 0.58368 0.0
C3573 C 0.23759 0.87299 0.57823 0.0
C3574 C 0.24672 0.88456 0.57489 0.0
C3575 C 0.24435 0.88364 0.58206 0.0
C3576 C 0.24452 0.8798 0.56946 0.0
C3577 C 0.22933 0.85317 0.54349 0.0
C3578 C 0.2322 0.86121 0.5335 0.0
C3579 C 0.23079 0.84837 0.53137 0.0
C3580 C 0.22942 0.8473 0.53872 0.0
C3581 C 0.23208 0.85535 0.52865 0.0
C3582 C 0.23086 0.86013 0.54087 0.0
C3583 C 0.2272 0.85194 0.55106 0.0
O3584 O 0.2293 0.8504 0.57314 0.0
O3585 O 0.22004 0.85759 0.57135 0.0
O3586 O 0.22285 0.85678 0.55389 0.0
O3587 O 0.23235 0.84984 0.55548 0.0
H3588 H 0.22061 0.84102 0.56547 0.0
H3589 H 0.21184 0.83116 0.56635 0.0
H3590 H 0.20453 0.83955 0.58688 0.0
H3591 H 0.21331 0.84943 0.58594 0.0
H3592 H 0.23783 0.87693 0.58913 0.0
H3593 H 0.23402 0.86854 0.57956 0.0
H3594 H 0.25031 0.88896 0.57347 0.0
H3595 H 0.24639 0.88065 0.56398 0.0
H3596 H 0.23326 0.86664 0.53158 0.0
H3597 H 0.23055 0.84375 0.52779 0.0
H3598 H 0.22823 0.8419 0.54064 0.0
H3599 H 0.23086 0.86473 0.54449 0.0
C3600 C 0.15682 0.21608 0.57588 0.0
C3601 C 0.15959 0.2129 0.56958 0.0
C3602 C 0.16831 0.20607 0.57671 0.0
C3603 C 0.16526 0.20792 0.57 0.0
C3604 C 0.16553 0.20933 0.58301 0.0
C3605 C 0.15983 0.21429 0.58259 0.0
U3606 U 0.14527 0.22829 0.56442 0.0
O3607 O 0.13357 0.23028 0.56422 0.0
O3608 O 0.14103 0.23926 0.56631 0.0
C3609 C 0.13427 0.23709 0.5661 0.0
C3610 C 0.15086 0.22132 0.57541 0.0
C3611 C 0.12965 0.23952 0.57211 0.0
C3612 C 0.12382 0.23745 0.58371 0.0
C3613 C 0.12855 0.2352 0.57825 0.0
C3614 C 0.12142 0.24847 0.57706 0.0
C3615 C 0.12013 0.24408 0.58314 0.0
C3616 C 0.12612 0.2462 0.5716 0.0
C3617 C 0.14992 0.22836 0.54408 0.0
C3618 C 0.14254 0.23337 0.53443 0.0
C3619 C 0.15447 0.22865 0.53178 0.0
C3620 C 0.15541 0.22693 0.53907 0.0
C3621 C 0.14801 0.23184 0.52935 0.0
C3622 C 0.1435 0.23165 0.54175 0.0
C3623 C 0.15098 0.2261 0.55161 0.0
O3624 O 0.15279 0.22792 0.57363 0.0
O3625 O 0.14514 0.21904 0.57187 0.0
O3626 O 0.14586 0.22201 0.55437 0.0
O3627 O 0.1533 0.2311 0.55609 0.0
H3628 H 0.15735 0.21424 0.56434 0.0
H3629 H 0.16717 0.20545 0.56505 0.0
H3630 H 0.16781 0.2081 0.58826 0.0
H3631 H 0.15779 0.21674 0.5875 0.0
H3632 H 0.12291 0.2339 0.58827 0.0
H3633 H 0.13125 0.23002 0.57876 0.0
H3634 H 0.11879 0.25367 0.5765 0.0
H3635 H 0.12694 0.24963 0.56692 0.0
H3636 H 0.13753 0.23588 0.53275 0.0
H3637 H 0.15874 0.22727 0.52802 0.0
H3638 H 0.16039 0.22436 0.54077 0.0
H3639 H 0.13921 0.23281 0.54556 0.0
C3640 C 0.7849 0.15789 0.57607 0.0
C3641 C 0.78467 0.16339 0.57086 0.0
C3642 C 0.79491 0.1694 0.57656 0.0
C3643 C 0.78959 0.16912 0.57113 0.0
C3644 C 0.79505 0.16391 0.58183 0.0
C3645 C 0.79009 0.15821 0.58158 0.0
U3646 U 0.77339 0.14563 0.56452 0.0
O3647 O 0.77246 0.13378 0.56424 0.0
O3648 O 0.76288 0.14044 0.56643 0.0
C3649 C 0.76561 0.13388 0.56614 0.0
C3650 C 0.78009 0.15158 0.5755 0.0
C3651 C 0.76366 0.12903 0.57212 0.0
C3652 C 0.76247 0.12647 0.58496 0.0
C3653 C 0.76433 0.13121 0.57936 0.0
C3654 C 0.75932 0.11732 0.57614 0.0
C3655 C 0.75997 0.11946 0.58341 0.0
C3656 C 0.76115 0.12207 0.57056 0.0
C3657 C 0.77269 0.15033 0.54422 0.0
C3658 C 0.76924 0.14227 0.53444 0.0
C3659 C 0.77146 0.15494 0.53201 0.0
C3660 C 0.77295 0.15608 0.53932 0.0
C3661 C 0.76969 0.148 0.52945 0.0
C3662 C 0.77071 0.14343 0.54177 0.0
C3663 C 0.77493 0.1516 0.55174 0.0
O3664 O 0.77332 0.15299 0.57386 0.0
O3665 O 0.78278 0.14614 0.57181 0.0
O3666 O 0.77951 0.14689 0.55444 0.0
O3667 O 0.7698 0.15346 0.55629 0.0
H3668 H 0.78074 0.16322 0.56652 0.0
H3669 H 0.78925 0.17329 0.56704 0.0
H3670 H 0.79913 0.16389 0.58603 0.0
H3671 H 0.7904 0.15397 0.5856 0.0
H3672 H 0.76309 0.12826 0.5905 0.0
H3673 H 0.76631 0.13657 0.58067 0.0
H3674 H 0.75733 0.11199 0.57476 0.0
H3675 H 0.7606 0.12029 0.56501 0.0
H3676 H 0.76782 0.13688 0.53266 0.0
H3677 H 0.77197 0.15946 0.52832 0.0
H3678 H 0.77449 0.16144 0.54112 0.0
H3679 H 0.77046 0.13891 0.5455 0.0
C3680 C 0.84625 0.78578 0.57428 0.0
C3681 C 0.84347 0.78875 0.56789 0.0
C3682 C 0.83495 0.796 0.57481 0.0
C3683 C 0.83789 0.79382 0.56815 0.0
C3684 C 0.83768 0.79291 0.58121 0.0
C3685 C 0.8433 0.78785 0.58094 0.0
U3686 U 0.85832 0.77386 0.56306 0.0
O3687 O 0.87005 0.77205 0.56327 0.0
O3688 O 0.86264 0.76292 0.56489 0.0
C3689 C 0.86939 0.76516 0.56487 0.0
C3690 C 0.85224 0.78056 0.57397 0.0
C3691 C 0.87395 0.76261 0.57085 0.0
C3692 C 0.87786 0.76307 0.58339 0.0
C3693 C 0.87315 0.76531 0.57789 0.0
C3694 C 0.88409 0.75533 0.57486 0.0
C3695 C 0.88345 0.75812 0.58191 0.0
C3696 C 0.87939 0.75756 0.5694 0.0
C3697 C 0.85471 0.77415 0.54242 0.0
C3698 C 0.85853 0.77767 0.53033 0.0
C3699 C 0.85321 0.76588 0.53228 0.0
C3700 C 0.85249 0.76742 0.53965 0.0
C3701 C 0.85614 0.77103 0.52752 0.0
C3702 C 0.85779 0.77922 0.53768 0.0
C3703 C 0.85325 0.77624 0.55002 0.0
O3704 O 0.85041 0.774 0.57197 0.0
O3705 O 0.85809 0.78294 0.57072 0.0
O3706 O 0.85809 0.78039 0.55314 0.0
O3707 O 0.85067 0.77122 0.55435 0.0
H3708 H 0.84565 0.78716 0.56269 0.0
H3709 H 0.83584 0.79601 0.56312 0.0
H3710 H 0.83556 0.79452 0.58643 0.0
H3711 H 0.84538 0.78559 0.58593 0.0
H3712 H 0.87725 0.76536 0.58874 0.0
H3713 H 0.86897 0.76924 0.57909 0.0
H3714 H 0.88825 0.75142 0.57357 0.0
H3715 H 0.88007 0.7554 0.56399 0.0
H3716 H 0.86071 0.7818 0.5268 0.0
H3717 H 0.85137 0.76069 0.53029 0.0
H3718 H 0.85004 0.76341 0.54314 0.0
H3719 H 0.85944 0.78449 0.53963 0.0
C3720 C 0.78685 0.84646 0.42762 0.0
C3721 C 0.7906 0.84413 0.4338 0.0
C3722 C 0.79724 0.83535 0.4266 0.0
C3723 C 0.79577 0.83866 0.43328 0.0
C3724 C 0.79338 0.83761 0.42045 0.0
C3725 C 0.78824 0.84314 0.42096 0.0
U3726 U 0.77442 0.85775 0.43917 0.0
O3727 O 0.77232 0.86944 0.43937 0.0
O3728 O 0.76342 0.86187 0.43731 0.0
C3729 C 0.76551 0.86866 0.43751 0.0
C3730 C 0.78148 0.8523 0.42816 0.0
C3731 C 0.76311 0.8732 0.43145 0.0
C3732 C 0.76317 0.87626 0.41867 0.0
C3733 C 0.76535 0.87175 0.42435 0.0
C3734 C 0.75648 0.88367 0.42715 0.0
C3735 C 0.75872 0.88229 0.42001 0.0
C3736 C 0.75866 0.87917 0.4328 0.0
C3737 C 0.7744 0.853 0.4595 0.0
C3738 C 0.7691 0.86016 0.46915 0.0
C3739 C 0.77419 0.84838 0.47177 0.0
C3740 C 0.77598 0.84754 0.46449 0.0
C3741 C 0.77076 0.85472 0.47421 0.0
C3742 C 0.77089 0.8593 0.46184 0.0
C3743 C 0.77669 0.85203 0.45196 0.0
O3744 O 0.77493 0.85023 0.42995 0.0
O3745 O 0.78365 0.85806 0.43171 0.0
O3746 O 0.7807 0.85721 0.44924 0.0
O3747 O 0.77173 0.84965 0.44747 0.0
H3748 H 0.78953 0.84657 0.43901 0.0
H3749 H 0.79857 0.83696 0.43813 0.0
H3750 H 0.79443 0.8352 0.41522 0.0
H3751 H 0.78537 0.84485 0.41615 0.0
H3752 H 0.76493 0.87499 0.41324 0.0
H3753 H 0.7688 0.86716 0.42321 0.0
H3754 H 0.75316 0.88833 0.42839 0.0
H3755 H 0.75692 0.88038 0.43826 0.0
H3756 H 0.76641 0.86508 0.47085 0.0
H3757 H 0.77567 0.84414 0.47552 0.0
H3758 H 0.77871 0.84265 0.46278 0.0
H3759 H 0.76962 0.86357 0.45804 0.0
C3760 C 0.15745 0.7864 0.42695 0.0
C3761 C 0.16035 0.78967 0.43313 0.0
C3762 C 0.16898 0.79632 0.42573 0.0
C3763 C 0.16604 0.7946 0.43253 0.0
C3764 C 0.16606 0.79298 0.41954 0.0
C3765 C 0.16033 0.78807 0.42015 0.0
U3766 U 0.14586 0.77471 0.43889 0.0
O3767 O 0.13413 0.77282 0.43914 0.0
O3768 O 0.14156 0.76371 0.43748 0.0
C3769 C 0.1348 0.76591 0.4376 0.0
C3770 C 0.15145 0.78123 0.42762 0.0
C3771 C 0.13021 0.76328 0.43168 0.0
C3772 C 0.12686 0.76298 0.41898 0.0
C3773 C 0.13139 0.76546 0.42452 0.0
C3774 C 0.11996 0.7561 0.42774 0.0
C3775 C 0.12108 0.75827 0.42053 0.0
C3776 C 0.12448 0.75858 0.43325 0.0
C3777 C 0.1506 0.77528 0.45919 0.0
C3778 C 0.14342 0.77015 0.46892 0.0
C3779 C 0.1551 0.77548 0.4715 0.0
C3780 C 0.15599 0.77709 0.46419 0.0
C3781 C 0.1488 0.77202 0.47397 0.0
C3782 C 0.14432 0.77176 0.46157 0.0
C3783 C 0.15163 0.77732 0.45159 0.0
O3784 O 0.15334 0.77469 0.42964 0.0
O3785 O 0.14576 0.78368 0.4311 0.0
O3786 O 0.14651 0.78133 0.44873 0.0
O3787 O 0.15392 0.77218 0.44726 0.0
H3788 H 0.15819 0.78844 0.43844 0.0
H3789 H 0.16806 0.79714 0.4374 0.0
H3790 H 0.16824 0.79411 0.41423 0.0
H3791 H 0.15818 0.78555 0.41532 0.0
H3792 H 0.12791 0.7647 0.41349 0.0
H3793 H 0.1358 0.76908 0.42322 0.0
H3794 H 0.1155 0.75259 0.42915 0.0
H3795 H 0.12348 0.75688 0.43876 0.0
H3796 H 0.13853 0.76743 0.47064 0.0
H3797 H 0.15929 0.77711 0.47525 0.0
H3798 H 0.16086 0.77983 0.46244 0.0
H3799 H 0.14012 0.77032 0.45776 0.0
C3800 C 0.84544 0.2177 0.42784 0.0
C3801 C 0.84279 0.21455 0.4342 0.0
C3802 C 0.8341 0.20754 0.42724 0.0
C3803 C 0.83718 0.20951 0.4339 0.0
C3804 C 0.83669 0.21082 0.42088 0.0
C3805 C 0.84234 0.21586 0.42118 0.0
U3806 U 0.85806 0.22878 0.43926 0.0
O3807 O 0.86982 0.23038 0.43875 0.0
O3808 O 0.86254 0.23972 0.43792 0.0
C3809 C 0.86923 0.23734 0.43749 0.0
C3810 C 0.85151 0.22282 0.42819 0.0
C3811 C 0.87348 0.24002 0.43134 0.0
C3812 C 0.87603 0.24045 0.41846 0.0
C3813 C 0.87171 0.23811 0.42422 0.0
C3814 C 0.88386 0.24669 0.4269 0.0
C3815 C 0.88219 0.24474 0.41974 0.0
C3816 C 0.87955 0.24435 0.43263 0.0
C3817 C 0.855 0.22717 0.45986 0.0
C3818 C 0.85919 0.23514 0.46943 0.0
C3819 C 0.85471 0.22319 0.47235 0.0
C3820 C 0.85344 0.22188 0.46504 0.0
C3821 C 0.85757 0.22985 0.47465 0.0
C3822 C 0.85794 0.2338 0.46208 0.0
C3823 C 0.85331 0.22563 0.45225 0.0
O3824 O 0.84986 0.22928 0.43064 0.0
O3825 O 0.85743 0.22018 0.43108 0.0
O3826 O 0.85805 0.22164 0.44877 0.0
O3827 O 0.85079 0.23103 0.44837 0.0
H3828 H 0.84509 0.21595 0.4394 0.0
H3829 H 0.83524 0.20716 0.4389 0.0
H3830 H 0.83445 0.20939 0.41566 0.0
H3831 H 0.84432 0.21825 0.41622 0.0
H3832 H 0.87453 0.23891 0.41302 0.0
H3833 H 0.86703 0.23476 0.42313 0.0
H3834 H 0.88862 0.24988 0.42809 0.0
H3835 H 0.88101 0.24584 0.43811 0.0
H3836 H 0.86145 0.2403 0.47103 0.0
H3837 H 0.85328 0.21904 0.47623 0.0
H3838 H 0.85114 0.21674 0.46343 0.0
H3839 H 0.85922 0.23795 0.45815 0.0
H3840 H 0.08346 0.26384 0.39761 0.0
H3841 H 0.09497 0.25274 0.38062 0.0
H3842 H 0.09274 0.26028 0.40625 0.0
H3843 H 0.10439 0.24933 0.38924 0.0
H3844 H 0.11435 0.23739 0.40909 0.0
H3845 H 0.10583 0.24129 0.3998 0.0
H3846 H 0.1054 0.26266 0.40917 0.0
H3847 H 0.11394 0.25879 0.41842 0.0
C3848 C 0.08798 0.26064 0.39572 0.0
C3849 C 0.08846 0.25854 0.38843 0.0
C3850 C 0.09334 0.25867 0.40065 0.0
C3851 C 0.09932 0.25453 0.39843 0.0
C3852 C 0.09983 0.25247 0.39113 0.0
C3853 C 0.09447 0.25448 0.38618 0.0
C3854 C 0.11253 0.24295 0.4091 0.0
C3855 C 0.11479 0.24776 0.41454 0.0
C3856 C 0.10764 0.24519 0.40378 0.0
C3857 C 0.10489 0.25228 0.40378 0.0
C3858 C 0.10731 0.25713 0.4091 0.0
C3859 C 0.1122 0.2549 0.4144 0.0
H3860 H 0.7664 0.1163 0.4094 0.0
H3861 H 0.74539 0.11401 0.41933 0.0
H3862 H 0.76285 0.10784 0.39994 0.0
H3863 H 0.74195 0.10533 0.41005 0.0
H3864 H 0.73565 0.09441 0.38904 0.0
H3865 H 0.73911 0.10403 0.39736 0.0
H3866 H 0.76061 0.09503 0.39881 0.0
H3867 H 0.75725 0.08561 0.39026 0.0
C3868 C 0.761 0.11404 0.40954 0.0
C3869 C 0.75619 0.11582 0.41515 0.0
C3870 C 0.759 0.10912 0.40416 0.0
C3871 C 0.75213 0.10586 0.40425 0.0
C3872 C 0.74726 0.10777 0.40977 0.0
C3873 C 0.74926 0.11269 0.41514 0.0
C3874 C 0.74115 0.09455 0.39104 0.0
C3875 C 0.74616 0.08921 0.389 0.0
C3876 C 0.74311 0.10002 0.39588 0.0
C3877 C 0.75013 0.10029 0.39879 0.0
C3878 C 0.75518 0.09504 0.39663 0.0
C3879 C 0.75322 0.08958 0.39179 0.0
H3880 H 0.90849 0.74941 0.38012 0.0
H3881 H 0.92267 0.74358 0.39772 0.0
H3882 H 0.89939 0.75344 0.3888 0.0
H3883 H 0.91359 0.74756 0.40637 0.0
H3884 H 0.89947 0.76249 0.41967 0.0
H3885 H 0.90822 0.75862 0.41064 0.0
H3886 H 0.89103 0.74913 0.39802 0.0
H3887 H 0.88224 0.75306 0.40706 0.0
C3888 C 0.90964 0.74892 0.38584 0.0
C3889 C 0.91633 0.74622 0.38822 0.0
C3890 C 0.90442 0.75123 0.39081 0.0
C3891 C 0.90578 0.75089 0.39829 0.0
C3892 C 0.91242 0.74806 0.40066 0.0
C3893 C 0.91763 0.74577 0.39569 0.0
C3894 C 0.89755 0.75954 0.41499 0.0
C3895 C 0.89016 0.75803 0.41412 0.0
C3896 C 0.90257 0.75731 0.40981 0.0
C3897 C 0.90034 0.7535 0.40363 0.0
C3898 C 0.89293 0.75211 0.40268 0.0
C3899 C 0.88789 0.75436 0.40786 0.0
H3900 H 0.24952 0.88126 0.40825 0.0
H3901 H 0.24397 0.89886 0.42253 0.0
H3902 H 0.25365 0.88994 0.39918 0.0
H3903 H 0.24804 0.9075 0.4135 0.0
H3904 H 0.26296 0.92075 0.39935 0.0
H3905 H 0.25911 0.91169 0.40808 0.0
H3906 H 0.24937 0.89924 0.39089 0.0
H3907 H 0.25328 0.90832 0.38213 0.0
C3908 C 0.24913 0.88697 0.40943 0.0
C3909 C 0.24647 0.88936 0.41614 0.0
C3910 C 0.25149 0.89195 0.40423 0.0
C3911 C 0.25124 0.89942 0.40563 0.0
C3912 C 0.24847 0.90179 0.4123 0.0
C3913 C 0.24613 0.89683 0.41748 0.0
C3914 C 0.25997 0.9161 0.39744 0.0
C3915 C 0.25838 0.91529 0.39005 0.0
C3916 C 0.25775 0.9109 0.40244 0.0
C3917 C 0.25387 0.90476 0.40021 0.0
C3918 C 0.25241 0.90387 0.3928 0.0
C3919 C 0.25465 0.90907 0.38777 0.0
H3920 H 0.09516 0.75041 0.62212 0.0
H3921 H 0.0816 0.74279 0.60472 0.0
H3922 H 0.10419 0.75439 0.61333 0.0
H3923 H 0.09059 0.74671 0.59597 0.0
H3924 H 0.10398 0.76171 0.58201 0.0
H3925 H 0.09536 0.75782 0.59115 0.0
H3926 H 0.11292 0.75007 0.60445 0.0
H3927 H 0.12158 0.75403 0.59528 0.0
C3928 C 0.09414 0.74952 0.61643 0.0
C3929 C 0.08763 0.74634 0.61412 0.0
C3930 C 0.09931 0.7518 0.61139 0.0
C3931 C 0.09809 0.75094 0.60393 0.0
C3932 C 0.09165 0.74761 0.60165 0.0
C3933 C 0.08649 0.74536 0.60668 0.0
C3934 C 0.10601 0.75914 0.58687 0.0
C3935 C 0.11347 0.75813 0.58788 0.0
C3936 C 0.10106 0.7569 0.59211 0.0
C3937 C 0.10344 0.75356 0.59851 0.0
C3938 C 0.11091 0.75268 0.59961 0.0
C3939 C 0.11587 0.75494 0.59436 0.0
H3940 H 0.25734 0.11306 0.58534 0.0
H3941 H 0.236 0.11471 0.59468 0.0
H3942 H 0.26079 0.10451 0.59473 0.0
H3943 H 0.23956 0.10638 0.60426 0.0
H3944 H 0.24569 0.08449 0.61438 0.0
H3945 H 0.24222 0.09367 0.60562 0.0
H3946 H 0.26335 0.10343 0.60747 0.0
H3947 H 0.26693 0.09405 0.616 0.0
C3948 C 0.25339 0.11162 0.58941 0.0
C3949 C 0.24637 0.11453 0.58921 0.0
C3950 C 0.2554 0.10678 0.59485 0.0
C3951 C 0.25045 0.10474 0.60025 0.0
C3952 C 0.24348 0.10776 0.60014 0.0
C3953 C 0.24146 0.11261 0.59469 0.0
C3954 C 0.24962 0.08857 0.61289 0.0
C3955 C 0.25661 0.08849 0.61587 0.0
C3956 C 0.24759 0.0939 0.60793 0.0
C3957 C 0.2525 0.0993 0.60582 0.0
C3958 C 0.25945 0.0993 0.6089 0.0
C3959 C 0.26148 0.09397 0.61386 0.0
H3960 H 0.89838 0.24095 0.58253 0.0
H3961 H 0.88121 0.25056 0.59507 0.0
H3962 H 0.90712 0.24463 0.59163 0.0
H3963 H 0.88999 0.25431 0.6042 0.0
H3964 H 0.90742 0.25362 0.62219 0.0
H3965 H 0.89826 0.24982 0.61345 0.0
H3966 H 0.91261 0.25561 0.59597 0.0
H3967 H 0.92173 0.25935 0.60467 0.0
C3968 C 0.89648 0.2439 0.58721 0.0
C3969 C 0.8891 0.24552 0.58804 0.0
C3970 C 0.90149 0.24602 0.59244 0.0
C3971 C 0.89928 0.24984 0.59862 0.0
C3972 C 0.89188 0.25133 0.59954 0.0
C3973 C 0.88684 0.24918 0.5943 0.0
C3974 C 0.90858 0.25414 0.61648 0.0
C3975 C 0.91533 0.25673 0.61413 0.0
C3976 C 0.90334 0.25196 0.61147 0.0
C3977 C 0.90472 0.25234 0.604 0.0
C3978 C 0.91142 0.25508 0.60167 0.0
C3979 C 0.91665 0.25724 0.60666 0.0
H3980 H 0.75254 0.88103 0.59522 0.0
H3981 H 0.76436 0.8981 0.58455 0.0
H3982 H 0.74914 0.88943 0.60485 0.0
H3983 H 0.76081 0.90651 0.59404 0.0
H3984 H 0.75896 0.91812 0.6155 0.0
H3985 H 0.76289 0.909 0.60684 0.0
H3986 H 0.74131 0.90012 0.60639 0.0
H3987 H 0.73736 0.90927 0.61503 0.0
C3988 C 0.75445 0.88656 0.59495 0.0
C3989 C 0.7587 0.88891 0.58911 0.0
C3990 C 0.75244 0.89138 0.60043 0.0
C3991 C 0.75469 0.89864 0.60021 0.0
C3992 C 0.75904 0.90094 0.59442 0.0
C3993 C 0.76101 0.89614 0.58894 0.0
C3994 C 0.75505 0.91424 0.61354 0.0
C3995 C 0.74783 0.91448 0.61592 0.0
C3996 C 0.7573 0.90901 0.60858 0.0
C3997 C 0.75241 0.90387 0.60588 0.0
C3998 C 0.74524 0.90396 0.60842 0.0
C3999 C 0.74298 0.9092 0.61338 0.0
H4000 H 0.38756 0.09459 0.26792 0.0
H4001 H 0.38931 0.08485 0.24677 0.0
H4002 H 0.39597 0.10405 0.26425 0.0
H4003 H 0.39794 0.09412 0.24321 0.0
H4004 H 0.40869 0.1152 0.23681 0.0
H4005 H 0.39918 0.10682 0.24044 0.0
H4006 H 0.40872 0.10522 0.26169 0.0
H4007 H 0.41803 0.11382 0.25816 0.0
C4008 C 0.3897 0.09449 0.26247 0.0
C4009 C 0.38778 0.08894 0.25765 0.0
C4010 C 0.39459 0.09987 0.26039 0.0
C4011 C 0.39767 0.09983 0.25344 0.0
C4012 C 0.39563 0.09437 0.24858 0.0
C4013 C 0.39074 0.08899 0.25065 0.0
C4014 C 0.40869 0.11315 0.24229 0.0
C4015 C 0.41415 0.11517 0.24718 0.0
C4016 C 0.40329 0.10827 0.24435 0.0
C4017 C 0.40319 0.10531 0.25135 0.0
C4018 C 0.40857 0.10744 0.25628 0.0
C4019 C 0.41397 0.11231 0.25422 0.0
H4020 H 0.91843 0.38973 0.24626 0.0
H4021 H 0.90865 0.38786 0.26738 0.0
H4022 H 0.9091 0.39832 0.2427 0.0
H4023 H 0.89914 0.39621 0.26371 0.0
H4024 H 0.88919 0.41819 0.25768 0.0
H4025 H 0.89788 0.40896 0.26119 0.0
H4026 H 0.89639 0.39946 0.23991 0.0
H4027 H 0.88792 0.40889 0.2363 0.0
C4028 C 0.91427 0.39113 0.25014 0.0
C4029 C 0.91432 0.38814 0.25713 0.0
C4030 C 0.90886 0.39598 0.24806 0.0
C4031 C 0.90337 0.39798 0.25292 0.0
C4032 C 0.90334 0.39487 0.25986 0.0
C4033 C 0.90874 0.39001 0.26194 0.0
C4034 C 0.89074 0.41416 0.25373 0.0
C4035 C 0.88788 0.41432 0.24669 0.0
C4036 C 0.89566 0.4088 0.25577 0.0
C4037 C 0.89785 0.40346 0.25083 0.0
C4038 C 0.89489 0.40354 0.24383 0.0
C4039 C 0.88997 0.4089 0.24178 0.0
H4040 H 0.61554 0.90833 0.26758 0.0
H4041 H 0.61387 0.91737 0.24612 0.0
H4042 H 0.60726 0.89866 0.26414 0.0
H4043 H 0.60538 0.9079 0.24278 0.0
H4044 H 0.59481 0.88672 0.23685 0.0
H4045 H 0.60431 0.89513 0.24039 0.0
H4046 H 0.59454 0.89726 0.26149 0.0
H4047 H 0.58524 0.88861 0.25806 0.0
C4048 C 0.61345 0.90823 0.26211 0.0
C4049 C 0.61535 0.91365 0.25714 0.0
C4050 C 0.60863 0.90273 0.26016 0.0
C4051 C 0.60562 0.90251 0.25319 0.0
C4052 C 0.60764 0.90785 0.24817 0.0
C4053 C 0.61245 0.91334 0.25012 0.0
C4054 C 0.59476 0.88888 0.24229 0.0
C4055 C 0.58923 0.88701 0.24716 0.0
C4056 C 0.60016 0.89378 0.24429 0.0
C4057 C 0.60017 0.89692 0.25121 0.0
C4058 C 0.59475 0.8949 0.25614 0.0
C4059 C 0.58935 0.89001 0.25414 0.0
H4060 H 0.09537 0.62181 0.25411 0.0
H4061 H 0.08155 0.60411 0.26045 0.0
H4062 H 0.10446 0.61319 0.24989 0.0
H4063 H 0.0906 0.59553 0.25629 0.0
H4064 H 0.1043 0.58231 0.24092 0.0
H4065 H 0.09563 0.59129 0.24505 0.0
H4066 H 0.11304 0.60402 0.25399 0.0
H4067 H 0.12175 0.59501 0.24979 0.0
C4068 C 0.0943 0.61609 0.25467 0.0
C4069 C 0.08771 0.61365 0.25755 0.0
C4070 C 0.09951 0.61114 0.25225 0.0
C4071 C 0.09823 0.60366 0.25268 0.0
C4072 C 0.0917 0.60125 0.25572 0.0
C4073 C 0.0865 0.60617 0.25811 0.0
C4074 C 0.10628 0.587 0.2438 0.0
C4075 C 0.11371 0.5879 0.24508 0.0
C4076 C 0.1013 0.59215 0.24618 0.0
C4077 C 0.10362 0.59835 0.24992 0.0
C4078 C 0.11107 0.59934 0.25107 0.0
C4079 C 0.11606 0.59418 0.24867 0.0
H4080 H 0.40859 0.8816 0.75338 0.0
H4081 H 0.42184 0.8991 0.76132 0.0
H4082 H 0.39947 0.89032 0.74945 0.0
H4083 H 0.41275 0.90777 0.75746 0.0
H4084 H 0.3993 0.9217 0.74247 0.0
H4085 H 0.40801 0.91264 0.74633 0.0
H4086 H 0.39057 0.89904 0.75383 0.0
H4087 H 0.38183 0.90814 0.74991 0.0
C4088 C 0.40952 0.8873 0.75436 0.0
C4089 C 0.41598 0.88966 0.75761 0.0
C4090 C 0.40429 0.89229 0.75211 0.0
C4091 C 0.4054 0.89976 0.75307 0.0
C4092 C 0.41179 0.90208 0.75647 0.0
C4093 C 0.417 0.8971 0.7587 0.0
C4094 C 0.39732 0.9168 0.74498 0.0
C4095 C 0.38987 0.91568 0.74594 0.0
C4096 C 0.40232 0.9116 0.74721 0.0
C4097 C 0.4 0.90514 0.75047 0.0
C4098 C 0.39254 0.90393 0.75129 0.0
C4099 C 0.38753 0.90915 0.74904 0.0
H4100 H 0.08322 0.39851 0.74038 0.0
H4101 H 0.09506 0.38108 0.75043 0.0
H4102 H 0.0927 0.40696 0.74384 0.0
H4103 H 0.10468 0.38953 0.75373 0.0
H4104 H 0.11535 0.4089 0.7658 0.0
H4105 H 0.10656 0.39982 0.76202 0.0
H4106 H 0.10527 0.40985 0.74098 0.0
H4107 H 0.11408 0.41889 0.74474 0.0
C4108 C 0.08786 0.39648 0.74333 0.0
C4109 C 0.08837 0.38912 0.74516 0.0
C4110 C 0.09333 0.40131 0.74524 0.0
C4111 C 0.09946 0.39892 0.74905 0.0
C4112 C 0.1 0.39155 0.75085 0.0
C4113 C 0.09453 0.3867 0.7489 0.0
C4114 C 0.11328 0.40911 0.76034 0.0
C4115 C 0.11538 0.41467 0.7556 0.0
C4116 C 0.10823 0.4039 0.75817 0.0
C4117 C 0.10517 0.40415 0.75122 0.0
C4118 C 0.10742 0.40959 0.74642 0.0
C4119 C 0.11246 0.41478 0.74858 0.0
H4120 H 0.59523 0.12143 0.75327 0.0
H4121 H 0.58209 0.10404 0.76159 0.0
H4122 H 0.60434 0.11267 0.74939 0.0
H4123 H 0.59116 0.09532 0.75777 0.0
H4124 H 0.6044 0.08121 0.74279 0.0
H4125 H 0.59575 0.09033 0.74665 0.0
H4126 H 0.61328 0.10399 0.75378 0.0
H4127 H 0.62198 0.09484 0.74987 0.0
C4128 C 0.59433 0.11575 0.75434 0.0
C4129 C 0.5879 0.11343 0.75768 0.0
C4130 C 0.59954 0.11073 0.75212 0.0
C4131 C 0.59845 0.10328 0.7532 0.0
C4132 C 0.5921 0.101 0.7567 0.0
C4133 C 0.5869 0.106 0.7589 0.0
C4134 C 0.60642 0.08614 0.74522 0.0
C4135 C 0.61388 0.08727 0.74607 0.0
C4136 C 0.60145 0.09137 0.74744 0.0
C4137 C 0.60381 0.09787 0.7506 0.0
C4138 C 0.61128 0.09908 0.75132 0.0
C4139 C 0.61627 0.09383 0.74908 0.0
H4140 H 0.91929 0.61496 0.7581 0.0
H4141 H 0.90948 0.61557 0.73692 0.0
H4142 H 0.91021 0.60627 0.76206 0.0
H4143 H 0.90037 0.6069 0.7409 0.0
H4144 H 0.88157 0.59563 0.75246 0.0
H4145 H 0.89001 0.60521 0.74908 0.0
H4146 H 0.90733 0.59364 0.75961 0.0
H4147 H 0.89888 0.58419 0.76315 0.0
C4148 C 0.9152 0.61323 0.75428 0.0
C4149 C 0.91516 0.61592 0.74717 0.0
C4150 C 0.90999 0.60825 0.75655 0.0
C4151 C 0.90459 0.60585 0.75178 0.0
C4152 C 0.90441 0.6087 0.74473 0.0
C4153 C 0.90963 0.61367 0.74245 0.0
C4154 C 0.88716 0.59518 0.75412 0.0
C4155 C 0.88956 0.58913 0.75806 0.0
C4156 C 0.89201 0.60063 0.75212 0.0
C4157 C 0.89935 0.60019 0.75406 0.0
C4158 C 0.90171 0.59419 0.75809 0.0
C4159 C 0.89688 0.58873 0.76005 0.0
H4160 H 0.26311 0.39886 0.08369 0.0
H4161 H 0.25247 0.38184 0.09559 0.0
H4162 H 0.25931 0.4076 0.09276 0.0
H4163 H 0.24861 0.39061 0.10467 0.0
H4164 H 0.2489 0.40774 0.1229 0.0
H4165 H 0.25291 0.39863 0.11422 0.0
H4166 H 0.2483 0.41335 0.09669 0.0
H4167 H 0.24433 0.42243 0.10534 0.0
C4168 C 0.25992 0.39699 0.08823 0.0
C4169 C 0.25804 0.38966 0.08888 0.0
C4170 C 0.25773 0.40201 0.09343 0.0
C4171 C 0.25358 0.39983 0.09942 0.0
C4172 C 0.25184 0.39247 0.10017 0.0
C4173 C 0.25406 0.38743 0.09496 0.0
C4174 C 0.24869 0.409 0.11719 0.0
C4175 C 0.24635 0.41584 0.11482 0.0
C4176 C 0.25099 0.40378 0.11221 0.0
C4177 C 0.25099 0.40528 0.10476 0.0
C4178 C 0.24853 0.41207 0.1024 0.0
C4179 C 0.24624 0.41728 0.10736 0.0
H4180 H 0.26293 0.60571 0.92028 0.0
H4181 H 0.25286 0.62289 0.90811 0.0
H4182 H 0.25942 0.59706 0.91101 0.0
H4183 H 0.2495 0.61424 0.8987 0.0
H4184 H 0.23738 0.59468 0.88843 0.0
H4185 H 0.2412 0.60392 0.89705 0.0
H4186 H 0.26222 0.59389 0.89849 0.0
H4187 H 0.25844 0.5847 0.88986 0.0
C4188 C 0.25996 0.60764 0.91562 0.0
C4189 C 0.25815 0.61499 0.91496 0.0
C4190 C 0.25802 0.60269 0.91026 0.0
C4191 C 0.25419 0.60496 0.9041 0.0
C4192 C 0.2524 0.61231 0.90341 0.0
C4193 C 0.25438 0.61728 0.90876 0.0
C4194 C 0.24285 0.59451 0.89051 0.0
C4195 C 0.24758 0.58891 0.88849 0.0
C4196 C 0.24504 0.5998 0.89545 0.0
C4197 C 0.25199 0.59961 0.8985 0.0
C4198 C 0.25678 0.59412 0.89635 0.0
C4199 C 0.25461 0.58884 0.89141 0.0
H4200 H 0.39782 0.26295 0.92019 0.0
H4201 H 0.38056 0.25275 0.90825 0.0
H4202 H 0.40637 0.25952 0.9108 0.0
H4203 H 0.38912 0.24946 0.89872 0.0
H4204 H 0.4087 0.23743 0.88832 0.0
H4205 H 0.3995 0.24121 0.89699 0.0
H4206 H 0.40936 0.26233 0.89824 0.0
H4207 H 0.41852 0.25858 0.88955 0.0
C4208 C 0.39585 0.25997 0.91556 0.0
C4209 C 0.38851 0.25809 0.91499 0.0
C4210 C 0.40074 0.25807 0.91013 0.0
C4211 C 0.39843 0.25422 0.904 0.0
C4212 C 0.39108 0.25237 0.9034 0.0
C4213 C 0.38617 0.25432 0.90882 0.0
C4214 C 0.40885 0.24292 0.89036 0.0
C4215 C 0.41439 0.24768 0.88828 0.0
C4216 C 0.40357 0.24508 0.89533 0.0
C4217 C 0.40373 0.25206 0.89835 0.0
C4218 C 0.40916 0.25687 0.89612 0.0
C4219 C 0.41442 0.25472 0.89114 0.0
H4220 H 0.74982 0.38158 0.90835 0.0
H4221 H 0.74017 0.39895 0.9206 0.0
H4222 H 0.75373 0.39024 0.89917 0.0
H4223 H 0.74401 0.40757 0.91144 0.0
H4224 H 0.75903 0.42191 0.89839 0.0
H4225 H 0.75508 0.41294 0.90715 0.0
H4226 H 0.74939 0.39842 0.88978 0.0
H4227 H 0.7534 0.40742 0.88098 0.0
C4228 C 0.74846 0.38723 0.90904 0.0
C4229 C 0.74474 0.38958 0.91524 0.0
C4230 C 0.7507 0.3922 0.90378 0.0
C4231 C 0.74925 0.39962 0.90459 0.0
C4232 C 0.74537 0.40192 0.91071 0.0
C4233 C 0.74316 0.39698 0.91596 0.0
C4234 C 0.75689 0.41683 0.89643 0.0
C4235 C 0.75648 0.41541 0.88898 0.0
C4236 C 0.75461 0.41168 0.90146 0.0
C4237 C 0.75185 0.40498 0.89918 0.0
C4238 C 0.75155 0.4035 0.89173 0.0
C4239 C 0.75384 0.40866 0.88668 0.0
H4240 H 0.59546 0.75295 0.8809 0.0
H4241 H 0.58433 0.76362 0.89842 0.0
H4242 H 0.60506 0.74931 0.88924 0.0
H4243 H 0.59379 0.75984 0.90675 0.0
H4244 H 0.61515 0.75804 0.9185 0.0
H4245 H 0.60651 0.76217 0.90945 0.0
H4246 H 0.6067 0.74101 0.8996 0.0
H4247 H 0.61532 0.73686 0.90869 0.0
C4248 C 0.59508 0.75455 0.88652 0.0
C4249 C 0.58912 0.75855 0.889 0.0
C4250 C 0.60055 0.75241 0.8913 0.0
C4251 C 0.60019 0.75429 0.89866 0.0
C4252 C 0.59427 0.75837 0.90111 0.0
C4253 C 0.5888 0.76046 0.89635 0.0
C4254 C 0.61334 0.75426 0.91442 0.0
C4255 C 0.61588 0.7471 0.91437 0.0
C4256 C 0.60839 0.75663 0.90922 0.0
C4257 C 0.60587 0.7519 0.90384 0.0
C4258 C 0.60859 0.74481 0.90363 0.0
C4259 C 0.61353 0.74243 0.90885 0.0
H4260 H 0.7672 0.59502 0.11544 0.0
H4261 H 0.74582 0.58576 0.11391 0.0
H4262 H 0.76364 0.60458 0.1071 0.0
H4263 H 0.74237 0.59513 0.10534 0.0
H4264 H 0.7363 0.61628 0.09461 0.0
H4265 H 0.73985 0.60786 0.10411 0.0
H4266 H 0.76099 0.60586 0.0944 0.0
H4267 H 0.75755 0.6145 0.0851 0.0
C4268 C 0.76173 0.59505 0.11337 0.0
C4269 C 0.75681 0.58959 0.11533 0.0
C4270 C 0.75971 0.60049 0.10852 0.0
C4271 C 0.75273 0.60061 0.10551 0.0
C4272 C 0.74777 0.59525 0.1076 0.0
C4273 C 0.74978 0.58982 0.11245 0.0
C4274 C 0.74174 0.61413 0.09457 0.0
C4275 C 0.74662 0.61605 0.08907 0.0
C4276 C 0.74375 0.60924 0.09997 0.0
C4277 C 0.7507 0.60614 0.10001 0.0
C4278 C 0.75562 0.60818 0.09459 0.0
C4279 C 0.75361 0.61307 0.0892 0.0
H4280 H 0.41854 0.74455 0.11436 0.0
H4281 H 0.40934 0.76601 0.11465 0.0
H4282 H 0.40937 0.74073 0.10571 0.0
H4283 H 0.40013 0.76217 0.10602 0.0
H4284 H 0.381 0.75084 0.09494 0.0
H4285 H 0.38954 0.75421 0.10446 0.0
H4286 H 0.4066 0.74311 0.09302 0.0
H4287 H 0.39805 0.7396 0.08365 0.0
C4288 C 0.41457 0.74846 0.11256 0.0
C4289 C 0.41472 0.75561 0.11516 0.0
C4290 C 0.40931 0.74627 0.10761 0.0
C4291 C 0.40405 0.75116 0.10513 0.0
C4292 C 0.40406 0.75825 0.10787 0.0
C4293 C 0.40934 0.76045 0.11283 0.0
C4294 C 0.38656 0.74906 0.09451 0.0
C4295 C 0.38885 0.74497 0.08853 0.0
C4296 C 0.39146 0.75105 0.09992 0.0
C4297 C 0.39875 0.74893 0.0995 0.0
C4298 C 0.40101 0.74477 0.09356 0.0
C4299 C 0.39613 0.74282 0.08814 0.0
H4300 H 0.6154 0.24423 0.08409 0.0
H4301 H 0.61537 0.26566 0.09337 0.0
H4302 H 0.60667 0.2403 0.09314 0.0
H4303 H 0.60666 0.2617 0.10245 0.0
H4304 H 0.59546 0.25033 0.12141 0.0
H4305 H 0.60506 0.25375 0.11299 0.0
H4306 H 0.59395 0.2425 0.09582 0.0
H4307 H 0.58449 0.23893 0.10425 0.0
C4308 C 0.61352 0.24811 0.08805 0.0
C4309 C 0.61605 0.25528 0.08796 0.0
C4310 C 0.60852 0.24585 0.09324 0.0
C4311 C 0.60593 0.2507 0.09849 0.0
C4312 C 0.6086 0.25781 0.09853 0.0
C4313 C 0.6136 0.26008 0.09332 0.0
C4314 C 0.59512 0.24852 0.11586 0.0
C4315 C 0.5892 0.24437 0.1135 0.0
C4316 C 0.60058 0.25053 0.11102 0.0
C4317 C 0.60027 0.2484 0.10373 0.0
C4318 C 0.5944 0.24417 0.10141 0.0
C4319 C 0.58894 0.24219 0.10623 0.0
H4320 H 0.88082 0.75477 0.59614 0.0
H4321 H 0.89806 0.75675 0.58054 0.0
H4322 H 0.88957 0.75095 0.60529 0.0
H4323 H 0.90677 0.753 0.58963 0.0
H4324 H 0.91942 0.73876 0.60487 0.0
H4325 H 0.9102 0.74232 0.59618 0.0
H4326 H 0.8997 0.75521 0.61258 0.0
H4327 H 0.90892 0.75157 0.62131 0.0
C4328 C 0.88648 0.75445 0.59468 0.0
C4329 C 0.88873 0.756 0.58759 0.0
C4330 C 0.8915 0.75226 0.59992 0.0
C4331 C 0.89887 0.75159 0.59818 0.0
C4332 C 0.90112 0.75328 0.59112 0.0
C4333 C 0.89612 0.75544 0.5859 0.0
C4334 C 0.91516 0.74238 0.60662 0.0
C4335 C 0.91494 0.74493 0.61376 0.0
C4336 C 0.90987 0.74443 0.60163 0.0
C4337 C 0.90424 0.74912 0.60365 0.0
C4338 C 0.90392 0.75154 0.61085 0.0
C4339 C 0.90921 0.74946 0.61586 0.0
H4340 H 0.25236 0.90845 0.62166 0.0
H4341 H 0.26393 0.91962 0.60475 0.0
H4342 H 0.24844 0.89933 0.61293 0.0
H4343 H 0.26008 0.91053 0.59607 0.0
H4344 H 0.24508 0.89834 0.58099 0.0
H4345 H 0.24908 0.90696 0.59008 0.0
H4346 H 0.2526 0.88948 0.60515 0.0
H4347 H 0.24857 0.88082 0.59602 0.0
C4348 C 0.25414 0.90891 0.6161 0.0
C4349 C 0.2584 0.9148 0.61389 0.0
C4350 C 0.2519 0.90368 0.6111 0.0
C4351 C 0.25388 0.90423 0.60377 0.0
C4352 C 0.25831 0.91002 0.60162 0.0
C4353 C 0.26053 0.91524 0.60661 0.0
C4354 C 0.24676 0.89632 0.58622 0.0
C4355 C 0.24656 0.88888 0.58775 0.0
C4356 C 0.24906 0.90127 0.59144 0.0
C4357 C 0.25124 0.89892 0.59833 0.0
C4358 C 0.25091 0.89149 0.59992 0.0
C4359 C 0.2486 0.88652 0.59469 0.0
H4360 H 0.0806 0.25293 0.60687 0.0
H4361 H 0.0974 0.25964 0.62164 0.0
H4362 H 0.08971 0.24918 0.5982 0.0
H4363 H 0.10654 0.2562 0.61278 0.0
H4364 H 0.121 0.24248 0.5979 0.0
H4365 H 0.11201 0.24584 0.60695 0.0
H4366 H 0.0983 0.25442 0.59011 0.0
H4367 H 0.10709 0.25075 0.58106 0.0
C4368 C 0.08624 0.25358 0.6083 0.0
C4369 C 0.08825 0.25658 0.61499 0.0
C4370 C 0.09148 0.25152 0.60326 0.0
C4371 C 0.09887 0.25242 0.60475 0.0
C4372 C 0.1009 0.25536 0.61147 0.0
C4373 C 0.09565 0.25742 0.61652 0.0
C4374 C 0.11604 0.24502 0.59612 0.0
C4375 C 0.11478 0.24633 0.58874 0.0
C4376 C 0.11092 0.24703 0.60132 0.0
C4377 C 0.10441 0.25039 0.59927 0.0
C4378 C 0.1032 0.25175 0.59189 0.0
C4379 C 0.10829 0.24973 0.5867 0.0
H4380 H 0.737 0.09411 0.61561 0.0
H4381 H 0.75832 0.08461 0.61512 0.0
H4382 H 0.74089 0.10326 0.60694 0.0
H4383 H 0.76218 0.09372 0.60643 0.0
H4384 H 0.76327 0.1051 0.58437 0.0
H4385 H 0.75975 0.09657 0.59376 0.0
H4386 H 0.74896 0.11373 0.60534 0.0
H4387 H 0.75233 0.12225 0.59581 0.0
C4388 C 0.74254 0.09403 0.61373 0.0
C4389 C 0.74733 0.08858 0.61603 0.0
C4390 C 0.74477 0.09927 0.60876 0.0
C4391 C 0.75183 0.09919 0.60595 0.0
C4392 C 0.75667 0.09385 0.60838 0.0
C4393 C 0.75445 0.08863 0.61336 0.0
C4394 C 0.76012 0.10705 0.5889 0.0
C4395 C 0.75805 0.11435 0.58932 0.0
C4396 C 0.75817 0.10218 0.59433 0.0
C4397 C 0.75408 0.10447 0.60031 0.0
C4398 C 0.75206 0.11178 0.60077 0.0
C4399 C 0.75405 0.11668 0.59535 0.0
H4400 H 0.90845 0.26734 0.38745 0.0
H4401 H 0.91707 0.24568 0.38869 0.0
H4402 H 0.89879 0.26396 0.39575 0.0
H4403 H 0.90761 0.24239 0.39722 0.0
H4404 H 0.88645 0.23676 0.408 0.0
H4405 H 0.89483 0.24024 0.39845 0.0
H4406 H 0.89747 0.26119 0.40842 0.0
H4407 H 0.88885 0.25782 0.41778 0.0
C4408 C 0.90826 0.26184 0.38945 0.0
C4409 C 0.91357 0.25679 0.38742 0.0
C4410 C 0.90276 0.25993 0.39428 0.0
C4411 C 0.90243 0.25292 0.39719 0.0
C4412 C 0.90765 0.24782 0.39503 0.0
C4413 C 0.91313 0.24973 0.39021 0.0
C4414 C 0.88871 0.24215 0.40808 0.0
C4415 C 0.88699 0.247 0.41368 0.0
C4416 C 0.89359 0.24412 0.40265 0.0
C4417 C 0.89687 0.25098 0.40268 0.0
C4418 C 0.895 0.25588 0.40818 0.0
C4419 C 0.89012 0.25392 0.41361 0.0
H4420 H 0.75765 0.91759 0.38927 0.0
H4421 H 0.73629 0.90834 0.38745 0.0
H4422 H 0.76098 0.90824 0.3979 0.0
H4423 H 0.73973 0.89878 0.39585 0.0
H4424 H 0.74556 0.88873 0.41785 0.0
H4425 H 0.74222 0.89743 0.40856 0.0
H4426 H 0.7635 0.89553 0.39913 0.0
H4427 H 0.76694 0.88707 0.40863 0.0
C4428 C 0.75367 0.91354 0.39068 0.0
C4429 C 0.74668 0.91376 0.38769 0.0
C4430 C 0.75561 0.90812 0.39557 0.0
C4431 C 0.75062 0.90275 0.39759 0.0
C4432 C 0.74368 0.90288 0.39448 0.0
C4433 C 0.74174 0.90831 0.3896 0.0
C4434 C 0.74954 0.8902 0.41382 0.0
C4435 C 0.75654 0.88723 0.41403 0.0
C4436 C 0.74759 0.89512 0.40843 0.0
C4437 C 0.75259 0.8972 0.40309 0.0
C4438 C 0.75954 0.89412 0.40321 0.0
C4439 C 0.76149 0.8892 0.40861 0.0
H4440 H 0.11536 0.74473 0.41875 0.0
H4441 H 0.11557 0.76601 0.40914 0.0
H4442 H 0.10666 0.74074 0.4097 0.0
H4443 H 0.10689 0.76199 0.40006 0.0
H4444 H 0.09572 0.75035 0.3812 0.0
H4445 H 0.10529 0.75384 0.38962 0.0
H4446 H 0.09395 0.74304 0.40694 0.0
H4447 H 0.08452 0.7394 0.39851 0.0
C4448 C 0.11354 0.74857 0.41472 0.0
C4449 C 0.11613 0.75572 0.41471 0.0
C4450 C 0.10855 0.74627 0.40953 0.0
C4451 C 0.10604 0.75105 0.40418 0.0
C4452 C 0.10878 0.75814 0.40405 0.0
C4453 C 0.11376 0.76045 0.40926 0.0
C4454 C 0.09532 0.74866 0.38679 0.0
C4455 C 0.08935 0.74462 0.38919 0.0
C4456 C 0.10077 0.75071 0.39163 0.0
C4457 C 0.10039 0.74872 0.39896 0.0
C4458 C 0.09446 0.7446 0.40132 0.0
C4459 C 0.08901 0.74258 0.3965 0.0
H4460 H 0.26658 0.09488 0.38849 0.0
H4461 H 0.24503 0.08598 0.38974 0.0
H4462 H 0.26309 0.10446 0.39684 0.0
H4463 H 0.24164 0.09536 0.39832 0.0
H4464 H 0.23579 0.11656 0.40905 0.0
H4465 H 0.23932 0.10811 0.39957 0.0
H4466 H 0.26031 0.10574 0.40952 0.0
H4467 H 0.2569 0.11441 0.4188 0.0
C4468 C 0.26108 0.09499 0.3905 0.0
C4469 C 0.2561 0.08963 0.38846 0.0
C4470 C 0.25911 0.10044 0.39536 0.0
C4471 C 0.25209 0.10067 0.39829 0.0
C4472 C 0.24707 0.0954 0.39612 0.0
C4473 C 0.24904 0.08996 0.39127 0.0
C4474 C 0.2412 0.11432 0.40915 0.0
C4475 C 0.24605 0.11615 0.41472 0.0
C4476 C 0.2432 0.10941 0.40376 0.0
C4477 C 0.25009 0.10621 0.40379 0.0
C4478 C 0.25499 0.10815 0.40927 0.0
C4479 C 0.25299 0.11306 0.41466 0.0
H4480 H 0.60438 0.92125 0.74136 0.0
H4481 H 0.62177 0.90807 0.74964 0.0
H4482 H 0.59566 0.91217 0.74515 0.0
H4483 H 0.61301 0.89897 0.7535 0.0
H4484 H 0.59537 0.88126 0.75306 0.0
H4485 H 0.60442 0.89002 0.74909 0.0
H4486 H 0.59059 0.90746 0.75617 0.0
H4487 H 0.58157 0.89873 0.76008 0.0
C4488 C 0.60634 0.91643 0.74404 0.0
C4489 C 0.61377 0.91542 0.74524 0.0
C4490 C 0.60133 0.91122 0.74623 0.0
C4491 C 0.60362 0.90485 0.7497 0.0
C4492 C 0.61107 0.90377 0.75078 0.0
C4493 C 0.61608 0.90899 0.74857 0.0
C4494 C 0.59429 0.88697 0.75382 0.0
C4495 C 0.58772 0.8893 0.75683 0.0
C4496 C 0.59948 0.89199 0.75155 0.0
C4497 C 0.59822 0.89946 0.75225 0.0
C4498 C 0.59169 0.90176 0.75539 0.0
C4499 C 0.58651 0.89675 0.75764 0.0
H4500 H 0.12257 0.59597 0.75291 0.0
H4501 H 0.10541 0.58511 0.76441 0.0
H4502 H 0.11419 0.60564 0.74957 0.0
H4503 H 0.09702 0.59465 0.76094 0.0
H4504 H 0.08543 0.61613 0.75937 0.0
H4505 H 0.09454 0.60744 0.76322 0.0
H4506 H 0.10351 0.60726 0.74168 0.0
H4507 H 0.09436 0.61593 0.7378 0.0
C4508 C 0.11703 0.59567 0.75475 0.0
C4509 C 0.11465 0.58976 0.7589 0.0
C4510 C 0.11221 0.60117 0.75279 0.0
C4511 C 0.10494 0.60091 0.75498 0.0
C4512 C 0.1026 0.59506 0.75922 0.0
C4513 C 0.10739 0.58955 0.76114 0.0
C4514 C 0.08933 0.61423 0.75544 0.0
C4515 C 0.08911 0.61669 0.74825 0.0
C4516 C 0.09456 0.60925 0.75765 0.0
C4517 C 0.09972 0.60661 0.75274 0.0
C4518 C 0.09966 0.60924 0.74561 0.0
C4519 C 0.09441 0.61422 0.74339 0.0
H4520 H 0.40891 0.11539 0.76646 0.0
H4521 H 0.41871 0.11442 0.74529 0.0
H4522 H 0.39981 0.10664 0.76263 0.0
H4523 H 0.40965 0.10564 0.7415 0.0
H4524 H 0.39828 0.08359 0.74072 0.0
H4525 H 0.40678 0.09301 0.74423 0.0
H4526 H 0.38943 0.1049 0.75438 0.0
H4527 H 0.38094 0.09534 0.75101 0.0
C4528 C 0.40907 0.11339 0.76096 0.0
C4529 C 0.41459 0.11557 0.7562 0.0
C4530 C 0.40385 0.10837 0.75877 0.0
C4531 C 0.40404 0.1054 0.75177 0.0
C4532 C 0.40944 0.10772 0.74696 0.0
C4533 C 0.41464 0.11275 0.74914 0.0
C4534 C 0.39628 0.08819 0.74374 0.0
C4535 C 0.38894 0.0887 0.74561 0.0
C4536 C 0.40114 0.09364 0.74568 0.0
C4537 C 0.39878 0.09972 0.74957 0.0
C4538 C 0.39143 0.10025 0.75143 0.0
C4539 C 0.38655 0.09482 0.74944 0.0
H4540 H 0.8803 0.4074 0.75459 0.0
H4541 H 0.89784 0.42252 0.75752 0.0
H4542 H 0.8889 0.39825 0.75047 0.0
H4543 H 0.9064 0.41341 0.75347 0.0
H4544 H 0.91899 0.39844 0.73889 0.0
H4545 H 0.90991 0.4072 0.74262 0.0
H4546 H 0.89876 0.39056 0.75462 0.0
H4547 H 0.90785 0.38176 0.75081 0.0
C4548 C 0.88599 0.40875 0.75441 0.0
C4549 C 0.88838 0.41571 0.75632 0.0
C4550 C 0.89093 0.40351 0.75205 0.0
C4551 C 0.89835 0.4051 0.75158 0.0
C4552 C 0.90072 0.41203 0.7536 0.0
C4553 C 0.8958 0.41726 0.75594 0.0
C4554 C 0.91462 0.39665 0.74235 0.0
C4555 C 0.91419 0.38942 0.74461 0.0
C4556 C 0.90941 0.40168 0.74449 0.0
C4557 C 0.90364 0.39961 0.74899 0.0
C4558 C 0.9031 0.39233 0.75111 0.0
C4559 C 0.90831 0.38728 0.74893 0.0
H4560 H 0.58989 0.10962 0.23603 0.0
H4561 H 0.59143 0.1201 0.25682 0.0
H4562 H 0.59916 0.10101 0.23966 0.0
H4563 H 0.60081 0.11158 0.26043 0.0
H4564 H 0.61085 0.08998 0.26735 0.0
H4565 H 0.60219 0.09919 0.26366 0.0
H4566 H 0.61169 0.09955 0.24232 0.0
H4567 H 0.62026 0.09023 0.246 0.0
C4568 C 0.59229 0.11015 0.24134 0.0
C4569 C 0.58991 0.11553 0.24614 0.0
C4570 C 0.59763 0.10522 0.24343 0.0
C4571 C 0.60075 0.10557 0.25036 0.0
C4572 C 0.59845 0.11105 0.2551 0.0
C4573 C 0.59308 0.11596 0.25303 0.0
C4574 C 0.61114 0.09209 0.2619 0.0
C4575 C 0.61623 0.08936 0.25697 0.0
C4576 C 0.60618 0.09738 0.25978 0.0
C4577 C 0.60622 0.10012 0.25268 0.0
C4578 C 0.61141 0.09748 0.24779 0.0
C4579 C 0.61634 0.09215 0.2499 0.0
H4580 H 0.91999 0.60468 0.26267 0.0
H4581 H 0.90842 0.62193 0.25203 0.0
H4582 H 0.91062 0.59616 0.25909 0.0
H4583 H 0.89891 0.61341 0.24859 0.0
H4584 H 0.88863 0.59379 0.23651 0.0
H4585 H 0.89727 0.60297 0.24041 0.0
H4586 H 0.89798 0.59329 0.26163 0.0
H4587 H 0.88933 0.58416 0.25777 0.0
C4588 C 0.91544 0.60665 0.25956 0.0
C4589 C 0.91497 0.61398 0.2576 0.0
C4590 C 0.91002 0.60178 0.25758 0.0
C4591 C 0.904 0.60411 0.25356 0.0
C4592 C 0.90351 0.61144 0.25163 0.0
C4593 C 0.90892 0.61633 0.25366 0.0
C4594 C 0.89055 0.59369 0.24204 0.0
C4595 C 0.88833 0.58819 0.2468 0.0
C4596 C 0.8955 0.59895 0.24427 0.0
C4597 C 0.89836 0.59883 0.25132 0.0
C4598 C 0.89599 0.59346 0.25613 0.0
C4599 C 0.89103 0.58821 0.25391 0.0
H4600 H 0.40832 0.88688 0.23623 0.0
H4601 H 0.41733 0.88841 0.25771 0.0
H4602 H 0.39879 0.89532 0.23963 0.0
H4603 H 0.408 0.89709 0.26101 0.0
H4604 H 0.38693 0.90809 0.26679 0.0
H4605 H 0.39527 0.89848 0.26337 0.0
H4606 H 0.39759 0.90803 0.2422 0.0
H4607 H 0.38902 0.91744 0.2455 0.0
C4608 C 0.40824 0.88897 0.24169 0.0
C4609 C 0.41361 0.88698 0.24668 0.0
C4610 C 0.40282 0.89389 0.24362 0.0
C4611 C 0.40264 0.89693 0.25058 0.0
C4612 C 0.40792 0.89481 0.25562 0.0
C4613 C 0.41333 0.8899 0.2537 0.0
C4614 C 0.38912 0.90807 0.26136 0.0
C4615 C 0.38732 0.91357 0.25643 0.0
C4616 C 0.39398 0.9026 0.25943 0.0
C4617 C 0.39715 0.90249 0.25252 0.0
C4618 C 0.39521 0.9079 0.24754 0.0
C4619 C 0.39036 0.91336 0.24947 0.0
H4620 H 0.11397 0.41923 0.25819 0.0
H4621 H 0.11484 0.40962 0.23693 0.0
H4622 H 0.10532 0.41007 0.26199 0.0
H4623 H 0.1062 0.40041 0.24076 0.0
H4624 H 0.09505 0.3814 0.25221 0.0
H4625 H 0.10456 0.38996 0.2489 0.0
H4626 H 0.09271 0.40714 0.25936 0.0
H4627 H 0.08333 0.39857 0.26282 0.0
C4628 C 0.11231 0.41518 0.25432 0.0
C4629 C 0.11506 0.41521 0.24723 0.0
C4630 C 0.10735 0.40991 0.2565 0.0
C4631 C 0.10503 0.40454 0.25166 0.0
C4632 C 0.10793 0.40443 0.24464 0.0
C4633 C 0.11289 0.40971 0.24245 0.0
C4634 C 0.09452 0.38699 0.25387 0.0
C4635 C 0.08842 0.38931 0.25776 0.0
C4636 C 0.09993 0.3919 0.25191 0.0
C4637 C 0.09939 0.39923 0.25386 0.0
C4638 C 0.09333 0.40152 0.25784 0.0
C4639 C 0.08791 0.39663 0.25975 0.0
H4640 H 0.75791 0.61366 0.91678 0.0
H4641 H 0.73633 0.61508 0.908 0.0
H4642 H 0.76121 0.60514 0.90732 0.0
H4643 H 0.73973 0.60679 0.89833 0.0
H4644 H 0.74581 0.58475 0.88836 0.0
H4645 H 0.74243 0.59411 0.89698 0.0
H4646 H 0.76347 0.60394 0.89456 0.0
H4647 H 0.76696 0.59439 0.88617 0.0
C4648 C 0.75388 0.61218 0.91281 0.0
C4649 C 0.74683 0.61502 0.9132 0.0
C4650 C 0.7558 0.60736 0.90732 0.0
C4651 C 0.75074 0.60526 0.90206 0.0
C4652 C 0.74374 0.60822 0.90234 0.0
C4653 C 0.74181 0.61305 0.90784 0.0
C4654 C 0.74973 0.58889 0.88968 0.0
C4655 C 0.75668 0.58878 0.88661 0.0
C4656 C 0.74775 0.59432 0.89456 0.0
C4657 C 0.75268 0.59977 0.89649 0.0
C4658 C 0.75957 0.59977 0.89327 0.0
C4659 C 0.76154 0.59434 0.88839 0.0
H4660 H 0.74047 0.39839 0.08314 0.0
H4661 H 0.75027 0.38095 0.09518 0.0
H4662 H 0.74406 0.4069 0.09252 0.0
H4663 H 0.75371 0.38946 0.10469 0.0
H4664 H 0.76618 0.40878 0.11501 0.0
H4665 H 0.76218 0.39964 0.10638 0.0
H4666 H 0.74131 0.41001 0.10509 0.0
H4667 H 0.74528 0.41911 0.11374 0.0
C4668 C 0.74339 0.39637 0.0878 0.0
C4669 C 0.74512 0.389 0.08839 0.0
C4670 C 0.74538 0.40124 0.09322 0.0
C4671 C 0.74916 0.39886 0.09937 0.0
C4672 C 0.75085 0.39148 0.09999 0.0
C4673 C 0.74882 0.38659 0.09458 0.0
C4674 C 0.7607 0.40905 0.11297 0.0
C4675 C 0.75607 0.41472 0.11503 0.0
C4676 C 0.75841 0.40381 0.10802 0.0
C4677 C 0.75144 0.40413 0.105 0.0
C4678 C 0.74675 0.40969 0.10721 0.0
C4679 C 0.74904 0.41491 0.11216 0.0
H4680 H 0.59504 0.75243 0.12233 0.0
H4681 H 0.58315 0.76297 0.10523 0.0
H4682 H 0.60454 0.7492 0.11372 0.0
H4683 H 0.59252 0.7596 0.09662 0.0
H4684 H 0.61382 0.75868 0.08449 0.0
H4685 H 0.60512 0.76235 0.09367 0.0
H4686 H 0.6062 0.7411 0.10324 0.0
H4687 H 0.61488 0.73739 0.09403 0.0
C4688 C 0.59447 0.75409 0.11675 0.0
C4689 C 0.58833 0.75794 0.11446 0.0
C4690 C 0.59988 0.75218 0.1118 0.0
C4691 C 0.59929 0.75414 0.10448 0.0
C4692 C 0.59319 0.75807 0.10223 0.0
C4693 C 0.58777 0.75993 0.10715 0.0
C4694 C 0.61219 0.75477 0.08853 0.0
C4695 C 0.61502 0.74771 0.08848 0.0
C4696 C 0.6072 0.75688 0.0938 0.0
C4697 C 0.60493 0.75201 0.09916 0.0
C4698 C 0.6079 0.74501 0.09923 0.0
C4699 C 0.61288 0.74289 0.09395 0.0
H4700 H 0.2577 0.58551 0.11404 0.0
H4701 H 0.2364 0.59487 0.11598 0.0
H4702 H 0.26104 0.59488 0.10542 0.0
H4703 H 0.23984 0.60443 0.10759 0.0
H4704 H 0.24558 0.61428 0.08546 0.0
H4705 H 0.24226 0.60568 0.09484 0.0
H4706 H 0.26358 0.6076 0.10416 0.0
H4707 H 0.26701 0.61598 0.09457 0.0
C4708 C 0.25373 0.58959 0.11266 0.0
C4709 C 0.24676 0.5894 0.11567 0.0
C4710 C 0.25568 0.59502 0.10778 0.0
C4711 C 0.2507 0.60041 0.10579 0.0
C4712 C 0.24378 0.60032 0.10893 0.0
C4713 C 0.24183 0.59488 0.11381 0.0
C4714 C 0.24957 0.61285 0.08949 0.0
C4715 C 0.25658 0.61579 0.08922 0.0
C4716 C 0.24764 0.60798 0.09493 0.0
C4717 C 0.25265 0.60593 0.10026 0.0
C4718 C 0.25961 0.60899 0.10009 0.0
C4719 C 0.26155 0.61386 0.09464 0.0
H4720 H 0.40847 0.237 0.11758 0.0
H4721 H 0.41831 0.25806 0.11542 0.0
H4722 H 0.39899 0.24057 0.10917 0.0
H4723 H 0.40901 0.26152 0.10676 0.0
H4724 H 0.38805 0.26776 0.09571 0.0
H4725 H 0.39634 0.26432 0.10538 0.0
H4726 H 0.39784 0.24282 0.0964 0.0
H4727 H 0.38933 0.24616 0.08695 0.0
C4728 C 0.40858 0.24241 0.11536 0.0
C4729 C 0.41418 0.24723 0.11716 0.0
C4730 C 0.40319 0.24443 0.11046 0.0
C4731 C 0.40325 0.25132 0.10724 0.0
C4732 C 0.40875 0.25619 0.10918 0.0
C4733 C 0.41414 0.25418 0.11408 0.0
C4734 C 0.39006 0.26227 0.09587 0.0
C4735 C 0.38805 0.25725 0.09053 0.0
C4736 C 0.39488 0.26032 0.10137 0.0
C4737 C 0.3978 0.2533 0.10166 0.0
C4738 C 0.39566 0.24825 0.0964 0.0
C4739 C 0.39084 0.2502 0.09092 0.0
H4740 H 0.23732 0.40943 0.88759 0.0
H4741 H 0.25847 0.4193 0.88811 0.0
H4742 H 0.24136 0.40034 0.89625 0.0
H4743 H 0.26248 0.41024 0.89679 0.0
H4744 H 0.26358 0.39907 0.91897 0.0
H4745 H 0.26003 0.40744 0.90946 0.0
H4746 H 0.24959 0.39001 0.89797 0.0
H4747 H 0.25298 0.38164 0.90763 0.0
C4748 C 0.24286 0.4096 0.88946 0.0
C4749 C 0.24755 0.41513 0.88719 0.0
C4750 C 0.24517 0.40439 0.89443 0.0
C4751 C 0.25223 0.4046 0.89726 0.0
C4752 C 0.25698 0.41001 0.89483 0.0
C4753 C 0.25467 0.4152 0.88985 0.0
C4754 C 0.2605 0.39702 0.91443 0.0
C4755 C 0.25853 0.3897 0.91408 0.0
C4756 C 0.25853 0.40181 0.90894 0.0
C4757 C 0.25453 0.3994 0.90295 0.0
C4758 C 0.25262 0.39205 0.90254 0.0
C4759 C 0.25462 0.38724 0.90804 0.0
H4760 H 0.58069 0.24457 0.89825 0.0
H4761 H 0.59544 0.24897 0.88071 0.0
H4762 H 0.58972 0.24861 0.90689 0.0
H4763 H 0.60452 0.25307 0.88939 0.0
H4764 H 0.62121 0.25275 0.90819 0.0
H4765 H 0.6125 0.24886 0.89904 0.0
H4766 H 0.59543 0.25967 0.91073 0.0
H4767 H 0.60409 0.2635 0.91986 0.0
C4768 C 0.58585 0.24647 0.89623 0.0
C4769 C 0.58731 0.24651 0.88878 0.0
C4770 C 0.59103 0.2488 0.90119 0.0
C4771 C 0.59783 0.25124 0.89884 0.0
C4772 C 0.59936 0.25116 0.89139 0.0
C4773 C 0.59416 0.24882 0.88641 0.0
C4774 C 0.6156 0.25436 0.90876 0.0
C4775 C 0.61333 0.25838 0.91479 0.0
C4776 C 0.61062 0.25213 0.90351 0.0
C4777 C 0.60325 0.25388 0.90419 0.0
C4778 C 0.60103 0.25808 0.91012 0.0
C4779 C 0.606 0.26028 0.91536 0.0
H4780 H 0.41807 0.74597 0.8887 0.0
H4781 H 0.40906 0.76748 0.88758 0.0
H4782 H 0.40877 0.74251 0.89734 0.0
H4783 H 0.39956 0.76393 0.896 0.0
H4784 H 0.38987 0.75758 0.91807 0.0
H4785 H 0.39841 0.76109 0.90869 0.0
H4786 H 0.39601 0.74015 0.89865 0.0
H4787 H 0.3877 0.73652 0.90822 0.0
C4788 C 0.41408 0.74995 0.89027 0.0
C4789 C 0.41435 0.75702 0.88748 0.0
C4790 C 0.40868 0.74794 0.89516 0.0
C4791 C 0.40341 0.75294 0.89739 0.0
C4792 C 0.40358 0.75996 0.89448 0.0
C4793 C 0.40899 0.76198 0.88958 0.0
C4794 C 0.39118 0.75371 0.91388 0.0
C4795 C 0.38813 0.74674 0.91394 0.0
C4796 C 0.39602 0.75575 0.90845 0.0
C4797 C 0.39792 0.7509 0.90292 0.0
C4798 C 0.39474 0.74399 0.90288 0.0
C4799 C 0.3899 0.74194 0.90832 0.0
H4800 H 0.08852 0.30086 0.32602 0.0
H4801 H 0.06524 0.30253 0.32704 0.0
H4802 H 0.08873 0.30996 0.31646 0.0
H4803 H 0.06546 0.31151 0.31743 0.0
H4804 H 0.06798 0.32203 0.29531 0.0
H4805 H 0.06824 0.31251 0.3044 0.0
H4806 H 0.08616 0.32307 0.31497 0.0
H4807 H 0.08584 0.33267 0.30594 0.0
C4808 C 0.08345 0.30318 0.32424 0.0
C4809 C 0.07686 0.30094 0.3273 0.0
C4810 C 0.08357 0.30838 0.31875 0.0
C4811 C 0.07711 0.31143 0.31617 0.0
C4812 C 0.07053 0.30917 0.31921 0.0
C4813 C 0.07041 0.30401 0.32471 0.0
C4814 C 0.07195 0.32236 0.29959 0.0
C4815 C 0.07686 0.32816 0.29991 0.0
C4816 C 0.07211 0.31689 0.3048 0.0
C4817 C 0.0772 0.31706 0.31043 0.0
C4818 C 0.08222 0.32275 0.31066 0.0
C4819 C 0.08205 0.32824 0.30547 0.0
H4820 H 0.67076 0.08623 0.30772 0.0
H4821 H 0.68012 0.06677 0.29882 0.0
H4822 H 0.68035 0.08671 0.31673 0.0
H4823 H 0.68948 0.06704 0.30806 0.0
H4824 H 0.70916 0.07308 0.32144 0.0
H4825 H 0.70005 0.07339 0.31191 0.0
H4826 H 0.68412 0.08052 0.32744 0.0
H4827 H 0.69326 0.08032 0.33691 0.0
C4828 C 0.67488 0.08207 0.30766 0.0
C4829 C 0.67464 0.07645 0.30254 0.0
C4830 C 0.68033 0.08229 0.31289 0.0
C4831 C 0.68568 0.0769 0.31316 0.0
C4832 C 0.6855 0.07133 0.30798 0.0
C4833 C 0.68006 0.07112 0.30273 0.0
C4834 C 0.70371 0.0747 0.32281 0.0
C4835 C 0.70194 0.07667 0.32992 0.0
C4836 C 0.69847 0.07487 0.31735 0.0
C4837 C 0.69133 0.07697 0.3189 0.0
C4838 C 0.68958 0.079 0.32601 0.0
C4839 C 0.69483 0.07887 0.33145 0.0
H4840 H 0.92263 0.69302 0.33517 0.0
H4841 H 0.92892 0.70914 0.31951 0.0
H4842 H 0.92239 0.68388 0.32569 0.0
H4843 H 0.92858 0.70003 0.30999 0.0
H4844 H 0.93564 0.68031 0.2968 0.0
H4845 H 0.93521 0.68969 0.30599 0.0
H4846 H 0.9161 0.67986 0.31513 0.0
H4847 H 0.91677 0.67025 0.30617 0.0
C4848 C 0.92385 0.69463 0.32968 0.0
C4849 C 0.92581 0.7018 0.3281 0.0
C4850 C 0.92371 0.6894 0.32423 0.0
C4851 C 0.92548 0.6912 0.31706 0.0
C4852 C 0.92731 0.69841 0.31547 0.0
C4853 C 0.92749 0.70364 0.32092 0.0
C4854 C 0.93138 0.68011 0.3008 0.0
C4855 C 0.92627 0.67448 0.30076 0.0
C4856 C 0.93107 0.68556 0.30602 0.0
C4857 C 0.92562 0.68555 0.31132 0.0
C4858 C 0.92043 0.68 0.3112 0.0
C4859 C 0.92075 0.67453 0.30599 0.0
H4860 H 0.33401 0.9354 0.30866 0.0
H4861 H 0.32291 0.91867 0.29678 0.0
H4862 H 0.32462 0.93514 0.31786 0.0
H4863 H 0.31342 0.91846 0.30596 0.0
H4864 H 0.30159 0.91519 0.32758 0.0
H4865 H 0.31101 0.91515 0.31835 0.0
H4866 H 0.31225 0.93844 0.31957 0.0
H4867 H 0.30314 0.93845 0.32902 0.0
C4868 C 0.32952 0.93171 0.30798 0.0
C4869 C 0.32919 0.92708 0.30197 0.0
C4870 C 0.32412 0.93156 0.31326 0.0
C4871 C 0.31822 0.92681 0.31264 0.0
C4872 C 0.31792 0.92213 0.30666 0.0
C4873 C 0.32335 0.92225 0.30139 0.0
C4874 C 0.30392 0.9203 0.32592 0.0
C4875 C 0.3016 0.92682 0.32906 0.0
C4876 C 0.30926 0.92028 0.32057 0.0
C4877 C 0.31241 0.92679 0.31822 0.0
C4878 C 0.31003 0.93331 0.32131 0.0
C4879 C 0.30472 0.93333 0.32667 0.0
H4880 H 0.07597 0.7089 0.68278 0.0
H4881 H 0.0802 0.69275 0.66647 0.0
H4882 H 0.07604 0.69952 0.69208 0.0
H4883 H 0.0804 0.6834 0.67577 0.0
H4884 H 0.07083 0.66824 0.69308 0.0
H4885 H 0.07139 0.67766 0.68388 0.0
H4886 H 0.08442 0.6908 0.6981 0.0
H4887 H 0.08375 0.68139 0.70738 0.0
C4888 C 0.07694 0.70335 0.68119 0.0
C4889 C 0.07807 0.70157 0.67389 0.0
C4890 C 0.07704 0.69799 0.68652 0.0
C4891 C 0.07821 0.69072 0.68465 0.0
C4892 C 0.07942 0.68895 0.67737 0.0
C4893 C 0.07938 0.69431 0.67205 0.0
C4894 C 0.07378 0.67315 0.69425 0.0
C4895 C 0.07723 0.67408 0.70096 0.0
C4896 C 0.07416 0.67852 0.68896 0.0
C4897 C 0.07796 0.68497 0.69026 0.0
C4898 C 0.08141 0.6859 0.69696 0.0
C4899 C 0.08109 0.6805 0.70224 0.0
H4900 H 0.31023 0.08108 0.66771 0.0
H4901 H 0.29418 0.07497 0.68351 0.0
H4902 H 0.31943 0.08133 0.67713 0.0
H4903 H 0.30334 0.07534 0.69297 0.0
H4904 H 0.32309 0.06826 0.7061 0.0
H4905 H 0.31366 0.06868 0.69696 0.0
H4906 H 0.32355 0.08767 0.68763 0.0
H4907 H 0.33321 0.08701 0.69654 0.0
C4908 C 0.30864 0.0799 0.67322 0.0
C4909 C 0.30148 0.07799 0.67486 0.0
C4910 C 0.31392 0.08005 0.67863 0.0
C4911 C 0.31214 0.07834 0.68583 0.0
C4912 C 0.30494 0.07656 0.68748 0.0
C4913 C 0.29968 0.07636 0.68206 0.0
C4914 C 0.32329 0.07249 0.70207 0.0
C4915 C 0.32895 0.07757 0.70204 0.0
C4916 C 0.31782 0.0728 0.69687 0.0
C4917 C 0.31783 0.07821 0.69153 0.0
C4918 C 0.32341 0.08337 0.69159 0.0
C4919 C 0.32891 0.08305 0.69677 0.0
H4920 H 0.93521 0.33347 0.69433 0.0
H4921 H 0.91801 0.32296 0.70607 0.0
H4922 H 0.93502 0.32385 0.68537 0.0
H4923 H 0.91788 0.31323 0.69715 0.0
H4924 H 0.91495 0.30087 0.67578 0.0
H4925 H 0.91484 0.3105 0.68478 0.0
H4926 H 0.93816 0.31142 0.68404 0.0
H4927 H 0.93825 0.3021 0.67479 0.0
C4928 C 0.93143 0.32906 0.69503 0.0
C4929 C 0.92665 0.32896 0.70093 0.0
C4930 C 0.93133 0.32353 0.6899 0.0
C4931 C 0.92647 0.31772 0.69055 0.0
C4932 C 0.92163 0.31765 0.69643 0.0
C4933 C 0.92171 0.32323 0.70155 0.0
C4934 C 0.92005 0.30317 0.67749 0.0
C4935 C 0.9266 0.3007 0.67454 0.0
C4936 C 0.91999 0.30864 0.68272 0.0
C4937 C 0.92649 0.31177 0.68513 0.0
C4938 C 0.93304 0.30922 0.68224 0.0
C4939 C 0.9331 0.30379 0.677 0.0
H4940 H 0.7056 0.93578 0.68036 0.0
H4941 H 0.69681 0.91652 0.67052 0.0
H4942 H 0.69633 0.93526 0.68966 0.0
H4943 H 0.68776 0.91579 0.68005 0.0
H4944 H 0.66746 0.922 0.69296 0.0
H4945 H 0.677 0.92191 0.68389 0.0
H4946 H 0.69244 0.92862 0.70007 0.0
H4947 H 0.68286 0.92881 0.70912 0.0
C4948 C 0.70171 0.93142 0.68019 0.0
C4949 C 0.70194 0.92622 0.67465 0.0
C4950 C 0.69644 0.93107 0.68559 0.0
C4951 C 0.69128 0.92548 0.68562 0.0
C4952 C 0.69158 0.92021 0.68015 0.0
C4953 C 0.69684 0.92058 0.67473 0.0
C4954 C 0.67291 0.92337 0.6946 0.0
C4955 C 0.6744 0.92543 0.70176 0.0
C4956 C 0.67839 0.92331 0.6894 0.0
C4957 C 0.6855 0.92527 0.69123 0.0
C4958 C 0.68701 0.92721 0.69843 0.0
C4959 C 0.68152 0.9273 0.70362 0.0
H4960 H 0.30837 0.06783 0.33491 0.0
H4961 H 0.29564 0.08352 0.32324 0.0
H4962 H 0.31745 0.06809 0.32541 0.0
H4963 H 0.30469 0.08372 0.31364 0.0
H4964 H 0.32598 0.08746 0.3014 0.0
H4965 H 0.31685 0.08747 0.3109 0.0
H4966 H 0.31925 0.06436 0.31321 0.0
H4967 H 0.32862 0.0644 0.30402 0.0
C4968 C 0.30748 0.07129 0.33027 0.0
C4969 C 0.30126 0.07563 0.32982 0.0
C4970 C 0.31268 0.07143 0.32481 0.0
C4971 C 0.3118 0.07589 0.31872 0.0
C4972 C 0.3056 0.08028 0.31829 0.0
C4973 C 0.3004 0.08017 0.32378 0.0
C4974 C 0.32461 0.08239 0.30398 0.0
C4975 C 0.32806 0.07593 0.30193 0.0
C4976 C 0.3193 0.08238 0.30938 0.0
C4977 C 0.31732 0.07592 0.31285 0.0
C4978 C 0.32071 0.06946 0.31074 0.0
C4979 C 0.32602 0.06947 0.30537 0.0
H4980 H 0.93301 0.31032 0.33541 0.0
H4981 H 0.92104 0.29549 0.32193 0.0
H4982 H 0.93239 0.31946 0.32593 0.0
H4983 H 0.92033 0.3047 0.31246 0.0
H4984 H 0.92869 0.32038 0.29459 0.0
H4985 H 0.92877 0.31108 0.30398 0.0
H4986 H 0.92312 0.32715 0.31993 0.0
H4987 H 0.92314 0.33645 0.31057 0.0
C4988 C 0.93026 0.30901 0.33041 0.0
C4989 C 0.92709 0.30218 0.32941 0.0
C4990 C 0.92984 0.31427 0.32501 0.0
C4991 C 0.9263 0.3128 0.31845 0.0
C4992 C 0.92314 0.30597 0.31744 0.0
C4993 C 0.92349 0.30072 0.32288 0.0
C4994 C 0.92746 0.32191 0.3001 0.0
C4995 C 0.92592 0.32915 0.30184 0.0
C4996 C 0.92746 0.31658 0.30546 0.0
C4997 C 0.92597 0.31839 0.31269 0.0
C4998 C 0.92435 0.3256 0.31441 0.0
C4999 C 0.92429 0.33092 0.30905 0.0
H5000 H 0.67615 0.91573 0.30104 0.0
H5001 H 0.67415 0.93888 0.30339 0.0
H5002 H 0.68521 0.91556 0.3106 0.0
H5003 H 0.68346 0.93875 0.31264 0.0
H5004 H 0.69409 0.9352 0.33446 0.0
H5005 H 0.68505 0.93507 0.32491 0.0
H5006 H 0.69746 0.919 0.31337 0.0
H5007 H 0.70647 0.91906 0.32303 0.0
C5008 C 0.67765 0.92079 0.30358 0.0
C5009 C 0.67439 0.92732 0.30144 0.0
C5010 C 0.68292 0.9207 0.309 0.0
C5011 C 0.68507 0.92714 0.31242 0.0
C5012 C 0.68187 0.93367 0.31022 0.0
C5013 C 0.67659 0.93376 0.30482 0.0
C5014 C 0.69491 0.93167 0.32987 0.0
C5015 C 0.70101 0.92716 0.32949 0.0
C5016 C 0.68973 0.9316 0.32437 0.0
C5017 C 0.69054 0.92706 0.31833 0.0
C5018 C 0.69662 0.9225 0.31798 0.0
C5019 C 0.70179 0.92254 0.32351 0.0
H5020 H 0.07427 0.68298 0.29396 0.0
H5021 H 0.08186 0.66768 0.30986 0.0
H5022 H 0.07453 0.69255 0.30304 0.0
H5023 H 0.08199 0.67719 0.31897 0.0
H5024 H 0.08723 0.69692 0.3324 0.0
H5025 H 0.08794 0.68799 0.32276 0.0
H5026 H 0.06814 0.69632 0.31359 0.0
H5027 H 0.06765 0.7055 0.32299 0.0
C5028 C 0.07597 0.68166 0.29941 0.0
C5029 C 0.07804 0.67458 0.3012 0.0
C5030 C 0.0761 0.68714 0.30462 0.0
C5031 C 0.07826 0.68565 0.31176 0.0
C5032 C 0.08042 0.67857 0.31351 0.0
C5033 C 0.08033 0.67311 0.30829 0.0
C5034 C 0.08309 0.69694 0.32826 0.0
C5035 C 0.07737 0.70194 0.3285 0.0
C5036 C 0.08345 0.69174 0.32278 0.0
C5037 C 0.07808 0.69139 0.3174 0.0
C5038 C 0.07242 0.69647 0.31758 0.0
C5039 C 0.07208 0.70168 0.32304 0.0
H5040 H 0.29631 0.92079 0.68131 0.0
H5041 H 0.31019 0.93457 0.66859 0.0
H5042 H 0.30553 0.92028 0.69079 0.0
H5043 H 0.31933 0.93415 0.67808 0.0
H5044 H 0.337 0.92515 0.69284 0.0
H5045 H 0.32768 0.92511 0.68351 0.0
H5046 H 0.31133 0.92864 0.69978 0.0
H5047 H 0.32066 0.92857 0.70916 0.0
C5048 C 0.30133 0.92369 0.68054 0.0
C5049 C 0.30252 0.92773 0.67421 0.0
C5050 C 0.30658 0.92345 0.68598 0.0
C5051 C 0.31316 0.92716 0.68517 0.0
C5052 C 0.31435 0.93117 0.67883 0.0
C5053 C 0.30908 0.93147 0.67343 0.0
C5054 C 0.33141 0.92584 0.69444 0.0
C5055 C 0.32957 0.92686 0.70174 0.0
C5056 C 0.32608 0.92588 0.68909 0.0
C5057 C 0.31878 0.9269 0.69091 0.0
C5058 C 0.31691 0.9278 0.69822 0.0
C5059 C 0.32225 0.92782 0.70357 0.0
H5060 H 0.07298 0.32032 0.70966 0.0
H5061 H 0.0808 0.33562 0.69387 0.0
H5062 H 0.07336 0.31076 0.70059 0.0
H5063 H 0.08108 0.32611 0.68477 0.0
H5064 H 0.08665 0.30631 0.67153 0.0
H5065 H 0.08717 0.31526 0.68117 0.0
H5066 H 0.06713 0.30702 0.68988 0.0
H5067 H 0.06681 0.29784 0.68047 0.0
C5068 C 0.07475 0.32165 0.70424 0.0
C5069 C 0.07686 0.32873 0.70249 0.0
C5070 C 0.07496 0.31617 0.69904 0.0
C5071 C 0.07724 0.31765 0.69193 0.0
C5072 C 0.07942 0.32473 0.69021 0.0
C5073 C 0.07924 0.3302 0.69543 0.0
C5074 C 0.08242 0.30633 0.67557 0.0
C5075 C 0.07668 0.30136 0.6752 0.0
C5076 C 0.08267 0.31153 0.68105 0.0
C5077 C 0.07717 0.3119 0.68629 0.0
C5078 C 0.07149 0.30686 0.68599 0.0
C5079 C 0.07126 0.30165 0.68052 0.0
H5080 H 0.66721 0.08062 0.69367 0.0
H5081 H 0.68285 0.07387 0.70963 0.0
H5082 H 0.67668 0.08099 0.68453 0.0
H5083 H 0.69236 0.07435 0.70051 0.0
H5084 H 0.70548 0.06767 0.68061 0.0
H5085 H 0.69631 0.06794 0.69002 0.0
H5086 H 0.68727 0.08733 0.68065 0.0
H5087 H 0.69622 0.08683 0.67101 0.0
C5088 C 0.6727 0.07932 0.69525 0.0
C5089 C 0.67428 0.0772 0.70237 0.0
C5090 C 0.67814 0.07954 0.69001 0.0
C5091 C 0.6853 0.07769 0.69177 0.0
C5092 C 0.68689 0.07569 0.69893 0.0
C5093 C 0.68144 0.07542 0.70416 0.0
C5094 C 0.7015 0.07196 0.68051 0.0
C5095 C 0.70157 0.0772 0.675 0.0
C5096 C 0.69629 0.07217 0.68598 0.0
C5097 C 0.69103 0.07765 0.68611 0.0
C5098 C 0.69118 0.08297 0.68068 0.0
C5099 C 0.69638 0.08274 0.67519 0.0
H5100 H 0.92982 0.68412 0.70976 0.0
H5101 H 0.92201 0.66885 0.69394 0.0
H5102 H 0.9296 0.69366 0.70066 0.0
H5103 H 0.92191 0.67833 0.68481 0.0
H5104 H 0.91677 0.69805 0.67135 0.0
H5105 H 0.91604 0.68916 0.68102 0.0
H5106 H 0.93593 0.69738 0.69007 0.0
H5107 H 0.93644 0.70653 0.68065 0.0
C5108 C 0.92808 0.6828 0.70432 0.0
C5109 C 0.92594 0.67573 0.70257 0.0
C5110 C 0.92797 0.68826 0.6991 0.0
C5111 C 0.92576 0.68678 0.69198 0.0
C5112 C 0.92353 0.67971 0.69026 0.0
C5113 C 0.9236 0.67426 0.69549 0.0
C5114 C 0.92092 0.69806 0.67547 0.0
C5115 C 0.92667 0.70302 0.67519 0.0
C5116 C 0.92056 0.69288 0.68097 0.0
C5117 C 0.92595 0.69251 0.68632 0.0
C5118 C 0.93164 0.69754 0.6861 0.0
C5119 C 0.93199 0.70274 0.68062 0.0
H5120 H 0.32275 0.29642 0.08434 0.0
H5121 H 0.33375 0.30854 0.0677 0.0
H5122 H 0.3131 0.30542 0.08452 0.0
H5123 H 0.32419 0.31757 0.06794 0.0
H5124 H 0.30263 0.3286 0.06474 0.0
H5125 H 0.31181 0.31921 0.06465 0.0
H5126 H 0.31056 0.31773 0.08792 0.0
H5127 H 0.30108 0.32689 0.08798 0.0
C5128 C 0.32314 0.30104 0.08076 0.0
C5129 C 0.329 0.30174 0.07598 0.0
C5130 C 0.31761 0.3062 0.08087 0.0
C5131 C 0.31784 0.31222 0.07622 0.0
C5132 C 0.32375 0.31294 0.07149 0.0
C5133 C 0.32924 0.30776 0.07136 0.0
C5134 C 0.30422 0.3262 0.06984 0.0
C5135 C 0.30109 0.32851 0.07637 0.0
C5136 C 0.30957 0.32088 0.06979 0.0
C5137 C 0.31197 0.31773 0.07628 0.0
C5138 C 0.3088 0.31999 0.08281 0.0
C5139 C 0.30342 0.32531 0.08285 0.0
H5140 H 0.33242 0.69777 0.91596 0.0
H5141 H 0.32319 0.70626 0.93566 0.0
H5142 H 0.32275 0.68887 0.91528 0.0
H5143 H 0.31374 0.69713 0.93518 0.0
H5144 H 0.29401 0.68395 0.92901 0.0
H5145 H 0.30312 0.69347 0.92874 0.0
H5146 H 0.31899 0.67803 0.9213 0.0
H5147 H 0.30985 0.66855 0.92149 0.0
C5148 C 0.32831 0.69777 0.92013 0.0
C5149 C 0.32861 0.70273 0.92588 0.0
C5150 C 0.32281 0.6926 0.91979 0.0
C5151 C 0.31748 0.69224 0.92519 0.0
C5152 C 0.31771 0.69728 0.93088 0.0
C5153 C 0.3232 0.70246 0.93121 0.0
C5154 C 0.29944 0.68259 0.92733 0.0
C5155 C 0.3012 0.67549 0.92528 0.0
C5156 C 0.30468 0.68805 0.92718 0.0
C5157 C 0.31181 0.68652 0.92502 0.0
C5158 C 0.31353 0.67943 0.92288 0.0
C5159 C 0.30829 0.67399 0.923 0.0
H5160 H 0.33362 0.30893 0.93605 0.0
H5161 H 0.32267 0.29704 0.91922 0.0
H5162 H 0.32413 0.31804 0.93583 0.0
H5163 H 0.31307 0.30611 0.91907 0.0
H5164 H 0.30107 0.32764 0.91586 0.0
H5165 H 0.31052 0.31845 0.91582 0.0
H5166 H 0.31178 0.31967 0.9391 0.0
H5167 H 0.30265 0.32911 0.93912 0.0
C5168 C 0.32914 0.30823 0.93235 0.0
C5169 C 0.32888 0.30225 0.92768 0.0
C5170 C 0.32368 0.31344 0.93223 0.0
C5171 C 0.31779 0.31279 0.92746 0.0
C5172 C 0.31756 0.30683 0.92274 0.0
C5173 C 0.32305 0.30163 0.92284 0.0
C5174 C 0.30341 0.326 0.92097 0.0
C5175 C 0.3011 0.32915 0.92749 0.0
C5176 C 0.30877 0.32066 0.92095 0.0
C5177 C 0.31194 0.31832 0.92746 0.0
C5178 C 0.30954 0.32141 0.93398 0.0
C5179 C 0.30422 0.32676 0.93399 0.0
H5180 H 0.69297 0.33566 0.92295 0.0
H5181 H 0.70904 0.3202 0.92984 0.0
H5182 H 0.68388 0.32615 0.92275 0.0
H5183 H 0.69997 0.31063 0.92953 0.0
H5184 H 0.68012 0.2974 0.93625 0.0
H5185 H 0.68949 0.30662 0.93593 0.0
H5186 H 0.68008 0.31552 0.9165 0.0
H5187 H 0.67047 0.30655 0.91705 0.0
C5188 C 0.69459 0.3302 0.92432 0.0
C5189 C 0.70173 0.32869 0.92641 0.0
C5190 C 0.68937 0.32474 0.92419 0.0
C5191 C 0.69117 0.31761 0.92612 0.0
C5192 C 0.69835 0.31608 0.92813 0.0
C5193 C 0.70356 0.32156 0.92829 0.0
C5194 C 0.68 0.30136 0.93194 0.0
C5195 C 0.67449 0.30124 0.9267 0.0
C5196 C 0.68545 0.30659 0.9317 0.0
C5197 C 0.68555 0.31184 0.9262 0.0
C5198 C 0.68012 0.31163 0.92088 0.0
C5199 C 0.67466 0.30642 0.92113 0.0
H5200 H 0.70751 0.68004 0.91952 0.0
H5201 H 0.69461 0.66829 0.93501 0.0
H5202 H 0.69846 0.68965 0.91928 0.0
H5203 H 0.68552 0.6778 0.93469 0.0
H5204 H 0.6744 0.69922 0.93843 0.0
H5205 H 0.68372 0.68998 0.93849 0.0
H5206 H 0.68634 0.69243 0.91542 0.0
H5207 H 0.67726 0.70199 0.91541 0.0
C5208 C 0.70271 0.67948 0.92282 0.0
C5209 C 0.70179 0.67342 0.92732 0.0
C5210 C 0.69751 0.68498 0.92267 0.0
C5211 C 0.69127 0.68453 0.92699 0.0
C5212 C 0.69033 0.67841 0.93141 0.0
C5213 C 0.69553 0.67295 0.93159 0.0
C5214 C 0.67703 0.69788 0.93338 0.0
C5215 C 0.67508 0.70139 0.92692 0.0
C5216 C 0.68232 0.69249 0.9334 0.0
C5217 C 0.68576 0.69041 0.92695 0.0
C5218 C 0.68385 0.69393 0.92049 0.0
C5219 C 0.67857 0.69936 0.92048 0.0
H5220 H 0.66847 0.69458 0.06801 0.0
H5221 H 0.67988 0.70699 0.08415 0.0
H5222 H 0.67796 0.68547 0.06828 0.0
H5223 H 0.68946 0.69791 0.08435 0.0
H5224 H 0.70173 0.67659 0.08778 0.0
H5225 H 0.69216 0.68565 0.08787 0.0
H5226 H 0.69024 0.68383 0.06467 0.0
H5227 H 0.69951 0.67453 0.06462 0.0
C5228 C 0.67305 0.69539 0.07158 0.0
C5229 C 0.67344 0.70153 0.07603 0.0
C5230 C 0.6785 0.69017 0.07172 0.0
C5231 C 0.68452 0.69097 0.0763 0.0
C5232 C 0.68487 0.69708 0.08082 0.0
C5233 C 0.67939 0.70229 0.0807 0.0
C5234 C 0.69922 0.67807 0.08271 0.0
C5235 C 0.7014 0.67481 0.0762 0.0
C5236 C 0.69378 0.68334 0.08275 0.0
C5237 C 0.6904 0.68547 0.07628 0.0
C5238 C 0.69264 0.68225 0.06977 0.0
C5239 C 0.69804 0.67698 0.06973 0.0
H5240 H 0.29612 0.68124 0.06674 0.0
H5241 H 0.3061 0.6713 0.08537 0.0
H5242 H 0.3052 0.69078 0.06698 0.0
H5243 H 0.31511 0.68091 0.08566 0.0
H5244 H 0.32598 0.70322 0.08769 0.0
H5245 H 0.31646 0.69408 0.08782 0.0
H5246 H 0.3183 0.69182 0.06467 0.0
H5247 H 0.32786 0.70084 0.06453 0.0
C5248 C 0.30026 0.68107 0.07087 0.0
C5249 C 0.30039 0.67546 0.07601 0.0
C5250 C 0.30545 0.68655 0.07101 0.0
C5251 C 0.31089 0.68659 0.07632 0.0
C5252 C 0.31094 0.68108 0.08155 0.0
C5253 C 0.30576 0.67558 0.08139 0.0
C5254 C 0.32439 0.70074 0.08263 0.0
C5255 C 0.32769 0.70279 0.0761 0.0
C5256 C 0.31892 0.69551 0.08271 0.0
C5257 C 0.31661 0.69224 0.07626 0.0
C5258 C 0.31987 0.69432 0.06972 0.0
C5259 C 0.32536 0.69951 0.06965 0.0
H5260 H 0.68338 0.29396 0.0749 0.0
H5261 H 0.6675 0.30992 0.08104 0.0
H5262 H 0.6928 0.30318 0.07527 0.0
H5263 H 0.67687 0.31917 0.08129 0.0
H5264 H 0.69621 0.33308 0.08691 0.0
H5265 H 0.68735 0.32336 0.0876 0.0
H5266 H 0.69671 0.31351 0.0686 0.0
H5267 H 0.7058 0.32299 0.06816 0.0
C5268 C 0.6819 0.29945 0.0763 0.0
C5269 C 0.6747 0.30121 0.07793 0.0
C5270 C 0.6873 0.30474 0.0765 0.0
C5271 C 0.68561 0.31194 0.07828 0.0
C5272 C 0.6784 0.31367 0.08001 0.0
C5273 C 0.67302 0.30837 0.07985 0.0
C5274 C 0.69646 0.32877 0.08295 0.0
C5275 C 0.70172 0.32884 0.07747 0.0
C5276 C 0.69131 0.32325 0.08329 0.0
C5277 C 0.69128 0.31766 0.07814 0.0
C5278 C 0.69661 0.31767 0.07272 0.0
C5279 C 0.70177 0.32317 0.0724 0.0
H5280 H 0.58918 0.82662 0.80024 0.0
H5281 H 0.56598 0.82849 0.80214 0.0
H5282 H 0.58923 0.81767 0.80994 0.0
H5283 H 0.56599 0.81932 0.81153 0.0
H5284 H 0.56914 0.80916 0.83357 0.0
H5285 H 0.5695 0.81805 0.8239 0.0
H5286 H 0.58571 0.80539 0.81283 0.0
H5287 H 0.5854 0.79651 0.82261 0.0
C5288 C 0.58409 0.82511 0.80271 0.0
C5289 C 0.57758 0.82829 0.8004 0.0
C5290 C 0.58411 0.81992 0.80821 0.0
C5291 C 0.57761 0.81779 0.81154 0.0
C5292 C 0.5711 0.82091 0.80917 0.0
C5293 C 0.57109 0.8261 0.80369 0.0
C5294 C 0.57275 0.80824 0.82905 0.0
C5295 C 0.5772 0.8021 0.82883 0.0
C5296 C 0.57295 0.81334 0.82349 0.0
C5297 C 0.57759 0.81242 0.81754 0.0
C5298 C 0.58213 0.80632 0.81737 0.0
C5299 C 0.58194 0.80122 0.82296 0.0
H5300 H 0.18091 0.58415 0.79687 0.0
H5301 H 0.16973 0.56787 0.8093 0.0
H5302 H 0.1906 0.58433 0.80584 0.0
H5303 H 0.17932 0.56812 0.8183 0.0
H5304 H 0.20089 0.56469 0.82921 0.0
H5305 H 0.19163 0.56464 0.8199 0.0
H5306 H 0.19331 0.58786 0.81808 0.0
H5307 H 0.20287 0.58787 0.82715 0.0
C5308 C 0.1805 0.58066 0.80155 0.0
C5309 C 0.17457 0.57597 0.80235 0.0
C5310 C 0.18604 0.58077 0.8067 0.0
C5311 C 0.18577 0.57622 0.81278 0.0
C5312 C 0.17979 0.57159 0.81361 0.0
C5313 C 0.17428 0.57145 0.80845 0.0
C5314 C 0.19938 0.56978 0.82675 0.0
C5315 C 0.20266 0.57628 0.82894 0.0
C5316 C 0.19398 0.56977 0.82147 0.0
C5317 C 0.19168 0.57625 0.81826 0.0
C5318 C 0.19499 0.58276 0.82039 0.0
C5319 C 0.20042 0.58277 0.82566 0.0
H5320 H 0.41849 0.18022 0.79745 0.0
H5321 H 0.43455 0.16883 0.80997 0.0
H5322 H 0.41833 0.18988 0.80645 0.0
H5323 H 0.43433 0.17839 0.819 0.0
H5324 H 0.43814 0.20002 0.82972 0.0
H5325 H 0.43802 0.19066 0.82051 0.0
H5326 H 0.41483 0.19272 0.81869 0.0
H5327 H 0.415 0.20238 0.82766 0.0
C5328 C 0.42192 0.17975 0.80216 0.0
C5329 C 0.42656 0.17378 0.80297 0.0
C5330 C 0.42183 0.18528 0.80733 0.0
C5331 C 0.42635 0.18495 0.81344 0.0
C5332 C 0.43089 0.17891 0.81429 0.0
C5333 C 0.43101 0.17341 0.80912 0.0
C5334 C 0.43302 0.19857 0.82728 0.0
C5335 C 0.42658 0.20199 0.82943 0.0
C5336 C 0.43294 0.19312 0.82207 0.0
C5337 C 0.42641 0.19089 0.81888 0.0
C5338 C 0.41997 0.19433 0.82098 0.0
C5339 C 0.42005 0.19982 0.82619 0.0
H5340 H 0.81016 0.42218 0.8367 0.0
H5341 H 0.79436 0.42734 0.8203 0.0
H5342 H 0.81963 0.42202 0.82752 0.0
H5343 H 0.80388 0.42732 0.81114 0.0
H5344 H 0.82205 0.41979 0.79583 0.0
H5345 H 0.8125 0.41898 0.80494 0.0
H5346 H 0.82571 0.43115 0.81984 0.0
H5347 H 0.83528 0.43184 0.8108 0.0
C5348 C 0.8087 0.42322 0.83112 0.0
C5349 C 0.80151 0.42478 0.82923 0.0
C5350 C 0.81414 0.4232 0.82588 0.0
C5351 C 0.81251 0.42469 0.81861 0.0
C5352 C 0.8053 0.4261 0.81669 0.0
C5353 C 0.79986 0.42618 0.82194 0.0
C5354 C 0.82293 0.42223 0.80107 0.0
C5355 C 0.82941 0.42589 0.80259 0.0
C5356 C 0.81744 0.42182 0.80626 0.0
C5357 C 0.81835 0.425 0.81311 0.0
C5358 C 0.82487 0.42859 0.81464 0.0
C5359 C 0.83032 0.42905 0.80944 0.0
H5360 H 0.58292 0.18088 0.20693 0.0
H5361 H 0.56681 0.16953 0.19444 0.0
H5362 H 0.58313 0.1905 0.1979 0.0
H5363 H 0.56708 0.17906 0.18538 0.0
H5364 H 0.56381 0.2005 0.17413 0.0
H5365 H 0.56362 0.19138 0.18358 0.0
H5366 H 0.58682 0.19305 0.18568 0.0
H5367 H 0.58696 0.20247 0.17647 0.0
C5368 C 0.57947 0.18041 0.20222 0.0
C5369 C 0.57483 0.17445 0.20141 0.0
C5370 C 0.5796 0.18592 0.19704 0.0
C5371 C 0.5751 0.18558 0.19091 0.0
C5372 C 0.5705 0.17959 0.1901 0.0
C5373 C 0.57035 0.1741 0.19529 0.0
C5374 C 0.56886 0.19902 0.17668 0.0
C5375 C 0.5754 0.20225 0.17453 0.0
C5376 C 0.56877 0.1937 0.18204 0.0
C5377 C 0.57521 0.19143 0.18537 0.0
C5378 C 0.58174 0.1947 0.18328 0.0
C5379 C 0.58184 0.20005 0.17793 0.0
H5380 H 0.80657 0.58632 0.17071 0.0
H5381 H 0.79785 0.56668 0.17985 0.0
H5382 H 0.81558 0.58677 0.18029 0.0
H5383 H 0.8071 0.56692 0.18919 0.0
H5384 H 0.82052 0.5728 0.20891 0.0
H5385 H 0.81096 0.57315 0.19983 0.0
H5386 H 0.82636 0.58063 0.18394 0.0
H5387 H 0.83586 0.58038 0.19305 0.0
C5388 C 0.80655 0.58211 0.17478 0.0
C5389 C 0.80148 0.57646 0.17448 0.0
C5390 C 0.81179 0.58232 0.18022 0.0
C5391 C 0.81211 0.57686 0.18551 0.0
C5392 C 0.80698 0.57126 0.18527 0.0
C5393 C 0.80173 0.57107 0.17984 0.0
C5394 C 0.82185 0.57451 0.20347 0.0
C5395 C 0.82895 0.57656 0.2017 0.0
C5396 C 0.81638 0.5747 0.19826 0.0
C5397 C 0.81787 0.57691 0.19114 0.0
C5398 C 0.82497 0.57902 0.18939 0.0
C5399 C 0.83043 0.57887 0.19461 0.0
H5400 H 0.43336 0.83492 0.19289 0.0
H5401 H 0.42044 0.82168 0.20711 0.0
H5402 H 0.43299 0.82545 0.18372 0.0
H5403 H 0.41998 0.81223 0.19787 0.0
H5404 H 0.4286 0.79417 0.1826 0.0
H5405 H 0.4285 0.80356 0.1919 0.0
H5406 H 0.42402 0.81964 0.17558 0.0
H5407 H 0.42423 0.81028 0.16629 0.0
C5408 C 0.43045 0.82998 0.19406 0.0
C5409 C 0.42694 0.82904 0.20073 0.0
C5410 C 0.43018 0.82458 0.18878 0.0
C5411 C 0.42644 0.8181 0.19007 0.0
C5412 C 0.42294 0.81715 0.19674 0.0
C5413 C 0.42315 0.82258 0.202 0.0
C5414 C 0.4276 0.79971 0.18101 0.0
C5415 C 0.42643 0.80148 0.17371 0.0
C5416 C 0.42749 0.80508 0.18633 0.0
C5417 C 0.42627 0.81234 0.18447 0.0
C5418 C 0.42504 0.8141 0.17718 0.0
C5419 C 0.42509 0.80873 0.17187 0.0
H5420 H 0.18006 0.43598 0.20589 0.0
H5421 H 0.17022 0.41678 0.19695 0.0
H5422 H 0.18944 0.43546 0.1967 0.0
H5423 H 0.17984 0.41604 0.18798 0.0
H5424 H 0.19296 0.42229 0.16782 0.0
H5425 H 0.1838 0.42216 0.17728 0.0
H5426 H 0.19986 0.42883 0.19288 0.0
H5427 H 0.20898 0.42906 0.18337 0.0
C5428 C 0.1799 0.43163 0.20198 0.0
C5429 C 0.17434 0.42645 0.20214 0.0
C5430 C 0.18535 0.43127 0.19676 0.0
C5431 C 0.18541 0.42571 0.19158 0.0
C5432 C 0.17992 0.42045 0.19182 0.0
C5433 C 0.17445 0.42083 0.19703 0.0
C5434 C 0.19455 0.42364 0.17329 0.0
C5435 C 0.20169 0.4257 0.17484 0.0
C5436 C 0.1893 0.42356 0.17872 0.0
C5437 C 0.19107 0.4255 0.18586 0.0
C5438 C 0.19826 0.42743 0.18743 0.0
C5439 C 0.2035 0.42754 0.18198 0.0
H5440 H 0.82899 0.56451 0.802 0.0
H5441 H 0.82661 0.58764 0.79978 0.0
H5442 H 0.81959 0.56441 0.81117 0.0
H5443 H 0.81743 0.58758 0.80925 0.0
H5444 H 0.79613 0.58356 0.82148 0.0
H5445 H 0.80519 0.58384 0.81187 0.0
H5446 H 0.8179 0.56804 0.82346 0.0
H5447 H 0.80883 0.56772 0.83298 0.0
C5448 C 0.82644 0.56958 0.80344 0.0
C5449 C 0.82856 0.57608 0.80013 0.0
C5450 C 0.82111 0.56954 0.80878 0.0
C5451 C 0.81778 0.576 0.811 0.0
C5452 C 0.81984 0.5825 0.80764 0.0
C5453 C 0.82517 0.58254 0.80227 0.0
C5454 C 0.80089 0.58019 0.82199 0.0
C5455 C 0.80174 0.57559 0.82797 0.0
C5456 C 0.80608 0.58035 0.81649 0.0
C5457 C 0.81226 0.57593 0.81687 0.0
C5458 C 0.81314 0.57141 0.82291 0.0
C5459 C 0.80795 0.57122 0.82838 0.0
H5460 H 0.42267 0.83565 0.80945 0.0
H5461 H 0.42992 0.82025 0.79348 0.0
H5462 H 0.42245 0.82614 0.81854 0.0
H5463 H 0.4296 0.81069 0.80255 0.0
H5464 H 0.43636 0.7976 0.82247 0.0
H5465 H 0.43599 0.80682 0.8131 0.0
H5466 H 0.41631 0.81539 0.8223 0.0
H5467 H 0.4169 0.80642 0.8319 0.0
C5468 C 0.42411 0.8302 0.80785 0.0
C5469 C 0.42632 0.82871 0.80074 0.0
C5470 C 0.42398 0.82474 0.81307 0.0
C5471 C 0.42602 0.81763 0.8113 0.0
C5472 C 0.42812 0.81612 0.80414 0.0
C5473 C 0.42829 0.8216 0.79894 0.0
C5474 C 0.43198 0.80149 0.82254 0.0
C5475 C 0.42668 0.80128 0.82799 0.0
C5476 C 0.43172 0.80672 0.81709 0.0
C5477 C 0.42613 0.81187 0.81693 0.0
C5478 C 0.42075 0.81158 0.8223 0.0
C5479 C 0.42103 0.80636 0.82776 0.0
H5480 H 0.2071 0.43545 0.82153 0.0
H5481 H 0.19716 0.41682 0.83151 0.0
H5482 H 0.19805 0.43517 0.81198 0.0
H5483 H 0.18815 0.4165 0.82188 0.0
H5484 H 0.17719 0.41459 0.79954 0.0
H5485 H 0.1867 0.41437 0.8087 0.0
H5486 H 0.18497 0.43752 0.81105 0.0
H5487 H 0.17542 0.43775 0.80201 0.0
C5488 C 0.20298 0.4313 0.82171 0.0
C5489 C 0.20284 0.42619 0.82733 0.0
C5490 C 0.19779 0.43114 0.81622 0.0
C5491 C 0.19235 0.42584 0.8162 0.0
C5492 C 0.19232 0.42061 0.82171 0.0
C5493 C 0.19749 0.42079 0.82722 0.0
C5494 C 0.1788 0.41963 0.80205 0.0
C5495 C 0.17555 0.42619 0.80001 0.0
C5496 C 0.18426 0.4195 0.80729 0.0
C5497 C 0.18661 0.42593 0.81058 0.0
C5498 C 0.18337 0.43248 0.80853 0.0
C5499 C 0.1779 0.43261 0.80333 0.0
H5500 H 0.5646 0.20051 0.82824 0.0
H5501 H 0.58781 0.20232 0.82644 0.0
H5502 H 0.56459 0.19123 0.81897 0.0
H5503 H 0.58784 0.19272 0.81741 0.0
H5504 H 0.58419 0.18027 0.79616 0.0
H5505 H 0.58444 0.18996 0.80513 0.0
H5506 H 0.56797 0.17889 0.81746 0.0
H5507 H 0.56766 0.16932 0.80846 0.0
C5508 C 0.56971 0.19896 0.82585 0.0
C5509 C 0.57621 0.2022 0.8281 0.0
C5510 C 0.56971 0.19354 0.82059 0.0
C5511 C 0.57622 0.19117 0.81746 0.0
C5512 C 0.58272 0.19445 0.81965 0.0
C5513 C 0.58271 0.1999 0.82491 0.0
C5514 C 0.58066 0.1799 0.80082 0.0
C5515 C 0.57587 0.17405 0.80157 0.0
C5516 C 0.58081 0.18545 0.80597 0.0
C5517 C 0.57619 0.18524 0.81201 0.0
C5518 C 0.57149 0.17932 0.8128 0.0
C5519 C 0.57132 0.17382 0.80764 0.0
H5520 H 0.80945 0.43409 0.16853 0.0
H5521 H 0.79672 0.41832 0.18011 0.0
H5522 H 0.81852 0.4338 0.17805 0.0
H5523 H 0.80578 0.41809 0.18972 0.0
H5524 H 0.82708 0.41461 0.20213 0.0
H5525 H 0.81805 0.41445 0.19251 0.0
H5526 H 0.82002 0.43761 0.19031 0.0
H5527 H 0.82926 0.43773 0.19963 0.0
C5528 C 0.80856 0.4306 0.17315 0.0
C5529 C 0.80234 0.42627 0.17359 0.0
C5530 C 0.81376 0.43044 0.17862 0.0
C5531 C 0.81286 0.42596 0.18469 0.0
C5532 C 0.80669 0.42154 0.18509 0.0
C5533 C 0.80149 0.42168 0.17958 0.0
C5534 C 0.82563 0.41966 0.19955 0.0
C5535 C 0.82891 0.42618 0.20167 0.0
C5536 C 0.82039 0.41958 0.19409 0.0
C5537 C 0.81832 0.42601 0.19061 0.0
C5538 C 0.82155 0.43253 0.19279 0.0
C5539 C 0.82679 0.43262 0.19822 0.0
H5540 H 0.56494 0.80257 0.17474 0.0
H5541 H 0.5881 0.80036 0.17676 0.0
H5542 H 0.56499 0.8118 0.18408 0.0
H5543 H 0.58819 0.80989 0.18588 0.0
H5544 H 0.58437 0.82212 0.20728 0.0
H5545 H 0.58459 0.81253 0.1982 0.0
H5546 H 0.56867 0.82411 0.18564 0.0
H5547 H 0.56839 0.83361 0.19472 0.0
C5548 C 0.57005 0.80402 0.1772 0.0
C5549 C 0.57652 0.80069 0.175 0.0
C5550 C 0.57009 0.8094 0.18249 0.0
C5551 C 0.5766 0.81163 0.18571 0.0
C5552 C 0.58307 0.80826 0.18356 0.0
C5553 C 0.58303 0.80286 0.17827 0.0
C5554 C 0.58096 0.82263 0.20255 0.0
C5555 C 0.57632 0.8286 0.20174 0.0
C5556 C 0.58109 0.81714 0.19734 0.0
C5557 C 0.57661 0.81751 0.1912 0.0
C5558 C 0.57207 0.82355 0.19036 0.0
C5559 C 0.57192 0.82901 0.19557 0.0
H5560 H 0.20605 0.5677 0.18055 0.0
H5561 H 0.19776 0.58735 0.17104 0.0
H5562 H 0.19685 0.56835 0.18991 0.0
H5563 H 0.18879 0.58821 0.18064 0.0
H5564 H 0.16836 0.58236 0.1935 0.0
H5565 H 0.1779 0.58239 0.18443 0.0
H5566 H 0.19315 0.57486 0.20044 0.0
H5567 H 0.18356 0.57473 0.20948 0.0
C5568 C 0.20228 0.57218 0.18046 0.0
C5569 C 0.20263 0.57745 0.175 0.0
C5570 C 0.19706 0.5726 0.1859 0.0
C5571 C 0.19206 0.57833 0.18605 0.0
C5572 C 0.19249 0.58367 0.18066 0.0
C5573 C 0.1977 0.58323 0.1752 0.0
C5574 C 0.17377 0.5808 0.1951 0.0
C5575 C 0.1752 0.57853 0.20221 0.0
C5576 C 0.17925 0.58082 0.1899 0.0
C5577 C 0.18631 0.57861 0.19168 0.0
C5578 C 0.18776 0.57648 0.19883 0.0
C5579 C 0.18227 0.57642 0.20403 0.0
H5580 H 0.4274 0.18253 0.20938 0.0
H5581 H 0.4226 0.16633 0.19328 0.0
H5582 H 0.42727 0.19186 0.20002 0.0
H5583 H 0.42235 0.17566 0.18396 0.0
H5584 H 0.432 0.19285 0.16869 0.0
H5585 H 0.4314 0.18362 0.17809 0.0
H5586 H 0.41883 0.19804 0.19146 0.0
H5587 H 0.41954 0.20734 0.18208 0.0
C5588 C 0.42629 0.18097 0.20385 0.0
C5589 C 0.42503 0.17369 0.20207 0.0
C5590 C 0.42615 0.18632 0.1985 0.0
C5591 C 0.42481 0.18449 0.19125 0.0
C5592 C 0.42346 0.17723 0.18949 0.0
C5593 C 0.42354 0.17189 0.19484 0.0
C5594 C 0.42913 0.19406 0.17365 0.0
C5595 C 0.42583 0.20083 0.17465 0.0
C5596 C 0.42872 0.18875 0.179 0.0
C5597 C 0.42506 0.1901 0.18551 0.0
C5598 C 0.42174 0.19686 0.18652 0.0
C5599 C 0.42209 0.20216 0.18113 0.0
H5600 H 0.82263 0.79599 0.58306 0.0
H5601 H 0.83415 0.80857 0.56714 0.0
H5602 H 0.813 0.80501 0.58322 0.0
H5603 H 0.82461 0.81763 0.56736 0.0
H5604 H 0.80315 0.82872 0.56374 0.0
H5605 H 0.81234 0.81933 0.5637 0.0
H5606 H 0.81033 0.81724 0.58687 0.0
H5607 H 0.80084 0.82639 0.58686 0.0
C5608 C 0.82314 0.80071 0.57964 0.0
C5609 C 0.82914 0.80154 0.57506 0.0
C5610 C 0.81762 0.80589 0.57974 0.0
C5611 C 0.818 0.81204 0.57527 0.0
C5612 C 0.82405 0.81289 0.57076 0.0
C5613 C 0.82954 0.80771 0.57064 0.0
C5614 C 0.80457 0.82618 0.56882 0.0
C5615 C 0.80123 0.82832 0.57531 0.0
C5616 C 0.80993 0.82086 0.56881 0.0
C5617 C 0.81212 0.81755 0.57529 0.0
C5618 C 0.80873 0.81962 0.58177 0.0
C5619 C 0.80335 0.82494 0.58178 0.0
H5620 H 0.82156 0.20779 0.41933 0.0
H5621 H 0.83356 0.19472 0.43449 0.0
H5622 H 0.81189 0.1988 0.41924 0.0
H5623 H 0.82399 0.1857 0.43433 0.0
H5624 H 0.80257 0.17484 0.43864 0.0
H5625 H 0.81186 0.18411 0.43846 0.0
H5626 H 0.80894 0.18664 0.41543 0.0
H5627 H 0.79934 0.1776 0.41567 0.0
C5628 C 0.82216 0.20296 0.42259 0.0
C5629 C 0.8283 0.20199 0.42696 0.0
C5630 C 0.81663 0.1978 0.42253 0.0
C5631 C 0.81713 0.19154 0.42682 0.0
C5632 C 0.82334 0.19053 0.43108 0.0
C5633 C 0.82883 0.1957 0.43117 0.0
C5634 C 0.80381 0.17744 0.43355 0.0
C5635 C 0.80018 0.17547 0.42717 0.0
C5636 C 0.80923 0.1827 0.43343 0.0
C5637 C 0.8112 0.1861 0.42692 0.0
C5638 C 0.80752 0.18418 0.42055 0.0
C5639 C 0.80208 0.17893 0.42067 0.0
H5640 H 0.8373 0.81096 0.42285 0.0
H5641 H 0.82099 0.79473 0.42678 0.0
H5642 H 0.828 0.82032 0.42285 0.0
H5643 H 0.81169 0.80412 0.4269 0.0
H5644 H 0.79645 0.82244 0.41939 0.0
H5645 H 0.8057 0.81301 0.41864 0.0
H5646 H 0.81988 0.82589 0.43197 0.0
H5647 H 0.81071 0.83534 0.43262 0.0
C5648 C 0.83172 0.80939 0.42365 0.0
C5649 C 0.82988 0.80211 0.42481 0.0
C5650 C 0.8264 0.81475 0.42372 0.0
C5651 C 0.81912 0.81296 0.4249 0.0
C5652 C 0.81725 0.80567 0.42593 0.0
C5653 C 0.82258 0.8003 0.42592 0.0
C5654 C 0.80157 0.82327 0.42211 0.0
C5655 C 0.80285 0.82963 0.42607 0.0
C5656 C 0.80683 0.81785 0.42173 0.0
C5657 C 0.81352 0.81871 0.42524 0.0
C5658 C 0.81481 0.82509 0.42915 0.0
C5659 C 0.80953 0.83048 0.42958 0.0
H5660 H 0.19383 0.83582 0.42098 0.0
H5661 H 0.20971 0.82024 0.42802 0.0
H5662 H 0.18466 0.82638 0.42071 0.0
H5663 H 0.20058 0.81074 0.42764 0.0
H5664 H 0.18065 0.7979 0.43471 0.0
H5665 H 0.1901 0.80701 0.43418 0.0
H5666 H 0.18067 0.81566 0.41464 0.0
H5667 H 0.17098 0.80677 0.4154 0.0
C5668 C 0.19539 0.83035 0.42235 0.0
C5669 C 0.20249 0.82878 0.42454 0.0
C5670 C 0.19013 0.82492 0.42219 0.0
C5671 C 0.19186 0.81779 0.42418 0.0
C5672 C 0.19901 0.8162 0.42621 0.0
C5673 C 0.20426 0.82163 0.42641 0.0
C5674 C 0.18055 0.80178 0.43033 0.0
C5675 C 0.17501 0.80162 0.42513 0.0
C5676 C 0.18604 0.80695 0.42997 0.0
C5677 C 0.18617 0.81209 0.42437 0.0
C5678 C 0.1807 0.81185 0.41908 0.0
C5679 C 0.17519 0.80669 0.41946 0.0
H5680 H 0.16976 0.19712 0.41703 0.0
H5681 H 0.17925 0.20593 0.43646 0.0
H5682 H 0.17939 0.18816 0.41639 0.0
H5683 H 0.18865 0.19674 0.43604 0.0
H5684 H 0.20834 0.18352 0.42977 0.0
H5685 H 0.19918 0.193 0.42954 0.0
H5686 H 0.18328 0.17742 0.42249 0.0
H5687 H 0.19247 0.16799 0.42262 0.0
C5688 C 0.17392 0.19717 0.42115 0.0
C5689 C 0.17371 0.20225 0.42681 0.0
C5690 C 0.17939 0.19197 0.42084 0.0
C5691 C 0.18479 0.19169 0.42618 0.0
C5692 C 0.18463 0.19683 0.43179 0.0
C5693 C 0.17918 0.20204 0.43208 0.0
C5694 C 0.20288 0.18213 0.42818 0.0
C5695 C 0.20113 0.175 0.42622 0.0
C5696 C 0.19763 0.18756 0.42806 0.0
C5697 C 0.19047 0.18598 0.42602 0.0
C5698 C 0.18875 0.17886 0.42398 0.0
C5699 C 0.19402 0.17345 0.42406 0.0
H5700 H 0.20893 0.18202 0.57372 0.0
H5701 H 0.1931 0.16642 0.58083 0.0
H5702 H 0.19978 0.1915 0.5741 0.0
H5703 H 0.18391 0.17585 0.5811 0.0
H5704 H 0.17042 0.19546 0.58686 0.0
H5705 H 0.18007 0.18651 0.58734 0.0
H5706 H 0.18921 0.19533 0.56774 0.0
H5707 H 0.17979 0.20451 0.56748 0.0
C5708 C 0.20349 0.18061 0.57533 0.0
C5709 C 0.20174 0.17347 0.57724 0.0
C5710 C 0.19823 0.18604 0.57554 0.0
C5711 C 0.19109 0.18445 0.57762 0.0
C5712 C 0.18938 0.17731 0.57959 0.0
C5713 C 0.19464 0.17189 0.57943 0.0
C5714 C 0.17455 0.19557 0.58272 0.0
C5715 C 0.1743 0.20071 0.57712 0.0
C5716 C 0.18004 0.19037 0.58294 0.0
C5717 C 0.18541 0.19016 0.57756 0.0
C5718 C 0.18521 0.19537 0.57202 0.0
C5719 C 0.17975 0.20058 0.57182 0.0
H5720 H 0.80174 0.17544 0.5649 0.0
H5721 H 0.80071 0.17659 0.5882 0.0
H5722 H 0.81091 0.18483 0.56483 0.0
H5723 H 0.8102 0.18573 0.58815 0.0
H5724 H 0.82242 0.20711 0.58476 0.0
H5725 H 0.81275 0.19811 0.58501 0.0
H5726 H 0.82335 0.18634 0.56785 0.0
H5727 H 0.83291 0.19537 0.56754 0.0
C5728 C 0.80344 0.17772 0.57001 0.0
C5729 C 0.80046 0.17525 0.57656 0.0
C5730 C 0.80879 0.18304 0.56998 0.0
C5731 C 0.81135 0.18602 0.57649 0.0
C5732 C 0.80832 0.18361 0.58303 0.0
C5733 C 0.80294 0.1783 0.58307 0.0
C5734 C 0.82269 0.20257 0.58108 0.0
C5735 C 0.8284 0.20198 0.57611 0.0
C5736 C 0.81716 0.19741 0.58122 0.0
C5737 C 0.81724 0.19151 0.57642 0.0
C5738 C 0.82302 0.19088 0.57151 0.0
C5739 C 0.82851 0.19606 0.57135 0.0
H5740 H 0.19331 0.83578 0.58064 0.0
H5741 H 0.20916 0.8202 0.57355 0.0
H5742 H 0.1841 0.82638 0.58077 0.0
H5743 H 0.19999 0.81074 0.57378 0.0
H5744 H 0.18002 0.79782 0.56691 0.0
H5745 H 0.18947 0.80695 0.56732 0.0
H5746 H 0.18015 0.8157 0.58687 0.0
H5747 H 0.17048 0.8068 0.58624 0.0
C5748 C 0.19485 0.83032 0.57921 0.0
C5749 C 0.20197 0.82874 0.57708 0.0
C5750 C 0.18957 0.82491 0.57929 0.0
C5751 C 0.19128 0.81778 0.57728 0.0
C5752 C 0.19844 0.81619 0.57525 0.0
C5753 C 0.20371 0.82161 0.57513 0.0
C5754 C 0.17994 0.80173 0.57126 0.0
C5755 C 0.17444 0.80159 0.57651 0.0
C5756 C 0.18543 0.80691 0.57156 0.0
C5757 C 0.18558 0.81209 0.57713 0.0
C5758 C 0.18016 0.81187 0.58245 0.0
C5759 C 0.17465 0.80669 0.58214 0.0
H5760 H 0.98466 0.27925 0.36329 0.0
H5761 H 0.98326 0.25929 0.35129 0.0
H5762 H 0.99778 0.27829 0.3634 0.0
H5763 H 0.99641 0.25824 0.35149 0.0
H5764 H 0.0194 0.26495 0.34439 0.0
H5765 H 0.00635 0.26421 0.34576 0.0
H5766 H 0.00821 0.27191 0.36773 0.0
H5767 H 0.02126 0.27298 0.36623 0.0
C5768 C 0.98715 0.27457 0.36082 0.0
C5769 C 0.98292 0.26937 0.35724 0.0
C5770 C 0.99468 0.274 0.36089 0.0
C5771 C 0.99817 0.26821 0.35742 0.0
C5772 C 0.99392 0.26285 0.3541 0.0
C5773 C 0.98638 0.26344 0.354 0.0
C5774 C 0.01703 0.26648 0.34952 0.0
C5775 C 0.02138 0.26911 0.35517 0.0
C5776 C 0.00954 0.26597 0.35034 0.0
C5777 C 0.0062 0.26804 0.35685 0.0
C5778 C 0.01059 0.27037 0.36261 0.0
C5779 C 0.01809 0.2709 0.36178 0.0
H5780 H 0.73793 0.98388 0.34538 0.0
H5781 H 0.73078 0.98239 0.36755 0.0
H5782 H 0.73881 0.99693 0.34652 0.0
H5783 H 0.73201 0.99545 0.36881 0.0
H5784 H 0.72464 0.01899 0.36433 0.0
H5785 H 0.72555 0.00587 0.36463 0.0
H5786 H 0.74504 0.00692 0.3518 0.0
H5787 H 0.74404 0.02007 0.35141 0.0
C5788 C 0.73662 0.98633 0.35053 0.0
C5789 C 0.73419 0.98208 0.35634 0.0
C5790 C 0.73722 0.99382 0.35122 0.0
C5791 C 0.73544 0.99727 0.35775 0.0
C5792 C 0.73332 0.99299 0.36367 0.0
C5793 C 0.7327 0.98549 0.36297 0.0
C5794 C 0.7292 0.01643 0.36169 0.0
C5795 C 0.73425 0.02057 0.35781 0.0
C5796 C 0.72973 0.0089 0.36187 0.0
C5797 C 0.73535 0.00531 0.3582 0.0
C5798 C 0.74056 0.00949 0.35457 0.0
C5799 C 0.74001 0.01702 0.35436 0.0
H5800 H 0.01942 0.72387 0.36306 0.0
H5801 H 0.02061 0.74333 0.35023 0.0
H5802 H 0.00629 0.72473 0.36316 0.0
H5803 H 0.00745 0.74426 0.35041 0.0
H5804 H 0.9845 0.73712 0.34369 0.0
H5805 H 0.99755 0.73795 0.34496 0.0
H5806 H 0.99581 0.73123 0.36726 0.0
H5807 H 0.98275 0.73008 0.36587 0.0
C5808 C 0.01688 0.72843 0.36039 0.0
C5809 C 0.02106 0.73351 0.3566 0.0
C5810 C 0.00934 0.72893 0.36046 0.0
C5811 C 0.00579 0.73454 0.35676 0.0
C5812 C 0.00999 0.73979 0.35321 0.0
C5813 C 0.01753 0.73927 0.35311 0.0
C5814 C 0.9869 0.73582 0.34886 0.0
C5815 C 0.98258 0.73345 0.35465 0.0
C5816 C 0.99439 0.73638 0.34962 0.0
C5817 C 0.99776 0.73462 0.3562 0.0
C5818 C 0.99341 0.73253 0.36208 0.0
C5819 C 0.98591 0.73195 0.36131 0.0
H5820 H 0.27888 0.01882 0.36415 0.0
H5821 H 0.25893 0.01995 0.35209 0.0
H5822 H 0.27806 0.0057 0.36432 0.0
H5823 H 0.25803 0.00679 0.35234 0.0
H5824 H 0.26496 0.98382 0.34542 0.0
H5825 H 0.26412 0.99687 0.34669 0.0
H5826 H 0.27177 0.99523 0.3687 0.0
H5827 H 0.27294 0.98218 0.3673 0.0
C5828 C 0.27423 0.01627 0.36167 0.0
C5829 C 0.26899 0.02043 0.35807 0.0
C5830 C 0.27375 0.00873 0.36178 0.0
C5831 C 0.268 0.00517 0.35831 0.0
C5832 C 0.26261 0.00935 0.35495 0.0
C5833 C 0.26311 0.01689 0.35482 0.0
C5834 C 0.26646 0.98624 0.35053 0.0
C5835 C 0.2691 0.98195 0.35623 0.0
C5836 C 0.26589 0.99373 0.3513 0.0
C5837 C 0.26791 0.99713 0.35779 0.0
C5838 C 0.27026 0.99281 0.36359 0.0
C5839 C 0.27085 0.98531 0.36282 0.0
H5840 H 0.98455 0.72481 0.64025 0.0
H5841 H 0.98352 0.74421 0.65317 0.0
H5842 H 0.99768 0.72562 0.64003 0.0
H5843 H 0.99668 0.7451 0.65288 0.0
H5844 H 0.01969 0.73789 0.65935 0.0
H5845 H 0.00662 0.73876 0.65821 0.0
H5846 H 0.00813 0.73209 0.63587 0.0
H5847 H 0.0212 0.73089 0.63713 0.0
C5848 C 0.98712 0.72934 0.64291 0.0
C5849 C 0.98299 0.73442 0.64676 0.0
C5850 C 0.99466 0.72982 0.64278 0.0
C5851 C 0.99826 0.7354 0.64648 0.0
C5852 C 0.9941 0.74065 0.65009 0.0
C5853 C 0.98656 0.74015 0.65024 0.0
C5854 C 0.01724 0.73661 0.65419 0.0
C5855 C 0.02149 0.73424 0.64836 0.0
C5856 C 0.00974 0.7372 0.6535 0.0
C5857 C 0.0063 0.73546 0.64695 0.0
C5858 C 0.01058 0.73337 0.64103 0.0
C5859 C 0.01809 0.73277 0.64172 0.0
H5860 H 0.27258 0.02112 0.63715 0.0
H5861 H 0.2657 0.0194 0.65939 0.0
H5862 H 0.27139 0.00806 0.63578 0.0
H5863 H 0.26485 0.00634 0.65813 0.0
H5864 H 0.25951 0.98326 0.65298 0.0
H5865 H 0.25852 0.99641 0.65276 0.0
H5866 H 0.27793 0.9976 0.63982 0.0
H5867 H 0.27884 0.98448 0.63997 0.0
C5868 C 0.27073 0.01797 0.64172 0.0
C5869 C 0.2693 0.02131 0.6484 0.0
C5870 C 0.27013 0.01047 0.64096 0.0
C5871 C 0.26809 0.00612 0.64686 0.0
C5872 C 0.26638 0.0095 0.65345 0.0
C5873 C 0.26696 0.01699 0.6542 0.0
C5874 C 0.26353 0.98634 0.65005 0.0
C5875 C 0.26927 0.98283 0.64652 0.0
C5876 C 0.26298 0.99388 0.64993 0.0
C5877 C 0.26818 0.99809 0.64632 0.0
C5878 C 0.27377 0.99455 0.64257 0.0
C5879 C 0.2743 0.98701 0.64266 0.0
H5880 H 0.98436 0.2639 0.65686 0.0
H5881 H 0.98209 0.27469 0.63628 0.0
H5882 H 0.99745 0.26399 0.65546 0.0
H5883 H 0.99517 0.27451 0.63475 0.0
H5884 H 0.01806 0.28281 0.64057 0.0
H5885 H 0.00504 0.28101 0.64029 0.0
H5886 H 0.00782 0.25946 0.64883 0.0
H5887 H 0.02088 0.26137 0.64935 0.0
C5888 C 0.98665 0.26621 0.65199 0.0
C5889 C 0.98217 0.26936 0.64672 0.0
C5890 C 0.99416 0.26619 0.65115 0.0
C5891 C 0.99737 0.26931 0.64501 0.0
C5892 C 0.99288 0.27216 0.63959 0.0
C5893 C 0.98536 0.27218 0.64043 0.0
C5894 C 0.0159 0.27768 0.64237 0.0
C5895 C 0.0205 0.27227 0.64506 0.0
C5896 C 0.00843 0.27661 0.64213 0.0
C5897 C 0.00537 0.27009 0.64457 0.0
C5898 C 0.01 0.26457 0.64699 0.0
C5899 C 0.01748 0.26564 0.64722 0.0
H5900 H 0.73684 0.01941 0.65865 0.0
H5901 H 0.72959 0.02086 0.63651 0.0
H5902 H 0.73772 0.00635 0.65753 0.0
H5903 H 0.73079 0.00779 0.63527 0.0
H5904 H 0.7235 0.98423 0.63988 0.0
H5905 H 0.72435 0.99735 0.63955 0.0
H5906 H 0.74398 0.99639 0.65217 0.0
H5907 H 0.74305 0.98324 0.65258 0.0
C5908 C 0.73551 0.01694 0.65351 0.0
C5909 C 0.73306 0.02118 0.6477 0.0
C5910 C 0.7361 0.00945 0.65284 0.0
C5911 C 0.73429 0.00599 0.64632 0.0
C5912 C 0.73213 0.01026 0.6404 0.0
C5913 C 0.73152 0.01777 0.64109 0.0
C5914 C 0.72808 0.98681 0.64246 0.0
C5915 C 0.73319 0.98269 0.64629 0.0
C5916 C 0.72857 0.99434 0.64227 0.0
C5917 C 0.73421 0.99795 0.64588 0.0
C5918 C 0.73949 0.9938 0.64945 0.0
C5919 C 0.73897 0.98627 0.64968 0.0
H5920 H 0.34751 0.98434 0.26393 0.0
H5921 H 0.36764 0.98241 0.27559 0.0
H5922 H 0.34875 0.99745 0.26394 0.0
H5923 H 0.36903 0.99551 0.27535 0.0
H5924 H 0.36248 0.01833 0.28332 0.0
H5925 H 0.36305 0.00531 0.28157 0.0
H5926 H 0.35543 0.0079 0.25964 0.0
H5927 H 0.35461 0.02096 0.2615 0.0
C5928 C 0.35225 0.98671 0.26641 0.0
C5929 C 0.35743 0.98232 0.26984 0.0
C5930 C 0.35301 0.99423 0.26635 0.0
C5931 C 0.35897 0.99754 0.2697 0.0
C5932 C 0.36433 0.99314 0.27281 0.0
C5933 C 0.36357 0.98562 0.27288 0.0
C5934 C 0.36094 0.01612 0.27811 0.0
C5935 C 0.35842 0.02067 0.27258 0.0
C5936 C 0.36136 0.00866 0.27708 0.0
C5937 C 0.35927 0.00555 0.27047 0.0
C5938 C 0.35701 0.01012 0.26483 0.0
C5939 C 0.35661 0.01761 0.26586 0.0
H5940 H 0.98477 0.36236 0.28313 0.0
H5941 H 0.98209 0.35454 0.26131 0.0
H5942 H 0.99779 0.36286 0.28139 0.0
H5943 H 0.99515 0.35527 0.25946 0.0
H5944 H 0.0187 0.34729 0.26369 0.0
H5945 H 0.0056 0.34854 0.26376 0.0
H5946 H 0.0076 0.36882 0.27515 0.0
H5947 H 0.0207 0.36742 0.27534 0.0
C5948 C 0.98696 0.36082 0.27793 0.0
C5949 C 0.9824 0.35834 0.27239 0.0
C5950 C 0.99443 0.36118 0.2769 0.0
C5951 C 0.99753 0.35908 0.27029 0.0
C5952 C 0.99294 0.35685 0.26464 0.0
C5953 C 0.98546 0.3565 0.26568 0.0
C5954 C 0.01635 0.35203 0.26618 0.0
C5955 C 0.02075 0.3572 0.26959 0.0
C5956 C 0.00883 0.35279 0.26615 0.0
C5957 C 0.00553 0.35876 0.26951 0.0
C5958 C 0.00996 0.36411 0.2726 0.0
C5959 C 0.01748 0.36334 0.27264 0.0
H5960 H 0.65251 0.9831 0.25904 0.0
H5961 H 0.6398 0.9841 0.27858 0.0
H5962 H 0.6521 0.99626 0.25811 0.0
H5963 H 0.63948 0.99722 0.27774 0.0
H5964 H 0.63648 0.02071 0.27265 0.0
H5965 H 0.63521 0.00766 0.27136 0.0
H5966 H 0.65744 0.00623 0.26433 0.0
H5967 H 0.65858 0.01928 0.26527 0.0
C5968 C 0.64961 0.98613 0.26312 0.0
C5969 C 0.64622 0.98256 0.2689 0.0
C5970 C 0.64938 0.99367 0.2626 0.0
C5971 C 0.6458 0.99782 0.26787 0.0
C5972 C 0.64219 0.99421 0.27351 0.0
C5973 C 0.64239 0.98668 0.27401 0.0
C5974 C 0.64104 0.01763 0.27067 0.0
C5975 C 0.64765 0.02105 0.26912 0.0
C5976 C 0.64034 0.01013 0.27001 0.0
C5977 C 0.64624 0.00586 0.26781 0.0
C5978 C 0.65276 0.00933 0.26598 0.0
C5979 C 0.65344 0.01682 0.26661 0.0
H5980 H 0.98461 0.65564 0.26402 0.0
H5981 H 0.98285 0.6359 0.27636 0.0
H5982 H 0.99774 0.65452 0.26409 0.0
H5983 H 0.99597 0.63463 0.2762 0.0
H5984 H 0.01876 0.64157 0.28386 0.0
H5985 H 0.00573 0.64096 0.2822 0.0
H5986 H 0.00822 0.64768 0.25998 0.0
H5987 H 0.0213 0.64853 0.26173 0.0
C5988 C 0.98702 0.65101 0.26667 0.0
C5989 C 0.98268 0.6459 0.27025 0.0
C5990 C 0.99455 0.65032 0.26664 0.0
C5991 C 0.99791 0.64451 0.2702 0.0
C5992 C 0.99355 0.63923 0.27349 0.0
C5993 C 0.98603 0.63991 0.27352 0.0
C5994 C 0.01653 0.64291 0.27861 0.0
C5995 C 0.02106 0.64517 0.27295 0.0
C5996 C 0.00906 0.64247 0.27763 0.0
C5997 C 0.00592 0.64429 0.27096 0.0
C5998 C 0.01047 0.64632 0.26521 0.0
C5999 C 0.01796 0.64673 0.26619 0.0
H6000 H 0.36356 0.98426 0.7252 0.0
H6001 H 0.34979 0.9834 0.74403 0.0
H6002 H 0.36391 0.99738 0.72603 0.0
H6003 H 0.35024 0.99655 0.74495 0.0
H6004 H 0.34435 0.01962 0.73751 0.0
H6005 H 0.34533 0.00656 0.73847 0.0
H6006 H 0.36789 0.00781 0.73258 0.0
H6007 H 0.3668 0.02088 0.73126 0.0
C6008 C 0.36074 0.98687 0.72962 0.0
C6009 C 0.35661 0.98279 0.73452 0.0
C6010 C 0.36095 0.9944 0.73011 0.0
C6011 C 0.35707 0.99805 0.73554 0.0
C6012 C 0.35318 0.99394 0.74062 0.0
C6013 C 0.35294 0.9864 0.7401 0.0
C6014 C 0.34952 0.01711 0.73641 0.0
C6015 C 0.35547 0.0213 0.73421 0.0
C6016 C 0.35011 0.00961 0.73706 0.0
C6017 C 0.35669 0.0061 0.73557 0.0
C6018 C 0.36272 0.01032 0.73367 0.0
C6019 C 0.36212 0.01783 0.733 0.0
H6020 H 0.01861 0.34372 0.73336 0.0
H6021 H 0.01951 0.36696 0.73544 0.0
H6022 H 0.00553 0.34412 0.73435 0.0
H6023 H 0.00634 0.36736 0.73637 0.0
H6024 H 0.98283 0.36476 0.72742 0.0
H6025 H 0.99596 0.36523 0.72836 0.0
H6026 H 0.9956 0.34675 0.74262 0.0
H6027 H 0.98246 0.34629 0.74168 0.0
C6028 C 0.01604 0.34891 0.73417 0.0
C6029 C 0.02014 0.35531 0.73433 0.0
C6030 C 0.00851 0.34914 0.73473 0.0
C6031 C 0.00488 0.35577 0.73544 0.0
C6032 C 0.00897 0.36217 0.73573 0.0
C6033 C 0.01651 0.36194 0.7352 0.0
C6034 C 0.98553 0.36089 0.73088 0.0
C6035 C 0.98159 0.35545 0.73443 0.0
C6036 C 0.99307 0.36116 0.73141 0.0
C6037 C 0.99684 0.35598 0.73551 0.0
C6038 C 0.99287 0.35073 0.73931 0.0
C6039 C 0.98534 0.35047 0.73877 0.0
H6040 H 0.64043 0.01878 0.72491 0.0
H6041 H 0.65425 0.0197 0.74368 0.0
H6042 H 0.64013 0.00565 0.72574 0.0
H6043 H 0.65386 0.00654 0.74462 0.0
H6044 H 0.65975 0.98346 0.73726 0.0
H6045 H 0.65877 0.99653 0.73815 0.0
H6046 H 0.63619 0.99524 0.73233 0.0
H6047 H 0.63728 0.98216 0.73107 0.0
C6048 C 0.64328 0.01618 0.72931 0.0
C6049 C 0.6474 0.02028 0.7342 0.0
C6050 C 0.6431 0.00864 0.7298 0.0
C6051 C 0.64701 0.00501 0.73523 0.0
C6052 C 0.6509 0.00914 0.74029 0.0
C6053 C 0.65111 0.01668 0.73977 0.0
C6054 C 0.65458 0.98596 0.73616 0.0
C6055 C 0.64862 0.98176 0.734 0.0
C6056 C 0.65398 0.99346 0.73677 0.0
C6057 C 0.6474 0.99697 0.73528 0.0
C6058 C 0.64137 0.99274 0.73341 0.0
C6059 C 0.64197 0.98522 0.73278 0.0
H6060 H 0.02092 0.63632 0.72744 0.0
H6061 H 0.01915 0.65668 0.73871 0.0
H6062 H 0.00781 0.63499 0.7278 0.0
H6063 H 0.00604 0.65549 0.73883 0.0
H6064 H 0.98255 0.64964 0.7417 0.0
H6065 H 0.99563 0.64886 0.7434 0.0
H6066 H 0.99794 0.64091 0.72156 0.0
H6067 H 0.9849 0.64145 0.71997 0.0
C6068 C 0.01774 0.64046 0.73009 0.0
C6069 C 0.02108 0.64664 0.73299 0.0
C6070 C 0.01022 0.63973 0.73023 0.0
C6071 C 0.00586 0.64516 0.73327 0.0
C6072 C 0.00922 0.65118 0.73648 0.0
C6073 C 0.01674 0.6519 0.73634 0.0
C6074 C 0.98585 0.64759 0.73732 0.0
C6075 C 0.98269 0.64566 0.73068 0.0
C6076 C 0.99335 0.64721 0.73827 0.0
C6077 C 0.99785 0.64487 0.7326 0.0
C6078 C 0.99465 0.64267 0.72607 0.0
C6079 C 0.98717 0.64307 0.72512 0.0
H6080 H 0.27337 0.36724 0.98456 0.0
H6081 H 0.26446 0.3457 0.98322 0.0
H6082 H 0.27235 0.36683 0.99771 0.0
H6083 H 0.26322 0.3454 0.99633 0.0
H6084 H 0.27254 0.3438 0.01941 0.0
H6085 H 0.27177 0.34453 0.00633 0.0
H6086 H 0.26388 0.36644 0.00796 0.0
H6087 H 0.26458 0.3657 0.02113 0.0
C6088 C 0.27113 0.36245 0.98707 0.0
C6089 C 0.26905 0.35649 0.98284 0.0
C6090 C 0.27047 0.36225 0.9946 0.0
C6091 C 0.26775 0.35606 0.99807 0.0
C6092 C 0.26542 0.35021 0.99382 0.0
C6093 C 0.26606 0.35042 0.9863 0.0
C6094 C 0.2705 0.34874 0.01701 0.0
C6095 C 0.26861 0.35469 0.02135 0.0
C6096 C 0.27006 0.34915 0.00949 0.0
C6097 C 0.26775 0.35554 0.00609 0.0
C6098 C 0.26576 0.36147 0.01042 0.0
C6099 C 0.26617 0.36104 0.01796 0.0
H6100 H 0.27899 0.64053 0.01865 0.0
H6101 H 0.25915 0.65276 0.01976 0.0
H6102 H 0.27818 0.64036 0.00552 0.0
H6103 H 0.25826 0.65252 0.0066 0.0
H6104 H 0.26528 0.6594 0.98364 0.0
H6105 H 0.26443 0.65814 0.9967 0.0
H6106 H 0.27184 0.63605 0.99504 0.0
H6107 H 0.27301 0.63744 0.98198 0.0
C6108 C 0.27436 0.64304 0.01609 0.0
C6109 C 0.26915 0.64669 0.02025 0.0
C6110 C 0.27389 0.64294 0.00855 0.0
C6111 C 0.26817 0.64647 0.00498 0.0
C6112 C 0.26281 0.64987 0.00916 0.0
C6113 C 0.2633 0.65 0.0167 0.0
C6114 C 0.26673 0.65427 0.98606 0.0
C6115 C 0.26929 0.64855 0.98176 0.0
C6116 C 0.26615 0.65351 0.99355 0.0
C6117 C 0.2681 0.647 0.99694 0.0
C6118 C 0.27039 0.64117 0.99262 0.0
C6119 C 0.27098 0.64194 0.98512 0.0
H6120 H 0.35202 0.25913 0.02072 0.0
H6121 H 0.36391 0.27917 0.0195 0.0
H6122 H 0.35235 0.25813 0.00757 0.0
H6123 H 0.36416 0.27824 0.00638 0.0
H6124 H 0.36721 0.27308 0.9829 0.0
H6125 H 0.36861 0.27194 0.99596 0.0
H6126 H 0.34667 0.2641 0.9976 0.0
H6127 H 0.3454 0.26491 0.98455 0.0
C6128 C 0.35473 0.2633 0.01764 0.0
C6129 C 0.35791 0.26924 0.02115 0.0
C6130 C 0.35491 0.26274 0.01011 0.0
C6131 C 0.35824 0.26813 0.0059 0.0
C6132 C 0.36164 0.27393 0.00944 0.0
C6133 C 0.3615 0.27447 0.01697 0.0
C6134 C 0.36274 0.27095 0.98603 0.0
C6135 C 0.35617 0.26914 0.98268 0.0
C6136 C 0.36352 0.27038 0.99354 0.0
C6137 C 0.35774 0.26799 0.99786 0.0
C6138 C 0.35127 0.2659 0.99446 0.0
C6139 C 0.3505 0.26646 0.98697 0.0
H6140 H 0.7371 0.34437 0.01943 0.0
H6141 H 0.73057 0.36675 0.02069 0.0
H6142 H 0.73802 0.34535 0.00637 0.0
H6143 H 0.73185 0.36784 0.00761 0.0
H6144 H 0.72444 0.36336 0.98409 0.0
H6145 H 0.72531 0.36376 0.99721 0.0
H6146 H 0.74441 0.35034 0.99634 0.0
H6147 H 0.74344 0.34986 0.98319 0.0
C6148 C 0.73593 0.34953 0.01692 0.0
C6149 C 0.73367 0.35545 0.02111 0.0
C6150 C 0.73656 0.35012 0.00942 0.0
C6151 C 0.73497 0.35667 0.00591 0.0
C6152 C 0.73301 0.36269 0.01013 0.0
C6153 C 0.73236 0.36209 0.01764 0.0
C6154 C 0.7289 0.36061 0.98669 0.0
C6155 C 0.73384 0.35654 0.98261 0.0
C6156 C 0.72941 0.36085 0.99423 0.0
C6157 C 0.73491 0.35705 0.99786 0.0
C6158 C 0.74003 0.35322 0.99374 0.0
C6159 C 0.73949 0.35295 0.9862 0.0
H6160 H 0.64871 0.74165 0.98194 0.0
H6161 H 0.64065 0.7199 0.98448 0.0
H6162 H 0.64786 0.74348 0.99499 0.0
H6163 H 0.64003 0.72163 0.9975 0.0
H6164 H 0.63536 0.72764 0.02039 0.0
H6165 H 0.63405 0.7279 0.00728 0.0
H6166 H 0.65446 0.73908 0.00547 0.0
H6167 H 0.65563 0.73908 0.01858 0.0
C6168 C 0.64667 0.7373 0.98527 0.0
C6169 C 0.6448 0.73061 0.98218 0.0
C6170 C 0.64625 0.73832 0.99275 0.0
C6171 C 0.64392 0.73269 0.9973 0.0
C6172 C 0.64178 0.72611 0.99416 0.0
C6173 C 0.64222 0.72508 0.9867 0.0
C6174 C 0.63948 0.73031 0.01721 0.0
C6175 C 0.64563 0.73329 0.02054 0.0
C6176 C 0.63877 0.73039 0.00968 0.0
C6177 C 0.64418 0.73344 0.00531 0.0
C6178 C 0.65016 0.73673 0.00866 0.0
C6179 C 0.65087 0.73665 0.01618 0.0
H6180 H 0.74432 0.65128 0.98306 0.0
H6181 H 0.72431 0.63933 0.98431 0.0
H6182 H 0.74524 0.6511 0.99622 0.0
H6183 H 0.72517 0.63923 0.99743 0.0
H6184 H 0.73033 0.63638 0.02096 0.0
H6185 H 0.73147 0.63489 0.00792 0.0
H6186 H 0.7392 0.65686 0.00611 0.0
H6187 H 0.73839 0.65822 0.01916 0.0
C6188 C 0.74013 0.64859 0.98614 0.0
C6189 C 0.73422 0.64535 0.98264 0.0
C6190 C 0.74065 0.6485 0.99369 0.0
C6191 C 0.73526 0.6452 0.9979 0.0
C6192 C 0.72948 0.64174 0.99437 0.0
C6193 C 0.72898 0.6418 0.98683 0.0
C6194 C 0.73243 0.64084 0.0178 0.0
C6195 C 0.73421 0.64744 0.02111 0.0
C6196 C 0.733 0.64001 0.0103 0.0
C6197 C 0.73536 0.64577 0.00594 0.0
C6198 C 0.73741 0.65228 0.00929 0.0
C6199 C 0.73686 0.65309 0.01677 0.0
H6200 H 0.35475 0.742 0.98218 0.0
H6201 H 0.3634 0.7205 0.98496 0.0
H6202 H 0.35519 0.74385 0.99525 0.0
H6203 H 0.36359 0.72224 0.99799 0.0
H6204 H 0.36739 0.72837 0.02102 0.0
H6205 H 0.36906 0.72863 0.00795 0.0
H6206 H 0.34845 0.73932 0.00553 0.0
H6207 H 0.34692 0.73934 0.0186 0.0
C6208 C 0.35683 0.73771 0.98557 0.0
C6209 C 0.35898 0.73108 0.98253 0.0
C6210 C 0.35702 0.73874 0.99306 0.0
C6211 C 0.35938 0.73318 0.99768 0.0
C6212 C 0.3618 0.72667 0.9946 0.0
C6213 C 0.36161 0.72564 0.98713 0.0
C6214 C 0.36329 0.73094 0.01771 0.0
C6215 C 0.35699 0.73378 0.02086 0.0
C6216 C 0.36422 0.73101 0.01021 0.0
C6217 C 0.35886 0.73392 0.00568 0.0
C6218 C 0.35271 0.73708 0.00885 0.0
C6219 C 0.35179 0.73701 0.01635 0.0
H6220 H 0.63988 0.27892 0.98424 0.0
H6221 H 0.65294 0.25962 0.98306 0.0
H6222 H 0.63976 0.27806 0.99737 0.0
H6223 H 0.65275 0.25868 0.99621 0.0
H6224 H 0.65936 0.26589 0.01918 0.0
H6225 H 0.65811 0.26506 0.00612 0.0
H6226 H 0.63573 0.27151 0.00784 0.0
H6227 H 0.63709 0.27267 0.0209 0.0
C6228 C 0.64259 0.2744 0.98678 0.0
C6229 C 0.64646 0.26937 0.98261 0.0
C6230 C 0.64252 0.27389 0.99432 0.0
C6231 C 0.64628 0.26832 0.99787 0.0
C6232 C 0.6499 0.26312 0.99367 0.0
C6233 C 0.65 0.26365 0.98613 0.0
C6234 C 0.65417 0.26713 0.01677 0.0
C6235 C 0.64835 0.26943 0.02109 0.0
C6236 C 0.65343 0.26656 0.00928 0.0
C6237 C 0.64683 0.26825 0.0059 0.0
C6238 C 0.64092 0.27027 0.01025 0.0
C6239 C 0.64167 0.27085 0.01775 0.0
H6240 H 0.51876 0.78409 0.86309 0.0
H6241 H 0.52136 0.76234 0.85504 0.0
H6242 H 0.50572 0.78241 0.86348 0.0
H6243 H 0.50829 0.76055 0.85569 0.0
H6244 H 0.48486 0.76497 0.84754 0.0
H6245 H 0.49795 0.76495 0.84892 0.0
H6246 H 0.49581 0.77619 0.86928 0.0
H6247 H 0.48272 0.77646 0.86774 0.0
C6248 C 0.51654 0.77892 0.86147 0.0
C6249 C 0.52109 0.77338 0.85896 0.0
C6250 C 0.50907 0.77792 0.86179 0.0
C6251 C 0.50595 0.77135 0.85959 0.0
C6252 C 0.51052 0.7657 0.85734 0.0
C6253 C 0.51801 0.7667 0.85704 0.0
C6254 C 0.48718 0.76741 0.85232 0.0
C6255 C 0.48274 0.77079 0.85749 0.0
C6256 C 0.49469 0.76733 0.85316 0.0
C6257 C 0.49794 0.77062 0.85919 0.0
C6258 C 0.49348 0.7737 0.86452 0.0
C6259 C 0.48597 0.77378 0.86368 0.0
H6260 H 0.22675 0.52095 0.8672 0.0
H6261 H 0.23993 0.51908 0.84802 0.0
H6262 H 0.22674 0.50783 0.86847 0.0
H6263 H 0.23969 0.50596 0.84913 0.0
H6264 H 0.24162 0.48239 0.85523 0.0
H6265 H 0.24342 0.49545 0.85614 0.0
H6266 H 0.22095 0.49811 0.8619 0.0
H6267 H 0.21923 0.48509 0.86123 0.0
C6268 C 0.22974 0.51775 0.86331 0.0
C6269 C 0.23329 0.52107 0.85747 0.0
C6270 C 0.22967 0.51022 0.864 0.0
C6271 C 0.23315 0.50583 0.85886 0.0
C6272 C 0.23699 0.50917 0.85321 0.0
C6273 C 0.23706 0.51669 0.85253 0.0
C6274 C 0.23711 0.48576 0.85683 0.0
C6275 C 0.23027 0.48271 0.85811 0.0
C6276 C 0.23812 0.49324 0.85728 0.0
C6277 C 0.23232 0.49783 0.85906 0.0
C6278 C 0.22556 0.49474 0.86059 0.0
C6279 C 0.22454 0.48728 0.86012 0.0
H6280 H 0.48398 0.2399 0.84705 0.0
H6281 H 0.48231 0.22771 0.86689 0.0
H6282 H 0.49711 0.23986 0.84813 0.0
H6283 H 0.49543 0.22791 0.86811 0.0
H6284 H 0.51822 0.22025 0.86118 0.0
H6285 H 0.50519 0.22188 0.86182 0.0
H6286 H 0.50761 0.24405 0.85489 0.0
H6287 H 0.52068 0.24233 0.85403 0.0
C6288 C 0.48641 0.23729 0.85169 0.0
C6289 C 0.48209 0.23374 0.85684 0.0
C6290 C 0.49394 0.23734 0.85236 0.0
C6291 C 0.49733 0.23383 0.85818 0.0
C6292 C 0.49299 0.23058 0.86351 0.0
C6293 C 0.48546 0.23053 0.86285 0.0
C6294 C 0.51598 0.22548 0.85981 0.0
C6295 C 0.52048 0.23113 0.85748 0.0
C6296 C 0.5085 0.22645 0.86026 0.0
C6297 C 0.50534 0.2331 0.85839 0.0
C6298 C 0.50987 0.23884 0.8563 0.0
C6299 C 0.51736 0.23787 0.85587 0.0
H6300 H 0.76159 0.5201 0.85261 0.0
H6301 H 0.78227 0.51754 0.86313 0.0
H6302 H 0.7598 0.50703 0.85297 0.0
H6303 H 0.78061 0.5045 0.86326 0.0
H6304 H 0.77426 0.48143 0.86666 0.0
H6305 H 0.77382 0.49451 0.86821 0.0
H6306 H 0.76499 0.49675 0.84671 0.0
H6307 H 0.76515 0.48367 0.84528 0.0
C6308 C 0.76571 0.51676 0.85509 0.0
C6309 C 0.7721 0.51986 0.85779 0.0
C6310 C 0.76472 0.50926 0.85523 0.0
C6311 C 0.77008 0.5047 0.8581 0.0
C6312 C 0.77633 0.50784 0.86107 0.0
C6313 C 0.77733 0.51532 0.86092 0.0
C6314 C 0.77206 0.4847 0.86233 0.0
C6315 C 0.76979 0.4815 0.85582 0.0
C6316 C 0.77189 0.49221 0.86318 0.0
C6317 C 0.76944 0.49669 0.85756 0.0
C6318 C 0.76686 0.49347 0.85118 0.0
C6319 C 0.76703 0.48597 0.85032 0.0
H6320 H 0.48486 0.21894 0.14378 0.0
H6321 H 0.4821 0.24187 0.14718 0.0
H6322 H 0.49785 0.22062 0.14279 0.0
H6323 H 0.49515 0.2436 0.14596 0.0
H6324 H 0.519 0.24097 0.15407 0.0
H6325 H 0.50585 0.24067 0.1532 0.0
H6326 H 0.50738 0.2257 0.13536 0.0
H6327 H 0.5205 0.2258 0.13639 0.0
C6328 C 0.48703 0.22436 0.14426 0.0
C6329 C 0.48245 0.23026 0.14563 0.0
C6330 C 0.49448 0.22534 0.1436 0.0
C6331 C 0.49756 0.23225 0.1443 0.0
C6332 C 0.49296 0.2382 0.14546 0.0
C6333 C 0.48548 0.23721 0.14609 0.0
C6334 C 0.51652 0.23765 0.14993 0.0
C6335 C 0.52081 0.23335 0.14535 0.0
C6336 C 0.50899 0.23754 0.14939 0.0
C6337 C 0.50555 0.23311 0.14425 0.0
C6338 C 0.50985 0.22909 0.13944 0.0
C6339 C 0.51738 0.22921 0.13998 0.0
H6340 H 0.76418 0.5188 0.15415 0.0
H6341 H 0.77759 0.52067 0.13514 0.0
H6342 H 0.76431 0.50568 0.15296 0.0
H6343 H 0.77748 0.50756 0.13378 0.0
H6344 H 0.78479 0.48475 0.14098 0.0
H6345 H 0.78314 0.49778 0.14034 0.0
H6346 H 0.7606 0.49522 0.14588 0.0
H6347 H 0.76233 0.48214 0.14676 0.0
C6348 C 0.76707 0.51641 0.14966 0.0
C6349 C 0.77094 0.52078 0.14479 0.0
C6350 C 0.76708 0.50889 0.14893 0.0
C6351 C 0.77095 0.50556 0.1433 0.0
C6352 C 0.77453 0.50995 0.13823 0.0
C6353 C 0.77452 0.51747 0.13896 0.0
C6354 C 0.77947 0.48696 0.14205 0.0
C6355 C 0.77371 0.48242 0.144 0.0
C6356 C 0.7785 0.49443 0.1416 0.0
C6357 C 0.77173 0.49756 0.14308 0.0
C6358 C 0.7659 0.49299 0.14478 0.0
C6359 C 0.76687 0.4855 0.14522 0.0
H6360 H 0.52088 0.77186 0.1372 0.0
H6361 H 0.51932 0.76469 0.15936 0.0
H6362 H 0.50781 0.77079 0.13594 0.0
H6363 H 0.50625 0.76397 0.15823 0.0
H6364 H 0.48306 0.75894 0.15327 0.0
H6365 H 0.4962 0.75786 0.15295 0.0
H6366 H 0.49744 0.77732 0.14009 0.0
H6367 H 0.48433 0.77831 0.14032 0.0
C6368 C 0.51777 0.76997 0.14178 0.0
C6369 C 0.52116 0.76842 0.1484 0.0
C6370 C 0.51025 0.76944 0.14108 0.0
C6371 C 0.50595 0.76736 0.147 0.0
C6372 C 0.50938 0.76554 0.15353 0.0
C6373 C 0.51688 0.76604 0.15422 0.0
C6374 C 0.48615 0.76296 0.15034 0.0
C6375 C 0.48266 0.76873 0.14685 0.0
C6376 C 0.49368 0.76235 0.15016 0.0
C6377 C 0.49791 0.76753 0.14654 0.0
C6378 C 0.49438 0.77317 0.14285 0.0
C6379 C 0.48685 0.77375 0.14298 0.0
H6380 H 0.24355 0.52017 0.15305 0.0
H6381 H 0.22398 0.51912 0.14039 0.0
H6382 H 0.24444 0.50701 0.15277 0.0
H6383 H 0.22479 0.50599 0.14019 0.0
H6384 H 0.23006 0.48246 0.13726 0.0
H6385 H 0.23122 0.49553 0.13596 0.0
H6386 H 0.23816 0.49708 0.15821 0.0
H6387 H 0.23733 0.48402 0.15939 0.0
C6388 C 0.23946 0.51712 0.15018 0.0
C6389 C 0.23368 0.52069 0.14677 0.0
C6390 C 0.23995 0.50958 0.15004 0.0
C6391 C 0.23466 0.50542 0.1465 0.0
C6392 C 0.22902 0.50901 0.14288 0.0
C6393 C 0.22855 0.51655 0.14299 0.0
C6394 C 0.23199 0.48557 0.14182 0.0
C6395 C 0.23355 0.48219 0.14845 0.0
C6396 C 0.23257 0.49308 0.14111 0.0
C6397 C 0.23472 0.49738 0.147 0.0
C6398 C 0.23654 0.49395 0.15353 0.0
C6399 C 0.23598 0.48646 0.15424 0.0
H6400 H 0.84804 0.51895 0.76315 0.0
H6401 H 0.86744 0.52103 0.77596 0.0
H6402 H 0.84922 0.50584 0.76349 0.0
H6403 H 0.86879 0.50792 0.77604 0.0
H6404 H 0.86183 0.48524 0.78395 0.0
H6405 H 0.86242 0.49824 0.78206 0.0
H6406 H 0.85613 0.4953 0.75976 0.0
H6407 H 0.8553 0.48226 0.76174 0.0
C6408 C 0.85261 0.51661 0.76596 0.0
C6409 C 0.8576 0.52104 0.7696 0.0
C6410 C 0.85333 0.50909 0.76608 0.0
C6411 C 0.85907 0.50582 0.76984 0.0
C6412 C 0.86425 0.51026 0.77318 0.0
C6413 C 0.86352 0.51779 0.77306 0.0
C6414 C 0.86059 0.48736 0.77863 0.0
C6415 C 0.85844 0.48272 0.77302 0.0
C6416 C 0.86101 0.49481 0.77752 0.0
C6417 C 0.85931 0.49783 0.77076 0.0
C6418 C 0.85741 0.49316 0.76506 0.0
C6419 C 0.857 0.48569 0.76617 0.0
H6420 H 0.48464 0.84769 0.76277 0.0
H6421 H 0.48338 0.86576 0.7775 0.0
H6422 H 0.49779 0.84856 0.76283 0.0
H6423 H 0.49651 0.86678 0.77736 0.0
H6424 H 0.51925 0.85863 0.78378 0.0
H6425 H 0.5062 0.85944 0.78241 0.0
H6426 H 0.50835 0.85589 0.75944 0.0
H6427 H 0.52147 0.85487 0.76085 0.0
C6428 C 0.48716 0.8519 0.76595 0.0
C6429 C 0.48295 0.85661 0.77018 0.0
C6430 C 0.4947 0.85245 0.76592 0.0
C6431 C 0.49821 0.85771 0.77014 0.0
C6432 C 0.49398 0.86261 0.77413 0.0
C6433 C 0.48645 0.86208 0.77414 0.0
C6434 C 0.51694 0.85803 0.77843 0.0
C6435 C 0.52139 0.85662 0.77244 0.0
C6436 C 0.50946 0.85858 0.77763 0.0
C6437 C 0.50622 0.85773 0.77081 0.0
C6438 C 0.51068 0.85651 0.76477 0.0
C6439 C 0.51819 0.85599 0.76557 0.0
H6440 H 0.15999 0.48417 0.77296 0.0
H6441 H 0.13797 0.48244 0.76536 0.0
H6442 H 0.15919 0.49726 0.77232 0.0
H6443 H 0.13716 0.49561 0.76481 0.0
H6444 H 0.13647 0.51893 0.77455 0.0
H6445 H 0.1369 0.50579 0.77343 0.0
H6446 H 0.15812 0.50732 0.76382 0.0
H6447 H 0.15778 0.52042 0.76514 0.0
C6448 C 0.15501 0.48657 0.77103 0.0
C6449 C 0.14905 0.48222 0.7692 0.0
C6450 C 0.15456 0.49409 0.77067 0.0
C6451 C 0.14812 0.49748 0.76851 0.0
C6452 C 0.14217 0.49316 0.76658 0.0
C6453 C 0.14263 0.48562 0.76691 0.0
C6454 C 0.14121 0.51646 0.77217 0.0
C6455 C 0.14711 0.52072 0.76998 0.0
C6456 C 0.14143 0.50893 0.77146 0.0
C6457 C 0.14757 0.5055 0.76858 0.0
C6458 C 0.15335 0.50979 0.76615 0.0
C6459 C 0.15312 0.51731 0.76683 0.0
H6460 H 0.48368 0.15854 0.76634 0.0
H6461 H 0.48227 0.13622 0.77305 0.0
H6462 H 0.49673 0.15743 0.76534 0.0
H6463 H 0.49534 0.135 0.77171 0.0
H6464 H 0.51894 0.13941 0.77896 0.0
H6465 H 0.50581 0.1391 0.77818 0.0
H6466 H 0.50666 0.15225 0.75889 0.0
H6467 H 0.51982 0.15264 0.75976 0.0
C6468 C 0.48615 0.15336 0.76753 0.0
C6469 C 0.48193 0.1475 0.76987 0.0
C6470 C 0.49364 0.1527 0.76686 0.0
C6471 C 0.49711 0.14613 0.76848 0.0
C6472 C 0.49286 0.14017 0.77052 0.0
C6473 C 0.48535 0.14084 0.77121 0.0
C6474 C 0.51633 0.14212 0.77448 0.0
C6475 C 0.52042 0.14608 0.76945 0.0
C6476 C 0.50879 0.14193 0.77401 0.0
C6477 C 0.50515 0.14569 0.76849 0.0
C6478 C 0.50927 0.14941 0.76329 0.0
C6479 C 0.51681 0.14962 0.76378 0.0
H6480 H 0.86641 0.48207 0.23046 0.0
H6481 H 0.84424 0.48359 0.23763 0.0
H6482 H 0.86764 0.49515 0.23152 0.0
H6483 H 0.84535 0.49666 0.23834 0.0
H6484 H 0.8503 0.51985 0.24344 0.0
H6485 H 0.85065 0.5067 0.2445 0.0
H6486 H 0.86344 0.50552 0.22499 0.0
H6487 H 0.86317 0.51864 0.22402 0.0
C6488 C 0.86182 0.48518 0.23234 0.0
C6489 C 0.85521 0.48178 0.2339 0.0
C6490 C 0.8625 0.4927 0.23287 0.0
C6491 C 0.85658 0.49699 0.23495 0.0
C6492 C 0.85005 0.49355 0.23678 0.0
C6493 C 0.84938 0.48604 0.23627 0.0
C6494 C 0.85322 0.51677 0.23941 0.0
C6495 C 0.85668 0.52028 0.23363 0.0
C6496 C 0.85341 0.50924 0.24 0.0
C6497 C 0.85703 0.50503 0.2348 0.0
C6498 C 0.86069 0.50857 0.22916 0.0
C6499 C 0.86053 0.51611 0.22859 0.0
H6500 H 0.5208 0.85447 0.24197 0.0
H6501 H 0.5183 0.86337 0.22054 0.0
H6502 H 0.50773 0.85513 0.24375 0.0
H6503 H 0.50527 0.86379 0.2222 0.0
H6504 H 0.48225 0.86781 0.22813 0.0
H6505 H 0.49533 0.86935 0.22858 0.0
H6506 H 0.4974 0.84858 0.23905 0.0
H6507 H 0.48431 0.84719 0.23887 0.0
C6508 C 0.51747 0.85666 0.23768 0.0
C6509 C 0.52058 0.85881 0.23109 0.0
C6510 C 0.50998 0.85697 0.23867 0.0
C6511 C 0.50544 0.85947 0.23311 0.0
C6512 C 0.50859 0.8619 0.22664 0.0
C6513 C 0.51607 0.86158 0.22564 0.0
C6514 C 0.48548 0.86366 0.23069 0.0
C6515 C 0.48223 0.85734 0.23341 0.0
C6516 C 0.49299 0.8645 0.23088 0.0
C6517 C 0.49743 0.85905 0.23378 0.0
C6518 C 0.49415 0.85291 0.23682 0.0
C6519 C 0.48665 0.85207 0.23664 0.0
H6520 H 0.1431 0.51929 0.21837 0.0
H6521 H 0.14792 0.52168 0.24108 0.0
H6522 H 0.14226 0.50626 0.21989 0.0
H6523 H 0.14686 0.50859 0.24266 0.0
H6524 H 0.15492 0.48488 0.23919 0.0
H6525 H 0.15399 0.49803 0.23909 0.0
H6526 H 0.13521 0.49658 0.22529 0.0
H6527 H 0.1363 0.48345 0.22519 0.0
C6528 C 0.14392 0.51703 0.22371 0.0
C6529 C 0.14565 0.52151 0.22959 0.0
C6530 C 0.14335 0.50956 0.2246 0.0
C6531 C 0.1445 0.50637 0.2314 0.0
C6532 C 0.14601 0.51087 0.23734 0.0
C6533 C 0.14655 0.51837 0.23645 0.0
C6534 C 0.15057 0.48737 0.23617 0.0
C6535 C 0.14573 0.48311 0.23214 0.0
C6536 C 0.14999 0.4949 0.23617 0.0
C6537 C 0.14456 0.49836 0.23214 0.0
C6538 C 0.13952 0.49409 0.22838 0.0
C6539 C 0.14009 0.48655 0.22839 0.0
H6540 H 0.48195 0.13615 0.23076 0.0
H6541 H 0.48353 0.15818 0.23831 0.0
H6542 H 0.49502 0.13482 0.23193 0.0
H6543 H 0.49659 0.15697 0.23915 0.0
H6544 H 0.51969 0.15176 0.24442 0.0
H6545 H 0.50653 0.15145 0.24535 0.0
H6546 H 0.50547 0.13914 0.22553 0.0
H6547 H 0.51859 0.13937 0.22468 0.0
C6548 C 0.48507 0.14068 0.23275 0.0
C6549 C 0.48169 0.14729 0.23438 0.0
C6550 C 0.49258 0.13995 0.23334 0.0
C6551 C 0.49688 0.14581 0.23558 0.0
C6552 C 0.49346 0.15232 0.23747 0.0
C6553 C 0.48597 0.15305 0.2369 0.0
C6554 C 0.51664 0.14894 0.2403 0.0
C6555 C 0.52018 0.14562 0.23446 0.0
C6556 C 0.5091 0.14878 0.24082 0.0
C6557 C 0.50492 0.14531 0.23549 0.0
C6558 C 0.5085 0.14176 0.22979 0.0
C6559 C 0.51603 0.1419 0.22929 0.0
H6560 H 0.77826 0.86357 0.5191 0.0
H6561 H 0.75897 0.85047 0.51989 0.0
H6562 H 0.77749 0.86395 0.50598 0.0
H6563 H 0.75812 0.85093 0.50673 0.0
H6564 H 0.76562 0.84466 0.48376 0.0
H6565 H 0.76455 0.84574 0.4968 0.0
H6566 H 0.77109 0.86812 0.4955 0.0
H6567 H 0.77249 0.86693 0.48244 0.0
C6568 C 0.77376 0.86091 0.51648 0.0
C6569 C 0.7687 0.85695 0.52054 0.0
C6570 C 0.77331 0.86113 0.50894 0.0
C6571 C 0.76777 0.85743 0.50527 0.0
C6572 C 0.76253 0.85373 0.50936 0.0
C6573 C 0.76301 0.85347 0.5169 0.0
C6574 C 0.76683 0.84982 0.48625 0.0
C6575 C 0.76923 0.85568 0.48205 0.0
C6576 C 0.76612 0.85047 0.49373 0.0
C6577 C 0.76778 0.85701 0.49723 0.0
C6578 C 0.76988 0.86297 0.493 0.0
C6579 C 0.7706 0.86232 0.4855 0.0
H6580 H 0.76269 0.15654 0.51957 0.0
H6581 H 0.77477 0.13665 0.52144 0.0
H6582 H 0.7627 0.15532 0.50646 0.0
H6583 H 0.77453 0.13528 0.50834 0.0
H6584 H 0.78223 0.14194 0.48548 0.0
H6585 H 0.78058 0.14139 0.49851 0.0
H6586 H 0.75848 0.14853 0.49603 0.0
H6587 H 0.76023 0.14932 0.48295 0.0
C6588 C 0.76527 0.15186 0.51719 0.0
C6589 C 0.7688 0.14674 0.52156 0.0
C6590 C 0.7652 0.15111 0.50967 0.0
C6591 C 0.76867 0.14523 0.50634 0.0
C6592 C 0.7719 0.13993 0.51073 0.0
C6593 C 0.77196 0.14067 0.51825 0.0
C6594 C 0.77701 0.14338 0.48771 0.0
C6595 C 0.77139 0.14575 0.48318 0.0
C6596 C 0.77603 0.14298 0.49518 0.0
C6597 C 0.7694 0.14494 0.49833 0.0
C6598 C 0.76368 0.14706 0.49378 0.0
C6599 C 0.76466 0.14744 0.48629 0.0
H6600 H 0.86578 0.76549 0.48135 0.0
H6601 H 0.84382 0.77327 0.48295 0.0
H6602 H 0.86644 0.76473 0.49452 0.0
H6603 H 0.84446 0.77243 0.49604 0.0
H6604 H 0.84561 0.76493 0.51914 0.0
H6605 H 0.84537 0.76377 0.50602 0.0
H6606 H 0.86666 0.77326 0.50479 0.0
H6607 H 0.86699 0.77422 0.51795 0.0
C6608 C 0.8611 0.76703 0.4845 0.0
C6609 C 0.85475 0.76944 0.48107 0.0
C6610 C 0.86147 0.76658 0.49204 0.0
C6611 C 0.8555 0.76851 0.49633 0.0
C6612 C 0.84912 0.77078 0.4929 0.0
C6613 C 0.84875 0.77125 0.48538 0.0
C6614 C 0.8503 0.76663 0.51609 0.0
C6615 C 0.85631 0.7697 0.51959 0.0
C6616 C 0.85013 0.76604 0.50856 0.0
C6617 C 0.85597 0.76848 0.50435 0.0
C6618 C 0.86209 0.77129 0.50787 0.0
C6619 C 0.86225 0.77191 0.5154 0.0
H6620 H 0.2261 0.86611 0.52046 0.0
H6621 H 0.23962 0.84714 0.51888 0.0
H6622 H 0.2262 0.86727 0.50733 0.0
H6623 H 0.2395 0.84815 0.50574 0.0
H6624 H 0.24167 0.85442 0.48213 0.0
H6625 H 0.24326 0.85528 0.49523 0.0
H6626 H 0.22062 0.86045 0.4976 0.0
H6627 H 0.21909 0.85981 0.48455 0.0
C6628 C 0.22919 0.86225 0.51732 0.0
C6629 C 0.23281 0.8565 0.52072 0.0
C6630 C 0.22917 0.86287 0.50979 0.0
C6631 C 0.23279 0.85776 0.50548 0.0
C6632 C 0.23669 0.8522 0.50889 0.0
C6633 C 0.2367 0.85158 0.51642 0.0
C6634 C 0.23707 0.85587 0.48545 0.0
C6635 C 0.23024 0.857 0.48231 0.0
C6636 C 0.23797 0.85629 0.49295 0.0
C6637 C 0.23206 0.85791 0.49747 0.0
C6638 C 0.2253 0.85927 0.49429 0.0
C6639 C 0.2244 0.85882 0.48681 0.0
H6640 H 0.15781 0.23721 0.51967 0.0
H6641 H 0.1358 0.22961 0.52125 0.0
H6642 H 0.15659 0.23811 0.50662 0.0
H6643 H 0.13445 0.23084 0.50819 0.0
H6644 H 0.13898 0.22367 0.48459 0.0
H6645 H 0.13875 0.22449 0.49772 0.0
H6646 H 0.15107 0.24431 0.4967 0.0
H6647 H 0.15139 0.24341 0.48354 0.0
C6648 C 0.15268 0.23581 0.51724 0.0
C6649 C 0.14693 0.23326 0.52151 0.0
C6650 C 0.15194 0.23641 0.50975 0.0
C6651 C 0.14543 0.23451 0.50633 0.0
C6652 C 0.13958 0.23225 0.51063 0.0
C6653 C 0.14032 0.23163 0.51813 0.0
C6654 C 0.14152 0.22828 0.48716 0.0
C6655 C 0.14524 0.23345 0.48303 0.0
C6656 C 0.14138 0.22876 0.4947 0.0
C6657 C 0.14493 0.23445 0.49829 0.0
C6658 C 0.1484 0.23978 0.49413 0.0
C6659 C 0.14857 0.23928 0.48659 0.0
H6660 H 0.24364 0.15302 0.52033 0.0
H6661 H 0.22446 0.13976 0.51923 0.0
H6662 H 0.24454 0.15281 0.50718 0.0
H6663 H 0.22528 0.13964 0.5061 0.0
H6664 H 0.23051 0.13704 0.48255 0.0
H6665 H 0.23178 0.13568 0.4956 0.0
H6666 H 0.23813 0.15809 0.49728 0.0
H6667 H 0.2372 0.15934 0.48423 0.0
C6668 C 0.23963 0.15004 0.51728 0.0
C6669 C 0.23396 0.14643 0.52082 0.0
C6670 C 0.24013 0.14993 0.50973 0.0
C6671 C 0.23495 0.14626 0.50555 0.0
C6672 C 0.22943 0.14244 0.50913 0.0
C6673 C 0.22895 0.14252 0.51667 0.0
C6674 C 0.23233 0.14163 0.48569 0.0
C6675 C 0.23369 0.14832 0.48234 0.0
C6676 C 0.23298 0.14088 0.49319 0.0
C6677 C 0.23499 0.14679 0.49752 0.0
C6678 C 0.23662 0.1534 0.49413 0.0
C6679 C 0.236 0.15414 0.48664 0.0
H6680 H 0.85432 0.24216 0.48223 0.0
H6681 H 0.86311 0.22069 0.48483 0.0
H6682 H 0.85491 0.24397 0.4953 0.0
H6683 H 0.86345 0.22238 0.49786 0.0
H6684 H 0.86742 0.22839 0.52088 0.0
H6685 H 0.86899 0.22875 0.5078 0.0
H6686 H 0.84829 0.23934 0.50562 0.0
H6687 H 0.84687 0.23924 0.51871 0.0
C6688 C 0.85647 0.23786 0.48558 0.0
C6689 C 0.85861 0.23126 0.4825 0.0
C6690 C 0.85674 0.23887 0.49307 0.0
C6691 C 0.85918 0.2333 0.49764 0.0
C6692 C 0.8616 0.22681 0.49451 0.0
C6693 C 0.86132 0.22581 0.48704 0.0
C6694 C 0.86329 0.23095 0.51762 0.0
C6695 C 0.85699 0.23373 0.52084 0.0
C6696 C 0.86415 0.23109 0.51012 0.0
C6697 C 0.85873 0.234 0.50565 0.0
C6698 C 0.8526 0.23709 0.50889 0.0
C6699 C 0.85174 0.23696 0.5164 0.0
H6700 H 0.13652 0.77374 0.4821 0.0
H6701 H 0.15886 0.76717 0.48366 0.0
H6702 H 0.13525 0.77248 0.49517 0.0
H6703 H 0.1577 0.76623 0.49671 0.0
H6704 H 0.15275 0.7606 0.51976 0.0
H6705 H 0.15245 0.75973 0.5066 0.0
H6706 H 0.13928 0.77899 0.50567 0.0
H6707 H 0.1395 0.77978 0.5188 0.0
C6708 C 0.14114 0.77195 0.48522 0.0
C6709 C 0.14781 0.77062 0.48184 0.0
C6710 C 0.14043 0.7713 0.49272 0.0
C6711 C 0.14638 0.76931 0.49702 0.0
C6712 C 0.15298 0.76772 0.49359 0.0
C6713 C 0.15367 0.76835 0.4861 0.0
C6714 C 0.14975 0.76461 0.51674 0.0
C6715 C 0.14618 0.77028 0.52032 0.0
C6716 C 0.14959 0.76413 0.50919 0.0
C6717 C 0.14589 0.76933 0.50506 0.0
C6718 C 0.1421 0.77484 0.50867 0.0
C6719 C 0.14223 0.7753 0.51621 0.0
loop_
_geom_bond_atom_site_label_1
_geom_bond_atom_site_label_2
_geom_bond_distance
_geom_bond_site_symmetry_2
_ccdc_geom_bond_type
C0 C1 1.264 . S
C0 C5 1.479 . S
C0 C10 1.465 . S
C1 C0 1.264 . S
C1 C3 1.339 . S
C1 H28 0.931 . S
C2 C3 1.395 . S
C2 C4 1.320 . S
C3 C1 1.339 . S
C3 C2 1.395 . S
C3 H29 0.929 . S
C4 C2 1.320 . S
C4 C5 1.405 . S
C4 H30 0.930 . S
C5 C0 1.479 . S
C5 C4 1.405 . S
C5 H31 0.931 . S
U6 O7 2.454 . S
U6 O8 2.458 . S
U6 C9 2.984 . S
U6 C10 2.847 . S
U6 C23 2.882 . S
U6 O24 2.441 . S
U6 O25 2.420 . S
U6 O26 2.455 . S
U6 O27 2.449 . S
O7 U6 2.454 . S
O7 C9 1.353 . S
O8 U6 2.458 . S
O8 C9 1.286 . S
C9 U6 2.984 . S
C9 O7 1.353 . S
C9 O8 1.286 . S
C9 C11 1.363 . S
C10 C0 1.465 . S
C10 U6 2.847 . S
C10 O24 1.249 . S
C10 O25 1.202 . S
C11 C9 1.363 . S
C11 C13 1.408 . S
C11 C16 1.342 . S
C12 C13 1.310 . S
C12 C15 1.461 . S
C12 H32 0.932 . S
C13 C11 1.408 . S
C13 C12 1.310 . S
C13 H33 0.930 . S
C14 C15 1.474 . S
C14 C16 1.285 . S
C14 H34 0.929 . S
C15 C12 1.461 . S
C15 C14 1.474 . S
C16 C11 1.342 . S
C16 C14 1.285 . S
C16 H35 0.930 . S
C17 C20 1.424 . S
C17 C22 1.245 . S
C17 C23 1.428 . S
C18 C21 1.260 . S
C18 C22 1.477 . S
C18 H36 0.932 . S
C19 C20 1.384 . S
C19 C21 1.479 . S
C19 H37 0.929 . S
C20 C17 1.424 . S
C20 C19 1.384 . S
C20 H38 0.928 . S
C21 C18 1.260 . S
C21 C19 1.479 . S
C22 C17 1.245 . S
C22 C18 1.477 . S
C22 H39 0.932 . S
C23 U6 2.882 . S
C23 C17 1.428 . S
C23 O26 1.301 . S
C23 O27 1.282 . S
O24 U6 2.441 . S
O24 C10 1.249 . S
O25 U6 2.420 . S
O25 C10 1.202 . S
O26 U6 2.455 . S
O26 C23 1.301 . S
O27 U6 2.449 . S
O27 C23 1.282 . S
H28 C1 0.931 . S
H29 C3 0.929 . S
H30 C4 0.930 . S
H31 C5 0.931 . S
H32 C12 0.932 . S
H33 C13 0.930 . S
H34 C14 0.929 . S
H35 C16 0.930 . S
H36 C18 0.932 . S
H37 C19 0.929 . S
H38 C20 0.928 . S
H39 C22 0.932 . S
C40 C41 1.264 . S
C40 C45 1.479 . S
C40 C50 1.465 . S
C41 C40 1.264 . S
C41 C43 1.339 . S
C41 H68 0.931 . S
C42 C43 1.395 . S
C42 C44 1.320 . S
C43 C41 1.339 . S
C43 C42 1.395 . S
C43 H69 0.929 . S
C44 C42 1.320 . S
C44 C45 1.405 . S
C44 H70 0.930 . S
C45 C40 1.479 . S
C45 C44 1.405 . S
C45 H71 0.931 . S
U46 O47 2.454 . S
U46 O48 2.458 . S
U46 C49 2.984 . S
U46 C50 2.847 . S
U46 C63 2.882 . S
U46 O64 2.441 . S
U46 O65 2.420 . S
U46 O66 2.455 . S
U46 O67 2.449 . S
O47 U46 2.454 . S
O47 C49 1.353 . S
O48 U46 2.458 . S
O48 C49 1.286 . S
C49 U46 2.984 . S
C49 O47 1.353 . S
C49 O48 1.286 . S
C49 C51 1.363 . S
C50 C40 1.465 . S
C50 U46 2.847 . S
C50 O64 1.249 . S
C50 O65 1.202 . S
C51 C49 1.363 . S
C51 C53 1.408 . S
C51 C56 1.342 . S
C52 C53 1.310 . S
C52 C55 1.461 . S
C52 H72 0.932 . S
C53 C51 1.408 . S
C53 C52 1.310 . S
C53 H73 0.930 . S
C54 C55 1.474 . S
C54 C56 1.285 . S
C54 H74 0.929 . S
C55 C52 1.461 . S
C55 C54 1.474 . S
C56 C51 1.342 . S
C56 C54 1.285 . S
C56 H75 0.930 . S
C57 C60 1.424 . S
C57 C62 1.245 . S
C57 C63 1.428 . S
C58 C61 1.260 . S
C58 C62 1.477 . S
C58 H76 0.932 . S
C59 C60 1.384 . S
C59 C61 1.479 . S
C59 H77 0.929 . S
C60 C57 1.424 . S
C60 C59 1.384 . S
C60 H78 0.928 . S
C61 C58 1.260 . S
C61 C59 1.479 . S
C62 C57 1.245 . S
C62 C58 1.477 . S
C62 H79 0.932 . S
C63 U46 2.882 . S
C63 C57 1.428 . S
C63 O66 1.301 . S
C63 O67 1.282 . S
O64 U46 2.441 . S
O64 C50 1.249 . S
O65 U46 2.420 . S
O65 C50 1.202 . S
O66 U46 2.455 . S
O66 C63 1.301 . S
O67 U46 2.449 . S
O67 C63 1.282 . S
H68 C41 0.931 . S
H69 C43 0.929 . S
H70 C44 0.930 . S
H71 C45 0.931 . S
H72 C52 0.932 . S
H73 C53 0.930 . S
H74 C54 0.929 . S
H75 C56 0.930 . S
H76 C58 0.932 . S
H77 C59 0.929 . S
H78 C60 0.928 . S
H79 C62 0.932 . S
C80 C81 1.264 . S
C80 C85 1.479 . S
C80 C90 1.465 . S
C81 C80 1.264 . S
C81 C83 1.339 . S
C81 H108 0.931 . S
C82 C83 1.395 . S
C82 C84 1.320 . S
C83 C81 1.339 . S
C83 C82 1.395 . S
C83 H109 0.929 . S
C84 C82 1.320 . S
C84 C85 1.405 . S
C84 H110 0.930 . S
C85 C80 1.479 . S
C85 C84 1.405 . S
C85 H111 0.931 . S
U86 O87 2.454 . S
U86 O88 2.458 . S
U86 C89 2.984 . S
U86 C90 2.847 . S
U86 C103 2.882 . S
U86 O104 2.441 . S
U86 O105 2.420 . S
U86 O106 2.455 . S
U86 O107 2.449 . S
O87 U86 2.454 . S
O87 C89 1.353 . S
O88 U86 2.458 . S
O88 C89 1.286 . S
C89 U86 2.984 . S
C89 O87 1.353 . S
C89 O88 1.286 . S
C89 C91 1.363 . S
C90 C80 1.465 . S
C90 U86 2.847 . S
C90 O104 1.249 . S
C90 O105 1.202 . S
C91 C89 1.363 . S
C91 C93 1.408 . S
C91 C96 1.342 . S
C92 C93 1.310 . S
C92 C95 1.461 . S
C92 H112 0.932 . S
C93 C91 1.408 . S
C93 C92 1.310 . S
C93 H113 0.930 . S
C94 C95 1.474 . S
C94 C96 1.285 . S
C94 H114 0.929 . S
C95 C92 1.461 . S
C95 C94 1.474 . S
C96 C91 1.342 . S
C96 C94 1.285 . S
C96 H115 0.930 . S
C97 C100 1.424 . S
C97 C102 1.245 . S
C97 C103 1.428 . S
C98 C101 1.260 . S
C98 C102 1.477 . S
C98 H116 0.932 . S
C99 C100 1.384 . S
C99 C101 1.479 . S
C99 H117 0.929 . S
C100 C97 1.424 . S
C100 C99 1.384 . S
C100 H118 0.928 . S
C101 C98 1.260 . S
C101 C99 1.479 . S
C102 C97 1.245 . S
C102 C98 1.477 . S
C102 H119 0.932 . S
C103 U86 2.882 . S
C103 C97 1.428 . S
C103 O106 1.301 . S
C103 O107 1.282 . S
O104 U86 2.441 . S
O104 C90 1.249 . S
O105 U86 2.420 . S
O105 C90 1.202 . S
O106 U86 2.455 . S
O106 C103 1.301 . S
O107 U86 2.449 . S
O107 C103 1.282 . S
H108 C81 0.931 . S
H109 C83 0.929 . S
H110 C84 0.930 . S
H111 C85 0.931 . S
H112 C92 0.932 . S
H113 C93 0.930 . S
H114 C94 0.929 . S
H115 C96 0.930 . S
H116 C98 0.932 . S
H117 C99 0.929 . S
H118 C100 0.928 . S
H119 C102 0.932 . S
C120 C121 1.264 . S
C120 C125 1.479 . S
C120 C130 1.465 . S
C121 C120 1.264 . S
C121 C123 1.339 . S
C121 H148 0.931 . S
C122 C123 1.395 . S
C122 C124 1.320 . S
C123 C121 1.339 . S
C123 C122 1.395 . S
C123 H149 0.929 . S
C124 C122 1.320 . S
C124 C125 1.405 . S
C124 H150 0.930 . S
C125 C120 1.479 . S
C125 C124 1.405 . S
C125 H151 0.931 . S
U126 O127 2.454 . S
U126 O128 2.458 . S
U126 C129 2.984 . S
U126 C130 2.847 . S
U126 C143 2.882 . S
U126 O144 2.441 . S
U126 O145 2.420 . S
U126 O146 2.455 . S
U126 O147 2.449 . S
O127 U126 2.454 . S
O127 C129 1.353 . S
O128 U126 2.458 . S
O128 C129 1.286 . S
C129 U126 2.984 . S
C129 O127 1.353 . S
C129 O128 1.286 . S
C129 C131 1.363 . S
C130 C120 1.465 . S
C130 U126 2.847 . S
C130 O144 1.249 . S
C130 O145 1.202 . S
C131 C129 1.363 . S
C131 C133 1.408 . S
C131 C136 1.342 . S
C132 C133 1.310 . S
C132 C135 1.461 . S
C132 H152 0.932 . S
C133 C131 1.408 . S
C133 C132 1.310 . S
C133 H153 0.930 . S
C134 C135 1.474 . S
C134 C136 1.285 . S
C134 H154 0.929 . S
C135 C132 1.461 . S
C135 C134 1.474 . S
C136 C131 1.342 . S
C136 C134 1.285 . S
C136 H155 0.930 . S
C137 C140 1.424 . S
C137 C142 1.245 . S
C137 C143 1.428 . S
C138 C141 1.260 . S
C138 C142 1.477 . S
C138 H156 0.932 . S
C139 C140 1.384 . S
C139 C141 1.479 . S
C139 H157 0.929 . S
C140 C137 1.424 . S
C140 C139 1.384 . S
C140 H158 0.928 . S
C141 C138 1.260 . S
C141 C139 1.479 . S
C142 C137 1.245 . S
C142 C138 1.477 . S
C142 H159 0.932 . S
C143 U126 2.882 . S
C143 C137 1.428 . S
C143 O146 1.301 . S
C143 O147 1.282 . S
O144 U126 2.441 . S
O144 C130 1.249 . S
O145 U126 2.420 . S
O145 C130 1.202 . S
O146 U126 2.455 . S
O146 C143 1.301 . S
O147 U126 2.449 . S
O147 C143 1.282 . S
H148 C121 0.931 . S
H149 C123 0.929 . S
H150 C124 0.930 . S
H151 C125 0.931 . S
H152 C132 0.932 . S
H153 C133 0.930 . S
H154 C134 0.929 . S
H155 C136 0.930 . S
H156 C138 0.932 . S
H157 C139 0.929 . S
H158 C140 0.928 . S
H159 C142 0.932 . S
C160 C161 1.264 . S
C160 C165 1.479 . S
C160 C170 1.465 . S
C161 C160 1.264 . S
C161 C163 1.339 . S
C161 H188 0.931 . S
C162 C163 1.395 . S
C162 C164 1.320 . S
C163 C161 1.339 . S
C163 C162 1.395 . S
C163 H189 0.929 . S
C164 C162 1.320 . S
C164 C165 1.405 . S
C164 H190 0.930 . S
C165 C160 1.479 . S
C165 C164 1.405 . S
C165 H191 0.931 . S
U166 O167 2.454 . S
U166 O168 2.458 . S
U166 C169 2.984 . S
U166 C170 2.847 . S
U166 C183 2.882 . S
U166 O184 2.441 . S
U166 O185 2.420 . S
U166 O186 2.455 . S
U166 O187 2.449 . S
O167 U166 2.454 . S
O167 C169 1.353 . S
O168 U166 2.458 . S
O168 C169 1.286 . S
C169 U166 2.984 . S
C169 O167 1.353 . S
C169 O168 1.286 . S
C169 C171 1.363 . S
C170 C160 1.465 . S
C170 U166 2.847 . S
C170 O184 1.249 . S
C170 O185 1.202 . S
C171 C169 1.363 . S
C171 C173 1.408 . S
C171 C176 1.342 . S
C172 C173 1.310 . S
C172 C175 1.461 . S
C172 H192 0.932 . S
C173 C171 1.408 . S
C173 C172 1.310 . S
C173 H193 0.930 . S
C174 C175 1.474 . S
C174 C176 1.285 . S
C174 H194 0.929 . S
C175 C172 1.461 . S
C175 C174 1.474 . S
C176 C171 1.342 . S
C176 C174 1.285 . S
C176 H195 0.930 . S
C177 C180 1.424 . S
C177 C182 1.245 . S
C177 C183 1.428 . S
C178 C181 1.260 . S
C178 C182 1.477 . S
C178 H196 0.932 . S
C179 C180 1.384 . S
C179 C181 1.479 . S
C179 H197 0.929 . S
C180 C177 1.424 . S
C180 C179 1.384 . S
C180 H198 0.928 . S
C181 C178 1.260 . S
C181 C179 1.479 . S
C182 C177 1.245 . S
C182 C178 1.477 . S
C182 H199 0.932 . S
C183 U166 2.882 . S
C183 C177 1.428 . S
C183 O186 1.301 . S
C183 O187 1.282 . S
O184 U166 2.441 . S
O184 C170 1.249 . S
O185 U166 2.420 . S
O185 C170 1.202 . S
O186 U166 2.455 . S
O186 C183 1.301 . S
O187 U166 2.449 . S
O187 C183 1.282 . S
H188 C161 0.931 . S
H189 C163 0.929 . S
H190 C164 0.930 . S
H191 C165 0.931 . S
H192 C172 0.932 . S
H193 C173 0.930 . S
H194 C174 0.929 . S
H195 C176 0.930 . S
H196 C178 0.932 . S
H197 C179 0.929 . S
H198 C180 0.928 . S
H199 C182 0.932 . S
C200 C201 1.264 . S
C200 C205 1.479 . S
C200 C210 1.465 . S
C201 C200 1.264 . S
C201 C203 1.339 . S
C201 H228 0.931 . S
C202 C203 1.395 . S
C202 C204 1.320 . S
C203 C201 1.339 . S
C203 C202 1.395 . S
C203 H229 0.929 . S
C204 C202 1.320 . S
C204 C205 1.405 . S
C204 H230 0.930 . S
C205 C200 1.479 . S
C205 C204 1.405 . S
C205 H231 0.931 . S
U206 O207 2.454 . S
U206 O208 2.458 . S
U206 C209 2.984 . S
U206 C210 2.847 . S
U206 C223 2.882 . S
U206 O224 2.441 . S
U206 O225 2.420 . S
U206 O226 2.455 . S
U206 O227 2.449 . S
O207 U206 2.454 . S
O207 C209 1.353 . S
O208 U206 2.458 . S
O208 C209 1.286 . S
C209 U206 2.984 . S
C209 O207 1.353 . S
C209 O208 1.286 . S
C209 C211 1.363 . S
C210 C200 1.465 . S
C210 U206 2.847 . S
C210 O224 1.249 . S
C210 O225 1.202 . S
C211 C209 1.363 . S
C211 C213 1.408 . S
C211 C216 1.342 . S
C212 C213 1.310 . S
C212 C215 1.461 . S
C212 H232 0.932 . S
C213 C211 1.408 . S
C213 C212 1.310 . S
C213 H233 0.930 . S
C214 C215 1.474 . S
C214 C216 1.285 . S
C214 H234 0.929 . S
C215 C212 1.461 . S
C215 C214 1.474 . S
C216 C211 1.342 . S
C216 C214 1.285 . S
C216 H235 0.930 . S
C217 C220 1.424 . S
C217 C222 1.245 . S
C217 C223 1.428 . S
C218 C221 1.260 . S
C218 C222 1.477 . S
C218 H236 0.932 . S
C219 C220 1.384 . S
C219 C221 1.479 . S
C219 H237 0.929 . S
C220 C217 1.424 . S
C220 C219 1.384 . S
C220 H238 0.928 . S
C221 C218 1.260 . S
C221 C219 1.479 . S
C222 C217 1.245 . S
C222 C218 1.477 . S
C222 H239 0.932 . S
C223 U206 2.882 . S
C223 C217 1.428 . S
C223 O226 1.301 . S
C223 O227 1.282 . S
O224 U206 2.441 . S
O224 C210 1.249 . S
O225 U206 2.420 . S
O225 C210 1.202 . S
O226 U206 2.455 . S
O226 C223 1.301 . S
O227 U206 2.449 . S
O227 C223 1.282 . S
H228 C201 0.931 . S
H229 C203 0.929 . S
H230 C204 0.930 . S
H231 C205 0.931 . S
H232 C212 0.932 . S
H233 C213 0.930 . S
H234 C214 0.929 . S
H235 C216 0.930 . S
H236 C218 0.932 . S
H237 C219 0.929 . S
H238 C220 0.928 . S
H239 C222 0.932 . S
C240 C241 1.264 . S
C240 C245 1.479 . S
C240 C250 1.465 . S
C241 C240 1.264 . S
C241 C243 1.339 . S
C241 H268 0.931 . S
C242 C243 1.395 . S
C242 C244 1.320 . S
C243 C241 1.339 . S
C243 C242 1.395 . S
C243 H269 0.929 . S
C244 C242 1.320 . S
C244 C245 1.405 . S
C244 H270 0.930 . S
C245 C240 1.479 . S
C245 C244 1.405 . S
C245 H271 0.931 . S
U246 O247 2.454 . S
U246 O248 2.458 . S
U246 C249 2.984 . S
U246 C250 2.847 . S
U246 C263 2.882 . S
U246 O264 2.441 . S
U246 O265 2.420 . S
U246 O266 2.455 . S
U246 O267 2.449 . S
O247 U246 2.454 . S
O247 C249 1.353 . S
O248 U246 2.458 . S
O248 C249 1.286 . S
C249 U246 2.984 . S
C249 O247 1.353 . S
C249 O248 1.286 . S
C249 C251 1.363 . S
C250 C240 1.465 . S
C250 U246 2.847 . S
C250 O264 1.249 . S
C250 O265 1.202 . S
C251 C249 1.363 . S
C251 C253 1.408 . S
C251 C256 1.342 . S
C252 C253 1.310 . S
C252 C255 1.461 . S
C252 H272 0.932 . S
C253 C251 1.408 . S
C253 C252 1.310 . S
C253 H273 0.930 . S
C254 C255 1.474 . S
C254 C256 1.285 . S
C254 H274 0.929 . S
C255 C252 1.461 . S
C255 C254 1.474 . S
C256 C251 1.342 . S
C256 C254 1.285 . S
C256 H275 0.930 . S
C257 C260 1.424 . S
C257 C262 1.245 . S
C257 C263 1.428 . S
C258 C261 1.260 . S
C258 C262 1.477 . S
C258 H276 0.932 . S
C259 C260 1.384 . S
C259 C261 1.479 . S
C259 H277 0.929 . S
C260 C257 1.424 . S
C260 C259 1.384 . S
C260 H278 0.928 . S
C261 C258 1.260 . S
C261 C259 1.479 . S
C262 C257 1.245 . S
C262 C258 1.477 . S
C262 H279 0.932 . S
C263 U246 2.882 . S
C263 C257 1.428 . S
C263 O266 1.301 . S
C263 O267 1.282 . S
O264 U246 2.441 . S
O264 C250 1.249 . S
O265 U246 2.420 . S
O265 C250 1.202 . S
O266 U246 2.455 . S
O266 C263 1.301 . S
O267 U246 2.449 . S
O267 C263 1.282 . S
H268 C241 0.931 . S
H269 C243 0.929 . S
H270 C244 0.930 . S
H271 C245 0.931 . S
H272 C252 0.932 . S
H273 C253 0.930 . S
H274 C254 0.929 . S
H275 C256 0.930 . S
H276 C258 0.932 . S
H277 C259 0.929 . S
H278 C260 0.928 . S
H279 C262 0.932 . S
C280 C281 1.264 . S
C280 C285 1.479 . S
C280 C290 1.465 . S
C281 C280 1.264 . S
C281 C283 1.339 . S
C281 H308 0.931 . S
C282 C283 1.395 . S
C282 C284 1.320 . S
C283 C281 1.339 . S
C283 C282 1.395 . S
C283 H309 0.929 . S
C284 C282 1.320 . S
C284 C285 1.405 . S
C284 H310 0.930 . S
C285 C280 1.479 . S
C285 C284 1.405 . S
C285 H311 0.931 . S
U286 O287 2.454 . S
U286 O288 2.458 . S
U286 C289 2.984 . S
U286 C290 2.847 . S
U286 C303 2.882 . S
U286 O304 2.441 . S
U286 O305 2.420 . S
U286 O306 2.455 . S
U286 O307 2.449 . S
O287 U286 2.454 . S
O287 C289 1.353 . S
O288 U286 2.458 . S
O288 C289 1.286 . S
C289 U286 2.984 . S
C289 O287 1.353 . S
C289 O288 1.286 . S
C289 C291 1.363 . S
C290 C280 1.465 . S
C290 U286 2.847 . S
C290 O304 1.249 . S
C290 O305 1.202 . S
C291 C289 1.363 . S
C291 C293 1.408 . S
C291 C296 1.342 . S
C292 C293 1.310 . S
C292 C295 1.461 . S
C292 H312 0.932 . S
C293 C291 1.408 . S
C293 C292 1.310 . S
C293 H313 0.930 . S
C294 C295 1.474 . S
C294 C296 1.285 . S
C294 H314 0.929 . S
C295 C292 1.461 . S
C295 C294 1.474 . S
C296 C291 1.342 . S
C296 C294 1.285 . S
C296 H315 0.930 . S
C297 C300 1.424 . S
C297 C302 1.245 . S
C297 C303 1.428 . S
C298 C301 1.260 . S
C298 C302 1.477 . S
C298 H316 0.932 . S
C299 C300 1.384 . S
C299 C301 1.479 . S
C299 H317 0.929 . S
C300 C297 1.424 . S
C300 C299 1.384 . S
C300 H318 0.928 . S
C301 C298 1.260 . S
C301 C299 1.479 . S
C302 C297 1.245 . S
C302 C298 1.477 . S
C302 H319 0.932 . S
C303 U286 2.882 . S
C303 C297 1.428 . S
C303 O306 1.301 . S
C303 O307 1.282 . S
O304 U286 2.441 . S
O304 C290 1.249 . S
O305 U286 2.420 . S
O305 C290 1.202 . S
O306 U286 2.455 . S
O306 C303 1.301 . S
O307 U286 2.449 . S
O307 C303 1.282 . S
H308 C281 0.931 . S
H309 C283 0.929 . S
H310 C284 0.930 . S
H311 C285 0.931 . S
H312 C292 0.932 . S
H313 C293 0.930 . S
H314 C294 0.929 . S
H315 C296 0.930 . S
H316 C298 0.932 . S
H317 C299 0.929 . S
H318 C300 0.928 . S
H319 C302 0.932 . S
C320 C321 1.264 . S
C320 C325 1.479 . S
C320 C330 1.465 . S
C321 C320 1.264 . S
C321 C323 1.339 . S
C321 H348 0.931 . S
C322 C323 1.395 . S
C322 C324 1.320 . S
C323 C321 1.339 . S
C323 C322 1.395 . S
C323 H349 0.929 . S
C324 C322 1.320 . S
C324 C325 1.405 . S
C324 H350 0.930 . S
C325 C320 1.479 . S
C325 C324 1.405 . S
C325 H351 0.931 . S
U326 O327 2.454 . S
U326 O328 2.458 . S
U326 C329 2.984 . S
U326 C330 2.847 . S
U326 C343 2.882 . S
U326 O344 2.441 . S
U326 O345 2.420 . S
U326 O346 2.455 . S
U326 O347 2.449 . S
O327 U326 2.454 . S
O327 C329 1.353 . S
O328 U326 2.458 . S
O328 C329 1.286 . S
C329 U326 2.984 . S
C329 O327 1.353 . S
C329 O328 1.286 . S
C329 C331 1.363 . S
C330 C320 1.465 . S
C330 U326 2.847 . S
C330 O344 1.249 . S
C330 O345 1.202 . S
C331 C329 1.363 . S
C331 C333 1.408 . S
C331 C336 1.342 . S
C332 C333 1.310 . S
C332 C335 1.461 . S
C332 H352 0.932 . S
C333 C331 1.408 . S
C333 C332 1.310 . S
C333 H353 0.930 . S
C334 C335 1.474 . S
C334 C336 1.285 . S
C334 H354 0.929 . S
C335 C332 1.461 . S
C335 C334 1.474 . S
C336 C331 1.342 . S
C336 C334 1.285 . S
C336 H355 0.930 . S
C337 C340 1.424 . S
C337 C342 1.245 . S
C337 C343 1.428 . S
C338 C341 1.260 . S
C338 C342 1.477 . S
C338 H356 0.932 . S
C339 C340 1.384 . S
C339 C341 1.479 . S
C339 H357 0.929 . S
C340 C337 1.424 . S
C340 C339 1.384 . S
C340 H358 0.928 . S
C341 C338 1.260 . S
C341 C339 1.479 . S
C342 C337 1.245 . S
C342 C338 1.477 . S
C342 H359 0.932 . S
C343 U326 2.882 . S
C343 C337 1.428 . S
C343 O346 1.301 . S
C343 O347 1.282 . S
O344 U326 2.441 . S
O344 C330 1.249 . S
O345 U326 2.420 . S
O345 C330 1.202 . S
O346 U326 2.455 . S
O346 C343 1.301 . S
O347 U326 2.449 . S
O347 C343 1.282 . S
H348 C321 0.931 . S
H349 C323 0.929 . S
H350 C324 0.930 . S
H351 C325 0.931 . S
H352 C332 0.932 . S
H353 C333 0.930 . S
H354 C334 0.929 . S
H355 C336 0.930 . S
H356 C338 0.932 . S
H357 C339 0.929 . S
H358 C340 0.928 . S
H359 C342 0.932 . S
C360 C361 1.264 . S
C360 C365 1.479 . S
C360 C370 1.465 . S
C361 C360 1.264 . S
C361 C363 1.339 . S
C361 H388 0.931 . S
C362 C363 1.395 . S
C362 C364 1.320 . S
C363 C361 1.339 . S
C363 C362 1.395 . S
C363 H389 0.929 . S
C364 C362 1.320 . S
C364 C365 1.405 . S
C364 H390 0.930 . S
C365 C360 1.479 . S
C365 C364 1.405 . S
C365 H391 0.931 . S
U366 O367 2.454 . S
U366 O368 2.458 . S
U366 C369 2.984 . S
U366 C370 2.847 . S
U366 C383 2.882 . S
U366 O384 2.441 . S
U366 O385 2.420 . S
U366 O386 2.455 . S
U366 O387 2.449 . S
O367 U366 2.454 . S
O367 C369 1.353 . S
O368 U366 2.458 . S
O368 C369 1.286 . S
C369 U366 2.984 . S
C369 O367 1.353 . S
C369 O368 1.286 . S
C369 C371 1.363 . S
C370 C360 1.465 . S
C370 U366 2.847 . S
C370 O384 1.249 . S
C370 O385 1.202 . S
C371 C369 1.363 . S
C371 C373 1.408 . S
C371 C376 1.342 . S
C372 C373 1.310 . S
C372 C375 1.461 . S
C372 H392 0.932 . S
C373 C371 1.408 . S
C373 C372 1.310 . S
C373 H393 0.930 . S
C374 C375 1.474 . S
C374 C376 1.285 . S
C374 H394 0.929 . S
C375 C372 1.461 . S
C375 C374 1.474 . S
C376 C371 1.342 . S
C376 C374 1.285 . S
C376 H395 0.930 . S
C377 C380 1.424 . S
C377 C382 1.245 . S
C377 C383 1.428 . S
C378 C381 1.260 . S
C378 C382 1.477 . S
C378 H396 0.932 . S
C379 C380 1.384 . S
C379 C381 1.479 . S
C379 H397 0.929 . S
C380 C377 1.424 . S
C380 C379 1.384 . S
C380 H398 0.928 . S
C381 C378 1.260 . S
C381 C379 1.479 . S
C382 C377 1.245 . S
C382 C378 1.477 . S
C382 H399 0.932 . S
C383 U366 2.882 . S
C383 C377 1.428 . S
C383 O386 1.301 . S
C383 O387 1.282 . S
O384 U366 2.441 . S
O384 C370 1.249 . S
O385 U366 2.420 . S
O385 C370 1.202 . S
O386 U366 2.455 . S
O386 C383 1.301 . S
O387 U366 2.449 . S
O387 C383 1.282 . S
H388 C361 0.931 . S
H389 C363 0.929 . S
H390 C364 0.930 . S
H391 C365 0.931 . S
H392 C372 0.932 . S
H393 C373 0.930 . S
H394 C374 0.929 . S
H395 C376 0.930 . S
H396 C378 0.932 . S
H397 C379 0.929 . S
H398 C380 0.928 . S
H399 C382 0.932 . S
C400 C401 1.264 . S
C400 C405 1.479 . S
C400 C410 1.465 . S
C401 C400 1.264 . S
C401 C403 1.339 . S
C401 H428 0.931 . S
C402 C403 1.395 . S
C402 C404 1.320 . S
C403 C401 1.339 . S
C403 C402 1.395 . S
C403 H429 0.929 . S
C404 C402 1.320 . S
C404 C405 1.405 . S
C404 H430 0.930 . S
C405 C400 1.479 . S
C405 C404 1.405 . S
C405 H431 0.931 . S
U406 O407 2.454 . S
U406 O408 2.458 . S
U406 C409 2.984 . S
U406 C410 2.847 . S
U406 C423 2.882 . S
U406 O424 2.441 . S
U406 O425 2.420 . S
U406 O426 2.455 . S
U406 O427 2.449 . S
O407 U406 2.454 . S
O407 C409 1.353 . S
O408 U406 2.458 . S
O408 C409 1.286 . S
C409 U406 2.984 . S
C409 O407 1.353 . S
C409 O408 1.286 . S
C409 C411 1.363 . S
C410 C400 1.465 . S
C410 U406 2.847 . S
C410 O424 1.249 . S
C410 O425 1.202 . S
C411 C409 1.363 . S
C411 C413 1.408 . S
C411 C416 1.342 . S
C412 C413 1.310 . S
C412 C415 1.461 . S
C412 H432 0.932 . S
C413 C411 1.408 . S
C413 C412 1.310 . S
C413 H433 0.930 . S
C414 C415 1.474 . S
C414 C416 1.285 . S
C414 H434 0.929 . S
C415 C412 1.461 . S
C415 C414 1.474 . S
C416 C411 1.342 . S
C416 C414 1.285 . S
C416 H435 0.930 . S
C417 C420 1.424 . S
C417 C422 1.245 . S
C417 C423 1.428 . S
C418 C421 1.260 . S
C418 C422 1.477 . S
C418 H436 0.932 . S
C419 C420 1.384 . S
C419 C421 1.479 . S
C419 H437 0.929 . S
C420 C417 1.424 . S
C420 C419 1.384 . S
C420 H438 0.928 . S
C421 C418 1.260 . S
C421 C419 1.479 . S
C422 C417 1.245 . S
C422 C418 1.477 . S
C422 H439 0.932 . S
C423 U406 2.882 . S
C423 C417 1.428 . S
C423 O426 1.301 . S
C423 O427 1.282 . S
O424 U406 2.441 . S
O424 C410 1.249 . S
O425 U406 2.420 . S
O425 C410 1.202 . S
O426 U406 2.455 . S
O426 C423 1.301 . S
O427 U406 2.449 . S
O427 C423 1.282 . S
H428 C401 0.931 . S
H429 C403 0.929 . S
H430 C404 0.930 . S
H431 C405 0.931 . S
H432 C412 0.932 . S
H433 C413 0.930 . S
H434 C414 0.929 . S
H435 C416 0.930 . S
H436 C418 0.932 . S
H437 C419 0.929 . S
H438 C420 0.928 . S
H439 C422 0.932 . S
C440 C441 1.264 . S
C440 C445 1.479 . S
C440 C450 1.465 . S
C441 C440 1.264 . S
C441 C443 1.339 . S
C441 H468 0.931 . S
C442 C443 1.395 . S
C442 C444 1.320 . S
C443 C441 1.339 . S
C443 C442 1.395 . S
C443 H469 0.929 . S
C444 C442 1.320 . S
C444 C445 1.405 . S
C444 H470 0.930 . S
C445 C440 1.479 . S
C445 C444 1.405 . S
C445 H471 0.931 . S
U446 O447 2.454 . S
U446 O448 2.458 . S
U446 C449 2.984 . S
U446 C450 2.847 . S
U446 C463 2.882 . S
U446 O464 2.441 . S
U446 O465 2.420 . S
U446 O466 2.455 . S
U446 O467 2.449 . S
O447 U446 2.454 . S
O447 C449 1.353 . S
O448 U446 2.458 . S
O448 C449 1.286 . S
C449 U446 2.984 . S
C449 O447 1.353 . S
C449 O448 1.286 . S
C449 C451 1.363 . S
C450 C440 1.465 . S
C450 U446 2.847 . S
C450 O464 1.249 . S
C450 O465 1.202 . S
C451 C449 1.363 . S
C451 C453 1.408 . S
C451 C456 1.342 . S
C452 C453 1.310 . S
C452 C455 1.461 . S
C452 H472 0.932 . S
C453 C451 1.408 . S
C453 C452 1.310 . S
C453 H473 0.930 . S
C454 C455 1.474 . S
C454 C456 1.285 . S
C454 H474 0.929 . S
C455 C452 1.461 . S
C455 C454 1.474 . S
C456 C451 1.342 . S
C456 C454 1.285 . S
C456 H475 0.930 . S
C457 C460 1.424 . S
C457 C462 1.245 . S
C457 C463 1.428 . S
C458 C461 1.260 . S
C458 C462 1.477 . S
C458 H476 0.932 . S
C459 C460 1.384 . S
C459 C461 1.479 . S
C459 H477 0.929 . S
C460 C457 1.424 . S
C460 C459 1.384 . S
C460 H478 0.928 . S
C461 C458 1.260 . S
C461 C459 1.479 . S
C462 C457 1.245 . S
C462 C458 1.477 . S
C462 H479 0.932 . S
C463 U446 2.882 . S
C463 C457 1.428 . S
C463 O466 1.301 . S
C463 O467 1.282 . S
O464 U446 2.441 . S
O464 C450 1.249 . S
O465 U446 2.420 . S
O465 C450 1.202 . S
O466 U446 2.455 . S
O466 C463 1.301 . S
O467 U446 2.449 . S
O467 C463 1.282 . S
H468 C441 0.931 . S
H469 C443 0.929 . S
H470 C444 0.930 . S
H471 C445 0.931 . S
H472 C452 0.932 . S
H473 C453 0.930 . S
H474 C454 0.929 . S
H475 C456 0.930 . S
H476 C458 0.932 . S
H477 C459 0.929 . S
H478 C460 0.928 . S
H479 C462 0.932 . S
C480 C481 1.264 . S
C480 C485 1.479 . S
C480 C490 1.465 . S
C481 C480 1.264 . S
C481 C483 1.339 . S
C481 H508 0.931 . S
C482 C483 1.395 . S
C482 C484 1.320 . S
C483 C481 1.339 . S
C483 C482 1.395 . S
C483 H509 0.929 . S
C484 C482 1.320 . S
C484 C485 1.405 . S
C484 H510 0.930 . S
C485 C480 1.479 . S
C485 C484 1.405 . S
C485 H511 0.931 . S
U486 O487 2.454 . S
U486 O488 2.458 . S
U486 C489 2.984 . S
U486 C490 2.847 . S
U486 C503 2.882 . S
U486 O504 2.441 . S
U486 O505 2.420 . S
U486 O506 2.455 . S
U486 O507 2.449 . S
O487 U486 2.454 . S
O487 C489 1.353 . S
O488 U486 2.458 . S
O488 C489 1.286 . S
C489 U486 2.984 . S
C489 O487 1.353 . S
C489 O488 1.286 . S
C489 C491 1.363 . S
C490 C480 1.465 . S
C490 U486 2.847 . S
C490 O504 1.249 . S
C490 O505 1.202 . S
C491 C489 1.363 . S
C491 C493 1.408 . S
C491 C496 1.342 . S
C492 C493 1.310 . S
C492 C495 1.461 . S
C492 H512 0.932 . S
C493 C491 1.408 . S
C493 C492 1.310 . S
C493 H513 0.930 . S
C494 C495 1.474 . S
C494 C496 1.285 . S
C494 H514 0.929 . S
C495 C492 1.461 . S
C495 C494 1.474 . S
C496 C491 1.342 . S
C496 C494 1.285 . S
C496 H515 0.930 . S
C497 C500 1.424 . S
C497 C502 1.245 . S
C497 C503 1.428 . S
C498 C501 1.260 . S
C498 C502 1.477 . S
C498 H516 0.932 . S
C499 C500 1.384 . S
C499 C501 1.479 . S
C499 H517 0.929 . S
C500 C497 1.424 . S
C500 C499 1.384 . S
C500 H518 0.928 . S
C501 C498 1.260 . S
C501 C499 1.479 . S
C502 C497 1.245 . S
C502 C498 1.477 . S
C502 H519 0.932 . S
C503 U486 2.882 . S
C503 C497 1.428 . S
C503 O506 1.301 . S
C503 O507 1.282 . S
O504 U486 2.441 . S
O504 C490 1.249 . S
O505 U486 2.420 . S
O505 C490 1.202 . S
O506 U486 2.455 . S
O506 C503 1.301 . S
O507 U486 2.449 . S
O507 C503 1.282 . S
H508 C481 0.931 . S
H509 C483 0.929 . S
H510 C484 0.930 . S
H511 C485 0.931 . S
H512 C492 0.932 . S
H513 C493 0.930 . S
H514 C494 0.929 . S
H515 C496 0.930 . S
H516 C498 0.932 . S
H517 C499 0.929 . S
H518 C500 0.928 . S
H519 C502 0.932 . S
C520 C521 1.264 . S
C520 C525 1.479 . S
C520 C530 1.465 . S
C521 C520 1.264 . S
C521 C523 1.339 . S
C521 H548 0.931 . S
C522 C523 1.395 . S
C522 C524 1.320 . S
C523 C521 1.339 . S
C523 C522 1.395 . S
C523 H549 0.929 . S
C524 C522 1.320 . S
C524 C525 1.405 . S
C524 H550 0.930 . S
C525 C520 1.479 . S
C525 C524 1.405 . S
C525 H551 0.931 . S
U526 O527 2.454 . S
U526 O528 2.458 . S
U526 C529 2.984 . S
U526 C530 2.847 . S
U526 C543 2.882 . S
U526 O544 2.441 . S
U526 O545 2.420 . S
U526 O546 2.455 . S
U526 O547 2.449 . S
O527 U526 2.454 . S
O527 C529 1.353 . S
O528 U526 2.458 . S
O528 C529 1.286 . S
C529 U526 2.984 . S
C529 O527 1.353 . S
C529 O528 1.286 . S
C529 C531 1.363 . S
C530 C520 1.465 . S
C530 U526 2.847 . S
C530 O544 1.249 . S
C530 O545 1.202 . S
C531 C529 1.363 . S
C531 C533 1.408 . S
C531 C536 1.342 . S
C532 C533 1.310 . S
C532 C535 1.461 . S
C532 H552 0.932 . S
C533 C531 1.408 . S
C533 C532 1.310 . S
C533 H553 0.930 . S
C534 C535 1.474 . S
C534 C536 1.285 . S
C534 H554 0.929 . S
C535 C532 1.461 . S
C535 C534 1.474 . S
C536 C531 1.342 . S
C536 C534 1.285 . S
C536 H555 0.930 . S
C537 C540 1.424 . S
C537 C542 1.245 . S
C537 C543 1.428 . S
C538 C541 1.260 . S
C538 C542 1.477 . S
C538 H556 0.932 . S
C539 C540 1.384 . S
C539 C541 1.479 . S
C539 H557 0.929 . S
C540 C537 1.424 . S
C540 C539 1.384 . S
C540 H558 0.928 . S
C541 C538 1.260 . S
C541 C539 1.479 . S
C542 C537 1.245 . S
C542 C538 1.477 . S
C542 H559 0.932 . S
C543 U526 2.882 . S
C543 C537 1.428 . S
C543 O546 1.301 . S
C543 O547 1.282 . S
O544 U526 2.441 . S
O544 C530 1.249 . S
O545 U526 2.420 . S
O545 C530 1.202 . S
O546 U526 2.455 . S
O546 C543 1.301 . S
O547 U526 2.449 . S
O547 C543 1.282 . S
H548 C521 0.931 . S
H549 C523 0.929 . S
H550 C524 0.930 . S
H551 C525 0.931 . S
H552 C532 0.932 . S
H553 C533 0.930 . S
H554 C534 0.929 . S
H555 C536 0.930 . S
H556 C538 0.932 . S
H557 C539 0.929 . S
H558 C540 0.928 . S
H559 C542 0.932 . S
C560 C561 1.264 . S
C560 C565 1.479 . S
C560 C570 1.465 . S
C561 C560 1.264 . S
C561 C563 1.339 . S
C561 H588 0.931 . S
C562 C563 1.395 . S
C562 C564 1.320 . S
C563 C561 1.339 . S
C563 C562 1.395 . S
C563 H589 0.929 . S
C564 C562 1.320 . S
C564 C565 1.405 . S
C564 H590 0.930 . S
C565 C560 1.479 . S
C565 C564 1.405 . S
C565 H591 0.931 . S
U566 O567 2.454 . S
U566 O568 2.458 . S
U566 C569 2.984 . S
U566 C570 2.847 . S
U566 C583 2.882 . S
U566 O584 2.441 . S
U566 O585 2.420 . S
U566 O586 2.455 . S
U566 O587 2.449 . S
O567 U566 2.454 . S
O567 C569 1.353 . S
O568 U566 2.458 . S
O568 C569 1.286 . S
C569 U566 2.984 . S
C569 O567 1.353 . S
C569 O568 1.286 . S
C569 C571 1.363 . S
C570 C560 1.465 . S
C570 U566 2.847 . S
C570 O584 1.249 . S
C570 O585 1.202 . S
C571 C569 1.363 . S
C571 C573 1.408 . S
C571 C576 1.342 . S
C572 C573 1.310 . S
C572 C575 1.461 . S
C572 H592 0.932 . S
C573 C571 1.408 . S
C573 C572 1.310 . S
C573 H593 0.930 . S
C574 C575 1.474 . S
C574 C576 1.285 . S
C574 H594 0.929 . S
C575 C572 1.461 . S
C575 C574 1.474 . S
C576 C571 1.342 . S
C576 C574 1.285 . S
C576 H595 0.930 . S
C577 C580 1.424 . S
C577 C582 1.245 . S
C577 C583 1.428 . S
C578 C581 1.260 . S
C578 C582 1.477 . S
C578 H596 0.932 . S
C579 C580 1.384 . S
C579 C581 1.479 . S
C579 H597 0.929 . S
C580 C577 1.424 . S
C580 C579 1.384 . S
C580 H598 0.928 . S
C581 C578 1.260 . S
C581 C579 1.479 . S
C582 C577 1.245 . S
C582 C578 1.477 . S
C582 H599 0.932 . S
C583 U566 2.882 . S
C583 C577 1.428 . S
C583 O586 1.301 . S
C583 O587 1.282 . S
O584 U566 2.441 . S
O584 C570 1.249 . S
O585 U566 2.420 . S
O585 C570 1.202 . S
O586 U566 2.455 . S
O586 C583 1.301 . S
O587 U566 2.449 . S
O587 C583 1.282 . S
H588 C561 0.931 . S
H589 C563 0.929 . S
H590 C564 0.930 . S
H591 C565 0.931 . S
H592 C572 0.932 . S
H593 C573 0.930 . S
H594 C574 0.929 . S
H595 C576 0.930 . S
H596 C578 0.932 . S
H597 C579 0.929 . S
H598 C580 0.928 . S
H599 C582 0.932 . S
C600 C601 1.264 . S
C600 C605 1.479 . S
C600 C610 1.465 . S
C601 C600 1.264 . S
C601 C603 1.339 . S
C601 H628 0.931 . S
C602 C603 1.395 . S
C602 C604 1.320 . S
C603 C601 1.339 . S
C603 C602 1.395 . S
C603 H629 0.929 . S
C604 C602 1.320 . S
C604 C605 1.405 . S
C604 H630 0.930 . S
C605 C600 1.479 . S
C605 C604 1.405 . S
C605 H631 0.931 . S
U606 O607 2.454 . S
U606 O608 2.458 . S
U606 C609 2.984 . S
U606 C610 2.847 . S
U606 C623 2.882 . S
U606 O624 2.441 . S
U606 O625 2.420 . S
U606 O626 2.455 . S
U606 O627 2.449 . S
O607 U606 2.454 . S
O607 C609 1.353 . S
O608 U606 2.458 . S
O608 C609 1.286 . S
C609 U606 2.984 . S
C609 O607 1.353 . S
C609 O608 1.286 . S
C609 C611 1.363 . S
C610 C600 1.465 . S
C610 U606 2.847 . S
C610 O624 1.249 . S
C610 O625 1.202 . S
C611 C609 1.363 . S
C611 C613 1.408 . S
C611 C616 1.342 . S
C612 C613 1.310 . S
C612 C615 1.461 . S
C612 H632 0.932 . S
C613 C611 1.408 . S
C613 C612 1.310 . S
C613 H633 0.930 . S
C614 C615 1.474 . S
C614 C616 1.285 . S
C614 H634 0.929 . S
C615 C612 1.461 . S
C615 C614 1.474 . S
C616 C611 1.342 . S
C616 C614 1.285 . S
C616 H635 0.930 . S
C617 C620 1.424 . S
C617 C622 1.245 . S
C617 C623 1.428 . S
C618 C621 1.260 . S
C618 C622 1.477 . S
C618 H636 0.932 . S
C619 C620 1.384 . S
C619 C621 1.479 . S
C619 H637 0.929 . S
C620 C617 1.424 . S
C620 C619 1.384 . S
C620 H638 0.928 . S
C621 C618 1.260 . S
C621 C619 1.479 . S
C622 C617 1.245 . S
C622 C618 1.477 . S
C622 H639 0.932 . S
C623 U606 2.882 . S
C623 C617 1.428 . S
C623 O626 1.301 . S
C623 O627 1.282 . S
O624 U606 2.441 . S
O624 C610 1.249 . S
O625 U606 2.420 . S
O625 C610 1.202 . S
O626 U606 2.455 . S
O626 C623 1.301 . S
O627 U606 2.449 . S
O627 C623 1.282 . S
H628 C601 0.931 . S
H629 C603 0.929 . S
H630 C604 0.930 . S
H631 C605 0.931 . S
H632 C612 0.932 . S
H633 C613 0.930 . S
H634 C614 0.929 . S
H635 C616 0.930 . S
H636 C618 0.932 . S
H637 C619 0.929 . S
H638 C620 0.928 . S
H639 C622 0.932 . S
C640 C641 1.264 . S
C640 C645 1.479 . S
C640 C650 1.465 . S
C641 C640 1.264 . S
C641 C643 1.339 . S
C641 H668 0.931 . S
C642 C643 1.395 . S
C642 C644 1.320 . S
C643 C641 1.339 . S
C643 C642 1.395 . S
C643 H669 0.929 . S
C644 C642 1.320 . S
C644 C645 1.405 . S
C644 H670 0.930 . S
C645 C640 1.479 . S
C645 C644 1.405 . S
C645 H671 0.931 . S
U646 O647 2.454 . S
U646 O648 2.458 . S
U646 C649 2.984 . S
U646 C650 2.847 . S
U646 C663 2.882 . S
U646 O664 2.441 . S
U646 O665 2.420 . S
U646 O666 2.455 . S
U646 O667 2.449 . S
O647 U646 2.454 . S
O647 C649 1.353 . S
O648 U646 2.458 . S
O648 C649 1.286 . S
C649 U646 2.984 . S
C649 O647 1.353 . S
C649 O648 1.286 . S
C649 C651 1.363 . S
C650 C640 1.465 . S
C650 U646 2.847 . S
C650 O664 1.249 . S
C650 O665 1.202 . S
C651 C649 1.363 . S
C651 C653 1.408 . S
C651 C656 1.342 . S
C652 C653 1.310 . S
C652 C655 1.461 . S
C652 H672 0.932 . S
C653 C651 1.408 . S
C653 C652 1.310 . S
C653 H673 0.930 . S
C654 C655 1.474 . S
C654 C656 1.285 . S
C654 H674 0.929 . S
C655 C652 1.461 . S
C655 C654 1.474 . S
C656 C651 1.342 . S
C656 C654 1.285 . S
C656 H675 0.930 . S
C657 C660 1.424 . S
C657 C662 1.245 . S
C657 C663 1.428 . S
C658 C661 1.260 . S
C658 C662 1.477 . S
C658 H676 0.932 . S
C659 C660 1.384 . S
C659 C661 1.479 . S
C659 H677 0.929 . S
C660 C657 1.424 . S
C660 C659 1.384 . S
C660 H678 0.928 . S
C661 C658 1.260 . S
C661 C659 1.479 . S
C662 C657 1.245 . S
C662 C658 1.477 . S
C662 H679 0.932 . S
C663 U646 2.882 . S
C663 C657 1.428 . S
C663 O666 1.301 . S
C663 O667 1.282 . S
O664 U646 2.441 . S
O664 C650 1.249 . S
O665 U646 2.420 . S
O665 C650 1.202 . S
O666 U646 2.455 . S
O666 C663 1.301 . S
O667 U646 2.449 . S
O667 C663 1.282 . S
H668 C641 0.931 . S
H669 C643 0.929 . S
H670 C644 0.930 . S
H671 C645 0.931 . S
H672 C652 0.932 . S
H673 C653 0.930 . S
H674 C654 0.929 . S
H675 C656 0.930 . S
H676 C658 0.932 . S
H677 C659 0.929 . S
H678 C660 0.928 . S
H679 C662 0.932 . S
C680 C681 1.264 . S
C680 C685 1.479 . S
C680 C690 1.465 . S
C681 C680 1.264 . S
C681 C683 1.339 . S
C681 H708 0.931 . S
C682 C683 1.395 . S
C682 C684 1.320 . S
C683 C681 1.339 . S
C683 C682 1.395 . S
C683 H709 0.929 . S
C684 C682 1.320 . S
C684 C685 1.405 . S
C684 H710 0.930 . S
C685 C680 1.479 . S
C685 C684 1.405 . S
C685 H711 0.931 . S
U686 O687 2.454 . S
U686 O688 2.458 . S
U686 C689 2.984 . S
U686 C690 2.847 . S
U686 C703 2.882 . S
U686 O704 2.441 . S
U686 O705 2.420 . S
U686 O706 2.455 . S
U686 O707 2.449 . S
O687 U686 2.454 . S
O687 C689 1.353 . S
O688 U686 2.458 . S
O688 C689 1.286 . S
C689 U686 2.984 . S
C689 O687 1.353 . S
C689 O688 1.286 . S
C689 C691 1.363 . S
C690 C680 1.465 . S
C690 U686 2.847 . S
C690 O704 1.249 . S
C690 O705 1.202 . S
C691 C689 1.363 . S
C691 C693 1.408 . S
C691 C696 1.342 . S
C692 C693 1.310 . S
C692 C695 1.461 . S
C692 H712 0.932 . S
C693 C691 1.408 . S
C693 C692 1.310 . S
C693 H713 0.930 . S
C694 C695 1.474 . S
C694 C696 1.285 . S
C694 H714 0.929 . S
C695 C692 1.461 . S
C695 C694 1.474 . S
C696 C691 1.342 . S
C696 C694 1.285 . S
C696 H715 0.930 . S
C697 C700 1.424 . S
C697 C702 1.245 . S
C697 C703 1.428 . S
C698 C701 1.260 . S
C698 C702 1.477 . S
C698 H716 0.932 . S
C699 C700 1.384 . S
C699 C701 1.479 . S
C699 H717 0.929 . S
C700 C697 1.424 . S
C700 C699 1.384 . S
C700 H718 0.928 . S
C701 C698 1.260 . S
C701 C699 1.479 . S
C702 C697 1.245 . S
C702 C698 1.477 . S
C702 H719 0.932 . S
C703 U686 2.882 . S
C703 C697 1.428 . S
C703 O706 1.301 . S
C703 O707 1.282 . S
O704 U686 2.441 . S
O704 C690 1.249 . S
O705 U686 2.420 . S
O705 C690 1.202 . S
O706 U686 2.455 . S
O706 C703 1.301 . S
O707 U686 2.449 . S
O707 C703 1.282 . S
H708 C681 0.931 . S
H709 C683 0.929 . S
H710 C684 0.930 . S
H711 C685 0.931 . S
H712 C692 0.932 . S
H713 C693 0.930 . S
H714 C694 0.929 . S
H715 C696 0.930 . S
H716 C698 0.932 . S
H717 C699 0.929 . S
H718 C700 0.928 . S
H719 C702 0.932 . S
C720 C721 1.264 . S
C720 C725 1.479 . S
C720 C730 1.465 . S
C721 C720 1.264 . S
C721 C723 1.339 . S
C721 H748 0.931 . S
C722 C723 1.395 . S
C722 C724 1.320 . S
C723 C721 1.339 . S
C723 C722 1.395 . S
C723 H749 0.929 . S
C724 C722 1.320 . S
C724 C725 1.405 . S
C724 H750 0.930 . S
C725 C720 1.479 . S
C725 C724 1.405 . S
C725 H751 0.931 . S
U726 O727 2.454 . S
U726 O728 2.458 . S
U726 C729 2.984 . S
U726 C730 2.847 . S
U726 C743 2.882 . S
U726 O744 2.441 . S
U726 O745 2.420 . S
U726 O746 2.455 . S
U726 O747 2.449 . S
O727 U726 2.454 . S
O727 C729 1.353 . S
O728 U726 2.458 . S
O728 C729 1.286 . S
C729 U726 2.984 . S
C729 O727 1.353 . S
C729 O728 1.286 . S
C729 C731 1.363 . S
C730 C720 1.465 . S
C730 U726 2.847 . S
C730 O744 1.249 . S
C730 O745 1.202 . S
C731 C729 1.363 . S
C731 C733 1.408 . S
C731 C736 1.342 . S
C732 C733 1.310 . S
C732 C735 1.461 . S
C732 H752 0.932 . S
C733 C731 1.408 . S
C733 C732 1.310 . S
C733 H753 0.930 . S
C734 C735 1.474 . S
C734 C736 1.285 . S
C734 H754 0.929 . S
C735 C732 1.461 . S
C735 C734 1.474 . S
C736 C731 1.342 . S
C736 C734 1.285 . S
C736 H755 0.930 . S
C737 C740 1.424 . S
C737 C742 1.245 . S
C737 C743 1.428 . S
C738 C741 1.260 . S
C738 C742 1.477 . S
C738 H756 0.932 . S
C739 C740 1.384 . S
C739 C741 1.479 . S
C739 H757 0.929 . S
C740 C737 1.424 . S
C740 C739 1.384 . S
C740 H758 0.928 . S
C741 C738 1.260 . S
C741 C739 1.479 . S
C742 C737 1.245 . S
C742 C738 1.477 . S
C742 H759 0.932 . S
C743 U726 2.882 . S
C743 C737 1.428 . S
C743 O746 1.301 . S
C743 O747 1.282 . S
O744 U726 2.441 . S
O744 C730 1.249 . S
O745 U726 2.420 . S
O745 C730 1.202 . S
O746 U726 2.455 . S
O746 C743 1.301 . S
O747 U726 2.449 . S
O747 C743 1.282 . S
H748 C721 0.931 . S
H749 C723 0.929 . S
H750 C724 0.930 . S
H751 C725 0.931 . S
H752 C732 0.932 . S
H753 C733 0.930 . S
H754 C734 0.929 . S
H755 C736 0.930 . S
H756 C738 0.932 . S
H757 C739 0.929 . S
H758 C740 0.928 . S
H759 C742 0.932 . S
C760 C761 1.264 . S
C760 C765 1.479 . S
C760 C770 1.465 . S
C761 C760 1.264 . S
C761 C763 1.339 . S
C761 H788 0.931 . S
C762 C763 1.395 . S
C762 C764 1.320 . S
C763 C761 1.339 . S
C763 C762 1.395 . S
C763 H789 0.929 . S
C764 C762 1.320 . S
C764 C765 1.405 . S
C764 H790 0.930 . S
C765 C760 1.479 . S
C765 C764 1.405 . S
C765 H791 0.931 . S
U766 O767 2.454 . S
U766 O768 2.458 . S
U766 C769 2.984 . S
U766 C770 2.847 . S
U766 C783 2.882 . S
U766 O784 2.441 . S
U766 O785 2.420 . S
U766 O786 2.455 . S
U766 O787 2.449 . S
O767 U766 2.454 . S
O767 C769 1.353 . S
O768 U766 2.458 . S
O768 C769 1.286 . S
C769 U766 2.984 . S
C769 O767 1.353 . S
C769 O768 1.286 . S
C769 C771 1.363 . S
C770 C760 1.465 . S
C770 U766 2.847 . S
C770 O784 1.249 . S
C770 O785 1.202 . S
C771 C769 1.363 . S
C771 C773 1.408 . S
C771 C776 1.342 . S
C772 C773 1.310 . S
C772 C775 1.461 . S
C772 H792 0.932 . S
C773 C771 1.408 . S
C773 C772 1.310 . S
C773 H793 0.930 . S
C774 C775 1.474 . S
C774 C776 1.285 . S
C774 H794 0.929 . S
C775 C772 1.461 . S
C775 C774 1.474 . S
C776 C771 1.342 . S
C776 C774 1.285 . S
C776 H795 0.930 . S
C777 C780 1.424 . S
C777 C782 1.245 . S
C777 C783 1.428 . S
C778 C781 1.260 . S
C778 C782 1.477 . S
C778 H796 0.932 . S
C779 C780 1.384 . S
C779 C781 1.479 . S
C779 H797 0.929 . S
C780 C777 1.424 . S
C780 C779 1.384 . S
C780 H798 0.928 . S
C781 C778 1.260 . S
C781 C779 1.479 . S
C782 C777 1.245 . S
C782 C778 1.477 . S
C782 H799 0.932 . S
C783 U766 2.882 . S
C783 C777 1.428 . S
C783 O786 1.301 . S
C783 O787 1.282 . S
O784 U766 2.441 . S
O784 C770 1.249 . S
O785 U766 2.420 . S
O785 C770 1.202 . S
O786 U766 2.455 . S
O786 C783 1.301 . S
O787 U766 2.449 . S
O787 C783 1.282 . S
H788 C761 0.931 . S
H789 C763 0.929 . S
H790 C764 0.930 . S
H791 C765 0.931 . S
H792 C772 0.932 . S
H793 C773 0.930 . S
H794 C774 0.929 . S
H795 C776 0.930 . S
H796 C778 0.932 . S
H797 C779 0.929 . S
H798 C780 0.928 . S
H799 C782 0.932 . S
C800 C801 1.264 . S
C800 C805 1.479 . S
C800 C810 1.465 . S
C801 C800 1.264 . S
C801 C803 1.339 . S
C801 H828 0.931 . S
C802 C803 1.395 . S
C802 C804 1.320 . S
C803 C801 1.339 . S
C803 C802 1.395 . S
C803 H829 0.929 . S
C804 C802 1.320 . S
C804 C805 1.405 . S
C804 H830 0.930 . S
C805 C800 1.479 . S
C805 C804 1.405 . S
C805 H831 0.931 . S
U806 O807 2.454 . S
U806 O808 2.458 . S
U806 C809 2.984 . S
U806 C810 2.847 . S
U806 C823 2.882 . S
U806 O824 2.441 . S
U806 O825 2.420 . S
U806 O826 2.455 . S
U806 O827 2.449 . S
O807 U806 2.454 . S
O807 C809 1.353 . S
O808 U806 2.458 . S
O808 C809 1.286 . S
C809 U806 2.984 . S
C809 O807 1.353 . S
C809 O808 1.286 . S
C809 C811 1.363 . S
C810 C800 1.465 . S
C810 U806 2.847 . S
C810 O824 1.249 . S
C810 O825 1.202 . S
C811 C809 1.363 . S
C811 C813 1.408 . S
C811 C816 1.342 . S
C812 C813 1.310 . S
C812 C815 1.461 . S
C812 H832 0.932 . S
C813 C811 1.408 . S
C813 C812 1.310 . S
C813 H833 0.930 . S
C814 C815 1.474 . S
C814 C816 1.285 . S
C814 H834 0.929 . S
C815 C812 1.461 . S
C815 C814 1.474 . S
C816 C811 1.342 . S
C816 C814 1.285 . S
C816 H835 0.930 . S
C817 C820 1.424 . S
C817 C822 1.245 . S
C817 C823 1.428 . S
C818 C821 1.260 . S
C818 C822 1.477 . S
C818 H836 0.932 . S
C819 C820 1.384 . S
C819 C821 1.479 . S
C819 H837 0.929 . S
C820 C817 1.424 . S
C820 C819 1.384 . S
C820 H838 0.928 . S
C821 C818 1.260 . S
C821 C819 1.479 . S
C822 C817 1.245 . S
C822 C818 1.477 . S
C822 H839 0.932 . S
C823 U806 2.882 . S
C823 C817 1.428 . S
C823 O826 1.301 . S
C823 O827 1.282 . S
O824 U806 2.441 . S
O824 C810 1.249 . S
O825 U806 2.420 . S
O825 C810 1.202 . S
O826 U806 2.455 . S
O826 C823 1.301 . S
O827 U806 2.449 . S
O827 C823 1.282 . S
H828 C801 0.931 . S
H829 C803 0.929 . S
H830 C804 0.930 . S
H831 C805 0.931 . S
H832 C812 0.932 . S
H833 C813 0.930 . S
H834 C814 0.929 . S
H835 C816 0.930 . S
H836 C818 0.932 . S
H837 C819 0.929 . S
H838 C820 0.928 . S
H839 C822 0.932 . S
C840 C841 1.264 . S
C840 C845 1.479 . S
C840 C850 1.465 . S
C841 C840 1.264 . S
C841 C843 1.339 . S
C841 H868 0.931 . S
C842 C843 1.395 . S
C842 C844 1.320 . S
C843 C841 1.339 . S
C843 C842 1.395 . S
C843 H869 0.929 . S
C844 C842 1.320 . S
C844 C845 1.405 . S
C844 H870 0.930 . S
C845 C840 1.479 . S
C845 C844 1.405 . S
C845 H871 0.931 . S
U846 O847 2.454 . S
U846 O848 2.458 . S
U846 C849 2.984 . S
U846 C850 2.847 . S
U846 C863 2.882 . S
U846 O864 2.441 . S
U846 O865 2.420 . S
U846 O866 2.455 . S
U846 O867 2.449 . S
O847 U846 2.454 . S
O847 C849 1.353 . S
O848 U846 2.458 . S
O848 C849 1.286 . S
C849 U846 2.984 . S
C849 O847 1.353 . S
C849 O848 1.286 . S
C849 C851 1.363 . S
C850 C840 1.465 . S
C850 U846 2.847 . S
C850 O864 1.249 . S
C850 O865 1.202 . S
C851 C849 1.363 . S
C851 C853 1.408 . S
C851 C856 1.342 . S
C852 C853 1.310 . S
C852 C855 1.461 . S
C852 H872 0.932 . S
C853 C851 1.408 . S
C853 C852 1.310 . S
C853 H873 0.930 . S
C854 C855 1.474 . S
C854 C856 1.285 . S
C854 H874 0.929 . S
C855 C852 1.461 . S
C855 C854 1.474 . S
C856 C851 1.342 . S
C856 C854 1.285 . S
C856 H875 0.930 . S
C857 C860 1.424 . S
C857 C862 1.245 . S
C857 C863 1.428 . S
C858 C861 1.260 . S
C858 C862 1.477 . S
C858 H876 0.932 . S
C859 C860 1.384 . S
C859 C861 1.479 . S
C859 H877 0.929 . S
C860 C857 1.424 . S
C860 C859 1.384 . S
C860 H878 0.928 . S
C861 C858 1.260 . S
C861 C859 1.479 . S
C862 C857 1.245 . S
C862 C858 1.477 . S
C862 H879 0.932 . S
C863 U846 2.882 . S
C863 C857 1.428 . S
C863 O866 1.301 . S
C863 O867 1.282 . S
O864 U846 2.441 . S
O864 C850 1.249 . S
O865 U846 2.420 . S
O865 C850 1.202 . S
O866 U846 2.455 . S
O866 C863 1.301 . S
O867 U846 2.449 . S
O867 C863 1.282 . S
H868 C841 0.931 . S
H869 C843 0.929 . S
H870 C844 0.930 . S
H871 C845 0.931 . S
H872 C852 0.932 . S
H873 C853 0.930 . S
H874 C854 0.929 . S
H875 C856 0.930 . S
H876 C858 0.932 . S
H877 C859 0.929 . S
H878 C860 0.928 . S
H879 C862 0.932 . S
C880 C881 1.264 . S
C880 C885 1.479 . S
C880 C890 1.465 . S
C881 C880 1.264 . S
C881 C883 1.339 . S
C881 H908 0.931 . S
C882 C883 1.395 . S
C882 C884 1.320 . S
C883 C881 1.339 . S
C883 C882 1.395 . S
C883 H909 0.929 . S
C884 C882 1.320 . S
C884 C885 1.405 . S
C884 H910 0.930 . S
C885 C880 1.479 . S
C885 C884 1.405 . S
C885 H911 0.931 . S
U886 O887 2.454 . S
U886 O888 2.458 . S
U886 C889 2.984 . S
U886 C890 2.847 . S
U886 C903 2.882 . S
U886 O904 2.441 . S
U886 O905 2.420 . S
U886 O906 2.455 . S
U886 O907 2.449 . S
O887 U886 2.454 . S
O887 C889 1.353 . S
O888 U886 2.458 . S
O888 C889 1.286 . S
C889 U886 2.984 . S
C889 O887 1.353 . S
C889 O888 1.286 . S
C889 C891 1.363 . S
C890 C880 1.465 . S
C890 U886 2.847 . S
C890 O904 1.249 . S
C890 O905 1.202 . S
C891 C889 1.363 . S
C891 C893 1.408 . S
C891 C896 1.342 . S
C892 C893 1.310 . S
C892 C895 1.461 . S
C892 H912 0.932 . S
C893 C891 1.408 . S
C893 C892 1.310 . S
C893 H913 0.930 . S
C894 C895 1.474 . S
C894 C896 1.285 . S
C894 H914 0.929 . S
C895 C892 1.461 . S
C895 C894 1.474 . S
C896 C891 1.342 . S
C896 C894 1.285 . S
C896 H915 0.930 . S
C897 C900 1.424 . S
C897 C902 1.245 . S
C897 C903 1.428 . S
C898 C901 1.260 . S
C898 C902 1.477 . S
C898 H916 0.932 . S
C899 C900 1.384 . S
C899 C901 1.479 . S
C899 H917 0.929 . S
C900 C897 1.424 . S
C900 C899 1.384 . S
C900 H918 0.928 . S
C901 C898 1.260 . S
C901 C899 1.479 . S
C902 C897 1.245 . S
C902 C898 1.477 . S
C902 H919 0.932 . S
C903 U886 2.882 . S
C903 C897 1.428 . S
C903 O906 1.301 . S
C903 O907 1.282 . S
O904 U886 2.441 . S
O904 C890 1.249 . S
O905 U886 2.420 . S
O905 C890 1.202 . S
O906 U886 2.455 . S
O906 C903 1.301 . S
O907 U886 2.449 . S
O907 C903 1.282 . S
H908 C881 0.931 . S
H909 C883 0.929 . S
H910 C884 0.930 . S
H911 C885 0.931 . S
H912 C892 0.932 . S
H913 C893 0.930 . S
H914 C894 0.929 . S
H915 C896 0.930 . S
H916 C898 0.932 . S
H917 C899 0.929 . S
H918 C900 0.928 . S
H919 C902 0.932 . S
C920 C921 1.264 . S
C920 C925 1.479 . S
C920 C930 1.465 . S
C921 C920 1.264 . S
C921 C923 1.339 . S
C921 H948 0.931 . S
C922 C923 1.395 . S
C922 C924 1.320 . S
C923 C921 1.339 . S
C923 C922 1.395 . S
C923 H949 0.929 . S
C924 C922 1.320 . S
C924 C925 1.405 . S
C924 H950 0.930 . S
C925 C920 1.479 . S
C925 C924 1.405 . S
C925 H951 0.931 . S
U926 O927 2.454 . S
U926 O928 2.458 . S
U926 C929 2.984 . S
U926 C930 2.847 . S
U926 C943 2.882 . S
U926 O944 2.441 . S
U926 O945 2.420 . S
U926 O946 2.455 . S
U926 O947 2.449 . S
O927 U926 2.454 . S
O927 C929 1.353 . S
O928 U926 2.458 . S
O928 C929 1.286 . S
C929 U926 2.984 . S
C929 O927 1.353 . S
C929 O928 1.286 . S
C929 C931 1.363 . S
C930 C920 1.465 . S
C930 U926 2.847 . S
C930 O944 1.249 . S
C930 O945 1.202 . S
C931 C929 1.363 . S
C931 C933 1.408 . S
C931 C936 1.342 . S
C932 C933 1.310 . S
C932 C935 1.461 . S
C932 H952 0.932 . S
C933 C931 1.408 . S
C933 C932 1.310 . S
C933 H953 0.930 . S
C934 C935 1.474 . S
C934 C936 1.285 . S
C934 H954 0.929 . S
C935 C932 1.461 . S
C935 C934 1.474 . S
C936 C931 1.342 . S
C936 C934 1.285 . S
C936 H955 0.930 . S
C937 C940 1.424 . S
C937 C942 1.245 . S
C937 C943 1.428 . S
C938 C941 1.260 . S
C938 C942 1.477 . S
C938 H956 0.932 . S
C939 C940 1.384 . S
C939 C941 1.479 . S
C939 H957 0.929 . S
C940 C937 1.424 . S
C940 C939 1.384 . S
C940 H958 0.928 . S
C941 C938 1.260 . S
C941 C939 1.479 . S
C942 C937 1.245 . S
C942 C938 1.477 . S
C942 H959 0.932 . S
C943 U926 2.882 . S
C943 C937 1.428 . S
C943 O946 1.301 . S
C943 O947 1.282 . S
O944 U926 2.441 . S
O944 C930 1.249 . S
O945 U926 2.420 . S
O945 C930 1.202 . S
O946 U926 2.455 . S
O946 C943 1.301 . S
O947 U926 2.449 . S
O947 C943 1.282 . S
H948 C921 0.931 . S
H949 C923 0.929 . S
H950 C924 0.930 . S
H951 C925 0.931 . S
H952 C932 0.932 . S
H953 C933 0.930 . S
H954 C934 0.929 . S
H955 C936 0.930 . S
H956 C938 0.932 . S
H957 C939 0.929 . S
H958 C940 0.928 . S
H959 C942 0.932 . S
C960 C961 1.264 . S
C960 C965 1.479 . S
C960 C970 1.465 . S
C961 C960 1.264 . S
C961 C963 1.339 . S
C961 H988 0.931 . S
C962 C963 1.395 . S
C962 C964 1.320 . S
C963 C961 1.339 . S
C963 C962 1.395 . S
C963 H989 0.929 . S
C964 C962 1.320 . S
C964 C965 1.405 . S
C964 H990 0.930 . S
C965 C960 1.479 . S
C965 C964 1.405 . S
C965 H991 0.931 . S
U966 O967 2.454 . S
U966 O968 2.458 . S
U966 C969 2.984 . S
U966 C970 2.847 . S
U966 C983 2.882 . S
U966 O984 2.441 . S
U966 O985 2.420 . S
U966 O986 2.455 . S
U966 O987 2.449 . S
O967 U966 2.454 . S
O967 C969 1.353 . S
O968 U966 2.458 . S
O968 C969 1.286 . S
C969 U966 2.984 . S
C969 O967 1.353 . S
C969 O968 1.286 . S
C969 C971 1.363 . S
C970 C960 1.465 . S
C970 U966 2.847 . S
C970 O984 1.249 . S
C970 O985 1.202 . S
C971 C969 1.363 . S
C971 C973 1.408 . S
C971 C976 1.342 . S
C972 C973 1.310 . S
C972 C975 1.461 . S
C972 H992 0.932 . S
C973 C971 1.408 . S
C973 C972 1.310 . S
C973 H993 0.930 . S
C974 C975 1.474 . S
C974 C976 1.285 . S
C974 H994 0.929 . S
C975 C972 1.461 . S
C975 C974 1.474 . S
C976 C971 1.342 . S
C976 C974 1.285 . S
C976 H995 0.930 . S
C977 C980 1.424 . S
C977 C982 1.245 . S
C977 C983 1.428 . S
C978 C981 1.260 . S
C978 C982 1.477 . S
C978 H996 0.932 . S
C979 C980 1.384 . S
C979 C981 1.479 . S
C979 H997 0.929 . S
C980 C977 1.424 . S
C980 C979 1.384 . S
C980 H998 0.928 . S
C981 C978 1.260 . S
C981 C979 1.479 . S
C982 C977 1.245 . S
C982 C978 1.477 . S
C982 H999 0.932 . S
C983 U966 2.882 . S
C983 C977 1.428 . S
C983 O986 1.301 . S
C983 O987 1.282 . S
O984 U966 2.441 . S
O984 C970 1.249 . S
O985 U966 2.420 . S
O985 C970 1.202 . S
O986 U966 2.455 . S
O986 C983 1.301 . S
O987 U966 2.449 . S
O987 C983 1.282 . S
H988 C961 0.931 . S
H989 C963 0.929 . S
H990 C964 0.930 . S
H991 C965 0.931 . S
H992 C972 0.932 . S
H993 C973 0.930 . S
H994 C974 0.929 . S
H995 C976 0.930 . S
H996 C978 0.932 . S
H997 C979 0.929 . S
H998 C980 0.928 . S
H999 C982 0.932 . S
C1000 C1001 1.264 . S
C1000 C1005 1.479 . S
C1000 C1010 1.465 . S
C1001 C1000 1.264 . S
C1001 C1003 1.339 . S
C1001 H1028 0.931 . S
C1002 C1003 1.395 . S
C1002 C1004 1.320 . S
C1003 C1001 1.339 . S
C1003 C1002 1.395 . S
C1003 H1029 0.929 . S
C1004 C1002 1.320 . S
C1004 C1005 1.405 . S
C1004 H1030 0.930 . S
C1005 C1000 1.479 . S
C1005 C1004 1.405 . S
C1005 H1031 0.931 . S
U1006 O1007 2.454 . S
U1006 O1008 2.458 . S
U1006 C1009 2.984 . S
U1006 C1010 2.847 . S
U1006 C1023 2.882 . S
U1006 O1024 2.441 . S
U1006 O1025 2.420 . S
U1006 O1026 2.455 . S
U1006 O1027 2.449 . S
O1007 U1006 2.454 . S
O1007 C1009 1.353 . S
O1008 U1006 2.458 . S
O1008 C1009 1.286 . S
C1009 U1006 2.984 . S
C1009 O1007 1.353 . S
C1009 O1008 1.286 . S
C1009 C1011 1.363 . S
C1010 C1000 1.465 . S
C1010 U1006 2.847 . S
C1010 O1024 1.249 . S
C1010 O1025 1.202 . S
C1011 C1009 1.363 . S
C1011 C1013 1.408 . S
C1011 C1016 1.342 . S
C1012 C1013 1.310 . S
C1012 C1015 1.461 . S
C1012 H1032 0.932 . S
C1013 C1011 1.408 . S
C1013 C1012 1.310 . S
C1013 H1033 0.930 . S
C1014 C1015 1.474 . S
C1014 C1016 1.285 . S
C1014 H1034 0.929 . S
C1015 C1012 1.461 . S
C1015 C1014 1.474 . S
C1016 C1011 1.342 . S
C1016 C1014 1.285 . S
C1016 H1035 0.930 . S
C1017 C1020 1.424 . S
C1017 C1022 1.245 . S
C1017 C1023 1.428 . S
C1018 C1021 1.260 . S
C1018 C1022 1.477 . S
C1018 H1036 0.932 . S
C1019 C1020 1.384 . S
C1019 C1021 1.479 . S
C1019 H1037 0.929 . S
C1020 C1017 1.424 . S
C1020 C1019 1.384 . S
C1020 H1038 0.928 . S
C1021 C1018 1.260 . S
C1021 C1019 1.479 . S
C1022 C1017 1.245 . S
C1022 C1018 1.477 . S
C1022 H1039 0.932 . S
C1023 U1006 2.882 . S
C1023 C1017 1.428 . S
C1023 O1026 1.301 . S
C1023 O1027 1.282 . S
O1024 U1006 2.441 . S
O1024 C1010 1.249 . S
O1025 U1006 2.420 . S
O1025 C1010 1.202 . S
O1026 U1006 2.455 . S
O1026 C1023 1.301 . S
O1027 U1006 2.449 . S
O1027 C1023 1.282 . S
H1028 C1001 0.931 . S
H1029 C1003 0.929 . S
H1030 C1004 0.930 . S
H1031 C1005 0.931 . S
H1032 C1012 0.932 . S
H1033 C1013 0.930 . S
H1034 C1014 0.929 . S
H1035 C1016 0.930 . S
H1036 C1018 0.932 . S
H1037 C1019 0.929 . S
H1038 C1020 0.928 . S
H1039 C1022 0.932 . S
C1040 C1041 1.264 . S
C1040 C1045 1.479 . S
C1040 C1050 1.465 . S
C1041 C1040 1.264 . S
C1041 C1043 1.339 . S
C1041 H1068 0.931 . S
C1042 C1043 1.395 . S
C1042 C1044 1.320 . S
C1043 C1041 1.339 . S
C1043 C1042 1.395 . S
C1043 H1069 0.929 . S
C1044 C1042 1.320 . S
C1044 C1045 1.405 . S
C1044 H1070 0.930 . S
C1045 C1040 1.479 . S
C1045 C1044 1.405 . S
C1045 H1071 0.931 . S
U1046 O1047 2.454 . S
U1046 O1048 2.458 . S
U1046 C1049 2.984 . S
U1046 C1050 2.847 . S
U1046 C1063 2.882 . S
U1046 O1064 2.441 . S
U1046 O1065 2.420 . S
U1046 O1066 2.455 . S
U1046 O1067 2.449 . S
O1047 U1046 2.454 . S
O1047 C1049 1.353 . S
O1048 U1046 2.458 . S
O1048 C1049 1.286 . S
C1049 U1046 2.984 . S
C1049 O1047 1.353 . S
C1049 O1048 1.286 . S
C1049 C1051 1.363 . S
C1050 C1040 1.465 . S
C1050 U1046 2.847 . S
C1050 O1064 1.249 . S
C1050 O1065 1.202 . S
C1051 C1049 1.363 . S
C1051 C1053 1.408 . S
C1051 C1056 1.342 . S
C1052 C1053 1.310 . S
C1052 C1055 1.461 . S
C1052 H1072 0.932 . S
C1053 C1051 1.408 . S
C1053 C1052 1.310 . S
C1053 H1073 0.930 . S
C1054 C1055 1.474 . S
C1054 C1056 1.285 . S
C1054 H1074 0.929 . S
C1055 C1052 1.461 . S
C1055 C1054 1.474 . S
C1056 C1051 1.342 . S
C1056 C1054 1.285 . S
C1056 H1075 0.930 . S
C1057 C1060 1.424 . S
C1057 C1062 1.245 . S
C1057 C1063 1.428 . S
C1058 C1061 1.260 . S
C1058 C1062 1.477 . S
C1058 H1076 0.932 . S
C1059 C1060 1.384 . S
C1059 C1061 1.479 . S
C1059 H1077 0.929 . S
C1060 C1057 1.424 . S
C1060 C1059 1.384 . S
C1060 H1078 0.928 . S
C1061 C1058 1.260 . S
C1061 C1059 1.479 . S
C1062 C1057 1.245 . S
C1062 C1058 1.477 . S
C1062 H1079 0.932 . S
C1063 U1046 2.882 . S
C1063 C1057 1.428 . S
C1063 O1066 1.301 . S
C1063 O1067 1.282 . S
O1064 U1046 2.441 . S
O1064 C1050 1.249 . S
O1065 U1046 2.420 . S
O1065 C1050 1.202 . S
O1066 U1046 2.455 . S
O1066 C1063 1.301 . S
O1067 U1046 2.449 . S
O1067 C1063 1.282 . S
H1068 C1041 0.931 . S
H1069 C1043 0.929 . S
H1070 C1044 0.930 . S
H1071 C1045 0.931 . S
H1072 C1052 0.932 . S
H1073 C1053 0.930 . S
H1074 C1054 0.929 . S
H1075 C1056 0.930 . S
H1076 C1058 0.932 . S
H1077 C1059 0.929 . S
H1078 C1060 0.928 . S
H1079 C1062 0.932 . S
C1080 C1081 1.264 . S
C1080 C1085 1.479 . S
C1080 C1090 1.465 . S
C1081 C1080 1.264 . S
C1081 C1083 1.339 . S
C1081 H1108 0.931 . S
C1082 C1083 1.395 . S
C1082 C1084 1.320 . S
C1083 C1081 1.339 . S
C1083 C1082 1.395 . S
C1083 H1109 0.929 . S
C1084 C1082 1.320 . S
C1084 C1085 1.405 . S
C1084 H1110 0.930 . S
C1085 C1080 1.479 . S
C1085 C1084 1.405 . S
C1085 H1111 0.931 . S
U1086 O1087 2.454 . S
U1086 O1088 2.458 . S
U1086 C1089 2.984 . S
U1086 C1090 2.847 . S
U1086 C1103 2.882 . S
U1086 O1104 2.441 . S
U1086 O1105 2.420 . S
U1086 O1106 2.455 . S
U1086 O1107 2.449 . S
O1087 U1086 2.454 . S
O1087 C1089 1.353 . S
O1088 U1086 2.458 . S
O1088 C1089 1.286 . S
C1089 U1086 2.984 . S
C1089 O1087 1.353 . S
C1089 O1088 1.286 . S
C1089 C1091 1.363 . S
C1090 C1080 1.465 . S
C1090 U1086 2.847 . S
C1090 O1104 1.249 . S
C1090 O1105 1.202 . S
C1091 C1089 1.363 . S
C1091 C1093 1.408 . S
C1091 C1096 1.342 . S
C1092 C1093 1.310 . S
C1092 C1095 1.461 . S
C1092 H1112 0.932 . S
C1093 C1091 1.408 . S
C1093 C1092 1.310 . S
C1093 H1113 0.930 . S
C1094 C1095 1.474 . S
C1094 C1096 1.285 . S
C1094 H1114 0.929 . S
C1095 C1092 1.461 . S
C1095 C1094 1.474 . S
C1096 C1091 1.342 . S
C1096 C1094 1.285 . S
C1096 H1115 0.930 . S
C1097 C1100 1.424 . S
C1097 C1102 1.245 . S
C1097 C1103 1.428 . S
C1098 C1101 1.260 . S
C1098 C1102 1.477 . S
C1098 H1116 0.932 . S
C1099 C1100 1.384 . S
C1099 C1101 1.479 . S
C1099 H1117 0.929 . S
C1100 C1097 1.424 . S
C1100 C1099 1.384 . S
C1100 H1118 0.928 . S
C1101 C1098 1.260 . S
C1101 C1099 1.479 . S
C1102 C1097 1.245 . S
C1102 C1098 1.477 . S
C1102 H1119 0.932 . S
C1103 U1086 2.882 . S
C1103 C1097 1.428 . S
C1103 O1106 1.301 . S
C1103 O1107 1.282 . S
O1104 U1086 2.441 . S
O1104 C1090 1.249 . S
O1105 U1086 2.420 . S
O1105 C1090 1.202 . S
O1106 U1086 2.455 . S
O1106 C1103 1.301 . S
O1107 U1086 2.449 . S
O1107 C1103 1.282 . S
H1108 C1081 0.931 . S
H1109 C1083 0.929 . S
H1110 C1084 0.930 . S
H1111 C1085 0.931 . S
H1112 C1092 0.932 . S
H1113 C1093 0.930 . S
H1114 C1094 0.929 . S
H1115 C1096 0.930 . S
H1116 C1098 0.932 . S
H1117 C1099 0.929 . S
H1118 C1100 0.928 . S
H1119 C1102 0.932 . S
C1120 C1121 1.264 . S
C1120 C1125 1.479 . S
C1120 C1130 1.465 . S
C1121 C1120 1.264 . S
C1121 C1123 1.339 . S
C1121 H1148 0.931 . S
C1122 C1123 1.395 . S
C1122 C1124 1.320 . S
C1123 C1121 1.339 . S
C1123 C1122 1.395 . S
C1123 H1149 0.929 . S
C1124 C1122 1.320 . S
C1124 C1125 1.405 . S
C1124 H1150 0.930 . S
C1125 C1120 1.479 . S
C1125 C1124 1.405 . S
C1125 H1151 0.931 . S
U1126 O1127 2.454 . S
U1126 O1128 2.458 . S
U1126 C1129 2.984 . S
U1126 C1130 2.847 . S
U1126 C1143 2.882 . S
U1126 O1144 2.441 . S
U1126 O1145 2.420 . S
U1126 O1146 2.455 . S
U1126 O1147 2.449 . S
O1127 U1126 2.454 . S
O1127 C1129 1.353 . S
O1128 U1126 2.458 . S
O1128 C1129 1.286 . S
C1129 U1126 2.984 . S
C1129 O1127 1.353 . S
C1129 O1128 1.286 . S
C1129 C1131 1.363 . S
C1130 C1120 1.465 . S
C1130 U1126 2.847 . S
C1130 O1144 1.249 . S
C1130 O1145 1.202 . S
C1131 C1129 1.363 . S
C1131 C1133 1.408 . S
C1131 C1136 1.342 . S
C1132 C1133 1.310 . S
C1132 C1135 1.461 . S
C1132 H1152 0.932 . S
C1133 C1131 1.408 . S
C1133 C1132 1.310 . S
C1133 H1153 0.930 . S
C1134 C1135 1.474 . S
C1134 C1136 1.285 . S
C1134 H1154 0.929 . S
C1135 C1132 1.461 . S
C1135 C1134 1.474 . S
C1136 C1131 1.342 . S
C1136 C1134 1.285 . S
C1136 H1155 0.930 . S
C1137 C1140 1.424 . S
C1137 C1142 1.245 . S
C1137 C1143 1.428 . S
C1138 C1141 1.260 . S
C1138 C1142 1.477 . S
C1138 H1156 0.932 . S
C1139 C1140 1.384 . S
C1139 C1141 1.479 . S
C1139 H1157 0.929 . S
C1140 C1137 1.424 . S
C1140 C1139 1.384 . S
C1140 H1158 0.928 . S
C1141 C1138 1.260 . S
C1141 C1139 1.479 . S
C1142 C1137 1.245 . S
C1142 C1138 1.477 . S
C1142 H1159 0.932 . S
C1143 U1126 2.882 . S
C1143 C1137 1.428 . S
C1143 O1146 1.301 . S
C1143 O1147 1.282 . S
O1144 U1126 2.441 . S
O1144 C1130 1.249 . S
O1145 U1126 2.420 . S
O1145 C1130 1.202 . S
O1146 U1126 2.455 . S
O1146 C1143 1.301 . S
O1147 U1126 2.449 . S
O1147 C1143 1.282 . S
H1148 C1121 0.931 . S
H1149 C1123 0.929 . S
H1150 C1124 0.930 . S
H1151 C1125 0.931 . S
H1152 C1132 0.932 . S
H1153 C1133 0.930 . S
H1154 C1134 0.929 . S
H1155 C1136 0.930 . S
H1156 C1138 0.932 . S
H1157 C1139 0.929 . S
H1158 C1140 0.928 . S
H1159 C1142 0.932 . S
C1160 C1161 1.264 . S
C1160 C1165 1.479 . S
C1160 C1170 1.465 . S
C1161 C1160 1.264 . S
C1161 C1163 1.339 . S
C1161 H1188 0.931 . S
C1162 C1163 1.395 . S
C1162 C1164 1.320 . S
C1163 C1161 1.339 . S
C1163 C1162 1.395 . S
C1163 H1189 0.929 . S
C1164 C1162 1.320 . S
C1164 C1165 1.405 . S
C1164 H1190 0.930 . S
C1165 C1160 1.479 . S
C1165 C1164 1.405 . S
C1165 H1191 0.931 . S
U1166 O1167 2.454 . S
U1166 O1168 2.458 . S
U1166 C1169 2.984 . S
U1166 C1170 2.847 . S
U1166 C1183 2.882 . S
U1166 O1184 2.441 . S
U1166 O1185 2.420 . S
U1166 O1186 2.455 . S
U1166 O1187 2.449 . S
O1167 U1166 2.454 . S
O1167 C1169 1.353 . S
O1168 U1166 2.458 . S
O1168 C1169 1.286 . S
C1169 U1166 2.984 . S
C1169 O1167 1.353 . S
C1169 O1168 1.286 . S
C1169 C1171 1.363 . S
C1170 C1160 1.465 . S
C1170 U1166 2.847 . S
C1170 O1184 1.249 . S
C1170 O1185 1.202 . S
C1171 C1169 1.363 . S
C1171 C1173 1.408 . S
C1171 C1176 1.342 . S
C1172 C1173 1.310 . S
C1172 C1175 1.461 . S
C1172 H1192 0.932 . S
C1173 C1171 1.408 . S
C1173 C1172 1.310 . S
C1173 H1193 0.930 . S
C1174 C1175 1.474 . S
C1174 C1176 1.285 . S
C1174 H1194 0.929 . S
C1175 C1172 1.461 . S
C1175 C1174 1.474 . S
C1176 C1171 1.342 . S
C1176 C1174 1.285 . S
C1176 H1195 0.930 . S
C1177 C1180 1.424 . S
C1177 C1182 1.245 . S
C1177 C1183 1.428 . S
C1178 C1181 1.260 . S
C1178 C1182 1.477 . S
C1178 H1196 0.932 . S
C1179 C1180 1.384 . S
C1179 C1181 1.479 . S
C1179 H1197 0.929 . S
C1180 C1177 1.424 . S
C1180 C1179 1.384 . S
C1180 H1198 0.928 . S
C1181 C1178 1.260 . S
C1181 C1179 1.479 . S
C1182 C1177 1.245 . S
C1182 C1178 1.477 . S
C1182 H1199 0.932 . S
C1183 U1166 2.882 . S
C1183 C1177 1.428 . S
C1183 O1186 1.301 . S
C1183 O1187 1.282 . S
O1184 U1166 2.441 . S
O1184 C1170 1.249 . S
O1185 U1166 2.420 . S
O1185 C1170 1.202 . S
O1186 U1166 2.455 . S
O1186 C1183 1.301 . S
O1187 U1166 2.449 . S
O1187 C1183 1.282 . S
H1188 C1161 0.931 . S
H1189 C1163 0.929 . S
H1190 C1164 0.930 . S
H1191 C1165 0.931 . S
H1192 C1172 0.932 . S
H1193 C1173 0.930 . S
H1194 C1174 0.929 . S
H1195 C1176 0.930 . S
H1196 C1178 0.932 . S
H1197 C1179 0.929 . S
H1198 C1180 0.928 . S
H1199 C1182 0.932 . S
C1200 C1201 1.264 . S
C1200 C1205 1.479 . S
C1200 C1210 1.465 . S
C1201 C1200 1.264 . S
C1201 C1203 1.339 . S
C1201 H1228 0.931 . S
C1202 C1203 1.395 . S
C1202 C1204 1.320 . S
C1203 C1201 1.339 . S
C1203 C1202 1.395 . S
C1203 H1229 0.929 . S
C1204 C1202 1.320 . S
C1204 C1205 1.405 . S
C1204 H1230 0.930 . S
C1205 C1200 1.479 . S
C1205 C1204 1.405 . S
C1205 H1231 0.931 . S
U1206 O1207 2.454 . S
U1206 O1208 2.458 . S
U1206 C1209 2.984 . S
U1206 C1210 2.847 . S
U1206 C1223 2.882 . S
U1206 O1224 2.441 . S
U1206 O1225 2.420 . S
U1206 O1226 2.455 . S
U1206 O1227 2.449 . S
O1207 U1206 2.454 . S
O1207 C1209 1.353 . S
O1208 U1206 2.458 . S
O1208 C1209 1.286 . S
C1209 U1206 2.984 . S
C1209 O1207 1.353 . S
C1209 O1208 1.286 . S
C1209 C1211 1.363 . S
C1210 C1200 1.465 . S
C1210 U1206 2.847 . S
C1210 O1224 1.249 . S
C1210 O1225 1.202 . S
C1211 C1209 1.363 . S
C1211 C1213 1.408 . S
C1211 C1216 1.342 . S
C1212 C1213 1.310 . S
C1212 C1215 1.461 . S
C1212 H1232 0.932 . S
C1213 C1211 1.408 . S
C1213 C1212 1.310 . S
C1213 H1233 0.930 . S
C1214 C1215 1.474 . S
C1214 C1216 1.285 . S
C1214 H1234 0.929 . S
C1215 C1212 1.461 . S
C1215 C1214 1.474 . S
C1216 C1211 1.342 . S
C1216 C1214 1.285 . S
C1216 H1235 0.930 . S
C1217 C1220 1.424 . S
C1217 C1222 1.245 . S
C1217 C1223 1.428 . S
C1218 C1221 1.260 . S
C1218 C1222 1.477 . S
C1218 H1236 0.932 . S
C1219 C1220 1.384 . S
C1219 C1221 1.479 . S
C1219 H1237 0.929 . S
C1220 C1217 1.424 . S
C1220 C1219 1.384 . S
C1220 H1238 0.928 . S
C1221 C1218 1.260 . S
C1221 C1219 1.479 . S
C1222 C1217 1.245 . S
C1222 C1218 1.477 . S
C1222 H1239 0.932 . S
C1223 U1206 2.882 . S
C1223 C1217 1.428 . S
C1223 O1226 1.301 . S
C1223 O1227 1.282 . S
O1224 U1206 2.441 . S
O1224 C1210 1.249 . S
O1225 U1206 2.420 . S
O1225 C1210 1.202 . S
O1226 U1206 2.455 . S
O1226 C1223 1.301 . S
O1227 U1206 2.449 . S
O1227 C1223 1.282 . S
H1228 C1201 0.931 . S
H1229 C1203 0.929 . S
H1230 C1204 0.930 . S
H1231 C1205 0.931 . S
H1232 C1212 0.932 . S
H1233 C1213 0.930 . S
H1234 C1214 0.929 . S
H1235 C1216 0.930 . S
H1236 C1218 0.932 . S
H1237 C1219 0.929 . S
H1238 C1220 0.928 . S
H1239 C1222 0.932 . S
C1240 C1241 1.264 . S
C1240 C1245 1.479 . S
C1240 C1250 1.465 . S
C1241 C1240 1.264 . S
C1241 C1243 1.339 . S
C1241 H1268 0.931 . S
C1242 C1243 1.395 . S
C1242 C1244 1.320 . S
C1243 C1241 1.339 . S
C1243 C1242 1.395 . S
C1243 H1269 0.929 . S
C1244 C1242 1.320 . S
C1244 C1245 1.405 . S
C1244 H1270 0.930 . S
C1245 C1240 1.479 . S
C1245 C1244 1.405 . S
C1245 H1271 0.931 . S
U1246 O1247 2.454 . S
U1246 O1248 2.458 . S
U1246 C1249 2.984 . S
U1246 C1250 2.847 . S
U1246 C1263 2.882 . S
U1246 O1264 2.441 . S
U1246 O1265 2.420 . S
U1246 O1266 2.455 . S
U1246 O1267 2.449 . S
O1247 U1246 2.454 . S
O1247 C1249 1.353 . S
O1248 U1246 2.458 . S
O1248 C1249 1.286 . S
C1249 U1246 2.984 . S
C1249 O1247 1.353 . S
C1249 O1248 1.286 . S
C1249 C1251 1.363 . S
C1250 C1240 1.465 . S
C1250 U1246 2.847 . S
C1250 O1264 1.249 . S
C1250 O1265 1.202 . S
C1251 C1249 1.363 . S
C1251 C1253 1.408 . S
C1251 C1256 1.342 . S
C1252 C1253 1.310 . S
C1252 C1255 1.461 . S
C1252 H1272 0.932 . S
C1253 C1251 1.408 . S
C1253 C1252 1.310 . S
C1253 H1273 0.930 . S
C1254 C1255 1.474 . S
C1254 C1256 1.285 . S
C1254 H1274 0.929 . S
C1255 C1252 1.461 . S
C1255 C1254 1.474 . S
C1256 C1251 1.342 . S
C1256 C1254 1.285 . S
C1256 H1275 0.930 . S
C1257 C1260 1.424 . S
C1257 C1262 1.245 . S
C1257 C1263 1.428 . S
C1258 C1261 1.260 . S
C1258 C1262 1.477 . S
C1258 H1276 0.932 . S
C1259 C1260 1.384 . S
C1259 C1261 1.479 . S
C1259 H1277 0.929 . S
C1260 C1257 1.424 . S
C1260 C1259 1.384 . S
C1260 H1278 0.928 . S
C1261 C1258 1.260 . S
C1261 C1259 1.479 . S
C1262 C1257 1.245 . S
C1262 C1258 1.477 . S
C1262 H1279 0.932 . S
C1263 U1246 2.882 . S
C1263 C1257 1.428 . S
C1263 O1266 1.301 . S
C1263 O1267 1.282 . S
O1264 U1246 2.441 . S
O1264 C1250 1.249 . S
O1265 U1246 2.420 . S
O1265 C1250 1.202 . S
O1266 U1246 2.455 . S
O1266 C1263 1.301 . S
O1267 U1246 2.449 . S
O1267 C1263 1.282 . S
H1268 C1241 0.931 . S
H1269 C1243 0.929 . S
H1270 C1244 0.930 . S
H1271 C1245 0.931 . S
H1272 C1252 0.932 . S
H1273 C1253 0.930 . S
H1274 C1254 0.929 . S
H1275 C1256 0.930 . S
H1276 C1258 0.932 . S
H1277 C1259 0.929 . S
H1278 C1260 0.928 . S
H1279 C1262 0.932 . S
C1280 C1281 1.264 . S
C1280 C1285 1.479 . S
C1280 C1290 1.465 . S
C1281 C1280 1.264 . S
C1281 C1283 1.339 . S
C1281 H1308 0.931 . S
C1282 C1283 1.395 . S
C1282 C1284 1.320 . S
C1283 C1281 1.339 . S
C1283 C1282 1.395 . S
C1283 H1309 0.929 . S
C1284 C1282 1.320 . S
C1284 C1285 1.405 . S
C1284 H1310 0.930 . S
C1285 C1280 1.479 . S
C1285 C1284 1.405 . S
C1285 H1311 0.931 . S
U1286 O1287 2.454 . S
U1286 O1288 2.458 . S
U1286 C1289 2.984 . S
U1286 C1290 2.847 . S
U1286 C1303 2.882 . S
U1286 O1304 2.441 . S
U1286 O1305 2.420 . S
U1286 O1306 2.455 . S
U1286 O1307 2.449 . S
O1287 U1286 2.454 . S
O1287 C1289 1.353 . S
O1288 U1286 2.458 . S
O1288 C1289 1.286 . S
C1289 U1286 2.984 . S
C1289 O1287 1.353 . S
C1289 O1288 1.286 . S
C1289 C1291 1.363 . S
C1290 C1280 1.465 . S
C1290 U1286 2.847 . S
C1290 O1304 1.249 . S
C1290 O1305 1.202 . S
C1291 C1289 1.363 . S
C1291 C1293 1.408 . S
C1291 C1296 1.342 . S
C1292 C1293 1.310 . S
C1292 C1295 1.461 . S
C1292 H1312 0.932 . S
C1293 C1291 1.408 . S
C1293 C1292 1.310 . S
C1293 H1313 0.930 . S
C1294 C1295 1.474 . S
C1294 C1296 1.285 . S
C1294 H1314 0.929 . S
C1295 C1292 1.461 . S
C1295 C1294 1.474 . S
C1296 C1291 1.342 . S
C1296 C1294 1.285 . S
C1296 H1315 0.930 . S
C1297 C1300 1.424 . S
C1297 C1302 1.245 . S
C1297 C1303 1.428 . S
C1298 C1301 1.260 . S
C1298 C1302 1.477 . S
C1298 H1316 0.932 . S
C1299 C1300 1.384 . S
C1299 C1301 1.479 . S
C1299 H1317 0.929 . S
C1300 C1297 1.424 . S
C1300 C1299 1.384 . S
C1300 H1318 0.928 . S
C1301 C1298 1.260 . S
C1301 C1299 1.479 . S
C1302 C1297 1.245 . S
C1302 C1298 1.477 . S
C1302 H1319 0.932 . S
C1303 U1286 2.882 . S
C1303 C1297 1.428 . S
C1303 O1306 1.301 . S
C1303 O1307 1.282 . S
O1304 U1286 2.441 . S
O1304 C1290 1.249 . S
O1305 U1286 2.420 . S
O1305 C1290 1.202 . S
O1306 U1286 2.455 . S
O1306 C1303 1.301 . S
O1307 U1286 2.449 . S
O1307 C1303 1.282 . S
H1308 C1281 0.931 . S
H1309 C1283 0.929 . S
H1310 C1284 0.930 . S
H1311 C1285 0.931 . S
H1312 C1292 0.932 . S
H1313 C1293 0.930 . S
H1314 C1294 0.929 . S
H1315 C1296 0.930 . S
H1316 C1298 0.932 . S
H1317 C1299 0.929 . S
H1318 C1300 0.928 . S
H1319 C1302 0.932 . S
C1320 C1321 1.264 . S
C1320 C1325 1.479 . S
C1320 C1330 1.465 . S
C1321 C1320 1.264 . S
C1321 C1323 1.339 . S
C1321 H1348 0.931 . S
C1322 C1323 1.395 . S
C1322 C1324 1.320 . S
C1323 C1321 1.339 . S
C1323 C1322 1.395 . S
C1323 H1349 0.929 . S
C1324 C1322 1.320 . S
C1324 C1325 1.405 . S
C1324 H1350 0.930 . S
C1325 C1320 1.479 . S
C1325 C1324 1.405 . S
C1325 H1351 0.931 . S
U1326 O1327 2.454 . S
U1326 O1328 2.458 . S
U1326 C1329 2.984 . S
U1326 C1330 2.847 . S
U1326 C1343 2.882 . S
U1326 O1344 2.441 . S
U1326 O1345 2.420 . S
U1326 O1346 2.455 . S
U1326 O1347 2.449 . S
O1327 U1326 2.454 . S
O1327 C1329 1.353 . S
O1328 U1326 2.458 . S
O1328 C1329 1.286 . S
C1329 U1326 2.984 . S
C1329 O1327 1.353 . S
C1329 O1328 1.286 . S
C1329 C1331 1.363 . S
C1330 C1320 1.465 . S
C1330 U1326 2.847 . S
C1330 O1344 1.249 . S
C1330 O1345 1.202 . S
C1331 C1329 1.363 . S
C1331 C1333 1.408 . S
C1331 C1336 1.342 . S
C1332 C1333 1.310 . S
C1332 C1335 1.461 . S
C1332 H1352 0.932 . S
C1333 C1331 1.408 . S
C1333 C1332 1.310 . S
C1333 H1353 0.930 . S
C1334 C1335 1.474 . S
C1334 C1336 1.285 . S
C1334 H1354 0.929 . S
C1335 C1332 1.461 . S
C1335 C1334 1.474 . S
C1336 C1331 1.342 . S
C1336 C1334 1.285 . S
C1336 H1355 0.930 . S
C1337 C1340 1.424 . S
C1337 C1342 1.245 . S
C1337 C1343 1.428 . S
C1338 C1341 1.260 . S
C1338 C1342 1.477 . S
C1338 H1356 0.932 . S
C1339 C1340 1.384 . S
C1339 C1341 1.479 . S
C1339 H1357 0.929 . S
C1340 C1337 1.424 . S
C1340 C1339 1.384 . S
C1340 H1358 0.928 . S
C1341 C1338 1.260 . S
C1341 C1339 1.479 . S
C1342 C1337 1.245 . S
C1342 C1338 1.477 . S
C1342 H1359 0.932 . S
C1343 U1326 2.882 . S
C1343 C1337 1.428 . S
C1343 O1346 1.301 . S
C1343 O1347 1.282 . S
O1344 U1326 2.441 . S
O1344 C1330 1.249 . S
O1345 U1326 2.420 . S
O1345 C1330 1.202 . S
O1346 U1326 2.455 . S
O1346 C1343 1.301 . S
O1347 U1326 2.449 . S
O1347 C1343 1.282 . S
H1348 C1321 0.931 . S
H1349 C1323 0.929 . S
H1350 C1324 0.930 . S
H1351 C1325 0.931 . S
H1352 C1332 0.932 . S
H1353 C1333 0.930 . S
H1354 C1334 0.929 . S
H1355 C1336 0.930 . S
H1356 C1338 0.932 . S
H1357 C1339 0.929 . S
H1358 C1340 0.928 . S
H1359 C1342 0.932 . S
C1360 C1361 1.264 . S
C1360 C1365 1.479 . S
C1360 C1370 1.465 . S
C1361 C1360 1.264 . S
C1361 C1363 1.339 . S
C1361 H1388 0.931 . S
C1362 C1363 1.395 . S
C1362 C1364 1.320 . S
C1363 C1361 1.339 . S
C1363 C1362 1.395 . S
C1363 H1389 0.929 . S
C1364 C1362 1.320 . S
C1364 C1365 1.405 . S
C1364 H1390 0.930 . S
C1365 C1360 1.479 . S
C1365 C1364 1.405 . S
C1365 H1391 0.931 . S
U1366 O1367 2.454 . S
U1366 O1368 2.458 . S
U1366 C1369 2.984 . S
U1366 C1370 2.847 . S
U1366 C1383 2.882 . S
U1366 O1384 2.441 . S
U1366 O1385 2.420 . S
U1366 O1386 2.455 . S
U1366 O1387 2.449 . S
O1367 U1366 2.454 . S
O1367 C1369 1.353 . S
O1368 U1366 2.458 . S
O1368 C1369 1.286 . S
C1369 U1366 2.984 . S
C1369 O1367 1.353 . S
C1369 O1368 1.286 . S
C1369 C1371 1.363 . S
C1370 C1360 1.465 . S
C1370 U1366 2.847 . S
C1370 O1384 1.249 . S
C1370 O1385 1.202 . S
C1371 C1369 1.363 . S
C1371 C1373 1.408 . S
C1371 C1376 1.342 . S
C1372 C1373 1.310 . S
C1372 C1375 1.461 . S
C1372 H1392 0.932 . S
C1373 C1371 1.408 . S
C1373 C1372 1.310 . S
C1373 H1393 0.930 . S
C1374 C1375 1.474 . S
C1374 C1376 1.285 . S
C1374 H1394 0.929 . S
C1375 C1372 1.461 . S
C1375 C1374 1.474 . S
C1376 C1371 1.342 . S
C1376 C1374 1.285 . S
C1376 H1395 0.930 . S
C1377 C1380 1.424 . S
C1377 C1382 1.245 . S
C1377 C1383 1.428 . S
C1378 C1381 1.260 . S
C1378 C1382 1.477 . S
C1378 H1396 0.932 . S
C1379 C1380 1.384 . S
C1379 C1381 1.479 . S
C1379 H1397 0.929 . S
C1380 C1377 1.424 . S
C1380 C1379 1.384 . S
C1380 H1398 0.928 . S
C1381 C1378 1.260 . S
C1381 C1379 1.479 . S
C1382 C1377 1.245 . S
C1382 C1378 1.477 . S
C1382 H1399 0.932 . S
C1383 U1366 2.882 . S
C1383 C1377 1.428 . S
C1383 O1386 1.301 . S
C1383 O1387 1.282 . S
O1384 U1366 2.441 . S
O1384 C1370 1.249 . S
O1385 U1366 2.420 . S
O1385 C1370 1.202 . S
O1386 U1366 2.455 . S
O1386 C1383 1.301 . S
O1387 U1366 2.449 . S
O1387 C1383 1.282 . S
H1388 C1361 0.931 . S
H1389 C1363 0.929 . S
H1390 C1364 0.930 . S
H1391 C1365 0.931 . S
H1392 C1372 0.932 . S
H1393 C1373 0.930 . S
H1394 C1374 0.929 . S
H1395 C1376 0.930 . S
H1396 C1378 0.932 . S
H1397 C1379 0.929 . S
H1398 C1380 0.928 . S
H1399 C1382 0.932 . S
C1400 C1401 1.264 . S
C1400 C1405 1.479 . S
C1400 C1410 1.465 . S
C1401 C1400 1.264 . S
C1401 C1403 1.339 . S
C1401 H1428 0.931 . S
C1402 C1403 1.395 . S
C1402 C1404 1.320 . S
C1403 C1401 1.339 . S
C1403 C1402 1.395 . S
C1403 H1429 0.929 . S
C1404 C1402 1.320 . S
C1404 C1405 1.405 . S
C1404 H1430 0.930 . S
C1405 C1400 1.479 . S
C1405 C1404 1.405 . S
C1405 H1431 0.931 . S
U1406 O1407 2.454 . S
U1406 O1408 2.458 . S
U1406 C1409 2.984 . S
U1406 C1410 2.847 . S
U1406 C1423 2.882 . S
U1406 O1424 2.441 . S
U1406 O1425 2.420 . S
U1406 O1426 2.455 . S
U1406 O1427 2.449 . S
O1407 U1406 2.454 . S
O1407 C1409 1.353 . S
O1408 U1406 2.458 . S
O1408 C1409 1.286 . S
C1409 U1406 2.984 . S
C1409 O1407 1.353 . S
C1409 O1408 1.286 . S
C1409 C1411 1.363 . S
C1410 C1400 1.465 . S
C1410 U1406 2.847 . S
C1410 O1424 1.249 . S
C1410 O1425 1.202 . S
C1411 C1409 1.363 . S
C1411 C1413 1.408 . S
C1411 C1416 1.342 . S
C1412 C1413 1.310 . S
C1412 C1415 1.461 . S
C1412 H1432 0.932 . S
C1413 C1411 1.408 . S
C1413 C1412 1.310 . S
C1413 H1433 0.930 . S
C1414 C1415 1.474 . S
C1414 C1416 1.285 . S
C1414 H1434 0.929 . S
C1415 C1412 1.461 . S
C1415 C1414 1.474 . S
C1416 C1411 1.342 . S
C1416 C1414 1.285 . S
C1416 H1435 0.930 . S
C1417 C1420 1.424 . S
C1417 C1422 1.245 . S
C1417 C1423 1.428 . S
C1418 C1421 1.260 . S
C1418 C1422 1.477 . S
C1418 H1436 0.932 . S
C1419 C1420 1.384 . S
C1419 C1421 1.479 . S
C1419 H1437 0.929 . S
C1420 C1417 1.424 . S
C1420 C1419 1.384 . S
C1420 H1438 0.928 . S
C1421 C1418 1.260 . S
C1421 C1419 1.479 . S
C1422 C1417 1.245 . S
C1422 C1418 1.477 . S
C1422 H1439 0.932 . S
C1423 U1406 2.882 . S
C1423 C1417 1.428 . S
C1423 O1426 1.301 . S
C1423 O1427 1.282 . S
O1424 U1406 2.441 . S
O1424 C1410 1.249 . S
O1425 U1406 2.420 . S
O1425 C1410 1.202 . S
O1426 U1406 2.455 . S
O1426 C1423 1.301 . S
O1427 U1406 2.449 . S
O1427 C1423 1.282 . S
H1428 C1401 0.931 . S
H1429 C1403 0.929 . S
H1430 C1404 0.930 . S
H1431 C1405 0.931 . S
H1432 C1412 0.932 . S
H1433 C1413 0.930 . S
H1434 C1414 0.929 . S
H1435 C1416 0.930 . S
H1436 C1418 0.932 . S
H1437 C1419 0.929 . S
H1438 C1420 0.928 . S
H1439 C1422 0.932 . S
C1440 C1441 1.264 . S
C1440 C1445 1.479 . S
C1440 C1450 1.465 . S
C1441 C1440 1.264 . S
C1441 C1443 1.339 . S
C1441 H1468 0.931 . S
C1442 C1443 1.395 . S
C1442 C1444 1.320 . S
C1443 C1441 1.339 . S
C1443 C1442 1.395 . S
C1443 H1469 0.929 . S
C1444 C1442 1.320 . S
C1444 C1445 1.405 . S
C1444 H1470 0.930 . S
C1445 C1440 1.479 . S
C1445 C1444 1.405 . S
C1445 H1471 0.931 . S
U1446 O1447 2.454 . S
U1446 O1448 2.458 . S
U1446 C1449 2.984 . S
U1446 C1450 2.847 . S
U1446 C1463 2.882 . S
U1446 O1464 2.441 . S
U1446 O1465 2.420 . S
U1446 O1466 2.455 . S
U1446 O1467 2.449 . S
O1447 U1446 2.454 . S
O1447 C1449 1.353 . S
O1448 U1446 2.458 . S
O1448 C1449 1.286 . S
C1449 U1446 2.984 . S
C1449 O1447 1.353 . S
C1449 O1448 1.286 . S
C1449 C1451 1.363 . S
C1450 C1440 1.465 . S
C1450 U1446 2.847 . S
C1450 O1464 1.249 . S
C1450 O1465 1.202 . S
C1451 C1449 1.363 . S
C1451 C1453 1.408 . S
C1451 C1456 1.342 . S
C1452 C1453 1.310 . S
C1452 C1455 1.461 . S
C1452 H1472 0.932 . S
C1453 C1451 1.408 . S
C1453 C1452 1.310 . S
C1453 H1473 0.930 . S
C1454 C1455 1.474 . S
C1454 C1456 1.285 . S
C1454 H1474 0.929 . S
C1455 C1452 1.461 . S
C1455 C1454 1.474 . S
C1456 C1451 1.342 . S
C1456 C1454 1.285 . S
C1456 H1475 0.930 . S
C1457 C1460 1.424 . S
C1457 C1462 1.245 . S
C1457 C1463 1.428 . S
C1458 C1461 1.260 . S
C1458 C1462 1.477 . S
C1458 H1476 0.932 . S
C1459 C1460 1.384 . S
C1459 C1461 1.479 . S
C1459 H1477 0.929 . S
C1460 C1457 1.424 . S
C1460 C1459 1.384 . S
C1460 H1478 0.928 . S
C1461 C1458 1.260 . S
C1461 C1459 1.479 . S
C1462 C1457 1.245 . S
C1462 C1458 1.477 . S
C1462 H1479 0.932 . S
C1463 U1446 2.882 . S
C1463 C1457 1.428 . S
C1463 O1466 1.301 . S
C1463 O1467 1.282 . S
O1464 U1446 2.441 . S
O1464 C1450 1.249 . S
O1465 U1446 2.420 . S
O1465 C1450 1.202 . S
O1466 U1446 2.455 . S
O1466 C1463 1.301 . S
O1467 U1446 2.449 . S
O1467 C1463 1.282 . S
H1468 C1441 0.931 . S
H1469 C1443 0.929 . S
H1470 C1444 0.930 . S
H1471 C1445 0.931 . S
H1472 C1452 0.932 . S
H1473 C1453 0.930 . S
H1474 C1454 0.929 . S
H1475 C1456 0.930 . S
H1476 C1458 0.932 . S
H1477 C1459 0.929 . S
H1478 C1460 0.928 . S
H1479 C1462 0.932 . S
C1480 C1481 1.264 . S
C1480 C1485 1.479 . S
C1480 C1490 1.465 . S
C1481 C1480 1.264 . S
C1481 C1483 1.339 . S
C1481 H1508 0.931 . S
C1482 C1483 1.395 . S
C1482 C1484 1.320 . S
C1483 C1481 1.339 . S
C1483 C1482 1.395 . S
C1483 H1509 0.929 . S
C1484 C1482 1.320 . S
C1484 C1485 1.405 . S
C1484 H1510 0.930 . S
C1485 C1480 1.479 . S
C1485 C1484 1.405 . S
C1485 H1511 0.931 . S
U1486 O1487 2.454 . S
U1486 O1488 2.458 . S
U1486 C1489 2.984 . S
U1486 C1490 2.847 . S
U1486 C1503 2.882 . S
U1486 O1504 2.441 . S
U1486 O1505 2.420 . S
U1486 O1506 2.455 . S
U1486 O1507 2.449 . S
O1487 U1486 2.454 . S
O1487 C1489 1.353 . S
O1488 U1486 2.458 . S
O1488 C1489 1.286 . S
C1489 U1486 2.984 . S
C1489 O1487 1.353 . S
C1489 O1488 1.286 . S
C1489 C1491 1.363 . S
C1490 C1480 1.465 . S
C1490 U1486 2.847 . S
C1490 O1504 1.249 . S
C1490 O1505 1.202 . S
C1491 C1489 1.363 . S
C1491 C1493 1.408 . S
C1491 C1496 1.342 . S
C1492 C1493 1.310 . S
C1492 C1495 1.461 . S
C1492 H1512 0.932 . S
C1493 C1491 1.408 . S
C1493 C1492 1.310 . S
C1493 H1513 0.930 . S
C1494 C1495 1.474 . S
C1494 C1496 1.285 . S
C1494 H1514 0.929 . S
C1495 C1492 1.461 . S
C1495 C1494 1.474 . S
C1496 C1491 1.342 . S
C1496 C1494 1.285 . S
C1496 H1515 0.930 . S
C1497 C1500 1.424 . S
C1497 C1502 1.245 . S
C1497 C1503 1.428 . S
C1498 C1501 1.260 . S
C1498 C1502 1.477 . S
C1498 H1516 0.932 . S
C1499 C1500 1.384 . S
C1499 C1501 1.479 . S
C1499 H1517 0.929 . S
C1500 C1497 1.424 . S
C1500 C1499 1.384 . S
C1500 H1518 0.928 . S
C1501 C1498 1.260 . S
C1501 C1499 1.479 . S
C1502 C1497 1.245 . S
C1502 C1498 1.477 . S
C1502 H1519 0.932 . S
C1503 U1486 2.882 . S
C1503 C1497 1.428 . S
C1503 O1506 1.301 . S
C1503 O1507 1.282 . S
O1504 U1486 2.441 . S
O1504 C1490 1.249 . S
O1505 U1486 2.420 . S
O1505 C1490 1.202 . S
O1506 U1486 2.455 . S
O1506 C1503 1.301 . S
O1507 U1486 2.449 . S
O1507 C1503 1.282 . S
H1508 C1481 0.931 . S
H1509 C1483 0.929 . S
H1510 C1484 0.930 . S
H1511 C1485 0.931 . S
H1512 C1492 0.932 . S
H1513 C1493 0.930 . S
H1514 C1494 0.929 . S
H1515 C1496 0.930 . S
H1516 C1498 0.932 . S
H1517 C1499 0.929 . S
H1518 C1500 0.928 . S
H1519 C1502 0.932 . S
C1520 C1521 1.264 . S
C1520 C1525 1.479 . S
C1520 C1530 1.465 . S
C1521 C1520 1.264 . S
C1521 C1523 1.339 . S
C1521 H1548 0.931 . S
C1522 C1523 1.395 . S
C1522 C1524 1.320 . S
C1523 C1521 1.339 . S
C1523 C1522 1.395 . S
C1523 H1549 0.929 . S
C1524 C1522 1.320 . S
C1524 C1525 1.405 . S
C1524 H1550 0.930 . S
C1525 C1520 1.479 . S
C1525 C1524 1.405 . S
C1525 H1551 0.931 . S
U1526 O1527 2.454 . S
U1526 O1528 2.458 . S
U1526 C1529 2.984 . S
U1526 C1530 2.847 . S
U1526 C1543 2.882 . S
U1526 O1544 2.441 . S
U1526 O1545 2.420 . S
U1526 O1546 2.455 . S
U1526 O1547 2.449 . S
O1527 U1526 2.454 . S
O1527 C1529 1.353 . S
O1528 U1526 2.458 . S
O1528 C1529 1.286 . S
C1529 U1526 2.984 . S
C1529 O1527 1.353 . S
C1529 O1528 1.286 . S
C1529 C1531 1.363 . S
C1530 C1520 1.465 . S
C1530 U1526 2.847 . S
C1530 O1544 1.249 . S
C1530 O1545 1.202 . S
C1531 C1529 1.363 . S
C1531 C1533 1.408 . S
C1531 C1536 1.342 . S
C1532 C1533 1.310 . S
C1532 C1535 1.461 . S
C1532 H1552 0.932 . S
C1533 C1531 1.408 . S
C1533 C1532 1.310 . S
C1533 H1553 0.930 . S
C1534 C1535 1.474 . S
C1534 C1536 1.285 . S
C1534 H1554 0.929 . S
C1535 C1532 1.461 . S
C1535 C1534 1.474 . S
C1536 C1531 1.342 . S
C1536 C1534 1.285 . S
C1536 H1555 0.930 . S
C1537 C1540 1.424 . S
C1537 C1542 1.245 . S
C1537 C1543 1.428 . S
C1538 C1541 1.260 . S
C1538 C1542 1.477 . S
C1538 H1556 0.932 . S
C1539 C1540 1.384 . S
C1539 C1541 1.479 . S
C1539 H1557 0.929 . S
C1540 C1537 1.424 . S
C1540 C1539 1.384 . S
C1540 H1558 0.928 . S
C1541 C1538 1.260 . S
C1541 C1539 1.479 . S
C1542 C1537 1.245 . S
C1542 C1538 1.477 . S
C1542 H1559 0.932 . S
C1543 U1526 2.882 . S
C1543 C1537 1.428 . S
C1543 O1546 1.301 . S
C1543 O1547 1.282 . S
O1544 U1526 2.441 . S
O1544 C1530 1.249 . S
O1545 U1526 2.420 . S
O1545 C1530 1.202 . S
O1546 U1526 2.455 . S
O1546 C1543 1.301 . S
O1547 U1526 2.449 . S
O1547 C1543 1.282 . S
H1548 C1521 0.931 . S
H1549 C1523 0.929 . S
H1550 C1524 0.930 . S
H1551 C1525 0.931 . S
H1552 C1532 0.932 . S
H1553 C1533 0.930 . S
H1554 C1534 0.929 . S
H1555 C1536 0.930 . S
H1556 C1538 0.932 . S
H1557 C1539 0.929 . S
H1558 C1540 0.928 . S
H1559 C1542 0.932 . S
C1560 C1561 1.264 . S
C1560 C1565 1.479 . S
C1560 C1570 1.465 . S
C1561 C1560 1.264 . S
C1561 C1563 1.339 . S
C1561 H1588 0.931 . S
C1562 C1563 1.395 . S
C1562 C1564 1.320 . S
C1563 C1561 1.339 . S
C1563 C1562 1.395 . S
C1563 H1589 0.929 . S
C1564 C1562 1.320 . S
C1564 C1565 1.405 . S
C1564 H1590 0.930 . S
C1565 C1560 1.479 . S
C1565 C1564 1.405 . S
C1565 H1591 0.931 . S
U1566 O1567 2.454 . S
U1566 O1568 2.458 . S
U1566 C1569 2.984 . S
U1566 C1570 2.847 . S
U1566 C1583 2.882 . S
U1566 O1584 2.441 . S
U1566 O1585 2.420 . S
U1566 O1586 2.455 . S
U1566 O1587 2.449 . S
O1567 U1566 2.454 . S
O1567 C1569 1.353 . S
O1568 U1566 2.458 . S
O1568 C1569 1.286 . S
C1569 U1566 2.984 . S
C1569 O1567 1.353 . S
C1569 O1568 1.286 . S
C1569 C1571 1.363 . S
C1570 C1560 1.465 . S
C1570 U1566 2.847 . S
C1570 O1584 1.249 . S
C1570 O1585 1.202 . S
C1571 C1569 1.363 . S
C1571 C1573 1.408 . S
C1571 C1576 1.342 . S
C1572 C1573 1.310 . S
C1572 C1575 1.461 . S
C1572 H1592 0.932 . S
C1573 C1571 1.408 . S
C1573 C1572 1.310 . S
C1573 H1593 0.930 . S
C1574 C1575 1.474 . S
C1574 C1576 1.285 . S
C1574 H1594 0.929 . S
C1575 C1572 1.461 . S
C1575 C1574 1.474 . S
C1576 C1571 1.342 . S
C1576 C1574 1.285 . S
C1576 H1595 0.930 . S
C1577 C1580 1.424 . S
C1577 C1582 1.245 . S
C1577 C1583 1.428 . S
C1578 C1581 1.260 . S
C1578 C1582 1.477 . S
C1578 H1596 0.932 . S
C1579 C1580 1.384 . S
C1579 C1581 1.479 . S
C1579 H1597 0.929 . S
C1580 C1577 1.424 . S
C1580 C1579 1.384 . S
C1580 H1598 0.928 . S
C1581 C1578 1.260 . S
C1581 C1579 1.479 . S
C1582 C1577 1.245 . S
C1582 C1578 1.477 . S
C1582 H1599 0.932 . S
C1583 U1566 2.882 . S
C1583 C1577 1.428 . S
C1583 O1586 1.301 . S
C1583 O1587 1.282 . S
O1584 U1566 2.441 . S
O1584 C1570 1.249 . S
O1585 U1566 2.420 . S
O1585 C1570 1.202 . S
O1586 U1566 2.455 . S
O1586 C1583 1.301 . S
O1587 U1566 2.449 . S
O1587 C1583 1.282 . S
H1588 C1561 0.931 . S
H1589 C1563 0.929 . S
H1590 C1564 0.930 . S
H1591 C1565 0.931 . S
H1592 C1572 0.932 . S
H1593 C1573 0.930 . S
H1594 C1574 0.929 . S
H1595 C1576 0.930 . S
H1596 C1578 0.932 . S
H1597 C1579 0.929 . S
H1598 C1580 0.928 . S
H1599 C1582 0.932 . S
C1600 C1601 1.264 . S
C1600 C1605 1.479 . S
C1600 C1610 1.465 . S
C1601 C1600 1.264 . S
C1601 C1603 1.339 . S
C1601 H1628 0.931 . S
C1602 C1603 1.395 . S
C1602 C1604 1.320 . S
C1603 C1601 1.339 . S
C1603 C1602 1.395 . S
C1603 H1629 0.929 . S
C1604 C1602 1.320 . S
C1604 C1605 1.405 . S
C1604 H1630 0.930 . S
C1605 C1600 1.479 . S
C1605 C1604 1.405 . S
C1605 H1631 0.931 . S
U1606 O1607 2.454 . S
U1606 O1608 2.458 . S
U1606 C1609 2.984 . S
U1606 C1610 2.847 . S
U1606 C1623 2.882 . S
U1606 O1624 2.441 . S
U1606 O1625 2.420 . S
U1606 O1626 2.455 . S
U1606 O1627 2.449 . S
O1607 U1606 2.454 . S
O1607 C1609 1.353 . S
O1608 U1606 2.458 . S
O1608 C1609 1.286 . S
C1609 U1606 2.984 . S
C1609 O1607 1.353 . S
C1609 O1608 1.286 . S
C1609 C1611 1.363 . S
C1610 C1600 1.465 . S
C1610 U1606 2.847 . S
C1610 O1624 1.249 . S
C1610 O1625 1.202 . S
C1611 C1609 1.363 . S
C1611 C1613 1.408 . S
C1611 C1616 1.342 . S
C1612 C1613 1.310 . S
C1612 C1615 1.461 . S
C1612 H1632 0.932 . S
C1613 C1611 1.408 . S
C1613 C1612 1.310 . S
C1613 H1633 0.930 . S
C1614 C1615 1.474 . S
C1614 C1616 1.285 . S
C1614 H1634 0.929 . S
C1615 C1612 1.461 . S
C1615 C1614 1.474 . S
C1616 C1611 1.342 . S
C1616 C1614 1.285 . S
C1616 H1635 0.930 . S
C1617 C1620 1.424 . S
C1617 C1622 1.245 . S
C1617 C1623 1.428 . S
C1618 C1621 1.260 . S
C1618 C1622 1.477 . S
C1618 H1636 0.932 . S
C1619 C1620 1.384 . S
C1619 C1621 1.479 . S
C1619 H1637 0.929 . S
C1620 C1617 1.424 . S
C1620 C1619 1.384 . S
C1620 H1638 0.928 . S
C1621 C1618 1.260 . S
C1621 C1619 1.479 . S
C1622 C1617 1.245 . S
C1622 C1618 1.477 . S
C1622 H1639 0.932 . S
C1623 U1606 2.882 . S
C1623 C1617 1.428 . S
C1623 O1626 1.301 . S
C1623 O1627 1.282 . S
O1624 U1606 2.441 . S
O1624 C1610 1.249 . S
O1625 U1606 2.420 . S
O1625 C1610 1.202 . S
O1626 U1606 2.455 . S
O1626 C1623 1.301 . S
O1627 U1606 2.449 . S
O1627 C1623 1.282 . S
H1628 C1601 0.931 . S
H1629 C1603 0.929 . S
H1630 C1604 0.930 . S
H1631 C1605 0.931 . S
H1632 C1612 0.932 . S
H1633 C1613 0.930 . S
H1634 C1614 0.929 . S
H1635 C1616 0.930 . S
H1636 C1618 0.932 . S
H1637 C1619 0.929 . S
H1638 C1620 0.928 . S
H1639 C1622 0.932 . S
C1640 C1641 1.264 . S
C1640 C1645 1.479 . S
C1640 C1650 1.465 . S
C1641 C1640 1.264 . S
C1641 C1643 1.339 . S
C1641 H1668 0.931 . S
C1642 C1643 1.395 . S
C1642 C1644 1.320 . S
C1643 C1641 1.339 . S
C1643 C1642 1.395 . S
C1643 H1669 0.929 . S
C1644 C1642 1.320 . S
C1644 C1645 1.405 . S
C1644 H1670 0.930 . S
C1645 C1640 1.479 . S
C1645 C1644 1.405 . S
C1645 H1671 0.931 . S
U1646 O1647 2.454 . S
U1646 O1648 2.458 . S
U1646 C1649 2.984 . S
U1646 C1650 2.847 . S
U1646 C1663 2.882 . S
U1646 O1664 2.441 . S
U1646 O1665 2.420 . S
U1646 O1666 2.455 . S
U1646 O1667 2.449 . S
O1647 U1646 2.454 . S
O1647 C1649 1.353 . S
O1648 U1646 2.458 . S
O1648 C1649 1.286 . S
C1649 U1646 2.984 . S
C1649 O1647 1.353 . S
C1649 O1648 1.286 . S
C1649 C1651 1.363 . S
C1650 C1640 1.465 . S
C1650 U1646 2.847 . S
C1650 O1664 1.249 . S
C1650 O1665 1.202 . S
C1651 C1649 1.363 . S
C1651 C1653 1.408 . S
C1651 C1656 1.342 . S
C1652 C1653 1.310 . S
C1652 C1655 1.461 . S
C1652 H1672 0.932 . S
C1653 C1651 1.408 . S
C1653 C1652 1.310 . S
C1653 H1673 0.930 . S
C1654 C1655 1.474 . S
C1654 C1656 1.285 . S
C1654 H1674 0.929 . S
C1655 C1652 1.461 . S
C1655 C1654 1.474 . S
C1656 C1651 1.342 . S
C1656 C1654 1.285 . S
C1656 H1675 0.930 . S
C1657 C1660 1.424 . S
C1657 C1662 1.245 . S
C1657 C1663 1.428 . S
C1658 C1661 1.260 . S
C1658 C1662 1.477 . S
C1658 H1676 0.932 . S
C1659 C1660 1.384 . S
C1659 C1661 1.479 . S
C1659 H1677 0.929 . S
C1660 C1657 1.424 . S
C1660 C1659 1.384 . S
C1660 H1678 0.928 . S
C1661 C1658 1.260 . S
C1661 C1659 1.479 . S
C1662 C1657 1.245 . S
C1662 C1658 1.477 . S
C1662 H1679 0.932 . S
C1663 U1646 2.882 . S
C1663 C1657 1.428 . S
C1663 O1666 1.301 . S
C1663 O1667 1.282 . S
O1664 U1646 2.441 . S
O1664 C1650 1.249 . S
O1665 U1646 2.420 . S
O1665 C1650 1.202 . S
O1666 U1646 2.455 . S
O1666 C1663 1.301 . S
O1667 U1646 2.449 . S
O1667 C1663 1.282 . S
H1668 C1641 0.931 . S
H1669 C1643 0.929 . S
H1670 C1644 0.930 . S
H1671 C1645 0.931 . S
H1672 C1652 0.932 . S
H1673 C1653 0.930 . S
H1674 C1654 0.929 . S
H1675 C1656 0.930 . S
H1676 C1658 0.932 . S
H1677 C1659 0.929 . S
H1678 C1660 0.928 . S
H1679 C1662 0.932 . S
C1680 C1681 1.264 . S
C1680 C1685 1.479 . S
C1680 C1690 1.465 . S
C1681 C1680 1.264 . S
C1681 C1683 1.339 . S
C1681 H1708 0.931 . S
C1682 C1683 1.395 . S
C1682 C1684 1.320 . S
C1683 C1681 1.339 . S
C1683 C1682 1.395 . S
C1683 H1709 0.929 . S
C1684 C1682 1.320 . S
C1684 C1685 1.405 . S
C1684 H1710 0.930 . S
C1685 C1680 1.479 . S
C1685 C1684 1.405 . S
C1685 H1711 0.931 . S
U1686 O1687 2.454 . S
U1686 O1688 2.458 . S
U1686 C1689 2.984 . S
U1686 C1690 2.847 . S
U1686 C1703 2.882 . S
U1686 O1704 2.441 . S
U1686 O1705 2.420 . S
U1686 O1706 2.455 . S
U1686 O1707 2.449 . S
O1687 U1686 2.454 . S
O1687 C1689 1.353 . S
O1688 U1686 2.458 . S
O1688 C1689 1.286 . S
C1689 U1686 2.984 . S
C1689 O1687 1.353 . S
C1689 O1688 1.286 . S
C1689 C1691 1.363 . S
C1690 C1680 1.465 . S
C1690 U1686 2.847 . S
C1690 O1704 1.249 . S
C1690 O1705 1.202 . S
C1691 C1689 1.363 . S
C1691 C1693 1.408 . S
C1691 C1696 1.342 . S
C1692 C1693 1.310 . S
C1692 C1695 1.461 . S
C1692 H1712 0.932 . S
C1693 C1691 1.408 . S
C1693 C1692 1.310 . S
C1693 H1713 0.930 . S
C1694 C1695 1.474 . S
C1694 C1696 1.285 . S
C1694 H1714 0.929 . S
C1695 C1692 1.461 . S
C1695 C1694 1.474 . S
C1696 C1691 1.342 . S
C1696 C1694 1.285 . S
C1696 H1715 0.930 . S
C1697 C1700 1.424 . S
C1697 C1702 1.245 . S
C1697 C1703 1.428 . S
C1698 C1701 1.260 . S
C1698 C1702 1.477 . S
C1698 H1716 0.932 . S
C1699 C1700 1.384 . S
C1699 C1701 1.479 . S
C1699 H1717 0.929 . S
C1700 C1697 1.424 . S
C1700 C1699 1.384 . S
C1700 H1718 0.928 . S
C1701 C1698 1.260 . S
C1701 C1699 1.479 . S
C1702 C1697 1.245 . S
C1702 C1698 1.477 . S
C1702 H1719 0.932 . S
C1703 U1686 2.882 . S
C1703 C1697 1.428 . S
C1703 O1706 1.301 . S
C1703 O1707 1.282 . S
O1704 U1686 2.441 . S
O1704 C1690 1.249 . S
O1705 U1686 2.420 . S
O1705 C1690 1.202 . S
O1706 U1686 2.455 . S
O1706 C1703 1.301 . S
O1707 U1686 2.449 . S
O1707 C1703 1.282 . S
H1708 C1681 0.931 . S
H1709 C1683 0.929 . S
H1710 C1684 0.930 . S
H1711 C1685 0.931 . S
H1712 C1692 0.932 . S
H1713 C1693 0.930 . S
H1714 C1694 0.929 . S
H1715 C1696 0.930 . S
H1716 C1698 0.932 . S
H1717 C1699 0.929 . S
H1718 C1700 0.928 . S
H1719 C1702 0.932 . S
C1720 C1721 1.264 . S
C1720 C1725 1.479 . S
C1720 C1730 1.465 . S
C1721 C1720 1.264 . S
C1721 C1723 1.339 . S
C1721 H1748 0.931 . S
C1722 C1723 1.395 . S
C1722 C1724 1.320 . S
C1723 C1721 1.339 . S
C1723 C1722 1.395 . S
C1723 H1749 0.929 . S
C1724 C1722 1.320 . S
C1724 C1725 1.405 . S
C1724 H1750 0.930 . S
C1725 C1720 1.479 . S
C1725 C1724 1.405 . S
C1725 H1751 0.931 . S
U1726 O1727 2.454 . S
U1726 O1728 2.458 . S
U1726 C1729 2.984 . S
U1726 C1730 2.847 . S
U1726 C1743 2.882 . S
U1726 O1744 2.441 . S
U1726 O1745 2.420 . S
U1726 O1746 2.455 . S
U1726 O1747 2.449 . S
O1727 U1726 2.454 . S
O1727 C1729 1.353 . S
O1728 U1726 2.458 . S
O1728 C1729 1.286 . S
C1729 U1726 2.984 . S
C1729 O1727 1.353 . S
C1729 O1728 1.286 . S
C1729 C1731 1.363 . S
C1730 C1720 1.465 . S
C1730 U1726 2.847 . S
C1730 O1744 1.249 . S
C1730 O1745 1.202 . S
C1731 C1729 1.363 . S
C1731 C1733 1.408 . S
C1731 C1736 1.342 . S
C1732 C1733 1.310 . S
C1732 C1735 1.461 . S
C1732 H1752 0.932 . S
C1733 C1731 1.408 . S
C1733 C1732 1.310 . S
C1733 H1753 0.930 . S
C1734 C1735 1.474 . S
C1734 C1736 1.285 . S
C1734 H1754 0.929 . S
C1735 C1732 1.461 . S
C1735 C1734 1.474 . S
C1736 C1731 1.342 . S
C1736 C1734 1.285 . S
C1736 H1755 0.930 . S
C1737 C1740 1.424 . S
C1737 C1742 1.245 . S
C1737 C1743 1.428 . S
C1738 C1741 1.260 . S
C1738 C1742 1.477 . S
C1738 H1756 0.932 . S
C1739 C1740 1.384 . S
C1739 C1741 1.479 . S
C1739 H1757 0.929 . S
C1740 C1737 1.424 . S
C1740 C1739 1.384 . S
C1740 H1758 0.928 . S
C1741 C1738 1.260 . S
C1741 C1739 1.479 . S
C1742 C1737 1.245 . S
C1742 C1738 1.477 . S
C1742 H1759 0.932 . S
C1743 U1726 2.882 . S
C1743 C1737 1.428 . S
C1743 O1746 1.301 . S
C1743 O1747 1.282 . S
O1744 U1726 2.441 . S
O1744 C1730 1.249 . S
O1745 U1726 2.420 . S
O1745 C1730 1.202 . S
O1746 U1726 2.455 . S
O1746 C1743 1.301 . S
O1747 U1726 2.449 . S
O1747 C1743 1.282 . S
H1748 C1721 0.931 . S
H1749 C1723 0.929 . S
H1750 C1724 0.930 . S
H1751 C1725 0.931 . S
H1752 C1732 0.932 . S
H1753 C1733 0.930 . S
H1754 C1734 0.929 . S
H1755 C1736 0.930 . S
H1756 C1738 0.932 . S
H1757 C1739 0.929 . S
H1758 C1740 0.928 . S
H1759 C1742 0.932 . S
C1760 C1761 1.264 . S
C1760 C1765 1.479 . S
C1760 C1770 1.465 . S
C1761 C1760 1.264 . S
C1761 C1763 1.339 . S
C1761 H1788 0.931 . S
C1762 C1763 1.395 . S
C1762 C1764 1.320 . S
C1763 C1761 1.339 . S
C1763 C1762 1.395 . S
C1763 H1789 0.929 . S
C1764 C1762 1.320 . S
C1764 C1765 1.405 . S
C1764 H1790 0.930 . S
C1765 C1760 1.479 . S
C1765 C1764 1.405 . S
C1765 H1791 0.931 . S
U1766 O1767 2.454 . S
U1766 O1768 2.458 . S
U1766 C1769 2.984 . S
U1766 C1770 2.847 . S
U1766 C1783 2.882 . S
U1766 O1784 2.441 . S
U1766 O1785 2.420 . S
U1766 O1786 2.455 . S
U1766 O1787 2.449 . S
O1767 U1766 2.454 . S
O1767 C1769 1.353 . S
O1768 U1766 2.458 . S
O1768 C1769 1.286 . S
C1769 U1766 2.984 . S
C1769 O1767 1.353 . S
C1769 O1768 1.286 . S
C1769 C1771 1.363 . S
C1770 C1760 1.465 . S
C1770 U1766 2.847 . S
C1770 O1784 1.249 . S
C1770 O1785 1.202 . S
C1771 C1769 1.363 . S
C1771 C1773 1.408 . S
C1771 C1776 1.342 . S
C1772 C1773 1.310 . S
C1772 C1775 1.461 . S
C1772 H1792 0.932 . S
C1773 C1771 1.408 . S
C1773 C1772 1.310 . S
C1773 H1793 0.930 . S
C1774 C1775 1.474 . S
C1774 C1776 1.285 . S
C1774 H1794 0.929 . S
C1775 C1772 1.461 . S
C1775 C1774 1.474 . S
C1776 C1771 1.342 . S
C1776 C1774 1.285 . S
C1776 H1795 0.930 . S
C1777 C1780 1.424 . S
C1777 C1782 1.245 . S
C1777 C1783 1.428 . S
C1778 C1781 1.260 . S
C1778 C1782 1.477 . S
C1778 H1796 0.932 . S
C1779 C1780 1.384 . S
C1779 C1781 1.479 . S
C1779 H1797 0.929 . S
C1780 C1777 1.424 . S
C1780 C1779 1.384 . S
C1780 H1798 0.928 . S
C1781 C1778 1.260 . S
C1781 C1779 1.479 . S
C1782 C1777 1.245 . S
C1782 C1778 1.477 . S
C1782 H1799 0.932 . S
C1783 U1766 2.882 . S
C1783 C1777 1.428 . S
C1783 O1786 1.301 . S
C1783 O1787 1.282 . S
O1784 U1766 2.441 . S
O1784 C1770 1.249 . S
O1785 U1766 2.420 . S
O1785 C1770 1.202 . S
O1786 U1766 2.455 . S
O1786 C1783 1.301 . S
O1787 U1766 2.449 . S
O1787 C1783 1.282 . S
H1788 C1761 0.931 . S
H1789 C1763 0.929 . S
H1790 C1764 0.930 . S
H1791 C1765 0.931 . S
H1792 C1772 0.932 . S
H1793 C1773 0.930 . S
H1794 C1774 0.929 . S
H1795 C1776 0.930 . S
H1796 C1778 0.932 . S
H1797 C1779 0.929 . S
H1798 C1780 0.928 . S
H1799 C1782 0.932 . S
C1800 C1801 1.264 . S
C1800 C1805 1.479 . S
C1800 C1810 1.465 . S
C1801 C1800 1.264 . S
C1801 C1803 1.339 . S
C1801 H1828 0.931 . S
C1802 C1803 1.395 . S
C1802 C1804 1.320 . S
C1803 C1801 1.339 . S
C1803 C1802 1.395 . S
C1803 H1829 0.929 . S
C1804 C1802 1.320 . S
C1804 C1805 1.405 . S
C1804 H1830 0.930 . S
C1805 C1800 1.479 . S
C1805 C1804 1.405 . S
C1805 H1831 0.931 . S
U1806 O1807 2.454 . S
U1806 O1808 2.458 . S
U1806 C1809 2.984 . S
U1806 C1810 2.847 . S
U1806 C1823 2.882 . S
U1806 O1824 2.441 . S
U1806 O1825 2.420 . S
U1806 O1826 2.455 . S
U1806 O1827 2.449 . S
O1807 U1806 2.454 . S
O1807 C1809 1.353 . S
O1808 U1806 2.458 . S
O1808 C1809 1.286 . S
C1809 U1806 2.984 . S
C1809 O1807 1.353 . S
C1809 O1808 1.286 . S
C1809 C1811 1.363 . S
C1810 C1800 1.465 . S
C1810 U1806 2.847 . S
C1810 O1824 1.249 . S
C1810 O1825 1.202 . S
C1811 C1809 1.363 . S
C1811 C1813 1.408 . S
C1811 C1816 1.342 . S
C1812 C1813 1.310 . S
C1812 C1815 1.461 . S
C1812 H1832 0.932 . S
C1813 C1811 1.408 . S
C1813 C1812 1.310 . S
C1813 H1833 0.930 . S
C1814 C1815 1.474 . S
C1814 C1816 1.285 . S
C1814 H1834 0.929 . S
C1815 C1812 1.461 . S
C1815 C1814 1.474 . S
C1816 C1811 1.342 . S
C1816 C1814 1.285 . S
C1816 H1835 0.930 . S
C1817 C1820 1.424 . S
C1817 C1822 1.245 . S
C1817 C1823 1.428 . S
C1818 C1821 1.260 . S
C1818 C1822 1.477 . S
C1818 H1836 0.932 . S
C1819 C1820 1.384 . S
C1819 C1821 1.479 . S
C1819 H1837 0.929 . S
C1820 C1817 1.424 . S
C1820 C1819 1.384 . S
C1820 H1838 0.928 . S
C1821 C1818 1.260 . S
C1821 C1819 1.479 . S
C1822 C1817 1.245 . S
C1822 C1818 1.477 . S
C1822 H1839 0.932 . S
C1823 U1806 2.882 . S
C1823 C1817 1.428 . S
C1823 O1826 1.301 . S
C1823 O1827 1.282 . S
O1824 U1806 2.441 . S
O1824 C1810 1.249 . S
O1825 U1806 2.420 . S
O1825 C1810 1.202 . S
O1826 U1806 2.455 . S
O1826 C1823 1.301 . S
O1827 U1806 2.449 . S
O1827 C1823 1.282 . S
H1828 C1801 0.931 . S
H1829 C1803 0.929 . S
H1830 C1804 0.930 . S
H1831 C1805 0.931 . S
H1832 C1812 0.932 . S
H1833 C1813 0.930 . S
H1834 C1814 0.929 . S
H1835 C1816 0.930 . S
H1836 C1818 0.932 . S
H1837 C1819 0.929 . S
H1838 C1820 0.928 . S
H1839 C1822 0.932 . S
C1840 C1841 1.264 . S
C1840 C1845 1.479 . S
C1840 C1850 1.465 . S
C1841 C1840 1.264 . S
C1841 C1843 1.339 . S
C1841 H1868 0.931 . S
C1842 C1843 1.395 . S
C1842 C1844 1.320 . S
C1843 C1841 1.339 . S
C1843 C1842 1.395 . S
C1843 H1869 0.929 . S
C1844 C1842 1.320 . S
C1844 C1845 1.405 . S
C1844 H1870 0.930 . S
C1845 C1840 1.479 . S
C1845 C1844 1.405 . S
C1845 H1871 0.931 . S
U1846 O1847 2.454 . S
U1846 O1848 2.458 . S
U1846 C1849 2.984 . S
U1846 C1850 2.847 . S
U1846 C1863 2.882 . S
U1846 O1864 2.441 . S
U1846 O1865 2.420 . S
U1846 O1866 2.455 . S
U1846 O1867 2.449 . S
O1847 U1846 2.454 . S
O1847 C1849 1.353 . S
O1848 U1846 2.458 . S
O1848 C1849 1.286 . S
C1849 U1846 2.984 . S
C1849 O1847 1.353 . S
C1849 O1848 1.286 . S
C1849 C1851 1.363 . S
C1850 C1840 1.465 . S
C1850 U1846 2.847 . S
C1850 O1864 1.249 . S
C1850 O1865 1.202 . S
C1851 C1849 1.363 . S
C1851 C1853 1.408 . S
C1851 C1856 1.342 . S
C1852 C1853 1.310 . S
C1852 C1855 1.461 . S
C1852 H1872 0.932 . S
C1853 C1851 1.408 . S
C1853 C1852 1.310 . S
C1853 H1873 0.930 . S
C1854 C1855 1.474 . S
C1854 C1856 1.285 . S
C1854 H1874 0.929 . S
C1855 C1852 1.461 . S
C1855 C1854 1.474 . S
C1856 C1851 1.342 . S
C1856 C1854 1.285 . S
C1856 H1875 0.930 . S
C1857 C1860 1.424 . S
C1857 C1862 1.245 . S
C1857 C1863 1.428 . S
C1858 C1861 1.260 . S
C1858 C1862 1.477 . S
C1858 H1876 0.932 . S
C1859 C1860 1.384 . S
C1859 C1861 1.479 . S
C1859 H1877 0.929 . S
C1860 C1857 1.424 . S
C1860 C1859 1.384 . S
C1860 H1878 0.928 . S
C1861 C1858 1.260 . S
C1861 C1859 1.479 . S
C1862 C1857 1.245 . S
C1862 C1858 1.477 . S
C1862 H1879 0.932 . S
C1863 U1846 2.882 . S
C1863 C1857 1.428 . S
C1863 O1866 1.301 . S
C1863 O1867 1.282 . S
O1864 U1846 2.441 . S
O1864 C1850 1.249 . S
O1865 U1846 2.420 . S
O1865 C1850 1.202 . S
O1866 U1846 2.455 . S
O1866 C1863 1.301 . S
O1867 U1846 2.449 . S
O1867 C1863 1.282 . S
H1868 C1841 0.931 . S
H1869 C1843 0.929 . S
H1870 C1844 0.930 . S
H1871 C1845 0.931 . S
H1872 C1852 0.932 . S
H1873 C1853 0.930 . S
H1874 C1854 0.929 . S
H1875 C1856 0.930 . S
H1876 C1858 0.932 . S
H1877 C1859 0.929 . S
H1878 C1860 0.928 . S
H1879 C1862 0.932 . S
C1880 C1881 1.264 . S
C1880 C1885 1.479 . S
C1880 C1890 1.465 . S
C1881 C1880 1.264 . S
C1881 C1883 1.339 . S
C1881 H1908 0.931 . S
C1882 C1883 1.395 . S
C1882 C1884 1.320 . S
C1883 C1881 1.339 . S
C1883 C1882 1.395 . S
C1883 H1909 0.929 . S
C1884 C1882 1.320 . S
C1884 C1885 1.405 . S
C1884 H1910 0.930 . S
C1885 C1880 1.479 . S
C1885 C1884 1.405 . S
C1885 H1911 0.931 . S
U1886 O1887 2.454 . S
U1886 O1888 2.458 . S
U1886 C1889 2.984 . S
U1886 C1890 2.847 . S
U1886 C1903 2.882 . S
U1886 O1904 2.441 . S
U1886 O1905 2.420 . S
U1886 O1906 2.455 . S
U1886 O1907 2.449 . S
O1887 U1886 2.454 . S
O1887 C1889 1.353 . S
O1888 U1886 2.458 . S
O1888 C1889 1.286 . S
C1889 U1886 2.984 . S
C1889 O1887 1.353 . S
C1889 O1888 1.286 . S
C1889 C1891 1.363 . S
C1890 C1880 1.465 . S
C1890 U1886 2.847 . S
C1890 O1904 1.249 . S
C1890 O1905 1.202 . S
C1891 C1889 1.363 . S
C1891 C1893 1.408 . S
C1891 C1896 1.342 . S
C1892 C1893 1.310 . S
C1892 C1895 1.461 . S
C1892 H1912 0.932 . S
C1893 C1891 1.408 . S
C1893 C1892 1.310 . S
C1893 H1913 0.930 . S
C1894 C1895 1.474 . S
C1894 C1896 1.285 . S
C1894 H1914 0.929 . S
C1895 C1892 1.461 . S
C1895 C1894 1.474 . S
C1896 C1891 1.342 . S
C1896 C1894 1.285 . S
C1896 H1915 0.930 . S
C1897 C1900 1.424 . S
C1897 C1902 1.245 . S
C1897 C1903 1.428 . S
C1898 C1901 1.260 . S
C1898 C1902 1.477 . S
C1898 H1916 0.932 . S
C1899 C1900 1.384 . S
C1899 C1901 1.479 . S
C1899 H1917 0.929 . S
C1900 C1897 1.424 . S
C1900 C1899 1.384 . S
C1900 H1918 0.928 . S
C1901 C1898 1.260 . S
C1901 C1899 1.479 . S
C1902 C1897 1.245 . S
C1902 C1898 1.477 . S
C1902 H1919 0.932 . S
C1903 U1886 2.882 . S
C1903 C1897 1.428 . S
C1903 O1906 1.301 . S
C1903 O1907 1.282 . S
O1904 U1886 2.441 . S
O1904 C1890 1.249 . S
O1905 U1886 2.420 . S
O1905 C1890 1.202 . S
O1906 U1886 2.455 . S
O1906 C1903 1.301 . S
O1907 U1886 2.449 . S
O1907 C1903 1.282 . S
H1908 C1881 0.931 . S
H1909 C1883 0.929 . S
H1910 C1884 0.930 . S
H1911 C1885 0.931 . S
H1912 C1892 0.932 . S
H1913 C1893 0.930 . S
H1914 C1894 0.929 . S
H1915 C1896 0.930 . S
H1916 C1898 0.932 . S
H1917 C1899 0.929 . S
H1918 C1900 0.928 . S
H1919 C1902 0.932 . S
C1920 C1921 1.264 . S
C1920 C1925 1.479 . S
C1920 C1930 1.465 . S
C1921 C1920 1.264 . S
C1921 C1923 1.339 . S
C1921 H1948 0.931 . S
C1922 C1923 1.395 . S
C1922 C1924 1.320 . S
C1923 C1921 1.339 . S
C1923 C1922 1.395 . S
C1923 H1949 0.929 . S
C1924 C1922 1.320 . S
C1924 C1925 1.405 . S
C1924 H1950 0.930 . S
C1925 C1920 1.479 . S
C1925 C1924 1.405 . S
C1925 H1951 0.931 . S
U1926 O1927 2.454 . S
U1926 O1928 2.458 . S
U1926 C1929 2.984 . S
U1926 C1930 2.847 . S
U1926 C1943 2.882 . S
U1926 O1944 2.441 . S
U1926 O1945 2.420 . S
U1926 O1946 2.455 . S
U1926 O1947 2.449 . S
O1927 U1926 2.454 . S
O1927 C1929 1.353 . S
O1928 U1926 2.458 . S
O1928 C1929 1.286 . S
C1929 U1926 2.984 . S
C1929 O1927 1.353 . S
C1929 O1928 1.286 . S
C1929 C1931 1.363 . S
C1930 C1920 1.465 . S
C1930 U1926 2.847 . S
C1930 O1944 1.249 . S
C1930 O1945 1.202 . S
C1931 C1929 1.363 . S
C1931 C1933 1.408 . S
C1931 C1936 1.342 . S
C1932 C1933 1.310 . S
C1932 C1935 1.461 . S
C1932 H1952 0.932 . S
C1933 C1931 1.408 . S
C1933 C1932 1.310 . S
C1933 H1953 0.930 . S
C1934 C1935 1.474 . S
C1934 C1936 1.285 . S
C1934 H1954 0.929 . S
C1935 C1932 1.461 . S
C1935 C1934 1.474 . S
C1936 C1931 1.342 . S
C1936 C1934 1.285 . S
C1936 H1955 0.930 . S
C1937 C1940 1.424 . S
C1937 C1942 1.245 . S
C1937 C1943 1.428 . S
C1938 C1941 1.260 . S
C1938 C1942 1.477 . S
C1938 H1956 0.932 . S
C1939 C1940 1.384 . S
C1939 C1941 1.479 . S
C1939 H1957 0.929 . S
C1940 C1937 1.424 . S
C1940 C1939 1.384 . S
C1940 H1958 0.928 . S
C1941 C1938 1.260 . S
C1941 C1939 1.479 . S
C1942 C1937 1.245 . S
C1942 C1938 1.477 . S
C1942 H1959 0.932 . S
C1943 U1926 2.882 . S
C1943 C1937 1.428 . S
C1943 O1946 1.301 . S
C1943 O1947 1.282 . S
O1944 U1926 2.441 . S
O1944 C1930 1.249 . S
O1945 U1926 2.420 . S
O1945 C1930 1.202 . S
O1946 U1926 2.455 . S
O1946 C1943 1.301 . S
O1947 U1926 2.449 . S
O1947 C1943 1.282 . S
H1948 C1921 0.931 . S
H1949 C1923 0.929 . S
H1950 C1924 0.930 . S
H1951 C1925 0.931 . S
H1952 C1932 0.932 . S
H1953 C1933 0.930 . S
H1954 C1934 0.929 . S
H1955 C1936 0.930 . S
H1956 C1938 0.932 . S
H1957 C1939 0.929 . S
H1958 C1940 0.928 . S
H1959 C1942 0.932 . S
C1960 C1961 1.264 . S
C1960 C1965 1.479 . S
C1960 C1970 1.465 . S
C1961 C1960 1.264 . S
C1961 C1963 1.339 . S
C1961 H1988 0.931 . S
C1962 C1963 1.395 . S
C1962 C1964 1.320 . S
C1963 C1961 1.339 . S
C1963 C1962 1.395 . S
C1963 H1989 0.929 . S
C1964 C1962 1.320 . S
C1964 C1965 1.405 . S
C1964 H1990 0.930 . S
C1965 C1960 1.479 . S
C1965 C1964 1.405 . S
C1965 H1991 0.931 . S
U1966 O1967 2.454 . S
U1966 O1968 2.458 . S
U1966 C1969 2.984 . S
U1966 C1970 2.847 . S
U1966 C1983 2.882 . S
U1966 O1984 2.441 . S
U1966 O1985 2.420 . S
U1966 O1986 2.455 . S
U1966 O1987 2.449 . S
O1967 U1966 2.454 . S
O1967 C1969 1.353 . S
O1968 U1966 2.458 . S
O1968 C1969 1.286 . S
C1969 U1966 2.984 . S
C1969 O1967 1.353 . S
C1969 O1968 1.286 . S
C1969 C1971 1.363 . S
C1970 C1960 1.465 . S
C1970 U1966 2.847 . S
C1970 O1984 1.249 . S
C1970 O1985 1.202 . S
C1971 C1969 1.363 . S
C1971 C1973 1.408 . S
C1971 C1976 1.342 . S
C1972 C1973 1.310 . S
C1972 C1975 1.461 . S
C1972 H1992 0.932 . S
C1973 C1971 1.408 . S
C1973 C1972 1.310 . S
C1973 H1993 0.930 . S
C1974 C1975 1.474 . S
C1974 C1976 1.285 . S
C1974 H1994 0.929 . S
C1975 C1972 1.461 . S
C1975 C1974 1.474 . S
C1976 C1971 1.342 . S
C1976 C1974 1.285 . S
C1976 H1995 0.930 . S
C1977 C1980 1.424 . S
C1977 C1982 1.245 . S
C1977 C1983 1.428 . S
C1978 C1981 1.260 . S
C1978 C1982 1.477 . S
C1978 H1996 0.932 . S
C1979 C1980 1.384 . S
C1979 C1981 1.479 . S
C1979 H1997 0.929 . S
C1980 C1977 1.424 . S
C1980 C1979 1.384 . S
C1980 H1998 0.928 . S
C1981 C1978 1.260 . S
C1981 C1979 1.479 . S
C1982 C1977 1.245 . S
C1982 C1978 1.477 . S
C1982 H1999 0.932 . S
C1983 U1966 2.882 . S
C1983 C1977 1.428 . S
C1983 O1986 1.301 . S
C1983 O1987 1.282 . S
O1984 U1966 2.441 . S
O1984 C1970 1.249 . S
O1985 U1966 2.420 . S
O1985 C1970 1.202 . S
O1986 U1966 2.455 . S
O1986 C1983 1.301 . S
O1987 U1966 2.449 . S
O1987 C1983 1.282 . S
H1988 C1961 0.931 . S
H1989 C1963 0.929 . S
H1990 C1964 0.930 . S
H1991 C1965 0.931 . S
H1992 C1972 0.932 . S
H1993 C1973 0.930 . S
H1994 C1974 0.929 . S
H1995 C1976 0.930 . S
H1996 C1978 0.932 . S
H1997 C1979 0.929 . S
H1998 C1980 0.928 . S
H1999 C1982 0.932 . S
C2000 C2001 1.264 . S
C2000 C2005 1.479 . S
C2000 C2010 1.465 . S
C2001 C2000 1.264 . S
C2001 C2003 1.339 . S
C2001 H2028 0.931 . S
C2002 C2003 1.395 . S
C2002 C2004 1.320 . S
C2003 C2001 1.339 . S
C2003 C2002 1.395 . S
C2003 H2029 0.929 . S
C2004 C2002 1.320 . S
C2004 C2005 1.405 . S
C2004 H2030 0.930 . S
C2005 C2000 1.479 . S
C2005 C2004 1.405 . S
C2005 H2031 0.931 . S
U2006 O2007 2.454 . S
U2006 O2008 2.458 . S
U2006 C2009 2.984 . S
U2006 C2010 2.847 . S
U2006 C2023 2.882 . S
U2006 O2024 2.441 . S
U2006 O2025 2.420 . S
U2006 O2026 2.455 . S
U2006 O2027 2.449 . S
O2007 U2006 2.454 . S
O2007 C2009 1.353 . S
O2008 U2006 2.458 . S
O2008 C2009 1.286 . S
C2009 U2006 2.984 . S
C2009 O2007 1.353 . S
C2009 O2008 1.286 . S
C2009 C2011 1.363 . S
C2010 C2000 1.465 . S
C2010 U2006 2.847 . S
C2010 O2024 1.249 . S
C2010 O2025 1.202 . S
C2011 C2009 1.363 . S
C2011 C2013 1.408 . S
C2011 C2016 1.342 . S
C2012 C2013 1.310 . S
C2012 C2015 1.461 . S
C2012 H2032 0.932 . S
C2013 C2011 1.408 . S
C2013 C2012 1.310 . S
C2013 H2033 0.930 . S
C2014 C2015 1.474 . S
C2014 C2016 1.285 . S
C2014 H2034 0.929 . S
C2015 C2012 1.461 . S
C2015 C2014 1.474 . S
C2016 C2011 1.342 . S
C2016 C2014 1.285 . S
C2016 H2035 0.930 . S
C2017 C2020 1.424 . S
C2017 C2022 1.245 . S
C2017 C2023 1.428 . S
C2018 C2021 1.260 . S
C2018 C2022 1.477 . S
C2018 H2036 0.932 . S
C2019 C2020 1.384 . S
C2019 C2021 1.479 . S
C2019 H2037 0.929 . S
C2020 C2017 1.424 . S
C2020 C2019 1.384 . S
C2020 H2038 0.928 . S
C2021 C2018 1.260 . S
C2021 C2019 1.479 . S
C2022 C2017 1.245 . S
C2022 C2018 1.477 . S
C2022 H2039 0.932 . S
C2023 U2006 2.882 . S
C2023 C2017 1.428 . S
C2023 O2026 1.301 . S
C2023 O2027 1.282 . S
O2024 U2006 2.441 . S
O2024 C2010 1.249 . S
O2025 U2006 2.420 . S
O2025 C2010 1.202 . S
O2026 U2006 2.455 . S
O2026 C2023 1.301 . S
O2027 U2006 2.449 . S
O2027 C2023 1.282 . S
H2028 C2001 0.931 . S
H2029 C2003 0.929 . S
H2030 C2004 0.930 . S
H2031 C2005 0.931 . S
H2032 C2012 0.932 . S
H2033 C2013 0.930 . S
H2034 C2014 0.929 . S
H2035 C2016 0.930 . S
H2036 C2018 0.932 . S
H2037 C2019 0.929 . S
H2038 C2020 0.928 . S
H2039 C2022 0.932 . S
C2040 C2041 1.264 . S
C2040 C2045 1.479 . S
C2040 C2050 1.465 . S
C2041 C2040 1.264 . S
C2041 C2043 1.339 . S
C2041 H2068 0.931 . S
C2042 C2043 1.395 . S
C2042 C2044 1.320 . S
C2043 C2041 1.339 . S
C2043 C2042 1.395 . S
C2043 H2069 0.929 . S
C2044 C2042 1.320 . S
C2044 C2045 1.405 . S
C2044 H2070 0.930 . S
C2045 C2040 1.479 . S
C2045 C2044 1.405 . S
C2045 H2071 0.931 . S
U2046 O2047 2.454 . S
U2046 O2048 2.458 . S
U2046 C2049 2.984 . S
U2046 C2050 2.847 . S
U2046 C2063 2.882 . S
U2046 O2064 2.441 . S
U2046 O2065 2.420 . S
U2046 O2066 2.455 . S
U2046 O2067 2.449 . S
O2047 U2046 2.454 . S
O2047 C2049 1.353 . S
O2048 U2046 2.458 . S
O2048 C2049 1.286 . S
C2049 U2046 2.984 . S
C2049 O2047 1.353 . S
C2049 O2048 1.286 . S
C2049 C2051 1.363 . S
C2050 C2040 1.465 . S
C2050 U2046 2.847 . S
C2050 O2064 1.249 . S
C2050 O2065 1.202 . S
C2051 C2049 1.363 . S
C2051 C2053 1.408 . S
C2051 C2056 1.342 . S
C2052 C2053 1.310 . S
C2052 C2055 1.461 . S
C2052 H2072 0.932 . S
C2053 C2051 1.408 . S
C2053 C2052 1.310 . S
C2053 H2073 0.930 . S
C2054 C2055 1.474 . S
C2054 C2056 1.285 . S
C2054 H2074 0.929 . S
C2055 C2052 1.461 . S
C2055 C2054 1.474 . S
C2056 C2051 1.342 . S
C2056 C2054 1.285 . S
C2056 H2075 0.930 . S
C2057 C2060 1.424 . S
C2057 C2062 1.245 . S
C2057 C2063 1.428 . S
C2058 C2061 1.260 . S
C2058 C2062 1.477 . S
C2058 H2076 0.932 . S
C2059 C2060 1.384 . S
C2059 C2061 1.479 . S
C2059 H2077 0.929 . S
C2060 C2057 1.424 . S
C2060 C2059 1.384 . S
C2060 H2078 0.928 . S
C2061 C2058 1.260 . S
C2061 C2059 1.479 . S
C2062 C2057 1.245 . S
C2062 C2058 1.477 . S
C2062 H2079 0.932 . S
C2063 U2046 2.882 . S
C2063 C2057 1.428 . S
C2063 O2066 1.301 . S
C2063 O2067 1.282 . S
O2064 U2046 2.441 . S
O2064 C2050 1.249 . S
O2065 U2046 2.420 . S
O2065 C2050 1.202 . S
O2066 U2046 2.455 . S
O2066 C2063 1.301 . S
O2067 U2046 2.449 . S
O2067 C2063 1.282 . S
H2068 C2041 0.931 . S
H2069 C2043 0.929 . S
H2070 C2044 0.930 . S
H2071 C2045 0.931 . S
H2072 C2052 0.932 . S
H2073 C2053 0.930 . S
H2074 C2054 0.929 . S
H2075 C2056 0.930 . S
H2076 C2058 0.932 . S
H2077 C2059 0.929 . S
H2078 C2060 0.928 . S
H2079 C2062 0.932 . S
C2080 C2081 1.264 . S
C2080 C2085 1.479 . S
C2080 C2090 1.465 . S
C2081 C2080 1.264 . S
C2081 C2083 1.339 . S
C2081 H2108 0.931 . S
C2082 C2083 1.395 . S
C2082 C2084 1.320 . S
C2083 C2081 1.339 . S
C2083 C2082 1.395 . S
C2083 H2109 0.929 . S
C2084 C2082 1.320 . S
C2084 C2085 1.405 . S
C2084 H2110 0.930 . S
C2085 C2080 1.479 . S
C2085 C2084 1.405 . S
C2085 H2111 0.931 . S
U2086 O2087 2.454 . S
U2086 O2088 2.458 . S
U2086 C2089 2.984 . S
U2086 C2090 2.847 . S
U2086 C2103 2.882 . S
U2086 O2104 2.441 . S
U2086 O2105 2.420 . S
U2086 O2106 2.455 . S
U2086 O2107 2.449 . S
O2087 U2086 2.454 . S
O2087 C2089 1.353 . S
O2088 U2086 2.458 . S
O2088 C2089 1.286 . S
C2089 U2086 2.984 . S
C2089 O2087 1.353 . S
C2089 O2088 1.286 . S
C2089 C2091 1.363 . S
C2090 C2080 1.465 . S
C2090 U2086 2.847 . S
C2090 O2104 1.249 . S
C2090 O2105 1.202 . S
C2091 C2089 1.363 . S
C2091 C2093 1.408 . S
C2091 C2096 1.342 . S
C2092 C2093 1.310 . S
C2092 C2095 1.461 . S
C2092 H2112 0.932 . S
C2093 C2091 1.408 . S
C2093 C2092 1.310 . S
C2093 H2113 0.930 . S
C2094 C2095 1.474 . S
C2094 C2096 1.285 . S
C2094 H2114 0.929 . S
C2095 C2092 1.461 . S
C2095 C2094 1.474 . S
C2096 C2091 1.342 . S
C2096 C2094 1.285 . S
C2096 H2115 0.930 . S
C2097 C2100 1.424 . S
C2097 C2102 1.245 . S
C2097 C2103 1.428 . S
C2098 C2101 1.260 . S
C2098 C2102 1.477 . S
C2098 H2116 0.932 . S
C2099 C2100 1.384 . S
C2099 C2101 1.479 . S
C2099 H2117 0.929 . S
C2100 C2097 1.424 . S
C2100 C2099 1.384 . S
C2100 H2118 0.928 . S
C2101 C2098 1.260 . S
C2101 C2099 1.479 . S
C2102 C2097 1.245 . S
C2102 C2098 1.477 . S
C2102 H2119 0.932 . S
C2103 U2086 2.882 . S
C2103 C2097 1.428 . S
C2103 O2106 1.301 . S
C2103 O2107 1.282 . S
O2104 U2086 2.441 . S
O2104 C2090 1.249 . S
O2105 U2086 2.420 . S
O2105 C2090 1.202 . S
O2106 U2086 2.455 . S
O2106 C2103 1.301 . S
O2107 U2086 2.449 . S
O2107 C2103 1.282 . S
H2108 C2081 0.931 . S
H2109 C2083 0.929 . S
H2110 C2084 0.930 . S
H2111 C2085 0.931 . S
H2112 C2092 0.932 . S
H2113 C2093 0.930 . S
H2114 C2094 0.929 . S
H2115 C2096 0.930 . S
H2116 C2098 0.932 . S
H2117 C2099 0.929 . S
H2118 C2100 0.928 . S
H2119 C2102 0.932 . S
C2120 C2121 1.264 . S
C2120 C2125 1.479 . S
C2120 C2130 1.465 . S
C2121 C2120 1.264 . S
C2121 C2123 1.339 . S
C2121 H2148 0.931 . S
C2122 C2123 1.395 . S
C2122 C2124 1.320 . S
C2123 C2121 1.339 . S
C2123 C2122 1.395 . S
C2123 H2149 0.929 . S
C2124 C2122 1.320 . S
C2124 C2125 1.405 . S
C2124 H2150 0.930 . S
C2125 C2120 1.479 . S
C2125 C2124 1.405 . S
C2125 H2151 0.931 . S
U2126 O2127 2.454 . S
U2126 O2128 2.458 . S
U2126 C2129 2.984 . S
U2126 C2130 2.847 . S
U2126 C2143 2.882 . S
U2126 O2144 2.441 . S
U2126 O2145 2.420 . S
U2126 O2146 2.455 . S
U2126 O2147 2.449 . S
O2127 U2126 2.454 . S
O2127 C2129 1.353 . S
O2128 U2126 2.458 . S
O2128 C2129 1.286 . S
C2129 U2126 2.984 . S
C2129 O2127 1.353 . S
C2129 O2128 1.286 . S
C2129 C2131 1.363 . S
C2130 C2120 1.465 . S
C2130 U2126 2.847 . S
C2130 O2144 1.249 . S
C2130 O2145 1.202 . S
C2131 C2129 1.363 . S
C2131 C2133 1.408 . S
C2131 C2136 1.342 . S
C2132 C2133 1.310 . S
C2132 C2135 1.461 . S
C2132 H2152 0.932 . S
C2133 C2131 1.408 . S
C2133 C2132 1.310 . S
C2133 H2153 0.930 . S
C2134 C2135 1.474 . S
C2134 C2136 1.285 . S
C2134 H2154 0.929 . S
C2135 C2132 1.461 . S
C2135 C2134 1.474 . S
C2136 C2131 1.342 . S
C2136 C2134 1.285 . S
C2136 H2155 0.930 . S
C2137 C2140 1.424 . S
C2137 C2142 1.245 . S
C2137 C2143 1.428 . S
C2138 C2141 1.260 . S
C2138 C2142 1.477 . S
C2138 H2156 0.932 . S
C2139 C2140 1.384 . S
C2139 C2141 1.479 . S
C2139 H2157 0.929 . S
C2140 C2137 1.424 . S
C2140 C2139 1.384 . S
C2140 H2158 0.928 . S
C2141 C2138 1.260 . S
C2141 C2139 1.479 . S
C2142 C2137 1.245 . S
C2142 C2138 1.477 . S
C2142 H2159 0.932 . S
C2143 U2126 2.882 . S
C2143 C2137 1.428 . S
C2143 O2146 1.301 . S
C2143 O2147 1.282 . S
O2144 U2126 2.441 . S
O2144 C2130 1.249 . S
O2145 U2126 2.420 . S
O2145 C2130 1.202 . S
O2146 U2126 2.455 . S
O2146 C2143 1.301 . S
O2147 U2126 2.449 . S
O2147 C2143 1.282 . S
H2148 C2121 0.931 . S
H2149 C2123 0.929 . S
H2150 C2124 0.930 . S
H2151 C2125 0.931 . S
H2152 C2132 0.932 . S
H2153 C2133 0.930 . S
H2154 C2134 0.929 . S
H2155 C2136 0.930 . S
H2156 C2138 0.932 . S
H2157 C2139 0.929 . S
H2158 C2140 0.928 . S
H2159 C2142 0.932 . S
C2160 C2161 1.264 . S
C2160 C2165 1.479 . S
C2160 C2170 1.465 . S
C2161 C2160 1.264 . S
C2161 C2163 1.339 . S
C2161 H2188 0.931 . S
C2162 C2163 1.395 . S
C2162 C2164 1.320 . S
C2163 C2161 1.339 . S
C2163 C2162 1.395 . S
C2163 H2189 0.929 . S
C2164 C2162 1.320 . S
C2164 C2165 1.405 . S
C2164 H2190 0.930 . S
C2165 C2160 1.479 . S
C2165 C2164 1.405 . S
C2165 H2191 0.931 . S
U2166 O2167 2.454 . S
U2166 O2168 2.458 . S
U2166 C2169 2.984 . S
U2166 C2170 2.847 . S
U2166 C2183 2.882 . S
U2166 O2184 2.441 . S
U2166 O2185 2.420 . S
U2166 O2186 2.455 . S
U2166 O2187 2.449 . S
O2167 U2166 2.454 . S
O2167 C2169 1.353 . S
O2168 U2166 2.458 . S
O2168 C2169 1.286 . S
C2169 U2166 2.984 . S
C2169 O2167 1.353 . S
C2169 O2168 1.286 . S
C2169 C2171 1.363 . S
C2170 C2160 1.465 . S
C2170 U2166 2.847 . S
C2170 O2184 1.249 . S
C2170 O2185 1.202 . S
C2171 C2169 1.363 . S
C2171 C2173 1.408 . S
C2171 C2176 1.342 . S
C2172 C2173 1.310 . S
C2172 C2175 1.461 . S
C2172 H2192 0.932 . S
C2173 C2171 1.408 . S
C2173 C2172 1.310 . S
C2173 H2193 0.930 . S
C2174 C2175 1.474 . S
C2174 C2176 1.285 . S
C2174 H2194 0.929 . S
C2175 C2172 1.461 . S
C2175 C2174 1.474 . S
C2176 C2171 1.342 . S
C2176 C2174 1.285 . S
C2176 H2195 0.930 . S
C2177 C2180 1.424 . S
C2177 C2182 1.245 . S
C2177 C2183 1.428 . S
C2178 C2181 1.260 . S
C2178 C2182 1.477 . S
C2178 H2196 0.932 . S
C2179 C2180 1.384 . S
C2179 C2181 1.479 . S
C2179 H2197 0.929 . S
C2180 C2177 1.424 . S
C2180 C2179 1.384 . S
C2180 H2198 0.928 . S
C2181 C2178 1.260 . S
C2181 C2179 1.479 . S
C2182 C2177 1.245 . S
C2182 C2178 1.477 . S
C2182 H2199 0.932 . S
C2183 U2166 2.882 . S
C2183 C2177 1.428 . S
C2183 O2186 1.301 . S
C2183 O2187 1.282 . S
O2184 U2166 2.441 . S
O2184 C2170 1.249 . S
O2185 U2166 2.420 . S
O2185 C2170 1.202 . S
O2186 U2166 2.455 . S
O2186 C2183 1.301 . S
O2187 U2166 2.449 . S
O2187 C2183 1.282 . S
H2188 C2161 0.931 . S
H2189 C2163 0.929 . S
H2190 C2164 0.930 . S
H2191 C2165 0.931 . S
H2192 C2172 0.932 . S
H2193 C2173 0.930 . S
H2194 C2174 0.929 . S
H2195 C2176 0.930 . S
H2196 C2178 0.932 . S
H2197 C2179 0.929 . S
H2198 C2180 0.928 . S
H2199 C2182 0.932 . S
C2200 C2201 1.264 . S
C2200 C2205 1.479 . S
C2200 C2210 1.465 . S
C2201 C2200 1.264 . S
C2201 C2203 1.339 . S
C2201 H2228 0.931 . S
C2202 C2203 1.395 . S
C2202 C2204 1.320 . S
C2203 C2201 1.339 . S
C2203 C2202 1.395 . S
C2203 H2229 0.929 . S
C2204 C2202 1.320 . S
C2204 C2205 1.405 . S
C2204 H2230 0.930 . S
C2205 C2200 1.479 . S
C2205 C2204 1.405 . S
C2205 H2231 0.931 . S
U2206 O2207 2.454 . S
U2206 O2208 2.458 . S
U2206 C2209 2.984 . S
U2206 C2210 2.847 . S
U2206 C2223 2.882 . S
U2206 O2224 2.441 . S
U2206 O2225 2.420 . S
U2206 O2226 2.455 . S
U2206 O2227 2.449 . S
O2207 U2206 2.454 . S
O2207 C2209 1.353 . S
O2208 U2206 2.458 . S
O2208 C2209 1.286 . S
C2209 U2206 2.984 . S
C2209 O2207 1.353 . S
C2209 O2208 1.286 . S
C2209 C2211 1.363 . S
C2210 C2200 1.465 . S
C2210 U2206 2.847 . S
C2210 O2224 1.249 . S
C2210 O2225 1.202 . S
C2211 C2209 1.363 . S
C2211 C2213 1.408 . S
C2211 C2216 1.342 . S
C2212 C2213 1.310 . S
C2212 C2215 1.461 . S
C2212 H2232 0.932 . S
C2213 C2211 1.408 . S
C2213 C2212 1.310 . S
C2213 H2233 0.930 . S
C2214 C2215 1.474 . S
C2214 C2216 1.285 . S
C2214 H2234 0.929 . S
C2215 C2212 1.461 . S
C2215 C2214 1.474 . S
C2216 C2211 1.342 . S
C2216 C2214 1.285 . S
C2216 H2235 0.930 . S
C2217 C2220 1.424 . S
C2217 C2222 1.245 . S
C2217 C2223 1.428 . S
C2218 C2221 1.260 . S
C2218 C2222 1.477 . S
C2218 H2236 0.932 . S
C2219 C2220 1.384 . S
C2219 C2221 1.479 . S
C2219 H2237 0.929 . S
C2220 C2217 1.424 . S
C2220 C2219 1.384 . S
C2220 H2238 0.928 . S
C2221 C2218 1.260 . S
C2221 C2219 1.479 . S
C2222 C2217 1.245 . S
C2222 C2218 1.477 . S
C2222 H2239 0.932 . S
C2223 U2206 2.882 . S
C2223 C2217 1.428 . S
C2223 O2226 1.301 . S
C2223 O2227 1.282 . S
O2224 U2206 2.441 . S
O2224 C2210 1.249 . S
O2225 U2206 2.420 . S
O2225 C2210 1.202 . S
O2226 U2206 2.455 . S
O2226 C2223 1.301 . S
O2227 U2206 2.449 . S
O2227 C2223 1.282 . S
H2228 C2201 0.931 . S
H2229 C2203 0.929 . S
H2230 C2204 0.930 . S
H2231 C2205 0.931 . S
H2232 C2212 0.932 . S
H2233 C2213 0.930 . S
H2234 C2214 0.929 . S
H2235 C2216 0.930 . S
H2236 C2218 0.932 . S
H2237 C2219 0.929 . S
H2238 C2220 0.928 . S
H2239 C2222 0.932 . S
C2240 C2241 1.264 . S
C2240 C2245 1.479 . S
C2240 C2250 1.465 . S
C2241 C2240 1.264 . S
C2241 C2243 1.339 . S
C2241 H2268 0.931 . S
C2242 C2243 1.395 . S
C2242 C2244 1.320 . S
C2243 C2241 1.339 . S
C2243 C2242 1.395 . S
C2243 H2269 0.929 . S
C2244 C2242 1.320 . S
C2244 C2245 1.405 . S
C2244 H2270 0.930 . S
C2245 C2240 1.479 . S
C2245 C2244 1.405 . S
C2245 H2271 0.931 . S
U2246 O2247 2.454 . S
U2246 O2248 2.458 . S
U2246 C2249 2.984 . S
U2246 C2250 2.847 . S
U2246 C2263 2.882 . S
U2246 O2264 2.441 . S
U2246 O2265 2.420 . S
U2246 O2266 2.455 . S
U2246 O2267 2.449 . S
O2247 U2246 2.454 . S
O2247 C2249 1.353 . S
O2248 U2246 2.458 . S
O2248 C2249 1.286 . S
C2249 U2246 2.984 . S
C2249 O2247 1.353 . S
C2249 O2248 1.286 . S
C2249 C2251 1.363 . S
C2250 C2240 1.465 . S
C2250 U2246 2.847 . S
C2250 O2264 1.249 . S
C2250 O2265 1.202 . S
C2251 C2249 1.363 . S
C2251 C2253 1.408 . S
C2251 C2256 1.342 . S
C2252 C2253 1.310 . S
C2252 C2255 1.461 . S
C2252 H2272 0.932 . S
C2253 C2251 1.408 . S
C2253 C2252 1.310 . S
C2253 H2273 0.930 . S
C2254 C2255 1.474 . S
C2254 C2256 1.285 . S
C2254 H2274 0.929 . S
C2255 C2252 1.461 . S
C2255 C2254 1.474 . S
C2256 C2251 1.342 . S
C2256 C2254 1.285 . S
C2256 H2275 0.930 . S
C2257 C2260 1.424 . S
C2257 C2262 1.245 . S
C2257 C2263 1.428 . S
C2258 C2261 1.260 . S
C2258 C2262 1.477 . S
C2258 H2276 0.932 . S
C2259 C2260 1.384 . S
C2259 C2261 1.479 . S
C2259 H2277 0.929 . S
C2260 C2257 1.424 . S
C2260 C2259 1.384 . S
C2260 H2278 0.928 . S
C2261 C2258 1.260 . S
C2261 C2259 1.479 . S
C2262 C2257 1.245 . S
C2262 C2258 1.477 . S
C2262 H2279 0.932 . S
C2263 U2246 2.882 . S
C2263 C2257 1.428 . S
C2263 O2266 1.301 . S
C2263 O2267 1.282 . S
O2264 U2246 2.441 . S
O2264 C2250 1.249 . S
O2265 U2246 2.420 . S
O2265 C2250 1.202 . S
O2266 U2246 2.455 . S
O2266 C2263 1.301 . S
O2267 U2246 2.449 . S
O2267 C2263 1.282 . S
H2268 C2241 0.931 . S
H2269 C2243 0.929 . S
H2270 C2244 0.930 . S
H2271 C2245 0.931 . S
H2272 C2252 0.932 . S
H2273 C2253 0.930 . S
H2274 C2254 0.929 . S
H2275 C2256 0.930 . S
H2276 C2258 0.932 . S
H2277 C2259 0.929 . S
H2278 C2260 0.928 . S
H2279 C2262 0.932 . S
C2280 C2281 1.264 . S
C2280 C2285 1.479 . S
C2280 C2290 1.465 . S
C2281 C2280 1.264 . S
C2281 C2283 1.339 . S
C2281 H2308 0.931 . S
C2282 C2283 1.395 . S
C2282 C2284 1.320 . S
C2283 C2281 1.339 . S
C2283 C2282 1.395 . S
C2283 H2309 0.929 . S
C2284 C2282 1.320 . S
C2284 C2285 1.405 . S
C2284 H2310 0.930 . S
C2285 C2280 1.479 . S
C2285 C2284 1.405 . S
C2285 H2311 0.931 . S
U2286 O2287 2.454 . S
U2286 O2288 2.458 . S
U2286 C2289 2.984 . S
U2286 C2290 2.847 . S
U2286 C2303 2.882 . S
U2286 O2304 2.441 . S
U2286 O2305 2.420 . S
U2286 O2306 2.455 . S
U2286 O2307 2.449 . S
O2287 U2286 2.454 . S
O2287 C2289 1.353 . S
O2288 U2286 2.458 . S
O2288 C2289 1.286 . S
C2289 U2286 2.984 . S
C2289 O2287 1.353 . S
C2289 O2288 1.286 . S
C2289 C2291 1.363 . S
C2290 C2280 1.465 . S
C2290 U2286 2.847 . S
C2290 O2304 1.249 . S
C2290 O2305 1.202 . S
C2291 C2289 1.363 . S
C2291 C2293 1.408 . S
C2291 C2296 1.342 . S
C2292 C2293 1.310 . S
C2292 C2295 1.461 . S
C2292 H2312 0.932 . S
C2293 C2291 1.408 . S
C2293 C2292 1.310 . S
C2293 H2313 0.930 . S
C2294 C2295 1.474 . S
C2294 C2296 1.285 . S
C2294 H2314 0.929 . S
C2295 C2292 1.461 . S
C2295 C2294 1.474 . S
C2296 C2291 1.342 . S
C2296 C2294 1.285 . S
C2296 H2315 0.930 . S
C2297 C2300 1.424 . S
C2297 C2302 1.245 . S
C2297 C2303 1.428 . S
C2298 C2301 1.260 . S
C2298 C2302 1.477 . S
C2298 H2316 0.932 . S
C2299 C2300 1.384 . S
C2299 C2301 1.479 . S
C2299 H2317 0.929 . S
C2300 C2297 1.424 . S
C2300 C2299 1.384 . S
C2300 H2318 0.928 . S
C2301 C2298 1.260 . S
C2301 C2299 1.479 . S
C2302 C2297 1.245 . S
C2302 C2298 1.477 . S
C2302 H2319 0.932 . S
C2303 U2286 2.882 . S
C2303 C2297 1.428 . S
C2303 O2306 1.301 . S
C2303 O2307 1.282 . S
O2304 U2286 2.441 . S
O2304 C2290 1.249 . S
O2305 U2286 2.420 . S
O2305 C2290 1.202 . S
O2306 U2286 2.455 . S
O2306 C2303 1.301 . S
O2307 U2286 2.449 . S
O2307 C2303 1.282 . S
H2308 C2281 0.931 . S
H2309 C2283 0.929 . S
H2310 C2284 0.930 . S
H2311 C2285 0.931 . S
H2312 C2292 0.932 . S
H2313 C2293 0.930 . S
H2314 C2294 0.929 . S
H2315 C2296 0.930 . S
H2316 C2298 0.932 . S
H2317 C2299 0.929 . S
H2318 C2300 0.928 . S
H2319 C2302 0.932 . S
C2320 C2321 1.264 . S
C2320 C2325 1.479 . S
C2320 C2330 1.465 . S
C2321 C2320 1.264 . S
C2321 C2323 1.339 . S
C2321 H2348 0.931 . S
C2322 C2323 1.395 . S
C2322 C2324 1.320 . S
C2323 C2321 1.339 . S
C2323 C2322 1.395 . S
C2323 H2349 0.929 . S
C2324 C2322 1.320 . S
C2324 C2325 1.405 . S
C2324 H2350 0.930 . S
C2325 C2320 1.479 . S
C2325 C2324 1.405 . S
C2325 H2351 0.931 . S
U2326 O2327 2.454 . S
U2326 O2328 2.458 . S
U2326 C2329 2.984 . S
U2326 C2330 2.847 . S
U2326 C2343 2.882 . S
U2326 O2344 2.441 . S
U2326 O2345 2.420 . S
U2326 O2346 2.455 . S
U2326 O2347 2.449 . S
O2327 U2326 2.454 . S
O2327 C2329 1.353 . S
O2328 U2326 2.458 . S
O2328 C2329 1.286 . S
C2329 U2326 2.984 . S
C2329 O2327 1.353 . S
C2329 O2328 1.286 . S
C2329 C2331 1.363 . S
C2330 C2320 1.465 . S
C2330 U2326 2.847 . S
C2330 O2344 1.249 . S
C2330 O2345 1.202 . S
C2331 C2329 1.363 . S
C2331 C2333 1.408 . S
C2331 C2336 1.342 . S
C2332 C2333 1.310 . S
C2332 C2335 1.461 . S
C2332 H2352 0.932 . S
C2333 C2331 1.408 . S
C2333 C2332 1.310 . S
C2333 H2353 0.930 . S
C2334 C2335 1.474 . S
C2334 C2336 1.285 . S
C2334 H2354 0.929 . S
C2335 C2332 1.461 . S
C2335 C2334 1.474 . S
C2336 C2331 1.342 . S
C2336 C2334 1.285 . S
C2336 H2355 0.930 . S
C2337 C2340 1.424 . S
C2337 C2342 1.245 . S
C2337 C2343 1.428 . S
C2338 C2341 1.260 . S
C2338 C2342 1.477 . S
C2338 H2356 0.932 . S
C2339 C2340 1.384 . S
C2339 C2341 1.479 . S
C2339 H2357 0.929 . S
C2340 C2337 1.424 . S
C2340 C2339 1.384 . S
C2340 H2358 0.928 . S
C2341 C2338 1.260 . S
C2341 C2339 1.479 . S
C2342 C2337 1.245 . S
C2342 C2338 1.477 . S
C2342 H2359 0.932 . S
C2343 U2326 2.882 . S
C2343 C2337 1.428 . S
C2343 O2346 1.301 . S
C2343 O2347 1.282 . S
O2344 U2326 2.441 . S
O2344 C2330 1.249 . S
O2345 U2326 2.420 . S
O2345 C2330 1.202 . S
O2346 U2326 2.455 . S
O2346 C2343 1.301 . S
O2347 U2326 2.449 . S
O2347 C2343 1.282 . S
H2348 C2321 0.931 . S
H2349 C2323 0.929 . S
H2350 C2324 0.930 . S
H2351 C2325 0.931 . S
H2352 C2332 0.932 . S
H2353 C2333 0.930 . S
H2354 C2334 0.929 . S
H2355 C2336 0.930 . S
H2356 C2338 0.932 . S
H2357 C2339 0.929 . S
H2358 C2340 0.928 . S
H2359 C2342 0.932 . S
C2360 C2361 1.264 . S
C2360 C2365 1.479 . S
C2360 C2370 1.465 . S
C2361 C2360 1.264 . S
C2361 C2363 1.339 . S
C2361 H2388 0.931 . S
C2362 C2363 1.395 . S
C2362 C2364 1.320 . S
C2363 C2361 1.339 . S
C2363 C2362 1.395 . S
C2363 H2389 0.929 . S
C2364 C2362 1.320 . S
C2364 C2365 1.405 . S
C2364 H2390 0.930 . S
C2365 C2360 1.479 . S
C2365 C2364 1.405 . S
C2365 H2391 0.931 . S
U2366 O2367 2.454 . S
U2366 O2368 2.458 . S
U2366 C2369 2.984 . S
U2366 C2370 2.847 . S
U2366 C2383 2.882 . S
U2366 O2384 2.441 . S
U2366 O2385 2.420 . S
U2366 O2386 2.455 . S
U2366 O2387 2.449 . S
O2367 U2366 2.454 . S
O2367 C2369 1.353 . S
O2368 U2366 2.458 . S
O2368 C2369 1.286 . S
C2369 U2366 2.984 . S
C2369 O2367 1.353 . S
C2369 O2368 1.286 . S
C2369 C2371 1.363 . S
C2370 C2360 1.465 . S
C2370 U2366 2.847 . S
C2370 O2384 1.249 . S
C2370 O2385 1.202 . S
C2371 C2369 1.363 . S
C2371 C2373 1.408 . S
C2371 C2376 1.342 . S
C2372 C2373 1.310 . S
C2372 C2375 1.461 . S
C2372 H2392 0.932 . S
C2373 C2371 1.408 . S
C2373 C2372 1.310 . S
C2373 H2393 0.930 . S
C2374 C2375 1.474 . S
C2374 C2376 1.285 . S
C2374 H2394 0.929 . S
C2375 C2372 1.461 . S
C2375 C2374 1.474 . S
C2376 C2371 1.342 . S
C2376 C2374 1.285 . S
C2376 H2395 0.930 . S
C2377 C2380 1.424 . S
C2377 C2382 1.245 . S
C2377 C2383 1.428 . S
C2378 C2381 1.260 . S
C2378 C2382 1.477 . S
C2378 H2396 0.932 . S
C2379 C2380 1.384 . S
C2379 C2381 1.479 . S
C2379 H2397 0.929 . S
C2380 C2377 1.424 . S
C2380 C2379 1.384 . S
C2380 H2398 0.928 . S
C2381 C2378 1.260 . S
C2381 C2379 1.479 . S
C2382 C2377 1.245 . S
C2382 C2378 1.477 . S
C2382 H2399 0.932 . S
C2383 U2366 2.882 . S
C2383 C2377 1.428 . S
C2383 O2386 1.301 . S
C2383 O2387 1.282 . S
O2384 U2366 2.441 . S
O2384 C2370 1.249 . S
O2385 U2366 2.420 . S
O2385 C2370 1.202 . S
O2386 U2366 2.455 . S
O2386 C2383 1.301 . S
O2387 U2366 2.449 . S
O2387 C2383 1.282 . S
H2388 C2361 0.931 . S
H2389 C2363 0.929 . S
H2390 C2364 0.930 . S
H2391 C2365 0.931 . S
H2392 C2372 0.932 . S
H2393 C2373 0.930 . S
H2394 C2374 0.929 . S
H2395 C2376 0.930 . S
H2396 C2378 0.932 . S
H2397 C2379 0.929 . S
H2398 C2380 0.928 . S
H2399 C2382 0.932 . S
C2400 C2401 1.264 . S
C2400 C2405 1.479 . S
C2400 C2410 1.465 . S
C2401 C2400 1.264 . S
C2401 C2403 1.339 . S
C2401 H2428 0.931 . S
C2402 C2403 1.395 . S
C2402 C2404 1.320 . S
C2403 C2401 1.339 . S
C2403 C2402 1.395 . S
C2403 H2429 0.929 . S
C2404 C2402 1.320 . S
C2404 C2405 1.405 . S
C2404 H2430 0.930 . S
C2405 C2400 1.479 . S
C2405 C2404 1.405 . S
C2405 H2431 0.931 . S
U2406 O2407 2.454 . S
U2406 O2408 2.458 . S
U2406 C2409 2.984 . S
U2406 C2410 2.847 . S
U2406 C2423 2.882 . S
U2406 O2424 2.441 . S
U2406 O2425 2.420 . S
U2406 O2426 2.455 . S
U2406 O2427 2.449 . S
O2407 U2406 2.454 . S
O2407 C2409 1.353 . S
O2408 U2406 2.458 . S
O2408 C2409 1.286 . S
C2409 U2406 2.984 . S
C2409 O2407 1.353 . S
C2409 O2408 1.286 . S
C2409 C2411 1.363 . S
C2410 C2400 1.465 . S
C2410 U2406 2.847 . S
C2410 O2424 1.249 . S
C2410 O2425 1.202 . S
C2411 C2409 1.363 . S
C2411 C2413 1.408 . S
C2411 C2416 1.342 . S
C2412 C2413 1.310 . S
C2412 C2415 1.461 . S
C2412 H2432 0.932 . S
C2413 C2411 1.408 . S
C2413 C2412 1.310 . S
C2413 H2433 0.930 . S
C2414 C2415 1.474 . S
C2414 C2416 1.285 . S
C2414 H2434 0.929 . S
C2415 C2412 1.461 . S
C2415 C2414 1.474 . S
C2416 C2411 1.342 . S
C2416 C2414 1.285 . S
C2416 H2435 0.930 . S
C2417 C2420 1.424 . S
C2417 C2422 1.245 . S
C2417 C2423 1.428 . S
C2418 C2421 1.260 . S
C2418 C2422 1.477 . S
C2418 H2436 0.932 . S
C2419 C2420 1.384 . S
C2419 C2421 1.479 . S
C2419 H2437 0.929 . S
C2420 C2417 1.424 . S
C2420 C2419 1.384 . S
C2420 H2438 0.928 . S
C2421 C2418 1.260 . S
C2421 C2419 1.479 . S
C2422 C2417 1.245 . S
C2422 C2418 1.477 . S
C2422 H2439 0.932 . S
C2423 U2406 2.882 . S
C2423 C2417 1.428 . S
C2423 O2426 1.301 . S
C2423 O2427 1.282 . S
O2424 U2406 2.441 . S
O2424 C2410 1.249 . S
O2425 U2406 2.420 . S
O2425 C2410 1.202 . S
O2426 U2406 2.455 . S
O2426 C2423 1.301 . S
O2427 U2406 2.449 . S
O2427 C2423 1.282 . S
H2428 C2401 0.931 . S
H2429 C2403 0.929 . S
H2430 C2404 0.930 . S
H2431 C2405 0.931 . S
H2432 C2412 0.932 . S
H2433 C2413 0.930 . S
H2434 C2414 0.929 . S
H2435 C2416 0.930 . S
H2436 C2418 0.932 . S
H2437 C2419 0.929 . S
H2438 C2420 0.928 . S
H2439 C2422 0.932 . S
C2440 C2441 1.264 . S
C2440 C2445 1.479 . S
C2440 C2450 1.465 . S
C2441 C2440 1.264 . S
C2441 C2443 1.339 . S
C2441 H2468 0.931 . S
C2442 C2443 1.395 . S
C2442 C2444 1.320 . S
C2443 C2441 1.339 . S
C2443 C2442 1.395 . S
C2443 H2469 0.929 . S
C2444 C2442 1.320 . S
C2444 C2445 1.405 . S
C2444 H2470 0.930 . S
C2445 C2440 1.479 . S
C2445 C2444 1.405 . S
C2445 H2471 0.931 . S
U2446 O2447 2.454 . S
U2446 O2448 2.458 . S
U2446 C2449 2.984 . S
U2446 C2450 2.847 . S
U2446 C2463 2.882 . S
U2446 O2464 2.441 . S
U2446 O2465 2.420 . S
U2446 O2466 2.455 . S
U2446 O2467 2.449 . S
O2447 U2446 2.454 . S
O2447 C2449 1.353 . S
O2448 U2446 2.458 . S
O2448 C2449 1.286 . S
C2449 U2446 2.984 . S
C2449 O2447 1.353 . S
C2449 O2448 1.286 . S
C2449 C2451 1.363 . S
C2450 C2440 1.465 . S
C2450 U2446 2.847 . S
C2450 O2464 1.249 . S
C2450 O2465 1.202 . S
C2451 C2449 1.363 . S
C2451 C2453 1.408 . S
C2451 C2456 1.342 . S
C2452 C2453 1.310 . S
C2452 C2455 1.461 . S
C2452 H2472 0.932 . S
C2453 C2451 1.408 . S
C2453 C2452 1.310 . S
C2453 H2473 0.930 . S
C2454 C2455 1.474 . S
C2454 C2456 1.285 . S
C2454 H2474 0.929 . S
C2455 C2452 1.461 . S
C2455 C2454 1.474 . S
C2456 C2451 1.342 . S
C2456 C2454 1.285 . S
C2456 H2475 0.930 . S
C2457 C2460 1.424 . S
C2457 C2462 1.245 . S
C2457 C2463 1.428 . S
C2458 C2461 1.260 . S
C2458 C2462 1.477 . S
C2458 H2476 0.932 . S
C2459 C2460 1.384 . S
C2459 C2461 1.479 . S
C2459 H2477 0.929 . S
C2460 C2457 1.424 . S
C2460 C2459 1.384 . S
C2460 H2478 0.928 . S
C2461 C2458 1.260 . S
C2461 C2459 1.479 . S
C2462 C2457 1.245 . S
C2462 C2458 1.477 . S
C2462 H2479 0.932 . S
C2463 U2446 2.882 . S
C2463 C2457 1.428 . S
C2463 O2466 1.301 . S
C2463 O2467 1.282 . S
O2464 U2446 2.441 . S
O2464 C2450 1.249 . S
O2465 U2446 2.420 . S
O2465 C2450 1.202 . S
O2466 U2446 2.455 . S
O2466 C2463 1.301 . S
O2467 U2446 2.449 . S
O2467 C2463 1.282 . S
H2468 C2441 0.931 . S
H2469 C2443 0.929 . S
H2470 C2444 0.930 . S
H2471 C2445 0.931 . S
H2472 C2452 0.932 . S
H2473 C2453 0.930 . S
H2474 C2454 0.929 . S
H2475 C2456 0.930 . S
H2476 C2458 0.932 . S
H2477 C2459 0.929 . S
H2478 C2460 0.928 . S
H2479 C2462 0.932 . S
C2480 C2481 1.264 . S
C2480 C2485 1.479 . S
C2480 C2490 1.465 . S
C2481 C2480 1.264 . S
C2481 C2483 1.339 . S
C2481 H2508 0.931 . S
C2482 C2483 1.395 . S
C2482 C2484 1.320 . S
C2483 C2481 1.339 . S
C2483 C2482 1.395 . S
C2483 H2509 0.929 . S
C2484 C2482 1.320 . S
C2484 C2485 1.405 . S
C2484 H2510 0.930 . S
C2485 C2480 1.479 . S
C2485 C2484 1.405 . S
C2485 H2511 0.931 . S
U2486 O2487 2.454 . S
U2486 O2488 2.458 . S
U2486 C2489 2.984 . S
U2486 C2490 2.847 . S
U2486 C2503 2.882 . S
U2486 O2504 2.441 . S
U2486 O2505 2.420 . S
U2486 O2506 2.455 . S
U2486 O2507 2.449 . S
O2487 U2486 2.454 . S
O2487 C2489 1.353 . S
O2488 U2486 2.458 . S
O2488 C2489 1.286 . S
C2489 U2486 2.984 . S
C2489 O2487 1.353 . S
C2489 O2488 1.286 . S
C2489 C2491 1.363 . S
C2490 C2480 1.465 . S
C2490 U2486 2.847 . S
C2490 O2504 1.249 . S
C2490 O2505 1.202 . S
C2491 C2489 1.363 . S
C2491 C2493 1.408 . S
C2491 C2496 1.342 . S
C2492 C2493 1.310 . S
C2492 C2495 1.461 . S
C2492 H2512 0.932 . S
C2493 C2491 1.408 . S
C2493 C2492 1.310 . S
C2493 H2513 0.930 . S
C2494 C2495 1.474 . S
C2494 C2496 1.285 . S
C2494 H2514 0.929 . S
C2495 C2492 1.461 . S
C2495 C2494 1.474 . S
C2496 C2491 1.342 . S
C2496 C2494 1.285 . S
C2496 H2515 0.930 . S
C2497 C2500 1.424 . S
C2497 C2502 1.245 . S
C2497 C2503 1.428 . S
C2498 C2501 1.260 . S
C2498 C2502 1.477 . S
C2498 H2516 0.932 . S
C2499 C2500 1.384 . S
C2499 C2501 1.479 . S
C2499 H2517 0.929 . S
C2500 C2497 1.424 . S
C2500 C2499 1.384 . S
C2500 H2518 0.928 . S
C2501 C2498 1.260 . S
C2501 C2499 1.479 . S
C2502 C2497 1.245 . S
C2502 C2498 1.477 . S
C2502 H2519 0.932 . S
C2503 U2486 2.882 . S
C2503 C2497 1.428 . S
C2503 O2506 1.301 . S
C2503 O2507 1.282 . S
O2504 U2486 2.441 . S
O2504 C2490 1.249 . S
O2505 U2486 2.420 . S
O2505 C2490 1.202 . S
O2506 U2486 2.455 . S
O2506 C2503 1.301 . S
O2507 U2486 2.449 . S
O2507 C2503 1.282 . S
H2508 C2481 0.931 . S
H2509 C2483 0.929 . S
H2510 C2484 0.930 . S
H2511 C2485 0.931 . S
H2512 C2492 0.932 . S
H2513 C2493 0.930 . S
H2514 C2494 0.929 . S
H2515 C2496 0.930 . S
H2516 C2498 0.932 . S
H2517 C2499 0.929 . S
H2518 C2500 0.928 . S
H2519 C2502 0.932 . S
C2520 C2521 1.264 . S
C2520 C2525 1.479 . S
C2520 C2530 1.465 . S
C2521 C2520 1.264 . S
C2521 C2523 1.339 . S
C2521 H2548 0.931 . S
C2522 C2523 1.395 . S
C2522 C2524 1.320 . S
C2523 C2521 1.339 . S
C2523 C2522 1.395 . S
C2523 H2549 0.929 . S
C2524 C2522 1.320 . S
C2524 C2525 1.405 . S
C2524 H2550 0.930 . S
C2525 C2520 1.479 . S
C2525 C2524 1.405 . S
C2525 H2551 0.931 . S
U2526 O2527 2.454 . S
U2526 O2528 2.458 . S
U2526 C2529 2.984 . S
U2526 C2530 2.847 . S
U2526 C2543 2.882 . S
U2526 O2544 2.441 . S
U2526 O2545 2.420 . S
U2526 O2546 2.455 . S
U2526 O2547 2.449 . S
O2527 U2526 2.454 . S
O2527 C2529 1.353 . S
O2528 U2526 2.458 . S
O2528 C2529 1.286 . S
C2529 U2526 2.984 . S
C2529 O2527 1.353 . S
C2529 O2528 1.286 . S
C2529 C2531 1.363 . S
C2530 C2520 1.465 . S
C2530 U2526 2.847 . S
C2530 O2544 1.249 . S
C2530 O2545 1.202 . S
C2531 C2529 1.363 . S
C2531 C2533 1.408 . S
C2531 C2536 1.342 . S
C2532 C2533 1.310 . S
C2532 C2535 1.461 . S
C2532 H2552 0.932 . S
C2533 C2531 1.408 . S
C2533 C2532 1.310 . S
C2533 H2553 0.930 . S
C2534 C2535 1.474 . S
C2534 C2536 1.285 . S
C2534 H2554 0.929 . S
C2535 C2532 1.461 . S
C2535 C2534 1.474 . S
C2536 C2531 1.342 . S
C2536 C2534 1.285 . S
C2536 H2555 0.930 . S
C2537 C2540 1.424 . S
C2537 C2542 1.245 . S
C2537 C2543 1.428 . S
C2538 C2541 1.260 . S
C2538 C2542 1.477 . S
C2538 H2556 0.932 . S
C2539 C2540 1.384 . S
C2539 C2541 1.479 . S
C2539 H2557 0.929 . S
C2540 C2537 1.424 . S
C2540 C2539 1.384 . S
C2540 H2558 0.928 . S
C2541 C2538 1.260 . S
C2541 C2539 1.479 . S
C2542 C2537 1.245 . S
C2542 C2538 1.477 . S
C2542 H2559 0.932 . S
C2543 U2526 2.882 . S
C2543 C2537 1.428 . S
C2543 O2546 1.301 . S
C2543 O2547 1.282 . S
O2544 U2526 2.441 . S
O2544 C2530 1.249 . S
O2545 U2526 2.420 . S
O2545 C2530 1.202 . S
O2546 U2526 2.455 . S
O2546 C2543 1.301 . S
O2547 U2526 2.449 . S
O2547 C2543 1.282 . S
H2548 C2521 0.931 . S
H2549 C2523 0.929 . S
H2550 C2524 0.930 . S
H2551 C2525 0.931 . S
H2552 C2532 0.932 . S
H2553 C2533 0.930 . S
H2554 C2534 0.929 . S
H2555 C2536 0.930 . S
H2556 C2538 0.932 . S
H2557 C2539 0.929 . S
H2558 C2540 0.928 . S
H2559 C2542 0.932 . S
C2560 C2561 1.264 . S
C2560 C2565 1.479 . S
C2560 C2570 1.465 . S
C2561 C2560 1.264 . S
C2561 C2563 1.339 . S
C2561 H2588 0.931 . S
C2562 C2563 1.395 . S
C2562 C2564 1.320 . S
C2563 C2561 1.339 . S
C2563 C2562 1.395 . S
C2563 H2589 0.929 . S
C2564 C2562 1.320 . S
C2564 C2565 1.405 . S
C2564 H2590 0.930 . S
C2565 C2560 1.479 . S
C2565 C2564 1.405 . S
C2565 H2591 0.931 . S
U2566 O2567 2.454 . S
U2566 O2568 2.458 . S
U2566 C2569 2.984 . S
U2566 C2570 2.847 . S
U2566 C2583 2.882 . S
U2566 O2584 2.441 . S
U2566 O2585 2.420 . S
U2566 O2586 2.455 . S
U2566 O2587 2.449 . S
O2567 U2566 2.454 . S
O2567 C2569 1.353 . S
O2568 U2566 2.458 . S
O2568 C2569 1.286 . S
C2569 U2566 2.984 . S
C2569 O2567 1.353 . S
C2569 O2568 1.286 . S
C2569 C2571 1.363 . S
C2570 C2560 1.465 . S
C2570 U2566 2.847 . S
C2570 O2584 1.249 . S
C2570 O2585 1.202 . S
C2571 C2569 1.363 . S
C2571 C2573 1.408 . S
C2571 C2576 1.342 . S
C2572 C2573 1.310 . S
C2572 C2575 1.461 . S
C2572 H2592 0.932 . S
C2573 C2571 1.408 . S
C2573 C2572 1.310 . S
C2573 H2593 0.930 . S
C2574 C2575 1.474 . S
C2574 C2576 1.285 . S
C2574 H2594 0.929 . S
C2575 C2572 1.461 . S
C2575 C2574 1.474 . S
C2576 C2571 1.342 . S
C2576 C2574 1.285 . S
C2576 H2595 0.930 . S
C2577 C2580 1.424 . S
C2577 C2582 1.245 . S
C2577 C2583 1.428 . S
C2578 C2581 1.260 . S
C2578 C2582 1.477 . S
C2578 H2596 0.932 . S
C2579 C2580 1.384 . S
C2579 C2581 1.479 . S
C2579 H2597 0.929 . S
C2580 C2577 1.424 . S
C2580 C2579 1.384 . S
C2580 H2598 0.928 . S
C2581 C2578 1.260 . S
C2581 C2579 1.479 . S
C2582 C2577 1.245 . S
C2582 C2578 1.477 . S
C2582 H2599 0.932 . S
C2583 U2566 2.882 . S
C2583 C2577 1.428 . S
C2583 O2586 1.301 . S
C2583 O2587 1.282 . S
O2584 U2566 2.441 . S
O2584 C2570 1.249 . S
O2585 U2566 2.420 . S
O2585 C2570 1.202 . S
O2586 U2566 2.455 . S
O2586 C2583 1.301 . S
O2587 U2566 2.449 . S
O2587 C2583 1.282 . S
H2588 C2561 0.931 . S
H2589 C2563 0.929 . S
H2590 C2564 0.930 . S
H2591 C2565 0.931 . S
H2592 C2572 0.932 . S
H2593 C2573 0.930 . S
H2594 C2574 0.929 . S
H2595 C2576 0.930 . S
H2596 C2578 0.932 . S
H2597 C2579 0.929 . S
H2598 C2580 0.928 . S
H2599 C2582 0.932 . S
C2600 C2601 1.264 . S
C2600 C2605 1.479 . S
C2600 C2610 1.465 . S
C2601 C2600 1.264 . S
C2601 C2603 1.339 . S
C2601 H2628 0.931 . S
C2602 C2603 1.395 . S
C2602 C2604 1.320 . S
C2603 C2601 1.339 . S
C2603 C2602 1.395 . S
C2603 H2629 0.929 . S
C2604 C2602 1.320 . S
C2604 C2605 1.405 . S
C2604 H2630 0.930 . S
C2605 C2600 1.479 . S
C2605 C2604 1.405 . S
C2605 H2631 0.931 . S
U2606 O2607 2.454 . S
U2606 O2608 2.458 . S
U2606 C2609 2.984 . S
U2606 C2610 2.847 . S
U2606 C2623 2.882 . S
U2606 O2624 2.441 . S
U2606 O2625 2.420 . S
U2606 O2626 2.455 . S
U2606 O2627 2.449 . S
O2607 U2606 2.454 . S
O2607 C2609 1.353 . S
O2608 U2606 2.458 . S
O2608 C2609 1.286 . S
C2609 U2606 2.984 . S
C2609 O2607 1.353 . S
C2609 O2608 1.286 . S
C2609 C2611 1.363 . S
C2610 C2600 1.465 . S
C2610 U2606 2.847 . S
C2610 O2624 1.249 . S
C2610 O2625 1.202 . S
C2611 C2609 1.363 . S
C2611 C2613 1.408 . S
C2611 C2616 1.342 . S
C2612 C2613 1.310 . S
C2612 C2615 1.461 . S
C2612 H2632 0.932 . S
C2613 C2611 1.408 . S
C2613 C2612 1.310 . S
C2613 H2633 0.930 . S
C2614 C2615 1.474 . S
C2614 C2616 1.285 . S
C2614 H2634 0.929 . S
C2615 C2612 1.461 . S
C2615 C2614 1.474 . S
C2616 C2611 1.342 . S
C2616 C2614 1.285 . S
C2616 H2635 0.930 . S
C2617 C2620 1.424 . S
C2617 C2622 1.245 . S
C2617 C2623 1.428 . S
C2618 C2621 1.260 . S
C2618 C2622 1.477 . S
C2618 H2636 0.932 . S
C2619 C2620 1.384 . S
C2619 C2621 1.479 . S
C2619 H2637 0.929 . S
C2620 C2617 1.424 . S
C2620 C2619 1.384 . S
C2620 H2638 0.928 . S
C2621 C2618 1.260 . S
C2621 C2619 1.479 . S
C2622 C2617 1.245 . S
C2622 C2618 1.477 . S
C2622 H2639 0.932 . S
C2623 U2606 2.882 . S
C2623 C2617 1.428 . S
C2623 O2626 1.301 . S
C2623 O2627 1.282 . S
O2624 U2606 2.441 . S
O2624 C2610 1.249 . S
O2625 U2606 2.420 . S
O2625 C2610 1.202 . S
O2626 U2606 2.455 . S
O2626 C2623 1.301 . S
O2627 U2606 2.449 . S
O2627 C2623 1.282 . S
H2628 C2601 0.931 . S
H2629 C2603 0.929 . S
H2630 C2604 0.930 . S
H2631 C2605 0.931 . S
H2632 C2612 0.932 . S
H2633 C2613 0.930 . S
H2634 C2614 0.929 . S
H2635 C2616 0.930 . S
H2636 C2618 0.932 . S
H2637 C2619 0.929 . S
H2638 C2620 0.928 . S
H2639 C2622 0.932 . S
C2640 C2641 1.264 . S
C2640 C2645 1.479 . S
C2640 C2650 1.465 . S
C2641 C2640 1.264 . S
C2641 C2643 1.339 . S
C2641 H2668 0.931 . S
C2642 C2643 1.395 . S
C2642 C2644 1.320 . S
C2643 C2641 1.339 . S
C2643 C2642 1.395 . S
C2643 H2669 0.929 . S
C2644 C2642 1.320 . S
C2644 C2645 1.405 . S
C2644 H2670 0.930 . S
C2645 C2640 1.479 . S
C2645 C2644 1.405 . S
C2645 H2671 0.931 . S
U2646 O2647 2.454 . S
U2646 O2648 2.458 . S
U2646 C2649 2.984 . S
U2646 C2650 2.847 . S
U2646 C2663 2.882 . S
U2646 O2664 2.441 . S
U2646 O2665 2.420 . S
U2646 O2666 2.455 . S
U2646 O2667 2.449 . S
O2647 U2646 2.454 . S
O2647 C2649 1.353 . S
O2648 U2646 2.458 . S
O2648 C2649 1.286 . S
C2649 U2646 2.984 . S
C2649 O2647 1.353 . S
C2649 O2648 1.286 . S
C2649 C2651 1.363 . S
C2650 C2640 1.465 . S
C2650 U2646 2.847 . S
C2650 O2664 1.249 . S
C2650 O2665 1.202 . S
C2651 C2649 1.363 . S
C2651 C2653 1.408 . S
C2651 C2656 1.342 . S
C2652 C2653 1.310 . S
C2652 C2655 1.461 . S
C2652 H2672 0.932 . S
C2653 C2651 1.408 . S
C2653 C2652 1.310 . S
C2653 H2673 0.930 . S
C2654 C2655 1.474 . S
C2654 C2656 1.285 . S
C2654 H2674 0.929 . S
C2655 C2652 1.461 . S
C2655 C2654 1.474 . S
C2656 C2651 1.342 . S
C2656 C2654 1.285 . S
C2656 H2675 0.930 . S
C2657 C2660 1.424 . S
C2657 C2662 1.245 . S
C2657 C2663 1.428 . S
C2658 C2661 1.260 . S
C2658 C2662 1.477 . S
C2658 H2676 0.932 . S
C2659 C2660 1.384 . S
C2659 C2661 1.479 . S
C2659 H2677 0.929 . S
C2660 C2657 1.424 . S
C2660 C2659 1.384 . S
C2660 H2678 0.928 . S
C2661 C2658 1.260 . S
C2661 C2659 1.479 . S
C2662 C2657 1.245 . S
C2662 C2658 1.477 . S
C2662 H2679 0.932 . S
C2663 U2646 2.882 . S
C2663 C2657 1.428 . S
C2663 O2666 1.301 . S
C2663 O2667 1.282 . S
O2664 U2646 2.441 . S
O2664 C2650 1.249 . S
O2665 U2646 2.420 . S
O2665 C2650 1.202 . S
O2666 U2646 2.455 . S
O2666 C2663 1.301 . S
O2667 U2646 2.449 . S
O2667 C2663 1.282 . S
H2668 C2641 0.931 . S
H2669 C2643 0.929 . S
H2670 C2644 0.930 . S
H2671 C2645 0.931 . S
H2672 C2652 0.932 . S
H2673 C2653 0.930 . S
H2674 C2654 0.929 . S
H2675 C2656 0.930 . S
H2676 C2658 0.932 . S
H2677 C2659 0.929 . S
H2678 C2660 0.928 . S
H2679 C2662 0.932 . S
C2680 C2681 1.264 . S
C2680 C2685 1.479 . S
C2680 C2690 1.465 . S
C2681 C2680 1.264 . S
C2681 C2683 1.339 . S
C2681 H2708 0.931 . S
C2682 C2683 1.395 . S
C2682 C2684 1.320 . S
C2683 C2681 1.339 . S
C2683 C2682 1.395 . S
C2683 H2709 0.929 . S
C2684 C2682 1.320 . S
C2684 C2685 1.405 . S
C2684 H2710 0.930 . S
C2685 C2680 1.479 . S
C2685 C2684 1.405 . S
C2685 H2711 0.931 . S
U2686 O2687 2.454 . S
U2686 O2688 2.458 . S
U2686 C2689 2.984 . S
U2686 C2690 2.847 . S
U2686 C2703 2.882 . S
U2686 O2704 2.441 . S
U2686 O2705 2.420 . S
U2686 O2706 2.455 . S
U2686 O2707 2.449 . S
O2687 U2686 2.454 . S
O2687 C2689 1.353 . S
O2688 U2686 2.458 . S
O2688 C2689 1.286 . S
C2689 U2686 2.984 . S
C2689 O2687 1.353 . S
C2689 O2688 1.286 . S
C2689 C2691 1.363 . S
C2690 C2680 1.465 . S
C2690 U2686 2.847 . S
C2690 O2704 1.249 . S
C2690 O2705 1.202 . S
C2691 C2689 1.363 . S
C2691 C2693 1.408 . S
C2691 C2696 1.342 . S
C2692 C2693 1.310 . S
C2692 C2695 1.461 . S
C2692 H2712 0.932 . S
C2693 C2691 1.408 . S
C2693 C2692 1.310 . S
C2693 H2713 0.930 . S
C2694 C2695 1.474 . S
C2694 C2696 1.285 . S
C2694 H2714 0.929 . S
C2695 C2692 1.461 . S
C2695 C2694 1.474 . S
C2696 C2691 1.342 . S
C2696 C2694 1.285 . S
C2696 H2715 0.930 . S
C2697 C2700 1.424 . S
C2697 C2702 1.245 . S
C2697 C2703 1.428 . S
C2698 C2701 1.260 . S
C2698 C2702 1.477 . S
C2698 H2716 0.932 . S
C2699 C2700 1.384 . S
C2699 C2701 1.479 . S
C2699 H2717 0.929 . S
C2700 C2697 1.424 . S
C2700 C2699 1.384 . S
C2700 H2718 0.928 . S
C2701 C2698 1.260 . S
C2701 C2699 1.479 . S
C2702 C2697 1.245 . S
C2702 C2698 1.477 . S
C2702 H2719 0.932 . S
C2703 U2686 2.882 . S
C2703 C2697 1.428 . S
C2703 O2706 1.301 . S
C2703 O2707 1.282 . S
O2704 U2686 2.441 . S
O2704 C2690 1.249 . S
O2705 U2686 2.420 . S
O2705 C2690 1.202 . S
O2706 U2686 2.455 . S
O2706 C2703 1.301 . S
O2707 U2686 2.449 . S
O2707 C2703 1.282 . S
H2708 C2681 0.931 . S
H2709 C2683 0.929 . S
H2710 C2684 0.930 . S
H2711 C2685 0.931 . S
H2712 C2692 0.932 . S
H2713 C2693 0.930 . S
H2714 C2694 0.929 . S
H2715 C2696 0.930 . S
H2716 C2698 0.932 . S
H2717 C2699 0.929 . S
H2718 C2700 0.928 . S
H2719 C2702 0.932 . S
C2720 C2721 1.264 . S
C2720 C2725 1.479 . S
C2720 C2730 1.465 . S
C2721 C2720 1.264 . S
C2721 C2723 1.339 . S
C2721 H2748 0.931 . S
C2722 C2723 1.395 . S
C2722 C2724 1.320 . S
C2723 C2721 1.339 . S
C2723 C2722 1.395 . S
C2723 H2749 0.929 . S
C2724 C2722 1.320 . S
C2724 C2725 1.405 . S
C2724 H2750 0.930 . S
C2725 C2720 1.479 . S
C2725 C2724 1.405 . S
C2725 H2751 0.931 . S
U2726 O2727 2.454 . S
U2726 O2728 2.458 . S
U2726 C2729 2.984 . S
U2726 C2730 2.847 . S
U2726 C2743 2.882 . S
U2726 O2744 2.441 . S
U2726 O2745 2.420 . S
U2726 O2746 2.455 . S
U2726 O2747 2.449 . S
O2727 U2726 2.454 . S
O2727 C2729 1.353 . S
O2728 U2726 2.458 . S
O2728 C2729 1.286 . S
C2729 U2726 2.984 . S
C2729 O2727 1.353 . S
C2729 O2728 1.286 . S
C2729 C2731 1.363 . S
C2730 C2720 1.465 . S
C2730 U2726 2.847 . S
C2730 O2744 1.249 . S
C2730 O2745 1.202 . S
C2731 C2729 1.363 . S
C2731 C2733 1.408 . S
C2731 C2736 1.342 . S
C2732 C2733 1.310 . S
C2732 C2735 1.461 . S
C2732 H2752 0.932 . S
C2733 C2731 1.408 . S
C2733 C2732 1.310 . S
C2733 H2753 0.930 . S
C2734 C2735 1.474 . S
C2734 C2736 1.285 . S
C2734 H2754 0.929 . S
C2735 C2732 1.461 . S
C2735 C2734 1.474 . S
C2736 C2731 1.342 . S
C2736 C2734 1.285 . S
C2736 H2755 0.930 . S
C2737 C2740 1.424 . S
C2737 C2742 1.245 . S
C2737 C2743 1.428 . S
C2738 C2741 1.260 . S
C2738 C2742 1.477 . S
C2738 H2756 0.932 . S
C2739 C2740 1.384 . S
C2739 C2741 1.479 . S
C2739 H2757 0.929 . S
C2740 C2737 1.424 . S
C2740 C2739 1.384 . S
C2740 H2758 0.928 . S
C2741 C2738 1.260 . S
C2741 C2739 1.479 . S
C2742 C2737 1.245 . S
C2742 C2738 1.477 . S
C2742 H2759 0.932 . S
C2743 U2726 2.882 . S
C2743 C2737 1.428 . S
C2743 O2746 1.301 . S
C2743 O2747 1.282 . S
O2744 U2726 2.441 . S
O2744 C2730 1.249 . S
O2745 U2726 2.420 . S
O2745 C2730 1.202 . S
O2746 U2726 2.455 . S
O2746 C2743 1.301 . S
O2747 U2726 2.449 . S
O2747 C2743 1.282 . S
H2748 C2721 0.931 . S
H2749 C2723 0.929 . S
H2750 C2724 0.930 . S
H2751 C2725 0.931 . S
H2752 C2732 0.932 . S
H2753 C2733 0.930 . S
H2754 C2734 0.929 . S
H2755 C2736 0.930 . S
H2756 C2738 0.932 . S
H2757 C2739 0.929 . S
H2758 C2740 0.928 . S
H2759 C2742 0.932 . S
C2760 C2761 1.264 . S
C2760 C2765 1.479 . S
C2760 C2770 1.465 . S
C2761 C2760 1.264 . S
C2761 C2763 1.339 . S
C2761 H2788 0.931 . S
C2762 C2763 1.395 . S
C2762 C2764 1.320 . S
C2763 C2761 1.339 . S
C2763 C2762 1.395 . S
C2763 H2789 0.929 . S
C2764 C2762 1.320 . S
C2764 C2765 1.405 . S
C2764 H2790 0.930 . S
C2765 C2760 1.479 . S
C2765 C2764 1.405 . S
C2765 H2791 0.931 . S
U2766 O2767 2.454 . S
U2766 O2768 2.458 . S
U2766 C2769 2.984 . S
U2766 C2770 2.847 . S
U2766 C2783 2.882 . S
U2766 O2784 2.441 . S
U2766 O2785 2.420 . S
U2766 O2786 2.455 . S
U2766 O2787 2.449 . S
O2767 U2766 2.454 . S
O2767 C2769 1.353 . S
O2768 U2766 2.458 . S
O2768 C2769 1.286 . S
C2769 U2766 2.984 . S
C2769 O2767 1.353 . S
C2769 O2768 1.286 . S
C2769 C2771 1.363 . S
C2770 C2760 1.465 . S
C2770 U2766 2.847 . S
C2770 O2784 1.249 . S
C2770 O2785 1.202 . S
C2771 C2769 1.363 . S
C2771 C2773 1.408 . S
C2771 C2776 1.342 . S
C2772 C2773 1.310 . S
C2772 C2775 1.461 . S
C2772 H2792 0.932 . S
C2773 C2771 1.408 . S
C2773 C2772 1.310 . S
C2773 H2793 0.930 . S
C2774 C2775 1.474 . S
C2774 C2776 1.285 . S
C2774 H2794 0.929 . S
C2775 C2772 1.461 . S
C2775 C2774 1.474 . S
C2776 C2771 1.342 . S
C2776 C2774 1.285 . S
C2776 H2795 0.930 . S
C2777 C2780 1.424 . S
C2777 C2782 1.245 . S
C2777 C2783 1.428 . S
C2778 C2781 1.260 . S
C2778 C2782 1.477 . S
C2778 H2796 0.932 . S
C2779 C2780 1.384 . S
C2779 C2781 1.479 . S
C2779 H2797 0.929 . S
C2780 C2777 1.424 . S
C2780 C2779 1.384 . S
C2780 H2798 0.928 . S
C2781 C2778 1.260 . S
C2781 C2779 1.479 . S
C2782 C2777 1.245 . S
C2782 C2778 1.477 . S
C2782 H2799 0.932 . S
C2783 U2766 2.882 . S
C2783 C2777 1.428 . S
C2783 O2786 1.301 . S
C2783 O2787 1.282 . S
O2784 U2766 2.441 . S
O2784 C2770 1.249 . S
O2785 U2766 2.420 . S
O2785 C2770 1.202 . S
O2786 U2766 2.455 . S
O2786 C2783 1.301 . S
O2787 U2766 2.449 . S
O2787 C2783 1.282 . S
H2788 C2761 0.931 . S
H2789 C2763 0.929 . S
H2790 C2764 0.930 . S
H2791 C2765 0.931 . S
H2792 C2772 0.932 . S
H2793 C2773 0.930 . S
H2794 C2774 0.929 . S
H2795 C2776 0.930 . S
H2796 C2778 0.932 . S
H2797 C2779 0.929 . S
H2798 C2780 0.928 . S
H2799 C2782 0.932 . S
C2800 C2801 1.264 . S
C2800 C2805 1.479 . S
C2800 C2810 1.465 . S
C2801 C2800 1.264 . S
C2801 C2803 1.339 . S
C2801 H2828 0.931 . S
C2802 C2803 1.395 . S
C2802 C2804 1.320 . S
C2803 C2801 1.339 . S
C2803 C2802 1.395 . S
C2803 H2829 0.929 . S
C2804 C2802 1.320 . S
C2804 C2805 1.405 . S
C2804 H2830 0.930 . S
C2805 C2800 1.479 . S
C2805 C2804 1.405 . S
C2805 H2831 0.931 . S
U2806 O2807 2.454 . S
U2806 O2808 2.458 . S
U2806 C2809 2.984 . S
U2806 C2810 2.847 . S
U2806 C2823 2.882 . S
U2806 O2824 2.441 . S
U2806 O2825 2.420 . S
U2806 O2826 2.455 . S
U2806 O2827 2.449 . S
O2807 U2806 2.454 . S
O2807 C2809 1.353 . S
O2808 U2806 2.458 . S
O2808 C2809 1.286 . S
C2809 U2806 2.984 . S
C2809 O2807 1.353 . S
C2809 O2808 1.286 . S
C2809 C2811 1.363 . S
C2810 C2800 1.465 . S
C2810 U2806 2.847 . S
C2810 O2824 1.249 . S
C2810 O2825 1.202 . S
C2811 C2809 1.363 . S
C2811 C2813 1.408 . S
C2811 C2816 1.342 . S
C2812 C2813 1.310 . S
C2812 C2815 1.461 . S
C2812 H2832 0.932 . S
C2813 C2811 1.408 . S
C2813 C2812 1.310 . S
C2813 H2833 0.930 . S
C2814 C2815 1.474 . S
C2814 C2816 1.285 . S
C2814 H2834 0.929 . S
C2815 C2812 1.461 . S
C2815 C2814 1.474 . S
C2816 C2811 1.342 . S
C2816 C2814 1.285 . S
C2816 H2835 0.930 . S
C2817 C2820 1.424 . S
C2817 C2822 1.245 . S
C2817 C2823 1.428 . S
C2818 C2821 1.260 . S
C2818 C2822 1.477 . S
C2818 H2836 0.932 . S
C2819 C2820 1.384 . S
C2819 C2821 1.479 . S
C2819 H2837 0.929 . S
C2820 C2817 1.424 . S
C2820 C2819 1.384 . S
C2820 H2838 0.928 . S
C2821 C2818 1.260 . S
C2821 C2819 1.479 . S
C2822 C2817 1.245 . S
C2822 C2818 1.477 . S
C2822 H2839 0.932 . S
C2823 U2806 2.882 . S
C2823 C2817 1.428 . S
C2823 O2826 1.301 . S
C2823 O2827 1.282 . S
O2824 U2806 2.441 . S
O2824 C2810 1.249 . S
O2825 U2806 2.420 . S
O2825 C2810 1.202 . S
O2826 U2806 2.455 . S
O2826 C2823 1.301 . S
O2827 U2806 2.449 . S
O2827 C2823 1.282 . S
H2828 C2801 0.931 . S
H2829 C2803 0.929 . S
H2830 C2804 0.930 . S
H2831 C2805 0.931 . S
H2832 C2812 0.932 . S
H2833 C2813 0.930 . S
H2834 C2814 0.929 . S
H2835 C2816 0.930 . S
H2836 C2818 0.932 . S
H2837 C2819 0.929 . S
H2838 C2820 0.928 . S
H2839 C2822 0.932 . S
C2840 C2841 1.264 . S
C2840 C2845 1.479 . S
C2840 C2850 1.465 . S
C2841 C2840 1.264 . S
C2841 C2843 1.339 . S
C2841 H2868 0.931 . S
C2842 C2843 1.395 . S
C2842 C2844 1.320 . S
C2843 C2841 1.339 . S
C2843 C2842 1.395 . S
C2843 H2869 0.929 . S
C2844 C2842 1.320 . S
C2844 C2845 1.405 . S
C2844 H2870 0.930 . S
C2845 C2840 1.479 . S
C2845 C2844 1.405 . S
C2845 H2871 0.931 . S
U2846 O2847 2.454 . S
U2846 O2848 2.458 . S
U2846 C2849 2.984 . S
U2846 C2850 2.847 . S
U2846 C2863 2.882 . S
U2846 O2864 2.441 . S
U2846 O2865 2.420 . S
U2846 O2866 2.455 . S
U2846 O2867 2.449 . S
O2847 U2846 2.454 . S
O2847 C2849 1.353 . S
O2848 U2846 2.458 . S
O2848 C2849 1.286 . S
C2849 U2846 2.984 . S
C2849 O2847 1.353 . S
C2849 O2848 1.286 . S
C2849 C2851 1.363 . S
C2850 C2840 1.465 . S
C2850 U2846 2.847 . S
C2850 O2864 1.249 . S
C2850 O2865 1.202 . S
C2851 C2849 1.363 . S
C2851 C2853 1.408 . S
C2851 C2856 1.342 . S
C2852 C2853 1.310 . S
C2852 C2855 1.461 . S
C2852 H2872 0.932 . S
C2853 C2851 1.408 . S
C2853 C2852 1.310 . S
C2853 H2873 0.930 . S
C2854 C2855 1.474 . S
C2854 C2856 1.285 . S
C2854 H2874 0.929 . S
C2855 C2852 1.461 . S
C2855 C2854 1.474 . S
C2856 C2851 1.342 . S
C2856 C2854 1.285 . S
C2856 H2875 0.930 . S
C2857 C2860 1.424 . S
C2857 C2862 1.245 . S
C2857 C2863 1.428 . S
C2858 C2861 1.260 . S
C2858 C2862 1.477 . S
C2858 H2876 0.932 . S
C2859 C2860 1.384 . S
C2859 C2861 1.479 . S
C2859 H2877 0.929 . S
C2860 C2857 1.424 . S
C2860 C2859 1.384 . S
C2860 H2878 0.928 . S
C2861 C2858 1.260 . S
C2861 C2859 1.479 . S
C2862 C2857 1.245 . S
C2862 C2858 1.477 . S
C2862 H2879 0.932 . S
C2863 U2846 2.882 . S
C2863 C2857 1.428 . S
C2863 O2866 1.301 . S
C2863 O2867 1.282 . S
O2864 U2846 2.441 . S
O2864 C2850 1.249 . S
O2865 U2846 2.420 . S
O2865 C2850 1.202 . S
O2866 U2846 2.455 . S
O2866 C2863 1.301 . S
O2867 U2846 2.449 . S
O2867 C2863 1.282 . S
H2868 C2841 0.931 . S
H2869 C2843 0.929 . S
H2870 C2844 0.930 . S
H2871 C2845 0.931 . S
H2872 C2852 0.932 . S
H2873 C2853 0.930 . S
H2874 C2854 0.929 . S
H2875 C2856 0.930 . S
H2876 C2858 0.932 . S
H2877 C2859 0.929 . S
H2878 C2860 0.928 . S
H2879 C2862 0.932 . S
C2880 C2881 1.264 . S
C2880 C2885 1.479 . S
C2880 C2890 1.465 . S
C2881 C2880 1.264 . S
C2881 C2883 1.339 . S
C2881 H2908 0.931 . S
C2882 C2883 1.395 . S
C2882 C2884 1.320 . S
C2883 C2881 1.339 . S
C2883 C2882 1.395 . S
C2883 H2909 0.929 . S
C2884 C2882 1.320 . S
C2884 C2885 1.405 . S
C2884 H2910 0.930 . S
C2885 C2880 1.479 . S
C2885 C2884 1.405 . S
C2885 H2911 0.931 . S
U2886 O2887 2.454 . S
U2886 O2888 2.458 . S
U2886 C2889 2.984 . S
U2886 C2890 2.847 . S
U2886 C2903 2.882 . S
U2886 O2904 2.441 . S
U2886 O2905 2.420 . S
U2886 O2906 2.455 . S
U2886 O2907 2.449 . S
O2887 U2886 2.454 . S
O2887 C2889 1.353 . S
O2888 U2886 2.458 . S
O2888 C2889 1.286 . S
C2889 U2886 2.984 . S
C2889 O2887 1.353 . S
C2889 O2888 1.286 . S
C2889 C2891 1.363 . S
C2890 C2880 1.465 . S
C2890 U2886 2.847 . S
C2890 O2904 1.249 . S
C2890 O2905 1.202 . S
C2891 C2889 1.363 . S
C2891 C2893 1.408 . S
C2891 C2896 1.342 . S
C2892 C2893 1.310 . S
C2892 C2895 1.461 . S
C2892 H2912 0.932 . S
C2893 C2891 1.408 . S
C2893 C2892 1.310 . S
C2893 H2913 0.930 . S
C2894 C2895 1.474 . S
C2894 C2896 1.285 . S
C2894 H2914 0.929 . S
C2895 C2892 1.461 . S
C2895 C2894 1.474 . S
C2896 C2891 1.342 . S
C2896 C2894 1.285 . S
C2896 H2915 0.930 . S
C2897 C2900 1.424 . S
C2897 C2902 1.245 . S
C2897 C2903 1.428 . S
C2898 C2901 1.260 . S
C2898 C2902 1.477 . S
C2898 H2916 0.932 . S
C2899 C2900 1.384 . S
C2899 C2901 1.479 . S
C2899 H2917 0.929 . S
C2900 C2897 1.424 . S
C2900 C2899 1.384 . S
C2900 H2918 0.928 . S
C2901 C2898 1.260 . S
C2901 C2899 1.479 . S
C2902 C2897 1.245 . S
C2902 C2898 1.477 . S
C2902 H2919 0.932 . S
C2903 U2886 2.882 . S
C2903 C2897 1.428 . S
C2903 O2906 1.301 . S
C2903 O2907 1.282 . S
O2904 U2886 2.441 . S
O2904 C2890 1.249 . S
O2905 U2886 2.420 . S
O2905 C2890 1.202 . S
O2906 U2886 2.455 . S
O2906 C2903 1.301 . S
O2907 U2886 2.449 . S
O2907 C2903 1.282 . S
H2908 C2881 0.931 . S
H2909 C2883 0.929 . S
H2910 C2884 0.930 . S
H2911 C2885 0.931 . S
H2912 C2892 0.932 . S
H2913 C2893 0.930 . S
H2914 C2894 0.929 . S
H2915 C2896 0.930 . S
H2916 C2898 0.932 . S
H2917 C2899 0.929 . S
H2918 C2900 0.928 . S
H2919 C2902 0.932 . S
C2920 C2921 1.264 . S
C2920 C2925 1.479 . S
C2920 C2930 1.465 . S
C2921 C2920 1.264 . S
C2921 C2923 1.339 . S
C2921 H2948 0.931 . S
C2922 C2923 1.395 . S
C2922 C2924 1.320 . S
C2923 C2921 1.339 . S
C2923 C2922 1.395 . S
C2923 H2949 0.929 . S
C2924 C2922 1.320 . S
C2924 C2925 1.405 . S
C2924 H2950 0.930 . S
C2925 C2920 1.479 . S
C2925 C2924 1.405 . S
C2925 H2951 0.931 . S
U2926 O2927 2.454 . S
U2926 O2928 2.458 . S
U2926 C2929 2.984 . S
U2926 C2930 2.847 . S
U2926 C2943 2.882 . S
U2926 O2944 2.441 . S
U2926 O2945 2.420 . S
U2926 O2946 2.455 . S
U2926 O2947 2.449 . S
O2927 U2926 2.454 . S
O2927 C2929 1.353 . S
O2928 U2926 2.458 . S
O2928 C2929 1.286 . S
C2929 U2926 2.984 . S
C2929 O2927 1.353 . S
C2929 O2928 1.286 . S
C2929 C2931 1.363 . S
C2930 C2920 1.465 . S
C2930 U2926 2.847 . S
C2930 O2944 1.249 . S
C2930 O2945 1.202 . S
C2931 C2929 1.363 . S
C2931 C2933 1.408 . S
C2931 C2936 1.342 . S
C2932 C2933 1.310 . S
C2932 C2935 1.461 . S
C2932 H2952 0.932 . S
C2933 C2931 1.408 . S
C2933 C2932 1.310 . S
C2933 H2953 0.930 . S
C2934 C2935 1.474 . S
C2934 C2936 1.285 . S
C2934 H2954 0.929 . S
C2935 C2932 1.461 . S
C2935 C2934 1.474 . S
C2936 C2931 1.342 . S
C2936 C2934 1.285 . S
C2936 H2955 0.930 . S
C2937 C2940 1.424 . S
C2937 C2942 1.245 . S
C2937 C2943 1.428 . S
C2938 C2941 1.260 . S
C2938 C2942 1.477 . S
C2938 H2956 0.932 . S
C2939 C2940 1.384 . S
C2939 C2941 1.479 . S
C2939 H2957 0.929 . S
C2940 C2937 1.424 . S
C2940 C2939 1.384 . S
C2940 H2958 0.928 . S
C2941 C2938 1.260 . S
C2941 C2939 1.479 . S
C2942 C2937 1.245 . S
C2942 C2938 1.477 . S
C2942 H2959 0.932 . S
C2943 U2926 2.882 . S
C2943 C2937 1.428 . S
C2943 O2946 1.301 . S
C2943 O2947 1.282 . S
O2944 U2926 2.441 . S
O2944 C2930 1.249 . S
O2945 U2926 2.420 . S
O2945 C2930 1.202 . S
O2946 U2926 2.455 . S
O2946 C2943 1.301 . S
O2947 U2926 2.449 . S
O2947 C2943 1.282 . S
H2948 C2921 0.931 . S
H2949 C2923 0.929 . S
H2950 C2924 0.930 . S
H2951 C2925 0.931 . S
H2952 C2932 0.932 . S
H2953 C2933 0.930 . S
H2954 C2934 0.929 . S
H2955 C2936 0.930 . S
H2956 C2938 0.932 . S
H2957 C2939 0.929 . S
H2958 C2940 0.928 . S
H2959 C2942 0.932 . S
C2960 C2961 1.264 . S
C2960 C2965 1.479 . S
C2960 C2970 1.465 . S
C2961 C2960 1.264 . S
C2961 C2963 1.339 . S
C2961 H2988 0.931 . S
C2962 C2963 1.395 . S
C2962 C2964 1.320 . S
C2963 C2961 1.339 . S
C2963 C2962 1.395 . S
C2963 H2989 0.929 . S
C2964 C2962 1.320 . S
C2964 C2965 1.405 . S
C2964 H2990 0.930 . S
C2965 C2960 1.479 . S
C2965 C2964 1.405 . S
C2965 H2991 0.931 . S
U2966 O2967 2.454 . S
U2966 O2968 2.458 . S
U2966 C2969 2.984 . S
U2966 C2970 2.847 . S
U2966 C2983 2.882 . S
U2966 O2984 2.441 . S
U2966 O2985 2.420 . S
U2966 O2986 2.455 . S
U2966 O2987 2.449 . S
O2967 U2966 2.454 . S
O2967 C2969 1.353 . S
O2968 U2966 2.458 . S
O2968 C2969 1.286 . S
C2969 U2966 2.984 . S
C2969 O2967 1.353 . S
C2969 O2968 1.286 . S
C2969 C2971 1.363 . S
C2970 C2960 1.465 . S
C2970 U2966 2.847 . S
C2970 O2984 1.249 . S
C2970 O2985 1.202 . S
C2971 C2969 1.363 . S
C2971 C2973 1.408 . S
C2971 C2976 1.342 . S
C2972 C2973 1.310 . S
C2972 C2975 1.461 . S
C2972 H2992 0.932 . S
C2973 C2971 1.408 . S
C2973 C2972 1.310 . S
C2973 H2993 0.930 . S
C2974 C2975 1.474 . S
C2974 C2976 1.285 . S
C2974 H2994 0.929 . S
C2975 C2972 1.461 . S
C2975 C2974 1.474 . S
C2976 C2971 1.342 . S
C2976 C2974 1.285 . S
C2976 H2995 0.930 . S
C2977 C2980 1.424 . S
C2977 C2982 1.245 . S
C2977 C2983 1.428 . S
C2978 C2981 1.260 . S
C2978 C2982 1.477 . S
C2978 H2996 0.932 . S
C2979 C2980 1.384 . S
C2979 C2981 1.479 . S
C2979 H2997 0.929 . S
C2980 C2977 1.424 . S
C2980 C2979 1.384 . S
C2980 H2998 0.928 . S
C2981 C2978 1.260 . S
C2981 C2979 1.479 . S
C2982 C2977 1.245 . S
C2982 C2978 1.477 . S
C2982 H2999 0.932 . S
C2983 U2966 2.882 . S
C2983 C2977 1.428 . S
C2983 O2986 1.301 . S
C2983 O2987 1.282 . S
O2984 U2966 2.441 . S
O2984 C2970 1.249 . S
O2985 U2966 2.420 . S
O2985 C2970 1.202 . S
O2986 U2966 2.455 . S
O2986 C2983 1.301 . S
O2987 U2966 2.449 . S
O2987 C2983 1.282 . S
H2988 C2961 0.931 . S
H2989 C2963 0.929 . S
H2990 C2964 0.930 . S
H2991 C2965 0.931 . S
H2992 C2972 0.932 . S
H2993 C2973 0.930 . S
H2994 C2974 0.929 . S
H2995 C2976 0.930 . S
H2996 C2978 0.932 . S
H2997 C2979 0.929 . S
H2998 C2980 0.928 . S
H2999 C2982 0.932 . S
C3000 C3001 1.264 . S
C3000 C3005 1.479 . S
C3000 C3010 1.465 . S
C3001 C3000 1.264 . S
C3001 C3003 1.339 . S
C3001 H3028 0.931 . S
C3002 C3003 1.395 . S
C3002 C3004 1.320 . S
C3003 C3001 1.339 . S
C3003 C3002 1.395 . S
C3003 H3029 0.929 . S
C3004 C3002 1.320 . S
C3004 C3005 1.405 . S
C3004 H3030 0.930 . S
C3005 C3000 1.479 . S
C3005 C3004 1.405 . S
C3005 H3031 0.931 . S
U3006 O3007 2.454 . S
U3006 O3008 2.458 . S
U3006 C3009 2.984 . S
U3006 C3010 2.847 . S
U3006 C3023 2.882 . S
U3006 O3024 2.441 . S
U3006 O3025 2.420 . S
U3006 O3026 2.455 . S
U3006 O3027 2.449 . S
O3007 U3006 2.454 . S
O3007 C3009 1.353 . S
O3008 U3006 2.458 . S
O3008 C3009 1.286 . S
C3009 U3006 2.984 . S
C3009 O3007 1.353 . S
C3009 O3008 1.286 . S
C3009 C3011 1.363 . S
C3010 C3000 1.465 . S
C3010 U3006 2.847 . S
C3010 O3024 1.249 . S
C3010 O3025 1.202 . S
C3011 C3009 1.363 . S
C3011 C3013 1.408 . S
C3011 C3016 1.342 . S
C3012 C3013 1.310 . S
C3012 C3015 1.461 . S
C3012 H3032 0.932 . S
C3013 C3011 1.408 . S
C3013 C3012 1.310 . S
C3013 H3033 0.930 . S
C3014 C3015 1.474 . S
C3014 C3016 1.285 . S
C3014 H3034 0.929 . S
C3015 C3012 1.461 . S
C3015 C3014 1.474 . S
C3016 C3011 1.342 . S
C3016 C3014 1.285 . S
C3016 H3035 0.930 . S
C3017 C3020 1.424 . S
C3017 C3022 1.245 . S
C3017 C3023 1.428 . S
C3018 C3021 1.260 . S
C3018 C3022 1.477 . S
C3018 H3036 0.932 . S
C3019 C3020 1.384 . S
C3019 C3021 1.479 . S
C3019 H3037 0.929 . S
C3020 C3017 1.424 . S
C3020 C3019 1.384 . S
C3020 H3038 0.928 . S
C3021 C3018 1.260 . S
C3021 C3019 1.479 . S
C3022 C3017 1.245 . S
C3022 C3018 1.477 . S
C3022 H3039 0.932 . S
C3023 U3006 2.882 . S
C3023 C3017 1.428 . S
C3023 O3026 1.301 . S
C3023 O3027 1.282 . S
O3024 U3006 2.441 . S
O3024 C3010 1.249 . S
O3025 U3006 2.420 . S
O3025 C3010 1.202 . S
O3026 U3006 2.455 . S
O3026 C3023 1.301 . S
O3027 U3006 2.449 . S
O3027 C3023 1.282 . S
H3028 C3001 0.931 . S
H3029 C3003 0.929 . S
H3030 C3004 0.930 . S
H3031 C3005 0.931 . S
H3032 C3012 0.932 . S
H3033 C3013 0.930 . S
H3034 C3014 0.929 . S
H3035 C3016 0.930 . S
H3036 C3018 0.932 . S
H3037 C3019 0.929 . S
H3038 C3020 0.928 . S
H3039 C3022 0.932 . S
C3040 C3041 1.264 . S
C3040 C3045 1.479 . S
C3040 C3050 1.465 . S
C3041 C3040 1.264 . S
C3041 C3043 1.339 . S
C3041 H3068 0.931 . S
C3042 C3043 1.395 . S
C3042 C3044 1.320 . S
C3043 C3041 1.339 . S
C3043 C3042 1.395 . S
C3043 H3069 0.929 . S
C3044 C3042 1.320 . S
C3044 C3045 1.405 . S
C3044 H3070 0.930 . S
C3045 C3040 1.479 . S
C3045 C3044 1.405 . S
C3045 H3071 0.931 . S
U3046 O3047 2.454 . S
U3046 O3048 2.458 . S
U3046 C3049 2.984 . S
U3046 C3050 2.847 . S
U3046 C3063 2.882 . S
U3046 O3064 2.441 . S
U3046 O3065 2.420 . S
U3046 O3066 2.455 . S
U3046 O3067 2.449 . S
O3047 U3046 2.454 . S
O3047 C3049 1.353 . S
O3048 U3046 2.458 . S
O3048 C3049 1.286 . S
C3049 U3046 2.984 . S
C3049 O3047 1.353 . S
C3049 O3048 1.286 . S
C3049 C3051 1.363 . S
C3050 C3040 1.465 . S
C3050 U3046 2.847 . S
C3050 O3064 1.249 . S
C3050 O3065 1.202 . S
C3051 C3049 1.363 . S
C3051 C3053 1.408 . S
C3051 C3056 1.342 . S
C3052 C3053 1.310 . S
C3052 C3055 1.461 . S
C3052 H3072 0.932 . S
C3053 C3051 1.408 . S
C3053 C3052 1.310 . S
C3053 H3073 0.930 . S
C3054 C3055 1.474 . S
C3054 C3056 1.285 . S
C3054 H3074 0.929 . S
C3055 C3052 1.461 . S
C3055 C3054 1.474 . S
C3056 C3051 1.342 . S
C3056 C3054 1.285 . S
C3056 H3075 0.930 . S
C3057 C3060 1.424 . S
C3057 C3062 1.245 . S
C3057 C3063 1.428 . S
C3058 C3061 1.260 . S
C3058 C3062 1.477 . S
C3058 H3076 0.932 . S
C3059 C3060 1.384 . S
C3059 C3061 1.479 . S
C3059 H3077 0.929 . S
C3060 C3057 1.424 . S
C3060 C3059 1.384 . S
C3060 H3078 0.928 . S
C3061 C3058 1.260 . S
C3061 C3059 1.479 . S
C3062 C3057 1.245 . S
C3062 C3058 1.477 . S
C3062 H3079 0.932 . S
C3063 U3046 2.882 . S
C3063 C3057 1.428 . S
C3063 O3066 1.301 . S
C3063 O3067 1.282 . S
O3064 U3046 2.441 . S
O3064 C3050 1.249 . S
O3065 U3046 2.420 . S
O3065 C3050 1.202 . S
O3066 U3046 2.455 . S
O3066 C3063 1.301 . S
O3067 U3046 2.449 . S
O3067 C3063 1.282 . S
H3068 C3041 0.931 . S
H3069 C3043 0.929 . S
H3070 C3044 0.930 . S
H3071 C3045 0.931 . S
H3072 C3052 0.932 . S
H3073 C3053 0.930 . S
H3074 C3054 0.929 . S
H3075 C3056 0.930 . S
H3076 C3058 0.932 . S
H3077 C3059 0.929 . S
H3078 C3060 0.928 . S
H3079 C3062 0.932 . S
C3080 C3081 1.264 . S
C3080 C3085 1.479 . S
C3080 C3090 1.465 . S
C3081 C3080 1.264 . S
C3081 C3083 1.339 . S
C3081 H3108 0.931 . S
C3082 C3083 1.395 . S
C3082 C3084 1.320 . S
C3083 C3081 1.339 . S
C3083 C3082 1.395 . S
C3083 H3109 0.929 . S
C3084 C3082 1.320 . S
C3084 C3085 1.405 . S
C3084 H3110 0.930 . S
C3085 C3080 1.479 . S
C3085 C3084 1.405 . S
C3085 H3111 0.931 . S
U3086 O3087 2.454 . S
U3086 O3088 2.458 . S
U3086 C3089 2.984 . S
U3086 C3090 2.847 . S
U3086 C3103 2.882 . S
U3086 O3104 2.441 . S
U3086 O3105 2.420 . S
U3086 O3106 2.455 . S
U3086 O3107 2.449 . S
O3087 U3086 2.454 . S
O3087 C3089 1.353 . S
O3088 U3086 2.458 . S
O3088 C3089 1.286 . S
C3089 U3086 2.984 . S
C3089 O3087 1.353 . S
C3089 O3088 1.286 . S
C3089 C3091 1.363 . S
C3090 C3080 1.465 . S
C3090 U3086 2.847 . S
C3090 O3104 1.249 . S
C3090 O3105 1.202 . S
C3091 C3089 1.363 . S
C3091 C3093 1.408 . S
C3091 C3096 1.342 . S
C3092 C3093 1.310 . S
C3092 C3095 1.461 . S
C3092 H3112 0.932 . S
C3093 C3091 1.408 . S
C3093 C3092 1.310 . S
C3093 H3113 0.930 . S
C3094 C3095 1.474 . S
C3094 C3096 1.285 . S
C3094 H3114 0.929 . S
C3095 C3092 1.461 . S
C3095 C3094 1.474 . S
C3096 C3091 1.342 . S
C3096 C3094 1.285 . S
C3096 H3115 0.930 . S
C3097 C3100 1.424 . S
C3097 C3102 1.245 . S
C3097 C3103 1.428 . S
C3098 C3101 1.260 . S
C3098 C3102 1.477 . S
C3098 H3116 0.932 . S
C3099 C3100 1.384 . S
C3099 C3101 1.479 . S
C3099 H3117 0.929 . S
C3100 C3097 1.424 . S
C3100 C3099 1.384 . S
C3100 H3118 0.928 . S
C3101 C3098 1.260 . S
C3101 C3099 1.479 . S
C3102 C3097 1.245 . S
C3102 C3098 1.477 . S
C3102 H3119 0.932 . S
C3103 U3086 2.882 . S
C3103 C3097 1.428 . S
C3103 O3106 1.301 . S
C3103 O3107 1.282 . S
O3104 U3086 2.441 . S
O3104 C3090 1.249 . S
O3105 U3086 2.420 . S
O3105 C3090 1.202 . S
O3106 U3086 2.455 . S
O3106 C3103 1.301 . S
O3107 U3086 2.449 . S
O3107 C3103 1.282 . S
H3108 C3081 0.931 . S
H3109 C3083 0.929 . S
H3110 C3084 0.930 . S
H3111 C3085 0.931 . S
H3112 C3092 0.932 . S
H3113 C3093 0.930 . S
H3114 C3094 0.929 . S
H3115 C3096 0.930 . S
H3116 C3098 0.932 . S
H3117 C3099 0.929 . S
H3118 C3100 0.928 . S
H3119 C3102 0.932 . S
C3120 C3121 1.264 . S
C3120 C3125 1.479 . S
C3120 C3130 1.465 . S
C3121 C3120 1.264 . S
C3121 C3123 1.339 . S
C3121 H3148 0.931 . S
C3122 C3123 1.395 . S
C3122 C3124 1.320 . S
C3123 C3121 1.339 . S
C3123 C3122 1.395 . S
C3123 H3149 0.929 . S
C3124 C3122 1.320 . S
C3124 C3125 1.405 . S
C3124 H3150 0.930 . S
C3125 C3120 1.479 . S
C3125 C3124 1.405 . S
C3125 H3151 0.931 . S
U3126 O3127 2.454 . S
U3126 O3128 2.458 . S
U3126 C3129 2.984 . S
U3126 C3130 2.847 . S
U3126 C3143 2.882 . S
U3126 O3144 2.441 . S
U3126 O3145 2.420 . S
U3126 O3146 2.455 . S
U3126 O3147 2.449 . S
O3127 U3126 2.454 . S
O3127 C3129 1.353 . S
O3128 U3126 2.458 . S
O3128 C3129 1.286 . S
C3129 U3126 2.984 . S
C3129 O3127 1.353 . S
C3129 O3128 1.286 . S
C3129 C3131 1.363 . S
C3130 C3120 1.465 . S
C3130 U3126 2.847 . S
C3130 O3144 1.249 . S
C3130 O3145 1.202 . S
C3131 C3129 1.363 . S
C3131 C3133 1.408 . S
C3131 C3136 1.342 . S
C3132 C3133 1.310 . S
C3132 C3135 1.461 . S
C3132 H3152 0.932 . S
C3133 C3131 1.408 . S
C3133 C3132 1.310 . S
C3133 H3153 0.930 . S
C3134 C3135 1.474 . S
C3134 C3136 1.285 . S
C3134 H3154 0.929 . S
C3135 C3132 1.461 . S
C3135 C3134 1.474 . S
C3136 C3131 1.342 . S
C3136 C3134 1.285 . S
C3136 H3155 0.930 . S
C3137 C3140 1.424 . S
C3137 C3142 1.245 . S
C3137 C3143 1.428 . S
C3138 C3141 1.260 . S
C3138 C3142 1.477 . S
C3138 H3156 0.932 . S
C3139 C3140 1.384 . S
C3139 C3141 1.479 . S
C3139 H3157 0.929 . S
C3140 C3137 1.424 . S
C3140 C3139 1.384 . S
C3140 H3158 0.928 . S
C3141 C3138 1.260 . S
C3141 C3139 1.479 . S
C3142 C3137 1.245 . S
C3142 C3138 1.477 . S
C3142 H3159 0.932 . S
C3143 U3126 2.882 . S
C3143 C3137 1.428 . S
C3143 O3146 1.301 . S
C3143 O3147 1.282 . S
O3144 U3126 2.441 . S
O3144 C3130 1.249 . S
O3145 U3126 2.420 . S
O3145 C3130 1.202 . S
O3146 U3126 2.455 . S
O3146 C3143 1.301 . S
O3147 U3126 2.449 . S
O3147 C3143 1.282 . S
H3148 C3121 0.931 . S
H3149 C3123 0.929 . S
H3150 C3124 0.930 . S
H3151 C3125 0.931 . S
H3152 C3132 0.932 . S
H3153 C3133 0.930 . S
H3154 C3134 0.929 . S
H3155 C3136 0.930 . S
H3156 C3138 0.932 . S
H3157 C3139 0.929 . S
H3158 C3140 0.928 . S
H3159 C3142 0.932 . S
C3160 C3161 1.264 . S
C3160 C3165 1.479 . S
C3160 C3170 1.465 . S
C3161 C3160 1.264 . S
C3161 C3163 1.339 . S
C3161 H3188 0.931 . S
C3162 C3163 1.395 . S
C3162 C3164 1.320 . S
C3163 C3161 1.339 . S
C3163 C3162 1.395 . S
C3163 H3189 0.929 . S
C3164 C3162 1.320 . S
C3164 C3165 1.405 . S
C3164 H3190 0.930 . S
C3165 C3160 1.479 . S
C3165 C3164 1.405 . S
C3165 H3191 0.931 . S
U3166 O3167 2.454 . S
U3166 O3168 2.458 . S
U3166 C3169 2.984 . S
U3166 C3170 2.847 . S
U3166 C3183 2.882 . S
U3166 O3184 2.441 . S
U3166 O3185 2.420 . S
U3166 O3186 2.455 . S
U3166 O3187 2.449 . S
O3167 U3166 2.454 . S
O3167 C3169 1.353 . S
O3168 U3166 2.458 . S
O3168 C3169 1.286 . S
C3169 U3166 2.984 . S
C3169 O3167 1.353 . S
C3169 O3168 1.286 . S
C3169 C3171 1.363 . S
C3170 C3160 1.465 . S
C3170 U3166 2.847 . S
C3170 O3184 1.249 . S
C3170 O3185 1.202 . S
C3171 C3169 1.363 . S
C3171 C3173 1.408 . S
C3171 C3176 1.342 . S
C3172 C3173 1.310 . S
C3172 C3175 1.461 . S
C3172 H3192 0.932 . S
C3173 C3171 1.408 . S
C3173 C3172 1.310 . S
C3173 H3193 0.930 . S
C3174 C3175 1.474 . S
C3174 C3176 1.285 . S
C3174 H3194 0.929 . S
C3175 C3172 1.461 . S
C3175 C3174 1.474 . S
C3176 C3171 1.342 . S
C3176 C3174 1.285 . S
C3176 H3195 0.930 . S
C3177 C3180 1.424 . S
C3177 C3182 1.245 . S
C3177 C3183 1.428 . S
C3178 C3181 1.260 . S
C3178 C3182 1.477 . S
C3178 H3196 0.932 . S
C3179 C3180 1.384 . S
C3179 C3181 1.479 . S
C3179 H3197 0.929 . S
C3180 C3177 1.424 . S
C3180 C3179 1.384 . S
C3180 H3198 0.928 . S
C3181 C3178 1.260 . S
C3181 C3179 1.479 . S
C3182 C3177 1.245 . S
C3182 C3178 1.477 . S
C3182 H3199 0.932 . S
C3183 U3166 2.882 . S
C3183 C3177 1.428 . S
C3183 O3186 1.301 . S
C3183 O3187 1.282 . S
O3184 U3166 2.441 . S
O3184 C3170 1.249 . S
O3185 U3166 2.420 . S
O3185 C3170 1.202 . S
O3186 U3166 2.455 . S
O3186 C3183 1.301 . S
O3187 U3166 2.449 . S
O3187 C3183 1.282 . S
H3188 C3161 0.931 . S
H3189 C3163 0.929 . S
H3190 C3164 0.930 . S
H3191 C3165 0.931 . S
H3192 C3172 0.932 . S
H3193 C3173 0.930 . S
H3194 C3174 0.929 . S
H3195 C3176 0.930 . S
H3196 C3178 0.932 . S
H3197 C3179 0.929 . S
H3198 C3180 0.928 . S
H3199 C3182 0.932 . S
C3200 C3201 1.264 . S
C3200 C3205 1.479 . S
C3200 C3210 1.465 . S
C3201 C3200 1.264 . S
C3201 C3203 1.339 . S
C3201 H3228 0.931 . S
C3202 C3203 1.395 . S
C3202 C3204 1.320 . S
C3203 C3201 1.339 . S
C3203 C3202 1.395 . S
C3203 H3229 0.929 . S
C3204 C3202 1.320 . S
C3204 C3205 1.405 . S
C3204 H3230 0.930 . S
C3205 C3200 1.479 . S
C3205 C3204 1.405 . S
C3205 H3231 0.931 . S
U3206 O3207 2.454 . S
U3206 O3208 2.458 . S
U3206 C3209 2.984 . S
U3206 C3210 2.847 . S
U3206 C3223 2.882 . S
U3206 O3224 2.441 . S
U3206 O3225 2.420 . S
U3206 O3226 2.455 . S
U3206 O3227 2.449 . S
O3207 U3206 2.454 . S
O3207 C3209 1.353 . S
O3208 U3206 2.458 . S
O3208 C3209 1.286 . S
C3209 U3206 2.984 . S
C3209 O3207 1.353 . S
C3209 O3208 1.286 . S
C3209 C3211 1.363 . S
C3210 C3200 1.465 . S
C3210 U3206 2.847 . S
C3210 O3224 1.249 . S
C3210 O3225 1.202 . S
C3211 C3209 1.363 . S
C3211 C3213 1.408 . S
C3211 C3216 1.342 . S
C3212 C3213 1.310 . S
C3212 C3215 1.461 . S
C3212 H3232 0.932 . S
C3213 C3211 1.408 . S
C3213 C3212 1.310 . S
C3213 H3233 0.930 . S
C3214 C3215 1.474 . S
C3214 C3216 1.285 . S
C3214 H3234 0.929 . S
C3215 C3212 1.461 . S
C3215 C3214 1.474 . S
C3216 C3211 1.342 . S
C3216 C3214 1.285 . S
C3216 H3235 0.930 . S
C3217 C3220 1.424 . S
C3217 C3222 1.245 . S
C3217 C3223 1.428 . S
C3218 C3221 1.260 . S
C3218 C3222 1.477 . S
C3218 H3236 0.932 . S
C3219 C3220 1.384 . S
C3219 C3221 1.479 . S
C3219 H3237 0.929 . S
C3220 C3217 1.424 . S
C3220 C3219 1.384 . S
C3220 H3238 0.928 . S
C3221 C3218 1.260 . S
C3221 C3219 1.479 . S
C3222 C3217 1.245 . S
C3222 C3218 1.477 . S
C3222 H3239 0.932 . S
C3223 U3206 2.882 . S
C3223 C3217 1.428 . S
C3223 O3226 1.301 . S
C3223 O3227 1.282 . S
O3224 U3206 2.441 . S
O3224 C3210 1.249 . S
O3225 U3206 2.420 . S
O3225 C3210 1.202 . S
O3226 U3206 2.455 . S
O3226 C3223 1.301 . S
O3227 U3206 2.449 . S
O3227 C3223 1.282 . S
H3228 C3201 0.931 . S
H3229 C3203 0.929 . S
H3230 C3204 0.930 . S
H3231 C3205 0.931 . S
H3232 C3212 0.932 . S
H3233 C3213 0.930 . S
H3234 C3214 0.929 . S
H3235 C3216 0.930 . S
H3236 C3218 0.932 . S
H3237 C3219 0.929 . S
H3238 C3220 0.928 . S
H3239 C3222 0.932 . S
C3240 C3241 1.264 . S
C3240 C3245 1.479 . S
C3240 C3250 1.465 . S
C3241 C3240 1.264 . S
C3241 C3243 1.339 . S
C3241 H3268 0.931 . S
C3242 C3243 1.395 . S
C3242 C3244 1.320 . S
C3243 C3241 1.339 . S
C3243 C3242 1.395 . S
C3243 H3269 0.929 . S
C3244 C3242 1.320 . S
C3244 C3245 1.405 . S
C3244 H3270 0.930 . S
C3245 C3240 1.479 . S
C3245 C3244 1.405 . S
C3245 H3271 0.931 . S
U3246 O3247 2.454 . S
U3246 O3248 2.458 . S
U3246 C3249 2.984 . S
U3246 C3250 2.847 . S
U3246 C3263 2.882 . S
U3246 O3264 2.441 . S
U3246 O3265 2.420 . S
U3246 O3266 2.455 . S
U3246 O3267 2.449 . S
O3247 U3246 2.454 . S
O3247 C3249 1.353 . S
O3248 U3246 2.458 . S
O3248 C3249 1.286 . S
C3249 U3246 2.984 . S
C3249 O3247 1.353 . S
C3249 O3248 1.286 . S
C3249 C3251 1.363 . S
C3250 C3240 1.465 . S
C3250 U3246 2.847 . S
C3250 O3264 1.249 . S
C3250 O3265 1.202 . S
C3251 C3249 1.363 . S
C3251 C3253 1.408 . S
C3251 C3256 1.342 . S
C3252 C3253 1.310 . S
C3252 C3255 1.461 . S
C3252 H3272 0.932 . S
C3253 C3251 1.408 . S
C3253 C3252 1.310 . S
C3253 H3273 0.930 . S
C3254 C3255 1.474 . S
C3254 C3256 1.285 . S
C3254 H3274 0.929 . S
C3255 C3252 1.461 . S
C3255 C3254 1.474 . S
C3256 C3251 1.342 . S
C3256 C3254 1.285 . S
C3256 H3275 0.930 . S
C3257 C3260 1.424 . S
C3257 C3262 1.245 . S
C3257 C3263 1.428 . S
C3258 C3261 1.260 . S
C3258 C3262 1.477 . S
C3258 H3276 0.932 . S
C3259 C3260 1.384 . S
C3259 C3261 1.479 . S
C3259 H3277 0.929 . S
C3260 C3257 1.424 . S
C3260 C3259 1.384 . S
C3260 H3278 0.928 . S
C3261 C3258 1.260 . S
C3261 C3259 1.479 . S
C3262 C3257 1.245 . S
C3262 C3258 1.477 . S
C3262 H3279 0.932 . S
C3263 U3246 2.882 . S
C3263 C3257 1.428 . S
C3263 O3266 1.301 . S
C3263 O3267 1.282 . S
O3264 U3246 2.441 . S
O3264 C3250 1.249 . S
O3265 U3246 2.420 . S
O3265 C3250 1.202 . S
O3266 U3246 2.455 . S
O3266 C3263 1.301 . S
O3267 U3246 2.449 . S
O3267 C3263 1.282 . S
H3268 C3241 0.931 . S
H3269 C3243 0.929 . S
H3270 C3244 0.930 . S
H3271 C3245 0.931 . S
H3272 C3252 0.932 . S
H3273 C3253 0.930 . S
H3274 C3254 0.929 . S
H3275 C3256 0.930 . S
H3276 C3258 0.932 . S
H3277 C3259 0.929 . S
H3278 C3260 0.928 . S
H3279 C3262 0.932 . S
C3280 C3281 1.264 . S
C3280 C3285 1.479 . S
C3280 C3290 1.465 . S
C3281 C3280 1.264 . S
C3281 C3283 1.339 . S
C3281 H3308 0.931 . S
C3282 C3283 1.395 . S
C3282 C3284 1.320 . S
C3283 C3281 1.339 . S
C3283 C3282 1.395 . S
C3283 H3309 0.929 . S
C3284 C3282 1.320 . S
C3284 C3285 1.405 . S
C3284 H3310 0.930 . S
C3285 C3280 1.479 . S
C3285 C3284 1.405 . S
C3285 H3311 0.931 . S
U3286 O3287 2.454 . S
U3286 O3288 2.458 . S
U3286 C3289 2.984 . S
U3286 C3290 2.847 . S
U3286 C3303 2.882 . S
U3286 O3304 2.441 . S
U3286 O3305 2.420 . S
U3286 O3306 2.455 . S
U3286 O3307 2.449 . S
O3287 U3286 2.454 . S
O3287 C3289 1.353 . S
O3288 U3286 2.458 . S
O3288 C3289 1.286 . S
C3289 U3286 2.984 . S
C3289 O3287 1.353 . S
C3289 O3288 1.286 . S
C3289 C3291 1.363 . S
C3290 C3280 1.465 . S
C3290 U3286 2.847 . S
C3290 O3304 1.249 . S
C3290 O3305 1.202 . S
C3291 C3289 1.363 . S
C3291 C3293 1.408 . S
C3291 C3296 1.342 . S
C3292 C3293 1.310 . S
C3292 C3295 1.461 . S
C3292 H3312 0.932 . S
C3293 C3291 1.408 . S
C3293 C3292 1.310 . S
C3293 H3313 0.930 . S
C3294 C3295 1.474 . S
C3294 C3296 1.285 . S
C3294 H3314 0.929 . S
C3295 C3292 1.461 . S
C3295 C3294 1.474 . S
C3296 C3291 1.342 . S
C3296 C3294 1.285 . S
C3296 H3315 0.930 . S
C3297 C3300 1.424 . S
C3297 C3302 1.245 . S
C3297 C3303 1.428 . S
C3298 C3301 1.260 . S
C3298 C3302 1.477 . S
C3298 H3316 0.932 . S
C3299 C3300 1.384 . S
C3299 C3301 1.479 . S
C3299 H3317 0.929 . S
C3300 C3297 1.424 . S
C3300 C3299 1.384 . S
C3300 H3318 0.928 . S
C3301 C3298 1.260 . S
C3301 C3299 1.479 . S
C3302 C3297 1.245 . S
C3302 C3298 1.477 . S
C3302 H3319 0.932 . S
C3303 U3286 2.882 . S
C3303 C3297 1.428 . S
C3303 O3306 1.301 . S
C3303 O3307 1.282 . S
O3304 U3286 2.441 . S
O3304 C3290 1.249 . S
O3305 U3286 2.420 . S
O3305 C3290 1.202 . S
O3306 U3286 2.455 . S
O3306 C3303 1.301 . S
O3307 U3286 2.449 . S
O3307 C3303 1.282 . S
H3308 C3281 0.931 . S
H3309 C3283 0.929 . S
H3310 C3284 0.930 . S
H3311 C3285 0.931 . S
H3312 C3292 0.932 . S
H3313 C3293 0.930 . S
H3314 C3294 0.929 . S
H3315 C3296 0.930 . S
H3316 C3298 0.932 . S
H3317 C3299 0.929 . S
H3318 C3300 0.928 . S
H3319 C3302 0.932 . S
C3320 C3321 1.264 . S
C3320 C3325 1.479 . S
C3320 C3330 1.465 . S
C3321 C3320 1.264 . S
C3321 C3323 1.339 . S
C3321 H3348 0.931 . S
C3322 C3323 1.395 . S
C3322 C3324 1.320 . S
C3323 C3321 1.339 . S
C3323 C3322 1.395 . S
C3323 H3349 0.929 . S
C3324 C3322 1.320 . S
C3324 C3325 1.405 . S
C3324 H3350 0.930 . S
C3325 C3320 1.479 . S
C3325 C3324 1.405 . S
C3325 H3351 0.931 . S
U3326 O3327 2.454 . S
U3326 O3328 2.458 . S
U3326 C3329 2.984 . S
U3326 C3330 2.847 . S
U3326 C3343 2.882 . S
U3326 O3344 2.441 . S
U3326 O3345 2.420 . S
U3326 O3346 2.455 . S
U3326 O3347 2.449 . S
O3327 U3326 2.454 . S
O3327 C3329 1.353 . S
O3328 U3326 2.458 . S
O3328 C3329 1.286 . S
C3329 U3326 2.984 . S
C3329 O3327 1.353 . S
C3329 O3328 1.286 . S
C3329 C3331 1.363 . S
C3330 C3320 1.465 . S
C3330 U3326 2.847 . S
C3330 O3344 1.249 . S
C3330 O3345 1.202 . S
C3331 C3329 1.363 . S
C3331 C3333 1.408 . S
C3331 C3336 1.342 . S
C3332 C3333 1.310 . S
C3332 C3335 1.461 . S
C3332 H3352 0.932 . S
C3333 C3331 1.408 . S
C3333 C3332 1.310 . S
C3333 H3353 0.930 . S
C3334 C3335 1.474 . S
C3334 C3336 1.285 . S
C3334 H3354 0.929 . S
C3335 C3332 1.461 . S
C3335 C3334 1.474 . S
C3336 C3331 1.342 . S
C3336 C3334 1.285 . S
C3336 H3355 0.930 . S
C3337 C3340 1.424 . S
C3337 C3342 1.245 . S
C3337 C3343 1.428 . S
C3338 C3341 1.260 . S
C3338 C3342 1.477 . S
C3338 H3356 0.932 . S
C3339 C3340 1.384 . S
C3339 C3341 1.479 . S
C3339 H3357 0.929 . S
C3340 C3337 1.424 . S
C3340 C3339 1.384 . S
C3340 H3358 0.928 . S
C3341 C3338 1.260 . S
C3341 C3339 1.479 . S
C3342 C3337 1.245 . S
C3342 C3338 1.477 . S
C3342 H3359 0.932 . S
C3343 U3326 2.882 . S
C3343 C3337 1.428 . S
C3343 O3346 1.301 . S
C3343 O3347 1.282 . S
O3344 U3326 2.441 . S
O3344 C3330 1.249 . S
O3345 U3326 2.420 . S
O3345 C3330 1.202 . S
O3346 U3326 2.455 . S
O3346 C3343 1.301 . S
O3347 U3326 2.449 . S
O3347 C3343 1.282 . S
H3348 C3321 0.931 . S
H3349 C3323 0.929 . S
H3350 C3324 0.930 . S
H3351 C3325 0.931 . S
H3352 C3332 0.932 . S
H3353 C3333 0.930 . S
H3354 C3334 0.929 . S
H3355 C3336 0.930 . S
H3356 C3338 0.932 . S
H3357 C3339 0.929 . S
H3358 C3340 0.928 . S
H3359 C3342 0.932 . S
C3360 C3361 1.264 . S
C3360 C3365 1.479 . S
C3360 C3370 1.465 . S
C3361 C3360 1.264 . S
C3361 C3363 1.339 . S
C3361 H3388 0.931 . S
C3362 C3363 1.395 . S
C3362 C3364 1.320 . S
C3363 C3361 1.339 . S
C3363 C3362 1.395 . S
C3363 H3389 0.929 . S
C3364 C3362 1.320 . S
C3364 C3365 1.405 . S
C3364 H3390 0.930 . S
C3365 C3360 1.479 . S
C3365 C3364 1.405 . S
C3365 H3391 0.931 . S
U3366 O3367 2.454 . S
U3366 O3368 2.458 . S
U3366 C3369 2.984 . S
U3366 C3370 2.847 . S
U3366 C3383 2.882 . S
U3366 O3384 2.441 . S
U3366 O3385 2.420 . S
U3366 O3386 2.455 . S
U3366 O3387 2.449 . S
O3367 U3366 2.454 . S
O3367 C3369 1.353 . S
O3368 U3366 2.458 . S
O3368 C3369 1.286 . S
C3369 U3366 2.984 . S
C3369 O3367 1.353 . S
C3369 O3368 1.286 . S
C3369 C3371 1.363 . S
C3370 C3360 1.465 . S
C3370 U3366 2.847 . S
C3370 O3384 1.249 . S
C3370 O3385 1.202 . S
C3371 C3369 1.363 . S
C3371 C3373 1.408 . S
C3371 C3376 1.342 . S
C3372 C3373 1.310 . S
C3372 C3375 1.461 . S
C3372 H3392 0.932 . S
C3373 C3371 1.408 . S
C3373 C3372 1.310 . S
C3373 H3393 0.930 . S
C3374 C3375 1.474 . S
C3374 C3376 1.285 . S
C3374 H3394 0.929 . S
C3375 C3372 1.461 . S
C3375 C3374 1.474 . S
C3376 C3371 1.342 . S
C3376 C3374 1.285 . S
C3376 H3395 0.930 . S
C3377 C3380 1.424 . S
C3377 C3382 1.245 . S
C3377 C3383 1.428 . S
C3378 C3381 1.260 . S
C3378 C3382 1.477 . S
C3378 H3396 0.932 . S
C3379 C3380 1.384 . S
C3379 C3381 1.479 . S
C3379 H3397 0.929 . S
C3380 C3377 1.424 . S
C3380 C3379 1.384 . S
C3380 H3398 0.928 . S
C3381 C3378 1.260 . S
C3381 C3379 1.479 . S
C3382 C3377 1.245 . S
C3382 C3378 1.477 . S
C3382 H3399 0.932 . S
C3383 U3366 2.882 . S
C3383 C3377 1.428 . S
C3383 O3386 1.301 . S
C3383 O3387 1.282 . S
O3384 U3366 2.441 . S
O3384 C3370 1.249 . S
O3385 U3366 2.420 . S
O3385 C3370 1.202 . S
O3386 U3366 2.455 . S
O3386 C3383 1.301 . S
O3387 U3366 2.449 . S
O3387 C3383 1.282 . S
H3388 C3361 0.931 . S
H3389 C3363 0.929 . S
H3390 C3364 0.930 . S
H3391 C3365 0.931 . S
H3392 C3372 0.932 . S
H3393 C3373 0.930 . S
H3394 C3374 0.929 . S
H3395 C3376 0.930 . S
H3396 C3378 0.932 . S
H3397 C3379 0.929 . S
H3398 C3380 0.928 . S
H3399 C3382 0.932 . S
C3400 C3401 1.264 . S
C3400 C3405 1.479 . S
C3400 C3410 1.465 . S
C3401 C3400 1.264 . S
C3401 C3403 1.339 . S
C3401 H3428 0.931 . S
C3402 C3403 1.395 . S
C3402 C3404 1.320 . S
C3403 C3401 1.339 . S
C3403 C3402 1.395 . S
C3403 H3429 0.929 . S
C3404 C3402 1.320 . S
C3404 C3405 1.405 . S
C3404 H3430 0.930 . S
C3405 C3400 1.479 . S
C3405 C3404 1.405 . S
C3405 H3431 0.931 . S
U3406 O3407 2.454 . S
U3406 O3408 2.458 . S
U3406 C3409 2.984 . S
U3406 C3410 2.847 . S
U3406 C3423 2.882 . S
U3406 O3424 2.441 . S
U3406 O3425 2.420 . S
U3406 O3426 2.455 . S
U3406 O3427 2.449 . S
O3407 U3406 2.454 . S
O3407 C3409 1.353 . S
O3408 U3406 2.458 . S
O3408 C3409 1.286 . S
C3409 U3406 2.984 . S
C3409 O3407 1.353 . S
C3409 O3408 1.286 . S
C3409 C3411 1.363 . S
C3410 C3400 1.465 . S
C3410 U3406 2.847 . S
C3410 O3424 1.249 . S
C3410 O3425 1.202 . S
C3411 C3409 1.363 . S
C3411 C3413 1.408 . S
C3411 C3416 1.342 . S
C3412 C3413 1.310 . S
C3412 C3415 1.461 . S
C3412 H3432 0.932 . S
C3413 C3411 1.408 . S
C3413 C3412 1.310 . S
C3413 H3433 0.930 . S
C3414 C3415 1.474 . S
C3414 C3416 1.285 . S
C3414 H3434 0.929 . S
C3415 C3412 1.461 . S
C3415 C3414 1.474 . S
C3416 C3411 1.342 . S
C3416 C3414 1.285 . S
C3416 H3435 0.930 . S
C3417 C3420 1.424 . S
C3417 C3422 1.245 . S
C3417 C3423 1.428 . S
C3418 C3421 1.260 . S
C3418 C3422 1.477 . S
C3418 H3436 0.932 . S
C3419 C3420 1.384 . S
C3419 C3421 1.479 . S
C3419 H3437 0.929 . S
C3420 C3417 1.424 . S
C3420 C3419 1.384 . S
C3420 H3438 0.928 . S
C3421 C3418 1.260 . S
C3421 C3419 1.479 . S
C3422 C3417 1.245 . S
C3422 C3418 1.477 . S
C3422 H3439 0.932 . S
C3423 U3406 2.882 . S
C3423 C3417 1.428 . S
C3423 O3426 1.301 . S
C3423 O3427 1.282 . S
O3424 U3406 2.441 . S
O3424 C3410 1.249 . S
O3425 U3406 2.420 . S
O3425 C3410 1.202 . S
O3426 U3406 2.455 . S
O3426 C3423 1.301 . S
O3427 U3406 2.449 . S
O3427 C3423 1.282 . S
H3428 C3401 0.931 . S
H3429 C3403 0.929 . S
H3430 C3404 0.930 . S
H3431 C3405 0.931 . S
H3432 C3412 0.932 . S
H3433 C3413 0.930 . S
H3434 C3414 0.929 . S
H3435 C3416 0.930 . S
H3436 C3418 0.932 . S
H3437 C3419 0.929 . S
H3438 C3420 0.928 . S
H3439 C3422 0.932 . S
C3440 C3441 1.264 . S
C3440 C3445 1.479 . S
C3440 C3450 1.465 . S
C3441 C3440 1.264 . S
C3441 C3443 1.339 . S
C3441 H3468 0.931 . S
C3442 C3443 1.395 . S
C3442 C3444 1.320 . S
C3443 C3441 1.339 . S
C3443 C3442 1.395 . S
C3443 H3469 0.929 . S
C3444 C3442 1.320 . S
C3444 C3445 1.405 . S
C3444 H3470 0.930 . S
C3445 C3440 1.479 . S
C3445 C3444 1.405 . S
C3445 H3471 0.931 . S
U3446 O3447 2.454 . S
U3446 O3448 2.458 . S
U3446 C3449 2.984 . S
U3446 C3450 2.847 . S
U3446 C3463 2.882 . S
U3446 O3464 2.441 . S
U3446 O3465 2.420 . S
U3446 O3466 2.455 . S
U3446 O3467 2.449 . S
O3447 U3446 2.454 . S
O3447 C3449 1.353 . S
O3448 U3446 2.458 . S
O3448 C3449 1.286 . S
C3449 U3446 2.984 . S
C3449 O3447 1.353 . S
C3449 O3448 1.286 . S
C3449 C3451 1.363 . S
C3450 C3440 1.465 . S
C3450 U3446 2.847 . S
C3450 O3464 1.249 . S
C3450 O3465 1.202 . S
C3451 C3449 1.363 . S
C3451 C3453 1.408 . S
C3451 C3456 1.342 . S
C3452 C3453 1.310 . S
C3452 C3455 1.461 . S
C3452 H3472 0.932 . S
C3453 C3451 1.408 . S
C3453 C3452 1.310 . S
C3453 H3473 0.930 . S
C3454 C3455 1.474 . S
C3454 C3456 1.285 . S
C3454 H3474 0.929 . S
C3455 C3452 1.461 . S
C3455 C3454 1.474 . S
C3456 C3451 1.342 . S
C3456 C3454 1.285 . S
C3456 H3475 0.930 . S
C3457 C3460 1.424 . S
C3457 C3462 1.245 . S
C3457 C3463 1.428 . S
C3458 C3461 1.260 . S
C3458 C3462 1.477 . S
C3458 H3476 0.932 . S
C3459 C3460 1.384 . S
C3459 C3461 1.479 . S
C3459 H3477 0.929 . S
C3460 C3457 1.424 . S
C3460 C3459 1.384 . S
C3460 H3478 0.928 . S
C3461 C3458 1.260 . S
C3461 C3459 1.479 . S
C3462 C3457 1.245 . S
C3462 C3458 1.477 . S
C3462 H3479 0.932 . S
C3463 U3446 2.882 . S
C3463 C3457 1.428 . S
C3463 O3466 1.301 . S
C3463 O3467 1.282 . S
O3464 U3446 2.441 . S
O3464 C3450 1.249 . S
O3465 U3446 2.420 . S
O3465 C3450 1.202 . S
O3466 U3446 2.455 . S
O3466 C3463 1.301 . S
O3467 U3446 2.449 . S
O3467 C3463 1.282 . S
H3468 C3441 0.931 . S
H3469 C3443 0.929 . S
H3470 C3444 0.930 . S
H3471 C3445 0.931 . S
H3472 C3452 0.932 . S
H3473 C3453 0.930 . S
H3474 C3454 0.929 . S
H3475 C3456 0.930 . S
H3476 C3458 0.932 . S
H3477 C3459 0.929 . S
H3478 C3460 0.928 . S
H3479 C3462 0.932 . S
C3480 C3481 1.264 . S
C3480 C3485 1.479 . S
C3480 C3490 1.465 . S
C3481 C3480 1.264 . S
C3481 C3483 1.339 . S
C3481 H3508 0.931 . S
C3482 C3483 1.395 . S
C3482 C3484 1.320 . S
C3483 C3481 1.339 . S
C3483 C3482 1.395 . S
C3483 H3509 0.929 . S
C3484 C3482 1.320 . S
C3484 C3485 1.405 . S
C3484 H3510 0.930 . S
C3485 C3480 1.479 . S
C3485 C3484 1.405 . S
C3485 H3511 0.931 . S
U3486 O3487 2.454 . S
U3486 O3488 2.458 . S
U3486 C3489 2.984 . S
U3486 C3490 2.847 . S
U3486 C3503 2.882 . S
U3486 O3504 2.441 . S
U3486 O3505 2.420 . S
U3486 O3506 2.455 . S
U3486 O3507 2.449 . S
O3487 U3486 2.454 . S
O3487 C3489 1.353 . S
O3488 U3486 2.458 . S
O3488 C3489 1.286 . S
C3489 U3486 2.984 . S
C3489 O3487 1.353 . S
C3489 O3488 1.286 . S
C3489 C3491 1.363 . S
C3490 C3480 1.465 . S
C3490 U3486 2.847 . S
C3490 O3504 1.249 . S
C3490 O3505 1.202 . S
C3491 C3489 1.363 . S
C3491 C3493 1.408 . S
C3491 C3496 1.342 . S
C3492 C3493 1.310 . S
C3492 C3495 1.461 . S
C3492 H3512 0.932 . S
C3493 C3491 1.408 . S
C3493 C3492 1.310 . S
C3493 H3513 0.930 . S
C3494 C3495 1.474 . S
C3494 C3496 1.285 . S
C3494 H3514 0.929 . S
C3495 C3492 1.461 . S
C3495 C3494 1.474 . S
C3496 C3491 1.342 . S
C3496 C3494 1.285 . S
C3496 H3515 0.930 . S
C3497 C3500 1.424 . S
C3497 C3502 1.245 . S
C3497 C3503 1.428 . S
C3498 C3501 1.260 . S
C3498 C3502 1.477 . S
C3498 H3516 0.932 . S
C3499 C3500 1.384 . S
C3499 C3501 1.479 . S
C3499 H3517 0.929 . S
C3500 C3497 1.424 . S
C3500 C3499 1.384 . S
C3500 H3518 0.928 . S
C3501 C3498 1.260 . S
C3501 C3499 1.479 . S
C3502 C3497 1.245 . S
C3502 C3498 1.477 . S
C3502 H3519 0.932 . S
C3503 U3486 2.882 . S
C3503 C3497 1.428 . S
C3503 O3506 1.301 . S
C3503 O3507 1.282 . S
O3504 U3486 2.441 . S
O3504 C3490 1.249 . S
O3505 U3486 2.420 . S
O3505 C3490 1.202 . S
O3506 U3486 2.455 . S
O3506 C3503 1.301 . S
O3507 U3486 2.449 . S
O3507 C3503 1.282 . S
H3508 C3481 0.931 . S
H3509 C3483 0.929 . S
H3510 C3484 0.930 . S
H3511 C3485 0.931 . S
H3512 C3492 0.932 . S
H3513 C3493 0.930 . S
H3514 C3494 0.929 . S
H3515 C3496 0.930 . S
H3516 C3498 0.932 . S
H3517 C3499 0.929 . S
H3518 C3500 0.928 . S
H3519 C3502 0.932 . S
C3520 C3521 1.264 . S
C3520 C3525 1.479 . S
C3520 C3530 1.465 . S
C3521 C3520 1.264 . S
C3521 C3523 1.339 . S
C3521 H3548 0.931 . S
C3522 C3523 1.395 . S
C3522 C3524 1.320 . S
C3523 C3521 1.339 . S
C3523 C3522 1.395 . S
C3523 H3549 0.929 . S
C3524 C3522 1.320 . S
C3524 C3525 1.405 . S
C3524 H3550 0.930 . S
C3525 C3520 1.479 . S
C3525 C3524 1.405 . S
C3525 H3551 0.931 . S
U3526 O3527 2.454 . S
U3526 O3528 2.458 . S
U3526 C3529 2.984 . S
U3526 C3530 2.847 . S
U3526 C3543 2.882 . S
U3526 O3544 2.441 . S
U3526 O3545 2.420 . S
U3526 O3546 2.455 . S
U3526 O3547 2.449 . S
O3527 U3526 2.454 . S
O3527 C3529 1.353 . S
O3528 U3526 2.458 . S
O3528 C3529 1.286 . S
C3529 U3526 2.984 . S
C3529 O3527 1.353 . S
C3529 O3528 1.286 . S
C3529 C3531 1.363 . S
C3530 C3520 1.465 . S
C3530 U3526 2.847 . S
C3530 O3544 1.249 . S
C3530 O3545 1.202 . S
C3531 C3529 1.363 . S
C3531 C3533 1.408 . S
C3531 C3536 1.342 . S
C3532 C3533 1.310 . S
C3532 C3535 1.461 . S
C3532 H3552 0.932 . S
C3533 C3531 1.408 . S
C3533 C3532 1.310 . S
C3533 H3553 0.930 . S
C3534 C3535 1.474 . S
C3534 C3536 1.285 . S
C3534 H3554 0.929 . S
C3535 C3532 1.461 . S
C3535 C3534 1.474 . S
C3536 C3531 1.342 . S
C3536 C3534 1.285 . S
C3536 H3555 0.930 . S
C3537 C3540 1.424 . S
C3537 C3542 1.245 . S
C3537 C3543 1.428 . S
C3538 C3541 1.260 . S
C3538 C3542 1.477 . S
C3538 H3556 0.932 . S
C3539 C3540 1.384 . S
C3539 C3541 1.479 . S
C3539 H3557 0.929 . S
C3540 C3537 1.424 . S
C3540 C3539 1.384 . S
C3540 H3558 0.928 . S
C3541 C3538 1.260 . S
C3541 C3539 1.479 . S
C3542 C3537 1.245 . S
C3542 C3538 1.477 . S
C3542 H3559 0.932 . S
C3543 U3526 2.882 . S
C3543 C3537 1.428 . S
C3543 O3546 1.301 . S
C3543 O3547 1.282 . S
O3544 U3526 2.441 . S
O3544 C3530 1.249 . S
O3545 U3526 2.420 . S
O3545 C3530 1.202 . S
O3546 U3526 2.455 . S
O3546 C3543 1.301 . S
O3547 U3526 2.449 . S
O3547 C3543 1.282 . S
H3548 C3521 0.931 . S
H3549 C3523 0.929 . S
H3550 C3524 0.930 . S
H3551 C3525 0.931 . S
H3552 C3532 0.932 . S
H3553 C3533 0.930 . S
H3554 C3534 0.929 . S
H3555 C3536 0.930 . S
H3556 C3538 0.932 . S
H3557 C3539 0.929 . S
H3558 C3540 0.928 . S
H3559 C3542 0.932 . S
C3560 C3561 1.264 . S
C3560 C3565 1.479 . S
C3560 C3570 1.465 . S
C3561 C3560 1.264 . S
C3561 C3563 1.339 . S
C3561 H3588 0.931 . S
C3562 C3563 1.395 . S
C3562 C3564 1.320 . S
C3563 C3561 1.339 . S
C3563 C3562 1.395 . S
C3563 H3589 0.929 . S
C3564 C3562 1.320 . S
C3564 C3565 1.405 . S
C3564 H3590 0.930 . S
C3565 C3560 1.479 . S
C3565 C3564 1.405 . S
C3565 H3591 0.931 . S
U3566 O3567 2.454 . S
U3566 O3568 2.458 . S
U3566 C3569 2.984 . S
U3566 C3570 2.847 . S
U3566 C3583 2.882 . S
U3566 O3584 2.441 . S
U3566 O3585 2.420 . S
U3566 O3586 2.455 . S
U3566 O3587 2.449 . S
O3567 U3566 2.454 . S
O3567 C3569 1.353 . S
O3568 U3566 2.458 . S
O3568 C3569 1.286 . S
C3569 U3566 2.984 . S
C3569 O3567 1.353 . S
C3569 O3568 1.286 . S
C3569 C3571 1.363 . S
C3570 C3560 1.465 . S
C3570 U3566 2.847 . S
C3570 O3584 1.249 . S
C3570 O3585 1.202 . S
C3571 C3569 1.363 . S
C3571 C3573 1.408 . S
C3571 C3576 1.342 . S
C3572 C3573 1.310 . S
C3572 C3575 1.461 . S
C3572 H3592 0.932 . S
C3573 C3571 1.408 . S
C3573 C3572 1.310 . S
C3573 H3593 0.930 . S
C3574 C3575 1.474 . S
C3574 C3576 1.285 . S
C3574 H3594 0.929 . S
C3575 C3572 1.461 . S
C3575 C3574 1.474 . S
C3576 C3571 1.342 . S
C3576 C3574 1.285 . S
C3576 H3595 0.930 . S
C3577 C3580 1.424 . S
C3577 C3582 1.245 . S
C3577 C3583 1.428 . S
C3578 C3581 1.260 . S
C3578 C3582 1.477 . S
C3578 H3596 0.932 . S
C3579 C3580 1.384 . S
C3579 C3581 1.479 . S
C3579 H3597 0.929 . S
C3580 C3577 1.424 . S
C3580 C3579 1.384 . S
C3580 H3598 0.928 . S
C3581 C3578 1.260 . S
C3581 C3579 1.479 . S
C3582 C3577 1.245 . S
C3582 C3578 1.477 . S
C3582 H3599 0.932 . S
C3583 U3566 2.882 . S
C3583 C3577 1.428 . S
C3583 O3586 1.301 . S
C3583 O3587 1.282 . S
O3584 U3566 2.441 . S
O3584 C3570 1.249 . S
O3585 U3566 2.420 . S
O3585 C3570 1.202 . S
O3586 U3566 2.455 . S
O3586 C3583 1.301 . S
O3587 U3566 2.449 . S
O3587 C3583 1.282 . S
H3588 C3561 0.931 . S
H3589 C3563 0.929 . S
H3590 C3564 0.930 . S
H3591 C3565 0.931 . S
H3592 C3572 0.932 . S
H3593 C3573 0.930 . S
H3594 C3574 0.929 . S
H3595 C3576 0.930 . S
H3596 C3578 0.932 . S
H3597 C3579 0.929 . S
H3598 C3580 0.928 . S
H3599 C3582 0.932 . S
C3600 C3601 1.264 . S
C3600 C3605 1.479 . S
C3600 C3610 1.465 . S
C3601 C3600 1.264 . S
C3601 C3603 1.339 . S
C3601 H3628 0.931 . S
C3602 C3603 1.395 . S
C3602 C3604 1.320 . S
C3603 C3601 1.339 . S
C3603 C3602 1.395 . S
C3603 H3629 0.929 . S
C3604 C3602 1.320 . S
C3604 C3605 1.405 . S
C3604 H3630 0.930 . S
C3605 C3600 1.479 . S
C3605 C3604 1.405 . S
C3605 H3631 0.931 . S
U3606 O3607 2.454 . S
U3606 O3608 2.458 . S
U3606 C3609 2.984 . S
U3606 C3610 2.847 . S
U3606 C3623 2.882 . S
U3606 O3624 2.441 . S
U3606 O3625 2.420 . S
U3606 O3626 2.455 . S
U3606 O3627 2.449 . S
O3607 U3606 2.454 . S
O3607 C3609 1.353 . S
O3608 U3606 2.458 . S
O3608 C3609 1.286 . S
C3609 U3606 2.984 . S
C3609 O3607 1.353 . S
C3609 O3608 1.286 . S
C3609 C3611 1.363 . S
C3610 C3600 1.465 . S
C3610 U3606 2.847 . S
C3610 O3624 1.249 . S
C3610 O3625 1.202 . S
C3611 C3609 1.363 . S
C3611 C3613 1.408 . S
C3611 C3616 1.342 . S
C3612 C3613 1.310 . S
C3612 C3615 1.461 . S
C3612 H3632 0.932 . S
C3613 C3611 1.408 . S
C3613 C3612 1.310 . S
C3613 H3633 0.930 . S
C3614 C3615 1.474 . S
C3614 C3616 1.285 . S
C3614 H3634 0.929 . S
C3615 C3612 1.461 . S
C3615 C3614 1.474 . S
C3616 C3611 1.342 . S
C3616 C3614 1.285 . S
C3616 H3635 0.930 . S
C3617 C3620 1.424 . S
C3617 C3622 1.245 . S
C3617 C3623 1.428 . S
C3618 C3621 1.260 . S
C3618 C3622 1.477 . S
C3618 H3636 0.932 . S
C3619 C3620 1.384 . S
C3619 C3621 1.479 . S
C3619 H3637 0.929 . S
C3620 C3617 1.424 . S
C3620 C3619 1.384 . S
C3620 H3638 0.928 . S
C3621 C3618 1.260 . S
C3621 C3619 1.479 . S
C3622 C3617 1.245 . S
C3622 C3618 1.477 . S
C3622 H3639 0.932 . S
C3623 U3606 2.882 . S
C3623 C3617 1.428 . S
C3623 O3626 1.301 . S
C3623 O3627 1.282 . S
O3624 U3606 2.441 . S
O3624 C3610 1.249 . S
O3625 U3606 2.420 . S
O3625 C3610 1.202 . S
O3626 U3606 2.455 . S
O3626 C3623 1.301 . S
O3627 U3606 2.449 . S
O3627 C3623 1.282 . S
H3628 C3601 0.931 . S
H3629 C3603 0.929 . S
H3630 C3604 0.930 . S
H3631 C3605 0.931 . S
H3632 C3612 0.932 . S
H3633 C3613 0.930 . S
H3634 C3614 0.929 . S
H3635 C3616 0.930 . S
H3636 C3618 0.932 . S
H3637 C3619 0.929 . S
H3638 C3620 0.928 . S
H3639 C3622 0.932 . S
C3640 C3641 1.264 . S
C3640 C3645 1.479 . S
C3640 C3650 1.465 . S
C3641 C3640 1.264 . S
C3641 C3643 1.339 . S
C3641 H3668 0.931 . S
C3642 C3643 1.395 . S
C3642 C3644 1.320 . S
C3643 C3641 1.339 . S
C3643 C3642 1.395 . S
C3643 H3669 0.929 . S
C3644 C3642 1.320 . S
C3644 C3645 1.405 . S
C3644 H3670 0.930 . S
C3645 C3640 1.479 . S
C3645 C3644 1.405 . S
C3645 H3671 0.931 . S
U3646 O3647 2.454 . S
U3646 O3648 2.458 . S
U3646 C3649 2.984 . S
U3646 C3650 2.847 . S
U3646 C3663 2.882 . S
U3646 O3664 2.441 . S
U3646 O3665 2.420 . S
U3646 O3666 2.455 . S
U3646 O3667 2.449 . S
O3647 U3646 2.454 . S
O3647 C3649 1.353 . S
O3648 U3646 2.458 . S
O3648 C3649 1.286 . S
C3649 U3646 2.984 . S
C3649 O3647 1.353 . S
C3649 O3648 1.286 . S
C3649 C3651 1.363 . S
C3650 C3640 1.465 . S
C3650 U3646 2.847 . S
C3650 O3664 1.249 . S
C3650 O3665 1.202 . S
C3651 C3649 1.363 . S
C3651 C3653 1.408 . S
C3651 C3656 1.342 . S
C3652 C3653 1.310 . S
C3652 C3655 1.461 . S
C3652 H3672 0.932 . S
C3653 C3651 1.408 . S
C3653 C3652 1.310 . S
C3653 H3673 0.930 . S
C3654 C3655 1.474 . S
C3654 C3656 1.285 . S
C3654 H3674 0.929 . S
C3655 C3652 1.461 . S
C3655 C3654 1.474 . S
C3656 C3651 1.342 . S
C3656 C3654 1.285 . S
C3656 H3675 0.930 . S
C3657 C3660 1.424 . S
C3657 C3662 1.245 . S
C3657 C3663 1.428 . S
C3658 C3661 1.260 . S
C3658 C3662 1.477 . S
C3658 H3676 0.932 . S
C3659 C3660 1.384 . S
C3659 C3661 1.479 . S
C3659 H3677 0.929 . S
C3660 C3657 1.424 . S
C3660 C3659 1.384 . S
C3660 H3678 0.928 . S
C3661 C3658 1.260 . S
C3661 C3659 1.479 . S
C3662 C3657 1.245 . S
C3662 C3658 1.477 . S
C3662 H3679 0.932 . S
C3663 U3646 2.882 . S
C3663 C3657 1.428 . S
C3663 O3666 1.301 . S
C3663 O3667 1.282 . S
O3664 U3646 2.441 . S
O3664 C3650 1.249 . S
O3665 U3646 2.420 . S
O3665 C3650 1.202 . S
O3666 U3646 2.455 . S
O3666 C3663 1.301 . S
O3667 U3646 2.449 . S
O3667 C3663 1.282 . S
H3668 C3641 0.931 . S
H3669 C3643 0.929 . S
H3670 C3644 0.930 . S
H3671 C3645 0.931 . S
H3672 C3652 0.932 . S
H3673 C3653 0.930 . S
H3674 C3654 0.929 . S
H3675 C3656 0.930 . S
H3676 C3658 0.932 . S
H3677 C3659 0.929 . S
H3678 C3660 0.928 . S
H3679 C3662 0.932 . S
C3680 C3681 1.264 . S
C3680 C3685 1.479 . S
C3680 C3690 1.465 . S
C3681 C3680 1.264 . S
C3681 C3683 1.339 . S
C3681 H3708 0.931 . S
C3682 C3683 1.395 . S
C3682 C3684 1.320 . S
C3683 C3681 1.339 . S
C3683 C3682 1.395 . S
C3683 H3709 0.929 . S
C3684 C3682 1.320 . S
C3684 C3685 1.405 . S
C3684 H3710 0.930 . S
C3685 C3680 1.479 . S
C3685 C3684 1.405 . S
C3685 H3711 0.931 . S
U3686 O3687 2.454 . S
U3686 O3688 2.458 . S
U3686 C3689 2.984 . S
U3686 C3690 2.847 . S
U3686 C3703 2.882 . S
U3686 O3704 2.441 . S
U3686 O3705 2.420 . S
U3686 O3706 2.455 . S
U3686 O3707 2.449 . S
O3687 U3686 2.454 . S
O3687 C3689 1.353 . S
O3688 U3686 2.458 . S
O3688 C3689 1.286 . S
C3689 U3686 2.984 . S
C3689 O3687 1.353 . S
C3689 O3688 1.286 . S
C3689 C3691 1.363 . S
C3690 C3680 1.465 . S
C3690 U3686 2.847 . S
C3690 O3704 1.249 . S
C3690 O3705 1.202 . S
C3691 C3689 1.363 . S
C3691 C3693 1.408 . S
C3691 C3696 1.342 . S
C3692 C3693 1.310 . S
C3692 C3695 1.461 . S
C3692 H3712 0.932 . S
C3693 C3691 1.408 . S
C3693 C3692 1.310 . S
C3693 H3713 0.930 . S
C3694 C3695 1.474 . S
C3694 C3696 1.285 . S
C3694 H3714 0.929 . S
C3695 C3692 1.461 . S
C3695 C3694 1.474 . S
C3696 C3691 1.342 . S
C3696 C3694 1.285 . S
C3696 H3715 0.930 . S
C3697 C3700 1.424 . S
C3697 C3702 1.245 . S
C3697 C3703 1.428 . S
C3698 C3701 1.260 . S
C3698 C3702 1.477 . S
C3698 H3716 0.932 . S
C3699 C3700 1.384 . S
C3699 C3701 1.479 . S
C3699 H3717 0.929 . S
C3700 C3697 1.424 . S
C3700 C3699 1.384 . S
C3700 H3718 0.928 . S
C3701 C3698 1.260 . S
C3701 C3699 1.479 . S
C3702 C3697 1.245 . S
C3702 C3698 1.477 . S
C3702 H3719 0.932 . S
C3703 U3686 2.882 . S
C3703 C3697 1.428 . S
C3703 O3706 1.301 . S
C3703 O3707 1.282 . S
O3704 U3686 2.441 . S
O3704 C3690 1.249 . S
O3705 U3686 2.420 . S
O3705 C3690 1.202 . S
O3706 U3686 2.455 . S
O3706 C3703 1.301 . S
O3707 U3686 2.449 . S
O3707 C3703 1.282 . S
H3708 C3681 0.931 . S
H3709 C3683 0.929 . S
H3710 C3684 0.930 . S
H3711 C3685 0.931 . S
H3712 C3692 0.932 . S
H3713 C3693 0.930 . S
H3714 C3694 0.929 . S
H3715 C3696 0.930 . S
H3716 C3698 0.932 . S
H3717 C3699 0.929 . S
H3718 C3700 0.928 . S
H3719 C3702 0.932 . S
C3720 C3721 1.264 . S
C3720 C3725 1.479 . S
C3720 C3730 1.465 . S
C3721 C3720 1.264 . S
C3721 C3723 1.339 . S
C3721 H3748 0.931 . S
C3722 C3723 1.395 . S
C3722 C3724 1.320 . S
C3723 C3721 1.339 . S
C3723 C3722 1.395 . S
C3723 H3749 0.929 . S
C3724 C3722 1.320 . S
C3724 C3725 1.405 . S
C3724 H3750 0.930 . S
C3725 C3720 1.479 . S
C3725 C3724 1.405 . S
C3725 H3751 0.931 . S
U3726 O3727 2.454 . S
U3726 O3728 2.458 . S
U3726 C3729 2.984 . S
U3726 C3730 2.847 . S
U3726 C3743 2.882 . S
U3726 O3744 2.441 . S
U3726 O3745 2.420 . S
U3726 O3746 2.455 . S
U3726 O3747 2.449 . S
O3727 U3726 2.454 . S
O3727 C3729 1.353 . S
O3728 U3726 2.458 . S
O3728 C3729 1.286 . S
C3729 U3726 2.984 . S
C3729 O3727 1.353 . S
C3729 O3728 1.286 . S
C3729 C3731 1.363 . S
C3730 C3720 1.465 . S
C3730 U3726 2.847 . S
C3730 O3744 1.249 . S
C3730 O3745 1.202 . S
C3731 C3729 1.363 . S
C3731 C3733 1.408 . S
C3731 C3736 1.342 . S
C3732 C3733 1.310 . S
C3732 C3735 1.461 . S
C3732 H3752 0.932 . S
C3733 C3731 1.408 . S
C3733 C3732 1.310 . S
C3733 H3753 0.930 . S
C3734 C3735 1.474 . S
C3734 C3736 1.285 . S
C3734 H3754 0.929 . S
C3735 C3732 1.461 . S
C3735 C3734 1.474 . S
C3736 C3731 1.342 . S
C3736 C3734 1.285 . S
C3736 H3755 0.930 . S
C3737 C3740 1.424 . S
C3737 C3742 1.245 . S
C3737 C3743 1.428 . S
C3738 C3741 1.260 . S
C3738 C3742 1.477 . S
C3738 H3756 0.932 . S
C3739 C3740 1.384 . S
C3739 C3741 1.479 . S
C3739 H3757 0.929 . S
C3740 C3737 1.424 . S
C3740 C3739 1.384 . S
C3740 H3758 0.928 . S
C3741 C3738 1.260 . S
C3741 C3739 1.479 . S
C3742 C3737 1.245 . S
C3742 C3738 1.477 . S
C3742 H3759 0.932 . S
C3743 U3726 2.882 . S
C3743 C3737 1.428 . S
C3743 O3746 1.301 . S
C3743 O3747 1.282 . S
O3744 U3726 2.441 . S
O3744 C3730 1.249 . S
O3745 U3726 2.420 . S
O3745 C3730 1.202 . S
O3746 U3726 2.455 . S
O3746 C3743 1.301 . S
O3747 U3726 2.449 . S
O3747 C3743 1.282 . S
H3748 C3721 0.931 . S
H3749 C3723 0.929 . S
H3750 C3724 0.930 . S
H3751 C3725 0.931 . S
H3752 C3732 0.932 . S
H3753 C3733 0.930 . S
H3754 C3734 0.929 . S
H3755 C3736 0.930 . S
H3756 C3738 0.932 . S
H3757 C3739 0.929 . S
H3758 C3740 0.928 . S
H3759 C3742 0.932 . S
C3760 C3761 1.264 . S
C3760 C3765 1.479 . S
C3760 C3770 1.465 . S
C3761 C3760 1.264 . S
C3761 C3763 1.339 . S
C3761 H3788 0.931 . S
C3762 C3763 1.395 . S
C3762 C3764 1.320 . S
C3763 C3761 1.339 . S
C3763 C3762 1.395 . S
C3763 H3789 0.929 . S
C3764 C3762 1.320 . S
C3764 C3765 1.405 . S
C3764 H3790 0.930 . S
C3765 C3760 1.479 . S
C3765 C3764 1.405 . S
C3765 H3791 0.931 . S
U3766 O3767 2.454 . S
U3766 O3768 2.458 . S
U3766 C3769 2.984 . S
U3766 C3770 2.847 . S
U3766 C3783 2.882 . S
U3766 O3784 2.441 . S
U3766 O3785 2.420 . S
U3766 O3786 2.455 . S
U3766 O3787 2.449 . S
O3767 U3766 2.454 . S
O3767 C3769 1.353 . S
O3768 U3766 2.458 . S
O3768 C3769 1.286 . S
C3769 U3766 2.984 . S
C3769 O3767 1.353 . S
C3769 O3768 1.286 . S
C3769 C3771 1.363 . S
C3770 C3760 1.465 . S
C3770 U3766 2.847 . S
C3770 O3784 1.249 . S
C3770 O3785 1.202 . S
C3771 C3769 1.363 . S
C3771 C3773 1.408 . S
C3771 C3776 1.342 . S
C3772 C3773 1.310 . S
C3772 C3775 1.461 . S
C3772 H3792 0.932 . S
C3773 C3771 1.408 . S
C3773 C3772 1.310 . S
C3773 H3793 0.930 . S
C3774 C3775 1.474 . S
C3774 C3776 1.285 . S
C3774 H3794 0.929 . S
C3775 C3772 1.461 . S
C3775 C3774 1.474 . S
C3776 C3771 1.342 . S
C3776 C3774 1.285 . S
C3776 H3795 0.930 . S
C3777 C3780 1.424 . S
C3777 C3782 1.245 . S
C3777 C3783 1.428 . S
C3778 C3781 1.260 . S
C3778 C3782 1.477 . S
C3778 H3796 0.932 . S
C3779 C3780 1.384 . S
C3779 C3781 1.479 . S
C3779 H3797 0.929 . S
C3780 C3777 1.424 . S
C3780 C3779 1.384 . S
C3780 H3798 0.928 . S
C3781 C3778 1.260 . S
C3781 C3779 1.479 . S
C3782 C3777 1.245 . S
C3782 C3778 1.477 . S
C3782 H3799 0.932 . S
C3783 U3766 2.882 . S
C3783 C3777 1.428 . S
C3783 O3786 1.301 . S
C3783 O3787 1.282 . S
O3784 U3766 2.441 . S
O3784 C3770 1.249 . S
O3785 U3766 2.420 . S
O3785 C3770 1.202 . S
O3786 U3766 2.455 . S
O3786 C3783 1.301 . S
O3787 U3766 2.449 . S
O3787 C3783 1.282 . S
H3788 C3761 0.931 . S
H3789 C3763 0.929 . S
H3790 C3764 0.930 . S
H3791 C3765 0.931 . S
H3792 C3772 0.932 . S
H3793 C3773 0.930 . S
H3794 C3774 0.929 . S
H3795 C3776 0.930 . S
H3796 C3778 0.932 . S
H3797 C3779 0.929 . S
H3798 C3780 0.928 . S
H3799 C3782 0.932 . S
C3800 C3801 1.264 . S
C3800 C3805 1.479 . S
C3800 C3810 1.465 . S
C3801 C3800 1.264 . S
C3801 C3803 1.339 . S
C3801 H3828 0.931 . S
C3802 C3803 1.395 . S
C3802 C3804 1.320 . S
C3803 C3801 1.339 . S
C3803 C3802 1.395 . S
C3803 H3829 0.929 . S
C3804 C3802 1.320 . S
C3804 C3805 1.405 . S
C3804 H3830 0.930 . S
C3805 C3800 1.479 . S
C3805 C3804 1.405 . S
C3805 H3831 0.931 . S
U3806 O3807 2.454 . S
U3806 O3808 2.458 . S
U3806 C3809 2.984 . S
U3806 C3810 2.847 . S
U3806 C3823 2.882 . S
U3806 O3824 2.441 . S
U3806 O3825 2.420 . S
U3806 O3826 2.455 . S
U3806 O3827 2.449 . S
O3807 U3806 2.454 . S
O3807 C3809 1.353 . S
O3808 U3806 2.458 . S
O3808 C3809 1.286 . S
C3809 U3806 2.984 . S
C3809 O3807 1.353 . S
C3809 O3808 1.286 . S
C3809 C3811 1.363 . S
C3810 C3800 1.465 . S
C3810 U3806 2.847 . S
C3810 O3824 1.249 . S
C3810 O3825 1.202 . S
C3811 C3809 1.363 . S
C3811 C3813 1.408 . S
C3811 C3816 1.342 . S
C3812 C3813 1.310 . S
C3812 C3815 1.461 . S
C3812 H3832 0.932 . S
C3813 C3811 1.408 . S
C3813 C3812 1.310 . S
C3813 H3833 0.930 . S
C3814 C3815 1.474 . S
C3814 C3816 1.285 . S
C3814 H3834 0.929 . S
C3815 C3812 1.461 . S
C3815 C3814 1.474 . S
C3816 C3811 1.342 . S
C3816 C3814 1.285 . S
C3816 H3835 0.930 . S
C3817 C3820 1.424 . S
C3817 C3822 1.245 . S
C3817 C3823 1.428 . S
C3818 C3821 1.260 . S
C3818 C3822 1.477 . S
C3818 H3836 0.932 . S
C3819 C3820 1.384 . S
C3819 C3821 1.479 . S
C3819 H3837 0.929 . S
C3820 C3817 1.424 . S
C3820 C3819 1.384 . S
C3820 H3838 0.928 . S
C3821 C3818 1.260 . S
C3821 C3819 1.479 . S
C3822 C3817 1.245 . S
C3822 C3818 1.477 . S
C3822 H3839 0.932 . S
C3823 U3806 2.882 . S
C3823 C3817 1.428 . S
C3823 O3826 1.301 . S
C3823 O3827 1.282 . S
O3824 U3806 2.441 . S
O3824 C3810 1.249 . S
O3825 U3806 2.420 . S
O3825 C3810 1.202 . S
O3826 U3806 2.455 . S
O3826 C3823 1.301 . S
O3827 U3806 2.449 . S
O3827 C3823 1.282 . S
H3828 C3801 0.931 . S
H3829 C3803 0.929 . S
H3830 C3804 0.930 . S
H3831 C3805 0.931 . S
H3832 C3812 0.932 . S
H3833 C3813 0.930 . S
H3834 C3814 0.929 . S
H3835 C3816 0.930 . S
H3836 C3818 0.932 . S
H3837 C3819 0.929 . S
H3838 C3820 0.928 . S
H3839 C3822 0.932 . S
H3840 C3848 0.950 . S
H3841 C3853 0.950 . S
H3842 C3850 0.950 . S
H3843 C3852 0.950 . S
H3844 C3854 0.950 . S
H3845 C3856 0.950 . S
H3846 C3858 0.950 . S
H3847 C3859 0.950 . S
C3848 H3840 0.950 . S
C3848 C3849 1.386 . S
C3848 C3850 1.391 . S
C3849 C3848 1.386 . S
C3849 C3853 1.393 . S
C3850 H3842 0.950 . S
C3850 C3848 1.391 . S
C3850 C3851 1.400 . S
C3851 C3850 1.400 . S
C3851 C3852 1.398 . S
C3851 C3857 1.491 . S
C3852 H3843 0.950 . S
C3852 C3851 1.398 . S
C3852 C3853 1.391 . S
C3853 H3841 0.950 . S
C3853 C3849 1.393 . S
C3853 C3852 1.391 . S
C3854 H3844 0.950 . S
C3854 C3855 1.386 . S
C3854 C3856 1.391 . S
C3855 C3854 1.386 . S
C3855 C3859 1.393 . S
C3856 H3845 0.950 . S
C3856 C3854 1.391 . S
C3856 C3857 1.400 . S
C3857 C3851 1.491 . S
C3857 C3856 1.400 . S
C3857 C3858 1.398 . S
C3858 H3846 0.950 . S
C3858 C3857 1.398 . S
C3858 C3859 1.391 . S
C3859 H3847 0.950 . S
C3859 C3855 1.393 . S
C3859 C3858 1.391 . S
H3860 C3868 0.950 . S
H3861 C3873 0.950 . S
H3862 C3870 0.950 . S
H3863 C3872 0.950 . S
H3864 C3874 0.950 . S
H3865 C3876 0.950 . S
H3866 C3878 0.950 . S
H3867 C3879 0.950 . S
C3868 H3860 0.950 . S
C3868 C3869 1.386 . S
C3868 C3870 1.391 . S
C3869 C3868 1.386 . S
C3869 C3873 1.393 . S
C3870 H3862 0.950 . S
C3870 C3868 1.391 . S
C3870 C3871 1.400 . S
C3871 C3870 1.400 . S
C3871 C3872 1.398 . S
C3871 C3877 1.491 . S
C3872 H3863 0.950 . S
C3872 C3871 1.398 . S
C3872 C3873 1.391 . S
C3873 H3861 0.950 . S
C3873 C3869 1.393 . S
C3873 C3872 1.391 . S
C3874 H3864 0.950 . S
C3874 C3875 1.386 . S
C3874 C3876 1.391 . S
C3875 C3874 1.386 . S
C3875 C3879 1.393 . S
C3876 H3865 0.950 . S
C3876 C3874 1.391 . S
C3876 C3877 1.400 . S
C3877 C3871 1.491 . S
C3877 C3876 1.400 . S
C3877 C3878 1.398 . S
C3878 H3866 0.950 . S
C3878 C3877 1.398 . S
C3878 C3879 1.391 . S
C3879 H3867 0.950 . S
C3879 C3875 1.393 . S
C3879 C3878 1.391 . S
H3880 C3888 0.950 . S
H3881 C3893 0.950 . S
H3882 C3890 0.950 . S
H3883 C3892 0.950 . S
H3884 C3894 0.950 . S
H3885 C3896 0.950 . S
H3886 C3898 0.950 . S
H3887 C3899 0.950 . S
C3888 H3880 0.950 . S
C3888 C3889 1.386 . S
C3888 C3890 1.391 . S
C3889 C3888 1.386 . S
C3889 C3893 1.393 . S
C3890 H3882 0.950 . S
C3890 C3888 1.391 . S
C3890 C3891 1.400 . S
C3891 C3890 1.400 . S
C3891 C3892 1.398 . S
C3891 C3897 1.491 . S
C3892 H3883 0.950 . S
C3892 C3891 1.398 . S
C3892 C3893 1.391 . S
C3893 H3881 0.950 . S
C3893 C3889 1.393 . S
C3893 C3892 1.391 . S
C3894 H3884 0.950 . S
C3894 C3895 1.386 . S
C3894 C3896 1.391 . S
C3895 C3894 1.386 . S
C3895 C3899 1.393 . S
C3896 H3885 0.950 . S
C3896 C3894 1.391 . S
C3896 C3897 1.400 . S
C3897 C3891 1.491 . S
C3897 C3896 1.400 . S
C3897 C3898 1.398 . S
C3898 H3886 0.950 . S
C3898 C3897 1.398 . S
C3898 C3899 1.391 . S
C3899 H3887 0.950 . S
C3899 C3895 1.393 . S
C3899 C3898 1.391 . S
H3900 C3908 0.950 . S
H3901 C3913 0.950 . S
H3902 C3910 0.950 . S
H3903 C3912 0.950 . S
H3904 C3914 0.950 . S
H3905 C3916 0.950 . S
H3906 C3918 0.950 . S
H3907 C3919 0.950 . S
C3908 H3900 0.950 . S
C3908 C3909 1.386 . S
C3908 C3910 1.391 . S
C3909 C3908 1.386 . S
C3909 C3913 1.393 . S
C3910 H3902 0.950 . S
C3910 C3908 1.391 . S
C3910 C3911 1.400 . S
C3911 C3910 1.400 . S
C3911 C3912 1.398 . S
C3911 C3917 1.491 . S
C3912 H3903 0.950 . S
C3912 C3911 1.398 . S
C3912 C3913 1.391 . S
C3913 H3901 0.950 . S
C3913 C3909 1.393 . S
C3913 C3912 1.391 . S
C3914 H3904 0.950 . S
C3914 C3915 1.386 . S
C3914 C3916 1.391 . S
C3915 C3914 1.386 . S
C3915 C3919 1.393 . S
C3916 H3905 0.950 . S
C3916 C3914 1.391 . S
C3916 C3917 1.400 . S
C3917 C3911 1.491 . S
C3917 C3916 1.400 . S
C3917 C3918 1.398 . S
C3918 H3906 0.950 . S
C3918 C3917 1.398 . S
C3918 C3919 1.391 . S
C3919 H3907 0.950 . S
C3919 C3915 1.393 . S
C3919 C3918 1.391 . S
H3920 C3928 0.950 . S
H3921 C3933 0.950 . S
H3922 C3930 0.950 . S
H3923 C3932 0.950 . S
H3924 C3934 0.950 . S
H3925 C3936 0.950 . S
H3926 C3938 0.950 . S
H3927 C3939 0.950 . S
C3928 H3920 0.950 . S
C3928 C3929 1.386 . S
C3928 C3930 1.391 . S
C3929 C3928 1.386 . S
C3929 C3933 1.393 . S
C3930 H3922 0.950 . S
C3930 C3928 1.391 . S
C3930 C3931 1.400 . S
C3931 C3930 1.400 . S
C3931 C3932 1.398 . S
C3931 C3937 1.491 . S
C3932 H3923 0.950 . S
C3932 C3931 1.398 . S
C3932 C3933 1.391 . S
C3933 H3921 0.950 . S
C3933 C3929 1.393 . S
C3933 C3932 1.391 . S
C3934 H3924 0.950 . S
C3934 C3935 1.386 . S
C3934 C3936 1.391 . S
C3935 C3934 1.386 . S
C3935 C3939 1.393 . S
C3936 H3925 0.950 . S
C3936 C3934 1.391 . S
C3936 C3937 1.400 . S
C3937 C3931 1.491 . S
C3937 C3936 1.400 . S
C3937 C3938 1.398 . S
C3938 H3926 0.950 . S
C3938 C3937 1.398 . S
C3938 C3939 1.391 . S
C3939 H3927 0.950 . S
C3939 C3935 1.393 . S
C3939 C3938 1.391 . S
H3940 C3948 0.950 . S
H3941 C3953 0.950 . S
H3942 C3950 0.950 . S
H3943 C3952 0.950 . S
H3944 C3954 0.950 . S
H3945 C3956 0.950 . S
H3946 C3958 0.950 . S
H3947 C3959 0.950 . S
C3948 H3940 0.950 . S
C3948 C3949 1.386 . S
C3948 C3950 1.391 . S
C3949 C3948 1.386 . S
C3949 C3953 1.393 . S
C3950 H3942 0.950 . S
C3950 C3948 1.391 . S
C3950 C3951 1.400 . S
C3951 C3950 1.400 . S
C3951 C3952 1.398 . S
C3951 C3957 1.491 . S
C3952 H3943 0.950 . S
C3952 C3951 1.398 . S
C3952 C3953 1.391 . S
C3953 H3941 0.950 . S
C3953 C3949 1.393 . S
C3953 C3952 1.391 . S
C3954 H3944 0.950 . S
C3954 C3955 1.386 . S
C3954 C3956 1.391 . S
C3955 C3954 1.386 . S
C3955 C3959 1.393 . S
C3956 H3945 0.950 . S
C3956 C3954 1.391 . S
C3956 C3957 1.400 . S
C3957 C3951 1.491 . S
C3957 C3956 1.400 . S
C3957 C3958 1.398 . S
C3958 H3946 0.950 . S
C3958 C3957 1.398 . S
C3958 C3959 1.391 . S
C3959 H3947 0.950 . S
C3959 C3955 1.393 . S
C3959 C3958 1.391 . S
H3960 C3968 0.950 . S
H3961 C3973 0.950 . S
H3962 C3970 0.950 . S
H3963 C3972 0.950 . S
H3964 C3974 0.950 . S
H3965 C3976 0.950 . S
H3966 C3978 0.950 . S
H3967 C3979 0.950 . S
C3968 H3960 0.950 . S
C3968 C3969 1.386 . S
C3968 C3970 1.391 . S
C3969 C3968 1.386 . S
C3969 C3973 1.393 . S
C3970 H3962 0.950 . S
C3970 C3968 1.391 . S
C3970 C3971 1.400 . S
C3971 C3970 1.400 . S
C3971 C3972 1.398 . S
C3971 C3977 1.491 . S
C3972 H3963 0.950 . S
C3972 C3971 1.398 . S
C3972 C3973 1.391 . S
C3973 H3961 0.950 . S
C3973 C3969 1.393 . S
C3973 C3972 1.391 . S
C3974 H3964 0.950 . S
C3974 C3975 1.386 . S
C3974 C3976 1.391 . S
C3975 C3974 1.386 . S
C3975 C3979 1.393 . S
C3976 H3965 0.950 . S
C3976 C3974 1.391 . S
C3976 C3977 1.400 . S
C3977 C3971 1.491 . S
C3977 C3976 1.400 . S
C3977 C3978 1.398 . S
C3978 H3966 0.950 . S
C3978 C3977 1.398 . S
C3978 C3979 1.391 . S
C3979 H3967 0.950 . S
C3979 C3975 1.393 . S
C3979 C3978 1.391 . S
H3980 C3988 0.950 . S
H3981 C3993 0.950 . S
H3982 C3990 0.950 . S
H3983 C3992 0.950 . S
H3984 C3994 0.950 . S
H3985 C3996 0.950 . S
H3986 C3998 0.950 . S
H3987 C3999 0.950 . S
C3988 H3980 0.950 . S
C3988 C3989 1.386 . S
C3988 C3990 1.391 . S
C3989 C3988 1.386 . S
C3989 C3993 1.393 . S
C3990 H3982 0.950 . S
C3990 C3988 1.391 . S
C3990 C3991 1.400 . S
C3991 C3990 1.400 . S
C3991 C3992 1.398 . S
C3991 C3997 1.491 . S
C3992 H3983 0.950 . S
C3992 C3991 1.398 . S
C3992 C3993 1.391 . S
C3993 H3981 0.950 . S
C3993 C3989 1.393 . S
C3993 C3992 1.391 . S
C3994 H3984 0.950 . S
C3994 C3995 1.386 . S
C3994 C3996 1.391 . S
C3995 C3994 1.386 . S
C3995 C3999 1.393 . S
C3996 H3985 0.950 . S
C3996 C3994 1.391 . S
C3996 C3997 1.400 . S
C3997 C3991 1.491 . S
C3997 C3996 1.400 . S
C3997 C3998 1.398 . S
C3998 H3986 0.950 . S
C3998 C3997 1.398 . S
C3998 C3999 1.391 . S
C3999 H3987 0.950 . S
C3999 C3995 1.393 . S
C3999 C3998 1.391 . S
H4000 C4008 0.950 . S
H4001 C4013 0.950 . S
H4002 C4010 0.950 . S
H4003 C4012 0.950 . S
H4004 C4014 0.950 . S
H4005 C4016 0.950 . S
H4006 C4018 0.950 . S
H4007 C4019 0.950 . S
C4008 H4000 0.950 . S
C4008 C4009 1.386 . S
C4008 C4010 1.391 . S
C4009 C4008 1.386 . S
C4009 C4013 1.393 . S
C4010 H4002 0.950 . S
C4010 C4008 1.391 . S
C4010 C4011 1.400 . S
C4011 C4010 1.400 . S
C4011 C4012 1.398 . S
C4011 C4017 1.491 . S
C4012 H4003 0.950 . S
C4012 C4011 1.398 . S
C4012 C4013 1.391 . S
C4013 H4001 0.950 . S
C4013 C4009 1.393 . S
C4013 C4012 1.391 . S
C4014 H4004 0.950 . S
C4014 C4015 1.386 . S
C4014 C4016 1.391 . S
C4015 C4014 1.386 . S
C4015 C4019 1.393 . S
C4016 H4005 0.950 . S
C4016 C4014 1.391 . S
C4016 C4017 1.400 . S
C4017 C4011 1.491 . S
C4017 C4016 1.400 . S
C4017 C4018 1.398 . S
C4018 H4006 0.950 . S
C4018 C4017 1.398 . S
C4018 C4019 1.391 . S
C4019 H4007 0.950 . S
C4019 C4015 1.393 . S
C4019 C4018 1.391 . S
H4020 C4028 0.950 . S
H4021 C4033 0.950 . S
H4022 C4030 0.950 . S
H4023 C4032 0.950 . S
H4024 C4034 0.950 . S
H4025 C4036 0.950 . S
H4026 C4038 0.950 . S
H4027 C4039 0.950 . S
C4028 H4020 0.950 . S
C4028 C4029 1.386 . S
C4028 C4030 1.391 . S
C4029 C4028 1.386 . S
C4029 C4033 1.393 . S
C4030 H4022 0.950 . S
C4030 C4028 1.391 . S
C4030 C4031 1.400 . S
C4031 C4030 1.400 . S
C4031 C4032 1.398 . S
C4031 C4037 1.491 . S
C4032 H4023 0.950 . S
C4032 C4031 1.398 . S
C4032 C4033 1.391 . S
C4033 H4021 0.950 . S
C4033 C4029 1.393 . S
C4033 C4032 1.391 . S
C4034 H4024 0.950 . S
C4034 C4035 1.386 . S
C4034 C4036 1.391 . S
C4035 C4034 1.386 . S
C4035 C4039 1.393 . S
C4036 H4025 0.950 . S
C4036 C4034 1.391 . S
C4036 C4037 1.400 . S
C4037 C4031 1.491 . S
C4037 C4036 1.400 . S
C4037 C4038 1.398 . S
C4038 H4026 0.950 . S
C4038 C4037 1.398 . S
C4038 C4039 1.391 . S
C4039 H4027 0.950 . S
C4039 C4035 1.393 . S
C4039 C4038 1.391 . S
H4040 C4048 0.950 . S
H4041 C4053 0.950 . S
H4042 C4050 0.950 . S
H4043 C4052 0.950 . S
H4044 C4054 0.950 . S
H4045 C4056 0.950 . S
H4046 C4058 0.950 . S
H4047 C4059 0.950 . S
C4048 H4040 0.950 . S
C4048 C4049 1.386 . S
C4048 C4050 1.391 . S
C4049 C4048 1.386 . S
C4049 C4053 1.393 . S
C4050 H4042 0.950 . S
C4050 C4048 1.391 . S
C4050 C4051 1.400 . S
C4051 C4050 1.400 . S
C4051 C4052 1.398 . S
C4051 C4057 1.491 . S
C4052 H4043 0.950 . S
C4052 C4051 1.398 . S
C4052 C4053 1.391 . S
C4053 H4041 0.950 . S
C4053 C4049 1.393 . S
C4053 C4052 1.391 . S
C4054 H4044 0.950 . S
C4054 C4055 1.386 . S
C4054 C4056 1.391 . S
C4055 C4054 1.386 . S
C4055 C4059 1.393 . S
C4056 H4045 0.950 . S
C4056 C4054 1.391 . S
C4056 C4057 1.400 . S
C4057 C4051 1.491 . S
C4057 C4056 1.400 . S
C4057 C4058 1.398 . S
C4058 H4046 0.950 . S
C4058 C4057 1.398 . S
C4058 C4059 1.391 . S
C4059 H4047 0.950 . S
C4059 C4055 1.393 . S
C4059 C4058 1.391 . S
H4060 C4068 0.950 . S
H4061 C4073 0.950 . S
H4062 C4070 0.950 . S
H4063 C4072 0.950 . S
H4064 C4074 0.950 . S
H4065 C4076 0.950 . S
H4066 C4078 0.950 . S
H4067 C4079 0.950 . S
C4068 H4060 0.950 . S
C4068 C4069 1.386 . S
C4068 C4070 1.391 . S
C4069 C4068 1.386 . S
C4069 C4073 1.393 . S
C4070 H4062 0.950 . S
C4070 C4068 1.391 . S
C4070 C4071 1.400 . S
C4071 C4070 1.400 . S
C4071 C4072 1.398 . S
C4071 C4077 1.491 . S
C4072 H4063 0.950 . S
C4072 C4071 1.398 . S
C4072 C4073 1.391 . S
C4073 H4061 0.950 . S
C4073 C4069 1.393 . S
C4073 C4072 1.391 . S
C4074 H4064 0.950 . S
C4074 C4075 1.386 . S
C4074 C4076 1.391 . S
C4075 C4074 1.386 . S
C4075 C4079 1.393 . S
C4076 H4065 0.950 . S
C4076 C4074 1.391 . S
C4076 C4077 1.400 . S
C4077 C4071 1.491 . S
C4077 C4076 1.400 . S
C4077 C4078 1.398 . S
C4078 H4066 0.950 . S
C4078 C4077 1.398 . S
C4078 C4079 1.391 . S
C4079 H4067 0.950 . S
C4079 C4075 1.393 . S
C4079 C4078 1.391 . S
H4080 C4088 0.950 . S
H4081 C4093 0.950 . S
H4082 C4090 0.950 . S
H4083 C4092 0.950 . S
H4084 C4094 0.950 . S
H4085 C4096 0.950 . S
H4086 C4098 0.950 . S
H4087 C4099 0.950 . S
C4088 H4080 0.950 . S
C4088 C4089 1.386 . S
C4088 C4090 1.391 . S
C4089 C4088 1.386 . S
C4089 C4093 1.393 . S
C4090 H4082 0.950 . S
C4090 C4088 1.391 . S
C4090 C4091 1.400 . S
C4091 C4090 1.400 . S
C4091 C4092 1.398 . S
C4091 C4097 1.491 . S
C4092 H4083 0.950 . S
C4092 C4091 1.398 . S
C4092 C4093 1.391 . S
C4093 H4081 0.950 . S
C4093 C4089 1.393 . S
C4093 C4092 1.391 . S
C4094 H4084 0.950 . S
C4094 C4095 1.386 . S
C4094 C4096 1.391 . S
C4095 C4094 1.386 . S
C4095 C4099 1.393 . S
C4096 H4085 0.950 . S
C4096 C4094 1.391 . S
C4096 C4097 1.400 . S
C4097 C4091 1.491 . S
C4097 C4096 1.400 . S
C4097 C4098 1.398 . S
C4098 H4086 0.950 . S
C4098 C4097 1.398 . S
C4098 C4099 1.391 . S
C4099 H4087 0.950 . S
C4099 C4095 1.393 . S
C4099 C4098 1.391 . S
H4100 C4108 0.950 . S
H4101 C4113 0.950 . S
H4102 C4110 0.950 . S
H4103 C4112 0.950 . S
H4104 C4114 0.950 . S
H4105 C4116 0.950 . S
H4106 C4118 0.950 . S
H4107 C4119 0.950 . S
C4108 H4100 0.950 . S
C4108 C4109 1.386 . S
C4108 C4110 1.391 . S
C4109 C4108 1.386 . S
C4109 C4113 1.393 . S
C4110 H4102 0.950 . S
C4110 C4108 1.391 . S
C4110 C4111 1.400 . S
C4111 C4110 1.400 . S
C4111 C4112 1.398 . S
C4111 C4117 1.491 . S
C4112 H4103 0.950 . S
C4112 C4111 1.398 . S
C4112 C4113 1.391 . S
C4113 H4101 0.950 . S
C4113 C4109 1.393 . S
C4113 C4112 1.391 . S
C4114 H4104 0.950 . S
C4114 C4115 1.386 . S
C4114 C4116 1.391 . S
C4115 C4114 1.386 . S
C4115 C4119 1.393 . S
C4116 H4105 0.950 . S
C4116 C4114 1.391 . S
C4116 C4117 1.400 . S
C4117 C4111 1.491 . S
C4117 C4116 1.400 . S
C4117 C4118 1.398 . S
C4118 H4106 0.950 . S
C4118 C4117 1.398 . S
C4118 C4119 1.391 . S
C4119 H4107 0.950 . S
C4119 C4115 1.393 . S
C4119 C4118 1.391 . S
H4120 C4128 0.950 . S
H4121 C4133 0.950 . S
H4122 C4130 0.950 . S
H4123 C4132 0.950 . S
H4124 C4134 0.950 . S
H4125 C4136 0.950 . S
H4126 C4138 0.950 . S
H4127 C4139 0.950 . S
C4128 H4120 0.950 . S
C4128 C4129 1.386 . S
C4128 C4130 1.391 . S
C4129 C4128 1.386 . S
C4129 C4133 1.393 . S
C4130 H4122 0.950 . S
C4130 C4128 1.391 . S
C4130 C4131 1.400 . S
C4131 C4130 1.400 . S
C4131 C4132 1.398 . S
C4131 C4137 1.491 . S
C4132 H4123 0.950 . S
C4132 C4131 1.398 . S
C4132 C4133 1.391 . S
C4133 H4121 0.950 . S
C4133 C4129 1.393 . S
C4133 C4132 1.391 . S
C4134 H4124 0.950 . S
C4134 C4135 1.386 . S
C4134 C4136 1.391 . S
C4135 C4134 1.386 . S
C4135 C4139 1.393 . S
C4136 H4125 0.950 . S
C4136 C4134 1.391 . S
C4136 C4137 1.400 . S
C4137 C4131 1.491 . S
C4137 C4136 1.400 . S
C4137 C4138 1.398 . S
C4138 H4126 0.950 . S
C4138 C4137 1.398 . S
C4138 C4139 1.391 . S
C4139 H4127 0.950 . S
C4139 C4135 1.393 . S
C4139 C4138 1.391 . S
H4140 C4148 0.950 . S
H4141 C4153 0.950 . S
H4142 C4150 0.950 . S
H4143 C4152 0.950 . S
H4144 C4154 0.950 . S
H4145 C4156 0.950 . S
H4146 C4158 0.950 . S
H4147 C4159 0.950 . S
C4148 H4140 0.950 . S
C4148 C4149 1.386 . S
C4148 C4150 1.391 . S
C4149 C4148 1.386 . S
C4149 C4153 1.393 . S
C4150 H4142 0.950 . S
C4150 C4148 1.391 . S
C4150 C4151 1.400 . S
C4151 C4150 1.400 . S
C4151 C4152 1.398 . S
C4151 C4157 1.491 . S
C4152 H4143 0.950 . S
C4152 C4151 1.398 . S
C4152 C4153 1.391 . S
C4153 H4141 0.950 . S
C4153 C4149 1.393 . S
C4153 C4152 1.391 . S
C4154 H4144 0.950 . S
C4154 C4155 1.386 . S
C4154 C4156 1.391 . S
C4155 C4154 1.386 . S
C4155 C4159 1.393 . S
C4156 H4145 0.950 . S
C4156 C4154 1.391 . S
C4156 C4157 1.400 . S
C4157 C4151 1.491 . S
C4157 C4156 1.400 . S
C4157 C4158 1.398 . S
C4158 H4146 0.950 . S
C4158 C4157 1.398 . S
C4158 C4159 1.391 . S
C4159 H4147 0.950 . S
C4159 C4155 1.393 . S
C4159 C4158 1.391 . S
H4160 C4168 0.950 . S
H4161 C4173 0.950 . S
H4162 C4170 0.950 . S
H4163 C4172 0.950 . S
H4164 C4174 0.950 . S
H4165 C4176 0.950 . S
H4166 C4178 0.950 . S
H4167 C4179 0.950 . S
C4168 H4160 0.950 . S
C4168 C4169 1.386 . S
C4168 C4170 1.391 . S
C4169 C4168 1.386 . S
C4169 C4173 1.393 . S
C4170 H4162 0.950 . S
C4170 C4168 1.391 . S
C4170 C4171 1.400 . S
C4171 C4170 1.400 . S
C4171 C4172 1.398 . S
C4171 C4177 1.491 . S
C4172 H4163 0.950 . S
C4172 C4171 1.398 . S
C4172 C4173 1.391 . S
C4173 H4161 0.950 . S
C4173 C4169 1.393 . S
C4173 C4172 1.391 . S
C4174 H4164 0.950 . S
C4174 C4175 1.386 . S
C4174 C4176 1.391 . S
C4175 C4174 1.386 . S
C4175 C4179 1.393 . S
C4176 H4165 0.950 . S
C4176 C4174 1.391 . S
C4176 C4177 1.400 . S
C4177 C4171 1.491 . S
C4177 C4176 1.400 . S
C4177 C4178 1.398 . S
C4178 H4166 0.950 . S
C4178 C4177 1.398 . S
C4178 C4179 1.391 . S
C4179 H4167 0.950 . S
C4179 C4175 1.393 . S
C4179 C4178 1.391 . S
H4180 C4188 0.950 . S
H4181 C4193 0.950 . S
H4182 C4190 0.950 . S
H4183 C4192 0.950 . S
H4184 C4194 0.950 . S
H4185 C4196 0.950 . S
H4186 C4198 0.950 . S
H4187 C4199 0.950 . S
C4188 H4180 0.950 . S
C4188 C4189 1.386 . S
C4188 C4190 1.391 . S
C4189 C4188 1.386 . S
C4189 C4193 1.393 . S
C4190 H4182 0.950 . S
C4190 C4188 1.391 . S
C4190 C4191 1.400 . S
C4191 C4190 1.400 . S
C4191 C4192 1.398 . S
C4191 C4197 1.491 . S
C4192 H4183 0.950 . S
C4192 C4191 1.398 . S
C4192 C4193 1.391 . S
C4193 H4181 0.950 . S
C4193 C4189 1.393 . S
C4193 C4192 1.391 . S
C4194 H4184 0.950 . S
C4194 C4195 1.386 . S
C4194 C4196 1.391 . S
C4195 C4194 1.386 . S
C4195 C4199 1.393 . S
C4196 H4185 0.950 . S
C4196 C4194 1.391 . S
C4196 C4197 1.400 . S
C4197 C4191 1.491 . S
C4197 C4196 1.400 . S
C4197 C4198 1.398 . S
C4198 H4186 0.950 . S
C4198 C4197 1.398 . S
C4198 C4199 1.391 . S
C4199 H4187 0.950 . S
C4199 C4195 1.393 . S
C4199 C4198 1.391 . S
H4200 C4208 0.950 . S
H4201 C4213 0.950 . S
H4202 C4210 0.950 . S
H4203 C4212 0.950 . S
H4204 C4214 0.950 . S
H4205 C4216 0.950 . S
H4206 C4218 0.950 . S
H4207 C4219 0.950 . S
C4208 H4200 0.950 . S
C4208 C4209 1.386 . S
C4208 C4210 1.391 . S
C4209 C4208 1.386 . S
C4209 C4213 1.393 . S
C4210 H4202 0.950 . S
C4210 C4208 1.391 . S
C4210 C4211 1.400 . S
C4211 C4210 1.400 . S
C4211 C4212 1.398 . S
C4211 C4217 1.491 . S
C4212 H4203 0.950 . S
C4212 C4211 1.398 . S
C4212 C4213 1.391 . S
C4213 H4201 0.950 . S
C4213 C4209 1.393 . S
C4213 C4212 1.391 . S
C4214 H4204 0.950 . S
C4214 C4215 1.386 . S
C4214 C4216 1.391 . S
C4215 C4214 1.386 . S
C4215 C4219 1.393 . S
C4216 H4205 0.950 . S
C4216 C4214 1.391 . S
C4216 C4217 1.400 . S
C4217 C4211 1.491 . S
C4217 C4216 1.400 . S
C4217 C4218 1.398 . S
C4218 H4206 0.950 . S
C4218 C4217 1.398 . S
C4218 C4219 1.391 . S
C4219 H4207 0.950 . S
C4219 C4215 1.393 . S
C4219 C4218 1.391 . S
H4220 C4228 0.950 . S
H4221 C4233 0.950 . S
H4222 C4230 0.950 . S
H4223 C4232 0.950 . S
H4224 C4234 0.950 . S
H4225 C4236 0.950 . S
H4226 C4238 0.950 . S
H4227 C4239 0.950 . S
C4228 H4220 0.950 . S
C4228 C4229 1.386 . S
C4228 C4230 1.391 . S
C4229 C4228 1.386 . S
C4229 C4233 1.393 . S
C4230 H4222 0.950 . S
C4230 C4228 1.391 . S
C4230 C4231 1.400 . S
C4231 C4230 1.400 . S
C4231 C4232 1.398 . S
C4231 C4237 1.491 . S
C4232 H4223 0.950 . S
C4232 C4231 1.398 . S
C4232 C4233 1.391 . S
C4233 H4221 0.950 . S
C4233 C4229 1.393 . S
C4233 C4232 1.391 . S
C4234 H4224 0.950 . S
C4234 C4235 1.386 . S
C4234 C4236 1.391 . S
C4235 C4234 1.386 . S
C4235 C4239 1.393 . S
C4236 H4225 0.950 . S
C4236 C4234 1.391 . S
C4236 C4237 1.400 . S
C4237 C4231 1.491 . S
C4237 C4236 1.400 . S
C4237 C4238 1.398 . S
C4238 H4226 0.950 . S
C4238 C4237 1.398 . S
C4238 C4239 1.391 . S
C4239 H4227 0.950 . S
C4239 C4235 1.393 . S
C4239 C4238 1.391 . S
H4240 C4248 0.950 . S
H4241 C4253 0.950 . S
H4242 C4250 0.950 . S
H4243 C4252 0.950 . S
H4244 C4254 0.950 . S
H4245 C4256 0.950 . S
H4246 C4258 0.950 . S
H4247 C4259 0.950 . S
C4248 H4240 0.950 . S
C4248 C4249 1.386 . S
C4248 C4250 1.391 . S
C4249 C4248 1.386 . S
C4249 C4253 1.393 . S
C4250 H4242 0.950 . S
C4250 C4248 1.391 . S
C4250 C4251 1.400 . S
C4251 C4250 1.400 . S
C4251 C4252 1.398 . S
C4251 C4257 1.491 . S
C4252 H4243 0.950 . S
C4252 C4251 1.398 . S
C4252 C4253 1.391 . S
C4253 H4241 0.950 . S
C4253 C4249 1.393 . S
C4253 C4252 1.391 . S
C4254 H4244 0.950 . S
C4254 C4255 1.386 . S
C4254 C4256 1.391 . S
C4255 C4254 1.386 . S
C4255 C4259 1.393 . S
C4256 H4245 0.950 . S
C4256 C4254 1.391 . S
C4256 C4257 1.400 . S
C4257 C4251 1.491 . S
C4257 C4256 1.400 . S
C4257 C4258 1.398 . S
C4258 H4246 0.950 . S
C4258 C4257 1.398 . S
C4258 C4259 1.391 . S
C4259 H4247 0.950 . S
C4259 C4255 1.393 . S
C4259 C4258 1.391 . S
H4260 C4268 0.950 . S
H4261 C4273 0.950 . S
H4262 C4270 0.950 . S
H4263 C4272 0.950 . S
H4264 C4274 0.950 . S
H4265 C4276 0.950 . S
H4266 C4278 0.950 . S
H4267 C4279 0.950 . S
C4268 H4260 0.950 . S
C4268 C4269 1.386 . S
C4268 C4270 1.391 . S
C4269 C4268 1.386 . S
C4269 C4273 1.393 . S
C4270 H4262 0.950 . S
C4270 C4268 1.391 . S
C4270 C4271 1.400 . S
C4271 C4270 1.400 . S
C4271 C4272 1.398 . S
C4271 C4277 1.491 . S
C4272 H4263 0.950 . S
C4272 C4271 1.398 . S
C4272 C4273 1.391 . S
C4273 H4261 0.950 . S
C4273 C4269 1.393 . S
C4273 C4272 1.391 . S
C4274 H4264 0.950 . S
C4274 C4275 1.386 . S
C4274 C4276 1.391 . S
C4275 C4274 1.386 . S
C4275 C4279 1.393 . S
C4276 H4265 0.950 . S
C4276 C4274 1.391 . S
C4276 C4277 1.400 . S
C4277 C4271 1.491 . S
C4277 C4276 1.400 . S
C4277 C4278 1.398 . S
C4278 H4266 0.950 . S
C4278 C4277 1.398 . S
C4278 C4279 1.391 . S
C4279 H4267 0.950 . S
C4279 C4275 1.393 . S
C4279 C4278 1.391 . S
H4280 C4288 0.950 . S
H4281 C4293 0.950 . S
H4282 C4290 0.950 . S
H4283 C4292 0.950 . S
H4284 C4294 0.950 . S
H4285 C4296 0.950 . S
H4286 C4298 0.950 . S
H4287 C4299 0.950 . S
C4288 H4280 0.950 . S
C4288 C4289 1.386 . S
C4288 C4290 1.391 . S
C4289 C4288 1.386 . S
C4289 C4293 1.393 . S
C4290 H4282 0.950 . S
C4290 C4288 1.391 . S
C4290 C4291 1.400 . S
C4291 C4290 1.400 . S
C4291 C4292 1.398 . S
C4291 C4297 1.491 . S
C4292 H4283 0.950 . S
C4292 C4291 1.398 . S
C4292 C4293 1.391 . S
C4293 H4281 0.950 . S
C4293 C4289 1.393 . S
C4293 C4292 1.391 . S
C4294 H4284 0.950 . S
C4294 C4295 1.386 . S
C4294 C4296 1.391 . S
C4295 C4294 1.386 . S
C4295 C4299 1.393 . S
C4296 H4285 0.950 . S
C4296 C4294 1.391 . S
C4296 C4297 1.400 . S
C4297 C4291 1.491 . S
C4297 C4296 1.400 . S
C4297 C4298 1.398 . S
C4298 H4286 0.950 . S
C4298 C4297 1.398 . S
C4298 C4299 1.391 . S
C4299 H4287 0.950 . S
C4299 C4295 1.393 . S
C4299 C4298 1.391 . S
H4300 C4308 0.950 . S
H4301 C4313 0.950 . S
H4302 C4310 0.950 . S
H4303 C4312 0.950 . S
H4304 C4314 0.950 . S
H4305 C4316 0.950 . S
H4306 C4318 0.950 . S
H4307 C4319 0.950 . S
C4308 H4300 0.950 . S
C4308 C4309 1.386 . S
C4308 C4310 1.391 . S
C4309 C4308 1.386 . S
C4309 C4313 1.393 . S
C4310 H4302 0.950 . S
C4310 C4308 1.391 . S
C4310 C4311 1.400 . S
C4311 C4310 1.400 . S
C4311 C4312 1.398 . S
C4311 C4317 1.491 . S
C4312 H4303 0.950 . S
C4312 C4311 1.398 . S
C4312 C4313 1.391 . S
C4313 H4301 0.950 . S
C4313 C4309 1.393 . S
C4313 C4312 1.391 . S
C4314 H4304 0.950 . S
C4314 C4315 1.386 . S
C4314 C4316 1.391 . S
C4315 C4314 1.386 . S
C4315 C4319 1.393 . S
C4316 H4305 0.950 . S
C4316 C4314 1.391 . S
C4316 C4317 1.400 . S
C4317 C4311 1.491 . S
C4317 C4316 1.400 . S
C4317 C4318 1.398 . S
C4318 H4306 0.950 . S
C4318 C4317 1.398 . S
C4318 C4319 1.391 . S
C4319 H4307 0.950 . S
C4319 C4315 1.393 . S
C4319 C4318 1.391 . S
H4320 C4328 0.950 . S
H4321 C4333 0.950 . S
H4322 C4330 0.950 . S
H4323 C4332 0.950 . S
H4324 C4334 0.950 . S
H4325 C4336 0.950 . S
H4326 C4338 0.950 . S
H4327 C4339 0.950 . S
C4328 H4320 0.950 . S
C4328 C4329 1.386 . S
C4328 C4330 1.391 . S
C4329 C4328 1.386 . S
C4329 C4333 1.393 . S
C4330 H4322 0.950 . S
C4330 C4328 1.391 . S
C4330 C4331 1.400 . S
C4331 C4330 1.400 . S
C4331 C4332 1.398 . S
C4331 C4337 1.491 . S
C4332 H4323 0.950 . S
C4332 C4331 1.398 . S
C4332 C4333 1.391 . S
C4333 H4321 0.950 . S
C4333 C4329 1.393 . S
C4333 C4332 1.391 . S
C4334 H4324 0.950 . S
C4334 C4335 1.386 . S
C4334 C4336 1.391 . S
C4335 C4334 1.386 . S
C4335 C4339 1.393 . S
C4336 H4325 0.950 . S
C4336 C4334 1.391 . S
C4336 C4337 1.400 . S
C4337 C4331 1.491 . S
C4337 C4336 1.400 . S
C4337 C4338 1.398 . S
C4338 H4326 0.950 . S
C4338 C4337 1.398 . S
C4338 C4339 1.391 . S
C4339 H4327 0.950 . S
C4339 C4335 1.393 . S
C4339 C4338 1.391 . S
H4340 C4348 0.950 . S
H4341 C4353 0.950 . S
H4342 C4350 0.950 . S
H4343 C4352 0.950 . S
H4344 C4354 0.950 . S
H4345 C4356 0.950 . S
H4346 C4358 0.950 . S
H4347 C4359 0.950 . S
C4348 H4340 0.950 . S
C4348 C4349 1.386 . S
C4348 C4350 1.391 . S
C4349 C4348 1.386 . S
C4349 C4353 1.393 . S
C4350 H4342 0.950 . S
C4350 C4348 1.391 . S
C4350 C4351 1.400 . S
C4351 C4350 1.400 . S
C4351 C4352 1.398 . S
C4351 C4357 1.491 . S
C4352 H4343 0.950 . S
C4352 C4351 1.398 . S
C4352 C4353 1.391 . S
C4353 H4341 0.950 . S
C4353 C4349 1.393 . S
C4353 C4352 1.391 . S
C4354 H4344 0.950 . S
C4354 C4355 1.386 . S
C4354 C4356 1.391 . S
C4355 C4354 1.386 . S
C4355 C4359 1.393 . S
C4356 H4345 0.950 . S
C4356 C4354 1.391 . S
C4356 C4357 1.400 . S
C4357 C4351 1.491 . S
C4357 C4356 1.400 . S
C4357 C4358 1.398 . S
C4358 H4346 0.950 . S
C4358 C4357 1.398 . S
C4358 C4359 1.391 . S
C4359 H4347 0.950 . S
C4359 C4355 1.393 . S
C4359 C4358 1.391 . S
H4360 C4368 0.950 . S
H4361 C4373 0.950 . S
H4362 C4370 0.950 . S
H4363 C4372 0.950 . S
H4364 C4374 0.950 . S
H4365 C4376 0.950 . S
H4366 C4378 0.950 . S
H4367 C4379 0.950 . S
C4368 H4360 0.950 . S
C4368 C4369 1.386 . S
C4368 C4370 1.391 . S
C4369 C4368 1.386 . S
C4369 C4373 1.393 . S
C4370 H4362 0.950 . S
C4370 C4368 1.391 . S
C4370 C4371 1.400 . S
C4371 C4370 1.400 . S
C4371 C4372 1.398 . S
C4371 C4377 1.491 . S
C4372 H4363 0.950 . S
C4372 C4371 1.398 . S
C4372 C4373 1.391 . S
C4373 H4361 0.950 . S
C4373 C4369 1.393 . S
C4373 C4372 1.391 . S
C4374 H4364 0.950 . S
C4374 C4375 1.386 . S
C4374 C4376 1.391 . S
C4375 C4374 1.386 . S
C4375 C4379 1.393 . S
C4376 H4365 0.950 . S
C4376 C4374 1.391 . S
C4376 C4377 1.400 . S
C4377 C4371 1.491 . S
C4377 C4376 1.400 . S
C4377 C4378 1.398 . S
C4378 H4366 0.950 . S
C4378 C4377 1.398 . S
C4378 C4379 1.391 . S
C4379 H4367 0.950 . S
C4379 C4375 1.393 . S
C4379 C4378 1.391 . S
H4380 C4388 0.950 . S
H4381 C4393 0.950 . S
H4382 C4390 0.950 . S
H4383 C4392 0.950 . S
H4384 C4394 0.950 . S
H4385 C4396 0.950 . S
H4386 C4398 0.950 . S
H4387 C4399 0.950 . S
C4388 H4380 0.950 . S
C4388 C4389 1.386 . S
C4388 C4390 1.391 . S
C4389 C4388 1.386 . S
C4389 C4393 1.393 . S
C4390 H4382 0.950 . S
C4390 C4388 1.391 . S
C4390 C4391 1.400 . S
C4391 C4390 1.400 . S
C4391 C4392 1.398 . S
C4391 C4397 1.491 . S
C4392 H4383 0.950 . S
C4392 C4391 1.398 . S
C4392 C4393 1.391 . S
C4393 H4381 0.950 . S
C4393 C4389 1.393 . S
C4393 C4392 1.391 . S
C4394 H4384 0.950 . S
C4394 C4395 1.386 . S
C4394 C4396 1.391 . S
C4395 C4394 1.386 . S
C4395 C4399 1.393 . S
C4396 H4385 0.950 . S
C4396 C4394 1.391 . S
C4396 C4397 1.400 . S
C4397 C4391 1.491 . S
C4397 C4396 1.400 . S
C4397 C4398 1.398 . S
C4398 H4386 0.950 . S
C4398 C4397 1.398 . S
C4398 C4399 1.391 . S
C4399 H4387 0.950 . S
C4399 C4395 1.393 . S
C4399 C4398 1.391 . S
H4400 C4408 0.950 . S
H4401 C4413 0.950 . S
H4402 C4410 0.950 . S
H4403 C4412 0.950 . S
H4404 C4414 0.950 . S
H4405 C4416 0.950 . S
H4406 C4418 0.950 . S
H4407 C4419 0.950 . S
C4408 H4400 0.950 . S
C4408 C4409 1.386 . S
C4408 C4410 1.391 . S
C4409 C4408 1.386 . S
C4409 C4413 1.393 . S
C4410 H4402 0.950 . S
C4410 C4408 1.391 . S
C4410 C4411 1.400 . S
C4411 C4410 1.400 . S
C4411 C4412 1.398 . S
C4411 C4417 1.491 . S
C4412 H4403 0.950 . S
C4412 C4411 1.398 . S
C4412 C4413 1.391 . S
C4413 H4401 0.950 . S
C4413 C4409 1.393 . S
C4413 C4412 1.391 . S
C4414 H4404 0.950 . S
C4414 C4415 1.386 . S
C4414 C4416 1.391 . S
C4415 C4414 1.386 . S
C4415 C4419 1.393 . S
C4416 H4405 0.950 . S
C4416 C4414 1.391 . S
C4416 C4417 1.400 . S
C4417 C4411 1.491 . S
C4417 C4416 1.400 . S
C4417 C4418 1.398 . S
C4418 H4406 0.950 . S
C4418 C4417 1.398 . S
C4418 C4419 1.391 . S
C4419 H4407 0.950 . S
C4419 C4415 1.393 . S
C4419 C4418 1.391 . S
H4420 C4428 0.950 . S
H4421 C4433 0.950 . S
H4422 C4430 0.950 . S
H4423 C4432 0.950 . S
H4424 C4434 0.950 . S
H4425 C4436 0.950 . S
H4426 C4438 0.950 . S
H4427 C4439 0.950 . S
C4428 H4420 0.950 . S
C4428 C4429 1.386 . S
C4428 C4430 1.391 . S
C4429 C4428 1.386 . S
C4429 C4433 1.393 . S
C4430 H4422 0.950 . S
C4430 C4428 1.391 . S
C4430 C4431 1.400 . S
C4431 C4430 1.400 . S
C4431 C4432 1.398 . S
C4431 C4437 1.491 . S
C4432 H4423 0.950 . S
C4432 C4431 1.398 . S
C4432 C4433 1.391 . S
C4433 H4421 0.950 . S
C4433 C4429 1.393 . S
C4433 C4432 1.391 . S
C4434 H4424 0.950 . S
C4434 C4435 1.386 . S
C4434 C4436 1.391 . S
C4435 C4434 1.386 . S
C4435 C4439 1.393 . S
C4436 H4425 0.950 . S
C4436 C4434 1.391 . S
C4436 C4437 1.400 . S
C4437 C4431 1.491 . S
C4437 C4436 1.400 . S
C4437 C4438 1.398 . S
C4438 H4426 0.950 . S
C4438 C4437 1.398 . S
C4438 C4439 1.391 . S
C4439 H4427 0.950 . S
C4439 C4435 1.393 . S
C4439 C4438 1.391 . S
H4440 C4448 0.950 . S
H4441 C4453 0.950 . S
H4442 C4450 0.950 . S
H4443 C4452 0.950 . S
H4444 C4454 0.950 . S
H4445 C4456 0.950 . S
H4446 C4458 0.950 . S
H4447 C4459 0.950 . S
C4448 H4440 0.950 . S
C4448 C4449 1.386 . S
C4448 C4450 1.391 . S
C4449 C4448 1.386 . S
C4449 C4453 1.393 . S
C4450 H4442 0.950 . S
C4450 C4448 1.391 . S
C4450 C4451 1.400 . S
C4451 C4450 1.400 . S
C4451 C4452 1.398 . S
C4451 C4457 1.491 . S
C4452 H4443 0.950 . S
C4452 C4451 1.398 . S
C4452 C4453 1.391 . S
C4453 H4441 0.950 . S
C4453 C4449 1.393 . S
C4453 C4452 1.391 . S
C4454 H4444 0.950 . S
C4454 C4455 1.386 . S
C4454 C4456 1.391 . S
C4455 C4454 1.386 . S
C4455 C4459 1.393 . S
C4456 H4445 0.950 . S
C4456 C4454 1.391 . S
C4456 C4457 1.400 . S
C4457 C4451 1.491 . S
C4457 C4456 1.400 . S
C4457 C4458 1.398 . S
C4458 H4446 0.950 . S
C4458 C4457 1.398 . S
C4458 C4459 1.391 . S
C4459 H4447 0.950 . S
C4459 C4455 1.393 . S
C4459 C4458 1.391 . S
H4460 C4468 0.950 . S
H4461 C4473 0.950 . S
H4462 C4470 0.950 . S
H4463 C4472 0.950 . S
H4464 C4474 0.950 . S
H4465 C4476 0.950 . S
H4466 C4478 0.950 . S
H4467 C4479 0.950 . S
C4468 H4460 0.950 . S
C4468 C4469 1.386 . S
C4468 C4470 1.391 . S
C4469 C4468 1.386 . S
C4469 C4473 1.393 . S
C4470 H4462 0.950 . S
C4470 C4468 1.391 . S
C4470 C4471 1.400 . S
C4471 C4470 1.400 . S
C4471 C4472 1.398 . S
C4471 C4477 1.491 . S
C4472 H4463 0.950 . S
C4472 C4471 1.398 . S
C4472 C4473 1.391 . S
C4473 H4461 0.950 . S
C4473 C4469 1.393 . S
C4473 C4472 1.391 . S
C4474 H4464 0.950 . S
C4474 C4475 1.386 . S
C4474 C4476 1.391 . S
C4475 C4474 1.386 . S
C4475 C4479 1.393 . S
C4476 H4465 0.950 . S
C4476 C4474 1.391 . S
C4476 C4477 1.400 . S
C4477 C4471 1.491 . S
C4477 C4476 1.400 . S
C4477 C4478 1.398 . S
C4478 H4466 0.950 . S
C4478 C4477 1.398 . S
C4478 C4479 1.391 . S
C4479 H4467 0.950 . S
C4479 C4475 1.393 . S
C4479 C4478 1.391 . S
H4480 C4488 0.950 . S
H4481 C4493 0.950 . S
H4482 C4490 0.950 . S
H4483 C4492 0.950 . S
H4484 C4494 0.950 . S
H4485 C4496 0.950 . S
H4486 C4498 0.950 . S
H4487 C4499 0.950 . S
C4488 H4480 0.950 . S
C4488 C4489 1.386 . S
C4488 C4490 1.391 . S
C4489 C4488 1.386 . S
C4489 C4493 1.393 . S
C4490 H4482 0.950 . S
C4490 C4488 1.391 . S
C4490 C4491 1.400 . S
C4491 C4490 1.400 . S
C4491 C4492 1.398 . S
C4491 C4497 1.491 . S
C4492 H4483 0.950 . S
C4492 C4491 1.398 . S
C4492 C4493 1.391 . S
C4493 H4481 0.950 . S
C4493 C4489 1.393 . S
C4493 C4492 1.391 . S
C4494 H4484 0.950 . S
C4494 C4495 1.386 . S
C4494 C4496 1.391 . S
C4495 C4494 1.386 . S
C4495 C4499 1.393 . S
C4496 H4485 0.950 . S
C4496 C4494 1.391 . S
C4496 C4497 1.400 . S
C4497 C4491 1.491 . S
C4497 C4496 1.400 . S
C4497 C4498 1.398 . S
C4498 H4486 0.950 . S
C4498 C4497 1.398 . S
C4498 C4499 1.391 . S
C4499 H4487 0.950 . S
C4499 C4495 1.393 . S
C4499 C4498 1.391 . S
H4500 C4508 0.950 . S
H4501 C4513 0.950 . S
H4502 C4510 0.950 . S
H4503 C4512 0.950 . S
H4504 C4514 0.950 . S
H4505 C4516 0.950 . S
H4506 C4518 0.950 . S
H4507 C4519 0.950 . S
C4508 H4500 0.950 . S
C4508 C4509 1.386 . S
C4508 C4510 1.391 . S
C4509 C4508 1.386 . S
C4509 C4513 1.393 . S
C4510 H4502 0.950 . S
C4510 C4508 1.391 . S
C4510 C4511 1.400 . S
C4511 C4510 1.400 . S
C4511 C4512 1.398 . S
C4511 C4517 1.491 . S
C4512 H4503 0.950 . S
C4512 C4511 1.398 . S
C4512 C4513 1.391 . S
C4513 H4501 0.950 . S
C4513 C4509 1.393 . S
C4513 C4512 1.391 . S
C4514 H4504 0.950 . S
C4514 C4515 1.386 . S
C4514 C4516 1.391 . S
C4515 C4514 1.386 . S
C4515 C4519 1.393 . S
C4516 H4505 0.950 . S
C4516 C4514 1.391 . S
C4516 C4517 1.400 . S
C4517 C4511 1.491 . S
C4517 C4516 1.400 . S
C4517 C4518 1.398 . S
C4518 H4506 0.950 . S
C4518 C4517 1.398 . S
C4518 C4519 1.391 . S
C4519 H4507 0.950 . S
C4519 C4515 1.393 . S
C4519 C4518 1.391 . S
H4520 C4528 0.950 . S
H4521 C4533 0.950 . S
H4522 C4530 0.950 . S
H4523 C4532 0.950 . S
H4524 C4534 0.950 . S
H4525 C4536 0.950 . S
H4526 C4538 0.950 . S
H4527 C4539 0.950 . S
C4528 H4520 0.950 . S
C4528 C4529 1.386 . S
C4528 C4530 1.391 . S
C4529 C4528 1.386 . S
C4529 C4533 1.393 . S
C4530 H4522 0.950 . S
C4530 C4528 1.391 . S
C4530 C4531 1.400 . S
C4531 C4530 1.400 . S
C4531 C4532 1.398 . S
C4531 C4537 1.491 . S
C4532 H4523 0.950 . S
C4532 C4531 1.398 . S
C4532 C4533 1.391 . S
C4533 H4521 0.950 . S
C4533 C4529 1.393 . S
C4533 C4532 1.391 . S
C4534 H4524 0.950 . S
C4534 C4535 1.386 . S
C4534 C4536 1.391 . S
C4535 C4534 1.386 . S
C4535 C4539 1.393 . S
C4536 H4525 0.950 . S
C4536 C4534 1.391 . S
C4536 C4537 1.400 . S
C4537 C4531 1.491 . S
C4537 C4536 1.400 . S
C4537 C4538 1.398 . S
C4538 H4526 0.950 . S
C4538 C4537 1.398 . S
C4538 C4539 1.391 . S
C4539 H4527 0.950 . S
C4539 C4535 1.393 . S
C4539 C4538 1.391 . S
H4540 C4548 0.950 . S
H4541 C4553 0.950 . S
H4542 C4550 0.950 . S
H4543 C4552 0.950 . S
H4544 C4554 0.950 . S
H4545 C4556 0.950 . S
H4546 C4558 0.950 . S
H4547 C4559 0.950 . S
C4548 H4540 0.950 . S
C4548 C4549 1.386 . S
C4548 C4550 1.391 . S
C4549 C4548 1.386 . S
C4549 C4553 1.393 . S
C4550 H4542 0.950 . S
C4550 C4548 1.391 . S
C4550 C4551 1.400 . S
C4551 C4550 1.400 . S
C4551 C4552 1.398 . S
C4551 C4557 1.491 . S
C4552 H4543 0.950 . S
C4552 C4551 1.398 . S
C4552 C4553 1.391 . S
C4553 H4541 0.950 . S
C4553 C4549 1.393 . S
C4553 C4552 1.391 . S
C4554 H4544 0.950 . S
C4554 C4555 1.386 . S
C4554 C4556 1.391 . S
C4555 C4554 1.386 . S
C4555 C4559 1.393 . S
C4556 H4545 0.950 . S
C4556 C4554 1.391 . S
C4556 C4557 1.400 . S
C4557 C4551 1.491 . S
C4557 C4556 1.400 . S
C4557 C4558 1.398 . S
C4558 H4546 0.950 . S
C4558 C4557 1.398 . S
C4558 C4559 1.391 . S
C4559 H4547 0.950 . S
C4559 C4555 1.393 . S
C4559 C4558 1.391 . S
H4560 C4568 0.950 . S
H4561 C4573 0.950 . S
H4562 C4570 0.950 . S
H4563 C4572 0.950 . S
H4564 C4574 0.950 . S
H4565 C4576 0.950 . S
H4566 C4578 0.950 . S
H4567 C4579 0.950 . S
C4568 H4560 0.950 . S
C4568 C4569 1.386 . S
C4568 C4570 1.391 . S
C4569 C4568 1.386 . S
C4569 C4573 1.393 . S
C4570 H4562 0.950 . S
C4570 C4568 1.391 . S
C4570 C4571 1.400 . S
C4571 C4570 1.400 . S
C4571 C4572 1.398 . S
C4571 C4577 1.491 . S
C4572 H4563 0.950 . S
C4572 C4571 1.398 . S
C4572 C4573 1.391 . S
C4573 H4561 0.950 . S
C4573 C4569 1.393 . S
C4573 C4572 1.391 . S
C4574 H4564 0.950 . S
C4574 C4575 1.386 . S
C4574 C4576 1.391 . S
C4575 C4574 1.386 . S
C4575 C4579 1.393 . S
C4576 H4565 0.950 . S
C4576 C4574 1.391 . S
C4576 C4577 1.400 . S
C4577 C4571 1.491 . S
C4577 C4576 1.400 . S
C4577 C4578 1.398 . S
C4578 H4566 0.950 . S
C4578 C4577 1.398 . S
C4578 C4579 1.391 . S
C4579 H4567 0.950 . S
C4579 C4575 1.393 . S
C4579 C4578 1.391 . S
H4580 C4588 0.950 . S
H4581 C4593 0.950 . S
H4582 C4590 0.950 . S
H4583 C4592 0.950 . S
H4584 C4594 0.950 . S
H4585 C4596 0.950 . S
H4586 C4598 0.950 . S
H4587 C4599 0.950 . S
C4588 H4580 0.950 . S
C4588 C4589 1.386 . S
C4588 C4590 1.391 . S
C4589 C4588 1.386 . S
C4589 C4593 1.393 . S
C4590 H4582 0.950 . S
C4590 C4588 1.391 . S
C4590 C4591 1.400 . S
C4591 C4590 1.400 . S
C4591 C4592 1.398 . S
C4591 C4597 1.491 . S
C4592 H4583 0.950 . S
C4592 C4591 1.398 . S
C4592 C4593 1.391 . S
C4593 H4581 0.950 . S
C4593 C4589 1.393 . S
C4593 C4592 1.391 . S
C4594 H4584 0.950 . S
C4594 C4595 1.386 . S
C4594 C4596 1.391 . S
C4595 C4594 1.386 . S
C4595 C4599 1.393 . S
C4596 H4585 0.950 . S
C4596 C4594 1.391 . S
C4596 C4597 1.400 . S
C4597 C4591 1.491 . S
C4597 C4596 1.400 . S
C4597 C4598 1.398 . S
C4598 H4586 0.950 . S
C4598 C4597 1.398 . S
C4598 C4599 1.391 . S
C4599 H4587 0.950 . S
C4599 C4595 1.393 . S
C4599 C4598 1.391 . S
H4600 C4608 0.950 . S
H4601 C4613 0.950 . S
H4602 C4610 0.950 . S
H4603 C4612 0.950 . S
H4604 C4614 0.950 . S
H4605 C4616 0.950 . S
H4606 C4618 0.950 . S
H4607 C4619 0.950 . S
C4608 H4600 0.950 . S
C4608 C4609 1.386 . S
C4608 C4610 1.391 . S
C4609 C4608 1.386 . S
C4609 C4613 1.393 . S
C4610 H4602 0.950 . S
C4610 C4608 1.391 . S
C4610 C4611 1.400 . S
C4611 C4610 1.400 . S
C4611 C4612 1.398 . S
C4611 C4617 1.491 . S
C4612 H4603 0.950 . S
C4612 C4611 1.398 . S
C4612 C4613 1.391 . S
C4613 H4601 0.950 . S
C4613 C4609 1.393 . S
C4613 C4612 1.391 . S
C4614 H4604 0.950 . S
C4614 C4615 1.386 . S
C4614 C4616 1.391 . S
C4615 C4614 1.386 . S
C4615 C4619 1.393 . S
C4616 H4605 0.950 . S
C4616 C4614 1.391 . S
C4616 C4617 1.400 . S
C4617 C4611 1.491 . S
C4617 C4616 1.400 . S
C4617 C4618 1.398 . S
C4618 H4606 0.950 . S
C4618 C4617 1.398 . S
C4618 C4619 1.391 . S
C4619 H4607 0.950 . S
C4619 C4615 1.393 . S
C4619 C4618 1.391 . S
H4620 C4628 0.950 . S
H4621 C4633 0.950 . S
H4622 C4630 0.950 . S
H4623 C4632 0.950 . S
H4624 C4634 0.950 . S
H4625 C4636 0.950 . S
H4626 C4638 0.950 . S
H4627 C4639 0.950 . S
C4628 H4620 0.950 . S
C4628 C4629 1.386 . S
C4628 C4630 1.391 . S
C4629 C4628 1.386 . S
C4629 C4633 1.393 . S
C4630 H4622 0.950 . S
C4630 C4628 1.391 . S
C4630 C4631 1.400 . S
C4631 C4630 1.400 . S
C4631 C4632 1.398 . S
C4631 C4637 1.491 . S
C4632 H4623 0.950 . S
C4632 C4631 1.398 . S
C4632 C4633 1.391 . S
C4633 H4621 0.950 . S
C4633 C4629 1.393 . S
C4633 C4632 1.391 . S
C4634 H4624 0.950 . S
C4634 C4635 1.386 . S
C4634 C4636 1.391 . S
C4635 C4634 1.386 . S
C4635 C4639 1.393 . S
C4636 H4625 0.950 . S
C4636 C4634 1.391 . S
C4636 C4637 1.400 . S
C4637 C4631 1.491 . S
C4637 C4636 1.400 . S
C4637 C4638 1.398 . S
C4638 H4626 0.950 . S
C4638 C4637 1.398 . S
C4638 C4639 1.391 . S
C4639 H4627 0.950 . S
C4639 C4635 1.393 . S
C4639 C4638 1.391 . S
H4640 C4648 0.950 . S
H4641 C4653 0.950 . S
H4642 C4650 0.950 . S
H4643 C4652 0.950 . S
H4644 C4654 0.950 . S
H4645 C4656 0.950 . S
H4646 C4658 0.950 . S
H4647 C4659 0.950 . S
C4648 H4640 0.950 . S
C4648 C4649 1.386 . S
C4648 C4650 1.391 . S
C4649 C4648 1.386 . S
C4649 C4653 1.393 . S
C4650 H4642 0.950 . S
C4650 C4648 1.391 . S
C4650 C4651 1.400 . S
C4651 C4650 1.400 . S
C4651 C4652 1.398 . S
C4651 C4657 1.491 . S
C4652 H4643 0.950 . S
C4652 C4651 1.398 . S
C4652 C4653 1.391 . S
C4653 H4641 0.950 . S
C4653 C4649 1.393 . S
C4653 C4652 1.391 . S
C4654 H4644 0.950 . S
C4654 C4655 1.386 . S
C4654 C4656 1.391 . S
C4655 C4654 1.386 . S
C4655 C4659 1.393 . S
C4656 H4645 0.950 . S
C4656 C4654 1.391 . S
C4656 C4657 1.400 . S
C4657 C4651 1.491 . S
C4657 C4656 1.400 . S
C4657 C4658 1.398 . S
C4658 H4646 0.950 . S
C4658 C4657 1.398 . S
C4658 C4659 1.391 . S
C4659 H4647 0.950 . S
C4659 C4655 1.393 . S
C4659 C4658 1.391 . S
H4660 C4668 0.950 . S
H4661 C4673 0.950 . S
H4662 C4670 0.950 . S
H4663 C4672 0.950 . S
H4664 C4674 0.950 . S
H4665 C4676 0.950 . S
H4666 C4678 0.950 . S
H4667 C4679 0.950 . S
C4668 H4660 0.950 . S
C4668 C4669 1.386 . S
C4668 C4670 1.391 . S
C4669 C4668 1.386 . S
C4669 C4673 1.393 . S
C4670 H4662 0.950 . S
C4670 C4668 1.391 . S
C4670 C4671 1.400 . S
C4671 C4670 1.400 . S
C4671 C4672 1.398 . S
C4671 C4677 1.491 . S
C4672 H4663 0.950 . S
C4672 C4671 1.398 . S
C4672 C4673 1.391 . S
C4673 H4661 0.950 . S
C4673 C4669 1.393 . S
C4673 C4672 1.391 . S
C4674 H4664 0.950 . S
C4674 C4675 1.386 . S
C4674 C4676 1.391 . S
C4675 C4674 1.386 . S
C4675 C4679 1.393 . S
C4676 H4665 0.950 . S
C4676 C4674 1.391 . S
C4676 C4677 1.400 . S
C4677 C4671 1.491 . S
C4677 C4676 1.400 . S
C4677 C4678 1.398 . S
C4678 H4666 0.950 . S
C4678 C4677 1.398 . S
C4678 C4679 1.391 . S
C4679 H4667 0.950 . S
C4679 C4675 1.393 . S
C4679 C4678 1.391 . S
H4680 C4688 0.950 . S
H4681 C4693 0.950 . S
H4682 C4690 0.950 . S
H4683 C4692 0.950 . S
H4684 C4694 0.950 . S
H4685 C4696 0.950 . S
H4686 C4698 0.950 . S
H4687 C4699 0.950 . S
C4688 H4680 0.950 . S
C4688 C4689 1.386 . S
C4688 C4690 1.391 . S
C4689 C4688 1.386 . S
C4689 C4693 1.393 . S
C4690 H4682 0.950 . S
C4690 C4688 1.391 . S
C4690 C4691 1.400 . S
C4691 C4690 1.400 . S
C4691 C4692 1.398 . S
C4691 C4697 1.491 . S
C4692 H4683 0.950 . S
C4692 C4691 1.398 . S
C4692 C4693 1.391 . S
C4693 H4681 0.950 . S
C4693 C4689 1.393 . S
C4693 C4692 1.391 . S
C4694 H4684 0.950 . S
C4694 C4695 1.386 . S
C4694 C4696 1.391 . S
C4695 C4694 1.386 . S
C4695 C4699 1.393 . S
C4696 H4685 0.950 . S
C4696 C4694 1.391 . S
C4696 C4697 1.400 . S
C4697 C4691 1.491 . S
C4697 C4696 1.400 . S
C4697 C4698 1.398 . S
C4698 H4686 0.950 . S
C4698 C4697 1.398 . S
C4698 C4699 1.391 . S
C4699 H4687 0.950 . S
C4699 C4695 1.393 . S
C4699 C4698 1.391 . S
H4700 C4708 0.950 . S
H4701 C4713 0.950 . S
H4702 C4710 0.950 . S
H4703 C4712 0.950 . S
H4704 C4714 0.950 . S
H4705 C4716 0.950 . S
H4706 C4718 0.950 . S
H4707 C4719 0.950 . S
C4708 H4700 0.950 . S
C4708 C4709 1.386 . S
C4708 C4710 1.391 . S
C4709 C4708 1.386 . S
C4709 C4713 1.393 . S
C4710 H4702 0.950 . S
C4710 C4708 1.391 . S
C4710 C4711 1.400 . S
C4711 C4710 1.400 . S
C4711 C4712 1.398 . S
C4711 C4717 1.491 . S
C4712 H4703 0.950 . S
C4712 C4711 1.398 . S
C4712 C4713 1.391 . S
C4713 H4701 0.950 . S
C4713 C4709 1.393 . S
C4713 C4712 1.391 . S
C4714 H4704 0.950 . S
C4714 C4715 1.386 . S
C4714 C4716 1.391 . S
C4715 C4714 1.386 . S
C4715 C4719 1.393 . S
C4716 H4705 0.950 . S
C4716 C4714 1.391 . S
C4716 C4717 1.400 . S
C4717 C4711 1.491 . S
C4717 C4716 1.400 . S
C4717 C4718 1.398 . S
C4718 H4706 0.950 . S
C4718 C4717 1.398 . S
C4718 C4719 1.391 . S
C4719 H4707 0.950 . S
C4719 C4715 1.393 . S
C4719 C4718 1.391 . S
H4720 C4728 0.950 . S
H4721 C4733 0.950 . S
H4722 C4730 0.950 . S
H4723 C4732 0.950 . S
H4724 C4734 0.950 . S
H4725 C4736 0.950 . S
H4726 C4738 0.950 . S
H4727 C4739 0.950 . S
C4728 H4720 0.950 . S
C4728 C4729 1.386 . S
C4728 C4730 1.391 . S
C4729 C4728 1.386 . S
C4729 C4733 1.393 . S
C4730 H4722 0.950 . S
C4730 C4728 1.391 . S
C4730 C4731 1.400 . S
C4731 C4730 1.400 . S
C4731 C4732 1.398 . S
C4731 C4737 1.491 . S
C4732 H4723 0.950 . S
C4732 C4731 1.398 . S
C4732 C4733 1.391 . S
C4733 H4721 0.950 . S
C4733 C4729 1.393 . S
C4733 C4732 1.391 . S
C4734 H4724 0.950 . S
C4734 C4735 1.386 . S
C4734 C4736 1.391 . S
C4735 C4734 1.386 . S
C4735 C4739 1.393 . S
C4736 H4725 0.950 . S
C4736 C4734 1.391 . S
C4736 C4737 1.400 . S
C4737 C4731 1.491 . S
C4737 C4736 1.400 . S
C4737 C4738 1.398 . S
C4738 H4726 0.950 . S
C4738 C4737 1.398 . S
C4738 C4739 1.391 . S
C4739 H4727 0.950 . S
C4739 C4735 1.393 . S
C4739 C4738 1.391 . S
H4740 C4748 0.950 . S
H4741 C4753 0.950 . S
H4742 C4750 0.950 . S
H4743 C4752 0.950 . S
H4744 C4754 0.950 . S
H4745 C4756 0.950 . S
H4746 C4758 0.950 . S
H4747 C4759 0.950 . S
C4748 H4740 0.950 . S
C4748 C4749 1.386 . S
C4748 C4750 1.391 . S
C4749 C4748 1.386 . S
C4749 C4753 1.393 . S
C4750 H4742 0.950 . S
C4750 C4748 1.391 . S
C4750 C4751 1.400 . S
C4751 C4750 1.400 . S
C4751 C4752 1.398 . S
C4751 C4757 1.491 . S
C4752 H4743 0.950 . S
C4752 C4751 1.398 . S
C4752 C4753 1.391 . S
C4753 H4741 0.950 . S
C4753 C4749 1.393 . S
C4753 C4752 1.391 . S
C4754 H4744 0.950 . S
C4754 C4755 1.386 . S
C4754 C4756 1.391 . S
C4755 C4754 1.386 . S
C4755 C4759 1.393 . S
C4756 H4745 0.950 . S
C4756 C4754 1.391 . S
C4756 C4757 1.400 . S
C4757 C4751 1.491 . S
C4757 C4756 1.400 . S
C4757 C4758 1.398 . S
C4758 H4746 0.950 . S
C4758 C4757 1.398 . S
C4758 C4759 1.391 . S
C4759 H4747 0.950 . S
C4759 C4755 1.393 . S
C4759 C4758 1.391 . S
H4760 C4768 0.950 . S
H4761 C4773 0.950 . S
H4762 C4770 0.950 . S
H4763 C4772 0.950 . S
H4764 C4774 0.950 . S
H4765 C4776 0.950 . S
H4766 C4778 0.950 . S
H4767 C4779 0.950 . S
C4768 H4760 0.950 . S
C4768 C4769 1.386 . S
C4768 C4770 1.391 . S
C4769 C4768 1.386 . S
C4769 C4773 1.393 . S
C4770 H4762 0.950 . S
C4770 C4768 1.391 . S
C4770 C4771 1.400 . S
C4771 C4770 1.400 . S
C4771 C4772 1.398 . S
C4771 C4777 1.491 . S
C4772 H4763 0.950 . S
C4772 C4771 1.398 . S
C4772 C4773 1.391 . S
C4773 H4761 0.950 . S
C4773 C4769 1.393 . S
C4773 C4772 1.391 . S
C4774 H4764 0.950 . S
C4774 C4775 1.386 . S
C4774 C4776 1.391 . S
C4775 C4774 1.386 . S
C4775 C4779 1.393 . S
C4776 H4765 0.950 . S
C4776 C4774 1.391 . S
C4776 C4777 1.400 . S
C4777 C4771 1.491 . S
C4777 C4776 1.400 . S
C4777 C4778 1.398 . S
C4778 H4766 0.950 . S
C4778 C4777 1.398 . S
C4778 C4779 1.391 . S
C4779 H4767 0.950 . S
C4779 C4775 1.393 . S
C4779 C4778 1.391 . S
H4780 C4788 0.950 . S
H4781 C4793 0.950 . S
H4782 C4790 0.950 . S
H4783 C4792 0.950 . S
H4784 C4794 0.950 . S
H4785 C4796 0.950 . S
H4786 C4798 0.950 . S
H4787 C4799 0.950 . S
C4788 H4780 0.950 . S
C4788 C4789 1.386 . S
C4788 C4790 1.391 . S
C4789 C4788 1.386 . S
C4789 C4793 1.393 . S
C4790 H4782 0.950 . S
C4790 C4788 1.391 . S
C4790 C4791 1.400 . S
C4791 C4790 1.400 . S
C4791 C4792 1.398 . S
C4791 C4797 1.491 . S
C4792 H4783 0.950 . S
C4792 C4791 1.398 . S
C4792 C4793 1.391 . S
C4793 H4781 0.950 . S
C4793 C4789 1.393 . S
C4793 C4792 1.391 . S
C4794 H4784 0.950 . S
C4794 C4795 1.386 . S
C4794 C4796 1.391 . S
C4795 C4794 1.386 . S
C4795 C4799 1.393 . S
C4796 H4785 0.950 . S
C4796 C4794 1.391 . S
C4796 C4797 1.400 . S
C4797 C4791 1.491 . S
C4797 C4796 1.400 . S
C4797 C4798 1.398 . S
C4798 H4786 0.950 . S
C4798 C4797 1.398 . S
C4798 C4799 1.391 . S
C4799 H4787 0.950 . S
C4799 C4795 1.393 . S
C4799 C4798 1.391 . S
H4800 C4808 0.950 . S
H4801 C4813 0.950 . S
H4802 C4810 0.950 . S
H4803 C4812 0.950 . S
H4804 C4814 0.950 . S
H4805 C4816 0.950 . S
H4806 C4818 0.950 . S
H4807 C4819 0.950 . S
C4808 H4800 0.950 . S
C4808 C4809 1.386 . S
C4808 C4810 1.391 . S
C4809 C4808 1.386 . S
C4809 C4813 1.393 . S
C4810 H4802 0.950 . S
C4810 C4808 1.391 . S
C4810 C4811 1.400 . S
C4811 C4810 1.400 . S
C4811 C4812 1.398 . S
C4811 C4817 1.491 . S
C4812 H4803 0.950 . S
C4812 C4811 1.398 . S
C4812 C4813 1.391 . S
C4813 H4801 0.950 . S
C4813 C4809 1.393 . S
C4813 C4812 1.391 . S
C4814 H4804 0.950 . S
C4814 C4815 1.386 . S
C4814 C4816 1.391 . S
C4815 C4814 1.386 . S
C4815 C4819 1.393 . S
C4816 H4805 0.950 . S
C4816 C4814 1.391 . S
C4816 C4817 1.400 . S
C4817 C4811 1.491 . S
C4817 C4816 1.400 . S
C4817 C4818 1.398 . S
C4818 H4806 0.950 . S
C4818 C4817 1.398 . S
C4818 C4819 1.391 . S
C4819 H4807 0.950 . S
C4819 C4815 1.393 . S
C4819 C4818 1.391 . S
H4820 C4828 0.950 . S
H4821 C4833 0.950 . S
H4822 C4830 0.950 . S
H4823 C4832 0.950 . S
H4824 C4834 0.950 . S
H4825 C4836 0.950 . S
H4826 C4838 0.950 . S
H4827 C4839 0.950 . S
C4828 H4820 0.950 . S
C4828 C4829 1.386 . S
C4828 C4830 1.391 . S
C4829 C4828 1.386 . S
C4829 C4833 1.393 . S
C4830 H4822 0.950 . S
C4830 C4828 1.391 . S
C4830 C4831 1.400 . S
C4831 C4830 1.400 . S
C4831 C4832 1.398 . S
C4831 C4837 1.491 . S
C4832 H4823 0.950 . S
C4832 C4831 1.398 . S
C4832 C4833 1.391 . S
C4833 H4821 0.950 . S
C4833 C4829 1.393 . S
C4833 C4832 1.391 . S
C4834 H4824 0.950 . S
C4834 C4835 1.386 . S
C4834 C4836 1.391 . S
C4835 C4834 1.386 . S
C4835 C4839 1.393 . S
C4836 H4825 0.950 . S
C4836 C4834 1.391 . S
C4836 C4837 1.400 . S
C4837 C4831 1.491 . S
C4837 C4836 1.400 . S
C4837 C4838 1.398 . S
C4838 H4826 0.950 . S
C4838 C4837 1.398 . S
C4838 C4839 1.391 . S
C4839 H4827 0.950 . S
C4839 C4835 1.393 . S
C4839 C4838 1.391 . S
H4840 C4848 0.950 . S
H4841 C4853 0.950 . S
H4842 C4850 0.950 . S
H4843 C4852 0.950 . S
H4844 C4854 0.950 . S
H4845 C4856 0.950 . S
H4846 C4858 0.950 . S
H4847 C4859 0.950 . S
C4848 H4840 0.950 . S
C4848 C4849 1.386 . S
C4848 C4850 1.391 . S
C4849 C4848 1.386 . S
C4849 C4853 1.393 . S
C4850 H4842 0.950 . S
C4850 C4848 1.391 . S
C4850 C4851 1.400 . S
C4851 C4850 1.400 . S
C4851 C4852 1.398 . S
C4851 C4857 1.491 . S
C4852 H4843 0.950 . S
C4852 C4851 1.398 . S
C4852 C4853 1.391 . S
C4853 H4841 0.950 . S
C4853 C4849 1.393 . S
C4853 C4852 1.391 . S
C4854 H4844 0.950 . S
C4854 C4855 1.386 . S
C4854 C4856 1.391 . S
C4855 C4854 1.386 . S
C4855 C4859 1.393 . S
C4856 H4845 0.950 . S
C4856 C4854 1.391 . S
C4856 C4857 1.400 . S
C4857 C4851 1.491 . S
C4857 C4856 1.400 . S
C4857 C4858 1.398 . S
C4858 H4846 0.950 . S
C4858 C4857 1.398 . S
C4858 C4859 1.391 . S
C4859 H4847 0.950 . S
C4859 C4855 1.393 . S
C4859 C4858 1.391 . S
H4860 C4868 0.950 . S
H4861 C4873 0.950 . S
H4862 C4870 0.950 . S
H4863 C4872 0.950 . S
H4864 C4874 0.950 . S
H4865 C4876 0.950 . S
H4866 C4878 0.950 . S
H4867 C4879 0.950 . S
C4868 H4860 0.950 . S
C4868 C4869 1.386 . S
C4868 C4870 1.391 . S
C4869 C4868 1.386 . S
C4869 C4873 1.393 . S
C4870 H4862 0.950 . S
C4870 C4868 1.391 . S
C4870 C4871 1.400 . S
C4871 C4870 1.400 . S
C4871 C4872 1.398 . S
C4871 C4877 1.491 . S
C4872 H4863 0.950 . S
C4872 C4871 1.398 . S
C4872 C4873 1.391 . S
C4873 H4861 0.950 . S
C4873 C4869 1.393 . S
C4873 C4872 1.391 . S
C4874 H4864 0.950 . S
C4874 C4875 1.386 . S
C4874 C4876 1.391 . S
C4875 C4874 1.386 . S
C4875 C4879 1.393 . S
C4876 H4865 0.950 . S
C4876 C4874 1.391 . S
C4876 C4877 1.400 . S
C4877 C4871 1.491 . S
C4877 C4876 1.400 . S
C4877 C4878 1.398 . S
C4878 H4866 0.950 . S
C4878 C4877 1.398 . S
C4878 C4879 1.391 . S
C4879 H4867 0.950 . S
C4879 C4875 1.393 . S
C4879 C4878 1.391 . S
H4880 C4888 0.950 . S
H4881 C4893 0.950 . S
H4882 C4890 0.950 . S
H4883 C4892 0.950 . S
H4884 C4894 0.950 . S
H4885 C4896 0.950 . S
H4886 C4898 0.950 . S
H4887 C4899 0.950 . S
C4888 H4880 0.950 . S
C4888 C4889 1.386 . S
C4888 C4890 1.391 . S
C4889 C4888 1.386 . S
C4889 C4893 1.393 . S
C4890 H4882 0.950 . S
C4890 C4888 1.391 . S
C4890 C4891 1.400 . S
C4891 C4890 1.400 . S
C4891 C4892 1.398 . S
C4891 C4897 1.491 . S
C4892 H4883 0.950 . S
C4892 C4891 1.398 . S
C4892 C4893 1.391 . S
C4893 H4881 0.950 . S
C4893 C4889 1.393 . S
C4893 C4892 1.391 . S
C4894 H4884 0.950 . S
C4894 C4895 1.386 . S
C4894 C4896 1.391 . S
C4895 C4894 1.386 . S
C4895 C4899 1.393 . S
C4896 H4885 0.950 . S
C4896 C4894 1.391 . S
C4896 C4897 1.400 . S
C4897 C4891 1.491 . S
C4897 C4896 1.400 . S
C4897 C4898 1.398 . S
C4898 H4886 0.950 . S
C4898 C4897 1.398 . S
C4898 C4899 1.391 . S
C4899 H4887 0.950 . S
C4899 C4895 1.393 . S
C4899 C4898 1.391 . S
H4900 C4908 0.950 . S
H4901 C4913 0.950 . S
H4902 C4910 0.950 . S
H4903 C4912 0.950 . S
H4904 C4914 0.950 . S
H4905 C4916 0.950 . S
H4906 C4918 0.950 . S
H4907 C4919 0.950 . S
C4908 H4900 0.950 . S
C4908 C4909 1.386 . S
C4908 C4910 1.391 . S
C4909 C4908 1.386 . S
C4909 C4913 1.393 . S
C4910 H4902 0.950 . S
C4910 C4908 1.391 . S
C4910 C4911 1.400 . S
C4911 C4910 1.400 . S
C4911 C4912 1.398 . S
C4911 C4917 1.491 . S
C4912 H4903 0.950 . S
C4912 C4911 1.398 . S
C4912 C4913 1.391 . S
C4913 H4901 0.950 . S
C4913 C4909 1.393 . S
C4913 C4912 1.391 . S
C4914 H4904 0.950 . S
C4914 C4915 1.386 . S
C4914 C4916 1.391 . S
C4915 C4914 1.386 . S
C4915 C4919 1.393 . S
C4916 H4905 0.950 . S
C4916 C4914 1.391 . S
C4916 C4917 1.400 . S
C4917 C4911 1.491 . S
C4917 C4916 1.400 . S
C4917 C4918 1.398 . S
C4918 H4906 0.950 . S
C4918 C4917 1.398 . S
C4918 C4919 1.391 . S
C4919 H4907 0.950 . S
C4919 C4915 1.393 . S
C4919 C4918 1.391 . S
H4920 C4928 0.950 . S
H4921 C4933 0.950 . S
H4922 C4930 0.950 . S
H4923 C4932 0.950 . S
H4924 C4934 0.950 . S
H4925 C4936 0.950 . S
H4926 C4938 0.950 . S
H4927 C4939 0.950 . S
C4928 H4920 0.950 . S
C4928 C4929 1.386 . S
C4928 C4930 1.391 . S
C4929 C4928 1.386 . S
C4929 C4933 1.393 . S
C4930 H4922 0.950 . S
C4930 C4928 1.391 . S
C4930 C4931 1.400 . S
C4931 C4930 1.400 . S
C4931 C4932 1.398 . S
C4931 C4937 1.491 . S
C4932 H4923 0.950 . S
C4932 C4931 1.398 . S
C4932 C4933 1.391 . S
C4933 H4921 0.950 . S
C4933 C4929 1.393 . S
C4933 C4932 1.391 . S
C4934 H4924 0.950 . S
C4934 C4935 1.386 . S
C4934 C4936 1.391 . S
C4935 C4934 1.386 . S
C4935 C4939 1.393 . S
C4936 H4925 0.950 . S
C4936 C4934 1.391 . S
C4936 C4937 1.400 . S
C4937 C4931 1.491 . S
C4937 C4936 1.400 . S
C4937 C4938 1.398 . S
C4938 H4926 0.950 . S
C4938 C4937 1.398 . S
C4938 C4939 1.391 . S
C4939 H4927 0.950 . S
C4939 C4935 1.393 . S
C4939 C4938 1.391 . S
H4940 C4948 0.950 . S
H4941 C4953 0.950 . S
H4942 C4950 0.950 . S
H4943 C4952 0.950 . S
H4944 C4954 0.950 . S
H4945 C4956 0.950 . S
H4946 C4958 0.950 . S
H4947 C4959 0.950 . S
C4948 H4940 0.950 . S
C4948 C4949 1.386 . S
C4948 C4950 1.391 . S
C4949 C4948 1.386 . S
C4949 C4953 1.393 . S
C4950 H4942 0.950 . S
C4950 C4948 1.391 . S
C4950 C4951 1.400 . S
C4951 C4950 1.400 . S
C4951 C4952 1.398 . S
C4951 C4957 1.491 . S
C4952 H4943 0.950 . S
C4952 C4951 1.398 . S
C4952 C4953 1.391 . S
C4953 H4941 0.950 . S
C4953 C4949 1.393 . S
C4953 C4952 1.391 . S
C4954 H4944 0.950 . S
C4954 C4955 1.386 . S
C4954 C4956 1.391 . S
C4955 C4954 1.386 . S
C4955 C4959 1.393 . S
C4956 H4945 0.950 . S
C4956 C4954 1.391 . S
C4956 C4957 1.400 . S
C4957 C4951 1.491 . S
C4957 C4956 1.400 . S
C4957 C4958 1.398 . S
C4958 H4946 0.950 . S
C4958 C4957 1.398 . S
C4958 C4959 1.391 . S
C4959 H4947 0.950 . S
C4959 C4955 1.393 . S
C4959 C4958 1.391 . S
H4960 C4968 0.950 . S
H4961 C4973 0.950 . S
H4962 C4970 0.950 . S
H4963 C4972 0.950 . S
H4964 C4974 0.950 . S
H4965 C4976 0.950 . S
H4966 C4978 0.950 . S
H4967 C4979 0.950 . S
C4968 H4960 0.950 . S
C4968 C4969 1.386 . S
C4968 C4970 1.391 . S
C4969 C4968 1.386 . S
C4969 C4973 1.393 . S
C4970 H4962 0.950 . S
C4970 C4968 1.391 . S
C4970 C4971 1.400 . S
C4971 C4970 1.400 . S
C4971 C4972 1.398 . S
C4971 C4977 1.491 . S
C4972 H4963 0.950 . S
C4972 C4971 1.398 . S
C4972 C4973 1.391 . S
C4973 H4961 0.950 . S
C4973 C4969 1.393 . S
C4973 C4972 1.391 . S
C4974 H4964 0.950 . S
C4974 C4975 1.386 . S
C4974 C4976 1.391 . S
C4975 C4974 1.386 . S
C4975 C4979 1.393 . S
C4976 H4965 0.950 . S
C4976 C4974 1.391 . S
C4976 C4977 1.400 . S
C4977 C4971 1.491 . S
C4977 C4976 1.400 . S
C4977 C4978 1.398 . S
C4978 H4966 0.950 . S
C4978 C4977 1.398 . S
C4978 C4979 1.391 . S
C4979 H4967 0.950 . S
C4979 C4975 1.393 . S
C4979 C4978 1.391 . S
H4980 C4988 0.950 . S
H4981 C4993 0.950 . S
H4982 C4990 0.950 . S
H4983 C4992 0.950 . S
H4984 C4994 0.950 . S
H4985 C4996 0.950 . S
H4986 C4998 0.950 . S
H4987 C4999 0.950 . S
C4988 H4980 0.950 . S
C4988 C4989 1.386 . S
C4988 C4990 1.391 . S
C4989 C4988 1.386 . S
C4989 C4993 1.393 . S
C4990 H4982 0.950 . S
C4990 C4988 1.391 . S
C4990 C4991 1.400 . S
C4991 C4990 1.400 . S
C4991 C4992 1.398 . S
C4991 C4997 1.491 . S
C4992 H4983 0.950 . S
C4992 C4991 1.398 . S
C4992 C4993 1.391 . S
C4993 H4981 0.950 . S
C4993 C4989 1.393 . S
C4993 C4992 1.391 . S
C4994 H4984 0.950 . S
C4994 C4995 1.386 . S
C4994 C4996 1.391 . S
C4995 C4994 1.386 . S
C4995 C4999 1.393 . S
C4996 H4985 0.950 . S
C4996 C4994 1.391 . S
C4996 C4997 1.400 . S
C4997 C4991 1.491 . S
C4997 C4996 1.400 . S
C4997 C4998 1.398 . S
C4998 H4986 0.950 . S
C4998 C4997 1.398 . S
C4998 C4999 1.391 . S
C4999 H4987 0.950 . S
C4999 C4995 1.393 . S
C4999 C4998 1.391 . S
H5000 C5008 0.950 . S
H5001 C5013 0.950 . S
H5002 C5010 0.950 . S
H5003 C5012 0.950 . S
H5004 C5014 0.950 . S
H5005 C5016 0.950 . S
H5006 C5018 0.950 . S
H5007 C5019 0.950 . S
C5008 H5000 0.950 . S
C5008 C5009 1.386 . S
C5008 C5010 1.391 . S
C5009 C5008 1.386 . S
C5009 C5013 1.393 . S
C5010 H5002 0.950 . S
C5010 C5008 1.391 . S
C5010 C5011 1.400 . S
C5011 C5010 1.400 . S
C5011 C5012 1.398 . S
C5011 C5017 1.491 . S
C5012 H5003 0.950 . S
C5012 C5011 1.398 . S
C5012 C5013 1.391 . S
C5013 H5001 0.950 . S
C5013 C5009 1.393 . S
C5013 C5012 1.391 . S
C5014 H5004 0.950 . S
C5014 C5015 1.386 . S
C5014 C5016 1.391 . S
C5015 C5014 1.386 . S
C5015 C5019 1.393 . S
C5016 H5005 0.950 . S
C5016 C5014 1.391 . S
C5016 C5017 1.400 . S
C5017 C5011 1.491 . S
C5017 C5016 1.400 . S
C5017 C5018 1.398 . S
C5018 H5006 0.950 . S
C5018 C5017 1.398 . S
C5018 C5019 1.391 . S
C5019 H5007 0.950 . S
C5019 C5015 1.393 . S
C5019 C5018 1.391 . S
H5020 C5028 0.950 . S
H5021 C5033 0.950 . S
H5022 C5030 0.950 . S
H5023 C5032 0.950 . S
H5024 C5034 0.950 . S
H5025 C5036 0.950 . S
H5026 C5038 0.950 . S
H5027 C5039 0.950 . S
C5028 H5020 0.950 . S
C5028 C5029 1.386 . S
C5028 C5030 1.391 . S
C5029 C5028 1.386 . S
C5029 C5033 1.393 . S
C5030 H5022 0.950 . S
C5030 C5028 1.391 . S
C5030 C5031 1.400 . S
C5031 C5030 1.400 . S
C5031 C5032 1.398 . S
C5031 C5037 1.491 . S
C5032 H5023 0.950 . S
C5032 C5031 1.398 . S
C5032 C5033 1.391 . S
C5033 H5021 0.950 . S
C5033 C5029 1.393 . S
C5033 C5032 1.391 . S
C5034 H5024 0.950 . S
C5034 C5035 1.386 . S
C5034 C5036 1.391 . S
C5035 C5034 1.386 . S
C5035 C5039 1.393 . S
C5036 H5025 0.950 . S
C5036 C5034 1.391 . S
C5036 C5037 1.400 . S
C5037 C5031 1.491 . S
C5037 C5036 1.400 . S
C5037 C5038 1.398 . S
C5038 H5026 0.950 . S
C5038 C5037 1.398 . S
C5038 C5039 1.391 . S
C5039 H5027 0.950 . S
C5039 C5035 1.393 . S
C5039 C5038 1.391 . S
H5040 C5048 0.950 . S
H5041 C5053 0.950 . S
H5042 C5050 0.950 . S
H5043 C5052 0.950 . S
H5044 C5054 0.950 . S
H5045 C5056 0.950 . S
H5046 C5058 0.950 . S
H5047 C5059 0.950 . S
C5048 H5040 0.950 . S
C5048 C5049 1.386 . S
C5048 C5050 1.391 . S
C5049 C5048 1.386 . S
C5049 C5053 1.393 . S
C5050 H5042 0.950 . S
C5050 C5048 1.391 . S
C5050 C5051 1.400 . S
C5051 C5050 1.400 . S
C5051 C5052 1.398 . S
C5051 C5057 1.491 . S
C5052 H5043 0.950 . S
C5052 C5051 1.398 . S
C5052 C5053 1.391 . S
C5053 H5041 0.950 . S
C5053 C5049 1.393 . S
C5053 C5052 1.391 . S
C5054 H5044 0.950 . S
C5054 C5055 1.386 . S
C5054 C5056 1.391 . S
C5055 C5054 1.386 . S
C5055 C5059 1.393 . S
C5056 H5045 0.950 . S
C5056 C5054 1.391 . S
C5056 C5057 1.400 . S
C5057 C5051 1.491 . S
C5057 C5056 1.400 . S
C5057 C5058 1.398 . S
C5058 H5046 0.950 . S
C5058 C5057 1.398 . S
C5058 C5059 1.391 . S
C5059 H5047 0.950 . S
C5059 C5055 1.393 . S
C5059 C5058 1.391 . S
H5060 C5068 0.950 . S
H5061 C5073 0.950 . S
H5062 C5070 0.950 . S
H5063 C5072 0.950 . S
H5064 C5074 0.950 . S
H5065 C5076 0.950 . S
H5066 C5078 0.950 . S
H5067 C5079 0.950 . S
C5068 H5060 0.950 . S
C5068 C5069 1.386 . S
C5068 C5070 1.391 . S
C5069 C5068 1.386 . S
C5069 C5073 1.393 . S
C5070 H5062 0.950 . S
C5070 C5068 1.391 . S
C5070 C5071 1.400 . S
C5071 C5070 1.400 . S
C5071 C5072 1.398 . S
C5071 C5077 1.491 . S
C5072 H5063 0.950 . S
C5072 C5071 1.398 . S
C5072 C5073 1.391 . S
C5073 H5061 0.950 . S
C5073 C5069 1.393 . S
C5073 C5072 1.391 . S
C5074 H5064 0.950 . S
C5074 C5075 1.386 . S
C5074 C5076 1.391 . S
C5075 C5074 1.386 . S
C5075 C5079 1.393 . S
C5076 H5065 0.950 . S
C5076 C5074 1.391 . S
C5076 C5077 1.400 . S
C5077 C5071 1.491 . S
C5077 C5076 1.400 . S
C5077 C5078 1.398 . S
C5078 H5066 0.950 . S
C5078 C5077 1.398 . S
C5078 C5079 1.391 . S
C5079 H5067 0.950 . S
C5079 C5075 1.393 . S
C5079 C5078 1.391 . S
H5080 C5088 0.950 . S
H5081 C5093 0.950 . S
H5082 C5090 0.950 . S
H5083 C5092 0.950 . S
H5084 C5094 0.950 . S
H5085 C5096 0.950 . S
H5086 C5098 0.950 . S
H5087 C5099 0.950 . S
C5088 H5080 0.950 . S
C5088 C5089 1.386 . S
C5088 C5090 1.391 . S
C5089 C5088 1.386 . S
C5089 C5093 1.393 . S
C5090 H5082 0.950 . S
C5090 C5088 1.391 . S
C5090 C5091 1.400 . S
C5091 C5090 1.400 . S
C5091 C5092 1.398 . S
C5091 C5097 1.491 . S
C5092 H5083 0.950 . S
C5092 C5091 1.398 . S
C5092 C5093 1.391 . S
C5093 H5081 0.950 . S
C5093 C5089 1.393 . S
C5093 C5092 1.391 . S
C5094 H5084 0.950 . S
C5094 C5095 1.386 . S
C5094 C5096 1.391 . S
C5095 C5094 1.386 . S
C5095 C5099 1.393 . S
C5096 H5085 0.950 . S
C5096 C5094 1.391 . S
C5096 C5097 1.400 . S
C5097 C5091 1.491 . S
C5097 C5096 1.400 . S
C5097 C5098 1.398 . S
C5098 H5086 0.950 . S
C5098 C5097 1.398 . S
C5098 C5099 1.391 . S
C5099 H5087 0.950 . S
C5099 C5095 1.393 . S
C5099 C5098 1.391 . S
H5100 C5108 0.950 . S
H5101 C5113 0.950 . S
H5102 C5110 0.950 . S
H5103 C5112 0.950 . S
H5104 C5114 0.950 . S
H5105 C5116 0.950 . S
H5106 C5118 0.950 . S
H5107 C5119 0.950 . S
C5108 H5100 0.950 . S
C5108 C5109 1.386 . S
C5108 C5110 1.391 . S
C5109 C5108 1.386 . S
C5109 C5113 1.393 . S
C5110 H5102 0.950 . S
C5110 C5108 1.391 . S
C5110 C5111 1.400 . S
C5111 C5110 1.400 . S
C5111 C5112 1.398 . S
C5111 C5117 1.491 . S
C5112 H5103 0.950 . S
C5112 C5111 1.398 . S
C5112 C5113 1.391 . S
C5113 H5101 0.950 . S
C5113 C5109 1.393 . S
C5113 C5112 1.391 . S
C5114 H5104 0.950 . S
C5114 C5115 1.386 . S
C5114 C5116 1.391 . S
C5115 C5114 1.386 . S
C5115 C5119 1.393 . S
C5116 H5105 0.950 . S
C5116 C5114 1.391 . S
C5116 C5117 1.400 . S
C5117 C5111 1.491 . S
C5117 C5116 1.400 . S
C5117 C5118 1.398 . S
C5118 H5106 0.950 . S
C5118 C5117 1.398 . S
C5118 C5119 1.391 . S
C5119 H5107 0.950 . S
C5119 C5115 1.393 . S
C5119 C5118 1.391 . S
H5120 C5128 0.950 . S
H5121 C5133 0.950 . S
H5122 C5130 0.950 . S
H5123 C5132 0.950 . S
H5124 C5134 0.950 . S
H5125 C5136 0.950 . S
H5126 C5138 0.950 . S
H5127 C5139 0.950 . S
C5128 H5120 0.950 . S
C5128 C5129 1.386 . S
C5128 C5130 1.391 . S
C5129 C5128 1.386 . S
C5129 C5133 1.393 . S
C5130 H5122 0.950 . S
C5130 C5128 1.391 . S
C5130 C5131 1.400 . S
C5131 C5130 1.400 . S
C5131 C5132 1.398 . S
C5131 C5137 1.491 . S
C5132 H5123 0.950 . S
C5132 C5131 1.398 . S
C5132 C5133 1.391 . S
C5133 H5121 0.950 . S
C5133 C5129 1.393 . S
C5133 C5132 1.391 . S
C5134 H5124 0.950 . S
C5134 C5135 1.386 . S
C5134 C5136 1.391 . S
C5135 C5134 1.386 . S
C5135 C5139 1.393 . S
C5136 H5125 0.950 . S
C5136 C5134 1.391 . S
C5136 C5137 1.400 . S
C5137 C5131 1.491 . S
C5137 C5136 1.400 . S
C5137 C5138 1.398 . S
C5138 H5126 0.950 . S
C5138 C5137 1.398 . S
C5138 C5139 1.391 . S
C5139 H5127 0.950 . S
C5139 C5135 1.393 . S
C5139 C5138 1.391 . S
H5140 C5148 0.950 . S
H5141 C5153 0.950 . S
H5142 C5150 0.950 . S
H5143 C5152 0.950 . S
H5144 C5154 0.950 . S
H5145 C5156 0.950 . S
H5146 C5158 0.950 . S
H5147 C5159 0.950 . S
C5148 H5140 0.950 . S
C5148 C5149 1.386 . S
C5148 C5150 1.391 . S
C5149 C5148 1.386 . S
C5149 C5153 1.393 . S
C5150 H5142 0.950 . S
C5150 C5148 1.391 . S
C5150 C5151 1.400 . S
C5151 C5150 1.400 . S
C5151 C5152 1.398 . S
C5151 C5157 1.491 . S
C5152 H5143 0.950 . S
C5152 C5151 1.398 . S
C5152 C5153 1.391 . S
C5153 H5141 0.950 . S
C5153 C5149 1.393 . S
C5153 C5152 1.391 . S
C5154 H5144 0.950 . S
C5154 C5155 1.386 . S
C5154 C5156 1.391 . S
C5155 C5154 1.386 . S
C5155 C5159 1.393 . S
C5156 H5145 0.950 . S
C5156 C5154 1.391 . S
C5156 C5157 1.400 . S
C5157 C5151 1.491 . S
C5157 C5156 1.400 . S
C5157 C5158 1.398 . S
C5158 H5146 0.950 . S
C5158 C5157 1.398 . S
C5158 C5159 1.391 . S
C5159 H5147 0.950 . S
C5159 C5155 1.393 . S
C5159 C5158 1.391 . S
H5160 C5168 0.950 . S
H5161 C5173 0.950 . S
H5162 C5170 0.950 . S
H5163 C5172 0.950 . S
H5164 C5174 0.950 . S
H5165 C5176 0.950 . S
H5166 C5178 0.950 . S
H5167 C5179 0.950 . S
C5168 H5160 0.950 . S
C5168 C5169 1.386 . S
C5168 C5170 1.391 . S
C5169 C5168 1.386 . S
C5169 C5173 1.393 . S
C5170 H5162 0.950 . S
C5170 C5168 1.391 . S
C5170 C5171 1.400 . S
C5171 C5170 1.400 . S
C5171 C5172 1.398 . S
C5171 C5177 1.491 . S
C5172 H5163 0.950 . S
C5172 C5171 1.398 . S
C5172 C5173 1.391 . S
C5173 H5161 0.950 . S
C5173 C5169 1.393 . S
C5173 C5172 1.391 . S
C5174 H5164 0.950 . S
C5174 C5175 1.386 . S
C5174 C5176 1.391 . S
C5175 C5174 1.386 . S
C5175 C5179 1.393 . S
C5176 H5165 0.950 . S
C5176 C5174 1.391 . S
C5176 C5177 1.400 . S
C5177 C5171 1.491 . S
C5177 C5176 1.400 . S
C5177 C5178 1.398 . S
C5178 H5166 0.950 . S
C5178 C5177 1.398 . S
C5178 C5179 1.391 . S
C5179 H5167 0.950 . S
C5179 C5175 1.393 . S
C5179 C5178 1.391 . S
H5180 C5188 0.950 . S
H5181 C5193 0.950 . S
H5182 C5190 0.950 . S
H5183 C5192 0.950 . S
H5184 C5194 0.950 . S
H5185 C5196 0.950 . S
H5186 C5198 0.950 . S
H5187 C5199 0.950 . S
C5188 H5180 0.950 . S
C5188 C5189 1.386 . S
C5188 C5190 1.391 . S
C5189 C5188 1.386 . S
C5189 C5193 1.393 . S
C5190 H5182 0.950 . S
C5190 C5188 1.391 . S
C5190 C5191 1.400 . S
C5191 C5190 1.400 . S
C5191 C5192 1.398 . S
C5191 C5197 1.491 . S
C5192 H5183 0.950 . S
C5192 C5191 1.398 . S
C5192 C5193 1.391 . S
C5193 H5181 0.950 . S
C5193 C5189 1.393 . S
C5193 C5192 1.391 . S
C5194 H5184 0.950 . S
C5194 C5195 1.386 . S
C5194 C5196 1.391 . S
C5195 C5194 1.386 . S
C5195 C5199 1.393 . S
C5196 H5185 0.950 . S
C5196 C5194 1.391 . S
C5196 C5197 1.400 . S
C5197 C5191 1.491 . S
C5197 C5196 1.400 . S
C5197 C5198 1.398 . S
C5198 H5186 0.950 . S
C5198 C5197 1.398 . S
C5198 C5199 1.391 . S
C5199 H5187 0.950 . S
C5199 C5195 1.393 . S
C5199 C5198 1.391 . S
H5200 C5208 0.950 . S
H5201 C5213 0.950 . S
H5202 C5210 0.950 . S
H5203 C5212 0.950 . S
H5204 C5214 0.950 . S
H5205 C5216 0.950 . S
H5206 C5218 0.950 . S
H5207 C5219 0.950 . S
C5208 H5200 0.950 . S
C5208 C5209 1.386 . S
C5208 C5210 1.391 . S
C5209 C5208 1.386 . S
C5209 C5213 1.393 . S
C5210 H5202 0.950 . S
C5210 C5208 1.391 . S
C5210 C5211 1.400 . S
C5211 C5210 1.400 . S
C5211 C5212 1.398 . S
C5211 C5217 1.491 . S
C5212 H5203 0.950 . S
C5212 C5211 1.398 . S
C5212 C5213 1.391 . S
C5213 H5201 0.950 . S
C5213 C5209 1.393 . S
C5213 C5212 1.391 . S
C5214 H5204 0.950 . S
C5214 C5215 1.386 . S
C5214 C5216 1.391 . S
C5215 C5214 1.386 . S
C5215 C5219 1.393 . S
C5216 H5205 0.950 . S
C5216 C5214 1.391 . S
C5216 C5217 1.400 . S
C5217 C5211 1.491 . S
C5217 C5216 1.400 . S
C5217 C5218 1.398 . S
C5218 H5206 0.950 . S
C5218 C5217 1.398 . S
C5218 C5219 1.391 . S
C5219 H5207 0.950 . S
C5219 C5215 1.393 . S
C5219 C5218 1.391 . S
H5220 C5228 0.950 . S
H5221 C5233 0.950 . S
H5222 C5230 0.950 . S
H5223 C5232 0.950 . S
H5224 C5234 0.950 . S
H5225 C5236 0.950 . S
H5226 C5238 0.950 . S
H5227 C5239 0.950 . S
C5228 H5220 0.950 . S
C5228 C5229 1.386 . S
C5228 C5230 1.391 . S
C5229 C5228 1.386 . S
C5229 C5233 1.393 . S
C5230 H5222 0.950 . S
C5230 C5228 1.391 . S
C5230 C5231 1.400 . S
C5231 C5230 1.400 . S
C5231 C5232 1.398 . S
C5231 C5237 1.491 . S
C5232 H5223 0.950 . S
C5232 C5231 1.398 . S
C5232 C5233 1.391 . S
C5233 H5221 0.950 . S
C5233 C5229 1.393 . S
C5233 C5232 1.391 . S
C5234 H5224 0.950 . S
C5234 C5235 1.386 . S
C5234 C5236 1.391 . S
C5235 C5234 1.386 . S
C5235 C5239 1.393 . S
C5236 H5225 0.950 . S
C5236 C5234 1.391 . S
C5236 C5237 1.400 . S
C5237 C5231 1.491 . S
C5237 C5236 1.400 . S
C5237 C5238 1.398 . S
C5238 H5226 0.950 . S
C5238 C5237 1.398 . S
C5238 C5239 1.391 . S
C5239 H5227 0.950 . S
C5239 C5235 1.393 . S
C5239 C5238 1.391 . S
H5240 C5248 0.950 . S
H5241 C5253 0.950 . S
H5242 C5250 0.950 . S
H5243 C5252 0.950 . S
H5244 C5254 0.950 . S
H5245 C5256 0.950 . S
H5246 C5258 0.950 . S
H5247 C5259 0.950 . S
C5248 H5240 0.950 . S
C5248 C5249 1.386 . S
C5248 C5250 1.391 . S
C5249 C5248 1.386 . S
C5249 C5253 1.393 . S
C5250 H5242 0.950 . S
C5250 C5248 1.391 . S
C5250 C5251 1.400 . S
C5251 C5250 1.400 . S
C5251 C5252 1.398 . S
C5251 C5257 1.491 . S
C5252 H5243 0.950 . S
C5252 C5251 1.398 . S
C5252 C5253 1.391 . S
C5253 H5241 0.950 . S
C5253 C5249 1.393 . S
C5253 C5252 1.391 . S
C5254 H5244 0.950 . S
C5254 C5255 1.386 . S
C5254 C5256 1.391 . S
C5255 C5254 1.386 . S
C5255 C5259 1.393 . S
C5256 H5245 0.950 . S
C5256 C5254 1.391 . S
C5256 C5257 1.400 . S
C5257 C5251 1.491 . S
C5257 C5256 1.400 . S
C5257 C5258 1.398 . S
C5258 H5246 0.950 . S
C5258 C5257 1.398 . S
C5258 C5259 1.391 . S
C5259 H5247 0.950 . S
C5259 C5255 1.393 . S
C5259 C5258 1.391 . S
H5260 C5268 0.950 . S
H5261 C5273 0.950 . S
H5262 C5270 0.950 . S
H5263 C5272 0.950 . S
H5264 C5274 0.950 . S
H5265 C5276 0.950 . S
H5266 C5278 0.950 . S
H5267 C5279 0.950 . S
C5268 H5260 0.950 . S
C5268 C5269 1.386 . S
C5268 C5270 1.391 . S
C5269 C5268 1.386 . S
C5269 C5273 1.393 . S
C5270 H5262 0.950 . S
C5270 C5268 1.391 . S
C5270 C5271 1.400 . S
C5271 C5270 1.400 . S
C5271 C5272 1.398 . S
C5271 C5277 1.491 . S
C5272 H5263 0.950 . S
C5272 C5271 1.398 . S
C5272 C5273 1.391 . S
C5273 H5261 0.950 . S
C5273 C5269 1.393 . S
C5273 C5272 1.391 . S
C5274 H5264 0.950 . S
C5274 C5275 1.386 . S
C5274 C5276 1.391 . S
C5275 C5274 1.386 . S
C5275 C5279 1.393 . S
C5276 H5265 0.950 . S
C5276 C5274 1.391 . S
C5276 C5277 1.400 . S
C5277 C5271 1.491 . S
C5277 C5276 1.400 . S
C5277 C5278 1.398 . S
C5278 H5266 0.950 . S
C5278 C5277 1.398 . S
C5278 C5279 1.391 . S
C5279 H5267 0.950 . S
C5279 C5275 1.393 . S
C5279 C5278 1.391 . S
H5280 C5288 0.950 . S
H5281 C5293 0.950 . S
H5282 C5290 0.950 . S
H5283 C5292 0.950 . S
H5284 C5294 0.950 . S
H5285 C5296 0.950 . S
H5286 C5298 0.950 . S
H5287 C5299 0.950 . S
C5288 H5280 0.950 . S
C5288 C5289 1.386 . S
C5288 C5290 1.391 . S
C5289 C5288 1.386 . S
C5289 C5293 1.393 . S
C5290 H5282 0.950 . S
C5290 C5288 1.391 . S
C5290 C5291 1.400 . S
C5291 C5290 1.400 . S
C5291 C5292 1.398 . S
C5291 C5297 1.491 . S
C5292 H5283 0.950 . S
C5292 C5291 1.398 . S
C5292 C5293 1.391 . S
C5293 H5281 0.950 . S
C5293 C5289 1.393 . S
C5293 C5292 1.391 . S
C5294 H5284 0.950 . S
C5294 C5295 1.386 . S
C5294 C5296 1.391 . S
C5295 C5294 1.386 . S
C5295 C5299 1.393 . S
C5296 H5285 0.950 . S
C5296 C5294 1.391 . S
C5296 C5297 1.400 . S
C5297 C5291 1.491 . S
C5297 C5296 1.400 . S
C5297 C5298 1.398 . S
C5298 H5286 0.950 . S
C5298 C5297 1.398 . S
C5298 C5299 1.391 . S
C5299 H5287 0.950 . S
C5299 C5295 1.393 . S
C5299 C5298 1.391 . S
H5300 C5308 0.950 . S
H5301 C5313 0.950 . S
H5302 C5310 0.950 . S
H5303 C5312 0.950 . S
H5304 C5314 0.950 . S
H5305 C5316 0.950 . S
H5306 C5318 0.950 . S
H5307 C5319 0.950 . S
C5308 H5300 0.950 . S
C5308 C5309 1.386 . S
C5308 C5310 1.391 . S
C5309 C5308 1.386 . S
C5309 C5313 1.393 . S
C5310 H5302 0.950 . S
C5310 C5308 1.391 . S
C5310 C5311 1.400 . S
C5311 C5310 1.400 . S
C5311 C5312 1.398 . S
C5311 C5317 1.491 . S
C5312 H5303 0.950 . S
C5312 C5311 1.398 . S
C5312 C5313 1.391 . S
C5313 H5301 0.950 . S
C5313 C5309 1.393 . S
C5313 C5312 1.391 . S
C5314 H5304 0.950 . S
C5314 C5315 1.386 . S
C5314 C5316 1.391 . S
C5315 C5314 1.386 . S
C5315 C5319 1.393 . S
C5316 H5305 0.950 . S
C5316 C5314 1.391 . S
C5316 C5317 1.400 . S
C5317 C5311 1.491 . S
C5317 C5316 1.400 . S
C5317 C5318 1.398 . S
C5318 H5306 0.950 . S
C5318 C5317 1.398 . S
C5318 C5319 1.391 . S
C5319 H5307 0.950 . S
C5319 C5315 1.393 . S
C5319 C5318 1.391 . S
H5320 C5328 0.950 . S
H5321 C5333 0.950 . S
H5322 C5330 0.950 . S
H5323 C5332 0.950 . S
H5324 C5334 0.950 . S
H5325 C5336 0.950 . S
H5326 C5338 0.950 . S
H5327 C5339 0.950 . S
C5328 H5320 0.950 . S
C5328 C5329 1.386 . S
C5328 C5330 1.391 . S
C5329 C5328 1.386 . S
C5329 C5333 1.393 . S
C5330 H5322 0.950 . S
C5330 C5328 1.391 . S
C5330 C5331 1.400 . S
C5331 C5330 1.400 . S
C5331 C5332 1.398 . S
C5331 C5337 1.491 . S
C5332 H5323 0.950 . S
C5332 C5331 1.398 . S
C5332 C5333 1.391 . S
C5333 H5321 0.950 . S
C5333 C5329 1.393 . S
C5333 C5332 1.391 . S
C5334 H5324 0.950 . S
C5334 C5335 1.386 . S
C5334 C5336 1.391 . S
C5335 C5334 1.386 . S
C5335 C5339 1.393 . S
C5336 H5325 0.950 . S
C5336 C5334 1.391 . S
C5336 C5337 1.400 . S
C5337 C5331 1.491 . S
C5337 C5336 1.400 . S
C5337 C5338 1.398 . S
C5338 H5326 0.950 . S
C5338 C5337 1.398 . S
C5338 C5339 1.391 . S
C5339 H5327 0.950 . S
C5339 C5335 1.393 . S
C5339 C5338 1.391 . S
H5340 C5348 0.950 . S
H5341 C5353 0.950 . S
H5342 C5350 0.950 . S
H5343 C5352 0.950 . S
H5344 C5354 0.950 . S
H5345 C5356 0.950 . S
H5346 C5358 0.950 . S
H5347 C5359 0.950 . S
C5348 H5340 0.950 . S
C5348 C5349 1.386 . S
C5348 C5350 1.391 . S
C5349 C5348 1.386 . S
C5349 C5353 1.393 . S
C5350 H5342 0.950 . S
C5350 C5348 1.391 . S
C5350 C5351 1.400 . S
C5351 C5350 1.400 . S
C5351 C5352 1.398 . S
C5351 C5357 1.491 . S
C5352 H5343 0.950 . S
C5352 C5351 1.398 . S
C5352 C5353 1.391 . S
C5353 H5341 0.950 . S
C5353 C5349 1.393 . S
C5353 C5352 1.391 . S
C5354 H5344 0.950 . S
C5354 C5355 1.386 . S
C5354 C5356 1.391 . S
C5355 C5354 1.386 . S
C5355 C5359 1.393 . S
C5356 H5345 0.950 . S
C5356 C5354 1.391 . S
C5356 C5357 1.400 . S
C5357 C5351 1.491 . S
C5357 C5356 1.400 . S
C5357 C5358 1.398 . S
C5358 H5346 0.950 . S
C5358 C5357 1.398 . S
C5358 C5359 1.391 . S
C5359 H5347 0.950 . S
C5359 C5355 1.393 . S
C5359 C5358 1.391 . S
H5360 C5368 0.950 . S
H5361 C5373 0.950 . S
H5362 C5370 0.950 . S
H5363 C5372 0.950 . S
H5364 C5374 0.950 . S
H5365 C5376 0.950 . S
H5366 C5378 0.950 . S
H5367 C5379 0.950 . S
C5368 H5360 0.950 . S
C5368 C5369 1.386 . S
C5368 C5370 1.391 . S
C5369 C5368 1.386 . S
C5369 C5373 1.393 . S
C5370 H5362 0.950 . S
C5370 C5368 1.391 . S
C5370 C5371 1.400 . S
C5371 C5370 1.400 . S
C5371 C5372 1.398 . S
C5371 C5377 1.491 . S
C5372 H5363 0.950 . S
C5372 C5371 1.398 . S
C5372 C5373 1.391 . S
C5373 H5361 0.950 . S
C5373 C5369 1.393 . S
C5373 C5372 1.391 . S
C5374 H5364 0.950 . S
C5374 C5375 1.386 . S
C5374 C5376 1.391 . S
C5375 C5374 1.386 . S
C5375 C5379 1.393 . S
C5376 H5365 0.950 . S
C5376 C5374 1.391 . S
C5376 C5377 1.400 . S
C5377 C5371 1.491 . S
C5377 C5376 1.400 . S
C5377 C5378 1.398 . S
C5378 H5366 0.950 . S
C5378 C5377 1.398 . S
C5378 C5379 1.391 . S
C5379 H5367 0.950 . S
C5379 C5375 1.393 . S
C5379 C5378 1.391 . S
H5380 C5388 0.950 . S
H5381 C5393 0.950 . S
H5382 C5390 0.950 . S
H5383 C5392 0.950 . S
H5384 C5394 0.950 . S
H5385 C5396 0.950 . S
H5386 C5398 0.950 . S
H5387 C5399 0.950 . S
C5388 H5380 0.950 . S
C5388 C5389 1.386 . S
C5388 C5390 1.391 . S
C5389 C5388 1.386 . S
C5389 C5393 1.393 . S
C5390 H5382 0.950 . S
C5390 C5388 1.391 . S
C5390 C5391 1.400 . S
C5391 C5390 1.400 . S
C5391 C5392 1.398 . S
C5391 C5397 1.491 . S
C5392 H5383 0.950 . S
C5392 C5391 1.398 . S
C5392 C5393 1.391 . S
C5393 H5381 0.950 . S
C5393 C5389 1.393 . S
C5393 C5392 1.391 . S
C5394 H5384 0.950 . S
C5394 C5395 1.386 . S
C5394 C5396 1.391 . S
C5395 C5394 1.386 . S
C5395 C5399 1.393 . S
C5396 H5385 0.950 . S
C5396 C5394 1.391 . S
C5396 C5397 1.400 . S
C5397 C5391 1.491 . S
C5397 C5396 1.400 . S
C5397 C5398 1.398 . S
C5398 H5386 0.950 . S
C5398 C5397 1.398 . S
C5398 C5399 1.391 . S
C5399 H5387 0.950 . S
C5399 C5395 1.393 . S
C5399 C5398 1.391 . S
H5400 C5408 0.950 . S
H5401 C5413 0.950 . S
H5402 C5410 0.950 . S
H5403 C5412 0.950 . S
H5404 C5414 0.950 . S
H5405 C5416 0.950 . S
H5406 C5418 0.950 . S
H5407 C5419 0.950 . S
C5408 H5400 0.950 . S
C5408 C5409 1.386 . S
C5408 C5410 1.391 . S
C5409 C5408 1.386 . S
C5409 C5413 1.393 . S
C5410 H5402 0.950 . S
C5410 C5408 1.391 . S
C5410 C5411 1.400 . S
C5411 C5410 1.400 . S
C5411 C5412 1.398 . S
C5411 C5417 1.491 . S
C5412 H5403 0.950 . S
C5412 C5411 1.398 . S
C5412 C5413 1.391 . S
C5413 H5401 0.950 . S
C5413 C5409 1.393 . S
C5413 C5412 1.391 . S
C5414 H5404 0.950 . S
C5414 C5415 1.386 . S
C5414 C5416 1.391 . S
C5415 C5414 1.386 . S
C5415 C5419 1.393 . S
C5416 H5405 0.950 . S
C5416 C5414 1.391 . S
C5416 C5417 1.400 . S
C5417 C5411 1.491 . S
C5417 C5416 1.400 . S
C5417 C5418 1.398 . S
C5418 H5406 0.950 . S
C5418 C5417 1.398 . S
C5418 C5419 1.391 . S
C5419 H5407 0.950 . S
C5419 C5415 1.393 . S
C5419 C5418 1.391 . S
H5420 C5428 0.950 . S
H5421 C5433 0.950 . S
H5422 C5430 0.950 . S
H5423 C5432 0.950 . S
H5424 C5434 0.950 . S
H5425 C5436 0.950 . S
H5426 C5438 0.950 . S
H5427 C5439 0.950 . S
C5428 H5420 0.950 . S
C5428 C5429 1.386 . S
C5428 C5430 1.391 . S
C5429 C5428 1.386 . S
C5429 C5433 1.393 . S
C5430 H5422 0.950 . S
C5430 C5428 1.391 . S
C5430 C5431 1.400 . S
C5431 C5430 1.400 . S
C5431 C5432 1.398 . S
C5431 C5437 1.491 . S
C5432 H5423 0.950 . S
C5432 C5431 1.398 . S
C5432 C5433 1.391 . S
C5433 H5421 0.950 . S
C5433 C5429 1.393 . S
C5433 C5432 1.391 . S
C5434 H5424 0.950 . S
C5434 C5435 1.386 . S
C5434 C5436 1.391 . S
C5435 C5434 1.386 . S
C5435 C5439 1.393 . S
C5436 H5425 0.950 . S
C5436 C5434 1.391 . S
C5436 C5437 1.400 . S
C5437 C5431 1.491 . S
C5437 C5436 1.400 . S
C5437 C5438 1.398 . S
C5438 H5426 0.950 . S
C5438 C5437 1.398 . S
C5438 C5439 1.391 . S
C5439 H5427 0.950 . S
C5439 C5435 1.393 . S
C5439 C5438 1.391 . S
H5440 C5448 0.950 . S
H5441 C5453 0.950 . S
H5442 C5450 0.950 . S
H5443 C5452 0.950 . S
H5444 C5454 0.950 . S
H5445 C5456 0.950 . S
H5446 C5458 0.950 . S
H5447 C5459 0.950 . S
C5448 H5440 0.950 . S
C5448 C5449 1.386 . S
C5448 C5450 1.391 . S
C5449 C5448 1.386 . S
C5449 C5453 1.393 . S
C5450 H5442 0.950 . S
C5450 C5448 1.391 . S
C5450 C5451 1.400 . S
C5451 C5450 1.400 . S
C5451 C5452 1.398 . S
C5451 C5457 1.491 . S
C5452 H5443 0.950 . S
C5452 C5451 1.398 . S
C5452 C5453 1.391 . S
C5453 H5441 0.950 . S
C5453 C5449 1.393 . S
C5453 C5452 1.391 . S
C5454 H5444 0.950 . S
C5454 C5455 1.386 . S
C5454 C5456 1.391 . S
C5455 C5454 1.386 . S
C5455 C5459 1.393 . S
C5456 H5445 0.950 . S
C5456 C5454 1.391 . S
C5456 C5457 1.400 . S
C5457 C5451 1.491 . S
C5457 C5456 1.400 . S
C5457 C5458 1.398 . S
C5458 H5446 0.950 . S
C5458 C5457 1.398 . S
C5458 C5459 1.391 . S
C5459 H5447 0.950 . S
C5459 C5455 1.393 . S
C5459 C5458 1.391 . S
H5460 C5468 0.950 . S
H5461 C5473 0.950 . S
H5462 C5470 0.950 . S
H5463 C5472 0.950 . S
H5464 C5474 0.950 . S
H5465 C5476 0.950 . S
H5466 C5478 0.950 . S
H5467 C5479 0.950 . S
C5468 H5460 0.950 . S
C5468 C5469 1.386 . S
C5468 C5470 1.391 . S
C5469 C5468 1.386 . S
C5469 C5473 1.393 . S
C5470 H5462 0.950 . S
C5470 C5468 1.391 . S
C5470 C5471 1.400 . S
C5471 C5470 1.400 . S
C5471 C5472 1.398 . S
C5471 C5477 1.491 . S
C5472 H5463 0.950 . S
C5472 C5471 1.398 . S
C5472 C5473 1.391 . S
C5473 H5461 0.950 . S
C5473 C5469 1.393 . S
C5473 C5472 1.391 . S
C5474 H5464 0.950 . S
C5474 C5475 1.386 . S
C5474 C5476 1.391 . S
C5475 C5474 1.386 . S
C5475 C5479 1.393 . S
C5476 H5465 0.950 . S
C5476 C5474 1.391 . S
C5476 C5477 1.400 . S
C5477 C5471 1.491 . S
C5477 C5476 1.400 . S
C5477 C5478 1.398 . S
C5478 H5466 0.950 . S
C5478 C5477 1.398 . S
C5478 C5479 1.391 . S
C5479 H5467 0.950 . S
C5479 C5475 1.393 . S
C5479 C5478 1.391 . S
H5480 C5488 0.950 . S
H5481 C5493 0.950 . S
H5482 C5490 0.950 . S
H5483 C5492 0.950 . S
H5484 C5494 0.950 . S
H5485 C5496 0.950 . S
H5486 C5498 0.950 . S
H5487 C5499 0.950 . S
C5488 H5480 0.950 . S
C5488 C5489 1.386 . S
C5488 C5490 1.391 . S
C5489 C5488 1.386 . S
C5489 C5493 1.393 . S
C5490 H5482 0.950 . S
C5490 C5488 1.391 . S
C5490 C5491 1.400 . S
C5491 C5490 1.400 . S
C5491 C5492 1.398 . S
C5491 C5497 1.491 . S
C5492 H5483 0.950 . S
C5492 C5491 1.398 . S
C5492 C5493 1.391 . S
C5493 H5481 0.950 . S
C5493 C5489 1.393 . S
C5493 C5492 1.391 . S
C5494 H5484 0.950 . S
C5494 C5495 1.386 . S
C5494 C5496 1.391 . S
C5495 C5494 1.386 . S
C5495 C5499 1.393 . S
C5496 H5485 0.950 . S
C5496 C5494 1.391 . S
C5496 C5497 1.400 . S
C5497 C5491 1.491 . S
C5497 C5496 1.400 . S
C5497 C5498 1.398 . S
C5498 H5486 0.950 . S
C5498 C5497 1.398 . S
C5498 C5499 1.391 . S
C5499 H5487 0.950 . S
C5499 C5495 1.393 . S
C5499 C5498 1.391 . S
H5500 C5508 0.950 . S
H5501 C5513 0.950 . S
H5502 C5510 0.950 . S
H5503 C5512 0.950 . S
H5504 C5514 0.950 . S
H5505 C5516 0.950 . S
H5506 C5518 0.950 . S
H5507 C5519 0.950 . S
C5508 H5500 0.950 . S
C5508 C5509 1.386 . S
C5508 C5510 1.391 . S
C5509 C5508 1.386 . S
C5509 C5513 1.393 . S
C5510 H5502 0.950 . S
C5510 C5508 1.391 . S
C5510 C5511 1.400 . S
C5511 C5510 1.400 . S
C5511 C5512 1.398 . S
C5511 C5517 1.491 . S
C5512 H5503 0.950 . S
C5512 C5511 1.398 . S
C5512 C5513 1.391 . S
C5513 H5501 0.950 . S
C5513 C5509 1.393 . S
C5513 C5512 1.391 . S
C5514 H5504 0.950 . S
C5514 C5515 1.386 . S
C5514 C5516 1.391 . S
C5515 C5514 1.386 . S
C5515 C5519 1.393 . S
C5516 H5505 0.950 . S
C5516 C5514 1.391 . S
C5516 C5517 1.400 . S
C5517 C5511 1.491 . S
C5517 C5516 1.400 . S
C5517 C5518 1.398 . S
C5518 H5506 0.950 . S
C5518 C5517 1.398 . S
C5518 C5519 1.391 . S
C5519 H5507 0.950 . S
C5519 C5515 1.393 . S
C5519 C5518 1.391 . S
H5520 C5528 0.950 . S
H5521 C5533 0.950 . S
H5522 C5530 0.950 . S
H5523 C5532 0.950 . S
H5524 C5534 0.950 . S
H5525 C5536 0.950 . S
H5526 C5538 0.950 . S
H5527 C5539 0.950 . S
C5528 H5520 0.950 . S
C5528 C5529 1.386 . S
C5528 C5530 1.391 . S
C5529 C5528 1.386 . S
C5529 C5533 1.393 . S
C5530 H5522 0.950 . S
C5530 C5528 1.391 . S
C5530 C5531 1.400 . S
C5531 C5530 1.400 . S
C5531 C5532 1.398 . S
C5531 C5537 1.491 . S
C5532 H5523 0.950 . S
C5532 C5531 1.398 . S
C5532 C5533 1.391 . S
C5533 H5521 0.950 . S
C5533 C5529 1.393 . S
C5533 C5532 1.391 . S
C5534 H5524 0.950 . S
C5534 C5535 1.386 . S
C5534 C5536 1.391 . S
C5535 C5534 1.386 . S
C5535 C5539 1.393 . S
C5536 H5525 0.950 . S
C5536 C5534 1.391 . S
C5536 C5537 1.400 . S
C5537 C5531 1.491 . S
C5537 C5536 1.400 . S
C5537 C5538 1.398 . S
C5538 H5526 0.950 . S
C5538 C5537 1.398 . S
C5538 C5539 1.391 . S
C5539 H5527 0.950 . S
C5539 C5535 1.393 . S
C5539 C5538 1.391 . S
H5540 C5548 0.950 . S
H5541 C5553 0.950 . S
H5542 C5550 0.950 . S
H5543 C5552 0.950 . S
H5544 C5554 0.950 . S
H5545 C5556 0.950 . S
H5546 C5558 0.950 . S
H5547 C5559 0.950 . S
C5548 H5540 0.950 . S
C5548 C5549 1.386 . S
C5548 C5550 1.391 . S
C5549 C5548 1.386 . S
C5549 C5553 1.393 . S
C5550 H5542 0.950 . S
C5550 C5548 1.391 . S
C5550 C5551 1.400 . S
C5551 C5550 1.400 . S
C5551 C5552 1.398 . S
C5551 C5557 1.491 . S
C5552 H5543 0.950 . S
C5552 C5551 1.398 . S
C5552 C5553 1.391 . S
C5553 H5541 0.950 . S
C5553 C5549 1.393 . S
C5553 C5552 1.391 . S
C5554 H5544 0.950 . S
C5554 C5555 1.386 . S
C5554 C5556 1.391 . S
C5555 C5554 1.386 . S
C5555 C5559 1.393 . S
C5556 H5545 0.950 . S
C5556 C5554 1.391 . S
C5556 C5557 1.400 . S
C5557 C5551 1.491 . S
C5557 C5556 1.400 . S
C5557 C5558 1.398 . S
C5558 H5546 0.950 . S
C5558 C5557 1.398 . S
C5558 C5559 1.391 . S
C5559 H5547 0.950 . S
C5559 C5555 1.393 . S
C5559 C5558 1.391 . S
H5560 C5568 0.950 . S
H5561 C5573 0.950 . S
H5562 C5570 0.950 . S
H5563 C5572 0.950 . S
H5564 C5574 0.950 . S
H5565 C5576 0.950 . S
H5566 C5578 0.950 . S
H5567 C5579 0.950 . S
C5568 H5560 0.950 . S
C5568 C5569 1.386 . S
C5568 C5570 1.391 . S
C5569 C5568 1.386 . S
C5569 C5573 1.393 . S
C5570 H5562 0.950 . S
C5570 C5568 1.391 . S
C5570 C5571 1.400 . S
C5571 C5570 1.400 . S
C5571 C5572 1.398 . S
C5571 C5577 1.491 . S
C5572 H5563 0.950 . S
C5572 C5571 1.398 . S
C5572 C5573 1.391 . S
C5573 H5561 0.950 . S
C5573 C5569 1.393 . S
C5573 C5572 1.391 . S
C5574 H5564 0.950 . S
C5574 C5575 1.386 . S
C5574 C5576 1.391 . S
C5575 C5574 1.386 . S
C5575 C5579 1.393 . S
C5576 H5565 0.950 . S
C5576 C5574 1.391 . S
C5576 C5577 1.400 . S
C5577 C5571 1.491 . S
C5577 C5576 1.400 . S
C5577 C5578 1.398 . S
C5578 H5566 0.950 . S
C5578 C5577 1.398 . S
C5578 C5579 1.391 . S
C5579 H5567 0.950 . S
C5579 C5575 1.393 . S
C5579 C5578 1.391 . S
H5580 C5588 0.950 . S
H5581 C5593 0.950 . S
H5582 C5590 0.950 . S
H5583 C5592 0.950 . S
H5584 C5594 0.950 . S
H5585 C5596 0.950 . S
H5586 C5598 0.950 . S
H5587 C5599 0.950 . S
C5588 H5580 0.950 . S
C5588 C5589 1.386 . S
C5588 C5590 1.391 . S
C5589 C5588 1.386 . S
C5589 C5593 1.393 . S
C5590 H5582 0.950 . S
C5590 C5588 1.391 . S
C5590 C5591 1.400 . S
C5591 C5590 1.400 . S
C5591 C5592 1.398 . S
C5591 C5597 1.491 . S
C5592 H5583 0.950 . S
C5592 C5591 1.398 . S
C5592 C5593 1.391 . S
C5593 H5581 0.950 . S
C5593 C5589 1.393 . S
C5593 C5592 1.391 . S
C5594 H5584 0.950 . S
C5594 C5595 1.386 . S
C5594 C5596 1.391 . S
C5595 C5594 1.386 . S
C5595 C5599 1.393 . S
C5596 H5585 0.950 . S
C5596 C5594 1.391 . S
C5596 C5597 1.400 . S
C5597 C5591 1.491 . S
C5597 C5596 1.400 . S
C5597 C5598 1.398 . S
C5598 H5586 0.950 . S
C5598 C5597 1.398 . S
C5598 C5599 1.391 . S
C5599 H5587 0.950 . S
C5599 C5595 1.393 . S
C5599 C5598 1.391 . S
H5600 C5608 0.950 . S
H5601 C5613 0.950 . S
H5602 C5610 0.950 . S
H5603 C5612 0.950 . S
H5604 C5614 0.950 . S
H5605 C5616 0.950 . S
H5606 C5618 0.950 . S
H5607 C5619 0.950 . S
C5608 H5600 0.950 . S
C5608 C5609 1.386 . S
C5608 C5610 1.391 . S
C5609 C5608 1.386 . S
C5609 C5613 1.393 . S
C5610 H5602 0.950 . S
C5610 C5608 1.391 . S
C5610 C5611 1.400 . S
C5611 C5610 1.400 . S
C5611 C5612 1.398 . S
C5611 C5617 1.491 . S
C5612 H5603 0.950 . S
C5612 C5611 1.398 . S
C5612 C5613 1.391 . S
C5613 H5601 0.950 . S
C5613 C5609 1.393 . S
C5613 C5612 1.391 . S
C5614 H5604 0.950 . S
C5614 C5615 1.386 . S
C5614 C5616 1.391 . S
C5615 C5614 1.386 . S
C5615 C5619 1.393 . S
C5616 H5605 0.950 . S
C5616 C5614 1.391 . S
C5616 C5617 1.400 . S
C5617 C5611 1.491 . S
C5617 C5616 1.400 . S
C5617 C5618 1.398 . S
C5618 H5606 0.950 . S
C5618 C5617 1.398 . S
C5618 C5619 1.391 . S
C5619 H5607 0.950 . S
C5619 C5615 1.393 . S
C5619 C5618 1.391 . S
H5620 C5628 0.950 . S
H5621 C5633 0.950 . S
H5622 C5630 0.950 . S
H5623 C5632 0.950 . S
H5624 C5634 0.950 . S
H5625 C5636 0.950 . S
H5626 C5638 0.950 . S
H5627 C5639 0.950 . S
C5628 H5620 0.950 . S
C5628 C5629 1.386 . S
C5628 C5630 1.391 . S
C5629 C5628 1.386 . S
C5629 C5633 1.393 . S
C5630 H5622 0.950 . S
C5630 C5628 1.391 . S
C5630 C5631 1.400 . S
C5631 C5630 1.400 . S
C5631 C5632 1.398 . S
C5631 C5637 1.491 . S
C5632 H5623 0.950 . S
C5632 C5631 1.398 . S
C5632 C5633 1.391 . S
C5633 H5621 0.950 . S
C5633 C5629 1.393 . S
C5633 C5632 1.391 . S
C5634 H5624 0.950 . S
C5634 C5635 1.386 . S
C5634 C5636 1.391 . S
C5635 C5634 1.386 . S
C5635 C5639 1.393 . S
C5636 H5625 0.950 . S
C5636 C5634 1.391 . S
C5636 C5637 1.400 . S
C5637 C5631 1.491 . S
C5637 C5636 1.400 . S
C5637 C5638 1.398 . S
C5638 H5626 0.950 . S
C5638 C5637 1.398 . S
C5638 C5639 1.391 . S
C5639 H5627 0.950 . S
C5639 C5635 1.393 . S
C5639 C5638 1.391 . S
H5640 C5648 0.950 . S
H5641 C5653 0.950 . S
H5642 C5650 0.950 . S
H5643 C5652 0.950 . S
H5644 C5654 0.950 . S
H5645 C5656 0.950 . S
H5646 C5658 0.950 . S
H5647 C5659 0.950 . S
C5648 H5640 0.950 . S
C5648 C5649 1.386 . S
C5648 C5650 1.391 . S
C5649 C5648 1.386 . S
C5649 C5653 1.393 . S
C5650 H5642 0.950 . S
C5650 C5648 1.391 . S
C5650 C5651 1.400 . S
C5651 C5650 1.400 . S
C5651 C5652 1.398 . S
C5651 C5657 1.491 . S
C5652 H5643 0.950 . S
C5652 C5651 1.398 . S
C5652 C5653 1.391 . S
C5653 H5641 0.950 . S
C5653 C5649 1.393 . S
C5653 C5652 1.391 . S
C5654 H5644 0.950 . S
C5654 C5655 1.386 . S
C5654 C5656 1.391 . S
C5655 C5654 1.386 . S
C5655 C5659 1.393 . S
C5656 H5645 0.950 . S
C5656 C5654 1.391 . S
C5656 C5657 1.400 . S
C5657 C5651 1.491 . S
C5657 C5656 1.400 . S
C5657 C5658 1.398 . S
C5658 H5646 0.950 . S
C5658 C5657 1.398 . S
C5658 C5659 1.391 . S
C5659 H5647 0.950 . S
C5659 C5655 1.393 . S
C5659 C5658 1.391 . S
H5660 C5668 0.950 . S
H5661 C5673 0.950 . S
H5662 C5670 0.950 . S
H5663 C5672 0.950 . S
H5664 C5674 0.950 . S
H5665 C5676 0.950 . S
H5666 C5678 0.950 . S
H5667 C5679 0.950 . S
C5668 H5660 0.950 . S
C5668 C5669 1.386 . S
C5668 C5670 1.391 . S
C5669 C5668 1.386 . S
C5669 C5673 1.393 . S
C5670 H5662 0.950 . S
C5670 C5668 1.391 . S
C5670 C5671 1.400 . S
C5671 C5670 1.400 . S
C5671 C5672 1.398 . S
C5671 C5677 1.491 . S
C5672 H5663 0.950 . S
C5672 C5671 1.398 . S
C5672 C5673 1.391 . S
C5673 H5661 0.950 . S
C5673 C5669 1.393 . S
C5673 C5672 1.391 . S
C5674 H5664 0.950 . S
C5674 C5675 1.386 . S
C5674 C5676 1.391 . S
C5675 C5674 1.386 . S
C5675 C5679 1.393 . S
C5676 H5665 0.950 . S
C5676 C5674 1.391 . S
C5676 C5677 1.400 . S
C5677 C5671 1.491 . S
C5677 C5676 1.400 . S
C5677 C5678 1.398 . S
C5678 H5666 0.950 . S
C5678 C5677 1.398 . S
C5678 C5679 1.391 . S
C5679 H5667 0.950 . S
C5679 C5675 1.393 . S
C5679 C5678 1.391 . S
H5680 C5688 0.950 . S
H5681 C5693 0.950 . S
H5682 C5690 0.950 . S
H5683 C5692 0.950 . S
H5684 C5694 0.950 . S
H5685 C5696 0.950 . S
H5686 C5698 0.950 . S
H5687 C5699 0.950 . S
C5688 H5680 0.950 . S
C5688 C5689 1.386 . S
C5688 C5690 1.391 . S
C5689 C5688 1.386 . S
C5689 C5693 1.393 . S
C5690 H5682 0.950 . S
C5690 C5688 1.391 . S
C5690 C5691 1.400 . S
C5691 C5690 1.400 . S
C5691 C5692 1.398 . S
C5691 C5697 1.491 . S
C5692 H5683 0.950 . S
C5692 C5691 1.398 . S
C5692 C5693 1.391 . S
C5693 H5681 0.950 . S
C5693 C5689 1.393 . S
C5693 C5692 1.391 . S
C5694 H5684 0.950 . S
C5694 C5695 1.386 . S
C5694 C5696 1.391 . S
C5695 C5694 1.386 . S
C5695 C5699 1.393 . S
C5696 H5685 0.950 . S
C5696 C5694 1.391 . S
C5696 C5697 1.400 . S
C5697 C5691 1.491 . S
C5697 C5696 1.400 . S
C5697 C5698 1.398 . S
C5698 H5686 0.950 . S
C5698 C5697 1.398 . S
C5698 C5699 1.391 . S
C5699 H5687 0.950 . S
C5699 C5695 1.393 . S
C5699 C5698 1.391 . S
H5700 C5708 0.950 . S
H5701 C5713 0.950 . S
H5702 C5710 0.950 . S
H5703 C5712 0.950 . S
H5704 C5714 0.950 . S
H5705 C5716 0.950 . S
H5706 C5718 0.950 . S
H5707 C5719 0.950 . S
C5708 H5700 0.950 . S
C5708 C5709 1.386 . S
C5708 C5710 1.391 . S
C5709 C5708 1.386 . S
C5709 C5713 1.393 . S
C5710 H5702 0.950 . S
C5710 C5708 1.391 . S
C5710 C5711 1.400 . S
C5711 C5710 1.400 . S
C5711 C5712 1.398 . S
C5711 C5717 1.491 . S
C5712 H5703 0.950 . S
C5712 C5711 1.398 . S
C5712 C5713 1.391 . S
C5713 H5701 0.950 . S
C5713 C5709 1.393 . S
C5713 C5712 1.391 . S
C5714 H5704 0.950 . S
C5714 C5715 1.386 . S
C5714 C5716 1.391 . S
C5715 C5714 1.386 . S
C5715 C5719 1.393 . S
C5716 H5705 0.950 . S
C5716 C5714 1.391 . S
C5716 C5717 1.400 . S
C5717 C5711 1.491 . S
C5717 C5716 1.400 . S
C5717 C5718 1.398 . S
C5718 H5706 0.950 . S
C5718 C5717 1.398 . S
C5718 C5719 1.391 . S
C5719 H5707 0.950 . S
C5719 C5715 1.393 . S
C5719 C5718 1.391 . S
H5720 C5728 0.950 . S
H5721 C5733 0.950 . S
H5722 C5730 0.950 . S
H5723 C5732 0.950 . S
H5724 C5734 0.950 . S
H5725 C5736 0.950 . S
H5726 C5738 0.950 . S
H5727 C5739 0.950 . S
C5728 H5720 0.950 . S
C5728 C5729 1.386 . S
C5728 C5730 1.391 . S
C5729 C5728 1.386 . S
C5729 C5733 1.393 . S
C5730 H5722 0.950 . S
C5730 C5728 1.391 . S
C5730 C5731 1.400 . S
C5731 C5730 1.400 . S
C5731 C5732 1.398 . S
C5731 C5737 1.491 . S
C5732 H5723 0.950 . S
C5732 C5731 1.398 . S
C5732 C5733 1.391 . S
C5733 H5721 0.950 . S
C5733 C5729 1.393 . S
C5733 C5732 1.391 . S
C5734 H5724 0.950 . S
C5734 C5735 1.386 . S
C5734 C5736 1.391 . S
C5735 C5734 1.386 . S
C5735 C5739 1.393 . S
C5736 H5725 0.950 . S
C5736 C5734 1.391 . S
C5736 C5737 1.400 . S
C5737 C5731 1.491 . S
C5737 C5736 1.400 . S
C5737 C5738 1.398 . S
C5738 H5726 0.950 . S
C5738 C5737 1.398 . S
C5738 C5739 1.391 . S
C5739 H5727 0.950 . S
C5739 C5735 1.393 . S
C5739 C5738 1.391 . S
H5740 C5748 0.950 . S
H5741 C5753 0.950 . S
H5742 C5750 0.950 . S
H5743 C5752 0.950 . S
H5744 C5754 0.950 . S
H5745 C5756 0.950 . S
H5746 C5758 0.950 . S
H5747 C5759 0.950 . S
C5748 H5740 0.950 . S
C5748 C5749 1.386 . S
C5748 C5750 1.391 . S
C5749 C5748 1.386 . S
C5749 C5753 1.393 . S
C5750 H5742 0.950 . S
C5750 C5748 1.391 . S
C5750 C5751 1.400 . S
C5751 C5750 1.400 . S
C5751 C5752 1.398 . S
C5751 C5757 1.491 . S
C5752 H5743 0.950 . S
C5752 C5751 1.398 . S
C5752 C5753 1.391 . S
C5753 H5741 0.950 . S
C5753 C5749 1.393 . S
C5753 C5752 1.391 . S
C5754 H5744 0.950 . S
C5754 C5755 1.386 . S
C5754 C5756 1.391 . S
C5755 C5754 1.386 . S
C5755 C5759 1.393 . S
C5756 H5745 0.950 . S
C5756 C5754 1.391 . S
C5756 C5757 1.400 . S
C5757 C5751 1.491 . S
C5757 C5756 1.400 . S
C5757 C5758 1.398 . S
C5758 H5746 0.950 . S
C5758 C5757 1.398 . S
C5758 C5759 1.391 . S
C5759 H5747 0.950 . S
C5759 C5755 1.393 . S
C5759 C5758 1.391 . S
H5760 C5768 0.950 . S
H5761 C5773 0.950 . S
H5762 C5770 0.950 . S
H5763 C5772 0.950 . S
H5764 C5774 0.950 . S
H5765 C5776 0.950 . S
H5766 C5778 0.950 . S
H5767 C5779 0.950 . S
C5768 H5760 0.950 . S
C5768 C5769 1.386 . S
C5768 C5770 1.391 . S
C5769 C5768 1.386 . S
C5769 C5773 1.393 . S
C5770 H5762 0.950 . S
C5770 C5768 1.391 . S
C5770 C5771 1.400 . S
C5771 C5770 1.400 . S
C5771 C5772 1.398 . S
C5771 C5777 1.491 1_655 S
C5772 H5763 0.950 . S
C5772 C5771 1.398 . S
C5772 C5773 1.391 . S
C5773 H5761 0.950 . S
C5773 C5769 1.393 . S
C5773 C5772 1.391 . S
C5774 H5764 0.950 . S
C5774 C5775 1.386 . S
C5774 C5776 1.391 . S
C5775 C5774 1.386 . S
C5775 C5779 1.393 . S
C5776 H5765 0.950 . S
C5776 C5774 1.391 . S
C5776 C5777 1.400 . S
C5777 C5771 1.491 1_455 S
C5777 C5776 1.400 . S
C5777 C5778 1.398 . S
C5778 H5766 0.950 . S
C5778 C5777 1.398 . S
C5778 C5779 1.391 . S
C5779 H5767 0.950 . S
C5779 C5775 1.393 . S
C5779 C5778 1.391 . S
H5780 C5788 0.950 . S
H5781 C5793 0.950 . S
H5782 C5790 0.950 . S
H5783 C5792 0.950 . S
H5784 C5794 0.950 . S
H5785 C5796 0.950 . S
H5786 C5798 0.950 . S
H5787 C5799 0.950 . S
C5788 H5780 0.950 . S
C5788 C5789 1.386 . S
C5788 C5790 1.391 . S
C5789 C5788 1.386 . S
C5789 C5793 1.393 . S
C5790 H5782 0.950 . S
C5790 C5788 1.391 . S
C5790 C5791 1.400 . S
C5791 C5790 1.400 . S
C5791 C5792 1.398 . S
C5791 C5797 1.491 1_565 S
C5792 H5783 0.950 . S
C5792 C5791 1.398 . S
C5792 C5793 1.391 . S
C5793 H5781 0.950 . S
C5793 C5789 1.393 . S
C5793 C5792 1.391 . S
C5794 H5784 0.950 . S
C5794 C5795 1.386 . S
C5794 C5796 1.391 . S
C5795 C5794 1.386 . S
C5795 C5799 1.393 . S
C5796 H5785 0.950 . S
C5796 C5794 1.391 . S
C5796 C5797 1.400 . S
C5797 C5791 1.491 1_545 S
C5797 C5796 1.400 . S
C5797 C5798 1.398 . S
C5798 H5786 0.950 . S
C5798 C5797 1.398 . S
C5798 C5799 1.391 . S
C5799 H5787 0.950 . S
C5799 C5795 1.393 . S
C5799 C5798 1.391 . S
H5800 C5808 0.950 . S
H5801 C5813 0.950 . S
H5802 C5810 0.950 . S
H5803 C5812 0.950 . S
H5804 C5814 0.950 . S
H5805 C5816 0.950 . S
H5806 C5818 0.950 . S
H5807 C5819 0.950 . S
C5808 H5800 0.950 . S
C5808 C5809 1.386 . S
C5808 C5810 1.391 . S
C5809 C5808 1.386 . S
C5809 C5813 1.393 . S
C5810 H5802 0.950 . S
C5810 C5808 1.391 . S
C5810 C5811 1.400 . S
C5811 C5810 1.400 . S
C5811 C5812 1.398 . S
C5811 C5817 1.491 1_455 S
C5812 H5803 0.950 . S
C5812 C5811 1.398 . S
C5812 C5813 1.391 . S
C5813 H5801 0.950 . S
C5813 C5809 1.393 . S
C5813 C5812 1.391 . S
C5814 H5804 0.950 . S
C5814 C5815 1.386 . S
C5814 C5816 1.391 . S
C5815 C5814 1.386 . S
C5815 C5819 1.393 . S
C5816 H5805 0.950 . S
C5816 C5814 1.391 . S
C5816 C5817 1.400 . S
C5817 C5811 1.491 1_655 S
C5817 C5816 1.400 . S
C5817 C5818 1.398 . S
C5818 H5806 0.950 . S
C5818 C5817 1.398 . S
C5818 C5819 1.391 . S
C5819 H5807 0.950 . S
C5819 C5815 1.393 . S
C5819 C5818 1.391 . S
H5820 C5828 0.950 . S
H5821 C5833 0.950 . S
H5822 C5830 0.950 . S
H5823 C5832 0.950 . S
H5824 C5834 0.950 . S
H5825 C5836 0.950 . S
H5826 C5838 0.950 . S
H5827 C5839 0.950 . S
C5828 H5820 0.950 . S
C5828 C5829 1.386 . S
C5828 C5830 1.391 . S
C5829 C5828 1.386 . S
C5829 C5833 1.393 . S
C5830 H5822 0.950 . S
C5830 C5828 1.391 . S
C5830 C5831 1.400 . S
C5831 C5830 1.400 . S
C5831 C5832 1.398 . S
C5831 C5837 1.491 1_545 S
C5832 H5823 0.950 . S
C5832 C5831 1.398 . S
C5832 C5833 1.391 . S
C5833 H5821 0.950 . S
C5833 C5829 1.393 . S
C5833 C5832 1.391 . S
C5834 H5824 0.950 . S
C5834 C5835 1.386 . S
C5834 C5836 1.391 . S
C5835 C5834 1.386 . S
C5835 C5839 1.393 . S
C5836 H5825 0.950 . S
C5836 C5834 1.391 . S
C5836 C5837 1.400 . S
C5837 C5831 1.491 1_565 S
C5837 C5836 1.400 . S
C5837 C5838 1.398 . S
C5838 H5826 0.950 . S
C5838 C5837 1.398 . S
C5838 C5839 1.391 . S
C5839 H5827 0.950 . S
C5839 C5835 1.393 . S
C5839 C5838 1.391 . S
H5840 C5848 0.950 . S
H5841 C5853 0.950 . S
H5842 C5850 0.950 . S
H5843 C5852 0.950 . S
H5844 C5854 0.950 . S
H5845 C5856 0.950 . S
H5846 C5858 0.950 . S
H5847 C5859 0.950 . S
C5848 H5840 0.950 . S
C5848 C5849 1.386 . S
C5848 C5850 1.391 . S
C5849 C5848 1.386 . S
C5849 C5853 1.393 . S
C5850 H5842 0.950 . S
C5850 C5848 1.391 . S
C5850 C5851 1.400 . S
C5851 C5850 1.400 . S
C5851 C5852 1.398 . S
C5851 C5857 1.491 1_655 S
C5852 H5843 0.950 . S
C5852 C5851 1.398 . S
C5852 C5853 1.391 . S
C5853 H5841 0.950 . S
C5853 C5849 1.393 . S
C5853 C5852 1.391 . S
C5854 H5844 0.950 . S
C5854 C5855 1.386 . S
C5854 C5856 1.391 . S
C5855 C5854 1.386 . S
C5855 C5859 1.393 . S
C5856 H5845 0.950 . S
C5856 C5854 1.391 . S
C5856 C5857 1.400 . S
C5857 C5851 1.491 1_455 S
C5857 C5856 1.400 . S
C5857 C5858 1.398 . S
C5858 H5846 0.950 . S
C5858 C5857 1.398 . S
C5858 C5859 1.391 . S
C5859 H5847 0.950 . S
C5859 C5855 1.393 . S
C5859 C5858 1.391 . S
H5860 C5868 0.950 . S
H5861 C5873 0.950 . S
H5862 C5870 0.950 . S
H5863 C5872 0.950 . S
H5864 C5874 0.950 . S
H5865 C5876 0.950 . S
H5866 C5878 0.950 . S
H5867 C5879 0.950 . S
C5868 H5860 0.950 . S
C5868 C5869 1.386 . S
C5868 C5870 1.391 . S
C5869 C5868 1.386 . S
C5869 C5873 1.393 . S
C5870 H5862 0.950 . S
C5870 C5868 1.391 . S
C5870 C5871 1.400 . S
C5871 C5870 1.400 . S
C5871 C5872 1.398 . S
C5871 C5877 1.491 1_545 S
C5872 H5863 0.950 . S
C5872 C5871 1.398 . S
C5872 C5873 1.391 . S
C5873 H5861 0.950 . S
C5873 C5869 1.393 . S
C5873 C5872 1.391 . S
C5874 H5864 0.950 . S
C5874 C5875 1.386 . S
C5874 C5876 1.391 . S
C5875 C5874 1.386 . S
C5875 C5879 1.393 . S
C5876 H5865 0.950 . S
C5876 C5874 1.391 . S
C5876 C5877 1.400 . S
C5877 C5871 1.491 1_565 S
C5877 C5876 1.400 . S
C5877 C5878 1.398 . S
C5878 H5866 0.950 . S
C5878 C5877 1.398 . S
C5878 C5879 1.391 . S
C5879 H5867 0.950 . S
C5879 C5875 1.393 . S
C5879 C5878 1.391 . S
H5880 C5888 0.950 . S
H5881 C5893 0.950 . S
H5882 C5890 0.950 . S
H5883 C5892 0.950 . S
H5884 C5894 0.950 . S
H5885 C5896 0.950 . S
H5886 C5898 0.950 . S
H5887 C5899 0.950 . S
C5888 H5880 0.950 . S
C5888 C5889 1.386 . S
C5888 C5890 1.391 . S
C5889 C5888 1.386 . S
C5889 C5893 1.393 . S
C5890 H5882 0.950 . S
C5890 C5888 1.391 . S
C5890 C5891 1.400 . S
C5891 C5890 1.400 . S
C5891 C5892 1.398 . S
C5891 C5897 1.491 1_655 S
C5892 H5883 0.950 . S
C5892 C5891 1.398 . S
C5892 C5893 1.391 . S
C5893 H5881 0.950 . S
C5893 C5889 1.393 . S
C5893 C5892 1.391 . S
C5894 H5884 0.950 . S
C5894 C5895 1.386 . S
C5894 C5896 1.391 . S
C5895 C5894 1.386 . S
C5895 C5899 1.393 . S
C5896 H5885 0.950 . S
C5896 C5894 1.391 . S
C5896 C5897 1.400 . S
C5897 C5891 1.491 1_455 S
C5897 C5896 1.400 . S
C5897 C5898 1.398 . S
C5898 H5886 0.950 . S
C5898 C5897 1.398 . S
C5898 C5899 1.391 . S
C5899 H5887 0.950 . S
C5899 C5895 1.393 . S
C5899 C5898 1.391 . S
H5900 C5908 0.950 . S
H5901 C5913 0.950 . S
H5902 C5910 0.950 . S
H5903 C5912 0.950 . S
H5904 C5914 0.950 . S
H5905 C5916 0.950 . S
H5906 C5918 0.950 . S
H5907 C5919 0.950 . S
C5908 H5900 0.950 . S
C5908 C5909 1.386 . S
C5908 C5910 1.391 . S
C5909 C5908 1.386 . S
C5909 C5913 1.393 . S
C5910 H5902 0.950 . S
C5910 C5908 1.391 . S
C5910 C5911 1.400 . S
C5911 C5910 1.400 . S
C5911 C5912 1.398 . S
C5911 C5917 1.491 1_545 S
C5912 H5903 0.950 . S
C5912 C5911 1.398 . S
C5912 C5913 1.391 . S
C5913 H5901 0.950 . S
C5913 C5909 1.393 . S
C5913 C5912 1.391 . S
C5914 H5904 0.950 . S
C5914 C5915 1.386 . S
C5914 C5916 1.391 . S
C5915 C5914 1.386 . S
C5915 C5919 1.393 . S
C5916 H5905 0.950 . S
C5916 C5914 1.391 . S
C5916 C5917 1.400 . S
C5917 C5911 1.491 1_565 S
C5917 C5916 1.400 . S
C5917 C5918 1.398 . S
C5918 H5906 0.950 . S
C5918 C5917 1.398 . S
C5918 C5919 1.391 . S
C5919 H5907 0.950 . S
C5919 C5915 1.393 . S
C5919 C5918 1.391 . S
H5920 C5928 0.950 . S
H5921 C5933 0.950 . S
H5922 C5930 0.950 . S
H5923 C5932 0.950 . S
H5924 C5934 0.950 . S
H5925 C5936 0.950 . S
H5926 C5938 0.950 . S
H5927 C5939 0.950 . S
C5928 H5920 0.950 . S
C5928 C5929 1.386 . S
C5928 C5930 1.391 . S
C5929 C5928 1.386 . S
C5929 C5933 1.393 . S
C5930 H5922 0.950 . S
C5930 C5928 1.391 . S
C5930 C5931 1.400 . S
C5931 C5930 1.400 . S
C5931 C5932 1.398 . S
C5931 C5937 1.491 1_565 S
C5932 H5923 0.950 . S
C5932 C5931 1.398 . S
C5932 C5933 1.391 . S
C5933 H5921 0.950 . S
C5933 C5929 1.393 . S
C5933 C5932 1.391 . S
C5934 H5924 0.950 . S
C5934 C5935 1.386 . S
C5934 C5936 1.391 . S
C5935 C5934 1.386 . S
C5935 C5939 1.393 . S
C5936 H5925 0.950 . S
C5936 C5934 1.391 . S
C5936 C5937 1.400 . S
C5937 C5931 1.491 1_545 S
C5937 C5936 1.400 . S
C5937 C5938 1.398 . S
C5938 H5926 0.950 . S
C5938 C5937 1.398 . S
C5938 C5939 1.391 . S
C5939 H5927 0.950 . S
C5939 C5935 1.393 . S
C5939 C5938 1.391 . S
H5940 C5948 0.950 . S
H5941 C5953 0.950 . S
H5942 C5950 0.950 . S
H5943 C5952 0.950 . S
H5944 C5954 0.950 . S
H5945 C5956 0.950 . S
H5946 C5958 0.950 . S
H5947 C5959 0.950 . S
C5948 H5940 0.950 . S
C5948 C5949 1.386 . S
C5948 C5950 1.391 . S
C5949 C5948 1.386 . S
C5949 C5953 1.393 . S
C5950 H5942 0.950 . S
C5950 C5948 1.391 . S
C5950 C5951 1.400 . S
C5951 C5950 1.400 . S
C5951 C5952 1.398 . S
C5951 C5957 1.491 1_655 S
C5952 H5943 0.950 . S
C5952 C5951 1.398 . S
C5952 C5953 1.391 . S
C5953 H5941 0.950 . S
C5953 C5949 1.393 . S
C5953 C5952 1.391 . S
C5954 H5944 0.950 . S
C5954 C5955 1.386 . S
C5954 C5956 1.391 . S
C5955 C5954 1.386 . S
C5955 C5959 1.393 . S
C5956 H5945 0.950 . S
C5956 C5954 1.391 . S
C5956 C5957 1.400 . S
C5957 C5951 1.491 1_455 S
C5957 C5956 1.400 . S
C5957 C5958 1.398 . S
C5958 H5946 0.950 . S
C5958 C5957 1.398 . S
C5958 C5959 1.391 . S
C5959 H5947 0.950 . S
C5959 C5955 1.393 . S
C5959 C5958 1.391 . S
H5960 C5968 0.950 . S
H5961 C5973 0.950 . S
H5962 C5970 0.950 . S
H5963 C5972 0.950 . S
H5964 C5974 0.950 . S
H5965 C5976 0.950 . S
H5966 C5978 0.950 . S
H5967 C5979 0.950 . S
C5968 H5960 0.950 . S
C5968 C5969 1.386 . S
C5968 C5970 1.391 . S
C5969 C5968 1.386 . S
C5969 C5973 1.393 . S
C5970 H5962 0.950 . S
C5970 C5968 1.391 . S
C5970 C5971 1.400 . S
C5971 C5970 1.400 . S
C5971 C5972 1.398 . S
C5971 C5977 1.491 1_565 S
C5972 H5963 0.950 . S
C5972 C5971 1.398 . S
C5972 C5973 1.391 . S
C5973 H5961 0.950 . S
C5973 C5969 1.393 . S
C5973 C5972 1.391 . S
C5974 H5964 0.950 . S
C5974 C5975 1.386 . S
C5974 C5976 1.391 . S
C5975 C5974 1.386 . S
C5975 C5979 1.393 . S
C5976 H5965 0.950 . S
C5976 C5974 1.391 . S
C5976 C5977 1.400 . S
C5977 C5971 1.491 1_545 S
C5977 C5976 1.400 . S
C5977 C5978 1.398 . S
C5978 H5966 0.950 . S
C5978 C5977 1.398 . S
C5978 C5979 1.391 . S
C5979 H5967 0.950 . S
C5979 C5975 1.393 . S
C5979 C5978 1.391 . S
H5980 C5988 0.950 . S
H5981 C5993 0.950 . S
H5982 C5990 0.950 . S
H5983 C5992 0.950 . S
H5984 C5994 0.950 . S
H5985 C5996 0.950 . S
H5986 C5998 0.950 . S
H5987 C5999 0.950 . S
C5988 H5980 0.950 . S
C5988 C5989 1.386 . S
C5988 C5990 1.391 . S
C5989 C5988 1.386 . S
C5989 C5993 1.393 . S
C5990 H5982 0.950 . S
C5990 C5988 1.391 . S
C5990 C5991 1.400 . S
C5991 C5990 1.400 . S
C5991 C5992 1.398 . S
C5991 C5997 1.491 1_655 S
C5992 H5983 0.950 . S
C5992 C5991 1.398 . S
C5992 C5993 1.391 . S
C5993 H5981 0.950 . S
C5993 C5989 1.393 . S
C5993 C5992 1.391 . S
C5994 H5984 0.950 . S
C5994 C5995 1.386 . S
C5994 C5996 1.391 . S
C5995 C5994 1.386 . S
C5995 C5999 1.393 . S
C5996 H5985 0.950 . S
C5996 C5994 1.391 . S
C5996 C5997 1.400 . S
C5997 C5991 1.491 1_455 S
C5997 C5996 1.400 . S
C5997 C5998 1.398 . S
C5998 H5986 0.950 . S
C5998 C5997 1.398 . S
C5998 C5999 1.391 . S
C5999 H5987 0.950 . S
C5999 C5995 1.393 . S
C5999 C5998 1.391 . S
H6000 C6008 0.950 . S
H6001 C6013 0.950 . S
H6002 C6010 0.950 . S
H6003 C6012 0.950 . S
H6004 C6014 0.950 . S
H6005 C6016 0.950 . S
H6006 C6018 0.950 . S
H6007 C6019 0.950 . S
C6008 H6000 0.950 . S
C6008 C6009 1.386 . S
C6008 C6010 1.391 . S
C6009 C6008 1.386 . S
C6009 C6013 1.393 . S
C6010 H6002 0.950 . S
C6010 C6008 1.391 . S
C6010 C6011 1.400 . S
C6011 C6010 1.400 . S
C6011 C6012 1.398 . S
C6011 C6017 1.491 1_565 S
C6012 H6003 0.950 . S
C6012 C6011 1.398 . S
C6012 C6013 1.391 . S
C6013 H6001 0.950 . S
C6013 C6009 1.393 . S
C6013 C6012 1.391 . S
C6014 H6004 0.950 . S
C6014 C6015 1.386 . S
C6014 C6016 1.391 . S
C6015 C6014 1.386 . S
C6015 C6019 1.393 . S
C6016 H6005 0.950 . S
C6016 C6014 1.391 . S
C6016 C6017 1.400 . S
C6017 C6011 1.491 1_545 S
C6017 C6016 1.400 . S
C6017 C6018 1.398 . S
C6018 H6006 0.950 . S
C6018 C6017 1.398 . S
C6018 C6019 1.391 . S
C6019 H6007 0.950 . S
C6019 C6015 1.393 . S
C6019 C6018 1.391 . S
H6020 C6028 0.950 . S
H6021 C6033 0.950 . S
H6022 C6030 0.950 . S
H6023 C6032 0.950 . S
H6024 C6034 0.950 . S
H6025 C6036 0.950 . S
H6026 C6038 0.950 . S
H6027 C6039 0.950 . S
C6028 H6020 0.950 . S
C6028 C6029 1.386 . S
C6028 C6030 1.391 . S
C6029 C6028 1.386 . S
C6029 C6033 1.393 . S
C6030 H6022 0.950 . S
C6030 C6028 1.391 . S
C6030 C6031 1.400 . S
C6031 C6030 1.400 . S
C6031 C6032 1.398 . S
C6031 C6037 1.491 1_455 S
C6032 H6023 0.950 . S
C6032 C6031 1.398 . S
C6032 C6033 1.391 . S
C6033 H6021 0.950 . S
C6033 C6029 1.393 . S
C6033 C6032 1.391 . S
C6034 H6024 0.950 . S
C6034 C6035 1.386 . S
C6034 C6036 1.391 . S
C6035 C6034 1.386 . S
C6035 C6039 1.393 . S
C6036 H6025 0.950 . S
C6036 C6034 1.391 . S
C6036 C6037 1.400 . S
C6037 C6031 1.491 1_655 S
C6037 C6036 1.400 . S
C6037 C6038 1.398 . S
C6038 H6026 0.950 . S
C6038 C6037 1.398 . S
C6038 C6039 1.391 . S
C6039 H6027 0.950 . S
C6039 C6035 1.393 . S
C6039 C6038 1.391 . S
H6040 C6048 0.950 . S
H6041 C6053 0.950 . S
H6042 C6050 0.950 . S
H6043 C6052 0.950 . S
H6044 C6054 0.950 . S
H6045 C6056 0.950 . S
H6046 C6058 0.950 . S
H6047 C6059 0.950 . S
C6048 H6040 0.950 . S
C6048 C6049 1.386 . S
C6048 C6050 1.391 . S
C6049 C6048 1.386 . S
C6049 C6053 1.393 . S
C6050 H6042 0.950 . S
C6050 C6048 1.391 . S
C6050 C6051 1.400 . S
C6051 C6050 1.400 . S
C6051 C6052 1.398 . S
C6051 C6057 1.491 1_545 S
C6052 H6043 0.950 . S
C6052 C6051 1.398 . S
C6052 C6053 1.391 . S
C6053 H6041 0.950 . S
C6053 C6049 1.393 . S
C6053 C6052 1.391 . S
C6054 H6044 0.950 . S
C6054 C6055 1.386 . S
C6054 C6056 1.391 . S
C6055 C6054 1.386 . S
C6055 C6059 1.393 . S
C6056 H6045 0.950 . S
C6056 C6054 1.391 . S
C6056 C6057 1.400 . S
C6057 C6051 1.491 1_565 S
C6057 C6056 1.400 . S
C6057 C6058 1.398 . S
C6058 H6046 0.950 . S
C6058 C6057 1.398 . S
C6058 C6059 1.391 . S
C6059 H6047 0.950 . S
C6059 C6055 1.393 . S
C6059 C6058 1.391 . S
H6060 C6068 0.950 . S
H6061 C6073 0.950 . S
H6062 C6070 0.950 . S
H6063 C6072 0.950 . S
H6064 C6074 0.950 . S
H6065 C6076 0.950 . S
H6066 C6078 0.950 . S
H6067 C6079 0.950 . S
C6068 H6060 0.950 . S
C6068 C6069 1.386 . S
C6068 C6070 1.391 . S
C6069 C6068 1.386 . S
C6069 C6073 1.393 . S
C6070 H6062 0.950 . S
C6070 C6068 1.391 . S
C6070 C6071 1.400 . S
C6071 C6070 1.400 . S
C6071 C6072 1.398 . S
C6071 C6077 1.491 1_455 S
C6072 H6063 0.950 . S
C6072 C6071 1.398 . S
C6072 C6073 1.391 . S
C6073 H6061 0.950 . S
C6073 C6069 1.393 . S
C6073 C6072 1.391 . S
C6074 H6064 0.950 . S
C6074 C6075 1.386 . S
C6074 C6076 1.391 . S
C6075 C6074 1.386 . S
C6075 C6079 1.393 . S
C6076 H6065 0.950 . S
C6076 C6074 1.391 . S
C6076 C6077 1.400 . S
C6077 C6071 1.491 1_655 S
C6077 C6076 1.400 . S
C6077 C6078 1.398 . S
C6078 H6066 0.950 . S
C6078 C6077 1.398 . S
C6078 C6079 1.391 . S
C6079 H6067 0.950 . S
C6079 C6075 1.393 . S
C6079 C6078 1.391 . S
H6080 C6088 0.950 . S
H6081 C6093 0.950 . S
H6082 C6090 0.950 . S
H6083 C6092 0.950 . S
H6084 C6094 0.950 . S
H6085 C6096 0.950 . S
H6086 C6098 0.950 . S
H6087 C6099 0.950 . S
C6088 H6080 0.950 . S
C6088 C6089 1.386 . S
C6088 C6090 1.391 . S
C6089 C6088 1.386 . S
C6089 C6093 1.393 . S
C6090 H6082 0.950 . S
C6090 C6088 1.391 . S
C6090 C6091 1.400 . S
C6091 C6090 1.400 . S
C6091 C6092 1.398 . S
C6091 C6097 1.491 1_556 S
C6092 H6083 0.950 . S
C6092 C6091 1.398 . S
C6092 C6093 1.391 . S
C6093 H6081 0.950 . S
C6093 C6089 1.393 . S
C6093 C6092 1.391 . S
C6094 H6084 0.950 . S
C6094 C6095 1.386 . S
C6094 C6096 1.391 . S
C6095 C6094 1.386 . S
C6095 C6099 1.393 . S
C6096 H6085 0.950 . S
C6096 C6094 1.391 . S
C6096 C6097 1.400 . S
C6097 C6091 1.491 1_554 S
C6097 C6096 1.400 . S
C6097 C6098 1.398 . S
C6098 H6086 0.950 . S
C6098 C6097 1.398 . S
C6098 C6099 1.391 . S
C6099 H6087 0.950 . S
C6099 C6095 1.393 . S
C6099 C6098 1.391 . S
H6100 C6108 0.950 . S
H6101 C6113 0.950 . S
H6102 C6110 0.950 . S
H6103 C6112 0.950 . S
H6104 C6114 0.950 . S
H6105 C6116 0.950 . S
H6106 C6118 0.950 . S
H6107 C6119 0.950 . S
C6108 H6100 0.950 . S
C6108 C6109 1.386 . S
C6108 C6110 1.391 . S
C6109 C6108 1.386 . S
C6109 C6113 1.393 . S
C6110 H6102 0.950 . S
C6110 C6108 1.391 . S
C6110 C6111 1.400 . S
C6111 C6110 1.400 . S
C6111 C6112 1.398 . S
C6111 C6117 1.491 1_554 S
C6112 H6103 0.950 . S
C6112 C6111 1.398 . S
C6112 C6113 1.391 . S
C6113 H6101 0.950 . S
C6113 C6109 1.393 . S
C6113 C6112 1.391 . S
C6114 H6104 0.950 . S
C6114 C6115 1.386 . S
C6114 C6116 1.391 . S
C6115 C6114 1.386 . S
C6115 C6119 1.393 . S
C6116 H6105 0.950 . S
C6116 C6114 1.391 . S
C6116 C6117 1.400 . S
C6117 C6111 1.491 1_556 S
C6117 C6116 1.400 . S
C6117 C6118 1.398 . S
C6118 H6106 0.950 . S
C6118 C6117 1.398 . S
C6118 C6119 1.391 . S
C6119 H6107 0.950 . S
C6119 C6115 1.393 . S
C6119 C6118 1.391 . S
H6120 C6128 0.950 . S
H6121 C6133 0.950 . S
H6122 C6130 0.950 . S
H6123 C6132 0.950 . S
H6124 C6134 0.950 . S
H6125 C6136 0.950 . S
H6126 C6138 0.950 . S
H6127 C6139 0.950 . S
C6128 H6120 0.950 . S
C6128 C6129 1.386 . S
C6128 C6130 1.391 . S
C6129 C6128 1.386 . S
C6129 C6133 1.393 . S
C6130 H6122 0.950 . S
C6130 C6128 1.391 . S
C6130 C6131 1.400 . S
C6131 C6130 1.400 . S
C6131 C6132 1.398 . S
C6131 C6137 1.491 1_554 S
C6132 H6123 0.950 . S
C6132 C6131 1.398 . S
C6132 C6133 1.391 . S
C6133 H6121 0.950 . S
C6133 C6129 1.393 . S
C6133 C6132 1.391 . S
C6134 H6124 0.950 . S
C6134 C6135 1.386 . S
C6134 C6136 1.391 . S
C6135 C6134 1.386 . S
C6135 C6139 1.393 . S
C6136 H6125 0.950 . S
C6136 C6134 1.391 . S
C6136 C6137 1.400 . S
C6137 C6131 1.491 1_556 S
C6137 C6136 1.400 . S
C6137 C6138 1.398 . S
C6138 H6126 0.950 . S
C6138 C6137 1.398 . S
C6138 C6139 1.391 . S
C6139 H6127 0.950 . S
C6139 C6135 1.393 . S
C6139 C6138 1.391 . S
H6140 C6148 0.950 . S
H6141 C6153 0.950 . S
H6142 C6150 0.950 . S
H6143 C6152 0.950 . S
H6144 C6154 0.950 . S
H6145 C6156 0.950 . S
H6146 C6158 0.950 . S
H6147 C6159 0.950 . S
C6148 H6140 0.950 . S
C6148 C6149 1.386 . S
C6148 C6150 1.391 . S
C6149 C6148 1.386 . S
C6149 C6153 1.393 . S
C6150 H6142 0.950 . S
C6150 C6148 1.391 . S
C6150 C6151 1.400 . S
C6151 C6150 1.400 . S
C6151 C6152 1.398 . S
C6151 C6157 1.491 1_554 S
C6152 H6143 0.950 . S
C6152 C6151 1.398 . S
C6152 C6153 1.391 . S
C6153 H6141 0.950 . S
C6153 C6149 1.393 . S
C6153 C6152 1.391 . S
C6154 H6144 0.950 . S
C6154 C6155 1.386 . S
C6154 C6156 1.391 . S
C6155 C6154 1.386 . S
C6155 C6159 1.393 . S
C6156 H6145 0.950 . S
C6156 C6154 1.391 . S
C6156 C6157 1.400 . S
C6157 C6151 1.491 1_556 S
C6157 C6156 1.400 . S
C6157 C6158 1.398 . S
C6158 H6146 0.950 . S
C6158 C6157 1.398 . S
C6158 C6159 1.391 . S
C6159 H6147 0.950 . S
C6159 C6155 1.393 . S
C6159 C6158 1.391 . S
H6160 C6168 0.950 . S
H6161 C6173 0.950 . S
H6162 C6170 0.950 . S
H6163 C6172 0.950 . S
H6164 C6174 0.950 . S
H6165 C6176 0.950 . S
H6166 C6178 0.950 . S
H6167 C6179 0.950 . S
C6168 H6160 0.950 . S
C6168 C6169 1.386 . S
C6168 C6170 1.391 . S
C6169 C6168 1.386 . S
C6169 C6173 1.393 . S
C6170 H6162 0.950 . S
C6170 C6168 1.391 . S
C6170 C6171 1.400 . S
C6171 C6170 1.400 . S
C6171 C6172 1.398 . S
C6171 C6177 1.491 1_556 S
C6172 H6163 0.950 . S
C6172 C6171 1.398 . S
C6172 C6173 1.391 . S
C6173 H6161 0.950 . S
C6173 C6169 1.393 . S
C6173 C6172 1.391 . S
C6174 H6164 0.950 . S
C6174 C6175 1.386 . S
C6174 C6176 1.391 . S
C6175 C6174 1.386 . S
C6175 C6179 1.393 . S
C6176 H6165 0.950 . S
C6176 C6174 1.391 . S
C6176 C6177 1.400 . S
C6177 C6171 1.491 1_554 S
C6177 C6176 1.400 . S
C6177 C6178 1.398 . S
C6178 H6166 0.950 . S
C6178 C6177 1.398 . S
C6178 C6179 1.391 . S
C6179 H6167 0.950 . S
C6179 C6175 1.393 . S
C6179 C6178 1.391 . S
H6180 C6188 0.950 . S
H6181 C6193 0.950 . S
H6182 C6190 0.950 . S
H6183 C6192 0.950 . S
H6184 C6194 0.950 . S
H6185 C6196 0.950 . S
H6186 C6198 0.950 . S
H6187 C6199 0.950 . S
C6188 H6180 0.950 . S
C6188 C6189 1.386 . S
C6188 C6190 1.391 . S
C6189 C6188 1.386 . S
C6189 C6193 1.393 . S
C6190 H6182 0.950 . S
C6190 C6188 1.391 . S
C6190 C6191 1.400 . S
C6191 C6190 1.400 . S
C6191 C6192 1.398 . S
C6191 C6197 1.491 1_556 S
C6192 H6183 0.950 . S
C6192 C6191 1.398 . S
C6192 C6193 1.391 . S
C6193 H6181 0.950 . S
C6193 C6189 1.393 . S
C6193 C6192 1.391 . S
C6194 H6184 0.950 . S
C6194 C6195 1.386 . S
C6194 C6196 1.391 . S
C6195 C6194 1.386 . S
C6195 C6199 1.393 . S
C6196 H6185 0.950 . S
C6196 C6194 1.391 . S
C6196 C6197 1.400 . S
C6197 C6191 1.491 1_554 S
C6197 C6196 1.400 . S
C6197 C6198 1.398 . S
C6198 H6186 0.950 . S
C6198 C6197 1.398 . S
C6198 C6199 1.391 . S
C6199 H6187 0.950 . S
C6199 C6195 1.393 . S
C6199 C6198 1.391 . S
H6200 C6208 0.950 . S
H6201 C6213 0.950 . S
H6202 C6210 0.950 . S
H6203 C6212 0.950 . S
H6204 C6214 0.950 . S
H6205 C6216 0.950 . S
H6206 C6218 0.950 . S
H6207 C6219 0.950 . S
C6208 H6200 0.950 . S
C6208 C6209 1.386 . S
C6208 C6210 1.391 . S
C6209 C6208 1.386 . S
C6209 C6213 1.393 . S
C6210 H6202 0.950 . S
C6210 C6208 1.391 . S
C6210 C6211 1.400 . S
C6211 C6210 1.400 . S
C6211 C6212 1.398 . S
C6211 C6217 1.491 1_556 S
C6212 H6203 0.950 . S
C6212 C6211 1.398 . S
C6212 C6213 1.391 . S
C6213 H6201 0.950 . S
C6213 C6209 1.393 . S
C6213 C6212 1.391 . S
C6214 H6204 0.950 . S
C6214 C6215 1.386 . S
C6214 C6216 1.391 . S
C6215 C6214 1.386 . S
C6215 C6219 1.393 . S
C6216 H6205 0.950 . S
C6216 C6214 1.391 . S
C6216 C6217 1.400 . S
C6217 C6211 1.491 1_554 S
C6217 C6216 1.400 . S
C6217 C6218 1.398 . S
C6218 H6206 0.950 . S
C6218 C6217 1.398 . S
C6218 C6219 1.391 . S
C6219 H6207 0.950 . S
C6219 C6215 1.393 . S
C6219 C6218 1.391 . S
H6220 C6228 0.950 . S
H6221 C6233 0.950 . S
H6222 C6230 0.950 . S
H6223 C6232 0.950 . S
H6224 C6234 0.950 . S
H6225 C6236 0.950 . S
H6226 C6238 0.950 . S
H6227 C6239 0.950 . S
C6228 H6220 0.950 . S
C6228 C6229 1.386 . S
C6228 C6230 1.391 . S
C6229 C6228 1.386 . S
C6229 C6233 1.393 . S
C6230 H6222 0.950 . S
C6230 C6228 1.391 . S
C6230 C6231 1.400 . S
C6231 C6230 1.400 . S
C6231 C6232 1.398 . S
C6231 C6237 1.491 1_556 S
C6232 H6223 0.950 . S
C6232 C6231 1.398 . S
C6232 C6233 1.391 . S
C6233 H6221 0.950 . S
C6233 C6229 1.393 . S
C6233 C6232 1.391 . S
C6234 H6224 0.950 . S
C6234 C6235 1.386 . S
C6234 C6236 1.391 . S
C6235 C6234 1.386 . S
C6235 C6239 1.393 . S
C6236 H6225 0.950 . S
C6236 C6234 1.391 . S
C6236 C6237 1.400 . S
C6237 C6231 1.491 1_554 S
C6237 C6236 1.400 . S
C6237 C6238 1.398 . S
C6238 H6226 0.950 . S
C6238 C6237 1.398 . S
C6238 C6239 1.391 . S
C6239 H6227 0.950 . S
C6239 C6235 1.393 . S
C6239 C6238 1.391 . S
H6240 C6248 0.950 . S
H6241 C6253 0.950 . S
H6242 C6250 0.950 . S
H6243 C6252 0.950 . S
H6244 C6254 0.950 . S
H6245 C6256 0.950 . S
H6246 C6258 0.950 . S
H6247 C6259 0.950 . S
C6248 H6240 0.950 . S
C6248 C6249 1.386 . S
C6248 C6250 1.391 . S
C6249 C6248 1.386 . S
C6249 C6253 1.393 . S
C6250 H6242 0.950 . S
C6250 C6248 1.391 . S
C6250 C6251 1.400 . S
C6251 C6250 1.400 . S
C6251 C6252 1.398 . S
C6251 C6257 1.491 . S
C6252 H6243 0.950 . S
C6252 C6251 1.398 . S
C6252 C6253 1.391 . S
C6253 H6241 0.950 . S
C6253 C6249 1.393 . S
C6253 C6252 1.391 . S
C6254 H6244 0.950 . S
C6254 C6255 1.386 . S
C6254 C6256 1.391 . S
C6255 C6254 1.386 . S
C6255 C6259 1.393 . S
C6256 H6245 0.950 . S
C6256 C6254 1.391 . S
C6256 C6257 1.400 . S
C6257 C6251 1.491 . S
C6257 C6256 1.400 . S
C6257 C6258 1.398 . S
C6258 H6246 0.950 . S
C6258 C6257 1.398 . S
C6258 C6259 1.391 . S
C6259 H6247 0.950 . S
C6259 C6255 1.393 . S
C6259 C6258 1.391 . S
H6260 C6268 0.950 . S
H6261 C6273 0.950 . S
H6262 C6270 0.950 . S
H6263 C6272 0.950 . S
H6264 C6274 0.950 . S
H6265 C6276 0.950 . S
H6266 C6278 0.950 . S
H6267 C6279 0.950 . S
C6268 H6260 0.950 . S
C6268 C6269 1.386 . S
C6268 C6270 1.391 . S
C6269 C6268 1.386 . S
C6269 C6273 1.393 . S
C6270 H6262 0.950 . S
C6270 C6268 1.391 . S
C6270 C6271 1.400 . S
C6271 C6270 1.400 . S
C6271 C6272 1.398 . S
C6271 C6277 1.491 . S
C6272 H6263 0.950 . S
C6272 C6271 1.398 . S
C6272 C6273 1.391 . S
C6273 H6261 0.950 . S
C6273 C6269 1.393 . S
C6273 C6272 1.391 . S
C6274 H6264 0.950 . S
C6274 C6275 1.386 . S
C6274 C6276 1.391 . S
C6275 C6274 1.386 . S
C6275 C6279 1.393 . S
C6276 H6265 0.950 . S
C6276 C6274 1.391 . S
C6276 C6277 1.400 . S
C6277 C6271 1.491 . S
C6277 C6276 1.400 . S
C6277 C6278 1.398 . S
C6278 H6266 0.950 . S
C6278 C6277 1.398 . S
C6278 C6279 1.391 . S
C6279 H6267 0.950 . S
C6279 C6275 1.393 . S
C6279 C6278 1.391 . S
H6280 C6288 0.950 . S
H6281 C6293 0.950 . S
H6282 C6290 0.950 . S
H6283 C6292 0.950 . S
H6284 C6294 0.950 . S
H6285 C6296 0.950 . S
H6286 C6298 0.950 . S
H6287 C6299 0.950 . S
C6288 H6280 0.950 . S
C6288 C6289 1.386 . S
C6288 C6290 1.391 . S
C6289 C6288 1.386 . S
C6289 C6293 1.393 . S
C6290 H6282 0.950 . S
C6290 C6288 1.391 . S
C6290 C6291 1.400 . S
C6291 C6290 1.400 . S
C6291 C6292 1.398 . S
C6291 C6297 1.491 . S
C6292 H6283 0.950 . S
C6292 C6291 1.398 . S
C6292 C6293 1.391 . S
C6293 H6281 0.950 . S
C6293 C6289 1.393 . S
C6293 C6292 1.391 . S
C6294 H6284 0.950 . S
C6294 C6295 1.386 . S
C6294 C6296 1.391 . S
C6295 C6294 1.386 . S
C6295 C6299 1.393 . S
C6296 H6285 0.950 . S
C6296 C6294 1.391 . S
C6296 C6297 1.400 . S
C6297 C6291 1.491 . S
C6297 C6296 1.400 . S
C6297 C6298 1.398 . S
C6298 H6286 0.950 . S
C6298 C6297 1.398 . S
C6298 C6299 1.391 . S
C6299 H6287 0.950 . S
C6299 C6295 1.393 . S
C6299 C6298 1.391 . S
H6300 C6308 0.950 . S
H6301 C6313 0.950 . S
H6302 C6310 0.950 . S
H6303 C6312 0.950 . S
H6304 C6314 0.950 . S
H6305 C6316 0.950 . S
H6306 C6318 0.950 . S
H6307 C6319 0.950 . S
C6308 H6300 0.950 . S
C6308 C6309 1.386 . S
C6308 C6310 1.391 . S
C6309 C6308 1.386 . S
C6309 C6313 1.393 . S
C6310 H6302 0.950 . S
C6310 C6308 1.391 . S
C6310 C6311 1.400 . S
C6311 C6310 1.400 . S
C6311 C6312 1.398 . S
C6311 C6317 1.491 . S
C6312 H6303 0.950 . S
C6312 C6311 1.398 . S
C6312 C6313 1.391 . S
C6313 H6301 0.950 . S
C6313 C6309 1.393 . S
C6313 C6312 1.391 . S
C6314 H6304 0.950 . S
C6314 C6315 1.386 . S
C6314 C6316 1.391 . S
C6315 C6314 1.386 . S
C6315 C6319 1.393 . S
C6316 H6305 0.950 . S
C6316 C6314 1.391 . S
C6316 C6317 1.400 . S
C6317 C6311 1.491 . S
C6317 C6316 1.400 . S
C6317 C6318 1.398 . S
C6318 H6306 0.950 . S
C6318 C6317 1.398 . S
C6318 C6319 1.391 . S
C6319 H6307 0.950 . S
C6319 C6315 1.393 . S
C6319 C6318 1.391 . S
H6320 C6328 0.950 . S
H6321 C6333 0.950 . S
H6322 C6330 0.950 . S
H6323 C6332 0.950 . S
H6324 C6334 0.950 . S
H6325 C6336 0.950 . S
H6326 C6338 0.950 . S
H6327 C6339 0.950 . S
C6328 H6320 0.950 . S
C6328 C6329 1.386 . S
C6328 C6330 1.391 . S
C6329 C6328 1.386 . S
C6329 C6333 1.393 . S
C6330 H6322 0.950 . S
C6330 C6328 1.391 . S
C6330 C6331 1.400 . S
C6331 C6330 1.400 . S
C6331 C6332 1.398 . S
C6331 C6337 1.491 . S
C6332 H6323 0.950 . S
C6332 C6331 1.398 . S
C6332 C6333 1.391 . S
C6333 H6321 0.950 . S
C6333 C6329 1.393 . S
C6333 C6332 1.391 . S
C6334 H6324 0.950 . S
C6334 C6335 1.386 . S
C6334 C6336 1.391 . S
C6335 C6334 1.386 . S
C6335 C6339 1.393 . S
C6336 H6325 0.950 . S
C6336 C6334 1.391 . S
C6336 C6337 1.400 . S
C6337 C6331 1.491 . S
C6337 C6336 1.400 . S
C6337 C6338 1.398 . S
C6338 H6326 0.950 . S
C6338 C6337 1.398 . S
C6338 C6339 1.391 . S
C6339 H6327 0.950 . S
C6339 C6335 1.393 . S
C6339 C6338 1.391 . S
H6340 C6348 0.950 . S
H6341 C6353 0.950 . S
H6342 C6350 0.950 . S
H6343 C6352 0.950 . S
H6344 C6354 0.950 . S
H6345 C6356 0.950 . S
H6346 C6358 0.950 . S
H6347 C6359 0.950 . S
C6348 H6340 0.950 . S
C6348 C6349 1.386 . S
C6348 C6350 1.391 . S
C6349 C6348 1.386 . S
C6349 C6353 1.393 . S
C6350 H6342 0.950 . S
C6350 C6348 1.391 . S
C6350 C6351 1.400 . S
C6351 C6350 1.400 . S
C6351 C6352 1.398 . S
C6351 C6357 1.491 . S
C6352 H6343 0.950 . S
C6352 C6351 1.398 . S
C6352 C6353 1.391 . S
C6353 H6341 0.950 . S
C6353 C6349 1.393 . S
C6353 C6352 1.391 . S
C6354 H6344 0.950 . S
C6354 C6355 1.386 . S
C6354 C6356 1.391 . S
C6355 C6354 1.386 . S
C6355 C6359 1.393 . S
C6356 H6345 0.950 . S
C6356 C6354 1.391 . S
C6356 C6357 1.400 . S
C6357 C6351 1.491 . S
C6357 C6356 1.400 . S
C6357 C6358 1.398 . S
C6358 H6346 0.950 . S
C6358 C6357 1.398 . S
C6358 C6359 1.391 . S
C6359 H6347 0.950 . S
C6359 C6355 1.393 . S
C6359 C6358 1.391 . S
H6360 C6368 0.950 . S
H6361 C6373 0.950 . S
H6362 C6370 0.950 . S
H6363 C6372 0.950 . S
H6364 C6374 0.950 . S
H6365 C6376 0.950 . S
H6366 C6378 0.950 . S
H6367 C6379 0.950 . S
C6368 H6360 0.950 . S
C6368 C6369 1.386 . S
C6368 C6370 1.391 . S
C6369 C6368 1.386 . S
C6369 C6373 1.393 . S
C6370 H6362 0.950 . S
C6370 C6368 1.391 . S
C6370 C6371 1.400 . S
C6371 C6370 1.400 . S
C6371 C6372 1.398 . S
C6371 C6377 1.491 . S
C6372 H6363 0.950 . S
C6372 C6371 1.398 . S
C6372 C6373 1.391 . S
C6373 H6361 0.950 . S
C6373 C6369 1.393 . S
C6373 C6372 1.391 . S
C6374 H6364 0.950 . S
C6374 C6375 1.386 . S
C6374 C6376 1.391 . S
C6375 C6374 1.386 . S
C6375 C6379 1.393 . S
C6376 H6365 0.950 . S
C6376 C6374 1.391 . S
C6376 C6377 1.400 . S
C6377 C6371 1.491 . S
C6377 C6376 1.400 . S
C6377 C6378 1.398 . S
C6378 H6366 0.950 . S
C6378 C6377 1.398 . S
C6378 C6379 1.391 . S
C6379 H6367 0.950 . S
C6379 C6375 1.393 . S
C6379 C6378 1.391 . S
H6380 C6388 0.950 . S
H6381 C6393 0.950 . S
H6382 C6390 0.950 . S
H6383 C6392 0.950 . S
H6384 C6394 0.950 . S
H6385 C6396 0.950 . S
H6386 C6398 0.950 . S
H6387 C6399 0.950 . S
C6388 H6380 0.950 . S
C6388 C6389 1.386 . S
C6388 C6390 1.391 . S
C6389 C6388 1.386 . S
C6389 C6393 1.393 . S
C6390 H6382 0.950 . S
C6390 C6388 1.391 . S
C6390 C6391 1.400 . S
C6391 C6390 1.400 . S
C6391 C6392 1.398 . S
C6391 C6397 1.491 . S
C6392 H6383 0.950 . S
C6392 C6391 1.398 . S
C6392 C6393 1.391 . S
C6393 H6381 0.950 . S
C6393 C6389 1.393 . S
C6393 C6392 1.391 . S
C6394 H6384 0.950 . S
C6394 C6395 1.386 . S
C6394 C6396 1.391 . S
C6395 C6394 1.386 . S
C6395 C6399 1.393 . S
C6396 H6385 0.950 . S
C6396 C6394 1.391 . S
C6396 C6397 1.400 . S
C6397 C6391 1.491 . S
C6397 C6396 1.400 . S
C6397 C6398 1.398 . S
C6398 H6386 0.950 . S
C6398 C6397 1.398 . S
C6398 C6399 1.391 . S
C6399 H6387 0.950 . S
C6399 C6395 1.393 . S
C6399 C6398 1.391 . S
H6400 C6408 0.950 . S
H6401 C6413 0.950 . S
H6402 C6410 0.950 . S
H6403 C6412 0.950 . S
H6404 C6414 0.950 . S
H6405 C6416 0.950 . S
H6406 C6418 0.950 . S
H6407 C6419 0.950 . S
C6408 H6400 0.950 . S
C6408 C6409 1.386 . S
C6408 C6410 1.391 . S
C6409 C6408 1.386 . S
C6409 C6413 1.393 . S
C6410 H6402 0.950 . S
C6410 C6408 1.391 . S
C6410 C6411 1.400 . S
C6411 C6410 1.400 . S
C6411 C6412 1.398 . S
C6411 C6417 1.491 . S
C6412 H6403 0.950 . S
C6412 C6411 1.398 . S
C6412 C6413 1.391 . S
C6413 H6401 0.950 . S
C6413 C6409 1.393 . S
C6413 C6412 1.391 . S
C6414 H6404 0.950 . S
C6414 C6415 1.386 . S
C6414 C6416 1.391 . S
C6415 C6414 1.386 . S
C6415 C6419 1.393 . S
C6416 H6405 0.950 . S
C6416 C6414 1.391 . S
C6416 C6417 1.400 . S
C6417 C6411 1.491 . S
C6417 C6416 1.400 . S
C6417 C6418 1.398 . S
C6418 H6406 0.950 . S
C6418 C6417 1.398 . S
C6418 C6419 1.391 . S
C6419 H6407 0.950 . S
C6419 C6415 1.393 . S
C6419 C6418 1.391 . S
H6420 C6428 0.950 . S
H6421 C6433 0.950 . S
H6422 C6430 0.950 . S
H6423 C6432 0.950 . S
H6424 C6434 0.950 . S
H6425 C6436 0.950 . S
H6426 C6438 0.950 . S
H6427 C6439 0.950 . S
C6428 H6420 0.950 . S
C6428 C6429 1.386 . S
C6428 C6430 1.391 . S
C6429 C6428 1.386 . S
C6429 C6433 1.393 . S
C6430 H6422 0.950 . S
C6430 C6428 1.391 . S
C6430 C6431 1.400 . S
C6431 C6430 1.400 . S
C6431 C6432 1.398 . S
C6431 C6437 1.491 . S
C6432 H6423 0.950 . S
C6432 C6431 1.398 . S
C6432 C6433 1.391 . S
C6433 H6421 0.950 . S
C6433 C6429 1.393 . S
C6433 C6432 1.391 . S
C6434 H6424 0.950 . S
C6434 C6435 1.386 . S
C6434 C6436 1.391 . S
C6435 C6434 1.386 . S
C6435 C6439 1.393 . S
C6436 H6425 0.950 . S
C6436 C6434 1.391 . S
C6436 C6437 1.400 . S
C6437 C6431 1.491 . S
C6437 C6436 1.400 . S
C6437 C6438 1.398 . S
C6438 H6426 0.950 . S
C6438 C6437 1.398 . S
C6438 C6439 1.391 . S
C6439 H6427 0.950 . S
C6439 C6435 1.393 . S
C6439 C6438 1.391 . S
H6440 C6448 0.950 . S
H6441 C6453 0.950 . S
H6442 C6450 0.950 . S
H6443 C6452 0.950 . S
H6444 C6454 0.950 . S
H6445 C6456 0.950 . S
H6446 C6458 0.950 . S
H6447 C6459 0.950 . S
C6448 H6440 0.950 . S
C6448 C6449 1.386 . S
C6448 C6450 1.391 . S
C6449 C6448 1.386 . S
C6449 C6453 1.393 . S
C6450 H6442 0.950 . S
C6450 C6448 1.391 . S
C6450 C6451 1.400 . S
C6451 C6450 1.400 . S
C6451 C6452 1.398 . S
C6451 C6457 1.491 . S
C6452 H6443 0.950 . S
C6452 C6451 1.398 . S
C6452 C6453 1.391 . S
C6453 H6441 0.950 . S
C6453 C6449 1.393 . S
C6453 C6452 1.391 . S
C6454 H6444 0.950 . S
C6454 C6455 1.386 . S
C6454 C6456 1.391 . S
C6455 C6454 1.386 . S
C6455 C6459 1.393 . S
C6456 H6445 0.950 . S
C6456 C6454 1.391 . S
C6456 C6457 1.400 . S
C6457 C6451 1.491 . S
C6457 C6456 1.400 . S
C6457 C6458 1.398 . S
C6458 H6446 0.950 . S
C6458 C6457 1.398 . S
C6458 C6459 1.391 . S
C6459 H6447 0.950 . S
C6459 C6455 1.393 . S
C6459 C6458 1.391 . S
H6460 C6468 0.950 . S
H6461 C6473 0.950 . S
H6462 C6470 0.950 . S
H6463 C6472 0.950 . S
H6464 C6474 0.950 . S
H6465 C6476 0.950 . S
H6466 C6478 0.950 . S
H6467 C6479 0.950 . S
C6468 H6460 0.950 . S
C6468 C6469 1.386 . S
C6468 C6470 1.391 . S
C6469 C6468 1.386 . S
C6469 C6473 1.393 . S
C6470 H6462 0.950 . S
C6470 C6468 1.391 . S
C6470 C6471 1.400 . S
C6471 C6470 1.400 . S
C6471 C6472 1.398 . S
C6471 C6477 1.491 . S
C6472 H6463 0.950 . S
C6472 C6471 1.398 . S
C6472 C6473 1.391 . S
C6473 H6461 0.950 . S
C6473 C6469 1.393 . S
C6473 C6472 1.391 . S
C6474 H6464 0.950 . S
C6474 C6475 1.386 . S
C6474 C6476 1.391 . S
C6475 C6474 1.386 . S
C6475 C6479 1.393 . S
C6476 H6465 0.950 . S
C6476 C6474 1.391 . S
C6476 C6477 1.400 . S
C6477 C6471 1.491 . S
C6477 C6476 1.400 . S
C6477 C6478 1.398 . S
C6478 H6466 0.950 . S
C6478 C6477 1.398 . S
C6478 C6479 1.391 . S
C6479 H6467 0.950 . S
C6479 C6475 1.393 . S
C6479 C6478 1.391 . S
H6480 C6488 0.950 . S
H6481 C6493 0.950 . S
H6482 C6490 0.950 . S
H6483 C6492 0.950 . S
H6484 C6494 0.950 . S
H6485 C6496 0.950 . S
H6486 C6498 0.950 . S
H6487 C6499 0.950 . S
C6488 H6480 0.950 . S
C6488 C6489 1.386 . S
C6488 C6490 1.391 . S
C6489 C6488 1.386 . S
C6489 C6493 1.393 . S
C6490 H6482 0.950 . S
C6490 C6488 1.391 . S
C6490 C6491 1.400 . S
C6491 C6490 1.400 . S
C6491 C6492 1.398 . S
C6491 C6497 1.491 . S
C6492 H6483 0.950 . S
C6492 C6491 1.398 . S
C6492 C6493 1.391 . S
C6493 H6481 0.950 . S
C6493 C6489 1.393 . S
C6493 C6492 1.391 . S
C6494 H6484 0.950 . S
C6494 C6495 1.386 . S
C6494 C6496 1.391 . S
C6495 C6494 1.386 . S
C6495 C6499 1.393 . S
C6496 H6485 0.950 . S
C6496 C6494 1.391 . S
C6496 C6497 1.400 . S
C6497 C6491 1.491 . S
C6497 C6496 1.400 . S
C6497 C6498 1.398 . S
C6498 H6486 0.950 . S
C6498 C6497 1.398 . S
C6498 C6499 1.391 . S
C6499 H6487 0.950 . S
C6499 C6495 1.393 . S
C6499 C6498 1.391 . S
H6500 C6508 0.950 . S
H6501 C6513 0.950 . S
H6502 C6510 0.950 . S
H6503 C6512 0.950 . S
H6504 C6514 0.950 . S
H6505 C6516 0.950 . S
H6506 C6518 0.950 . S
H6507 C6519 0.950 . S
C6508 H6500 0.950 . S
C6508 C6509 1.386 . S
C6508 C6510 1.391 . S
C6509 C6508 1.386 . S
C6509 C6513 1.393 . S
C6510 H6502 0.950 . S
C6510 C6508 1.391 . S
C6510 C6511 1.400 . S
C6511 C6510 1.400 . S
C6511 C6512 1.398 . S
C6511 C6517 1.491 . S
C6512 H6503 0.950 . S
C6512 C6511 1.398 . S
C6512 C6513 1.391 . S
C6513 H6501 0.950 . S
C6513 C6509 1.393 . S
C6513 C6512 1.391 . S
C6514 H6504 0.950 . S
C6514 C6515 1.386 . S
C6514 C6516 1.391 . S
C6515 C6514 1.386 . S
C6515 C6519 1.393 . S
C6516 H6505 0.950 . S
C6516 C6514 1.391 . S
C6516 C6517 1.400 . S
C6517 C6511 1.491 . S
C6517 C6516 1.400 . S
C6517 C6518 1.398 . S
C6518 H6506 0.950 . S
C6518 C6517 1.398 . S
C6518 C6519 1.391 . S
C6519 H6507 0.950 . S
C6519 C6515 1.393 . S
C6519 C6518 1.391 . S
H6520 C6528 0.950 . S
H6521 C6533 0.950 . S
H6522 C6530 0.950 . S
H6523 C6532 0.950 . S
H6524 C6534 0.950 . S
H6525 C6536 0.950 . S
H6526 C6538 0.950 . S
H6527 C6539 0.950 . S
C6528 H6520 0.950 . S
C6528 C6529 1.386 . S
C6528 C6530 1.391 . S
C6529 C6528 1.386 . S
C6529 C6533 1.393 . S
C6530 H6522 0.950 . S
C6530 C6528 1.391 . S
C6530 C6531 1.400 . S
C6531 C6530 1.400 . S
C6531 C6532 1.398 . S
C6531 C6537 1.491 . S
C6532 H6523 0.950 . S
C6532 C6531 1.398 . S
C6532 C6533 1.391 . S
C6533 H6521 0.950 . S
C6533 C6529 1.393 . S
C6533 C6532 1.391 . S
C6534 H6524 0.950 . S
C6534 C6535 1.386 . S
C6534 C6536 1.391 . S
C6535 C6534 1.386 . S
C6535 C6539 1.393 . S
C6536 H6525 0.950 . S
C6536 C6534 1.391 . S
C6536 C6537 1.400 . S
C6537 C6531 1.491 . S
C6537 C6536 1.400 . S
C6537 C6538 1.398 . S
C6538 H6526 0.950 . S
C6538 C6537 1.398 . S
C6538 C6539 1.391 . S
C6539 H6527 0.950 . S
C6539 C6535 1.393 . S
C6539 C6538 1.391 . S
H6540 C6548 0.950 . S
H6541 C6553 0.950 . S
H6542 C6550 0.950 . S
H6543 C6552 0.950 . S
H6544 C6554 0.950 . S
H6545 C6556 0.950 . S
H6546 C6558 0.950 . S
H6547 C6559 0.950 . S
C6548 H6540 0.950 . S
C6548 C6549 1.386 . S
C6548 C6550 1.391 . S
C6549 C6548 1.386 . S
C6549 C6553 1.393 . S
C6550 H6542 0.950 . S
C6550 C6548 1.391 . S
C6550 C6551 1.400 . S
C6551 C6550 1.400 . S
C6551 C6552 1.398 . S
C6551 C6557 1.491 . S
C6552 H6543 0.950 . S
C6552 C6551 1.398 . S
C6552 C6553 1.391 . S
C6553 H6541 0.950 . S
C6553 C6549 1.393 . S
C6553 C6552 1.391 . S
C6554 H6544 0.950 . S
C6554 C6555 1.386 . S
C6554 C6556 1.391 . S
C6555 C6554 1.386 . S
C6555 C6559 1.393 . S
C6556 H6545 0.950 . S
C6556 C6554 1.391 . S
C6556 C6557 1.400 . S
C6557 C6551 1.491 . S
C6557 C6556 1.400 . S
C6557 C6558 1.398 . S
C6558 H6546 0.950 . S
C6558 C6557 1.398 . S
C6558 C6559 1.391 . S
C6559 H6547 0.950 . S
C6559 C6555 1.393 . S
C6559 C6558 1.391 . S
H6560 C6568 0.950 . S
H6561 C6573 0.950 . S
H6562 C6570 0.950 . S
H6563 C6572 0.950 . S
H6564 C6574 0.950 . S
H6565 C6576 0.950 . S
H6566 C6578 0.950 . S
H6567 C6579 0.950 . S
C6568 H6560 0.950 . S
C6568 C6569 1.386 . S
C6568 C6570 1.391 . S
C6569 C6568 1.386 . S
C6569 C6573 1.393 . S
C6570 H6562 0.950 . S
C6570 C6568 1.391 . S
C6570 C6571 1.400 . S
C6571 C6570 1.400 . S
C6571 C6572 1.398 . S
C6571 C6577 1.491 . S
C6572 H6563 0.950 . S
C6572 C6571 1.398 . S
C6572 C6573 1.391 . S
C6573 H6561 0.950 . S
C6573 C6569 1.393 . S
C6573 C6572 1.391 . S
C6574 H6564 0.950 . S
C6574 C6575 1.386 . S
C6574 C6576 1.391 . S
C6575 C6574 1.386 . S
C6575 C6579 1.393 . S
C6576 H6565 0.950 . S
C6576 C6574 1.391 . S
C6576 C6577 1.400 . S
C6577 C6571 1.491 . S
C6577 C6576 1.400 . S
C6577 C6578 1.398 . S
C6578 H6566 0.950 . S
C6578 C6577 1.398 . S
C6578 C6579 1.391 . S
C6579 H6567 0.950 . S
C6579 C6575 1.393 . S
C6579 C6578 1.391 . S
H6580 C6588 0.950 . S
H6581 C6593 0.950 . S
H6582 C6590 0.950 . S
H6583 C6592 0.950 . S
H6584 C6594 0.950 . S
H6585 C6596 0.950 . S
H6586 C6598 0.950 . S
H6587 C6599 0.950 . S
C6588 H6580 0.950 . S
C6588 C6589 1.386 . S
C6588 C6590 1.391 . S
C6589 C6588 1.386 . S
C6589 C6593 1.393 . S
C6590 H6582 0.950 . S
C6590 C6588 1.391 . S
C6590 C6591 1.400 . S
C6591 C6590 1.400 . S
C6591 C6592 1.398 . S
C6591 C6597 1.491 . S
C6592 H6583 0.950 . S
C6592 C6591 1.398 . S
C6592 C6593 1.391 . S
C6593 H6581 0.950 . S
C6593 C6589 1.393 . S
C6593 C6592 1.391 . S
C6594 H6584 0.950 . S
C6594 C6595 1.386 . S
C6594 C6596 1.391 . S
C6595 C6594 1.386 . S
C6595 C6599 1.393 . S
C6596 H6585 0.950 . S
C6596 C6594 1.391 . S
C6596 C6597 1.400 . S
C6597 C6591 1.491 . S
C6597 C6596 1.400 . S
C6597 C6598 1.398 . S
C6598 H6586 0.950 . S
C6598 C6597 1.398 . S
C6598 C6599 1.391 . S
C6599 H6587 0.950 . S
C6599 C6595 1.393 . S
C6599 C6598 1.391 . S
H6600 C6608 0.950 . S
H6601 C6613 0.950 . S
H6602 C6610 0.950 . S
H6603 C6612 0.950 . S
H6604 C6614 0.950 . S
H6605 C6616 0.950 . S
H6606 C6618 0.950 . S
H6607 C6619 0.950 . S
C6608 H6600 0.950 . S
C6608 C6609 1.386 . S
C6608 C6610 1.391 . S
C6609 C6608 1.386 . S
C6609 C6613 1.393 . S
C6610 H6602 0.950 . S
C6610 C6608 1.391 . S
C6610 C6611 1.400 . S
C6611 C6610 1.400 . S
C6611 C6612 1.398 . S
C6611 C6617 1.491 . S
C6612 H6603 0.950 . S
C6612 C6611 1.398 . S
C6612 C6613 1.391 . S
C6613 H6601 0.950 . S
C6613 C6609 1.393 . S
C6613 C6612 1.391 . S
C6614 H6604 0.950 . S
C6614 C6615 1.386 . S
C6614 C6616 1.391 . S
C6615 C6614 1.386 . S
C6615 C6619 1.393 . S
C6616 H6605 0.950 . S
C6616 C6614 1.391 . S
C6616 C6617 1.400 . S
C6617 C6611 1.491 . S
C6617 C6616 1.400 . S
C6617 C6618 1.398 . S
C6618 H6606 0.950 . S
C6618 C6617 1.398 . S
C6618 C6619 1.391 . S
C6619 H6607 0.950 . S
C6619 C6615 1.393 . S
C6619 C6618 1.391 . S
H6620 C6628 0.950 . S
H6621 C6633 0.950 . S
H6622 C6630 0.950 . S
H6623 C6632 0.950 . S
H6624 C6634 0.950 . S
H6625 C6636 0.950 . S
H6626 C6638 0.950 . S
H6627 C6639 0.950 . S
C6628 H6620 0.950 . S
C6628 C6629 1.386 . S
C6628 C6630 1.391 . S
C6629 C6628 1.386 . S
C6629 C6633 1.393 . S
C6630 H6622 0.950 . S
C6630 C6628 1.391 . S
C6630 C6631 1.400 . S
C6631 C6630 1.400 . S
C6631 C6632 1.398 . S
C6631 C6637 1.491 . S
C6632 H6623 0.950 . S
C6632 C6631 1.398 . S
C6632 C6633 1.391 . S
C6633 H6621 0.950 . S
C6633 C6629 1.393 . S
C6633 C6632 1.391 . S
C6634 H6624 0.950 . S
C6634 C6635 1.386 . S
C6634 C6636 1.391 . S
C6635 C6634 1.386 . S
C6635 C6639 1.393 . S
C6636 H6625 0.950 . S
C6636 C6634 1.391 . S
C6636 C6637 1.400 . S
C6637 C6631 1.491 . S
C6637 C6636 1.400 . S
C6637 C6638 1.398 . S
C6638 H6626 0.950 . S
C6638 C6637 1.398 . S
C6638 C6639 1.391 . S
C6639 H6627 0.950 . S
C6639 C6635 1.393 . S
C6639 C6638 1.391 . S
H6640 C6648 0.950 . S
H6641 C6653 0.950 . S
H6642 C6650 0.950 . S
H6643 C6652 0.950 . S
H6644 C6654 0.950 . S
H6645 C6656 0.950 . S
H6646 C6658 0.950 . S
H6647 C6659 0.950 . S
C6648 H6640 0.950 . S
C6648 C6649 1.386 . S
C6648 C6650 1.391 . S
C6649 C6648 1.386 . S
C6649 C6653 1.393 . S
C6650 H6642 0.950 . S
C6650 C6648 1.391 . S
C6650 C6651 1.400 . S
C6651 C6650 1.400 . S
C6651 C6652 1.398 . S
C6651 C6657 1.491 . S
C6652 H6643 0.950 . S
C6652 C6651 1.398 . S
C6652 C6653 1.391 . S
C6653 H6641 0.950 . S
C6653 C6649 1.393 . S
C6653 C6652 1.391 . S
C6654 H6644 0.950 . S
C6654 C6655 1.386 . S
C6654 C6656 1.391 . S
C6655 C6654 1.386 . S
C6655 C6659 1.393 . S
C6656 H6645 0.950 . S
C6656 C6654 1.391 . S
C6656 C6657 1.400 . S
C6657 C6651 1.491 . S
C6657 C6656 1.400 . S
C6657 C6658 1.398 . S
C6658 H6646 0.950 . S
C6658 C6657 1.398 . S
C6658 C6659 1.391 . S
C6659 H6647 0.950 . S
C6659 C6655 1.393 . S
C6659 C6658 1.391 . S
H6660 C6668 0.950 . S
H6661 C6673 0.950 . S
H6662 C6670 0.950 . S
H6663 C6672 0.950 . S
H6664 C6674 0.950 . S
H6665 C6676 0.950 . S
H6666 C6678 0.950 . S
H6667 C6679 0.950 . S
C6668 H6660 0.950 . S
C6668 C6669 1.386 . S
C6668 C6670 1.391 . S
C6669 C6668 1.386 . S
C6669 C6673 1.393 . S
C6670 H6662 0.950 . S
C6670 C6668 1.391 . S
C6670 C6671 1.400 . S
C6671 C6670 1.400 . S
C6671 C6672 1.398 . S
C6671 C6677 1.491 . S
C6672 H6663 0.950 . S
C6672 C6671 1.398 . S
C6672 C6673 1.391 . S
C6673 H6661 0.950 . S
C6673 C6669 1.393 . S
C6673 C6672 1.391 . S
C6674 H6664 0.950 . S
C6674 C6675 1.386 . S
C6674 C6676 1.391 . S
C6675 C6674 1.386 . S
C6675 C6679 1.393 . S
C6676 H6665 0.950 . S
C6676 C6674 1.391 . S
C6676 C6677 1.400 . S
C6677 C6671 1.491 . S
C6677 C6676 1.400 . S
C6677 C6678 1.398 . S
C6678 H6666 0.950 . S
C6678 C6677 1.398 . S
C6678 C6679 1.391 . S
C6679 H6667 0.950 . S
C6679 C6675 1.393 . S
C6679 C6678 1.391 . S
H6680 C6688 0.950 . S
H6681 C6693 0.950 . S
H6682 C6690 0.950 . S
H6683 C6692 0.950 . S
H6684 C6694 0.950 . S
H6685 C6696 0.950 . S
H6686 C6698 0.950 . S
H6687 C6699 0.950 . S
C6688 H6680 0.950 . S
C6688 C6689 1.386 . S
C6688 C6690 1.391 . S
C6689 C6688 1.386 . S
C6689 C6693 1.393 . S
C6690 H6682 0.950 . S
C6690 C6688 1.391 . S
C6690 C6691 1.400 . S
C6691 C6690 1.400 . S
C6691 C6692 1.398 . S
C6691 C6697 1.491 . S
C6692 H6683 0.950 . S
C6692 C6691 1.398 . S
C6692 C6693 1.391 . S
C6693 H6681 0.950 . S
C6693 C6689 1.393 . S
C6693 C6692 1.391 . S
C6694 H6684 0.950 . S
C6694 C6695 1.386 . S
C6694 C6696 1.391 . S
C6695 C6694 1.386 . S
C6695 C6699 1.393 . S
C6696 H6685 0.950 . S
C6696 C6694 1.391 . S
C6696 C6697 1.400 . S
C6697 C6691 1.491 . S
C6697 C6696 1.400 . S
C6697 C6698 1.398 . S
C6698 H6686 0.950 . S
C6698 C6697 1.398 . S
C6698 C6699 1.391 . S
C6699 H6687 0.950 . S
C6699 C6695 1.393 . S
C6699 C6698 1.391 . S
H6700 C6708 0.950 . S
H6701 C6713 0.950 . S
H6702 C6710 0.950 . S
H6703 C6712 0.950 . S
H6704 C6714 0.950 . S
H6705 C6716 0.950 . S
H6706 C6718 0.950 . S
H6707 C6719 0.950 . S
C6708 H6700 0.950 . S
C6708 C6709 1.386 . S
C6708 C6710 1.391 . S
C6709 C6708 1.386 . S
C6709 C6713 1.393 . S
C6710 H6702 0.950 . S
C6710 C6708 1.391 . S
C6710 C6711 1.400 . S
C6711 C6710 1.400 . S
C6711 C6712 1.398 . S
C6711 C6717 1.491 . S
C6712 H6703 0.950 . S
C6712 C6711 1.398 . S
C6712 C6713 1.391 . S
C6713 H6701 0.950 . S
C6713 C6709 1.393 . S
C6713 C6712 1.391 . S
C6714 H6704 0.950 . S
C6714 C6715 1.386 . S
C6714 C6716 1.391 . S
C6715 C6714 1.386 . S
C6715 C6719 1.393 . S
C6716 H6705 0.950 . S
C6716 C6714 1.391 . S
C6716 C6717 1.400 . S
C6717 C6711 1.491 . S
C6717 C6716 1.400 . S
C6717 C6718 1.398 . S
C6718 H6706 0.950 . S
C6718 C6717 1.398 . S
C6718 C6719 1.391 . S
C6719 H6707 0.950 . S
C6719 C6715 1.393 . S
C6719 C6718 1.391 . S
C3849 C15 1.521 . S
C3855 C2735 1.522 . S
C3869 C2615 1.515 . S
C3875 C55 1.516 . S
C3889 C95 1.502 . S
C3895 C2655 1.503 . S
C3909 C2695 1.502 . S
C3915 C135 1.503 . S
C3929 C175 1.501 . S
C3935 C2855 1.501 . S
C3949 C2775 1.512 . S
C3955 C215 1.511 . S
C3969 C2815 1.526 . S
C3975 C255 1.526 . S
C3989 C2575 1.503 . S
C3995 C295 1.503 . S
C4009 C335 1.516 . S
C4015 C2535 1.517 . S
C4029 C375 1.510 . S
C4035 C2415 1.509 . S
C4049 C415 1.515 . S
C4055 C2455 1.516 . S
C4069 C455 1.501 . S
C4075 C2495 1.502 . S
C4089 C2295 1.501 . S
C4095 C495 1.501 . S
C4109 C535 1.524 . S
C4115 C2335 1.525 . S
C4129 C2375 1.501 . S
C4135 C575 1.501 . S
C4149 C615 1.519 . S
C4155 C2255 1.518 . S
C4169 C655 1.525 . S
C4175 C2215 1.525 . S
C4189 C695 1.521 . S
C4195 C1975 1.522 . S
C4209 C735 1.523 . S
C4215 C2015 1.523 . S
C4229 C775 1.501 . S
C4235 C2055 1.501 . S
C4249 C1935 1.504 . S
C4255 C815 1.504 . S
C4269 C2135 1.512 . S
C4275 C855 1.513 . S
C4289 C2175 1.519 . S
C4295 C895 1.518 . S
C4309 C935 1.517 . S
C4315 C2095 1.516 . S
C4329 C3695 1.517 . S
C4335 C975 1.516 . S
C4349 C1015 1.515 . S
C4355 C3575 1.517 . S
C4369 C1055 1.496 . S
C4375 C3615 1.495 . S
C4389 C1095 1.515 . S
C4395 C3655 1.513 . S
C4409 C1135 1.508 . S
C4415 C3815 1.506 . S
C4429 C1175 1.504 . S
C4435 C3735 1.506 . S
C4449 C3775 1.496 . S
C4455 C1215 1.498 . S
C4469 C1255 1.505 . S
C4475 C3535 1.503 . S
C4489 C1295 1.494 . S
C4495 C3495 1.493 . S
C4509 C3375 1.513 . S
C4515 C1335 1.514 . S
C4529 C3415 1.515 . S
C4535 C1375 1.514 . S
C4549 C3455 1.518 . S
C4555 C1415 1.517 . S
C4569 C3255 1.502 . S
C4575 C1455 1.500 . S
C4589 C1495 1.499 . S
C4595 C3295 1.497 . S
C4609 C3335 1.509 . S
C4615 C1535 1.507 . S
C4629 C3215 1.493 . S
C4635 C1575 1.494 . S
C4649 C1615 1.501 . S
C4655 C3175 1.503 . S
C4669 C1655 1.501 . S
C4675 C2935 1.499 . S
C4689 C2975 1.510 . S
C4695 C1695 1.512 . S
C4709 C3015 1.502 . S
C4715 C1735 1.504 . S
C4729 C2895 1.511 . S
C4735 C1775 1.509 . S
C4749 C3095 1.514 . S
C4755 C1815 1.513 . S
C4769 C3135 1.492 . S
C4775 C1855 1.492 . S
C4789 C3055 1.502 . S
C4795 C1895 1.504 . S
C4809 C2 1.726 . S
C4815 C1562 1.684 . S
C4829 C1442 1.685 . S
C4835 C42 1.727 . S
C4849 C82 1.727 . S
C4855 C1482 1.685 . S
C4869 C1522 1.697 . S
C4875 C122 1.729 . S
C4889 C162 1.726 . S
C4895 C1322 1.695 . S
C4909 C202 1.727 . S
C4915 C1362 1.684 . S
C4929 C1402 1.700 . S
C4935 C242 1.728 . S
C4949 C282 1.728 . S
C4955 C1282 1.701 . S
C4969 C1242 1.700 . S
C4975 C322 1.728 . S
C4989 C1122 1.693 . S
C4995 C362 1.728 . S
C5009 C402 1.726 . S
C5015 C1162 1.686 . S
C5029 C442 1.728 . S
C5035 C1202 1.701 . S
C5049 C1002 1.692 . S
C5055 C482 1.726 . S
C5069 C522 1.728 . S
C5075 C1042 1.701 . S
C5089 C562 1.727 . S
C5095 C1082 1.685 . S
C5109 C602 1.727 . S
C5115 C962 1.700 . S
C5129 C1762 1.687 . S
C5135 C642 1.726 . S
C5149 C1882 1.685 . S
C5155 C682 1.727 . S
C5169 C722 1.728 . S
C5175 C1802 1.700 . S
C5189 C762 1.727 . S
C5195 C1842 1.684 . S
C5209 C1602 1.689 . S
C5215 C802 1.726 . S
C5229 C1682 1.698 . S
C5235 C842 1.729 . S
C5249 C1722 1.701 . S
C5255 C882 1.728 . S
C5269 C922 1.727 . S
C5275 C1642 1.699 . S
C5289 C3482 1.691 . S
C5295 C1922 1.726 . S
C5309 C3362 1.685 . S
C5315 C1962 1.726 . S
C5329 C3402 1.687 . S
C5335 C2002 1.726 . S
C5349 C2042 1.728 . S
C5355 C3442 1.688 . S
C5369 C3242 1.689 . S
C5375 C2082 1.726 . S
C5389 C2122 1.728 . S
C5395 C3282 1.688 . S
C5409 C3322 1.692 . S
C5415 C2162 1.728 . S
C5429 C3202 1.698 . S
C5435 C2202 1.727 . S
C5449 C2242 1.728 . S
C5455 C3162 1.695 . S
C5469 C2282 1.726 . S
C5475 C3042 1.684 . S
C5489 C3082 1.701 . S
C5495 C2322 1.728 . S
C5509 C3122 1.700 . S
C5515 C2362 1.728 . S
C5529 C2922 1.699 . S
C5535 C2402 1.729 . S
C5549 C2962 1.694 . S
C5555 C2442 1.728 . S
C5569 C3002 1.699 . S
C5575 C2482 1.727 . S
C5589 C2522 1.726 . S
C5595 C2882 1.696 . S
C5609 C3682 1.684 . S
C5615 C2562 1.726 . S
C5629 C3802 1.685 . S
C5635 C2602 1.726 . S
C5649 C2642 1.728 . S
C5655 C3722 1.689 . S
C5669 C2682 1.727 . S
C5675 C3762 1.685 . S
C5689 C2722 1.728 . S
C5695 C3522 1.688 . S
C5709 C2762 1.728 . S
C5715 C3602 1.701 . S
C5729 C3642 1.696 . S
C5735 C2802 1.729 . S
C5749 C3562 1.690 . S
C5755 C2842 1.728 . S
C5769 C1141 1.503 . S
C5775 C21 1.528 . S
C5789 C1181 1.479 . S
C5795 C61 1.531 . S
C5809 C1221 1.504 . S
C5815 C101 1.524 . S
C5829 C1261 1.503 . S
C5835 C141 1.528 . S
C5849 C981 1.504 . S
C5855 C181 1.524 . S
C5869 C221 1.523 . S
C5875 C1021 1.503 . S
C5889 C261 1.533 . S
C5895 C1061 1.495 . S
C5909 C1101 1.481 . S
C5915 C301 1.534 . S
C5929 C1541 1.486 . S
C5935 C341 1.535 . S
C5949 C381 1.521 . S
C5955 C1581 1.494 . S
C5969 C421 1.534 . S
C5975 C1461 1.481 . S
C5989 C1501 1.486 . S
C5995 C461 1.535 . S
C6009 C501 1.522 . S
C6015 C1381 1.502 . S
C6029 C541 1.527 . S
C6035 C1421 1.480 . S
C6049 C581 1.520 . S
C6055 C1301 1.496 . S
C6069 C1341 1.497 . S
C6075 C621 1.520 . S
C6089 C1821 1.498 . S
C6095 C661 1.532 . S
C6109 C1741 1.504 . S
C6115 C701 1.524 . S
C6129 C1781 1.479 . S
C6135 C741 1.531 . S
C6149 C1661 1.479 . S
C6155 C781 1.531 . S
C6169 C821 1.535 . S
C6175 C1701 1.489 . S
C6189 C1621 1.479 . S
C6195 C861 1.531 . S
C6209 C1901 1.488 . S
C6215 C901 1.535 . S
C6229 C1861 1.503 . S
C6235 C941 1.528 . S
C6249 C1941 1.521 . S
C6255 C3061 1.493 . S
C6269 C1981 1.524 . S
C6275 C3101 1.485 . S
C6289 C2021 1.534 . S
C6295 C3141 1.494 . S
C6309 C3181 1.489 . S
C6315 C2061 1.535 . S
C6329 C2901 1.486 . S
C6335 C2101 1.523 . S
C6349 C2141 1.533 . S
C6355 C2941 1.497 . S
C6369 C2981 1.504 . S
C6375 C2181 1.523 . S
C6389 C3021 1.480 . S
C6395 C2221 1.529 . S
C6409 C2261 1.533 . S
C6415 C3461 1.496 . S
C6429 C2301 1.532 . S
C6435 C3501 1.499 . S
C6449 C2341 1.525 . S
C6455 C3381 1.482 . S
C6469 C3421 1.480 . S
C6475 C2381 1.533 . S
C6489 C2421 1.525 . S
C6495 C3301 1.504 . S
C6509 C2461 1.535 . S
C6515 C3341 1.490 . S
C6529 C2501 1.522 . S
C6535 C3221 1.489 . S
C6549 C2541 1.525 . S
C6555 C3261 1.504 . S
C6569 C2581 1.522 . S
C6575 C3741 1.502 . S
C6589 C3661 1.486 . S
C6595 C2621 1.535 . S
C6609 C2661 1.530 . S
C6615 C3701 1.502 . S
C6629 C3581 1.489 . S
C6635 C2701 1.522 . S
C6649 C3621 1.479 . S
C6655 C2741 1.532 . S
C6669 C2781 1.535 . S
C6675 C3541 1.488 . S
C6689 C3821 1.491 . S
C6695 C2821 1.535 . S
C6709 C3781 1.502 . S
C6715 C2861 1.522 . S
