# Generated by pormake.
# Topology snl, (6)-cn, num edge types: 1
# Building blocks:
#     Node 0, Type 0, BuildingBlock: BETFAJ_clean_sbu_0, # of connection points: 6
#     Node 1, Type 0, BuildingBlock: BETFAJ_clean_sbu_0, # of connection points: 6
#     Node 2, Type 0, BuildingBlock: BETFAJ_clean_sbu_0, # of connection points: 6
#     Node 3, Type 0, BuildingBlock: BETFAJ_clean_sbu_0, # of connection points: 6
#     Node 4, Type 0, BuildingBlock: BETFAJ_clean_sbu_0, # of connection points: 6
#     Node 5, Type 0, BuildingBlock: BETFAJ_clean_sbu_0, # of connection points: 6
#     Node 6, Type 0, BuildingBlock: BETFAJ_clean_sbu_0, # of connection points: 6
#     Node 7, Type 0, BuildingBlock: BETFAJ_clean_sbu_0, # of connection points: 6
#     Node 8, Type 0, BuildingBlock: BETFAJ_clean_sbu_0, # of connection points: 6
#     Node 9, Type 0, BuildingBlock: BETFAJ_clean_sbu_0, # of connection points: 6
#     Node 10, Type 0, BuildingBlock: BETFAJ_clean_sbu_0, # of connection points: 6
#     Node 11, Type 0, BuildingBlock: BETFAJ_clean_sbu_0, # of connection points: 6
#     Node 12, Type 0, BuildingBlock: BETFAJ_clean_sbu_0, # of connection points: 6
#     Node 13, Type 0, BuildingBlock: BETFAJ_clean_sbu_0, # of connection points: 6
#     Node 14, Type 0, BuildingBlock: BETFAJ_clean_sbu_0, # of connection points: 6
#     Node 15, Type 0, BuildingBlock: BETFAJ_clean_sbu_0, # of connection points: 6
#     Edge 16, Type (0, 0), BuildingBlock: XUDNAN_clean_linker_2, # of connection points: 2
#     Edge 17, Type (0, 0), BuildingBlock: XUDNAN_clean_linker_2, # of connection points: 2
#     Edge 18, Type (0, 0), BuildingBlock: XUDNAN_clean_linker_2, # of connection points: 2
#     Edge 19, Type (0, 0), BuildingBlock: XUDNAN_clean_linker_2, # of connection points: 2
#     Edge 20, Type (0, 0), BuildingBlock: XUDNAN_clean_linker_2, # of connection points: 2
#     Edge 21, Type (0, 0), BuildingBlock: XUDNAN_clean_linker_2, # of connection points: 2
#     Edge 22, Type (0, 0), BuildingBlock: XUDNAN_clean_linker_2, # of connection points: 2
#     Edge 23, Type (0, 0), BuildingBlock: XUDNAN_clean_linker_2, # of connection points: 2
#     Edge 24, Type (0, 0), BuildingBlock: XUDNAN_clean_linker_2, # of connection points: 2
#     Edge 25, Type (0, 0), BuildingBlock: XUDNAN_clean_linker_2, # of connection points: 2
#     Edge 26, Type (0, 0), BuildingBlock: XUDNAN_clean_linker_2, # of connection points: 2
#     Edge 27, Type (0, 0), BuildingBlock: XUDNAN_clean_linker_2, # of connection points: 2
#     Edge 28, Type (0, 0), BuildingBlock: XUDNAN_clean_linker_2, # of connection points: 2
#     Edge 29, Type (0, 0), BuildingBlock: XUDNAN_clean_linker_2, # of connection points: 2
#     Edge 30, Type (0, 0), BuildingBlock: XUDNAN_clean_linker_2, # of connection points: 2
#     Edge 31, Type (0, 0), BuildingBlock: XUDNAN_clean_linker_2, # of connection points: 2
#     Edge 32, Type (0, 0), BuildingBlock: XUDNAN_clean_linker_2, # of connection points: 2
#     Edge 33, Type (0, 0), BuildingBlock: XUDNAN_clean_linker_2, # of connection points: 2
#     Edge 34, Type (0, 0), BuildingBlock: XUDNAN_clean_linker_2, # of connection points: 2
#     Edge 35, Type (0, 0), BuildingBlock: XUDNAN_clean_linker_2, # of connection points: 2
#     Edge 36, Type (0, 0), BuildingBlock: XUDNAN_clean_linker_2, # of connection points: 2
#     Edge 37, Type (0, 0), BuildingBlock: XUDNAN_clean_linker_2, # of connection points: 2
#     Edge 38, Type (0, 0), BuildingBlock: XUDNAN_clean_linker_2, # of connection points: 2
#     Edge 39, Type (0, 0), BuildingBlock: XUDNAN_clean_linker_2, # of connection points: 2
#     Edge 40, Type (0, 0), BuildingBlock: XUDNAN_clean_linker_2, # of connection points: 2
#     Edge 41, Type (0, 0), BuildingBlock: XUDNAN_clean_linker_2, # of connection points: 2
#     Edge 42, Type (0, 0), BuildingBlock: XUDNAN_clean_linker_2, # of connection points: 2
#     Edge 43, Type (0, 0), BuildingBlock: XUDNAN_clean_linker_2, # of connection points: 2
#     Edge 44, Type (0, 0), BuildingBlock: XUDNAN_clean_linker_2, # of connection points: 2
#     Edge 45, Type (0, 0), BuildingBlock: XUDNAN_clean_linker_2, # of connection points: 2
#     Edge 46, Type (0, 0), BuildingBlock: XUDNAN_clean_linker_2, # of connection points: 2
#     Edge 47, Type (0, 0), BuildingBlock: XUDNAN_clean_linker_2, # of connection points: 2
#     Edge 48, Type (0, 0), BuildingBlock: XUDNAN_clean_linker_2, # of connection points: 2
#     Edge 49, Type (0, 0), BuildingBlock: XUDNAN_clean_linker_2, # of connection points: 2
#     Edge 50, Type (0, 0), BuildingBlock: XUDNAN_clean_linker_2, # of connection points: 2
#     Edge 51, Type (0, 0), BuildingBlock: XUDNAN_clean_linker_2, # of connection points: 2
#     Edge 52, Type (0, 0), BuildingBlock: XUDNAN_clean_linker_2, # of connection points: 2
#     Edge 53, Type (0, 0), BuildingBlock: XUDNAN_clean_linker_2, # of connection points: 2
#     Edge 54, Type (0, 0), BuildingBlock: XUDNAN_clean_linker_2, # of connection points: 2
#     Edge 55, Type (0, 0), BuildingBlock: XUDNAN_clean_linker_2, # of connection points: 2
#     Edge 56, Type (0, 0), BuildingBlock: XUDNAN_clean_linker_2, # of connection points: 2
#     Edge 57, Type (0, 0), BuildingBlock: XUDNAN_clean_linker_2, # of connection points: 2
#     Edge 58, Type (0, 0), BuildingBlock: XUDNAN_clean_linker_2, # of connection points: 2
#     Edge 59, Type (0, 0), BuildingBlock: XUDNAN_clean_linker_2, # of connection points: 2
#     Edge 60, Type (0, 0), BuildingBlock: XUDNAN_clean_linker_2, # of connection points: 2
#     Edge 61, Type (0, 0), BuildingBlock: XUDNAN_clean_linker_2, # of connection points: 2
#     Edge 62, Type (0, 0), BuildingBlock: XUDNAN_clean_linker_2, # of connection points: 2
#     Edge 63, Type (0, 0), BuildingBlock: XUDNAN_clean_linker_2, # of connection points: 2
# Relax obj value: 0.189
# Max RMSD: 0.253
# Mean RMSD: 0.225
data_MOF--net-snl--node1-BETFAJ_clean_sbu_0--edge1-XUDNAN_clean_linker_2
_symmetry_space_group_name_H-M    P1
_symmetry_Int_Tables_number       1
_symmetry_cell_setting            triclinic
loop_
_symmetry_equiv_pos_as_xyz
'x, y, z'
_cell_length_a     56.785499
_cell_length_b     57.15068
_cell_length_c     25.91118
_cell_angle_alpha  102.71055
_cell_angle_beta   90.051845
_cell_angle_gamma 90.253059
loop_
_atom_site_label
_atom_site_type_symbol
_atom_site_fract_x
_atom_site_fract_y
_atom_site_fract_z
_atom_type_partial_charge
Sm0 Sm 0.15517 0.63789 0.10113 0.0
Sm1 Sm 0.13784 0.63565 0.20582 0.0
C2 C 0.16575 0.63258 0.99979 0.0
C3 C 0.15716 0.63189 0.94583 0.0
C4 C 0.14763 0.61069 0.9148 0.0
C5 C 0.14425 0.60849 0.86065 0.0
C6 C 0.15047 0.62738 0.83653 0.0
C7 C 0.1585 0.64914 0.86813 0.0
C8 C 0.16187 0.65134 0.92233 0.0
C9 C 0.14905 0.68291 0.16582 0.0
C10 C 0.09799 0.63651 0.1223 0.0
C11 C 0.12761 0.64292 0.30747 0.0
C12 C 0.13536 0.63798 0.35816 0.0
C13 C 0.14265 0.65707 0.39901 0.0
C14 C 0.14745 0.65326 0.44931 0.0
C15 C 0.14486 0.63027 0.45973 0.0
C16 C 0.138 0.6111 0.41841 0.0
C17 C 0.13343 0.61487 0.36807 0.0
C18 C 0.14219 0.59096 0.1388 0.0
C19 C 0.19511 0.63592 0.18831 0.0
O20 O 0.16049 0.61466 0.02159 0.0
O21 O 0.16631 0.65326 0.03344 0.0
O22 O 0.13496 0.66541 0.16101 0.0
O23 O 0.16782 0.67616 0.13829 0.0
O24 O 0.11495 0.63026 0.08715 0.0
O25 O 0.10291 0.64428 0.17253 0.0
O26 O 0.14032 0.65791 0.28747 0.0
O27 O 0.11918 0.62498 0.27179 0.0
O28 O 0.15697 0.60786 0.14377 0.0
O29 O 0.12463 0.59712 0.17065 0.0
O30 O 0.17768 0.63939 0.22261 0.0
O31 O 0.19109 0.63251 0.13712 0.0
H32 H 0.14385 0.59535 0.93169 0.0
H33 H 0.13764 0.59166 0.83726 0.0
H34 H 0.16357 0.66394 0.85056 0.0
H35 H 0.16943 0.66782 0.94525 0.0
H36 H 0.14412 0.67509 0.39235 0.0
H37 H 0.15302 0.66834 0.48007 0.0
H38 H 0.13542 0.59324 0.42524 0.0
H39 H 0.12769 0.5998 0.33748 0.0
Sm40 Sm 0.65497 0.88821 0.4384 0.0
Sm41 Sm 0.63909 0.89183 0.33337 0.0
C42 C 0.67123 0.89354 0.53607 0.0
C43 C 0.66483 0.88881 0.58818 0.0
C44 C 0.65533 0.90718 0.6278 0.0
C45 C 0.65091 0.90337 0.67839 0.0
C46 C 0.65604 0.88115 0.69055 0.0
C47 C 0.66546 0.86279 0.65078 0.0
C48 C 0.66974 0.86654 0.6002 0.0
C49 C 0.64032 0.84415 0.3796 0.0
C50 C 0.59908 0.88973 0.41694 0.0
C51 C 0.62754 0.89105 0.23407 0.0
C52 C 0.63501 0.8878 0.17864 0.0
C53 C 0.64469 0.86623 0.15034 0.0
C54 C 0.64843 0.86278 0.09585 0.0
C55 C 0.64238 0.88076 0.0688 0.0
C56 C 0.63367 0.90269 0.09788 0.0
C57 C 0.63007 0.90615 0.15222 0.0
C58 C 0.64128 0.93481 0.40766 0.0
C59 C 0.69562 0.88865 0.34812 0.0
O60 O 0.65932 0.91012 0.51979 0.0
O61 O 0.67633 0.87512 0.49787 0.0
O62 O 0.65277 0.85928 0.36245 0.0
O63 O 0.63389 0.85334 0.42774 0.0
O64 O 0.61558 0.89821 0.45211 0.0
O65 O 0.6047 0.88108 0.36729 0.0
O66 O 0.62578 0.87225 0.25501 0.0
O67 O 0.63492 0.91031 0.26724 0.0
O68 O 0.65665 0.91881 0.39862 0.0
O69 O 0.62298 0.92834 0.37791 0.0
O70 O 0.67848 0.89052 0.31513 0.0
O71 O 0.69139 0.88715 0.39748 0.0
H72 H 0.65156 0.92463 0.61992 0.0
H73 H 0.64341 0.91782 0.70785 0.0
H74 H 0.67008 0.8456 0.65896 0.0
H75 H 0.67735 0.8521 0.57087 0.0
H76 H 0.64876 0.85182 0.16989 0.0
H77 H 0.65562 0.84586 0.07474 0.0
H78 H 0.62857 0.91683 0.07841 0.0
H79 H 0.62246 0.92289 0.17333 0.0
Sm80 Sm 0.3864 0.41015 0.68783 0.0
Sm81 Sm 0.37618 0.39026 0.57626 0.0
C82 C 0.38559 0.42339 0.79294 0.0
C83 C 0.38604 0.41519 0.84334 0.0
C84 C 0.36629 0.41894 0.87674 0.0
C85 C 0.36709 0.41362 0.92695 0.0
C86 C 0.38775 0.40448 0.94496 0.0
C87 C 0.40748 0.40066 0.91128 0.0
C88 C 0.40662 0.40586 0.86107 0.0
C89 C 0.42704 0.40542 0.62893 0.0
C90 C 0.38764 0.35067 0.63984 0.0
C91 C 0.36785 0.37952 0.47309 0.0
C92 C 0.37353 0.38581 0.42219 0.0
C93 C 0.39638 0.38316 0.40106 0.0
C94 C 0.40049 0.38561 0.34933 0.0
C95 C 0.38186 0.3907 0.31768 0.0
C96 C 0.3593 0.39472 0.34001 0.0
C97 C 0.35519 0.39223 0.39174 0.0
C98 C 0.33798 0.39213 0.64298 0.0
C99 C 0.38719 0.44649 0.60888 0.0
O100 O 0.36658 0.41924 0.76382 0.0
O101 O 0.40486 0.42161 0.76487 0.0
O102 O 0.41045 0.39015 0.62271 0.0
O103 O 0.42212 0.42394 0.6662 0.0
O104 O 0.38473 0.36814 0.68285 0.0
O105 O 0.38816 0.35547 0.59268 0.0
O106 O 0.38407 0.36903 0.49581 0.0
O107 O 0.35511 0.39468 0.50674 0.0
O108 O 0.35253 0.40893 0.64371 0.0
O109 O 0.3436 0.37353 0.60702 0.0
O110 O 0.39096 0.4268 0.57328 0.0
O111 O 0.38122 0.44552 0.65777 0.0
H112 H 0.35028 0.42639 0.86433 0.0
H113 H 0.35149 0.41656 0.95147 0.0
H114 H 0.42385 0.39409 0.92407 0.0
H115 H 0.42229 0.40304 0.83671 0.0
H116 H 0.41093 0.37838 0.42369 0.0
H117 H 0.41816 0.38286 0.33355 0.0
H118 H 0.34456 0.39854 0.31666 0.0
H119 H 0.33741 0.39431 0.40717 0.0
Sm120 Sm 0.88983 0.11163 0.83462 0.0
Sm121 Sm 0.87826 0.13589 0.95616 0.0
C122 C 0.88544 0.09289 0.73159 0.0
C123 C 0.8846 0.10026 0.6802 0.0
C124 C 0.86688 0.11545 0.66901 0.0
C125 C 0.86583 0.1216 0.61989 0.0
C126 C 0.88258 0.11283 0.58052 0.0
C127 C 0.90023 0.0974 0.59135 0.0
C128 C 0.90124 0.09122 0.64077 0.0
C129 C 0.93141 0.12232 0.88924 0.0
C130 C 0.889 0.17091 0.87668 0.0
C131 C 0.87544 0.1507 0.05997 0.0
C132 C 0.87509 0.14354 0.11128 0.0
C133 C 0.89382 0.13128 0.12904 0.0
C134 C 0.894 0.12796 0.18116 0.0
C135 C 0.87556 0.13702 0.21598 0.0
C136 C 0.8563 0.14793 0.19684 0.0
C137 C 0.85611 0.15118 0.14518 0.0
C138 C 0.84175 0.13278 0.88562 0.0
C139 C 0.88494 0.07735 0.9221 0.0
O140 O 0.86752 0.09832 0.76366 0.0
O141 O 0.90562 0.09515 0.75646 0.0
O142 O 0.91096 0.12613 0.90836 0.0
O143 O 0.93021 0.11318 0.83894 0.0
O144 O 0.88647 0.15233 0.8359 0.0
O145 O 0.89014 0.16855 0.92625 0.0
O146 O 0.89537 0.14983 0.03406 0.0
O147 O 0.85701 0.14492 0.02936 0.0
O148 O 0.85729 0.11693 0.8851 0.0
O149 O 0.8441 0.15032 0.92664 0.0
O150 O 0.88045 0.09652 0.95933 0.0
O151 O 0.88877 0.07811 0.87183 0.0
H152 H 0.85365 0.12247 0.69787 0.0
H153 H 0.85169 0.13315 0.61266 0.0
H154 H 0.9135 0.09046 0.56206 0.0
H155 H 0.91502 0.07933 0.64818 0.0
H156 H 0.90864 0.12506 0.10346 0.0
H157 H 0.90904 0.11946 0.19497 0.0
H158 H 0.84167 0.15472 0.22252 0.0
H159 H 0.84145 0.16058 0.13233 0.0
Sm160 Sm 0.15533 0.39286 0.94609 0.0
Sm161 Sm 0.14035 0.38666 0.83163 0.0
C162 C 0.16338 0.41162 0.04719 0.0
C163 C 0.15979 0.40507 0.09847 0.0
C164 C 0.15055 0.42209 0.14088 0.0
C165 C 0.14715 0.41639 0.1901 0.0
C166 C 0.15302 0.39352 0.19782 0.0
C167 C 0.16229 0.3765 0.15505 0.0
C168 C 0.16546 0.38213 0.10576 0.0
C169 C 0.14998 0.34404 0.90957 0.0
C170 C 0.09974 0.38614 0.91385 0.0
C171 C 0.13228 0.37402 0.7286 0.0
C172 C 0.13891 0.37723 0.67549 0.0
C173 C 0.15067 0.3586 0.64098 0.0
C174 C 0.15322 0.35898 0.58769 0.0
C175 C 0.14389 0.37789 0.56761 0.0
C176 C 0.13338 0.3973 0.60267 0.0
C177 C 0.13084 0.39695 0.6562 0.0
C178 C 0.13889 0.43321 0.89074 0.0
C179 C 0.19669 0.39243 0.85708 0.0
O180 O 0.14434 0.41608 0.02259 0.0
O181 O 0.17915 0.39944 1.01547 0.0
O182 O 0.14652 0.35933 0.88156 0.0
O183 O 0.15575 0.35449 0.95729 0.0
O184 O 0.11499 0.39779 0.94869 0.0
O185 O 0.10666 0.37494 0.86654 0.0
O186 O 0.14685 0.36254 0.7533 0.0
O187 O 0.12116 0.39144 0.76024 0.0
O188 O 0.15513 0.41841 0.89208 0.0
O189 O 0.12332 0.42404 0.85535 0.0
O190 O 0.18008 0.39016 0.82086 0.0
O191 O 0.19201 0.39394 0.90771 0.0
H192 H 0.14586 0.43981 0.13588 0.0
H193 H 0.13963 0.42982 0.22181 0.0
H194 H 0.16738 0.35884 0.15969 0.0
H195 H 0.17247 0.36859 0.07355 0.0
H196 H 0.15696 0.34314 0.65462 0.0
H197 H 0.16182 0.34399 0.56177 0.0
H198 H 0.12597 0.41209 0.58825 0.0
H199 H 0.12159 0.41155 0.68177 0.0
Sm200 Sm 0.88484 0.91051 0.18957 0.0
Sm201 Sm 0.87735 0.88604 0.07153 0.0
C202 C 0.87432 0.92503 0.2914 0.0
C203 C 0.87885 0.92022 0.34432 0.0
C204 C 0.85994 0.92142 0.37961 0.0
C205 C 0.86325 0.91679 0.42993 0.0
C206 C 0.88562 0.91077 0.44619 0.0
C207 C 0.90464 0.9097 0.41073 0.0
C208 C 0.90129 0.91429 0.36022 0.0
C209 C 0.92899 0.90123 0.14707 0.0
C210 C 0.89162 0.85139 0.1458 0.0
C211 C 0.87037 0.87461 0.9679 0.0
C212 C 0.87586 0.88135 0.91719 0.0
C213 C 0.8987 0.87938 0.89599 0.0
C214 C 0.90273 0.8829 0.84493 0.0
C215 C 0.88401 0.88831 0.81379 0.0
C216 C 0.86138 0.89137 0.83616 0.0
C217 C 0.85738 0.8879 0.88723 0.0
C218 C 0.83885 0.88827 0.1374 0.0
C219 C 0.88857 0.9434 0.1026 0.0
O220 O 0.8623 0.90867 0.25846 0.0
O221 O 0.89113 0.93478 0.26835 0.0
O222 O 0.90994 0.89611 0.12146 0.0
O223 O 0.92494 0.91083 0.19642 0.0
O224 O 0.88556 0.86914 0.18596 0.0
O225 O 0.89307 0.85418 0.09682 0.0
O226 O 0.88697 0.86499 0.99167 0.0
O227 O 0.8566 0.88902 1.00076 0.0
O228 O 0.85318 0.90514 0.1367 0.0
O229 O 0.84507 0.86912 0.10349 0.0
O230 O 0.89093 0.92293 0.06824 0.0
O231 O 0.88266 0.94429 0.15257 0.0
H232 H 0.84245 0.9258 0.36799 0.0
H233 H 0.84812 0.91741 0.45559 0.0
H234 H 0.92219 0.9054 0.42204 0.0
H235 H 0.91617 0.91315 0.33368 0.0
H236 H 0.91337 0.87452 0.91817 0.0
H237 H 0.92049 0.88091 0.82946 0.0
H238 H 0.84651 0.89536 0.81341 0.0
H239 H 0.83958 0.88947 0.90261 0.0
Sm240 Sm 0.3897 0.61305 0.33851 0.0
Sm241 Sm 0.37807 0.63739 0.45914 0.0
C242 C 0.38348 0.59535 0.23568 0.0
C243 C 0.38616 0.60216 0.18396 0.0
C244 C 0.36601 0.60545 0.15482 0.0
C245 C 0.36806 0.6107 0.10471 0.0
C246 C 0.39036 0.61275 0.08253 0.0
C247 C 0.41051 0.60936 0.11175 0.0
C248 C 0.40845 0.60421 0.16189 0.0
C249 C 0.4315 0.6232 0.39196 0.0
C250 C 0.38958 0.67263 0.37996 0.0
C251 C 0.37417 0.65113 0.56307 0.0
C252 C 0.3783 0.64343 0.6132 0.0
C253 C 0.40112 0.63951 0.63034 0.0
C254 C 0.40475 0.63534 0.68093 0.0
C255 C 0.38569 0.6351 0.71555 0.0
C256 C 0.36276 0.63776 0.69723 0.0
C257 C 0.35914 0.64193 0.64661 0.0
C258 C 0.34161 0.63408 0.38851 0.0
C259 C 0.38563 0.57882 0.42546 0.0
O260 O 0.36701 0.60621 0.26699 0.0
O261 O 0.40251 0.59168 0.2613 0.0
O262 O 0.41122 0.62762 0.41202 0.0
O263 O 0.43003 0.61398 0.34167 0.0
O264 O 0.389 0.65383 0.33932 0.0
O265 O 0.38819 0.67085 0.42988 0.0
O266 O 0.39253 0.65627 0.53672 0.0
O267 O 0.35718 0.64033 0.53258 0.0
O268 O 0.35705 0.6182 0.38851 0.0
O269 O 0.344 0.65177 0.42914 0.0
O270 O 0.38269 0.5982 0.46309 0.0
O271 O 0.38779 0.57931 0.37467 0.0
H272 H 0.34858 0.60386 0.17075 0.0
H273 H 0.35218 0.61345 0.08371 0.0
H274 H 0.42798 0.61037 0.09562 0.0
H275 H 0.42435 0.60162 0.183 0.0
H276 H 0.41625 0.64034 0.60539 0.0
H277 H 0.4226 0.63285 0.6934 0.0
H278 H 0.3477 0.6378 0.72286 0.0
H279 H 0.34136 0.6449 0.6343 0.0
Sm280 Sm 0.65452 0.13497 0.59431 0.0
Sm281 Sm 0.63862 0.14015 0.71011 0.0
C282 C 0.6639 0.11587 0.49426 0.0
C283 C 0.65844 0.11774 0.4399 0.0
C284 C 0.65778 0.09659 0.40075 0.0
C285 C 0.65326 0.09728 0.34833 0.0
C286 C 0.64899 0.11919 0.33384 0.0
C287 C 0.64974 0.14055 0.37322 0.0
C288 C 0.65438 0.13983 0.42604 0.0
C289 C 0.64681 0.18302 0.63317 0.0
C290 C 0.59883 0.14085 0.62715 0.0
C291 C 0.62962 0.15158 0.81262 0.0
C292 C 0.6354 0.14598 0.86375 0.0
C293 C 0.63434 0.1644 0.90936 0.0
C294 C 0.63644 0.15923 0.95934 0.0
C295 C 0.63965 0.13548 0.96443 0.0
C296 C 0.64204 0.11722 0.9184 0.0
C297 C 0.63991 0.12242 0.86839 0.0
C298 C 0.64125 0.09415 0.64853 0.0
C299 C 0.6954 0.1371 0.68594 0.0
O300 O 0.64702 0.10795 0.52051 0.0
O301 O 0.6767 0.13298 0.52328 0.0
O302 O 0.64405 0.16703 0.65946 0.0
O303 O 0.65345 0.17366 0.5854 0.0
O304 O 0.61381 0.12897 0.59191 0.0
O305 O 0.60636 0.1529 0.67329 0.0
O306 O 0.64573 0.16251 0.79041 0.0
O307 O 0.61767 0.13543 0.77891 0.0
O308 O 0.65593 0.11072 0.6508 0.0
O309 O 0.62402 0.1011 0.68106 0.0
O310 O 0.67853 0.14038 0.72174 0.0
O311 O 0.69087 0.1338 0.63461 0.0
H312 H 0.66097 0.07942 0.41071 0.0
H313 H 0.65337 0.08054 0.31899 0.0
H314 H 0.64638 0.1577 0.36338 0.0
H315 H 0.65476 0.15641 0.45588 0.0
H316 H 0.63089 0.18269 0.90637 0.0
H317 H 0.63437 0.17366 0.99392 0.0
H318 H 0.64498 0.09881 0.92108 0.0
H319 H 0.641 0.10796 0.83355 0.0
Sm320 Sm 0.88783 0.38761 0.82845 0.0
Sm321 Sm 0.87093 0.39255 0.94342 0.0
C322 C 0.89806 0.37757 0.72632 0.0
C323 C 0.88987 0.37804 0.67257 0.0
C324 C 0.88779 0.35626 0.63542 0.0
C325 C 0.8828 0.35596 0.58266 0.0
C326 C 0.8796 0.37748 0.56578 0.0
C327 C 0.88135 0.39938 0.60318 0.0
C328 C 0.88645 0.39967 0.65618 0.0
C329 C 0.88629 0.43341 0.89173 0.0
C330 C 0.83112 0.39178 0.85096 0.0
C331 C 0.86192 0.41039 0.04424 0.0
C332 C 0.86588 0.40427 0.09568 0.0
C333 C 0.86563 0.42253 0.14163 0.0
C334 C 0.86744 0.41697 0.19135 0.0
C335 C 0.86955 0.39299 0.19581 0.0
C336 C 0.87085 0.37481 0.14939 0.0
C337 C 0.86902 0.3804 0.0997 0.0
C338 C 0.87805 0.34427 0.90368 0.0
C339 C 0.92722 0.38698 0.91341 0.0
O340 O 0.88815 0.36213 0.75016 0.0
O341 O 0.90346 0.39793 0.75836 0.0
O342 O 0.87085 0.41744 0.88846 0.0
O343 O 0.90349 0.42596 0.85953 0.0
O344 O 0.84779 0.38551 0.81522 0.0
O345 O 0.8357 0.39751 0.90234 0.0
O346 O 0.88057 0.41644 0.02033 0.0
O347 O 0.84711 0.39662 1.01219 0.0
O348 O 0.88131 0.36048 0.87816 0.0
O349 O 0.87025 0.35345 0.95056 0.0
O350 O 0.91154 0.39798 0.94808 0.0
O351 O 0.921 0.37647 0.86504 0.0
H352 H 0.89073 0.33938 0.6469 0.0
H353 H 0.88208 0.33879 0.55482 0.0
H354 H 0.87878 0.41627 0.59155 0.0
H355 H 0.8881 0.41678 0.68396 0.0
H356 H 0.86337 0.44106 0.13908 0.0
H357 H 0.86624 0.43136 0.22626 0.0
H358 H 0.87293 0.35621 0.1515 0.0
H359 H 0.86955 0.36606 0.06456 0.0
Sm360 Sm 0.38653 0.13647 0.70694 0.0
Sm361 Sm 0.37103 0.13602 0.6009 0.0
C362 C 0.3961 0.14551 0.8091 0.0
C363 C 0.39003 0.14081 0.86075 0.0
C364 C 0.39171 0.15976 0.90522 0.0
C365 C 0.38987 0.15541 0.95589 0.0
C366 C 0.38627 0.13197 0.96279 0.0
C367 C 0.38313 0.1132 0.91795 0.0
C368 C 0.38504 0.11757 0.8672 0.0
C369 C 0.38553 0.09071 0.64231 0.0
C370 C 0.32982 0.13347 0.68492 0.0
C371 C 0.36225 0.12933 0.49822 0.0
C372 C 0.37184 0.12792 0.44481 0.0
C373 C 0.37278 0.10555 0.40936 0.0
C374 C 0.37823 0.10401 0.35633 0.0
C375 C 0.38297 0.12481 0.33755 0.0
C376 C 0.38266 0.14721 0.37334 0.0
C377 C 0.3771 0.14876 0.42652 0.0
C378 C 0.37343 0.18226 0.663 0.0
C379 C 0.42751 0.13927 0.62903 0.0
O380 O 0.3815 0.1585 0.78821 0.0
O381 O 0.40592 0.12815 0.77452 0.0
O382 O 0.36974 0.10637 0.64488 0.0
O383 O 0.4026 0.09898 0.67447 0.0
O384 O 0.34664 0.1377 0.72064 0.0
O385 O 0.33445 0.13012 0.63401 0.0
O386 O 0.36677 0.1118 0.52166 0.0
O387 O 0.36156 0.15027 0.53081 0.0
O388 O 0.38865 0.16599 0.66093 0.0
O389 O 0.35535 0.17313 0.63511 0.0
O390 O 0.41187 0.12992 0.59235 0.0
O391 O 0.42033 0.14935 0.67663 0.0
H392 H 0.39558 0.17781 0.90079 0.0
H393 H 0.39254 0.17022 0.98954 0.0
H394 H 0.37987 0.09501 0.92211 0.0
H395 H 0.38349 0.10271 0.83324 0.0
H396 H 0.36839 0.08925 0.42216 0.0
H397 H 0.37784 0.08651 0.32969 0.0
H398 H 0.38645 0.16355 0.3602 0.0
H399 H 0.37629 0.16632 0.45283 0.0
Sm400 Sm 0.64983 0.6397 0.46243 0.0
Sm401 Sm 0.64258 0.61518 0.34172 0.0
C402 C 0.65479 0.65113 0.56637 0.0
C403 C 0.64932 0.64362 0.61613 0.0
C404 C 0.62663 0.6462 0.63804 0.0
C405 C 0.62264 0.64235 0.68874 0.0
C406 C 0.64127 0.63608 0.71889 0.0
C407 C 0.6637 0.63228 0.69575 0.0
C408 C 0.66767 0.63603 0.64493 0.0
C409 C 0.68883 0.6366 0.39767 0.0
C410 C 0.64477 0.58222 0.42925 0.0
C411 C 0.65278 0.60008 0.24017 0.0
C412 C 0.64797 0.60435 0.18708 0.0
C413 C 0.6669 0.60373 0.15206 0.0
C414 C 0.66337 0.60813 0.10168 0.0
C415 C 0.64077 0.61337 0.08531 0.0
C416 C 0.62174 0.61383 0.12043 0.0
C417 C 0.62531 0.60942 0.17097 0.0
C418 C 0.59875 0.62368 0.38759 0.0
C419 C 0.64073 0.67499 0.38592 0.0
O420 O 0.63768 0.65942 0.54136 0.0
O421 O 0.67007 0.63818 0.53466 0.0
O422 O 0.67359 0.62038 0.39666 0.0
O423 O 0.68372 0.65535 0.43386 0.0
O424 O 0.63799 0.60172 0.46282 0.0
O425 O 0.65039 0.58254 0.37969 0.0
O426 O 0.66459 0.61696 0.27227 0.0
O427 O 0.63625 0.59024 0.26389 0.0
O428 O 0.6183 0.62882 0.41053 0.0
O429 O 0.60193 0.61377 0.33807 0.0
O430 O 0.64455 0.65646 0.34576 0.0
O431 O 0.63812 0.67267 0.43505 0.0
H432 H 0.61207 0.65192 0.61682 0.0
H433 H 0.605 0.64487 0.70482 0.0
H434 H 0.6785 0.62759 0.71778 0.0
H435 H 0.68537 0.63398 0.62905 0.0
H436 H 0.68456 0.60006 0.16397 0.0
H437 H 0.67845 0.60803 0.07608 0.0
H438 H 0.60407 0.61759 0.10884 0.0
H439 H 0.61044 0.61013 0.19741 0.0
Sm440 Sm 0.14635 0.88692 0.06956 0.0
Sm441 Sm 0.14241 0.90977 0.19939 0.0
C442 C 0.13789 0.87135 0.96793 0.0
C443 C 0.14101 0.88035 0.9194 0.0
C444 C 0.1311 0.90223 0.91448 0.0
C445 C 0.13294 0.90975 0.86705 0.0
C446 C 0.14516 0.89583 0.82389 0.0
C447 C 0.15563 0.87426 0.82951 0.0
C448 C 0.15347 0.86657 0.8768 0.0
C449 C 0.1898 0.89383 0.12279 0.0
C450 C 0.14662 0.94489 0.11139 0.0
C451 C 0.15448 0.92464 0.2994 0.0
C452 C 0.14933 0.92087 0.35274 0.0
C453 C 0.1618 0.90355 0.3727 0.0
C454 C 0.15967 0.90244 0.42571 0.0
C455 C 0.14507 0.91864 0.4597 0.0
C456 C 0.13164 0.93506 0.43907 0.0
C457 C 0.13383 0.93624 0.38614 0.0
C458 C 0.09845 0.90116 0.15415 0.0
C459 C 0.13733 0.85098 0.15033 0.0
O460 O 0.12209 0.88222 1.00159 0.0
O461 O 0.15709 0.86579 0.99061 0.0
O462 O 0.16937 0.89783 0.13987 0.0
O463 O 0.18802 0.8863 0.07181 0.0
O464 O 0.1427 0.92654 0.07158 0.0
O465 O 0.15004 0.94279 0.16124 0.0
O466 O 0.16505 0.90712 0.26669 0.0
O467 O 0.13872 0.93573 0.27645 0.0
O468 O 0.11811 0.89776 0.13103 0.0
O469 O 0.10187 0.90937 0.20457 0.0
O470 O 0.14145 0.86838 0.19296 0.0
O471 O 0.13648 0.85435 0.10152 0.0
H472 H 0.12154 0.91339 0.94687 0.0
H473 H 0.12432 0.92626 0.86402 0.0
H474 H 0.16554 0.86332 0.79748 0.0
H475 H 0.16139 0.84973 0.88 0.0
H476 H 0.17395 0.89146 0.348 0.0
H477 H 0.17035 0.88969 0.4406 0.0
H478 H 0.11993 0.94747 0.46427 0.0
H479 H 0.124 0.94977 0.37195 0.0
Sm480 Sm 0.88823 0.63613 0.203 0.0
Sm481 Sm 0.8713 0.6408 0.09929 0.0
C482 C 0.89856 0.64251 0.30445 0.0
C483 C 0.8914 0.63699 0.35504 0.0
C484 C 0.88016 0.65452 0.39356 0.0
C485 C 0.87625 0.65065 0.44421 0.0
C486 C 0.88369 0.62927 0.45729 0.0
C487 C 0.89448 0.61157 0.41829 0.0
C488 C 0.8982 0.61535 0.36768 0.0
C489 C 0.88143 0.59244 0.13358 0.0
C490 C 0.83099 0.63869 0.1859 0.0
C491 C 0.861 0.63846 0.99866 0.0
C492 C 0.8701 0.63778 0.94535 0.0
C493 C 0.88424 0.61885 0.91873 0.0
C494 C 0.88877 0.61621 0.86485 0.0
C495 C 0.87917 0.63238 0.83686 0.0
C496 C 0.86637 0.65218 0.86441 0.0
C497 C 0.86186 0.65481 0.91823 0.0
C498 C 0.87908 0.68457 0.16711 0.0
C499 C 0.92815 0.63603 0.1195 0.0
O500 O 0.88557 0.6575 0.28531 0.0
O501 O 0.90707 0.62499 0.26806 0.0
O502 O 0.8678 0.61017 0.13957 0.0
O503 O 0.8987 0.59676 0.16718 0.0
O504 O 0.84846 0.64 0.21989 0.0
O505 O 0.83483 0.63698 0.13504 0.0
O506 O 0.86406 0.61961 0.01861 0.0
O507 O 0.86259 0.65866 0.03366 0.0
O508 O 0.89262 0.66668 0.16063 0.0
O509 O 0.85993 0.67884 0.14006 0.0
O510 O 0.91095 0.63051 0.08443 0.0
O511 O 0.92351 0.64374 0.16979 0.0
H512 H 0.87496 0.67149 0.38503 0.0
H513 H 0.86764 0.66451 0.47319 0.0
H514 H 0.90085 0.59508 0.42726 0.0
H515 H 0.90718 0.6016 0.33913 0.0
H516 H 0.89093 0.6055 0.93882 0.0
H517 H 0.89905 0.60102 0.84465 0.0
H518 H 0.8586 0.66483 0.84383 0.0
H519 H 0.85083 0.66948 0.93804 0.0
Sm520 Sm 0.15011 0.13671 0.96553 0.0
Sm521 Sm 0.14221 0.11282 0.84436 0.0
C522 C 0.15373 0.14967 0.06959 0.0
C523 C 0.14869 0.14217 0.11955 0.0
C524 C 0.12599 0.14427 0.14147 0.0
C525 C 0.12222 0.14058 0.19233 0.0
C526 C 0.14108 0.13491 0.22261 0.0
C527 C 0.16356 0.13159 0.19958 0.0
C528 C 0.16732 0.13523 0.14861 0.0
C529 C 0.1889 0.13302 0.90012 0.0
C530 C 0.14549 0.0785 0.93064 0.0
C531 C 0.15183 0.09759 0.74258 0.0
C532 C 0.14721 0.10235 0.68983 0.0
C533 C 0.16625 0.10203 0.65525 0.0
C534 C 0.16286 0.10673 0.6051 0.0
C535 C 0.1403 0.11195 0.58854 0.0
C536 C 0.12116 0.11216 0.62324 0.0
C537 C 0.12458 0.10746 0.67354 0.0
C538 C 0.09872 0.12235 0.89101 0.0
C539 C 0.14183 0.17258 0.8886 0.0
O540 O 0.13602 0.15592 0.04299 0.0
O541 O 0.17026 0.13804 0.03931 0.0
O542 O 0.17324 0.11721 0.89898 0.0
O543 O 0.18445 0.15171 0.93712 0.0
O544 O 0.14177 0.09785 0.96783 0.0
O545 O 0.14888 0.0794 0.88037 0.0
O546 O 0.16435 0.1138 0.77469 0.0
O547 O 0.1349 0.08836 0.76641 0.0
O548 O 0.11838 0.12673 0.91391 0.0
O549 O 0.10164 0.11317 0.84104 0.0
O550 O 0.14518 0.15401 0.84831 0.0
O551 O 0.13943 0.17015 0.93774 0.0
H552 H 0.11123 0.14953 0.12013 0.0
H553 H 0.10458 0.14276 0.20846 0.0
H554 H 0.1785 0.12736 0.22183 0.0
H555 H 0.18504 0.13359 0.13282 0.0
H556 H 0.18388 0.09833 0.66729 0.0
H557 H 0.17802 0.10681 0.5798 0.0
H558 H 0.10352 0.11593 0.61147 0.0
H559 H 0.10961 0.10793 0.69964 0.0
Sm560 Sm 0.647 0.39113 0.58226 0.0
Sm561 Sm 0.6385 0.41539 0.6965 0.0
C562 C 0.64813 0.37604 0.47773 0.0
C563 C 0.65024 0.38312 0.42612 0.0
C564 C 0.6318 0.3945 0.40486 0.0
C565 C 0.63279 0.3972 0.35228 0.0
C566 C 0.65215 0.38841 0.32 0.0
C567 C 0.6711 0.37841 0.34255 0.0
C568 C 0.67011 0.37571 0.39475 0.0
C569 C 0.68659 0.39774 0.64601 0.0
C570 C 0.64333 0.44952 0.61277 0.0
C571 C 0.63893 0.43032 0.80141 0.0
C572 C 0.64062 0.42191 0.85152 0.0
C573 C 0.65932 0.40747 0.86134 0.0
C574 C 0.66152 0.40136 0.91056 0.0
C575 C 0.64495 0.4093 0.95111 0.0
C576 C 0.62617 0.42363 0.94092 0.0
C577 C 0.62407 0.42987 0.89174 0.0
C578 C 0.59812 0.40781 0.63652 0.0
C579 C 0.64035 0.35585 0.65942 0.0
O580 O 0.62861 0.38083 0.50472 0.0
O581 O 0.66688 0.37786 0.50773 0.0
O582 O 0.67057 0.41293 0.64602 0.0
O583 O 0.68259 0.37844 0.61001 0.0
O584 O 0.64008 0.42977 0.57641 0.0
O585 O 0.64628 0.449 0.6632 0.0
O586 O 0.65774 0.42866 0.77182 0.0
O587 O 0.61955 0.42565 0.77375 0.0
O588 O 0.61463 0.39285 0.63454 0.0
O589 O 0.60293 0.42766 0.67032 0.0
O590 O 0.64364 0.375 0.69827 0.0
O591 O 0.63735 0.35772 0.61018 0.0
H592 H 0.61621 0.40044 0.42802 0.0
H593 H 0.61789 0.405 0.33617 0.0
H594 H 0.68652 0.37194 0.31925 0.0
H595 H 0.68457 0.36687 0.40989 0.0
H596 H 0.67249 0.40117 0.83132 0.0
H597 H 0.67649 0.39069 0.91699 0.0
H598 H 0.61289 0.42985 0.97068 0.0
H599 H 0.60957 0.44115 0.88527 0.0
Sm600 Sm 0.39205 0.8882 0.32464 0.0
Sm601 Sm 0.36966 0.89295 0.43564 0.0
C602 C 0.40426 0.87895 0.2233 0.0
C603 C 0.39654 0.87987 0.16904 0.0
C604 C 0.3888 0.8588 0.13428 0.0
C605 C 0.38523 0.85829 0.08071 0.0
C606 C 0.38952 0.87877 0.0603 0.0
C607 C 0.39608 0.90023 0.09552 0.0
C608 C 0.39962 0.90076 0.14932 0.0
C609 C 0.39255 0.9337 0.38942 0.0
C610 C 0.33462 0.8946 0.33485 0.0
C611 C 0.35942 0.90966 0.53675 0.0
C612 C 0.3634 0.90342 0.58856 0.0
C613 C 0.36923 0.92163 0.6326 0.0
C614 C 0.37314 0.91634 0.68215 0.0
C615 C 0.3713 0.89262 0.68883 0.0
C616 C 0.36534 0.87439 0.64447 0.0
C617 C 0.3616 0.87969 0.59484 0.0
C618 C 0.37679 0.84455 0.39518 0.0
C619 C 0.42734 0.88526 0.41543 0.0
O620 O 0.39445 0.86305 0.24602 0.0
O621 O 0.40905 0.89916 0.2565 0.0
O622 O 0.37535 0.91926 0.3842 0.0
O623 O 0.40975 0.92457 0.35872 0.0
O624 O 0.35318 0.8882 0.3048 0.0
O625 O 0.33592 0.89886 0.38739 0.0
O626 O 0.37801 0.91648 0.5139 0.0
O627 O 0.34507 0.89595 0.50334 0.0
O628 O 0.38185 0.86116 0.37193 0.0
O629 O 0.3667 0.85336 0.43985 0.0
O630 O 0.41058 0.89619 0.44745 0.0
O631 O 0.42286 0.87535 0.36571 0.0
H632 H 0.38637 0.84238 0.14804 0.0
H633 H 0.3797 0.84158 0.05492 0.0
H634 H 0.39963 0.9163 0.08113 0.0
H635 H 0.40572 0.91728 0.17491 0.0
H636 H 0.37091 0.94003 0.62861 0.0
H637 H 0.37806 0.93081 0.71492 0.0
H638 H 0.36337 0.85596 0.64802 0.0
H639 H 0.35725 0.86524 0.56149 0.0
H640 H 0.13577 0.65818 0.77508 0.0
H641 H 0.16672 0.58807 0.76665 0.0
H642 H 0.16912 0.58176 0.66974 0.0
H643 H 0.10077 0.64136 0.6566 0.0
H644 H 0.10535 0.66943 0.6371 0.0
H645 H 0.10597 0.66846 0.70608 0.0
H646 H 0.14755 0.68781 0.715 0.0
H647 H 0.14716 0.68869 0.64592 0.0
H648 H 0.17084 0.67381 0.67202 0.0
H649 H 0.16945 0.58325 0.57542 0.0
H650 H 0.16543 0.59144 0.48656 0.0
H651 H 0.13299 0.66001 0.55492 0.0
C652 C 0.14306 0.64153 0.75277 0.0
C653 C 0.15086 0.62351 0.77826 0.0
C654 C 0.16021 0.60191 0.7478 0.0
C655 C 0.16186 0.59824 0.69284 0.0
C656 C 0.15413 0.61635 0.669 0.0
C657 C 0.14478 0.6375 0.69774 0.0
C658 C 0.13746 0.65384 0.66192 0.0
C659 C 0.1108 0.65854 0.66564 0.0
C660 C 0.1516 0.67743 0.67447 0.0
C661 C 0.1442 0.63848 0.60864 0.0
C662 C 0.15393 0.61703 0.61386 0.0
C663 C 0.16169 0.59989 0.57059 0.0
C664 C 0.15918 0.60465 0.52027 0.0
C665 C 0.14871 0.62625 0.51361 0.0
C666 C 0.1413 0.64344 0.55861 0.0
H667 H 0.65569 0.91215 1.00703 0.0
H668 H 0.63136 0.83915 0.99779 0.0
H669 H 0.63199 0.83172 0.90055 0.0
H670 H 0.62119 0.9223 0.89722 0.0
H671 H 0.6437 0.9399 0.87433 0.0
H672 H 0.64186 0.93947 0.94353 0.0
H673 H 0.68529 0.92569 0.94259 0.0
H674 H 0.68736 0.92619 0.87349 0.0
H675 H 0.69437 0.89918 0.89535 0.0
H676 H 0.63423 0.83225 0.80524 0.0
H677 H 0.63949 0.84017 0.71642 0.0
H678 H 0.66271 0.91276 0.78681 0.0
C679 C 0.65038 0.89463 0.98463 0.0
C680 C 0.64366 0.87617 1.01021 0.0
C681 C 0.63707 0.85343 0.97926 0.0
C682 C 0.63712 0.84909 0.92397 0.0
C683 C 0.64367 0.86769 0.90017 0.0
C684 C 0.65023 0.88999 0.92936 0.0
C685 C 0.65659 0.90681 0.89377 0.0
C686 C 0.63983 0.9284 0.90275 0.0
C687 C 0.68244 0.91494 0.90177 0.0
C688 C 0.65271 0.89038 0.83996 0.0
C689 C 0.64513 0.86796 0.84474 0.0
C690 C 0.6403 0.84968 0.80086 0.0
C691 C 0.64352 0.85432 0.75055 0.0
C692 C 0.65173 0.877 0.74439 0.0
C693 C 0.6562 0.8953 0.78996 0.0
H694 H 0.36443 0.42104 0.25707 0.0
H695 H 0.40724 0.35752 0.24856 0.0
H696 H 0.413 0.35444 0.15322 0.0
H697 H 0.33543 0.40118 0.13118 0.0
H698 H 0.33576 0.43032 0.11516 0.0
H699 H 0.33504 0.42791 0.18331 0.0
H700 H 0.3726 0.45422 0.20271 0.0
H701 H 0.37344 0.45683 0.1347 0.0
H702 H 0.39868 0.44559 0.1637 0.0
H703 H 0.41339 0.35713 0.05951 0.0
H704 H 0.40987 0.36643 0.97168 0.0
H705 H 0.36782 0.42905 0.03915 0.0
C706 C 0.37498 0.40648 0.23506 0.0
C707 C 0.38559 0.38965 0.26047 0.0
C708 C 0.39934 0.37091 0.2303 0.0
C709 C 0.40256 0.36888 0.17599 0.0
C710 C 0.39192 0.3857 0.15223 0.0
C711 C 0.37851 0.40422 0.18061 0.0
C712 C 0.36936 0.42002 0.14502 0.0
C713 C 0.34229 0.41984 0.14359 0.0
C714 C 0.37911 0.44569 0.16258 0.0
C715 C 0.37962 0.40728 0.09221 0.0
C716 C 0.3925 0.38752 0.09756 0.0
C717 C 0.40353 0.37269 0.05476 0.0
C718 C 0.40156 0.37825 1.00501 0.0
C719 C 0.38883 0.39864 0.99824 0.0
C720 C 0.37757 0.41324 0.04267 0.0
H721 H 0.89043 0.08576 0.47914 0.0
H722 H 0.87336 0.15769 0.56622 0.0
H723 H 0.87035 0.17106 0.48268 0.0
H724 H 0.92628 0.10444 0.37817 0.0
H725 H 0.91601 0.08061 0.32519 0.0
H726 H 0.91715 0.07617 0.39188 0.0
H727 H 0.87286 0.0647 0.38643 0.0
H728 H 0.87164 0.06916 0.31978 0.0
H729 H 0.85175 0.08519 0.36914 0.0
H730 H 0.86821 0.17694 0.39202 0.0
H731 H 0.86762 0.17527 0.29641 0.0
H732 H 0.8869 0.10003 0.26494 0.0
C733 C 0.88632 0.10437 0.4806 0.0
C734 C 0.88189 0.12062 0.52941 0.0
C735 C 0.87636 0.14478 0.52947 0.0
C736 C 0.87477 0.15262 0.48221 0.0
C737 C 0.87896 0.13619 0.435 0.0
C738 C 0.88472 0.11261 0.43349 0.0
C739 C 0.88805 0.09878 0.37674 0.0
C740 C 0.91338 0.08945 0.36747 0.0
C741 C 0.87 0.07824 0.36218 0.0
C742 C 0.88322 0.11835 0.34696 0.0
C743 C 0.87798 0.13972 0.38166 0.0
C744 C 0.87233 0.16035 0.36434 0.0
C745 C 0.87192 0.15917 0.30996 0.0
C746 C 0.87706 0.1375 0.27331 0.0
C747 C 0.88305 0.11686 0.29213 0.0
H748 H 0.15925 0.42235 0.29763 0.0
H749 H 0.13796 0.35052 0.21619 0.0
H750 H 0.13337 0.33921 0.30182 0.0
H751 H 0.1917 0.40589 0.40099 0.0
H752 H 0.18208 0.43079 0.45195 0.0
H753 H 0.18354 0.43377 0.38426 0.0
H754 H 0.13956 0.44609 0.38781 0.0
H755 H 0.13804 0.44325 0.45563 0.0
H756 H 0.11777 0.42673 0.4074 0.0
H757 H 0.1321 0.33503 0.39453 0.0
H758 H 0.1328 0.3386 0.49091 0.0
H759 H 0.15359 0.41341 0.51372 0.0
C760 C 0.15328 0.40434 0.29771 0.0
C761 C 0.14924 0.38725 0.24989 0.0
C762 C 0.14174 0.36379 0.25203 0.0
C763 C 0.13885 0.35723 0.30052 0.0
C764 C 0.14321 0.37439 0.34664 0.0
C765 C 0.15005 0.39752 0.34589 0.0
C766 C 0.15366 0.41236 0.40154 0.0
C767 C 0.17927 0.42122 0.41017 0.0
C768 C 0.13622 0.43335 0.4138 0.0
C769 C 0.14808 0.3938 0.43345 0.0
C770 C 0.14211 0.37205 0.40083 0.0
C771 C 0.13669 0.35197 0.42061 0.0
C772 C 0.13734 0.35414 0.47536 0.0
C773 C 0.14346 0.37622 0.50977 0.0
C774 C 0.14874 0.39635 0.48841 0.0
H775 H 0.86397 0.91882 0.75639 0.0
H776 H 0.91223 0.85897 0.74222 0.0
H777 H 0.91834 0.85912 0.64836 0.0
H778 H 0.83662 0.89896 0.62901 0.0
H779 H 0.83398 0.92865 0.61655 0.0
H780 H 0.83383 0.92454 0.68351 0.0
H781 H 0.8687 0.95432 0.70692 0.0
H782 H 0.86899 0.95859 0.64006 0.0
H783 H 0.89535 0.94918 0.66842 0.0
H784 H 0.9187 0.86469 0.55601 0.0
H785 H 0.91336 0.87549 0.46994 0.0
H786 H 0.86492 0.93186 0.54214 0.0
C787 C 0.87578 0.9057 0.73356 0.0
C788 C 0.88784 0.88906 0.7572 0.0
C789 C 0.90321 0.87229 0.72569 0.0
C790 C 0.90666 0.87208 0.67209 0.0
C791 C 0.89459 0.88868 0.65018 0.0
C792 C 0.87945 0.9052 0.67975 0.0
C793 C 0.8686 0.92097 0.64603 0.0
C794 C 0.84166 0.9181 0.64363 0.0
C795 C 0.87585 0.94733 0.66658 0.0
C796 C 0.87983 0.91048 0.5928 0.0
C797 C 0.89481 0.89194 0.59635 0.0
C798 C 0.90714 0.8793 0.55272 0.0
C799 C 0.90412 0.88571 0.50398 0.0
C800 C 0.8889 0.90468 0.49895 0.0
C801 C 0.87659 0.91718 0.54429 0.0
H802 H 0.36032 0.61036 0.778 0.0
H803 H 0.42038 0.65797 0.78066 0.0
H804 H 0.42769 0.65719 0.87381 0.0
H805 H 0.34014 0.6364 0.91053 0.0
H806 H 0.33147 0.60808 0.92466 0.0
H807 H 0.33083 0.61205 0.85758 0.0
H808 H 0.35797 0.57521 0.82832 0.0
H809 H 0.35868 0.57106 0.89525 0.0
H810 H 0.3858 0.57434 0.86136 0.0
H811 H 0.42838 0.65224 0.96609 0.0
H812 H 0.42309 0.64251 0.05313 0.0
H813 H 0.36298 0.59743 0.99245 0.0
C814 C 0.37496 0.62068 0.79825 0.0
C815 C 0.38995 0.63401 0.77164 0.0
C816 C 0.40896 0.64718 0.79963 0.0
C817 C 0.41315 0.64704 0.85276 0.0
C818 C 0.39815 0.63371 0.87766 0.0
C819 C 0.37945 0.62074 0.85154 0.0
C820 C 0.36621 0.6078 0.88795 0.0
C821 C 0.34064 0.61662 0.89563 0.0
C822 C 0.36723 0.58048 0.86697 0.0
C823 C 0.38043 0.61562 0.93853 0.0
C824 C 0.39871 0.63062 0.93149 0.0
C825 C 0.41424 0.64037 0.97212 0.0
C826 C 0.41118 0.63456 0.02139 0.0
C827 C 0.3928 0.61896 0.02981 0.0
C828 C 0.37713 0.60951 0.98762 0.0
H829 H 0.65937 0.16021 0.05824 0.0
H830 H 0.6169 0.09757 0.99026 0.0
H831 H 0.61388 0.08771 0.07777 0.0
H832 H 0.69155 0.13343 0.14891 0.0
H833 H 0.69191 0.16005 0.20134 0.0
H834 H 0.69052 0.16266 0.13339 0.0
H835 H 0.65259 0.1881 0.15373 0.0
H836 H 0.65381 0.18547 0.22173 0.0
H837 H 0.6277 0.1762 0.18286 0.0
H838 H 0.61483 0.08465 0.17108 0.0
H839 H 0.62144 0.08719 0.26586 0.0
H840 H 0.66409 0.15129 0.27483 0.0
C841 C 0.64934 0.14449 0.06186 0.0
C842 C 0.63856 0.12951 0.01723 0.0
C843 C 0.62573 0.10902 0.02357 0.0
C844 C 0.62369 0.10341 0.07322 0.0
C845 C 0.63447 0.11851 0.11624 0.0
C846 C 0.6471 0.13859 0.11128 0.0
C847 C 0.6574 0.15139 0.16404 0.0
C848 C 0.68445 0.1519 0.16177 0.0
C849 C 0.64727 0.1768 0.18161 0.0
C850 C 0.6487 0.1352 0.19919 0.0
C851 C 0.63534 0.11651 0.17067 0.0
C852 C 0.62535 0.09913 0.1939 0.0
C853 C 0.62936 0.10066 0.24774 0.0
C854 C 0.64353 0.11925 0.2778 0.0
C855 C 0.65305 0.13695 0.25314 0.0
H856 H 0.89128 0.41642 0.28831 0.0
H857 H 0.84578 0.35584 0.22268 0.0
H858 H 0.84341 0.34575 0.31009 0.0
H859 H 0.9232 0.38755 0.37716 0.0
H860 H 0.92516 0.41417 0.42937 0.0
H861 H 0.92355 0.41675 0.36141 0.0
H862 H 0.88706 0.44427 0.38354 0.0
H863 H 0.88852 0.44166 0.45151 0.0
H864 H 0.86178 0.43376 0.4141 0.0
H865 H 0.84487 0.34265 0.40365 0.0
H866 H 0.8514 0.34565 0.49872 0.0
H867 H 0.89665 0.40771 0.50461 0.0
C868 C 0.88074 0.4011 0.2924 0.0
C869 C 0.86885 0.38681 0.24847 0.0
C870 C 0.85541 0.36678 0.25542 0.0
C871 C 0.85378 0.36102 0.30501 0.0
C872 C 0.86561 0.37548 0.34736 0.0
C873 C 0.87891 0.39505 0.34173 0.0
C874 C 0.89009 0.40736 0.39387 0.0
C875 C 0.9171 0.40639 0.39022 0.0
C876 C 0.88133 0.4333 0.41179 0.0
C877 C 0.88082 0.3917 0.42956 0.0
C878 C 0.86671 0.37348 0.4018 0.0
C879 C 0.856 0.35674 0.42587 0.0
C880 C 0.85994 0.35854 0.47986 0.0
C881 C 0.87468 0.3768 0.5092 0.0
C882 C 0.8851 0.39369 0.48355 0.0
H883 H 0.36728 0.15483 0.27515 0.0
H884 H 0.40847 0.09051 0.27059 0.0
H885 H 0.41322 0.08539 0.17436 0.0
H886 H 0.33709 0.13475 0.15396 0.0
H887 H 0.33829 0.16318 0.1347 0.0
H888 H 0.33839 0.16228 0.20374 0.0
H889 H 0.37722 0.18688 0.21751 0.0
H890 H 0.37716 0.18803 0.14857 0.0
H891 H 0.40237 0.17633 0.17674 0.0
H892 H 0.41265 0.08629 0.07951 0.0
H893 H 0.40845 0.09431 0.99047 0.0
H894 H 0.36819 0.15843 0.05604 0.0
C895 C 0.37768 0.13992 0.25415 0.0
C896 C 0.3874 0.12298 0.28045 0.0
C897 C 0.40053 0.10349 0.25122 0.0
C898 C 0.40345 0.10049 0.19662 0.0
C899 C 0.39337 0.11727 0.17192 0.0
C900 C 0.38095 0.13673 0.19962 0.0
C901 C 0.37186 0.15205 0.16315 0.0
C902 C 0.3448 0.15311 0.16395 0.0
C903 C 0.38281 0.17732 0.17733 0.0
C904 C 0.38088 0.1379 0.11059 0.0
C905 C 0.39323 0.11792 0.1167 0.0
C906 C 0.40303 0.10187 0.07404 0.0
C907 C 0.40031 0.10645 0.02358 0.0
C908 C 0.3878 0.12685 1.01622 0.0
C909 C 0.37795 0.14275 0.06045 0.0
H910 H 0.66067 0.59184 0.98919 0.0
H911 H 0.61339 0.649 0.06289 0.0
H912 H 0.60794 0.66008 0.97707 0.0
H913 H 0.68913 0.62387 0.90178 0.0
H914 H 0.69116 0.59825 0.84718 0.0
H915 H 0.69105 0.59409 0.91409 0.0
H916 H 0.65536 0.56517 0.89182 0.0
H917 H 0.65542 0.56929 0.82484 0.0
H918 H 0.62908 0.5752 0.86425 0.0
H919 H 0.60837 0.666 0.88532 0.0
H920 H 0.61418 0.6662 0.79147 0.0
H921 H 0.66069 0.60483 0.77509 0.0
C922 C 0.6492 0.60671 0.98728 0.0
C923 C 0.63728 0.61944 0.03286 0.0
C924 C 0.62234 0.63869 0.02849 0.0
C925 C 0.61925 0.64524 0.97997 0.0
C926 C 0.63121 0.63237 0.936 0.0
C927 C 0.64583 0.61347 0.93895 0.0
C928 C 0.65657 0.60273 0.88534 0.0
C929 C 0.68358 0.60488 0.88724 0.0
C930 C 0.64863 0.57654 0.8654 0.0
C931 C 0.64591 0.61882 0.85222 0.0
C932 C 0.63129 0.6357 0.88235 0.0
C933 C 0.61958 0.65272 0.8611 0.0
C934 C 0.62286 0.65253 0.80751 0.0
C935 C 0.63762 0.63532 0.7754 0.0
C936 C 0.64932 0.61827 0.79839 0.0
H937 H 0.14413 0.88101 0.50999 0.0
H938 H 0.14676 0.95878 0.53898 0.0
H939 H 0.14784 0.96109 0.63495 0.0
H940 H 0.10691 0.87751 0.61957 0.0
H941 H 0.12178 0.85195 0.63434 0.0
H942 H 0.12146 0.85636 0.56764 0.0
H943 H 0.16706 0.85489 0.56547 0.0
H944 H 0.16756 0.85062 0.63232 0.0
H945 H 0.18369 0.87517 0.61563 0.0
H946 H 0.14965 0.95532 0.72643 0.0
H947 H 0.1497 0.94183 0.81015 0.0
H948 H 0.14418 0.86776 0.72259 0.0
C949 C 0.14505 0.8985 0.53658 0.0
C950 C 0.14519 0.91973 0.51716 0.0
C951 C 0.14621 0.94231 0.5531 0.0
C952 C 0.14705 0.94382 0.6076 0.0
C953 C 0.14694 0.92259 0.62543 0.0
C954 C 0.14584 0.90036 0.59121 0.0
C955 C 0.14544 0.8804 0.62106 0.0
C956 C 0.12253 0.86569 0.61 0.0
C957 C 0.16724 0.86432 0.60783 0.0
C958 C 0.14635 0.89499 0.6774 0.0
C959 C 0.14744 0.91925 0.67882 0.0
C960 C 0.14861 0.93637 0.72604 0.0
C961 C 0.14842 0.92851 0.7734 0.0
C962 C 0.14667 0.90374 0.77321 0.0
C963 C 0.14579 0.8868 0.72433 0.0
H964 H 0.8876 0.66414 0.77311 0.0
H965 H 0.87256 0.58917 0.76902 0.0
H966 H 0.87174 0.58062 0.67169 0.0
H967 H 0.85017 0.6693 0.66529 0.0
H968 H 0.86998 0.68855 0.63923 0.0
H969 H 0.87015 0.68891 0.70892 0.0
H970 H 0.91478 0.67942 0.70482 0.0
H971 H 0.91484 0.67929 0.63524 0.0
H972 H 0.92536 0.65353 0.6578 0.0
H973 H 0.87052 0.5803 0.57647 0.0
H974 H 0.87203 0.58756 0.48646 0.0
H975 H 0.88926 0.66248 0.55128 0.0
C976 C 0.8842 0.64593 0.75166 0.0
C977 C 0.88034 0.62727 0.77852 0.0
C978 C 0.87603 0.60364 0.74919 0.0
C979 C 0.87528 0.59864 0.69397 0.0
C980 C 0.87889 0.61745 0.66879 0.0
C981 C 0.88347 0.64057 0.69644 0.0
C982 C 0.88694 0.65739 0.65936 0.0
C983 C 0.86819 0.67721 0.66877 0.0
C984 C 0.91197 0.66803 0.66461 0.0
C985 C 0.88339 0.64005 0.60662 0.0
C986 C 0.87864 0.61717 0.61317 0.0
C987 C 0.87446 0.59807 0.57061 0.0
C988 C 0.87549 0.60237 0.51966 0.0
C989 C 0.88098 0.62551 0.51169 0.0
C990 C 0.88477 0.64463 0.55595 0.0
H991 H 0.16035 0.09061 0.49259 0.0
H992 H 0.11304 0.14773 0.56638 0.0
H993 H 0.1078 0.15901 0.48069 0.0
H994 H 0.18904 0.12276 0.40566 0.0
H995 H 0.19107 0.09719 0.35095 0.0
H996 H 0.19088 0.09294 0.41781 0.0
H997 H 0.15514 0.06409 0.39522 0.0
H998 H 0.15529 0.06829 0.3283 0.0
H999 H 0.12892 0.07421 0.36758 0.0
H1000 H 0.10828 0.16499 0.38896 0.0
H1001 H 0.11405 0.1651 0.29499 0.0
H1002 H 0.16067 0.10384 0.27879 0.0
C1003 C 0.14893 0.10552 0.49073 0.0
C1004 C 0.13695 0.11819 0.53626 0.0
C1005 C 0.12205 0.13748 0.53199 0.0
C1006 C 0.11908 0.14414 0.48355 0.0
C1007 C 0.13109 0.13133 0.43962 0.0
C1008 C 0.14567 0.11238 0.44251 0.0
C1009 C 0.15646 0.10168 0.38896 0.0
C1010 C 0.18347 0.10378 0.391 0.0
C1011 C 0.14847 0.07551 0.36884 0.0
C1012 C 0.14587 0.11783 0.35592 0.0
C1013 C 0.13124 0.13471 0.38603 0.0
C1014 C 0.11952 0.15173 0.36477 0.0
C1015 C 0.12277 0.1515 0.31116 0.0
C1016 C 0.13755 0.13428 0.27914 0.0
C1017 C 0.1493 0.11727 0.30211 0.0
H1018 H 0.63776 0.42346 0.26751 0.0
H1019 H 0.66595 0.35127 0.241 0.0
H1020 H 0.66694 0.34919 0.1453 0.0
H1021 H 0.6005 0.4131 0.15055 0.0
H1022 H 0.60601 0.44221 0.13682 0.0
H1023 H 0.60732 0.43828 0.20389 0.0
H1024 H 0.64969 0.45558 0.21336 0.0
H1025 H 0.64856 0.4596 0.14637 0.0
H1026 H 0.6719 0.44225 0.1665 0.0
H1027 H 0.66477 0.35418 0.05319 0.0
H1028 H 0.66011 0.36626 0.96854 0.0
H1029 H 0.63423 0.4358 0.05202 0.0
C1030 C 0.644 0.40718 0.24148 0.0
C1031 C 0.65204 0.38762 0.26207 0.0
C1032 C 0.66016 0.36669 0.22654 0.0
C1033 C 0.66063 0.36524 0.17196 0.0
C1034 C 0.65285 0.38481 0.15305 0.0
C1035 C 0.64468 0.40541 0.18648 0.0
C1036 C 0.63768 0.4239 0.15522 0.0
C1037 C 0.61131 0.42971 0.16203 0.0
C1038 C 0.65287 0.44668 0.17132 0.0
C1039 C 0.64318 0.41036 0.09915 0.0
C1040 C 0.65185 0.38784 0.09913 0.0
C1041 C 0.65815 0.37184 0.05261 0.0
C1042 C 0.65562 0.379 1.00461 0.0
C1043 C 0.64707 0.40212 1.00309 0.0
C1044 C 0.64067 0.41794 0.05137 0.0
H1045 H 0.37196 0.91163 1.00596 0.0
H1046 H 0.40594 0.84217 0.98277 0.0
H1047 H 0.4049 0.83852 0.88643 0.0
H1048 H 0.33342 0.89671 0.89325 0.0
H1049 H 0.33588 0.92566 0.87674 0.0
H1050 H 0.33938 0.92304 0.94434 0.0
H1051 H 0.38025 0.9436 0.94833 0.0
H1052 H 0.37696 0.94629 0.88071 0.0
H1053 H 0.4023 0.93134 0.90005 0.0
H1054 H 0.4008 0.84221 0.79332 0.0
H1055 H 0.39321 0.85266 0.7078 0.0
H1056 H 0.36096 0.91944 0.78934 0.0
C1057 C 0.37929 0.89573 0.98061 0.0
C1058 C 0.3888 0.87706 1.00212 0.0
C1059 C 0.3981 0.85649 0.96742 0.0
C1060 C 0.39778 0.85432 0.91256 0.0
C1061 C 0.38818 0.87289 0.89271 0.0
C1062 C 0.37908 0.89321 0.92548 0.0
C1063 C 0.36958 0.91036 0.89344 0.0
C1064 C 0.34298 0.91416 0.90248 0.0
C1065 C 0.38308 0.93432 0.9064 0.0
C1066 C 0.37476 0.89643 0.83761 0.0
C1067 C 0.38557 0.87492 0.83835 0.0
C1068 C 0.39219 0.85893 0.7921 0.0
C1069 C 0.38757 0.86497 0.74356 0.0
C1070 C 0.3762 0.88676 0.74127 0.0
C1071 C 0.36983 0.90271 0.78932 0.0
H1072 H 0.1655 0.72578 0.22569 0.0
H1073 H 0.11377 0.69458 0.10694 0.0
H1074 H 0.10303 0.73495 0.09593 0.0
H1075 H 0.12808 0.78054 0.28256 0.0
H1076 H 0.15358 0.79976 0.29676 0.0
H1077 H 0.15561 0.76858 0.29964 0.0
H1078 H 0.19021 0.76321 0.23279 0.0
H1079 H 0.18813 0.79425 0.22946 0.0
H1080 H 0.18608 0.77113 0.16975 0.0
H1081 H 0.10173 0.77703 0.08862 0.0
H1082 H 0.1071 0.81989 0.09074 0.0
H1083 H 0.15766 0.82577 0.21875 0.0
C1084 C 0.15143 0.72765 0.19869 0.0
C1085 C 0.14018 0.70723 0.16765 0.0
C1086 C 0.12219 0.7101 0.13181 0.0
C1087 C 0.11605 0.73292 0.12514 0.0
C1088 C 0.12764 0.75272 0.15566 0.0
C1089 C 0.14453 0.75049 0.19267 0.0
C1090 C 0.15447 0.77491 0.21935 0.0
C1091 C 0.14753 0.78132 0.27808 0.0
C1092 C 0.18132 0.77592 0.21237 0.0
C1093 C 0.14175 0.79089 0.18885 0.0
C1094 C 0.12616 0.77762 0.15282 0.0
C1095 C 0.11343 0.78775 0.11754 0.0
C1096 C 0.11668 0.81211 0.11899 0.0
C1097 C 0.13252 0.8262 0.15547 0.0
C1098 C 0.14499 0.81553 0.19146 0.0
H1099 H 0.56385 0.85993 0.37075 0.0
H1100 H 0.5777 0.92287 0.49498 0.0
H1101 H 0.5349 0.92707 0.51333 0.0
H1102 H 0.51294 0.87876 0.3188 0.0
H1103 H 0.49794 0.85021 0.30795 0.0
H1104 H 0.52958 0.85131 0.3079 0.0
H1105 H 0.53083 0.82688 0.38107 0.0
H1106 H 0.49909 0.82567 0.3814 0.0
H1107 H 0.51495 0.83751 0.44185 0.0
H1108 H 0.49014 0.92573 0.51334 0.0
H1109 H 0.44754 0.91912 0.4949 0.0
H1110 H 0.46371 0.85665 0.37153 0.0
C1111 C 0.55788 0.87443 0.40226 0.0
C1112 C 0.57397 0.89105 0.43168 0.0
C1113 C 0.56559 0.90978 0.47257 0.0
C1114 C 0.54135 0.91232 0.4831 0.0
C1115 C 0.52587 0.8957 0.45302 0.0
C1116 C 0.53388 0.87696 0.41384 0.0
C1117 C 0.51373 0.86164 0.38675 0.0
C1118 C 0.51354 0.86044 0.32682 0.0
C1119 C 0.51471 0.83643 0.39846 0.0
C1120 C 0.49302 0.87557 0.41434 0.0
C1121 C 0.50032 0.89484 0.45331 0.0
C1122 C 0.48422 0.91051 0.4834 0.0
C1123 C 0.46007 0.90653 0.4729 0.0
C1124 C 0.45231 0.88724 0.43222 0.0
C1125 C 0.46908 0.87146 0.40317 0.0
H1126 H 0.37747 0.32663 0.72106 0.0
H1127 H 0.40404 0.31608 0.56011 0.0
H1128 H 0.40528 0.27301 0.55312 0.0
H1129 H 0.41369 0.27668 0.75305 0.0
H1130 H 0.39098 0.26768 0.79331 0.0
H1131 H 0.39353 0.29864 0.78878 0.0
H1132 H 0.35009 0.29815 0.75818 0.0
H1133 H 0.34735 0.26724 0.76255 0.0
H1134 H 0.34055 0.27586 0.70133 0.0
H1135 H 0.4022 0.23159 0.55874 0.0
H1136 H 0.39378 0.19206 0.57765 0.0
H1137 H 0.36892 0.22629 0.73424 0.0
C1138 C 0.38399 0.31524 0.68492 0.0
C1139 C 0.39059 0.325 0.64126 0.0
C1140 C 0.39873 0.30935 0.5943 0.0
C1141 C 0.39964 0.28467 0.58974 0.0
C1142 C 0.39274 0.27557 0.63269 0.0
C1143 C 0.38522 0.29013 0.67958 0.0
C1144 C 0.37828 0.27492 0.71861 0.0
C1145 C 0.39511 0.27977 0.76629 0.0
C1146 C 0.35253 0.2793 0.73617 0.0
C1147 C 0.38183 0.24972 0.68492 0.0
C1148 C 0.39078 0.25082 0.63597 0.0
C1149 C 0.39546 0.23038 0.59711 0.0
C1150 C 0.39069 0.20804 0.60821 0.0
C1151 C 0.381 0.20624 0.6574 0.0
C1152 C 0.37662 0.2273 0.69658 0.0
H1153 H 0.96524 0.15014 0.86291 0.0
H1154 H 0.9494 0.10403 0.97017 0.0
H1155 H 0.99188 0.10338 0.99325 0.0
H1156 H 1.01388 0.12254 0.80839 0.0
H1157 H 0.03029 0.149 0.80321 0.0
H1158 H 0.99871 0.14971 0.80418 0.0
H1159 H 0.99955 0.18589 0.88478 0.0
H1160 H 0.03132 0.18548 0.88379 0.0
H1161 H 0.01574 0.18363 0.94334 0.0
H1162 H 0.03725 0.10334 0.99345 0.0
H1163 H 0.07974 0.10365 0.97034 0.0
H1164 H 0.06456 0.14902 0.86121 0.0
C1165 C 0.97063 0.14094 0.89332 0.0
C1166 C 0.95415 0.12786 0.91632 0.0
C1167 C 0.96176 0.115 0.95399 0.0
C1168 C 0.98586 0.11436 0.96679 0.0
C1169 C 1.00189 0.12695 0.94201 0.0
C1170 C 0.99441 0.1403 0.90661 0.0
C1171 C 0.01492 0.15054 0.88156 0.0
C1172 C 0.01441 0.14244 0.82077 0.0
C1173 C 0.01541 0.17802 0.89942 0.0
C1174 C 0.03524 0.13958 0.90536 0.0
C1175 C 0.02757 0.12658 0.94137 0.0
C1176 C 0.0434 0.11394 0.96627 0.0
C1177 C 0.06748 0.11433 0.95329 0.0
C1178 C 0.07527 0.12684 0.91504 0.0
C1179 C 0.059 0.13983 0.89155 0.0
H1180 H 0.11912 0.30771 0.86012 0.0
H1181 H 0.19013 0.32204 0.92085 0.0
H1182 H 0.19651 0.27896 0.91318 0.0
H1183 H 0.10471 0.26383 0.92523 0.0
H1184 H 0.08917 0.24377 0.87263 0.0
H1185 H 0.09086 0.27528 0.87321 0.0
H1186 H 0.10915 0.26569 0.77928 0.0
H1187 H 0.10724 0.23406 0.77821 0.0
H1188 H 0.1351 0.24727 0.76696 0.0
H1189 H 0.19376 0.23652 0.91346 0.0
H1190 H 0.18289 0.19495 0.91455 0.0
H1191 H 0.11399 0.20527 0.85115 0.0
C1192 C 0.13629 0.30153 0.86935 0.0
C1193 C 0.15434 0.31813 0.89026 0.0
C1194 C 0.17627 0.30957 0.904 0.0
C1195 C 0.18005 0.28512 0.8999 0.0
C1196 C 0.1618 0.26922 0.88125 0.0
C1197 C 0.14049 0.27682 0.86504 0.0
C1198 C 0.12356 0.25563 0.84968 0.0
C1199 C 0.10072 0.25989 0.88215 0.0
C1200 C 0.11845 0.25036 0.78998 0.0
C1201 C 0.13813 0.23558 0.86366 0.0
C1202 C 0.1603 0.24393 0.88075 0.0
C1203 C 0.17668 0.22957 0.89887 0.0
C1204 C 0.17034 0.20599 0.89943 0.0
C1205 C 0.14785 0.19686 0.88197 0.0
C1206 C 0.1315 0.21176 0.86352 0.0
H1207 H 0.06265 0.88447 0.20224 0.0
H1208 H 0.08041 0.90685 0.05799 0.0
H1209 H 0.03788 0.90504 0.0331 0.0
H1210 H 1.01323 0.8439 0.14595 0.0
H1211 H 0.99708 0.85179 0.20712 0.0
H1212 H 0.02883 0.85172 0.20802 0.0
H1213 H 0.02892 0.8959 0.26113 0.0
H1214 H 0.99732 0.89619 0.2602 0.0
H1215 H 1.01365 0.91829 0.23472 0.0
H1216 H 0.9916 0.90493 0.03123 0.0
H1217 H 0.94875 0.90678 0.05278 0.0
H1218 H 0.96383 0.88488 0.19889 0.0
C1219 C 0.05768 0.88834 0.16461 0.0
C1220 C 0.07468 0.89553 0.13169 0.0
C1221 C 0.06759 0.90079 0.08314 0.0
C1222 C 0.04348 0.89995 0.06901 0.0
C1223 C 0.02697 0.89344 0.10357 0.0
C1224 C 0.03403 0.88743 0.15006 0.0
C1225 C 1.01338 0.88236 0.18251 0.0
C1226 C 1.01311 0.85587 0.18612 0.0
C1227 C 1.01333 0.8992 0.23786 0.0
C1228 C 0.99333 0.88768 0.1488 0.0
C1229 C 1.00121 0.89354 0.10272 0.0
C1230 C 0.98537 0.89999 0.06684 0.0
C1231 C 0.96108 0.90086 0.0791 0.0
C1232 C 0.95314 0.89575 0.12721 0.0
C1233 C 0.96948 0.88867 0.16161 0.0
H1234 H 0.36204 0.71038 0.42391 0.0
H1235 H 0.41911 0.68961 0.31283 0.0
H1236 H 0.42153 0.73136 0.29957 0.0
H1237 H 0.33478 0.75074 0.34845 0.0
H1238 H 0.32486 0.77126 0.40741 0.0
H1239 H 0.32757 0.73978 0.40666 0.0
H1240 H 0.35518 0.74996 0.48856 0.0
H1241 H 0.35247 0.78138 0.48959 0.0
H1242 H 0.38122 0.76787 0.48607 0.0
H1243 H 0.41841 0.77711 0.30313 0.0
H1244 H 0.40962 0.8209 0.32254 0.0
H1245 H 0.35362 0.80943 0.42784 0.0
C1246 C 0.37502 0.71465 0.39673 0.0
C1247 C 0.39055 0.69699 0.36961 0.0
C1248 C 0.40705 0.70302 0.33375 0.0
C1249 C 0.40854 0.72665 0.32611 0.0
C1250 C 0.39296 0.74379 0.35367 0.0
C1251 C 0.3763 0.73786 0.38769 0.0
C1252 C 0.3612 0.75914 0.41179 0.0
C1253 C 0.33558 0.75497 0.39243 0.0
C1254 C 0.36263 0.76492 0.47259 0.0
C1255 C 0.37281 0.77837 0.3888 0.0
C1256 C 0.39084 0.76932 0.35456 0.0
C1257 C 0.40415 0.78427 0.32951 0.0
C1258 C 0.399 0.80905 0.34047 0.0
C1259 C 0.3809 0.81848 0.37653 0.0
C1260 C 0.36757 0.80276 0.40007 0.0
H1261 H 0.56411 0.15071 0.55914 0.0
H1262 H 0.57708 0.11747 0.69164 0.0
H1263 H 0.53474 0.10977 0.69845 0.0
H1264 H 0.5128 0.18113 0.60976 0.0
H1265 H 0.49688 0.17664 0.5481 0.0
H1266 H 0.52858 0.17696 0.54806 0.0
H1267 H 0.52887 0.13494 0.48479 0.0
H1268 H 0.4971 0.13451 0.48459 0.0
H1269 H 0.51319 0.11051 0.50315 0.0
H1270 H 0.49229 0.1087 0.69763 0.0
H1271 H 0.44985 0.1152 0.69095 0.0
H1272 H 0.46162 0.1496 0.55962 0.0
C1273 C 0.55792 0.14124 0.58843 0.0
C1274 C 0.57374 0.13429 0.62441 0.0
C1275 C 0.56517 0.12261 0.6634 0.0
C1276 C 0.54118 0.11813 0.66754 0.0
C1277 C 0.52591 0.12544 0.63229 0.0
C1278 C 0.53371 0.1367 0.59339 0.0
C1279 C 0.51292 0.14407 0.56349 0.0
C1280 C 0.51279 0.17132 0.56763 0.0
C1281 C 0.51303 0.13019 0.50555 0.0
C1282 C 0.49239 0.13615 0.59339 0.0
C1283 C 0.50057 0.12502 0.63215 0.0
C1284 C 0.48558 0.11702 0.66694 0.0
C1285 C 0.46151 0.12079 0.66278 0.0
C1286 C 0.45253 0.13257 0.62434 0.0
C1287 C 0.46807 0.14004 0.58846 0.0
H1288 H 0.88153 0.21237 0.94985 0.0
H1289 H 0.89645 0.18546 0.7832 0.0
H1290 H 0.89633 0.22718 0.76996 0.0
H1291 H 0.84157 0.25791 0.93203 0.0
H1292 H 0.85087 0.27868 0.99146 0.0
H1293 H 0.85289 0.24689 0.98719 0.0
H1294 H 0.89746 0.25153 1.00973 0.0
H1295 H 0.89552 0.28333 1.014 0.0
H1296 H 0.91651 0.26569 0.96991 0.0
H1297 H 0.89469 0.27341 0.77692 0.0
H1298 H 0.88982 0.31783 0.80307 0.0
H1299 H 0.87509 0.31175 0.96377 0.0
C1300 C 0.88502 0.21512 0.91052 0.0
C1301 C 0.88932 0.19563 0.86762 0.0
C1302 C 0.89326 0.20015 0.81671 0.0
C1303 C 0.89325 0.22378 0.80886 0.0
C1304 C 0.88901 0.24262 0.85225 0.0
C1305 C 0.88481 0.23837 0.90198 0.0
C1306 C 0.87991 0.26127 0.94208 0.0
C1307 C 0.85482 0.26117 0.96448 0.0
C1308 C 0.89847 0.2657 0.98653 0.0
C1309 C 0.88225 0.2792 0.90756 0.0
C1310 C 0.88755 0.2684 0.85583 0.0
C1311 C 0.89048 0.28197 0.81738 0.0
C1312 C 0.88773 0.30713 0.83246 0.0
C1313 C 0.88199 0.31819 0.88536 0.0
C1314 C 0.87939 0.30389 0.92292 0.0
H1315 H 0.61424 0.80456 0.33062 0.0
H1316 H 0.68047 0.82692 0.4098 0.0
H1317 H 0.68891 0.78507 0.41372 0.0
H1318 H 0.59797 0.7623 0.39896 0.0
H1319 H 0.5867 0.73996 0.34414 0.0
H1320 H 0.5869 0.77107 0.34077 0.0
H1321 H 0.61113 0.76091 0.2539 0.0
H1322 H 0.61074 0.72964 0.25668 0.0
H1323 H 0.63838 0.74472 0.25256 0.0
H1324 H 0.68739 0.7431 0.42202 0.0
H1325 H 0.67829 0.70128 0.42512 0.0
H1326 H 0.61451 0.70376 0.33451 0.0
C1327 C 0.63091 0.80034 0.34667 0.0
C1328 C 0.64702 0.81873 0.36889 0.0
C1329 C 0.6683 0.81289 0.39136 0.0
C1330 C 0.67315 0.78923 0.39405 0.0
C1331 C 0.65677 0.77151 0.37294 0.0
C1332 C 0.63637 0.77654 0.34838 0.0
C1333 C 0.62156 0.75398 0.33049 0.0
C1334 C 0.59682 0.75702 0.35508 0.0
C1335 C 0.62037 0.7469 0.26979 0.0
C1336 C 0.63602 0.736 0.35212 0.0
C1337 C 0.65638 0.74659 0.37597 0.0
C1338 C 0.67186 0.73441 0.40223 0.0
C1339 C 0.66651 0.71071 0.40391 0.0
C1340 C 0.64597 0.69934 0.37924 0.0
C1341 C 0.63058 0.71201 0.35257 0.0
H1342 H 0.85778 0.72668 0.21465 0.0
H1343 H 0.92031 0.69752 0.12849 0.0
H1344 H 0.93204 0.73812 0.12004 0.0
H1345 H 0.84387 0.7691 0.14464 0.0
H1346 H 0.83545 0.79265 0.19993 0.0
H1347 H 0.83307 0.76179 0.20463 0.0
H1348 H 0.85944 0.77048 0.28859 0.0
H1349 H 0.86167 0.8015 0.28434 0.0
H1350 H 0.88797 0.78416 0.28615 0.0
H1351 H 0.93329 0.78002 0.10768 0.0
H1352 H 0.92702 0.8222 0.10271 0.0
H1353 H 0.86615 0.82581 0.2049 0.0
C1354 C 0.87435 0.72908 0.19575 0.0
C1355 C 0.88835 0.70913 0.17292 0.0
C1356 C 0.90965 0.71268 0.1473 0.0
C1357 C 0.91636 0.73564 0.14199 0.0
C1358 C 0.90194 0.75492 0.1639 0.0
C1359 C 0.88173 0.75205 0.1916 0.0
C1360 C 0.86921 0.77581 0.21026 0.0
C1361 C 0.84391 0.77476 0.18854 0.0
C1362 C 0.86959 0.78343 0.27095 0.0
C1363 C 0.88475 0.79213 0.186 0.0
C1364 C 0.90356 0.77967 0.15952 0.0
C1365 C 0.9191 0.79018 0.12968 0.0
C1366 C 0.91538 0.81408 0.127 0.0
C1367 C 0.8965 0.8273 0.15454 0.0
C1368 C 0.88116 0.81629 0.18496 0.0
H1369 H 0.65209 0.21549 0.57404 0.0
H1370 H 0.63545 0.20953 0.73395 0.0
H1371 H 0.63234 0.25412 0.76064 0.0
H1372 H 0.68776 0.26791 0.6085 0.0
H1373 H 0.67776 0.27931 0.55275 0.0
H1374 H 0.67853 0.24746 0.54853 0.0
H1375 H 0.63421 0.2442 0.52343 0.0
H1376 H 0.63327 0.276 0.52745 0.0
H1377 H 0.61317 0.26244 0.56623 0.0
H1378 H 0.63201 0.30046 0.76769 0.0
H1379 H 0.63263 0.34215 0.75377 0.0
H1380 H 0.64894 0.31457 0.58808 0.0
C1381 C 0.64773 0.2234 0.61482 0.0
C1382 C 0.64398 0.20914 0.65196 0.0
C1383 C 0.63834 0.22025 0.70488 0.0
C1384 C 0.63661 0.24549 0.72027 0.0
C1385 C 0.64059 0.25901 0.68214 0.0
C1386 C 0.64597 0.24812 0.6305 0.0
C1387 C 0.64947 0.26595 0.59623 0.0
C1388 C 0.67489 0.26511 0.5753 0.0
C1389 C 0.63145 0.26191 0.55068 0.0
C1390 C 0.64486 0.28886 0.63622 0.0
C1391 C 0.64002 0.28478 0.68582 0.0
C1392 C 0.63568 0.30374 0.72892 0.0
C1393 C 0.63612 0.32731 0.72076 0.0
C1394 C 0.64059 0.33152 0.66983 0.0
C1395 C 0.64512 0.31197 0.62741 0.0
H1396 H 0.96284 0.35929 0.86141 0.0
H1397 H 0.94894 0.41877 0.99388 0.0
H1398 H 0.9917 0.4238 1.01072 0.0
H1399 H 1.01317 0.33577 0.92443 0.0
H1400 H 0.0288 0.32671 0.86282 0.0
H1401 H 0.99706 0.32681 0.86324 0.0
H1402 H 0.99706 0.35454 0.7964 0.0
H1403 H 0.02874 0.35459 0.79596 0.0
H1404 H 1.01301 0.38258 0.81218 0.0
H1405 H 0.03583 0.4236 1.01044 0.0
H1406 H 0.07839 0.41821 0.99347 0.0
H1407 H 0.06355 0.35891 0.86081 0.0
C1408 C 0.96877 0.3732 0.89439 0.0
C1409 C 0.95257 0.38856 0.92665 0.0
C1410 C 0.96102 0.40659 0.9692 0.0
C1411 C 0.98527 0.40964 0.97891 0.0
C1412 C 1.00076 0.39433 0.94609 0.0
C1413 C 0.99286 0.37633 0.90496 0.0
C1414 C 1.01322 0.36249 0.87524 0.0
C1415 C 1.01304 0.3364 0.88182 0.0
C1416 C 1.01298 0.36364 0.81647 0.0
C1417 C 0.03381 0.37628 0.90447 0.0
C1418 C 0.02623 0.39428 0.9458 0.0
C1419 C 0.04198 0.40944 0.97848 0.0
C1420 C 0.06614 0.40617 0.96861 0.0
C1421 C 0.07431 0.38804 0.92604 0.0
C1422 C 0.05785 0.37288 0.89373 0.0
H1423 H 0.46466 0.65724 0.3918 0.0
H1424 H 0.45044 0.592 0.44493 0.0
H1425 H 0.49297 0.58791 0.46225 0.0
H1426 H 0.51336 0.63952 0.32174 0.0
H1427 H 0.52975 0.66724 0.33931 0.0
H1428 H 0.49816 0.6677 0.34181 0.0
H1429 H 0.49952 0.69021 0.44033 0.0
H1430 H 0.53128 0.69008 0.43806 0.0
H1431 H 0.5161 0.67775 0.48714 0.0
H1432 H 0.5375 0.58763 0.45952 0.0
H1433 H 0.57971 0.59151 0.4383 0.0
H1434 H 0.5648 0.65692 0.38668 0.0
C1435 C 0.47043 0.64294 0.41011 0.0
C1436 C 0.45428 0.62555 0.41954 0.0
C1437 C 0.46248 0.60613 0.44011 0.0
C1438 C 0.48663 0.60355 0.44947 0.0
C1439 C 0.50228 0.62074 0.43855 0.0
C1440 C 0.49443 0.6403 0.42013 0.0
C1441 C 0.51488 0.65508 0.40703 0.0
C1442 C 0.51397 0.6575 0.34903 0.0
C1443 C 0.51548 0.67975 0.4454 0.0
C1444 C 0.53546 0.63991 0.41709 0.0
C1445 C 0.5279 0.6205 0.43665 0.0
C1446 C 0.54364 0.60314 0.44574 0.0
C1447 C 0.56757 0.60553 0.43393 0.0
C1448 C 0.57545 0.62496 0.41277 0.0
C1449 C 0.55925 0.64244 0.40477 0.0
H1450 H 0.46233 0.43442 0.60936 0.0
H1451 H 0.44774 0.36213 0.62705 0.0
H1452 H 0.49051 0.35354 0.6241 0.0
H1453 H 0.51359 0.41622 0.51758 0.0
H1454 H 0.52894 0.44396 0.54383 0.0
H1455 H 0.49717 0.44331 0.54198 0.0
H1456 H 0.49606 0.46154 0.64296 0.0
H1457 H 0.5277 0.46212 0.64523 0.0
H1458 H 0.51144 0.44663 0.68743 0.0
H1459 H 0.53525 0.35423 0.62647 0.0
H1460 H 0.57781 0.36408 0.63365 0.0
H1461 H 0.56273 0.43593 0.61431 0.0
C1462 C 0.46818 0.4166 0.61114 0.0
C1463 C 0.45187 0.39882 0.61761 0.0
C1464 C 0.46002 0.3758 0.6208 0.0
C1465 C 0.48426 0.37082 0.61948 0.0
C1466 C 0.49999 0.3889 0.61377 0.0
C1467 C 0.49222 0.4112 0.60881 0.0
C1468 C 0.51265 0.42768 0.60409 0.0
C1469 C 0.51311 0.43313 0.54858 0.0
C1470 C 0.51191 0.45085 0.64755 0.0
C1471 C 0.53314 0.41189 0.61137 0.0
C1472 C 0.52555 0.38933 0.61533 0.0
C1473 C 0.54137 0.37172 0.62264 0.0
C1474 C 0.5655 0.37742 0.62638 0.0
C1475 C 0.57345 0.40067 0.62391 0.0
C1476 C 0.55706 0.41797 0.61584 0.0
H1477 H 0.06396 0.66149 0.08153 0.0
H1478 H 0.07693 0.59704 0.139 0.0
H1479 H 0.03445 0.58761 0.13402 0.0
H1480 H 1.01308 0.67897 0.15141 0.0
H1481 H 0.99744 0.68919 0.09999 0.0
H1482 H 0.02911 0.68927 0.10053 0.0
H1483 H 0.02949 0.66301 1.00512 0.0
H1484 H 0.99771 0.66289 1.00422 0.0
H1485 H 1.01357 0.63497 0.99086 0.0
H1486 H 0.99123 0.58738 0.13295 0.0
H1487 H 0.94875 0.59647 0.13618 0.0
H1488 H 0.96246 0.66098 0.07912 0.0
C1489 C 0.05778 0.64498 0.091 0.0
C1490 C 0.07353 0.62952 0.10909 0.0
C1491 C 0.06501 0.60862 0.12362 0.0
C1492 C 0.04097 0.60318 0.12104 0.0
C1493 C 0.02573 0.61879 0.10353 0.0
C1494 C 0.03369 0.63917 0.08833 0.0
C1495 C 1.01319 0.6536 0.0744 0.0
C1496 C 1.01322 0.67927 0.10866 0.0
C1497 C 1.01352 0.65363 1.01513 0.0
C1498 C 0.99256 0.63896 0.0874 0.0
C1499 C 1.00032 0.61864 0.10288 0.0
C1500 C 0.98486 0.60287 0.11961 0.0
C1501 C 0.96082 0.60809 0.12106 0.0
C1502 C 0.95249 0.62888 0.10606 0.0
C1503 C 0.96847 0.64448 0.0887 0.0
H1504 H 0.16333 0.54707 0.13082 0.0
H1505 H 0.11836 0.58709 0.04648 0.0
H1506 H 0.11419 0.55163 0.97346 0.0
H1507 H 0.19307 0.51103 1.01506 0.0
H1508 H 0.19327 0.48418 0.04083 0.0
H1509 H 0.19389 0.51321 0.08553 0.0
H1510 H 0.15681 0.50178 0.1329 0.0
H1511 H 0.15607 0.47279 0.08814 0.0
H1512 H 0.13061 0.49193 0.09481 0.0
H1513 H 0.11247 0.51163 0.91266 0.0
H1514 H 0.11478 0.46947 0.86446 0.0
H1515 H 0.16168 0.45403 0.98491 0.0
C1516 C 0.15294 0.54834 0.09649 0.0
C1517 C 0.14146 0.56996 0.0938 0.0
C1518 C 0.12758 0.57092 0.04902 0.0
C1519 C 0.12503 0.55078 1.00737 0.0
C1520 C 0.1363 0.52964 1.01127 0.0
C1521 C 0.15006 0.5282 0.05447 0.0
C1522 C 0.15951 0.50291 0.04909 0.0
C1523 C 0.18655 0.50284 0.04752 0.0
C1524 C 0.15019 0.4917 0.09391 0.0
C1525 C 0.14906 0.49049 0.99596 0.0
C1526 C 0.13556 0.50633 0.97533 0.0
C1527 C 0.12317 0.49911 0.92809 0.0
C1528 C 0.12457 0.47509 0.90103 0.0
C1529 C 0.13851 0.45851 0.92061 0.0
C1530 C 0.15107 0.46637 0.96868 0.0
H1531 H 0.71487 0.91507 0.28266 0.0
H1532 H 0.73117 0.85975 0.36759 0.0
H1533 H 0.77076 0.85513 0.3264 0.0
H1534 H 0.74363 0.89083 0.16333 0.0
H1535 H 0.75502 0.91897 0.15319 0.0
H1536 H 0.72843 0.9184 0.19065 0.0
H1537 H 0.74684 0.94859 0.27003 0.0
H1538 H 0.77354 0.94934 0.23279 0.0
H1539 H 0.77467 0.94174 0.29667 0.0
H1540 H 0.80644 0.85328 0.2674 0.0
H1541 H 0.83739 0.85734 0.20281 0.0
H1542 H 0.80014 0.91713 0.16392 0.0
C1543 C 0.72693 0.90219 0.29299 0.0
C1544 C 0.72005 0.88767 0.32813 0.0
C1545 C 0.73624 0.87112 0.34106 0.0
C1546 C 0.75868 0.86833 0.31768 0.0
C1547 C 0.76486 0.88273 0.28266 0.0
C1548 C 0.74964 0.8997 0.27128 0.0
C1549 C 0.76074 0.91319 0.23307 0.0
C1550 C 0.74608 0.91015 0.18205 0.0
C1551 C 0.76415 0.9398 0.25973 0.0
C1552 C 0.78422 0.90047 0.22283 0.0
C1553 C 0.78618 0.88289 0.25175 0.0
C1554 C 0.80534 0.86737 0.24562 0.0
C1555 C 0.82281 0.86977 0.20884 0.0
C1556 C 0.82136 0.88785 0.17945 0.0
C1557 C 0.80197 0.90362 0.1871 0.0
H1558 H 0.35734 0.48434 0.60481 0.0
H1559 H 0.42801 0.45744 0.56847 0.0
H1560 H 0.43457 0.48725 0.51421 0.0
H1561 H 0.34461 0.49473 0.47887 0.0
H1562 H 0.32849 0.52217 0.50133 0.0
H1563 H 0.32943 0.50013 0.54144 0.0
H1564 H 0.34604 0.53185 0.62057 0.0
H1565 H 0.34455 0.55413 0.58112 0.0
H1566 H 0.37201 0.54874 0.61141 0.0
H1567 H 0.43202 0.5163 0.45501 0.0
H1568 H 0.42314 0.54878 0.40848 0.0
H1569 H 0.35542 0.55941 0.48688 0.0
C1570 C 0.37453 0.48558 0.58749 0.0
C1571 C 0.39245 0.46903 0.59204 0.0
C1572 C 0.41431 0.47037 0.56655 0.0
C1573 C 0.41811 0.48704 0.53508 0.0
C1574 C 0.39989 0.50248 0.52953 0.0
C1575 C 0.37873 0.50242 0.55603 0.0
C1576 C 0.36206 0.52086 0.5422 0.0
C1577 C 0.33983 0.50874 0.51434 0.0
C1578 C 0.3558 0.54004 0.59178 0.0
C1579 C 0.37718 0.53117 0.50413 0.0
C1580 C 0.39873 0.5199 0.49646 0.0
C1581 C 0.41527 0.52545 0.46107 0.0
C1582 C 0.40998 0.54363 0.4342 0.0
C1583 C 0.38851 0.55624 0.4435 0.0
C1584 C 0.37186 0.54978 0.47862 0.0
H1585 H 0.7946 0.12814 0.89931 0.0
H1586 H 0.84662 0.13882 0.7852 0.0
H1587 H 0.81506 0.13906 0.71878 0.0
H1588 H 0.75376 0.09074 0.80878 0.0
H1589 H 0.72806 0.10479 0.84268 0.0
H1590 H 0.75496 0.10352 0.87885 0.0
H1591 H 0.75426 0.1498 0.91203 0.0
H1592 H 0.72741 0.15118 0.87585 0.0
H1593 H 0.7527 0.16854 0.86451 0.0
H1594 H 0.77741 0.13784 0.66498 0.0
H1595 H 0.73668 0.13898 0.63114 0.0
H1596 H 0.70958 0.13208 0.78376 0.0
C1597 C 0.7993 0.13 0.8599 0.0
C1598 C 0.82307 0.13192 0.84574 0.0
C1599 C 0.82861 0.13554 0.79497 0.0
C1600 C 0.8108 0.13608 0.75753 0.0
C1601 C 0.78749 0.13352 0.77213 0.0
C1602 C 0.78171 0.13087 0.82239 0.0
C1603 C 0.7553 0.13004 0.82934 0.0
C1604 C 0.74757 0.10583 0.84057 0.0
C1605 C 0.74693 0.15115 0.87302 0.0
C1606 C 0.74713 0.13262 0.77524 0.0
C1607 C 0.76591 0.1344 0.74252 0.0
C1608 C 0.76256 0.13659 0.6904 0.0
C1609 C 0.73939 0.13718 0.67146 0.0
C1610 C 0.71992 0.13586 0.70481 0.0
C1611 C 0.72402 0.13342 0.75726 0.0
H1612 H 0.90475 0.5497 0.12567 0.0
H1613 H 0.84984 0.5836 0.05198 0.0
H1614 H 0.84594 0.54704 0.98113 0.0
H1615 H 0.9324 0.51589 1.01194 0.0
H1616 H 0.93634 0.48927 0.03756 0.0
H1617 H 0.93499 0.51821 0.08227 0.0
H1618 H 0.90063 0.5034 0.13285 0.0
H1619 H 0.90191 0.47431 0.08844 0.0
H1620 H 0.87468 0.49077 0.09703 0.0
H1621 H 0.84829 0.50694 0.91766 0.0
H1622 H 0.85584 0.46549 0.86751 0.0
H1623 H 0.90805 0.4566 0.98358 0.0
C1624 C 0.89189 0.54938 0.09462 0.0
C1625 C 0.87804 0.56977 0.09349 0.0
C1626 C 0.86109 0.56848 0.05284 0.0
C1627 C 0.85862 0.5477 1.01263 0.0
C1628 C 0.87272 0.52801 1.0145 0.0
C1629 C 0.88872 0.52848 0.05494 0.0
C1630 C 0.90092 0.50445 0.0488 0.0
C1631 C 0.92776 0.50713 0.0449 0.0
C1632 C 0.89414 0.49253 0.09449 0.0
C1633 C 0.89037 0.49089 0.9969 0.0
C1634 C 0.8738 0.50471 0.97834 0.0
C1635 C 0.86126 0.496 0.93174 0.0
C1636 C 0.86571 0.47255 0.90341 0.0
C1637 C 0.88285 0.45829 0.92118 0.0
C1638 C 0.89526 0.46749 0.96864 0.0
H1639 H 0.22939 0.10699 0.87937 0.0
H1640 H 0.18795 0.16097 0.82752 0.0
H1641 H 0.2176 0.16344 0.75944 0.0
H1642 H 0.28351 0.13632 0.87243 0.0
H1643 H 0.30049 0.10935 0.85113 0.0
H1644 H 0.27425 0.10881 0.88972 0.0
H1645 H 0.2573 0.07426 0.81665 0.0
H1646 H 0.28357 0.07476 0.77785 0.0
H1647 H 0.25511 0.07823 0.74969 0.0
H1648 H 0.25241 0.16064 0.69783 0.0
H1649 H 0.29205 0.15709 0.65669 0.0
H1650 H 0.31312 0.10918 0.75655 0.0
C1651 C 0.2264 0.11888 0.85276 0.0
C1652 C 0.20604 0.13323 0.85743 0.0
C1653 C 0.2031 0.14938 0.82366 0.0
C1654 C 0.21987 0.15089 0.78481 0.0
C1655 C 0.23988 0.13662 0.78125 0.0
C1656 C 0.24342 0.1212 0.81489 0.0
C1657 C 0.26765 0.11 0.80696 0.0
C1658 C 0.28234 0.11652 0.85809 0.0
C1659 C 0.26579 0.08269 0.78659 0.0
C1660 C 0.27731 0.12188 0.76454 0.0
C1661 C 0.26075 0.13659 0.74902 0.0
C1662 C 0.26552 0.14917 0.70969 0.0
C1663 C 0.28795 0.14697 0.68633 0.0
C1664 C 0.30541 0.13286 0.70353 0.0
C1665 C 0.29995 0.12006 0.74279 0.0
H1666 H 0.62803 0.53495 0.40713 0.0
H1667 H 0.67409 0.58522 0.51057 0.0
H1668 H 0.67819 0.55714 0.56944 0.0
H1669 H 0.59782 0.51437 0.50675 0.0
H1670 H 0.59616 0.48325 0.47309 0.0
H1671 H 0.59801 0.5062 0.43545 0.0
H1672 H 0.63505 0.48603 0.38698 0.0
H1673 H 0.63304 0.46277 0.42383 0.0
H1674 H 0.65989 0.47983 0.42518 0.0
H1675 H 0.67382 0.52639 0.623 0.0
H1676 H 0.66644 0.49082 0.66062 0.0
H1677 H 0.62516 0.45889 0.52161 0.0
C1678 C 0.63966 0.53952 0.44102 0.0
C1679 C 0.65098 0.56214 0.45405 0.0
C1680 C 0.66547 0.56787 0.4997 0.0
C1681 C 0.66781 0.55212 0.53362 0.0
C1682 C 0.65579 0.53042 0.52118 0.0
C1683 C 0.64248 0.52371 0.47541 0.0
C1684 C 0.63122 0.49929 0.47251 0.0
C1685 C 0.6042 0.50089 0.47191 0.0
C1686 C 0.64035 0.48089 0.42427 0.0
C1687 C 0.63999 0.49378 0.52399 0.0
C1688 C 0.65392 0.51212 0.55168 0.0
C1689 C 0.66321 0.51169 0.6014 0.0
C1690 C 0.65874 0.49156 0.62276 0.0
C1691 C 0.64531 0.47211 0.59413 0.0
C1692 C 0.63563 0.47345 0.54437 0.0
H1693 H 0.28576 0.88831 0.3529 0.0
H1694 H 0.33553 0.91243 0.24791 0.0
H1695 H 0.30384 0.9158 0.18682 0.0
H1696 H 0.24927 0.85345 0.25324 0.0
H1697 H 0.22147 0.86221 0.28512 0.0
H1698 H 0.24776 0.86276 0.32432 0.0
H1699 H 0.2405 0.90737 0.36749 0.0
H1700 H 0.21424 0.90714 0.32819 0.0
H1701 H 0.23723 0.92873 0.32615 0.0
H1702 H 0.26923 0.91324 0.13201 0.0
H1703 H 0.23062 0.90809 0.08784 0.0
H1704 H 0.20037 0.88689 0.22425 0.0
C1705 C 0.28977 0.89483 0.3177 0.0
C1706 C 0.31339 0.89984 0.30533 0.0
C1707 C 0.31781 0.90811 0.25839 0.0
C1708 C 0.29986 0.9102 0.22313 0.0
C1709 C 0.2771 0.90449 0.2352 0.0
C1710 C 0.27167 0.89734 0.28145 0.0
C1711 C 0.24527 0.89219 0.28289 0.0
C1712 C 0.24068 0.86609 0.2866 0.0
C1713 C 0.23361 0.90991 0.32893 0.0
C1714 C 0.23729 0.89671 0.22945 0.0
C1715 C 0.25616 0.90393 0.20323 0.0
C1716 C 0.25412 0.90809 0.15244 0.0
C1717 C 0.23212 0.90504 0.12752 0.0
C1718 C 0.21226 0.89798 0.15311 0.0
C1719 C 0.21489 0.89362 0.20485 0.0
H1720 H 0.60864 0.9705 0.44494 0.0
H1721 H 0.68195 0.95108 0.45708 0.0
H1722 H 0.68942 0.98952 0.51944 0.0
H1723 H 0.61898 0.03385 0.45264 0.0
H1724 H 0.59333 0.0436 0.49235 0.0
H1725 H 0.59346 0.0146 0.44754 0.0
H1726 H 0.58324 0.99438 0.52513 0.0
H1727 H 0.58309 0.02333 0.57012 0.0
H1728 H 0.60181 0.99988 0.58308 0.0
H1729 H 0.68995 0.03049 0.57566 0.0
H1730 H 0.68248 0.07073 0.63113 0.0
H1731 H 0.60832 0.06351 0.59042 0.0
C1732 C 0.62623 0.97445 0.46076 0.0
C1733 C 0.64479 0.95793 0.44577 0.0
C1734 C 0.66751 0.96353 0.46773 0.0
C1735 C 0.67196 0.98534 0.50317 0.0
C1736 C 0.65345 1.00134 0.51688 0.0
C1737 C 0.63097 0.99617 0.49702 0.0
C1738 C 0.61428 0.01657 0.5196 0.0
C1739 C 0.60443 0.02782 0.4754 0.0
C1740 C 0.59443 1.00802 0.55137 0.0
C1741 C 0.63088 0.03378 0.55551 0.0
C1742 C 0.65347 0.0247 0.55235 0.0
C1743 C 0.67228 0.03765 0.57922 0.0
C1744 C 0.66787 0.06044 0.61058 0.0
C1745 C 0.64479 0.06982 0.61598 0.0
C1746 C 0.62601 0.05636 0.58807 0.0
H1747 H 0.21876 0.4235 0.80611 0.0
H1748 H 0.22904 0.35866 0.86372 0.0
H1749 H 0.26792 0.35291 0.81949 0.0
H1750 H 0.24419 0.40539 0.68202 0.0
H1751 H 0.25891 0.43333 0.68127 0.0
H1752 H 0.23271 0.43322 0.72023 0.0
H1753 H 0.2551 0.45527 0.80422 0.0
H1754 H 0.28142 0.45564 0.76548 0.0
H1755 H 0.28202 0.44273 0.82298 0.0
H1756 H 0.30264 0.35138 0.75931 0.0
H1757 H 0.33336 0.35633 0.69508 0.0
H1758 H 0.30331 0.42458 0.68363 0.0
C1759 C 0.22957 0.40848 0.81045 0.0
C1760 C 0.22125 0.39164 0.83877 0.0
C1761 C 0.23548 0.37195 0.84307 0.0
C1762 C 0.25745 0.3685 0.81782 0.0
C1763 C 0.26514 0.38527 0.78964 0.0
C1764 C 0.2519 0.40519 0.78684 0.0
C1765 C 0.26432 0.42047 0.75402 0.0
C1766 C 0.24912 0.42325 0.70658 0.0
C1767 C 0.27112 0.44499 0.78874 0.0
C1768 C 0.286 0.40539 0.73639 0.0
C1769 C 0.28606 0.38515 0.75751 0.0
C1770 C 0.30309 0.36743 0.7436 0.0
C1771 C 0.32042 0.37035 0.707 0.0
C1772 C 0.32085 0.39098 0.68522 0.0
C1773 C 0.30366 0.40893 0.70079 0.0
H1774 H 0.86555 0.98782 0.11834 0.0
H1775 H 0.92323 0.94642 0.03465 0.0
H1776 H 0.92729 0.97513 0.97758 0.0
H1777 H 0.83972 1.00479 1.00881 0.0
H1778 H 0.83283 0.03522 0.04131 0.0
H1779 H 0.83472 0.01239 0.07924 0.0
H1780 H 0.86603 0.03747 0.1407 0.0
H1781 H 0.86388 0.06058 0.10353 0.0
H1782 H 0.89207 0.04758 0.11213 0.0
H1783 H 0.92247 1.0049 0.92197 0.0
H1784 H 0.91399 0.03961 0.88229 0.0
H1785 H 0.86196 0.06439 1.00448 0.0
C1786 C 0.87959 0.9854 0.08945 0.0
C1787 C 0.8941 0.96483 0.08115 0.0
C1788 C 0.9119 0.96201 0.04185 0.0
C1789 C 0.9143 0.97815 1.00885 0.0
C1790 C 0.89916 0.99755 1.01609 0.0
C1791 C 0.88262 1.00181 0.05632 0.0
C1792 C 0.86884 0.02441 0.0549 0.0
C1793 C 0.84246 0.01885 0.04552 0.0
C1794 C 0.87296 0.04365 0.10583 0.0
C1795 C 0.87997 0.03162 1.00726 0.0
C1796 C 0.89718 0.01565 0.98507 0.0
C1797 C 0.90923 0.01781 0.93936 0.0
C1798 C 0.90412 0.03737 0.91666 0.0
C1799 C 0.88734 0.05463 0.94011 0.0
C1800 C 0.87495 0.05147 0.98567 0.0
H1801 H 0.20928 0.62811 0.28418 0.0
H1802 H 0.23604 0.64211 0.13699 0.0
H1803 H 0.27673 0.64224 0.1713 0.0
H1804 H 0.25026 0.66436 0.37119 0.0
H1805 H 0.25309 0.64372 0.41434 0.0
H1806 H 0.22616 0.64464 0.37811 0.0
H1807 H 0.22966 0.59912 0.33711 0.0
H1808 H 0.25663 0.59803 0.3732 0.0
H1809 H 0.25614 0.58777 0.30226 0.0
H1810 H 0.31416 0.64442 0.22523 0.0
H1811 H 0.34566 0.6447 0.29135 0.0
H1812 H 0.29504 0.62489 0.39908 0.0
C1813 C 0.22369 0.63122 0.25912 0.0
C1814 C 0.21951 0.6353 0.20802 0.0
C1815 C 0.23886 0.63897 0.17625 0.0
C1816 C 0.262 0.63913 0.19545 0.0
C1817 C 0.2655 0.63521 0.24616 0.0
C1818 C 0.24689 0.63103 0.27729 0.0
C1819 C 0.25541 0.62688 0.32996 0.0
C1820 C 0.24564 0.64604 0.37611 0.0
C1821 C 0.24908 0.60144 0.33597 0.0
C1822 C 0.28172 0.62971 0.32402 0.0
C1823 C 0.28717 0.63469 0.27553 0.0
C1824 C 0.31018 0.6397 0.26251 0.0
C1825 C 0.32804 0.63938 0.29984 0.0
C1826 C 0.32297 0.63313 0.3485 0.0
C1827 C 0.29946 0.62865 0.36105 0.0
H1828 H 0.36439 0.95522 0.47568 0.0
H1829 H 0.42208 0.96881 0.37622 0.0
H1830 H 0.42514 1.01024 0.42788 0.0
H1831 H 0.33732 0.01396 0.49823 0.0
H1832 H 0.33098 0.01572 0.56714 0.0
H1833 H 0.33231 0.98691 0.52175 0.0
H1834 H 0.36369 0.97299 0.58072 0.0
H1835 H 0.36249 1.00173 0.62639 0.0
H1836 H 0.39021 0.99046 0.59766 0.0
H1837 H 0.42361 0.04945 0.49071 0.0
H1838 H 0.41738 0.08487 0.56294 0.0
H1839 H 0.3603 0.04816 0.62366 0.0
C1840 C 0.37755 0.96701 0.46477 0.0
C1841 C 0.39298 0.95873 0.42154 0.0
C1842 C 0.41009 0.97465 0.40896 0.0
C1843 C 0.41197 0.99829 0.43809 0.0
C1844 C 0.39678 1.00591 0.48047 0.0
C1845 C 0.37996 0.99084 0.49429 0.0
C1846 C 0.36667 1.00373 0.54341 0.0
C1847 C 0.34024 1.00516 0.53191 0.0
C1848 C 0.37103 0.9915 0.5898 0.0
C1849 C 0.37822 0.02844 0.55372 0.0
C1850 C 0.39572 0.02906 0.51706 0.0
C1851 C 0.40978 0.0493 0.51935 0.0
C1852 C 0.40605 0.06941 0.56042 0.0
C1853 C 0.38807 0.06946 0.59813 0.0
C1854 C 0.37386 0.04873 0.59458 0.0
H1855 H 0.81347 0.6133 0.25505 0.0
H1856 H 0.79412 0.66489 0.1626 0.0
H1857 H 0.75445 0.66848 0.20348 0.0
H1858 H 0.75499 0.58365 0.2434 0.0
H1859 H 0.75668 0.57769 0.30878 0.0
H1860 H 0.7832 0.57888 0.27121 0.0
H1861 H 0.80035 0.6114 0.34811 0.0
H1862 H 0.77392 0.61041 0.38586 0.0
H1863 H 0.78389 0.63848 0.37248 0.0
H1864 H 0.71912 0.67017 0.26321 0.0
H1865 H 0.68873 0.66629 0.32898 0.0
H1866 H 0.72877 0.60968 0.37438 0.0
C1867 C 0.80072 0.62513 0.24307 0.0
C1868 C 0.8067 0.63894 0.20597 0.0
C1869 C 0.78969 0.65411 0.19078 0.0
C1870 C 0.76721 0.65629 0.21392 0.0
C1871 C 0.7619 0.64263 0.25093 0.0
C1872 C 0.77798 0.62692 0.26448 0.0
C1873 C 0.76769 0.61396 0.30449 0.0
C1874 C 0.76551 0.58694 0.28054 0.0
C1875 C 0.78234 0.61887 0.35577 0.0
C1876 C 0.74366 0.62559 0.31323 0.0
C1877 C 0.74073 0.64216 0.28207 0.0
C1878 C 0.72093 0.65676 0.28664 0.0
C1879 C 0.70374 0.65442 0.32406 0.0
C1880 C 0.7061 0.63718 0.35541 0.0
C1881 C 0.72622 0.62243 0.34955 0.0
H1882 H 0.11631 0.04017 0.93635 0.0
H1883 H 0.18609 0.06975 0.97511 0.0
H1884 H 0.19316 0.04032 0.03035 0.0
H1885 H 0.10308 0.02882 0.06159 0.0
H1886 H 0.08794 1.00075 0.03748 0.0
H1887 H 0.08851 0.02313 0.99817 0.0
H1888 H 0.1066 0.99251 0.91936 0.0
H1889 H 0.10554 0.96987 0.95794 0.0
H1890 H 0.133 0.9767 0.92955 0.0
H1891 H 0.19119 1.01044 0.08892 0.0
H1892 H 0.18321 0.97675 0.13273 0.0
H1893 H 0.11602 0.96441 0.05171 0.0
C1894 C 0.13338 0.03973 0.9548 0.0
C1895 C 0.15097 0.05675 0.9503 0.0
C1896 C 0.1727 0.05638 0.9769 0.0
C1897 C 0.17676 0.03994 1.00891 0.0
C1898 C 0.15891 0.0238 1.01386 0.0
C1899 C 0.13788 0.02309 0.98646 0.0
C1900 C 0.12173 1.00379 0.99878 0.0
C1901 C 0.09897 0.01479 0.02557 0.0
C1902 C 0.11641 0.98458 0.94842 0.0
C1903 C 0.13693 0.9939 0.03727 0.0
C1904 C 0.15812 1.00605 0.04633 0.0
C1905 C 0.17472 1.00068 0.08184 0.0
C1906 C 0.16993 0.98178 0.10719 0.0
C1907 C 0.1489 0.9683 0.09628 0.0
C1908 C 0.13212 0.97469 0.06134 0.0
H1909 H 0.72185 0.36584 0.65233 0.0
H1910 H 0.69667 0.437 0.72476 0.0
H1911 H 0.72928 0.44193 0.78962 0.0
H1912 H 0.7425 0.35016 0.7738 0.0
H1913 H 0.76795 0.33439 0.74257 0.0
H1914 H 0.74156 0.33569 0.70459 0.0
H1915 H 0.76547 0.35376 0.63737 0.0
H1916 H 0.7919 0.35239 0.67498 0.0
H1917 H 0.78281 0.38051 0.66081 0.0
H1918 H 0.7647 0.43891 0.84717 0.0
H1919 H 0.8025 0.42994 0.88646 0.0
H1920 H 0.80657 0.36248 0.7712 0.0
C1921 C 0.72317 0.38244 0.68192 0.0
C1922 C 0.70649 0.40091 0.68405 0.0
C1923 C 0.70896 0.42243 0.72306 0.0
C1924 C 0.72746 0.42542 0.75999 0.0
C1925 C 0.74357 0.40683 0.75694 0.0
C1926 C 0.74176 0.38586 0.71852 0.0
C1927 C 0.762 0.36911 0.72227 0.0
C1928 C 0.75296 0.34596 0.73665 0.0
C1929 C 0.7764 0.36364 0.6708 0.0
C1930 C 0.77588 0.38422 0.76765 0.0
C1931 C 0.7646 0.40564 0.78813 0.0
C1932 C 0.77369 0.42221 0.83137 0.0
C1933 C 0.79503 0.41692 0.85367 0.0
C1934 C 0.80725 0.39551 0.83191 0.0
C1935 C 0.79749 0.37896 0.78851 0.0
loop_
_geom_bond_atom_site_label_1
_geom_bond_atom_site_label_2
_geom_bond_distance
_geom_bond_site_symmetry_2
_ccdc_geom_bond_type
Sm0 C2 2.846 1_554 S
Sm0 O20 2.543 1_554 S
Sm0 O21 2.450 1_554 S
Sm0 O22 2.681 . S
Sm0 O23 2.464 . S
Sm0 O24 2.396 . S
Sm0 O28 2.386 . S
Sm0 O31 2.408 . S
Sm1 C11 2.846 . S
Sm1 O22 2.386 . S
Sm1 O25 2.408 . S
Sm1 O26 2.543 . S
Sm1 O27 2.450 . S
Sm1 O28 2.681 . S
Sm1 O29 2.464 . S
Sm1 O30 2.396 . S
C2 Sm0 2.846 1_556 S
C2 C3 1.506 . S
C2 O20 1.261 . S
C2 O21 1.242 . S
C3 C2 1.506 . S
C3 C4 1.358 . S
C3 C8 1.382 . S
C4 C3 1.358 . S
C4 C5 1.385 . S
C4 H32 0.930 . S
C5 C4 1.385 . S
C5 C6 1.395 . S
C5 H33 0.929 . S
C6 C5 1.395 . S
C6 C7 1.335 . S
C7 C6 1.335 . S
C7 C8 1.398 . S
C7 H34 0.930 . S
C8 C3 1.382 . S
C8 C7 1.398 . S
C8 H35 0.929 . S
C9 O22 1.271 . S
C9 O23 1.251 . S
C10 O24 1.252 . S
C10 O25 1.272 . S
C11 Sm1 2.846 . S
C11 C12 1.506 . S
C11 O26 1.261 . S
C11 O27 1.242 . S
C12 C11 1.506 . S
C12 C13 1.358 . S
C12 C17 1.382 . S
C13 C12 1.358 . S
C13 C14 1.385 . S
C13 H36 0.930 . S
C14 C13 1.385 . S
C14 C15 1.395 . S
C14 H37 0.929 . S
C15 C14 1.395 . S
C15 C16 1.335 . S
C16 C15 1.335 . S
C16 C17 1.398 . S
C16 H38 0.930 . S
C17 C12 1.382 . S
C17 C16 1.398 . S
C17 H39 0.929 . S
C18 O28 1.271 . S
C18 O29 1.251 . S
C19 O30 1.252 . S
C19 O31 1.272 . S
O20 Sm0 2.543 1_556 S
O20 C2 1.261 . S
O21 Sm0 2.450 1_556 S
O21 C2 1.242 . S
O22 Sm0 2.681 . S
O22 Sm1 2.386 . S
O22 C9 1.271 . S
O23 Sm0 2.464 . S
O23 C9 1.251 . S
O24 Sm0 2.396 . S
O24 C10 1.252 . S
O25 Sm1 2.408 . S
O25 C10 1.272 . S
O26 Sm1 2.543 . S
O26 C11 1.261 . S
O27 Sm1 2.450 . S
O27 C11 1.242 . S
O28 Sm0 2.386 . S
O28 Sm1 2.681 . S
O28 C18 1.271 . S
O29 Sm1 2.464 . S
O29 C18 1.251 . S
O30 Sm1 2.396 . S
O30 C19 1.252 . S
O31 Sm0 2.408 . S
O31 C19 1.272 . S
H32 C4 0.930 . S
H33 C5 0.929 . S
H34 C7 0.930 . S
H35 C8 0.929 . S
H36 C13 0.930 . S
H37 C14 0.929 . S
H38 C16 0.930 . S
H39 C17 0.929 . S
Sm40 C42 2.846 . S
Sm40 O60 2.543 . S
Sm40 O61 2.450 . S
Sm40 O62 2.681 . S
Sm40 O63 2.464 . S
Sm40 O64 2.396 . S
Sm40 O68 2.386 . S
Sm40 O71 2.408 . S
Sm41 C51 2.846 . S
Sm41 O62 2.386 . S
Sm41 O65 2.408 . S
Sm41 O66 2.543 . S
Sm41 O67 2.450 . S
Sm41 O68 2.681 . S
Sm41 O69 2.464 . S
Sm41 O70 2.396 . S
C42 Sm40 2.846 . S
C42 C43 1.506 . S
C42 O60 1.261 . S
C42 O61 1.242 . S
C43 C42 1.506 . S
C43 C44 1.358 . S
C43 C48 1.382 . S
C44 C43 1.358 . S
C44 C45 1.385 . S
C44 H72 0.930 . S
C45 C44 1.385 . S
C45 C46 1.395 . S
C45 H73 0.929 . S
C46 C45 1.395 . S
C46 C47 1.335 . S
C47 C46 1.335 . S
C47 C48 1.398 . S
C47 H74 0.930 . S
C48 C43 1.382 . S
C48 C47 1.398 . S
C48 H75 0.929 . S
C49 O62 1.271 . S
C49 O63 1.251 . S
C50 O64 1.252 . S
C50 O65 1.272 . S
C51 Sm41 2.846 . S
C51 C52 1.506 . S
C51 O66 1.261 . S
C51 O67 1.242 . S
C52 C51 1.506 . S
C52 C53 1.358 . S
C52 C57 1.382 . S
C53 C52 1.358 . S
C53 C54 1.385 . S
C53 H76 0.930 . S
C54 C53 1.385 . S
C54 C55 1.395 . S
C54 H77 0.929 . S
C55 C54 1.395 . S
C55 C56 1.335 . S
C56 C55 1.335 . S
C56 C57 1.398 . S
C56 H78 0.930 . S
C57 C52 1.382 . S
C57 C56 1.398 . S
C57 H79 0.929 . S
C58 O68 1.271 . S
C58 O69 1.251 . S
C59 O70 1.252 . S
C59 O71 1.272 . S
O60 Sm40 2.543 . S
O60 C42 1.261 . S
O61 Sm40 2.450 . S
O61 C42 1.242 . S
O62 Sm40 2.681 . S
O62 Sm41 2.386 . S
O62 C49 1.271 . S
O63 Sm40 2.464 . S
O63 C49 1.251 . S
O64 Sm40 2.396 . S
O64 C50 1.252 . S
O65 Sm41 2.408 . S
O65 C50 1.272 . S
O66 Sm41 2.543 . S
O66 C51 1.261 . S
O67 Sm41 2.450 . S
O67 C51 1.242 . S
O68 Sm40 2.386 . S
O68 Sm41 2.681 . S
O68 C58 1.271 . S
O69 Sm41 2.464 . S
O69 C58 1.251 . S
O70 Sm41 2.396 . S
O70 C59 1.252 . S
O71 Sm40 2.408 . S
O71 C59 1.272 . S
H72 C44 0.930 . S
H73 C45 0.929 . S
H74 C47 0.930 . S
H75 C48 0.929 . S
H76 C53 0.930 . S
H77 C54 0.929 . S
H78 C56 0.930 . S
H79 C57 0.929 . S
Sm80 C82 2.846 . S
Sm80 O100 2.543 . S
Sm80 O101 2.450 . S
Sm80 O102 2.681 . S
Sm80 O103 2.464 . S
Sm80 O104 2.396 . S
Sm80 O108 2.386 . S
Sm80 O111 2.408 . S
Sm81 C91 2.846 . S
Sm81 O102 2.386 . S
Sm81 O105 2.408 . S
Sm81 O106 2.543 . S
Sm81 O107 2.450 . S
Sm81 O108 2.681 . S
Sm81 O109 2.464 . S
Sm81 O110 2.396 . S
C82 Sm80 2.846 . S
C82 C83 1.506 . S
C82 O100 1.261 . S
C82 O101 1.242 . S
C83 C82 1.506 . S
C83 C84 1.358 . S
C83 C88 1.382 . S
C84 C83 1.358 . S
C84 C85 1.385 . S
C84 H112 0.930 . S
C85 C84 1.385 . S
C85 C86 1.395 . S
C85 H113 0.929 . S
C86 C85 1.395 . S
C86 C87 1.335 . S
C87 C86 1.335 . S
C87 C88 1.398 . S
C87 H114 0.930 . S
C88 C83 1.382 . S
C88 C87 1.398 . S
C88 H115 0.929 . S
C89 O102 1.271 . S
C89 O103 1.251 . S
C90 O104 1.252 . S
C90 O105 1.272 . S
C91 Sm81 2.846 . S
C91 C92 1.506 . S
C91 O106 1.261 . S
C91 O107 1.242 . S
C92 C91 1.506 . S
C92 C93 1.358 . S
C92 C97 1.382 . S
C93 C92 1.358 . S
C93 C94 1.385 . S
C93 H116 0.930 . S
C94 C93 1.385 . S
C94 C95 1.395 . S
C94 H117 0.929 . S
C95 C94 1.395 . S
C95 C96 1.335 . S
C96 C95 1.335 . S
C96 C97 1.398 . S
C96 H118 0.930 . S
C97 C92 1.382 . S
C97 C96 1.398 . S
C97 H119 0.929 . S
C98 O108 1.271 . S
C98 O109 1.251 . S
C99 O110 1.252 . S
C99 O111 1.272 . S
O100 Sm80 2.543 . S
O100 C82 1.261 . S
O101 Sm80 2.450 . S
O101 C82 1.242 . S
O102 Sm80 2.681 . S
O102 Sm81 2.386 . S
O102 C89 1.271 . S
O103 Sm80 2.464 . S
O103 C89 1.251 . S
O104 Sm80 2.396 . S
O104 C90 1.252 . S
O105 Sm81 2.408 . S
O105 C90 1.272 . S
O106 Sm81 2.543 . S
O106 C91 1.261 . S
O107 Sm81 2.450 . S
O107 C91 1.242 . S
O108 Sm80 2.386 . S
O108 Sm81 2.681 . S
O108 C98 1.271 . S
O109 Sm81 2.464 . S
O109 C98 1.251 . S
O110 Sm81 2.396 . S
O110 C99 1.252 . S
O111 Sm80 2.408 . S
O111 C99 1.272 . S
H112 C84 0.930 . S
H113 C85 0.929 . S
H114 C87 0.930 . S
H115 C88 0.929 . S
H116 C93 0.930 . S
H117 C94 0.929 . S
H118 C96 0.930 . S
H119 C97 0.929 . S
Sm120 C122 2.846 . S
Sm120 O140 2.543 . S
Sm120 O141 2.450 . S
Sm120 O142 2.681 . S
Sm120 O143 2.464 . S
Sm120 O144 2.396 . S
Sm120 O148 2.386 . S
Sm120 O151 2.408 . S
Sm121 C131 2.846 1_556 S
Sm121 O142 2.386 . S
Sm121 O145 2.408 . S
Sm121 O146 2.543 1_556 S
Sm121 O147 2.450 1_556 S
Sm121 O148 2.681 . S
Sm121 O149 2.464 . S
Sm121 O150 2.396 . S
C122 Sm120 2.846 . S
C122 C123 1.506 . S
C122 O140 1.261 . S
C122 O141 1.242 . S
C123 C122 1.506 . S
C123 C124 1.358 . S
C123 C128 1.382 . S
C124 C123 1.358 . S
C124 C125 1.385 . S
C124 H152 0.930 . S
C125 C124 1.385 . S
C125 C126 1.395 . S
C125 H153 0.929 . S
C126 C125 1.395 . S
C126 C127 1.335 . S
C127 C126 1.335 . S
C127 C128 1.398 . S
C127 H154 0.930 . S
C128 C123 1.382 . S
C128 C127 1.398 . S
C128 H155 0.929 . S
C129 O142 1.271 . S
C129 O143 1.251 . S
C130 O144 1.252 . S
C130 O145 1.272 . S
C131 Sm121 2.846 1_554 S
C131 C132 1.506 . S
C131 O146 1.261 . S
C131 O147 1.242 . S
C132 C131 1.506 . S
C132 C133 1.358 . S
C132 C137 1.382 . S
C133 C132 1.358 . S
C133 C134 1.385 . S
C133 H156 0.930 . S
C134 C133 1.385 . S
C134 C135 1.395 . S
C134 H157 0.929 . S
C135 C134 1.395 . S
C135 C136 1.335 . S
C136 C135 1.335 . S
C136 C137 1.398 . S
C136 H158 0.930 . S
C137 C132 1.382 . S
C137 C136 1.398 . S
C137 H159 0.929 . S
C138 O148 1.271 . S
C138 O149 1.251 . S
C139 O150 1.252 . S
C139 O151 1.272 . S
O140 Sm120 2.543 . S
O140 C122 1.261 . S
O141 Sm120 2.450 . S
O141 C122 1.242 . S
O142 Sm120 2.681 . S
O142 Sm121 2.386 . S
O142 C129 1.271 . S
O143 Sm120 2.464 . S
O143 C129 1.251 . S
O144 Sm120 2.396 . S
O144 C130 1.252 . S
O145 Sm121 2.408 . S
O145 C130 1.272 . S
O146 Sm121 2.543 1_554 S
O146 C131 1.261 . S
O147 Sm121 2.450 1_554 S
O147 C131 1.242 . S
O148 Sm120 2.386 . S
O148 Sm121 2.681 . S
O148 C138 1.271 . S
O149 Sm121 2.464 . S
O149 C138 1.251 . S
O150 Sm121 2.396 . S
O150 C139 1.252 . S
O151 Sm120 2.408 . S
O151 C139 1.272 . S
H152 C124 0.930 . S
H153 C125 0.929 . S
H154 C127 0.930 . S
H155 C128 0.929 . S
H156 C133 0.930 . S
H157 C134 0.929 . S
H158 C136 0.930 . S
H159 C137 0.929 . S
Sm160 C162 2.846 1_556 S
Sm160 O180 2.543 1_556 S
Sm160 O181 2.450 1_556 S
Sm160 O182 2.681 . S
Sm160 O183 2.464 . S
Sm160 O184 2.396 . S
Sm160 O188 2.386 . S
Sm160 O191 2.408 . S
Sm161 C171 2.846 . S
Sm161 O182 2.386 . S
Sm161 O185 2.408 . S
Sm161 O186 2.543 . S
Sm161 O187 2.450 . S
Sm161 O188 2.681 . S
Sm161 O189 2.464 . S
Sm161 O190 2.396 . S
C162 Sm160 2.846 1_554 S
C162 C163 1.506 . S
C162 O180 1.261 . S
C162 O181 1.242 . S
C163 C162 1.506 . S
C163 C164 1.358 . S
C163 C168 1.382 . S
C164 C163 1.358 . S
C164 C165 1.385 . S
C164 H192 0.930 . S
C165 C164 1.385 . S
C165 C166 1.395 . S
C165 H193 0.929 . S
C166 C165 1.395 . S
C166 C167 1.335 . S
C167 C166 1.335 . S
C167 C168 1.398 . S
C167 H194 0.930 . S
C168 C163 1.382 . S
C168 C167 1.398 . S
C168 H195 0.929 . S
C169 O182 1.271 . S
C169 O183 1.251 . S
C170 O184 1.252 . S
C170 O185 1.272 . S
C171 Sm161 2.846 . S
C171 C172 1.506 . S
C171 O186 1.261 . S
C171 O187 1.242 . S
C172 C171 1.506 . S
C172 C173 1.358 . S
C172 C177 1.382 . S
C173 C172 1.358 . S
C173 C174 1.385 . S
C173 H196 0.930 . S
C174 C173 1.385 . S
C174 C175 1.395 . S
C174 H197 0.929 . S
C175 C174 1.395 . S
C175 C176 1.335 . S
C176 C175 1.335 . S
C176 C177 1.398 . S
C176 H198 0.930 . S
C177 C172 1.382 . S
C177 C176 1.398 . S
C177 H199 0.929 . S
C178 O188 1.271 . S
C178 O189 1.251 . S
C179 O190 1.252 . S
C179 O191 1.272 . S
O180 Sm160 2.543 1_554 S
O180 C162 1.261 . S
O181 Sm160 2.450 1_554 S
O181 C162 1.242 . S
O182 Sm160 2.681 . S
O182 Sm161 2.386 . S
O182 C169 1.271 . S
O183 Sm160 2.464 . S
O183 C169 1.251 . S
O184 Sm160 2.396 . S
O184 C170 1.252 . S
O185 Sm161 2.408 . S
O185 C170 1.272 . S
O186 Sm161 2.543 . S
O186 C171 1.261 . S
O187 Sm161 2.450 . S
O187 C171 1.242 . S
O188 Sm160 2.386 . S
O188 Sm161 2.681 . S
O188 C178 1.271 . S
O189 Sm161 2.464 . S
O189 C178 1.251 . S
O190 Sm161 2.396 . S
O190 C179 1.252 . S
O191 Sm160 2.408 . S
O191 C179 1.272 . S
H192 C164 0.930 . S
H193 C165 0.929 . S
H194 C167 0.930 . S
H195 C168 0.929 . S
H196 C173 0.930 . S
H197 C174 0.929 . S
H198 C176 0.930 . S
H199 C177 0.929 . S
Sm200 C202 2.846 . S
Sm200 O220 2.543 . S
Sm200 O221 2.450 . S
Sm200 O222 2.681 . S
Sm200 O223 2.464 . S
Sm200 O224 2.396 . S
Sm200 O228 2.386 . S
Sm200 O231 2.408 . S
Sm201 C211 2.846 1_554 S
Sm201 O222 2.386 . S
Sm201 O225 2.408 . S
Sm201 O226 2.543 1_554 S
Sm201 O227 2.450 1_554 S
Sm201 O228 2.681 . S
Sm201 O229 2.464 . S
Sm201 O230 2.396 . S
C202 Sm200 2.846 . S
C202 C203 1.506 . S
C202 O220 1.261 . S
C202 O221 1.242 . S
C203 C202 1.506 . S
C203 C204 1.358 . S
C203 C208 1.382 . S
C204 C203 1.358 . S
C204 C205 1.385 . S
C204 H232 0.930 . S
C205 C204 1.385 . S
C205 C206 1.395 . S
C205 H233 0.929 . S
C206 C205 1.395 . S
C206 C207 1.335 . S
C207 C206 1.335 . S
C207 C208 1.398 . S
C207 H234 0.930 . S
C208 C203 1.382 . S
C208 C207 1.398 . S
C208 H235 0.929 . S
C209 O222 1.271 . S
C209 O223 1.251 . S
C210 O224 1.252 . S
C210 O225 1.272 . S
C211 Sm201 2.846 1_556 S
C211 C212 1.506 . S
C211 O226 1.261 . S
C211 O227 1.242 . S
C212 C211 1.506 . S
C212 C213 1.358 . S
C212 C217 1.382 . S
C213 C212 1.358 . S
C213 C214 1.385 . S
C213 H236 0.930 . S
C214 C213 1.385 . S
C214 C215 1.395 . S
C214 H237 0.929 . S
C215 C214 1.395 . S
C215 C216 1.335 . S
C216 C215 1.335 . S
C216 C217 1.398 . S
C216 H238 0.930 . S
C217 C212 1.382 . S
C217 C216 1.398 . S
C217 H239 0.929 . S
C218 O228 1.271 . S
C218 O229 1.251 . S
C219 O230 1.252 . S
C219 O231 1.272 . S
O220 Sm200 2.543 . S
O220 C202 1.261 . S
O221 Sm200 2.450 . S
O221 C202 1.242 . S
O222 Sm200 2.681 . S
O222 Sm201 2.386 . S
O222 C209 1.271 . S
O223 Sm200 2.464 . S
O223 C209 1.251 . S
O224 Sm200 2.396 . S
O224 C210 1.252 . S
O225 Sm201 2.408 . S
O225 C210 1.272 . S
O226 Sm201 2.543 1_556 S
O226 C211 1.261 . S
O227 Sm201 2.450 1_556 S
O227 C211 1.242 . S
O228 Sm200 2.386 . S
O228 Sm201 2.681 . S
O228 C218 1.271 . S
O229 Sm201 2.464 . S
O229 C218 1.251 . S
O230 Sm201 2.396 . S
O230 C219 1.252 . S
O231 Sm200 2.408 . S
O231 C219 1.272 . S
H232 C204 0.930 . S
H233 C205 0.929 . S
H234 C207 0.930 . S
H235 C208 0.929 . S
H236 C213 0.930 . S
H237 C214 0.929 . S
H238 C216 0.930 . S
H239 C217 0.929 . S
Sm240 C242 2.846 . S
Sm240 O260 2.543 . S
Sm240 O261 2.450 . S
Sm240 O262 2.681 . S
Sm240 O263 2.464 . S
Sm240 O264 2.396 . S
Sm240 O268 2.386 . S
Sm240 O271 2.408 . S
Sm241 C251 2.846 . S
Sm241 O262 2.386 . S
Sm241 O265 2.408 . S
Sm241 O266 2.543 . S
Sm241 O267 2.450 . S
Sm241 O268 2.681 . S
Sm241 O269 2.464 . S
Sm241 O270 2.396 . S
C242 Sm240 2.846 . S
C242 C243 1.506 . S
C242 O260 1.261 . S
C242 O261 1.242 . S
C243 C242 1.506 . S
C243 C244 1.358 . S
C243 C248 1.382 . S
C244 C243 1.358 . S
C244 C245 1.385 . S
C244 H272 0.930 . S
C245 C244 1.385 . S
C245 C246 1.395 . S
C245 H273 0.929 . S
C246 C245 1.395 . S
C246 C247 1.335 . S
C247 C246 1.335 . S
C247 C248 1.398 . S
C247 H274 0.930 . S
C248 C243 1.382 . S
C248 C247 1.398 . S
C248 H275 0.929 . S
C249 O262 1.271 . S
C249 O263 1.251 . S
C250 O264 1.252 . S
C250 O265 1.272 . S
C251 Sm241 2.846 . S
C251 C252 1.506 . S
C251 O266 1.261 . S
C251 O267 1.242 . S
C252 C251 1.506 . S
C252 C253 1.358 . S
C252 C257 1.382 . S
C253 C252 1.358 . S
C253 C254 1.385 . S
C253 H276 0.930 . S
C254 C253 1.385 . S
C254 C255 1.395 . S
C254 H277 0.929 . S
C255 C254 1.395 . S
C255 C256 1.335 . S
C256 C255 1.335 . S
C256 C257 1.398 . S
C256 H278 0.930 . S
C257 C252 1.382 . S
C257 C256 1.398 . S
C257 H279 0.929 . S
C258 O268 1.271 . S
C258 O269 1.251 . S
C259 O270 1.252 . S
C259 O271 1.272 . S
O260 Sm240 2.543 . S
O260 C242 1.261 . S
O261 Sm240 2.450 . S
O261 C242 1.242 . S
O262 Sm240 2.681 . S
O262 Sm241 2.386 . S
O262 C249 1.271 . S
O263 Sm240 2.464 . S
O263 C249 1.251 . S
O264 Sm240 2.396 . S
O264 C250 1.252 . S
O265 Sm241 2.408 . S
O265 C250 1.272 . S
O266 Sm241 2.543 . S
O266 C251 1.261 . S
O267 Sm241 2.450 . S
O267 C251 1.242 . S
O268 Sm240 2.386 . S
O268 Sm241 2.681 . S
O268 C258 1.271 . S
O269 Sm241 2.464 . S
O269 C258 1.251 . S
O270 Sm241 2.396 . S
O270 C259 1.252 . S
O271 Sm240 2.408 . S
O271 C259 1.272 . S
H272 C244 0.930 . S
H273 C245 0.929 . S
H274 C247 0.930 . S
H275 C248 0.929 . S
H276 C253 0.930 . S
H277 C254 0.929 . S
H278 C256 0.930 . S
H279 C257 0.929 . S
Sm280 C282 2.846 . S
Sm280 O300 2.543 . S
Sm280 O301 2.450 . S
Sm280 O302 2.681 . S
Sm280 O303 2.464 . S
Sm280 O304 2.396 . S
Sm280 O308 2.386 . S
Sm280 O311 2.408 . S
Sm281 C291 2.846 . S
Sm281 O302 2.386 . S
Sm281 O305 2.408 . S
Sm281 O306 2.543 . S
Sm281 O307 2.450 . S
Sm281 O308 2.681 . S
Sm281 O309 2.464 . S
Sm281 O310 2.396 . S
C282 Sm280 2.846 . S
C282 C283 1.506 . S
C282 O300 1.261 . S
C282 O301 1.242 . S
C283 C282 1.506 . S
C283 C284 1.358 . S
C283 C288 1.382 . S
C284 C283 1.358 . S
C284 C285 1.385 . S
C284 H312 0.930 . S
C285 C284 1.385 . S
C285 C286 1.395 . S
C285 H313 0.929 . S
C286 C285 1.395 . S
C286 C287 1.335 . S
C287 C286 1.335 . S
C287 C288 1.398 . S
C287 H314 0.930 . S
C288 C283 1.382 . S
C288 C287 1.398 . S
C288 H315 0.929 . S
C289 O302 1.271 . S
C289 O303 1.251 . S
C290 O304 1.252 . S
C290 O305 1.272 . S
C291 Sm281 2.846 . S
C291 C292 1.506 . S
C291 O306 1.261 . S
C291 O307 1.242 . S
C292 C291 1.506 . S
C292 C293 1.358 . S
C292 C297 1.382 . S
C293 C292 1.358 . S
C293 C294 1.385 . S
C293 H316 0.930 . S
C294 C293 1.385 . S
C294 C295 1.395 . S
C294 H317 0.929 . S
C295 C294 1.395 . S
C295 C296 1.335 . S
C296 C295 1.335 . S
C296 C297 1.398 . S
C296 H318 0.930 . S
C297 C292 1.382 . S
C297 C296 1.398 . S
C297 H319 0.929 . S
C298 O308 1.271 . S
C298 O309 1.251 . S
C299 O310 1.252 . S
C299 O311 1.272 . S
O300 Sm280 2.543 . S
O300 C282 1.261 . S
O301 Sm280 2.450 . S
O301 C282 1.242 . S
O302 Sm280 2.681 . S
O302 Sm281 2.386 . S
O302 C289 1.271 . S
O303 Sm280 2.464 . S
O303 C289 1.251 . S
O304 Sm280 2.396 . S
O304 C290 1.252 . S
O305 Sm281 2.408 . S
O305 C290 1.272 . S
O306 Sm281 2.543 . S
O306 C291 1.261 . S
O307 Sm281 2.450 . S
O307 C291 1.242 . S
O308 Sm280 2.386 . S
O308 Sm281 2.681 . S
O308 C298 1.271 . S
O309 Sm281 2.464 . S
O309 C298 1.251 . S
O310 Sm281 2.396 . S
O310 C299 1.252 . S
O311 Sm280 2.408 . S
O311 C299 1.272 . S
H312 C284 0.930 . S
H313 C285 0.929 . S
H314 C287 0.930 . S
H315 C288 0.929 . S
H316 C293 0.930 . S
H317 C294 0.929 . S
H318 C296 0.930 . S
H319 C297 0.929 . S
Sm320 C322 2.846 . S
Sm320 O340 2.543 . S
Sm320 O341 2.450 . S
Sm320 O342 2.681 . S
Sm320 O343 2.464 . S
Sm320 O344 2.396 . S
Sm320 O348 2.386 . S
Sm320 O351 2.408 . S
Sm321 C331 2.846 1_556 S
Sm321 O342 2.386 . S
Sm321 O345 2.408 . S
Sm321 O346 2.543 1_556 S
Sm321 O347 2.450 1_556 S
Sm321 O348 2.681 . S
Sm321 O349 2.464 . S
Sm321 O350 2.396 . S
C322 Sm320 2.846 . S
C322 C323 1.506 . S
C322 O340 1.261 . S
C322 O341 1.242 . S
C323 C322 1.506 . S
C323 C324 1.358 . S
C323 C328 1.382 . S
C324 C323 1.358 . S
C324 C325 1.385 . S
C324 H352 0.930 . S
C325 C324 1.385 . S
C325 C326 1.395 . S
C325 H353 0.929 . S
C326 C325 1.395 . S
C326 C327 1.335 . S
C327 C326 1.335 . S
C327 C328 1.398 . S
C327 H354 0.930 . S
C328 C323 1.382 . S
C328 C327 1.398 . S
C328 H355 0.929 . S
C329 O342 1.271 . S
C329 O343 1.251 . S
C330 O344 1.252 . S
C330 O345 1.272 . S
C331 Sm321 2.846 1_554 S
C331 C332 1.506 . S
C331 O346 1.261 . S
C331 O347 1.242 . S
C332 C331 1.506 . S
C332 C333 1.358 . S
C332 C337 1.382 . S
C333 C332 1.358 . S
C333 C334 1.385 . S
C333 H356 0.930 . S
C334 C333 1.385 . S
C334 C335 1.395 . S
C334 H357 0.929 . S
C335 C334 1.395 . S
C335 C336 1.335 . S
C336 C335 1.335 . S
C336 C337 1.398 . S
C336 H358 0.930 . S
C337 C332 1.382 . S
C337 C336 1.398 . S
C337 H359 0.929 . S
C338 O348 1.271 . S
C338 O349 1.251 . S
C339 O350 1.252 . S
C339 O351 1.272 . S
O340 Sm320 2.543 . S
O340 C322 1.261 . S
O341 Sm320 2.450 . S
O341 C322 1.242 . S
O342 Sm320 2.681 . S
O342 Sm321 2.386 . S
O342 C329 1.271 . S
O343 Sm320 2.464 . S
O343 C329 1.251 . S
O344 Sm320 2.396 . S
O344 C330 1.252 . S
O345 Sm321 2.408 . S
O345 C330 1.272 . S
O346 Sm321 2.543 1_554 S
O346 C331 1.261 . S
O347 Sm321 2.450 1_554 S
O347 C331 1.242 . S
O348 Sm320 2.386 . S
O348 Sm321 2.681 . S
O348 C338 1.271 . S
O349 Sm321 2.464 . S
O349 C338 1.251 . S
O350 Sm321 2.396 . S
O350 C339 1.252 . S
O351 Sm320 2.408 . S
O351 C339 1.272 . S
H352 C324 0.930 . S
H353 C325 0.929 . S
H354 C327 0.930 . S
H355 C328 0.929 . S
H356 C333 0.930 . S
H357 C334 0.929 . S
H358 C336 0.930 . S
H359 C337 0.929 . S
Sm360 C362 2.846 . S
Sm360 O380 2.543 . S
Sm360 O381 2.450 . S
Sm360 O382 2.681 . S
Sm360 O383 2.464 . S
Sm360 O384 2.396 . S
Sm360 O388 2.386 . S
Sm360 O391 2.408 . S
Sm361 C371 2.846 . S
Sm361 O382 2.386 . S
Sm361 O385 2.408 . S
Sm361 O386 2.543 . S
Sm361 O387 2.450 . S
Sm361 O388 2.681 . S
Sm361 O389 2.464 . S
Sm361 O390 2.396 . S
C362 Sm360 2.846 . S
C362 C363 1.506 . S
C362 O380 1.261 . S
C362 O381 1.242 . S
C363 C362 1.506 . S
C363 C364 1.358 . S
C363 C368 1.382 . S
C364 C363 1.358 . S
C364 C365 1.385 . S
C364 H392 0.930 . S
C365 C364 1.385 . S
C365 C366 1.395 . S
C365 H393 0.929 . S
C366 C365 1.395 . S
C366 C367 1.335 . S
C367 C366 1.335 . S
C367 C368 1.398 . S
C367 H394 0.930 . S
C368 C363 1.382 . S
C368 C367 1.398 . S
C368 H395 0.929 . S
C369 O382 1.271 . S
C369 O383 1.251 . S
C370 O384 1.252 . S
C370 O385 1.272 . S
C371 Sm361 2.846 . S
C371 C372 1.506 . S
C371 O386 1.261 . S
C371 O387 1.242 . S
C372 C371 1.506 . S
C372 C373 1.358 . S
C372 C377 1.382 . S
C373 C372 1.358 . S
C373 C374 1.385 . S
C373 H396 0.930 . S
C374 C373 1.385 . S
C374 C375 1.395 . S
C374 H397 0.929 . S
C375 C374 1.395 . S
C375 C376 1.335 . S
C376 C375 1.335 . S
C376 C377 1.398 . S
C376 H398 0.930 . S
C377 C372 1.382 . S
C377 C376 1.398 . S
C377 H399 0.929 . S
C378 O388 1.271 . S
C378 O389 1.251 . S
C379 O390 1.252 . S
C379 O391 1.272 . S
O380 Sm360 2.543 . S
O380 C362 1.261 . S
O381 Sm360 2.450 . S
O381 C362 1.242 . S
O382 Sm360 2.681 . S
O382 Sm361 2.386 . S
O382 C369 1.271 . S
O383 Sm360 2.464 . S
O383 C369 1.251 . S
O384 Sm360 2.396 . S
O384 C370 1.252 . S
O385 Sm361 2.408 . S
O385 C370 1.272 . S
O386 Sm361 2.543 . S
O386 C371 1.261 . S
O387 Sm361 2.450 . S
O387 C371 1.242 . S
O388 Sm360 2.386 . S
O388 Sm361 2.681 . S
O388 C378 1.271 . S
O389 Sm361 2.464 . S
O389 C378 1.251 . S
O390 Sm361 2.396 . S
O390 C379 1.252 . S
O391 Sm360 2.408 . S
O391 C379 1.272 . S
H392 C364 0.930 . S
H393 C365 0.929 . S
H394 C367 0.930 . S
H395 C368 0.929 . S
H396 C373 0.930 . S
H397 C374 0.929 . S
H398 C376 0.930 . S
H399 C377 0.929 . S
Sm400 C402 2.846 . S
Sm400 O420 2.543 . S
Sm400 O421 2.450 . S
Sm400 O422 2.681 . S
Sm400 O423 2.464 . S
Sm400 O424 2.396 . S
Sm400 O428 2.386 . S
Sm400 O431 2.408 . S
Sm401 C411 2.846 . S
Sm401 O422 2.386 . S
Sm401 O425 2.408 . S
Sm401 O426 2.543 . S
Sm401 O427 2.450 . S
Sm401 O428 2.681 . S
Sm401 O429 2.464 . S
Sm401 O430 2.396 . S
C402 Sm400 2.846 . S
C402 C403 1.506 . S
C402 O420 1.261 . S
C402 O421 1.242 . S
C403 C402 1.506 . S
C403 C404 1.358 . S
C403 C408 1.382 . S
C404 C403 1.358 . S
C404 C405 1.385 . S
C404 H432 0.930 . S
C405 C404 1.385 . S
C405 C406 1.395 . S
C405 H433 0.929 . S
C406 C405 1.395 . S
C406 C407 1.335 . S
C407 C406 1.335 . S
C407 C408 1.398 . S
C407 H434 0.930 . S
C408 C403 1.382 . S
C408 C407 1.398 . S
C408 H435 0.929 . S
C409 O422 1.271 . S
C409 O423 1.251 . S
C410 O424 1.252 . S
C410 O425 1.272 . S
C411 Sm401 2.846 . S
C411 C412 1.506 . S
C411 O426 1.261 . S
C411 O427 1.242 . S
C412 C411 1.506 . S
C412 C413 1.358 . S
C412 C417 1.382 . S
C413 C412 1.358 . S
C413 C414 1.385 . S
C413 H436 0.930 . S
C414 C413 1.385 . S
C414 C415 1.395 . S
C414 H437 0.929 . S
C415 C414 1.395 . S
C415 C416 1.335 . S
C416 C415 1.335 . S
C416 C417 1.398 . S
C416 H438 0.930 . S
C417 C412 1.382 . S
C417 C416 1.398 . S
C417 H439 0.929 . S
C418 O428 1.271 . S
C418 O429 1.251 . S
C419 O430 1.252 . S
C419 O431 1.272 . S
O420 Sm400 2.543 . S
O420 C402 1.261 . S
O421 Sm400 2.450 . S
O421 C402 1.242 . S
O422 Sm400 2.681 . S
O422 Sm401 2.386 . S
O422 C409 1.271 . S
O423 Sm400 2.464 . S
O423 C409 1.251 . S
O424 Sm400 2.396 . S
O424 C410 1.252 . S
O425 Sm401 2.408 . S
O425 C410 1.272 . S
O426 Sm401 2.543 . S
O426 C411 1.261 . S
O427 Sm401 2.450 . S
O427 C411 1.242 . S
O428 Sm400 2.386 . S
O428 Sm401 2.681 . S
O428 C418 1.271 . S
O429 Sm401 2.464 . S
O429 C418 1.251 . S
O430 Sm401 2.396 . S
O430 C419 1.252 . S
O431 Sm400 2.408 . S
O431 C419 1.272 . S
H432 C404 0.930 . S
H433 C405 0.929 . S
H434 C407 0.930 . S
H435 C408 0.929 . S
H436 C413 0.930 . S
H437 C414 0.929 . S
H438 C416 0.930 . S
H439 C417 0.929 . S
Sm440 C442 2.846 1_554 S
Sm440 O460 2.543 1_554 S
Sm440 O461 2.450 1_554 S
Sm440 O462 2.681 . S
Sm440 O463 2.464 . S
Sm440 O464 2.396 . S
Sm440 O468 2.386 . S
Sm440 O471 2.408 . S
Sm441 C451 2.846 . S
Sm441 O462 2.386 . S
Sm441 O465 2.408 . S
Sm441 O466 2.543 . S
Sm441 O467 2.450 . S
Sm441 O468 2.681 . S
Sm441 O469 2.464 . S
Sm441 O470 2.396 . S
C442 Sm440 2.846 1_556 S
C442 C443 1.506 . S
C442 O460 1.261 . S
C442 O461 1.242 . S
C443 C442 1.506 . S
C443 C444 1.358 . S
C443 C448 1.382 . S
C444 C443 1.358 . S
C444 C445 1.385 . S
C444 H472 0.930 . S
C445 C444 1.385 . S
C445 C446 1.395 . S
C445 H473 0.929 . S
C446 C445 1.395 . S
C446 C447 1.335 . S
C447 C446 1.335 . S
C447 C448 1.398 . S
C447 H474 0.930 . S
C448 C443 1.382 . S
C448 C447 1.398 . S
C448 H475 0.929 . S
C449 O462 1.271 . S
C449 O463 1.251 . S
C450 O464 1.252 . S
C450 O465 1.272 . S
C451 Sm441 2.846 . S
C451 C452 1.506 . S
C451 O466 1.261 . S
C451 O467 1.242 . S
C452 C451 1.506 . S
C452 C453 1.358 . S
C452 C457 1.382 . S
C453 C452 1.358 . S
C453 C454 1.385 . S
C453 H476 0.930 . S
C454 C453 1.385 . S
C454 C455 1.395 . S
C454 H477 0.929 . S
C455 C454 1.395 . S
C455 C456 1.335 . S
C456 C455 1.335 . S
C456 C457 1.398 . S
C456 H478 0.930 . S
C457 C452 1.382 . S
C457 C456 1.398 . S
C457 H479 0.929 . S
C458 O468 1.271 . S
C458 O469 1.251 . S
C459 O470 1.252 . S
C459 O471 1.272 . S
O460 Sm440 2.543 1_556 S
O460 C442 1.261 . S
O461 Sm440 2.450 1_556 S
O461 C442 1.242 . S
O462 Sm440 2.681 . S
O462 Sm441 2.386 . S
O462 C449 1.271 . S
O463 Sm440 2.464 . S
O463 C449 1.251 . S
O464 Sm440 2.396 . S
O464 C450 1.252 . S
O465 Sm441 2.408 . S
O465 C450 1.272 . S
O466 Sm441 2.543 . S
O466 C451 1.261 . S
O467 Sm441 2.450 . S
O467 C451 1.242 . S
O468 Sm440 2.386 . S
O468 Sm441 2.681 . S
O468 C458 1.271 . S
O469 Sm441 2.464 . S
O469 C458 1.251 . S
O470 Sm441 2.396 . S
O470 C459 1.252 . S
O471 Sm440 2.408 . S
O471 C459 1.272 . S
H472 C444 0.930 . S
H473 C445 0.929 . S
H474 C447 0.930 . S
H475 C448 0.929 . S
H476 C453 0.930 . S
H477 C454 0.929 . S
H478 C456 0.930 . S
H479 C457 0.929 . S
Sm480 C482 2.846 . S
Sm480 O500 2.543 . S
Sm480 O501 2.450 . S
Sm480 O502 2.681 . S
Sm480 O503 2.464 . S
Sm480 O504 2.396 . S
Sm480 O508 2.386 . S
Sm480 O511 2.408 . S
Sm481 C491 2.846 1_554 S
Sm481 O502 2.386 . S
Sm481 O505 2.408 . S
Sm481 O506 2.543 1_554 S
Sm481 O507 2.450 1_554 S
Sm481 O508 2.681 . S
Sm481 O509 2.464 . S
Sm481 O510 2.396 . S
C482 Sm480 2.846 . S
C482 C483 1.506 . S
C482 O500 1.261 . S
C482 O501 1.242 . S
C483 C482 1.506 . S
C483 C484 1.358 . S
C483 C488 1.382 . S
C484 C483 1.358 . S
C484 C485 1.385 . S
C484 H512 0.930 . S
C485 C484 1.385 . S
C485 C486 1.395 . S
C485 H513 0.929 . S
C486 C485 1.395 . S
C486 C487 1.335 . S
C487 C486 1.335 . S
C487 C488 1.398 . S
C487 H514 0.930 . S
C488 C483 1.382 . S
C488 C487 1.398 . S
C488 H515 0.929 . S
C489 O502 1.271 . S
C489 O503 1.251 . S
C490 O504 1.252 . S
C490 O505 1.272 . S
C491 Sm481 2.846 1_556 S
C491 C492 1.506 . S
C491 O506 1.261 . S
C491 O507 1.242 . S
C492 C491 1.506 . S
C492 C493 1.358 . S
C492 C497 1.382 . S
C493 C492 1.358 . S
C493 C494 1.385 . S
C493 H516 0.930 . S
C494 C493 1.385 . S
C494 C495 1.395 . S
C494 H517 0.929 . S
C495 C494 1.395 . S
C495 C496 1.335 . S
C496 C495 1.335 . S
C496 C497 1.398 . S
C496 H518 0.930 . S
C497 C492 1.382 . S
C497 C496 1.398 . S
C497 H519 0.929 . S
C498 O508 1.271 . S
C498 O509 1.251 . S
C499 O510 1.252 . S
C499 O511 1.272 . S
O500 Sm480 2.543 . S
O500 C482 1.261 . S
O501 Sm480 2.450 . S
O501 C482 1.242 . S
O502 Sm480 2.681 . S
O502 Sm481 2.386 . S
O502 C489 1.271 . S
O503 Sm480 2.464 . S
O503 C489 1.251 . S
O504 Sm480 2.396 . S
O504 C490 1.252 . S
O505 Sm481 2.408 . S
O505 C490 1.272 . S
O506 Sm481 2.543 1_556 S
O506 C491 1.261 . S
O507 Sm481 2.450 1_556 S
O507 C491 1.242 . S
O508 Sm480 2.386 . S
O508 Sm481 2.681 . S
O508 C498 1.271 . S
O509 Sm481 2.464 . S
O509 C498 1.251 . S
O510 Sm481 2.396 . S
O510 C499 1.252 . S
O511 Sm480 2.408 . S
O511 C499 1.272 . S
H512 C484 0.930 . S
H513 C485 0.929 . S
H514 C487 0.930 . S
H515 C488 0.929 . S
H516 C493 0.930 . S
H517 C494 0.929 . S
H518 C496 0.930 . S
H519 C497 0.929 . S
Sm520 C522 2.846 1_556 S
Sm520 O540 2.543 1_556 S
Sm520 O541 2.450 1_556 S
Sm520 O542 2.681 . S
Sm520 O543 2.464 . S
Sm520 O544 2.396 . S
Sm520 O548 2.386 . S
Sm520 O551 2.408 . S
Sm521 C531 2.846 . S
Sm521 O542 2.386 . S
Sm521 O545 2.408 . S
Sm521 O546 2.543 . S
Sm521 O547 2.450 . S
Sm521 O548 2.681 . S
Sm521 O549 2.464 . S
Sm521 O550 2.396 . S
C522 Sm520 2.846 1_554 S
C522 C523 1.506 . S
C522 O540 1.261 . S
C522 O541 1.242 . S
C523 C522 1.506 . S
C523 C524 1.358 . S
C523 C528 1.382 . S
C524 C523 1.358 . S
C524 C525 1.385 . S
C524 H552 0.930 . S
C525 C524 1.385 . S
C525 C526 1.395 . S
C525 H553 0.929 . S
C526 C525 1.395 . S
C526 C527 1.335 . S
C527 C526 1.335 . S
C527 C528 1.398 . S
C527 H554 0.930 . S
C528 C523 1.382 . S
C528 C527 1.398 . S
C528 H555 0.929 . S
C529 O542 1.271 . S
C529 O543 1.251 . S
C530 O544 1.252 . S
C530 O545 1.272 . S
C531 Sm521 2.846 . S
C531 C532 1.506 . S
C531 O546 1.261 . S
C531 O547 1.242 . S
C532 C531 1.506 . S
C532 C533 1.358 . S
C532 C537 1.382 . S
C533 C532 1.358 . S
C533 C534 1.385 . S
C533 H556 0.930 . S
C534 C533 1.385 . S
C534 C535 1.395 . S
C534 H557 0.929 . S
C535 C534 1.395 . S
C535 C536 1.335 . S
C536 C535 1.335 . S
C536 C537 1.398 . S
C536 H558 0.930 . S
C537 C532 1.382 . S
C537 C536 1.398 . S
C537 H559 0.929 . S
C538 O548 1.271 . S
C538 O549 1.251 . S
C539 O550 1.252 . S
C539 O551 1.272 . S
O540 Sm520 2.543 1_554 S
O540 C522 1.261 . S
O541 Sm520 2.450 1_554 S
O541 C522 1.242 . S
O542 Sm520 2.681 . S
O542 Sm521 2.386 . S
O542 C529 1.271 . S
O543 Sm520 2.464 . S
O543 C529 1.251 . S
O544 Sm520 2.396 . S
O544 C530 1.252 . S
O545 Sm521 2.408 . S
O545 C530 1.272 . S
O546 Sm521 2.543 . S
O546 C531 1.261 . S
O547 Sm521 2.450 . S
O547 C531 1.242 . S
O548 Sm520 2.386 . S
O548 Sm521 2.681 . S
O548 C538 1.271 . S
O549 Sm521 2.464 . S
O549 C538 1.251 . S
O550 Sm521 2.396 . S
O550 C539 1.252 . S
O551 Sm520 2.408 . S
O551 C539 1.272 . S
H552 C524 0.930 . S
H553 C525 0.929 . S
H554 C527 0.930 . S
H555 C528 0.929 . S
H556 C533 0.930 . S
H557 C534 0.929 . S
H558 C536 0.930 . S
H559 C537 0.929 . S
Sm560 C562 2.846 . S
Sm560 O580 2.543 . S
Sm560 O581 2.450 . S
Sm560 O582 2.681 . S
Sm560 O583 2.464 . S
Sm560 O584 2.396 . S
Sm560 O588 2.386 . S
Sm560 O591 2.408 . S
Sm561 C571 2.846 . S
Sm561 O582 2.386 . S
Sm561 O585 2.408 . S
Sm561 O586 2.543 . S
Sm561 O587 2.450 . S
Sm561 O588 2.681 . S
Sm561 O589 2.464 . S
Sm561 O590 2.396 . S
C562 Sm560 2.846 . S
C562 C563 1.506 . S
C562 O580 1.261 . S
C562 O581 1.242 . S
C563 C562 1.506 . S
C563 C564 1.358 . S
C563 C568 1.382 . S
C564 C563 1.358 . S
C564 C565 1.385 . S
C564 H592 0.930 . S
C565 C564 1.385 . S
C565 C566 1.395 . S
C565 H593 0.929 . S
C566 C565 1.395 . S
C566 C567 1.335 . S
C567 C566 1.335 . S
C567 C568 1.398 . S
C567 H594 0.930 . S
C568 C563 1.382 . S
C568 C567 1.398 . S
C568 H595 0.929 . S
C569 O582 1.271 . S
C569 O583 1.251 . S
C570 O584 1.252 . S
C570 O585 1.272 . S
C571 Sm561 2.846 . S
C571 C572 1.506 . S
C571 O586 1.261 . S
C571 O587 1.242 . S
C572 C571 1.506 . S
C572 C573 1.358 . S
C572 C577 1.382 . S
C573 C572 1.358 . S
C573 C574 1.385 . S
C573 H596 0.930 . S
C574 C573 1.385 . S
C574 C575 1.395 . S
C574 H597 0.929 . S
C575 C574 1.395 . S
C575 C576 1.335 . S
C576 C575 1.335 . S
C576 C577 1.398 . S
C576 H598 0.930 . S
C577 C572 1.382 . S
C577 C576 1.398 . S
C577 H599 0.929 . S
C578 O588 1.271 . S
C578 O589 1.251 . S
C579 O590 1.252 . S
C579 O591 1.272 . S
O580 Sm560 2.543 . S
O580 C562 1.261 . S
O581 Sm560 2.450 . S
O581 C562 1.242 . S
O582 Sm560 2.681 . S
O582 Sm561 2.386 . S
O582 C569 1.271 . S
O583 Sm560 2.464 . S
O583 C569 1.251 . S
O584 Sm560 2.396 . S
O584 C570 1.252 . S
O585 Sm561 2.408 . S
O585 C570 1.272 . S
O586 Sm561 2.543 . S
O586 C571 1.261 . S
O587 Sm561 2.450 . S
O587 C571 1.242 . S
O588 Sm560 2.386 . S
O588 Sm561 2.681 . S
O588 C578 1.271 . S
O589 Sm561 2.464 . S
O589 C578 1.251 . S
O590 Sm561 2.396 . S
O590 C579 1.252 . S
O591 Sm560 2.408 . S
O591 C579 1.272 . S
H592 C564 0.930 . S
H593 C565 0.929 . S
H594 C567 0.930 . S
H595 C568 0.929 . S
H596 C573 0.930 . S
H597 C574 0.929 . S
H598 C576 0.930 . S
H599 C577 0.929 . S
Sm600 C602 2.846 . S
Sm600 O620 2.543 . S
Sm600 O621 2.450 . S
Sm600 O622 2.681 . S
Sm600 O623 2.464 . S
Sm600 O624 2.396 . S
Sm600 O628 2.386 . S
Sm600 O631 2.408 . S
Sm601 C611 2.846 . S
Sm601 O622 2.386 . S
Sm601 O625 2.408 . S
Sm601 O626 2.543 . S
Sm601 O627 2.450 . S
Sm601 O628 2.681 . S
Sm601 O629 2.464 . S
Sm601 O630 2.396 . S
C602 Sm600 2.846 . S
C602 C603 1.506 . S
C602 O620 1.261 . S
C602 O621 1.242 . S
C603 C602 1.506 . S
C603 C604 1.358 . S
C603 C608 1.382 . S
C604 C603 1.358 . S
C604 C605 1.385 . S
C604 H632 0.930 . S
C605 C604 1.385 . S
C605 C606 1.395 . S
C605 H633 0.929 . S
C606 C605 1.395 . S
C606 C607 1.335 . S
C607 C606 1.335 . S
C607 C608 1.398 . S
C607 H634 0.930 . S
C608 C603 1.382 . S
C608 C607 1.398 . S
C608 H635 0.929 . S
C609 O622 1.271 . S
C609 O623 1.251 . S
C610 O624 1.252 . S
C610 O625 1.272 . S
C611 Sm601 2.846 . S
C611 C612 1.506 . S
C611 O626 1.261 . S
C611 O627 1.242 . S
C612 C611 1.506 . S
C612 C613 1.358 . S
C612 C617 1.382 . S
C613 C612 1.358 . S
C613 C614 1.385 . S
C613 H636 0.930 . S
C614 C613 1.385 . S
C614 C615 1.395 . S
C614 H637 0.929 . S
C615 C614 1.395 . S
C615 C616 1.335 . S
C616 C615 1.335 . S
C616 C617 1.398 . S
C616 H638 0.930 . S
C617 C612 1.382 . S
C617 C616 1.398 . S
C617 H639 0.929 . S
C618 O628 1.271 . S
C618 O629 1.251 . S
C619 O630 1.252 . S
C619 O631 1.272 . S
O620 Sm600 2.543 . S
O620 C602 1.261 . S
O621 Sm600 2.450 . S
O621 C602 1.242 . S
O622 Sm600 2.681 . S
O622 Sm601 2.386 . S
O622 C609 1.271 . S
O623 Sm600 2.464 . S
O623 C609 1.251 . S
O624 Sm600 2.396 . S
O624 C610 1.252 . S
O625 Sm601 2.408 . S
O625 C610 1.272 . S
O626 Sm601 2.543 . S
O626 C611 1.261 . S
O627 Sm601 2.450 . S
O627 C611 1.242 . S
O628 Sm600 2.386 . S
O628 Sm601 2.681 . S
O628 C618 1.271 . S
O629 Sm601 2.464 . S
O629 C618 1.251 . S
O630 Sm601 2.396 . S
O630 C619 1.252 . S
O631 Sm600 2.408 . S
O631 C619 1.272 . S
H632 C604 0.930 . S
H633 C605 0.929 . S
H634 C607 0.930 . S
H635 C608 0.929 . S
H636 C613 0.930 . S
H637 C614 0.929 . S
H638 C616 0.930 . S
H639 C617 0.929 . S
H640 C652 0.930 . S
H641 C654 0.930 . S
H642 C655 0.930 . S
H643 C659 0.959 . S
H644 C659 0.959 . S
H645 C659 0.961 . S
H646 C660 0.960 . S
H647 C660 0.961 . S
H648 C660 0.959 . S
H649 C663 0.929 . S
H650 C664 0.931 . S
H651 C666 0.930 . S
C652 H640 0.930 . S
C652 C653 1.399 . S
C652 C657 1.399 . S
C653 C652 1.399 . S
C653 C654 1.376 . S
C654 H641 0.930 . S
C654 C653 1.376 . S
C654 C655 1.388 . S
C655 H642 0.930 . S
C655 C654 1.388 . S
C655 C656 1.390 . S
C656 C655 1.390 . S
C656 C657 1.394 . S
C656 C662 1.465 . S
C657 C652 1.399 . S
C657 C656 1.394 . S
C657 C658 1.516 . S
C658 C657 1.516 . S
C658 C659 1.502 . S
C658 C660 1.561 . S
C658 C661 1.526 . S
C659 H643 0.959 . S
C659 H644 0.959 . S
C659 H645 0.961 . S
C659 C658 1.502 . S
C660 H646 0.960 . S
C660 H647 0.961 . S
C660 H648 0.959 . S
C660 C658 1.561 . S
C661 C658 1.526 . S
C661 C662 1.396 . S
C661 C666 1.390 . S
C662 C656 1.465 . S
C662 C661 1.396 . S
C662 C663 1.399 . S
C663 H649 0.929 . S
C663 C662 1.399 . S
C663 C664 1.385 . S
C664 H650 0.931 . S
C664 C663 1.385 . S
C664 C665 1.389 . S
C665 C664 1.389 . S
C665 C666 1.387 . S
C666 H651 0.930 . S
C666 C661 1.390 . S
C666 C665 1.387 . S
H667 C679 0.930 . S
H668 C681 0.930 . S
H669 C682 0.930 . S
H670 C686 0.959 . S
H671 C686 0.959 . S
H672 C686 0.961 . S
H673 C687 0.960 . S
H674 C687 0.961 . S
H675 C687 0.959 . S
H676 C690 0.929 . S
H677 C691 0.931 . S
H678 C693 0.930 . S
C679 H667 0.930 . S
C679 C680 1.399 . S
C679 C684 1.399 . S
C680 C679 1.399 . S
C680 C681 1.376 . S
C681 H668 0.930 . S
C681 C680 1.376 . S
C681 C682 1.388 . S
C682 H669 0.930 . S
C682 C681 1.388 . S
C682 C683 1.390 . S
C683 C682 1.390 . S
C683 C684 1.394 . S
C683 C689 1.465 . S
C684 C679 1.399 . S
C684 C683 1.394 . S
C684 C685 1.516 . S
C685 C684 1.516 . S
C685 C686 1.502 . S
C685 C687 1.561 . S
C685 C688 1.526 . S
C686 H670 0.959 . S
C686 H671 0.959 . S
C686 H672 0.961 . S
C686 C685 1.502 . S
C687 H673 0.960 . S
C687 H674 0.961 . S
C687 H675 0.959 . S
C687 C685 1.561 . S
C688 C685 1.526 . S
C688 C689 1.396 . S
C688 C693 1.390 . S
C689 C683 1.465 . S
C689 C688 1.396 . S
C689 C690 1.399 . S
C690 H676 0.929 . S
C690 C689 1.399 . S
C690 C691 1.385 . S
C691 H677 0.931 . S
C691 C690 1.385 . S
C691 C692 1.389 . S
C692 C691 1.389 . S
C692 C693 1.387 . S
C693 H678 0.930 . S
C693 C688 1.390 . S
C693 C692 1.387 . S
H694 C706 0.930 . S
H695 C708 0.930 . S
H696 C709 0.930 . S
H697 C713 0.959 . S
H698 C713 0.959 . S
H699 C713 0.961 . S
H700 C714 0.960 . S
H701 C714 0.961 . S
H702 C714 0.959 . S
H703 C717 0.929 . S
H704 C718 0.931 1_556 S
H705 C720 0.930 . S
C706 H694 0.930 . S
C706 C707 1.399 . S
C706 C711 1.399 . S
C707 C706 1.399 . S
C707 C708 1.376 . S
C708 H695 0.930 . S
C708 C707 1.376 . S
C708 C709 1.388 . S
C709 H696 0.930 . S
C709 C708 1.388 . S
C709 C710 1.390 . S
C710 C709 1.390 . S
C710 C711 1.394 . S
C710 C716 1.465 . S
C711 C706 1.399 . S
C711 C710 1.394 . S
C711 C712 1.516 . S
C712 C711 1.516 . S
C712 C713 1.502 . S
C712 C714 1.561 . S
C712 C715 1.526 . S
C713 H697 0.959 . S
C713 H698 0.959 . S
C713 H699 0.961 . S
C713 C712 1.502 . S
C714 H700 0.960 . S
C714 H701 0.961 . S
C714 H702 0.959 . S
C714 C712 1.561 . S
C715 C712 1.526 . S
C715 C716 1.396 . S
C715 C720 1.390 . S
C716 C710 1.465 . S
C716 C715 1.396 . S
C716 C717 1.399 . S
C717 H703 0.929 . S
C717 C716 1.399 . S
C717 C718 1.385 . S
C718 H704 0.931 1_554 S
C718 C717 1.385 . S
C718 C719 1.388 . S
C719 C718 1.388 . S
C719 C720 1.386 . S
C720 H705 0.930 . S
C720 C715 1.390 . S
C720 C719 1.386 . S
H721 C733 0.930 . S
H722 C735 0.930 . S
H723 C736 0.930 . S
H724 C740 0.959 . S
H725 C740 0.959 . S
H726 C740 0.961 . S
H727 C741 0.960 . S
H728 C741 0.961 . S
H729 C741 0.959 . S
H730 C744 0.929 . S
H731 C745 0.931 . S
H732 C747 0.930 . S
C733 H721 0.930 . S
C733 C734 1.399 . S
C733 C738 1.399 . S
C734 C733 1.399 . S
C734 C735 1.376 . S
C735 H722 0.930 . S
C735 C734 1.376 . S
C735 C736 1.388 . S
C736 H723 0.930 . S
C736 C735 1.388 . S
C736 C737 1.390 . S
C737 C736 1.390 . S
C737 C738 1.394 . S
C737 C743 1.465 . S
C738 C733 1.399 . S
C738 C737 1.394 . S
C738 C739 1.516 . S
C739 C738 1.516 . S
C739 C740 1.502 . S
C739 C741 1.561 . S
C739 C742 1.526 . S
C740 H724 0.959 . S
C740 H725 0.959 . S
C740 H726 0.961 . S
C740 C739 1.502 . S
C741 H727 0.960 . S
C741 H728 0.961 . S
C741 H729 0.959 . S
C741 C739 1.561 . S
C742 C739 1.526 . S
C742 C743 1.396 . S
C742 C747 1.390 . S
C743 C737 1.465 . S
C743 C742 1.396 . S
C743 C744 1.399 . S
C744 H730 0.929 . S
C744 C743 1.399 . S
C744 C745 1.385 . S
C745 H731 0.931 . S
C745 C744 1.385 . S
C745 C746 1.389 . S
C746 C745 1.389 . S
C746 C747 1.387 . S
C747 H732 0.930 . S
C747 C742 1.390 . S
C747 C746 1.387 . S
H748 C760 0.930 . S
H749 C762 0.930 . S
H750 C763 0.930 . S
H751 C767 0.959 . S
H752 C767 0.959 . S
H753 C767 0.961 . S
H754 C768 0.960 . S
H755 C768 0.961 . S
H756 C768 0.959 . S
H757 C771 0.929 . S
H758 C772 0.931 . S
H759 C774 0.930 . S
C760 H748 0.930 . S
C760 C761 1.399 . S
C760 C765 1.399 . S
C761 C760 1.399 . S
C761 C762 1.376 . S
C762 H749 0.930 . S
C762 C761 1.376 . S
C762 C763 1.388 . S
C763 H750 0.930 . S
C763 C762 1.388 . S
C763 C764 1.390 . S
C764 C763 1.390 . S
C764 C765 1.394 . S
C764 C770 1.465 . S
C765 C760 1.399 . S
C765 C764 1.394 . S
C765 C766 1.516 . S
C766 C765 1.516 . S
C766 C767 1.502 . S
C766 C768 1.561 . S
C766 C769 1.526 . S
C767 H751 0.959 . S
C767 H752 0.959 . S
C767 H753 0.961 . S
C767 C766 1.502 . S
C768 H754 0.960 . S
C768 H755 0.961 . S
C768 H756 0.959 . S
C768 C766 1.561 . S
C769 C766 1.526 . S
C769 C770 1.396 . S
C769 C774 1.390 . S
C770 C764 1.465 . S
C770 C769 1.396 . S
C770 C771 1.399 . S
C771 H757 0.929 . S
C771 C770 1.399 . S
C771 C772 1.385 . S
C772 H758 0.931 . S
C772 C771 1.385 . S
C772 C773 1.389 . S
C773 C772 1.389 . S
C773 C774 1.387 . S
C774 H759 0.930 . S
C774 C769 1.390 . S
C774 C773 1.387 . S
H775 C787 0.930 . S
H776 C789 0.930 . S
H777 C790 0.930 . S
H778 C794 0.959 . S
H779 C794 0.959 . S
H780 C794 0.961 . S
H781 C795 0.960 . S
H782 C795 0.961 . S
H783 C795 0.959 . S
H784 C798 0.929 . S
H785 C799 0.931 . S
H786 C801 0.930 . S
C787 H775 0.930 . S
C787 C788 1.399 . S
C787 C792 1.399 . S
C788 C787 1.399 . S
C788 C789 1.376 . S
C789 H776 0.930 . S
C789 C788 1.376 . S
C789 C790 1.388 . S
C790 H777 0.930 . S
C790 C789 1.388 . S
C790 C791 1.390 . S
C791 C790 1.390 . S
C791 C792 1.394 . S
C791 C797 1.465 . S
C792 C787 1.399 . S
C792 C791 1.394 . S
C792 C793 1.516 . S
C793 C792 1.516 . S
C793 C794 1.502 . S
C793 C795 1.561 . S
C793 C796 1.526 . S
C794 H778 0.959 . S
C794 H779 0.959 . S
C794 H780 0.961 . S
C794 C793 1.502 . S
C795 H781 0.960 . S
C795 H782 0.961 . S
C795 H783 0.959 . S
C795 C793 1.561 . S
C796 C793 1.526 . S
C796 C797 1.396 . S
C796 C801 1.390 . S
C797 C791 1.465 . S
C797 C796 1.396 . S
C797 C798 1.399 . S
C798 H784 0.929 . S
C798 C797 1.399 . S
C798 C799 1.385 . S
C799 H785 0.931 . S
C799 C798 1.385 . S
C799 C800 1.389 . S
C800 C799 1.389 . S
C800 C801 1.387 . S
C801 H786 0.930 . S
C801 C796 1.390 . S
C801 C800 1.387 . S
H802 C814 0.930 . S
H803 C816 0.930 . S
H804 C817 0.930 . S
H805 C821 0.959 . S
H806 C821 0.959 . S
H807 C821 0.961 . S
H808 C822 0.960 . S
H809 C822 0.961 . S
H810 C822 0.959 . S
H811 C825 0.929 . S
H812 C826 0.921 1_554 S
H813 C828 0.930 . S
C814 H802 0.930 . S
C814 C815 1.399 . S
C814 C819 1.399 . S
C815 C814 1.399 . S
C815 C816 1.376 . S
C816 H803 0.930 . S
C816 C815 1.376 . S
C816 C817 1.388 . S
C817 H804 0.930 . S
C817 C816 1.388 . S
C817 C818 1.390 . S
C818 C817 1.390 . S
C818 C819 1.394 . S
C818 C824 1.465 . S
C819 C814 1.399 . S
C819 C818 1.394 . S
C819 C820 1.516 . S
C820 C819 1.516 . S
C820 C821 1.502 . S
C820 C822 1.561 . S
C820 C823 1.526 . S
C821 H805 0.959 . S
C821 H806 0.959 . S
C821 H807 0.961 . S
C821 C820 1.502 . S
C822 H808 0.960 . S
C822 H809 0.961 . S
C822 H810 0.959 . S
C822 C820 1.561 . S
C823 C820 1.526 . S
C823 C824 1.396 . S
C823 C828 1.390 . S
C824 C818 1.465 . S
C824 C823 1.396 . S
C824 C825 1.399 . S
C825 H811 0.929 . S
C825 C824 1.399 . S
C825 C826 1.385 . S
C826 H812 0.921 1_556 S
C826 C825 1.385 . S
C826 C827 1.392 . S
C827 C826 1.392 . S
C827 C828 1.389 . S
C828 H813 0.930 . S
C828 C823 1.390 . S
C828 C827 1.389 . S
H829 C841 0.930 . S
H830 C843 0.925 1_556 S
H831 C844 0.930 . S
H832 C848 0.959 . S
H833 C848 0.959 . S
H834 C848 0.961 . S
H835 C849 0.960 . S
H836 C849 0.961 . S
H837 C849 0.959 . S
H838 C852 0.929 . S
H839 C853 0.931 . S
H840 C855 0.930 . S
C841 H829 0.930 . S
C841 C842 1.399 . S
C841 C846 1.399 . S
C842 C841 1.399 . S
C842 C843 1.376 . S
C843 H830 0.925 1_554 S
C843 C842 1.376 . S
C843 C844 1.394 . S
C844 H831 0.930 . S
C844 C843 1.394 . S
C844 C845 1.390 . S
C845 C844 1.390 . S
C845 C846 1.394 . S
C845 C851 1.465 . S
C846 C841 1.399 . S
C846 C845 1.394 . S
C846 C847 1.516 . S
C847 C846 1.516 . S
C847 C848 1.502 . S
C847 C849 1.561 . S
C847 C850 1.526 . S
C848 H832 0.959 . S
C848 H833 0.959 . S
C848 H834 0.961 . S
C848 C847 1.502 . S
C849 H835 0.960 . S
C849 H836 0.961 . S
C849 H837 0.959 . S
C849 C847 1.561 . S
C850 C847 1.526 . S
C850 C851 1.396 . S
C850 C855 1.390 . S
C851 C845 1.465 . S
C851 C850 1.396 . S
C851 C852 1.399 . S
C852 H838 0.929 . S
C852 C851 1.399 . S
C852 C853 1.385 . S
C853 H839 0.931 . S
C853 C852 1.385 . S
C853 C854 1.389 . S
C854 C853 1.389 . S
C854 C855 1.387 . S
C855 H840 0.930 . S
C855 C850 1.390 . S
C855 C854 1.387 . S
H856 C868 0.930 . S
H857 C870 0.930 . S
H858 C871 0.930 . S
H859 C875 0.959 . S
H860 C875 0.959 . S
H861 C875 0.961 . S
H862 C876 0.960 . S
H863 C876 0.961 . S
H864 C876 0.959 . S
H865 C879 0.929 . S
H866 C880 0.931 . S
H867 C882 0.930 . S
C868 H856 0.930 . S
C868 C869 1.399 . S
C868 C873 1.399 . S
C869 C868 1.399 . S
C869 C870 1.376 . S
C870 H857 0.930 . S
C870 C869 1.376 . S
C870 C871 1.388 . S
C871 H858 0.930 . S
C871 C870 1.388 . S
C871 C872 1.390 . S
C872 C871 1.390 . S
C872 C873 1.394 . S
C872 C878 1.465 . S
C873 C868 1.399 . S
C873 C872 1.394 . S
C873 C874 1.516 . S
C874 C873 1.516 . S
C874 C875 1.502 . S
C874 C876 1.561 . S
C874 C877 1.526 . S
C875 H859 0.959 . S
C875 H860 0.959 . S
C875 H861 0.961 . S
C875 C874 1.502 . S
C876 H862 0.960 . S
C876 H863 0.961 . S
C876 H864 0.959 . S
C876 C874 1.561 . S
C877 C874 1.526 . S
C877 C878 1.396 . S
C877 C882 1.390 . S
C878 C872 1.465 . S
C878 C877 1.396 . S
C878 C879 1.399 . S
C879 H865 0.929 . S
C879 C878 1.399 . S
C879 C880 1.385 . S
C880 H866 0.931 . S
C880 C879 1.385 . S
C880 C881 1.389 . S
C881 C880 1.389 . S
C881 C882 1.387 . S
C882 H867 0.930 . S
C882 C877 1.390 . S
C882 C881 1.387 . S
H883 C895 0.930 . S
H884 C897 0.930 . S
H885 C898 0.930 . S
H886 C902 0.959 . S
H887 C902 0.959 . S
H888 C902 0.961 . S
H889 C903 0.960 . S
H890 C903 0.961 . S
H891 C903 0.959 . S
H892 C906 0.929 . S
H893 C907 0.916 1_556 S
H894 C909 0.930 . S
C895 H883 0.930 . S
C895 C896 1.399 . S
C895 C900 1.399 . S
C896 C895 1.399 . S
C896 C897 1.376 . S
C897 H884 0.930 . S
C897 C896 1.376 . S
C897 C898 1.388 . S
C898 H885 0.930 . S
C898 C897 1.388 . S
C898 C899 1.390 . S
C899 C898 1.390 . S
C899 C900 1.394 . S
C899 C905 1.465 . S
C900 C895 1.399 . S
C900 C899 1.394 . S
C900 C901 1.516 . S
C901 C900 1.516 . S
C901 C902 1.502 . S
C901 C903 1.561 . S
C901 C904 1.526 . S
C902 H886 0.959 . S
C902 H887 0.959 . S
C902 H888 0.961 . S
C902 C901 1.502 . S
C903 H889 0.960 . S
C903 H890 0.961 . S
C903 H891 0.959 . S
C903 C901 1.561 . S
C904 C901 1.526 . S
C904 C905 1.396 . S
C904 C909 1.390 . S
C905 C899 1.465 . S
C905 C904 1.396 . S
C905 C906 1.399 . S
C906 H892 0.929 . S
C906 C905 1.399 . S
C906 C907 1.400 . S
C907 H893 0.916 1_554 S
C907 C906 1.400 . S
C907 C908 1.388 . S
C908 C907 1.388 . S
C908 C909 1.387 . S
C909 H894 0.930 . S
C909 C904 1.390 . S
C909 C908 1.387 . S
H910 C922 0.930 . S
H911 C924 0.930 1_554 S
H912 C925 0.930 . S
H913 C929 0.959 . S
H914 C929 0.959 . S
H915 C929 0.961 . S
H916 C930 0.960 . S
H917 C930 0.961 . S
H918 C930 0.959 . S
H919 C933 0.929 . S
H920 C934 0.931 . S
H921 C936 0.930 . S
C922 H910 0.930 . S
C922 C923 1.401 . S
C922 C927 1.399 . S
C923 C922 1.401 . S
C923 C924 1.378 . S
C924 H911 0.930 1_556 S
C924 C923 1.378 . S
C924 C925 1.388 . S
C925 H912 0.930 . S
C925 C924 1.388 . S
C925 C926 1.390 . S
C926 C925 1.390 . S
C926 C927 1.394 . S
C926 C932 1.465 . S
C927 C922 1.399 . S
C927 C926 1.394 . S
C927 C928 1.516 . S
C928 C927 1.516 . S
C928 C929 1.502 . S
C928 C930 1.561 . S
C928 C931 1.526 . S
C929 H913 0.959 . S
C929 H914 0.959 . S
C929 H915 0.961 . S
C929 C928 1.502 . S
C930 H916 0.960 . S
C930 H917 0.961 . S
C930 H918 0.959 . S
C930 C928 1.561 . S
C931 C928 1.526 . S
C931 C932 1.396 . S
C931 C936 1.390 . S
C932 C926 1.465 . S
C932 C931 1.396 . S
C932 C933 1.399 . S
C933 H919 0.929 . S
C933 C932 1.399 . S
C933 C934 1.385 . S
C934 H920 0.931 . S
C934 C933 1.385 . S
C934 C935 1.389 . S
C935 C934 1.389 . S
C935 C936 1.387 . S
C936 H921 0.930 . S
C936 C931 1.390 . S
C936 C935 1.387 . S
H937 C949 0.930 . S
H938 C951 0.930 . S
H939 C952 0.930 . S
H940 C956 0.959 . S
H941 C956 0.959 . S
H942 C956 0.961 . S
H943 C957 0.960 . S
H944 C957 0.961 . S
H945 C957 0.959 . S
H946 C960 0.929 . S
H947 C961 0.931 . S
H948 C963 0.930 . S
C949 H937 0.930 . S
C949 C950 1.399 . S
C949 C954 1.399 . S
C950 C949 1.399 . S
C950 C951 1.376 . S
C951 H938 0.930 . S
C951 C950 1.376 . S
C951 C952 1.388 . S
C952 H939 0.930 . S
C952 C951 1.388 . S
C952 C953 1.390 . S
C953 C952 1.390 . S
C953 C954 1.394 . S
C953 C959 1.465 . S
C954 C949 1.399 . S
C954 C953 1.394 . S
C954 C955 1.516 . S
C955 C954 1.516 . S
C955 C956 1.502 . S
C955 C957 1.561 . S
C955 C958 1.526 . S
C956 H940 0.959 . S
C956 H941 0.959 . S
C956 H942 0.961 . S
C956 C955 1.502 . S
C957 H943 0.960 . S
C957 H944 0.961 . S
C957 H945 0.959 . S
C957 C955 1.561 . S
C958 C955 1.526 . S
C958 C959 1.396 . S
C958 C963 1.390 . S
C959 C953 1.465 . S
C959 C958 1.396 . S
C959 C960 1.399 . S
C960 H946 0.929 . S
C960 C959 1.399 . S
C960 C961 1.385 . S
C961 H947 0.931 . S
C961 C960 1.385 . S
C961 C962 1.389 . S
C962 C961 1.389 . S
C962 C963 1.387 . S
C963 H948 0.930 . S
C963 C958 1.390 . S
C963 C962 1.387 . S
H964 C976 0.930 . S
H965 C978 0.930 . S
H966 C979 0.930 . S
H967 C983 0.959 . S
H968 C983 0.959 . S
H969 C983 0.961 . S
H970 C984 0.960 . S
H971 C984 0.961 . S
H972 C984 0.959 . S
H973 C987 0.929 . S
H974 C988 0.931 . S
H975 C990 0.930 . S
C976 H964 0.930 . S
C976 C977 1.399 . S
C976 C981 1.399 . S
C977 C976 1.399 . S
C977 C978 1.376 . S
C978 H965 0.930 . S
C978 C977 1.376 . S
C978 C979 1.388 . S
C979 H966 0.930 . S
C979 C978 1.388 . S
C979 C980 1.390 . S
C980 C979 1.390 . S
C980 C981 1.394 . S
C980 C986 1.465 . S
C981 C976 1.399 . S
C981 C980 1.394 . S
C981 C982 1.516 . S
C982 C981 1.516 . S
C982 C983 1.502 . S
C982 C984 1.561 . S
C982 C985 1.526 . S
C983 H967 0.959 . S
C983 H968 0.959 . S
C983 H969 0.961 . S
C983 C982 1.502 . S
C984 H970 0.960 . S
C984 H971 0.961 . S
C984 H972 0.959 . S
C984 C982 1.561 . S
C985 C982 1.526 . S
C985 C986 1.396 . S
C985 C990 1.390 . S
C986 C980 1.465 . S
C986 C985 1.396 . S
C986 C987 1.399 . S
C987 H973 0.929 . S
C987 C986 1.399 . S
C987 C988 1.385 . S
C988 H974 0.931 . S
C988 C987 1.385 . S
C988 C989 1.389 . S
C989 C988 1.389 . S
C989 C990 1.387 . S
C990 H975 0.930 . S
C990 C985 1.390 . S
C990 C989 1.387 . S
H991 C1003 0.930 . S
H992 C1005 0.930 . S
H993 C1006 0.930 . S
H994 C1010 0.959 . S
H995 C1010 0.959 . S
H996 C1010 0.961 . S
H997 C1011 0.960 . S
H998 C1011 0.961 . S
H999 C1011 0.959 . S
H1000 C1014 0.929 . S
H1001 C1015 0.931 . S
H1002 C1017 0.930 . S
C1003 H991 0.930 . S
C1003 C1004 1.399 . S
C1003 C1008 1.399 . S
C1004 C1003 1.399 . S
C1004 C1005 1.376 . S
C1005 H992 0.930 . S
C1005 C1004 1.376 . S
C1005 C1006 1.388 . S
C1006 H993 0.930 . S
C1006 C1005 1.388 . S
C1006 C1007 1.390 . S
C1007 C1006 1.390 . S
C1007 C1008 1.394 . S
C1007 C1013 1.465 . S
C1008 C1003 1.399 . S
C1008 C1007 1.394 . S
C1008 C1009 1.516 . S
C1009 C1008 1.516 . S
C1009 C1010 1.502 . S
C1009 C1011 1.561 . S
C1009 C1012 1.526 . S
C1010 H994 0.959 . S
C1010 H995 0.959 . S
C1010 H996 0.961 . S
C1010 C1009 1.502 . S
C1011 H997 0.960 . S
C1011 H998 0.961 . S
C1011 H999 0.959 . S
C1011 C1009 1.561 . S
C1012 C1009 1.526 . S
C1012 C1013 1.396 . S
C1012 C1017 1.390 . S
C1013 C1007 1.465 . S
C1013 C1012 1.396 . S
C1013 C1014 1.399 . S
C1014 H1000 0.929 . S
C1014 C1013 1.399 . S
C1014 C1015 1.385 . S
C1015 H1001 0.931 . S
C1015 C1014 1.385 . S
C1015 C1016 1.389 . S
C1016 C1015 1.389 . S
C1016 C1017 1.387 . S
C1017 H1002 0.930 . S
C1017 C1012 1.390 . S
C1017 C1016 1.387 . S
H1018 C1030 0.930 . S
H1019 C1032 0.930 . S
H1020 C1033 0.930 . S
H1021 C1037 0.959 . S
H1022 C1037 0.959 . S
H1023 C1037 0.961 . S
H1024 C1038 0.960 . S
H1025 C1038 0.961 . S
H1026 C1038 0.959 . S
H1027 C1041 0.929 . S
H1028 C1042 0.931 1_556 S
H1029 C1044 0.930 . S
C1030 H1018 0.930 . S
C1030 C1031 1.399 . S
C1030 C1035 1.399 . S
C1031 C1030 1.399 . S
C1031 C1032 1.376 . S
C1032 H1019 0.930 . S
C1032 C1031 1.376 . S
C1032 C1033 1.388 . S
C1033 H1020 0.930 . S
C1033 C1032 1.388 . S
C1033 C1034 1.390 . S
C1034 C1033 1.390 . S
C1034 C1035 1.394 . S
C1034 C1040 1.465 . S
C1035 C1030 1.399 . S
C1035 C1034 1.394 . S
C1035 C1036 1.516 . S
C1036 C1035 1.516 . S
C1036 C1037 1.502 . S
C1036 C1038 1.561 . S
C1036 C1039 1.526 . S
C1037 H1021 0.959 . S
C1037 H1022 0.959 . S
C1037 H1023 0.961 . S
C1037 C1036 1.502 . S
C1038 H1024 0.960 . S
C1038 H1025 0.961 . S
C1038 H1026 0.959 . S
C1038 C1036 1.561 . S
C1039 C1036 1.526 . S
C1039 C1040 1.396 . S
C1039 C1044 1.390 . S
C1040 C1034 1.465 . S
C1040 C1039 1.396 . S
C1040 C1041 1.399 . S
C1041 H1027 0.929 . S
C1041 C1040 1.399 . S
C1041 C1042 1.385 . S
C1042 H1028 0.931 1_554 S
C1042 C1041 1.385 . S
C1042 C1043 1.382 1_554 S
C1043 C1042 1.382 1_556 S
C1043 C1044 1.378 1_556 S
C1044 H1029 0.930 . S
C1044 C1039 1.390 . S
C1044 C1043 1.378 1_554 S
H1045 C1057 0.930 . S
H1046 C1059 0.930 . S
H1047 C1060 0.930 . S
H1048 C1064 0.959 . S
H1049 C1064 0.959 . S
H1050 C1064 0.961 . S
H1051 C1065 0.960 . S
H1052 C1065 0.961 . S
H1053 C1065 0.959 . S
H1054 C1068 0.929 . S
H1055 C1069 0.931 . S
H1056 C1071 0.930 . S
C1057 H1045 0.930 . S
C1057 C1058 1.399 . S
C1057 C1062 1.399 . S
C1058 C1057 1.399 . S
C1058 C1059 1.376 . S
C1059 H1046 0.930 . S
C1059 C1058 1.376 . S
C1059 C1060 1.388 . S
C1060 H1047 0.930 . S
C1060 C1059 1.388 . S
C1060 C1061 1.390 . S
C1061 C1060 1.390 . S
C1061 C1062 1.394 . S
C1061 C1067 1.465 . S
C1062 C1057 1.399 . S
C1062 C1061 1.394 . S
C1062 C1063 1.516 . S
C1063 C1062 1.516 . S
C1063 C1064 1.502 . S
C1063 C1065 1.561 . S
C1063 C1066 1.526 . S
C1064 H1048 0.959 . S
C1064 H1049 0.959 . S
C1064 H1050 0.961 . S
C1064 C1063 1.502 . S
C1065 H1051 0.960 . S
C1065 H1052 0.961 . S
C1065 H1053 0.959 . S
C1065 C1063 1.561 . S
C1066 C1063 1.526 . S
C1066 C1067 1.396 . S
C1066 C1071 1.390 . S
C1067 C1061 1.465 . S
C1067 C1066 1.396 . S
C1067 C1068 1.399 . S
C1068 H1054 0.929 . S
C1068 C1067 1.399 . S
C1068 C1069 1.385 . S
C1069 H1055 0.931 . S
C1069 C1068 1.385 . S
C1069 C1070 1.389 . S
C1070 C1069 1.389 . S
C1070 C1071 1.387 . S
C1071 H1056 0.930 . S
C1071 C1066 1.390 . S
C1071 C1070 1.387 . S
H1072 C1084 0.930 . S
H1073 C1086 0.930 . S
H1074 C1087 0.930 . S
H1075 C1091 0.959 . S
H1076 C1091 0.959 . S
H1077 C1091 0.961 . S
H1078 C1092 0.960 . S
H1079 C1092 0.961 . S
H1080 C1092 0.959 . S
H1081 C1095 0.929 . S
H1082 C1096 0.931 . S
H1083 C1098 0.930 . S
C1084 H1072 0.930 . S
C1084 C1085 1.399 . S
C1084 C1089 1.399 . S
C1085 C1084 1.399 . S
C1085 C1086 1.376 . S
C1086 H1073 0.930 . S
C1086 C1085 1.376 . S
C1086 C1087 1.388 . S
C1087 H1074 0.930 . S
C1087 C1086 1.388 . S
C1087 C1088 1.390 . S
C1088 C1087 1.390 . S
C1088 C1089 1.394 . S
C1088 C1094 1.465 . S
C1089 C1084 1.399 . S
C1089 C1088 1.394 . S
C1089 C1090 1.516 . S
C1090 C1089 1.516 . S
C1090 C1091 1.502 . S
C1090 C1092 1.561 . S
C1090 C1093 1.526 . S
C1091 H1075 0.959 . S
C1091 H1076 0.959 . S
C1091 H1077 0.961 . S
C1091 C1090 1.502 . S
C1092 H1078 0.960 . S
C1092 H1079 0.961 . S
C1092 H1080 0.959 . S
C1092 C1090 1.561 . S
C1093 C1090 1.526 . S
C1093 C1094 1.396 . S
C1093 C1098 1.390 . S
C1094 C1088 1.465 . S
C1094 C1093 1.396 . S
C1094 C1095 1.399 . S
C1095 H1081 0.929 . S
C1095 C1094 1.399 . S
C1095 C1096 1.385 . S
C1096 H1082 0.931 . S
C1096 C1095 1.385 . S
C1096 C1097 1.389 . S
C1097 C1096 1.389 . S
C1097 C1098 1.387 . S
C1098 H1083 0.930 . S
C1098 C1093 1.390 . S
C1098 C1097 1.387 . S
H1099 C1111 0.930 . S
H1100 C1113 0.930 . S
H1101 C1114 0.930 . S
H1102 C1118 0.959 . S
H1103 C1118 0.959 . S
H1104 C1118 0.961 . S
H1105 C1119 0.960 . S
H1106 C1119 0.961 . S
H1107 C1119 0.959 . S
H1108 C1122 0.929 . S
H1109 C1123 0.931 . S
H1110 C1125 0.930 . S
C1111 H1099 0.930 . S
C1111 C1112 1.399 . S
C1111 C1116 1.399 . S
C1112 C1111 1.399 . S
C1112 C1113 1.376 . S
C1113 H1100 0.930 . S
C1113 C1112 1.376 . S
C1113 C1114 1.388 . S
C1114 H1101 0.930 . S
C1114 C1113 1.388 . S
C1114 C1115 1.390 . S
C1115 C1114 1.390 . S
C1115 C1116 1.394 . S
C1115 C1121 1.465 . S
C1116 C1111 1.399 . S
C1116 C1115 1.394 . S
C1116 C1117 1.516 . S
C1117 C1116 1.516 . S
C1117 C1118 1.502 . S
C1117 C1119 1.561 . S
C1117 C1120 1.526 . S
C1118 H1102 0.959 . S
C1118 H1103 0.959 . S
C1118 H1104 0.961 . S
C1118 C1117 1.502 . S
C1119 H1105 0.960 . S
C1119 H1106 0.961 . S
C1119 H1107 0.959 . S
C1119 C1117 1.561 . S
C1120 C1117 1.526 . S
C1120 C1121 1.396 . S
C1120 C1125 1.390 . S
C1121 C1115 1.465 . S
C1121 C1120 1.396 . S
C1121 C1122 1.399 . S
C1122 H1108 0.929 . S
C1122 C1121 1.399 . S
C1122 C1123 1.385 . S
C1123 H1109 0.931 . S
C1123 C1122 1.385 . S
C1123 C1124 1.389 . S
C1124 C1123 1.389 . S
C1124 C1125 1.387 . S
C1125 H1110 0.930 . S
C1125 C1120 1.390 . S
C1125 C1124 1.387 . S
H1126 C1138 0.930 . S
H1127 C1140 0.930 . S
H1128 C1141 0.930 . S
H1129 C1145 0.959 . S
H1130 C1145 0.959 . S
H1131 C1145 0.961 . S
H1132 C1146 0.960 . S
H1133 C1146 0.961 . S
H1134 C1146 0.959 . S
H1135 C1149 0.929 . S
H1136 C1150 0.931 . S
H1137 C1152 0.930 . S
C1138 H1126 0.930 . S
C1138 C1139 1.399 . S
C1138 C1143 1.399 . S
C1139 C1138 1.399 . S
C1139 C1140 1.376 . S
C1140 H1127 0.930 . S
C1140 C1139 1.376 . S
C1140 C1141 1.388 . S
C1141 H1128 0.930 . S
C1141 C1140 1.388 . S
C1141 C1142 1.390 . S
C1142 C1141 1.390 . S
C1142 C1143 1.394 . S
C1142 C1148 1.465 . S
C1143 C1138 1.399 . S
C1143 C1142 1.394 . S
C1143 C1144 1.516 . S
C1144 C1143 1.516 . S
C1144 C1145 1.502 . S
C1144 C1146 1.561 . S
C1144 C1147 1.526 . S
C1145 H1129 0.959 . S
C1145 H1130 0.959 . S
C1145 H1131 0.961 . S
C1145 C1144 1.502 . S
C1146 H1132 0.960 . S
C1146 H1133 0.961 . S
C1146 H1134 0.959 . S
C1146 C1144 1.561 . S
C1147 C1144 1.526 . S
C1147 C1148 1.396 . S
C1147 C1152 1.390 . S
C1148 C1142 1.465 . S
C1148 C1147 1.396 . S
C1148 C1149 1.399 . S
C1149 H1135 0.929 . S
C1149 C1148 1.399 . S
C1149 C1150 1.385 . S
C1150 H1136 0.931 . S
C1150 C1149 1.385 . S
C1150 C1151 1.389 . S
C1151 C1150 1.389 . S
C1151 C1152 1.387 . S
C1152 H1137 0.930 . S
C1152 C1147 1.390 . S
C1152 C1151 1.387 . S
H1153 C1165 0.930 . S
H1154 C1167 0.930 . S
H1155 C1168 0.930 . S
H1156 C1172 0.962 . S
H1157 C1172 0.979 . S
H1158 C1172 0.940 1_655 S
H1159 C1173 0.958 1_655 S
H1160 C1173 0.963 . S
H1161 C1173 0.959 . S
H1162 C1176 0.929 . S
H1163 C1177 0.931 . S
H1164 C1179 0.930 . S
C1165 H1153 0.930 . S
C1165 C1166 1.399 . S
C1165 C1170 1.399 . S
C1166 C1165 1.399 . S
C1166 C1167 1.376 . S
C1167 H1154 0.930 . S
C1167 C1166 1.376 . S
C1167 C1168 1.388 . S
C1168 H1155 0.930 . S
C1168 C1167 1.388 . S
C1168 C1169 1.390 . S
C1169 C1168 1.390 . S
C1169 C1170 1.394 . S
C1169 C1175 1.465 1_655 S
C1170 C1165 1.399 . S
C1170 C1169 1.394 . S
C1170 C1171 1.517 1_655 S
C1171 C1170 1.517 1_455 S
C1171 C1172 1.502 . S
C1171 C1173 1.561 . S
C1171 C1174 1.525 . S
C1172 H1156 0.962 . S
C1172 H1157 0.979 . S
C1172 H1158 0.940 1_455 S
C1172 C1171 1.502 . S
C1173 H1159 0.958 1_455 S
C1173 H1160 0.963 . S
C1173 H1161 0.959 . S
C1173 C1171 1.561 . S
C1174 C1171 1.525 . S
C1174 C1175 1.396 . S
C1174 C1179 1.390 . S
C1175 C1169 1.465 1_455 S
C1175 C1174 1.396 . S
C1175 C1176 1.399 . S
C1176 H1162 0.929 . S
C1176 C1175 1.399 . S
C1176 C1177 1.385 . S
C1177 H1163 0.931 . S
C1177 C1176 1.385 . S
C1177 C1178 1.389 . S
C1178 C1177 1.389 . S
C1178 C1179 1.387 . S
C1179 H1164 0.930 . S
C1179 C1174 1.390 . S
C1179 C1178 1.387 . S
H1180 C1192 0.930 . S
H1181 C1194 0.930 . S
H1182 C1195 0.930 . S
H1183 C1199 0.959 . S
H1184 C1199 0.959 . S
H1185 C1199 0.961 . S
H1186 C1200 0.960 . S
H1187 C1200 0.961 . S
H1188 C1200 0.959 . S
H1189 C1203 0.929 . S
H1190 C1204 0.931 . S
H1191 C1206 0.930 . S
C1192 H1180 0.930 . S
C1192 C1193 1.399 . S
C1192 C1197 1.399 . S
C1193 C1192 1.399 . S
C1193 C1194 1.376 . S
C1194 H1181 0.930 . S
C1194 C1193 1.376 . S
C1194 C1195 1.388 . S
C1195 H1182 0.930 . S
C1195 C1194 1.388 . S
C1195 C1196 1.390 . S
C1196 C1195 1.390 . S
C1196 C1197 1.394 . S
C1196 C1202 1.465 . S
C1197 C1192 1.399 . S
C1197 C1196 1.394 . S
C1197 C1198 1.516 . S
C1198 C1197 1.516 . S
C1198 C1199 1.502 . S
C1198 C1200 1.561 . S
C1198 C1201 1.526 . S
C1199 H1183 0.959 . S
C1199 H1184 0.959 . S
C1199 H1185 0.961 . S
C1199 C1198 1.502 . S
C1200 H1186 0.960 . S
C1200 H1187 0.961 . S
C1200 H1188 0.959 . S
C1200 C1198 1.561 . S
C1201 C1198 1.526 . S
C1201 C1202 1.396 . S
C1201 C1206 1.390 . S
C1202 C1196 1.465 . S
C1202 C1201 1.396 . S
C1202 C1203 1.399 . S
C1203 H1189 0.929 . S
C1203 C1202 1.399 . S
C1203 C1204 1.385 . S
C1204 H1190 0.931 . S
C1204 C1203 1.385 . S
C1204 C1205 1.389 . S
C1205 C1204 1.389 . S
C1205 C1206 1.387 . S
C1206 H1191 0.930 . S
C1206 C1201 1.390 . S
C1206 C1205 1.387 . S
H1207 C1219 0.930 . S
H1208 C1221 0.930 . S
H1209 C1222 0.930 . S
H1210 C1226 0.962 . S
H1211 C1226 0.979 . S
H1212 C1226 0.940 1_455 S
H1213 C1227 0.958 1_455 S
H1214 C1227 0.963 . S
H1215 C1227 0.959 . S
H1216 C1230 0.929 . S
H1217 C1231 0.931 . S
H1218 C1233 0.930 . S
C1219 H1207 0.930 . S
C1219 C1220 1.399 . S
C1219 C1224 1.399 . S
C1220 C1219 1.399 . S
C1220 C1221 1.376 . S
C1221 H1208 0.930 . S
C1221 C1220 1.376 . S
C1221 C1222 1.388 . S
C1222 H1209 0.930 . S
C1222 C1221 1.388 . S
C1222 C1223 1.390 . S
C1223 C1222 1.390 . S
C1223 C1224 1.394 . S
C1223 C1229 1.465 1_455 S
C1224 C1219 1.399 . S
C1224 C1223 1.394 . S
C1224 C1225 1.517 1_455 S
C1225 C1224 1.517 1_655 S
C1225 C1226 1.502 . S
C1225 C1227 1.561 . S
C1225 C1228 1.525 . S
C1226 H1210 0.962 . S
C1226 H1211 0.979 . S
C1226 H1212 0.940 1_655 S
C1226 C1225 1.502 . S
C1227 H1213 0.958 1_655 S
C1227 H1214 0.963 . S
C1227 H1215 0.959 . S
C1227 C1225 1.561 . S
C1228 C1225 1.525 . S
C1228 C1229 1.396 . S
C1228 C1233 1.390 . S
C1229 C1223 1.465 1_655 S
C1229 C1228 1.396 . S
C1229 C1230 1.399 . S
C1230 H1216 0.929 . S
C1230 C1229 1.399 . S
C1230 C1231 1.385 . S
C1231 H1217 0.931 . S
C1231 C1230 1.385 . S
C1231 C1232 1.389 . S
C1232 C1231 1.389 . S
C1232 C1233 1.387 . S
C1233 H1218 0.930 . S
C1233 C1228 1.390 . S
C1233 C1232 1.387 . S
H1234 C1246 0.930 . S
H1235 C1248 0.930 . S
H1236 C1249 0.930 . S
H1237 C1253 0.959 . S
H1238 C1253 0.959 . S
H1239 C1253 0.961 . S
H1240 C1254 0.960 . S
H1241 C1254 0.961 . S
H1242 C1254 0.959 . S
H1243 C1257 0.929 . S
H1244 C1258 0.931 . S
H1245 C1260 0.930 . S
C1246 H1234 0.930 . S
C1246 C1247 1.399 . S
C1246 C1251 1.399 . S
C1247 C1246 1.399 . S
C1247 C1248 1.376 . S
C1248 H1235 0.930 . S
C1248 C1247 1.376 . S
C1248 C1249 1.388 . S
C1249 H1236 0.930 . S
C1249 C1248 1.388 . S
C1249 C1250 1.390 . S
C1250 C1249 1.390 . S
C1250 C1251 1.394 . S
C1250 C1256 1.465 . S
C1251 C1246 1.399 . S
C1251 C1250 1.394 . S
C1251 C1252 1.516 . S
C1252 C1251 1.516 . S
C1252 C1253 1.502 . S
C1252 C1254 1.561 . S
C1252 C1255 1.526 . S
C1253 H1237 0.959 . S
C1253 H1238 0.959 . S
C1253 H1239 0.961 . S
C1253 C1252 1.502 . S
C1254 H1240 0.960 . S
C1254 H1241 0.961 . S
C1254 H1242 0.959 . S
C1254 C1252 1.561 . S
C1255 C1252 1.526 . S
C1255 C1256 1.396 . S
C1255 C1260 1.390 . S
C1256 C1250 1.465 . S
C1256 C1255 1.396 . S
C1256 C1257 1.399 . S
C1257 H1243 0.929 . S
C1257 C1256 1.399 . S
C1257 C1258 1.385 . S
C1258 H1244 0.931 . S
C1258 C1257 1.385 . S
C1258 C1259 1.389 . S
C1259 C1258 1.389 . S
C1259 C1260 1.387 . S
C1260 H1245 0.930 . S
C1260 C1255 1.390 . S
C1260 C1259 1.387 . S
H1261 C1273 0.930 . S
H1262 C1275 0.930 . S
H1263 C1276 0.930 . S
H1264 C1280 0.959 . S
H1265 C1280 0.959 . S
H1266 C1280 0.961 . S
H1267 C1281 0.960 . S
H1268 C1281 0.961 . S
H1269 C1281 0.959 . S
H1270 C1284 0.929 . S
H1271 C1285 0.931 . S
H1272 C1287 0.930 . S
C1273 H1261 0.930 . S
C1273 C1274 1.399 . S
C1273 C1278 1.399 . S
C1274 C1273 1.399 . S
C1274 C1275 1.376 . S
C1275 H1262 0.930 . S
C1275 C1274 1.376 . S
C1275 C1276 1.388 . S
C1276 H1263 0.930 . S
C1276 C1275 1.388 . S
C1276 C1277 1.390 . S
C1277 C1276 1.390 . S
C1277 C1278 1.394 . S
C1277 C1283 1.465 . S
C1278 C1273 1.399 . S
C1278 C1277 1.394 . S
C1278 C1279 1.516 . S
C1279 C1278 1.516 . S
C1279 C1280 1.502 . S
C1279 C1281 1.561 . S
C1279 C1282 1.526 . S
C1280 H1264 0.959 . S
C1280 H1265 0.959 . S
C1280 H1266 0.961 . S
C1280 C1279 1.502 . S
C1281 H1267 0.960 . S
C1281 H1268 0.961 . S
C1281 H1269 0.959 . S
C1281 C1279 1.561 . S
C1282 C1279 1.526 . S
C1282 C1283 1.396 . S
C1282 C1287 1.390 . S
C1283 C1277 1.465 . S
C1283 C1282 1.396 . S
C1283 C1284 1.399 . S
C1284 H1270 0.929 . S
C1284 C1283 1.399 . S
C1284 C1285 1.385 . S
C1285 H1271 0.931 . S
C1285 C1284 1.385 . S
C1285 C1286 1.389 . S
C1286 C1285 1.389 . S
C1286 C1287 1.387 . S
C1287 H1272 0.930 . S
C1287 C1282 1.390 . S
C1287 C1286 1.387 . S
H1288 C1300 0.930 . S
H1289 C1302 0.930 . S
H1290 C1303 0.930 . S
H1291 C1307 0.959 . S
H1292 C1307 0.959 . S
H1293 C1307 0.961 . S
H1294 C1308 0.960 . S
H1295 C1308 0.961 . S
H1296 C1308 0.959 . S
H1297 C1311 0.929 . S
H1298 C1312 0.931 . S
H1299 C1314 0.930 . S
C1300 H1288 0.930 . S
C1300 C1301 1.399 . S
C1300 C1305 1.399 . S
C1301 C1300 1.399 . S
C1301 C1302 1.376 . S
C1302 H1289 0.930 . S
C1302 C1301 1.376 . S
C1302 C1303 1.388 . S
C1303 H1290 0.930 . S
C1303 C1302 1.388 . S
C1303 C1304 1.390 . S
C1304 C1303 1.390 . S
C1304 C1305 1.394 . S
C1304 C1310 1.465 . S
C1305 C1300 1.399 . S
C1305 C1304 1.394 . S
C1305 C1306 1.516 . S
C1306 C1305 1.516 . S
C1306 C1307 1.502 . S
C1306 C1308 1.561 . S
C1306 C1309 1.526 . S
C1307 H1291 0.959 . S
C1307 H1292 0.959 . S
C1307 H1293 0.961 . S
C1307 C1306 1.502 . S
C1308 H1294 0.960 . S
C1308 H1295 0.961 . S
C1308 H1296 0.959 . S
C1308 C1306 1.561 . S
C1309 C1306 1.526 . S
C1309 C1310 1.396 . S
C1309 C1314 1.390 . S
C1310 C1304 1.465 . S
C1310 C1309 1.396 . S
C1310 C1311 1.399 . S
C1311 H1297 0.929 . S
C1311 C1310 1.399 . S
C1311 C1312 1.385 . S
C1312 H1298 0.931 . S
C1312 C1311 1.385 . S
C1312 C1313 1.389 . S
C1313 C1312 1.389 . S
C1313 C1314 1.387 . S
C1314 H1299 0.930 . S
C1314 C1309 1.390 . S
C1314 C1313 1.387 . S
H1315 C1327 0.930 . S
H1316 C1329 0.930 . S
H1317 C1330 0.930 . S
H1318 C1334 0.959 . S
H1319 C1334 0.959 . S
H1320 C1334 0.961 . S
H1321 C1335 0.960 . S
H1322 C1335 0.961 . S
H1323 C1335 0.959 . S
H1324 C1338 0.929 . S
H1325 C1339 0.931 . S
H1326 C1341 0.930 . S
C1327 H1315 0.930 . S
C1327 C1328 1.399 . S
C1327 C1332 1.399 . S
C1328 C1327 1.399 . S
C1328 C1329 1.376 . S
C1329 H1316 0.930 . S
C1329 C1328 1.376 . S
C1329 C1330 1.388 . S
C1330 H1317 0.930 . S
C1330 C1329 1.388 . S
C1330 C1331 1.390 . S
C1331 C1330 1.390 . S
C1331 C1332 1.394 . S
C1331 C1337 1.465 . S
C1332 C1327 1.399 . S
C1332 C1331 1.394 . S
C1332 C1333 1.516 . S
C1333 C1332 1.516 . S
C1333 C1334 1.502 . S
C1333 C1335 1.561 . S
C1333 C1336 1.526 . S
C1334 H1318 0.959 . S
C1334 H1319 0.959 . S
C1334 H1320 0.961 . S
C1334 C1333 1.502 . S
C1335 H1321 0.960 . S
C1335 H1322 0.961 . S
C1335 H1323 0.959 . S
C1335 C1333 1.561 . S
C1336 C1333 1.526 . S
C1336 C1337 1.396 . S
C1336 C1341 1.390 . S
C1337 C1331 1.465 . S
C1337 C1336 1.396 . S
C1337 C1338 1.399 . S
C1338 H1324 0.929 . S
C1338 C1337 1.399 . S
C1338 C1339 1.385 . S
C1339 H1325 0.931 . S
C1339 C1338 1.385 . S
C1339 C1340 1.389 . S
C1340 C1339 1.389 . S
C1340 C1341 1.387 . S
C1341 H1326 0.930 . S
C1341 C1336 1.390 . S
C1341 C1340 1.387 . S
H1342 C1354 0.930 . S
H1343 C1356 0.930 . S
H1344 C1357 0.930 . S
H1345 C1361 0.959 . S
H1346 C1361 0.959 . S
H1347 C1361 0.961 . S
H1348 C1362 0.960 . S
H1349 C1362 0.961 . S
H1350 C1362 0.959 . S
H1351 C1365 0.929 . S
H1352 C1366 0.931 . S
H1353 C1368 0.930 . S
C1354 H1342 0.930 . S
C1354 C1355 1.399 . S
C1354 C1359 1.399 . S
C1355 C1354 1.399 . S
C1355 C1356 1.376 . S
C1356 H1343 0.930 . S
C1356 C1355 1.376 . S
C1356 C1357 1.388 . S
C1357 H1344 0.930 . S
C1357 C1356 1.388 . S
C1357 C1358 1.390 . S
C1358 C1357 1.390 . S
C1358 C1359 1.394 . S
C1358 C1364 1.465 . S
C1359 C1354 1.399 . S
C1359 C1358 1.394 . S
C1359 C1360 1.516 . S
C1360 C1359 1.516 . S
C1360 C1361 1.502 . S
C1360 C1362 1.561 . S
C1360 C1363 1.526 . S
C1361 H1345 0.959 . S
C1361 H1346 0.959 . S
C1361 H1347 0.961 . S
C1361 C1360 1.502 . S
C1362 H1348 0.960 . S
C1362 H1349 0.961 . S
C1362 H1350 0.959 . S
C1362 C1360 1.561 . S
C1363 C1360 1.526 . S
C1363 C1364 1.396 . S
C1363 C1368 1.390 . S
C1364 C1358 1.465 . S
C1364 C1363 1.396 . S
C1364 C1365 1.399 . S
C1365 H1351 0.929 . S
C1365 C1364 1.399 . S
C1365 C1366 1.385 . S
C1366 H1352 0.931 . S
C1366 C1365 1.385 . S
C1366 C1367 1.389 . S
C1367 C1366 1.389 . S
C1367 C1368 1.387 . S
C1368 H1353 0.930 . S
C1368 C1363 1.390 . S
C1368 C1367 1.387 . S
H1369 C1381 0.930 . S
H1370 C1383 0.930 . S
H1371 C1384 0.930 . S
H1372 C1388 0.959 . S
H1373 C1388 0.959 . S
H1374 C1388 0.961 . S
H1375 C1389 0.960 . S
H1376 C1389 0.961 . S
H1377 C1389 0.959 . S
H1378 C1392 0.929 . S
H1379 C1393 0.931 . S
H1380 C1395 0.930 . S
C1381 H1369 0.930 . S
C1381 C1382 1.399 . S
C1381 C1386 1.399 . S
C1382 C1381 1.399 . S
C1382 C1383 1.376 . S
C1383 H1370 0.930 . S
C1383 C1382 1.376 . S
C1383 C1384 1.388 . S
C1384 H1371 0.930 . S
C1384 C1383 1.388 . S
C1384 C1385 1.390 . S
C1385 C1384 1.390 . S
C1385 C1386 1.394 . S
C1385 C1391 1.465 . S
C1386 C1381 1.399 . S
C1386 C1385 1.394 . S
C1386 C1387 1.516 . S
C1387 C1386 1.516 . S
C1387 C1388 1.502 . S
C1387 C1389 1.561 . S
C1387 C1390 1.526 . S
C1388 H1372 0.959 . S
C1388 H1373 0.959 . S
C1388 H1374 0.961 . S
C1388 C1387 1.502 . S
C1389 H1375 0.960 . S
C1389 H1376 0.961 . S
C1389 H1377 0.959 . S
C1389 C1387 1.561 . S
C1390 C1387 1.526 . S
C1390 C1391 1.396 . S
C1390 C1395 1.390 . S
C1391 C1385 1.465 . S
C1391 C1390 1.396 . S
C1391 C1392 1.399 . S
C1392 H1378 0.929 . S
C1392 C1391 1.399 . S
C1392 C1393 1.385 . S
C1393 H1379 0.931 . S
C1393 C1392 1.385 . S
C1393 C1394 1.389 . S
C1394 C1393 1.389 . S
C1394 C1395 1.387 . S
C1395 H1380 0.930 . S
C1395 C1390 1.390 . S
C1395 C1394 1.387 . S
H1396 C1408 0.930 . S
H1397 C1410 0.930 . S
H1398 C1411 0.930 . S
H1399 C1415 0.962 . S
H1400 C1415 0.979 . S
H1401 C1415 0.940 1_655 S
H1402 C1416 0.958 1_655 S
H1403 C1416 0.963 . S
H1404 C1416 0.959 . S
H1405 C1419 0.929 . S
H1406 C1420 0.931 . S
H1407 C1422 0.930 . S
C1408 H1396 0.930 . S
C1408 C1409 1.399 . S
C1408 C1413 1.399 . S
C1409 C1408 1.399 . S
C1409 C1410 1.376 . S
C1410 H1397 0.930 . S
C1410 C1409 1.376 . S
C1410 C1411 1.388 . S
C1411 H1398 0.930 . S
C1411 C1410 1.388 . S
C1411 C1412 1.390 . S
C1412 C1411 1.390 . S
C1412 C1413 1.394 . S
C1412 C1418 1.465 1_655 S
C1413 C1408 1.399 . S
C1413 C1412 1.394 . S
C1413 C1414 1.517 1_655 S
C1414 C1413 1.517 1_455 S
C1414 C1415 1.502 . S
C1414 C1416 1.561 . S
C1414 C1417 1.525 . S
C1415 H1399 0.962 . S
C1415 H1400 0.979 . S
C1415 H1401 0.940 1_455 S
C1415 C1414 1.502 . S
C1416 H1402 0.958 1_455 S
C1416 H1403 0.963 . S
C1416 H1404 0.959 . S
C1416 C1414 1.561 . S
C1417 C1414 1.525 . S
C1417 C1418 1.396 . S
C1417 C1422 1.390 . S
C1418 C1412 1.465 1_455 S
C1418 C1417 1.396 . S
C1418 C1419 1.399 . S
C1419 H1405 0.929 . S
C1419 C1418 1.399 . S
C1419 C1420 1.385 . S
C1420 H1406 0.931 . S
C1420 C1419 1.385 . S
C1420 C1421 1.389 . S
C1421 C1420 1.389 . S
C1421 C1422 1.387 . S
C1422 H1407 0.930 . S
C1422 C1417 1.390 . S
C1422 C1421 1.387 . S
H1423 C1435 0.930 . S
H1424 C1437 0.930 . S
H1425 C1438 0.930 . S
H1426 C1442 0.959 . S
H1427 C1442 0.959 . S
H1428 C1442 0.961 . S
H1429 C1443 0.960 . S
H1430 C1443 0.961 . S
H1431 C1443 0.959 . S
H1432 C1446 0.929 . S
H1433 C1447 0.931 . S
H1434 C1449 0.930 . S
C1435 H1423 0.930 . S
C1435 C1436 1.399 . S
C1435 C1440 1.399 . S
C1436 C1435 1.399 . S
C1436 C1437 1.376 . S
C1437 H1424 0.930 . S
C1437 C1436 1.376 . S
C1437 C1438 1.388 . S
C1438 H1425 0.930 . S
C1438 C1437 1.388 . S
C1438 C1439 1.390 . S
C1439 C1438 1.390 . S
C1439 C1440 1.394 . S
C1439 C1445 1.465 . S
C1440 C1435 1.399 . S
C1440 C1439 1.394 . S
C1440 C1441 1.516 . S
C1441 C1440 1.516 . S
C1441 C1442 1.502 . S
C1441 C1443 1.561 . S
C1441 C1444 1.526 . S
C1442 H1426 0.959 . S
C1442 H1427 0.959 . S
C1442 H1428 0.961 . S
C1442 C1441 1.502 . S
C1443 H1429 0.960 . S
C1443 H1430 0.961 . S
C1443 H1431 0.959 . S
C1443 C1441 1.561 . S
C1444 C1441 1.526 . S
C1444 C1445 1.396 . S
C1444 C1449 1.390 . S
C1445 C1439 1.465 . S
C1445 C1444 1.396 . S
C1445 C1446 1.399 . S
C1446 H1432 0.929 . S
C1446 C1445 1.399 . S
C1446 C1447 1.385 . S
C1447 H1433 0.931 . S
C1447 C1446 1.385 . S
C1447 C1448 1.389 . S
C1448 C1447 1.389 . S
C1448 C1449 1.387 . S
C1449 H1434 0.930 . S
C1449 C1444 1.390 . S
C1449 C1448 1.387 . S
H1450 C1462 0.930 . S
H1451 C1464 0.930 . S
H1452 C1465 0.930 . S
H1453 C1469 0.959 . S
H1454 C1469 0.959 . S
H1455 C1469 0.961 . S
H1456 C1470 0.960 . S
H1457 C1470 0.961 . S
H1458 C1470 0.959 . S
H1459 C1473 0.929 . S
H1460 C1474 0.931 . S
H1461 C1476 0.930 . S
C1462 H1450 0.930 . S
C1462 C1463 1.399 . S
C1462 C1467 1.399 . S
C1463 C1462 1.399 . S
C1463 C1464 1.376 . S
C1464 H1451 0.930 . S
C1464 C1463 1.376 . S
C1464 C1465 1.388 . S
C1465 H1452 0.930 . S
C1465 C1464 1.388 . S
C1465 C1466 1.390 . S
C1466 C1465 1.390 . S
C1466 C1467 1.394 . S
C1466 C1472 1.465 . S
C1467 C1462 1.399 . S
C1467 C1466 1.394 . S
C1467 C1468 1.516 . S
C1468 C1467 1.516 . S
C1468 C1469 1.502 . S
C1468 C1470 1.561 . S
C1468 C1471 1.526 . S
C1469 H1453 0.959 . S
C1469 H1454 0.959 . S
C1469 H1455 0.961 . S
C1469 C1468 1.502 . S
C1470 H1456 0.960 . S
C1470 H1457 0.961 . S
C1470 H1458 0.959 . S
C1470 C1468 1.561 . S
C1471 C1468 1.526 . S
C1471 C1472 1.396 . S
C1471 C1476 1.390 . S
C1472 C1466 1.465 . S
C1472 C1471 1.396 . S
C1472 C1473 1.399 . S
C1473 H1459 0.929 . S
C1473 C1472 1.399 . S
C1473 C1474 1.385 . S
C1474 H1460 0.931 . S
C1474 C1473 1.385 . S
C1474 C1475 1.389 . S
C1475 C1474 1.389 . S
C1475 C1476 1.387 . S
C1476 H1461 0.930 . S
C1476 C1471 1.390 . S
C1476 C1475 1.387 . S
H1477 C1489 0.930 . S
H1478 C1491 0.930 . S
H1479 C1492 0.930 . S
H1480 C1496 0.962 . S
H1481 C1496 0.979 1_556 S
H1482 C1496 0.943 1_455 S
H1483 C1497 0.958 1_455 S
H1484 C1497 0.963 . S
H1485 C1497 0.959 . S
H1486 C1500 0.929 . S
H1487 C1501 0.931 . S
H1488 C1503 0.930 . S
C1489 H1477 0.930 . S
C1489 C1490 1.399 . S
C1489 C1494 1.399 . S
C1490 C1489 1.399 . S
C1490 C1491 1.376 . S
C1491 H1478 0.930 . S
C1491 C1490 1.376 . S
C1491 C1492 1.388 . S
C1492 H1479 0.930 . S
C1492 C1491 1.388 . S
C1492 C1493 1.390 . S
C1493 C1492 1.390 . S
C1493 C1494 1.394 . S
C1493 C1499 1.465 1_455 S
C1494 C1489 1.399 . S
C1494 C1493 1.394 . S
C1494 C1495 1.517 1_455 S
C1495 C1494 1.517 1_655 S
C1495 C1496 1.502 . S
C1495 C1497 1.561 1_554 S
C1495 C1498 1.525 . S
C1496 H1480 0.962 . S
C1496 H1481 0.979 1_554 S
C1496 H1482 0.943 1_655 S
C1496 C1495 1.502 . S
C1497 H1483 0.958 1_655 S
C1497 H1484 0.963 . S
C1497 H1485 0.959 . S
C1497 C1495 1.561 1_556 S
C1498 C1495 1.525 . S
C1498 C1499 1.396 . S
C1498 C1503 1.390 . S
C1499 C1493 1.465 1_655 S
C1499 C1498 1.396 . S
C1499 C1500 1.399 . S
C1500 H1486 0.929 . S
C1500 C1499 1.399 . S
C1500 C1501 1.385 . S
C1501 H1487 0.931 . S
C1501 C1500 1.385 . S
C1501 C1502 1.389 . S
C1502 C1501 1.389 . S
C1502 C1503 1.387 . S
C1503 H1488 0.930 . S
C1503 C1498 1.390 . S
C1503 C1502 1.387 . S
H1504 C1516 0.930 . S
H1505 C1518 0.930 . S
H1506 C1519 0.930 . S
H1507 C1523 0.959 . S
H1508 C1523 0.959 . S
H1509 C1523 0.961 . S
H1510 C1524 0.960 . S
H1511 C1524 0.961 . S
H1512 C1524 0.959 . S
H1513 C1527 0.929 . S
H1514 C1528 0.931 . S
H1515 C1530 0.930 . S
C1516 H1504 0.930 . S
C1516 C1517 1.399 . S
C1516 C1521 1.399 . S
C1517 C1516 1.399 . S
C1517 C1518 1.376 . S
C1518 H1505 0.930 . S
C1518 C1517 1.376 . S
C1518 C1519 1.388 1_554 S
C1519 H1506 0.930 . S
C1519 C1518 1.388 1_556 S
C1519 C1520 1.390 1_556 S
C1520 C1519 1.390 1_554 S
C1520 C1521 1.393 . S
C1520 C1526 1.465 1_554 S
C1521 C1516 1.399 . S
C1521 C1520 1.393 . S
C1521 C1522 1.516 . S
C1522 C1521 1.516 . S
C1522 C1523 1.502 . S
C1522 C1524 1.561 . S
C1522 C1525 1.526 1_554 S
C1523 H1507 0.959 . S
C1523 H1508 0.959 . S
C1523 H1509 0.961 . S
C1523 C1522 1.502 . S
C1524 H1510 0.960 . S
C1524 H1511 0.961 . S
C1524 H1512 0.959 . S
C1524 C1522 1.561 . S
C1525 C1522 1.526 1_556 S
C1525 C1526 1.396 . S
C1525 C1530 1.390 . S
C1526 C1520 1.465 1_556 S
C1526 C1525 1.396 . S
C1526 C1527 1.399 . S
C1527 H1513 0.929 . S
C1527 C1526 1.399 . S
C1527 C1528 1.385 . S
C1528 H1514 0.931 . S
C1528 C1527 1.385 . S
C1528 C1529 1.389 . S
C1529 C1528 1.389 . S
C1529 C1530 1.387 . S
C1530 H1515 0.930 . S
C1530 C1525 1.390 . S
C1530 C1529 1.387 . S
H1531 C1543 0.930 . S
H1532 C1545 0.930 . S
H1533 C1546 0.930 . S
H1534 C1550 0.959 . S
H1535 C1550 0.959 . S
H1536 C1550 0.961 . S
H1537 C1551 0.960 . S
H1538 C1551 0.961 . S
H1539 C1551 0.959 . S
H1540 C1554 0.929 . S
H1541 C1555 0.931 . S
H1542 C1557 0.930 . S
C1543 H1531 0.930 . S
C1543 C1544 1.399 . S
C1543 C1548 1.399 . S
C1544 C1543 1.399 . S
C1544 C1545 1.376 . S
C1545 H1532 0.930 . S
C1545 C1544 1.376 . S
C1545 C1546 1.388 . S
C1546 H1533 0.930 . S
C1546 C1545 1.388 . S
C1546 C1547 1.390 . S
C1547 C1546 1.390 . S
C1547 C1548 1.394 . S
C1547 C1553 1.465 . S
C1548 C1543 1.399 . S
C1548 C1547 1.394 . S
C1548 C1549 1.516 . S
C1549 C1548 1.516 . S
C1549 C1550 1.502 . S
C1549 C1551 1.561 . S
C1549 C1552 1.526 . S
C1550 H1534 0.959 . S
C1550 H1535 0.959 . S
C1550 H1536 0.961 . S
C1550 C1549 1.502 . S
C1551 H1537 0.960 . S
C1551 H1538 0.961 . S
C1551 H1539 0.959 . S
C1551 C1549 1.561 . S
C1552 C1549 1.526 . S
C1552 C1553 1.396 . S
C1552 C1557 1.390 . S
C1553 C1547 1.465 . S
C1553 C1552 1.396 . S
C1553 C1554 1.399 . S
C1554 H1540 0.929 . S
C1554 C1553 1.399 . S
C1554 C1555 1.385 . S
C1555 H1541 0.931 . S
C1555 C1554 1.385 . S
C1555 C1556 1.389 . S
C1556 C1555 1.389 . S
C1556 C1557 1.387 . S
C1557 H1542 0.930 . S
C1557 C1552 1.390 . S
C1557 C1556 1.387 . S
H1558 C1570 0.930 . S
H1559 C1572 0.930 . S
H1560 C1573 0.930 . S
H1561 C1577 0.959 . S
H1562 C1577 0.959 . S
H1563 C1577 0.961 . S
H1564 C1578 0.960 . S
H1565 C1578 0.961 . S
H1566 C1578 0.959 . S
H1567 C1581 0.929 . S
H1568 C1582 0.931 . S
H1569 C1584 0.930 . S
C1570 H1558 0.930 . S
C1570 C1571 1.399 . S
C1570 C1575 1.399 . S
C1571 C1570 1.399 . S
C1571 C1572 1.376 . S
C1572 H1559 0.930 . S
C1572 C1571 1.376 . S
C1572 C1573 1.388 . S
C1573 H1560 0.930 . S
C1573 C1572 1.388 . S
C1573 C1574 1.390 . S
C1574 C1573 1.390 . S
C1574 C1575 1.394 . S
C1574 C1580 1.465 . S
C1575 C1570 1.399 . S
C1575 C1574 1.394 . S
C1575 C1576 1.516 . S
C1576 C1575 1.516 . S
C1576 C1577 1.502 . S
C1576 C1578 1.561 . S
C1576 C1579 1.526 . S
C1577 H1561 0.959 . S
C1577 H1562 0.959 . S
C1577 H1563 0.961 . S
C1577 C1576 1.502 . S
C1578 H1564 0.960 . S
C1578 H1565 0.961 . S
C1578 H1566 0.959 . S
C1578 C1576 1.561 . S
C1579 C1576 1.526 . S
C1579 C1580 1.396 . S
C1579 C1584 1.390 . S
C1580 C1574 1.465 . S
C1580 C1579 1.396 . S
C1580 C1581 1.399 . S
C1581 H1567 0.929 . S
C1581 C1580 1.399 . S
C1581 C1582 1.385 . S
C1582 H1568 0.931 . S
C1582 C1581 1.385 . S
C1582 C1583 1.389 . S
C1583 C1582 1.389 . S
C1583 C1584 1.387 . S
C1584 H1569 0.930 . S
C1584 C1579 1.390 . S
C1584 C1583 1.387 . S
H1585 C1597 0.930 . S
H1586 C1599 0.930 . S
H1587 C1600 0.930 . S
H1588 C1604 0.959 . S
H1589 C1604 0.959 . S
H1590 C1604 0.961 . S
H1591 C1605 0.960 . S
H1592 C1605 0.961 . S
H1593 C1605 0.959 . S
H1594 C1608 0.929 . S
H1595 C1609 0.931 . S
H1596 C1611 0.930 . S
C1597 H1585 0.930 . S
C1597 C1598 1.399 . S
C1597 C1602 1.399 . S
C1598 C1597 1.399 . S
C1598 C1599 1.376 . S
C1599 H1586 0.930 . S
C1599 C1598 1.376 . S
C1599 C1600 1.388 . S
C1600 H1587 0.930 . S
C1600 C1599 1.388 . S
C1600 C1601 1.390 . S
C1601 C1600 1.390 . S
C1601 C1602 1.394 . S
C1601 C1607 1.465 . S
C1602 C1597 1.399 . S
C1602 C1601 1.394 . S
C1602 C1603 1.516 . S
C1603 C1602 1.516 . S
C1603 C1604 1.502 . S
C1603 C1605 1.561 . S
C1603 C1606 1.526 . S
C1604 H1588 0.959 . S
C1604 H1589 0.959 . S
C1604 H1590 0.961 . S
C1604 C1603 1.502 . S
C1605 H1591 0.960 . S
C1605 H1592 0.961 . S
C1605 H1593 0.959 . S
C1605 C1603 1.561 . S
C1606 C1603 1.526 . S
C1606 C1607 1.396 . S
C1606 C1611 1.390 . S
C1607 C1601 1.465 . S
C1607 C1606 1.396 . S
C1607 C1608 1.399 . S
C1608 H1594 0.929 . S
C1608 C1607 1.399 . S
C1608 C1609 1.385 . S
C1609 H1595 0.931 . S
C1609 C1608 1.385 . S
C1609 C1610 1.389 . S
C1610 C1609 1.389 . S
C1610 C1611 1.387 . S
C1611 H1596 0.930 . S
C1611 C1606 1.390 . S
C1611 C1610 1.387 . S
H1612 C1624 0.930 . S
H1613 C1626 0.930 . S
H1614 C1627 0.930 . S
H1615 C1631 0.959 . S
H1616 C1631 0.959 . S
H1617 C1631 0.961 . S
H1618 C1632 0.960 . S
H1619 C1632 0.961 . S
H1620 C1632 0.959 . S
H1621 C1635 0.929 . S
H1622 C1636 0.931 . S
H1623 C1638 0.930 . S
C1624 H1612 0.930 . S
C1624 C1625 1.399 . S
C1624 C1629 1.399 . S
C1625 C1624 1.399 . S
C1625 C1626 1.376 . S
C1626 H1613 0.930 . S
C1626 C1625 1.376 . S
C1626 C1627 1.388 1_554 S
C1627 H1614 0.930 . S
C1627 C1626 1.388 1_556 S
C1627 C1628 1.390 . S
C1628 C1627 1.390 . S
C1628 C1629 1.394 1_556 S
C1628 C1634 1.465 . S
C1629 C1624 1.399 . S
C1629 C1628 1.394 1_554 S
C1629 C1630 1.516 . S
C1630 C1629 1.516 . S
C1630 C1631 1.502 . S
C1630 C1632 1.561 . S
C1630 C1633 1.526 1_554 S
C1631 H1615 0.959 . S
C1631 H1616 0.959 . S
C1631 H1617 0.961 . S
C1631 C1630 1.502 . S
C1632 H1618 0.960 . S
C1632 H1619 0.961 . S
C1632 H1620 0.959 . S
C1632 C1630 1.561 . S
C1633 C1630 1.526 1_556 S
C1633 C1634 1.396 . S
C1633 C1638 1.390 . S
C1634 C1628 1.465 . S
C1634 C1633 1.396 . S
C1634 C1635 1.399 . S
C1635 H1621 0.929 . S
C1635 C1634 1.399 . S
C1635 C1636 1.385 . S
C1636 H1622 0.931 . S
C1636 C1635 1.385 . S
C1636 C1637 1.389 . S
C1637 C1636 1.389 . S
C1637 C1638 1.387 . S
C1638 H1623 0.930 . S
C1638 C1633 1.390 . S
C1638 C1637 1.387 . S
H1639 C1651 0.930 . S
H1640 C1653 0.930 . S
H1641 C1654 0.930 . S
H1642 C1658 0.959 . S
H1643 C1658 0.959 . S
H1644 C1658 0.961 . S
H1645 C1659 0.960 . S
H1646 C1659 0.961 . S
H1647 C1659 0.959 . S
H1648 C1662 0.929 . S
H1649 C1663 0.931 . S
H1650 C1665 0.930 . S
C1651 H1639 0.930 . S
C1651 C1652 1.399 . S
C1651 C1656 1.399 . S
C1652 C1651 1.399 . S
C1652 C1653 1.376 . S
C1653 H1640 0.930 . S
C1653 C1652 1.376 . S
C1653 C1654 1.388 . S
C1654 H1641 0.930 . S
C1654 C1653 1.388 . S
C1654 C1655 1.390 . S
C1655 C1654 1.390 . S
C1655 C1656 1.394 . S
C1655 C1661 1.465 . S
C1656 C1651 1.399 . S
C1656 C1655 1.394 . S
C1656 C1657 1.516 . S
C1657 C1656 1.516 . S
C1657 C1658 1.502 . S
C1657 C1659 1.561 . S
C1657 C1660 1.526 . S
C1658 H1642 0.959 . S
C1658 H1643 0.959 . S
C1658 H1644 0.961 . S
C1658 C1657 1.502 . S
C1659 H1645 0.960 . S
C1659 H1646 0.961 . S
C1659 H1647 0.959 . S
C1659 C1657 1.561 . S
C1660 C1657 1.526 . S
C1660 C1661 1.396 . S
C1660 C1665 1.390 . S
C1661 C1655 1.465 . S
C1661 C1660 1.396 . S
C1661 C1662 1.399 . S
C1662 H1648 0.929 . S
C1662 C1661 1.399 . S
C1662 C1663 1.385 . S
C1663 H1649 0.931 . S
C1663 C1662 1.385 . S
C1663 C1664 1.389 . S
C1664 C1663 1.389 . S
C1664 C1665 1.387 . S
C1665 H1650 0.930 . S
C1665 C1660 1.390 . S
C1665 C1664 1.387 . S
H1666 C1678 0.930 . S
H1667 C1680 0.930 . S
H1668 C1681 0.930 . S
H1669 C1685 0.959 . S
H1670 C1685 0.959 . S
H1671 C1685 0.961 . S
H1672 C1686 0.960 . S
H1673 C1686 0.961 . S
H1674 C1686 0.959 . S
H1675 C1689 0.929 . S
H1676 C1690 0.931 . S
H1677 C1692 0.930 . S
C1678 H1666 0.930 . S
C1678 C1679 1.399 . S
C1678 C1683 1.399 . S
C1679 C1678 1.399 . S
C1679 C1680 1.376 . S
C1680 H1667 0.930 . S
C1680 C1679 1.376 . S
C1680 C1681 1.388 . S
C1681 H1668 0.930 . S
C1681 C1680 1.388 . S
C1681 C1682 1.390 . S
C1682 C1681 1.390 . S
C1682 C1683 1.394 . S
C1682 C1688 1.465 . S
C1683 C1678 1.399 . S
C1683 C1682 1.394 . S
C1683 C1684 1.516 . S
C1684 C1683 1.516 . S
C1684 C1685 1.502 . S
C1684 C1686 1.561 . S
C1684 C1687 1.526 . S
C1685 H1669 0.959 . S
C1685 H1670 0.959 . S
C1685 H1671 0.961 . S
C1685 C1684 1.502 . S
C1686 H1672 0.960 . S
C1686 H1673 0.961 . S
C1686 H1674 0.959 . S
C1686 C1684 1.561 . S
C1687 C1684 1.526 . S
C1687 C1688 1.396 . S
C1687 C1692 1.390 . S
C1688 C1682 1.465 . S
C1688 C1687 1.396 . S
C1688 C1689 1.399 . S
C1689 H1675 0.929 . S
C1689 C1688 1.399 . S
C1689 C1690 1.385 . S
C1690 H1676 0.931 . S
C1690 C1689 1.385 . S
C1690 C1691 1.389 . S
C1691 C1690 1.389 . S
C1691 C1692 1.387 . S
C1692 H1677 0.930 . S
C1692 C1687 1.390 . S
C1692 C1691 1.387 . S
H1693 C1705 0.930 . S
H1694 C1707 0.930 . S
H1695 C1708 0.930 . S
H1696 C1712 0.959 . S
H1697 C1712 0.959 . S
H1698 C1712 0.961 . S
H1699 C1713 0.960 . S
H1700 C1713 0.961 . S
H1701 C1713 0.959 . S
H1702 C1716 0.929 . S
H1703 C1717 0.931 . S
H1704 C1719 0.930 . S
C1705 H1693 0.930 . S
C1705 C1706 1.399 . S
C1705 C1710 1.399 . S
C1706 C1705 1.399 . S
C1706 C1707 1.376 . S
C1707 H1694 0.930 . S
C1707 C1706 1.376 . S
C1707 C1708 1.388 . S
C1708 H1695 0.930 . S
C1708 C1707 1.388 . S
C1708 C1709 1.390 . S
C1709 C1708 1.390 . S
C1709 C1710 1.394 . S
C1709 C1715 1.465 . S
C1710 C1705 1.399 . S
C1710 C1709 1.394 . S
C1710 C1711 1.516 . S
C1711 C1710 1.516 . S
C1711 C1712 1.502 . S
C1711 C1713 1.561 . S
C1711 C1714 1.526 . S
C1712 H1696 0.959 . S
C1712 H1697 0.959 . S
C1712 H1698 0.961 . S
C1712 C1711 1.502 . S
C1713 H1699 0.960 . S
C1713 H1700 0.961 . S
C1713 H1701 0.959 . S
C1713 C1711 1.561 . S
C1714 C1711 1.526 . S
C1714 C1715 1.396 . S
C1714 C1719 1.390 . S
C1715 C1709 1.465 . S
C1715 C1714 1.396 . S
C1715 C1716 1.399 . S
C1716 H1702 0.929 . S
C1716 C1715 1.399 . S
C1716 C1717 1.385 . S
C1717 H1703 0.931 . S
C1717 C1716 1.385 . S
C1717 C1718 1.389 . S
C1718 C1717 1.389 . S
C1718 C1719 1.387 . S
C1719 H1704 0.930 . S
C1719 C1714 1.390 . S
C1719 C1718 1.387 . S
H1720 C1732 0.930 . S
H1721 C1734 0.930 . S
H1722 C1735 0.930 . S
H1723 C1739 0.959 . S
H1724 C1739 0.959 . S
H1725 C1739 0.991 . S
H1726 C1740 0.960 . S
H1727 C1740 0.961 1_545 S
H1728 C1740 0.959 . S
H1729 C1743 0.929 . S
H1730 C1744 0.931 . S
H1731 C1746 0.930 . S
C1732 H1720 0.930 . S
C1732 C1733 1.399 . S
C1732 C1737 1.399 . S
C1733 C1732 1.399 . S
C1733 C1734 1.376 . S
C1734 H1721 0.930 . S
C1734 C1733 1.376 . S
C1734 C1735 1.388 . S
C1735 H1722 0.930 . S
C1735 C1734 1.388 . S
C1735 C1736 1.390 . S
C1736 C1735 1.390 . S
C1736 C1737 1.394 . S
C1736 C1742 1.465 1_565 S
C1737 C1732 1.399 . S
C1737 C1736 1.394 . S
C1737 C1738 1.516 1_565 S
C1738 C1737 1.516 1_545 S
C1738 C1739 1.502 . S
C1738 C1740 1.561 1_545 S
C1738 C1741 1.526 . S
C1739 H1723 0.959 . S
C1739 H1724 0.959 . S
C1739 H1725 0.991 . S
C1739 C1738 1.502 . S
C1740 H1726 0.960 . S
C1740 H1727 0.961 1_565 S
C1740 H1728 0.959 . S
C1740 C1738 1.561 1_565 S
C1741 C1738 1.526 . S
C1741 C1742 1.396 . S
C1741 C1746 1.390 . S
C1742 C1736 1.465 1_545 S
C1742 C1741 1.396 . S
C1742 C1743 1.399 . S
C1743 H1729 0.929 . S
C1743 C1742 1.399 . S
C1743 C1744 1.385 . S
C1744 H1730 0.931 . S
C1744 C1743 1.385 . S
C1744 C1745 1.389 . S
C1745 C1744 1.389 . S
C1745 C1746 1.387 . S
C1746 H1731 0.930 . S
C1746 C1741 1.390 . S
C1746 C1745 1.387 . S
H1747 C1759 0.930 . S
H1748 C1761 0.930 . S
H1749 C1762 0.930 . S
H1750 C1766 0.959 . S
H1751 C1766 0.959 . S
H1752 C1766 0.961 . S
H1753 C1767 0.960 . S
H1754 C1767 0.961 . S
H1755 C1767 0.959 . S
H1756 C1770 0.929 . S
H1757 C1771 0.931 . S
H1758 C1773 0.930 . S
C1759 H1747 0.930 . S
C1759 C1760 1.399 . S
C1759 C1764 1.399 . S
C1760 C1759 1.399 . S
C1760 C1761 1.376 . S
C1761 H1748 0.930 . S
C1761 C1760 1.376 . S
C1761 C1762 1.388 . S
C1762 H1749 0.930 . S
C1762 C1761 1.388 . S
C1762 C1763 1.390 . S
C1763 C1762 1.390 . S
C1763 C1764 1.394 . S
C1763 C1769 1.465 . S
C1764 C1759 1.399 . S
C1764 C1763 1.394 . S
C1764 C1765 1.516 . S
C1765 C1764 1.516 . S
C1765 C1766 1.502 . S
C1765 C1767 1.561 . S
C1765 C1768 1.526 . S
C1766 H1750 0.959 . S
C1766 H1751 0.959 . S
C1766 H1752 0.961 . S
C1766 C1765 1.502 . S
C1767 H1753 0.960 . S
C1767 H1754 0.961 . S
C1767 H1755 0.959 . S
C1767 C1765 1.561 . S
C1768 C1765 1.526 . S
C1768 C1769 1.396 . S
C1768 C1773 1.390 . S
C1769 C1763 1.465 . S
C1769 C1768 1.396 . S
C1769 C1770 1.399 . S
C1770 H1756 0.929 . S
C1770 C1769 1.399 . S
C1770 C1771 1.385 . S
C1771 H1757 0.931 . S
C1771 C1770 1.385 . S
C1771 C1772 1.389 . S
C1772 C1771 1.389 . S
C1772 C1773 1.387 . S
C1773 H1758 0.930 . S
C1773 C1768 1.390 . S
C1773 C1772 1.387 . S
H1774 C1786 0.930 . S
H1775 C1788 0.930 . S
H1776 C1789 0.930 . S
H1777 C1793 0.959 . S
H1778 C1793 0.959 . S
H1779 C1793 0.961 . S
H1780 C1794 0.960 . S
H1781 C1794 0.961 . S
H1782 C1794 0.959 . S
H1783 C1797 0.929 1_565 S
H1784 C1798 0.931 . S
H1785 C1800 0.930 . S
C1786 H1774 0.930 . S
C1786 C1787 1.399 . S
C1786 C1791 1.399 . S
C1787 C1786 1.399 . S
C1787 C1788 1.376 . S
C1788 H1775 0.930 . S
C1788 C1787 1.376 . S
C1788 C1789 1.388 1_554 S
C1789 H1776 0.930 . S
C1789 C1788 1.388 1_556 S
C1789 C1790 1.390 . S
C1790 C1789 1.390 . S
C1790 C1791 1.388 1_556 S
C1790 C1796 1.470 1_565 S
C1791 C1786 1.399 . S
C1791 C1790 1.388 1_554 S
C1791 C1792 1.516 1_565 S
C1792 C1791 1.516 1_545 S
C1792 C1793 1.502 . S
C1792 C1794 1.561 . S
C1792 C1795 1.526 1_554 S
C1793 H1777 0.959 . S
C1793 H1778 0.959 . S
C1793 H1779 0.961 . S
C1793 C1792 1.502 . S
C1794 H1780 0.960 . S
C1794 H1781 0.961 . S
C1794 H1782 0.959 . S
C1794 C1792 1.561 . S
C1795 C1792 1.526 1_556 S
C1795 C1796 1.396 . S
C1795 C1800 1.390 . S
C1796 C1790 1.470 1_545 S
C1796 C1795 1.396 . S
C1796 C1797 1.399 . S
C1797 H1783 0.929 1_545 S
C1797 C1796 1.399 . S
C1797 C1798 1.385 . S
C1798 H1784 0.931 . S
C1798 C1797 1.385 . S
C1798 C1799 1.389 . S
C1799 C1798 1.389 . S
C1799 C1800 1.387 . S
C1800 H1785 0.930 . S
C1800 C1795 1.390 . S
C1800 C1799 1.387 . S
H1801 C1813 0.930 . S
H1802 C1815 0.930 . S
H1803 C1816 0.930 . S
H1804 C1820 0.959 . S
H1805 C1820 0.959 . S
H1806 C1820 0.961 . S
H1807 C1821 0.960 . S
H1808 C1821 0.961 . S
H1809 C1821 0.959 . S
H1810 C1824 0.929 . S
H1811 C1825 0.931 . S
H1812 C1827 0.930 . S
C1813 H1801 0.930 . S
C1813 C1814 1.399 . S
C1813 C1818 1.399 . S
C1814 C1813 1.399 . S
C1814 C1815 1.376 . S
C1815 H1802 0.930 . S
C1815 C1814 1.376 . S
C1815 C1816 1.388 . S
C1816 H1803 0.930 . S
C1816 C1815 1.388 . S
C1816 C1817 1.390 . S
C1817 C1816 1.390 . S
C1817 C1818 1.394 . S
C1817 C1823 1.465 . S
C1818 C1813 1.399 . S
C1818 C1817 1.394 . S
C1818 C1819 1.516 . S
C1819 C1818 1.516 . S
C1819 C1820 1.502 . S
C1819 C1821 1.561 . S
C1819 C1822 1.526 . S
C1820 H1804 0.959 . S
C1820 H1805 0.959 . S
C1820 H1806 0.961 . S
C1820 C1819 1.502 . S
C1821 H1807 0.960 . S
C1821 H1808 0.961 . S
C1821 H1809 0.959 . S
C1821 C1819 1.561 . S
C1822 C1819 1.526 . S
C1822 C1823 1.396 . S
C1822 C1827 1.390 . S
C1823 C1817 1.465 . S
C1823 C1822 1.396 . S
C1823 C1824 1.399 . S
C1824 H1810 0.929 . S
C1824 C1823 1.399 . S
C1824 C1825 1.385 . S
C1825 H1811 0.931 . S
C1825 C1824 1.385 . S
C1825 C1826 1.389 . S
C1826 C1825 1.389 . S
C1826 C1827 1.387 . S
C1827 H1812 0.930 . S
C1827 C1822 1.390 . S
C1827 C1826 1.387 . S
H1828 C1840 0.930 . S
H1829 C1842 0.930 . S
H1830 C1843 0.930 . S
H1831 C1847 0.959 . S
H1832 C1847 0.959 . S
H1833 C1847 0.961 . S
H1834 C1848 0.960 . S
H1835 C1848 0.961 . S
H1836 C1848 0.959 . S
H1837 C1851 0.929 . S
H1838 C1852 0.931 . S
H1839 C1854 0.930 . S
C1840 H1828 0.930 . S
C1840 C1841 1.399 . S
C1840 C1845 1.399 . S
C1841 C1840 1.399 . S
C1841 C1842 1.376 . S
C1842 H1829 0.930 . S
C1842 C1841 1.376 . S
C1842 C1843 1.388 . S
C1843 H1830 0.930 . S
C1843 C1842 1.388 . S
C1843 C1844 1.390 . S
C1844 C1843 1.390 . S
C1844 C1845 1.394 . S
C1844 C1850 1.465 1_565 S
C1845 C1840 1.399 . S
C1845 C1844 1.394 . S
C1845 C1846 1.516 . S
C1846 C1845 1.516 . S
C1846 C1847 1.502 . S
C1846 C1848 1.561 . S
C1846 C1849 1.526 1_565 S
C1847 H1831 0.959 . S
C1847 H1832 0.959 . S
C1847 H1833 0.961 . S
C1847 C1846 1.502 . S
C1848 H1834 0.960 . S
C1848 H1835 0.961 . S
C1848 H1836 0.959 . S
C1848 C1846 1.561 . S
C1849 C1846 1.526 1_545 S
C1849 C1850 1.396 . S
C1849 C1854 1.390 . S
C1850 C1844 1.465 1_545 S
C1850 C1849 1.396 . S
C1850 C1851 1.399 . S
C1851 H1837 0.929 . S
C1851 C1850 1.399 . S
C1851 C1852 1.385 . S
C1852 H1838 0.931 . S
C1852 C1851 1.385 . S
C1852 C1853 1.389 . S
C1853 C1852 1.389 . S
C1853 C1854 1.387 . S
C1854 H1839 0.930 . S
C1854 C1849 1.390 . S
C1854 C1853 1.387 . S
H1855 C1867 0.930 . S
H1856 C1869 0.930 . S
H1857 C1870 0.930 . S
H1858 C1874 0.959 . S
H1859 C1874 0.959 . S
H1860 C1874 0.961 . S
H1861 C1875 0.960 . S
H1862 C1875 0.961 . S
H1863 C1875 0.959 . S
H1864 C1878 0.929 . S
H1865 C1879 0.931 . S
H1866 C1881 0.930 . S
C1867 H1855 0.930 . S
C1867 C1868 1.399 . S
C1867 C1872 1.399 . S
C1868 C1867 1.399 . S
C1868 C1869 1.376 . S
C1869 H1856 0.930 . S
C1869 C1868 1.376 . S
C1869 C1870 1.388 . S
C1870 H1857 0.930 . S
C1870 C1869 1.388 . S
C1870 C1871 1.390 . S
C1871 C1870 1.390 . S
C1871 C1872 1.394 . S
C1871 C1877 1.465 . S
C1872 C1867 1.399 . S
C1872 C1871 1.394 . S
C1872 C1873 1.516 . S
C1873 C1872 1.516 . S
C1873 C1874 1.502 . S
C1873 C1875 1.561 . S
C1873 C1876 1.526 . S
C1874 H1858 0.959 . S
C1874 H1859 0.959 . S
C1874 H1860 0.961 . S
C1874 C1873 1.502 . S
C1875 H1861 0.960 . S
C1875 H1862 0.961 . S
C1875 H1863 0.959 . S
C1875 C1873 1.561 . S
C1876 C1873 1.526 . S
C1876 C1877 1.396 . S
C1876 C1881 1.390 . S
C1877 C1871 1.465 . S
C1877 C1876 1.396 . S
C1877 C1878 1.399 . S
C1878 H1864 0.929 . S
C1878 C1877 1.399 . S
C1878 C1879 1.385 . S
C1879 H1865 0.931 . S
C1879 C1878 1.385 . S
C1879 C1880 1.389 . S
C1880 C1879 1.389 . S
C1880 C1881 1.387 . S
C1881 H1866 0.930 . S
C1881 C1876 1.390 . S
C1881 C1880 1.387 . S
H1882 C1894 0.930 . S
H1883 C1896 0.930 . S
H1884 C1897 0.930 . S
H1885 C1901 0.959 . S
H1886 C1901 0.959 1_565 S
H1887 C1901 0.961 1_556 S
H1888 C1902 0.960 . S
H1889 C1902 0.961 . S
H1890 C1902 0.959 . S
H1891 C1905 0.929 . S
H1892 C1906 0.931 . S
H1893 C1908 0.930 . S
C1894 H1882 0.930 . S
C1894 C1895 1.399 . S
C1894 C1899 1.399 . S
C1895 C1894 1.399 . S
C1895 C1896 1.376 . S
C1896 H1883 0.930 . S
C1896 C1895 1.376 . S
C1896 C1897 1.388 . S
C1897 H1884 0.930 . S
C1897 C1896 1.388 . S
C1897 C1898 1.390 . S
C1898 C1897 1.390 . S
C1898 C1899 1.394 . S
C1898 C1904 1.465 1_546 S
C1899 C1894 1.399 . S
C1899 C1898 1.394 . S
C1899 C1900 1.516 1_545 S
C1900 C1899 1.516 1_565 S
C1900 C1901 1.502 1_566 S
C1900 C1902 1.561 . S
C1900 C1903 1.526 1_556 S
C1901 H1885 0.959 . S
C1901 H1886 0.959 1_545 S
C1901 H1887 0.961 1_554 S
C1901 C1900 1.502 1_544 S
C1902 H1888 0.960 . S
C1902 H1889 0.961 . S
C1902 H1890 0.959 . S
C1902 C1900 1.561 . S
C1903 C1900 1.526 1_554 S
C1903 C1904 1.396 . S
C1903 C1908 1.390 . S
C1904 C1898 1.465 1_564 S
C1904 C1903 1.396 . S
C1904 C1905 1.399 . S
C1905 H1891 0.929 . S
C1905 C1904 1.399 . S
C1905 C1906 1.385 . S
C1906 H1892 0.931 . S
C1906 C1905 1.385 . S
C1906 C1907 1.389 . S
C1907 C1906 1.389 . S
C1907 C1908 1.387 . S
C1908 H1893 0.930 . S
C1908 C1903 1.390 . S
C1908 C1907 1.387 . S
H1909 C1921 0.930 . S
H1910 C1923 0.930 . S
H1911 C1924 0.930 . S
H1912 C1928 0.959 . S
H1913 C1928 0.959 . S
H1914 C1928 0.961 . S
H1915 C1929 0.960 . S
H1916 C1929 0.961 . S
H1917 C1929 0.959 . S
H1918 C1932 0.929 . S
H1919 C1933 0.931 . S
H1920 C1935 0.930 . S
C1921 H1909 0.930 . S
C1921 C1922 1.399 . S
C1921 C1926 1.399 . S
C1922 C1921 1.399 . S
C1922 C1923 1.376 . S
C1923 H1910 0.930 . S
C1923 C1922 1.376 . S
C1923 C1924 1.388 . S
C1924 H1911 0.930 . S
C1924 C1923 1.388 . S
C1924 C1925 1.390 . S
C1925 C1924 1.390 . S
C1925 C1926 1.394 . S
C1925 C1931 1.465 . S
C1926 C1921 1.399 . S
C1926 C1925 1.394 . S
C1926 C1927 1.516 . S
C1927 C1926 1.516 . S
C1927 C1928 1.502 . S
C1927 C1929 1.561 . S
C1927 C1930 1.526 . S
C1928 H1912 0.959 . S
C1928 H1913 0.959 . S
C1928 H1914 0.961 . S
C1928 C1927 1.502 . S
C1929 H1915 0.960 . S
C1929 H1916 0.961 . S
C1929 H1917 0.959 . S
C1929 C1927 1.561 . S
C1930 C1927 1.526 . S
C1930 C1931 1.396 . S
C1930 C1935 1.390 . S
C1931 C1925 1.465 . S
C1931 C1930 1.396 . S
C1931 C1932 1.399 . S
C1932 H1918 0.929 . S
C1932 C1931 1.399 . S
C1932 C1933 1.385 . S
C1933 H1919 0.931 . S
C1933 C1932 1.385 . S
C1933 C1934 1.389 . S
C1934 C1933 1.389 . S
C1934 C1935 1.387 . S
C1935 H1920 0.930 . S
C1935 C1930 1.390 . S
C1935 C1934 1.387 . S
C653 C6 1.833 . S
C665 C15 1.873 . S
C680 C55 1.877 1_556 S
C692 C46 1.851 . S
C707 C95 1.484 . S
C719 C86 1.538 1_554 S
C734 C126 1.524 . S
C746 C135 1.489 . S
C761 C166 1.877 . S
C773 C175 1.851 . S
C788 C215 1.485 . S
C800 C206 1.536 . S
C815 C255 1.490 . S
C827 C246 1.528 1_556 S
C842 C295 1.824 1_554 S
C854 C286 1.884 . S
C869 C335 1.822 . S
C881 C326 1.887 . S
C896 C375 1.892 . S
C908 C366 1.832 1_554 S
C923 C415 1.531 1_556 S
C935 C406 1.483 . S
C950 C455 1.482 . S
C962 C446 1.536 . S
C977 C495 1.879 . S
C989 C486 1.848 . S
C1004 C535 1.534 . S
C1016 C526 1.483 . S
C1031 C566 1.499 . S
C1043 C575 1.543 . S
C1058 C606 1.829 1_556 S
C1070 C615 1.878 . S
C1085 C9 1.588 . S
C1097 C459 1.681 . S
C1112 C50 1.708 . S
C1124 C619 1.699 . S
C1139 C90 1.690 . S
C1151 C378 1.589 . S
C1166 C129 1.745 . S
C1178 C538 1.734 . S
C1193 C169 1.596 . S
C1205 C539 1.688 . S
C1220 C458 1.729 . S
C1232 C209 1.741 . S
C1247 C250 1.685 . S
C1259 C618 1.644 . S
C1274 C290 1.660 . S
C1286 C379 1.654 . S
C1301 C130 1.715 . S
C1313 C338 1.677 . S
C1328 C49 1.598 . S
C1340 C419 1.690 . S
C1355 C498 1.611 . S
C1367 C210 1.676 . S
C1382 C289 1.671 . S
C1394 C579 1.722 . S
C1409 C339 1.682 . S
C1421 C170 1.692 . S
C1436 C249 1.724 . S
C1448 C418 1.714 . S
C1463 C89 1.697 . S
C1475 C578 1.703 . S
C1490 C10 1.674 . S
C1502 C499 1.665 . S
C1517 C18 1.312 . S
C1529 C178 1.300 . S
C1544 C59 1.738 . S
C1556 C218 1.712 . S
C1571 C99 2.084 . S
C1583 C259 2.084 . S
C1598 C138 1.718 . S
C1610 C299 1.731 . S
C1625 C489 1.332 . S
C1637 C329 1.309 . S
C1652 C529 1.719 . S
C1664 C370 1.740 . S
C1679 C410 2.062 . S
C1691 C570 2.072 . S
C1706 C610 1.714 . S
C1718 C449 1.726 . S
C1733 C58 1.333 . S
C1745 C298 1.322 . S
C1760 C179 1.742 . S
C1772 C98 1.708 . S
C1787 C219 2.079 . S
C1799 C139 2.085 . S
C1814 C19 1.721 . S
C1826 C258 1.729 . S
C1841 C609 1.299 . S
C1853 C369 1.317 . S
C1868 C490 1.744 . S
C1880 C409 1.709 . S
C1895 C530 2.065 . S
C1907 C450 2.065 . S
C1922 C569 1.739 . S
C1934 C330 1.708 . S
