# Generated by pormake.
# Topology smc, (6)-cn, num edge types: 1
# Building blocks:
#     Node 0, Type 0, BuildingBlock: KUMBUR_clean_sbu_0, # of connection points: 6
#     Node 1, Type 0, BuildingBlock: KUMBUR_clean_sbu_0, # of connection points: 6
#     Node 2, Type 0, BuildingBlock: KUMBUR_clean_sbu_0, # of connection points: 6
#     Node 3, Type 0, BuildingBlock: KUMBUR_clean_sbu_0, # of connection points: 6
#     Node 4, Type 0, BuildingBlock: KUMBUR_clean_sbu_0, # of connection points: 6
#     Node 5, Type 0, BuildingBlock: KUMBUR_clean_sbu_0, # of connection points: 6
#     Node 6, Type 0, BuildingBlock: KUMBUR_clean_sbu_0, # of connection points: 6
#     Node 7, Type 0, BuildingBlock: KUMBUR_clean_sbu_0, # of connection points: 6
#     Node 8, Type 0, BuildingBlock: KUMBUR_clean_sbu_0, # of connection points: 6
#     Edge 9, Type (0, 0), BuildingBlock: OJICUG_clean_linker_0, # of connection points: 2
#     Edge 10, Type (0, 0), BuildingBlock: OJICUG_clean_linker_0, # of connection points: 2
#     Edge 11, Type (0, 0), BuildingBlock: OJICUG_clean_linker_0, # of connection points: 2
#     Edge 12, Type (0, 0), BuildingBlock: OJICUG_clean_linker_0, # of connection points: 2
#     Edge 13, Type (0, 0), BuildingBlock: OJICUG_clean_linker_0, # of connection points: 2
#     Edge 14, Type (0, 0), BuildingBlock: OJICUG_clean_linker_0, # of connection points: 2
#     Edge 15, Type (0, 0), BuildingBlock: OJICUG_clean_linker_0, # of connection points: 2
#     Edge 16, Type (0, 0), BuildingBlock: OJICUG_clean_linker_0, # of connection points: 2
#     Edge 17, Type (0, 0), BuildingBlock: OJICUG_clean_linker_0, # of connection points: 2
#     Edge 18, Type (0, 0), BuildingBlock: OJICUG_clean_linker_0, # of connection points: 2
#     Edge 19, Type (0, 0), BuildingBlock: OJICUG_clean_linker_0, # of connection points: 2
#     Edge 20, Type (0, 0), BuildingBlock: OJICUG_clean_linker_0, # of connection points: 2
#     Edge 21, Type (0, 0), BuildingBlock: OJICUG_clean_linker_0, # of connection points: 2
#     Edge 22, Type (0, 0), BuildingBlock: OJICUG_clean_linker_0, # of connection points: 2
#     Edge 23, Type (0, 0), BuildingBlock: OJICUG_clean_linker_0, # of connection points: 2
#     Edge 24, Type (0, 0), BuildingBlock: OJICUG_clean_linker_0, # of connection points: 2
#     Edge 25, Type (0, 0), BuildingBlock: OJICUG_clean_linker_0, # of connection points: 2
#     Edge 26, Type (0, 0), BuildingBlock: OJICUG_clean_linker_0, # of connection points: 2
#     Edge 27, Type (0, 0), BuildingBlock: OJICUG_clean_linker_0, # of connection points: 2
#     Edge 28, Type (0, 0), BuildingBlock: OJICUG_clean_linker_0, # of connection points: 2
#     Edge 29, Type (0, 0), BuildingBlock: OJICUG_clean_linker_0, # of connection points: 2
#     Edge 30, Type (0, 0), BuildingBlock: OJICUG_clean_linker_0, # of connection points: 2
#     Edge 31, Type (0, 0), BuildingBlock: OJICUG_clean_linker_0, # of connection points: 2
#     Edge 32, Type (0, 0), BuildingBlock: OJICUG_clean_linker_0, # of connection points: 2
#     Edge 33, Type (0, 0), BuildingBlock: OJICUG_clean_linker_0, # of connection points: 2
#     Edge 34, Type (0, 0), BuildingBlock: OJICUG_clean_linker_0, # of connection points: 2
#     Edge 35, Type (0, 0), BuildingBlock: OJICUG_clean_linker_0, # of connection points: 2
# Relax obj value: 0.112
# Max RMSD: 0.304
# Mean RMSD: 0.304
data_MOF--net-smc--node1-KUMBUR_clean_sbu_0--edge1-OJICUG_clean_linker_0
_symmetry_space_group_name_H-M    P1
_symmetry_Int_Tables_number       1
_symmetry_cell_setting            triclinic
loop_
_symmetry_equiv_pos_as_xyz
'x, y, z'
_cell_length_a     29.155091
_cell_length_b     29.146055
_cell_length_c     28.844762
_cell_angle_alpha  90.003662
_cell_angle_beta   90.002738
_cell_angle_gamma 119.83119
loop_
_atom_site_label
_atom_site_type_symbol
_atom_site_fract_x
_atom_site_fract_y
_atom_site_fract_z
_atom_type_partial_charge
Tb0 Tb 0.08696 0.52168 0.97708 0.0
C1 C 1.04563 0.3337 0.09751 0.0
C2 C 0.09696 0.30079 0.05887 0.0
C3 C 0.08602 0.29265 0.14237 0.0
C4 C 0.06791 0.32763 0.05755 0.0
C5 C 0.05295 0.31482 0.1402 0.0
C6 C 0.10773 0.28528 0.1017 0.0
C7 C 0.99075 0.33688 0.17411 0.0
N8 N 1.01471 0.35625 0.09403 0.0
C9 C 0.98487 0.35522 0.13112 0.0
C10 C 1.02567 0.3175 0.17897 0.0
Tb11 Tb 1.01243 0.3903 0.02282 0.0
N12 N 0.05699 0.34373 0.01693 0.0
C13 C 0.06796 0.32744 0.97599 0.0
C14 C 0.1119 0.2879 0.01706 0.0
C15 C 0.09561 0.29957 0.97549 0.0
H16 H 0.95687 0.36899 0.12807 0.0
H17 H 0.10493 0.28769 0.94289 0.0
H18 H 0.1312 0.26591 0.10357 0.0
H19 H 0.96807 0.33774 0.20323 0.0
H20 H 0.05629 0.33593 0.94318 0.0
H21 H 0.0854 0.62431 0.13393 0.0
H22 H 0.13376 0.26681 0.0165 0.0
H23 H 0.05085 0.53057 0.86731 0.0
H24 H 0.09812 0.56082 0.0896 0.0
H25 H 1.00621 0.57138 0.82741 0.0
H26 H 0.09401 0.27986 0.17497 0.0
H27 H 1.04897 0.6754 0.0965 0.0
H28 H 1.01346 0.69551 0.02538 0.0
H29 H 1.02971 0.30289 0.21224 0.0
H30 H 0.988 0.67798 0.94346 0.0
N31 N 0.06801 0.57286 0.02582 0.0
C32 C 0.08148 0.58134 0.07185 0.0
C33 C 0.05414 0.64689 0.07639 0.0
C34 C 1.04028 0.63837 0.02956 0.0
C35 C 0.07458 0.61806 0.09763 0.0
C36 C 1.04781 0.60075 1.00481 0.0
H37 H 0.98307 0.63041 0.87017 0.0
N38 N 1.0431 0.55594 0.93521 0.0
C39 C 1.01249 0.57631 0.86449 0.0
C40 C 1.03392 0.59119 0.95844 0.0
C41 C 1.03595 0.55131 0.8879 0.0
C42 C 0.99996 0.60993 0.88864 0.0
C43 C 1.01209 0.61901 0.93577 0.0
O44 O 0.14177 0.57006 0.92597 0.0
O45 O 0.08999 0.45143 0.99454 0.0
O46 O 0.06322 0.43238 0.08003 0.0
O47 O 0.12378 0.51198 0.04416 0.0
O48 O 0.12418 0.48805 0.93418 0.0
O49 O 0.1557 0.59256 0.99743 0.0
O50 O 0.92998 0.36162 0.01586 0.0
O51 O 1.01205 0.46249 1.00363 0.0
O52 O 1.02723 0.46647 0.92428 0.0
O53 O 1.01482 0.38586 0.94852 0.0
O54 O 0.97715 0.42734 0.06511 0.0
O55 O 0.96078 0.30967 1.00772 0.0
C56 C 0.11956 0.45121 0.96195 0.0
C57 C 0.18416 0.66351 0.94262 0.0
C58 C 0.23926 0.76105 0.9484 0.0
C59 C 0.22953 0.70941 0.96029 0.0
C60 C 0.20262 0.76595 0.92046 0.0
C61 C 0.15154 0.67127 0.91155 0.0
C62 C 0.15949 0.72147 0.90187 0.0
C63 C 0.10812 0.47716 0.07972 0.0
C64 C 0.171 0.60792 0.95502 0.0
C65 C 1.00447 0.65621 0.96037 0.0
C66 C 1.01901 0.66622 1.007 0.0
C67 C 0.98731 0.46627 0.03807 0.0
C68 C 0.87489 0.2736 0.04118 0.0
C69 C 0.82158 0.2608 0.03445 0.0
C70 C 0.78071 0.22379 0.06375 0.0
C71 C 0.79487 0.20043 0.09975 0.0
C72 C 0.88673 0.24852 0.07697 0.0
C73 C 0.8471 0.21263 0.1061 0.0
C74 C 1.00752 0.41456 0.91775 0.0
C75 C 0.91803 0.31288 0.01105 0.0
H76 H 0.2575 0.70508 0.98193 0.0
H77 H 0.20917 0.80468 0.91069 0.0
H78 H 0.1202 0.6387 0.89363 0.0
H79 H 0.13292 0.72597 0.8785 0.0
H80 H 0.81222 0.27981 1.00669 0.0
H81 H 0.76533 0.1709 0.12233 0.0
H82 H 0.92672 0.2564 0.08247 0.0
H83 H 0.85682 0.19355 0.13353 0.0
Tb84 Tb 0.56232 0.57785 0.98035 0.0
C85 C 0.76373 0.72522 0.08775 0.0
C86 C 0.79998 0.80613 0.04339 0.0
C87 C 0.81731 0.8097 0.12605 0.0
C88 C 0.76913 0.75057 0.04615 0.0
C89 C 0.78871 0.75423 0.12803 0.0
C90 C 0.82303 0.83564 0.08376 0.0
C91 C 0.75861 0.67127 0.1679 0.0
N92 N 0.7352 0.67161 0.08825 0.0
C93 C 0.73442 0.64431 0.12712 0.0
C94 C 0.78527 0.72649 0.16864 0.0
Tb95 Tb 0.69527 0.63096 0.02008 0.0
N96 N 0.74597 0.72055 1.00801 0.0
C97 C 0.75583 0.74386 0.9652 0.0
C98 C 0.80781 0.83021 1.00002 0.0
C99 C 0.78643 0.79884 0.96072 0.0
H100 H 0.71433 0.6017 0.12721 0.0
H101 H 0.79376 0.8171 0.92695 0.0
H102 H 0.8463 0.87841 0.08246 0.0
H103 H 0.75657 0.6491 0.19853 0.0
H104 H 0.73996 0.72067 0.93416 0.0
H105 H 0.4742 0.47206 0.14038 0.0
H106 H 0.83142 0.87277 0.99636 0.0
H107 H 0.53866 0.53914 0.87016 0.0
H108 H 0.53644 0.54763 0.09449 0.0
H109 H 0.4835 0.45694 0.82681 0.0
H110 H 0.83604 0.83286 0.15666 0.0
H111 H 0.41364 0.38721 0.10229 0.0
H112 H 0.38175 0.33413 0.02921 0.0
H113 H 0.80426 0.74729 0.20023 0.0
H114 H 0.38658 0.3291 0.94448 0.0
N115 N 0.5124 0.50786 0.02921 0.0
C116 C 0.51052 0.5118 0.07644 0.0
C117 C 0.44109 0.42064 0.08149 0.0
C118 C 0.44313 0.4164 0.03338 0.0
C119 C 0.4751 0.46847 0.10309 0.0
C120 C 0.47949 0.46123 1.00784 0.0
H121 H 0.42485 0.37425 0.86889 0.0
N122 N 0.51715 0.50243 0.93664 0.0
C123 C 0.48349 0.45643 0.86433 0.0
C124 C 0.48235 0.45832 0.96012 0.0
C125 C 0.5156 0.50274 0.88914 0.0
C126 C 0.45026 0.40996 0.88819 0.0
C127 C 0.44846 0.41074 0.93661 0.0
O128 O 0.5243 0.60464 0.9352 0.0
O129 O 0.63472 0.6501 0.99475 0.0
O130 O 0.65978 0.65107 0.07615 0.0
O131 O 0.57416 0.62329 0.04819 0.0
O132 O 0.60009 0.64221 0.93149 0.0
O133 O 0.48858 0.57039 1.00034 0.0
O134 O 0.72801 0.5815 0.03111 0.0
O135 O 0.62139 0.56028 1.00293 0.0
O136 O 0.60903 0.5628 0.92634 0.0
O137 O 0.69469 0.62731 0.94535 0.0
O138 O 0.65845 0.55801 0.06197 0.0
O139 O 0.76812 0.65025 0.98849 0.0
C140 C 0.63484 0.67658 0.95937 0.0
C141 C 0.43028 0.55316 0.93531 0.0
C142 C 0.33253 0.50052 0.93265 0.0
C143 C 0.38033 0.5307 0.95801 0.0
C144 C 0.33613 0.4936 0.88468 0.0
C145 C 0.43116 0.54587 0.88713 0.0
C146 C 0.38476 0.51585 0.86242 0.0
C147 C 0.6128 0.64647 0.08031 0.0
C148 C 0.48161 0.58642 0.96017 0.0
C149 C 0.41277 0.36595 0.96194 0.0
C150 C 0.40994 0.36885 1.01018 0.0
C151 C 0.61849 0.53046 0.03569 0.0
C152 C 0.82057 0.62159 0.02928 0.0
C153 C 0.83795 0.5842 0.02596 0.0
C154 C 0.88387 0.59229 0.04966 0.0
C155 C 0.912 0.6386 0.07633 0.0
C156 C 0.8501 0.66766 0.05548 0.0
C157 C 0.89544 0.67597 0.07886 0.0
C158 C 0.66079 0.59127 0.91688 0.0
C159 C 0.77032 0.61076 1.00726 0.0
H160 H 0.37873 0.53695 0.99485 0.0
H161 H 0.30104 0.47245 0.8635 0.0
H162 H 0.4679 0.56386 0.86792 0.0
H163 H 0.38643 0.5107 0.8254 0.0
H164 H 0.81512 0.54845 1.00588 0.0
H165 H 0.9476 0.64656 0.09469 0.0
H166 H 0.83802 0.69712 0.05814 0.0
H167 H 0.91787 0.71156 0.09917 0.0
Tb168 Tb 0.52443 1.01574 0.98015 0.0
C169 C 0.35557 0.04738 0.08119 0.0
C170 C 0.27571 0.98587 0.04068 0.0
C171 C 0.27053 1.01046 0.12004 0.0
C172 C 0.33116 1.01878 0.04184 0.0
C173 C 0.32547 0.04467 0.12041 0.0
C174 C 0.24572 0.98085 0.08035 0.0
C175 C 0.4053 0.11372 0.15517 0.0
N176 N 0.40883 0.07976 0.08016 0.0
C177 C 0.43353 0.11461 0.11575 0.0
C178 C 0.35127 0.07787 0.158 0.0
Tb179 Tb 0.45121 0.07861 0.01335 0.0
N180 N 0.36144 1.02558 1.00388 0.0
C181 C 0.33765 1.00437 0.9624 0.0
C182 C 0.2519 0.9603 0.99928 0.0
C183 C 0.28293 0.97016 0.95981 0.0
H184 H 0.47479 0.14408 0.11395 0.0
H185 H 0.26455 0.95112 0.9275 0.0
H186 H 0.20314 0.95553 0.08019 0.0
H187 H 0.4252 0.14149 0.1829 0.0
H188 H 0.36055 1.0125 0.93128 0.0
H189 H 0.61673 1.03136 0.14773 0.0
H190 H 0.20952 0.93425 0.99705 0.0
H191 H 0.5793 0.0562 0.8739 0.0
H192 H 0.54426 1.01486 0.09653 0.0
H193 H 0.66774 0.10457 0.84035 0.0
H194 H 0.24659 1.00764 0.14964 0.0
H195 H 0.70717 0.06819 0.11678 0.0
H196 H 0.76851 0.10305 0.04908 0.0
H197 H 0.32966 0.07768 0.18852 0.0
H198 H 0.78296 0.12751 0.96678 0.0
N199 N 0.59078 0.04119 0.03482 0.0
C200 C 0.58244 1.03051 0.08131 0.0
C201 C 0.67501 0.06092 0.09357 0.0
C202 C 0.684 0.07302 0.04646 0.0
C203 C 0.62408 0.04016 0.11113 0.0
C204 C 0.64068 0.06276 0.01765 0.0
H205 H 0.74618 0.13079 0.88952 0.0
N206 N 0.60594 0.0644 0.94434 0.0
C207 C 0.66314 0.09793 0.87739 0.0
C208 C 0.64868 0.07594 0.97121 0.0
C209 C 0.61271 0.07223 0.89718 0.0
C210 C 0.70723 0.11221 0.90516 0.0
C211 C 0.70031 0.09988 0.95233 0.0
O212 O 0.52802 0.96352 0.9313 0.0
O213 O 0.44528 1.00254 0.98966 0.0
O214 O 0.43971 1.0302 0.07303 0.0
O215 O 0.47426 0.97757 0.04561 0.0
O216 O 0.46236 0.9767 0.92945 0.0
O217 O 0.52941 0.94943 1.0039 0.0
O218 O 0.49767 0.16197 1.00666 0.0
O219 O 0.52926 0.08782 1.00166 0.0
O220 O 0.52818 0.07285 0.92486 0.0
O221 O 0.45153 0.07524 0.93883 0.0
O222 O 0.5194 0.12104 0.06021 0.0
O223 O 0.41619 0.12205 0.98813 0.0
C224 C 0.42375 0.97274 0.95428 0.0
C225 C 0.58005 0.92456 0.95522 0.0
C226 C 0.62236 0.86971 0.96436 0.0
C227 C 0.57806 0.87723 0.97057 0.0
C228 C 0.66865 0.91036 0.94451 0.0
C229 C 0.62554 0.96147 0.93136 0.0
C230 C 0.6699 0.95557 0.9276 0.0
C231 C 0.44769 0.98986 0.07735 0.0
C232 C 0.53493 0.93505 0.96245 0.0
C233 C 0.74325 0.10956 0.98076 0.0
C234 C 0.73501 0.09557 0.02758 0.0
C235 C 0.55341 0.11517 0.03661 0.0
C236 C 0.45219 0.20887 0.02009 0.0
C237 C 0.49109 0.26307 0.01644 0.0
C238 C 0.48672 0.30186 0.04256 0.0
C239 C 0.44269 0.28544 0.07186 0.0
C240 C 0.40821 0.19431 0.04888 0.0
C241 C 0.40373 0.23233 0.07463 0.0
C242 C 0.49256 0.08686 0.91268 0.0
C243 C 0.45822 0.16785 0.99462 0.0
H244 H 0.54213 0.84611 0.98603 0.0
H245 H 0.70274 0.90545 0.93901 0.0
H246 H 0.6268 0.9945 0.91431 0.0
H247 H 0.70479 0.98538 0.90985 0.0
H248 H 0.52502 0.27481 0.99409 0.0
H249 H 0.43783 0.31394 0.09221 0.0
H250 H 0.3773 0.15343 0.05185 0.0
H251 H 0.36984 0.22055 0.09697 0.0
Tb252 Tb 0.75315 0.86066 0.316 0.0
C253 C 0.72577 0.66492 0.41902 0.0
C254 C 0.78458 0.64356 0.3771 0.0
C255 C 0.76757 0.62173 0.45888 0.0
C256 C 0.75144 0.66601 0.37845 0.0
C257 C 0.73271 0.64185 0.45944 0.0
C258 C 0.79345 0.62255 0.41773 0.0
C259 C 0.66702 0.65621 0.49683 0.0
N260 N 0.69305 0.68567 0.41856 0.0
C261 C 0.66151 0.67887 0.45616 0.0
C262 C 0.70359 0.63875 0.49891 0.0
Tb263 Tb 0.69048 0.72535 0.35042 0.0
N264 N 0.74219 0.68705 0.33991 0.0
C265 C 0.76088 0.68182 0.29791 0.0
C266 C 0.80693 0.64187 0.33475 0.0
C267 C 0.79435 0.6603 0.29489 0.0
H268 H 0.63196 0.69073 0.45544 0.0
H269 H 0.81094 0.65838 0.26191 0.0
H270 H 0.81932 0.60579 0.41745 0.0
H271 H 0.64268 0.65195 0.52638 0.0
H272 H 0.75168 0.69551 0.26661 0.0
H273 H 0.74068 0.93912 0.48362 0.0
H274 H 0.83286 0.62528 0.33226 0.0
H275 H 0.71125 0.87441 0.21043 0.0
H276 H 0.75556 0.88197 0.43226 0.0
H277 H 0.66254 0.91466 0.1772 0.0
H278 H 0.77392 0.60448 0.48978 0.0
H279 H 0.70478 0.99386 0.45288 0.0
H280 H 0.67055 1.02139 0.38519 0.0
H281 H 0.70781 0.62156 0.53063 0.0
H282 H 0.64403 1.01029 0.30337 0.0
N283 N 0.72869 0.90222 0.37092 0.0
C284 C 0.74 0.90476 0.41726 0.0
C285 C 0.71112 0.96829 0.42968 0.0
C286 C 0.69834 0.96494 0.3827 0.0
C287 C 0.73136 0.93749 0.44712 0.0
C288 C 0.70731 0.93092 0.35393 0.0
H289 H 0.63806 0.96838 0.22644 0.0
N290 N 0.70416 0.89366 0.28077 0.0
C291 C 0.66979 0.91705 0.21416 0.0
C292 C 0.69341 0.92546 0.30767 0.0
C293 C 0.69552 0.89212 0.23374 0.0
C294 C 0.6565 0.94771 0.24196 0.0
C295 C 0.66976 0.95361 0.28895 0.0
O296 O 0.80426 0.91532 0.26621 0.0
O297 O 0.76565 0.79422 0.32512 0.0
O298 O 0.73897 0.76401 0.40971 0.0
O299 O 0.79333 0.84952 0.38053 0.0
O300 O 0.79171 0.83718 0.26491 0.0
O301 O 0.82004 0.93153 0.3387 0.0
O302 O 0.60866 0.69113 0.33626 0.0
O303 O 0.68178 0.79428 0.33908 0.0
O304 O 0.69447 0.80678 0.26197 0.0
O305 O 0.69372 0.72857 0.27596 0.0
O306 O 0.64629 0.75032 0.39646 0.0
O307 O 0.64609 0.64428 0.33363 0.0
C308 C 0.79461 0.80166 0.28936 0.0
C309 C 0.84365 1.00611 0.2897 0.0
C310 C 0.89843 0.10262 0.29896 0.0
C311 C 0.89088 0.05095 0.30515 0.0
C312 C 0.85789 0.10877 0.27928 0.0
C313 C 0.80675 1.01492 0.26587 0.0
C314 C 0.81263 0.06517 0.26232 0.0
C315 C 0.78072 0.81126 0.41282 0.0
C316 C 0.8334 0.9508 0.29696 0.0
C317 C 0.66153 0.98798 0.31727 0.0
C318 C 0.67659 0.99426 0.36385 0.0
C319 C 0.65368 0.79113 0.37343 0.0
C320 C 0.55711 0.60266 0.36041 0.0
C321 C 0.50462 0.59006 0.35089 0.0
C322 C 0.46211 0.55233 0.37796 0.0
C323 C 0.47365 0.52838 0.4152 0.0
C324 C 0.56679 0.57646 0.39666 0.0
C325 C 0.52535 0.54007 0.42412 0.0
C326 C 0.68076 0.75721 0.25003 0.0
C327 C 0.60128 0.64372 0.33285 0.0
H328 H 0.92205 0.0459 0.3204 0.0
H329 H 0.86304 0.14786 0.27383 0.0
H330 H 0.77379 0.9834 0.24867 0.0
H331 H 0.78288 0.07054 0.24462 0.0
H332 H 0.49715 0.61005 0.32271 0.0
H333 H 0.44266 0.4994 0.43701 0.0
H334 H 0.60638 0.58417 0.40406 0.0
H335 H 0.53328 0.52051 0.45234 0.0
Tb336 Tb 0.23881 0.90209 0.31476 0.0
C337 C 0.43503 0.06485 0.41896 0.0
C338 C 0.45599 0.14411 0.37605 0.0
C339 C 0.48104 0.15049 0.45714 0.0
C340 C 0.43288 0.08861 0.3783 0.0
C341 C 0.46042 0.09554 0.45847 0.0
C342 C 0.47871 0.17475 0.41599 0.0
C343 C 0.44785 1.0161 0.49577 0.0
N344 N 0.41385 1.01152 0.41916 0.0
C345 C 0.42192 0.98715 0.45628 0.0
C346 C 0.46594 0.07026 0.49748 0.0
Tb347 Tb 0.3723 0.96782 0.35251 0.0
N348 N 0.41096 0.05761 0.34034 0.0
C349 C 0.41624 0.08076 0.29789 0.0
C350 C 0.45719 0.16733 0.33341 0.0
C351 C 0.43817 0.13559 0.29406 0.0
H352 H 0.40953 0.94561 0.45542 0.0
H353 H 0.4408 0.15357 0.26074 0.0
H354 H 0.49606 0.21736 0.41501 0.0
H355 H 0.45475 0.99662 0.52435 0.0
H356 H 0.40318 0.05757 0.26659 0.0
H357 H 0.14741 0.81943 0.48136 0.0
H358 H 0.47447 0.20979 0.33017 0.0
H359 H 0.22736 0.84066 0.21133 0.0
H360 H 0.20804 0.88828 0.42972 0.0
H361 H 0.18435 0.75095 0.18129 0.0
H362 H 0.50005 0.17469 0.4873 0.0
H363 H 0.0924 0.72816 0.45278 0.0
H364 H 0.06615 0.66391 0.38742 0.0
H365 H 0.48592 0.09238 0.52827 0.0
H366 H 0.07917 0.64465 0.30725 0.0
N367 N 0.19109 0.83859 0.37031 0.0
C368 C 0.18599 0.84951 0.41564 0.0
C369 C 0.11976 0.75865 0.42943 0.0
C370 C 0.12479 0.74714 0.38339 0.0
C371 C 0.15082 0.81001 0.44567 0.0
C372 C 0.16128 0.7883 0.35437 0.0
H373 H 0.1248 0.67616 0.23123 0.0
N374 N 0.20304 0.81832 0.28204 0.0
C375 C 0.18034 0.75762 0.21761 0.0
C376 C 0.1681 0.77767 0.30907 0.0
C377 C 0.20686 0.80883 0.23578 0.0
C378 C 0.14635 0.71564 0.24572 0.0
C379 C 0.13878 0.72545 0.29162 0.0
O380 O 0.18944 0.90314 0.26184 0.0
O381 O 0.30659 0.97925 0.32491 0.0
O382 O 0.33441 0.97986 0.41126 0.0
O383 O 0.25221 0.95629 0.37791 0.0
O384 O 0.27051 0.96177 0.26149 0.0
O385 O 0.16889 0.90347 0.33286 0.0
O386 O 0.40392 0.91628 0.34659 0.0
O387 O 0.3014 0.89212 0.34046 0.0
O388 O 0.29169 0.89508 0.26157 0.0
O389 O 0.37414 0.96615 0.27809 0.0
O390 O 0.34058 0.90042 0.40123 0.0
O391 O 0.45262 0.99881 0.33466 0.0
C392 C 0.30169 1.00076 0.28776 0.0
C393 C 0.09722 0.85569 0.28003 0.0
C394 C 1.00055 0.81668 0.28501 0.0
C395 C 0.05233 0.85863 0.29491 0.0
C396 C 0.99419 0.77168 0.26176 0.0
C397 C 0.0886 0.81155 0.25363 0.0
C398 C 1.03795 0.7694 0.24587 0.0
C399 C 0.28888 0.97869 0.41207 0.0
C400 C 0.15265 0.89869 0.29017 0.0
C401 C 0.10215 0.68474 0.32018 0.0
C402 C 0.09476 0.69569 0.36581 0.0
C403 C 0.30068 0.86788 0.37684 0.0
C404 C 0.49373 0.95349 0.36867 0.0
C405 C 0.506 0.91219 0.36477 0.0
C406 C 0.54476 0.91099 0.39381 0.0
C407 C 0.56993 0.95148 0.42705 0.0
C408 C 0.52185 0.99426 0.40075 0.0
C409 C 0.55892 0.99272 0.43008 0.0
C410 C 0.34253 0.92718 0.25095 0.0
C411 C 0.45176 0.95403 0.33954 0.0
H412 H 0.05755 0.89354 0.31291 0.0
H413 H 0.95503 0.73934 0.25367 0.0
H414 H 0.12078 0.80974 0.23781 0.0
H415 H 1.0326 0.7355 0.2261 0.0
H416 H 0.48529 0.88117 0.33942 0.0
H417 H 0.60031 0.95299 0.44959 0.0
H418 H 0.51515 1.02748 0.40347 0.0
H419 H 0.57985 1.02416 0.455 0.0
Tb420 Tb 0.19089 0.33893 0.31398 0.0
C421 C 1.04796 0.38062 0.42713 0.0
C422 C 0.96326 0.32718 0.38971 0.0
C423 C 0.96718 0.34067 0.47282 0.0
C424 C 1.01891 0.35821 0.38733 0.0
C425 C 1.0221 0.37425 0.46989 0.0
C426 C 0.9378 0.31702 0.43282 0.0
C427 C 0.10586 0.43855 0.5029 0.0
N428 N 0.10117 0.41172 0.42336 0.0
C429 C 0.12997 0.44289 0.45999 0.0
C430 C 0.0518 0.40345 0.50798 0.0
Tb431 Tb 0.1353 0.4157 0.35072 0.0
N432 N 1.04477 0.36892 0.34607 0.0
C433 C 1.01655 0.35346 0.30561 0.0
C434 C 0.93469 0.30819 0.34862 0.0
C435 C 0.96135 0.32208 0.30642 0.0
H436 H 0.17201 0.46961 0.45644 0.0
H437 H 0.93906 0.30805 0.27466 0.0
H438 H 0.89524 0.29239 0.4354 0.0
H439 H 0.12897 0.46224 0.53196 0.0
H440 H 1.03599 0.36401 0.2725 0.0
H441 H 0.31064 0.37782 0.4674 0.0
H442 H 0.89199 0.28394 0.34901 0.0
H443 H 0.22069 0.34602 0.20152 0.0
H444 H 0.22932 0.35435 0.42467 0.0
H445 H 0.30081 0.37784 0.15364 0.0
H446 H 0.94677 0.33371 0.50554 0.0
H447 H 0.39419 0.40672 0.42501 0.0
H448 H 0.44314 0.43045 0.34937 0.0
H449 H 1.0328 0.40051 0.54084 0.0
H450 H 0.44106 0.43402 0.26427 0.0
N451 N 0.26597 0.3726 0.35822 0.0
C452 C 0.26541 0.36878 0.40553 0.0
C453 C 0.35872 0.39794 0.40599 0.0
C454 C 0.35939 0.40225 0.3577 0.0
C455 C 0.31161 0.38152 0.43003 0.0
C456 C 0.31164 0.38841 0.33444 0.0
H457 H 0.38844 0.41538 0.19105 0.0
N458 N 0.26291 0.37291 0.26536 0.0
C459 C 0.30422 0.38237 0.19094 0.0
C460 C 0.31026 0.38972 0.28652 0.0
C461 C 0.259 0.36545 0.21822 0.0
C462 C 0.35356 0.40335 0.21218 0.0
C463 C 0.35689 0.40571 0.26056 0.0
O464 O 0.184 0.27428 0.27467 0.0
O465 O 0.11619 0.33518 0.32671 0.0
O466 O 0.14719 0.37812 0.41115 0.0
O467 O 0.14014 0.30288 0.37783 0.0
O468 O 0.12606 0.30477 0.26568 0.0
O469 O 0.20197 0.28073 0.34726 0.0
O470 O 0.1791 0.4949 0.37177 0.0
O471 O 0.20707 0.40939 0.34982 0.0
O472 O 0.19514 0.39378 0.25562 0.0
O473 O 0.12846 0.41142 0.27633 0.0
O474 O 0.21321 0.47786 0.32644 0.0
O475 O 0.10696 0.46759 0.33248 0.0
C476 C 0.09092 0.30631 0.29187 0.0
C477 C 0.17892 0.19821 0.31201 0.0
C478 C 0.19772 0.12486 0.30981 0.0
C479 C 0.21526 0.1795 0.30772 0.0
C480 C 0.14352 0.08952 0.31686 0.0
C481 C 0.12528 0.16219 0.3193 0.0
C482 C 0.10779 0.10809 0.32183 0.0
C483 C 0.13306 0.3277 0.41377 0.0
C484 C 0.19834 0.25551 0.30917 0.0
C485 C 0.40488 0.42142 0.28363 0.0
C486 C 0.40603 0.41922 0.33207 0.0
C487 C 0.23958 0.45451 0.33418 0.0
C488 C 0.13893 0.54715 0.37812 0.0
C489 C 0.17711 0.60135 0.37418 0.0
C490 C 0.17322 0.64008 0.40064 0.0
C491 C 0.13009 0.62297 0.43132 0.0
C492 C 0.09627 0.53153 0.40849 0.0
C493 C 0.09203 0.56936 0.43495 0.0
C494 C 0.1638 0.41429 0.24641 0.0
C495 C 0.14716 0.50813 0.35231 0.0
H496 H 0.25677 0.20723 0.30165 0.0
H497 H 0.12874 0.04729 0.31815 0.0
H498 H 0.09707 0.17591 0.32293 0.0
H499 H 0.06623 0.08031 0.32723 0.0
H500 H 0.21045 0.61305 0.35111 0.0
H501 H 0.12478 0.65109 0.45181 0.0
H502 H 0.06665 0.49021 0.4121 0.0
H503 H 0.05901 0.55711 0.45845 0.0
Tb504 Tb 0.41757 0.19841 0.64472 0.0
C505 C 0.37979 1.00469 0.7551 0.0
C506 C 0.4325 0.97526 0.71363 0.0
C507 C 0.41794 0.95883 0.79623 0.0
C508 C 0.40296 1.00164 0.71436 0.0
C509 C 0.38572 0.98197 0.79619 0.0
C510 C 0.44123 0.95536 0.75498 0.0
C511 C 0.32414 1.00282 0.83312 0.0
N512 N 0.34954 1.02815 0.75395 0.0
C513 C 0.31964 1.02506 0.79178 0.0
C514 C 0.35781 0.98175 0.83559 0.0
Tb515 Tb 0.34704 0.06531 0.6844 0.0
N516 N 0.39386 1.02159 0.67499 0.0
C517 C 0.409 1.01151 0.633 0.0
C518 C 0.45088 0.968 0.67118 0.0
C519 C 0.43807 0.98512 0.63072 0.0
H520 H 0.29218 0.0396 0.7906 0.0
H521 H 0.45091 0.9779 0.59792 0.0
H522 H 0.4646 0.93584 0.75516 0.0
H523 H 0.30113 1.00177 0.86277 0.0
H524 H 0.39994 1.02432 0.60099 0.0
H525 H 0.41461 0.2871 0.80991 0.0
H526 H 0.47351 0.94776 0.6691 0.0
H527 H 0.37471 0.21101 0.53842 0.0
H528 H 0.42827 0.22846 0.75967 0.0
H529 H 0.32907 0.25382 0.50472 0.0
H530 H 0.42404 0.94233 0.82763 0.0
H531 H 0.37773 0.34069 0.77856 0.0
H532 H 0.34227 0.3665 0.71084 0.0
H533 H 0.36057 0.96367 0.86741 0.0
H534 H 0.31598 0.35491 0.62896 0.0
N535 N 0.39801 0.24521 0.6984 0.0
C536 C 0.41136 0.24994 0.74443 0.0
C537 C 0.3833 0.31424 0.75583 0.0
C538 C 0.3697 0.30973 0.709 0.0
C539 C 0.40393 0.28396 0.77363 0.0
C540 C 0.37755 0.2745 0.68081 0.0
H541 H 0.30873 0.31145 0.55274 0.0
N542 N 0.37138 0.23415 0.60853 0.0
C543 C 0.33724 0.2573 0.54155 0.0
C544 C 0.36307 0.26819 0.63465 0.0
C545 C 0.36138 0.23104 0.56162 0.0
C546 C 0.32635 0.29019 0.56862 0.0
C547 C 0.3404 0.29704 0.61542 0.0
O548 O 0.47003 0.24957 0.59365 0.0
O549 O 0.42484 0.12919 0.65706 0.0
O550 O 0.39743 0.1049 0.74252 0.0
O551 O 0.45721 0.18634 0.70906 0.0
O552 O 0.4492 0.16666 0.5945 0.0
O553 O 0.48736 0.26813 0.66542 0.0
O554 O 0.26431 0.03405 0.67694 0.0
O555 O 0.34334 0.13662 0.66901 0.0
O556 O 0.36017 0.14547 0.59003 0.0
O557 O 0.34553 0.06234 0.60996 0.0
O558 O 0.30926 0.09802 0.72928 0.0
O559 O 0.29779 0.98426 0.6691 0.0
C560 C 0.4523 0.13266 0.62106 0.0
C561 C 0.51316 0.34161 0.61409 0.0
C562 C 0.56915 0.43848 0.62254 0.0
C563 C 0.55991 0.38638 0.63091 0.0
C564 C 0.53089 0.44503 0.59876 0.0
C565 C 0.47853 0.35089 0.587 0.0
C566 C 0.48627 0.40158 0.58071 0.0
C567 C 0.44195 0.15 0.74344 0.0
C568 C 0.5007 0.28572 0.62325 0.0
C569 C 0.3331 0.3324 0.64321 0.0
C570 C 0.34809 0.33901 0.6898 0.0
C571 C 0.31767 0.1376 0.70387 0.0
C572 C 0.21172 0.94593 0.70274 0.0
C573 C 0.15833 0.93316 0.69709 0.0
C574 C 0.11842 0.89695 0.72743 0.0
C575 C 0.13334 0.87449 0.76352 0.0
C576 C 0.22431 0.92083 0.73801 0.0
C577 C 0.18553 0.88597 0.7684 0.0
C578 C 0.3401 0.09395 0.58111 0.0
C579 C 0.25412 0.98578 0.67243 0.0
H580 H 0.58918 0.38088 0.64936 0.0
H581 H 0.53716 0.48427 0.59167 0.0
H582 H 0.44575 0.3192 0.56958 0.0
H583 H 0.45828 0.40731 0.56041 0.0
H584 H 0.14811 0.95168 0.66949 0.0
H585 H 0.10424 0.84617 0.7872 0.0
H586 H 0.26424 0.92816 0.74237 0.0
H587 H 0.19591 0.86729 0.79571 0.0
Tb588 Tb 0.90302 0.24572 0.64044 0.0
C589 C 0.08157 0.40046 0.76017 0.0
C590 C 0.1002 0.48212 0.72286 0.0
C591 C 0.1113 0.48008 0.80617 0.0
C592 C 0.08241 0.42745 0.72083 0.0
C593 C 0.09734 0.42656 0.80306 0.0
C594 C 0.1128 0.5079 0.76603 0.0
C595 C 0.08975 0.34661 0.83545 0.0
N596 N 0.06743 0.34871 0.75579 0.0
C597 C 0.07455 0.32251 0.79203 0.0
C598 C 0.0999 0.39841 0.84112 0.0
Tb599 Tb 1.03487 0.31078 0.68488 0.0
N600 N 0.07012 0.40096 0.67999 0.0
C601 C 0.08211 0.42865 0.63934 0.0
C602 C 0.10704 0.50949 0.6813 0.0
C603 C 0.09933 0.48286 0.63929 0.0
H604 H 0.06712 0.28259 0.78795 0.0
H605 H 0.10688 0.50406 0.60683 0.0
H606 H 0.12559 0.54967 0.7685 0.0
H607 H 0.0934 0.32511 0.86443 0.0
H608 H 0.078 0.40929 0.60674 0.0
H609 H 0.80088 0.13289 0.79355 0.0
H610 H 0.12065 0.55151 0.68124 0.0
H611 H 0.89708 0.20768 0.52943 0.0
H612 H 0.86478 0.21127 0.75217 0.0
H613 H 0.85809 0.12468 0.48545 0.0
H614 H 0.12272 0.50071 0.83906 0.0
H615 H 0.75071 0.04781 0.75252 0.0
H616 H 0.73392 0.99566 0.67944 0.0
H617 H 0.11108 0.41689 0.87454 0.0
H618 H 0.75296 0.99254 0.59695 0.0
N619 N 0.85405 0.17277 0.68665 0.0
C620 C 0.84484 0.17519 0.73296 0.0
C621 C 0.77978 0.08234 0.73382 0.0
C622 C 0.78957 0.07943 0.68684 0.0
C623 C 0.80795 0.13029 0.75705 0.0
C624 C 0.82711 0.12589 0.66383 0.0
H625 H 0.80051 0.03986 0.52492 0.0
N626 N 0.87142 0.17025 0.59564 0.0
C627 C 0.85278 0.12375 0.52265 0.0
C628 C 0.83721 0.12431 0.61719 0.0
C629 C 0.87646 0.17073 0.54818 0.0
C630 C 0.82006 0.07606 0.54498 0.0
C631 C 0.81056 0.07608 0.59246 0.0
O632 O 0.85317 0.25218 0.59077 0.0
O633 O 0.96965 0.32209 0.65709 0.0
O634 O 0.98971 0.30876 0.74393 0.0
O635 O 0.90941 0.28895 0.70912 0.0
O636 O 0.93382 0.31267 0.59392 0.0
O637 O 0.83155 0.24144 0.66248 0.0
O638 O 0.07131 0.26397 0.67459 0.0
O639 O 0.96595 0.23579 0.66667 0.0
O640 O 0.96054 0.24206 0.58926 0.0
O641 O 1.03747 0.31652 0.61074 0.0
O642 O 1.00494 0.2379 0.72629 0.0
O643 O 0.11666 0.34785 0.67115 0.0
C644 C 0.96713 0.34789 0.62209 0.0
C645 C 0.7603 0.19967 0.60816 0.0
C646 C 0.66296 0.15682 0.61472 0.0
C647 C 0.7144 0.19893 0.62609 0.0
C648 C 0.6582 0.11532 0.5868 0.0
C649 C 0.75282 0.15933 0.57719 0.0
C650 C 0.70275 0.11692 0.56783 0.0
C651 C 0.94371 0.30634 0.74513 0.0
C652 C 0.81552 0.24224 0.62049 0.0
C653 C 0.77385 1.02978 0.61541 0.0
C654 C 0.76292 1.03158 0.66234 0.0
C655 C 0.96571 0.20766 0.70007 0.0
C656 C 0.15968 0.30298 0.70187 0.0
C657 C 0.17421 0.26348 0.69601 0.0
C658 C 0.2137 0.2628 0.72441 0.0
C659 C 0.23831 0.30279 0.75819 0.0
C660 C 0.18538 0.34189 0.73604 0.0
C661 C 0.22417 0.3416 0.76391 0.0
C662 C 1.01129 0.27791 0.58147 0.0
C663 C 0.11852 0.30423 0.67209 0.0
H664 H 0.71857 0.23117 0.64773 0.0
H665 H 0.61953 0.08303 0.57733 0.0
H666 H 0.78545 0.16067 0.55916 0.0
H667 H 0.6984 0.0859 0.54449 0.0
H668 H 0.15455 0.23337 0.66972 0.0
H669 H 0.26985 0.30524 0.77972 0.0
H670 H 0.17579 0.37296 0.74123 0.0
H671 H 0.24387 0.37205 0.7899 0.0
Tb672 Tb 0.85732 0.68572 0.65664 0.0
C673 C 0.69308 0.72778 0.75028 0.0
C674 C 0.61291 0.66997 0.70829 0.0
C675 C 0.60762 0.69377 0.78802 0.0
C676 C 0.66856 0.70042 0.7103 0.0
C677 C 0.66284 0.72591 0.78915 0.0
C678 C 0.58269 0.66573 0.74767 0.0
C679 C 0.74338 0.79139 0.82568 0.0
N680 N 0.74672 0.75752 0.75051 0.0
C681 C 0.77185 0.79113 0.78683 0.0
C682 C 0.68886 0.75771 0.82739 0.0
Tb683 Tb 0.7888 0.75421 0.68421 0.0
N684 N 0.69909 0.70535 0.67289 0.0
C685 C 0.67577 0.68468 0.63108 0.0
C686 C 0.58918 0.64567 0.66647 0.0
C687 C 0.62064 0.65377 0.62757 0.0
H688 H 0.81367 0.81869 0.78618 0.0
H689 H 0.60207 0.6358 0.59506 0.0
H690 H 0.53995 0.64199 0.74688 0.0
H691 H 0.76345 0.81833 0.85392 0.0
H692 H 0.6992 0.69076 0.60041 0.0
H693 H 0.94717 0.7167 0.82705 0.0
H694 H 0.54658 0.62175 0.66351 0.0
H695 H 0.90926 0.70744 0.55035 0.0
H696 H 0.87515 0.69689 0.77314 0.0
H697 H 0.99736 0.74202 0.51554 0.0
H698 H 0.58378 0.69129 0.81775 0.0
H699 H 1.03703 0.7457 0.79756 0.0
H700 H 0.09814 0.76821 0.72969 0.0
H701 H 0.66712 0.75815 0.85758 0.0
H702 H 0.11257 0.77916 0.64559 0.0
N703 N 0.92248 0.71428 0.71219 0.0
C704 C 0.91355 0.70929 0.75903 0.0
C705 C 1.00534 0.73714 0.77335 0.0
C706 C 1.01462 0.74275 0.72559 0.0
C707 C 0.95468 0.72075 0.79011 0.0
C708 C 0.97196 0.73101 0.6955 0.0
H709 H 0.07571 0.77105 0.56569 0.0
N710 N 0.93784 0.72417 0.62 0.0
C711 C 0.99324 0.74168 0.55285 0.0
C712 C 0.97996 0.73666 0.64799 0.0
C713 C 0.94345 0.72333 0.57284 0.0
C714 C 1.03729 0.75772 0.58126 0.0
C715 C 1.03084 0.7541 0.6294 0.0
O716 O 0.85591 0.6264 0.61298 0.0
O717 O 0.77927 0.67596 0.66262 0.0
O718 O 0.77339 0.70497 0.74464 0.0
O719 O 0.80412 0.64829 0.71993 0.0
O720 O 0.79709 0.64706 0.60454 0.0
O721 O 0.87011 0.62736 0.68655 0.0
O722 O 0.8375 0.83684 0.67472 0.0
O723 O 0.86538 0.76007 0.67445 0.0
O724 O 0.86838 0.74362 0.59968 0.0
O725 O 0.79265 0.74948 0.60982 0.0
O726 O 0.85767 0.79823 0.73031 0.0
O727 O 0.75558 0.79911 0.65823 0.0
C728 C 0.75837 0.6459 0.62725 0.0
C729 C 0.8517 0.54876 0.64676 0.0
C730 C 0.87455 0.4783 0.64459 0.0
C731 C 0.88962 0.53226 0.64148 0.0
C732 C 0.82113 0.44116 0.65263 0.0
C733 C 0.79875 0.51103 0.65498 0.0
C734 C 0.7836 0.45744 0.65771 0.0
C735 C 0.77765 0.66238 0.74991 0.0
C736 C 0.86938 0.60576 0.64684 0.0
C737 C 0.07332 0.76589 0.65925 0.0
C738 C 0.0651 0.75968 0.70716 0.0
C739 C 0.89065 0.78966 0.70785 0.0
C740 C 0.79571 0.88658 0.68966 0.0
C741 C 0.83694 0.93991 0.68654 0.0
C742 C 0.83616 0.9797 0.71419 0.0
C743 C 0.79341 0.96473 0.74489 0.0
C744 C 0.75294 0.87386 0.71944 0.0
C745 C 0.75215 0.9126 0.74706 0.0
C746 C 0.83452 0.75923 0.58542 0.0
C747 C 0.79878 0.84423 0.66359 0.0
H748 H 0.93073 0.56133 0.63532 0.0
H749 H 0.80841 0.39938 0.65471 0.0
H750 H 0.76939 0.52307 0.65977 0.0
H751 H 0.74261 0.42837 0.66399 0.0
H752 H 0.86987 0.95007 0.66336 0.0
H753 H 0.79089 0.99361 0.76663 0.0
H754 H 0.72028 0.83378 0.72198 0.0
H755 H 0.71927 0.90216 0.77033 0.0
C756 C 0.26617 0.5096 0.98341 0.0
C757 C 0.27817 0.47906 0.95333 0.0
H758 H 0.2064 0.52391 0.01088 0.0
C759 C 0.23559 0.4318 0.93593 0.0
H760 H 0.29751 0.54649 0.99725 0.0
C761 C 0.18316 0.41957 0.94277 0.0
C762 C 0.17077 0.45197 0.96979 0.0
H763 H 0.24279 0.40632 0.91339 0.0
H764 H 0.153 0.38709 0.92329 0.0
C765 C 0.21325 0.49617 0.99156 0.0
C766 C 0.65292 0.81037 1.00056 0.0
C767 C 0.61942 0.81752 0.96975 0.0
H768 H 0.68318 0.76008 0.02264 0.0
C769 C 0.59205 0.77877 0.93619 0.0
H770 H 0.6758 0.8405 0.02603 0.0
C771 C 0.59877 0.73468 0.93258 0.0
C772 C 0.63217 0.72675 0.96321 0.0
H773 H 0.56752 0.784 0.91092 0.0
H774 H 0.57756 0.70687 0.90506 0.0
C775 C 0.65821 0.76487 0.99794 0.0
C776 C 0.3714 0.88026 0.92235 0.0
C777 C 0.37635 0.91757 0.95619 0.0
H778 H 0.32625 0.80166 0.8951 0.0
C779 C 0.33826 0.89952 0.99169 0.0
H780 H 0.40003 0.89125 0.89473 0.0
C781 C 0.29502 0.84722 0.99167 0.0
C782 C 0.29028 0.81081 0.95718 0.0
H783 H 0.34089 0.92631 0.01839 0.0
H784 H 0.26442 0.83579 0.01764 0.0
C785 C 0.3295 0.82803 0.92299 0.0
C786 C 0.54435 0.38581 0.99714 0.0
C787 C 0.52688 0.35953 0.03996 0.0
H788 H 0.58713 0.46074 0.96197 0.0
C789 C 0.5442 0.38984 0.08086 0.0
H790 H 0.53186 0.36375 0.965 0.0
C791 C 0.5754 0.445 0.07905 0.0
C792 C 0.58913 0.47155 0.03635 0.0
H793 H 0.53236 0.37091 0.11446 0.0
H794 H 0.58674 0.46716 0.11121 0.0
C795 C 0.5754 0.44135 0.99538 0.0
C796 C 0.64605 0.17317 1.00489 0.0
C797 C 0.61154 0.15022 0.04269 0.0
H798 H 0.72664 0.21351 0.98134 0.0
C799 C 0.6329 0.16155 0.08752 0.0
H800 H 0.63046 0.16756 0.97 0.0
C801 C 0.68773 0.18913 0.09429 0.0
C802 C 0.72301 0.20617 0.05634 0.0
H803 H 0.60718 0.14659 0.11748 0.0
H804 H 0.70235 0.19514 0.12953 0.0
C805 C 0.7013 0.20034 0.01156 0.0
C806 C 0.93204 0.50143 1.00128 0.0
C807 C 0.95647 0.49428 0.04049 0.0
H808 H 0.89035 0.53868 0.97309 0.0
C809 C 0.9498 0.51261 0.08353 0.0
H810 H 0.9347 0.48575 0.96797 0.0
C811 C 0.92421 0.54234 0.08665 0.0
C812 C 0.90358 0.55367 0.04689 0.0
H813 H 0.96652 0.50593 0.11461 0.0
H814 H 0.92179 0.55766 0.12021 0.0
C815 C 0.90606 0.53114 1.00438 0.0
C816 C 0.88567 0.83615 0.25615 0.0
C817 C 0.84819 0.80617 0.29056 0.0
H818 H 0.96364 0.86466 0.22876 0.0
C819 C 0.86472 0.78567 0.32672 0.0
H820 H 0.87565 0.85434 0.22828 0.0
C821 C 0.91567 0.79166 0.32709 0.0
C822 C 0.95222 0.82063 0.29202 0.0
H823 H 0.83756 0.76359 0.35367 0.0
H824 H 0.92594 0.77231 0.3539 0.0
C825 C 0.93681 0.84332 0.25691 0.0
C826 C 0.27341 0.10881 0.33177 0.0
C827 C 0.23363 0.10298 0.30053 0.0
H828 H 0.32872 0.08303 0.35044 0.0
C829 C 0.22365 0.07045 0.26181 0.0
H830 H 0.28239 0.13405 0.36189 0.0
C831 C 0.24963 0.04151 0.25603 0.0
C832 C 0.28626 0.04316 0.28909 0.0
H833 H 0.19364 0.06537 0.2369 0.0
H834 H 0.23782 1.01479 0.22689 0.0
C835 C 0.29952 0.07923 0.32582 0.0
C836 C 1.03034 0.21428 0.2629 0.0
C837 C 1.04085 0.25399 0.29612 0.0
H838 H 0.97907 0.13511 0.23951 0.0
C839 C 1.00627 0.24023 0.33406 0.0
H840 H 0.05632 0.22174 0.23374 0.0
C841 C 0.9609 0.18976 0.33706 0.0
C842 C 0.95084 0.15102 0.30328 0.0
H843 H 1.0139 0.26842 0.36112 0.0
H844 H 0.93323 0.18133 0.36521 0.0
C845 C 0.9865 0.16371 0.26666 0.0
C846 C 0.26506 0.77524 0.34616 0.0
C847 C 0.2737 0.80958 0.38349 0.0
H848 H 0.22579 0.69519 0.32175 0.0
C849 C 0.25629 0.78776 0.42772 0.0
H850 H 0.27989 0.79103 0.31198 0.0
C851 C 0.22573 0.73281 0.43363 0.0
C852 C 0.21249 0.69812 0.39552 0.0
H853 H 0.26407 0.81335 0.45743 0.0
H854 H 0.21139 0.71766 0.46805 0.0
C855 C 0.23452 0.72015 0.35201 0.0
C856 C 0.33442 0.50625 0.30963 0.0
C857 C 0.29657 0.48508 0.34509 0.0
H858 H 0.41644 0.54233 0.29182 0.0
C859 C 0.31346 0.49399 0.39133 0.0
H860 H 0.32207 0.50109 0.27367 0.0
C861 C 0.36738 0.51911 0.40199 0.0
C862 C 0.40569 0.53539 0.36657 0.0
H863 H 0.28482 0.48002 0.41927 0.0
H864 H 0.37883 0.52406 0.43814 0.0
C865 C 0.38851 0.53041 0.32018 0.0
C866 C 0.58026 0.85456 0.42759 0.0
C867 C 0.56249 0.87068 0.38862 0.0
H868 H 0.62321 0.81757 0.45303 0.0
C869 C 0.56818 0.85291 0.34465 0.0
H870 H 0.57477 0.86518 0.46227 0.0
C871 C 0.59565 0.82479 0.33961 0.0
C872 C 0.61879 0.81473 0.37825 0.0
H873 H 0.55464 0.8637 0.31377 0.0
H874 H 0.60117 0.81339 0.30523 0.0
C875 C 0.60788 0.82692 0.42244 0.0
C876 C 0.59867 0.1857 0.59378 0.0
C877 C 0.61327 0.15793 0.62435 0.0
H878 H 0.53785 0.19844 0.56769 0.0
C879 C 0.57483 0.12191 0.65533 0.0
H880 H 0.62674 0.21238 0.56847 0.0
C881 C 0.52296 0.11406 0.65547 0.0
C882 C 0.50738 0.13994 0.62335 0.0
H883 H 0.58443 0.0986 0.67842 0.0
H884 H 0.4949 0.08659 0.67971 0.0
C885 C 0.54683 0.17663 0.59299 0.0
C886 C 0.94231 0.41145 0.58751 0.0
C887 C 0.96143 0.39609 0.626 0.0
H888 H 0.89968 0.44935 0.56345 0.0
C889 C 0.96208 0.41854 0.66913 0.0
H890 H 0.94174 0.3958 0.55342 0.0
C891 C 0.93731 0.44917 0.67507 0.0
C892 C 0.91283 0.45909 0.63735 0.0
H893 H 0.97866 0.40921 0.69849 0.0
H894 H 0.93446 0.46234 0.7095 0.0
C895 C 0.91796 0.44216 0.59317 0.0
C896 C 0.70491 0.55245 0.59779 0.0
C897 C 0.70961 0.59193 0.62915 0.0
H898 H 0.65857 0.47285 0.57299 0.0
C899 C 0.66992 0.57704 0.66281 0.0
H900 H 0.73468 0.56118 0.57153 0.0
C901 C 0.62537 0.52578 0.66316 0.0
C902 C 0.62079 0.48723 0.6311 0.0
H903 H 0.67245 0.6054 0.68779 0.0
H904 H 0.59371 0.51673 0.68752 0.0
C905 C 0.6616 0.50106 0.59901 0.0
C906 C 0.89295 0.06955 0.75043 0.0
C907 C 0.87776 0.03709 0.71068 0.0
H908 H 0.93202 0.14844 0.7778 0.0
C909 C 0.8983 0.06135 0.66749 0.0
H910 H 0.87982 0.0525 0.78453 0.0
C911 C 0.92881 0.11683 0.66385 0.0
C912 C 0.93855 0.14897 0.70314 0.0
H913 H 0.8881 0.0379 0.63613 0.0
H914 H 0.94256 0.13464 0.63006 0.0
C915 C 0.92311 0.12465 0.74668 0.0
C916 C 0.98187 0.84117 0.6721 0.0
C917 C 0.94905 0.82464 0.71149 0.0
H918 H 0.0613 0.87639 0.64599 0.0
C919 C 0.97252 0.84125 0.75525 0.0
H920 H 0.96473 0.83091 0.63775 0.0
C921 C 1.02763 0.8681 0.76004 0.0
C922 C 0.06087 0.87952 0.7211 0.0
H923 H 0.94818 0.83076 0.78612 0.0
H924 H 1.04415 0.87793 0.79463 0.0
C925 C 1.03727 0.86796 0.67684 0.0
C926 C 0.27624 0.17802 0.75244 0.0
C927 C 0.28529 0.16403 0.70829 0.0
H928 H 0.24536 0.21815 0.79238 0.0
C929 C 0.26196 0.17417 0.66984 0.0
H930 H 0.29166 0.16865 0.78297 0.0
C931 C 0.23598 0.20379 0.67494 0.0
C932 C 0.23175 0.22274 0.71884 0.0
H933 H 0.26597 0.16141 0.63557 0.0
H934 H 0.22204 0.2143 0.64416 0.0
C935 C 0.2499 0.20685 0.75768 0.0
C936 C 0.17715 0.42837 0.15855 0.0
C937 C 0.16585 0.44236 0.20193 0.0
H938 H 0.16952 0.43104 0.08449 0.0
C939 C 0.14858 0.47997 0.20262 0.0
H940 H 0.19018 0.39956 0.15632 0.0
C941 C 0.13733 0.49845 0.16162 0.0
C942 C 0.1437 0.48069 0.11831 0.0
H943 H 0.14011 0.49262 0.23525 0.0
H944 H 0.11878 0.52263 0.16408 0.0
C945 C 0.16592 0.44714 0.11726 0.0
C946 C 0.62051 0.67437 0.20621 0.0
C947 C 0.65004 0.73025 0.20699 0.0
H948 H 0.58269 0.60365 0.16535 0.0
C949 C 0.65391 0.75713 0.16549 0.0
H950 H 0.61613 0.65177 0.23725 0.0
C951 C 0.63319 0.72871 0.12387 0.0
C952 C 0.608 0.6729 0.12264 0.0
H953 H 0.67642 0.7998 0.1642 0.0
H954 H 0.64111 0.75076 0.09206 0.0
C955 C 0.60001 0.64627 0.16486 0.0
C956 C 0.36354 0.93696 0.12123 0.0
C957 C 0.4183 0.95496 0.11745 0.0
H958 H 0.29627 0.91318 0.16557 0.0
C959 C 0.445 0.95431 0.15771 0.0
H960 H 0.34179 0.93921 0.09203 0.0
C961 C 0.41864 0.94032 0.20076 0.0
C962 C 0.36482 0.9261 0.20463 0.0
H963 H 0.48718 0.96927 0.15701 0.0
H964 H 0.44143 0.94421 0.23166 0.0
C965 C 0.33704 0.92222 0.16394 0.0
C966 C 0.47449 0.15038 0.86843 0.0
C967 C 0.49578 0.11612 0.86877 0.0
H968 H 0.44305 0.19038 0.82844 0.0
C969 C 0.51146 0.10515 0.82616 0.0
H970 H 0.46187 0.16004 0.90036 0.0
C971 C 0.50143 0.12395 0.78441 0.0
C972 C 0.47586 0.15442 0.78393 0.0
H973 H 0.52699 0.07833 0.82456 0.0
H974 H 0.50917 0.11013 0.75243 0.0
C975 C 0.46454 0.16898 0.82688 0.0
C976 C 0.96006 0.33023 0.87144 0.0
C977 C 0.97852 0.38519 0.8744 0.0
H978 H 0.93119 0.26142 0.82858 0.0
C979 C 0.96925 0.40907 0.83587 0.0
H980 H 0.96453 0.30901 0.90028 0.0
C981 C 0.94741 0.38005 0.79448 0.0
C982 C 0.9352 0.32679 0.79007 0.0
H983 H 0.98064 0.45045 0.83681 0.0
H984 H 0.94328 0.40063 0.76534 0.0
C985 C 0.93913 0.30189 0.83028 0.0
C986 C 0.69002 0.61376 0.78951 0.0
C987 C 0.74355 0.62658 0.78764 0.0
H988 H 0.62109 0.59119 0.83107 0.0
C989 C 0.76526 0.61652 0.82703 0.0
H990 H 0.67211 0.62221 0.76067 0.0
C991 C 0.7355 0.59881 0.86823 0.0
C992 C 0.68335 0.59039 0.87081 0.0
H993 H 0.80644 0.62685 0.82738 0.0
H994 H 0.7548 0.59573 0.89921 0.0
C995 C 0.66017 0.59555 0.83026 0.0
C996 C 0.8348 0.78023 0.45609 0.0
C997 C 0.81553 0.8162 0.45298 0.0
H998 H 0.85713 0.73462 0.49959 0.0
C999 C 0.81307 0.84042 0.49421 0.0
H1000 H 0.83501 0.75833 0.42631 0.0
C1001 C 0.82478 0.82547 0.53707 0.0
C1002 C 0.83956 0.78612 0.54007 0.0
H1003 H 0.79705 0.86685 0.49416 0.0
H1004 H 0.81833 0.84197 0.56833 0.0
C1005 C 0.84718 0.7658 0.49878 0.0
C1006 C 0.2602 0.98704 0.4924 0.0
C1007 C 0.28525 1.01122 0.45062 0.0
H1008 H 0.25737 0.99467 0.5662 0.0
C1009 C 0.32265 0.06596 0.45205 0.0
H1010 H 0.23298 0.94489 0.49369 0.0
C1011 C 0.33684 0.09483 0.49369 0.0
C1012 C 0.315 0.06947 0.53573 0.0
H1013 H 0.34559 0.08585 0.42197 0.0
H1014 H 0.36877 0.13547 0.49339 0.0
C1015 C 0.2749 1.01572 0.53428 0.0
C1016 C 1.02009 0.25028 0.49825 0.0
C1017 C 1.04236 0.27933 0.53916 0.0
H1018 H 1.03271 0.23943 0.42647 0.0
C1019 C 0.09753 0.31491 0.53931 0.0
H1020 H 0.97836 0.22173 0.49661 0.0
C1021 C 0.128 0.32563 0.49925 0.0
C1022 C 0.1052 0.30044 0.45737 0.0
H1023 H 0.11742 0.33743 0.57 0.0
H1024 H 0.16903 0.35676 0.50031 0.0
C1025 C 0.05144 0.26046 0.45784 0.0
loop_
_geom_bond_atom_site_label_1
_geom_bond_atom_site_label_2
_geom_bond_distance
_geom_bond_site_symmetry_2
_ccdc_geom_bond_type
Tb0 N31 2.658 1_456 S
Tb0 N38 2.600 . S
Tb0 O44 2.546 . S
Tb0 O45 2.610 1_556 S
Tb0 O47 2.320 1_556 S
Tb0 O48 2.552 . S
Tb0 O49 2.413 1_556 S
Tb0 O51 2.358 1_456 S
Tb0 O52 2.421 . S
Tb0 C64 2.833 . S
C1 C4 1.432 . S
C1 C5 1.414 . S
C1 N8 1.359 1_455 S
C2 C4 1.417 1_556 S
C2 C6 1.432 1_556 S
C2 C14 1.410 . S
C3 C5 1.444 . S
C3 C6 1.317 . S
C3 H26 0.929 . S
C4 C1 1.432 . S
C4 C2 1.417 1_554 S
C4 N12 1.360 1_554 S
C5 C1 1.414 . S
C5 C3 1.444 . S
C5 C10 1.385 . S
C6 C2 1.432 1_554 S
C6 C3 1.317 . S
C6 H18 0.930 . S
C7 C9 1.392 . S
C7 C10 1.370 1_655 S
C7 H19 0.931 . S
N8 C1 1.359 1_655 S
N8 C9 1.327 . S
N8 Tb11 2.600 . S
C9 C7 1.392 . S
C9 N8 1.327 . S
C9 H16 0.930 . S
C10 C5 1.385 . S
C10 C7 1.370 1_455 S
C10 H29 0.930 . S
Tb11 N8 2.600 . S
Tb11 N12 2.660 1_654 S
Tb11 O45 2.362 1_655 S
Tb11 O46 2.421 . S
Tb11 O50 2.546 . S
Tb11 O51 2.614 . S
Tb11 O53 2.320 1_554 S
Tb11 O54 2.552 . S
Tb11 O55 2.413 1_554 S
Tb11 C75 2.833 . S
N12 C4 1.360 1_556 S
N12 Tb11 2.660 1_456 S
N12 C13 1.305 . S
C13 N12 1.305 . S
C13 C15 1.407 . S
C13 H20 0.930 . S
C14 C2 1.410 . S
C14 C15 1.345 . S
C14 H22 0.930 . S
C15 C13 1.407 . S
C15 C14 1.345 . S
C15 H17 0.930 . S
H16 C9 0.930 . S
H17 C15 0.930 . S
H18 C6 0.930 . S
H19 C7 0.931 . S
H20 C13 0.930 . S
H21 C35 0.930 . S
H22 C14 0.930 . S
H23 C41 0.930 . S
H24 C32 0.946 . S
H25 C39 0.931 . S
H26 C3 0.929 . S
H27 C33 0.930 . S
H28 C66 0.930 . S
H29 C10 0.930 . S
H30 C65 0.929 . S
N31 Tb0 2.658 1_654 S
N31 C32 1.305 . S
N31 C36 1.361 1_554 S
C32 H24 0.946 . S
C32 N31 1.305 . S
C32 C35 1.407 . S
C33 H27 0.930 . S
C33 C34 1.410 . S
C33 C35 1.345 . S
C34 C33 1.410 . S
C34 C36 1.417 1_554 S
C34 C66 1.432 1_554 S
C35 H21 0.930 . S
C35 C32 1.407 . S
C35 C33 1.345 . S
C36 N31 1.361 1_556 S
C36 C34 1.417 1_556 S
C36 C40 1.432 . S
H37 C42 0.930 . S
N38 Tb0 2.600 . S
N38 C40 1.359 1_455 S
N38 C41 1.327 . S
C39 H25 0.931 . S
C39 C41 1.392 . S
C39 C42 1.370 1_455 S
C40 C36 1.432 . S
C40 N38 1.359 1_655 S
C40 C43 1.414 . S
C41 H23 0.930 . S
C41 N38 1.327 . S
C41 C39 1.392 . S
C42 H37 0.930 . S
C42 C39 1.370 1_655 S
C42 C43 1.385 . S
C43 C40 1.414 . S
C43 C42 1.385 . S
C43 C65 1.444 . S
O44 Tb0 2.546 . S
O44 C64 1.251 . S
O45 Tb0 2.610 1_554 S
O45 Tb11 2.362 1_455 S
O45 C56 1.283 1_554 S
O46 Tb11 2.421 . S
O46 C63 1.262 1_655 S
O47 Tb0 2.320 1_554 S
O47 C63 1.260 . S
O48 Tb0 2.552 . S
O48 C56 1.243 . S
O49 Tb0 2.413 1_554 S
O49 C64 1.256 1_554 S
O50 Tb11 2.546 . S
O50 C75 1.251 . S
O51 Tb0 2.358 1_654 S
O51 Tb11 2.614 . S
O51 C67 1.287 . S
O52 Tb0 2.421 . S
O52 C74 1.262 1_455 S
O53 Tb11 2.320 1_556 S
O53 C74 1.260 . S
O54 Tb11 2.552 . S
O54 C67 1.243 . S
O55 Tb11 2.413 1_556 S
O55 C75 1.256 1_556 S
C56 O45 1.283 1_556 S
C56 O48 1.243 . S
C57 C59 1.382 1_556 S
C57 C61 1.393 . S
C57 C64 1.500 . S
C58 C59 1.400 . S
C58 C60 1.384 1_554 S
C59 C57 1.382 1_554 S
C59 C58 1.400 . S
C59 H76 0.930 . S
C60 C58 1.384 1_556 S
C60 C62 1.392 . S
C60 H77 0.931 . S
C61 C57 1.393 . S
C61 C62 1.401 . S
C61 H78 0.930 . S
C62 C60 1.392 . S
C62 C61 1.401 . S
C62 H79 0.930 . S
C63 O46 1.262 1_455 S
C63 O47 1.260 . S
C64 Tb0 2.833 . S
C64 O44 1.251 . S
C64 O49 1.256 1_556 S
C64 C57 1.500 . S
C65 H30 0.929 . S
C65 C43 1.444 . S
C65 C66 1.317 . S
C66 H28 0.930 . S
C66 C34 1.432 1_556 S
C66 C65 1.317 . S
C67 O51 1.287 . S
C67 O54 1.243 . S
C68 C69 1.382 1_554 S
C68 C72 1.393 . S
C68 C75 1.500 . S
C69 C68 1.382 1_556 S
C69 C70 1.400 . S
C69 H80 0.930 . S
C70 C69 1.400 . S
C70 C71 1.385 1_556 S
C71 C70 1.385 1_554 S
C71 C73 1.392 . S
C71 H81 0.931 . S
C72 C68 1.393 . S
C72 C73 1.401 . S
C72 H82 0.930 . S
C73 C71 1.392 . S
C73 C72 1.401 . S
C73 H83 0.930 . S
C74 O52 1.262 1_655 S
C74 O53 1.260 . S
C75 Tb11 2.833 . S
C75 O50 1.251 . S
C75 O55 1.256 1_554 S
C75 C68 1.500 . S
H76 C59 0.930 . S
H77 C60 0.931 . S
H78 C61 0.930 . S
H79 C62 0.930 . S
H80 C69 0.930 . S
H81 C71 0.931 . S
H82 C72 0.930 . S
H83 C73 0.930 . S
Tb84 N115 2.660 1_556 S
Tb84 N122 2.600 . S
Tb84 O128 2.546 . S
Tb84 O129 2.610 1_556 S
Tb84 O131 2.320 1_556 S
Tb84 O132 2.552 . S
Tb84 O133 2.413 1_556 S
Tb84 O135 2.358 1_556 S
Tb84 O136 2.421 . S
Tb84 C148 2.833 . S
C85 C88 1.432 . S
C85 C89 1.414 . S
C85 N92 1.359 . S
C86 C88 1.417 1_556 S
C86 C90 1.432 1_556 S
C86 C98 1.410 . S
C87 C89 1.444 . S
C87 C90 1.317 . S
C87 H110 0.929 . S
C88 C85 1.432 . S
C88 C86 1.417 1_554 S
C88 N96 1.360 1_554 S
C89 C85 1.414 . S
C89 C87 1.444 . S
C89 C94 1.385 . S
C90 C86 1.432 1_554 S
C90 C87 1.317 . S
C90 H102 0.930 . S
C91 C93 1.392 . S
C91 C94 1.370 . S
C91 H103 0.931 . S
N92 C85 1.359 . S
N92 C93 1.327 . S
N92 Tb95 2.600 . S
C93 C91 1.392 . S
C93 N92 1.327 . S
C93 H100 0.930 . S
C94 C89 1.385 . S
C94 C91 1.370 . S
C94 H113 0.930 . S
Tb95 N92 2.600 . S
Tb95 N96 2.660 1_554 S
Tb95 O129 2.362 . S
Tb95 O130 2.421 . S
Tb95 O134 2.546 . S
Tb95 O135 2.614 . S
Tb95 O137 2.320 1_554 S
Tb95 O138 2.552 . S
Tb95 O139 2.413 1_554 S
Tb95 C159 2.833 . S
N96 C88 1.360 1_556 S
N96 Tb95 2.660 1_556 S
N96 C97 1.305 . S
C97 N96 1.305 . S
C97 C99 1.407 . S
C97 H104 0.930 . S
C98 C86 1.410 . S
C98 C99 1.345 . S
C98 H106 0.930 . S
C99 C97 1.407 . S
C99 C98 1.345 . S
C99 H101 0.930 . S
H100 C93 0.930 . S
H101 C99 0.930 . S
H102 C90 0.930 . S
H103 C91 0.931 . S
H104 C97 0.930 . S
H105 C119 0.930 . S
H106 C98 0.930 . S
H107 C125 0.930 . S
H108 C116 0.930 . S
H109 C123 0.931 . S
H110 C87 0.929 . S
H111 C117 0.930 . S
H112 C150 0.930 . S
H113 C94 0.930 . S
H114 C149 0.929 . S
N115 Tb84 2.660 1_554 S
N115 C116 1.305 . S
N115 C120 1.360 1_554 S
C116 H108 0.930 . S
C116 N115 1.305 . S
C116 C119 1.407 . S
C117 H111 0.930 . S
C117 C118 1.410 . S
C117 C119 1.345 . S
C118 C117 1.410 . S
C118 C120 1.417 1_554 S
C118 C150 1.432 1_554 S
C119 H105 0.930 . S
C119 C116 1.407 . S
C119 C117 1.345 . S
C120 N115 1.360 1_556 S
C120 C118 1.417 1_556 S
C120 C124 1.432 . S
H121 C126 0.930 . S
N122 Tb84 2.600 . S
N122 C124 1.359 . S
N122 C125 1.327 . S
C123 H109 0.931 . S
C123 C125 1.392 . S
C123 C126 1.370 . S
C124 C120 1.432 . S
C124 N122 1.359 . S
C124 C127 1.414 . S
C125 H107 0.930 . S
C125 N122 1.327 . S
C125 C123 1.392 . S
C126 H121 0.930 . S
C126 C123 1.370 . S
C126 C127 1.385 . S
C127 C124 1.414 . S
C127 C126 1.385 . S
C127 C149 1.444 . S
O128 Tb84 2.546 . S
O128 C148 1.251 . S
O129 Tb84 2.610 1_554 S
O129 Tb95 2.362 . S
O129 C140 1.283 1_554 S
O130 Tb95 2.421 . S
O130 C147 1.262 . S
O131 Tb84 2.320 1_554 S
O131 C147 1.260 . S
O132 Tb84 2.552 . S
O132 C140 1.243 . S
O133 Tb84 2.413 1_554 S
O133 C148 1.256 1_554 S
O134 Tb95 2.546 . S
O134 C159 1.251 . S
O135 Tb84 2.358 1_554 S
O135 Tb95 2.614 . S
O135 C151 1.287 . S
O136 Tb84 2.421 . S
O136 C158 1.262 . S
O137 Tb95 2.320 1_556 S
O137 C158 1.260 . S
O138 Tb95 2.552 . S
O138 C151 1.243 . S
O139 Tb95 2.413 1_556 S
O139 C159 1.256 1_556 S
C140 O129 1.283 1_556 S
C140 O132 1.243 . S
C141 C143 1.382 1_556 S
C141 C145 1.393 . S
C141 C148 1.500 . S
C142 C143 1.400 . S
C142 C144 1.384 1_554 S
C143 C141 1.382 1_554 S
C143 C142 1.400 . S
C143 H160 0.930 . S
C144 C142 1.384 1_556 S
C144 C146 1.392 . S
C144 H161 0.931 . S
C145 C141 1.393 . S
C145 C146 1.401 . S
C145 H162 0.930 . S
C146 C144 1.392 . S
C146 C145 1.401 . S
C146 H163 0.930 . S
C147 O130 1.262 . S
C147 O131 1.260 . S
C148 Tb84 2.833 . S
C148 O128 1.251 . S
C148 O133 1.256 1_556 S
C148 C141 1.500 . S
C149 H114 0.929 . S
C149 C127 1.444 . S
C149 C150 1.317 . S
C150 H112 0.930 . S
C150 C118 1.432 1_556 S
C150 C149 1.317 . S
C151 O135 1.287 . S
C151 O138 1.243 . S
C152 C153 1.382 1_554 S
C152 C156 1.393 . S
C152 C159 1.500 . S
C153 C152 1.382 1_556 S
C153 C154 1.400 . S
C153 H164 0.930 . S
C154 C153 1.400 . S
C154 C155 1.385 1_556 S
C155 C154 1.385 1_554 S
C155 C157 1.392 . S
C155 H165 0.931 . S
C156 C152 1.393 . S
C156 C157 1.401 . S
C156 H166 0.930 . S
C157 C155 1.392 . S
C157 C156 1.401 . S
C157 H167 0.930 . S
C158 O136 1.262 . S
C158 O137 1.260 . S
C159 Tb95 2.833 . S
C159 O134 1.251 . S
C159 O139 1.256 1_554 S
C159 C152 1.500 . S
H160 C143 0.930 . S
H161 C144 0.931 . S
H162 C145 0.930 . S
H163 C146 0.930 . S
H164 C153 0.930 . S
H165 C155 0.931 . S
H166 C156 0.930 . S
H167 C157 0.930 . S
Tb168 N199 2.660 1_566 S
Tb168 N206 2.600 . S
Tb168 O212 2.546 . S
Tb168 O213 2.610 1_556 S
Tb168 O215 2.320 1_556 S
Tb168 O216 2.552 . S
Tb168 O217 2.413 1_556 S
Tb168 O219 2.358 1_566 S
Tb168 O220 2.421 . S
Tb168 C232 2.833 . S
C169 C172 1.432 . S
C169 C173 1.414 . S
C169 N176 1.359 1_565 S
C170 C172 1.417 1_556 S
C170 C174 1.432 1_556 S
C170 C182 1.410 . S
C171 C173 1.444 . S
C171 C174 1.317 . S
C171 H194 0.929 . S
C172 C169 1.432 . S
C172 C170 1.417 1_554 S
C172 N180 1.363 1_564 S
C173 C169 1.414 . S
C173 C171 1.444 . S
C173 C178 1.385 . S
C174 C170 1.432 1_554 S
C174 C171 1.317 . S
C174 H186 0.930 . S
C175 C177 1.392 . S
C175 C178 1.370 1_545 S
C175 H187 0.931 . S
N176 C169 1.359 1_545 S
N176 C177 1.327 . S
N176 Tb179 2.600 . S
C177 C175 1.392 . S
C177 N176 1.327 . S
C177 H184 0.930 . S
C178 C173 1.385 . S
C178 C175 1.370 1_565 S
C178 H197 0.930 . S
Tb179 N176 2.600 . S
Tb179 N180 2.660 1_554 S
Tb179 O213 2.362 1_545 S
Tb179 O214 2.421 . S
Tb179 O218 2.546 . S
Tb179 O219 2.614 . S
Tb179 O221 2.320 1_554 S
Tb179 O222 2.552 . S
Tb179 O223 2.413 1_554 S
Tb179 C243 2.833 . S
N180 C172 1.363 1_546 S
N180 Tb179 2.660 1_556 S
N180 C181 1.301 1_545 S
C181 N180 1.301 1_565 S
C181 C183 1.407 . S
C181 H188 0.930 1_565 S
C182 C170 1.410 . S
C182 C183 1.345 . S
C182 H190 0.930 . S
C183 C181 1.407 . S
C183 C182 1.345 . S
C183 H185 0.930 . S
H184 C177 0.930 . S
H185 C183 0.930 . S
H186 C174 0.930 . S
H187 C175 0.931 . S
H188 C181 0.930 1_545 S
H189 C203 0.930 . S
H190 C182 0.930 . S
H191 C209 0.930 . S
H192 C200 0.930 . S
H193 C207 0.931 . S
H194 C171 0.929 . S
H195 C201 0.930 . S
H196 C234 0.930 . S
H197 C178 0.930 . S
H198 C233 0.929 . S
N199 Tb168 2.660 1_544 S
N199 C200 1.305 . S
N199 C204 1.360 1_554 S
C200 H192 0.930 . S
C200 N199 1.305 . S
C200 C203 1.407 . S
C201 H195 0.930 . S
C201 C202 1.410 . S
C201 C203 1.345 . S
C202 C201 1.410 . S
C202 C204 1.417 1_554 S
C202 C234 1.432 1_554 S
C203 H189 0.930 . S
C203 C200 1.407 . S
C203 C201 1.345 . S
C204 N199 1.360 1_556 S
C204 C202 1.417 1_556 S
C204 C208 1.432 . S
H205 C210 0.930 . S
N206 Tb168 2.600 . S
N206 C208 1.359 1_565 S
N206 C209 1.327 . S
C207 H193 0.931 . S
C207 C209 1.392 . S
C207 C210 1.370 1_565 S
C208 C204 1.432 . S
C208 N206 1.359 1_545 S
C208 C211 1.414 . S
C209 H191 0.930 . S
C209 N206 1.327 . S
C209 C207 1.392 . S
C210 H205 0.930 . S
C210 C207 1.370 1_545 S
C210 C211 1.385 . S
C211 C208 1.414 . S
C211 C210 1.385 . S
C211 C233 1.444 . S
O212 Tb168 2.546 . S
O212 C232 1.251 . S
O213 Tb168 2.610 1_554 S
O213 Tb179 2.362 1_565 S
O213 C224 1.283 1_554 S
O214 Tb179 2.421 . S
O214 C231 1.262 1_545 S
O215 Tb168 2.320 1_554 S
O215 C231 1.260 . S
O216 Tb168 2.552 . S
O216 C224 1.243 . S
O217 Tb168 2.413 1_554 S
O217 C232 1.256 1_554 S
O218 Tb179 2.546 . S
O218 C243 1.251 . S
O219 Tb168 2.358 1_544 S
O219 Tb179 2.614 . S
O219 C235 1.287 . S
O220 Tb168 2.421 . S
O220 C242 1.262 1_565 S
O221 Tb179 2.320 1_556 S
O221 C242 1.260 . S
O222 Tb179 2.552 . S
O222 C235 1.243 . S
O223 Tb179 2.413 1_556 S
O223 C243 1.256 1_556 S
C224 O213 1.283 1_556 S
C224 O216 1.243 . S
C225 C227 1.382 1_556 S
C225 C229 1.393 . S
C225 C232 1.500 . S
C226 C227 1.400 . S
C226 C228 1.384 1_554 S
C227 C225 1.382 1_554 S
C227 C226 1.400 . S
C227 H244 0.930 . S
C228 C226 1.384 1_556 S
C228 C230 1.392 . S
C228 H245 0.931 . S
C229 C225 1.393 . S
C229 C230 1.401 . S
C229 H246 0.930 . S
C230 C228 1.392 . S
C230 C229 1.401 . S
C230 H247 0.930 . S
C231 O214 1.262 1_565 S
C231 O215 1.260 . S
C232 Tb168 2.833 . S
C232 O212 1.251 . S
C232 O217 1.256 1_556 S
C232 C225 1.500 . S
C233 H198 0.929 . S
C233 C211 1.444 . S
C233 C234 1.317 . S
C234 H196 0.930 . S
C234 C202 1.432 1_556 S
C234 C233 1.317 . S
C235 O219 1.287 . S
C235 O222 1.243 . S
C236 C237 1.382 1_554 S
C236 C240 1.393 . S
C236 C243 1.500 . S
C237 C236 1.382 1_556 S
C237 C238 1.400 . S
C237 H248 0.930 . S
C238 C237 1.400 . S
C238 C239 1.385 1_556 S
C239 C238 1.385 1_554 S
C239 C241 1.392 . S
C239 H249 0.931 . S
C240 C236 1.393 . S
C240 C241 1.401 . S
C240 H250 0.930 . S
C241 C239 1.392 . S
C241 C240 1.401 . S
C241 H251 0.930 . S
C242 O220 1.262 1_545 S
C242 O221 1.260 . S
C243 Tb179 2.833 . S
C243 O218 1.251 . S
C243 O223 1.256 1_554 S
C243 C236 1.500 . S
H244 C227 0.930 . S
H245 C228 0.931 . S
H246 C229 0.930 . S
H247 C230 0.930 . S
H248 C237 0.930 . S
H249 C239 0.931 . S
H250 C240 0.930 . S
H251 C241 0.930 . S
Tb252 N283 2.660 . S
Tb252 N290 2.600 . S
Tb252 O296 2.546 . S
Tb252 O297 2.610 . S
Tb252 O299 2.320 . S
Tb252 O300 2.552 . S
Tb252 O301 2.413 . S
Tb252 O303 2.362 . S
Tb252 O304 2.421 . S
Tb252 C316 2.833 . S
C253 C256 1.432 . S
C253 C257 1.414 . S
C253 N260 1.359 . S
C254 C256 1.417 . S
C254 C258 1.432 . S
C254 C266 1.410 . S
C255 C257 1.444 . S
C255 C258 1.317 . S
C255 H278 0.929 . S
C256 C253 1.432 . S
C256 C254 1.417 . S
C256 N264 1.360 . S
C257 C253 1.414 . S
C257 C255 1.444 . S
C257 C262 1.385 . S
C258 C254 1.432 . S
C258 C255 1.317 . S
C258 H270 0.930 . S
C259 C261 1.392 . S
C259 C262 1.370 . S
C259 H271 0.931 . S
N260 C253 1.359 . S
N260 C261 1.327 . S
N260 Tb263 2.600 . S
C261 C259 1.392 . S
C261 N260 1.327 . S
C261 H268 0.930 . S
C262 C257 1.385 . S
C262 C259 1.370 . S
C262 H281 0.930 . S
Tb263 N260 2.600 . S
Tb263 N264 2.660 . S
Tb263 O297 2.362 . S
Tb263 O298 2.421 . S
Tb263 O302 2.546 . S
Tb263 O303 2.610 . S
Tb263 O305 2.320 . S
Tb263 O306 2.552 . S
Tb263 O307 2.413 . S
Tb263 C327 2.833 . S
N264 C256 1.360 . S
N264 Tb263 2.660 . S
N264 C265 1.305 . S
C265 N264 1.305 . S
C265 C267 1.407 . S
C265 H272 0.930 . S
C266 C254 1.410 . S
C266 C267 1.345 . S
C266 H274 0.930 . S
C267 C265 1.407 . S
C267 C266 1.345 . S
C267 H269 0.930 . S
H268 C261 0.930 . S
H269 C267 0.930 . S
H270 C258 0.930 . S
H271 C259 0.931 . S
H272 C265 0.930 . S
H273 C287 0.930 . S
H274 C266 0.930 . S
H275 C293 0.930 . S
H276 C284 0.930 . S
H277 C291 0.931 . S
H278 C255 0.929 . S
H279 C285 0.930 . S
H280 C318 0.944 . S
H281 C262 0.930 . S
H282 C317 0.929 . S
N283 Tb252 2.660 . S
N283 C284 1.305 . S
N283 C288 1.360 . S
C284 H276 0.930 . S
C284 N283 1.305 . S
C284 C287 1.407 . S
C285 H279 0.930 . S
C285 C286 1.410 . S
C285 C287 1.345 . S
C286 C285 1.410 . S
C286 C288 1.417 . S
C286 C318 1.418 1_565 S
C287 H273 0.930 . S
C287 C284 1.407 . S
C287 C285 1.345 . S
C288 N283 1.360 . S
C288 C286 1.417 . S
C288 C292 1.432 . S
H289 C294 0.930 1_545 S
N290 Tb252 2.600 . S
N290 C292 1.359 . S
N290 C293 1.327 . S
C291 H277 0.931 . S
C291 C293 1.392 . S
C291 C294 1.370 . S
C292 C288 1.432 . S
C292 N290 1.359 . S
C292 C295 1.414 . S
C293 H275 0.930 . S
C293 N290 1.327 . S
C293 C291 1.392 . S
C294 H289 0.930 1_565 S
C294 C291 1.370 . S
C294 C295 1.385 . S
C295 C292 1.414 . S
C295 C294 1.385 . S
C295 C317 1.444 1_565 S
O296 Tb252 2.546 . S
O296 C316 1.251 . S
O297 Tb252 2.610 . S
O297 Tb263 2.362 . S
O297 C308 1.283 . S
O298 Tb263 2.421 . S
O298 C315 1.262 . S
O299 Tb252 2.320 . S
O299 C315 1.260 . S
O300 Tb252 2.552 . S
O300 C308 1.243 . S
O301 Tb252 2.413 . S
O301 C316 1.256 . S
O302 Tb263 2.546 . S
O302 C327 1.251 . S
O303 Tb252 2.362 . S
O303 Tb263 2.610 . S
O303 C319 1.283 . S
O304 Tb252 2.421 . S
O304 C326 1.262 . S
O305 Tb263 2.320 . S
O305 C326 1.260 . S
O306 Tb263 2.552 . S
O306 C319 1.243 . S
O307 Tb263 2.413 . S
O307 C327 1.256 . S
C308 O297 1.283 . S
C308 O300 1.243 . S
C309 C311 1.382 . S
C309 C313 1.393 . S
C309 C316 1.500 1_545 S
C310 C311 1.400 . S
C310 C312 1.384 . S
C311 C309 1.382 . S
C311 C310 1.400 . S
C311 H328 0.930 . S
C312 C310 1.384 . S
C312 C314 1.392 . S
C312 H329 0.931 . S
C313 C309 1.393 . S
C313 C314 1.401 . S
C313 H330 0.930 . S
C314 C312 1.392 . S
C314 C313 1.401 . S
C314 H331 0.930 . S
C315 O298 1.262 . S
C315 O299 1.260 . S
C316 Tb252 2.833 . S
C316 O296 1.251 . S
C316 O301 1.256 . S
C316 C309 1.500 1_565 S
C317 H282 0.929 . S
C317 C295 1.444 1_545 S
C317 C318 1.317 . S
C318 H280 0.944 . S
C318 C286 1.418 1_545 S
C318 C317 1.317 . S
C319 O303 1.283 . S
C319 O306 1.243 . S
C320 C321 1.382 . S
C320 C324 1.393 . S
C320 C327 1.500 . S
C321 C320 1.382 . S
C321 C322 1.400 . S
C321 H332 0.930 . S
C322 C321 1.400 . S
C322 C323 1.384 . S
C323 C322 1.384 . S
C323 C325 1.392 . S
C323 H333 0.931 . S
C324 C320 1.393 . S
C324 C325 1.401 . S
C324 H334 0.930 . S
C325 C323 1.392 . S
C325 C324 1.401 . S
C325 H335 0.930 . S
C326 O304 1.262 . S
C326 O305 1.260 . S
C327 Tb263 2.833 . S
C327 O302 1.251 . S
C327 O307 1.256 . S
C327 C320 1.500 . S
H328 C311 0.930 . S
H329 C312 0.931 . S
H330 C313 0.930 . S
H331 C314 0.930 . S
H332 C321 0.930 . S
H333 C323 0.931 . S
H334 C324 0.930 . S
H335 C325 0.930 . S
Tb336 N367 2.660 . S
Tb336 N374 2.600 . S
Tb336 O380 2.546 . S
Tb336 O381 2.610 . S
Tb336 O383 2.320 . S
Tb336 O384 2.552 . S
Tb336 O385 2.413 . S
Tb336 O387 2.362 . S
Tb336 O388 2.421 . S
Tb336 C400 2.833 . S
C337 C340 1.432 . S
C337 C341 1.414 . S
C337 N344 1.359 1_545 S
C338 C340 1.417 . S
C338 C342 1.432 . S
C338 C350 1.410 . S
C339 C341 1.444 . S
C339 C342 1.317 . S
C339 H362 0.929 . S
C340 C337 1.432 . S
C340 C338 1.417 . S
C340 N348 1.360 1_545 S
C341 C337 1.414 . S
C341 C339 1.444 . S
C341 C346 1.385 . S
C342 C338 1.432 . S
C342 C339 1.317 . S
C342 H354 0.930 . S
C343 C345 1.392 1_545 S
C343 C346 1.370 . S
C343 H355 0.931 . S
N344 C337 1.359 1_565 S
N344 C345 1.327 . S
N344 Tb347 2.600 . S
C345 C343 1.392 1_565 S
C345 N344 1.327 . S
C345 H352 0.930 . S
C346 C341 1.385 . S
C346 C343 1.370 . S
C346 H365 0.930 . S
Tb347 N344 2.600 . S
Tb347 N348 2.660 . S
Tb347 O381 2.362 . S
Tb347 O382 2.421 . S
Tb347 O386 2.546 . S
Tb347 O387 2.610 . S
Tb347 O389 2.320 . S
Tb347 O390 2.552 . S
Tb347 O391 2.413 . S
Tb347 C411 2.833 . S
N348 C340 1.360 1_565 S
N348 Tb347 2.660 . S
N348 C349 1.305 . S
C349 N348 1.305 . S
C349 C351 1.407 1_565 S
C349 H356 0.930 . S
C350 C338 1.410 . S
C350 C351 1.345 . S
C350 H358 0.930 . S
C351 C349 1.407 1_545 S
C351 C350 1.345 . S
C351 H353 0.930 . S
H352 C345 0.930 . S
H353 C351 0.930 . S
H354 C342 0.930 . S
H355 C343 0.931 . S
H356 C349 0.930 . S
H357 C371 0.930 . S
H358 C350 0.930 . S
H359 C377 0.930 . S
H360 C368 0.930 . S
H361 C375 0.931 . S
H362 C339 0.929 . S
H363 C369 0.930 . S
H364 C402 0.930 1_655 S
H365 C346 0.930 . S
H366 C401 0.929 1_655 S
N367 Tb336 2.660 . S
N367 C368 1.305 . S
N367 C372 1.360 . S
C368 H360 0.930 . S
C368 N367 1.305 . S
C368 C371 1.407 . S
C369 H363 0.930 . S
C369 C370 1.410 . S
C369 C371 1.345 . S
C370 C369 1.410 . S
C370 C372 1.417 . S
C370 C402 1.432 . S
C371 H357 0.930 . S
C371 C368 1.407 . S
C371 C369 1.345 . S
C372 N367 1.360 . S
C372 C370 1.417 . S
C372 C376 1.432 . S
H373 C378 0.930 . S
N374 Tb336 2.600 . S
N374 C376 1.359 . S
N374 C377 1.327 . S
C375 H361 0.931 . S
C375 C377 1.392 . S
C375 C378 1.370 . S
C376 C372 1.432 . S
C376 N374 1.359 . S
C376 C379 1.414 . S
C377 H359 0.930 . S
C377 N374 1.327 . S
C377 C375 1.392 . S
C378 H373 0.930 . S
C378 C375 1.370 . S
C378 C379 1.385 . S
C379 C376 1.414 . S
C379 C378 1.385 . S
C379 C401 1.444 . S
O380 Tb336 2.546 . S
O380 C400 1.251 . S
O381 Tb336 2.610 . S
O381 Tb347 2.362 . S
O381 C392 1.283 . S
O382 Tb347 2.421 . S
O382 C399 1.262 . S
O383 Tb336 2.320 . S
O383 C399 1.260 . S
O384 Tb336 2.552 . S
O384 C392 1.243 . S
O385 Tb336 2.413 . S
O385 C400 1.256 . S
O386 Tb347 2.546 . S
O386 C411 1.251 . S
O387 Tb336 2.362 . S
O387 Tb347 2.610 . S
O387 C403 1.283 . S
O388 Tb336 2.421 . S
O388 C410 1.262 . S
O389 Tb347 2.320 . S
O389 C410 1.260 . S
O390 Tb347 2.552 . S
O390 C403 1.243 . S
O391 Tb347 2.413 . S
O391 C411 1.256 . S
C392 O381 1.283 . S
C392 O384 1.243 . S
C393 C395 1.382 . S
C393 C397 1.393 . S
C393 C400 1.500 1_655 S
C394 C395 1.400 . S
C394 C396 1.384 . S
C395 C393 1.382 . S
C395 C394 1.400 . S
C395 H412 0.930 1_655 S
C396 C394 1.384 . S
C396 C398 1.392 . S
C396 H413 0.931 . S
C397 C393 1.393 . S
C397 C398 1.401 . S
C397 H414 0.930 . S
C398 C396 1.392 . S
C398 C397 1.401 . S
C398 H415 0.930 . S
C399 O382 1.262 . S
C399 O383 1.260 . S
C400 Tb336 2.833 . S
C400 O380 1.251 . S
C400 O385 1.256 . S
C400 C393 1.500 1_455 S
C401 H366 0.929 1_455 S
C401 C379 1.444 . S
C401 C402 1.317 . S
C402 H364 0.930 1_455 S
C402 C370 1.432 . S
C402 C401 1.317 . S
C403 O387 1.283 . S
C403 O390 1.243 . S
C404 C405 1.382 . S
C404 C408 1.393 . S
C404 C411 1.500 . S
C405 C404 1.382 . S
C405 C406 1.400 . S
C405 H416 0.930 . S
C406 C405 1.400 . S
C406 C407 1.384 . S
C407 C406 1.384 . S
C407 C409 1.392 . S
C407 H417 0.931 . S
C408 C404 1.393 . S
C408 C409 1.401 . S
C408 H418 0.930 . S
C409 C407 1.392 . S
C409 C408 1.401 . S
C409 H419 0.930 . S
C410 O388 1.262 . S
C410 O389 1.260 . S
C411 Tb347 2.833 . S
C411 O386 1.251 . S
C411 O391 1.256 . S
C411 C404 1.500 . S
H412 C395 0.930 1_455 S
H413 C396 0.931 . S
H414 C397 0.930 . S
H415 C398 0.930 . S
H416 C405 0.930 . S
H417 C407 0.931 . S
H418 C408 0.930 . S
H419 C409 0.930 . S
Tb420 N451 2.660 . S
Tb420 N458 2.600 . S
Tb420 O464 2.546 . S
Tb420 O465 2.610 . S
Tb420 O467 2.320 . S
Tb420 O468 2.552 . S
Tb420 O469 2.413 . S
Tb420 O471 2.362 . S
Tb420 O472 2.421 . S
Tb420 C484 2.833 . S
C421 C424 1.432 . S
C421 C425 1.414 . S
C421 N428 1.359 1_655 S
C422 C424 1.417 . S
C422 C426 1.432 . S
C422 C434 1.410 . S
C423 C425 1.444 . S
C423 C426 1.317 . S
C423 H446 0.929 . S
C424 C421 1.432 . S
C424 C422 1.417 . S
C424 N432 1.360 1_655 S
C425 C421 1.414 . S
C425 C423 1.444 . S
C425 C430 1.385 . S
C426 C422 1.432 . S
C426 C423 1.317 . S
C426 H438 0.930 . S
C427 C429 1.392 1_655 S
C427 C430 1.370 . S
C427 H439 0.931 1_655 S
N428 C421 1.359 1_455 S
N428 C429 1.327 . S
N428 Tb431 2.600 . S
C429 C427 1.392 1_455 S
C429 N428 1.327 . S
C429 H436 0.930 . S
C430 C425 1.385 . S
C430 C427 1.370 . S
C430 H449 0.930 . S
Tb431 N428 2.600 . S
Tb431 N432 2.660 . S
Tb431 O465 2.362 . S
Tb431 O466 2.421 . S
Tb431 O470 2.546 . S
Tb431 O471 2.610 . S
Tb431 O473 2.320 . S
Tb431 O474 2.552 . S
Tb431 O475 2.413 . S
Tb431 C495 2.833 . S
N432 C424 1.360 1_455 S
N432 Tb431 2.660 . S
N432 C433 1.305 . S
C433 N432 1.305 . S
C433 C435 1.407 1_455 S
C433 H440 0.930 . S
C434 C422 1.410 . S
C434 C435 1.345 . S
C434 H442 0.930 . S
C435 C433 1.407 1_655 S
C435 C434 1.345 . S
C435 H437 0.930 . S
H436 C429 0.930 . S
H437 C435 0.930 . S
H438 C426 0.930 . S
H439 C427 0.931 1_455 S
H440 C433 0.930 . S
H441 C455 0.930 . S
H442 C434 0.930 . S
H443 C461 0.930 . S
H444 C452 0.930 . S
H445 C459 0.931 . S
H446 C423 0.929 . S
H447 C453 0.930 . S
H448 C486 0.930 . S
H449 C430 0.930 . S
H450 C485 0.929 . S
N451 Tb420 2.660 . S
N451 C452 1.305 . S
N451 C456 1.360 . S
C452 H444 0.930 . S
C452 N451 1.305 . S
C452 C455 1.407 . S
C453 H447 0.930 . S
C453 C454 1.410 . S
C453 C455 1.345 . S
C454 C453 1.410 . S
C454 C456 1.417 . S
C454 C486 1.432 . S
C455 H441 0.930 . S
C455 C452 1.407 . S
C455 C453 1.345 . S
C456 N451 1.360 . S
C456 C454 1.417 . S
C456 C460 1.432 . S
H457 C462 0.930 . S
N458 Tb420 2.600 . S
N458 C460 1.359 . S
N458 C461 1.327 . S
C459 H445 0.931 . S
C459 C461 1.392 . S
C459 C462 1.370 . S
C460 C456 1.432 . S
C460 N458 1.359 . S
C460 C463 1.414 . S
C461 H443 0.930 . S
C461 N458 1.327 . S
C461 C459 1.392 . S
C462 H457 0.930 . S
C462 C459 1.370 . S
C462 C463 1.385 . S
C463 C460 1.414 . S
C463 C462 1.385 . S
C463 C485 1.444 . S
O464 Tb420 2.546 . S
O464 C484 1.251 . S
O465 Tb420 2.610 . S
O465 Tb431 2.362 . S
O465 C476 1.283 . S
O466 Tb431 2.421 . S
O466 C483 1.262 . S
O467 Tb420 2.320 . S
O467 C483 1.260 . S
O468 Tb420 2.552 . S
O468 C476 1.243 . S
O469 Tb420 2.413 . S
O469 C484 1.256 . S
O470 Tb431 2.546 . S
O470 C495 1.251 . S
O471 Tb420 2.362 . S
O471 Tb431 2.610 . S
O471 C487 1.283 . S
O472 Tb420 2.421 . S
O472 C494 1.262 . S
O473 Tb431 2.320 . S
O473 C494 1.260 . S
O474 Tb431 2.552 . S
O474 C487 1.243 . S
O475 Tb431 2.413 . S
O475 C495 1.256 . S
C476 O465 1.283 . S
C476 O468 1.243 . S
C477 C479 1.382 . S
C477 C481 1.393 . S
C477 C484 1.500 . S
C478 C479 1.400 . S
C478 C480 1.384 . S
C479 C477 1.382 . S
C479 C478 1.400 . S
C479 H496 0.930 . S
C480 C478 1.384 . S
C480 C482 1.392 . S
C480 H497 0.931 . S
C481 C477 1.393 . S
C481 C482 1.401 . S
C481 H498 0.930 . S
C482 C480 1.392 . S
C482 C481 1.401 . S
C482 H499 0.930 . S
C483 O466 1.262 . S
C483 O467 1.260 . S
C484 Tb420 2.833 . S
C484 O464 1.251 . S
C484 O469 1.256 . S
C484 C477 1.500 . S
C485 H450 0.929 . S
C485 C463 1.444 . S
C485 C486 1.317 . S
C486 H448 0.930 . S
C486 C454 1.432 . S
C486 C485 1.317 . S
C487 O471 1.283 . S
C487 O474 1.243 . S
C488 C489 1.382 . S
C488 C492 1.393 . S
C488 C495 1.500 . S
C489 C488 1.382 . S
C489 C490 1.400 . S
C489 H500 0.930 . S
C490 C489 1.400 . S
C490 C491 1.384 . S
C491 C490 1.384 . S
C491 C493 1.392 . S
C491 H501 0.931 . S
C492 C488 1.393 . S
C492 C493 1.401 . S
C492 H502 0.930 . S
C493 C491 1.392 . S
C493 C492 1.401 . S
C493 H503 0.930 . S
C494 O472 1.262 . S
C494 O473 1.260 . S
C495 Tb431 2.833 . S
C495 O470 1.251 . S
C495 O475 1.256 . S
C495 C488 1.500 . S
H496 C479 0.930 . S
H497 C480 0.931 . S
H498 C481 0.930 . S
H499 C482 0.930 . S
H500 C489 0.930 . S
H501 C491 0.931 . S
H502 C492 0.930 . S
H503 C493 0.930 . S
Tb504 N535 2.660 . S
Tb504 N542 2.600 . S
Tb504 O548 2.546 . S
Tb504 O549 2.610 . S
Tb504 O551 2.320 . S
Tb504 O552 2.552 . S
Tb504 O553 2.413 . S
Tb504 O555 2.362 . S
Tb504 O556 2.421 . S
Tb504 C568 2.833 . S
C505 C508 1.432 . S
C505 C509 1.414 . S
C505 N512 1.359 1_565 S
C506 C508 1.417 . S
C506 C510 1.432 . S
C506 C518 1.410 . S
C507 C509 1.444 . S
C507 C510 1.317 . S
C507 H530 0.929 . S
C508 C505 1.432 . S
C508 C506 1.417 . S
C508 N516 1.360 1_565 S
C509 C505 1.414 . S
C509 C507 1.444 . S
C509 C514 1.385 . S
C510 C506 1.432 . S
C510 C507 1.317 . S
C510 H522 0.930 . S
C511 C513 1.392 1_565 S
C511 C514 1.370 . S
C511 H523 0.931 . S
N512 C505 1.359 1_545 S
N512 C513 1.327 . S
N512 Tb515 2.600 . S
C513 C511 1.392 1_545 S
C513 N512 1.327 . S
C513 H520 0.930 . S
C514 C509 1.385 . S
C514 C511 1.370 . S
C514 H533 0.930 . S
Tb515 N512 2.600 . S
Tb515 N516 2.660 . S
Tb515 O549 2.362 . S
Tb515 O550 2.421 . S
Tb515 O554 2.546 1_545 S
Tb515 O555 2.610 . S
Tb515 O557 2.320 . S
Tb515 O558 2.552 . S
Tb515 O559 2.413 1_545 S
Tb515 C579 2.833 1_545 S
N516 C508 1.360 1_545 S
N516 Tb515 2.660 . S
N516 C517 1.305 . S
C517 N516 1.305 . S
C517 C519 1.428 . S
C517 H524 0.930 . S
C518 C506 1.410 . S
C518 C519 1.325 1_565 S
C518 H526 0.930 . S
C519 C517 1.428 . S
C519 C518 1.325 1_545 S
C519 H521 0.930 . S
H520 C513 0.930 . S
H521 C519 0.930 . S
H522 C510 0.930 . S
H523 C511 0.931 . S
H524 C517 0.930 . S
H525 C539 0.930 . S
H526 C518 0.930 . S
H527 C545 0.930 . S
H528 C536 0.930 . S
H529 C543 0.931 . S
H530 C507 0.929 . S
H531 C537 0.930 . S
H532 C570 0.930 . S
H533 C514 0.930 . S
H534 C569 0.929 . S
N535 Tb504 2.660 . S
N535 C536 1.305 . S
N535 C540 1.360 . S
C536 H528 0.930 . S
C536 N535 1.305 . S
C536 C539 1.407 . S
C537 H531 0.930 . S
C537 C538 1.410 . S
C537 C539 1.345 . S
C538 C537 1.410 . S
C538 C540 1.417 . S
C538 C570 1.432 . S
C539 H525 0.930 . S
C539 C536 1.407 . S
C539 C537 1.345 . S
C540 N535 1.360 . S
C540 C538 1.417 . S
C540 C544 1.432 . S
H541 C546 0.930 . S
N542 Tb504 2.600 . S
N542 C544 1.359 . S
N542 C545 1.327 . S
C543 H529 0.931 . S
C543 C545 1.392 . S
C543 C546 1.370 . S
C544 C540 1.432 . S
C544 N542 1.359 . S
C544 C547 1.414 . S
C545 H527 0.930 . S
C545 N542 1.327 . S
C545 C543 1.392 . S
C546 H541 0.930 . S
C546 C543 1.370 . S
C546 C547 1.385 . S
C547 C544 1.414 . S
C547 C546 1.385 . S
C547 C569 1.444 . S
O548 Tb504 2.546 . S
O548 C568 1.251 . S
O549 Tb504 2.610 . S
O549 Tb515 2.362 . S
O549 C560 1.283 . S
O550 Tb515 2.421 . S
O550 C567 1.262 . S
O551 Tb504 2.320 . S
O551 C567 1.260 . S
O552 Tb504 2.552 . S
O552 C560 1.243 . S
O553 Tb504 2.413 . S
O553 C568 1.256 . S
O554 Tb515 2.546 1_565 S
O554 C579 1.251 . S
O555 Tb504 2.362 . S
O555 Tb515 2.610 . S
O555 C571 1.283 . S
O556 Tb504 2.421 . S
O556 C578 1.262 . S
O557 Tb515 2.320 . S
O557 C578 1.260 . S
O558 Tb515 2.552 . S
O558 C571 1.243 . S
O559 Tb515 2.413 1_565 S
O559 C579 1.256 . S
C560 O549 1.283 . S
C560 O552 1.243 . S
C561 C563 1.382 . S
C561 C565 1.393 . S
C561 C568 1.500 . S
C562 C563 1.400 . S
C562 C564 1.384 . S
C563 C561 1.382 . S
C563 C562 1.400 . S
C563 H580 0.930 . S
C564 C562 1.384 . S
C564 C566 1.392 . S
C564 H581 0.931 . S
C565 C561 1.393 . S
C565 C566 1.401 . S
C565 H582 0.930 . S
C566 C564 1.392 . S
C566 C565 1.401 . S
C566 H583 0.930 . S
C567 O550 1.262 . S
C567 O551 1.260 . S
C568 Tb504 2.833 . S
C568 O548 1.251 . S
C568 O553 1.256 . S
C568 C561 1.500 . S
C569 H534 0.929 . S
C569 C547 1.444 . S
C569 C570 1.317 . S
C570 H532 0.930 . S
C570 C538 1.432 . S
C570 C569 1.317 . S
C571 O555 1.283 . S
C571 O558 1.243 . S
C572 C573 1.382 . S
C572 C576 1.393 . S
C572 C579 1.500 . S
C573 C572 1.382 . S
C573 C574 1.400 . S
C573 H584 0.930 . S
C574 C573 1.400 . S
C574 C575 1.384 . S
C575 C574 1.384 . S
C575 C577 1.392 . S
C575 H585 0.931 . S
C576 C572 1.393 . S
C576 C577 1.401 . S
C576 H586 0.930 . S
C577 C575 1.392 . S
C577 C576 1.401 . S
C577 H587 0.930 . S
C578 O556 1.262 . S
C578 O557 1.260 . S
C579 Tb515 2.833 1_565 S
C579 O554 1.251 . S
C579 O559 1.256 . S
C579 C572 1.500 . S
H580 C563 0.930 . S
H581 C564 0.931 . S
H582 C565 0.930 . S
H583 C566 0.930 . S
H584 C573 0.930 . S
H585 C575 0.931 . S
H586 C576 0.930 . S
H587 C577 0.930 . S
Tb588 N619 2.660 . S
Tb588 N626 2.600 . S
Tb588 O632 2.546 . S
Tb588 O633 2.610 . S
Tb588 O635 2.320 . S
Tb588 O636 2.552 . S
Tb588 O637 2.413 . S
Tb588 O639 2.362 . S
Tb588 O640 2.421 . S
Tb588 C652 2.833 . S
C589 C592 1.432 . S
C589 C593 1.414 . S
C589 N596 1.359 1_455 S
C590 C592 1.417 . S
C590 C594 1.432 . S
C590 C602 1.410 . S
C591 C593 1.444 . S
C591 C594 1.317 . S
C591 H614 0.929 . S
C592 C589 1.432 . S
C592 C590 1.417 . S
C592 N600 1.360 1_455 S
C593 C589 1.414 . S
C593 C591 1.444 . S
C593 C598 1.385 . S
C594 C590 1.432 . S
C594 C591 1.317 . S
C594 H606 0.930 . S
C595 C597 1.392 1_455 S
C595 C598 1.370 . S
C595 H607 0.931 . S
N596 C589 1.359 1_655 S
N596 C597 1.327 . S
N596 Tb599 2.600 . S
C597 C595 1.392 1_655 S
C597 N596 1.327 . S
C597 H604 0.930 . S
C598 C593 1.385 . S
C598 C595 1.370 . S
C598 H617 0.930 . S
Tb599 N596 2.600 . S
Tb599 N600 2.660 . S
Tb599 O633 2.362 . S
Tb599 O634 2.421 . S
Tb599 O638 2.546 1_655 S
Tb599 O639 2.610 . S
Tb599 O641 2.320 . S
Tb599 O642 2.552 . S
Tb599 O643 2.413 1_655 S
Tb599 C663 2.833 1_655 S
N600 C592 1.360 1_655 S
N600 Tb599 2.660 . S
N600 C601 1.305 . S
C601 N600 1.305 . S
C601 C603 1.407 1_655 S
C601 H608 0.930 . S
C602 C590 1.410 . S
C602 C603 1.345 . S
C602 H610 0.930 . S
C603 C601 1.407 1_455 S
C603 C602 1.345 . S
C603 H605 0.930 . S
H604 C597 0.930 . S
H605 C603 0.930 . S
H606 C594 0.930 . S
H607 C595 0.931 . S
H608 C601 0.930 . S
H609 C623 0.930 . S
H610 C602 0.930 . S
H611 C629 0.930 . S
H612 C620 0.930 . S
H613 C627 0.931 . S
H614 C591 0.929 . S
H615 C621 0.930 . S
H616 C654 0.930 . S
H617 C598 0.930 . S
H618 C653 0.929 . S
N619 Tb588 2.660 . S
N619 C620 1.305 . S
N619 C624 1.360 . S
C620 H612 0.930 . S
C620 N619 1.305 . S
C620 C623 1.407 . S
C621 H615 0.930 . S
C621 C622 1.410 . S
C621 C623 1.345 1_565 S
C622 C621 1.410 . S
C622 C624 1.417 1_565 S
C622 C654 1.432 . S
C623 H609 0.930 . S
C623 C620 1.407 . S
C623 C621 1.345 1_545 S
C624 N619 1.360 . S
C624 C622 1.417 1_545 S
C624 C628 1.432 . S
H625 C630 0.930 1_565 S
N626 Tb588 2.600 . S
N626 C628 1.359 . S
N626 C629 1.327 . S
C627 H613 0.931 . S
C627 C629 1.392 . S
C627 C630 1.370 . S
C628 C624 1.432 . S
C628 N626 1.359 . S
C628 C631 1.414 . S
C629 H611 0.930 . S
C629 N626 1.327 . S
C629 C627 1.392 . S
C630 H625 0.930 1_545 S
C630 C627 1.370 . S
C630 C631 1.385 . S
C631 C628 1.414 . S
C631 C630 1.385 . S
C631 C653 1.444 1_545 S
O632 Tb588 2.546 . S
O632 C652 1.251 . S
O633 Tb588 2.610 . S
O633 Tb599 2.362 . S
O633 C644 1.283 . S
O634 Tb599 2.421 . S
O634 C651 1.262 . S
O635 Tb588 2.320 . S
O635 C651 1.260 . S
O636 Tb588 2.552 . S
O636 C644 1.243 . S
O637 Tb588 2.413 . S
O637 C652 1.256 . S
O638 Tb599 2.546 1_455 S
O638 C663 1.251 . S
O639 Tb588 2.362 . S
O639 Tb599 2.610 . S
O639 C655 1.283 . S
O640 Tb588 2.421 . S
O640 C662 1.262 . S
O641 Tb599 2.320 . S
O641 C662 1.260 . S
O642 Tb599 2.552 . S
O642 C655 1.243 . S
O643 Tb599 2.413 1_455 S
O643 C663 1.256 . S
C644 O633 1.283 . S
C644 O636 1.243 . S
C645 C647 1.382 . S
C645 C649 1.393 . S
C645 C652 1.500 . S
C646 C647 1.400 . S
C646 C648 1.384 . S
C647 C645 1.382 . S
C647 C646 1.400 . S
C647 H664 0.930 . S
C648 C646 1.384 . S
C648 C650 1.392 . S
C648 H665 0.931 . S
C649 C645 1.393 . S
C649 C650 1.401 . S
C649 H666 0.930 . S
C650 C648 1.392 . S
C650 C649 1.401 . S
C650 H667 0.930 . S
C651 O634 1.262 . S
C651 O635 1.260 . S
C652 Tb588 2.833 . S
C652 O632 1.251 . S
C652 O637 1.256 . S
C652 C645 1.500 . S
C653 H618 0.929 . S
C653 C631 1.444 1_565 S
C653 C654 1.317 . S
C654 H616 0.930 . S
C654 C622 1.432 . S
C654 C653 1.317 . S
C655 O639 1.283 . S
C655 O642 1.243 . S
C656 C657 1.382 . S
C656 C660 1.393 . S
C656 C663 1.500 . S
C657 C656 1.382 . S
C657 C658 1.400 . S
C657 H668 0.930 . S
C658 C657 1.400 . S
C658 C659 1.384 . S
C659 C658 1.384 . S
C659 C661 1.392 . S
C659 H669 0.931 . S
C660 C656 1.393 . S
C660 C661 1.401 . S
C660 H670 0.930 . S
C661 C659 1.392 . S
C661 C660 1.401 . S
C661 H671 0.930 . S
C662 O640 1.262 . S
C662 O641 1.260 . S
C663 Tb599 2.833 1_455 S
C663 O638 1.251 . S
C663 O643 1.256 . S
C663 C656 1.500 . S
H664 C647 0.930 . S
H665 C648 0.931 . S
H666 C649 0.930 . S
H667 C650 0.930 . S
H668 C657 0.930 . S
H669 C659 0.931 . S
H670 C660 0.930 . S
H671 C661 0.930 . S
Tb672 N703 2.660 . S
Tb672 N710 2.600 . S
Tb672 O716 2.546 . S
Tb672 O717 2.610 . S
Tb672 O719 2.320 . S
Tb672 O720 2.552 . S
Tb672 O721 2.413 . S
Tb672 O723 2.362 . S
Tb672 O724 2.421 . S
Tb672 C736 2.833 . S
C673 C676 1.432 . S
C673 C677 1.414 . S
C673 N680 1.359 . S
C674 C676 1.417 . S
C674 C678 1.432 . S
C674 C686 1.410 . S
C675 C677 1.444 . S
C675 C678 1.317 . S
C675 H698 0.929 . S
C676 C673 1.432 . S
C676 C674 1.417 . S
C676 N684 1.360 . S
C677 C673 1.414 . S
C677 C675 1.444 . S
C677 C682 1.385 . S
C678 C674 1.432 . S
C678 C675 1.317 . S
C678 H690 0.930 . S
C679 C681 1.392 . S
C679 C682 1.370 . S
C679 H691 0.931 . S
N680 C673 1.359 . S
N680 C681 1.327 . S
N680 Tb683 2.600 . S
C681 C679 1.392 . S
C681 N680 1.327 . S
C681 H688 0.930 . S
C682 C677 1.385 . S
C682 C679 1.370 . S
C682 H701 0.930 . S
Tb683 N680 2.600 . S
Tb683 N684 2.660 . S
Tb683 O717 2.362 . S
Tb683 O718 2.421 . S
Tb683 O722 2.546 . S
Tb683 O723 2.610 . S
Tb683 O725 2.320 . S
Tb683 O726 2.552 . S
Tb683 O727 2.413 . S
Tb683 C747 2.833 . S
N684 C676 1.360 . S
N684 Tb683 2.660 . S
N684 C685 1.305 . S
C685 N684 1.305 . S
C685 C687 1.407 . S
C685 H692 0.930 . S
C686 C674 1.410 . S
C686 C687 1.345 . S
C686 H694 0.930 . S
C687 C685 1.407 . S
C687 C686 1.345 . S
C687 H689 0.930 . S
H688 C681 0.930 . S
H689 C687 0.930 . S
H690 C678 0.930 . S
H691 C679 0.931 . S
H692 C685 0.930 . S
H693 C707 0.930 . S
H694 C686 0.930 . S
H695 C713 0.930 . S
H696 C704 0.930 . S
H697 C711 0.931 . S
H698 C675 0.929 . S
H699 C705 0.930 . S
H700 C738 0.930 . S
H701 C682 0.930 . S
H702 C737 0.929 . S
N703 Tb672 2.660 . S
N703 C704 1.305 . S
N703 C708 1.360 . S
C704 H696 0.930 . S
C704 N703 1.305 . S
C704 C707 1.407 . S
C705 H699 0.930 . S
C705 C706 1.410 . S
C705 C707 1.345 1_455 S
C706 C705 1.410 . S
C706 C708 1.417 1_455 S
C706 C738 1.432 . S
C707 H693 0.930 . S
C707 C704 1.407 . S
C707 C705 1.345 1_655 S
C708 N703 1.360 . S
C708 C706 1.417 1_655 S
C708 C712 1.432 . S
H709 C714 0.930 1_455 S
N710 Tb672 2.600 . S
N710 C712 1.359 . S
N710 C713 1.327 . S
C711 H697 0.931 . S
C711 C713 1.392 . S
C711 C714 1.370 . S
C712 C708 1.432 . S
C712 N710 1.359 . S
C712 C715 1.414 1_655 S
C713 H695 0.930 . S
C713 N710 1.327 . S
C713 C711 1.392 . S
C714 H709 0.930 1_655 S
C714 C711 1.370 . S
C714 C715 1.385 1_655 S
C715 C712 1.414 1_455 S
C715 C714 1.385 1_455 S
C715 C737 1.444 . S
O716 Tb672 2.546 . S
O716 C736 1.251 . S
O717 Tb672 2.610 . S
O717 Tb683 2.362 . S
O717 C728 1.283 . S
O718 Tb683 2.421 . S
O718 C735 1.262 . S
O719 Tb672 2.320 . S
O719 C735 1.260 . S
O720 Tb672 2.552 . S
O720 C728 1.243 . S
O721 Tb672 2.413 . S
O721 C736 1.256 . S
O722 Tb683 2.546 . S
O722 C747 1.251 . S
O723 Tb672 2.362 . S
O723 Tb683 2.610 . S
O723 C739 1.283 . S
O724 Tb672 2.421 . S
O724 C746 1.262 . S
O725 Tb683 2.320 . S
O725 C746 1.260 . S
O726 Tb683 2.552 . S
O726 C739 1.243 . S
O727 Tb683 2.413 . S
O727 C747 1.256 . S
C728 O717 1.283 . S
C728 O720 1.243 . S
C729 C731 1.382 . S
C729 C733 1.393 . S
C729 C736 1.500 . S
C730 C731 1.400 . S
C730 C732 1.384 . S
C731 C729 1.382 . S
C731 C730 1.400 . S
C731 H748 0.930 . S
C732 C730 1.384 . S
C732 C734 1.392 . S
C732 H749 0.931 . S
C733 C729 1.393 . S
C733 C734 1.401 . S
C733 H750 0.930 . S
C734 C732 1.392 . S
C734 C733 1.401 . S
C734 H751 0.930 . S
C735 O718 1.262 . S
C735 O719 1.260 . S
C736 Tb672 2.833 . S
C736 O716 1.251 . S
C736 O721 1.256 . S
C736 C729 1.500 . S
C737 H702 0.929 . S
C737 C715 1.444 . S
C737 C738 1.317 . S
C738 H700 0.930 . S
C738 C706 1.432 . S
C738 C737 1.317 . S
C739 O723 1.283 . S
C739 O726 1.243 . S
C740 C741 1.382 . S
C740 C744 1.393 . S
C740 C747 1.500 . S
C741 C740 1.382 . S
C741 C742 1.400 . S
C741 H752 0.930 . S
C742 C741 1.400 . S
C742 C743 1.384 . S
C743 C742 1.384 . S
C743 C745 1.392 . S
C743 H753 0.931 . S
C744 C740 1.393 . S
C744 C745 1.401 . S
C744 H754 0.930 . S
C745 C743 1.392 . S
C745 C744 1.401 . S
C745 H755 0.930 . S
C746 O724 1.262 . S
C746 O725 1.260 . S
C747 Tb683 2.833 . S
C747 O722 1.251 . S
C747 O727 1.256 . S
C747 C740 1.500 . S
H748 C731 0.930 . S
H749 C732 0.931 . S
H750 C733 0.930 . S
H751 C734 0.930 . S
H752 C741 0.930 . S
H753 C743 0.931 . S
H754 C744 0.930 . S
H755 C745 0.930 . S
C756 C757 1.387 1_556 S
C756 H760 0.950 . S
C756 C765 1.390 . S
C757 C756 1.387 1_554 S
C757 C759 1.387 . S
H758 C765 0.950 . S
C759 C757 1.387 . S
C759 C761 1.390 . S
C759 H763 0.950 . S
H760 C756 0.950 . S
C761 C759 1.390 . S
C761 C762 1.387 . S
C761 H764 0.950 . S
C762 C761 1.387 . S
C762 C765 1.387 1_554 S
H763 C759 0.950 . S
H764 C761 0.950 . S
C765 C756 1.390 . S
C765 H758 0.950 . S
C765 C762 1.387 1_556 S
C766 C767 1.387 . S
C766 H770 0.950 . S
C766 C775 1.390 . S
C767 C766 1.387 . S
C767 C769 1.387 1_554 S
H768 C775 0.950 . S
C769 C767 1.387 1_556 S
C769 C771 1.390 . S
C769 H773 0.950 . S
H770 C766 0.950 . S
C771 C769 1.390 . S
C771 C772 1.387 1_556 S
C771 H774 0.950 . S
C772 C771 1.387 1_554 S
C772 C775 1.387 . S
H773 C769 0.950 . S
H774 C771 0.950 . S
C775 C766 1.390 . S
C775 H768 0.950 . S
C775 C772 1.387 . S
C776 C777 1.387 1_556 S
C776 H780 0.950 . S
C776 C785 1.390 . S
C777 C776 1.387 1_554 S
C777 C779 1.387 . S
H778 C785 0.950 . S
C779 C777 1.387 . S
C779 C781 1.390 . S
C779 H783 0.950 . S
H780 C776 0.950 . S
C781 C779 1.390 . S
C781 C782 1.387 . S
C781 H784 0.950 . S
C782 C781 1.387 . S
C782 C785 1.387 1_554 S
H783 C779 0.950 . S
H784 C781 0.950 . S
C785 C776 1.390 . S
C785 H778 0.950 . S
C785 C782 1.387 1_556 S
C786 C787 1.387 . S
C786 H790 0.950 . S
C786 C795 1.390 . S
C787 C786 1.387 . S
C787 C789 1.387 1_556 S
H788 C795 0.950 . S
C789 C787 1.387 1_554 S
C789 C791 1.390 . S
C789 H793 0.950 . S
H790 C786 0.950 . S
C791 C789 1.390 . S
C791 C792 1.392 . S
C791 H794 0.950 . S
C792 C791 1.392 . S
C792 C795 1.381 1_554 S
H793 C789 0.950 . S
H794 C791 0.950 . S
C795 C786 1.390 . S
C795 H788 0.950 . S
C795 C792 1.381 1_556 S
C796 C797 1.379 1_556 S
C796 H800 0.950 . S
C796 C805 1.390 . S
C797 C796 1.379 1_554 S
C797 C799 1.394 . S
H798 C805 0.950 . S
C799 C797 1.394 . S
C799 C801 1.390 . S
C799 H803 0.950 . S
H800 C796 0.950 . S
C801 C799 1.390 . S
C801 C802 1.387 1_554 S
C801 H804 0.950 . S
C802 C801 1.387 1_556 S
C802 C805 1.387 . S
H803 C799 0.950 . S
H804 C801 0.950 . S
C805 C796 1.390 . S
C805 H798 0.950 . S
C805 C802 1.387 . S
C806 C807 1.380 1_556 S
C806 H810 0.950 . S
C806 C815 1.390 . S
C807 C806 1.380 1_554 S
C807 C809 1.393 . S
H808 C815 0.950 . S
C809 C807 1.393 . S
C809 C811 1.390 . S
C809 H813 0.950 . S
H810 C806 0.950 . S
C811 C809 1.390 . S
C811 C812 1.387 1_554 S
C811 H814 0.950 . S
C812 C811 1.387 1_556 S
C812 C815 1.387 . S
H813 C809 0.950 . S
H814 C811 0.950 . S
C815 C806 1.390 . S
C815 H808 0.950 . S
C815 C812 1.387 . S
C816 C817 1.387 . S
C816 H820 0.950 . S
C816 C825 1.390 . S
C817 C816 1.387 . S
C817 C819 1.387 . S
H818 C825 0.950 . S
C819 C817 1.387 . S
C819 C821 1.390 . S
C819 H823 0.950 . S
H820 C816 0.950 . S
C821 C819 1.390 . S
C821 C822 1.387 . S
C821 H824 0.950 . S
C822 C821 1.387 . S
C822 C825 1.387 . S
H823 C819 0.950 . S
H824 C821 0.950 . S
C825 C816 1.390 . S
C825 H818 0.950 . S
C825 C822 1.387 . S
C826 C827 1.387 . S
C826 H830 0.950 . S
C826 C835 1.390 1_545 S
C827 C826 1.387 . S
C827 C829 1.387 . S
H828 C835 0.950 . S
C829 C827 1.387 . S
C829 C831 1.390 . S
C829 H833 0.950 . S
H830 C826 0.950 . S
C831 C829 1.390 . S
C831 C832 1.387 1_545 S
C831 H834 0.950 . S
C832 C831 1.387 1_565 S
C832 C835 1.387 . S
H833 C829 0.950 . S
H834 C831 0.950 . S
C835 C826 1.390 1_565 S
C835 H828 0.950 . S
C835 C832 1.387 . S
C836 C837 1.387 . S
C836 H840 0.950 . S
C836 C845 1.390 1_455 S
C837 C836 1.387 . S
C837 C839 1.387 . S
H838 C845 0.950 . S
C839 C837 1.387 . S
C839 C841 1.390 1_455 S
C839 H843 0.950 . S
H840 C836 0.950 . S
C841 C839 1.390 1_655 S
C841 C842 1.387 . S
C841 H844 0.950 . S
C842 C841 1.387 . S
C842 C845 1.387 . S
H843 C839 0.950 . S
H844 C841 0.950 . S
C845 C836 1.390 1_655 S
C845 H838 0.950 . S
C845 C842 1.387 . S
C846 C847 1.387 . S
C846 H850 0.950 . S
C846 C855 1.390 . S
C847 C846 1.387 . S
C847 C849 1.387 . S
H848 C855 0.950 . S
C849 C847 1.387 . S
C849 C851 1.390 . S
C849 H853 0.950 . S
H850 C846 0.950 . S
C851 C849 1.390 . S
C851 C852 1.387 . S
C851 H854 0.950 . S
C852 C851 1.387 . S
C852 C855 1.387 . S
H853 C849 0.950 . S
H854 C851 0.950 . S
C855 C846 1.390 . S
C855 H848 0.950 . S
C855 C852 1.387 . S
C856 C857 1.387 . S
C856 H860 0.950 . S
C856 C865 1.390 . S
C857 C856 1.387 . S
C857 C859 1.387 . S
H858 C865 0.950 . S
C859 C857 1.387 . S
C859 C861 1.390 . S
C859 H863 0.950 . S
H860 C856 0.950 . S
C861 C859 1.390 . S
C861 C862 1.387 . S
C861 H864 0.950 . S
C862 C861 1.387 . S
C862 C865 1.387 . S
H863 C859 0.950 . S
H864 C861 0.950 . S
C865 C856 1.390 . S
C865 H858 0.950 . S
C865 C862 1.387 . S
C866 C867 1.387 . S
C866 H870 0.950 . S
C866 C875 1.390 . S
C867 C866 1.387 . S
C867 C869 1.387 . S
H868 C875 0.950 . S
C869 C867 1.387 . S
C869 C871 1.390 . S
C869 H873 0.950 . S
H870 C866 0.950 . S
C871 C869 1.390 . S
C871 C872 1.387 . S
C871 H874 0.950 . S
C872 C871 1.387 . S
C872 C875 1.387 . S
H873 C869 0.950 . S
H874 C871 0.950 . S
C875 C866 1.390 . S
C875 H868 0.950 . S
C875 C872 1.387 . S
C876 C877 1.387 . S
C876 H880 0.950 . S
C876 C885 1.390 . S
C877 C876 1.387 . S
C877 C879 1.387 . S
H878 C885 0.950 . S
C879 C877 1.387 . S
C879 C881 1.390 . S
C879 H883 0.950 . S
H880 C876 0.950 . S
C881 C879 1.390 . S
C881 C882 1.387 . S
C881 H884 0.950 . S
C882 C881 1.387 . S
C882 C885 1.387 . S
H883 C879 0.950 . S
H884 C881 0.950 . S
C885 C876 1.390 . S
C885 H878 0.950 . S
C885 C882 1.387 . S
C886 C887 1.387 . S
C886 H890 0.950 . S
C886 C895 1.390 . S
C887 C886 1.387 . S
C887 C889 1.387 . S
H888 C895 0.950 . S
C889 C887 1.387 . S
C889 C891 1.390 . S
C889 H893 0.950 . S
H890 C886 0.950 . S
C891 C889 1.390 . S
C891 C892 1.387 . S
C891 H894 0.950 . S
C892 C891 1.387 . S
C892 C895 1.387 . S
H893 C889 0.950 . S
H894 C891 0.950 . S
C895 C886 1.390 . S
C895 H888 0.950 . S
C895 C892 1.387 . S
C896 C897 1.387 . S
C896 H900 0.950 . S
C896 C905 1.390 . S
C897 C896 1.387 . S
C897 C899 1.387 . S
H898 C905 0.950 . S
C899 C897 1.387 . S
C899 C901 1.390 . S
C899 H903 0.950 . S
H900 C896 0.950 . S
C901 C899 1.390 . S
C901 C902 1.387 . S
C901 H904 0.950 . S
C902 C901 1.387 . S
C902 C905 1.387 . S
H903 C899 0.950 . S
H904 C901 0.950 . S
C905 C896 1.390 . S
C905 H898 0.950 . S
C905 C902 1.387 . S
C906 C907 1.389 . S
C906 H910 0.966 . S
C906 C915 1.372 1_565 S
C907 C906 1.389 . S
C907 C909 1.387 . S
H908 C915 0.950 . S
C909 C907 1.387 . S
C909 C911 1.390 1_565 S
C909 H913 0.950 . S
H910 C906 0.966 . S
C911 C909 1.390 1_545 S
C911 C912 1.387 . S
C911 H914 0.950 . S
C912 C911 1.387 . S
C912 C915 1.387 . S
H913 C909 0.950 . S
H914 C911 0.950 . S
C915 C906 1.372 1_545 S
C915 H908 0.950 . S
C915 C912 1.387 . S
C916 C917 1.387 . S
C916 H920 0.950 . S
C916 C925 1.390 1_655 S
C917 C916 1.387 . S
C917 C919 1.387 . S
H918 C925 0.950 . S
C919 C917 1.387 . S
C919 C921 1.390 1_655 S
C919 H923 0.950 . S
H920 C916 0.950 . S
C921 C919 1.390 1_455 S
C921 C922 1.387 . S
C921 H924 0.950 . S
C922 C921 1.387 . S
C922 C925 1.387 . S
H923 C919 0.950 . S
H924 C921 0.950 . S
C925 C916 1.390 1_455 S
C925 H918 0.950 . S
C925 C922 1.387 . S
C926 C927 1.387 . S
C926 H930 0.950 . S
C926 C935 1.390 . S
C927 C926 1.387 . S
C927 C929 1.387 . S
H928 C935 0.950 . S
C929 C927 1.387 . S
C929 C931 1.390 . S
C929 H933 0.950 . S
H930 C926 0.950 . S
C931 C929 1.390 . S
C931 C932 1.387 . S
C931 H934 0.950 . S
C932 C931 1.387 . S
C932 C935 1.387 . S
H933 C929 0.950 . S
H934 C931 0.950 . S
C935 C926 1.390 . S
C935 H928 0.950 . S
C935 C932 1.387 . S
C936 C937 1.387 . S
C936 H940 0.950 . S
C936 C945 1.390 . S
C937 C936 1.387 . S
C937 C939 1.387 . S
H938 C945 0.950 . S
C939 C937 1.387 . S
C939 C941 1.390 . S
C939 H943 0.950 . S
H940 C936 0.950 . S
C941 C939 1.390 . S
C941 C942 1.387 . S
C941 H944 0.950 . S
C942 C941 1.387 . S
C942 C945 1.387 . S
H943 C939 0.950 . S
H944 C941 0.950 . S
C945 C936 1.390 . S
C945 H938 0.950 . S
C945 C942 1.387 . S
C946 C947 1.387 . S
C946 H950 0.950 . S
C946 C955 1.390 . S
C947 C946 1.387 . S
C947 C949 1.387 . S
H948 C955 0.950 . S
C949 C947 1.387 . S
C949 C951 1.390 . S
C949 H953 0.950 . S
H950 C946 0.950 . S
C951 C949 1.390 . S
C951 C952 1.387 . S
C951 H954 0.950 . S
C952 C951 1.387 . S
C952 C955 1.387 . S
H953 C949 0.950 . S
H954 C951 0.950 . S
C955 C946 1.390 . S
C955 H948 0.950 . S
C955 C952 1.387 . S
C956 C957 1.387 . S
C956 H960 0.950 . S
C956 C965 1.390 . S
C957 C956 1.387 . S
C957 C959 1.387 . S
H958 C965 0.950 . S
C959 C957 1.387 . S
C959 C961 1.390 . S
C959 H963 0.950 . S
H960 C956 0.950 . S
C961 C959 1.390 . S
C961 C962 1.387 . S
C961 H964 0.950 . S
C962 C961 1.387 . S
C962 C965 1.387 . S
H963 C959 0.950 . S
H964 C961 0.950 . S
C965 C956 1.390 . S
C965 H958 0.950 . S
C965 C962 1.387 . S
C966 C967 1.387 . S
C966 H970 0.950 . S
C966 C975 1.390 . S
C967 C966 1.387 . S
C967 C969 1.387 . S
H968 C975 0.950 . S
C969 C967 1.387 . S
C969 C971 1.390 . S
C969 H973 0.950 . S
H970 C966 0.950 . S
C971 C969 1.390 . S
C971 C972 1.387 . S
C971 H974 0.950 . S
C972 C971 1.387 . S
C972 C975 1.387 . S
H973 C969 0.950 . S
H974 C971 0.950 . S
C975 C966 1.390 . S
C975 H968 0.950 . S
C975 C972 1.387 . S
C976 C977 1.387 . S
C976 H980 0.950 . S
C976 C985 1.390 . S
C977 C976 1.387 . S
C977 C979 1.387 . S
H978 C985 0.950 . S
C979 C977 1.387 . S
C979 C981 1.390 . S
C979 H983 0.950 . S
H980 C976 0.950 . S
C981 C979 1.390 . S
C981 C982 1.387 . S
C981 H984 0.950 . S
C982 C981 1.387 . S
C982 C985 1.387 . S
H983 C979 0.950 . S
H984 C981 0.950 . S
C985 C976 1.390 . S
C985 H978 0.950 . S
C985 C982 1.387 . S
C986 C987 1.387 . S
C986 H990 0.950 . S
C986 C995 1.390 . S
C987 C986 1.387 . S
C987 C989 1.387 . S
H988 C995 0.950 . S
C989 C987 1.387 . S
C989 C991 1.390 . S
C989 H993 0.950 . S
H990 C986 0.950 . S
C991 C989 1.390 . S
C991 C992 1.387 . S
C991 H994 0.950 . S
C992 C991 1.387 . S
C992 C995 1.387 . S
H993 C989 0.950 . S
H994 C991 0.950 . S
C995 C986 1.390 . S
C995 H988 0.950 . S
C995 C992 1.387 . S
C996 C997 1.387 . S
C996 H1000 0.950 . S
C996 C1005 1.390 . S
C997 C996 1.387 . S
C997 C999 1.387 . S
H998 C1005 0.950 . S
C999 C997 1.387 . S
C999 C1001 1.390 . S
C999 H1003 0.950 . S
H1000 C996 0.950 . S
C1001 C999 1.390 . S
C1001 C1002 1.387 . S
C1001 H1004 0.950 . S
C1002 C1001 1.387 . S
C1002 C1005 1.387 . S
H1003 C999 0.950 . S
H1004 C1001 0.950 . S
C1005 C996 1.390 . S
C1005 H998 0.950 . S
C1005 C1002 1.387 . S
C1006 C1007 1.387 . S
C1006 H1010 0.950 . S
C1006 C1015 1.390 1_565 S
C1007 C1006 1.387 . S
C1007 C1009 1.387 . S
H1008 C1015 0.950 . S
C1009 C1007 1.387 . S
C1009 C1011 1.390 1_565 S
C1009 H1013 0.950 . S
H1010 C1006 0.950 . S
C1011 C1009 1.390 1_545 S
C1011 C1012 1.387 . S
C1011 H1014 0.950 . S
C1012 C1011 1.387 . S
C1012 C1015 1.387 . S
H1013 C1009 0.950 . S
H1014 C1011 0.950 . S
C1015 C1006 1.390 1_545 S
C1015 H1008 0.950 . S
C1015 C1012 1.387 . S
C1016 C1017 1.387 . S
C1016 H1020 0.950 . S
C1016 C1025 1.390 1_655 S
C1017 C1016 1.387 . S
C1017 C1019 1.387 1_655 S
H1018 C1025 0.950 . S
C1019 C1017 1.387 1_455 S
C1019 C1021 1.390 . S
C1019 H1023 0.946 1_455 S
H1020 C1016 0.950 . S
C1021 C1019 1.390 . S
C1021 C1022 1.387 . S
C1021 H1024 0.950 . S
C1022 C1021 1.387 . S
C1022 C1025 1.387 . S
H1023 C1019 0.946 1_655 S
H1024 C1021 0.950 . S
C1025 C1016 1.390 1_455 S
C1025 H1018 0.950 . S
C1025 C1022 1.387 . S
C757 C142 1.177 . S
C762 C56 1.381 1_554 S
C767 C226 1.172 . S
C772 C140 1.375 1_554 S
C777 C224 1.380 1_554 S
C782 C58 1.176 . S
C787 C238 1.270 . S
C792 C151 1.456 . S
C797 C235 1.456 . S
C802 C70 1.269 . S
C807 C67 1.456 . S
C812 C154 1.270 . S
C817 C308 1.381 . S
C822 C394 1.177 . S
C827 C478 1.173 . S
C832 C392 1.375 . S
C837 C476 1.380 . S
C842 C310 1.176 . S
C847 C403 1.454 . S
C852 C490 1.266 . S
C857 C487 1.454 . S
C862 C322 1.266 . S
C867 C406 1.267 . S
C872 C319 1.453 . S
C877 C646 1.177 . S
C882 C560 1.380 . S
C887 C644 1.380 . S
C892 C730 1.175 . S
C897 C728 1.379 . S
C902 C562 1.178 . S
C907 C742 1.265 . S
C912 C655 1.454 . S
C917 C739 1.454 . S
C922 C574 1.269 . S
C927 C571 1.454 . S
C932 C658 1.268 . S
C937 C494 2.580 . S
C942 C63 2.652 . S
C947 C326 2.577 . S
C952 C147 2.652 . S
C957 C231 2.651 . S
C962 C410 2.578 . S
C967 C242 2.579 . S
C972 C567 2.653 . S
C977 C74 2.580 . S
C982 C651 2.653 . S
C987 C735 2.651 . S
C992 C158 2.580 . S
C997 C315 2.651 . S
C1002 C746 2.580 . S
C1007 C399 2.653 . S
C1012 C578 2.580 . S
C1017 C662 2.579 . S
C1022 C483 2.651 . S
