# Generated by pormake.
# Topology cbo, (4)-cn, num edge types: 1
# Building blocks:
#     Node 0, Type 0, BuildingBlock: CEKHIL_clean_sbu_0, # of connection points: 4
#     Node 1, Type 0, BuildingBlock: CEKHIL_clean_sbu_0, # of connection points: 4
#     Node 2, Type 0, BuildingBlock: CEKHIL_clean_sbu_0, # of connection points: 4
#     Node 3, Type 0, BuildingBlock: CEKHIL_clean_sbu_0, # of connection points: 4
#     Node 4, Type 0, BuildingBlock: CEKHIL_clean_sbu_0, # of connection points: 4
#     Node 5, Type 0, BuildingBlock: CEKHIL_clean_sbu_0, # of connection points: 4
#     Node 6, Type 0, BuildingBlock: CEKHIL_clean_sbu_0, # of connection points: 4
#     Node 7, Type 0, BuildingBlock: CEKHIL_clean_sbu_0, # of connection points: 4
#     Node 8, Type 0, BuildingBlock: CEKHIL_clean_sbu_0, # of connection points: 4
#     Node 9, Type 0, BuildingBlock: CEKHIL_clean_sbu_0, # of connection points: 4
#     Node 10, Type 0, BuildingBlock: CEKHIL_clean_sbu_0, # of connection points: 4
#     Node 11, Type 0, BuildingBlock: CEKHIL_clean_sbu_0, # of connection points: 4
#     Node 12, Type 0, BuildingBlock: CEKHIL_clean_sbu_0, # of connection points: 4
#     Node 13, Type 0, BuildingBlock: CEKHIL_clean_sbu_0, # of connection points: 4
#     Node 14, Type 0, BuildingBlock: CEKHIL_clean_sbu_0, # of connection points: 4
#     Node 15, Type 0, BuildingBlock: CEKHIL_clean_sbu_0, # of connection points: 4
#     Node 16, Type 0, BuildingBlock: CEKHIL_clean_sbu_0, # of connection points: 4
#     Node 17, Type 0, BuildingBlock: CEKHIL_clean_sbu_0, # of connection points: 4
#     Node 18, Type 0, BuildingBlock: CEKHIL_clean_sbu_0, # of connection points: 4
#     Node 19, Type 0, BuildingBlock: CEKHIL_clean_sbu_0, # of connection points: 4
#     Node 20, Type 0, BuildingBlock: CEKHIL_clean_sbu_0, # of connection points: 4
#     Node 21, Type 0, BuildingBlock: CEKHIL_clean_sbu_0, # of connection points: 4
#     Node 22, Type 0, BuildingBlock: CEKHIL_clean_sbu_0, # of connection points: 4
#     Node 23, Type 0, BuildingBlock: CEKHIL_clean_sbu_0, # of connection points: 4
#     Edge 24, Type (0, 0), BuildingBlock: AJUNOK_clean_linker_0, # of connection points: 2
#     Edge 25, Type (0, 0), BuildingBlock: AJUNOK_clean_linker_0, # of connection points: 2
#     Edge 26, Type (0, 0), BuildingBlock: AJUNOK_clean_linker_0, # of connection points: 2
#     Edge 27, Type (0, 0), BuildingBlock: AJUNOK_clean_linker_0, # of connection points: 2
#     Edge 28, Type (0, 0), BuildingBlock: AJUNOK_clean_linker_0, # of connection points: 2
#     Edge 29, Type (0, 0), BuildingBlock: AJUNOK_clean_linker_0, # of connection points: 2
#     Edge 30, Type (0, 0), BuildingBlock: AJUNOK_clean_linker_0, # of connection points: 2
#     Edge 31, Type (0, 0), BuildingBlock: AJUNOK_clean_linker_0, # of connection points: 2
#     Edge 32, Type (0, 0), BuildingBlock: AJUNOK_clean_linker_0, # of connection points: 2
#     Edge 33, Type (0, 0), BuildingBlock: AJUNOK_clean_linker_0, # of connection points: 2
#     Edge 34, Type (0, 0), BuildingBlock: AJUNOK_clean_linker_0, # of connection points: 2
#     Edge 35, Type (0, 0), BuildingBlock: AJUNOK_clean_linker_0, # of connection points: 2
#     Edge 36, Type (0, 0), BuildingBlock: AJUNOK_clean_linker_0, # of connection points: 2
#     Edge 37, Type (0, 0), BuildingBlock: AJUNOK_clean_linker_0, # of connection points: 2
#     Edge 38, Type (0, 0), BuildingBlock: AJUNOK_clean_linker_0, # of connection points: 2
#     Edge 39, Type (0, 0), BuildingBlock: AJUNOK_clean_linker_0, # of connection points: 2
#     Edge 40, Type (0, 0), BuildingBlock: AJUNOK_clean_linker_0, # of connection points: 2
#     Edge 41, Type (0, 0), BuildingBlock: AJUNOK_clean_linker_0, # of connection points: 2
#     Edge 42, Type (0, 0), BuildingBlock: AJUNOK_clean_linker_0, # of connection points: 2
#     Edge 43, Type (0, 0), BuildingBlock: AJUNOK_clean_linker_0, # of connection points: 2
#     Edge 44, Type (0, 0), BuildingBlock: AJUNOK_clean_linker_0, # of connection points: 2
#     Edge 45, Type (0, 0), BuildingBlock: AJUNOK_clean_linker_0, # of connection points: 2
#     Edge 46, Type (0, 0), BuildingBlock: AJUNOK_clean_linker_0, # of connection points: 2
#     Edge 47, Type (0, 0), BuildingBlock: AJUNOK_clean_linker_0, # of connection points: 2
#     Edge 48, Type (0, 0), BuildingBlock: AJUNOK_clean_linker_0, # of connection points: 2
#     Edge 49, Type (0, 0), BuildingBlock: AJUNOK_clean_linker_0, # of connection points: 2
#     Edge 50, Type (0, 0), BuildingBlock: AJUNOK_clean_linker_0, # of connection points: 2
#     Edge 51, Type (0, 0), BuildingBlock: AJUNOK_clean_linker_0, # of connection points: 2
#     Edge 52, Type (0, 0), BuildingBlock: AJUNOK_clean_linker_0, # of connection points: 2
#     Edge 53, Type (0, 0), BuildingBlock: AJUNOK_clean_linker_0, # of connection points: 2
#     Edge 54, Type (0, 0), BuildingBlock: AJUNOK_clean_linker_0, # of connection points: 2
#     Edge 55, Type (0, 0), BuildingBlock: AJUNOK_clean_linker_0, # of connection points: 2
#     Edge 56, Type (0, 0), BuildingBlock: AJUNOK_clean_linker_0, # of connection points: 2
#     Edge 57, Type (0, 0), BuildingBlock: AJUNOK_clean_linker_0, # of connection points: 2
#     Edge 58, Type (0, 0), BuildingBlock: AJUNOK_clean_linker_0, # of connection points: 2
#     Edge 59, Type (0, 0), BuildingBlock: AJUNOK_clean_linker_0, # of connection points: 2
#     Edge 60, Type (0, 0), BuildingBlock: AJUNOK_clean_linker_0, # of connection points: 2
#     Edge 61, Type (0, 0), BuildingBlock: AJUNOK_clean_linker_0, # of connection points: 2
#     Edge 62, Type (0, 0), BuildingBlock: AJUNOK_clean_linker_0, # of connection points: 2
#     Edge 63, Type (0, 0), BuildingBlock: AJUNOK_clean_linker_0, # of connection points: 2
#     Edge 64, Type (0, 0), BuildingBlock: AJUNOK_clean_linker_0, # of connection points: 2
#     Edge 65, Type (0, 0), BuildingBlock: AJUNOK_clean_linker_0, # of connection points: 2
#     Edge 66, Type (0, 0), BuildingBlock: AJUNOK_clean_linker_0, # of connection points: 2
#     Edge 67, Type (0, 0), BuildingBlock: AJUNOK_clean_linker_0, # of connection points: 2
#     Edge 68, Type (0, 0), BuildingBlock: AJUNOK_clean_linker_0, # of connection points: 2
#     Edge 69, Type (0, 0), BuildingBlock: AJUNOK_clean_linker_0, # of connection points: 2
#     Edge 70, Type (0, 0), BuildingBlock: AJUNOK_clean_linker_0, # of connection points: 2
#     Edge 71, Type (0, 0), BuildingBlock: AJUNOK_clean_linker_0, # of connection points: 2
# Relax obj value: 0.196
# Max RMSD: 0.205
# Mean RMSD: 0.197
data_MOF--net-cbo--node1-CEKHIL_clean_sbu_0--edge1-AJUNOK_clean_linker_0
_symmetry_space_group_name_H-M    P1
_symmetry_Int_Tables_number       1
_symmetry_cell_setting            triclinic
loop_
_symmetry_equiv_pos_as_xyz
'x, y, z'
_cell_length_a     38.316109
_cell_length_b     37.877595
_cell_length_c     37.275466
_cell_angle_alpha  90.019944
_cell_angle_beta   89.995569
_cell_angle_gamma 89.992942
loop_
_atom_site_label
_atom_site_type_symbol
_atom_site_fract_x
_atom_site_fract_y
_atom_site_fract_z
_atom_type_partial_charge
Co0 Co 0.08597 0.18619 0.3131 0.0
O1 O 0.03917 0.1988 0.32585 0.0
O2 O 0.05625 0.1445 0.3126 0.0
C3 C 0.09494 0.23037 0.27349 0.0
O4 O 0.1327 0.16444 0.29766 0.0
Co5 Co 0.14561 0.23918 0.33187 0.0
O6 O 0.17433 0.20627 0.3034 0.0
C7 C 0.1164 0.19408 0.38863 0.0
C8 C 0.03123 0.16574 0.32231 0.0
C9 C 0.16443 0.17551 0.29406 0.0
O10 O 0.09712 0.1781 0.3655 0.0
O11 O 0.13607 0.22028 0.38097 0.0
O12 O 0.07849 0.20193 0.26378 0.0
O13 O 0.10158 0.23265 0.30738 0.0
Co14 Co 0.42096 0.81171 0.81637 0.0
O15 O 0.46781 0.79958 0.8296 0.0
O16 O 0.45006 0.8537 0.81605 0.0
C17 C 0.41251 0.76771 0.77654 0.0
O18 O 0.37436 0.83326 0.80044 0.0
Co19 Co 0.36105 0.75863 0.83397 0.0
O20 O 0.33265 0.79145 0.805 0.0
C21 C 0.39001 0.80313 0.89136 0.0
C22 C 0.47525 0.83275 0.82586 0.0
C23 C 0.34278 0.82218 0.79579 0.0
O24 O 0.40933 0.81953 0.86863 0.0
O25 O 0.37054 0.77688 0.88334 0.0
O26 O 0.42905 0.79619 0.76718 0.0
O27 O 0.40554 0.76518 0.81036 0.0
Co28 Co 0.58514 0.32029 0.68493 0.0
O29 O 0.53826 0.30776 0.67205 0.0
O30 O 0.5557 0.36209 0.68496 0.0
C31 C 0.5942 0.27652 0.72495 0.0
O32 O 0.63168 0.34236 0.70045 0.0
Co33 Co 0.64534 0.26745 0.66734 0.0
O34 O 0.67388 0.30105 0.69523 0.0
C35 C 0.61481 0.31026 0.60952 0.0
C36 C 0.53058 0.34092 0.67541 0.0
C37 C 0.66348 0.3317 0.70438 0.0
O38 O 0.59629 0.32748 0.6324 0.0
O39 O 0.63438 0.28416 0.61776 0.0
O40 O 0.57759 0.30495 0.73441 0.0
O41 O 0.60091 0.27398 0.6911 0.0
Co42 Co 0.91369 0.68162 0.18143 0.0
O43 O 0.96103 0.6938 0.17046 0.0
O44 O 0.94186 0.63911 0.17856 0.0
C45 C 0.90504 0.72191 0.22486 0.0
O46 O 0.86648 0.66006 0.19451 0.0
Co47 Co 0.85546 0.73779 0.16764 0.0
O48 O 0.82583 0.70319 0.19311 0.0
C49 C 0.8898 0.70226 0.10703 0.0
C50 C 0.96775 0.6603 0.17156 0.0
C51 C 0.83525 0.67164 0.20006 0.0
O52 O 0.90305 0.67921 0.12839 0.0
O53 O 0.87292 0.72939 0.11784 0.0
O54 O 0.92085 0.69243 0.23212 0.0
O55 O 0.89918 0.72758 0.19127 0.0
Co56 Co 0.31589 0.09814 0.17373 0.0
O57 O 0.32769 0.04992 0.18259 0.0
O58 O 0.31808 0.07287 0.12861 0.0
C59 C 0.27408 0.10383 0.21596 0.0
O60 O 0.30216 0.14684 0.15554 0.0
Co61 Co 0.33214 0.15251 0.23365 0.0
O62 O 0.30591 0.18506 0.20173 0.0
C63 C 0.38958 0.12262 0.19198 0.0
C64 C 0.32609 0.04557 0.14813 0.0
C65 C 0.29753 0.17764 0.16946 0.0
O66 O 0.36716 0.11005 0.16975 0.0
O67 O 0.38102 0.13725 0.22164 0.0
O68 O 0.26701 0.08934 0.18524 0.0
O69 O 0.30691 0.10972 0.22169 0.0
Co70 Co 0.19064 0.89947 0.67723 0.0
O71 O 0.17698 0.94732 0.68572 0.0
O72 O 0.187 0.9241 0.63193 0.0
C73 C 0.23323 0.89565 0.71881 0.0
O74 O 0.20625 0.85134 0.65918 0.0
Co75 Co 0.17748 0.84492 0.73794 0.0
O76 O 0.20381 0.813 0.70541 0.0
C77 C 0.11834 0.8717 0.69665 0.0
C78 C 0.17826 0.95135 0.65119 0.0
C79 C 0.21178 0.82073 0.67312 0.0
O80 O 0.13988 0.88521 0.67406 0.0
O81 O 0.12786 0.85775 0.72632 0.0
O82 O 0.23924 0.91042 0.68801 0.0
O83 O 0.20073 0.88859 0.72513 0.0
Co84 Co 0.81599 0.40442 0.82523 0.0
O85 O 0.82663 0.45362 0.82074 0.0
O86 O 0.81944 0.42543 0.8725 0.0
C87 C 0.77288 0.40172 0.78395 0.0
O88 O 0.80359 0.35407 0.83942 0.0
Co89 Co 0.83048 0.35553 0.76005 0.0
O90 O 0.80708 0.31946 0.79032 0.0
C91 C 0.88916 0.38288 0.80172 0.0
C92 C 0.82613 0.45464 0.85549 0.0
C93 C 0.79976 0.32418 0.82336 0.0
O94 O 0.8676 0.39299 0.82609 0.0
O95 O 0.87947 0.37076 0.77127 0.0
O96 O 0.76654 0.41327 0.81611 0.0
O97 O 0.80557 0.39695 0.77673 0.0
Co98 Co 0.6853 0.59468 0.32204 0.0
O99 O 0.67298 0.54655 0.31311 0.0
O100 O 0.6824 0.5695 0.36714 0.0
C101 C 0.72735 0.59967 0.2801 0.0
O102 O 0.69957 0.64319 0.34055 0.0
Co103 Co 0.67081 0.64974 0.26216 0.0
O104 O 0.69614 0.68218 0.295 0.0
C105 C 0.61241 0.61972 0.30236 0.0
C106 C 0.67424 0.54227 0.34758 0.0
C107 C 0.70428 0.67423 0.3272 0.0
O108 O 0.6342 0.60728 0.3253 0.0
O109 O 0.62176 0.63417 0.27288 0.0
O110 O 0.73407 0.58515 0.31089 0.0
O111 O 0.69469 0.60621 0.27419 0.0
Co112 Co 0.18101 0.33208 0.08835 0.0
O113 O 0.19337 0.34211 0.03956 0.0
O114 O 0.13936 0.33443 0.05902 0.0
C115 C 0.22091 0.28933 0.09773 0.0
O116 O 0.15871 0.31924 0.1364 0.0
Co117 Co 0.23438 0.34641 0.14954 0.0
O118 O 0.20055 0.3198 0.17892 0.0
C119 C 0.19569 0.40582 0.11799 0.0
C120 C 0.16032 0.34022 0.03219 0.0
C121 C 0.16951 0.31337 0.16862 0.0
O122 O 0.17778 0.38425 0.09876 0.0
O123 O 0.22062 0.39624 0.13863 0.0
O124 O 0.19187 0.28242 0.08124 0.0
O125 O 0.22655 0.32242 0.10425 0.0
Co126 Co 0.68559 0.16718 0.90357 0.0
O127 O 0.69957 0.1566 0.95188 0.0
O128 O 0.64513 0.16575 0.93458 0.0
C129 C 0.72614 0.20904 0.89268 0.0
O130 O 0.6614 0.18124 0.85686 0.0
Co131 Co 0.73501 0.1527 0.8393 0.0
O132 O 0.70164 0.1827 0.81289 0.0
C133 C 0.69699 0.0935 0.87196 0.0
C134 C 0.66689 0.15953 0.96061 0.0
C135 C 0.67119 0.18931 0.82481 0.0
O136 O 0.68078 0.11502 0.89286 0.0
O137 O 0.72082 0.10302 0.84999 0.0
O138 O 0.698 0.21647 0.91056 0.0
O139 O 0.73067 0.17589 0.88555 0.0
Co140 Co 0.82053 0.82777 0.40819 0.0
O141 O 0.81107 0.83951 0.45749 0.0
O142 O 0.8636 0.82961 0.43465 0.0
C143 C 0.7796 0.78555 0.40128 0.0
O144 O 0.84071 0.81274 0.36012 0.0
Co145 Co 0.76625 0.84092 0.34786 0.0
O146 O 0.79806 0.81164 0.31856 0.0
C147 C 0.80679 0.90074 0.37605 0.0
C148 C 0.84453 0.83668 0.46256 0.0
C149 C 0.82902 0.80484 0.32879 0.0
O150 O 0.82448 0.87961 0.396 0.0
O151 O 0.78133 0.89086 0.35627 0.0
O152 O 0.80894 0.77867 0.41721 0.0
O153 O 0.77418 0.8186 0.39415 0.0
Co154 Co 0.32589 0.66428 0.59305 0.0
O155 O 0.31494 0.65473 0.54366 0.0
O156 O 0.36845 0.66019 0.56562 0.0
C157 C 0.28776 0.70896 0.60102 0.0
O158 O 0.34719 0.67621 0.64164 0.0
Co159 Co 0.2702 0.65404 0.65296 0.0
O160 O 0.30445 0.67961 0.68297 0.0
C161 C 0.30185 0.59225 0.61761 0.0
C162 C 0.34836 0.65534 0.53794 0.0
C163 C 0.33597 0.68426 0.67318 0.0
O164 O 0.32561 0.61189 0.60359 0.0
O165 O 0.276 0.60448 0.63544 0.0
O166 O 0.31764 0.71453 0.58561 0.0
O167 O 0.28051 0.67621 0.60735 0.0
Co168 Co 0.92115 0.81505 0.67969 0.0
O169 O 0.96802 0.80845 0.66244 0.0
O170 O 0.94675 0.85898 0.6829 0.0
C171 C 0.91985 0.76752 0.716 0.0
O172 O 0.8749 0.83118 0.7015 0.0
Co173 Co 0.86395 0.75944 0.66243 0.0
O174 O 0.83559 0.78725 0.69664 0.0
C175 C 0.88715 0.80847 0.6064 0.0
C176 C 0.97339 0.84121 0.67095 0.0
C177 C 0.84466 0.81763 0.70795 0.0
O178 O 0.9045 0.82644 0.6296 0.0
O179 O 0.87186 0.77929 0.6134 0.0
O180 O 0.93457 0.79668 0.72613 0.0
O181 O 0.90988 0.76661 0.68282 0.0
Co182 Co 0.58586 0.1749 0.17706 0.0
O183 O 0.53935 0.18123 0.15884 0.0
O184 O 0.56168 0.13005 0.17619 0.0
C185 C 0.58411 0.2195 0.21714 0.0
O186 O 0.63207 0.1589 0.19919 0.0
Co187 Co 0.64124 0.23432 0.16686 0.0
O188 O 0.66906 0.20516 0.2002 0.0
C189 C 0.62551 0.18598 0.1069 0.0
C190 C 0.53476 0.14787 0.16501 0.0
C191 C 0.66125 0.17343 0.20816 0.0
O192 O 0.60455 0.16794 0.12671 0.0
O193 O 0.64098 0.2141 0.1173 0.0
O194 O 0.57036 0.18911 0.22444 0.0
O195 O 0.59503 0.22329 0.18448 0.0
Co196 Co 0.41534 0.67343 0.3173 0.0
O197 O 0.46246 0.67951 0.33366 0.0
O198 O 0.43999 0.6289 0.31464 0.0
C199 C 0.41407 0.72008 0.27982 0.0
O200 O 0.36835 0.65812 0.29666 0.0
Co201 Co 0.3602 0.73077 0.33543 0.0
O202 O 0.33092 0.70377 0.3013 0.0
C203 C 0.38449 0.68283 0.39177 0.0
C204 C 0.46701 0.64643 0.32602 0.0
C205 C 0.33871 0.67294 0.29015 0.0
O206 O 0.39953 0.66346 0.36804 0.0
O207 O 0.37024 0.71256 0.3848 0.0
O208 O 0.42818 0.69048 0.27009 0.0
O209 O 0.4051 0.72192 0.31328 0.0
Co210 Co 0.08533 0.32254 0.81331 0.0
O211 O 0.03829 0.31748 0.83075 0.0
O212 O 0.06147 0.36749 0.81125 0.0
C213 C 0.08505 0.27569 0.77591 0.0
O214 O 0.13195 0.33736 0.79115 0.0
Co215 Co 0.14098 0.26453 0.82823 0.0
O216 O 0.16871 0.29094 0.79256 0.0
C217 C 0.12238 0.31479 0.88537 0.0
C218 C 0.03417 0.35058 0.82287 0.0
C219 C 0.16094 0.32214 0.78268 0.0
O220 O 0.10264 0.33221 0.86374 0.0
O221 O 0.1382 0.28626 0.87692 0.0
O222 O 0.07104 0.30544 0.76647 0.0
O223 O 0.09493 0.2739 0.80908 0.0
Co224 Co 0.68013 0.86803 0.85258 0.0
O225 O 0.63682 0.86313 0.87812 0.0
O226 O 0.64123 0.87129 0.81954 0.0
C227 C 0.70921 0.82229 0.8773 0.0
O228 O 0.72049 0.87183 0.81709 0.0
Co229 Co 0.74738 0.88744 0.89475 0.0
O230 O 0.77042 0.87476 0.84882 0.0
C231 C 0.69565 0.94227 0.88083 0.0
C232 C 0.62131 0.86606 0.84732 0.0
C233 C 0.75408 0.87127 0.81922 0.0
O234 O 0.67941 0.92098 0.8597 0.0
O235 O 0.7213 0.93283 0.90054 0.0
O236 O 0.68644 0.8169 0.85206 0.0
O237 O 0.70938 0.854 0.89023 0.0
Co238 Co 0.82727 0.12546 0.3507 0.0
O239 O 0.87072 0.13125 0.37571 0.0
O240 O 0.86598 0.12143 0.31736 0.0
C241 C 0.7987 0.17202 0.37463 0.0
O242 O 0.78662 0.12062 0.31576 0.0
Co243 Co 0.7602 0.10775 0.39425 0.0
O244 O 0.73688 0.1184 0.34793 0.0
C245 C 0.8115 0.0521 0.38096 0.0
C246 C 0.88596 0.12791 0.34481 0.0
C247 C 0.75304 0.12098 0.31812 0.0
O248 O 0.82793 0.0727 0.35929 0.0
O249 O 0.78605 0.06226 0.4006 0.0
O250 O 0.82101 0.17658 0.34882 0.0
O251 O 0.79844 0.14062 0.38828 0.0
Co252 Co 0.17269 0.62903 0.14472 0.0
O253 O 0.12887 0.63385 0.1201 0.0
O254 O 0.13452 0.62296 0.1782 0.0
C255 C 0.20001 0.67657 0.12161 0.0
O256 O 0.21357 0.62472 0.1794 0.0
Co257 Co 0.24 0.61378 0.10068 0.0
O258 O 0.26333 0.62369 0.14721 0.0
C259 C 0.18966 0.55707 0.1122 0.0
C260 C 0.11405 0.62874 0.15098 0.0
C261 C 0.24713 0.62558 0.17706 0.0
O262 O 0.17348 0.57653 0.1351 0.0
O263 O 0.21461 0.56831 0.09252 0.0
O264 O 0.17761 0.68026 0.14751 0.0
O265 O 0.20087 0.64547 0.10733 0.0
Co266 Co 0.3271 0.36964 0.63797 0.0
O267 O 0.37215 0.3673 0.61529 0.0
O268 O 0.36354 0.3787 0.67285 0.0
C269 C 0.30434 0.31967 0.61444 0.0
O270 O 0.28479 0.37171 0.67114 0.0
Co271 Co 0.25945 0.37686 0.59191 0.0
O272 O 0.23582 0.36663 0.63809 0.0
C273 C 0.30292 0.43946 0.60537 0.0
C274 C 0.38544 0.37332 0.64673 0.0
C275 C 0.25148 0.36781 0.66825 0.0
O276 O 0.32267 0.42194 0.627 0.0
O277 O 0.27932 0.42511 0.58599 0.0
O278 O 0.32555 0.31806 0.64159 0.0
O279 O 0.30175 0.35041 0.59981 0.0
Co280 Co 0.86198 0.65628 0.8858 0.0
O281 O 0.88405 0.61075 0.88713 0.0
O282 O 0.82836 0.62061 0.89914 0.0
C283 C 0.88445 0.6733 0.83247 0.0
O284 O 0.82954 0.69889 0.88568 0.0
Co285 Co 0.90641 0.72548 0.88414 0.0
O286 O 0.86044 0.74924 0.88004 0.0
C287 C 0.89595 0.68742 0.95239 0.0
C288 C 0.85355 0.59795 0.89496 0.0
C289 C 0.83162 0.73269 0.88301 0.0
O290 O 0.87439 0.66562 0.93771 0.0
O291 O 0.91393 0.70991 0.9347 0.0
O292 O 0.85725 0.65286 0.8335 0.0
O293 O 0.89871 0.6797 0.86308 0.0
Co294 Co 0.35511 0.84107 0.11495 0.0
O295 O 0.37926 0.8853 0.11795 0.0
O296 O 0.32296 0.87928 0.10573 0.0
C297 C 0.37715 0.81735 0.1656 0.0
O298 O 0.32102 0.80008 0.1115 0.0
Co299 Co 0.39717 0.77138 0.10587 0.0
O300 O 0.35071 0.74874 0.11136 0.0
C301 C 0.38827 0.81863 0.04423 0.0
C302 C 0.34939 0.90012 0.11135 0.0
C303 C 0.32221 0.76614 0.1116 0.0
O304 O 0.3662 0.83716 0.06221 0.0
O305 O 0.40635 0.79369 0.05803 0.0
O306 O 0.35114 0.8393 0.1672 0.0
O307 O 0.39107 0.81369 0.13426 0.0
Co308 Co 0.14958 0.15492 0.61231 0.0
O309 O 0.12488 0.11098 0.61573 0.0
O310 O 0.18148 0.11622 0.60457 0.0
C311 C 0.12655 0.17974 0.66203 0.0
O312 O 0.1843 0.19534 0.60874 0.0
Co313 Co 0.10844 0.22495 0.60115 0.0
O314 O 0.15531 0.24703 0.60514 0.0
C315 C 0.11694 0.17572 0.5411 0.0
C316 C 0.15476 0.09577 0.61019 0.0
C317 C 0.18351 0.22922 0.60676 0.0
O318 O 0.1396 0.15807 0.55922 0.0
O319 O 0.09858 0.20069 0.55443 0.0
O320 O 0.15237 0.15766 0.66464 0.0
O321 O 0.11351 0.18307 0.63028 0.0
Co322 Co 0.64452 0.33776 0.38413 0.0
O323 O 0.62003 0.38171 0.3804 0.0
O324 O 0.67662 0.37661 0.39107 0.0
C325 C 0.6212 0.31265 0.33475 0.0
O326 O 0.67876 0.29676 0.38794 0.0
Co327 Co 0.60259 0.2687 0.39675 0.0
O328 O 0.64872 0.24567 0.3901 0.0
C329 C 0.61221 0.31854 0.45608 0.0
C330 C 0.64987 0.39707 0.38541 0.0
C331 C 0.67735 0.26278 0.38862 0.0
O332 O 0.63475 0.3356 0.43727 0.0
O333 O 0.59363 0.29334 0.44351 0.0
O334 O 0.64724 0.33442 0.33192 0.0
O335 O 0.60807 0.30986 0.36654 0.0
C336 C 0.12432 0.26845 0.18429 0.0
C337 C 0.14596 0.29653 0.19483 0.0
C338 C 0.10669 0.24799 0.2099 0.0
C339 C 0.10987 0.25515 0.24687 0.0
H340 H 0.12253 0.26101 0.15628 0.0
H341 H 0.09157 0.22561 0.20068 0.0
S342 S 0.15904 0.32955 0.28753 0.0
N343 N 0.16673 0.33289 0.2441 0.0
N344 N 0.13304 0.29511 0.29216 0.0
C345 C 0.12951 0.28475 0.25743 0.0
C346 C 0.14773 0.30526 0.23142 0.0
C347 C 0.3728 0.71786 0.76086 0.0
C348 C 0.39716 0.74339 0.74975 0.0
C349 C 0.35422 0.6977 0.73587 0.0
C350 C 0.35973 0.70181 0.69881 0.0
H351 H 0.36695 0.71426 0.78904 0.0
H352 H 0.33472 0.67936 0.74566 0.0
S353 S 0.42277 0.76282 0.65573 0.0
N354 N 0.42744 0.77007 0.69914 0.0
N355 N 0.39272 0.73179 0.65218 0.0
C356 C 0.38538 0.7258 0.68733 0.0
C357 C 0.40404 0.74669 0.7128 0.0
C358 C 0.63175 0.22471 0.73922 0.0
C359 C 0.6096 0.25181 0.75136 0.0
C360 C 0.65029 0.20357 0.76333 0.0
C361 C 0.64709 0.20829 0.8006 0.0
H362 H 0.63583 0.22045 0.7108 0.0
H363 H 0.668 0.18392 0.7526 0.0
S364 S 0.5904 0.27354 0.8465 0.0
N365 N 0.58385 0.28079 0.80333 0.0
N366 N 0.61861 0.24064 0.84871 0.0
C367 C 0.62364 0.23396 0.81326 0.0
C368 C 0.60494 0.25584 0.78863 0.0
C369 C 0.87215 0.77577 0.2428 0.0
C370 C 0.88913 0.74434 0.25288 0.0
C371 C 0.85352 0.79583 0.26782 0.0
C372 C 0.85176 0.78552 0.30391 0.0
H373 H 0.87243 0.78456 0.21516 0.0
H374 H 0.83999 0.81933 0.25878 0.0
S375 S 0.89095 0.70547 0.34432 0.0
N376 N 0.90263 0.70381 0.3017 0.0
N377 N 0.868 0.74211 0.34879 0.0
C378 C 0.86925 0.75477 0.3147 0.0
C379 C 0.8879 0.73401 0.28915 0.0
C380 C 0.21076 0.11524 0.22834 0.0
C381 C 0.24593 0.11788 0.23931 0.0
C382 C 0.1839 0.13212 0.24742 0.0
C383 C 0.19135 0.15245 0.27796 0.0
H384 H 0.20398 0.10113 0.20404 0.0
H385 H 0.15749 0.1308 0.23712 0.0
S386 S 0.27806 0.16359 0.32092 0.0
N387 N 0.28591 0.13918 0.28513 0.0
N388 N 0.23565 0.17123 0.32059 0.0
C389 C 0.22602 0.15357 0.2904 0.0
C390 C 0.25326 0.13619 0.2712 0.0
C391 C 0.28084 0.84074 0.7881 0.0
C392 C 0.31624 0.84533 0.77899 0.0
C393 C 0.25432 0.85859 0.76975 0.0
C394 C 0.26202 0.88148 0.74119 0.0
H395 H 0.27342 0.82248 0.80913 0.0
H396 H 0.22751 0.85328 0.77722 0.0
S397 S 0.35071 0.90486 0.70852 0.0
N398 N 0.35778 0.87624 0.74113 0.0
N399 N 0.30793 0.90975 0.70626 0.0
C400 C 0.29743 0.88766 0.73287 0.0
C401 C 0.32453 0.86963 0.75188 0.0
C402 C 0.70949 0.38953 0.77244 0.0
C403 C 0.74439 0.38883 0.76031 0.0
C404 C 0.68263 0.37306 0.75295 0.0
C405 C 0.68985 0.35509 0.72085 0.0
H406 H 0.70301 0.40162 0.79791 0.0
H407 H 0.65653 0.37264 0.76411 0.0
S408 S 0.77546 0.34991 0.67466 0.0
N409 N 0.78357 0.37223 0.71178 0.0
N410 N 0.73336 0.3407 0.67576 0.0
C411 C 0.7241 0.35606 0.70734 0.0
C412 C 0.75131 0.3731 0.72689 0.0
C413 C 0.77332 0.65368 0.20898 0.0
C414 C 0.80888 0.64844 0.21687 0.0
C415 C 0.74716 0.6363 0.22833 0.0
C416 C 0.7555 0.61339 0.25671 0.0
H417 H 0.76557 0.67218 0.1883 0.0
H418 H 0.72021 0.64206 0.22186 0.0
S419 S 0.84479 0.58871 0.28643 0.0
N420 N 0.85119 0.61706 0.25344 0.0
N421 N 0.80205 0.58447 0.29014 0.0
C422 C 0.79102 0.60659 0.26378 0.0
C423 C 0.8177 0.62407 0.24375 0.0
C424 C 0.28543 0.2414 0.15737 0.0
C425 C 0.28058 0.20571 0.14793 0.0
C426 C 0.26719 0.26843 0.1399 0.0
C427 C 0.24297 0.26083 0.11267 0.0
H428 H 0.30308 0.24855 0.17888 0.0
H429 H 0.27131 0.29535 0.14872 0.0
S430 S 0.22236 0.17204 0.07608 0.0
N431 N 0.25122 0.16446 0.10804 0.0
N432 N 0.21669 0.21524 0.07543 0.0
C433 C 0.23879 0.22542 0.10201 0.0
C434 C 0.25767 0.19788 0.11955 0.0
C435 C 0.75889 0.30076 0.86972 0.0
C436 C 0.78432 0.29431 0.84338 0.0
C437 C 0.74101 0.27288 0.8862 0.0
C438 C 0.74817 0.23745 0.87733 0.0
H439 H 0.75171 0.32757 0.87666 0.0
H440 H 0.72082 0.27929 0.90547 0.0
S441 S 0.81573 0.20651 0.81319 0.0
N442 N 0.81786 0.24999 0.81113 0.0
N443 N 0.78492 0.19754 0.84277 0.0
C444 C 0.77492 0.23062 0.85241 0.0
C445 C 0.79278 0.25906 0.83523 0.0
C446 C 0.73193 0.76472 0.36051 0.0
C447 C 0.7578 0.75685 0.38604 0.0
C448 C 0.71408 0.7378 0.34235 0.0
C449 C 0.72098 0.70195 0.34941 0.0
H450 H 0.72616 0.79184 0.35354 0.0
H451 H 0.69508 0.74519 0.32218 0.0
S452 S 0.78466 0.66716 0.41549 0.0
N453 N 0.78823 0.71047 0.41873 0.0
N454 N 0.75441 0.66001 0.38481 0.0
C455 C 0.74567 0.69369 0.37598 0.0
C456 C 0.76414 0.72109 0.39422 0.0
C457 C 0.22096 0.75746 0.65744 0.0
C458 C 0.22908 0.79317 0.65143 0.0
C459 C 0.2391 0.73049 0.63981 0.0
C460 C 0.26654 0.73815 0.61598 0.0
H461 H 0.20067 0.75023 0.67631 0.0
H462 H 0.23215 0.70342 0.64581 0.0
S463 S 0.29724 0.82759 0.59011 0.0
N464 N 0.26542 0.83495 0.61903 0.0
N465 N 0.30001 0.78425 0.58619 0.0
C466 C 0.2743 0.77383 0.60896 0.0
C467 C 0.25544 0.80134 0.6266 0.0
C468 C 0.9232 0.71689 0.80283 0.0
C469 C 0.89512 0.69316 0.80012 0.0
C470 C 0.93166 0.73961 0.77472 0.0
C471 C 0.91273 0.73935 0.74245 0.0
H472 H 0.93824 0.71888 0.82734 0.0
H473 H 0.9528 0.75819 0.77877 0.0
S474 S 0.83948 0.67926 0.71988 0.0
N475 N 0.85005 0.66865 0.76145 0.0
N476 N 0.86664 0.71103 0.70801 0.0
C477 C 0.88601 0.71421 0.73833 0.0
C478 C 0.87702 0.6912 0.76733 0.0
C479 C 0.61752 0.2707 0.24224 0.0
C480 C 0.59087 0.24548 0.24592 0.0
C481 C 0.62675 0.29276 0.27095 0.0
C482 C 0.60943 0.29062 0.30423 0.0
H483 H 0.63215 0.27268 0.21748 0.0
H484 H 0.64808 0.31115 0.26718 0.0
S485 S 0.53503 0.23164 0.3261 0.0
N486 N 0.54547 0.22142 0.28442 0.0
N487 N 0.56243 0.26312 0.33808 0.0
C488 C 0.58167 0.26658 0.30764 0.0
C489 C 0.57249 0.24397 0.27855 0.0
C490 C 0.42068 0.74434 0.21833 0.0
C491 C 0.40608 0.74757 0.2528 0.0
C492 C 0.41181 0.76763 0.19075 0.0
C493 C 0.38767 0.795 0.19632 0.0
H494 H 0.43887 0.72326 0.21227 0.0
H495 H 0.42353 0.76355 0.16464 0.0
S496 S 0.34357 0.81655 0.28228 0.0
N497 N 0.36779 0.78169 0.29163 0.0
N498 N 0.3505 0.82525 0.23946 0.0
C499 C 0.37355 0.7993 0.23093 0.0
C500 C 0.38294 0.77568 0.25926 0.0
C501 C 0.09252 0.23073 0.68561 0.0
C502 C 0.11484 0.20205 0.69232 0.0
C503 C 0.08241 0.25364 0.71311 0.0
C504 C 0.09389 0.2487 0.7486 0.0
H505 H 0.08326 0.23612 0.65872 0.0
H506 H 0.06584 0.2758 0.70621 0.0
S507 S 0.15008 0.17552 0.78106 0.0
N508 N 0.14659 0.1686 0.73747 0.0
N509 N 0.1269 0.21133 0.78945 0.0
C510 C 0.11509 0.21925 0.75606 0.0
C511 C 0.12577 0.19605 0.72784 0.0
C512 C 0.81108 0.87107 0.78649 0.0
C513 C 0.77513 0.86313 0.78682 0.0
C514 C 0.83311 0.85821 0.75946 0.0
C515 C 0.82013 0.83653 0.73194 0.0
H516 H 0.82265 0.88622 0.80809 0.0
H517 H 0.86081 0.86363 0.76139 0.0
S518 S 0.72741 0.81165 0.7177 0.0
N519 N 0.72707 0.8351 0.75504 0.0
N520 N 0.76849 0.81083 0.70436 0.0
C521 C 0.78391 0.8303 0.73058 0.0
C522 C 0.7614 0.84367 0.75794 0.0
C523 C 0.67361 0.13187 0.25856 0.0
C524 C 0.6861 0.15396 0.23117 0.0
C525 C 0.69602 0.11938 0.28545 0.0
C526 C 0.7318 0.12811 0.28565 0.0
H527 H 0.64598 0.12611 0.26063 0.0
H528 H 0.68486 0.10405 0.30714 0.0
S529 S 0.77818 0.18068 0.21645 0.0
N530 N 0.73703 0.18071 0.20334 0.0
N531 N 0.77919 0.15708 0.25366 0.0
C532 C 0.74506 0.14777 0.25669 0.0
C533 C 0.72217 0.16078 0.22955 0.0
C534 C 0.326 0.63368 0.23789 0.0
C535 C 0.31363 0.65529 0.2658 0.0
C536 C 0.30377 0.62251 0.21026 0.0
C537 C 0.26823 0.63205 0.20976 0.0
H538 H 0.35347 0.62712 0.23613 0.0
H539 H 0.31488 0.60739 0.18839 0.0
S540 S 0.222 0.68432 0.27934 0.0
N541 N 0.26287 0.68285 0.29328 0.0
N542 N 0.22108 0.66166 0.24152 0.0
C543 C 0.255 0.65146 0.23892 0.0
C544 C 0.27772 0.66316 0.26686 0.0
C545 C 0.19428 0.36985 0.70057 0.0
C546 C 0.23023 0.3619 0.70093 0.0
C547 C 0.17228 0.3593 0.72866 0.0
C548 C 0.18534 0.33989 0.75781 0.0
H549 H 0.18278 0.38322 0.67776 0.0
H550 H 0.14455 0.36443 0.72635 0.0
S551 S 0.27789 0.31558 0.77367 0.0
N552 N 0.27828 0.33621 0.73466 0.0
N553 N 0.23684 0.31599 0.78716 0.0
C554 C 0.2215 0.3336 0.75958 0.0
C555 C 0.24398 0.34475 0.73124 0.0
C556 C 0.77053 0.74477 0.86299 0.0
C557 C 0.79926 0.75369 0.88452 0.0
C558 C 0.74075 0.76634 0.86206 0.0
C559 C 0.73846 0.79722 0.8831 0.0
H560 H 0.77164 0.72179 0.84571 0.0
H561 H 0.71989 0.75929 0.84381 0.0
S562 S 0.80484 0.82846 0.9484 0.0
N563 N 0.82256 0.79315 0.92988 0.0
N564 N 0.76616 0.83289 0.92939 0.0
C565 C 0.76623 0.80494 0.90654 0.0
C566 C 0.79678 0.78342 0.90686 0.0
C567 C 0.257 0.6932 0.09391 0.0
C568 C 0.22849 0.70246 0.11578 0.0
C569 C 0.28693 0.71431 0.09231 0.0
C570 C 0.28921 0.74599 0.11177 0.0
H571 H 0.25687 0.66878 0.07883 0.0
H572 H 0.30864 0.70553 0.07595 0.0
S573 S 0.22087 0.78398 0.17066 0.0
N574 N 0.20378 0.74669 0.15587 0.0
N575 N 0.25985 0.78682 0.15198 0.0
C576 C 0.26028 0.75666 0.13223 0.0
C577 C 0.22994 0.73481 0.13441 0.0
C578 C 0.27172 0.26556 0.63395 0.0
C579 C 0.27721 0.29242 0.60839 0.0
C580 C 0.24202 0.24386 0.63241 0.0
C581 C 0.21671 0.24873 0.6056 0.0
H582 H 0.28953 0.26234 0.65627 0.0
H583 H 0.23796 0.22442 0.65331 0.0
S584 S 0.22134 0.31102 0.52921 0.0
N585 N 0.25699 0.31908 0.5527 0.0
N586 N 0.20068 0.27927 0.55086 0.0
C587 C 0.22285 0.27391 0.5788 0.0
C588 C 0.2533 0.29546 0.57988 0.0
C589 C 0.71189 0.20937 0.40522 0.0
C590 C 0.71018 0.24217 0.3876 0.0
C591 C 0.74147 0.18781 0.40253 0.0
C592 C 0.77028 0.19779 0.38145 0.0
H593 H 0.68997 0.20004 0.42094 0.0
H594 H 0.74112 0.16257 0.41613 0.0
S595 S 0.77962 0.28207 0.33141 0.0
N596 N 0.74054 0.28454 0.34991 0.0
N597 N 0.79597 0.24374 0.34417 0.0
C598 C 0.76943 0.23113 0.36469 0.0
C599 C 0.73943 0.25336 0.36791 0.0
C600 C 0.14758 0.17462 0.48262 0.0
C601 C 0.11617 0.17181 0.50184 0.0
C602 C 0.14741 0.18025 0.44549 0.0
C603 C 0.11588 0.18228 0.42629 0.0
H604 H 0.17234 0.17507 0.49666 0.0
H605 H 0.17208 0.18431 0.4319 0.0
S606 S 0.0269 0.17198 0.46372 0.0
N607 N 0.05294 0.16869 0.49889 0.0
N608 N 0.05268 0.17768 0.42866 0.0
C609 C 0.08444 0.17672 0.44479 0.0
C610 C 0.08458 0.17195 0.48276 0.0
C611 C 0.42103 0.81618 0.98635 0.0
C612 C 0.38961 0.82258 0.00486 0.0
C613 C 0.42151 0.81258 0.9489 0.0
C614 C 0.39044 0.81437 0.92905 0.0
H615 H 0.44515 0.8125 0.00106 0.0
H616 H 0.44589 0.80611 0.93572 0.0
S617 S 0.30197 0.83348 0.964 0.0
N618 N 0.32718 0.83343 -6e-05 0.0
N619 N 0.32808 0.82542 0.92971 0.0
C620 C 0.35925 0.82252 0.94688 0.0
C621 C 0.35883 0.82703 0.98481 0.0
C622 C 0.64313 0.32617 0.51407 0.0
C623 C 0.61143 0.3242 0.49519 0.0
C624 C 0.64387 0.32348 0.55153 0.0
C625 C 0.61289 0.31985 0.57135 0.0
H626 H 0.6677 0.32729 0.49971 0.0
H627 H 0.66893 0.32288 0.565 0.0
S628 S 0.52297 0.31777 0.53497 0.0
N629 N 0.54818 0.32106 0.49915 0.0
N630 N 0.54958 0.31751 0.56986 0.0
C631 C 0.5809 0.32057 0.55306 0.0
C632 C 0.58017 0.32233 0.51483 0.0
C633 C 0.8916 0.66441 0.05173 0.0
C634 C 0.89415 0.69788 0.06796 0.0
C635 C 0.8925 0.66081 0.01417 0.0
C636 C 0.89695 0.69046 0.99192 0.0
H637 H 0.88769 0.64109 0.06805 0.0
H638 H 0.88955 0.63478 0.0025 0.0
S639 S 0.90617 0.7837 0.02169 0.0
N640 N 0.90222 0.76091 0.05916 0.0
N641 N 0.90426 0.75432 0.98908 0.0
C642 C 0.90046 0.7239 0.00809 0.0
C643 C 0.89901 0.72756 0.046 0.0
C644 C 0.45243 0.11266 0.20651 0.0
C645 C 0.42678 0.12295 0.18167 0.0
C646 C 0.48804 0.11743 0.19911 0.0
C647 C 0.49902 0.13369 0.16713 0.0
H648 H 0.44486 0.10192 0.2323 0.0
H649 H 0.50688 0.11084 0.21973 0.0
S650 S 0.4423 0.16343 0.09257 0.0
N651 N 0.41487 0.1476 0.12275 0.0
N652 N 0.48174 0.15825 0.10969 0.0
C653 C 0.47373 0.14271 0.14149 0.0
C654 C 0.43757 0.13689 0.14855 0.0
C655 C 0.01976 0.8743 0.70348 0.0
C656 C 0.00933 0.85507 0.67301 0.0
C657 C 0.0552 0.8807 0.71049 0.0
C658 C 0.0812 0.8691 0.68665 0.0
H659 H 1.00064 0.88237 0.72327 0.0
H660 H 0.06239 0.89393 0.73518 0.0
S661 S 0.06732 0.82042 0.60161 0.0
N662 N 0.02765 0.82604 0.61802 0.0
N663 N 0.09413 0.83954 0.63038 0.0
C664 C 0.07098 0.85184 0.65501 0.0
C665 C 0.03503 0.84444 0.64839 0.0
C666 C 0.97328 0.35486 0.84621 0.0
C667 C 0.99875 0.36595 0.82147 0.0
C668 C 0.93786 0.3629 0.84105 0.0
C669 C 0.9267 0.3813 0.81038 0.0
H670 H 0.98061 0.33863 0.86892 0.0
H671 H 0.9189 0.35263 0.85992 0.0
S672 S 0.98308 0.41831 0.73896 0.0
N673 N 0.01055 0.39872 0.76671 0.0
N674 N 0.94382 0.41243 0.75629 0.0
C675 C 0.95198 0.39389 0.78634 0.0
C676 C 0.98811 0.38662 0.79212 0.0
C677 C 0.51418 0.61634 0.29217 0.0
C678 C 0.50263 0.63201 0.32423 0.0
C679 C 0.54989 0.61107 0.28574 0.0
C680 C 0.57498 0.62029 0.31162 0.0
H681 H 0.4958 0.61057 0.27087 0.0
H682 H 0.55801 0.60082 0.25991 0.0
S683 S 0.55761 0.65871 0.40132 0.0
N684 N 0.51861 0.6547 0.38286 0.0
N685 N 0.58563 0.6432 0.37153 0.0
C686 C 0.5635 0.63358 0.34477 0.0
C687 C 0.52729 0.63988 0.35088 0.0
C688 C 0.18682 0.4641 0.14734 0.0
C689 C 0.18794 0.44381 0.11578 0.0
C690 C 0.18419 0.50094 0.14587 0.0
C691 C 0.18367 0.5187 0.11278 0.0
H692 H 0.18902 0.45145 0.17331 0.0
H693 H 0.18498 0.5157 0.17077 0.0
S694 S 0.1833 0.4775 0.0226 0.0
N695 N 0.18544 0.44379 0.05064 0.0
N696 N 0.18211 0.51334 0.04786 0.0
C697 C 0.18323 0.49865 0.08108 0.0
C698 C 0.18492 0.46106 0.0826 0.0
C699 C 0.69028 0.0014 0.90997 0.0
C700 C 0.68805 0.98043 0.87887 0.0
C701 C 0.69038 0.03839 0.9078 0.0
C702 C 0.68933 0.05547 0.87437 0.0
H703 H 0.69338 0.98911 0.93602 0.0
H704 H 0.69366 0.0536 0.9322 0.0
S705 S 0.68055 0.01285 0.78532 0.0
N706 N 0.68185 0.97961 0.81395 0.0
N707 N 0.68337 0.04906 0.80984 0.0
C708 C 0.68535 0.03491 0.84329 0.0
C709 C 0.68431 0.99736 0.84554 0.0
C710 C 0.81707 0.99363 0.4113 0.0
C711 C 0.81834 0.01379 0.37961 0.0
C712 C 0.81595 0.95662 0.41005 0.0
C713 C 0.81492 0.93874 0.37704 0.0
H714 H 0.81552 0.00663 0.43715 0.0
H715 H 0.8136 0.94207 0.43496 0.0
S716 S 0.82027 0.97901 0.28663 0.0
N717 N 0.82127 0.01294 0.31445 0.0
N718 N 0.81775 0.94345 0.31215 0.0
C719 C 0.81781 0.95843 0.34529 0.0
C720 C 0.81994 0.99599 0.34656 0.0
C721 C 0.33463 0.49745 0.61249 0.0
C722 C 0.30359 0.47855 0.6061 0.0
C723 C 0.33442 0.53457 0.61488 0.0
C724 C 0.30302 0.55368 0.61198 0.0
H725 H 0.3591 0.48349 0.61575 0.0
H726 H 0.35869 0.54827 0.62019 0.0
S727 S 0.21484 0.51686 0.59519 0.0
N728 N 0.24074 0.48212 0.59663 0.0
N729 N 0.24051 0.55123 0.60155 0.0
C730 C 0.27203 0.5351 0.60527 0.0
C731 C 0.27227 0.4977 0.60226 0.0
C732 C 0.88954 0.8162 0.50601 0.0
C733 C 0.85951 0.83652 0.49903 0.0
C734 C 0.90015 0.80917 0.54128 0.0
C735 C 0.8816 0.82304 0.57049 0.0
H736 H 0.90352 0.80356 0.48426 0.0
H737 H 0.9218 0.79131 0.54576 0.0
S738 S 0.80441 0.88167 0.56678 0.0
N739 N 0.81353 0.87318 0.52432 0.0
N740 N 0.83409 0.86043 0.59061 0.0
C741 C 0.85327 0.84552 0.56394 0.0
C742 C 0.84208 0.85223 0.52813 0.0
C743 C 0.6203 0.16527 0.00771 0.0
C744 C 0.65569 0.15991 -0.00125 0.0
C745 C 0.60997 0.17146 0.04338 0.0
C746 C 0.6348 0.17281 0.07102 0.0
H747 H 0.60059 0.16615 0.9869 0.0
H748 H 0.58281 0.17711 0.04903 0.0
S749 S 0.72973 0.15624 0.06308 0.0
N750 N 0.71488 0.15277 0.02166 0.0
N751 N 0.69536 0.16523 0.08815 0.0
C752 C 0.66977 0.16554 0.06287 0.0
C753 C 0.68027 0.1588 0.02685 0.0
C754 C 0.39921 0.68485 0.45664 0.0
C755 C 0.38046 0.66932 0.4284 0.0
C756 C 0.39054 0.6777 0.49248 0.0
C757 C 0.36218 0.65563 0.501 0.0
H758 H 0.41961 0.70386 0.45097 0.0
H759 H 0.4045 0.69152 0.51349 0.0
S760 S 0.30707 0.60629 0.4364 0.0
N761 N 0.33451 0.62876 0.41096 0.0
N762 N 0.31735 0.61606 0.4783 0.0
C763 C 0.34449 0.63855 0.4729 0.0
C764 C 0.35383 0.64526 0.43652 0.0
C765 C 0.17347 0.34129 0.96686 0.0
C766 C 0.14829 0.3406 0.99438 0.0
C767 C 0.16426 0.33509 0.93115 0.0
C768 C 0.12948 0.32875 0.92141 0.0
H769 H 0.20088 0.34472 0.97303 0.0
H770 H 0.18476 0.33376 0.91115 0.0
S771 S 0.05288 0.32847 0.98189 0.0
N772 N 0.0864 0.33608 0.00871 0.0
N773 N 0.06923 0.32508 0.94101 0.0
C774 C 0.10361 0.33056 0.94794 0.0
C775 C 0.11299 0.33638 0.98461 0.0
C776 C 0.56517 0.8726 0.81299 0.0
C777 C 0.58305 0.86097 0.84386 0.0
C778 C 0.52947 0.86527 0.80807 0.0
C779 C 0.51085 0.84538 0.83347 0.0
H780 H 0.57895 0.88694 0.79223 0.0
H781 H 0.51684 0.87376 0.78355 0.0
S782 S 0.54451 0.81048 0.91959 0.0
N783 N 0.57842 0.83028 0.9011 0.0
N784 N 0.51195 0.81575 0.8911 0.0
C785 C 0.52805 0.8345 0.86476 0.0
C786 C 0.564 0.84252 0.87018 0.0
C787 C 0.94382 0.11855 0.31413 0.0
C788 C 0.92372 0.13527 0.34082 0.0
C789 C 0.97928 0.12718 0.30917 0.0
C790 C 0.99529 0.15362 0.32998 0.0
H791 H 0.93205 0.09883 0.29691 0.0
H792 H 0.99381 0.11411 0.28807 0.0
S793 S 0.95401 0.20525 0.4032 0.0
N794 N 0.92278 0.17888 0.3887 0.0
N795 N 0.98853 0.19596 0.37848 0.0
C796 C 0.97548 0.17023 0.35686 0.0
C797 C 0.93991 0.16084 0.36251 0.0
C798 C 0.0579 0.65537 0.13145 0.0
C799 C 0.07586 0.63285 0.15509 0.0
C800 C 0.02253 0.66308 0.13646 0.0
C801 C 0.0035 0.64775 0.16462 0.0
H802 H 0.07159 0.6684 0.10974 0.0
H803 H 0.01008 0.68171 0.11847 0.0
S804 S 0.03739 0.58503 0.2324 0.0
N805 N 0.07156 0.59415 0.20697 0.0
N806 N 0.00444 0.60775 0.21549 0.0
C807 C 0.02054 0.62388 0.18747 0.0
C808 C 0.05693 0.6167 0.18296 0.0
C809 C 0.44269 0.34704 0.63014 0.0
C810 C 0.42345 0.36936 0.65295 0.0
C811 C 0.47757 0.33878 0.63738 0.0
C812 C 0.49499 0.35335 0.66704 0.0
H813 H 0.43031 0.3345 0.60733 0.0
H814 H 0.49089 0.32037 0.61984 0.0
S815 S 0.45744 0.41522 0.73366 0.0
N816 N 0.42486 0.40696 0.70584 0.0
N817 N 0.49119 0.39248 0.7185 0.0
C818 C 0.47675 0.37702 0.68916 0.0
C819 C 0.44076 0.38473 0.68237 0.0
C820 C 0.87419 0.53703 0.88129 0.0
C821 C 0.84717 0.55936 0.8933 0.0
C822 C 0.86752 0.50203 0.87142 0.0
C823 C 0.83385 0.48784 0.87406 0.0
H824 H 0.90032 0.54718 0.87723 0.0
H825 H 0.8885 0.48647 0.85997 0.0
S826 S 0.75487 0.53311 0.90792 0.0
N827 N 0.78587 0.56335 0.91027 0.0
N828 N 0.77379 0.4971 0.89217 0.0
C829 C 0.80715 0.50871 0.88852 0.0
C830 C 0.81373 0.54461 0.89817 0.0
C831 C 0.36933 0.95746 0.13607 0.0
C832 C 0.34521 0.93872 0.11493 0.0
C833 C 0.36358 0.99274 0.14521 0.0
C834 C 0.33407 0.01086 0.13273 0.0
H835 H 0.39191 0.94432 0.14738 0.0
H836 H 0.38185 0.00566 0.16313 0.0
S837 S 0.26497 0.9753 0.07347 0.0
N838 N 0.29182 0.9417 0.07969 0.0
N839 N 0.28174 0.00878 0.0961 0.0
C840 C 0.31089 0.99336 0.10967 0.0
C841 C 0.31628 0.95702 0.10098 0.0
C842 C 0.1414 0.00482 0.64869 0.0
C843 C 0.17005 0.98585 0.63536 0.0
C844 C 0.13552 0.03978 0.63839 0.0
C845 C 0.15871 0.05734 0.61522 0.0
H846 H 0.1239 0.99282 0.668 0.0
H847 H 0.11368 0.05368 0.65029 0.0
S848 S 0.2365 0.01831 0.57123 0.0
N849 N 0.22054 0.98593 0.59599 0.0
N850 N 0.2103 0.05243 0.5775 0.0
C851 C 0.18679 0.03821 0.60063 0.0
C852 C 0.19224 0.00219 0.61046 0.0
C853 C 0.6849 0.45281 0.39079 0.0
C854 C 0.65363 0.43575 0.38097 0.0
C855 C 0.69067 0.48847 0.38222 0.0
C856 C 0.66558 0.50781 0.3631 0.0
H857 H 0.70549 0.43826 0.40411 0.0
H858 H 0.71559 0.50034 0.38877 0.0
S859 S 0.57847 0.477 0.33381 0.0
N860 N 0.59619 0.44235 0.35354 0.0
N861 N 0.6078 0.50877 0.33671 0.0
C862 C 0.63376 0.49173 0.35458 0.0
C863 C 0.62754 0.45581 0.36377 0.0
loop_
_geom_bond_atom_site_label_1
_geom_bond_atom_site_label_2
_geom_bond_distance
_geom_bond_site_symmetry_2
_ccdc_geom_bond_type
Co0 O1 2.216 . S
Co0 O2 2.091 . S
Co0 O4 2.004 . S
Co0 O10 2.021 . S
Co0 O12 2.137 . S
Co0 O13 2.244 . S
O1 Co0 2.216 . S
O1 C8 1.247 . S
O2 Co0 2.091 . S
O2 C8 1.261 . S
C3 O12 1.247 . S
C3 O13 1.272 . S
O4 Co0 2.004 . S
O4 C9 1.259 . S
Co5 O6 2.061 . S
Co5 O11 2.052 . S
Co5 O13 2.135 . S
O6 Co5 2.061 . S
O6 C9 1.235 . S
C7 O10 1.238 . S
C7 O11 1.241 . S
C8 O1 1.247 . S
C8 O2 1.261 . S
C9 O4 1.259 . S
C9 O6 1.235 . S
O10 Co0 2.021 . S
O10 C7 1.238 . S
O11 Co5 2.052 . S
O11 C7 1.241 . S
O12 Co0 2.137 . S
O12 C3 1.247 . S
O13 Co0 2.244 . S
O13 C3 1.272 . S
O13 Co5 2.135 . S
Co14 O15 2.216 . S
Co14 O16 2.091 . S
Co14 O18 2.004 . S
Co14 O24 2.021 . S
Co14 O26 2.137 . S
Co14 O27 2.244 . S
O15 Co14 2.216 . S
O15 C22 1.247 . S
O16 Co14 2.091 . S
O16 C22 1.261 . S
C17 O26 1.247 . S
C17 O27 1.272 . S
O18 Co14 2.004 . S
O18 C23 1.259 . S
Co19 O20 2.061 . S
Co19 O25 2.052 . S
Co19 O27 2.135 . S
O20 Co19 2.061 . S
O20 C23 1.235 . S
C21 O24 1.238 . S
C21 O25 1.241 . S
C22 O15 1.247 . S
C22 O16 1.261 . S
C23 O18 1.259 . S
C23 O20 1.235 . S
O24 Co14 2.021 . S
O24 C21 1.238 . S
O25 Co19 2.052 . S
O25 C21 1.241 . S
O26 Co14 2.137 . S
O26 C17 1.247 . S
O27 Co14 2.244 . S
O27 C17 1.272 . S
O27 Co19 2.135 . S
Co28 O29 2.216 . S
Co28 O30 2.091 . S
Co28 O32 2.004 . S
Co28 O38 2.021 . S
Co28 O40 2.137 . S
Co28 O41 2.244 . S
O29 Co28 2.216 . S
O29 C36 1.247 . S
O30 Co28 2.091 . S
O30 C36 1.261 . S
C31 O40 1.247 . S
C31 O41 1.272 . S
O32 Co28 2.004 . S
O32 C37 1.259 . S
Co33 O34 2.061 . S
Co33 O39 2.052 . S
Co33 O41 2.135 . S
O34 Co33 2.061 . S
O34 C37 1.235 . S
C35 O38 1.238 . S
C35 O39 1.241 . S
C36 O29 1.247 . S
C36 O30 1.261 . S
C37 O32 1.259 . S
C37 O34 1.235 . S
O38 Co28 2.021 . S
O38 C35 1.238 . S
O39 Co33 2.052 . S
O39 C35 1.241 . S
O40 Co28 2.137 . S
O40 C31 1.247 . S
O41 Co28 2.244 . S
O41 C31 1.272 . S
O41 Co33 2.135 . S
Co42 O43 2.216 . S
Co42 O44 2.091 . S
Co42 O46 2.004 . S
Co42 O52 2.021 . S
Co42 O54 2.137 . S
Co42 O55 2.244 . S
O43 Co42 2.216 . S
O43 C50 1.247 . S
O44 Co42 2.091 . S
O44 C50 1.261 . S
C45 O54 1.247 . S
C45 O55 1.272 . S
O46 Co42 2.004 . S
O46 C51 1.259 . S
Co47 O48 2.061 . S
Co47 O53 2.052 . S
Co47 O55 2.135 . S
O48 Co47 2.061 . S
O48 C51 1.235 . S
C49 O52 1.238 . S
C49 O53 1.241 . S
C50 O43 1.247 . S
C50 O44 1.261 . S
C51 O46 1.259 . S
C51 O48 1.235 . S
O52 Co42 2.021 . S
O52 C49 1.238 . S
O53 Co47 2.052 . S
O53 C49 1.241 . S
O54 Co42 2.137 . S
O54 C45 1.247 . S
O55 Co42 2.244 . S
O55 C45 1.272 . S
O55 Co47 2.135 . S
Co56 O57 2.216 . S
Co56 O58 2.091 . S
Co56 O60 2.004 . S
Co56 O66 2.021 . S
Co56 O68 2.137 . S
Co56 O69 2.244 . S
O57 Co56 2.216 . S
O57 C64 1.247 . S
O58 Co56 2.091 . S
O58 C64 1.261 . S
C59 O68 1.247 . S
C59 O69 1.272 . S
O60 Co56 2.004 . S
O60 C65 1.259 . S
Co61 O62 2.061 . S
Co61 O67 2.052 . S
Co61 O69 2.135 . S
O62 Co61 2.061 . S
O62 C65 1.235 . S
C63 O66 1.238 . S
C63 O67 1.241 . S
C64 O57 1.247 . S
C64 O58 1.261 . S
C65 O60 1.259 . S
C65 O62 1.235 . S
O66 Co56 2.021 . S
O66 C63 1.238 . S
O67 Co61 2.052 . S
O67 C63 1.241 . S
O68 Co56 2.137 . S
O68 C59 1.247 . S
O69 Co56 2.244 . S
O69 C59 1.272 . S
O69 Co61 2.135 . S
Co70 O71 2.216 . S
Co70 O72 2.091 . S
Co70 O74 2.004 . S
Co70 O80 2.021 . S
Co70 O82 2.137 . S
Co70 O83 2.244 . S
O71 Co70 2.216 . S
O71 C78 1.247 . S
O72 Co70 2.091 . S
O72 C78 1.261 . S
C73 O82 1.247 . S
C73 O83 1.272 . S
O74 Co70 2.004 . S
O74 C79 1.259 . S
Co75 O76 2.061 . S
Co75 O81 2.052 . S
Co75 O83 2.135 . S
O76 Co75 2.061 . S
O76 C79 1.235 . S
C77 O80 1.238 . S
C77 O81 1.241 . S
C78 O71 1.247 . S
C78 O72 1.261 . S
C79 O74 1.259 . S
C79 O76 1.235 . S
O80 Co70 2.021 . S
O80 C77 1.238 . S
O81 Co75 2.052 . S
O81 C77 1.241 . S
O82 Co70 2.137 . S
O82 C73 1.247 . S
O83 Co70 2.244 . S
O83 C73 1.272 . S
O83 Co75 2.135 . S
Co84 O85 2.216 . S
Co84 O86 2.091 . S
Co84 O88 2.004 . S
Co84 O94 2.021 . S
Co84 O96 2.137 . S
Co84 O97 2.244 . S
O85 Co84 2.216 . S
O85 C92 1.247 . S
O86 Co84 2.091 . S
O86 C92 1.261 . S
C87 O96 1.247 . S
C87 O97 1.272 . S
O88 Co84 2.004 . S
O88 C93 1.259 . S
Co89 O90 2.061 . S
Co89 O95 2.052 . S
Co89 O97 2.135 . S
O90 Co89 2.061 . S
O90 C93 1.235 . S
C91 O94 1.238 . S
C91 O95 1.241 . S
C92 O85 1.247 . S
C92 O86 1.261 . S
C93 O88 1.259 . S
C93 O90 1.235 . S
O94 Co84 2.021 . S
O94 C91 1.238 . S
O95 Co89 2.052 . S
O95 C91 1.241 . S
O96 Co84 2.137 . S
O96 C87 1.247 . S
O97 Co84 2.244 . S
O97 C87 1.272 . S
O97 Co89 2.135 . S
Co98 O99 2.216 . S
Co98 O100 2.091 . S
Co98 O102 2.004 . S
Co98 O108 2.021 . S
Co98 O110 2.137 . S
Co98 O111 2.244 . S
O99 Co98 2.216 . S
O99 C106 1.247 . S
O100 Co98 2.091 . S
O100 C106 1.261 . S
C101 O110 1.247 . S
C101 O111 1.272 . S
O102 Co98 2.004 . S
O102 C107 1.259 . S
Co103 O104 2.061 . S
Co103 O109 2.052 . S
Co103 O111 2.135 . S
O104 Co103 2.061 . S
O104 C107 1.235 . S
C105 O108 1.238 . S
C105 O109 1.241 . S
C106 O99 1.247 . S
C106 O100 1.261 . S
C107 O102 1.259 . S
C107 O104 1.235 . S
O108 Co98 2.021 . S
O108 C105 1.238 . S
O109 Co103 2.052 . S
O109 C105 1.241 . S
O110 Co98 2.137 . S
O110 C101 1.247 . S
O111 Co98 2.244 . S
O111 C101 1.272 . S
O111 Co103 2.135 . S
Co112 O113 2.216 . S
Co112 O114 2.091 . S
Co112 O116 2.004 . S
Co112 O122 2.021 . S
Co112 O124 2.137 . S
Co112 O125 2.244 . S
O113 Co112 2.216 . S
O113 C120 1.247 . S
O114 Co112 2.091 . S
O114 C120 1.261 . S
C115 O124 1.247 . S
C115 O125 1.272 . S
O116 Co112 2.004 . S
O116 C121 1.259 . S
Co117 O118 2.061 . S
Co117 O123 2.052 . S
Co117 O125 2.135 . S
O118 Co117 2.061 . S
O118 C121 1.235 . S
C119 O122 1.238 . S
C119 O123 1.241 . S
C120 O113 1.247 . S
C120 O114 1.261 . S
C121 O116 1.259 . S
C121 O118 1.235 . S
O122 Co112 2.021 . S
O122 C119 1.238 . S
O123 Co117 2.052 . S
O123 C119 1.241 . S
O124 Co112 2.137 . S
O124 C115 1.247 . S
O125 Co112 2.244 . S
O125 C115 1.272 . S
O125 Co117 2.135 . S
Co126 O127 2.216 . S
Co126 O128 2.091 . S
Co126 O130 2.004 . S
Co126 O136 2.021 . S
Co126 O138 2.137 . S
Co126 O139 2.244 . S
O127 Co126 2.216 . S
O127 C134 1.247 . S
O128 Co126 2.091 . S
O128 C134 1.261 . S
C129 O138 1.247 . S
C129 O139 1.272 . S
O130 Co126 2.004 . S
O130 C135 1.259 . S
Co131 O132 2.061 . S
Co131 O137 2.052 . S
Co131 O139 2.135 . S
O132 Co131 2.061 . S
O132 C135 1.235 . S
C133 O136 1.238 . S
C133 O137 1.241 . S
C134 O127 1.247 . S
C134 O128 1.261 . S
C135 O130 1.259 . S
C135 O132 1.235 . S
O136 Co126 2.021 . S
O136 C133 1.238 . S
O137 Co131 2.052 . S
O137 C133 1.241 . S
O138 Co126 2.137 . S
O138 C129 1.247 . S
O139 Co126 2.244 . S
O139 C129 1.272 . S
O139 Co131 2.135 . S
Co140 O141 2.216 . S
Co140 O142 2.091 . S
Co140 O144 2.004 . S
Co140 O150 2.021 . S
Co140 O152 2.137 . S
Co140 O153 2.244 . S
O141 Co140 2.216 . S
O141 C148 1.247 . S
O142 Co140 2.091 . S
O142 C148 1.261 . S
C143 O152 1.247 . S
C143 O153 1.272 . S
O144 Co140 2.004 . S
O144 C149 1.259 . S
Co145 O146 2.061 . S
Co145 O151 2.052 . S
Co145 O153 2.135 . S
O146 Co145 2.061 . S
O146 C149 1.235 . S
C147 O150 1.238 . S
C147 O151 1.241 . S
C148 O141 1.247 . S
C148 O142 1.261 . S
C149 O144 1.259 . S
C149 O146 1.235 . S
O150 Co140 2.021 . S
O150 C147 1.238 . S
O151 Co145 2.052 . S
O151 C147 1.241 . S
O152 Co140 2.137 . S
O152 C143 1.247 . S
O153 Co140 2.244 . S
O153 C143 1.272 . S
O153 Co145 2.135 . S
Co154 O155 2.216 . S
Co154 O156 2.091 . S
Co154 O158 2.004 . S
Co154 O164 2.021 . S
Co154 O166 2.137 . S
Co154 O167 2.244 . S
O155 Co154 2.216 . S
O155 C162 1.247 . S
O156 Co154 2.091 . S
O156 C162 1.261 . S
C157 O166 1.247 . S
C157 O167 1.272 . S
O158 Co154 2.004 . S
O158 C163 1.259 . S
Co159 O160 2.061 . S
Co159 O165 2.052 . S
Co159 O167 2.135 . S
O160 Co159 2.061 . S
O160 C163 1.235 . S
C161 O164 1.238 . S
C161 O165 1.241 . S
C162 O155 1.247 . S
C162 O156 1.261 . S
C163 O158 1.259 . S
C163 O160 1.235 . S
O164 Co154 2.021 . S
O164 C161 1.238 . S
O165 Co159 2.052 . S
O165 C161 1.241 . S
O166 Co154 2.137 . S
O166 C157 1.247 . S
O167 Co154 2.244 . S
O167 C157 1.272 . S
O167 Co159 2.135 . S
Co168 O169 2.216 . S
Co168 O170 2.091 . S
Co168 O172 2.004 . S
Co168 O178 2.021 . S
Co168 O180 2.137 . S
Co168 O181 2.244 . S
O169 Co168 2.216 . S
O169 C176 1.247 . S
O170 Co168 2.091 . S
O170 C176 1.261 . S
C171 O180 1.247 . S
C171 O181 1.272 . S
O172 Co168 2.004 . S
O172 C177 1.259 . S
Co173 O174 2.061 . S
Co173 O179 2.052 . S
Co173 O181 2.135 . S
O174 Co173 2.061 . S
O174 C177 1.235 . S
C175 O178 1.238 . S
C175 O179 1.241 . S
C176 O169 1.247 . S
C176 O170 1.261 . S
C177 O172 1.259 . S
C177 O174 1.235 . S
O178 Co168 2.021 . S
O178 C175 1.238 . S
O179 Co173 2.052 . S
O179 C175 1.241 . S
O180 Co168 2.137 . S
O180 C171 1.247 . S
O181 Co168 2.244 . S
O181 C171 1.272 . S
O181 Co173 2.135 . S
Co182 O183 2.216 . S
Co182 O184 2.091 . S
Co182 O186 2.004 . S
Co182 O192 2.021 . S
Co182 O194 2.137 . S
Co182 O195 2.244 . S
O183 Co182 2.216 . S
O183 C190 1.247 . S
O184 Co182 2.091 . S
O184 C190 1.261 . S
C185 O194 1.247 . S
C185 O195 1.272 . S
O186 Co182 2.004 . S
O186 C191 1.259 . S
Co187 O188 2.061 . S
Co187 O193 2.052 . S
Co187 O195 2.135 . S
O188 Co187 2.061 . S
O188 C191 1.235 . S
C189 O192 1.238 . S
C189 O193 1.241 . S
C190 O183 1.247 . S
C190 O184 1.261 . S
C191 O186 1.259 . S
C191 O188 1.235 . S
O192 Co182 2.021 . S
O192 C189 1.238 . S
O193 Co187 2.052 . S
O193 C189 1.241 . S
O194 Co182 2.137 . S
O194 C185 1.247 . S
O195 Co182 2.244 . S
O195 C185 1.272 . S
O195 Co187 2.135 . S
Co196 O197 2.216 . S
Co196 O198 2.091 . S
Co196 O200 2.004 . S
Co196 O206 2.021 . S
Co196 O208 2.137 . S
Co196 O209 2.244 . S
O197 Co196 2.216 . S
O197 C204 1.247 . S
O198 Co196 2.091 . S
O198 C204 1.261 . S
C199 O208 1.247 . S
C199 O209 1.272 . S
O200 Co196 2.004 . S
O200 C205 1.259 . S
Co201 O202 2.061 . S
Co201 O207 2.052 . S
Co201 O209 2.135 . S
O202 Co201 2.061 . S
O202 C205 1.235 . S
C203 O206 1.238 . S
C203 O207 1.241 . S
C204 O197 1.247 . S
C204 O198 1.261 . S
C205 O200 1.259 . S
C205 O202 1.235 . S
O206 Co196 2.021 . S
O206 C203 1.238 . S
O207 Co201 2.052 . S
O207 C203 1.241 . S
O208 Co196 2.137 . S
O208 C199 1.247 . S
O209 Co196 2.244 . S
O209 C199 1.272 . S
O209 Co201 2.135 . S
Co210 O211 2.216 . S
Co210 O212 2.091 . S
Co210 O214 2.004 . S
Co210 O220 2.021 . S
Co210 O222 2.137 . S
Co210 O223 2.244 . S
O211 Co210 2.216 . S
O211 C218 1.247 . S
O212 Co210 2.091 . S
O212 C218 1.261 . S
C213 O222 1.247 . S
C213 O223 1.272 . S
O214 Co210 2.004 . S
O214 C219 1.259 . S
Co215 O216 2.061 . S
Co215 O221 2.052 . S
Co215 O223 2.135 . S
O216 Co215 2.061 . S
O216 C219 1.235 . S
C217 O220 1.238 . S
C217 O221 1.241 . S
C218 O211 1.247 . S
C218 O212 1.261 . S
C219 O214 1.259 . S
C219 O216 1.235 . S
O220 Co210 2.021 . S
O220 C217 1.238 . S
O221 Co215 2.052 . S
O221 C217 1.241 . S
O222 Co210 2.137 . S
O222 C213 1.247 . S
O223 Co210 2.244 . S
O223 C213 1.272 . S
O223 Co215 2.135 . S
Co224 O225 2.216 . S
Co224 O226 2.091 . S
Co224 O228 2.004 . S
Co224 O234 2.021 . S
Co224 O236 2.137 . S
Co224 O237 2.244 . S
O225 Co224 2.216 . S
O225 C232 1.247 . S
O226 Co224 2.091 . S
O226 C232 1.261 . S
C227 O236 1.247 . S
C227 O237 1.272 . S
O228 Co224 2.004 . S
O228 C233 1.259 . S
Co229 O230 2.061 . S
Co229 O235 2.052 . S
Co229 O237 2.135 . S
O230 Co229 2.061 . S
O230 C233 1.235 . S
C231 O234 1.238 . S
C231 O235 1.241 . S
C232 O225 1.247 . S
C232 O226 1.261 . S
C233 O228 1.259 . S
C233 O230 1.235 . S
O234 Co224 2.021 . S
O234 C231 1.238 . S
O235 Co229 2.052 . S
O235 C231 1.241 . S
O236 Co224 2.137 . S
O236 C227 1.247 . S
O237 Co224 2.244 . S
O237 C227 1.272 . S
O237 Co229 2.135 . S
Co238 O239 2.216 . S
Co238 O240 2.091 . S
Co238 O242 2.004 . S
Co238 O248 2.021 . S
Co238 O250 2.137 . S
Co238 O251 2.244 . S
O239 Co238 2.216 . S
O239 C246 1.247 . S
O240 Co238 2.091 . S
O240 C246 1.261 . S
C241 O250 1.247 . S
C241 O251 1.272 . S
O242 Co238 2.004 . S
O242 C247 1.259 . S
Co243 O244 2.061 . S
Co243 O249 2.052 . S
Co243 O251 2.135 . S
O244 Co243 2.061 . S
O244 C247 1.235 . S
C245 O248 1.238 . S
C245 O249 1.241 . S
C246 O239 1.247 . S
C246 O240 1.261 . S
C247 O242 1.259 . S
C247 O244 1.235 . S
O248 Co238 2.021 . S
O248 C245 1.238 . S
O249 Co243 2.052 . S
O249 C245 1.241 . S
O250 Co238 2.137 . S
O250 C241 1.247 . S
O251 Co238 2.244 . S
O251 C241 1.272 . S
O251 Co243 2.135 . S
Co252 O253 2.216 . S
Co252 O254 2.091 . S
Co252 O256 2.004 . S
Co252 O262 2.021 . S
Co252 O264 2.137 . S
Co252 O265 2.244 . S
O253 Co252 2.216 . S
O253 C260 1.247 . S
O254 Co252 2.091 . S
O254 C260 1.261 . S
C255 O264 1.247 . S
C255 O265 1.272 . S
O256 Co252 2.004 . S
O256 C261 1.259 . S
Co257 O258 2.061 . S
Co257 O263 2.052 . S
Co257 O265 2.135 . S
O258 Co257 2.061 . S
O258 C261 1.235 . S
C259 O262 1.238 . S
C259 O263 1.241 . S
C260 O253 1.247 . S
C260 O254 1.261 . S
C261 O256 1.259 . S
C261 O258 1.235 . S
O262 Co252 2.021 . S
O262 C259 1.238 . S
O263 Co257 2.052 . S
O263 C259 1.241 . S
O264 Co252 2.137 . S
O264 C255 1.247 . S
O265 Co252 2.244 . S
O265 C255 1.272 . S
O265 Co257 2.135 . S
Co266 O267 2.216 . S
Co266 O268 2.091 . S
Co266 O270 2.004 . S
Co266 O276 2.021 . S
Co266 O278 2.137 . S
Co266 O279 2.244 . S
O267 Co266 2.216 . S
O267 C274 1.247 . S
O268 Co266 2.091 . S
O268 C274 1.261 . S
C269 O278 1.247 . S
C269 O279 1.272 . S
O270 Co266 2.004 . S
O270 C275 1.259 . S
Co271 O272 2.061 . S
Co271 O277 2.052 . S
Co271 O279 2.135 . S
O272 Co271 2.061 . S
O272 C275 1.235 . S
C273 O276 1.238 . S
C273 O277 1.241 . S
C274 O267 1.247 . S
C274 O268 1.261 . S
C275 O270 1.259 . S
C275 O272 1.235 . S
O276 Co266 2.021 . S
O276 C273 1.238 . S
O277 Co271 2.052 . S
O277 C273 1.241 . S
O278 Co266 2.137 . S
O278 C269 1.247 . S
O279 Co266 2.244 . S
O279 C269 1.272 . S
O279 Co271 2.135 . S
Co280 O281 2.216 . S
Co280 O282 2.091 . S
Co280 O284 2.004 . S
Co280 O290 2.021 . S
Co280 O292 2.137 . S
Co280 O293 2.244 . S
O281 Co280 2.216 . S
O281 C288 1.247 . S
O282 Co280 2.091 . S
O282 C288 1.261 . S
C283 O292 1.247 . S
C283 O293 1.272 . S
O284 Co280 2.004 . S
O284 C289 1.259 . S
Co285 O286 2.061 . S
Co285 O291 2.052 . S
Co285 O293 2.135 . S
O286 Co285 2.061 . S
O286 C289 1.235 . S
C287 O290 1.238 . S
C287 O291 1.241 . S
C288 O281 1.247 . S
C288 O282 1.261 . S
C289 O284 1.259 . S
C289 O286 1.235 . S
O290 Co280 2.021 . S
O290 C287 1.238 . S
O291 Co285 2.052 . S
O291 C287 1.241 . S
O292 Co280 2.137 . S
O292 C283 1.247 . S
O293 Co280 2.244 . S
O293 C283 1.272 . S
O293 Co285 2.135 . S
Co294 O295 2.216 . S
Co294 O296 2.091 . S
Co294 O298 2.004 . S
Co294 O304 2.021 . S
Co294 O306 2.137 . S
Co294 O307 2.244 . S
O295 Co294 2.216 . S
O295 C302 1.247 . S
O296 Co294 2.091 . S
O296 C302 1.261 . S
C297 O306 1.247 . S
C297 O307 1.272 . S
O298 Co294 2.004 . S
O298 C303 1.259 . S
Co299 O300 2.061 . S
Co299 O305 2.052 . S
Co299 O307 2.135 . S
O300 Co299 2.061 . S
O300 C303 1.235 . S
C301 O304 1.238 . S
C301 O305 1.241 . S
C302 O295 1.247 . S
C302 O296 1.261 . S
C303 O298 1.259 . S
C303 O300 1.235 . S
O304 Co294 2.021 . S
O304 C301 1.238 . S
O305 Co299 2.052 . S
O305 C301 1.241 . S
O306 Co294 2.137 . S
O306 C297 1.247 . S
O307 Co294 2.244 . S
O307 C297 1.272 . S
O307 Co299 2.135 . S
Co308 O309 2.216 . S
Co308 O310 2.091 . S
Co308 O312 2.004 . S
Co308 O318 2.021 . S
Co308 O320 2.137 . S
Co308 O321 2.244 . S
O309 Co308 2.216 . S
O309 C316 1.247 . S
O310 Co308 2.091 . S
O310 C316 1.261 . S
C311 O320 1.247 . S
C311 O321 1.272 . S
O312 Co308 2.004 . S
O312 C317 1.259 . S
Co313 O314 2.061 . S
Co313 O319 2.052 . S
Co313 O321 2.135 . S
O314 Co313 2.061 . S
O314 C317 1.235 . S
C315 O318 1.238 . S
C315 O319 1.241 . S
C316 O309 1.247 . S
C316 O310 1.261 . S
C317 O312 1.259 . S
C317 O314 1.235 . S
O318 Co308 2.021 . S
O318 C315 1.238 . S
O319 Co313 2.052 . S
O319 C315 1.241 . S
O320 Co308 2.137 . S
O320 C311 1.247 . S
O321 Co308 2.244 . S
O321 C311 1.272 . S
O321 Co313 2.135 . S
Co322 O323 2.216 . S
Co322 O324 2.091 . S
Co322 O326 2.004 . S
Co322 O332 2.021 . S
Co322 O334 2.137 . S
Co322 O335 2.244 . S
O323 Co322 2.216 . S
O323 C330 1.247 . S
O324 Co322 2.091 . S
O324 C330 1.261 . S
C325 O334 1.247 . S
C325 O335 1.272 . S
O326 Co322 2.004 . S
O326 C331 1.259 . S
Co327 O328 2.061 . S
Co327 O333 2.052 . S
Co327 O335 2.135 . S
O328 Co327 2.061 . S
O328 C331 1.235 . S
C329 O332 1.238 . S
C329 O333 1.241 . S
C330 O323 1.247 . S
C330 O324 1.261 . S
C331 O326 1.259 . S
C331 O328 1.235 . S
O332 Co322 2.021 . S
O332 C329 1.238 . S
O333 Co327 2.052 . S
O333 C329 1.241 . S
O334 Co322 2.137 . S
O334 C325 1.247 . S
O335 Co322 2.244 . S
O335 C325 1.272 . S
O335 Co327 2.135 . S
C336 C337 1.369 . S
C336 C338 1.419 . S
C336 H340 0.930 . S
C337 C336 1.369 . S
C337 C346 1.429 . S
C338 C336 1.419 . S
C338 C339 1.363 . S
C338 H341 0.929 . S
C339 C338 1.363 . S
C339 C345 1.428 . S
H340 C336 0.930 . S
H341 C338 0.929 . S
S342 N343 1.613 . S
S342 N344 1.610 . S
N343 S342 1.613 . S
N343 C346 1.350 . S
N344 S342 1.610 . S
N344 C345 1.351 . S
C345 C339 1.428 . S
C345 N344 1.351 . S
C345 C346 1.434 . S
C346 C337 1.429 . S
C346 N343 1.350 . S
C346 C345 1.434 . S
C347 C348 1.369 . S
C347 C349 1.419 . S
C347 H351 0.930 . S
C348 C347 1.369 . S
C348 C357 1.429 . S
C349 C347 1.419 . S
C349 C350 1.363 . S
C349 H352 0.929 . S
C350 C349 1.363 . S
C350 C356 1.428 . S
H351 C347 0.930 . S
H352 C349 0.929 . S
S353 N354 1.613 . S
S353 N355 1.610 . S
N354 S353 1.613 . S
N354 C357 1.350 . S
N355 S353 1.610 . S
N355 C356 1.351 . S
C356 C350 1.428 . S
C356 N355 1.351 . S
C356 C357 1.434 . S
C357 C348 1.429 . S
C357 N354 1.350 . S
C357 C356 1.434 . S
C358 C359 1.369 . S
C358 C360 1.419 . S
C358 H362 0.930 . S
C359 C358 1.369 . S
C359 C368 1.429 . S
C360 C358 1.419 . S
C360 C361 1.363 . S
C360 H363 0.929 . S
C361 C360 1.363 . S
C361 C367 1.428 . S
H362 C358 0.930 . S
H363 C360 0.929 . S
S364 N365 1.613 . S
S364 N366 1.610 . S
N365 S364 1.613 . S
N365 C368 1.350 . S
N366 S364 1.610 . S
N366 C367 1.351 . S
C367 C361 1.428 . S
C367 N366 1.351 . S
C367 C368 1.434 . S
C368 C359 1.429 . S
C368 N365 1.350 . S
C368 C367 1.434 . S
C369 C370 1.369 . S
C369 C371 1.419 . S
C369 H373 0.930 . S
C370 C369 1.369 . S
C370 C379 1.429 . S
C371 C369 1.419 . S
C371 C372 1.363 . S
C371 H374 0.929 . S
C372 C371 1.363 . S
C372 C378 1.428 . S
H373 C369 0.930 . S
H374 C371 0.929 . S
S375 N376 1.613 . S
S375 N377 1.610 . S
N376 S375 1.613 . S
N376 C379 1.350 . S
N377 S375 1.610 . S
N377 C378 1.351 . S
C378 C372 1.428 . S
C378 N377 1.351 . S
C378 C379 1.434 . S
C379 C370 1.429 . S
C379 N376 1.350 . S
C379 C378 1.434 . S
C380 C381 1.369 . S
C380 C382 1.419 . S
C380 H384 0.930 . S
C381 C380 1.369 . S
C381 C390 1.429 . S
C382 C380 1.419 . S
C382 C383 1.363 . S
C382 H385 0.929 . S
C383 C382 1.363 . S
C383 C389 1.428 . S
H384 C380 0.930 . S
H385 C382 0.929 . S
S386 N387 1.613 . S
S386 N388 1.610 . S
N387 S386 1.613 . S
N387 C390 1.350 . S
N388 S386 1.610 . S
N388 C389 1.351 . S
C389 C383 1.428 . S
C389 N388 1.351 . S
C389 C390 1.434 . S
C390 C381 1.429 . S
C390 N387 1.350 . S
C390 C389 1.434 . S
C391 C392 1.369 . S
C391 C393 1.419 . S
C391 H395 0.930 . S
C392 C391 1.369 . S
C392 C401 1.429 . S
C393 C391 1.419 . S
C393 C394 1.363 . S
C393 H396 0.929 . S
C394 C393 1.363 . S
C394 C400 1.428 . S
H395 C391 0.930 . S
H396 C393 0.929 . S
S397 N398 1.613 . S
S397 N399 1.610 . S
N398 S397 1.613 . S
N398 C401 1.350 . S
N399 S397 1.610 . S
N399 C400 1.351 . S
C400 C394 1.428 . S
C400 N399 1.351 . S
C400 C401 1.434 . S
C401 C392 1.429 . S
C401 N398 1.350 . S
C401 C400 1.434 . S
C402 C403 1.369 . S
C402 C404 1.419 . S
C402 H406 0.930 . S
C403 C402 1.369 . S
C403 C412 1.429 . S
C404 C402 1.419 . S
C404 C405 1.363 . S
C404 H407 0.929 . S
C405 C404 1.363 . S
C405 C411 1.428 . S
H406 C402 0.930 . S
H407 C404 0.929 . S
S408 N409 1.613 . S
S408 N410 1.610 . S
N409 S408 1.613 . S
N409 C412 1.350 . S
N410 S408 1.610 . S
N410 C411 1.351 . S
C411 C405 1.428 . S
C411 N410 1.351 . S
C411 C412 1.434 . S
C412 C403 1.429 . S
C412 N409 1.350 . S
C412 C411 1.434 . S
C413 C414 1.369 . S
C413 C415 1.419 . S
C413 H417 0.930 . S
C414 C413 1.369 . S
C414 C423 1.429 . S
C415 C413 1.419 . S
C415 C416 1.363 . S
C415 H418 0.929 . S
C416 C415 1.363 . S
C416 C422 1.428 . S
H417 C413 0.930 . S
H418 C415 0.929 . S
S419 N420 1.613 . S
S419 N421 1.610 . S
N420 S419 1.613 . S
N420 C423 1.350 . S
N421 S419 1.610 . S
N421 C422 1.351 . S
C422 C416 1.428 . S
C422 N421 1.351 . S
C422 C423 1.434 . S
C423 C414 1.429 . S
C423 N420 1.350 . S
C423 C422 1.434 . S
C424 C425 1.369 . S
C424 C426 1.419 . S
C424 H428 0.930 . S
C425 C424 1.369 . S
C425 C434 1.429 . S
C426 C424 1.419 . S
C426 C427 1.363 . S
C426 H429 0.929 . S
C427 C426 1.363 . S
C427 C433 1.428 . S
H428 C424 0.930 . S
H429 C426 0.929 . S
S430 N431 1.613 . S
S430 N432 1.610 . S
N431 S430 1.613 . S
N431 C434 1.350 . S
N432 S430 1.610 . S
N432 C433 1.351 . S
C433 C427 1.428 . S
C433 N432 1.351 . S
C433 C434 1.434 . S
C434 C425 1.429 . S
C434 N431 1.350 . S
C434 C433 1.434 . S
C435 C436 1.369 . S
C435 C437 1.419 . S
C435 H439 0.930 . S
C436 C435 1.369 . S
C436 C445 1.429 . S
C437 C435 1.419 . S
C437 C438 1.363 . S
C437 H440 0.929 . S
C438 C437 1.363 . S
C438 C444 1.428 . S
H439 C435 0.930 . S
H440 C437 0.929 . S
S441 N442 1.613 . S
S441 N443 1.610 . S
N442 S441 1.613 . S
N442 C445 1.350 . S
N443 S441 1.610 . S
N443 C444 1.351 . S
C444 C438 1.428 . S
C444 N443 1.351 . S
C444 C445 1.434 . S
C445 C436 1.429 . S
C445 N442 1.350 . S
C445 C444 1.434 . S
C446 C447 1.369 . S
C446 C448 1.419 . S
C446 H450 0.930 . S
C447 C446 1.369 . S
C447 C456 1.429 . S
C448 C446 1.419 . S
C448 C449 1.363 . S
C448 H451 0.929 . S
C449 C448 1.363 . S
C449 C455 1.428 . S
H450 C446 0.930 . S
H451 C448 0.929 . S
S452 N453 1.613 . S
S452 N454 1.610 . S
N453 S452 1.613 . S
N453 C456 1.350 . S
N454 S452 1.610 . S
N454 C455 1.351 . S
C455 C449 1.428 . S
C455 N454 1.351 . S
C455 C456 1.434 . S
C456 C447 1.429 . S
C456 N453 1.350 . S
C456 C455 1.434 . S
C457 C458 1.369 . S
C457 C459 1.419 . S
C457 H461 0.930 . S
C458 C457 1.369 . S
C458 C467 1.429 . S
C459 C457 1.419 . S
C459 C460 1.363 . S
C459 H462 0.929 . S
C460 C459 1.363 . S
C460 C466 1.428 . S
H461 C457 0.930 . S
H462 C459 0.929 . S
S463 N464 1.613 . S
S463 N465 1.610 . S
N464 S463 1.613 . S
N464 C467 1.350 . S
N465 S463 1.610 . S
N465 C466 1.351 . S
C466 C460 1.428 . S
C466 N465 1.351 . S
C466 C467 1.434 . S
C467 C458 1.429 . S
C467 N464 1.350 . S
C467 C466 1.434 . S
C468 C469 1.369 . S
C468 C470 1.419 . S
C468 H472 0.930 . S
C469 C468 1.369 . S
C469 C478 1.429 . S
C470 C468 1.419 . S
C470 C471 1.363 . S
C470 H473 0.929 . S
C471 C470 1.363 . S
C471 C477 1.428 . S
H472 C468 0.930 . S
H473 C470 0.929 . S
S474 N475 1.613 . S
S474 N476 1.610 . S
N475 S474 1.613 . S
N475 C478 1.350 . S
N476 S474 1.610 . S
N476 C477 1.351 . S
C477 C471 1.428 . S
C477 N476 1.351 . S
C477 C478 1.434 . S
C478 C469 1.429 . S
C478 N475 1.350 . S
C478 C477 1.434 . S
C479 C480 1.369 . S
C479 C481 1.419 . S
C479 H483 0.930 . S
C480 C479 1.369 . S
C480 C489 1.429 . S
C481 C479 1.419 . S
C481 C482 1.363 . S
C481 H484 0.929 . S
C482 C481 1.363 . S
C482 C488 1.428 . S
H483 C479 0.930 . S
H484 C481 0.929 . S
S485 N486 1.613 . S
S485 N487 1.610 . S
N486 S485 1.613 . S
N486 C489 1.350 . S
N487 S485 1.610 . S
N487 C488 1.351 . S
C488 C482 1.428 . S
C488 N487 1.351 . S
C488 C489 1.434 . S
C489 C480 1.429 . S
C489 N486 1.350 . S
C489 C488 1.434 . S
C490 C491 1.369 . S
C490 C492 1.419 . S
C490 H494 0.930 . S
C491 C490 1.369 . S
C491 C500 1.429 . S
C492 C490 1.419 . S
C492 C493 1.363 . S
C492 H495 0.929 . S
C493 C492 1.363 . S
C493 C499 1.428 . S
H494 C490 0.930 . S
H495 C492 0.929 . S
S496 N497 1.613 . S
S496 N498 1.610 . S
N497 S496 1.613 . S
N497 C500 1.350 . S
N498 S496 1.610 . S
N498 C499 1.351 . S
C499 C493 1.428 . S
C499 N498 1.351 . S
C499 C500 1.434 . S
C500 C491 1.429 . S
C500 N497 1.350 . S
C500 C499 1.434 . S
C501 C502 1.369 . S
C501 C503 1.419 . S
C501 H505 0.930 . S
C502 C501 1.369 . S
C502 C511 1.429 . S
C503 C501 1.419 . S
C503 C504 1.363 . S
C503 H506 0.929 . S
C504 C503 1.363 . S
C504 C510 1.428 . S
H505 C501 0.930 . S
H506 C503 0.929 . S
S507 N508 1.613 . S
S507 N509 1.610 . S
N508 S507 1.613 . S
N508 C511 1.350 . S
N509 S507 1.610 . S
N509 C510 1.351 . S
C510 C504 1.428 . S
C510 N509 1.351 . S
C510 C511 1.434 . S
C511 C502 1.429 . S
C511 N508 1.350 . S
C511 C510 1.434 . S
C512 C513 1.369 . S
C512 C514 1.419 . S
C512 H516 0.930 . S
C513 C512 1.369 . S
C513 C522 1.429 . S
C514 C512 1.419 . S
C514 C515 1.363 . S
C514 H517 0.929 . S
C515 C514 1.363 . S
C515 C521 1.428 . S
H516 C512 0.930 . S
H517 C514 0.929 . S
S518 N519 1.613 . S
S518 N520 1.610 . S
N519 S518 1.613 . S
N519 C522 1.350 . S
N520 S518 1.610 . S
N520 C521 1.351 . S
C521 C515 1.428 . S
C521 N520 1.351 . S
C521 C522 1.434 . S
C522 C513 1.429 . S
C522 N519 1.350 . S
C522 C521 1.434 . S
C523 C524 1.369 . S
C523 C525 1.419 . S
C523 H527 0.930 . S
C524 C523 1.369 . S
C524 C533 1.429 . S
C525 C523 1.419 . S
C525 C526 1.363 . S
C525 H528 0.929 . S
C526 C525 1.363 . S
C526 C532 1.428 . S
H527 C523 0.930 . S
H528 C525 0.929 . S
S529 N530 1.613 . S
S529 N531 1.610 . S
N530 S529 1.613 . S
N530 C533 1.350 . S
N531 S529 1.610 . S
N531 C532 1.351 . S
C532 C526 1.428 . S
C532 N531 1.351 . S
C532 C533 1.434 . S
C533 C524 1.429 . S
C533 N530 1.350 . S
C533 C532 1.434 . S
C534 C535 1.369 . S
C534 C536 1.419 . S
C534 H538 0.930 . S
C535 C534 1.369 . S
C535 C544 1.429 . S
C536 C534 1.419 . S
C536 C537 1.363 . S
C536 H539 0.929 . S
C537 C536 1.363 . S
C537 C543 1.428 . S
H538 C534 0.930 . S
H539 C536 0.929 . S
S540 N541 1.613 . S
S540 N542 1.610 . S
N541 S540 1.613 . S
N541 C544 1.350 . S
N542 S540 1.610 . S
N542 C543 1.351 . S
C543 C537 1.428 . S
C543 N542 1.351 . S
C543 C544 1.434 . S
C544 C535 1.429 . S
C544 N541 1.350 . S
C544 C543 1.434 . S
C545 C546 1.369 . S
C545 C547 1.419 . S
C545 H549 0.930 . S
C546 C545 1.369 . S
C546 C555 1.429 . S
C547 C545 1.419 . S
C547 C548 1.363 . S
C547 H550 0.929 . S
C548 C547 1.363 . S
C548 C554 1.428 . S
H549 C545 0.930 . S
H550 C547 0.929 . S
S551 N552 1.613 . S
S551 N553 1.610 . S
N552 S551 1.613 . S
N552 C555 1.350 . S
N553 S551 1.610 . S
N553 C554 1.351 . S
C554 C548 1.428 . S
C554 N553 1.351 . S
C554 C555 1.434 . S
C555 C546 1.429 . S
C555 N552 1.350 . S
C555 C554 1.434 . S
C556 C557 1.369 . S
C556 C558 1.419 . S
C556 H560 0.930 . S
C557 C556 1.369 . S
C557 C566 1.429 . S
C558 C556 1.419 . S
C558 C559 1.363 . S
C558 H561 0.929 . S
C559 C558 1.363 . S
C559 C565 1.428 . S
H560 C556 0.930 . S
H561 C558 0.929 . S
S562 N563 1.613 . S
S562 N564 1.610 . S
N563 S562 1.613 . S
N563 C566 1.350 . S
N564 S562 1.610 . S
N564 C565 1.351 . S
C565 C559 1.428 . S
C565 N564 1.351 . S
C565 C566 1.434 . S
C566 C557 1.429 . S
C566 N563 1.350 . S
C566 C565 1.434 . S
C567 C568 1.369 . S
C567 C569 1.419 . S
C567 H571 0.930 . S
C568 C567 1.369 . S
C568 C577 1.429 . S
C569 C567 1.419 . S
C569 C570 1.363 . S
C569 H572 0.929 . S
C570 C569 1.363 . S
C570 C576 1.428 . S
H571 C567 0.930 . S
H572 C569 0.929 . S
S573 N574 1.613 . S
S573 N575 1.610 . S
N574 S573 1.613 . S
N574 C577 1.350 . S
N575 S573 1.610 . S
N575 C576 1.351 . S
C576 C570 1.428 . S
C576 N575 1.351 . S
C576 C577 1.434 . S
C577 C568 1.429 . S
C577 N574 1.350 . S
C577 C576 1.434 . S
C578 C579 1.369 . S
C578 C580 1.419 . S
C578 H582 0.930 . S
C579 C578 1.369 . S
C579 C588 1.429 . S
C580 C578 1.419 . S
C580 C581 1.363 . S
C580 H583 0.929 . S
C581 C580 1.363 . S
C581 C587 1.428 . S
H582 C578 0.930 . S
H583 C580 0.929 . S
S584 N585 1.613 . S
S584 N586 1.610 . S
N585 S584 1.613 . S
N585 C588 1.350 . S
N586 S584 1.610 . S
N586 C587 1.351 . S
C587 C581 1.428 . S
C587 N586 1.351 . S
C587 C588 1.434 . S
C588 C579 1.429 . S
C588 N585 1.350 . S
C588 C587 1.434 . S
C589 C590 1.369 . S
C589 C591 1.419 . S
C589 H593 0.930 . S
C590 C589 1.369 . S
C590 C599 1.429 . S
C591 C589 1.419 . S
C591 C592 1.363 . S
C591 H594 0.929 . S
C592 C591 1.363 . S
C592 C598 1.428 . S
H593 C589 0.930 . S
H594 C591 0.929 . S
S595 N596 1.613 . S
S595 N597 1.610 . S
N596 S595 1.613 . S
N596 C599 1.350 . S
N597 S595 1.610 . S
N597 C598 1.351 . S
C598 C592 1.428 . S
C598 N597 1.351 . S
C598 C599 1.434 . S
C599 C590 1.429 . S
C599 N596 1.350 . S
C599 C598 1.434 . S
C600 C601 1.369 . S
C600 C602 1.419 . S
C600 H604 0.930 . S
C601 C600 1.369 . S
C601 C610 1.429 . S
C602 C600 1.419 . S
C602 C603 1.363 . S
C602 H605 0.929 . S
C603 C602 1.363 . S
C603 C609 1.428 . S
H604 C600 0.930 . S
H605 C602 0.929 . S
S606 N607 1.613 . S
S606 N608 1.610 . S
N607 S606 1.613 . S
N607 C610 1.350 . S
N608 S606 1.610 . S
N608 C609 1.351 . S
C609 C603 1.428 . S
C609 N608 1.351 . S
C609 C610 1.434 . S
C610 C601 1.429 . S
C610 N607 1.350 . S
C610 C609 1.434 . S
C611 C612 1.369 1_556 S
C611 C613 1.419 . S
C611 H615 0.930 1_556 S
C612 C611 1.369 1_554 S
C612 C621 1.429 1_554 S
C613 C611 1.419 . S
C613 C614 1.363 . S
C613 H616 0.929 . S
C614 C613 1.363 . S
C614 C620 1.428 . S
H615 C611 0.930 1_554 S
H616 C613 0.929 . S
S617 N618 1.613 1_556 S
S617 N619 1.610 . S
N618 S617 1.613 1_554 S
N618 C621 1.350 1_554 S
N619 S617 1.610 . S
N619 C620 1.351 . S
C620 C614 1.428 . S
C620 N619 1.351 . S
C620 C621 1.434 . S
C621 C612 1.429 1_556 S
C621 N618 1.350 1_556 S
C621 C620 1.434 . S
C622 C623 1.369 . S
C622 C624 1.419 . S
C622 H626 0.930 . S
C623 C622 1.369 . S
C623 C632 1.429 . S
C624 C622 1.419 . S
C624 C625 1.363 . S
C624 H627 0.929 . S
C625 C624 1.363 . S
C625 C631 1.428 . S
H626 C622 0.930 . S
H627 C624 0.929 . S
S628 N629 1.613 . S
S628 N630 1.610 . S
N629 S628 1.613 . S
N629 C632 1.350 . S
N630 S628 1.610 . S
N630 C631 1.351 . S
C631 C625 1.428 . S
C631 N630 1.351 . S
C631 C632 1.434 . S
C632 C623 1.429 . S
C632 N629 1.350 . S
C632 C631 1.434 . S
C633 C634 1.369 . S
C633 C635 1.419 . S
C633 H637 0.930 . S
C634 C633 1.369 . S
C634 C643 1.429 . S
C635 C633 1.419 . S
C635 C636 1.363 1_554 S
C635 H638 0.931 . S
C636 C635 1.363 1_556 S
C636 C642 1.428 1_556 S
H637 C633 0.930 . S
H638 C635 0.931 . S
S639 N640 1.613 . S
S639 N641 1.610 1_554 S
N640 S639 1.613 . S
N640 C643 1.350 . S
N641 S639 1.610 1_556 S
N641 C642 1.351 1_556 S
C642 C636 1.428 1_554 S
C642 N641 1.351 1_554 S
C642 C643 1.434 . S
C643 C634 1.429 . S
C643 N640 1.350 . S
C643 C642 1.434 . S
C644 C645 1.369 . S
C644 C646 1.419 . S
C644 H648 0.930 . S
C645 C644 1.369 . S
C645 C654 1.429 . S
C646 C644 1.419 . S
C646 C647 1.363 . S
C646 H649 0.929 . S
C647 C646 1.363 . S
C647 C653 1.428 . S
H648 C644 0.930 . S
H649 C646 0.929 . S
S650 N651 1.613 . S
S650 N652 1.610 . S
N651 S650 1.613 . S
N651 C654 1.350 . S
N652 S650 1.610 . S
N652 C653 1.351 . S
C653 C647 1.428 . S
C653 N652 1.351 . S
C653 C654 1.434 . S
C654 C645 1.429 . S
C654 N651 1.350 . S
C654 C653 1.434 . S
C655 C656 1.369 1_455 S
C655 C657 1.419 . S
C655 H659 0.930 1_455 S
C656 C655 1.369 1_655 S
C656 C665 1.429 1_655 S
C657 C655 1.419 . S
C657 C658 1.363 . S
C657 H660 0.929 . S
C658 C657 1.363 . S
C658 C664 1.428 . S
H659 C655 0.930 1_655 S
H660 C657 0.929 . S
S661 N662 1.613 . S
S661 N663 1.610 . S
N662 S661 1.613 . S
N662 C665 1.350 . S
N663 S661 1.610 . S
N663 C664 1.351 . S
C664 C658 1.428 . S
C664 N663 1.351 . S
C664 C665 1.434 . S
C665 C656 1.429 1_455 S
C665 N662 1.350 . S
C665 C664 1.434 . S
C666 C667 1.369 1_655 S
C666 C668 1.419 . S
C666 H670 0.930 . S
C667 C666 1.369 1_455 S
C667 C676 1.429 1_455 S
C668 C666 1.419 . S
C668 C669 1.363 . S
C668 H671 0.929 . S
C669 C668 1.363 . S
C669 C675 1.428 . S
H670 C666 0.930 . S
H671 C668 0.929 . S
S672 N673 1.613 1_655 S
S672 N674 1.610 . S
N673 S672 1.613 1_455 S
N673 C676 1.350 1_455 S
N674 S672 1.610 . S
N674 C675 1.351 . S
C675 C669 1.428 . S
C675 N674 1.351 . S
C675 C676 1.434 . S
C676 C667 1.429 1_655 S
C676 N673 1.350 1_655 S
C676 C675 1.434 . S
C677 C678 1.369 . S
C677 C679 1.419 . S
C677 H681 0.930 . S
C678 C677 1.369 . S
C678 C687 1.429 . S
C679 C677 1.419 . S
C679 C680 1.363 . S
C679 H682 0.929 . S
C680 C679 1.363 . S
C680 C686 1.428 . S
H681 C677 0.930 . S
H682 C679 0.929 . S
S683 N684 1.613 . S
S683 N685 1.610 . S
N684 S683 1.613 . S
N684 C687 1.350 . S
N685 S683 1.610 . S
N685 C686 1.351 . S
C686 C680 1.428 . S
C686 N685 1.351 . S
C686 C687 1.434 . S
C687 C678 1.429 . S
C687 N684 1.350 . S
C687 C686 1.434 . S
C688 C689 1.369 . S
C688 C690 1.419 . S
C688 H692 0.930 . S
C689 C688 1.369 . S
C689 C698 1.429 . S
C690 C688 1.419 . S
C690 C691 1.363 . S
C690 H693 0.929 . S
C691 C690 1.363 . S
C691 C697 1.428 . S
H692 C688 0.930 . S
H693 C690 0.929 . S
S694 N695 1.613 . S
S694 N696 1.610 . S
N695 S694 1.613 . S
N695 C698 1.350 . S
N696 S694 1.610 . S
N696 C697 1.351 . S
C697 C691 1.428 . S
C697 N696 1.351 . S
C697 C698 1.434 . S
C698 C689 1.429 . S
C698 N695 1.350 . S
C698 C697 1.434 . S
C699 C700 1.369 1_545 S
C699 C701 1.419 . S
C699 H703 0.930 . S
C700 C699 1.369 1_565 S
C700 C709 1.429 1_565 S
C701 C699 1.419 . S
C701 C702 1.363 . S
C701 H704 0.929 . S
C702 C701 1.363 . S
C702 C708 1.428 . S
H703 C699 0.930 . S
H704 C701 0.929 . S
S705 N706 1.613 1_545 S
S705 N707 1.610 . S
N706 S705 1.613 1_565 S
N706 C709 1.350 1_565 S
N707 S705 1.610 . S
N707 C708 1.351 . S
C708 C702 1.428 . S
C708 N707 1.351 . S
C708 C709 1.434 . S
C709 C700 1.429 1_545 S
C709 N706 1.350 1_545 S
C709 C708 1.434 . S
C710 C711 1.369 . S
C710 C712 1.419 1_545 S
C710 H714 0.930 . S
C711 C710 1.369 . S
C711 C720 1.429 1_545 S
C712 C710 1.419 1_565 S
C712 C713 1.363 . S
C712 H715 0.929 . S
C713 C712 1.363 . S
C713 C719 1.428 . S
H714 C710 0.930 . S
H715 C712 0.929 . S
S716 N717 1.613 . S
S716 N718 1.610 . S
N717 S716 1.613 . S
N717 C720 1.350 . S
N718 S716 1.610 . S
N718 C719 1.351 . S
C719 C713 1.428 . S
C719 N718 1.351 . S
C719 C720 1.434 . S
C720 C711 1.429 1_565 S
C720 N717 1.350 . S
C720 C719 1.434 . S
C721 C722 1.369 . S
C721 C723 1.419 . S
C721 H725 0.930 . S
C722 C721 1.369 . S
C722 C731 1.429 . S
C723 C721 1.419 . S
C723 C724 1.363 . S
C723 H726 0.929 . S
C724 C723 1.363 . S
C724 C730 1.428 . S
H725 C721 0.930 . S
H726 C723 0.929 . S
S727 N728 1.613 . S
S727 N729 1.610 . S
N728 S727 1.613 . S
N728 C731 1.350 . S
N729 S727 1.610 . S
N729 C730 1.351 . S
C730 C724 1.428 . S
C730 N729 1.351 . S
C730 C731 1.434 . S
C731 C722 1.429 . S
C731 N728 1.350 . S
C731 C730 1.434 . S
C732 C733 1.369 . S
C732 C734 1.419 . S
C732 H736 0.930 . S
C733 C732 1.369 . S
C733 C742 1.429 . S
C734 C732 1.419 . S
C734 C735 1.363 . S
C734 H737 0.929 . S
C735 C734 1.363 . S
C735 C741 1.428 . S
H736 C732 0.930 . S
H737 C734 0.929 . S
S738 N739 1.613 . S
S738 N740 1.610 . S
N739 S738 1.613 . S
N739 C742 1.350 . S
N740 S738 1.610 . S
N740 C741 1.351 . S
C741 C735 1.428 . S
C741 N740 1.351 . S
C741 C742 1.434 . S
C742 C733 1.429 . S
C742 N739 1.350 . S
C742 C741 1.434 . S
C743 C744 1.369 1_554 S
C743 C745 1.419 . S
C743 H747 0.925 1_554 S
C744 C743 1.369 1_556 S
C744 C753 1.429 1_556 S
C745 C743 1.419 . S
C745 C746 1.363 . S
C745 H748 0.929 . S
C746 C745 1.363 . S
C746 C752 1.428 . S
H747 C743 0.925 1_556 S
H748 C745 0.929 . S
S749 N750 1.613 . S
S749 N751 1.610 . S
N750 S749 1.613 . S
N750 C753 1.350 . S
N751 S749 1.610 . S
N751 C752 1.351 . S
C752 C746 1.428 . S
C752 N751 1.351 . S
C752 C753 1.434 . S
C753 C744 1.429 1_554 S
C753 N750 1.350 . S
C753 C752 1.434 . S
C754 C755 1.369 . S
C754 C756 1.419 . S
C754 H758 0.930 . S
C755 C754 1.369 . S
C755 C764 1.429 . S
C756 C754 1.419 . S
C756 C757 1.363 . S
C756 H759 0.929 . S
C757 C756 1.363 . S
C757 C763 1.428 . S
H758 C754 0.930 . S
H759 C756 0.929 . S
S760 N761 1.613 . S
S760 N762 1.610 . S
N761 S760 1.613 . S
N761 C764 1.350 . S
N762 S760 1.610 . S
N762 C763 1.351 . S
C763 C757 1.428 . S
C763 N762 1.351 . S
C763 C764 1.434 . S
C764 C755 1.429 . S
C764 N761 1.350 . S
C764 C763 1.434 . S
C765 C766 1.369 1_556 S
C765 C767 1.419 . S
C765 H769 0.930 . S
C766 C765 1.369 1_554 S
C766 C775 1.429 1_554 S
C767 C765 1.419 . S
C767 C768 1.363 . S
C767 H770 0.929 . S
C768 C767 1.363 . S
C768 C774 1.428 . S
H769 C765 0.930 . S
H770 C767 0.929 . S
S771 N772 1.613 1_556 S
S771 N773 1.610 . S
N772 S771 1.613 1_554 S
N772 C775 1.350 1_554 S
N773 S771 1.610 . S
N773 C774 1.351 . S
C774 C768 1.428 . S
C774 N773 1.351 . S
C774 C775 1.434 . S
C775 C766 1.429 1_556 S
C775 N772 1.350 1_556 S
C775 C774 1.434 . S
C776 C777 1.369 . S
C776 C778 1.419 . S
C776 H780 0.930 . S
C777 C776 1.369 . S
C777 C786 1.429 . S
C778 C776 1.419 . S
C778 C779 1.363 . S
C778 H781 0.929 . S
C779 C778 1.363 . S
C779 C785 1.428 . S
H780 C776 0.930 . S
H781 C778 0.929 . S
S782 N783 1.613 . S
S782 N784 1.610 . S
N783 S782 1.613 . S
N783 C786 1.350 . S
N784 S782 1.610 . S
N784 C785 1.351 . S
C785 C779 1.428 . S
C785 N784 1.351 . S
C785 C786 1.434 . S
C786 C777 1.429 . S
C786 N783 1.350 . S
C786 C785 1.434 . S
C787 C788 1.369 . S
C787 C789 1.420 1_655 S
C787 H791 0.930 . S
C788 C787 1.369 . S
C788 C797 1.429 . S
C789 C787 1.420 1_455 S
C789 C790 1.362 . S
C789 H792 0.928 . S
C790 C789 1.362 . S
C790 C796 1.428 1_455 S
H791 C787 0.930 . S
H792 C789 0.928 . S
S793 N794 1.613 . S
S793 N795 1.610 . S
N794 S793 1.613 . S
N794 C797 1.350 . S
N795 S793 1.610 . S
N795 C796 1.351 . S
C796 C790 1.428 1_655 S
C796 N795 1.351 . S
C796 C797 1.434 . S
C797 C788 1.429 . S
C797 N794 1.350 . S
C797 C796 1.434 . S
C798 C799 1.369 . S
C798 C800 1.419 . S
C798 H802 0.930 . S
C799 C798 1.369 . S
C799 C808 1.429 . S
C800 C798 1.419 . S
C800 C801 1.363 1_455 S
C800 H803 0.929 . S
C801 C800 1.363 1_655 S
C801 C807 1.428 1_655 S
H802 C798 0.930 . S
H803 C800 0.929 . S
S804 N805 1.613 . S
S804 N806 1.610 1_455 S
N805 S804 1.613 . S
N805 C808 1.350 . S
N806 S804 1.610 1_655 S
N806 C807 1.350 1_655 S
C807 C801 1.428 1_455 S
C807 N806 1.350 1_455 S
C807 C808 1.436 . S
C808 C799 1.429 . S
C808 N805 1.350 . S
C808 C807 1.436 . S
C809 C810 1.369 . S
C809 C811 1.419 . S
C809 H813 0.930 . S
C810 C809 1.369 . S
C810 C819 1.429 . S
C811 C809 1.419 . S
C811 C812 1.363 . S
C811 H814 0.929 . S
C812 C811 1.363 . S
C812 C818 1.428 . S
H813 C809 0.930 . S
H814 C811 0.929 . S
S815 N816 1.613 . S
S815 N817 1.610 . S
N816 S815 1.613 . S
N816 C819 1.350 . S
N817 S815 1.610 . S
N817 C818 1.351 . S
C818 C812 1.428 . S
C818 N817 1.351 . S
C818 C819 1.434 . S
C819 C810 1.429 . S
C819 N816 1.350 . S
C819 C818 1.434 . S
C820 C821 1.369 . S
C820 C822 1.419 . S
C820 H824 0.930 . S
C821 C820 1.369 . S
C821 C830 1.429 . S
C822 C820 1.419 . S
C822 C823 1.363 . S
C822 H825 0.929 . S
C823 C822 1.363 . S
C823 C829 1.428 . S
H824 C820 0.930 . S
H825 C822 0.929 . S
S826 N827 1.613 . S
S826 N828 1.610 . S
N827 S826 1.613 . S
N827 C830 1.350 . S
N828 S826 1.610 . S
N828 C829 1.351 . S
C829 C823 1.428 . S
C829 N828 1.351 . S
C829 C830 1.434 . S
C830 C821 1.429 . S
C830 N827 1.350 . S
C830 C829 1.434 . S
C831 C832 1.369 . S
C831 C833 1.419 . S
C831 H835 0.930 . S
C832 C831 1.369 . S
C832 C841 1.429 . S
C833 C831 1.419 . S
C833 C834 1.363 1_565 S
C833 H836 0.929 . S
C834 C833 1.363 1_545 S
C834 C840 1.428 . S
H835 C831 0.930 . S
H836 C833 0.929 . S
S837 N838 1.599 1_545 S
S837 N839 1.619 . S
N838 S837 1.599 1_565 S
N838 C841 1.350 . S
N839 S837 1.619 . S
N839 C840 1.351 . S
C840 C834 1.428 . S
C840 N839 1.351 . S
C840 C841 1.434 1_545 S
C841 C832 1.429 . S
C841 N838 1.350 . S
C841 C840 1.434 1_565 S
C842 C843 1.369 1_545 S
C842 C844 1.419 . S
C842 H846 0.930 . S
C843 C842 1.369 1_565 S
C843 C852 1.429 1_565 S
C844 C842 1.419 . S
C844 C845 1.363 . S
C844 H847 0.929 . S
C845 C844 1.363 . S
C845 C851 1.428 . S
H846 C842 0.930 . S
H847 C844 0.929 . S
S848 N849 1.613 1_545 S
S848 N850 1.610 . S
N849 S848 1.613 1_565 S
N849 C852 1.350 1_565 S
N850 S848 1.610 . S
N850 C851 1.351 . S
C851 C845 1.428 . S
C851 N850 1.351 . S
C851 C852 1.434 . S
C852 C843 1.429 1_545 S
C852 N849 1.350 1_545 S
C852 C851 1.434 . S
C853 C854 1.369 . S
C853 C855 1.419 . S
C853 H857 0.930 . S
C854 C853 1.369 . S
C854 C863 1.429 . S
C855 C853 1.419 . S
C855 C856 1.363 . S
C855 H858 0.929 . S
C856 C855 1.363 . S
C856 C862 1.428 . S
H857 C853 0.930 . S
H858 C855 0.929 . S
S859 N860 1.613 . S
S859 N861 1.610 . S
N860 S859 1.613 . S
N860 C863 1.350 . S
N861 S859 1.610 . S
N861 C862 1.351 . S
C862 C856 1.428 . S
C862 N861 1.351 . S
C862 C863 1.434 . S
C863 C854 1.429 . S
C863 N860 1.350 . S
C863 C862 1.434 . S
C337 C121 1.197 . S
C339 C3 1.219 . S
C348 C17 1.214 . S
C350 C163 1.202 . S
C359 C31 1.213 . S
C361 C135 1.200 . S
C370 C45 1.216 . S
C372 C149 1.196 . S
C381 C59 1.197 . S
C383 C9 1.171 . S
C392 C23 1.176 . S
C394 C73 1.193 . S
C403 C87 1.199 . S
C405 C37 1.179 . S
C414 C51 1.173 . S
C416 C101 1.192 . S
C425 C65 1.205 . S
C427 C115 1.220 . S
C436 C93 1.196 . S
C438 C129 1.221 . S
C447 C143 1.216 . S
C449 C107 1.195 . S
C458 C79 1.203 . S
C460 C157 1.217 . S
C469 C283 1.219 . S
C471 C171 1.209 . S
C480 C185 1.204 . S
C482 C325 1.222 . S
C491 C199 1.209 . S
C493 C297 1.219 . S
C502 C311 1.220 . S
C504 C213 1.209 . S
C513 C233 1.148 . S
C515 C177 1.170 . S
C524 C191 1.174 . S
C526 C247 1.159 . S
C535 C205 1.171 . S
C537 C261 1.158 . S
C546 C275 1.155 . S
C548 C219 1.168 . S
C557 C289 1.158 . S
C559 C227 1.192 . S
C568 C255 1.194 . S
C570 C303 1.170 . S
C579 C269 1.194 . S
C581 C317 1.161 . S
C590 C331 1.165 . S
C592 C241 1.189 . S
C601 C315 1.378 . S
C603 C7 1.394 . S
C612 C301 1.371 . S
C614 C21 1.390 . S
C623 C329 1.380 . S
C625 C35 1.393 . S
C634 C49 1.390 . S
C636 C287 1.372 . S
C645 C63 1.400 . S
C647 C190 1.414 . S
C656 C176 1.411 . S
C658 C77 1.395 . S
C667 C218 1.413 . S
C669 C91 1.400 . S
C678 C204 1.412 . S
C680 C105 1.395 . S
C689 C119 1.413 . S
C691 C259 1.387 . S
C700 C231 1.382 . S
C702 C133 1.411 . S
C711 C245 1.387 . S
C713 C147 1.407 . S
C722 C273 1.382 . S
C724 C161 1.410 . S
C733 C148 1.459 . S
C735 C175 1.434 . S
C744 C134 1.456 . S
C746 C189 1.431 . S
C755 C203 1.431 . S
C757 C162 1.458 . S
C766 C120 1.455 . S
C768 C217 1.436 . S
C777 C232 1.466 . S
C779 C22 1.466 . S
C788 C246 1.467 . S
C790 C8 1.467 . S
C799 C260 1.470 . S
C801 C50 1.464 . S
C810 C274 1.468 . S
C812 C36 1.464 . S
C821 C288 1.444 . S
C823 C92 1.438 . S
C832 C302 1.445 . S
C834 C64 1.439 . S
C843 C78 1.438 . S
C845 C316 1.444 . S
C854 C330 1.442 . S
C856 C106 1.440 . S
