# Generated by pormake.
# Topology rac, (4)-cn, num edge types: 1
# Building blocks:
#     Node 0, Type 0, BuildingBlock: TATPOV_clean_sbu_0, # of connection points: 4
#     Node 1, Type 0, BuildingBlock: TATPOV_clean_sbu_0, # of connection points: 4
#     Node 2, Type 0, BuildingBlock: TATPOV_clean_sbu_0, # of connection points: 4
#     Node 3, Type 0, BuildingBlock: TATPOV_clean_sbu_0, # of connection points: 4
#     Node 4, Type 0, BuildingBlock: TATPOV_clean_sbu_0, # of connection points: 4
#     Node 5, Type 0, BuildingBlock: TATPOV_clean_sbu_0, # of connection points: 4
#     Node 6, Type 0, BuildingBlock: TATPOV_clean_sbu_0, # of connection points: 4
#     Node 7, Type 0, BuildingBlock: TATPOV_clean_sbu_0, # of connection points: 4
#     Edge 8, Type (0, 0), BuildingBlock: UVAHIK_clean_linker_0, # of connection points: 2
#     Edge 9, Type (0, 0), BuildingBlock: UVAHIK_clean_linker_0, # of connection points: 2
#     Edge 10, Type (0, 0), BuildingBlock: UVAHIK_clean_linker_0, # of connection points: 2
#     Edge 11, Type (0, 0), BuildingBlock: UVAHIK_clean_linker_0, # of connection points: 2
#     Edge 12, Type (0, 0), BuildingBlock: UVAHIK_clean_linker_0, # of connection points: 2
#     Edge 13, Type (0, 0), BuildingBlock: UVAHIK_clean_linker_0, # of connection points: 2
#     Edge 14, Type (0, 0), BuildingBlock: UVAHIK_clean_linker_0, # of connection points: 2
#     Edge 15, Type (0, 0), BuildingBlock: UVAHIK_clean_linker_0, # of connection points: 2
#     Edge 16, Type (0, 0), BuildingBlock: UVAHIK_clean_linker_0, # of connection points: 2
#     Edge 17, Type (0, 0), BuildingBlock: UVAHIK_clean_linker_0, # of connection points: 2
#     Edge 18, Type (0, 0), BuildingBlock: UVAHIK_clean_linker_0, # of connection points: 2
#     Edge 19, Type (0, 0), BuildingBlock: UVAHIK_clean_linker_0, # of connection points: 2
#     Edge 20, Type (0, 0), BuildingBlock: UVAHIK_clean_linker_0, # of connection points: 2
#     Edge 21, Type (0, 0), BuildingBlock: UVAHIK_clean_linker_0, # of connection points: 2
#     Edge 22, Type (0, 0), BuildingBlock: UVAHIK_clean_linker_0, # of connection points: 2
#     Edge 23, Type (0, 0), BuildingBlock: UVAHIK_clean_linker_0, # of connection points: 2
# Relax obj value: 0.272
# Max RMSD: 0.123
# Mean RMSD: 0.123
data_MOF--net-rac--node1-TATPOV_clean_sbu_0--edge1-UVAHIK_clean_linker_0
_symmetry_space_group_name_H-M    P1
_symmetry_Int_Tables_number       1
_symmetry_cell_setting            triclinic
loop_
_symmetry_equiv_pos_as_xyz
'x, y, z'
_cell_length_a     46.485236
_cell_length_b     26.825252
_cell_length_c     56.738483
_cell_angle_alpha  90.00227
_cell_angle_beta   90.00631
_cell_angle_gamma 89.990968
loop_
_atom_site_label
_atom_site_type_symbol
_atom_site_fract_x
_atom_site_fract_y
_atom_site_fract_z
_atom_type_partial_charge
Zn0 Zn 0.38666 0.22619 0.03519 0.0
Zn1 Zn 0.3955 0.23444 0.08038 0.0
O2 O 0.43077 0.26609 0.06393 0.0
O3 O 0.42568 0.25041 0.02616 0.0
O4 O 0.40558 0.23256 0.11487 0.0
O5 O 0.37642 0.15403 0.03606 0.0
O6 O 0.38025 0.16333 0.07435 0.0
C7 C 0.43983 0.27001 0.04279 0.0
C8 C 0.34846 0.29608 0.0598 0.0
O9 O 0.36228 0.28291 0.07813 0.0
O10 O 0.35481 0.27763 0.03987 0.0
C11 C 0.40864 0.27189 0.12711 0.0
O12 O 0.40609 0.31555 0.11682 0.0
C13 C 0.37339 0.13668 0.05662 0.0
Zn14 Zn 0.1058 0.76323 0.03101 0.0
Zn15 Zn 0.0953 0.75754 0.07638 0.0
O16 O 0.0593 0.72981 0.05954 0.0
O17 O 0.0658 0.7442 0.0218 0.0
O18 O 0.08451 0.76145 0.11069 0.0
O19 O 0.11919 0.83391 0.03214 0.0
O20 O 0.1126 0.82708 0.07032 0.0
C21 C 0.05053 0.72669 0.03828 0.0
C22 C 0.14009 0.68934 0.05677 0.0
O23 O 0.12675 0.70539 0.07482 0.0
O24 O 0.13485 0.70751 0.03657 0.0
C25 C 0.081 0.72319 0.12358 0.0
O26 O 0.08357 0.67867 0.11416 0.0
C27 C 0.12132 0.85212 0.05262 0.0
Zn28 Zn 0.38061 0.2631 0.47171 0.0
Zn29 Zn 0.39107 0.25743 0.42635 0.0
O30 O 0.42701 0.22943 0.44316 0.0
O31 O 0.42056 0.24374 0.48092 0.0
O32 O 0.40191 0.26143 0.39205 0.0
O33 O 0.36736 0.33387 0.47064 0.0
O34 O 0.37388 0.32704 0.43246 0.0
C35 C 0.43578 0.22617 0.46441 0.0
C36 C 0.34618 0.18944 0.4459 0.0
O37 O 0.35955 0.20542 0.42785 0.0
O38 O 0.35145 0.20758 0.4661 0.0
C39 C 0.40561 0.22322 0.37917 0.0
O40 O 0.4032 0.17866 0.38858 0.0
C41 C 0.36523 0.35211 0.45017 0.0
Zn42 Zn 0.09968 0.72632 0.46767 0.0
Zn43 Zn 0.09085 0.73444 0.42247 0.0
O44 O 0.05553 0.76599 0.4389 0.0
O45 O 0.0606 0.7503 0.47668 0.0
O46 O 0.08083 0.73245 0.38797 0.0
O47 O 0.11008 0.65422 0.46684 0.0
O48 O 0.10622 0.66341 0.42854 0.0
C49 C 0.04643 0.76987 0.46005 0.0
C50 C 0.13778 0.79633 0.44305 0.0
O51 O 0.124 0.78304 0.42473 0.0
O52 O 0.13143 0.77793 0.46299 0.0
C53 C 0.07782 0.77175 0.3757 0.0
O54 O 0.08037 0.81544 0.38596 0.0
C55 C 0.11314 0.63683 0.44628 0.0
Zn56 Zn 0.60488 0.76003 0.96925 0.0
Zn57 Zn 0.5945 0.75463 0.92404 0.0
O58 O 0.55834 0.72753 0.94095 0.0
O59 O 0.56475 0.74269 0.97864 0.0
O60 O 0.58362 0.75901 0.88975 0.0
O61 O 0.61912 0.83011 0.96834 0.0
O62 O 0.61252 0.82372 0.93015 0.0
C63 C 0.54946 0.72503 0.9622 0.0
C64 C 0.63848 0.68501 0.9436 0.0
O65 O 0.62549 0.70165 0.9255 0.0
O66 O 0.63324 0.70321 0.9638 0.0
C67 C 0.5804 0.72095 0.87667 0.0
O68 O 0.5833 0.67629 0.88589 0.0
C69 C 0.62146 0.84838 0.94789 0.0
Zn70 Zn 0.88498 0.22426 0.96944 0.0
Zn71 Zn 0.89493 0.23174 0.92422 0.0
O72 O 0.9297 0.2642 0.94097 0.0
O73 O 0.92359 0.25009 0.97879 0.0
O74 O 0.9056 0.22971 0.88986 0.0
O75 O 0.87559 0.15168 0.96856 0.0
O76 O 0.88024 0.16037 0.93029 0.0
C77 C 0.93814 0.26911 0.96225 0.0
C78 C 0.84676 0.29242 0.94384 0.0
O79 O 0.86127 0.27944 0.92585 0.0
O80 O 0.85268 0.27446 0.96396 0.0
C81 C 0.90935 0.26906 0.87778 0.0
O82 O 0.90712 0.31268 0.88816 0.0
C83 C 0.87323 0.13385 0.94802 0.0
Zn84 Zn 0.60436 0.72778 0.53271 0.0
Zn85 Zn 0.59467 0.73576 0.57815 0.0
O86 O 0.55932 0.76645 0.56157 0.0
O87 O 0.5651 0.75154 0.52378 0.0
O88 O 0.58436 0.73393 0.61259 0.0
O89 O 0.61488 0.65564 0.53413 0.0
O90 O 0.60961 0.66453 0.57235 0.0
C91 C 0.55051 0.77039 0.54035 0.0
C92 C 0.64174 0.79813 0.55779 0.0
O93 O 0.62779 0.78455 0.57598 0.0
O94 O 0.63576 0.77975 0.53777 0.0
C95 C 0.58063 0.77307 0.62482 0.0
O96 O 0.5827 0.81688 0.6146 0.0
C97 C 0.61699 0.638 0.55473 0.0
Zn98 Zn 0.88534 0.26567 0.53334 0.0
Zn99 Zn 0.89489 0.25877 0.57844 0.0
O100 O 0.93081 0.23034 0.56161 0.0
O101 O 0.92517 0.24643 0.52393 0.0
O102 O 0.9056 0.26233 0.61279 0.0
O103 O 0.87204 0.3363 0.53416 0.0
O104 O 0.8772 0.32818 0.57241 0.0
C105 C 0.93992 0.22767 0.54043 0.0
C106 C 0.85025 0.19155 0.55835 0.0
O107 O 0.86338 0.2069 0.57664 0.0
O108 O 0.85592 0.21019 0.53832 0.0
C109 C 0.90879 0.22387 0.6256 0.0
O110 O 0.90593 0.17951 0.61606 0.0
C111 C 0.86895 0.35371 0.55471 0.0
C112 C 0.34357 0.06795 0.04006 0.0
C113 C 0.35479 0.09248 0.05995 0.0
C114 C 0.31845 0.03985 0.04188 0.0
C115 C 0.26602 0.97969 0.08043 0.0
H116 H 0.21036 0.0368 0.03714 0.0
C117 C 0.14986 0.90825 0.07897 0.0
C118 C 0.13992 0.89618 0.05626 0.0
C119 C 0.17394 0.93889 0.08185 0.0
C120 C 0.22561 0.02018 0.04924 0.0
H121 H 0.35089 0.1005 0.09791 0.0
H122 H 0.30721 0.05036 0.10104 0.0
H123 H 0.25976 0.06692 0.03704 0.0
H124 H 0.14532 0.91156 0.01898 0.0
H125 H 0.18718 0.96406 0.02391 0.0
H126 H 0.23222 0.93154 0.09205 0.0
C127 C 0.31758 0.05397 0.08402 0.0
C128 C 0.25391 0.03734 0.04913 0.0
C129 C 0.34266 0.08251 0.0822 0.0
C130 C 0.15255 0.91971 0.03672 0.0
C131 C 0.17663 0.95007 0.03958 0.0
C132 C 0.23773 0.96191 0.08032 0.0
C133 C 0.30439 0.03511 0.06365 0.0
C134 C 0.27446 0.01668 0.06441 0.0
C135 C 0.18845 0.95806 0.06209 0.0
C136 C 0.2173 0.98144 0.06444 0.0
H137 H 0.35261 0.07416 0.02271 0.0
H138 H 0.30896 0.02457 0.02601 0.0
H139 H 0.28149 0.96349 0.09248 0.0
H140 H 0.14045 0.89112 0.09445 0.0
H141 H 0.18203 0.94548 0.09948 0.0
C142 C 0.1431 0.5683 0.46287 0.0
C143 C 0.13182 0.59272 0.44298 0.0
C144 C 0.16825 0.54026 0.46105 0.0
C145 C 0.22064 0.48005 0.42247 0.0
H146 H 0.27633 0.53704 0.46575 0.0
C147 C 0.33676 0.40842 0.42386 0.0
C148 C 0.34668 0.39626 0.44656 0.0
C149 C 0.31271 0.43914 0.421 0.0
C150 C 0.26107 0.52046 0.45365 0.0
H151 H 0.13568 0.60064 0.40501 0.0
H152 H 0.1794 0.5506 0.40188 0.0
H153 H 0.22695 0.56723 0.46588 0.0
H154 H 0.34131 0.41158 0.48385 0.0
H155 H 0.29949 0.46423 0.47896 0.0
H156 H 0.25443 0.43188 0.41082 0.0
C157 C 0.16905 0.55425 0.4189 0.0
C158 C 0.23278 0.53765 0.45378 0.0
C159 C 0.14394 0.58272 0.42073 0.0
C160 C 0.33408 0.4198 0.46612 0.0
C161 C 0.31003 0.45024 0.46328 0.0
C162 C 0.24893 0.46225 0.42255 0.0
C163 C 0.18229 0.53548 0.43928 0.0
C164 C 0.21222 0.51703 0.4385 0.0
C165 C 0.29821 0.4583 0.44077 0.0
C166 C 0.26937 0.48173 0.43843 0.0
H167 H 0.13407 0.57453 0.48023 0.0
H168 H 0.17777 0.52505 0.47693 0.0
H169 H 0.20516 0.46388 0.41042 0.0
H170 H 0.34615 0.39129 0.40837 0.0
H171 H 0.30462 0.44579 0.40338 0.0
C172 C 0.65121 0.90329 0.92187 0.0
C173 C 0.64041 0.89203 0.9444 0.0
C174 C 0.67546 0.93366 0.91937 0.0
C175 C 0.72593 0.01598 0.95266 0.0
H176 H 0.78341 0.95806 0.91124 0.0
C177 C 0.84333 0.06496 0.96434 0.0
C178 C 0.85509 0.08911 0.94456 0.0
C179 C 0.81843 0.03639 0.96212 0.0
C180 C 0.76748 0.97458 0.92279 0.0
H181 H 0.64451 0.90847 0.98169 0.0
H182 H 0.68667 0.96054 0.97744 0.0
H183 H 0.73415 0.92596 0.91069 0.0
H184 H 0.85249 0.09587 0.90647 0.0
H185 H 0.80922 0.04495 0.90266 0.0
H186 H 0.75956 0.06324 0.96535 0.0
C187 C 0.67666 0.94613 0.96161 0.0
C188 C 0.73921 0.95672 0.92232 0.0
C189 C 0.65242 0.91602 0.96409 0.0
C190 C 0.84382 0.07822 0.9221 0.0
C191 C 0.81897 0.04922 0.91988 0.0
C192 C 0.75419 0.03323 0.95335 0.0
C193 C 0.68928 0.95339 0.93935 0.0
C194 C 0.7182 0.97672 0.93754 0.0
C195 C 0.80515 0.0308 0.94007 0.0
C196 C 0.7753 0.01213 0.93873 0.0
H197 H 0.64231 0.88574 0.90629 0.0
H198 H 0.6842 0.93966 0.90191 0.0
H199 H 0.71022 0.03296 0.96425 0.0
H200 H 0.85171 0.07186 0.98185 0.0
H201 H 0.80845 0.02148 0.97787 0.0
C202 C 0.64612 0.56756 0.5389 0.0
C203 C 0.63453 0.59266 0.55844 0.0
C204 C 0.66981 0.53621 0.54157 0.0
C205 C 0.7321 0.52503 0.58102 0.0
H206 H 0.75228 0.41816 0.53813 0.0
C207 C 0.83793 0.40651 0.58073 0.0
C208 C 0.84923 0.39638 0.55821 0.0
C209 C 0.81249 0.43392 0.5831 0.0
C210 C 0.74693 0.44821 0.55012 0.0
H211 H 0.63627 0.59925 0.59655 0.0
H212 H 0.67714 0.54321 0.60128 0.0
H213 H 0.70293 0.44852 0.53929 0.0
H214 H 0.84495 0.41293 0.52091 0.0
H215 H 0.80069 0.46053 0.52516 0.0
H216 H 0.77634 0.52387 0.59195 0.0
C217 C 0.66859 0.54933 0.58376 0.0
C218 C 0.71867 0.4655 0.55084 0.0
C219 C 0.6449 0.58096 0.58107 0.0
C220 C 0.8366 0.41933 0.53848 0.0
C221 C 0.81113 0.44628 0.54085 0.0
C222 C 0.76036 0.50714 0.58052 0.0
C223 C 0.68225 0.52879 0.5639 0.0
C224 C 0.71103 0.50498 0.56586 0.0
C225 C 0.79808 0.45142 0.56301 0.0
C226 C 0.76812 0.46949 0.56461 0.0
H227 H 0.6385 0.57535 0.52123 0.0
H228 H 0.67968 0.52111 0.52583 0.0
H229 H 0.72713 0.55598 0.59257 0.0
H230 H 0.84723 0.38968 0.59632 0.0
H231 H 0.80291 0.43788 0.60041 0.0
C232 C 0.4148 0.22151 0.16397 0.0
C233 C 0.41314 0.26832 0.1529 0.0
C234 C 0.41728 0.21798 0.18846 0.0
C235 C 0.40177 0.28881 0.24254 0.0
H236 H 0.4491 0.18794 0.27245 0.0
C237 C 0.41258 0.27692 0.34349 0.0
C238 C 0.41071 0.22912 0.35354 0.0
C239 C 0.4156 0.28272 0.31915 0.0
C240 C 0.43562 0.21606 0.26435 0.0
H241 H 0.41364 0.34819 0.15887 0.0
H242 H 0.41822 0.34202 0.20161 0.0
H243 H 0.44975 0.19661 0.22961 0.0
H244 H 0.41128 0.14989 0.34591 0.0
H245 H 0.41628 0.16005 0.30338 0.0
H246 H 0.38734 0.30788 0.27716 0.0
C247 C 0.41719 0.30801 0.19135 0.0
C248 C 0.436 0.22105 0.23981 0.0
C249 C 0.41472 0.31155 0.16684 0.0
C250 C 0.41267 0.18723 0.33874 0.0
C251 C 0.41569 0.19306 0.31437 0.0
C252 C 0.4014 0.28383 0.26704 0.0
C253 C 0.41816 0.26118 0.20247 0.0
C254 C 0.41893 0.25729 0.22861 0.0
C255 C 0.41682 0.2409 0.30426 0.0
C256 C 0.41818 0.24721 0.27824 0.0
H257 H 0.41363 0.18743 0.15378 0.0
H258 H 0.41765 0.18133 0.19646 0.0
H259 H 0.38798 0.31653 0.23447 0.0
H260 H 0.41133 0.31001 0.35438 0.0
H261 H 0.41687 0.32008 0.31197 0.0
C262 C 0.07181 0.81131 0.33594 0.0
C263 C 0.07342 0.76812 0.3499 0.0
C264 C 0.06943 0.80774 0.31143 0.0
C265 C 0.05086 0.7206 0.26297 0.0
H266 H 0.09931 0.80779 0.22563 0.0
C267 C 0.07417 0.68709 0.164 0.0
C268 C 0.07597 0.72902 0.14922 0.0
C269 C 0.0712 0.69285 0.18839 0.0
C270 C 0.08532 0.78363 0.23575 0.0
H271 H 0.07308 0.68723 0.34905 0.0
H272 H 0.0692 0.68105 0.30635 0.0
H273 H 0.09865 0.81639 0.26833 0.0
H274 H 0.07514 0.80991 0.14842 0.0
H275 H 0.06969 0.81986 0.19084 0.0
H276 H 0.03784 0.68743 0.23032 0.0
C277 C 0.06948 0.71771 0.31434 0.0
C278 C 0.08493 0.78859 0.26025 0.0
C279 C 0.07188 0.72128 0.33884 0.0
C280 C 0.07401 0.77679 0.1593 0.0
C281 C 0.07104 0.78253 0.18365 0.0
C282 C 0.05126 0.71563 0.23843 0.0
C283 C 0.06856 0.76088 0.30032 0.0
C284 C 0.06784 0.75695 0.27418 0.0
C285 C 0.06997 0.74066 0.19852 0.0
C286 C 0.06862 0.74692 0.22454 0.0
H287 H 0.0728 0.84798 0.3439 0.0
H288 H 0.06835 0.84172 0.30116 0.0
H289 H 0.03716 0.69608 0.27316 0.0
H290 H 0.07563 0.64977 0.15682 0.0
H291 H 0.07072 0.65983 0.19936 0.0
C292 C 0.57301 0.77509 0.84119 0.0
C293 C 0.57544 0.72718 0.85105 0.0
C294 C 0.5702 0.78126 0.81685 0.0
C295 C 0.55194 0.7148 0.76157 0.0
H296 H 0.59863 0.8177 0.73258 0.0
C297 C 0.57458 0.7222 0.66154 0.0
C298 C 0.57577 0.76916 0.65056 0.0
C299 C 0.57169 0.71838 0.68598 0.0
C300 C 0.5851 0.7893 0.74039 0.0
H301 H 0.57608 0.6481 0.84305 0.0
H302 H 0.57146 0.65892 0.80054 0.0
H303 H 0.59865 0.80847 0.77525 0.0
H304 H 0.57404 0.84894 0.65665 0.0
H305 H 0.56874 0.84222 0.69932 0.0
H306 H 0.53872 0.69525 0.72661 0.0
C307 C 0.57144 0.69172 0.81168 0.0
C308 C 0.58512 0.78398 0.76488 0.0
C309 C 0.57424 0.68553 0.83605 0.0
C310 C 0.57333 0.8122 0.66454 0.0
C311 C 0.57046 0.80836 0.68901 0.0
C312 C 0.55192 0.72013 0.73705 0.0
C313 C 0.56977 0.7397 0.80177 0.0
C314 C 0.56869 0.74647 0.77577 0.0
C315 C 0.56992 0.76141 0.70004 0.0
C316 C 0.56867 0.75723 0.72616 0.0
H317 H 0.57367 0.80799 0.85224 0.0
H318 H 0.56849 0.81869 0.80983 0.0
H319 H 0.53873 0.68598 0.76942 0.0
H320 H 0.57642 0.68826 0.6513 0.0
H321 H 0.57168 0.68165 0.69391 0.0
C322 C 0.91498 0.18715 0.66597 0.0
C323 C 0.91375 0.22928 0.65127 0.0
C324 C 0.91784 0.19256 0.69038 0.0
C325 C 0.90432 0.28335 0.73786 0.0
H326 H 0.95089 0.19349 0.77541 0.0
C327 C 0.91665 0.30901 0.83826 0.0
C328 C 0.91423 0.26566 0.85203 0.0
C329 C 0.91944 0.30573 0.81376 0.0
C330 C 0.93763 0.21867 0.76517 0.0
H331 H 0.91549 0.31013 0.65066 0.0
H332 H 0.92076 0.31946 0.69313 0.0
H333 H 0.95066 0.18545 0.73254 0.0
H334 H 0.91356 0.1848 0.85088 0.0
H335 H 0.91814 0.17914 0.80822 0.0
H336 H 0.89097 0.31617 0.77042 0.0
C337 C 0.91904 0.28226 0.68585 0.0
C338 C 0.9375 0.21405 0.74061 0.0
C339 C 0.91618 0.27687 0.66147 0.0
C340 C 0.91538 0.21895 0.84081 0.0
C341 C 0.91819 0.21568 0.81634 0.0
C342 C 0.90446 0.28797 0.76237 0.0
C343 C 0.91953 0.24022 0.70063 0.0
C344 C 0.92069 0.24615 0.72668 0.0
C345 C 0.9199 0.25903 0.80249 0.0
C346 C 0.92096 0.25549 0.77635 0.0
H347 H 0.91315 0.14996 0.6587 0.0
H348 H 0.91786 0.15941 0.70127 0.0
H349 H 0.89074 0.30815 0.72769 0.0
H350 H 0.91598 0.34557 0.84633 0.0
H351 H 0.92112 0.33982 0.80364 0.0
C352 C 0.47013 0.31423 0.01319 0.0
C353 C 0.46136 0.30855 0.03675 0.0
C354 C 0.48114 0.35967 0.00531 0.0
C355 C 0.50671 0.48474 0.02367 0.0
H356 H 0.46647 0.52765 0.96724 0.0
C357 C 0.51776 0.68515 0.9922 0.0
C358 C 0.52651 0.68928 0.96855 0.0
C359 C 0.50555 0.64095 1.00047 0.0
C360 C 0.47795 0.51618 0.98294 0.0
H361 H 0.46091 0.34386 0.07117 0.0
H362 H 0.48024 0.42293 0.05743 0.0
H363 H 0.45986 0.44297 0.98184 0.0
H364 H 0.5255 0.65298 0.93438 0.0
H365 H 0.50426 0.57609 0.94879 0.0
H366 H 0.52495 0.55782 0.02471 0.0
C367 C 0.4783 0.39255 0.04496 0.0
C368 C 0.47438 0.46754 0.99122 0.0
C369 C 0.46733 0.34701 0.05287 0.0
C370 C 0.51918 0.65099 0.95273 0.0
C371 C 0.50707 0.60666 0.96104 0.0
C372 C 0.51032 0.53336 0.01537 0.0
C373 C 0.48371 0.40019 0.02085 0.0
C374 C 0.48881 0.4512 0.01161 0.0
C375 C 0.5018 0.60014 0.98525 0.0
C376 C 0.49601 0.54965 0.99489 0.0
H377 H 0.46621 0.28507 1.00037 0.0
H378 H 0.48601 0.36401 0.98675 0.0
H379 H 0.51822 0.47321 0.03934 0.0
H380 H 0.52271 0.7143 0.00478 0.0
H381 H 0.50081 0.6376 0.01909 0.0
C382 C 0.01933 0.68518 0.00841 0.0
C383 C 0.02765 0.69068 0.03209 0.0
C384 C 0.0069 0.64075 1.00063 0.0
C385 C 0.9775 0.51827 0.01958 0.0
H386 H 0.01836 0.47008 0.96442 0.0
C387 C 0.96763 0.31475 0.99195 0.0
C388 C 0.95959 0.30779 0.96828 0.0
C389 C 0.97889 0.36032 0.99942 0.0
C390 C 0.00666 0.48308 0.97975 0.0
H391 H 0.02573 0.65664 0.06676 0.0
H392 H 0.00408 0.57937 0.0532 0.0
H393 H 0.02593 0.5553 0.97795 0.0
H394 H 0.96054 0.34095 0.9334 0.0
H395 H 0.98027 0.42025 0.94643 0.0
H396 H 0.95835 0.44594 0.02143 0.0
C397 C 0.00741 0.60904 0.04055 0.0
C398 C 0.01078 0.53205 0.98741 0.0
C399 C 0.01975 0.65358 0.04836 0.0
C400 C 0.96639 0.34508 0.95177 0.0
C401 C 0.97761 0.39075 0.95928 0.0
C402 C 0.97341 0.46929 0.01193 0.0
C403 C 0.00248 0.6011 0.01639 0.0
C404 C -0.00374 0.55022 0.00742 0.0
C405 C 0.98242 0.39972 0.98337 0.0
C406 C 0.98803 0.45107 0.99198 0.0
H407 H 0.02471 0.71338 0.99547 0.0
H408 H 0.00246 0.6363 0.982 0.0
H409 H 0.96586 0.53121 0.03494 0.0
H410 H 0.96304 0.28651 0.00507 0.0
H411 H 0.98326 0.36565 0.01801 0.0
C412 C 0.52021 0.81446 0.51066 0.0
C413 C 0.52846 0.80806 0.53431 0.0
C414 C 0.50839 0.85956 0.50312 0.0
C415 C 0.4797 0.98191 0.5226 0.0
H416 H 0.52036 0.03056 0.46745 0.0
C417 C 0.46686 0.18421 0.49424 0.0
C418 C 0.45858 0.18996 0.47055 0.0
C419 C 0.47922 0.13967 0.50194 0.0
C420 C 0.50875 0.01747 0.48279 0.0
H421 H 0.52719 0.84148 0.56914 0.0
H422 H 0.50652 0.91995 0.55599 0.0
H423 H 0.5282 0.94537 0.48094 0.0
H424 H 0.4605 0.1562 0.43582 0.0
H425 H 0.48205 0.07872 0.44925 0.0
H426 H 0.46019 0.05394 0.52443 0.0
C427 C 0.50946 0.89041 0.54319 0.0
C428 C 0.51303 0.96853 0.49043 0.0
C429 C 0.52123 0.84522 0.55076 0.0
C430 C 0.46644 0.15295 0.45422 0.0
C431 C 0.47873 0.1083 0.46195 0.0
C432 C 0.47541 0.03084 0.51496 0.0
C433 C 0.50449 0.899 0.51909 0.0
C434 C 0.4985 0.95015 0.51038 0.0
C435 C 0.48363 0.10014 0.4861 0.0
C436 C 0.4899 0.04921 0.49497 0.0
H437 H 0.5251 0.78628 0.49758 0.0
H438 H 0.50391 0.86458 0.48453 0.0
H439 H 0.46808 0.96879 0.53794 0.0
H440 H 0.4615 0.21233 0.50723 0.0
H441 H 0.48365 0.13504 0.52056 0.0
C442 C 0.96893 0.15215 0.55005 0.0
C443 C 0.96226 0.19069 0.53415 0.0
C444 C 0.98041 0.10724 0.54184 0.0
C445 C 0.97668 0.03361 0.4876 0.0
H446 H 0.02631 0.94208 0.52131 0.0
C447 C 0.019 0.84696 0.45001 0.0
C448 C 0.02486 0.80835 0.46608 0.0
C449 C 0.00806 0.89248 0.45797 0.0
C450 C 0.012 0.96696 0.51188 0.0
H451 H 0.96656 0.21524 0.4979 0.0
H452 H 0.98737 0.13747 0.48376 0.0
H453 H 0.0202 0.02688 0.53591 0.0
H454 H 0.01982 0.7846 0.5024 0.0
H455 H 5e-05 0.86351 0.51611 0.0
H456 H 0.96851 0.97366 0.46357 0.0
C457 C 0.98259 0.14116 0.50236 0.0
C458 C 0.00872 0.01567 0.52016 0.0
C459 C 0.97101 0.18596 0.51053 0.0
C460 C 0.01598 0.81388 0.48963 0.0
C461 C 0.00499 0.8593 0.49756 0.0
C462 C 0.97999 0.98491 0.47931 0.0
C463 C 0.98571 0.10033 0.51766 0.0
C464 C 0.99102 0.04958 0.50812 0.0
C465 C 0.00256 0.89997 0.48208 0.0
C466 C -0.00239 0.95097 0.4914 0.0
H467 H 0.96258 0.15456 0.56838 0.0
H468 H 0.98275 0.07665 0.55415 0.0
H469 H 0.96232 0.05842 0.4782 0.0
H470 H 0.0255 0.84394 0.43173 0.0
H471 H 0.00624 0.92298 0.44555 0.0
C472 C 0.17269 0.62593 0.03882 0.0
C473 C 0.16108 0.64833 0.05909 0.0
C474 C 0.19167 0.58595 0.04079 0.0
C475 C 0.24314 0.5265 0.08026 0.0
H476 H 0.23184 0.4123 0.03935 0.0
C477 C 0.31696 0.35302 0.0835 0.0
C478 C 0.3253 0.33359 0.06153 0.0
C479 C 0.29544 0.38929 0.0849 0.0
C480 C 0.23541 0.44406 0.05076 0.0
H481 H 0.16063 0.64687 0.09734 0.0
H482 H 0.19418 0.57697 0.10072 0.0
H483 H 0.19729 0.48058 0.03863 0.0
H484 H 0.31763 0.33695 0.02381 0.0
H485 H 0.28063 0.40058 0.02623 0.0
H486 H 0.2817 0.49061 0.09195 0.0
C487 C 0.18844 0.59051 0.08336 0.0
C488 C 0.21562 0.48306 0.05037 0.0
C489 C 0.16921 0.63035 0.0814 0.0
C490 C 0.31162 0.35093 0.04104 0.0
C491 C 0.29024 0.38721 0.04243 0.0
C492 C 0.26309 0.48756 0.08055 0.0
C493 C 0.19961 0.56771 0.06304 0.0
C494 C 0.21953 0.52496 0.06484 0.0
C495 C 0.28192 0.40684 0.06435 0.0
C496 C 0.25966 0.4463 0.06552 0.0
H497 H 0.16691 0.63887 0.02137 0.0
H498 H 0.20031 0.56948 0.02486 0.0
H499 H 0.24672 0.55858 0.09147 0.0
H500 H 0.32705 0.34032 0.09962 0.0
H501 H 0.28929 0.40337 0.10206 0.0
C502 C 0.31348 0.12622 0.46386 0.0
C503 C 0.32514 0.14851 0.44359 0.0
C504 C 0.29449 0.08628 0.46191 0.0
C505 C 0.24307 0.0267 0.42244 0.0
H506 H 0.2543 0.91269 0.46348 0.0
C507 C 0.16926 0.85323 0.41933 0.0
C508 C 0.16089 0.8339 0.44131 0.0
C509 C 0.19076 0.8895 0.41791 0.0
C510 C 0.25074 0.9444 0.45203 0.0
H511 H 0.32566 0.1469 0.40534 0.0
H512 H 0.29208 0.07705 0.40198 0.0
H513 H 0.28886 0.98094 0.46416 0.0
H514 H 0.1685 0.83747 0.47903 0.0
H515 H 0.20548 0.90111 0.47658 0.0
H516 H 0.20452 0.99079 0.41076 0.0
C517 C 0.29779 0.09066 0.41934 0.0
C518 C 0.27055 0.98338 0.4524 0.0
C519 C 0.31704 0.13047 0.42129 0.0
C520 C 0.17453 0.85137 0.4618 0.0
C521 C 0.1959 0.88765 0.46039 0.0
C522 C 0.22311 0.98778 0.42218 0.0
C523 C 0.28658 0.06796 0.43966 0.0
C524 C 0.26666 0.02521 0.43789 0.0
C525 C 0.20425 0.90716 0.43845 0.0
C526 C 0.22651 0.9466 0.43726 0.0
H527 H 0.31924 0.13921 0.4813 0.0
H528 H 0.28581 0.06988 0.47784 0.0
H529 H 0.23951 0.05874 0.41119 0.0
H530 H 0.1592 0.84043 0.40321 0.0
H531 H 0.19694 0.90349 0.40074 0.0
C532 C 0.66993 0.62006 0.96167 0.0
C533 C 0.65905 0.64336 0.94136 0.0
C534 C 0.68861 0.57965 0.95976 0.0
C535 C 0.74089 0.52078 0.92097 0.0
H536 H 0.72827 0.40581 0.96113 0.0
C537 C 0.81564 0.34844 0.91932 0.0
C538 C 0.82328 0.32918 0.9415 0.0
C539 C 0.79387 0.38414 0.91735 0.0
C540 C 0.73219 0.43777 0.94991 0.0
H541 H 0.6595 0.64293 0.9031 0.0
H542 H 0.69256 0.57228 0.89984 0.0
H543 H 0.69363 0.47401 0.9613 0.0
H544 H 0.81403 0.33216 0.97898 0.0
H545 H 0.77658 0.39479 0.97559 0.0
H546 H 0.77991 0.48525 0.9101 0.0
C547 C 0.68647 0.58546 0.91719 0.0
C548 C 0.71235 0.4767 0.94999 0.0
C549 C 0.66753 0.62573 0.91907 0.0
C550 C 0.8086 0.34603 0.96161 0.0
C551 C 0.78696 0.38173 0.95965 0.0
C552 C 0.76088 0.4819 0.921 0.0
C553 C 0.69696 0.56185 0.93754 0.0
C554 C 0.71677 0.51893 0.93583 0.0
C555 C 0.77939 0.40127 0.93753 0.0
C556 C 0.75699 0.4404 0.9358 0.0
H557 H 0.66384 0.63269 0.9791 0.0
H558 H 0.69673 0.56256 0.97574 0.0
H559 H 0.74486 0.55312 0.91001 0.0
H560 H 0.8265 0.3361 0.90347 0.0
H561 H 0.78832 0.39816 0.90004 0.0
C562 C 0.67278 0.85516 0.58186 0.0
C563 C 0.66461 0.8361 0.55977 0.0
C564 C 0.69407 0.89178 0.58349 0.0
C565 C 0.75396 0.94794 0.54976 0.0
H566 H 0.74256 0.06101 0.59135 0.0
C567 C 0.81736 0.12955 0.53967 0.0
C568 C 0.82897 0.1509 0.56019 0.0
C569 C 0.79811 0.0899 0.54117 0.0
C570 C 0.74616 0.02934 0.57988 0.0
H571 H 0.67229 0.84062 0.52208 0.0
H572 H 0.70889 0.90484 0.5249 0.0
H573 H 0.70756 0.99306 0.5912 0.0
H574 H 0.82908 0.14793 0.59843 0.0
H575 H 0.79509 0.07856 0.601 0.0
H576 H 0.79215 0.9848 0.53802 0.0
C577 C 0.69933 0.8909 0.54101 0.0
C578 C 0.72619 0.99041 0.57982 0.0
C579 C 0.67819 0.85426 0.53939 0.0
C580 C 0.82053 0.13223 0.58229 0.0
C581 C 0.80103 0.0927 0.58379 0.0
C582 C 0.77377 0.98692 0.54972 0.0
C583 C 0.70752 0.91007 0.56306 0.0
C584 C 0.72968 0.94966 0.56449 0.0
C585 C 0.7899 0.07091 0.56322 0.0
C586 C 0.76983 0.02828 0.56452 0.0
H587 H 0.66275 0.84185 0.59789 0.0
H588 H 0.70012 0.9055 0.60074 0.0
H589 H 0.75759 0.91656 0.53813 0.0
H590 H 0.82336 0.14307 0.52237 0.0
H591 H 0.7895 0.07421 0.52505 0.0
loop_
_geom_bond_atom_site_label_1
_geom_bond_atom_site_label_2
_geom_bond_distance
_geom_bond_site_symmetry_2
_ccdc_geom_bond_type
Zn0 O3 2.031 . S
Zn0 O5 2.049 . S
Zn0 O10 2.067 . S
Zn1 O2 1.962 . S
Zn1 O4 1.986 . S
Zn1 O6 1.996 . S
Zn1 O9 1.943 . S
O2 Zn1 1.962 . S
O2 C7 1.254 . S
O3 Zn0 2.031 . S
O3 C7 1.269 . S
O4 Zn1 1.986 . S
O4 C11 1.262 . S
O5 Zn0 2.049 . S
O5 C13 1.260 . S
O6 Zn1 1.996 . S
O6 C13 1.257 . S
C7 O2 1.254 . S
C7 O3 1.269 . S
C8 O9 1.249 . S
C8 O10 1.270 . S
O9 Zn1 1.943 . S
O9 C8 1.249 . S
O10 Zn0 2.067 . S
O10 C8 1.270 . S
C11 O4 1.262 . S
C11 O12 1.232 . S
O12 C11 1.232 . S
C13 O5 1.260 . S
C13 O6 1.257 . S
Zn14 O17 2.031 . S
Zn14 O19 2.049 . S
Zn14 O24 2.067 . S
Zn15 O16 1.962 . S
Zn15 O18 1.986 . S
Zn15 O20 1.996 . S
Zn15 O23 1.943 . S
O16 Zn15 1.962 . S
O16 C21 1.254 . S
O17 Zn14 2.031 . S
O17 C21 1.269 . S
O18 Zn15 1.986 . S
O18 C25 1.262 . S
O19 Zn14 2.049 . S
O19 C27 1.260 . S
O20 Zn15 1.996 . S
O20 C27 1.257 . S
C21 O16 1.254 . S
C21 O17 1.269 . S
C22 O23 1.249 . S
C22 O24 1.270 . S
O23 Zn15 1.943 . S
O23 C22 1.249 . S
O24 Zn14 2.067 . S
O24 C22 1.270 . S
C25 O18 1.262 . S
C25 O26 1.232 . S
O26 C25 1.232 . S
C27 O19 1.260 . S
C27 O20 1.257 . S
Zn28 O31 2.031 . S
Zn28 O33 2.049 . S
Zn28 O38 2.067 . S
Zn29 O30 1.962 . S
Zn29 O32 1.986 . S
Zn29 O34 1.996 . S
Zn29 O37 1.943 . S
O30 Zn29 1.962 . S
O30 C35 1.254 . S
O31 Zn28 2.031 . S
O31 C35 1.269 . S
O32 Zn29 1.986 . S
O32 C39 1.262 . S
O33 Zn28 2.049 . S
O33 C41 1.260 . S
O34 Zn29 1.996 . S
O34 C41 1.257 . S
C35 O30 1.254 . S
C35 O31 1.269 . S
C36 O37 1.249 . S
C36 O38 1.270 . S
O37 Zn29 1.943 . S
O37 C36 1.249 . S
O38 Zn28 2.067 . S
O38 C36 1.270 . S
C39 O32 1.262 . S
C39 O40 1.232 . S
O40 C39 1.232 . S
C41 O33 1.260 . S
C41 O34 1.257 . S
Zn42 O45 2.031 . S
Zn42 O47 2.049 . S
Zn42 O52 2.067 . S
Zn43 O44 1.962 . S
Zn43 O46 1.986 . S
Zn43 O48 1.996 . S
Zn43 O51 1.943 . S
O44 Zn43 1.962 . S
O44 C49 1.254 . S
O45 Zn42 2.031 . S
O45 C49 1.269 . S
O46 Zn43 1.986 . S
O46 C53 1.262 . S
O47 Zn42 2.049 . S
O47 C55 1.260 . S
O48 Zn43 1.996 . S
O48 C55 1.257 . S
C49 O44 1.254 . S
C49 O45 1.269 . S
C50 O51 1.249 . S
C50 O52 1.270 . S
O51 Zn43 1.943 . S
O51 C50 1.249 . S
O52 Zn42 2.067 . S
O52 C50 1.270 . S
C53 O46 1.262 . S
C53 O54 1.232 . S
O54 C53 1.232 . S
C55 O47 1.260 . S
C55 O48 1.257 . S
Zn56 O59 2.031 . S
Zn56 O61 2.049 . S
Zn56 O66 2.067 . S
Zn57 O58 1.962 . S
Zn57 O60 1.986 . S
Zn57 O62 1.996 . S
Zn57 O65 1.943 . S
O58 Zn57 1.962 . S
O58 C63 1.254 . S
O59 Zn56 2.031 . S
O59 C63 1.269 . S
O60 Zn57 1.986 . S
O60 C67 1.262 . S
O61 Zn56 2.049 . S
O61 C69 1.260 . S
O62 Zn57 1.996 . S
O62 C69 1.257 . S
C63 O58 1.254 . S
C63 O59 1.269 . S
C64 O65 1.249 . S
C64 O66 1.270 . S
O65 Zn57 1.943 . S
O65 C64 1.249 . S
O66 Zn56 2.067 . S
O66 C64 1.270 . S
C67 O60 1.262 . S
C67 O68 1.232 . S
O68 C67 1.232 . S
C69 O61 1.260 . S
C69 O62 1.257 . S
Zn70 O73 2.031 . S
Zn70 O75 2.049 . S
Zn70 O80 2.067 . S
Zn71 O72 1.962 . S
Zn71 O74 1.986 . S
Zn71 O76 1.996 . S
Zn71 O79 1.943 . S
O72 Zn71 1.962 . S
O72 C77 1.254 . S
O73 Zn70 2.031 . S
O73 C77 1.269 . S
O74 Zn71 1.986 . S
O74 C81 1.262 . S
O75 Zn70 2.049 . S
O75 C83 1.260 . S
O76 Zn71 1.996 . S
O76 C83 1.257 . S
C77 O72 1.254 . S
C77 O73 1.269 . S
C78 O79 1.249 . S
C78 O80 1.270 . S
O79 Zn71 1.943 . S
O79 C78 1.249 . S
O80 Zn70 2.067 . S
O80 C78 1.270 . S
C81 O74 1.262 . S
C81 O82 1.232 . S
O82 C81 1.232 . S
C83 O75 1.260 . S
C83 O76 1.257 . S
Zn84 O87 2.031 . S
Zn84 O89 2.049 . S
Zn84 O94 2.067 . S
Zn85 O86 1.962 . S
Zn85 O88 1.986 . S
Zn85 O90 1.996 . S
Zn85 O93 1.943 . S
O86 Zn85 1.962 . S
O86 C91 1.254 . S
O87 Zn84 2.031 . S
O87 C91 1.269 . S
O88 Zn85 1.986 . S
O88 C95 1.262 . S
O89 Zn84 2.049 . S
O89 C97 1.260 . S
O90 Zn85 1.996 . S
O90 C97 1.257 . S
C91 O86 1.254 . S
C91 O87 1.269 . S
C92 O93 1.249 . S
C92 O94 1.270 . S
O93 Zn85 1.943 . S
O93 C92 1.249 . S
O94 Zn84 2.067 . S
O94 C92 1.270 . S
C95 O88 1.262 . S
C95 O96 1.232 . S
O96 C95 1.232 . S
C97 O89 1.260 . S
C97 O90 1.257 . S
Zn98 O101 2.031 . S
Zn98 O103 2.049 . S
Zn98 O108 2.067 . S
Zn99 O100 1.962 . S
Zn99 O102 1.986 . S
Zn99 O104 1.996 . S
Zn99 O107 1.943 . S
O100 Zn99 1.962 . S
O100 C105 1.254 . S
O101 Zn98 2.031 . S
O101 C105 1.269 . S
O102 Zn99 1.986 . S
O102 C109 1.262 . S
O103 Zn98 2.049 . S
O103 C111 1.260 . S
O104 Zn99 1.996 . S
O104 C111 1.257 . S
C105 O100 1.254 . S
C105 O101 1.269 . S
C106 O107 1.249 . S
C106 O108 1.270 . S
O107 Zn99 1.943 . S
O107 C106 1.249 . S
O108 Zn98 2.067 . S
O108 C106 1.270 . S
C109 O102 1.262 . S
C109 O110 1.232 . S
O110 C109 1.232 . S
C111 O103 1.260 . S
C111 O104 1.257 . S
C112 C113 1.349 . S
C112 C114 1.327 . S
C112 H137 0.950 . S
C113 C112 1.349 . S
C113 C129 1.349 . S
C114 C112 1.327 . S
C114 C133 1.429 . S
C114 H138 0.950 . S
C115 C132 1.581 . S
C115 C134 1.368 . S
C115 H139 0.949 . S
H116 C120 0.949 . S
C117 C118 1.349 . S
C117 C119 1.327 . S
C117 H140 0.950 . S
C118 C117 1.349 . S
C118 C130 1.349 . S
C119 C117 1.327 . S
C119 C135 1.429 . S
C119 H141 0.950 . S
C120 H116 0.949 . S
C120 C128 1.581 . S
C120 C136 1.368 . S
H121 C129 0.950 . S
H122 C127 0.950 . S
H123 C128 0.949 . S
H124 C130 0.950 . S
H125 C131 0.950 . S
H126 C132 0.949 . S
C127 H122 0.950 . S
C127 C129 1.327 . S
C127 C133 1.429 . S
C128 C120 1.581 . S
C128 H123 0.949 . S
C128 C134 1.362 1_565 S
C129 C113 1.349 . S
C129 H121 0.950 . S
C129 C127 1.327 . S
C130 C118 1.349 . S
C130 H124 0.950 . S
C130 C131 1.327 . S
C131 H125 0.950 . S
C131 C130 1.327 . S
C131 C135 1.429 . S
C132 C115 1.581 . S
C132 H126 0.949 . S
C132 C136 1.362 1_545 S
C133 C114 1.429 . S
C133 C127 1.429 . S
C133 C134 1.523 . S
C134 C115 1.368 . S
C134 C128 1.362 1_545 S
C134 C133 1.523 . S
C135 C119 1.429 . S
C135 C131 1.429 . S
C135 C136 1.523 . S
C136 C120 1.368 . S
C136 C132 1.362 1_565 S
C136 C135 1.523 . S
H137 C112 0.950 . S
H138 C114 0.950 . S
H139 C115 0.949 . S
H140 C117 0.950 . S
H141 C119 0.950 . S
C142 C143 1.349 . S
C142 C144 1.327 . S
C142 H167 0.950 . S
C143 C142 1.349 . S
C143 C159 1.349 . S
C144 C142 1.327 . S
C144 C163 1.429 . S
C144 H168 0.950 . S
C145 C162 1.574 . S
C145 C164 1.368 . S
C145 H169 0.949 . S
H146 C150 0.949 . S
C147 C148 1.349 . S
C147 C149 1.327 . S
C147 H170 0.950 . S
C148 C147 1.349 . S
C148 C160 1.349 . S
C149 C147 1.327 . S
C149 C165 1.429 . S
C149 H171 0.950 . S
C150 H146 0.949 . S
C150 C158 1.574 . S
C150 C166 1.368 . S
H151 C159 0.950 . S
H152 C157 0.950 . S
H153 C158 0.949 . S
H154 C160 0.950 . S
H155 C161 0.950 . S
H156 C162 0.949 . S
C157 H152 0.950 . S
C157 C159 1.327 . S
C157 C163 1.429 . S
C158 C150 1.574 . S
C158 H153 0.949 . S
C158 C164 1.368 . S
C159 C143 1.349 . S
C159 H151 0.950 . S
C159 C157 1.327 . S
C160 C148 1.349 . S
C160 H154 0.950 . S
C160 C161 1.327 . S
C161 H155 0.950 . S
C161 C160 1.327 . S
C161 C165 1.429 . S
C162 C145 1.574 . S
C162 H156 0.949 . S
C162 C166 1.368 . S
C163 C144 1.429 . S
C163 C157 1.429 . S
C163 C164 1.523 . S
C164 C145 1.368 . S
C164 C158 1.368 . S
C164 C163 1.523 . S
C165 C149 1.429 . S
C165 C161 1.429 . S
C165 C166 1.523 . S
C166 C150 1.368 . S
C166 C162 1.368 . S
C166 C165 1.523 . S
H167 C142 0.950 . S
H168 C144 0.950 . S
H169 C145 0.949 . S
H170 C147 0.950 . S
H171 C149 0.950 . S
C172 C173 1.349 . S
C172 C174 1.327 . S
C172 H197 0.950 . S
C173 C172 1.349 . S
C173 C189 1.349 . S
C174 C172 1.327 . S
C174 C193 1.429 . S
C174 H198 0.950 . S
C175 C192 1.580 . S
C175 C194 1.368 . S
C175 H199 0.949 . S
H176 C180 0.949 . S
C177 C178 1.349 . S
C177 C179 1.327 . S
C177 H200 0.950 . S
C178 C177 1.349 . S
C178 C190 1.349 . S
C179 C177 1.327 . S
C179 C195 1.429 . S
C179 H201 0.950 . S
C180 H176 0.949 . S
C180 C188 1.580 . S
C180 C196 1.368 . S
H181 C189 0.950 . S
H182 C187 0.950 . S
H183 C188 0.949 . S
H184 C190 0.950 . S
H185 C191 0.950 . S
H186 C192 0.949 . S
C187 H182 0.950 . S
C187 C189 1.327 . S
C187 C193 1.429 . S
C188 C180 1.580 . S
C188 H183 0.949 . S
C188 C194 1.362 1_545 S
C189 C173 1.349 . S
C189 H181 0.950 . S
C189 C187 1.327 . S
C190 C178 1.349 . S
C190 H184 0.950 . S
C190 C191 1.327 . S
C191 H185 0.950 . S
C191 C190 1.327 . S
C191 C195 1.429 . S
C192 C175 1.580 . S
C192 H186 0.949 . S
C192 C196 1.362 1_565 S
C193 C174 1.429 . S
C193 C187 1.429 . S
C193 C194 1.523 . S
C194 C175 1.368 . S
C194 C188 1.362 1_565 S
C194 C193 1.523 . S
C195 C179 1.429 . S
C195 C191 1.429 . S
C195 C196 1.523 . S
C196 C180 1.368 . S
C196 C192 1.362 1_545 S
C196 C195 1.523 . S
H197 C172 0.950 . S
H198 C174 0.950 . S
H199 C175 0.949 . S
H200 C177 0.950 . S
H201 C179 0.950 . S
C202 C203 1.349 . S
C202 C204 1.327 . S
C202 H227 0.950 . S
C203 C202 1.349 . S
C203 C219 1.349 . S
C204 C202 1.327 . S
C204 C223 1.429 . S
C204 H228 0.950 . S
C205 C222 1.574 . S
C205 C224 1.368 . S
C205 H229 0.949 . S
H206 C210 0.949 . S
C207 C208 1.349 . S
C207 C209 1.327 . S
C207 H230 0.950 . S
C208 C207 1.349 . S
C208 C220 1.349 . S
C209 C207 1.327 . S
C209 C225 1.429 . S
C209 H231 0.950 . S
C210 H206 0.949 . S
C210 C218 1.574 . S
C210 C226 1.368 . S
H211 C219 0.950 . S
H212 C217 0.950 . S
H213 C218 0.949 . S
H214 C220 0.950 . S
H215 C221 0.950 . S
H216 C222 0.949 . S
C217 H212 0.950 . S
C217 C219 1.327 . S
C217 C223 1.429 . S
C218 C210 1.574 . S
C218 H213 0.949 . S
C218 C224 1.368 . S
C219 C203 1.349 . S
C219 H211 0.950 . S
C219 C217 1.327 . S
C220 C208 1.349 . S
C220 H214 0.950 . S
C220 C221 1.327 . S
C221 H215 0.950 . S
C221 C220 1.327 . S
C221 C225 1.429 . S
C222 C205 1.574 . S
C222 H216 0.949 . S
C222 C226 1.368 . S
C223 C204 1.429 . S
C223 C217 1.429 . S
C223 C224 1.523 . S
C224 C205 1.368 . S
C224 C218 1.368 . S
C224 C223 1.523 . S
C225 C209 1.429 . S
C225 C221 1.429 . S
C225 C226 1.523 . S
C226 C210 1.368 . S
C226 C222 1.368 . S
C226 C225 1.523 . S
H227 C202 0.950 . S
H228 C204 0.950 . S
H229 C205 0.949 . S
H230 C207 0.950 . S
H231 C209 0.950 . S
C232 C233 1.349 . S
C232 C234 1.327 . S
C232 H257 0.950 . S
C233 C232 1.349 . S
C233 C249 1.349 . S
C234 C232 1.327 . S
C234 C253 1.429 . S
C234 H258 0.950 . S
C235 C252 1.574 . S
C235 C254 1.368 . S
C235 H259 0.949 . S
H236 C240 0.949 . S
C237 C238 1.349 . S
C237 C239 1.327 . S
C237 H260 0.950 . S
C238 C237 1.349 . S
C238 C250 1.349 . S
C239 C237 1.327 . S
C239 C255 1.429 . S
C239 H261 0.950 . S
C240 H236 0.949 . S
C240 C248 1.574 . S
C240 C256 1.368 . S
H241 C249 0.950 . S
H242 C247 0.950 . S
H243 C248 0.949 . S
H244 C250 0.950 . S
H245 C251 0.950 . S
H246 C252 0.949 . S
C247 H242 0.950 . S
C247 C249 1.327 . S
C247 C253 1.429 . S
C248 C240 1.574 . S
C248 H243 0.949 . S
C248 C254 1.368 . S
C249 C233 1.349 . S
C249 H241 0.950 . S
C249 C247 1.327 . S
C250 C238 1.349 . S
C250 H244 0.950 . S
C250 C251 1.327 . S
C251 H245 0.950 . S
C251 C250 1.327 . S
C251 C255 1.429 . S
C252 C235 1.574 . S
C252 H246 0.949 . S
C252 C256 1.368 . S
C253 C234 1.429 . S
C253 C247 1.429 . S
C253 C254 1.523 . S
C254 C235 1.368 . S
C254 C248 1.368 . S
C254 C253 1.523 . S
C255 C239 1.429 . S
C255 C251 1.429 . S
C255 C256 1.523 . S
C256 C240 1.368 . S
C256 C252 1.368 . S
C256 C255 1.523 . S
H257 C232 0.950 . S
H258 C234 0.950 . S
H259 C235 0.949 . S
H260 C237 0.950 . S
H261 C239 0.950 . S
C262 C263 1.349 . S
C262 C264 1.327 . S
C262 H287 0.950 . S
C263 C262 1.349 . S
C263 C279 1.349 . S
C264 C262 1.327 . S
C264 C283 1.429 . S
C264 H288 0.950 . S
C265 C282 1.574 . S
C265 C284 1.368 . S
C265 H289 0.949 . S
H266 C270 0.949 . S
C267 C268 1.349 . S
C267 C269 1.327 . S
C267 H290 0.950 . S
C268 C267 1.349 . S
C268 C280 1.349 . S
C269 C267 1.327 . S
C269 C285 1.429 . S
C269 H291 0.950 . S
C270 H266 0.949 . S
C270 C278 1.574 . S
C270 C286 1.368 . S
H271 C279 0.950 . S
H272 C277 0.950 . S
H273 C278 0.949 . S
H274 C280 0.950 . S
H275 C281 0.950 . S
H276 C282 0.949 . S
C277 H272 0.950 . S
C277 C279 1.327 . S
C277 C283 1.429 . S
C278 C270 1.574 . S
C278 H273 0.949 . S
C278 C284 1.368 . S
C279 C263 1.349 . S
C279 H271 0.950 . S
C279 C277 1.327 . S
C280 C268 1.349 . S
C280 H274 0.950 . S
C280 C281 1.327 . S
C281 H275 0.950 . S
C281 C280 1.327 . S
C281 C285 1.429 . S
C282 C265 1.574 . S
C282 H276 0.949 . S
C282 C286 1.368 . S
C283 C264 1.429 . S
C283 C277 1.429 . S
C283 C284 1.523 . S
C284 C265 1.368 . S
C284 C278 1.368 . S
C284 C283 1.523 . S
C285 C269 1.429 . S
C285 C281 1.429 . S
C285 C286 1.523 . S
C286 C270 1.368 . S
C286 C282 1.368 . S
C286 C285 1.523 . S
H287 C262 0.950 . S
H288 C264 0.950 . S
H289 C265 0.949 . S
H290 C267 0.950 . S
H291 C269 0.950 . S
C292 C293 1.349 . S
C292 C294 1.327 . S
C292 H317 0.950 . S
C293 C292 1.349 . S
C293 C309 1.349 . S
C294 C292 1.327 . S
C294 C313 1.429 . S
C294 H318 0.950 . S
C295 C312 1.574 . S
C295 C314 1.368 . S
C295 H319 0.949 . S
H296 C300 0.949 . S
C297 C298 1.349 . S
C297 C299 1.327 . S
C297 H320 0.950 . S
C298 C297 1.349 . S
C298 C310 1.349 . S
C299 C297 1.327 . S
C299 C315 1.429 . S
C299 H321 0.950 . S
C300 H296 0.949 . S
C300 C308 1.574 . S
C300 C316 1.368 . S
H301 C309 0.950 . S
H302 C307 0.950 . S
H303 C308 0.949 . S
H304 C310 0.950 . S
H305 C311 0.950 . S
H306 C312 0.949 . S
C307 H302 0.950 . S
C307 C309 1.327 . S
C307 C313 1.429 . S
C308 C300 1.574 . S
C308 H303 0.949 . S
C308 C314 1.368 . S
C309 C293 1.349 . S
C309 H301 0.950 . S
C309 C307 1.327 . S
C310 C298 1.349 . S
C310 H304 0.950 . S
C310 C311 1.327 . S
C311 H305 0.950 . S
C311 C310 1.327 . S
C311 C315 1.429 . S
C312 C295 1.574 . S
C312 H306 0.949 . S
C312 C316 1.368 . S
C313 C294 1.429 . S
C313 C307 1.429 . S
C313 C314 1.523 . S
C314 C295 1.368 . S
C314 C308 1.368 . S
C314 C313 1.523 . S
C315 C299 1.429 . S
C315 C311 1.429 . S
C315 C316 1.523 . S
C316 C300 1.368 . S
C316 C312 1.368 . S
C316 C315 1.523 . S
H317 C292 0.950 . S
H318 C294 0.950 . S
H319 C295 0.949 . S
H320 C297 0.950 . S
H321 C299 0.950 . S
C322 C323 1.349 . S
C322 C324 1.327 . S
C322 H347 0.950 . S
C323 C322 1.349 . S
C323 C339 1.349 . S
C324 C322 1.327 . S
C324 C343 1.429 . S
C324 H348 0.950 . S
C325 C342 1.574 . S
C325 C344 1.368 . S
C325 H349 0.949 . S
H326 C330 0.949 . S
C327 C328 1.349 . S
C327 C329 1.327 . S
C327 H350 0.950 . S
C328 C327 1.349 . S
C328 C340 1.349 . S
C329 C327 1.327 . S
C329 C345 1.429 . S
C329 H351 0.950 . S
C330 H326 0.949 . S
C330 C338 1.574 . S
C330 C346 1.368 . S
H331 C339 0.950 . S
H332 C337 0.950 . S
H333 C338 0.949 . S
H334 C340 0.950 . S
H335 C341 0.950 . S
H336 C342 0.949 . S
C337 H332 0.950 . S
C337 C339 1.327 . S
C337 C343 1.429 . S
C338 C330 1.574 . S
C338 H333 0.949 . S
C338 C344 1.368 . S
C339 C323 1.349 . S
C339 H331 0.950 . S
C339 C337 1.327 . S
C340 C328 1.349 . S
C340 H334 0.950 . S
C340 C341 1.327 . S
C341 H335 0.950 . S
C341 C340 1.327 . S
C341 C345 1.429 . S
C342 C325 1.574 . S
C342 H336 0.949 . S
C342 C346 1.368 . S
C343 C324 1.429 . S
C343 C337 1.429 . S
C343 C344 1.523 . S
C344 C325 1.368 . S
C344 C338 1.368 . S
C344 C343 1.523 . S
C345 C329 1.429 . S
C345 C341 1.429 . S
C345 C346 1.523 . S
C346 C330 1.368 . S
C346 C342 1.368 . S
C346 C345 1.523 . S
H347 C322 0.950 . S
H348 C324 0.950 . S
H349 C325 0.949 . S
H350 C327 0.950 . S
H351 C329 0.950 . S
C352 C353 1.349 . S
C352 C354 1.327 . S
C352 H377 0.950 . S
C353 C352 1.349 . S
C353 C369 1.349 . S
C354 C352 1.327 . S
C354 C373 1.429 . S
C354 H378 0.950 1_554 S
C355 C372 1.574 . S
C355 C374 1.368 . S
C355 H379 0.949 . S
H356 C360 0.949 . S
C357 C358 1.349 . S
C357 C359 1.327 . S
C357 H380 0.950 . S
C358 C357 1.349 . S
C358 C370 1.349 . S
C359 C357 1.327 . S
C359 C375 1.429 . S
C359 H381 0.950 1_556 S
C360 H356 0.949 . S
C360 C368 1.574 . S
C360 C376 1.368 . S
H361 C369 0.950 . S
H362 C367 0.950 . S
H363 C368 0.949 . S
H364 C370 0.950 . S
H365 C371 0.950 . S
H366 C372 0.949 . S
C367 H362 0.950 . S
C367 C369 1.327 . S
C367 C373 1.429 . S
C368 C360 1.574 . S
C368 H363 0.949 . S
C368 C374 1.368 1_556 S
C369 C353 1.349 . S
C369 H361 0.950 . S
C369 C367 1.327 . S
C370 C358 1.349 . S
C370 H364 0.950 . S
C370 C371 1.327 . S
C371 H365 0.950 . S
C371 C370 1.327 . S
C371 C375 1.429 . S
C372 C355 1.574 . S
C372 H366 0.949 . S
C372 C376 1.368 1_554 S
C373 C354 1.429 . S
C373 C367 1.429 . S
C373 C374 1.523 . S
C374 C355 1.368 . S
C374 C368 1.368 1_554 S
C374 C373 1.523 . S
C375 C359 1.429 . S
C375 C371 1.429 . S
C375 C376 1.523 . S
C376 C360 1.368 . S
C376 C372 1.368 1_556 S
C376 C375 1.523 . S
H377 C352 0.950 . S
H378 C354 0.950 1_556 S
H379 C355 0.949 . S
H380 C357 0.950 . S
H381 C359 0.950 1_554 S
C382 C383 1.349 . S
C382 C384 1.327 . S
C382 H407 0.950 . S
C383 C382 1.349 . S
C383 C399 1.349 . S
C384 C382 1.327 . S
C384 C403 1.429 . S
C384 H408 0.950 . S
C385 C402 1.574 . S
C385 C404 1.368 1_655 S
C385 H409 0.949 . S
H386 C390 0.949 . S
C387 C388 1.349 . S
C387 C389 1.327 . S
C387 H410 0.950 . S
C388 C387 1.349 . S
C388 C400 1.349 . S
C389 C387 1.327 . S
C389 C405 1.429 . S
C389 H411 0.950 . S
C390 H386 0.949 . S
C390 C398 1.574 . S
C390 C406 1.368 1_455 S
H391 C399 0.950 . S
H392 C397 0.950 1_655 S
H393 C398 0.949 . S
H394 C400 0.950 . S
H395 C401 0.950 1_455 S
H396 C402 0.949 . S
C397 H392 0.950 1_455 S
C397 C399 1.327 . S
C397 C403 1.429 . S
C398 C390 1.574 . S
C398 H393 0.949 . S
C398 C404 1.368 1_556 S
C399 C383 1.349 . S
C399 H391 0.950 . S
C399 C397 1.327 . S
C400 C388 1.349 . S
C400 H394 0.950 . S
C400 C401 1.327 . S
C401 H395 0.950 1_655 S
C401 C400 1.327 . S
C401 C405 1.429 . S
C402 C385 1.574 . S
C402 H396 0.949 . S
C402 C406 1.368 1_554 S
C403 C384 1.429 . S
C403 C397 1.429 . S
C403 C404 1.523 . S
C404 C385 1.368 1_455 S
C404 C398 1.368 1_554 S
C404 C403 1.523 . S
C405 C389 1.429 . S
C405 C401 1.429 . S
C405 C406 1.523 . S
C406 C390 1.368 1_655 S
C406 C402 1.368 1_556 S
C406 C405 1.523 . S
H407 C382 0.950 . S
H408 C384 0.950 . S
H409 C385 0.949 . S
H410 C387 0.950 . S
H411 C389 0.950 . S
C412 C413 1.349 . S
C412 C414 1.327 . S
C412 H437 0.950 . S
C413 C412 1.349 . S
C413 C429 1.349 . S
C414 C412 1.327 . S
C414 C433 1.429 . S
C414 H438 0.950 . S
C415 C432 1.574 1_565 S
C415 C434 1.368 . S
C415 H439 0.949 . S
H416 C420 0.949 . S
C417 C418 1.349 . S
C417 C419 1.327 . S
C417 H440 0.950 . S
C418 C417 1.349 . S
C418 C430 1.349 . S
C419 C417 1.327 . S
C419 C435 1.429 . S
C419 H441 0.950 . S
C420 H416 0.949 . S
C420 C428 1.574 1_545 S
C420 C436 1.368 . S
H421 C429 0.950 . S
H422 C427 0.950 . S
H423 C428 0.949 . S
H424 C430 0.950 . S
H425 C431 0.950 . S
H426 C432 0.949 . S
C427 H422 0.950 . S
C427 C429 1.327 . S
C427 C433 1.429 . S
C428 C420 1.574 1_565 S
C428 H423 0.949 . S
C428 C434 1.368 . S
C429 C413 1.349 . S
C429 H421 0.950 . S
C429 C427 1.327 . S
C430 C418 1.349 . S
C430 H424 0.950 . S
C430 C431 1.327 . S
C431 H425 0.950 . S
C431 C430 1.327 . S
C431 C435 1.429 . S
C432 C415 1.574 1_545 S
C432 H426 0.949 . S
C432 C436 1.368 . S
C433 C414 1.429 . S
C433 C427 1.429 . S
C433 C434 1.523 . S
C434 C415 1.368 . S
C434 C428 1.368 . S
C434 C433 1.523 . S
C435 C419 1.429 . S
C435 C431 1.429 . S
C435 C436 1.523 . S
C436 C420 1.368 . S
C436 C432 1.368 . S
C436 C435 1.523 . S
H437 C412 0.950 . S
H438 C414 0.950 . S
H439 C415 0.949 . S
H440 C417 0.950 . S
H441 C419 0.950 . S
C442 C443 1.349 . S
C442 C444 1.327 . S
C442 H467 0.950 . S
C443 C442 1.349 . S
C443 C459 1.349 . S
C444 C442 1.327 . S
C444 C463 1.429 . S
C444 H468 0.950 . S
C445 C462 1.574 1_645 S
C445 C464 1.368 . S
C445 H469 0.949 . S
H446 C450 0.949 . S
C447 C448 1.349 . S
C447 C449 1.327 . S
C447 H470 0.950 . S
C448 C447 1.349 . S
C448 C460 1.349 . S
C449 C447 1.327 . S
C449 C465 1.429 . S
C449 H471 0.950 . S
C450 H446 0.949 . S
C450 C458 1.574 1_465 S
C450 C466 1.368 . S
H451 C459 0.950 . S
H452 C457 0.950 . S
H453 C458 0.949 . S
H454 C460 0.950 . S
H455 C461 0.950 . S
H456 C462 0.949 . S
C457 H452 0.950 . S
C457 C459 1.327 . S
C457 C463 1.429 . S
C458 C450 1.574 1_645 S
C458 H453 0.949 . S
C458 C464 1.368 . S
C459 C443 1.349 . S
C459 H451 0.950 . S
C459 C457 1.327 . S
C460 C448 1.349 . S
C460 H454 0.950 . S
C460 C461 1.327 . S
C461 H455 0.950 . S
C461 C460 1.327 . S
C461 C465 1.429 . S
C462 C445 1.574 1_465 S
C462 H456 0.949 . S
C462 C466 1.368 . S
C463 C444 1.429 . S
C463 C457 1.429 . S
C463 C464 1.523 . S
C464 C445 1.368 . S
C464 C458 1.368 . S
C464 C463 1.523 . S
C465 C449 1.429 . S
C465 C461 1.429 . S
C465 C466 1.523 . S
C466 C450 1.368 . S
C466 C462 1.368 . S
C466 C465 1.523 . S
H467 C442 0.950 . S
H468 C444 0.950 . S
H469 C445 0.949 . S
H470 C447 0.950 . S
H471 C449 0.950 . S
C472 C473 1.349 . S
C472 C474 1.327 . S
C472 H497 0.950 . S
C473 C472 1.349 . S
C473 C489 1.349 . S
C474 C472 1.327 . S
C474 C493 1.429 . S
C474 H498 0.950 . S
C475 C492 1.574 . S
C475 C494 1.368 . S
C475 H499 0.949 . S
H476 C480 0.949 . S
C477 C478 1.349 . S
C477 C479 1.327 . S
C477 H500 0.950 . S
C478 C477 1.349 . S
C478 C490 1.349 . S
C479 C477 1.327 . S
C479 C495 1.429 . S
C479 H501 0.950 . S
C480 H476 0.949 . S
C480 C488 1.574 . S
C480 C496 1.368 . S
H481 C489 0.950 . S
H482 C487 0.950 . S
H483 C488 0.949 . S
H484 C490 0.950 . S
H485 C491 0.950 . S
H486 C492 0.949 . S
C487 H482 0.950 . S
C487 C489 1.327 . S
C487 C493 1.429 . S
C488 C480 1.574 . S
C488 H483 0.949 . S
C488 C494 1.368 . S
C489 C473 1.349 . S
C489 H481 0.950 . S
C489 C487 1.327 . S
C490 C478 1.349 . S
C490 H484 0.950 . S
C490 C491 1.327 . S
C491 H485 0.950 . S
C491 C490 1.327 . S
C491 C495 1.429 . S
C492 C475 1.574 . S
C492 H486 0.949 . S
C492 C496 1.368 . S
C493 C474 1.429 . S
C493 C487 1.429 . S
C493 C494 1.523 . S
C494 C475 1.368 . S
C494 C488 1.368 . S
C494 C493 1.523 . S
C495 C479 1.429 . S
C495 C491 1.429 . S
C495 C496 1.523 . S
C496 C480 1.368 . S
C496 C492 1.368 . S
C496 C495 1.523 . S
H497 C472 0.950 . S
H498 C474 0.950 . S
H499 C475 0.949 . S
H500 C477 0.950 . S
H501 C479 0.950 . S
C502 C503 1.349 . S
C502 C504 1.327 . S
C502 H527 0.950 . S
C503 C502 1.349 . S
C503 C519 1.349 . S
C504 C502 1.327 . S
C504 C523 1.429 . S
C504 H528 0.950 . S
C505 C522 1.574 1_545 S
C505 C524 1.368 . S
C505 H529 0.949 . S
H506 C510 0.949 . S
C507 C508 1.349 . S
C507 C509 1.327 . S
C507 H530 0.950 . S
C508 C507 1.349 . S
C508 C520 1.349 . S
C509 C507 1.327 . S
C509 C525 1.429 . S
C509 H531 0.950 . S
C510 H506 0.949 . S
C510 C518 1.574 1_565 S
C510 C526 1.368 . S
H511 C519 0.950 . S
H512 C517 0.950 . S
H513 C518 0.949 . S
H514 C520 0.950 . S
H515 C521 0.950 . S
H516 C522 0.949 . S
C517 H512 0.950 . S
C517 C519 1.327 . S
C517 C523 1.429 . S
C518 C510 1.574 1_545 S
C518 H513 0.949 . S
C518 C524 1.368 . S
C519 C503 1.349 . S
C519 H511 0.950 . S
C519 C517 1.327 . S
C520 C508 1.349 . S
C520 H514 0.950 . S
C520 C521 1.327 . S
C521 H515 0.950 . S
C521 C520 1.327 . S
C521 C525 1.429 . S
C522 C505 1.574 1_565 S
C522 H516 0.949 . S
C522 C526 1.368 . S
C523 C504 1.429 . S
C523 C517 1.429 . S
C523 C524 1.523 . S
C524 C505 1.368 . S
C524 C518 1.368 . S
C524 C523 1.523 . S
C525 C509 1.429 . S
C525 C521 1.429 . S
C525 C526 1.523 . S
C526 C510 1.368 . S
C526 C522 1.368 . S
C526 C525 1.523 . S
H527 C502 0.950 . S
H528 C504 0.950 . S
H529 C505 0.949 . S
H530 C507 0.950 . S
H531 C509 0.950 . S
C532 C533 1.349 . S
C532 C534 1.327 . S
C532 H557 0.950 . S
C533 C532 1.349 . S
C533 C549 1.349 . S
C534 C532 1.327 . S
C534 C553 1.429 . S
C534 H558 0.950 . S
C535 C552 1.574 . S
C535 C554 1.368 . S
C535 H559 0.949 . S
H536 C540 0.949 . S
C537 C538 1.349 . S
C537 C539 1.327 . S
C537 H560 0.950 . S
C538 C537 1.349 . S
C538 C550 1.349 . S
C539 C537 1.327 . S
C539 C555 1.429 . S
C539 H561 0.950 . S
C540 H536 0.949 . S
C540 C548 1.574 . S
C540 C556 1.368 . S
H541 C549 0.950 . S
H542 C547 0.950 . S
H543 C548 0.949 . S
H544 C550 0.950 . S
H545 C551 0.950 . S
H546 C552 0.949 . S
C547 H542 0.950 . S
C547 C549 1.327 . S
C547 C553 1.429 . S
C548 C540 1.574 . S
C548 H543 0.949 . S
C548 C554 1.368 . S
C549 C533 1.349 . S
C549 H541 0.950 . S
C549 C547 1.327 . S
C550 C538 1.349 . S
C550 H544 0.950 . S
C550 C551 1.327 . S
C551 H545 0.950 . S
C551 C550 1.327 . S
C551 C555 1.429 . S
C552 C535 1.574 . S
C552 H546 0.949 . S
C552 C556 1.368 . S
C553 C534 1.429 . S
C553 C547 1.429 . S
C553 C554 1.523 . S
C554 C535 1.368 . S
C554 C548 1.368 . S
C554 C553 1.523 . S
C555 C539 1.429 . S
C555 C551 1.429 . S
C555 C556 1.523 . S
C556 C540 1.368 . S
C556 C552 1.368 . S
C556 C555 1.523 . S
H557 C532 0.950 . S
H558 C534 0.950 . S
H559 C535 0.949 . S
H560 C537 0.950 . S
H561 C539 0.950 . S
C562 C563 1.349 . S
C562 C564 1.327 . S
C562 H587 0.950 . S
C563 C562 1.349 . S
C563 C579 1.349 . S
C564 C562 1.327 . S
C564 C583 1.429 . S
C564 H588 0.950 . S
C565 C582 1.574 1_565 S
C565 C584 1.368 . S
C565 H589 0.949 . S
H566 C570 0.949 . S
C567 C568 1.349 . S
C567 C569 1.327 . S
C567 H590 0.950 . S
C568 C567 1.349 . S
C568 C580 1.349 . S
C569 C567 1.327 . S
C569 C585 1.429 . S
C569 H591 0.950 . S
C570 H566 0.949 . S
C570 C578 1.574 1_545 S
C570 C586 1.368 . S
H571 C579 0.950 . S
H572 C577 0.950 . S
H573 C578 0.949 . S
H574 C580 0.950 . S
H575 C581 0.950 . S
H576 C582 0.949 . S
C577 H572 0.950 . S
C577 C579 1.327 . S
C577 C583 1.429 . S
C578 C570 1.574 1_565 S
C578 H573 0.949 . S
C578 C584 1.368 . S
C579 C563 1.349 . S
C579 H571 0.950 . S
C579 C577 1.327 . S
C580 C568 1.349 . S
C580 H574 0.950 . S
C580 C581 1.327 . S
C581 H575 0.950 . S
C581 C580 1.327 . S
C581 C585 1.429 . S
C582 C565 1.574 1_545 S
C582 H576 0.949 . S
C582 C586 1.368 . S
C583 C564 1.429 . S
C583 C577 1.429 . S
C583 C584 1.523 . S
C584 C565 1.368 . S
C584 C578 1.368 . S
C584 C583 1.523 . S
C585 C569 1.429 . S
C585 C581 1.429 . S
C585 C586 1.523 . S
C586 C570 1.368 . S
C586 C582 1.368 . S
C586 C585 1.523 . S
H587 C562 0.950 . S
H588 C564 0.950 . S
H589 C565 0.949 . S
H590 C567 0.950 . S
H591 C569 0.950 . S
C113 C13 1.239 . S
C118 C27 1.239 . S
C143 C55 1.239 . S
C148 C41 1.239 . S
C173 C69 1.239 . S
C178 C83 1.239 . S
C203 C97 1.239 . S
C208 C111 1.239 . S
C233 C11 1.553 . S
C238 C39 1.553 . S
C263 C53 1.553 . S
C268 C25 1.553 . S
C293 C67 1.553 . S
C298 C95 1.553 . S
C323 C109 1.553 . S
C328 C81 1.553 . S
C353 C7 1.307 . S
C358 C63 1.307 . S
C383 C21 1.307 . S
C388 C77 1.307 . S
C413 C91 1.307 . S
C418 C35 1.307 . S
C443 C105 1.307 . S
C448 C49 1.307 . S
C473 C22 0.722 . S
C478 C8 0.722 . S
C503 C36 0.722 . S
C508 C50 0.722 . S
C533 C64 0.722 . S
C538 C78 0.722 . S
C563 C92 0.722 . S
C568 C106 0.722 . S
