# Generated by pormake.
# Topology unl, (4)-cn, num edge types: 1
# Building blocks:
#     Node 0, Type 0, BuildingBlock: QUQFOY_clean_sbu_1, # of connection points: 4
#     Node 1, Type 0, BuildingBlock: QUQFOY_clean_sbu_1, # of connection points: 4
#     Node 2, Type 0, BuildingBlock: QUQFOY_clean_sbu_1, # of connection points: 4
#     Node 3, Type 0, BuildingBlock: QUQFOY_clean_sbu_1, # of connection points: 4
#     Node 4, Type 0, BuildingBlock: QUQFOY_clean_sbu_1, # of connection points: 4
#     Node 5, Type 0, BuildingBlock: QUQFOY_clean_sbu_1, # of connection points: 4
#     Node 6, Type 0, BuildingBlock: QUQFOY_clean_sbu_1, # of connection points: 4
#     Node 7, Type 0, BuildingBlock: QUQFOY_clean_sbu_1, # of connection points: 4
#     Node 8, Type 0, BuildingBlock: QUQFOY_clean_sbu_1, # of connection points: 4
#     Node 9, Type 0, BuildingBlock: QUQFOY_clean_sbu_1, # of connection points: 4
#     Node 10, Type 0, BuildingBlock: QUQFOY_clean_sbu_1, # of connection points: 4
#     Node 11, Type 0, BuildingBlock: QUQFOY_clean_sbu_1, # of connection points: 4
#     Node 12, Type 0, BuildingBlock: QUQFOY_clean_sbu_1, # of connection points: 4
#     Node 13, Type 0, BuildingBlock: QUQFOY_clean_sbu_1, # of connection points: 4
#     Node 14, Type 0, BuildingBlock: QUQFOY_clean_sbu_1, # of connection points: 4
#     Node 15, Type 0, BuildingBlock: QUQFOY_clean_sbu_1, # of connection points: 4
#     Node 16, Type 0, BuildingBlock: QUQFOY_clean_sbu_1, # of connection points: 4
#     Node 17, Type 0, BuildingBlock: QUQFOY_clean_sbu_1, # of connection points: 4
#     Node 18, Type 0, BuildingBlock: QUQFOY_clean_sbu_1, # of connection points: 4
#     Node 19, Type 0, BuildingBlock: QUQFOY_clean_sbu_1, # of connection points: 4
#     Node 20, Type 0, BuildingBlock: QUQFOY_clean_sbu_1, # of connection points: 4
#     Node 21, Type 0, BuildingBlock: QUQFOY_clean_sbu_1, # of connection points: 4
#     Node 22, Type 0, BuildingBlock: QUQFOY_clean_sbu_1, # of connection points: 4
#     Node 23, Type 0, BuildingBlock: QUQFOY_clean_sbu_1, # of connection points: 4
#     Node 24, Type 0, BuildingBlock: QUQFOY_clean_sbu_1, # of connection points: 4
#     Node 25, Type 0, BuildingBlock: QUQFOY_clean_sbu_1, # of connection points: 4
#     Node 26, Type 0, BuildingBlock: QUQFOY_clean_sbu_1, # of connection points: 4
#     Node 27, Type 0, BuildingBlock: QUQFOY_clean_sbu_1, # of connection points: 4
#     Node 28, Type 0, BuildingBlock: QUQFOY_clean_sbu_1, # of connection points: 4
#     Node 29, Type 0, BuildingBlock: QUQFOY_clean_sbu_1, # of connection points: 4
#     Node 30, Type 0, BuildingBlock: QUQFOY_clean_sbu_1, # of connection points: 4
#     Node 31, Type 0, BuildingBlock: QUQFOY_clean_sbu_1, # of connection points: 4
#     Node 32, Type 0, BuildingBlock: QUQFOY_clean_sbu_1, # of connection points: 4
#     Node 33, Type 0, BuildingBlock: QUQFOY_clean_sbu_1, # of connection points: 4
#     Node 34, Type 0, BuildingBlock: QUQFOY_clean_sbu_1, # of connection points: 4
#     Node 35, Type 0, BuildingBlock: QUQFOY_clean_sbu_1, # of connection points: 4
#     Edge 36, Type (0, 0), BuildingBlock: UVAHIK_clean_linker_0, # of connection points: 2
#     Edge 37, Type (0, 0), BuildingBlock: UVAHIK_clean_linker_0, # of connection points: 2
#     Edge 38, Type (0, 0), BuildingBlock: UVAHIK_clean_linker_0, # of connection points: 2
#     Edge 39, Type (0, 0), BuildingBlock: UVAHIK_clean_linker_0, # of connection points: 2
#     Edge 40, Type (0, 0), BuildingBlock: UVAHIK_clean_linker_0, # of connection points: 2
#     Edge 41, Type (0, 0), BuildingBlock: UVAHIK_clean_linker_0, # of connection points: 2
#     Edge 42, Type (0, 0), BuildingBlock: UVAHIK_clean_linker_0, # of connection points: 2
#     Edge 43, Type (0, 0), BuildingBlock: UVAHIK_clean_linker_0, # of connection points: 2
#     Edge 44, Type (0, 0), BuildingBlock: UVAHIK_clean_linker_0, # of connection points: 2
#     Edge 45, Type (0, 0), BuildingBlock: UVAHIK_clean_linker_0, # of connection points: 2
#     Edge 46, Type (0, 0), BuildingBlock: UVAHIK_clean_linker_0, # of connection points: 2
#     Edge 47, Type (0, 0), BuildingBlock: UVAHIK_clean_linker_0, # of connection points: 2
#     Edge 48, Type (0, 0), BuildingBlock: UVAHIK_clean_linker_0, # of connection points: 2
#     Edge 49, Type (0, 0), BuildingBlock: UVAHIK_clean_linker_0, # of connection points: 2
#     Edge 50, Type (0, 0), BuildingBlock: UVAHIK_clean_linker_0, # of connection points: 2
#     Edge 51, Type (0, 0), BuildingBlock: UVAHIK_clean_linker_0, # of connection points: 2
#     Edge 52, Type (0, 0), BuildingBlock: UVAHIK_clean_linker_0, # of connection points: 2
#     Edge 53, Type (0, 0), BuildingBlock: UVAHIK_clean_linker_0, # of connection points: 2
#     Edge 54, Type (0, 0), BuildingBlock: UVAHIK_clean_linker_0, # of connection points: 2
#     Edge 55, Type (0, 0), BuildingBlock: UVAHIK_clean_linker_0, # of connection points: 2
#     Edge 56, Type (0, 0), BuildingBlock: UVAHIK_clean_linker_0, # of connection points: 2
#     Edge 57, Type (0, 0), BuildingBlock: UVAHIK_clean_linker_0, # of connection points: 2
#     Edge 58, Type (0, 0), BuildingBlock: UVAHIK_clean_linker_0, # of connection points: 2
#     Edge 59, Type (0, 0), BuildingBlock: UVAHIK_clean_linker_0, # of connection points: 2
#     Edge 60, Type (0, 0), BuildingBlock: UVAHIK_clean_linker_0, # of connection points: 2
#     Edge 61, Type (0, 0), BuildingBlock: UVAHIK_clean_linker_0, # of connection points: 2
#     Edge 62, Type (0, 0), BuildingBlock: UVAHIK_clean_linker_0, # of connection points: 2
#     Edge 63, Type (0, 0), BuildingBlock: UVAHIK_clean_linker_0, # of connection points: 2
#     Edge 64, Type (0, 0), BuildingBlock: UVAHIK_clean_linker_0, # of connection points: 2
#     Edge 65, Type (0, 0), BuildingBlock: UVAHIK_clean_linker_0, # of connection points: 2
#     Edge 66, Type (0, 0), BuildingBlock: UVAHIK_clean_linker_0, # of connection points: 2
#     Edge 67, Type (0, 0), BuildingBlock: UVAHIK_clean_linker_0, # of connection points: 2
#     Edge 68, Type (0, 0), BuildingBlock: UVAHIK_clean_linker_0, # of connection points: 2
#     Edge 69, Type (0, 0), BuildingBlock: UVAHIK_clean_linker_0, # of connection points: 2
#     Edge 70, Type (0, 0), BuildingBlock: UVAHIK_clean_linker_0, # of connection points: 2
#     Edge 71, Type (0, 0), BuildingBlock: UVAHIK_clean_linker_0, # of connection points: 2
#     Edge 72, Type (0, 0), BuildingBlock: UVAHIK_clean_linker_0, # of connection points: 2
#     Edge 73, Type (0, 0), BuildingBlock: UVAHIK_clean_linker_0, # of connection points: 2
#     Edge 74, Type (0, 0), BuildingBlock: UVAHIK_clean_linker_0, # of connection points: 2
#     Edge 75, Type (0, 0), BuildingBlock: UVAHIK_clean_linker_0, # of connection points: 2
#     Edge 76, Type (0, 0), BuildingBlock: UVAHIK_clean_linker_0, # of connection points: 2
#     Edge 77, Type (0, 0), BuildingBlock: UVAHIK_clean_linker_0, # of connection points: 2
#     Edge 78, Type (0, 0), BuildingBlock: UVAHIK_clean_linker_0, # of connection points: 2
#     Edge 79, Type (0, 0), BuildingBlock: UVAHIK_clean_linker_0, # of connection points: 2
#     Edge 80, Type (0, 0), BuildingBlock: UVAHIK_clean_linker_0, # of connection points: 2
#     Edge 81, Type (0, 0), BuildingBlock: UVAHIK_clean_linker_0, # of connection points: 2
#     Edge 82, Type (0, 0), BuildingBlock: UVAHIK_clean_linker_0, # of connection points: 2
#     Edge 83, Type (0, 0), BuildingBlock: UVAHIK_clean_linker_0, # of connection points: 2
#     Edge 84, Type (0, 0), BuildingBlock: UVAHIK_clean_linker_0, # of connection points: 2
#     Edge 85, Type (0, 0), BuildingBlock: UVAHIK_clean_linker_0, # of connection points: 2
#     Edge 86, Type (0, 0), BuildingBlock: UVAHIK_clean_linker_0, # of connection points: 2
#     Edge 87, Type (0, 0), BuildingBlock: UVAHIK_clean_linker_0, # of connection points: 2
#     Edge 88, Type (0, 0), BuildingBlock: UVAHIK_clean_linker_0, # of connection points: 2
#     Edge 89, Type (0, 0), BuildingBlock: UVAHIK_clean_linker_0, # of connection points: 2
#     Edge 90, Type (0, 0), BuildingBlock: UVAHIK_clean_linker_0, # of connection points: 2
#     Edge 91, Type (0, 0), BuildingBlock: UVAHIK_clean_linker_0, # of connection points: 2
#     Edge 92, Type (0, 0), BuildingBlock: UVAHIK_clean_linker_0, # of connection points: 2
#     Edge 93, Type (0, 0), BuildingBlock: UVAHIK_clean_linker_0, # of connection points: 2
#     Edge 94, Type (0, 0), BuildingBlock: UVAHIK_clean_linker_0, # of connection points: 2
#     Edge 95, Type (0, 0), BuildingBlock: UVAHIK_clean_linker_0, # of connection points: 2
#     Edge 96, Type (0, 0), BuildingBlock: UVAHIK_clean_linker_0, # of connection points: 2
#     Edge 97, Type (0, 0), BuildingBlock: UVAHIK_clean_linker_0, # of connection points: 2
#     Edge 98, Type (0, 0), BuildingBlock: UVAHIK_clean_linker_0, # of connection points: 2
#     Edge 99, Type (0, 0), BuildingBlock: UVAHIK_clean_linker_0, # of connection points: 2
#     Edge 100, Type (0, 0), BuildingBlock: UVAHIK_clean_linker_0, # of connection points: 2
#     Edge 101, Type (0, 0), BuildingBlock: UVAHIK_clean_linker_0, # of connection points: 2
#     Edge 102, Type (0, 0), BuildingBlock: UVAHIK_clean_linker_0, # of connection points: 2
#     Edge 103, Type (0, 0), BuildingBlock: UVAHIK_clean_linker_0, # of connection points: 2
#     Edge 104, Type (0, 0), BuildingBlock: UVAHIK_clean_linker_0, # of connection points: 2
#     Edge 105, Type (0, 0), BuildingBlock: UVAHIK_clean_linker_0, # of connection points: 2
#     Edge 106, Type (0, 0), BuildingBlock: UVAHIK_clean_linker_0, # of connection points: 2
#     Edge 107, Type (0, 0), BuildingBlock: UVAHIK_clean_linker_0, # of connection points: 2
# Relax obj value: 0.012
# Max RMSD: 0.071
# Mean RMSD: 0.071
data_MOF--net-unl--node1-QUQFOY_clean_sbu_1--edge1-UVAHIK_clean_linker_0
_symmetry_space_group_name_H-M    P1
_symmetry_Int_Tables_number       1
_symmetry_cell_setting            triclinic
loop_
_symmetry_equiv_pos_as_xyz
'x, y, z'
_cell_length_a     89.013978
_cell_length_b     89.00083
_cell_length_c     52.69836
_cell_angle_alpha  89.975971
_cell_angle_beta   90.008954
_cell_angle_gamma 120.01483
loop_
_atom_site_label
_atom_site_type_symbol
_atom_site_fract_x
_atom_site_fract_y
_atom_site_fract_z
_atom_type_partial_charge
O0 O 0.22161 0.15832 0.13379 0.0
Cd1 Cd 0.23435 0.15643 0.10249 0.0
Cd2 Cd 0.2052 0.12483 0.09893 0.0
O3 O 0.19956 0.1315 0.13395 0.0
O4 O 0.25945 0.17316 0.10851 0.0
O5 O 0.24851 0.14471 0.10693 0.0
C6 C 0.26172 0.15999 0.11081 0.0
C7 C 0.19918 0.09644 0.09074 0.0
C8 C 0.20778 0.14649 0.14398 0.0
C9 C 0.21219 0.15158 0.05774 0.0
O10 O 0.202 0.13689 0.06762 0.0
O11 O 0.22682 0.16167 0.0679 0.0
O12 O 0.187 0.10008 0.09389 0.0
O13 O 0.215 0.10888 0.09341 0.0
O14 O 0.8522 0.06254 0.13379 0.0
Cd15 Cd 0.85533 0.07842 0.10335 0.0
Cd16 Cd 0.88669 0.08197 0.10337 0.0
O17 O 0.87993 0.0714 0.13944 0.0
O18 O 0.8387 0.08704 0.10847 0.0
O19 O 0.86724 0.1041 0.10969 0.0
C20 C 0.85195 0.10225 0.11231 0.0
C21 C 0.9145 0.10522 0.09452 0.0
C22 C 0.86424 0.0625 0.14671 0.0
C23 C 0.86182 0.06116 0.06095 0.0
O24 O 0.87543 0.06481 0.07353 0.0
O25 O 0.85213 0.06711 0.06795 0.0
O26 O 0.9119 0.08996 0.09973 0.0
O27 O 0.90131 0.10757 0.0954 0.0
O28 O 0.94452 0.79015 0.13605 0.0
Cd29 Cd 0.92959 0.77806 0.10451 0.0
Cd30 Cd 0.92732 0.80689 0.10366 0.0
O31 O 0.93826 0.8111 0.13941 0.0
O32 O 0.92109 0.7528 0.10927 0.0
O33 O 0.90375 0.76394 0.10948 0.0
C34 C 0.90573 0.7506 0.11236 0.0
C35 C 0.90446 0.81199 0.09473 0.0
C36 C 0.9457 0.80312 0.14797 0.0
C37 C 0.94795 0.80188 0.062 0.0
O38 O 0.94416 0.812 0.07378 0.0
O39 O 0.94199 0.78635 0.06966 0.0
O40 O 0.91989 0.82449 0.0995 0.0
O41 O 0.90172 0.79632 0.09613 0.0
O42 O 0.15829 0.21734 0.3653 0.0
Cd43 Cd 0.15586 0.22915 0.3975 0.0
Cd44 Cd 0.12471 0.20042 0.39856 0.0
O45 O 0.13103 0.19642 0.36241 0.0
O46 O 0.17272 0.25442 0.39312 0.0
O47 O 0.14426 0.24345 0.39355 0.0
C48 C 0.1596 0.25674 0.3906 0.0
C49 C 0.09714 0.19613 0.40817 0.0
C50 C 0.14633 0.20449 0.35341 0.0
C51 C 0.15057 0.20494 0.4395 0.0
O52 O 0.13653 0.19492 0.42791 0.0
O53 O 0.16014 0.2205 0.43193 0.0
O54 O 0.09955 0.18334 0.40301 0.0
O55 O 0.11037 0.21162 0.40685 0.0
O56 O 0.79107 0.94527 0.36993 0.0
Cd57 Cd 0.77766 0.92957 0.40002 0.0
Cd58 Cd 0.80523 0.92508 0.40215 0.0
O59 O 0.81059 0.93702 0.36678 0.0
O60 O 0.75254 0.92098 0.39378 0.0
O61 O 0.76396 0.90386 0.39399 0.0
C62 C 0.7506 0.90572 0.39052 0.0
C63 C 0.81002 0.90184 0.40992 0.0
C64 C 0.80383 0.94572 0.35844 0.0
C65 C 0.80006 0.94543 0.44448 0.0
O66 O 0.80985 0.94084 0.43348 0.0
O67 O 0.78522 0.94109 0.43529 0.0
O68 O 0.82264 0.91737 0.40621 0.0
O69 O 0.79442 0.89922 0.40811 0.0
O70 O 0.06793 0.85115 0.36653 0.0
Cd71 Cd 0.082 0.85291 0.39845 0.0
Cd72 Cd 0.0848 0.88459 0.40151 0.0
O73 O 0.07299 0.87807 0.36616 0.0
O74 O 0.09029 0.83606 0.39311 0.0
O75 O 0.10792 0.86449 0.39474 0.0
C76 C 0.10579 0.84917 0.39107 0.0
C77 C 0.10762 0.91275 0.40965 0.0
C78 C 0.06626 0.8631 0.35606 0.0
C79 C 0.0643 0.85804 0.44249 0.0
O80 O 0.06908 0.87276 0.4325 0.0
O81 O 0.06882 0.84784 0.43267 0.0
O82 O 0.09196 0.90952 0.40615 0.0
O83 O 0.11058 0.9 0.40747 0.0
O84 O 0.79235 0.85157 0.86615 0.0
Cd85 Cd 0.78006 0.85392 0.89765 0.0
Cd86 Cd 0.80857 0.8855 0.89973 0.0
O87 O 0.81371 0.8787 0.86447 0.0
O88 O 0.75486 0.83697 0.89275 0.0
O89 O 0.76573 0.86542 0.89312 0.0
C90 C 0.7525 0.85006 0.89004 0.0
C91 C 0.81171 0.91284 0.9071 0.0
C92 C 0.80573 0.86348 0.85514 0.0
C93 C 0.80334 0.85994 0.94156 0.0
O94 O 0.81331 0.87444 0.93094 0.0
O95 O 0.78845 0.8497 0.93224 0.0
O96 O 0.82495 0.91097 0.90298 0.0
O97 O 0.79647 0.8992 0.90607 0.0
O98 O 0.15657 0.94144 0.8647 0.0
Cd99 Cd 0.15464 0.92755 0.89693 0.0
Cd100 Cd 0.12299 0.92433 0.89911 0.0
O101 O 0.12942 0.93559 0.86335 0.0
O102 O 0.17176 0.91948 0.89241 0.0
O103 O 0.14336 0.90166 0.89341 0.0
C104 C 0.15877 0.90392 0.89022 0.0
C105 C 0.09596 0.89991 0.90734 0.0
C106 C 0.14452 0.94261 0.85364 0.0
C107 C 0.1488 0.94556 0.9401 0.0
O108 O 0.13421 0.94076 0.92963 0.0
O109 O 0.15901 0.9408 0.931 0.0
O110 O 0.09746 0.91481 0.90264 0.0
O111 O 0.10978 0.89863 0.90647 0.0
O112 O 0.06689 0.21814 0.86798 0.0
Cd113 Cd 0.08147 0.23083 0.89933 0.0
Cd114 Cd 0.08457 0.20229 0.90248 0.0
O115 O 0.07232 0.19654 0.86741 0.0
O116 O 0.08983 0.25596 0.89356 0.0
O117 O 0.10733 0.24502 0.89492 0.0
C118 C 0.10527 0.25823 0.89119 0.0
C119 C 0.10798 0.19781 0.91013 0.0
C120 C 0.06523 0.20452 0.85756 0.0
C121 C 0.06433 0.2083 0.94385 0.0
O122 O 0.06907 0.19834 0.93381 0.0
O123 O 0.06873 0.22296 0.9339 0.0
O124 O 0.09243 0.18505 0.90703 0.0
O125 O 0.11047 0.21335 0.90787 0.0
O126 O 0.85262 0.78979 0.63538 0.0
Cd127 Cd 0.85391 0.77721 0.60346 0.0
Cd128 Cd 0.88557 0.80601 0.59938 0.0
O129 O 0.87953 0.81167 0.63483 0.0
O130 O 0.83714 0.75209 0.60932 0.0
O131 O 0.86554 0.76289 0.6069 0.0
C132 C 0.85028 0.74972 0.61101 0.0
C133 C 0.91352 0.81094 0.59077 0.0
C134 C 0.86472 0.80351 0.64541 0.0
C135 C 0.85856 0.79968 0.55906 0.0
O136 O 0.87343 0.80968 0.56856 0.0
O137 O 0.84845 0.78508 0.56932 0.0
O138 O 0.91051 0.82353 0.5941 0.0
O139 O 0.90067 0.79531 0.59332 0.0
O140 O 0.22007 0.06517 0.63549 0.0
Cd141 Cd 0.23258 0.07992 0.60416 0.0
Cd142 Cd 0.20422 0.08315 0.60173 0.0
O143 O 0.19878 0.07104 0.6369 0.0
O144 O 0.25776 0.0882 0.6094 0.0
O145 O 0.24685 0.10575 0.60887 0.0
C146 C 0.26008 0.10363 0.61214 0.0
C147 C 0.20133 0.10749 0.59422 0.0
C148 C 0.20664 0.06369 0.64631 0.0
C149 C 0.20952 0.06285 0.56 0.0
O150 O 0.19955 0.06741 0.57051 0.0
O151 O 0.22435 0.06742 0.56947 0.0
O152 O 0.18799 0.09242 0.59826 0.0
O153 O 0.21651 0.10898 0.59543 0.0
O154 O 0.94486 0.15645 0.63735 0.0
Cd155 Cd 0.93086 0.155 0.60548 0.0
Cd156 Cd 0.92795 0.12327 0.60181 0.0
O157 O 0.93983 0.12954 0.63714 0.0
O158 O 0.92255 0.1718 0.61119 0.0
O159 O 0.90493 0.14339 0.60908 0.0
C160 C 0.90705 0.15867 0.61302 0.0
C161 C 0.90494 0.09524 0.59361 0.0
C162 C 0.94652 0.14442 0.64753 0.0
C163 C 0.94841 0.15004 0.56105 0.0
O164 O 0.94356 0.13522 0.57075 0.0
O165 O 0.94404 0.16025 0.57123 0.0
O166 O 0.92057 0.09832 0.59681 0.0
O167 O 0.90213 0.10807 0.59609 0.0
O168 O 0.88599 0.4889 0.46991 0.0
Cd169 Cd 0.89851 0.48762 0.43791 0.0
Cd170 Cd 0.86984 0.45589 0.4342 0.0
O171 O 0.86428 0.4619 0.46976 0.0
O172 O 0.9236 0.50456 0.4436 0.0
O173 O 0.913 0.47618 0.44132 0.0
C174 C 0.92609 0.4915 0.44534 0.0
C175 C 0.86531 0.4281 0.4254 0.0
C176 C 0.8724 0.47677 0.48017 0.0
C177 C 0.87577 0.48273 0.3938 0.0
O178 O 0.86586 0.46789 0.40349 0.0
O179 O 0.89044 0.49291 0.40381 0.0
O180 O 0.85258 0.43086 0.429 0.0
O181 O 0.88086 0.44111 0.42783 0.0
O182 O 0.52043 0.39935 0.46924 0.0
Cd183 Cd 0.52263 0.41393 0.43772 0.0
Cd184 Cd 0.55438 0.41754 0.43587 0.0
O185 O 0.54771 0.40568 0.47123 0.0
O186 O 0.50553 0.422 0.44258 0.0
O187 O 0.53395 0.43976 0.44226 0.0
C188 C 0.51855 0.4375 0.44533 0.0
C189 C 0.58145 0.44205 0.42814 0.0
C190 C 0.53244 0.39815 0.4804 0.0
C191 C 0.52902 0.39678 0.39409 0.0
O192 O 0.54351 0.4015 0.40487 0.0
O193 O 0.51864 0.40133 0.40316 0.0
O194 O 0.57993 0.42711 0.43258 0.0
O195 O 0.56763 0.44332 0.4291 0.0
O196 O 0.61159 0.12397 0.46768 0.0
Cd197 Cd 0.59683 0.11105 0.43656 0.0
Cd198 Cd 0.59407 0.13979 0.43297 0.0
O199 O 0.60672 0.14594 0.46775 0.0
O200 O 0.58861 0.08598 0.44267 0.0
O201 O 0.57098 0.09677 0.44121 0.0
C202 C 0.57314 0.08362 0.44506 0.0
C203 C 0.57021 0.14359 0.4256 0.0
C204 C 0.61362 0.13784 0.47775 0.0
C205 C 0.61378 0.13314 0.39154 0.0
O206 O 0.60918 0.14326 0.40137 0.0
O207 O 0.60941 0.11858 0.40184 0.0
O208 O 0.58571 0.15661 0.42788 0.0
O209 O 0.56808 0.12823 0.42856 0.0
O210 O 0.82553 0.55106 0.69958 0.0
Cd211 Cd 0.82354 0.5639 0.73069 0.0
Cd212 Cd 0.79189 0.53533 0.73387 0.0
O213 O 0.7985 0.52945 0.69897 0.0
O214 O 0.84024 0.58903 0.72474 0.0
O215 O 0.81176 0.57797 0.72594 0.0
C216 C 0.82703 0.59122 0.72222 0.0
C217 C 0.76391 0.53068 0.74135 0.0
C218 C 0.81359 0.53738 0.68923 0.0
C219 C 0.81806 0.54161 0.77552 0.0
O220 O 0.80341 0.53158 0.7654 0.0
O221 O 0.82835 0.55623 0.76549 0.0
O222 O 0.76681 0.51798 0.73842 0.0
O223 O 0.77689 0.54624 0.73896 0.0
O224 O 0.45904 0.27609 0.69864 0.0
Cd225 Cd 0.4465 0.26211 0.73054 0.0
Cd226 Cd 0.47518 0.25917 0.73423 0.0
O227 O 0.48079 0.27087 0.69876 0.0
O228 O 0.42138 0.25378 0.72483 0.0
O229 O 0.43218 0.23618 0.72695 0.0
C230 C 0.41901 0.23828 0.723 0.0
C231 C 0.4797 0.2359 0.743 0.0
C232 C 0.47267 0.27765 0.6884 0.0
C233 C 0.46913 0.27987 0.77477 0.0
O234 O 0.4791 0.27505 0.76502 0.0
O235 O 0.45446 0.27534 0.76475 0.0
O236 O 0.49244 0.25141 0.73943 0.0
O237 O 0.46416 0.23336 0.74051 0.0
O238 O 0.73431 0.18525 0.69739 0.0
Cd239 Cd 0.74812 0.18654 0.72942 0.0
Cd240 Cd 0.75112 0.21828 0.73318 0.0
O241 O 0.73959 0.21224 0.6976 0.0
O242 O 0.75643 0.16974 0.72377 0.0
O243 O 0.77406 0.19814 0.72613 0.0
C244 C 0.77196 0.18287 0.72214 0.0
C245 C 0.77407 0.24624 0.742 0.0
C246 C 0.73285 0.19738 0.68715 0.0
C247 C 0.73025 0.19135 0.77355 0.0
O248 O 0.73516 0.20619 0.76388 0.0
O249 O 0.73475 0.18119 0.76351 0.0
O250 O 0.75848 0.24321 0.73837 0.0
O251 O 0.77688 0.23342 0.73959 0.0
O252 O 0.46018 0.18501 0.2016 0.0
Cd253 Cd 0.44724 0.18709 0.23253 0.0
Cd254 Cd 0.47681 0.218 0.23701 0.0
O255 O 0.48265 0.21157 0.20199 0.0
O256 O 0.42218 0.17045 0.22592 0.0
O257 O 0.43316 0.19889 0.22758 0.0
C258 C 0.41997 0.18365 0.22351 0.0
C259 C 0.48229 0.24617 0.24533 0.0
C260 C 0.47425 0.19667 0.19174 0.0
C261 C 0.46873 0.19089 0.27783 0.0
O262 O 0.47952 0.20546 0.26818 0.0
O263 O 0.45403 0.18144 0.26741 0.0
O264 O 0.49468 0.24279 0.24258 0.0
O265 O 0.46658 0.23357 0.24232 0.0
O266 O 0.82562 0.27508 0.19839 0.0
Cd267 Cd 0.82424 0.26105 0.23021 0.0
Cd268 Cd 0.79243 0.25793 0.23401 0.0
O269 O 0.79864 0.2698 0.19866 0.0
O270 O 0.84104 0.25273 0.22449 0.0
O271 O 0.81262 0.23512 0.22657 0.0
C272 C 0.8279 0.23722 0.22266 0.0
C273 C 0.76435 0.23501 0.24234 0.0
C274 C 0.81351 0.27663 0.18826 0.0
C275 C 0.81922 0.27855 0.27465 0.0
O276 O 0.80438 0.27362 0.26499 0.0
O277 O 0.82946 0.27421 0.26447 0.0
O278 O 0.7675 0.25066 0.239 0.0
O279 O 0.77713 0.23212 0.23995 0.0
O280 O 0.73387 0.55144 0.19809 0.0
Cd281 Cd 0.74809 0.56339 0.23024 0.0
Cd282 Cd 0.75046 0.53458 0.23168 0.0
O283 O 0.74016 0.53047 0.1955 0.0
O284 O 0.75641 0.58862 0.22559 0.0
O285 O 0.77399 0.57776 0.2262 0.0
C286 C 0.77188 0.591 0.22309 0.0
C287 C 0.77353 0.53 0.24153 0.0
C288 C 0.73295 0.53853 0.18635 0.0
C289 C 0.72914 0.53935 0.27241 0.0
O290 O 0.73315 0.52927 0.26097 0.0
O291 O 0.73515 0.55488 0.26469 0.0
O292 O 0.75826 0.51731 0.23639 0.0
O293 O 0.77598 0.54555 0.24004 0.0
O294 O 0.52004 0.12292 0.97105 0.0
Cd295 Cd 0.52107 0.11026 0.93904 0.0
Cd296 Cd 0.55293 0.13885 0.93499 0.0
O297 O 0.54712 0.14447 0.97065 0.0
O298 O 0.5041 0.0852 0.94492 0.0
O299 O 0.53245 0.09572 0.94229 0.0
C300 C 0.51713 0.08265 0.94646 0.0
C301 C 0.58079 0.14369 0.9258 0.0
C302 C 0.53229 0.13647 0.98121 0.0
C303 C 0.52591 0.13289 0.89484 0.0
O304 O 0.5408 0.14276 0.9044 0.0
O305 O 0.5157 0.11828 0.90497 0.0
O306 O 0.57787 0.15631 0.92951 0.0
O307 O 0.56792 0.12808 0.92837 0.0
O308 O 0.88583 0.39851 0.96903 0.0
Cd309 Cd 0.89842 0.41322 0.9377 0.0
Cd310 Cd 0.86951 0.4158 0.93476 0.0
O311 O 0.86397 0.40354 0.96984 0.0
O312 O 0.92354 0.42152 0.94336 0.0
O313 O 0.91266 0.43909 0.94225 0.0
C314 C 0.92586 0.43697 0.94584 0.0
C315 C 0.8646 0.43891 0.92687 0.0
C316 C 0.87215 0.39662 0.97955 0.0
C317 C 0.87592 0.39592 0.89325 0.0
O318 O 0.86579 0.40037 0.90345 0.0
O319 O 0.89066 0.40055 0.90308 0.0
O320 O 0.852 0.4233 0.93012 0.0
O321 O 0.88022 0.44166 0.92923 0.0
O322 O 0.61181 0.49218 0.96623 0.0
Cd323 Cd 0.59704 0.49005 0.93498 0.0
Cd324 Cd 0.59429 0.45849 0.93194 0.0
O325 O 0.60671 0.46525 0.96689 0.0
O326 O 0.58844 0.50661 0.94079 0.0
O327 O 0.57118 0.4781 0.93965 0.0
C328 C 0.57308 0.49333 0.94332 0.0
C329 C 0.57127 0.43035 0.92428 0.0
C330 C 0.61369 0.48034 0.97664 0.0
C331 C 0.61407 0.48475 0.89031 0.0
O332 O 0.60954 0.47013 0.90046 0.0
O333 O 0.60962 0.49496 0.90027 0.0
O334 O 0.58694 0.4335 0.92739 0.0
O335 O 0.56843 0.44316 0.92666 0.0
O336 O 0.55269 0.82311 0.80303 0.0
Cd337 Cd 0.5656 0.82136 0.77184 0.0
Cd338 Cd 0.5369 0.7897 0.7682 0.0
O339 O 0.53105 0.79609 0.80328 0.0
O340 O 0.59068 0.83816 0.77791 0.0
O341 O 0.57983 0.80972 0.77636 0.0
C342 C 0.593 0.82502 0.78021 0.0
C343 C 0.53179 0.76161 0.76015 0.0
C344 C 0.53898 0.81112 0.81325 0.0
C345 C 0.54346 0.81628 0.727 0.0
O346 O 0.53336 0.80156 0.7369 0.0
O347 O 0.55806 0.82645 0.73717 0.0
O348 O 0.51927 0.76475 0.76325 0.0
O349 O 0.54745 0.77439 0.7627 0.0
O350 O 0.18777 0.73261 0.80581 0.0
Cd351 Cd 0.18921 0.74657 0.77389 0.0
Cd352 Cd 0.2209 0.7495 0.77031 0.0
O353 O 0.21473 0.73781 0.80578 0.0
O354 O 0.17226 0.7547 0.7795 0.0
O355 O 0.20064 0.77249 0.77746 0.0
C356 C 0.1853 0.77026 0.78134 0.0
C357 C 0.24882 0.77261 0.76173 0.0
C358 C 0.19983 0.73105 0.8161 0.0
C359 C 0.19416 0.72884 0.72969 0.0
O360 O 0.20895 0.73366 0.73947 0.0
O361 O 0.184 0.73335 0.73968 0.0
O362 O 0.24589 0.75705 0.76526 0.0
O363 O 0.23592 0.77531 0.76412 0.0
O364 O 0.27813 0.45669 0.80231 0.0
Cd365 Cd 0.26388 0.44394 0.77068 0.0
Cd366 Cd 0.26199 0.47318 0.76598 0.0
O367 O 0.27366 0.47891 0.80144 0.0
O368 O 0.25553 0.41887 0.77701 0.0
O369 O 0.23795 0.42968 0.77464 0.0
C370 C 0.24004 0.41653 0.77888 0.0
C371 C 0.23888 0.4779 0.75714 0.0
C372 C 0.28008 0.47059 0.81215 0.0
C373 C 0.28195 0.46589 0.72582 0.0
O374 O 0.27774 0.47642 0.73526 0.0
O375 O 0.27687 0.45121 0.73623 0.0
O376 O 0.25447 0.49058 0.7603 0.0
O377 O 0.23619 0.46232 0.75995 0.0
O378 O 0.49019 0.883 0.03305 0.0
Cd379 Cd 0.48896 0.89591 0.06468 0.0
Cd380 Cd 0.45798 0.86653 0.06994 0.0
O381 O 0.46372 0.86041 0.03462 0.0
O382 O 0.50582 0.92092 0.05803 0.0
O383 O 0.4775 0.91038 0.06091 0.0
C384 C 0.49277 0.92341 0.05642 0.0
C385 C 0.43055 0.86282 0.07876 0.0
C386 C 0.47833 0.86889 0.02357 0.0
C387 C 0.48549 0.87426 0.1098 0.0
O388 O 0.47066 0.86363 0.10072 0.0
O389 O 0.495 0.88883 0.09905 0.0
O390 O 0.43295 0.84976 0.07631 0.0
O391 O 0.44371 0.87815 0.07525 0.0
O392 O 0.12517 0.60921 0.03484 0.0
Cd393 Cd 0.11232 0.5945 0.06603 0.0
Cd394 Cd 0.14094 0.59141 0.06929 0.0
O395 O 0.14677 0.60378 0.03429 0.0
O396 O 0.08725 0.58632 0.06011 0.0
O397 O 0.098 0.56865 0.06142 0.0
C398 C 0.08486 0.57084 0.05768 0.0
C399 C 0.14586 0.5683 0.07718 0.0
C400 C 0.13884 0.61093 0.02449 0.0
C401 C 0.13466 0.61148 0.1107 0.0
O402 O 0.14467 0.6068 0.10064 0.0
O403 O 0.12003 0.6071 0.1007 0.0
O404 O 0.15845 0.58393 0.07404 0.0
O405 O 0.13024 0.56554 0.07472 0.0
O406 O 0.39974 0.51756 0.03378 0.0
Cd407 Cd 0.41442 0.51957 0.06508 0.0
Cd408 Cd 0.41724 0.55112 0.06819 0.0
O409 O 0.40509 0.54457 0.03304 0.0
O410 O 0.42297 0.50297 0.05926 0.0
O411 O 0.44029 0.53147 0.06054 0.0
C412 C 0.43835 0.51623 0.05682 0.0
C413 C 0.44036 0.57914 0.0762 0.0
C414 C 0.39803 0.52948 0.02328 0.0
C415 C 0.39723 0.52477 0.10962 0.0
O416 O 0.40176 0.53939 0.09946 0.0
O417 O 0.40178 0.51461 0.09974 0.0
O418 O 0.42475 0.57614 0.07289 0.0
O419 O 0.44309 0.56625 0.07383 0.0
O420 O 0.12517 0.51856 0.53238 0.0
Cd421 Cd 0.11251 0.51979 0.56424 0.0
Cd422 Cd 0.14124 0.55154 0.56818 0.0
O423 O 0.14688 0.54556 0.53266 0.0
O424 O 0.08744 0.50289 0.5583 0.0
O425 O 0.09806 0.53126 0.56068 0.0
C426 C 0.08497 0.51596 0.55655 0.0
C427 C 0.14624 0.57948 0.57717 0.0
C428 C 0.13881 0.5307 0.52221 0.0
C429 C 0.13502 0.52455 0.60853 0.0
O430 O 0.14498 0.5394 0.5989 0.0
O431 O 0.12039 0.5144 0.59842 0.0
O432 O 0.1588 0.57646 0.57358 0.0
O433 O 0.1306 0.56667 0.57457 0.0
O434 O 0.49062 0.60953 0.53343 0.0
Cd435 Cd 0.48886 0.59482 0.5646 0.0
Cd436 Cd 0.45732 0.59193 0.56815 0.0
O437 O 0.46371 0.60446 0.53327 0.0
O438 O 0.50577 0.58666 0.55849 0.0
O439 O 0.47736 0.56896 0.55997 0.0
C440 C 0.49269 0.57117 0.55612 0.0
C441 C 0.4298 0.56795 0.57585 0.0
C442 C 0.47873 0.61144 0.52329 0.0
C443 C 0.48369 0.61178 0.60953 0.0
O444 O 0.46897 0.60716 0.59964 0.0
O445 O 0.49388 0.6074 0.59932 0.0
O446 O 0.43211 0.58337 0.57337 0.0
O447 O 0.4431 0.56595 0.57285 0.0
O448 O 0.40045 0.8847 0.53449 0.0
Cd449 Cd 0.41516 0.89753 0.56569 0.0
Cd450 Cd 0.41819 0.8689 0.56901 0.0
O451 O 0.40588 0.86311 0.53398 0.0
O452 O 0.42347 0.92263 0.55973 0.0
O453 O 0.44102 0.91173 0.56106 0.0
C454 C 0.43891 0.92493 0.55729 0.0
C455 C 0.4413 0.86397 0.57681 0.0
C456 C 0.39876 0.87105 0.52414 0.0
C457 C 0.39818 0.87524 0.61042 0.0
O458 O 0.40281 0.86519 0.60038 0.0
O459 O 0.40259 0.88987 0.60039 0.0
O460 O 0.42567 0.85138 0.57372 0.0
O461 O 0.44406 0.87959 0.5744 0.0
O462 O 0.18623 0.45647 0.30347 0.0
Cd463 Cd 0.1881 0.44361 0.27231 0.0
Cd464 Cd 0.21971 0.47234 0.26887 0.0
O465 O 0.21323 0.47816 0.30389 0.0
O466 O 0.17132 0.41851 0.27834 0.0
O467 O 0.19977 0.42942 0.27696 0.0
C468 C 0.18448 0.41622 0.28076 0.0
C469 C 0.24776 0.47734 0.26088 0.0
C470 C 0.19817 0.47018 0.31376 0.0
C471 C 0.19326 0.46585 0.22755 0.0
O472 O 0.20793 0.47595 0.23755 0.0
O473 O 0.18309 0.4512 0.23761 0.0
O474 O 0.24469 0.48991 0.26399 0.0
O475 O 0.23493 0.4617 0.26341 0.0
O476 O 0.55209 0.7323 0.3037 0.0
Cd477 Cd 0.56481 0.74624 0.27185 0.0
Cd478 Cd 0.53623 0.74934 0.26784 0.0
O479 O 0.53025 0.73737 0.30312 0.0
O480 O 0.58993 0.75455 0.27772 0.0
O481 O 0.57915 0.77217 0.27536 0.0
C482 C 0.59232 0.77007 0.2794 0.0
C483 C 0.53268 0.77325 0.25955 0.0
C484 C 0.53835 0.73064 0.31368 0.0
C485 C 0.54241 0.72878 0.22724 0.0
O486 O 0.53247 0.73372 0.23678 0.0
O487 O 0.55693 0.73307 0.23759 0.0
O488 O 0.51957 0.75785 0.26234 0.0
O489 O 0.54799 0.77527 0.26249 0.0
O490 O 0.27809 0.82232 0.3041 0.0
Cd491 Cd 0.26392 0.82078 0.27237 0.0
Cd492 Cd 0.26204 0.78963 0.26795 0.0
O493 O 0.27367 0.79564 0.30342 0.0
O494 O 0.25571 0.83764 0.27847 0.0
O495 O 0.23799 0.80926 0.27622 0.0
C496 C 0.24018 0.82455 0.28033 0.0
C497 C 0.23896 0.76176 0.25921 0.0
C498 C 0.28005 0.81041 0.31406 0.0
C499 C 0.28208 0.81683 0.22772 0.0
O500 O 0.27783 0.8021 0.23725 0.0
O501 O 0.27699 0.82645 0.238 0.0
O502 O 0.25455 0.7647 0.26242 0.0
O503 O 0.23624 0.77463 0.26191 0.0
C504 C 0.20783 0.07568 0.07263 0.0
C505 C 0.19493 0.07888 0.08217 0.0
C506 C 0.20327 0.05977 0.06105 0.0
C507 C 0.16638 0.02481 0.02681 0.0
H508 H 0.19165 0.99992 0.03211 0.0
C509 C 0.14197 0.96045 0.97464 0.0
C510 C 0.15431 0.95797 0.96158 0.0
C511 C 0.14715 0.97378 0.9924 0.0
C512 C 0.18454 0.00679 0.03029 0.0
H513 H 0.16727 0.06745 0.0886 0.0
H514 H 0.15941 0.0398 0.06884 0.0
H515 H 0.20052 0.02596 0.05786 0.0
H516 H 0.1818 0.96705 0.95787 0.0
H517 H 0.19092 0.99062 0.98857 0.0
H518 H 0.15067 0.00613 0.99896 0.0
C519 C 0.173 0.04966 0.06973 0.0
C520 C 0.18961 0.0217 0.04506 0.0
C521 C 0.17753 0.06551 0.0812 0.0
C522 C 0.17196 0.96859 0.96766 0.0
C523 C 0.17718 0.98209 0.98531 0.0
C524 C 0.16138 0.01005 0.01206 0.0
C525 C 0.18574 0.04678 0.0588 0.0
C526 C 0.18051 0.03082 0.04356 0.0
C527 C 0.16485 0.98515 0.99737 0.0
C528 C 0.1703 1.00075 0.01365 0.0
H529 H 0.22136 0.08572 0.07308 0.0
H530 H 0.2134 0.05797 0.05277 0.0
H531 H 0.15935 0.03176 0.02466 0.0
H532 H 0.12825 0.95236 0.97067 0.0
H533 H 0.13726 0.97542 0.00182 0.0
C534 C 0.94594 0.11614 0.08628 0.0
C535 C 0.9318 0.11902 0.08577 0.0
C536 C 0.96167 0.12788 0.07489 0.0
C537 C 0.98769 0.17214 0.04795 0.0
H538 H 0.00625 0.14972 0.00547 0.0
C539 C 0.04079 0.20799 0.97063 0.0
C540 C 0.05225 0.20178 0.96572 0.0
C541 C 0.02738 0.19963 0.98841 0.0
C542 C 1.00151 0.15627 0.01757 0.0
H543 H 0.92341 0.13703 0.07408 0.0
H544 H 0.95097 0.15756 0.05395 0.0
H545 H 0.98065 0.13217 0.03091 0.0
H546 H 0.05952 0.18286 0.97708 0.0
H547 H 0.03665 0.16873 0.00852 0.0
H548 H 0.00861 0.19631 0.03425 0.0
C549 C 0.94986 0.14621 0.06331 0.0
C550 C 0.98675 0.14616 0.03217 0.0
C551 C 0.93406 0.13443 0.07478 0.0
C552 C 0.05076 0.18782 0.98016 0.0
C553 C 0.03754 0.17963 0.99807 0.0
C554 C 1.00259 0.18232 0.03334 0.0
C555 C 0.96368 0.1428 0.06261 0.0
C556 C 0.97965 0.15392 0.04759 0.0
C557 C 0.02527 0.18499 0.00178 0.0
C558 C 0.00971 0.17449 0.018 0.0
H559 H 0.94472 0.1045 0.0948 0.0
H560 H 0.97217 0.12505 0.07518 0.0
H561 H 0.98258 0.17852 0.05972 0.0
H562 H 0.04156 0.21868 0.95975 0.0
H563 H 0.01816 0.2041 0.99069 0.0
C564 C 0.82436 0.86706 0.9772 0.0
C565 C 0.80999 0.85456 0.96348 0.0
C566 C 0.83243 0.86205 0.99534 0.0
C567 C 0.82864 0.82461 0.03262 0.0
H568 H 0.87885 0.85142 0.02928 0.0
C569 C 0.87527 0.80275 0.07528 0.0
C570 C 0.8909 0.8158 0.08586 0.0
C571 C 0.86373 0.807 0.06357 0.0
C572 C 0.86485 0.84392 0.03078 0.0
H573 H 0.79229 0.82697 0.95896 0.0
H574 H 0.80666 0.81817 0.99027 0.0
H575 H 0.86176 0.85972 0.00322 0.0
H576 H 0.90608 0.84335 0.09395 0.0
H577 H 0.88597 0.85068 0.0739 0.0
H578 H 0.83197 0.80852 0.05983 0.0
C579 C 0.81154 0.83188 0.98728 0.0
C580 C 0.855 0.84872 0.01583 0.0
C581 C 0.80331 0.83692 0.96928 0.0
C582 C 0.89426 0.833 0.08575 0.0
C583 C 0.88276 0.83722 0.07413 0.0
C584 C 0.83856 0.81974 0.04756 0.0
C585 C 0.82653 0.84439 1.0 0.0
C586 C 0.83677 0.83921 0.01659 0.0
C587 C 0.86762 0.82438 0.06222 0.0
C588 C 0.85679 0.82941 0.04687 0.0
H589 H 0.82969 0.88077 0.97344 0.0
H590 H 0.84362 0.87207 0.00527 0.0
H591 H 0.81463 0.81704 0.0338 0.0
H592 H 0.8723 0.78937 0.07505 0.0
H593 H 0.8522 0.79681 0.05452 0.0
C594 C 0.96176 0.1433 0.52432 0.0
C595 C 0.96049 0.15572 0.53917 0.0
C596 C 0.97491 0.14837 0.5063 0.0
C597 C 0.00996 0.18605 0.47129 0.0
H598 H 0.03141 0.15738 0.47268 0.0
C599 C 0.078 0.20606 0.42848 0.0
C600 C 0.07998 0.19281 0.41727 0.0
C601 C 0.06234 0.2022 0.44027 0.0
C602 C 0.02545 0.1654 0.47171 0.0
H603 H 0.97148 0.18329 0.54577 0.0
H604 H 0.99478 0.19218 0.51459 0.0
H605 H 0.00602 0.14947 0.49853 0.0
H606 H 0.06671 0.16537 0.40815 0.0
H607 H 0.0395 0.15874 0.42829 0.0
H608 H 0.02989 0.20222 0.44476 0.0
C609 C 0.98544 0.1785 0.51666 0.0
C610 C 0.01082 0.16084 0.48655 0.0
C611 C 0.9721 0.17341 0.53457 0.0
C612 C 0.0657 0.17586 0.41685 0.0
C613 C 0.05011 0.17203 0.42853 0.0
C614 C 0.02473 0.19067 0.45643 0.0
C615 C 0.98732 0.16599 0.50288 0.0
C616 C 1.00279 0.17101 0.48648 0.0
C617 C 0.04839 0.18503 0.44105 0.0
C618 C 0.03258 0.18032 0.45639 0.0
H619 H 0.95287 0.12957 0.52715 0.0
H620 H 0.97563 0.13839 0.49552 0.0
H621 H 1.00407 0.19414 0.47069 0.0
H622 H 0.08876 0.21926 0.42912 0.0
H623 H 0.06145 0.21251 0.4498 0.0
C624 C 0.83066 0.89102 0.41758 0.0
C625 C 0.81359 0.88799 0.41814 0.0
C626 C 0.83476 0.87929 0.42873 0.0
C627 C 0.81682 0.835 0.45562 0.0
H628 H 0.85798 0.85774 0.49775 0.0
C629 C 0.83494 0.79975 0.5329 0.0
C630 C 0.85268 0.80605 0.53737 0.0
C631 C 0.82964 0.80795 0.5152 0.0
C632 C 0.84662 0.85111 0.48575 0.0
H633 H 0.78721 0.86974 0.42962 0.0
H634 H 0.79443 0.84925 0.44941 0.0
H635 H 0.84964 0.87511 0.47242 0.0
H636 H 0.87871 0.82495 0.52532 0.0
H637 H 0.86953 0.83881 0.49409 0.0
H638 H 0.81379 0.81093 0.46939 0.0
C639 C 0.80463 0.86069 0.44016 0.0
C640 C 0.84182 0.86111 0.4712 0.0
C641 C 0.8005 0.87244 0.42887 0.0
C642 C 0.86494 0.81992 0.5226 0.0
C643 C 0.85967 0.82796 0.5048 0.0
C644 C 0.82169 0.82493 0.4702 0.0
C645 C 0.82192 0.86426 0.44088 0.0
C646 C 0.82691 0.85323 0.45587 0.0
C647 C 0.84198 0.82252 0.50151 0.0
C648 C 0.83671 0.83288 0.4854 0.0
H649 H 0.84104 0.90277 0.40922 0.0
H650 H 0.84814 0.88225 0.42841 0.0
H651 H 0.80529 0.82854 0.44394 0.0
H652 H 0.82517 0.78911 0.54404 0.0
H653 H 0.81592 0.80342 0.51323 0.0
C654 C 0.13709 0.93305 0.428 0.0
C655 C 0.12124 0.93024 0.41797 0.0
C656 C 0.14872 0.94898 0.4393 0.0
C657 C 0.14773 0.98493 0.47191 0.0
H658 H 0.19792 0.00836 0.46796 0.0
C659 C 0.18853 0.04894 0.52433 0.0
C660 C 0.20289 0.05081 0.53808 0.0
C661 C 0.1804 0.03579 0.50631 0.0
C662 C 0.18392 1.0019 0.46938 0.0
H663 H 0.10576 0.94235 0.41033 0.0
H664 H 0.12604 0.97003 0.42959 0.0
H665 H 0.1804 0.98231 0.44239 0.0
H666 H 0.22056 0.0409 0.5427 0.0
H667 H 0.20611 0.01762 0.51157 0.0
H668 H 0.15102 1.00401 0.49922 0.0
C669 C 0.12935 0.95985 0.42931 0.0
C670 C 0.1739 0.98699 0.45472 0.0
C671 C 0.11775 0.94399 0.41814 0.0
C672 C 0.20954 0.03982 0.53237 0.0
C673 C 0.20126 0.02649 0.51447 0.0
C674 C 0.15769 0.9997 0.48656 0.0
C675 C 0.14471 0.96237 0.44075 0.0
C676 C 0.15566 0.97839 0.45576 0.0
C677 C 0.18626 0.02399 0.50179 0.0
C678 C 0.17591 0.00846 0.48546 0.0
H679 H 0.14016 0.92271 0.42817 0.0
H680 H 0.16042 0.95048 0.44799 0.0
H681 H 0.13374 0.97839 0.4737 0.0
H682 H 0.18322 0.05734 0.52802 0.0
H683 H 0.16919 0.03459 0.4964 0.0
C684 C 0.86567 0.03967 0.03544 0.0
C685 C 0.85673 0.04876 0.03946 0.0
C686 C 0.86025 0.02687 0.01682 0.0
C687 C 0.85177 0.00516 0.9699 0.0
H688 H 0.80256 0.97445 0.95913 0.0
C689 C 0.82893 0.9452 0.90687 0.0
C690 C 0.81424 0.92988 0.91497 0.0
C691 C 0.83287 0.96122 0.91723 0.0
C692 C 0.81636 0.98279 0.96202 0.0
H693 H 0.83532 0.05181 0.0264 0.0
H694 H 0.82616 0.02979 0.99311 0.0
H695 H 0.81232 0.99943 0.98695 0.0
H696 H 0.79176 0.91929 0.93955 0.0
H697 H 0.79904 0.94699 0.95875 0.0
H698 H 0.85592 0.98797 0.9468 0.0
C699 C 0.83715 0.03229 0.00487 0.0
C700 C 0.82199 0.99735 0.97771 0.0
C701 C 0.84247 0.04503 0.02383 0.0
C702 C 0.80312 0.93094 0.93283 0.0
C703 C 0.8073 0.94692 0.94376 0.0
C704 C 0.84616 0.99048 0.95467 0.0
C705 C 0.84587 0.0229 0.00129 0.0
C706 C 0.83978 0.00853 0.98233 0.0
C707 C 0.82252 0.96226 0.93662 0.0
C708 C 0.82836 0.97887 0.95079 0.0
H709 H 0.87661 0.04204 0.04722 0.0
H710 H 0.8671 0.01972 0.01522 0.0
H711 H 0.86559 0.01365 0.97239 0.0
H712 H 0.83763 0.94475 0.89289 0.0
H713 H 0.84435 0.97271 0.91048 0.0
C714 C 0.96458 0.79829 0.02586 0.0
C715 C 0.96047 0.80892 0.04059 0.0
C716 C 0.97736 0.80553 0.00691 0.0
C717 C 0.01231 0.82552 0.9796 0.0
H718 H 0.02045 0.86772 0.94621 0.0
C719 C 0.07835 0.87357 0.93406 0.0
C720 C 0.07908 0.88526 0.91556 0.0
C721 C 0.06247 0.86166 0.94514 0.0
C722 C 0.01831 0.85576 0.95478 0.0
H723 H 0.96658 0.83551 0.04677 0.0
H724 H 0.98893 0.84802 0.01481 0.0
H725 H 0.99483 0.85164 0.97186 0.0
H726 H 0.06378 0.89275 0.89253 0.0
H727 H 0.03602 0.87126 0.91038 0.0
H728 H 0.03553 0.82933 0.96164 0.0
C729 C 0.98205 0.83406 0.01709 0.0
C730 C 1.00365 0.84666 0.97005 0.0
C731 C 0.96924 0.82685 0.0357 0.0
C732 C 0.06358 0.88401 0.90701 0.0
C733 C 0.04767 0.87178 0.91752 0.0
C734 C 0.02686 0.83447 0.96386 0.0
C735 C 0.98638 0.82356 0.00242 0.0
C736 C 1.00072 0.83173 0.98338 0.0
C737 C 0.04691 0.86089 0.93751 0.0
C738 C 0.03034 0.85001 0.95174 0.0
H739 H 0.95807 0.78442 0.02912 0.0
H740 H 0.98017 0.79698 0.99583 0.0
H741 H 0.01057 0.8141 0.98953 0.0
H742 H 0.09015 0.87436 0.94113 0.0
H743 H 0.06263 0.85373 0.9606 0.0
C744 C 0.13762 0.20776 0.9284 0.0
C745 C 0.12203 0.19449 0.91807 0.0
C746 C 0.14964 0.20388 0.93939 0.0
C747 C 0.15008 0.16706 0.97027 0.0
H748 H 0.20018 0.19572 0.96761 0.0
C749 C 0.19222 0.14492 0.0209 0.0
C750 C 0.20593 0.15731 0.03576 0.0
C751 C 0.18406 0.15001 0.00304 0.0
C752 C 0.18621 0.18764 0.96864 0.0
H753 H 0.10744 0.16698 0.90948 0.0
H754 H 0.12843 0.16032 0.92809 0.0
H755 H 0.18207 0.20378 0.94255 0.0
H756 H 0.22251 0.18487 0.04247 0.0
H757 H 0.20798 0.1938 0.01154 0.0
H758 H 0.15397 0.15114 0.99663 0.0
C759 C 0.13121 0.17364 0.92837 0.0
C760 C 0.17584 0.19226 0.95429 0.0
C761 C 0.11921 0.17748 0.91756 0.0
C762 C 0.21201 0.17501 0.03125 0.0
C763 C 0.20368 0.18012 0.01349 0.0
C764 C 0.16036 0.16249 0.98457 0.0
C765 C 0.1463 0.18667 0.94017 0.0
C766 C 0.15764 0.18195 0.95487 0.0
C767 C 0.18922 0.16762 0.99981 0.0
C768 C 0.17856 0.17264 0.98389 0.0
H769 H 0.14016 0.22099 0.92909 0.0
H770 H 0.16111 0.21422 0.94836 0.0
H771 H 0.13611 0.15907 0.97175 0.0
H772 H 0.18739 0.13118 0.02366 0.0
H773 H 0.1733 0.14005 0.99232 0.0
C774 C 0.94483 0.83168 0.58216 0.0
C775 C 0.9309 0.81453 0.58235 0.0
C776 C 0.96064 0.83568 0.57105 0.0
C777 C 0.9872 0.81752 0.5459 0.0
H778 H 1.00539 0.85785 0.50204 0.0
C779 C 0.04071 0.83471 0.46917 0.0
C780 C 0.05208 0.8524 0.46419 0.0
C781 C 0.02718 0.82959 0.48676 0.0
C782 C 1.00073 0.84673 0.51452 0.0
H783 H 0.92294 0.78797 0.57222 0.0
H784 H 0.95061 0.79502 0.55246 0.0
H785 H 0.9796 0.84977 0.52702 0.0
H786 H 0.05908 0.87857 0.47529 0.0
H787 H 0.03596 0.86971 0.50632 0.0
H788 H 0.00839 0.81445 0.53294 0.0
C789 C 0.9493 0.80535 0.56111 0.0
C790 C 0.98587 0.84207 0.52887 0.0
C791 C 0.93344 0.80131 0.57236 0.0
C792 C 0.05039 0.86483 0.4784 0.0
C793 C 0.03704 0.85974 0.49609 0.0
C794 C 1.00218 0.82223 0.5315 0.0
C795 C 0.96291 0.82267 0.55968 0.0
C796 C 0.97893 0.82747 0.54483 0.0
C797 C 0.02486 0.84208 0.49982 0.0
C798 C 0.00916 0.83696 0.5157 0.0
H799 H 0.9434 0.84215 0.58994 0.0
H800 H 0.97098 0.84909 0.57081 0.0
H801 H 0.98221 0.80622 0.55808 0.0
H802 H 0.04166 0.82483 0.45847 0.0
H803 H 0.01804 0.81589 0.48911 0.0
C804 C 0.17068 0.20848 0.47576 0.0
C805 C 0.15615 0.19782 0.46066 0.0
C806 C 0.17623 0.20123 0.49467 0.0
C807 C 0.19144 0.18154 0.52216 0.0
H808 H 0.1575 0.13873 0.55436 0.0
C809 C 0.21005 0.13406 0.56807 0.0
C810 C 0.19896 0.12208 0.58618 0.0
C811 C 0.20597 0.14587 0.55695 0.0
C812 C 0.16727 0.15086 0.54613 0.0
H813 H 0.13613 0.17115 0.45365 0.0
H814 H 0.14603 0.15862 0.48552 0.0
H815 H 0.14784 0.15461 0.52847 0.0
H816 H 0.17575 0.11396 0.6085 0.0
H817 H 0.16923 0.13526 0.5906 0.0
H818 H 0.2109 0.17808 0.5407 0.0
C819 C 0.15291 0.17261 0.48359 0.0
C820 C 0.16166 0.15985 0.53071 0.0
C821 C 0.14726 0.17983 0.46505 0.0
C822 C 0.18442 0.12295 0.59434 0.0
C823 C 0.18059 0.13506 0.58379 0.0
C824 C 0.19708 0.17269 0.53804 0.0
C825 C 0.16747 0.18314 0.49871 0.0
C826 C 0.17363 0.17501 0.51782 0.0
C827 C 0.19088 0.14622 0.56414 0.0
C828 C 0.18508 0.15695 0.54975 0.0
H829 H 0.17781 0.22239 0.47289 0.0
H830 H 0.18739 0.2098 0.50608 0.0
H831 H 0.2011 0.19313 0.51257 0.0
H832 H 0.22129 0.13357 0.56131 0.0
H833 H 0.21418 0.15402 0.54176 0.0
C834 C 0.87522 0.07513 0.57588 0.0
C835 C 0.89115 0.07781 0.58536 0.0
C836 C 0.86334 0.05923 0.56475 0.0
C837 C 0.86346 0.023 0.53158 0.0
H838 H 0.81336 1.00002 0.53719 0.0
C839 C 0.82139 0.95901 0.47982 0.0
C840 C 0.80696 0.95733 0.4665 0.0
C841 C 0.82985 0.97213 0.49779 0.0
C842 C 0.82733 0.00635 0.53531 0.0
H843 H 0.90656 0.06552 0.59215 0.0
H844 H 0.88586 0.03789 0.57317 0.0
H845 H 0.83146 0.02609 0.56242 0.0
H846 H 0.78949 0.96755 0.46266 0.0
H847 H 0.80451 0.99077 0.49371 0.0
H848 H 0.85955 1.00376 0.50416 0.0
C849 C 0.88267 0.04814 0.57376 0.0
C850 C 0.83769 0.02127 0.54977 0.0
C851 C 0.8945 0.06398 0.58478 0.0
C852 C 0.80056 0.96847 0.47265 0.0
C853 C 0.80917 0.98177 0.4905 0.0
C854 C 0.85317 0.00821 0.51714 0.0
C855 C 0.86719 0.04574 0.56291 0.0
C856 C 0.85589 0.02972 0.54812 0.0
C857 C 0.82426 0.98409 0.50269 0.0
C858 C 0.83497 0.99962 0.51884 0.0
H859 H 0.87225 0.08554 0.57605 0.0
H860 H 0.85156 0.05782 0.5565 0.0
H861 H 0.87741 0.02941 0.52932 0.0
H862 H 0.82652 0.95049 0.47578 0.0
H863 H 0.84112 0.9732 0.50732 0.0
C864 C 0.81247 0.2921 0.3111 0.0
C865 C 0.8249 0.29069 0.29645 0.0
C866 C 0.81754 0.30534 0.32897 0.0
C867 C 0.85508 0.34037 0.3641 0.0
H868 H 0.82682 0.36223 0.36127 0.0
C869 C 0.87525 0.40862 0.40628 0.0
C870 C 0.86195 0.41084 0.41674 0.0
C871 C 0.87138 0.39289 0.39473 0.0
C872 C 0.83472 0.35616 0.36266 0.0
H873 H 0.85247 0.30153 0.2901 0.0
H874 H 0.86136 0.32497 0.32106 0.0
H875 H 0.81893 0.3367 0.33579 0.0
H876 H 0.83438 0.3979 0.42488 0.0
H877 H 0.82773 0.37054 0.40525 0.0
H878 H 0.8711 0.36029 0.39072 0.0
C879 C 0.84767 0.31567 0.31892 0.0
C880 C 0.83017 0.34145 0.34802 0.0
C881 C 0.84259 0.30225 0.30114 0.0
C882 C 0.84491 0.39671 0.41673 0.0
C883 C 0.84108 0.38103 0.40534 0.0
C884 C 0.85968 0.35521 0.37879 0.0
C885 C 0.83516 0.31769 0.33246 0.0
C886 C 0.8402 0.33326 0.34861 0.0
C887 C 0.85415 0.37909 0.39348 0.0
C888 C 0.84947 0.36321 0.37832 0.0
H889 H 0.79874 0.28326 0.30822 0.0
H890 H 0.80756 0.30618 0.33956 0.0
H891 H 0.86306 0.33436 0.36508 0.0
H892 H 0.88851 0.41928 0.40598 0.0
H893 H 0.88175 0.39184 0.38573 0.0
C894 C 0.59901 0.46845 0.40153 0.0
C895 C 0.59831 0.45671 0.41992 0.0
C896 C 0.61483 0.4803 0.39026 0.0
C897 C 0.65872 0.48574 0.37967 0.0
H898 H 0.66663 0.52754 0.34518 0.0
C899 C 0.71248 0.54301 0.30844 0.0
C900 C 0.71645 0.53232 0.2936 0.0
C901 C 0.6997 0.53582 0.32739 0.0
C902 C 0.66484 0.51608 0.35503 0.0
H903 H 0.61366 0.44908 0.44258 0.0
H904 H 0.64135 0.47045 0.4244 0.0
H905 H 0.64186 0.51252 0.37347 0.0
H906 H 0.70998 0.50565 0.2871 0.0
H907 H 0.6876 0.49323 0.31904 0.0
H908 H 0.68196 0.48959 0.36209 0.0
C909 C 0.62969 0.47002 0.41749 0.0
C910 C 0.6504 0.50725 0.37101 0.0
C911 C 0.61383 0.45787 0.4282 0.0
C912 C 0.70746 0.51436 0.29828 0.0
C913 C 0.69462 0.5072 0.31688 0.0
C914 C 0.67326 0.49471 0.36416 0.0
C915 C 0.63039 0.48094 0.39757 0.0
C916 C 0.64686 0.49167 0.38306 0.0
C917 C 0.6905 0.51777 0.33174 0.0
C918 C 0.67626 0.50969 0.35093 0.0
H919 H 0.58719 0.46774 0.39467 0.0
H920 H 0.61463 0.48825 0.37488 0.0
H921 H 0.65652 0.47374 0.38817 0.0
H922 H 0.71917 0.5569 0.30534 0.0
H923 H 0.69704 0.54442 0.33859 0.0
C924 C 0.55854 0.16328 0.4155 0.0
C925 C 0.55572 0.14634 0.41798 0.0
C926 C 0.54568 0.16619 0.40553 0.0
C927 C 0.50807 0.14611 0.36274 0.0
H928 H 0.50302 0.18513 0.38365 0.0
C929 C 0.46558 0.1667 0.30616 0.0
C930 C 0.47416 0.18445 0.3 0.0
C931 C 0.47237 0.16044 0.32471 0.0
C932 C 0.50426 0.17416 0.3776 0.0
H933 H 0.53684 0.11909 0.41291 0.0
H934 H 0.51425 0.12417 0.39561 0.0
H935 H 0.52063 0.17682 0.40905 0.0
H936 H 0.49603 0.20967 0.30952 0.0
H937 H 0.50774 0.19882 0.34175 0.0
H938 H 0.49209 0.14377 0.3309 0.0
C939 C 0.52654 0.13523 0.40113 0.0
C940 C 0.51438 0.16941 0.39213 0.0
C941 C 0.53944 0.13231 0.4112 0.0
C942 C 0.48912 0.1959 0.31372 0.0
C943 C 0.49579 0.18969 0.33235 0.0
C944 C 0.4979 0.15083 0.34825 0.0
C945 C 0.52963 0.15224 0.39774 0.0
C946 C 0.51682 0.15564 0.38449 0.0
C947 C 0.48775 0.17184 0.33766 0.0
C948 C 0.49628 0.16522 0.35512 0.0
H949 H 0.57093 0.1744 0.42053 0.0
H950 H 0.54865 0.17947 0.40291 0.0
H951 H 0.50979 0.13555 0.35611 0.0
H952 H 0.45404 0.15753 0.29593 0.0
H953 H 0.46578 0.14664 0.32854 0.0
C954 C 0.63746 0.50795 0.86324 0.0
C955 C 0.62599 0.49028 0.86825 0.0
C956 C 0.6508 0.51294 0.84535 0.0
C957 C 0.67657 0.49532 0.81667 0.0
H958 H 0.69551 0.53615 0.77374 0.0
C959 C 0.73242 0.5102 0.74912 0.0
C960 C 0.74651 0.52726 0.74931 0.0
C961 C 0.7166 0.5063 0.76004 0.0
C962 C 0.6904 0.52476 0.78573 0.0
H963 H 0.61856 0.46406 0.85689 0.0
H964 H 0.64132 0.47271 0.8253 0.0
H965 H 0.66947 0.52811 0.7991 0.0
H966 H 0.75472 0.55381 0.75988 0.0
H967 H 0.72702 0.54694 0.77932 0.0
H968 H 0.69745 0.492 0.80379 0.0
C969 C 0.64049 0.48274 0.83574 0.0
C970 C 0.67549 0.52015 0.80025 0.0
C971 C 0.62734 0.47777 0.85375 0.0
C972 C 0.7441 0.54053 0.75943 0.0
C973 C 0.72822 0.5366 0.77051 0.0
C974 C 0.69135 0.49987 0.80219 0.0
C975 C 0.65281 0.50036 0.83199 0.0
C976 C 0.66837 0.50532 0.81586 0.0
C977 C 0.71446 0.51934 0.77162 0.0
C978 C 0.69845 0.5146 0.78647 0.0
H979 H 0.63677 0.51789 0.87417 0.0
H980 H 0.66006 0.52662 0.84301 0.0
H981 H 0.67181 0.48411 0.82899 0.0
H982 H 0.73377 0.4997 0.74122 0.0
H983 H 0.70614 0.49294 0.76002 0.0
C984 C 0.50008 0.22493 0.75184 0.0
C985 C 0.48304 0.22201 0.75174 0.0
C986 C 0.50391 0.21313 0.76341 0.0
C987 C 0.48533 0.1688 0.79037 0.0
H988 H 0.52598 0.19129 0.83354 0.0
C989 C 0.5025 0.13322 0.86844 0.0
C990 C 0.5202 0.1394 0.87313 0.0
C991 C 0.49738 0.14151 0.85064 0.0
C992 C 0.51476 0.18473 0.82127 0.0
H993 H 0.45647 0.20389 0.7625 0.0
H994 H 0.46322 0.18328 0.78304 0.0
H995 H 0.51808 0.2088 0.80775 0.0
H996 H 0.54633 0.1582 0.86135 0.0
H997 H 0.53746 0.17224 0.82997 0.0
H998 H 0.482 0.14465 0.80434 0.0
C999 C 0.47359 0.19468 0.77398 0.0
C1000 C 0.51021 0.19481 0.80646 0.0
C1001 C 0.46973 0.20651 0.76226 0.0
C1002 C 0.5326 0.15327 0.85848 0.0
C1003 C 0.5275 0.1614 0.84058 0.0
C1004 C 0.48994 0.15864 0.80524 0.0
C1005 C 0.49083 0.19814 0.77534 0.0
C1006 C 0.4955 0.18702 0.79072 0.0
C1007 C 0.50986 0.15606 0.83707 0.0
C1008 C 0.50479 0.16651 0.82079 0.0
H1009 H 0.51062 0.23664 0.74366 0.0
H1010 H 0.51726 0.216 0.76358 0.0
H1011 H 0.47394 0.16241 0.7784 0.0
H1012 H 0.49263 0.12258 0.87948 0.0
H1013 H 0.48369 0.13707 0.84847 0.0
C1014 C 0.85541 0.38218 0.85706 0.0
C1015 C 0.86953 0.38391 0.8713 0.0
C1016 C 0.84735 0.369 0.83908 0.0
C1017 C 0.85065 0.33471 0.80304 0.0
H1018 H 0.80046 0.31173 0.80663 0.0
C1019 C 0.80345 0.26615 0.76093 0.0
C1020 C 0.78776 0.26361 0.75065 0.0
C1021 C 0.81514 0.28196 0.77247 0.0
C1022 C 0.81445 0.31812 0.80504 0.0
H1023 H 0.88689 0.37371 0.87681 0.0
H1024 H 0.87255 0.35036 0.8457 0.0
H1025 H 0.81781 0.33731 0.83219 0.0
H1026 H 0.77263 0.27606 0.74284 0.0
H1027 H 0.79301 0.30355 0.76249 0.0
H1028 H 0.84706 0.31503 0.77617 0.0
C1029 C 0.86784 0.35937 0.84822 0.0
C1030 C 0.82445 0.33286 0.81972 0.0
C1031 C 0.87606 0.37274 0.86609 0.0
C1032 C 0.78449 0.2775 0.75084 0.0
C1033 C 0.79614 0.29325 0.76224 0.0
C1034 C 0.84058 0.31983 0.78833 0.0
C1035 C 0.85304 0.35701 0.83509 0.0
C1036 C 0.84267 0.34144 0.81885 0.0
C1037 C 0.81134 0.29551 0.77391 0.0
C1038 C 0.82235 0.31143 0.78909 0.0
H1039 H 0.85021 0.39072 0.86036 0.0
H1040 H 0.83631 0.3679 0.82881 0.0
H1041 H 0.86465 0.34102 0.80184 0.0
H1042 H 0.80634 0.25569 0.76109 0.0
H1043 H 0.82671 0.28327 0.78133 0.0
C1044 C 0.50623 0.37361 0.3663 0.0
C1045 C 0.52381 0.38461 0.37236 0.0
C1046 C 0.50134 0.36018 0.34862 0.0
C1047 C 0.51828 0.33311 0.32233 0.0
H1048 H 0.47896 0.31583 0.27661 0.0
C1049 C 0.50343 0.27729 0.2546 0.0
C1050 C 0.48615 0.26365 0.25366 0.0
C1051 C 0.50759 0.29314 0.2657 0.0
C1052 C 0.48992 0.32048 0.28939 0.0
H1053 H 0.5501 0.39102 0.36313 0.0
H1054 H 0.54166 0.36806 0.33193 0.0
H1055 H 0.48718 0.34195 0.30188 0.0
H1056 H 0.45955 0.25631 0.26244 0.0
H1057 H 0.46686 0.28406 0.28215 0.0
H1058 H 0.52099 0.3117 0.31026 0.0
C1059 C 0.53157 0.36936 0.34139 0.0
C1060 C 0.49463 0.33542 0.30387 0.0
C1061 C 0.53642 0.38262 0.35917 0.0
C1062 C 0.47299 0.26657 0.26287 0.0
C1063 C 0.47718 0.28248 0.27411 0.0
C1064 C 0.51363 0.3183 0.30788 0.0
C1065 C 0.51396 0.35757 0.33653 0.0
C1066 C 0.50892 0.34195 0.32048 0.0
C1067 C 0.49459 0.29577 0.2763 0.0
C1068 C 0.49945 0.3118 0.29117 0.0
H1069 H 0.49619 0.37478 0.37618 0.0
H1070 H 0.48765 0.35132 0.34542 0.0
H1071 H 0.52904 0.33742 0.33541 0.0
H1072 H 0.51388 0.27557 0.24743 0.0
H1073 H 0.52109 0.30324 0.26654 0.0
C1074 C 0.74421 0.20556 0.26093 0.0
C1075 C 0.74689 0.2213 0.25064 0.0
C1076 C 0.72828 0.19385 0.27214 0.0
C1077 C 0.69176 0.19448 0.30372 0.0
H1078 H 0.66907 0.14428 0.3007 0.0
C1079 C 0.62741 0.15337 0.35499 0.0
C1080 C 0.62576 0.13939 0.36953 0.0
C1081 C 0.64065 0.1614 0.33707 0.0
C1082 C 0.67532 0.15829 0.30184 0.0
H1083 H 0.73457 0.23651 0.24245 0.0
H1084 H 0.70686 0.21607 0.2615 0.0
H1085 H 0.69527 0.16194 0.27544 0.0
H1086 H 0.63613 0.12222 0.3756 0.0
H1087 H 0.65954 0.1365 0.34457 0.0
H1088 H 0.67229 0.19105 0.33039 0.0
C1089 C 0.71715 0.21292 0.26154 0.0
C1090 C 0.69032 0.16839 0.28737 0.0
C1091 C 0.73302 0.2246 0.25047 0.0
C1092 C 0.63703 0.13295 0.36465 0.0
C1093 C 0.65045 0.14113 0.34683 0.0
C1094 C 0.67689 0.18444 0.31814 0.0
C1095 C 0.71474 0.19767 0.27323 0.0
C1096 C 0.69866 0.18662 0.28808 0.0
C1097 C 0.65275 0.15582 0.33343 0.0
C1098 C 0.6684 0.16622 0.31735 0.0
H1099 H 0.75466 0.20265 0.26136 0.0
H1100 H 0.72687 0.18225 0.28104 0.0
H1101 H 0.69809 0.20847 0.30528 0.0
H1102 H 0.6188 0.15851 0.35804 0.0
H1103 H 0.64171 0.17236 0.32659 0.0
C1104 C 0.85529 0.47613 0.35761 0.0
C1105 C 0.86925 0.48848 0.37215 0.0
C1106 C 0.84717 0.48129 0.3398 0.0
C1107 C 0.85015 0.51906 0.30464 0.0
H1108 H 0.79998 0.49103 0.30682 0.0
C1109 C 0.80259 0.5397 0.2618 0.0
C1110 C 0.78724 0.52651 0.25077 0.0
C1111 C 0.81428 0.53572 0.27367 0.0
C1112 C 0.81397 0.49888 0.30564 0.0
H1113 H 0.88621 0.51603 0.37843 0.0
H1114 H 0.87174 0.5251 0.34761 0.0
H1115 H 0.81736 0.48292 0.33256 0.0
H1116 H 0.77271 0.49901 0.24212 0.0
H1117 H 0.79309 0.49216 0.26241 0.0
H1118 H 0.84651 0.53526 0.27799 0.0
C1119 C 0.86722 0.51139 0.34976 0.0
C1120 C 0.82399 0.4942 0.32041 0.0
C1121 C 0.87551 0.5062 0.36747 0.0
C1122 C 0.7843 0.50946 0.25066 0.0
C1123 C 0.79595 0.50551 0.26243 0.0
C1124 C 0.84006 0.5238 0.28985 0.0
C1125 C 0.8526 0.49896 0.33627 0.0
C1126 C 0.84221 0.50413 0.32004 0.0
C1127 C 0.81082 0.51848 0.27473 0.0
C1128 C 0.82184 0.51368 0.29009 0.0
H1129 H 0.8503 0.46238 0.3605 0.0
H1130 H 0.83628 0.47136 0.32924 0.0
H1131 H 0.86414 0.52697 0.3038 0.0
H1132 H 0.80522 0.55297 0.26221 0.0
H1133 H 0.82559 0.54601 0.28303 0.0
C1134 C 0.60043 0.13404 0.90643 0.0
C1135 C 0.59805 0.14725 0.91684 0.0
C1136 C 0.61612 0.13807 0.8946 0.0
C1137 C 0.65218 0.17478 0.86157 0.0
H1138 H 0.67492 0.14733 0.86431 0.0
C1139 C 0.71628 0.19792 0.80962 0.0
C1140 C 0.718 0.18559 0.79523 0.0
C1141 C 0.70301 0.19272 0.82747 0.0
C1142 C 0.66864 0.15506 0.86323 0.0
H1143 H 0.6107 0.17487 0.92456 0.0
H1144 H 0.63798 0.1818 0.9044 0.0
H1145 H 0.64905 0.139 0.89026 0.0
H1146 H 0.70769 0.15804 0.78931 0.0
H1147 H 0.6842 0.14891 0.82024 0.0
H1148 H 0.67131 0.19061 0.83431 0.0
C1149 C 0.62764 0.16839 0.90477 0.0
C1150 C 0.65384 0.15029 0.8781 0.0
C1151 C 0.612 0.16439 0.91647 0.0
C1152 C 0.70672 0.16786 0.80014 0.0
C1153 C 0.69327 0.16263 0.8179 0.0
C1154 C 0.66685 0.17949 0.84675 0.0
C1155 C 0.62972 0.15538 0.89299 0.0
C1156 C 0.64551 0.16019 0.87754 0.0
C1157 C 0.69094 0.17504 0.83121 0.0
C1158 C 0.67537 0.16979 0.84746 0.0
H1159 H 0.58992 0.1207 0.9064 0.0
H1160 H 0.61729 0.12774 0.88565 0.0
H1161 H 0.64584 0.18244 0.86013 0.0
H1162 H 0.7249 0.21168 0.80657 0.0
H1163 H 0.70192 0.20263 0.83788 0.0
C1164 C 0.84389 0.44956 0.91844 0.0
C1165 C 0.86102 0.45274 0.91854 0.0
C1166 C 0.83987 0.46132 0.90718 0.0
C1167 C 0.85803 0.50585 0.88109 0.0
H1168 H 0.81766 0.48334 0.8374 0.0
C1169 C 0.8412 0.54153 0.80288 0.0
C1170 C 0.82354 0.5352 0.79763 0.0
C1171 C 0.84619 0.53326 0.8209 0.0
C1172 C 0.82878 0.48991 0.84983 0.0
H1173 H 0.88755 0.47126 0.90813 0.0
H1174 H 0.88048 0.49179 0.88814 0.0
H1175 H 0.82565 0.46584 0.86305 0.0
H1176 H 0.79731 0.51617 0.80865 0.0
H1177 H 0.80595 0.50217 0.84045 0.0
H1178 H 0.86119 0.53 0.86741 0.0
C1179 C 0.87017 0.48023 0.89696 0.0
C1180 C 0.8334 0.47983 0.86456 0.0
C1181 C 0.87422 0.46844 0.90836 0.0
C1182 C 0.81102 0.52122 0.81198 0.0
C1183 C 0.81599 0.51311 0.83011 0.0
C1184 C 0.85336 0.51601 0.86631 0.0
C1185 C 0.85286 0.47652 0.89557 0.0
C1186 C 0.84803 0.48763 0.88045 0.0
C1187 C 0.83361 0.51859 0.83415 0.0
C1188 C 0.83863 0.50813 0.85054 0.0
H1189 H 0.83343 0.43768 0.92637 0.0
H1190 H 0.82646 0.45825 0.90699 0.0
H1191 H 0.86935 0.51226 0.8932 0.0
H1192 H 0.85115 0.55225 0.79208 0.0
H1193 H 0.85987 0.53781 0.82345 0.0
C1194 C 0.5608 0.39901 0.91609 0.0
C1195 C 0.55751 0.41289 0.91608 0.0
C1196 C 0.54911 0.38318 0.90492 0.0
C1197 C 0.50462 0.35649 0.8789 0.0
H1198 H 0.52736 0.33876 0.83546 0.0
C1199 C 0.46917 0.30337 0.80138 0.0
C1200 C 0.47559 0.29208 0.79649 0.0
C1201 C 0.4774 0.31683 0.81912 0.0
C1202 C 0.52073 0.34329 0.84782 0.0
H1203 H 0.53887 0.42071 0.90558 0.0
H1204 H 0.51845 0.39301 0.88573 0.0
H1205 H 0.54472 0.36441 0.86088 0.0
H1206 H 0.49478 0.28518 0.80786 0.0
H1207 H 0.50872 0.30816 0.83914 0.0
H1208 H 0.48054 0.33531 0.86538 0.0
C1209 C 0.53006 0.39437 0.89457 0.0
C1210 C 0.53073 0.35806 0.86243 0.0
C1211 C 0.54177 0.41026 0.9059 0.0
C1212 C 0.48965 0.2938 0.8109 0.0
C1213 C 0.49773 0.30708 0.82873 0.0
C1214 C 0.49454 0.34159 0.86425 0.0
C1215 C 0.53387 0.38083 0.89328 0.0
C1216 C 0.52285 0.36485 0.87823 0.0
C1217 C 0.49213 0.31916 0.83243 0.0
C1218 C 0.5025 0.33477 0.84859 0.0
H1219 H 0.57271 0.40052 0.92403 0.0
H1220 H 0.55226 0.37289 0.9048 0.0
H1221 H 0.49815 0.36136 0.89095 0.0
H1222 H 0.45838 0.3024 0.79053 0.0
H1223 H 0.47276 0.3259 0.82142 0.0
C1224 C 0.47697 0.62531 0.64607 0.0
C1225 C 0.48935 0.62373 0.63158 0.0
C1226 C 0.48212 0.63847 0.6641 0.0
C1227 C 0.51977 0.67293 0.69984 0.0
H1228 H 0.49236 0.69569 0.69659 0.0
C1229 C 0.5412 0.74155 0.74162 0.0
C1230 C 0.52809 0.74417 0.75183 0.0
C1231 C 0.53703 0.72568 0.73025 0.0
C1232 C 0.50003 0.68936 0.6981 0.0
H1233 H 0.51691 0.63413 0.6257 0.0
H1234 H 0.52594 0.65741 0.65693 0.0
H1235 H 0.48409 0.67007 0.67111 0.0
H1236 H 0.50052 0.73178 0.75977 0.0
H1237 H 0.49334 0.70418 0.74048 0.0
H1238 H 0.53595 0.69269 0.72655 0.0
C1239 C 0.51223 0.64832 0.65455 0.0
C1240 C 0.49526 0.6746 0.68347 0.0
C1241 C 0.50706 0.63499 0.63661 0.0
C1242 C 0.51092 0.73028 0.75181 0.0
C1243 C 0.50678 0.71447 0.7406 0.0
C1244 C 0.5246 0.68782 0.71452 0.0
C1245 C 0.49979 0.65055 0.66791 0.0
C1246 C 0.50498 0.66611 0.68418 0.0
C1247 C 0.51967 0.71213 0.72895 0.0
C1248 C 0.51471 0.69616 0.71389 0.0
H1249 H 0.46323 0.61671 0.64291 0.0
H1250 H 0.47218 0.63948 0.67455 0.0
H1251 H 0.52752 0.66668 0.70093 0.0
H1252 H 0.55456 0.75201 0.74133 0.0
H1253 H 0.54727 0.72433 0.7214 0.0
C1254 C 0.37489 0.87518 0.63755 0.0
C1255 C 0.38623 0.86884 0.63245 0.0
C1256 C 0.36157 0.86692 0.65549 0.0
C1257 C 0.33554 0.82358 0.68441 0.0
H1258 H 0.31724 0.84594 0.72758 0.0
C1259 C 0.28016 0.78331 0.75313 0.0
C1260 C 0.26617 0.78642 0.75319 0.0
C1261 C 0.2959 0.79506 0.7418 0.0
C1262 C 0.32218 0.83953 0.71553 0.0
H1263 H 0.3934 0.84983 0.64367 0.0
H1264 H 0.37067 0.83585 0.67534 0.0
H1265 H 0.34319 0.86368 0.70187 0.0
H1266 H 0.25805 0.80482 0.74259 0.0
H1267 H 0.28561 0.82536 0.72245 0.0
H1268 H 0.31459 0.79951 0.69762 0.0
C1269 C 0.3716 0.84678 0.66493 0.0
C1270 C 0.33703 0.84968 0.70079 0.0
C1271 C 0.38473 0.85488 0.64688 0.0
C1272 C 0.26859 0.80206 0.74285 0.0
C1273 C 0.2844 0.81384 0.73137 0.0
C1274 C 0.32083 0.8135 0.6991 0.0
C1275 C 0.35944 0.85225 0.66881 0.0
C1276 C 0.34392 0.8418 0.68511 0.0
C1277 C 0.29805 0.8102 0.73006 0.0
C1278 C 0.31397 0.82131 0.71492 0.0
H1279 H 0.37568 0.88589 0.62669 0.0
H1280 H 0.35243 0.87147 0.65793 0.0
H1281 H 0.34013 0.81701 0.67204 0.0
H1282 H 0.27881 0.77149 0.76118 0.0
H1283 H 0.30628 0.79205 0.74165 0.0
C1284 C 0.15536 0.53115 0.64488 0.0
C1285 C 0.14149 0.51879 0.63022 0.0
C1286 C 0.16357 0.52602 0.66258 0.0
C1287 C 0.16118 0.48841 0.69728 0.0
H1288 H 0.2113 0.51653 0.69366 0.0
C1289 C 0.20936 0.46805 0.73849 0.0
C1290 C 0.22501 0.48134 0.74866 0.0
C1291 C 0.19745 0.47196 0.72718 0.0
C1292 C 0.19733 0.50867 0.69528 0.0
H1293 H 0.12469 0.49123 0.62373 0.0
H1294 H 0.1393 0.48222 0.65441 0.0
H1295 H 0.19353 0.5245 0.66863 0.0
H1296 H 0.23985 0.50893 0.75655 0.0
H1297 H 0.21907 0.51566 0.73737 0.0
H1298 H 0.16521 0.47236 0.7237 0.0
C1299 C 0.1437 0.49591 0.65239 0.0
C1300 C 0.18709 0.51326 0.68089 0.0
C1301 C 0.13533 0.50107 0.63477 0.0
C1302 C 0.22802 0.49841 0.74861 0.0
C1303 C 0.21614 0.50229 0.73747 0.0
C1304 C 0.17149 0.48377 0.71173 0.0
C1305 C 0.15829 0.50837 0.66589 0.0
C1306 C 0.16889 0.50328 0.68177 0.0
C1307 C 0.20097 0.48922 0.72589 0.0
C1308 C 0.1897 0.49393 0.71098 0.0
H1309 H 0.16027 0.5449 0.6421 0.0
H1310 H 0.17444 0.53595 0.67316 0.0
H1311 H 0.14719 0.48047 0.69847 0.0
H1312 H 0.20666 0.45476 0.73824 0.0
H1313 H 0.18592 0.46159 0.71838 0.0
C1314 C 0.39934 0.84324 0.08989 0.0
C1315 C 0.41345 0.86015 0.087 0.0
C1316 C 0.38369 0.84043 0.1002 0.0
C1317 C 0.36653 0.86082 0.14302 0.0
H1318 H 0.32224 0.82194 0.12249 0.0
C1319 C 0.30356 0.84091 0.19964 0.0
C1320 C 0.29418 0.82316 0.20582 0.0
C1321 C 0.31667 0.84702 0.1812 0.0
C1322 C 0.33451 0.83286 0.12844 0.0
H1323 H 0.42193 0.88745 0.09179 0.0
H1324 H 0.39447 0.88254 0.1097 0.0
H1325 H 0.34804 0.82998 0.09695 0.0
H1326 H 0.29057 0.79783 0.19647 0.0
H1327 H 0.31324 0.80842 0.16444 0.0
H1328 H 0.35306 0.86339 0.1749 0.0
C1329 C 0.39563 0.87144 0.10421 0.0
C1330 C 0.3493 0.83746 0.11383 0.0
C1331 C 0.41132 0.87425 0.0938 0.0
C1332 C 0.29758 0.81159 0.19226 0.0
C1333 C 0.31053 0.81765 0.17374 0.0
C1334 C 0.35171 0.85625 0.15761 0.0
C1335 C 0.38171 0.85446 0.10792 0.0
C1336 C 0.36559 0.85119 0.12132 0.0
C1337 C 0.3205 0.83548 0.16836 0.0
C1338 C 0.33561 0.84192 0.15086 0.0
H1339 H 0.40051 0.83207 0.08486 0.0
H1340 H 0.37337 0.82718 0.10306 0.0
H1341 H 0.37887 0.87136 0.14952 0.0
H1342 H 0.30128 0.85018 0.20974 0.0
H1343 H 0.32402 0.86081 0.17731 0.0
C1344 C 0.13628 0.53877 0.09566 0.0
C1345 C 0.14946 0.55448 0.08546 0.0
C1346 C 0.14036 0.527 0.10702 0.0
C1347 C 0.17722 0.52745 0.13923 0.0
H1348 H 0.14956 0.47727 0.13629 0.0
C1349 C 0.20003 0.4862 0.19112 0.0
C1350 C 0.18762 0.47221 0.20555 0.0
C1351 C 0.19493 0.49428 0.17313 0.0
C1352 C 0.15735 0.49127 0.13741 0.0
H1353 H 0.17703 0.56955 0.07753 0.0
H1354 H 0.18405 0.549 0.09683 0.0
H1355 H 0.14126 0.49498 0.11068 0.0
H1356 H 0.16005 0.45508 0.21139 0.0
H1357 H 0.15109 0.46945 0.18024 0.0
H1358 H 0.19308 0.52398 0.16623 0.0
C1359 C 0.17064 0.54592 0.09669 0.0
C1360 C 0.1526 0.5014 0.12274 0.0
C1361 C 0.16659 0.55767 0.08548 0.0
C1362 C 0.16993 0.46581 0.20052 0.0
C1363 C 0.1648 0.47405 0.18263 0.0
C1364 C 0.18192 0.51739 0.15386 0.0
C1365 C 0.15768 0.53072 0.10833 0.0
C1366 C 0.16256 0.51963 0.12341 0.0
C1367 C 0.17727 0.48874 0.16932 0.0
C1368 C 0.17213 0.49917 0.15309 0.0
H1369 H 0.12295 0.53594 0.09595 0.0
H1370 H 0.13008 0.51542 0.11587 0.0
H1371 H 0.18493 0.54144 0.14077 0.0
H1372 H 0.21377 0.4913 0.19428 0.0
H1373 H 0.20489 0.50524 0.16272 0.0
C1374 C 0.52219 0.7152 0.19069 0.0
C1375 C 0.53604 0.71668 0.20538 0.0
C1376 C 0.51416 0.70202 0.17269 0.0
C1377 C 0.51719 0.66738 0.13729 0.0
H1378 H 0.46702 0.64502 0.13977 0.0
C1379 C 0.46978 0.59898 0.09501 0.0
C1380 C 0.45417 0.59652 0.08457 0.0
C1381 C 0.48152 0.6148 0.10648 0.0
C1382 C 0.48102 0.65124 0.13847 0.0
H1383 H 0.55295 0.70605 0.21168 0.0
H1384 H 0.53866 0.68272 0.18051 0.0
H1385 H 0.48438 0.67054 0.16544 0.0
H1386 H 0.43925 0.60914 0.07632 0.0
H1387 H 0.45975 0.63666 0.0958 0.0
H1388 H 0.51359 0.64761 0.11059 0.0
C1389 C 0.53414 0.69191 0.18272 0.0
C1390 C 0.49102 0.66594 0.15322 0.0
C1391 C 0.54233 0.70526 0.20062 0.0
C1392 C 0.45105 0.61052 0.08446 0.0
C1393 C 0.46277 0.62628 0.09577 0.0
C1394 C 0.50712 0.65255 0.12249 0.0
C1395 C 0.5196 0.68981 0.16911 0.0
C1396 C 0.50924 0.67429 0.15278 0.0
C1397 C 0.47787 0.62845 0.10766 0.0
C1398 C 0.4889 0.64437 0.12284 0.0
H1399 H 0.51717 0.72393 0.19362 0.0
H1400 H 0.50332 0.70111 0.16206 0.0
H1401 H 0.53119 0.67352 0.13641 0.0
H1402 H 0.47255 0.58844 0.09541 0.0
H1403 H 0.49301 0.61602 0.11551 0.0
C1404 C 0.13672 0.59926 0.5964 0.0
C1405 C 0.14989 0.59679 0.58607 0.0
C1406 C 0.14082 0.61499 0.60821 0.0
C1407 C 0.17758 0.65091 0.64132 0.0
H1408 H 0.15032 0.67385 0.63853 0.0
C1409 C 0.2008 0.71491 0.6936 0.0
C1410 C 0.18844 0.71666 0.70792 0.0
C1411 C 0.19562 0.70169 0.67568 0.0
C1412 C 0.158 0.66751 0.63962 0.0
H1413 H 0.17751 0.60929 0.57845 0.0
H1414 H 0.18456 0.63663 0.59856 0.0
H1415 H 0.14194 0.648 0.61252 0.0
H1416 H 0.1609 0.70643 0.71365 0.0
H1417 H 0.1518 0.68303 0.68259 0.0
H1418 H 0.1934 0.66996 0.66867 0.0
C1419 C 0.17113 0.62634 0.59815 0.0
C1420 C 0.1532 0.65272 0.62472 0.0
C1421 C 0.16706 0.61068 0.58648 0.0
C1422 C 0.17073 0.70544 0.70287 0.0
C1423 C 0.16552 0.69204 0.68504 0.0
C1424 C 0.18232 0.66557 0.65618 0.0
C1425 C 0.15816 0.62851 0.60987 0.0
C1426 C 0.16303 0.64432 0.62531 0.0
C1427 C 0.17793 0.68969 0.67179 0.0
C1428 C 0.17269 0.67416 0.65546 0.0
H1429 H 0.12336 0.5888 0.5964 0.0
H1430 H 0.13052 0.61622 0.61711 0.0
H1431 H 0.18519 0.64451 0.64279 0.0
H1432 H 0.21455 0.72348 0.69677 0.0
H1433 H 0.20553 0.7006 0.66533 0.0
C1434 C 0.29729 0.48645 0.69007 0.0
C1435 C 0.29396 0.47155 0.70382 0.0
C1436 C 0.31014 0.49323 0.6714 0.0
C1437 C 0.35126 0.49581 0.65505 0.0
H1438 H 0.34722 0.51789 0.59403 0.0
C1439 C 0.41065 0.53725 0.59084 0.0
C1440 C 0.41268 0.5534 0.5838 0.0
C1441 C 0.39497 0.52434 0.60128 0.0
C1442 C 0.34858 0.51182 0.61101 0.0
H1443 H 0.30112 0.45169 0.70795 0.0
H1444 H 0.3237 0.46363 0.67528 0.0
H1445 H 0.32157 0.50027 0.61994 0.0
H1446 H 0.39957 0.56836 0.58119 0.0
H1447 H 0.37247 0.54607 0.59945 0.0
H1448 H 0.37838 0.50789 0.64672 0.0
C1449 C 0.31635 0.47008 0.67912 0.0
C1450 C 0.33387 0.5017 0.62584 0.0
C1451 C 0.30334 0.46318 0.69771 0.0
C1452 C 0.39847 0.55608 0.5864 0.0
C1453 C 0.38285 0.54321 0.59675 0.0
C1454 C 0.366 0.50598 0.64027 0.0
C1455 C 0.3201 0.48536 0.66607 0.0
C1456 C 0.33512 0.49394 0.64839 0.0
C1457 C 0.38097 0.52729 0.60479 0.0
C1458 C 0.36493 0.51449 0.61842 0.0
H1459 H 0.29029 0.49321 0.69422 0.0
H1460 H 0.31279 0.50511 0.66193 0.0
H1461 H 0.35272 0.49017 0.67244 0.0
H1462 H 0.42133 0.53476 0.58905 0.0
H1463 H 0.3939 0.51215 0.60699 0.0
C1464 C 0.54354 0.83966 0.70004 0.0
C1465 C 0.53717 0.82195 0.70498 0.0
C1466 C 0.53536 0.84481 0.6821 0.0
C1467 C 0.49214 0.82767 0.65298 0.0
H1468 H 0.51463 0.86856 0.61021 0.0
C1469 C 0.45198 0.84324 0.58479 0.0
C1470 C 0.45513 0.86037 0.58498 0.0
C1471 C 0.46373 0.83917 0.59591 0.0
C1472 C 0.50818 0.85715 0.62215 0.0
H1473 H 0.5182 0.79582 0.69348 0.0
H1474 H 0.50436 0.80475 0.66183 0.0
H1475 H 0.53229 0.8602 0.63581 0.0
H1476 H 0.47361 0.88683 0.59573 0.0
H1477 H 0.49413 0.87965 0.6155 0.0
H1478 H 0.46812 0.82466 0.6398 0.0
C1479 C 0.51525 0.81469 0.67235 0.0
C1480 C 0.51829 0.85236 0.63682 0.0
C1481 C 0.52327 0.80956 0.6904 0.0
C1482 C 0.47081 0.87351 0.59528 0.0
C1483 C 0.48259 0.8694 0.60655 0.0
C1484 C 0.48211 0.8324 0.63836 0.0
C1485 C 0.52075 0.83235 0.66863 0.0
C1486 C 0.51036 0.83751 0.65237 0.0
C1487 C 0.4789 0.85208 0.60767 0.0
C1488 C 0.48996 0.84715 0.62269 0.0
H1489 H 0.55421 0.84952 0.71103 0.0
H1490 H 0.53993 0.85852 0.67979 0.0
H1491 H 0.48553 0.81646 0.66525 0.0
H1492 H 0.44012 0.83283 0.57675 0.0
H1493 H 0.46068 0.82576 0.59589 0.0
C1494 C 0.27908 0.49813 0.25236 0.0
C1495 C 0.26517 0.48097 0.25252 0.0
C1496 C 0.29485 0.50221 0.24106 0.0
C1497 C 0.32137 0.48426 0.21496 0.0
H1498 H 0.33891 0.52453 0.17108 0.0
C1499 C 0.37404 0.5015 0.13686 0.0
C1500 C 0.38525 0.51918 0.13162 0.0
C1501 C 0.36072 0.49638 0.15482 0.0
C1502 C 0.33444 0.51343 0.18356 0.0
H1503 H 0.25724 0.45445 0.24218 0.0
H1504 H 0.28485 0.46163 0.22211 0.0
H1505 H 0.31339 0.51638 0.19675 0.0
H1506 H 0.39221 0.54535 0.1426 0.0
H1507 H 0.36948 0.53651 0.17428 0.0
H1508 H 0.34247 0.48129 0.20133 0.0
C1509 C 0.28355 0.47191 0.23092 0.0
C1510 C 0.31974 0.50873 0.19831 0.0
C1511 C 0.26772 0.46781 0.24237 0.0
C1512 C 0.38363 0.53162 0.14591 0.0
C1513 C 0.3705 0.52653 0.16397 0.0
C1514 C 0.33621 0.48902 0.20017 0.0
C1515 C 0.29711 0.48925 0.22946 0.0
C1516 C 0.31302 0.49414 0.21427 0.0
C1517 C 0.35847 0.50887 0.16801 0.0
C1518 C 0.34295 0.50373 0.18435 0.0
H1519 H 0.27763 0.50857 0.26027 0.0
H1520 H 0.30516 0.51564 0.2408 0.0
H1521 H 0.31655 0.47297 0.22713 0.0
H1522 H 0.37493 0.4916 0.1261 0.0
H1523 H 0.35168 0.48267 0.15737 0.0
C1524 C 0.51317 0.78507 0.24911 0.0
C1525 C 0.53006 0.78774 0.25143 0.0
C1526 C 0.51035 0.7979 0.23874 0.0
C1527 C 0.53034 0.83483 0.19472 0.0
H1528 H 0.49192 0.8408 0.21589 0.0
C1529 C 0.5099 0.87723 0.13745 0.0
C1530 C 0.49208 0.8688 0.13177 0.0
C1531 C 0.51622 0.87048 0.15597 0.0
C1532 C 0.50272 0.8393 0.20976 0.0
H1533 H 0.55732 0.8063 0.24562 0.0
H1534 H 0.5524 0.82883 0.22762 0.0
H1535 H 0.5002 0.82333 0.24169 0.0
H1536 H 0.46685 0.84725 0.14207 0.0
H1537 H 0.4778 0.83562 0.17424 0.0
H1538 H 0.53253 0.85041 0.16242 0.0
C1539 C 0.54131 0.81669 0.23358 0.0
C1540 C 0.50745 0.82926 0.22452 0.0
C1541 C 0.54414 0.80383 0.24405 0.0
C1542 C 0.48065 0.85404 0.14589 0.0
C1543 C 0.48693 0.84742 0.16449 0.0
C1544 C 0.52563 0.84492 0.17999 0.0
C1545 C 0.52435 0.81375 0.23039 0.0
C1546 C 0.521 0.82649 0.21681 0.0
C1547 C 0.50482 0.85532 0.16938 0.0
C1548 C 0.51146 0.84687 0.18697 0.0
H1549 H 0.50202 0.77284 0.2546 0.0
H1550 H 0.4971 0.79505 0.23629 0.0
H1551 H 0.54072 0.83284 0.18804 0.0
H1552 H 0.51905 0.88861 0.12691 0.0
H1553 H 0.53005 0.87695 0.15947 0.0
C1554 C 0.22817 0.73039 0.2507 0.0
C1555 C 0.22509 0.74441 0.25082 0.0
C1556 C 0.21626 0.71459 0.23967 0.0
C1557 C 0.17147 0.68827 0.21453 0.0
H1558 H 0.19333 0.66966 0.17096 0.0
C1559 C 0.13496 0.63497 0.13759 0.0
C1560 C 0.14115 0.62349 0.13264 0.0
C1561 C 0.14339 0.64841 0.15532 0.0
C1562 C 0.18694 0.67444 0.18336 0.0
H1563 H 0.20662 0.75252 0.24063 0.0
H1564 H 0.18583 0.72487 0.221 0.0
H1565 H 0.2112 0.69542 0.19587 0.0
H1566 H 0.16003 0.61617 0.14393 0.0
H1567 H 0.1743 0.63912 0.17521 0.0
H1568 H 0.14712 0.66723 0.20152 0.0
C1569 C 0.19743 0.7261 0.22965 0.0
C1570 C 0.19724 0.68928 0.19767 0.0
C1571 C 0.20936 0.74196 0.24083 0.0
C1572 C 0.1551 0.62495 0.14703 0.0
C1573 C 0.16337 0.6382 0.16486 0.0
C1574 C 0.1611 0.6733 0.20016 0.0
C1575 C 0.20101 0.7124 0.2283 0.0
C1576 C 0.18968 0.69637 0.21352 0.0
C1577 C 0.15806 0.65051 0.16854 0.0
C1578 C 0.16874 0.66617 0.18446 0.0
H1579 H 0.24005 0.73175 0.25849 0.0
H1580 H 0.21923 0.70418 0.2395 0.0
H1581 H 0.16524 0.69338 0.22662 0.0
H1582 H 0.12426 0.63421 0.12675 0.0
H1583 H 0.13897 0.65766 0.15762 0.0
C1584 C 0.1388 0.18227 0.31898 0.0
C1585 C 0.15063 0.19837 0.32982 0.0
C1586 C 0.14355 0.17596 0.29795 0.0
C1587 C 0.1754 0.18983 0.24558 0.0
H1588 H 0.16588 0.14227 0.24685 0.0
C1589 C 0.21051 0.167 0.17846 0.0
C1590 C 0.20075 0.15077 0.16661 0.0
C1591 C 0.20343 0.17194 0.19817 0.0
C1592 C 0.16844 0.15551 0.24605 0.0
H1593 H 0.17656 0.22065 0.32657 0.0
H1594 H 0.18477 0.2097 0.29002 0.0
H1595 H 0.15469 0.15275 0.28071 0.0
H1596 H 0.17603 0.12674 0.16685 0.0
H1597 H 0.16361 0.13545 0.20131 0.0
H1598 H 0.18923 0.19269 0.21111 0.0
C1599 C 0.1718 0.20196 0.29766 0.0
C1600 C 0.16202 0.16151 0.26542 0.0
C1601 C 0.16712 0.20821 0.31873 0.0
C1602 C 0.18391 0.13933 0.17558 0.0
C1603 C 0.1768 0.1443 0.19535 0.0
C1604 C 0.18178 0.18384 0.22625 0.0
C1605 C 0.16016 0.18569 0.28719 0.0
C1606 C 0.16567 0.17882 0.26559 0.0
C1607 C 0.18638 0.16081 0.20654 0.0
C1608 C 0.17865 0.16671 0.22646 0.0
H1609 H 0.126 0.17435 0.32708 0.0
H1610 H 0.13424 0.16345 0.29014 0.0
H1611 H 0.17816 0.20314 0.24491 0.0
H1612 H 0.22357 0.17609 0.17223 0.0
H1613 H 0.21132 0.18457 0.20676 0.0
C1614 C 0.80825 0.97115 0.33264 0.0
C1615 C 0.81142 0.95732 0.33625 0.0
C1616 C 0.8159 0.98269 0.31249 0.0
C1617 C 0.83182 0.98638 0.24865 0.0
H1618 H 0.8559 0.03604 0.26099 0.0
C1619 C 0.84274 0.03708 0.1721 0.0
C1620 C 0.85972 0.05109 0.16922 0.0
C1621 C 0.83848 0.02562 0.19245 0.0
C1622 C 0.84934 0.02221 0.25731 0.0
H1623 H 0.82492 0.94462 0.32129 0.0
H1624 H 0.83787 0.9646 0.28533 0.0
H1625 H 0.84544 0.01582 0.29691 0.0
H1626 H 0.8855 0.06421 0.18572 0.0
H1627 H 0.87781 0.04437 0.22197 0.0
H1628 H 0.83508 0.99277 0.20903 0.0
C1629 C 0.82963 0.96654 0.29846 0.0
C1630 C 0.8433 0.01068 0.27779 0.0
C1631 C 0.82224 0.95515 0.319 0.0
C1632 C 0.8723 0.05354 0.18744 0.0
C1633 C 0.86793 0.04223 0.20814 0.0
C1634 C 0.83757 0.99791 0.22816 0.0
C1635 C 0.82663 0.9805 0.2952 0.0
C1636 C 0.83432 0.99266 0.27362 0.0
C1637 C 0.85101 0.02806 0.21064 0.0
C1638 C 0.8462 0.01592 0.23232 0.0
H1639 H 0.80007 0.97326 0.34566 0.0
H1640 H 0.81324 0.99324 0.31022 0.0
H1641 H 0.82486 0.97255 0.24497 0.0
H1642 H 0.83276 0.03475 0.15833 0.0
H1643 H 0.8253 0.0149 0.19412 0.0
C1644 C 0.96451 0.80035 0.18075 0.0
C1645 C 0.95693 0.80965 0.17076 0.0
C1646 C 0.97651 0.80722 0.20052 0.0
C1647 C 0.99326 0.84011 0.25156 0.0
H1648 H 0.0335 0.83426 0.24631 0.0
C1649 C 0.05015 0.87046 0.32372 0.0
C1650 C 0.0556 0.85909 0.33276 0.0
C1651 C 0.03886 0.86582 0.30295 0.0
C1652 C 0.0223 0.83593 0.24813 0.0
H1653 H 0.95561 0.83325 0.17438 0.0
H1654 H 0.97671 0.8453 0.20889 0.0
H1655 H 0.01172 0.82314 0.21286 0.0
H1656 H 0.05387 0.83415 0.32658 0.0
H1657 H 0.03434 0.82615 0.29052 0.0
H1658 H 1.00389 0.85285 0.287 0.0
C1659 C 0.97326 0.83263 0.20146 0.0
C1660 C 0.00978 0.82951 0.229 0.0
C1661 C 0.96119 0.82573 0.18165 0.0
C1662 C 0.04993 0.84323 0.32015 0.0
C1663 C 0.03879 0.83867 0.29936 0.0
C1664 C 1.00584 0.84659 0.27073 0.0
C1665 C 0.9813 0.82359 0.21078 0.0
C1666 C 0.99497 0.83126 0.23066 0.0
C1667 C 0.03296 0.8498 0.29068 0.0
C1668 C 0.02036 0.84432 0.26939 0.0
H1669 H 0.96144 0.78786 0.17298 0.0
H1670 H 0.98215 0.79972 0.20765 0.0
H1671 H 0.98195 0.84159 0.2535 0.0
H1672 H 0.05425 0.88276 0.33303 0.0
H1673 H 0.03472 0.87473 0.29654 0.0
C1674 C 0.84539 0.80025 0.68194 0.0
C1675 C 0.86108 0.81032 0.66887 0.0
C1676 C 0.8412 0.80693 0.703 0.0
C1677 C 0.84986 0.84792 0.73217 0.0
H1678 H 0.8267 0.81838 0.79003 0.0
C1679 C 0.82887 0.87102 0.8221 0.0
C1680 C 0.81262 0.85909 0.83244 0.0
C1681 C 0.83598 0.86608 0.80227 0.0
C1682 C 0.83302 0.82675 0.77392 0.0
H1683 H 0.88484 0.83527 0.66803 0.0
H1684 H 0.87749 0.84696 0.70501 0.0
H1685 H 0.83756 0.80779 0.75613 0.0
H1686 H 0.79078 0.83288 0.82922 0.0
H1687 H 0.80302 0.82444 0.79462 0.0
H1688 H 0.84506 0.8668 0.74991 0.0
C1689 C 0.86841 0.8339 0.69875 0.0
C1690 C 0.83928 0.8207 0.75453 0.0
C1691 C 0.87266 0.82716 0.6777 0.0
C1692 C 0.80339 0.84237 0.82191 0.0
C1693 C 0.81047 0.83746 0.80217 0.0
C1694 C 0.84357 0.854 0.75163 0.0
C1695 C 0.85257 0.82388 0.71152 0.0
C1696 C 0.84749 0.83107 0.7332 0.0
C1697 C 0.82698 0.84913 0.79243 0.0
C1698 C 0.83478 0.84333 0.77248 0.0
H1699 H 0.83615 0.78724 0.67569 0.0
H1700 H 0.8288 0.79894 0.71219 0.0
H1701 H 0.85601 0.85617 0.71588 0.0
H1702 H 0.83633 0.884 0.82979 0.0
H1703 H 0.84874 0.87536 0.7952 0.0
C1704 C 0.20876 0.04489 0.67974 0.0
C1705 C 0.19952 0.05225 0.66883 0.0
C1706 C 0.20147 0.0327 0.69921 0.0
C1707 C 0.16723 0.01502 0.74819 0.0
H1708 H 0.1743 0.97547 0.74417 0.0
C1709 C 0.13697 0.95812 0.82049 0.0
C1710 C 0.14854 0.95311 0.83015 0.0
C1711 C 0.14161 0.96931 0.79959 0.0
C1712 C 0.17227 0.98647 0.74563 0.0
H1713 H 0.17554 0.05298 0.67052 0.0
H1714 H 0.16274 0.03155 0.70458 0.0
H1715 H 0.1857 0.99736 0.71086 0.0
H1716 H 0.17385 0.95553 0.82492 0.0
H1717 H 0.18186 0.9749 0.78867 0.0
H1718 H 0.15391 0.00411 0.7832 0.0
C1719 C 0.1757 0.03531 0.69806 0.0
C1720 C 0.17885 0.99905 0.72659 0.0
C1721 C 0.18302 0.04758 0.67852 0.0
C1722 C 0.16461 0.95912 0.81801 0.0
C1723 C 0.16918 0.97017 0.7971 0.0
C1724 C 0.16061 1.00238 0.76729 0.0
C1725 C 0.18472 0.02749 0.70826 0.0
C1726 C 0.1767 0.01365 0.72786 0.0
C1727 C 0.15784 0.97557 0.78781 0.0
C1728 C 0.16334 0.98813 0.76643 0.0
H1729 H 0.22156 0.04829 0.67293 0.0
H1730 H 0.20895 0.02724 0.70706 0.0
H1731 H 0.16542 0.02614 0.74979 0.0
H1732 H 0.1245 0.95375 0.82942 0.0
H1733 H 0.13254 0.97313 0.79271 0.0
C1734 C 0.96277 0.164 0.68373 0.0
C1735 C 0.95703 0.14819 0.67095 0.0
C1736 C 0.97362 0.16826 0.70482 0.0
C1737 C 1.00566 0.15948 0.73476 0.0
H1738 H 0.99935 0.18321 0.79191 0.0
C1739 C 0.04951 0.181 0.82506 0.0
C1740 C 0.05397 0.19741 0.83489 0.0
C1741 C 0.0375 0.17375 0.8052 0.0
C1742 C 1.00138 0.17672 0.776 0.0
H1743 H 0.95801 0.12432 0.67063 0.0
H1744 H 0.97703 0.13181 0.70768 0.0
H1745 H 0.97799 0.17221 0.7579 0.0
H1746 H 0.04986 0.21937 0.83073 0.0
H1747 H 0.02922 0.20687 0.79612 0.0
H1748 H 0.02924 0.16424 0.75284 0.0
C1749 C 0.97316 0.14092 0.70117 0.0
C1750 C 0.98912 0.17039 0.75654 0.0
C1751 C 0.96217 0.13659 0.68007 0.0
C1752 C 0.04663 0.20664 0.82383 0.0
C1753 C 0.03468 0.19941 0.80408 0.0
C1754 C 0.01798 0.16584 0.7543 0.0
C1755 C 0.97907 0.15686 0.71367 0.0
C1756 C 0.99127 0.16199 0.73546 0.0
C1757 C 0.02971 0.18276 0.79484 0.0
C1758 C 0.01614 0.17484 0.77488 0.0
H1759 H 0.95909 0.17326 0.67724 0.0
H1760 H 0.97812 0.18074 0.71379 0.0
H1761 H 0.00775 0.15318 0.71867 0.0
H1762 H 0.05491 0.17354 0.83315 0.0
H1763 H 0.03391 0.16088 0.79851 0.0
C1764 C 0.80584 0.51375 0.65694 0.0
C1765 C 0.81782 0.53016 0.66676 0.0
C1766 C 0.81062 0.50639 0.63727 0.0
C1767 C 0.84972 0.50903 0.60861 0.0
H1768 H 0.81997 0.48556 0.55109 0.0
C1769 C 0.87577 0.49621 0.51659 0.0
C1770 C 0.86568 0.48046 0.50369 0.0
C1771 C 0.86918 0.50045 0.53768 0.0
C1772 C 0.82831 0.49183 0.56724 0.0
H1773 H 0.84399 0.55198 0.6628 0.0
H1774 H 0.85217 0.53929 0.62852 0.0
H1775 H 0.80953 0.49676 0.58504 0.0
H1776 H 0.84077 0.45664 0.50319 0.0
H1777 H 0.82922 0.4641 0.54025 0.0
H1778 H 0.86859 0.50438 0.59078 0.0
C1779 C 0.83921 0.53192 0.63634 0.0
C1780 C 0.82234 0.49827 0.58666 0.0
C1781 C 0.83446 0.53926 0.6559 0.0
C1782 C 0.8489 0.46887 0.51273 0.0
C1783 C 0.84224 0.47319 0.53382 0.0
C1784 C 0.85567 0.50262 0.58928 0.0
C1785 C 0.82748 0.51528 0.6271 0.0
C1786 C 0.83313 0.50726 0.6073 0.0
C1787 C 0.85228 0.48909 0.54642 0.0
C1788 C 0.84518 0.49425 0.56812 0.0
H1789 H 0.79292 0.50638 0.66488 0.0
H1790 H 0.8013 0.49353 0.63058 0.0
H1791 H 0.85819 0.5155 0.62457 0.0
H1792 H 0.88874 0.50546 0.51018 0.0
H1793 H 0.87718 0.5129 0.54673 0.0
C1794 C 0.49631 0.29358 0.65616 0.0
C1795 C 0.47946 0.28821 0.66502 0.0
C1796 C 0.50306 0.30475 0.63526 0.0
C1797 C 0.48987 0.32108 0.57991 0.0
H1798 H 0.53586 0.36151 0.5851 0.0
C1799 C 0.51138 0.37915 0.51354 0.0
C1800 C 0.52813 0.38682 0.50305 0.0
C1801 C 0.50651 0.36704 0.53311 0.0
C1802 C 0.52308 0.35018 0.58322 0.0
H1803 H 0.45634 0.29001 0.65839 0.0
H1804 H 0.46803 0.30933 0.62215 0.0
H1805 H 0.52525 0.33961 0.61871 0.0
H1806 H 0.55311 0.38819 0.50562 0.0
H1807 H 0.54453 0.36691 0.53991 0.0
H1808 H 0.48756 0.33163 0.54467 0.0
C1809 C 0.47604 0.30489 0.6312 0.0
C1810 C 0.51702 0.33762 0.60244 0.0
C1811 C 0.46937 0.29387 0.65211 0.0
C1812 C 0.54011 0.38255 0.51329 0.0
C1813 C 0.53521 0.37037 0.53295 0.0
C1814 C 0.49591 0.33358 0.56076 0.0
C1815 C 0.49301 0.31062 0.62267 0.0
C1816 C 0.50021 0.32309 0.60121 0.0
C1817 C 0.51823 0.36222 0.54271 0.0
C1818 C 0.51245 0.34845 0.56241 0.0
H1819 H 0.50444 0.28949 0.6657 0.0
H1820 H 0.51613 0.30883 0.62898 0.0
H1821 H 0.47699 0.30987 0.57815 0.0
H1822 H 0.50184 0.38224 0.50631 0.0
H1823 H 0.49346 0.36133 0.54062 0.0
C1824 C 0.62991 0.1616 0.50973 0.0
C1825 C 0.62509 0.14502 0.50022 0.0
C1826 C 0.64206 0.16886 0.52942 0.0
C1827 C 0.67787 0.16536 0.55867 0.0
H1828 H 0.6722 0.18959 0.6157 0.0
C1829 C 0.71652 0.17788 0.6509 0.0
C1830 C 0.72245 0.19374 0.66362 0.0
C1831 C 0.70571 0.17372 0.62978 0.0
C1832 C 0.6741 0.1831 0.59969 0.0
H1833 H 0.62874 0.1228 0.50477 0.0
H1834 H 0.64962 0.13532 0.53906 0.0
H1835 H 0.65063 0.17867 0.58164 0.0
H1836 H 0.7219 0.21783 0.66375 0.0
H1837 H 0.70296 0.21053 0.62663 0.0
H1838 H 0.70116 0.16953 0.57674 0.0
C1839 C 0.64434 0.14289 0.53099 0.0
C1840 C 0.66173 0.17682 0.58021 0.0
C1841 C 0.63224 0.13566 0.51142 0.0
C1842 C 0.71757 0.20551 0.65437 0.0
C1843 C 0.70664 0.20129 0.63323 0.0
C1844 C 0.69019 0.17161 0.57807 0.0
C1845 C 0.64965 0.15969 0.53992 0.0
C1846 C 0.66331 0.16757 0.55975 0.0
C1847 C 0.7005 0.18529 0.62081 0.0
C1848 C 0.68829 0.18025 0.59905 0.0
H1849 H 0.62466 0.16917 0.50153 0.0
H1850 H 0.64591 0.18185 0.53588 0.0
H1851 H 0.6797 0.15866 0.54286 0.0
H1852 H 0.71999 0.16849 0.65749 0.0
H1853 H 0.70105 0.16119 0.62087 0.0
C1854 C 0.51302 0.13343 0.01771 0.0
C1855 C 0.52883 0.14329 0.00482 0.0
C1856 C 0.50903 0.14012 0.03895 0.0
C1857 C 0.51879 0.18116 0.06921 0.0
H1858 H 0.49451 0.15113 0.12615 0.0
C1859 C 0.49791 0.20398 0.15963 0.0
C1860 C 0.48132 0.1923 0.16922 0.0
C1861 C 0.50503 0.19904 0.13983 0.0
C1862 C 0.50116 0.15965 0.11031 0.0
H1863 H 0.553 0.16788 0.00448 0.0
H1864 H 0.54599 0.17959 0.0418 0.0
H1865 H 0.50513 0.14047 0.09204 0.0
H1866 H 0.45897 0.1665 0.16475 0.0
H1867 H 0.47128 0.15803 0.13028 0.0
H1868 H 0.51457 0.20028 0.08748 0.0
C1869 C 0.53666 0.16669 0.03525 0.0
C1870 C 0.50728 0.15355 0.09079 0.0
C1871 C 0.54072 0.15993 0.014 0.0
C1872 C 0.47183 0.1758 0.15803 0.0
C1873 C 0.47894 0.17088 0.13836 0.0
C1874 C 0.51266 0.18729 0.08883 0.0
C1875 C 0.52071 0.15687 0.04786 0.0
C1876 C 0.51586 0.16409 0.06976 0.0
C1877 C 0.49573 0.1823 0.12932 0.0
C1878 C 0.50346 0.17646 0.10933 0.0
H1879 H 0.50355 0.12057 0.01119 0.0
H1880 H 0.49654 0.1323 0.04799 0.0
H1881 H 0.52524 0.18956 0.05317 0.0
H1882 H 0.50557 0.21679 0.16782 0.0
H1883 H 0.51802 0.20812 0.1333 0.0
C1884 C 0.8487 0.38039 0.01199 0.0
C1885 C 0.86522 0.38526 0.00218 0.0
C1886 C 0.84163 0.36826 0.03176 0.0
C1887 C 0.84554 0.33255 0.06056 0.0
H1888 H 0.82129 0.33783 0.11791 0.0
C1889 C 0.8331 0.29333 0.15226 0.0
C1890 C 0.8172 0.28724 0.16494 0.0
C1891 C 0.83728 0.30432 0.13133 0.0
C1892 C 0.8278 0.33604 0.10181 0.0
H1893 H 0.88756 0.38177 0.00629 0.0
H1894 H 0.87538 0.36093 0.04071 0.0
H1895 H 0.83207 0.35954 0.08402 0.0
H1896 H 0.79307 0.28772 0.16522 0.0
H1897 H 0.80041 0.30697 0.12845 0.0
H1898 H 0.84152 0.30923 0.07835 0.0
C1899 C 0.8677 0.36615 0.03282 0.0
C1900 C 0.83399 0.34849 0.08243 0.0
C1901 C 0.87473 0.37822 0.01317 0.0
C1902 C 0.80542 0.29216 0.15586 0.0
C1903 C 0.80966 0.30328 0.13493 0.0
C1904 C 0.83937 0.32015 0.07985 0.0
C1905 C 0.85094 0.36075 0.04202 0.0
C1906 C 0.84323 0.34705 0.06184 0.0
C1907 C 0.8257 0.30955 0.12253 0.0
C1908 C 0.83072 0.3219 0.10094 0.0
H1909 H 0.84101 0.38555 0.00395 0.0
H1910 H 0.82868 0.36435 0.03842 0.0
H1911 H 0.85222 0.33082 0.04464 0.0
H1912 H 0.8425 0.28983 0.15871 0.0
H1913 H 0.84983 0.30909 0.12244 0.0
C1914 C 0.63023 0.47314 0.0085 0.0
C1915 C 0.62505 0.48468 0.99924 0.0
C1916 C 0.64232 0.47812 0.02828 0.0
C1917 C 0.67722 0.51765 0.05876 0.0
H1918 H 0.67272 0.48677 0.11383 0.0
C1919 C 0.71608 0.54224 0.15136 0.0
C1920 C 0.72256 0.53235 0.16274 0.0
C1921 C 0.70519 0.53597 0.13025 0.0
C1922 C 0.67428 0.49546 0.09837 0.0
H1923 H 0.62795 0.51021 0.00431 0.0
H1924 H 0.64869 0.5187 0.03885 0.0
H1925 H 0.6511 0.4763 0.07989 0.0
H1926 H 0.72291 0.50818 0.16048 0.0
H1927 H 0.70383 0.49721 0.12346 0.0
H1928 H 0.70022 0.53688 0.07735 0.0
C1929 C 0.64377 0.50597 0.03049 0.0
C1930 C 0.66189 0.48947 0.07895 0.0
C1931 C 0.63176 0.50104 0.01077 0.0
C1932 C 0.71816 0.51615 0.15215 0.0
C1933 C 0.70714 0.5098 0.13107 0.0
C1934 C 0.68955 0.52363 0.07814 0.0
C1935 C 0.64946 0.49473 0.03917 0.0
C1936 C 0.66306 0.5006 0.05914 0.0
C1937 C 0.70043 0.5196 0.12002 0.0
C1938 C 0.68809 0.51271 0.09838 0.0
H1939 H 0.62534 0.46045 1.00001 0.0
H1940 H 0.64647 0.46916 0.03448 0.0
H1941 H 0.67876 0.52644 0.04345 0.0
H1942 H 0.71919 0.55477 0.15899 0.0
H1943 H 0.70009 0.54376 0.12237 0.0
C1944 C 0.49756 0.87238 0.9868 0.0
C1945 C 0.48204 0.86209 1.00015 0.0
C1946 C 0.5018 0.86581 0.96568 0.0
C1947 C 0.49378 0.82504 0.93636 0.0
H1948 H 0.51633 0.85485 0.87849 0.0
C1949 C 0.51547 0.80302 0.84589 0.0
C1950 C 0.53174 0.81519 0.83586 0.0
C1951 C 0.5081 0.80764 0.86575 0.0
C1952 C 0.51016 0.84639 0.89459 0.0
H1953 H 0.45865 0.83685 0.00144 0.0
H1954 H 0.4661 0.82536 0.96431 0.0
H1955 H 0.5052 0.865 0.91259 0.0
H1956 H 0.55331 0.84152 0.83962 0.0
H1957 H 0.54058 0.84942 0.87419 0.0
H1958 H 0.49899 0.8065 0.91834 0.0
C1959 C 0.47501 0.8385 0.97041 0.0
C1960 C 0.50376 0.85221 0.91411 0.0
C1961 C 0.4707 0.84513 0.99156 0.0
C1962 C 0.54069 0.83185 0.84668 0.0
C1963 C 0.53334 0.83644 0.86642 0.0
C1964 C 0.5002 0.81919 0.91674 0.0
C1965 C 0.49067 0.84876 0.95733 0.0
C1966 C 0.49581 0.84175 0.93547 0.0
C1967 C 0.51683 0.82451 0.87588 0.0
C1968 C 0.50878 0.82997 0.8959 0.0
H1969 H 0.50662 0.8855 0.99286 0.0
H1970 H 0.51408 0.87399 0.95627 0.0
H1971 H 0.48783 0.81672 0.95265 0.0
H1972 H 0.50822 0.79009 0.83798 0.0
H1973 H 0.49534 0.79817 0.87262 0.0
C1974 C 0.20765 0.71541 0.84869 0.0
C1975 C 0.19604 0.72053 0.83953 0.0
C1976 C 0.20326 0.70433 0.8697 0.0
C1977 C 0.17347 0.68789 0.92475 0.0
H1978 H 0.17981 0.6479 0.92057 0.0
C1979 C 0.13688 0.62976 0.99096 0.0
C1980 C 0.14606 0.62236 0.00198 0.0
C1981 C 0.14422 0.64189 0.97143 0.0
C1982 C 0.17815 0.65912 0.92216 0.0
H1983 H 0.17093 0.71839 0.84572 0.0
H1984 H 0.16335 0.69921 0.88212 0.0
H1985 H 0.19105 0.66967 0.88677 0.0
H1986 H 0.16998 0.62152 1.00042 0.0
H1987 H 0.18285 0.64282 0.96617 0.0
H1988 H 0.16041 0.67732 0.95987 0.0
C1989 C 0.17587 0.70378 0.87323 0.0
C1990 C 0.18462 0.6716 0.90284 0.0
C1991 C 0.18019 0.71471 0.85223 0.0
C1992 C 0.16255 0.62695 0.99234 0.0
C1993 C 0.16992 0.63914 0.97271 0.0
C1994 C 0.16703 0.67546 0.94399 0.0
C1995 C 0.18726 0.69831 0.88209 0.0
C1996 C 0.18204 0.68596 0.9037 0.0
C1997 C 0.16095 0.64699 0.9624 0.0
C1998 C 0.16898 0.66074 0.94269 0.0
H1999 H 0.21995 0.71963 0.83932 0.0
H2000 H 0.21236 0.70046 0.87622 0.0
H2001 H 0.17158 0.69898 0.92624 0.0
H2002 H 0.12409 0.62643 0.99772 0.0
H2003 H 0.13679 0.64738 0.96351 0.0
C2004 C 0.37947 0.50864 0.98962 0.0
C2005 C 0.3868 0.52524 1.00055 0.0
C2006 C 0.3676 0.50387 0.96975 0.0
C2007 C 0.35122 0.5207 0.91941 0.0
H2008 H 0.31118 0.47433 0.92283 0.0
C2009 C 0.2958 0.49416 0.84455 0.0
C2010 C 0.29058 0.47736 0.83558 0.0
C2011 C 0.30672 0.50082 0.86572 0.0
C2012 C 0.32233 0.48728 0.92152 0.0
H2013 H 0.38777 0.55006 0.99848 0.0
H2014 H 0.36692 0.54166 0.96363 0.0
H2015 H 0.33235 0.48473 0.9571 0.0
H2016 H 0.29247 0.45428 0.84221 0.0
H2017 H 0.31139 0.46584 0.87887 0.0
H2018 H 0.34121 0.5231 0.88356 0.0
C2019 C 0.37046 0.53238 0.97051 0.0
C2020 C 0.33448 0.49323 0.94113 0.0
C2021 C 0.38238 0.53718 0.99049 0.0
C2022 C 0.29621 0.46726 0.84857 0.0
C2023 C 0.307 0.47386 0.86972 0.0
C2024 C 0.33902 0.51472 0.89971 0.0
C2025 C 0.3627 0.51555 0.96025 0.0
C2026 C 0.34925 0.50987 0.9401 0.0
C2027 C 0.3125 0.49075 0.87845 0.0
C2028 C 0.3246 0.49782 0.90035 0.0
H2029 H 0.38266 0.49915 0.99669 0.0
H2030 H 0.36217 0.49094 0.96188 0.0
H2031 H 0.36249 0.53355 0.91801 0.0
H2032 H 0.29173 0.50229 0.83496 0.0
H2033 H 0.31063 0.51383 0.87212 0.0
C2034 C 0.13559 0.51128 0.48586 0.0
C2035 C 0.14562 0.52703 0.49878 0.0
C2036 C 0.14227 0.50705 0.46485 0.0
C2037 C 0.18325 0.51574 0.43559 0.0
H2038 H 0.15353 0.492 0.37816 0.0
C2039 C 0.20591 0.49384 0.34602 0.0
C2040 C 0.19396 0.47739 0.33627 0.0
C2041 C 0.20111 0.50119 0.36567 0.0
C2042 C 0.16196 0.4985 0.39415 0.0
H2043 H 0.17051 0.55086 0.49942 0.0
H2044 H 0.18221 0.54343 0.46251 0.0
H2045 H 0.14302 0.50312 0.41181 0.0
H2046 H 0.16784 0.4555 0.34035 0.0
H2047 H 0.15962 0.4682 0.37457 0.0
H2048 H 0.20211 0.51086 0.41795 0.0
C2049 C 0.16918 0.53433 0.46885 0.0
C2050 C 0.15595 0.50491 0.4134 0.0
C2051 C 0.16243 0.53864 0.48986 0.0
C2052 C 0.17735 0.46825 0.34719 0.0
C2053 C 0.17257 0.47559 0.36672 0.0
C2054 C 0.18929 0.50931 0.41625 0.0
C2055 C 0.15919 0.51843 0.45622 0.0
C2056 C 0.16638 0.51329 0.4346 0.0
C2057 C 0.18425 0.49227 0.37587 0.0
C2058 C 0.17855 0.5003 0.39558 0.0
H2059 H 0.1226 0.50202 0.49218 0.0
H2060 H 0.13431 0.4946 0.45578 0.0
H2061 H 0.19155 0.52203 0.45178 0.0
H2062 H 0.21881 0.50123 0.33803 0.0
H2063 H 0.21039 0.51408 0.3723 0.0
C2064 C 0.4711 0.6275 0.49107 0.0
C2065 C 0.48296 0.62286 0.50074 0.0
C2066 C 0.47593 0.6396 0.4713 0.0
C2067 C 0.51515 0.67562 0.44215 0.0
H2068 H 0.48536 0.66955 0.38478 0.0
C2069 C 0.54142 0.71427 0.34997 0.0
C2070 C 0.53148 0.72011 0.33708 0.0
C2071 C 0.53472 0.70342 0.37105 0.0
C2072 C 0.49372 0.67156 0.40088 0.0
H2073 H 0.50893 0.62676 0.49641 0.0
H2074 H 0.51719 0.64756 0.462 0.0
H2075 H 0.47475 0.64803 0.41894 0.0
H2076 H 0.50671 0.7193 0.33657 0.0
H2077 H 0.49498 0.70027 0.37361 0.0
H2078 H 0.53419 0.69896 0.42409 0.0
C2079 C 0.5043 0.64217 0.46999 0.0
C2080 C 0.48765 0.65922 0.42041 0.0
C2081 C 0.4995 0.63013 0.48964 0.0
C2082 C 0.51472 0.71506 0.34609 0.0
C2083 C 0.50796 0.70407 0.36718 0.0
C2084 C 0.52119 0.68791 0.42271 0.0
C2085 C 0.49272 0.64731 0.4609 0.0
C2086 C 0.49845 0.66094 0.441 0.0
C2087 C 0.51787 0.69806 0.3798 0.0
C2088 C 0.51069 0.68587 0.4016 0.0
H2089 H 0.45825 0.62215 0.49921 0.0
H2090 H 0.46672 0.64331 0.46472 0.0
H2091 H 0.52364 0.67755 0.45806 0.0
H2092 H 0.55436 0.71788 0.34358 0.0
H2093 H 0.54262 0.69885 0.3801 0.0
C2094 C 0.3799 0.87297 0.49062 0.0
C2095 C 0.38742 0.86387 0.50154 0.0
C2096 C 0.36793 0.86568 0.4709 0.0
C2097 C 0.35157 0.83227 0.42091 0.0
H2098 H 0.31124 0.83807 0.42466 0.0
C2099 C 0.29591 0.80275 0.34649 0.0
C2100 C 0.29055 0.81422 0.33751 0.0
C2101 C 0.30687 0.80713 0.36762 0.0
C2102 C 0.32246 0.83641 0.42326 0.0
H2103 H 0.38864 0.84015 0.49962 0.0
H2104 H 0.36762 0.82738 0.46503 0.0
H2105 H 0.33257 0.84916 0.45871 0.0
H2106 H 0.2922 0.83908 0.34408 0.0
H2107 H 0.3112 0.84664 0.38068 0.0
H2108 H 0.34147 0.81968 0.38519 0.0
C2109 C 0.37108 0.8402 0.4718 0.0
C2110 C 0.33471 0.84279 0.44274 0.0
C2111 C 0.3831 0.84751 0.49163 0.0
C2112 C 0.29605 0.82993 0.35046 0.0
C2113 C 0.30689 0.83423 0.37157 0.0
C2114 C 0.33927 0.82586 0.40135 0.0
C2115 C 0.36312 0.84909 0.46156 0.0
C2116 C 0.34958 0.84111 0.44157 0.0
C2117 C 0.31256 0.82298 0.38029 0.0
C2118 C 0.32475 0.82816 0.4021 0.0
H2119 H 0.38301 0.88565 0.49759 0.0
H2120 H 0.36234 0.87304 0.46304 0.0
H2121 H 0.36292 0.83083 0.41941 0.0
H2122 H 0.29193 0.79056 0.33693 0.0
H2123 H 0.31091 0.79813 0.37403 0.0
C2124 C 0.2926 0.17912 0.12435 0.0
C2125 C 0.27862 0.16237 0.1196 0.0
C2126 C 0.30797 0.18144 0.13516 0.0
C2127 C 0.33312 0.15929 0.148 0.0
H2128 H 0.35441 0.19419 0.20064 0.0
C2129 C 0.38915 0.16458 0.20964 0.0
C2130 C 0.40313 0.18132 0.21447 0.0
C2131 C 0.37382 0.1623 0.19872 0.0
C2132 C 0.34875 0.18451 0.1858 0.0
H2133 H 0.27005 0.13491 0.12191 0.0
H2134 H 0.29685 0.13896 0.14087 0.0
H2135 H 0.32835 0.19016 0.17929 0.0
H2136 H 0.41176 0.20878 0.2122 0.0
H2137 H 0.38503 0.20481 0.19305 0.0
H2138 H 0.35352 0.15364 0.15451 0.0
C2139 C 0.29598 0.15032 0.13604 0.0
C2140 C 0.3338 0.18221 0.17351 0.0
C2141 C 0.28058 0.148 0.12521 0.0
C2142 C 0.40122 0.19571 0.20882 0.0
C2143 C 0.38586 0.19342 0.19788 0.0
C2144 C 0.34807 0.16159 0.16029 0.0
C2145 C 0.30977 0.16708 0.14153 0.0
C2146 C 0.32579 0.16958 0.15444 0.0
C2147 C 0.37207 0.17669 0.19233 0.0
C2148 C 0.35608 0.17422 0.17937 0.0
H2149 H 0.29158 0.19049 0.12019 0.0
H2150 H 0.31843 0.19453 0.13866 0.0
H2151 H 0.32746 0.14961 0.13317 0.0
H2152 H 0.39013 0.15319 0.21382 0.0
H2153 H 0.36336 0.14922 0.19517 0.0
C2154 C 0.81597 0.20629 0.20868 0.0
C2155 C 0.83032 0.22264 0.2143 0.0
C2156 C 0.81833 0.19316 0.19816 0.0
C2157 C 0.85051 0.18708 0.16167 0.0
H2158 H 0.82136 0.13874 0.1802 0.0
C2159 C 0.86398 0.13293 0.12756 0.0
C2160 C 0.8496 0.11675 0.1213 0.0
C2161 C 0.86164 0.14601 0.13834 0.0
C2162 C 0.82949 0.15216 0.17457 0.0
H2163 H 0.85844 0.23775 0.21412 0.0
H2164 H 0.86254 0.21483 0.19626 0.0
H2165 H 0.8173 0.16086 0.20122 0.0
H2166 H 0.82146 0.10185 0.12079 0.0
H2167 H 0.81742 0.12468 0.13925 0.0
H2168 H 0.86271 0.17838 0.13507 0.0
C2169 C 0.84944 0.21223 0.19947 0.0
C2170 C 0.82716 0.16486 0.18666 0.0
C2171 C 0.84708 0.22535 0.20994 0.0
C2172 C 0.83284 0.11413 0.12543 0.0
C2173 C 0.83052 0.12718 0.13623 0.0
C2174 C 0.85285 0.17439 0.14961 0.0
C2175 C 0.8351 0.19606 0.19303 0.0
C2176 C 0.83764 0.18249 0.18039 0.0
C2177 C 0.84488 0.14321 0.14316 0.0
C2178 C 0.84235 0.15676 0.15588 0.0
H2179 H 0.80287 0.20379 0.21169 0.0
H2180 H 0.80697 0.18093 0.19328 0.0
H2181 H 0.85862 0.20048 0.15599 0.0
H2182 H 0.87706 0.13537 0.12473 0.0
H2183 H 0.873 0.15814 0.14361 0.0
C2184 C 0.78359 0.62212 0.21078 0.0
C2185 C 0.78638 0.60808 0.21475 0.0
C2186 C 0.79657 0.63764 0.2002 0.0
C2187 C 0.84378 0.66291 0.18641 0.0
H2188 H 0.82969 0.68481 0.13538 0.0
C2189 C 0.89395 0.71952 0.12495 0.0
C2190 C 0.89124 0.73362 0.121 0.0
C2191 C 0.88098 0.70407 0.13571 0.0
C2192 C 0.83384 0.67898 0.14977 0.0
H2193 H 0.80525 0.59956 0.21134 0.0
H2194 H 0.82788 0.62661 0.19277 0.0
H2195 H 0.80783 0.65857 0.15659 0.0
H2196 H 0.87251 0.7423 0.12464 0.0
H2197 H 0.84987 0.71535 0.14347 0.0
H2198 H 0.86979 0.68331 0.17955 0.0
C2199 C 0.81568 0.62568 0.19804 0.0
C2200 C 0.82129 0.66392 0.16199 0.0
C2201 C 0.80268 0.61014 0.20865 0.0
C2202 C 0.87501 0.73168 0.12732 0.0
C2203 C 0.86201 0.7162 0.13808 0.0
C2204 C 0.85633 0.67796 0.17418 0.0
C2205 C 0.81269 0.63953 0.19327 0.0
C2206 C 0.82609 0.65569 0.18049 0.0
C2207 C 0.86494 0.7023 0.1428 0.0
C2208 C 0.85153 0.68619 0.15567 0.0
H2209 H 0.77121 0.62102 0.21533 0.0
H2210 H 0.79391 0.64813 0.19728 0.0
H2211 H 0.84794 0.65708 0.20079 0.0
H2212 H 0.90627 0.72053 0.12024 0.0
H2213 H 0.88358 0.69354 0.1386 0.0
C2214 C 0.19639 0.39733 0.29534 0.0
C2215 C 0.18205 0.3993 0.28956 0.0
C2216 C 0.19402 0.38189 0.30613 0.0
C2217 C 0.16188 0.34382 0.34302 0.0
H2218 H 0.19063 0.32427 0.32422 0.0
C2219 C 0.14785 0.2759 0.37671 0.0
C2220 C 0.16213 0.27383 0.38246 0.0
C2221 C 0.15033 0.29147 0.36629 0.0
C2222 C 0.18263 0.32967 0.32994 0.0
H2223 H 0.15393 0.38632 0.28982 0.0
H2224 H 0.1498 0.3594 0.30819 0.0
H2225 H 0.19484 0.3505 0.30319 0.0
H2226 H 0.19025 0.28677 0.38261 0.0
H2227 H 0.19455 0.31391 0.36486 0.0
H2228 H 0.14965 0.32297 0.36974 0.0
C2229 C 0.16291 0.36988 0.30487 0.0
C2230 C 0.18503 0.34472 0.31784 0.0
C2231 C 0.16528 0.38529 0.29411 0.0
C2232 C 0.17894 0.28788 0.37834 0.0
C2233 C 0.18142 0.30342 0.36793 0.0
C2234 C 0.15947 0.32877 0.35512 0.0
C2235 C 0.17724 0.36807 0.3114 0.0
C2236 C 0.17467 0.35199 0.32418 0.0
C2237 C 0.16715 0.30532 0.36136 0.0
C2238 C 0.16981 0.32149 0.34875 0.0
H2239 H 0.20949 0.40788 0.29219 0.0
H2240 H 0.20536 0.38102 0.31107 0.0
H2241 H 0.15387 0.34922 0.34874 0.0
H2242 H 0.13472 0.26533 0.37953 0.0
H2243 H 0.13903 0.29243 0.36131 0.0
C2244 C 0.62331 0.78197 0.29251 0.0
C2245 C 0.6093 0.78469 0.28774 0.0
C2246 C 0.63876 0.79514 0.30296 0.0
C2247 C 0.66391 0.8426 0.31496 0.0
H2248 H 0.68552 0.82946 0.36772 0.0
C2249 C 0.71978 0.89376 0.37647 0.0
C2250 C 0.73386 0.89117 0.38129 0.0
C2251 C 0.70452 0.88064 0.36551 0.0
C2252 C 0.67977 0.83334 0.35285 0.0
H2253 H 0.60077 0.8036 0.28961 0.0
H2254 H 0.62769 0.82657 0.30798 0.0
H2255 H 0.65945 0.8072 0.34668 0.0
H2256 H 0.74274 0.87255 0.37888 0.0
H2257 H 0.71612 0.84964 0.35969 0.0
H2258 H 0.68421 0.86875 0.3212 0.0
C2259 C 0.62679 0.81428 0.30343 0.0
C2260 C 0.66481 0.82057 0.34072 0.0
C2261 C 0.61132 0.80109 0.29293 0.0
C2262 C 0.73213 0.87496 0.37552 0.0
C2263 C 0.71683 0.8618 0.36456 0.0
C2264 C 0.67886 0.85538 0.3271 0.0
C2265 C 0.64061 0.81138 0.30896 0.0
C2266 C 0.65668 0.82502 0.32161 0.0
C2267 C 0.70292 0.86457 0.35908 0.0
C2268 C 0.68697 0.85092 0.34623 0.0
H2269 H 0.62224 0.76951 0.28866 0.0
H2270 H 0.64923 0.79254 0.3065 0.0
H2271 H 0.65816 0.84649 0.30009 0.0
H2272 H 0.72063 0.90607 0.38073 0.0
H2273 H 0.69396 0.88312 0.36198 0.0
C2274 C 0.22857 0.8438 0.29379 0.0
C2275 C 0.22569 0.82703 0.28894 0.0
C2276 C 0.21555 0.8462 0.3045 0.0
C2277 C 0.16821 0.82429 0.31692 0.0
H2278 H 0.18185 0.85903 0.36979 0.0
C2279 C 0.11747 0.82991 0.37799 0.0
C2280 C 0.12032 0.84669 0.38266 0.0
C2281 C 0.13051 0.82751 0.36736 0.0
C2282 C 0.17783 0.8494 0.3549 0.0
H2283 H 0.20664 0.79961 0.29093 0.0
H2284 H 0.18392 0.80378 0.30972 0.0
H2285 H 0.20385 0.85488 0.34858 0.0
H2286 H 0.13933 0.87411 0.38048 0.0
H2287 H 0.16209 0.86993 0.36186 0.0
H2288 H 0.14219 0.81881 0.32324 0.0
C2289 C 0.19623 0.81511 0.30505 0.0
C2290 C 0.19045 0.84703 0.34268 0.0
C2291 C 0.20927 0.81271 0.29431 0.0
C2292 C 0.13673 0.86101 0.37723 0.0
C2293 C 0.14979 0.8586 0.36659 0.0
C2294 C 0.15559 0.82666 0.32914 0.0
C2295 C 0.1993 0.83188 0.31067 0.0
C2296 C 0.18581 0.83445 0.32351 0.0
C2297 C 0.14675 0.84182 0.36112 0.0
C2298 C 0.16023 0.83924 0.3483 0.0
H2299 H 0.24104 0.85514 0.28981 0.0
H2300 H 0.21827 0.85931 0.30809 0.0
H2301 H 0.16418 0.81467 0.30201 0.0
H2302 H 0.10501 0.81858 0.38201 0.0
H2303 H 0.12782 0.8144 0.36387 0.0
C2304 C 0.72147 0.83066 0.87733 0.0
C2305 C 0.73545 0.84748 0.88164 0.0
C2306 C 0.70595 0.82816 0.86684 0.0
C2307 C 0.68048 0.85001 0.8543 0.0
H2308 H 0.65888 0.81482 0.80212 0.0
C2309 C 0.62392 0.84423 0.79351 0.0
C2310 C 0.60994 0.82746 0.78892 0.0
C2311 C 0.63935 0.84661 0.80419 0.0
C2312 C 0.66463 0.82458 0.81683 0.0
H2313 H 0.74385 0.87488 0.87893 0.0
H2314 H 0.71679 0.87053 0.86055 0.0
H2315 H 0.68514 0.81905 0.82308 0.0
H2316 H 0.60142 0.80002 0.79137 0.0
H2317 H 0.62833 0.80417 0.8101 0.0
H2318 H 0.65998 0.85554 0.84806 0.0
C2319 C 0.71778 0.85925 0.86546 0.0
C2320 C 0.67969 0.82699 0.8289 0.0
C2321 C 0.73333 0.86175 0.87595 0.0
C2322 C 0.61196 0.81312 0.79455 0.0
C2323 C 0.62741 0.81551 0.80525 0.0
C2324 C 0.66542 0.84759 0.84224 0.0
C2325 C 0.70399 0.84242 0.86038 0.0
C2326 C 0.68782 0.83974 0.84779 0.0
C2327 C 0.64121 0.83229 0.81058 0.0
C2328 C 0.6573 0.83486 0.82331 0.0
H2329 H 0.72262 0.81937 0.88155 0.0
H2330 H 0.6955 0.81502 0.86364 0.0
H2331 H 0.68624 0.85977 0.869 0.0
H2332 H 0.62285 0.85558 0.78933 0.0
H2333 H 0.64981 0.85972 0.80755 0.0
C2334 C 0.16593 0.78181 0.79444 0.0
C2335 C 0.18274 0.78474 0.78969 0.0
C2336 C 0.16345 0.79485 0.80489 0.0
C2337 C 0.18601 0.83485 0.8433 0.0
H2338 H 0.1479 0.84132 0.82218 0.0
C2339 C 0.17831 0.89246 0.87757 0.0
C2340 C 0.16146 0.88947 0.88212 0.0
C2341 C 0.18089 0.87946 0.86718 0.0
C2342 C 0.15847 0.83953 0.82856 0.0
H2343 H 0.21012 0.80392 0.79153 0.0
H2344 H 0.20578 0.82678 0.80948 0.0
H2345 H 0.15267 0.81975 0.8009 0.0
H2346 H 0.13411 0.87021 0.8801 0.0
H2347 H 0.13861 0.84744 0.8623 0.0
H2348 H 0.19181 0.85464 0.87098 0.0
C2349 C 0.19452 0.81428 0.80546 0.0
C2350 C 0.16124 0.82718 0.81629 0.0
C2351 C 0.197 0.80122 0.79495 0.0
C2352 C 0.14726 0.87297 0.87681 0.0
C2353 C 0.14984 0.85996 0.86638 0.0
C2354 C 0.18325 0.8472 0.85558 0.0
C2355 C 0.17771 0.81117 0.8109 0.0
C2356 C 0.17504 0.82467 0.8235 0.0
C2357 C 0.16668 0.86313 0.86105 0.0
C2358 C 0.16943 0.8497 0.84839 0.0
H2359 H 0.15464 0.76926 0.7907 0.0
H2360 H 0.15034 0.79192 0.80903 0.0
H2361 H 0.19658 0.83306 0.84968 0.0
H2362 H 0.18955 0.90504 0.88134 0.0
H2363 H 0.19402 0.88244 0.86314 0.0
C2364 C 0.20912 0.39765 0.79297 0.0
C2365 C 0.22549 0.39963 0.78761 0.0
C2366 C 0.19602 0.38227 0.80382 0.0
C2367 C 0.19004 0.34461 0.84179 0.0
H2368 H 0.14178 0.32474 0.82247 0.0
C2369 C 0.13614 0.27714 0.87695 0.0
C2370 C 0.11979 0.27515 0.88244 0.0
C2371 C 0.14923 0.29254 0.86611 0.0
C2372 C 0.15518 0.33023 0.82833 0.0
H2373 H 0.24069 0.38672 0.78863 0.0
H2374 H 0.21782 0.35989 0.8071 0.0
H2375 H 0.16385 0.35076 0.80104 0.0
H2376 H 0.10459 0.28807 0.88165 0.0
H2377 H 0.12743 0.31492 0.86316 0.0
H2378 H 0.18137 0.32408 0.86907 0.0
C2379 C 0.21518 0.37032 0.80341 0.0
C2380 C 0.16784 0.34516 0.816 0.0
C2381 C 0.22826 0.38567 0.79259 0.0
C2382 C 0.11701 0.28912 0.87759 0.0
C2383 C 0.13007 0.30448 0.86677 0.0
C2384 C 0.17738 0.32968 0.85412 0.0
C2385 C 0.19898 0.36851 0.80957 0.0
C2386 C 0.18545 0.35254 0.82254 0.0
C2387 C 0.14625 0.3063 0.8605 0.0
C2388 C 0.15977 0.3223 0.84757 0.0
H2389 H 0.20658 0.40816 0.78948 0.0
H2390 H 0.18376 0.38139 0.80847 0.0
H2391 H 0.20344 0.3501 0.84766 0.0
H2392 H 0.1387 0.26662 0.88034 0.0
H2393 H 0.16148 0.29343 0.86137 0.0
C2394 C 0.8623 0.73074 0.62468 0.0
C2395 C 0.84791 0.73276 0.61946 0.0
C2396 C 0.86002 0.71531 0.63534 0.0
C2397 C 0.82834 0.6775 0.67306 0.0
H2398 H 0.8568 0.65777 0.65346 0.0
C2399 C 0.81495 0.61003 0.7079 0.0
C2400 C 0.82936 0.6081 0.71338 0.0
C2401 C 0.81721 0.62541 0.69708 0.0
C2402 C 0.84888 0.66323 0.6594 0.0
H2403 H 0.8198 0.71985 0.62051 0.0
H2404 H 0.81584 0.69293 0.63864 0.0
H2405 H 0.8607 0.68384 0.63223 0.0
H2406 H 0.85748 0.6211 0.71256 0.0
H2407 H 0.8614 0.64792 0.69409 0.0
H2408 H 0.81651 0.65689 0.70022 0.0
C2409 C 0.82891 0.70338 0.63499 0.0
C2410 C 0.8511 0.67817 0.64718 0.0
C2411 C 0.83119 0.71878 0.62437 0.0
C2412 C 0.84608 0.6221 0.70851 0.0
C2413 C 0.84833 0.63745 0.6977 0.0
C2414 C 0.8261 0.66255 0.68527 0.0
C2415 C 0.8433 0.70154 0.64103 0.0
C2416 C 0.84086 0.68551 0.65383 0.0
C2417 C 0.83393 0.63922 0.69148 0.0
C2418 C 0.83635 0.65522 0.67863 0.0
H2419 H 0.87536 0.74127 0.62125 0.0
H2420 H 0.8714 0.71441 0.6399 0.0
H2421 H 0.82042 0.68295 0.67902 0.0
H2422 H 0.80189 0.59948 0.71131 0.0
H2423 H 0.80582 0.62626 0.69238 0.0
C2424 C 0.27912 0.13447 0.62641 0.0
C2425 C 0.27706 0.11811 0.62078 0.0
C2426 C 0.29458 0.14752 0.63712 0.0
C2427 C 0.33244 0.15338 0.67432 0.0
H2428 H 0.35223 0.20167 0.65511 0.0
C2429 C 0.40001 0.20733 0.70912 0.0
C2430 C 0.40203 0.22371 0.71453 0.0
C2431 C 0.38458 0.19422 0.69844 0.0
C2432 C 0.34676 0.18827 0.66095 0.0
H2433 H 0.28991 0.10285 0.62121 0.0
H2434 H 0.31688 0.12562 0.63949 0.0
H2435 H 0.32612 0.17962 0.63389 0.0
H2436 H 0.38912 0.23891 0.71381 0.0
H2437 H 0.36219 0.21603 0.69562 0.0
H2438 H 0.35308 0.16203 0.70139 0.0
C2439 C 0.30645 0.1283 0.63608 0.0
C2440 C 0.33178 0.17561 0.64873 0.0
C2441 C 0.29101 0.11528 0.62537 0.0
C2442 C 0.38805 0.22647 0.7098 0.0
C2443 C 0.37264 0.21339 0.69914 0.0
C2444 C 0.34742 0.16604 0.68655 0.0
C2445 C 0.30835 0.1445 0.64246 0.0
C2446 C 0.32442 0.158 0.65525 0.0
C2447 C 0.3708 0.19718 0.69291 0.0
C2448 C 0.35477 0.18366 0.68005 0.0
H2449 H 0.26861 0.13707 0.62322 0.0
H2450 H 0.29552 0.15979 0.64196 0.0
H2451 H 0.32697 0.13998 0.68015 0.0
H2452 H 0.41055 0.20478 0.71242 0.0
H2453 H 0.38367 0.18195 0.69372 0.0
C2454 C 0.87602 0.14671 0.62646 0.0
C2455 C 0.89247 0.16108 0.62142 0.0
C2456 C 0.86286 0.14902 0.63701 0.0
C2457 C 0.84965 0.18203 0.64838 0.0
H2458 H 0.822 0.15083 0.70241 0.0
C2459 C 0.80304 0.19484 0.70897 0.0
C2460 C 0.78657 0.18047 0.7139 0.0
C2461 C 0.81623 0.19254 0.69852 0.0
C2462 C 0.82949 0.15957 0.6872 0.0
H2463 H 0.90781 0.18917 0.62286 0.0
H2464 H 0.88498 0.19317 0.64126 0.0
H2465 H 0.84383 0.14647 0.68113 0.0
H2466 H 0.77124 0.15237 0.7124 0.0
H2467 H 0.79413 0.1484 0.69419 0.0
H2468 H 0.8353 0.19513 0.65445 0.0
C2469 C 0.88214 0.18012 0.63691 0.0
C2470 C 0.84199 0.15703 0.67493 0.0
C2471 C 0.89528 0.17781 0.62642 0.0
C2472 C 0.78378 0.16374 0.70892 0.0
C2473 C 0.79695 0.16145 0.69853 0.0
C2474 C 0.83715 0.18457 0.66065 0.0
C2475 C 0.86584 0.16575 0.64271 0.0
C2476 C 0.85224 0.16823 0.65535 0.0
C2477 C 0.81327 0.17582 0.69282 0.0
C2478 C 0.8269 0.17337 0.68023 0.0
H2479 H 0.8734 0.13364 0.62284 0.0
H2480 H 0.85038 0.13768 0.64085 0.0
H2481 H 0.85714 0.19076 0.63316 0.0
H2482 H 0.80563 0.2079 0.71258 0.0
H2483 H 0.82872 0.20389 0.69475 0.0
C2484 C 0.05414 0.49671 0.54285 0.0
C2485 C 0.06799 0.51347 0.54797 0.0
C2486 C 0.03874 0.49434 0.5321 0.0
C2487 C 0.0132 0.51618 0.52001 0.0
H2488 H 0.99247 0.4819 0.46647 0.0
C2489 C 0.95696 0.51079 0.45884 0.0
C2490 C 0.94311 0.49402 0.45379 0.0
C2491 C 0.97239 0.51319 0.46952 0.0
C2492 C 0.99798 0.4914 0.48155 0.0
H2493 H 0.07627 0.54088 0.54643 0.0
H2494 H 0.0494 0.53675 0.52758 0.0
H2495 H 0.01856 0.48597 0.48781 0.0
H2496 H 0.93486 0.46662 0.45536 0.0
H2497 H 0.96178 0.47079 0.47408 0.0
H2498 H 0.99262 0.5216 0.51377 0.0
C2499 C 0.05041 0.52541 0.53206 0.0
C2500 C 0.01294 0.49373 0.49384 0.0
C2501 C 0.06584 0.52779 0.54283 0.0
C2502 C 0.94529 0.47972 0.45891 0.0
C2503 C 0.96075 0.48212 0.46961 0.0
C2504 C 0.99824 0.51385 0.50773 0.0
C2505 C 0.03677 0.50866 0.52616 0.0
C2506 C 0.02074 0.50613 0.51325 0.0
C2507 C 0.97439 0.49888 0.47545 0.0
C2508 C 0.99044 0.50143 0.48832 0.0
H2509 H 0.05531 0.48538 0.54664 0.0
H2510 H 0.0284 0.48125 0.52829 0.0
H2511 H 0.0187 0.52568 0.5351 0.0
H2512 H 0.95576 0.52211 0.45507 0.0
H2513 H 0.98273 0.52629 0.4733 0.0
C2514 C 0.48092 0.54036 0.54167 0.0
C2515 C 0.49521 0.55674 0.54733 0.0
C2516 C 0.48337 0.52736 0.53087 0.0
C2517 C 0.51553 0.52172 0.49365 0.0
H2518 H 0.48719 0.47337 0.51262 0.0
C2519 C 0.53005 0.46831 0.4595 0.0
C2520 C 0.51585 0.45189 0.45379 0.0
C2521 C 0.52745 0.48128 0.47008 0.0
C2522 C 0.49508 0.48679 0.50685 0.0
H2523 H 0.52332 0.57207 0.54686 0.0
H2524 H 0.52758 0.54938 0.52846 0.0
H2525 H 0.48285 0.49527 0.53377 0.0
H2526 H 0.48775 0.43643 0.45396 0.0
H2527 H 0.48323 0.45906 0.47202 0.0
H2528 H 0.52777 0.51325 0.46676 0.0
C2529 C 0.51445 0.54666 0.53189 0.0
C2530 C 0.4926 0.49936 0.51903 0.0
C2531 C 0.51201 0.55963 0.54266 0.0
C2532 C 0.49899 0.44891 0.45818 0.0
C2533 C 0.4964 0.46185 0.46876 0.0
C2534 C 0.51801 0.50916 0.48148 0.0
C2535 C 0.50017 0.53044 0.52547 0.0
C2536 C 0.50281 0.517 0.51262 0.0
C2537 C 0.51059 0.47811 0.47523 0.0
C2538 C 0.50782 0.49152 0.48792 0.0
H2539 H 0.4678 0.53772 0.54492 0.0
H2540 H 0.47206 0.51509 0.52602 0.0
H2541 H 0.52343 0.53514 0.48788 0.0
H2542 H 0.54321 0.47103 0.45647 0.0
H2543 H 0.53869 0.49359 0.475 0.0
C2544 C 0.54232 0.06463 0.45948 0.0
C2545 C 0.55868 0.06668 0.45388 0.0
C2546 C 0.52929 0.0492 0.47031 0.0
C2547 C 0.52351 0.01143 0.50776 0.0
H2548 H 0.47519 0.99155 0.48874 0.0
C2549 C 0.46974 0.94385 0.54283 0.0
C2550 C 0.4534 0.94185 0.54848 0.0
C2551 C 0.48278 0.95927 0.53199 0.0
C2552 C 0.4886 0.99704 0.49452 0.0
H2553 H 0.57396 0.05385 0.45448 0.0
H2554 H 0.55121 0.02693 0.47293 0.0
H2555 H 0.49718 0.01766 0.4674 0.0
H2556 H 0.43818 0.95475 0.54794 0.0
H2557 H 0.46095 0.98163 0.52944 0.0
H2558 H 0.51493 0.99081 0.53487 0.0
C2559 C 0.54852 0.03735 0.46943 0.0
C2560 C 0.50122 0.01202 0.48224 0.0
C2561 C 0.56153 0.05275 0.45863 0.0
C2562 C 0.45059 0.95581 0.54376 0.0
C2563 C 0.46361 0.97119 0.53293 0.0
C2564 C 0.51089 0.99645 0.52004 0.0
C2565 C 0.53232 0.03546 0.47579 0.0
C2566 C 0.51885 0.01941 0.48868 0.0
C2567 C 0.47978 0.97304 0.52652 0.0
C2568 C 0.49326 0.98907 0.5136 0.0
H2569 H 0.53971 0.07513 0.45617 0.0
H2570 H 0.51702 0.04827 0.47512 0.0
H2571 H 0.53692 0.01693 0.51355 0.0
H2572 H 0.47231 0.93334 0.54612 0.0
H2573 H 0.49503 0.96017 0.52714 0.0
C2574 C 0.52887 0.06334 0.95963 0.0
C2575 C 0.51459 0.0656 0.95482 0.0
C2576 C 0.52646 0.04783 0.97017 0.0
C2577 C 0.49486 0.0103 0.00838 0.0
H2578 H 0.52243 0.98984 0.9875 0.0
C2579 C 0.48091 0.94256 0.04291 0.0
C2580 C 0.49523 0.94037 0.04775 0.0
C2581 C 0.48325 0.95801 0.03222 0.0
C2582 C 0.51476 0.9955 0.9938 0.0
H2583 H 0.48652 0.05306 0.9565 0.0
H2584 H 0.48232 0.02601 0.97446 0.0
H2585 H 0.52649 0.01603 0.9665 0.0
H2586 H 0.5233 0.95297 0.04595 0.0
H2587 H 0.52738 0.97991 0.02773 0.0
H2588 H 0.48313 0.98977 0.03568 0.0
C2589 C 0.49542 0.03632 0.97056 0.0
C2590 C 0.51708 0.01052 0.98171 0.0
C2591 C 0.49782 0.0518 0.96003 0.0
C2592 C 0.51196 0.95418 0.04239 0.0
C2593 C 0.51431 0.96959 0.03172 0.0
C2594 C 0.49254 0.99528 0.02047 0.0
C2595 C 0.50971 0.03423 0.97616 0.0
C2596 C 0.50716 0.01812 0.98882 0.0
C2597 C 0.49998 0.97162 0.02611 0.0
C2598 C 0.50247 0.98769 0.01336 0.0
H2599 H 0.54197 0.07374 0.95595 0.0
H2600 H 0.53778 0.04673 0.9744 0.0
H2601 H 0.4872 0.01596 0.01467 0.0
H2602 H 0.46783 0.93217 0.04671 0.0
H2603 H 0.47191 0.95906 0.02799 0.0
C2604 C 0.95678 0.44862 0.95906 0.0
C2605 C 0.94282 0.45145 0.95454 0.0
C2606 C 0.97221 0.46161 0.96982 0.0
C2607 C 0.99754 0.50886 0.98291 0.0
H2608 H 0.01881 0.49496 0.03522 0.0
C2609 C 0.05398 0.55929 0.04429 0.0
C2610 C 0.0679 0.55641 0.04889 0.0
C2611 C 0.03855 0.54633 0.0335 0.0
C2612 C 0.01315 0.49906 0.02048 0.0
H2613 H 0.93435 0.47038 0.95716 0.0
H2614 H 0.96125 0.49305 0.97603 0.0
H2615 H 0.99264 0.47305 0.01392 0.0
H2616 H 0.0763 0.53741 0.04635 0.0
H2617 H 0.0494 0.51479 0.02743 0.0
H2618 H 0.01805 0.53486 0.98946 0.0
C2619 C 0.96032 0.48081 0.97108 0.0
C2620 C 0.99815 0.48648 0.00822 0.0
C2621 C 0.94486 0.46779 0.9603 0.0
C2622 C 0.06582 0.54005 0.04316 0.0
C2623 C 0.05036 0.52706 0.03235 0.0
C2624 C 0.01255 0.52143 0.99517 0.0
C2625 C 0.97408 0.47778 0.97637 0.0
C2626 C 0.99015 0.49121 0.98925 0.0
C2627 C 0.03663 0.53013 0.02701 0.0
C2628 C 0.02055 0.5167 0.01413 0.0
H2629 H 0.9557 0.43621 0.95478 0.0
H2630 H 0.98264 0.45892 0.97317 0.0
H2631 H 0.99188 0.51295 0.96817 0.0
H2632 H 0.0551 0.57172 0.04854 0.0
H2633 H 0.02814 0.54904 0.03011 0.0
C2634 C 0.54224 0.48107 0.9579 0.0
C2635 C 0.55848 0.49554 0.95217 0.0
C2636 C 0.5291 0.48324 0.96883 0.0
C2637 C 0.51532 0.51581 0.98027 0.0
H2638 H 0.48897 0.48509 0.03552 0.0
C2639 C 0.46921 0.52846 0.04234 0.0
C2640 C 0.45296 0.51399 0.04801 0.0
C2641 C 0.48235 0.52627 0.03143 0.0
C2642 C 0.49609 0.49369 0.01998 0.0
H2643 H 0.57344 0.52367 0.95282 0.0
H2644 H 0.55064 0.52743 0.9719 0.0
H2645 H 0.51071 0.4809 0.01357 0.0
H2646 H 0.43796 0.48587 0.04732 0.0
H2647 H 0.46076 0.48208 0.02829 0.0
H2648 H 0.50071 0.5286 0.98667 0.0
C2649 C 0.54796 0.51439 0.96779 0.0
C2650 C 0.50854 0.49125 0.00732 0.0
C2651 C 0.56108 0.51223 0.9569 0.0
C2652 C 0.45034 0.4973 0.04327 0.0
C2653 C 0.46346 0.49512 0.03242 0.0
C2654 C 0.50288 0.51825 0.99292 0.0
C2655 C 0.53188 0.49993 0.97426 0.0
C2656 C 0.51832 0.50228 0.9873 0.0
C2657 C 0.47955 0.50958 0.02599 0.0
C2658 C 0.4931 0.50722 0.01295 0.0
H2659 H 0.53979 0.46803 0.9545 0.0
H2660 H 0.51679 0.47181 0.97319 0.0
H2661 H 0.52244 0.52441 0.96472 0.0
H2662 H 0.47168 0.5415 0.04575 0.0
H2663 H 0.49467 0.53769 0.02711 0.0
loop_
_geom_bond_atom_site_label_1
_geom_bond_atom_site_label_2
_geom_bond_distance
_geom_bond_site_symmetry_2
_ccdc_geom_bond_type
O0 Cd1 2.223 . S
O0 C8 1.315 . S
Cd1 O0 2.223 . S
Cd1 O4 2.297 . S
Cd1 O5 2.439 . S
Cd1 O11 2.240 . S
Cd2 O3 2.240 . S
Cd2 O10 2.223 . S
Cd2 O12 2.297 . S
Cd2 O13 2.439 . S
O3 Cd2 2.240 . S
O3 C8 1.279 . S
O4 Cd1 2.297 . S
O4 C6 1.247 . S
O5 Cd1 2.439 . S
O5 C6 1.208 . S
C6 O4 1.247 . S
C6 O5 1.208 . S
C7 O12 1.247 . S
C7 O13 1.208 . S
C8 O0 1.315 . S
C8 O3 1.279 . S
C9 O10 1.315 . S
C9 O11 1.279 . S
O10 Cd2 2.223 . S
O10 C9 1.315 . S
O11 Cd1 2.240 . S
O11 C9 1.279 . S
O12 Cd2 2.297 . S
O12 C7 1.247 . S
O13 Cd2 2.439 . S
O13 C7 1.208 . S
O14 Cd15 2.223 . S
O14 C22 1.315 . S
Cd15 O14 2.223 . S
Cd15 O18 2.297 . S
Cd15 O19 2.439 . S
Cd15 O25 2.240 . S
Cd16 O17 2.240 . S
Cd16 O24 2.223 . S
Cd16 O26 2.297 . S
Cd16 O27 2.439 . S
O17 Cd16 2.240 . S
O17 C22 1.279 . S
O18 Cd15 2.297 . S
O18 C20 1.247 . S
O19 Cd15 2.439 . S
O19 C20 1.208 . S
C20 O18 1.247 . S
C20 O19 1.208 . S
C21 O26 1.247 . S
C21 O27 1.208 . S
C22 O14 1.315 . S
C22 O17 1.279 . S
C23 O24 1.315 . S
C23 O25 1.279 . S
O24 Cd16 2.223 . S
O24 C23 1.315 . S
O25 Cd15 2.240 . S
O25 C23 1.279 . S
O26 Cd16 2.297 . S
O26 C21 1.247 . S
O27 Cd16 2.439 . S
O27 C21 1.208 . S
O28 Cd29 2.223 . S
O28 C36 1.315 . S
Cd29 O28 2.223 . S
Cd29 O32 2.297 . S
Cd29 O33 2.439 . S
Cd29 O39 2.240 . S
Cd30 O31 2.240 . S
Cd30 O38 2.223 . S
Cd30 O40 2.297 . S
Cd30 O41 2.439 . S
O31 Cd30 2.240 . S
O31 C36 1.279 . S
O32 Cd29 2.297 . S
O32 C34 1.247 . S
O33 Cd29 2.439 . S
O33 C34 1.208 . S
C34 O32 1.247 . S
C34 O33 1.208 . S
C35 O40 1.247 . S
C35 O41 1.208 . S
C36 O28 1.315 . S
C36 O31 1.279 . S
C37 O38 1.315 . S
C37 O39 1.279 . S
O38 Cd30 2.223 . S
O38 C37 1.315 . S
O39 Cd29 2.240 . S
O39 C37 1.279 . S
O40 Cd30 2.297 . S
O40 C35 1.247 . S
O41 Cd30 2.439 . S
O41 C35 1.208 . S
O42 Cd43 2.223 . S
O42 C50 1.315 . S
Cd43 O42 2.223 . S
Cd43 O46 2.297 . S
Cd43 O47 2.439 . S
Cd43 O53 2.240 . S
Cd44 O45 2.240 . S
Cd44 O52 2.223 . S
Cd44 O54 2.297 . S
Cd44 O55 2.439 . S
O45 Cd44 2.240 . S
O45 C50 1.279 . S
O46 Cd43 2.297 . S
O46 C48 1.247 . S
O47 Cd43 2.439 . S
O47 C48 1.208 . S
C48 O46 1.247 . S
C48 O47 1.208 . S
C49 O54 1.247 . S
C49 O55 1.208 . S
C50 O42 1.315 . S
C50 O45 1.279 . S
C51 O52 1.315 . S
C51 O53 1.279 . S
O52 Cd44 2.223 . S
O52 C51 1.315 . S
O53 Cd43 2.240 . S
O53 C51 1.279 . S
O54 Cd44 2.297 . S
O54 C49 1.247 . S
O55 Cd44 2.439 . S
O55 C49 1.208 . S
O56 Cd57 2.223 . S
O56 C64 1.315 . S
Cd57 O56 2.223 . S
Cd57 O60 2.297 . S
Cd57 O61 2.439 . S
Cd57 O67 2.240 . S
Cd58 O59 2.240 . S
Cd58 O66 2.223 . S
Cd58 O68 2.297 . S
Cd58 O69 2.439 . S
O59 Cd58 2.240 . S
O59 C64 1.279 . S
O60 Cd57 2.297 . S
O60 C62 1.247 . S
O61 Cd57 2.439 . S
O61 C62 1.208 . S
C62 O60 1.247 . S
C62 O61 1.208 . S
C63 O68 1.247 . S
C63 O69 1.208 . S
C64 O56 1.315 . S
C64 O59 1.279 . S
C65 O66 1.315 . S
C65 O67 1.279 . S
O66 Cd58 2.223 . S
O66 C65 1.315 . S
O67 Cd57 2.240 . S
O67 C65 1.279 . S
O68 Cd58 2.297 . S
O68 C63 1.247 . S
O69 Cd58 2.439 . S
O69 C63 1.208 . S
O70 Cd71 2.223 . S
O70 C78 1.315 . S
Cd71 O70 2.223 . S
Cd71 O74 2.297 . S
Cd71 O75 2.439 . S
Cd71 O81 2.240 . S
Cd72 O73 2.240 . S
Cd72 O80 2.223 . S
Cd72 O82 2.297 . S
Cd72 O83 2.439 . S
O73 Cd72 2.240 . S
O73 C78 1.279 . S
O74 Cd71 2.297 . S
O74 C76 1.247 . S
O75 Cd71 2.439 . S
O75 C76 1.208 . S
C76 O74 1.247 . S
C76 O75 1.208 . S
C77 O82 1.247 . S
C77 O83 1.208 . S
C78 O70 1.315 . S
C78 O73 1.279 . S
C79 O80 1.315 . S
C79 O81 1.279 . S
O80 Cd72 2.223 . S
O80 C79 1.315 . S
O81 Cd71 2.240 . S
O81 C79 1.279 . S
O82 Cd72 2.297 . S
O82 C77 1.247 . S
O83 Cd72 2.439 . S
O83 C77 1.208 . S
O84 Cd85 2.223 . S
O84 C92 1.315 . S
Cd85 O84 2.223 . S
Cd85 O88 2.297 . S
Cd85 O89 2.439 . S
Cd85 O95 2.240 . S
Cd86 O87 2.240 . S
Cd86 O94 2.223 . S
Cd86 O96 2.297 . S
Cd86 O97 2.439 . S
O87 Cd86 2.240 . S
O87 C92 1.279 . S
O88 Cd85 2.297 . S
O88 C90 1.247 . S
O89 Cd85 2.439 . S
O89 C90 1.208 . S
C90 O88 1.247 . S
C90 O89 1.208 . S
C91 O96 1.247 . S
C91 O97 1.208 . S
C92 O84 1.315 . S
C92 O87 1.279 . S
C93 O94 1.315 . S
C93 O95 1.279 . S
O94 Cd86 2.223 . S
O94 C93 1.315 . S
O95 Cd85 2.240 . S
O95 C93 1.279 . S
O96 Cd86 2.297 . S
O96 C91 1.247 . S
O97 Cd86 2.439 . S
O97 C91 1.208 . S
O98 Cd99 2.223 . S
O98 C106 1.315 . S
Cd99 O98 2.223 . S
Cd99 O102 2.297 . S
Cd99 O103 2.439 . S
Cd99 O109 2.240 . S
Cd100 O101 2.240 . S
Cd100 O108 2.223 . S
Cd100 O110 2.297 . S
Cd100 O111 2.439 . S
O101 Cd100 2.240 . S
O101 C106 1.279 . S
O102 Cd99 2.297 . S
O102 C104 1.247 . S
O103 Cd99 2.439 . S
O103 C104 1.208 . S
C104 O102 1.247 . S
C104 O103 1.208 . S
C105 O110 1.247 . S
C105 O111 1.208 . S
C106 O98 1.315 . S
C106 O101 1.279 . S
C107 O108 1.315 . S
C107 O109 1.279 . S
O108 Cd100 2.223 . S
O108 C107 1.315 . S
O109 Cd99 2.240 . S
O109 C107 1.279 . S
O110 Cd100 2.297 . S
O110 C105 1.247 . S
O111 Cd100 2.439 . S
O111 C105 1.208 . S
O112 Cd113 2.223 . S
O112 C120 1.315 . S
Cd113 O112 2.223 . S
Cd113 O116 2.297 . S
Cd113 O117 2.439 . S
Cd113 O123 2.240 . S
Cd114 O115 2.240 . S
Cd114 O122 2.223 . S
Cd114 O124 2.297 . S
Cd114 O125 2.439 . S
O115 Cd114 2.240 . S
O115 C120 1.279 . S
O116 Cd113 2.297 . S
O116 C118 1.247 . S
O117 Cd113 2.439 . S
O117 C118 1.208 . S
C118 O116 1.247 . S
C118 O117 1.208 . S
C119 O124 1.247 . S
C119 O125 1.208 . S
C120 O112 1.315 . S
C120 O115 1.279 . S
C121 O122 1.315 . S
C121 O123 1.279 . S
O122 Cd114 2.223 . S
O122 C121 1.315 . S
O123 Cd113 2.240 . S
O123 C121 1.279 . S
O124 Cd114 2.297 . S
O124 C119 1.247 . S
O125 Cd114 2.439 . S
O125 C119 1.208 . S
O126 Cd127 2.223 . S
O126 C134 1.315 . S
Cd127 O126 2.223 . S
Cd127 O130 2.297 . S
Cd127 O131 2.439 . S
Cd127 O137 2.240 . S
Cd128 O129 2.240 . S
Cd128 O136 2.223 . S
Cd128 O138 2.297 . S
Cd128 O139 2.439 . S
O129 Cd128 2.240 . S
O129 C134 1.279 . S
O130 Cd127 2.297 . S
O130 C132 1.247 . S
O131 Cd127 2.439 . S
O131 C132 1.208 . S
C132 O130 1.247 . S
C132 O131 1.208 . S
C133 O138 1.247 . S
C133 O139 1.208 . S
C134 O126 1.315 . S
C134 O129 1.279 . S
C135 O136 1.315 . S
C135 O137 1.279 . S
O136 Cd128 2.223 . S
O136 C135 1.315 . S
O137 Cd127 2.240 . S
O137 C135 1.279 . S
O138 Cd128 2.297 . S
O138 C133 1.247 . S
O139 Cd128 2.439 . S
O139 C133 1.208 . S
O140 Cd141 2.223 . S
O140 C148 1.315 . S
Cd141 O140 2.223 . S
Cd141 O144 2.297 . S
Cd141 O145 2.439 . S
Cd141 O151 2.240 . S
Cd142 O143 2.240 . S
Cd142 O150 2.223 . S
Cd142 O152 2.297 . S
Cd142 O153 2.439 . S
O143 Cd142 2.240 . S
O143 C148 1.279 . S
O144 Cd141 2.297 . S
O144 C146 1.247 . S
O145 Cd141 2.439 . S
O145 C146 1.208 . S
C146 O144 1.247 . S
C146 O145 1.208 . S
C147 O152 1.247 . S
C147 O153 1.208 . S
C148 O140 1.315 . S
C148 O143 1.279 . S
C149 O150 1.315 . S
C149 O151 1.279 . S
O150 Cd142 2.223 . S
O150 C149 1.315 . S
O151 Cd141 2.240 . S
O151 C149 1.279 . S
O152 Cd142 2.297 . S
O152 C147 1.247 . S
O153 Cd142 2.439 . S
O153 C147 1.208 . S
O154 Cd155 2.223 . S
O154 C162 1.315 . S
Cd155 O154 2.223 . S
Cd155 O158 2.297 . S
Cd155 O159 2.439 . S
Cd155 O165 2.240 . S
Cd156 O157 2.240 . S
Cd156 O164 2.223 . S
Cd156 O166 2.297 . S
Cd156 O167 2.439 . S
O157 Cd156 2.240 . S
O157 C162 1.279 . S
O158 Cd155 2.297 . S
O158 C160 1.247 . S
O159 Cd155 2.439 . S
O159 C160 1.208 . S
C160 O158 1.247 . S
C160 O159 1.208 . S
C161 O166 1.247 . S
C161 O167 1.208 . S
C162 O154 1.315 . S
C162 O157 1.279 . S
C163 O164 1.315 . S
C163 O165 1.279 . S
O164 Cd156 2.223 . S
O164 C163 1.315 . S
O165 Cd155 2.240 . S
O165 C163 1.279 . S
O166 Cd156 2.297 . S
O166 C161 1.247 . S
O167 Cd156 2.439 . S
O167 C161 1.208 . S
O168 Cd169 2.223 . S
O168 C176 1.315 . S
Cd169 O168 2.223 . S
Cd169 O172 2.297 . S
Cd169 O173 2.439 . S
Cd169 O179 2.240 . S
Cd170 O171 2.240 . S
Cd170 O178 2.223 . S
Cd170 O180 2.297 . S
Cd170 O181 2.439 . S
O171 Cd170 2.240 . S
O171 C176 1.279 . S
O172 Cd169 2.297 . S
O172 C174 1.247 . S
O173 Cd169 2.439 . S
O173 C174 1.208 . S
C174 O172 1.247 . S
C174 O173 1.208 . S
C175 O180 1.247 . S
C175 O181 1.208 . S
C176 O168 1.315 . S
C176 O171 1.279 . S
C177 O178 1.315 . S
C177 O179 1.279 . S
O178 Cd170 2.223 . S
O178 C177 1.315 . S
O179 Cd169 2.240 . S
O179 C177 1.279 . S
O180 Cd170 2.297 . S
O180 C175 1.247 . S
O181 Cd170 2.439 . S
O181 C175 1.208 . S
O182 Cd183 2.223 . S
O182 C190 1.315 . S
Cd183 O182 2.223 . S
Cd183 O186 2.297 . S
Cd183 O187 2.439 . S
Cd183 O193 2.240 . S
Cd184 O185 2.240 . S
Cd184 O192 2.223 . S
Cd184 O194 2.297 . S
Cd184 O195 2.439 . S
O185 Cd184 2.240 . S
O185 C190 1.279 . S
O186 Cd183 2.297 . S
O186 C188 1.247 . S
O187 Cd183 2.439 . S
O187 C188 1.208 . S
C188 O186 1.247 . S
C188 O187 1.208 . S
C189 O194 1.247 . S
C189 O195 1.208 . S
C190 O182 1.315 . S
C190 O185 1.279 . S
C191 O192 1.315 . S
C191 O193 1.279 . S
O192 Cd184 2.223 . S
O192 C191 1.315 . S
O193 Cd183 2.240 . S
O193 C191 1.279 . S
O194 Cd184 2.297 . S
O194 C189 1.247 . S
O195 Cd184 2.439 . S
O195 C189 1.208 . S
O196 Cd197 2.223 . S
O196 C204 1.315 . S
Cd197 O196 2.223 . S
Cd197 O200 2.297 . S
Cd197 O201 2.439 . S
Cd197 O207 2.240 . S
Cd198 O199 2.240 . S
Cd198 O206 2.223 . S
Cd198 O208 2.297 . S
Cd198 O209 2.439 . S
O199 Cd198 2.240 . S
O199 C204 1.279 . S
O200 Cd197 2.297 . S
O200 C202 1.247 . S
O201 Cd197 2.439 . S
O201 C202 1.208 . S
C202 O200 1.247 . S
C202 O201 1.208 . S
C203 O208 1.247 . S
C203 O209 1.208 . S
C204 O196 1.315 . S
C204 O199 1.279 . S
C205 O206 1.315 . S
C205 O207 1.279 . S
O206 Cd198 2.223 . S
O206 C205 1.315 . S
O207 Cd197 2.240 . S
O207 C205 1.279 . S
O208 Cd198 2.297 . S
O208 C203 1.247 . S
O209 Cd198 2.439 . S
O209 C203 1.208 . S
O210 Cd211 2.223 . S
O210 C218 1.315 . S
Cd211 O210 2.223 . S
Cd211 O214 2.297 . S
Cd211 O215 2.439 . S
Cd211 O221 2.240 . S
Cd212 O213 2.240 . S
Cd212 O220 2.223 . S
Cd212 O222 2.297 . S
Cd212 O223 2.439 . S
O213 Cd212 2.240 . S
O213 C218 1.279 . S
O214 Cd211 2.297 . S
O214 C216 1.247 . S
O215 Cd211 2.439 . S
O215 C216 1.208 . S
C216 O214 1.247 . S
C216 O215 1.208 . S
C217 O222 1.247 . S
C217 O223 1.208 . S
C218 O210 1.315 . S
C218 O213 1.279 . S
C219 O220 1.315 . S
C219 O221 1.279 . S
O220 Cd212 2.223 . S
O220 C219 1.315 . S
O221 Cd211 2.240 . S
O221 C219 1.279 . S
O222 Cd212 2.297 . S
O222 C217 1.247 . S
O223 Cd212 2.439 . S
O223 C217 1.208 . S
O224 Cd225 2.223 . S
O224 C232 1.315 . S
Cd225 O224 2.223 . S
Cd225 O228 2.297 . S
Cd225 O229 2.439 . S
Cd225 O235 2.240 . S
Cd226 O227 2.240 . S
Cd226 O234 2.223 . S
Cd226 O236 2.297 . S
Cd226 O237 2.439 . S
O227 Cd226 2.240 . S
O227 C232 1.279 . S
O228 Cd225 2.297 . S
O228 C230 1.247 . S
O229 Cd225 2.439 . S
O229 C230 1.208 . S
C230 O228 1.247 . S
C230 O229 1.208 . S
C231 O236 1.247 . S
C231 O237 1.208 . S
C232 O224 1.315 . S
C232 O227 1.279 . S
C233 O234 1.315 . S
C233 O235 1.279 . S
O234 Cd226 2.223 . S
O234 C233 1.315 . S
O235 Cd225 2.240 . S
O235 C233 1.279 . S
O236 Cd226 2.297 . S
O236 C231 1.247 . S
O237 Cd226 2.439 . S
O237 C231 1.208 . S
O238 Cd239 2.223 . S
O238 C246 1.315 . S
Cd239 O238 2.223 . S
Cd239 O242 2.297 . S
Cd239 O243 2.439 . S
Cd239 O249 2.240 . S
Cd240 O241 2.240 . S
Cd240 O248 2.223 . S
Cd240 O250 2.297 . S
Cd240 O251 2.439 . S
O241 Cd240 2.240 . S
O241 C246 1.279 . S
O242 Cd239 2.297 . S
O242 C244 1.247 . S
O243 Cd239 2.439 . S
O243 C244 1.208 . S
C244 O242 1.247 . S
C244 O243 1.208 . S
C245 O250 1.247 . S
C245 O251 1.208 . S
C246 O238 1.315 . S
C246 O241 1.279 . S
C247 O248 1.315 . S
C247 O249 1.279 . S
O248 Cd240 2.223 . S
O248 C247 1.315 . S
O249 Cd239 2.240 . S
O249 C247 1.279 . S
O250 Cd240 2.297 . S
O250 C245 1.247 . S
O251 Cd240 2.439 . S
O251 C245 1.208 . S
O252 Cd253 2.223 . S
O252 C260 1.315 . S
Cd253 O252 2.223 . S
Cd253 O256 2.297 . S
Cd253 O257 2.439 . S
Cd253 O263 2.240 . S
Cd254 O255 2.240 . S
Cd254 O262 2.223 . S
Cd254 O264 2.297 . S
Cd254 O265 2.439 . S
O255 Cd254 2.240 . S
O255 C260 1.279 . S
O256 Cd253 2.297 . S
O256 C258 1.247 . S
O257 Cd253 2.439 . S
O257 C258 1.208 . S
C258 O256 1.247 . S
C258 O257 1.208 . S
C259 O264 1.247 . S
C259 O265 1.208 . S
C260 O252 1.315 . S
C260 O255 1.279 . S
C261 O262 1.315 . S
C261 O263 1.279 . S
O262 Cd254 2.223 . S
O262 C261 1.315 . S
O263 Cd253 2.240 . S
O263 C261 1.279 . S
O264 Cd254 2.297 . S
O264 C259 1.247 . S
O265 Cd254 2.439 . S
O265 C259 1.208 . S
O266 Cd267 2.223 . S
O266 C274 1.315 . S
Cd267 O266 2.223 . S
Cd267 O270 2.297 . S
Cd267 O271 2.439 . S
Cd267 O277 2.240 . S
Cd268 O269 2.240 . S
Cd268 O276 2.223 . S
Cd268 O278 2.297 . S
Cd268 O279 2.439 . S
O269 Cd268 2.240 . S
O269 C274 1.279 . S
O270 Cd267 2.297 . S
O270 C272 1.247 . S
O271 Cd267 2.439 . S
O271 C272 1.208 . S
C272 O270 1.247 . S
C272 O271 1.208 . S
C273 O278 1.247 . S
C273 O279 1.208 . S
C274 O266 1.315 . S
C274 O269 1.279 . S
C275 O276 1.315 . S
C275 O277 1.279 . S
O276 Cd268 2.223 . S
O276 C275 1.315 . S
O277 Cd267 2.240 . S
O277 C275 1.279 . S
O278 Cd268 2.297 . S
O278 C273 1.247 . S
O279 Cd268 2.439 . S
O279 C273 1.208 . S
O280 Cd281 2.223 . S
O280 C288 1.315 . S
Cd281 O280 2.223 . S
Cd281 O284 2.297 . S
Cd281 O285 2.439 . S
Cd281 O291 2.240 . S
Cd282 O283 2.240 . S
Cd282 O290 2.223 . S
Cd282 O292 2.297 . S
Cd282 O293 2.439 . S
O283 Cd282 2.240 . S
O283 C288 1.279 . S
O284 Cd281 2.297 . S
O284 C286 1.247 . S
O285 Cd281 2.439 . S
O285 C286 1.208 . S
C286 O284 1.247 . S
C286 O285 1.208 . S
C287 O292 1.247 . S
C287 O293 1.208 . S
C288 O280 1.315 . S
C288 O283 1.279 . S
C289 O290 1.315 . S
C289 O291 1.279 . S
O290 Cd282 2.223 . S
O290 C289 1.315 . S
O291 Cd281 2.240 . S
O291 C289 1.279 . S
O292 Cd282 2.297 . S
O292 C287 1.247 . S
O293 Cd282 2.439 . S
O293 C287 1.208 . S
O294 Cd295 2.223 . S
O294 C302 1.315 . S
Cd295 O294 2.223 . S
Cd295 O298 2.297 . S
Cd295 O299 2.439 . S
Cd295 O305 2.240 . S
Cd296 O297 2.240 . S
Cd296 O304 2.223 . S
Cd296 O306 2.297 . S
Cd296 O307 2.439 . S
O297 Cd296 2.240 . S
O297 C302 1.279 . S
O298 Cd295 2.297 . S
O298 C300 1.247 . S
O299 Cd295 2.439 . S
O299 C300 1.208 . S
C300 O298 1.247 . S
C300 O299 1.208 . S
C301 O306 1.247 . S
C301 O307 1.208 . S
C302 O294 1.315 . S
C302 O297 1.279 . S
C303 O304 1.315 . S
C303 O305 1.279 . S
O304 Cd296 2.223 . S
O304 C303 1.315 . S
O305 Cd295 2.240 . S
O305 C303 1.279 . S
O306 Cd296 2.297 . S
O306 C301 1.247 . S
O307 Cd296 2.439 . S
O307 C301 1.208 . S
O308 Cd309 2.223 . S
O308 C316 1.315 . S
Cd309 O308 2.223 . S
Cd309 O312 2.297 . S
Cd309 O313 2.439 . S
Cd309 O319 2.240 . S
Cd310 O311 2.240 . S
Cd310 O318 2.223 . S
Cd310 O320 2.297 . S
Cd310 O321 2.439 . S
O311 Cd310 2.240 . S
O311 C316 1.279 . S
O312 Cd309 2.297 . S
O312 C314 1.247 . S
O313 Cd309 2.439 . S
O313 C314 1.208 . S
C314 O312 1.247 . S
C314 O313 1.208 . S
C315 O320 1.247 . S
C315 O321 1.208 . S
C316 O308 1.315 . S
C316 O311 1.279 . S
C317 O318 1.315 . S
C317 O319 1.279 . S
O318 Cd310 2.223 . S
O318 C317 1.315 . S
O319 Cd309 2.240 . S
O319 C317 1.279 . S
O320 Cd310 2.297 . S
O320 C315 1.247 . S
O321 Cd310 2.439 . S
O321 C315 1.208 . S
O322 Cd323 2.223 . S
O322 C330 1.315 . S
Cd323 O322 2.223 . S
Cd323 O326 2.297 . S
Cd323 O327 2.439 . S
Cd323 O333 2.240 . S
Cd324 O325 2.240 . S
Cd324 O332 2.223 . S
Cd324 O334 2.297 . S
Cd324 O335 2.439 . S
O325 Cd324 2.240 . S
O325 C330 1.279 . S
O326 Cd323 2.297 . S
O326 C328 1.247 . S
O327 Cd323 2.439 . S
O327 C328 1.208 . S
C328 O326 1.247 . S
C328 O327 1.208 . S
C329 O334 1.247 . S
C329 O335 1.208 . S
C330 O322 1.315 . S
C330 O325 1.279 . S
C331 O332 1.315 . S
C331 O333 1.279 . S
O332 Cd324 2.223 . S
O332 C331 1.315 . S
O333 Cd323 2.240 . S
O333 C331 1.279 . S
O334 Cd324 2.297 . S
O334 C329 1.247 . S
O335 Cd324 2.439 . S
O335 C329 1.208 . S
O336 Cd337 2.223 . S
O336 C344 1.315 . S
Cd337 O336 2.223 . S
Cd337 O340 2.297 . S
Cd337 O341 2.439 . S
Cd337 O347 2.240 . S
Cd338 O339 2.240 . S
Cd338 O346 2.223 . S
Cd338 O348 2.297 . S
Cd338 O349 2.439 . S
O339 Cd338 2.240 . S
O339 C344 1.279 . S
O340 Cd337 2.297 . S
O340 C342 1.247 . S
O341 Cd337 2.439 . S
O341 C342 1.208 . S
C342 O340 1.247 . S
C342 O341 1.208 . S
C343 O348 1.247 . S
C343 O349 1.208 . S
C344 O336 1.315 . S
C344 O339 1.279 . S
C345 O346 1.315 . S
C345 O347 1.279 . S
O346 Cd338 2.223 . S
O346 C345 1.315 . S
O347 Cd337 2.240 . S
O347 C345 1.279 . S
O348 Cd338 2.297 . S
O348 C343 1.247 . S
O349 Cd338 2.439 . S
O349 C343 1.208 . S
O350 Cd351 2.223 . S
O350 C358 1.315 . S
Cd351 O350 2.223 . S
Cd351 O354 2.297 . S
Cd351 O355 2.439 . S
Cd351 O361 2.240 . S
Cd352 O353 2.240 . S
Cd352 O360 2.223 . S
Cd352 O362 2.297 . S
Cd352 O363 2.439 . S
O353 Cd352 2.240 . S
O353 C358 1.279 . S
O354 Cd351 2.297 . S
O354 C356 1.247 . S
O355 Cd351 2.439 . S
O355 C356 1.208 . S
C356 O354 1.247 . S
C356 O355 1.208 . S
C357 O362 1.247 . S
C357 O363 1.208 . S
C358 O350 1.315 . S
C358 O353 1.279 . S
C359 O360 1.315 . S
C359 O361 1.279 . S
O360 Cd352 2.223 . S
O360 C359 1.315 . S
O361 Cd351 2.240 . S
O361 C359 1.279 . S
O362 Cd352 2.297 . S
O362 C357 1.247 . S
O363 Cd352 2.439 . S
O363 C357 1.208 . S
O364 Cd365 2.223 . S
O364 C372 1.315 . S
Cd365 O364 2.223 . S
Cd365 O368 2.297 . S
Cd365 O369 2.439 . S
Cd365 O375 2.240 . S
Cd366 O367 2.240 . S
Cd366 O374 2.223 . S
Cd366 O376 2.297 . S
Cd366 O377 2.439 . S
O367 Cd366 2.240 . S
O367 C372 1.279 . S
O368 Cd365 2.297 . S
O368 C370 1.247 . S
O369 Cd365 2.439 . S
O369 C370 1.208 . S
C370 O368 1.247 . S
C370 O369 1.208 . S
C371 O376 1.247 . S
C371 O377 1.208 . S
C372 O364 1.315 . S
C372 O367 1.279 . S
C373 O374 1.315 . S
C373 O375 1.279 . S
O374 Cd366 2.223 . S
O374 C373 1.315 . S
O375 Cd365 2.240 . S
O375 C373 1.279 . S
O376 Cd366 2.297 . S
O376 C371 1.247 . S
O377 Cd366 2.439 . S
O377 C371 1.208 . S
O378 Cd379 2.223 . S
O378 C386 1.315 . S
Cd379 O378 2.223 . S
Cd379 O382 2.297 . S
Cd379 O383 2.439 . S
Cd379 O389 2.240 . S
Cd380 O381 2.240 . S
Cd380 O388 2.223 . S
Cd380 O390 2.297 . S
Cd380 O391 2.439 . S
O381 Cd380 2.240 . S
O381 C386 1.279 . S
O382 Cd379 2.297 . S
O382 C384 1.247 . S
O383 Cd379 2.439 . S
O383 C384 1.208 . S
C384 O382 1.247 . S
C384 O383 1.208 . S
C385 O390 1.247 . S
C385 O391 1.208 . S
C386 O378 1.315 . S
C386 O381 1.279 . S
C387 O388 1.315 . S
C387 O389 1.279 . S
O388 Cd380 2.223 . S
O388 C387 1.315 . S
O389 Cd379 2.240 . S
O389 C387 1.279 . S
O390 Cd380 2.297 . S
O390 C385 1.247 . S
O391 Cd380 2.439 . S
O391 C385 1.208 . S
O392 Cd393 2.223 . S
O392 C400 1.315 . S
Cd393 O392 2.223 . S
Cd393 O396 2.297 . S
Cd393 O397 2.439 . S
Cd393 O403 2.240 . S
Cd394 O395 2.240 . S
Cd394 O402 2.223 . S
Cd394 O404 2.297 . S
Cd394 O405 2.439 . S
O395 Cd394 2.240 . S
O395 C400 1.279 . S
O396 Cd393 2.297 . S
O396 C398 1.247 . S
O397 Cd393 2.439 . S
O397 C398 1.208 . S
C398 O396 1.247 . S
C398 O397 1.208 . S
C399 O404 1.247 . S
C399 O405 1.208 . S
C400 O392 1.315 . S
C400 O395 1.279 . S
C401 O402 1.315 . S
C401 O403 1.279 . S
O402 Cd394 2.223 . S
O402 C401 1.315 . S
O403 Cd393 2.240 . S
O403 C401 1.279 . S
O404 Cd394 2.297 . S
O404 C399 1.247 . S
O405 Cd394 2.439 . S
O405 C399 1.208 . S
O406 Cd407 2.223 . S
O406 C414 1.315 . S
Cd407 O406 2.223 . S
Cd407 O410 2.297 . S
Cd407 O411 2.439 . S
Cd407 O417 2.240 . S
Cd408 O409 2.240 . S
Cd408 O416 2.223 . S
Cd408 O418 2.297 . S
Cd408 O419 2.439 . S
O409 Cd408 2.240 . S
O409 C414 1.279 . S
O410 Cd407 2.297 . S
O410 C412 1.247 . S
O411 Cd407 2.439 . S
O411 C412 1.208 . S
C412 O410 1.247 . S
C412 O411 1.208 . S
C413 O418 1.247 . S
C413 O419 1.208 . S
C414 O406 1.315 . S
C414 O409 1.279 . S
C415 O416 1.315 . S
C415 O417 1.279 . S
O416 Cd408 2.223 . S
O416 C415 1.315 . S
O417 Cd407 2.240 . S
O417 C415 1.279 . S
O418 Cd408 2.297 . S
O418 C413 1.247 . S
O419 Cd408 2.439 . S
O419 C413 1.208 . S
O420 Cd421 2.223 . S
O420 C428 1.315 . S
Cd421 O420 2.223 . S
Cd421 O424 2.297 . S
Cd421 O425 2.439 . S
Cd421 O431 2.240 . S
Cd422 O423 2.240 . S
Cd422 O430 2.223 . S
Cd422 O432 2.297 . S
Cd422 O433 2.439 . S
O423 Cd422 2.240 . S
O423 C428 1.279 . S
O424 Cd421 2.297 . S
O424 C426 1.247 . S
O425 Cd421 2.439 . S
O425 C426 1.208 . S
C426 O424 1.247 . S
C426 O425 1.208 . S
C427 O432 1.247 . S
C427 O433 1.208 . S
C428 O420 1.315 . S
C428 O423 1.279 . S
C429 O430 1.315 . S
C429 O431 1.279 . S
O430 Cd422 2.223 . S
O430 C429 1.315 . S
O431 Cd421 2.240 . S
O431 C429 1.279 . S
O432 Cd422 2.297 . S
O432 C427 1.247 . S
O433 Cd422 2.439 . S
O433 C427 1.208 . S
O434 Cd435 2.223 . S
O434 C442 1.315 . S
Cd435 O434 2.223 . S
Cd435 O438 2.297 . S
Cd435 O439 2.439 . S
Cd435 O445 2.240 . S
Cd436 O437 2.240 . S
Cd436 O444 2.223 . S
Cd436 O446 2.297 . S
Cd436 O447 2.439 . S
O437 Cd436 2.240 . S
O437 C442 1.279 . S
O438 Cd435 2.297 . S
O438 C440 1.247 . S
O439 Cd435 2.439 . S
O439 C440 1.208 . S
C440 O438 1.247 . S
C440 O439 1.208 . S
C441 O446 1.247 . S
C441 O447 1.208 . S
C442 O434 1.315 . S
C442 O437 1.279 . S
C443 O444 1.315 . S
C443 O445 1.279 . S
O444 Cd436 2.223 . S
O444 C443 1.315 . S
O445 Cd435 2.240 . S
O445 C443 1.279 . S
O446 Cd436 2.297 . S
O446 C441 1.247 . S
O447 Cd436 2.439 . S
O447 C441 1.208 . S
O448 Cd449 2.223 . S
O448 C456 1.315 . S
Cd449 O448 2.223 . S
Cd449 O452 2.297 . S
Cd449 O453 2.439 . S
Cd449 O459 2.240 . S
Cd450 O451 2.240 . S
Cd450 O458 2.223 . S
Cd450 O460 2.297 . S
Cd450 O461 2.439 . S
O451 Cd450 2.240 . S
O451 C456 1.279 . S
O452 Cd449 2.297 . S
O452 C454 1.247 . S
O453 Cd449 2.439 . S
O453 C454 1.208 . S
C454 O452 1.247 . S
C454 O453 1.208 . S
C455 O460 1.247 . S
C455 O461 1.208 . S
C456 O448 1.315 . S
C456 O451 1.279 . S
C457 O458 1.315 . S
C457 O459 1.279 . S
O458 Cd450 2.223 . S
O458 C457 1.315 . S
O459 Cd449 2.240 . S
O459 C457 1.279 . S
O460 Cd450 2.297 . S
O460 C455 1.247 . S
O461 Cd450 2.439 . S
O461 C455 1.208 . S
O462 Cd463 2.223 . S
O462 C470 1.315 . S
Cd463 O462 2.223 . S
Cd463 O466 2.297 . S
Cd463 O467 2.439 . S
Cd463 O473 2.240 . S
Cd464 O465 2.240 . S
Cd464 O472 2.223 . S
Cd464 O474 2.297 . S
Cd464 O475 2.439 . S
O465 Cd464 2.240 . S
O465 C470 1.279 . S
O466 Cd463 2.297 . S
O466 C468 1.247 . S
O467 Cd463 2.439 . S
O467 C468 1.208 . S
C468 O466 1.247 . S
C468 O467 1.208 . S
C469 O474 1.247 . S
C469 O475 1.208 . S
C470 O462 1.315 . S
C470 O465 1.279 . S
C471 O472 1.315 . S
C471 O473 1.279 . S
O472 Cd464 2.223 . S
O472 C471 1.315 . S
O473 Cd463 2.240 . S
O473 C471 1.279 . S
O474 Cd464 2.297 . S
O474 C469 1.247 . S
O475 Cd464 2.439 . S
O475 C469 1.208 . S
O476 Cd477 2.223 . S
O476 C484 1.315 . S
Cd477 O476 2.223 . S
Cd477 O480 2.297 . S
Cd477 O481 2.439 . S
Cd477 O487 2.240 . S
Cd478 O479 2.240 . S
Cd478 O486 2.223 . S
Cd478 O488 2.297 . S
Cd478 O489 2.439 . S
O479 Cd478 2.240 . S
O479 C484 1.279 . S
O480 Cd477 2.297 . S
O480 C482 1.247 . S
O481 Cd477 2.439 . S
O481 C482 1.208 . S
C482 O480 1.247 . S
C482 O481 1.208 . S
C483 O488 1.247 . S
C483 O489 1.208 . S
C484 O476 1.315 . S
C484 O479 1.279 . S
C485 O486 1.315 . S
C485 O487 1.279 . S
O486 Cd478 2.223 . S
O486 C485 1.315 . S
O487 Cd477 2.240 . S
O487 C485 1.279 . S
O488 Cd478 2.297 . S
O488 C483 1.247 . S
O489 Cd478 2.439 . S
O489 C483 1.208 . S
O490 Cd491 2.223 . S
O490 C498 1.315 . S
Cd491 O490 2.223 . S
Cd491 O494 2.297 . S
Cd491 O495 2.439 . S
Cd491 O501 2.240 . S
Cd492 O493 2.240 . S
Cd492 O500 2.223 . S
Cd492 O502 2.297 . S
Cd492 O503 2.439 . S
O493 Cd492 2.240 . S
O493 C498 1.279 . S
O494 Cd491 2.297 . S
O494 C496 1.247 . S
O495 Cd491 2.439 . S
O495 C496 1.208 . S
C496 O494 1.247 . S
C496 O495 1.208 . S
C497 O502 1.247 . S
C497 O503 1.208 . S
C498 O490 1.315 . S
C498 O493 1.279 . S
C499 O500 1.315 . S
C499 O501 1.279 . S
O500 Cd492 2.223 . S
O500 C499 1.315 . S
O501 Cd491 2.240 . S
O501 C499 1.279 . S
O502 Cd492 2.297 . S
O502 C497 1.247 . S
O503 Cd492 2.439 . S
O503 C497 1.208 . S
C504 C505 1.349 . S
C504 C506 1.327 . S
C504 H529 0.950 . S
C505 C504 1.349 . S
C505 C521 1.349 . S
C506 C504 1.327 . S
C506 C525 1.429 . S
C506 H530 0.950 . S
C507 C524 1.574 . S
C507 C526 1.368 1_556 S
C507 H531 0.949 . S
H508 C512 0.954 . S
C509 C510 1.349 . S
C509 C511 1.327 . S
C509 H532 0.950 . S
C510 C509 1.349 . S
C510 C522 1.349 . S
C511 C509 1.327 . S
C511 C527 1.429 . S
C511 H533 0.991 . S
C512 H508 0.954 . S
C512 C520 1.570 1_565 S
C512 C528 1.367 1_564 S
H513 C521 0.950 . S
H514 C519 0.910 1_556 S
H515 C520 0.949 . S
H516 C522 0.950 . S
H517 C523 0.950 . S
H518 C524 0.949 . S
C519 H514 0.910 1_554 S
C519 C521 1.327 . S
C519 C525 1.429 . S
C520 C512 1.570 1_545 S
C520 H515 0.949 . S
C520 C526 1.368 . S
C521 C505 1.349 . S
C521 H513 0.950 . S
C521 C519 1.327 . S
C522 C510 1.349 . S
C522 H516 0.950 . S
C522 C523 1.327 . S
C523 H517 0.950 . S
C523 C522 1.327 . S
C523 C527 1.429 . S
C524 C507 1.574 . S
C524 H518 0.949 . S
C524 C528 1.368 . S
C525 C506 1.429 . S
C525 C519 1.429 . S
C525 C526 1.523 . S
C526 C507 1.368 1_554 S
C526 C520 1.368 . S
C526 C525 1.523 . S
C527 C511 1.429 . S
C527 C523 1.429 . S
C527 C528 1.523 1_565 S
C528 C512 1.367 1_546 S
C528 C524 1.368 . S
C528 C527 1.523 1_545 S
H529 C504 0.950 . S
H530 C506 0.950 . S
H531 C507 0.949 . S
H532 C509 0.950 . S
H533 C511 0.991 . S
C534 C535 1.349 . S
C534 C536 1.327 . S
C534 H559 0.950 . S
C535 C534 1.349 . S
C535 C551 1.349 . S
C536 C534 1.327 . S
C536 C555 1.429 . S
C536 H560 0.950 . S
C537 C554 1.574 . S
C537 C556 1.368 1_556 S
C537 H561 0.949 . S
H538 C542 0.949 1_455 S
C539 C540 1.349 . S
C539 C541 1.327 . S
C539 H562 0.950 . S
C540 C539 1.349 . S
C540 C552 1.349 . S
C541 C539 1.327 . S
C541 C557 1.429 . S
C541 H563 0.950 . S
C542 H538 0.949 1_655 S
C542 C550 1.574 1_556 S
C542 C558 1.368 . S
H543 C551 0.950 . S
H544 C549 0.950 . S
H545 C550 0.949 . S
H546 C552 0.950 . S
H547 C553 0.950 . S
H548 C554 0.949 . S
C549 H544 0.950 . S
C549 C551 1.327 . S
C549 C555 1.429 . S
C550 C542 1.574 1_554 S
C550 H545 0.949 . S
C550 C556 1.368 . S
C551 C535 1.349 . S
C551 H543 0.950 . S
C551 C549 1.327 . S
C552 C540 1.349 . S
C552 H546 0.950 . S
C552 C553 1.327 . S
C553 H547 0.950 . S
C553 C552 1.327 . S
C553 C557 1.429 . S
C554 C537 1.574 . S
C554 H548 0.949 . S
C554 C558 1.368 . S
C555 C536 1.429 . S
C555 C549 1.429 . S
C555 C556 1.523 . S
C556 C537 1.368 1_554 S
C556 C550 1.368 . S
C556 C555 1.523 . S
C557 C541 1.429 . S
C557 C553 1.429 . S
C557 C558 1.523 1_455 S
C558 C542 1.368 . S
C558 C554 1.368 . S
C558 C557 1.523 1_655 S
H559 C534 0.950 . S
H560 C536 0.950 . S
H561 C537 0.949 . S
H562 C539 0.950 . S
H563 C541 0.950 . S
C564 C565 1.349 . S
C564 C566 1.327 . S
C564 H589 0.950 . S
C565 C564 1.349 . S
C565 C581 1.349 . S
C566 C564 1.327 . S
C566 C585 1.429 . S
C566 H590 0.950 . S
C567 C584 1.574 . S
C567 C586 1.368 . S
C567 H591 0.949 . S
H568 C572 0.949 . S
C569 C570 1.349 . S
C569 C571 1.327 . S
C569 H592 0.950 . S
C570 C569 1.349 . S
C570 C582 1.349 . S
C571 C569 1.327 . S
C571 C587 1.429 . S
C571 H593 0.950 . S
C572 H568 0.949 . S
C572 C580 1.574 . S
C572 C588 1.368 . S
H573 C581 0.950 . S
H574 C579 0.950 . S
H575 C580 0.949 . S
H576 C582 0.950 . S
H577 C583 0.950 . S
H578 C584 0.949 . S
C579 H574 0.950 . S
C579 C581 1.327 . S
C579 C585 1.429 . S
C580 C572 1.574 . S
C580 H575 0.949 . S
C580 C586 1.368 1_554 S
C581 C565 1.349 . S
C581 H573 0.950 . S
C581 C579 1.327 . S
C582 C570 1.349 . S
C582 H576 0.950 . S
C582 C583 1.327 . S
C583 H577 0.950 . S
C583 C582 1.327 . S
C583 C587 1.429 . S
C584 C567 1.574 . S
C584 H578 0.949 . S
C584 C588 1.368 1_556 S
C585 C566 1.429 . S
C585 C579 1.429 . S
C585 C586 1.523 . S
C586 C567 1.368 . S
C586 C580 1.368 1_556 S
C586 C585 1.523 . S
C587 C571 1.429 . S
C587 C583 1.429 . S
C587 C588 1.523 . S
C588 C572 1.368 . S
C588 C584 1.368 1_554 S
C588 C587 1.523 . S
H589 C564 0.950 . S
H590 C566 0.950 . S
H591 C567 0.949 . S
H592 C569 0.950 . S
H593 C571 0.950 . S
C594 C595 1.349 . S
C594 C596 1.327 . S
C594 H619 0.950 . S
C595 C594 1.349 . S
C595 C611 1.349 . S
C596 C594 1.327 . S
C596 C615 1.429 . S
C596 H620 0.950 . S
C597 C614 1.574 . S
C597 C616 1.368 . S
C597 H621 0.949 . S
H598 C602 0.949 . S
C599 C600 1.349 . S
C599 C601 1.327 . S
C599 H622 0.950 . S
C600 C599 1.349 . S
C600 C612 1.349 . S
C601 C599 1.327 . S
C601 C617 1.429 . S
C601 H623 0.950 . S
C602 H598 0.949 . S
C602 C610 1.573 1_455 S
C602 C618 1.368 . S
H603 C611 0.950 . S
H604 C609 0.984 . S
H605 C610 0.949 . S
H606 C612 0.950 . S
H607 C613 0.950 . S
H608 C614 0.949 . S
C609 H604 0.984 . S
C609 C611 1.327 . S
C609 C615 1.429 . S
C610 C602 1.573 1_655 S
C610 H605 0.949 . S
C610 C616 1.368 1_655 S
C611 C595 1.349 . S
C611 H603 0.950 . S
C611 C609 1.327 . S
C612 C600 1.349 . S
C612 H606 0.950 . S
C612 C613 1.327 . S
C613 H607 0.950 . S
C613 C612 1.327 . S
C613 C617 1.429 . S
C614 C597 1.574 . S
C614 H608 0.949 . S
C614 C618 1.368 . S
C615 C596 1.429 . S
C615 C609 1.429 . S
C615 C616 1.523 1_655 S
C616 C597 1.368 . S
C616 C610 1.368 1_455 S
C616 C615 1.523 1_455 S
C617 C601 1.429 . S
C617 C613 1.429 . S
C617 C618 1.523 . S
C618 C602 1.368 . S
C618 C614 1.368 . S
C618 C617 1.523 . S
H619 C594 0.950 . S
H620 C596 0.950 . S
H621 C597 0.949 . S
H622 C599 0.950 . S
H623 C601 0.950 . S
C624 C625 1.349 . S
C624 C626 1.327 . S
C624 H649 0.950 . S
C625 C624 1.349 . S
C625 C641 1.349 . S
C626 C624 1.327 . S
C626 C645 1.429 . S
C626 H650 0.950 . S
C627 C644 1.574 . S
C627 C646 1.368 . S
C627 H651 0.949 . S
H628 C632 0.949 . S
C629 C630 1.349 . S
C629 C631 1.327 . S
C629 H652 0.950 . S
C630 C629 1.349 . S
C630 C642 1.349 . S
C631 C629 1.327 . S
C631 C647 1.429 . S
C631 H653 0.950 . S
C632 H628 0.949 . S
C632 C640 1.574 . S
C632 C648 1.368 . S
H633 C641 0.950 . S
H634 C639 0.950 . S
H635 C640 0.949 . S
H636 C642 0.950 . S
H637 C643 0.950 . S
H638 C644 0.949 . S
C639 H634 0.950 . S
C639 C641 1.327 . S
C639 C645 1.429 . S
C640 C632 1.574 . S
C640 H635 0.949 . S
C640 C646 1.368 . S
C641 C625 1.349 . S
C641 H633 0.950 . S
C641 C639 1.327 . S
C642 C630 1.349 . S
C642 H636 0.950 . S
C642 C643 1.327 . S
C643 H637 0.950 . S
C643 C642 1.327 . S
C643 C647 1.429 . S
C644 C627 1.574 . S
C644 H638 0.949 . S
C644 C648 1.368 . S
C645 C626 1.429 . S
C645 C639 1.429 . S
C645 C646 1.523 . S
C646 C627 1.368 . S
C646 C640 1.368 . S
C646 C645 1.523 . S
C647 C631 1.429 . S
C647 C643 1.429 . S
C647 C648 1.523 . S
C648 C632 1.368 . S
C648 C644 1.368 . S
C648 C647 1.523 . S
H649 C624 0.950 . S
H650 C626 0.950 . S
H651 C627 0.949 . S
H652 C629 0.950 . S
H653 C631 0.950 . S
C654 C655 1.349 . S
C654 C656 1.327 . S
C654 H679 0.950 . S
C655 C654 1.349 . S
C655 C671 1.349 . S
C656 C654 1.327 . S
C656 C675 1.429 . S
C656 H680 0.950 . S
C657 C674 1.571 1_565 S
C657 C676 1.368 . S
C657 H681 0.949 . S
H658 C662 0.949 . S
C659 C660 1.349 . S
C659 C661 1.327 . S
C659 H682 0.950 . S
C660 C659 1.349 . S
C660 C672 1.349 . S
C661 C659 1.327 . S
C661 C677 1.429 . S
C661 H683 0.950 . S
C662 H658 0.949 . S
C662 C670 1.574 . S
C662 C678 1.368 . S
H663 C671 0.950 . S
H664 C669 0.950 . S
H665 C670 0.949 . S
H666 C672 0.950 . S
H667 C673 0.993 . S
H668 C674 0.953 . S
C669 H664 0.950 . S
C669 C671 1.327 . S
C669 C675 1.429 . S
C670 C662 1.574 . S
C670 H665 0.949 . S
C670 C676 1.368 . S
C671 C655 1.349 . S
C671 H663 0.950 . S
C671 C669 1.327 . S
C672 C660 1.349 . S
C672 H666 0.950 . S
C672 C673 1.327 . S
C673 H667 0.993 . S
C673 C672 1.327 . S
C673 C677 1.429 . S
C674 C657 1.571 1_545 S
C674 H668 0.953 . S
C674 C678 1.367 1_545 S
C675 C656 1.429 . S
C675 C669 1.429 . S
C675 C676 1.523 . S
C676 C657 1.368 . S
C676 C670 1.368 . S
C676 C675 1.523 . S
C677 C661 1.429 . S
C677 C673 1.429 . S
C677 C678 1.523 1_545 S
C678 C662 1.368 . S
C678 C674 1.367 1_565 S
C678 C677 1.523 1_565 S
H679 C654 0.950 . S
H680 C656 0.950 . S
H681 C657 0.949 . S
H682 C659 0.950 . S
H683 C661 0.950 . S
C684 C685 1.349 . S
C684 C686 1.327 . S
C684 H709 0.950 . S
C685 C684 1.349 . S
C685 C701 1.349 . S
C686 C684 1.327 . S
C686 C705 1.429 . S
C686 H710 0.950 . S
C687 C704 1.547 1_545 S
C687 C706 1.366 1_546 S
C687 H711 0.976 . S
H688 C692 0.949 . S
C689 C690 1.349 . S
C689 C691 1.327 . S
C689 H712 0.950 . S
C690 C689 1.349 . S
C690 C702 1.349 . S
C691 C689 1.327 . S
C691 C707 1.429 . S
C691 H713 0.950 . S
C692 H688 0.949 . S
C692 C700 1.574 . S
C692 C708 1.368 1_554 S
H693 C701 0.950 . S
H694 C699 0.950 . S
H695 C700 0.949 . S
H696 C702 0.950 . S
H697 C703 0.980 . S
H698 C704 0.949 . S
C699 H694 0.950 . S
C699 C701 1.327 . S
C699 C705 1.429 . S
C700 C692 1.574 . S
C700 H695 0.949 . S
C700 C706 1.368 . S
C701 C685 1.349 . S
C701 H693 0.950 . S
C701 C699 1.327 . S
C702 C690 1.349 . S
C702 H696 0.950 . S
C702 C703 1.327 . S
C703 H697 0.980 . S
C703 C702 1.327 . S
C703 C707 1.429 . S
C704 C687 1.547 1_565 S
C704 H698 0.949 . S
C704 C708 1.368 . S
C705 C686 1.429 . S
C705 C699 1.429 . S
C705 C706 1.523 1_545 S
C706 C687 1.366 1_564 S
C706 C700 1.368 . S
C706 C705 1.523 1_565 S
C707 C691 1.429 . S
C707 C703 1.429 . S
C707 C708 1.523 . S
C708 C692 1.368 1_556 S
C708 C704 1.368 . S
C708 C707 1.523 . S
H709 C684 0.950 . S
H710 C686 0.950 . S
H711 C687 0.976 . S
H712 C689 0.950 . S
H713 C691 0.950 . S
C714 C715 1.349 . S
C714 C716 1.327 . S
C714 H739 0.950 . S
C715 C714 1.349 . S
C715 C731 1.349 . S
C716 C714 1.327 . S
C716 C735 1.429 . S
C716 H740 0.950 . S
C717 C734 1.574 . S
C717 C736 1.368 . S
C717 H741 0.949 . S
H718 C722 0.949 . S
C719 C720 1.349 . S
C719 C721 1.327 . S
C719 H742 0.950 . S
C720 C719 1.349 . S
C720 C732 1.349 . S
C721 C719 1.327 . S
C721 C737 1.429 . S
C721 H743 0.912 1_556 S
C722 H718 0.949 . S
C722 C730 1.559 1_455 S
C722 C738 1.368 . S
H723 C731 0.950 . S
H724 C729 0.961 . S
H725 C730 0.967 . S
H726 C732 0.950 . S
H727 C733 0.950 . S
H728 C734 0.949 . S
C729 H724 0.961 . S
C729 C731 1.327 . S
C729 C735 1.429 . S
C730 C722 1.559 1_655 S
C730 H725 0.967 . S
C730 C736 1.364 1_656 S
C731 C715 1.349 . S
C731 H723 0.950 . S
C731 C729 1.327 . S
C732 C720 1.349 . S
C732 H726 0.950 . S
C732 C733 1.327 . S
C733 H727 0.950 . S
C733 C732 1.327 . S
C733 C737 1.429 . S
C734 C717 1.574 . S
C734 H728 0.949 . S
C734 C738 1.368 1_554 S
C735 C716 1.429 . S
C735 C729 1.429 . S
C735 C736 1.523 1_655 S
C736 C717 1.368 . S
C736 C730 1.364 1_454 S
C736 C735 1.523 1_455 S
C737 C721 1.429 . S
C737 C733 1.429 . S
C737 C738 1.523 . S
C738 C722 1.368 . S
C738 C734 1.368 1_556 S
C738 C737 1.523 . S
H739 C714 0.950 . S
H740 C716 0.950 . S
H741 C717 0.949 . S
H742 C719 0.950 . S
H743 C721 0.912 1_554 S
C744 C745 1.349 . S
C744 C746 1.327 . S
C744 H769 0.950 . S
C745 C744 1.349 . S
C745 C761 1.349 . S
C746 C744 1.327 . S
C746 C765 1.429 . S
C746 H770 0.950 . S
C747 C764 1.574 . S
C747 C766 1.368 . S
C747 H771 0.949 . S
H748 C752 0.949 . S
C749 C750 1.349 . S
C749 C751 1.327 . S
C749 H772 0.950 . S
C750 C749 1.349 . S
C750 C762 1.349 . S
C751 C749 1.327 . S
C751 C767 1.429 . S
C751 H773 0.950 . S
C752 H748 0.949 . S
C752 C760 1.574 . S
C752 C768 1.368 . S
H753 C761 0.950 . S
H754 C759 0.950 . S
H755 C760 0.949 . S
H756 C762 0.950 . S
H757 C763 0.950 . S
H758 C764 0.949 . S
C759 H754 0.950 . S
C759 C761 1.327 . S
C759 C765 1.429 . S
C760 C752 1.574 . S
C760 H755 0.949 . S
C760 C766 1.368 1_554 S
C761 C745 1.349 . S
C761 H753 0.950 . S
C761 C759 1.327 . S
C762 C750 1.349 . S
C762 H756 0.950 . S
C762 C763 1.327 . S
C763 H757 0.950 . S
C763 C762 1.327 . S
C763 C767 1.429 . S
C764 C747 1.574 . S
C764 H758 0.949 . S
C764 C768 1.368 1_556 S
C765 C746 1.429 . S
C765 C759 1.429 . S
C765 C766 1.523 . S
C766 C747 1.368 . S
C766 C760 1.368 1_556 S
C766 C765 1.523 . S
C767 C751 1.429 . S
C767 C763 1.429 . S
C767 C768 1.523 . S
C768 C752 1.368 . S
C768 C764 1.368 1_554 S
C768 C767 1.523 . S
H769 C744 0.950 . S
H770 C746 0.950 . S
H771 C747 0.949 . S
H772 C749 0.950 . S
H773 C751 0.950 . S
C774 C775 1.349 . S
C774 C776 1.327 . S
C774 H799 0.950 . S
C775 C774 1.349 . S
C775 C791 1.349 . S
C776 C774 1.327 . S
C776 C795 1.429 . S
C776 H800 0.950 . S
C777 C794 1.574 . S
C777 C796 1.368 . S
C777 H801 0.949 . S
H778 C782 0.949 . S
C779 C780 1.349 . S
C779 C781 1.327 . S
C779 H802 0.950 . S
C780 C779 1.349 . S
C780 C792 1.349 . S
C781 C779 1.327 . S
C781 C797 1.429 . S
C781 H803 0.950 . S
C782 H778 0.949 . S
C782 C790 1.574 . S
C782 C798 1.368 . S
H783 C791 0.950 . S
H784 C789 0.950 . S
H785 C790 0.949 . S
H786 C792 0.950 . S
H787 C793 0.950 . S
H788 C794 0.949 1_455 S
C789 H784 0.950 . S
C789 C791 1.327 . S
C789 C795 1.429 . S
C790 C782 1.574 . S
C790 H785 0.949 . S
C790 C796 1.368 . S
C791 C775 1.349 . S
C791 H783 0.950 . S
C791 C789 1.327 . S
C792 C780 1.349 . S
C792 H786 0.950 . S
C792 C793 1.327 . S
C793 H787 0.950 . S
C793 C792 1.327 . S
C793 C797 1.429 . S
C794 C777 1.574 . S
C794 H788 0.949 1_655 S
C794 C798 1.368 . S
C795 C776 1.429 . S
C795 C789 1.429 . S
C795 C796 1.523 . S
C796 C777 1.368 . S
C796 C790 1.368 . S
C796 C795 1.523 . S
C797 C781 1.429 . S
C797 C793 1.429 . S
C797 C798 1.523 1_455 S
C798 C782 1.368 . S
C798 C794 1.368 . S
C798 C797 1.523 1_655 S
H799 C774 0.950 . S
H800 C776 0.950 . S
H801 C777 0.949 . S
H802 C779 0.950 . S
H803 C781 0.950 . S
C804 C805 1.349 . S
C804 C806 1.327 . S
C804 H829 0.950 . S
C805 C804 1.349 . S
C805 C821 1.349 . S
C806 C804 1.327 . S
C806 C825 1.429 . S
C806 H830 0.950 . S
C807 C824 1.574 . S
C807 C826 1.368 . S
C807 H831 0.949 . S
H808 C812 0.949 . S
C809 C810 1.349 . S
C809 C811 1.327 . S
C809 H832 0.950 . S
C810 C809 1.349 . S
C810 C822 1.349 . S
C811 C809 1.327 . S
C811 C827 1.429 . S
C811 H833 0.950 . S
C812 H808 0.949 . S
C812 C820 1.574 . S
C812 C828 1.368 . S
H813 C821 0.950 . S
H814 C819 0.950 . S
H815 C820 0.949 . S
H816 C822 0.950 . S
H817 C823 0.950 . S
H818 C824 0.949 . S
C819 H814 0.950 . S
C819 C821 1.327 . S
C819 C825 1.429 . S
C820 C812 1.574 . S
C820 H815 0.949 . S
C820 C826 1.368 . S
C821 C805 1.349 . S
C821 H813 0.950 . S
C821 C819 1.327 . S
C822 C810 1.349 . S
C822 H816 0.950 . S
C822 C823 1.327 . S
C823 H817 0.950 . S
C823 C822 1.327 . S
C823 C827 1.429 . S
C824 C807 1.574 . S
C824 H818 0.949 . S
C824 C828 1.368 . S
C825 C806 1.429 . S
C825 C819 1.429 . S
C825 C826 1.523 . S
C826 C807 1.368 . S
C826 C820 1.368 . S
C826 C825 1.523 . S
C827 C811 1.429 . S
C827 C823 1.429 . S
C827 C828 1.523 . S
C828 C812 1.368 . S
C828 C824 1.368 . S
C828 C827 1.523 . S
H829 C804 0.950 . S
H830 C806 0.950 . S
H831 C807 0.949 . S
H832 C809 0.950 . S
H833 C811 0.950 . S
C834 C835 1.349 . S
C834 C836 1.327 . S
C834 H859 0.950 . S
C835 C834 1.349 . S
C835 C851 1.349 . S
C836 C834 1.327 . S
C836 C855 1.429 . S
C836 H860 0.950 . S
C837 C854 1.574 . S
C837 C856 1.368 . S
C837 H861 0.949 . S
H838 C842 0.949 1_565 S
C839 C840 1.349 . S
C839 C841 1.327 . S
C839 H862 0.950 . S
C840 C839 1.349 . S
C840 C852 1.349 . S
C841 C839 1.327 . S
C841 C857 1.429 . S
C841 H863 0.950 . S
C842 H838 0.949 1_545 S
C842 C850 1.574 . S
C842 C858 1.368 . S
H843 C851 0.950 . S
H844 C849 0.950 . S
H845 C850 0.949 . S
H846 C852 0.950 . S
H847 C853 0.950 . S
H848 C854 0.949 . S
C849 H844 0.950 . S
C849 C851 1.327 . S
C849 C855 1.429 . S
C850 C842 1.574 . S
C850 H845 0.949 . S
C850 C856 1.368 . S
C851 C835 1.349 . S
C851 H843 0.950 . S
C851 C849 1.327 . S
C852 C840 1.349 . S
C852 H846 0.950 . S
C852 C853 1.327 . S
C853 H847 0.950 . S
C853 C852 1.327 . S
C853 C857 1.429 . S
C854 C837 1.574 . S
C854 H848 0.949 . S
C854 C858 1.368 . S
C855 C836 1.429 . S
C855 C849 1.429 . S
C855 C856 1.523 . S
C856 C837 1.368 . S
C856 C850 1.368 . S
C856 C855 1.523 . S
C857 C841 1.429 . S
C857 C853 1.429 . S
C857 C858 1.523 1_565 S
C858 C842 1.368 . S
C858 C854 1.368 . S
C858 C857 1.523 1_545 S
H859 C834 0.950 . S
H860 C836 0.950 . S
H861 C837 0.949 . S
H862 C839 0.950 . S
H863 C841 0.950 . S
C864 C865 1.349 . S
C864 C866 1.327 . S
C864 H889 0.950 . S
C865 C864 1.349 . S
C865 C881 1.349 . S
C866 C864 1.327 . S
C866 C885 1.429 . S
C866 H890 0.950 . S
C867 C884 1.574 . S
C867 C886 1.368 . S
C867 H891 0.949 . S
H868 C872 0.949 . S
C869 C870 1.349 . S
C869 C871 1.327 . S
C869 H892 0.950 . S
C870 C869 1.349 . S
C870 C882 1.349 . S
C871 C869 1.327 . S
C871 C887 1.429 . S
C871 H893 0.950 . S
C872 H868 0.949 . S
C872 C880 1.574 . S
C872 C888 1.368 . S
H873 C881 0.950 . S
H874 C879 0.950 . S
H875 C880 0.949 . S
H876 C882 0.950 . S
H877 C883 0.950 . S
H878 C884 0.949 . S
C879 H874 0.950 . S
C879 C881 1.327 . S
C879 C885 1.429 . S
C880 C872 1.574 . S
C880 H875 0.949 . S
C880 C886 1.368 . S
C881 C865 1.349 . S
C881 H873 0.950 . S
C881 C879 1.327 . S
C882 C870 1.349 . S
C882 H876 0.950 . S
C882 C883 1.327 . S
C883 H877 0.950 . S
C883 C882 1.327 . S
C883 C887 1.429 . S
C884 C867 1.574 . S
C884 H878 0.949 . S
C884 C888 1.368 . S
C885 C866 1.429 . S
C885 C879 1.429 . S
C885 C886 1.523 . S
C886 C867 1.368 . S
C886 C880 1.368 . S
C886 C885 1.523 . S
C887 C871 1.429 . S
C887 C883 1.429 . S
C887 C888 1.523 . S
C888 C872 1.368 . S
C888 C884 1.368 . S
C888 C887 1.523 . S
H889 C864 0.950 . S
H890 C866 0.950 . S
H891 C867 0.949 . S
H892 C869 0.950 . S
H893 C871 0.950 . S
C894 C895 1.349 . S
C894 C896 1.327 . S
C894 H919 0.950 . S
C895 C894 1.349 . S
C895 C911 1.349 . S
C896 C894 1.327 . S
C896 C915 1.429 . S
C896 H920 0.950 . S
C897 C914 1.574 . S
C897 C916 1.368 . S
C897 H921 0.949 . S
H898 C902 0.949 . S
C899 C900 1.349 . S
C899 C901 1.327 . S
C899 H922 0.950 . S
C900 C899 1.349 . S
C900 C912 1.349 . S
C901 C899 1.327 . S
C901 C917 1.429 . S
C901 H923 0.950 . S
C902 H898 0.949 . S
C902 C910 1.574 . S
C902 C918 1.368 . S
H903 C911 0.950 . S
H904 C909 0.950 . S
H905 C910 0.949 . S
H906 C912 0.950 . S
H907 C913 0.950 . S
H908 C914 0.949 . S
C909 H904 0.950 . S
C909 C911 1.327 . S
C909 C915 1.429 . S
C910 C902 1.574 . S
C910 H905 0.949 . S
C910 C916 1.368 . S
C911 C895 1.349 . S
C911 H903 0.950 . S
C911 C909 1.327 . S
C912 C900 1.349 . S
C912 H906 0.950 . S
C912 C913 1.327 . S
C913 H907 0.950 . S
C913 C912 1.327 . S
C913 C917 1.429 . S
C914 C897 1.574 . S
C914 H908 0.949 . S
C914 C918 1.368 . S
C915 C896 1.429 . S
C915 C909 1.429 . S
C915 C916 1.523 . S
C916 C897 1.368 . S
C916 C910 1.368 . S
C916 C915 1.523 . S
C917 C901 1.429 . S
C917 C913 1.429 . S
C917 C918 1.523 . S
C918 C902 1.368 . S
C918 C914 1.368 . S
C918 C917 1.523 . S
H919 C894 0.950 . S
H920 C896 0.950 . S
H921 C897 0.949 . S
H922 C899 0.950 . S
H923 C901 0.950 . S
C924 C925 1.349 . S
C924 C926 1.327 . S
C924 H949 0.950 . S
C925 C924 1.349 . S
C925 C941 1.349 . S
C926 C924 1.327 . S
C926 C945 1.429 . S
C926 H950 0.950 . S
C927 C944 1.574 . S
C927 C946 1.368 . S
C927 H951 0.949 . S
H928 C932 0.949 . S
C929 C930 1.349 . S
C929 C931 1.327 . S
C929 H952 0.950 . S
C930 C929 1.349 . S
C930 C942 1.349 . S
C931 C929 1.327 . S
C931 C947 1.429 . S
C931 H953 0.950 . S
C932 H928 0.949 . S
C932 C940 1.574 . S
C932 C948 1.368 . S
H933 C941 0.950 . S
H934 C939 0.950 . S
H935 C940 0.949 . S
H936 C942 0.950 . S
H937 C943 0.950 . S
H938 C944 0.949 . S
C939 H934 0.950 . S
C939 C941 1.327 . S
C939 C945 1.429 . S
C940 C932 1.574 . S
C940 H935 0.949 . S
C940 C946 1.368 . S
C941 C925 1.349 . S
C941 H933 0.950 . S
C941 C939 1.327 . S
C942 C930 1.349 . S
C942 H936 0.950 . S
C942 C943 1.327 . S
C943 H937 0.950 . S
C943 C942 1.327 . S
C943 C947 1.429 . S
C944 C927 1.574 . S
C944 H938 0.949 . S
C944 C948 1.368 . S
C945 C926 1.429 . S
C945 C939 1.429 . S
C945 C946 1.523 . S
C946 C927 1.368 . S
C946 C940 1.368 . S
C946 C945 1.523 . S
C947 C931 1.429 . S
C947 C943 1.429 . S
C947 C948 1.523 . S
C948 C932 1.368 . S
C948 C944 1.368 . S
C948 C947 1.523 . S
H949 C924 0.950 . S
H950 C926 0.950 . S
H951 C927 0.949 . S
H952 C929 0.950 . S
H953 C931 0.950 . S
C954 C955 1.349 . S
C954 C956 1.327 . S
C954 H979 0.950 . S
C955 C954 1.349 . S
C955 C971 1.349 . S
C956 C954 1.327 . S
C956 C975 1.429 . S
C956 H980 0.950 . S
C957 C974 1.574 . S
C957 C976 1.368 . S
C957 H981 0.949 . S
H958 C962 0.949 . S
C959 C960 1.349 . S
C959 C961 1.327 . S
C959 H982 0.950 . S
C960 C959 1.349 . S
C960 C972 1.349 . S
C961 C959 1.327 . S
C961 C977 1.429 . S
C961 H983 0.950 . S
C962 H958 0.949 . S
C962 C970 1.574 . S
C962 C978 1.368 . S
H963 C971 0.950 . S
H964 C969 0.950 . S
H965 C970 0.949 . S
H966 C972 0.950 . S
H967 C973 0.950 . S
H968 C974 0.949 . S
C969 H964 0.950 . S
C969 C971 1.327 . S
C969 C975 1.429 . S
C970 C962 1.574 . S
C970 H965 0.949 . S
C970 C976 1.368 . S
C971 C955 1.349 . S
C971 H963 0.950 . S
C971 C969 1.327 . S
C972 C960 1.349 . S
C972 H966 0.950 . S
C972 C973 1.327 . S
C973 H967 0.950 . S
C973 C972 1.327 . S
C973 C977 1.429 . S
C974 C957 1.574 . S
C974 H968 0.949 . S
C974 C978 1.368 . S
C975 C956 1.429 . S
C975 C969 1.429 . S
C975 C976 1.523 . S
C976 C957 1.368 . S
C976 C970 1.368 . S
C976 C975 1.523 . S
C977 C961 1.429 . S
C977 C973 1.429 . S
C977 C978 1.523 . S
C978 C962 1.368 . S
C978 C974 1.368 . S
C978 C977 1.523 . S
H979 C954 0.950 . S
H980 C956 0.950 . S
H981 C957 0.949 . S
H982 C959 0.950 . S
H983 C961 0.950 . S
C984 C985 1.349 . S
C984 C986 1.327 . S
C984 H1009 0.950 . S
C985 C984 1.349 . S
C985 C1001 1.349 . S
C986 C984 1.327 . S
C986 C1005 1.429 . S
C986 H1010 0.950 . S
C987 C1004 1.574 . S
C987 C1006 1.368 . S
C987 H1011 0.949 . S
H988 C992 0.949 . S
C989 C990 1.349 . S
C989 C991 1.327 . S
C989 H1012 0.950 . S
C990 C989 1.349 . S
C990 C1002 1.349 . S
C991 C989 1.327 . S
C991 C1007 1.429 . S
C991 H1013 0.950 . S
C992 H988 0.949 . S
C992 C1000 1.574 . S
C992 C1008 1.368 . S
H993 C1001 0.950 . S
H994 C999 0.950 . S
H995 C1000 0.949 . S
H996 C1002 0.950 . S
H997 C1003 0.950 . S
H998 C1004 0.949 . S
C999 H994 0.950 . S
C999 C1001 1.327 . S
C999 C1005 1.429 . S
C1000 C992 1.574 . S
C1000 H995 0.949 . S
C1000 C1006 1.368 . S
C1001 C985 1.349 . S
C1001 H993 0.950 . S
C1001 C999 1.327 . S
C1002 C990 1.349 . S
C1002 H996 0.950 . S
C1002 C1003 1.327 . S
C1003 H997 0.950 . S
C1003 C1002 1.327 . S
C1003 C1007 1.429 . S
C1004 C987 1.574 . S
C1004 H998 0.949 . S
C1004 C1008 1.368 . S
C1005 C986 1.429 . S
C1005 C999 1.429 . S
C1005 C1006 1.523 . S
C1006 C987 1.368 . S
C1006 C1000 1.368 . S
C1006 C1005 1.523 . S
C1007 C991 1.429 . S
C1007 C1003 1.429 . S
C1007 C1008 1.523 . S
C1008 C992 1.368 . S
C1008 C1004 1.368 . S
C1008 C1007 1.523 . S
H1009 C984 0.950 . S
H1010 C986 0.950 . S
H1011 C987 0.949 . S
H1012 C989 0.950 . S
H1013 C991 0.950 . S
C1014 C1015 1.349 . S
C1014 C1016 1.327 . S
C1014 H1039 0.950 . S
C1015 C1014 1.349 . S
C1015 C1031 1.349 . S
C1016 C1014 1.327 . S
C1016 C1035 1.429 . S
C1016 H1040 0.950 . S
C1017 C1034 1.574 . S
C1017 C1036 1.368 . S
C1017 H1041 0.949 . S
H1018 C1022 0.949 . S
C1019 C1020 1.349 . S
C1019 C1021 1.327 . S
C1019 H1042 0.950 . S
C1020 C1019 1.349 . S
C1020 C1032 1.349 . S
C1021 C1019 1.327 . S
C1021 C1037 1.429 . S
C1021 H1043 0.950 . S
C1022 H1018 0.949 . S
C1022 C1030 1.574 . S
C1022 C1038 1.368 . S
H1023 C1031 0.950 . S
H1024 C1029 0.950 . S
H1025 C1030 0.949 . S
H1026 C1032 0.950 . S
H1027 C1033 0.950 . S
H1028 C1034 0.949 . S
C1029 H1024 0.950 . S
C1029 C1031 1.327 . S
C1029 C1035 1.429 . S
C1030 C1022 1.574 . S
C1030 H1025 0.949 . S
C1030 C1036 1.368 . S
C1031 C1015 1.349 . S
C1031 H1023 0.950 . S
C1031 C1029 1.327 . S
C1032 C1020 1.349 . S
C1032 H1026 0.950 . S
C1032 C1033 1.327 . S
C1033 H1027 0.950 . S
C1033 C1032 1.327 . S
C1033 C1037 1.429 . S
C1034 C1017 1.574 . S
C1034 H1028 0.949 . S
C1034 C1038 1.368 . S
C1035 C1016 1.429 . S
C1035 C1029 1.429 . S
C1035 C1036 1.523 . S
C1036 C1017 1.368 . S
C1036 C1030 1.368 . S
C1036 C1035 1.523 . S
C1037 C1021 1.429 . S
C1037 C1033 1.429 . S
C1037 C1038 1.523 . S
C1038 C1022 1.368 . S
C1038 C1034 1.368 . S
C1038 C1037 1.523 . S
H1039 C1014 0.950 . S
H1040 C1016 0.950 . S
H1041 C1017 0.949 . S
H1042 C1019 0.950 . S
H1043 C1021 0.950 . S
C1044 C1045 1.349 . S
C1044 C1046 1.327 . S
C1044 H1069 0.950 . S
C1045 C1044 1.349 . S
C1045 C1061 1.349 . S
C1046 C1044 1.327 . S
C1046 C1065 1.429 . S
C1046 H1070 0.950 . S
C1047 C1064 1.574 . S
C1047 C1066 1.368 . S
C1047 H1071 0.949 . S
H1048 C1052 0.949 . S
C1049 C1050 1.349 . S
C1049 C1051 1.327 . S
C1049 H1072 0.950 . S
C1050 C1049 1.349 . S
C1050 C1062 1.349 . S
C1051 C1049 1.327 . S
C1051 C1067 1.429 . S
C1051 H1073 0.950 . S
C1052 H1048 0.949 . S
C1052 C1060 1.574 . S
C1052 C1068 1.368 . S
H1053 C1061 0.950 . S
H1054 C1059 0.950 . S
H1055 C1060 0.949 . S
H1056 C1062 0.950 . S
H1057 C1063 0.950 . S
H1058 C1064 0.949 . S
C1059 H1054 0.950 . S
C1059 C1061 1.327 . S
C1059 C1065 1.429 . S
C1060 C1052 1.574 . S
C1060 H1055 0.949 . S
C1060 C1066 1.368 . S
C1061 C1045 1.349 . S
C1061 H1053 0.950 . S
C1061 C1059 1.327 . S
C1062 C1050 1.349 . S
C1062 H1056 0.950 . S
C1062 C1063 1.327 . S
C1063 H1057 0.950 . S
C1063 C1062 1.327 . S
C1063 C1067 1.429 . S
C1064 C1047 1.574 . S
C1064 H1058 0.949 . S
C1064 C1068 1.368 . S
C1065 C1046 1.429 . S
C1065 C1059 1.429 . S
C1065 C1066 1.523 . S
C1066 C1047 1.368 . S
C1066 C1060 1.368 . S
C1066 C1065 1.523 . S
C1067 C1051 1.429 . S
C1067 C1063 1.429 . S
C1067 C1068 1.523 . S
C1068 C1052 1.368 . S
C1068 C1064 1.368 . S
C1068 C1067 1.523 . S
H1069 C1044 0.950 . S
H1070 C1046 0.950 . S
H1071 C1047 0.949 . S
H1072 C1049 0.950 . S
H1073 C1051 0.950 . S
C1074 C1075 1.349 . S
C1074 C1076 1.327 . S
C1074 H1099 0.950 . S
C1075 C1074 1.349 . S
C1075 C1091 1.349 . S
C1076 C1074 1.327 . S
C1076 C1095 1.429 . S
C1076 H1100 0.950 . S
C1077 C1094 1.574 . S
C1077 C1096 1.368 . S
C1077 H1101 0.949 . S
H1078 C1082 0.949 . S
C1079 C1080 1.349 . S
C1079 C1081 1.327 . S
C1079 H1102 0.950 . S
C1080 C1079 1.349 . S
C1080 C1092 1.349 . S
C1081 C1079 1.327 . S
C1081 C1097 1.429 . S
C1081 H1103 0.950 . S
C1082 H1078 0.949 . S
C1082 C1090 1.574 . S
C1082 C1098 1.368 . S
H1083 C1091 0.950 . S
H1084 C1089 0.950 . S
H1085 C1090 0.949 . S
H1086 C1092 0.950 . S
H1087 C1093 0.950 . S
H1088 C1094 0.949 . S
C1089 H1084 0.950 . S
C1089 C1091 1.327 . S
C1089 C1095 1.429 . S
C1090 C1082 1.574 . S
C1090 H1085 0.949 . S
C1090 C1096 1.368 . S
C1091 C1075 1.349 . S
C1091 H1083 0.950 . S
C1091 C1089 1.327 . S
C1092 C1080 1.349 . S
C1092 H1086 0.950 . S
C1092 C1093 1.327 . S
C1093 H1087 0.950 . S
C1093 C1092 1.327 . S
C1093 C1097 1.429 . S
C1094 C1077 1.574 . S
C1094 H1088 0.949 . S
C1094 C1098 1.368 . S
C1095 C1076 1.429 . S
C1095 C1089 1.429 . S
C1095 C1096 1.523 . S
C1096 C1077 1.368 . S
C1096 C1090 1.368 . S
C1096 C1095 1.523 . S
C1097 C1081 1.429 . S
C1097 C1093 1.429 . S
C1097 C1098 1.523 . S
C1098 C1082 1.368 . S
C1098 C1094 1.368 . S
C1098 C1097 1.523 . S
H1099 C1074 0.950 . S
H1100 C1076 0.950 . S
H1101 C1077 0.949 . S
H1102 C1079 0.950 . S
H1103 C1081 0.950 . S
C1104 C1105 1.349 . S
C1104 C1106 1.327 . S
C1104 H1129 0.950 . S
C1105 C1104 1.349 . S
C1105 C1121 1.349 . S
C1106 C1104 1.327 . S
C1106 C1125 1.429 . S
C1106 H1130 0.950 . S
C1107 C1124 1.574 . S
C1107 C1126 1.368 . S
C1107 H1131 0.949 . S
H1108 C1112 0.949 . S
C1109 C1110 1.349 . S
C1109 C1111 1.327 . S
C1109 H1132 0.950 . S
C1110 C1109 1.349 . S
C1110 C1122 1.349 . S
C1111 C1109 1.327 . S
C1111 C1127 1.429 . S
C1111 H1133 0.950 . S
C1112 H1108 0.949 . S
C1112 C1120 1.574 . S
C1112 C1128 1.368 . S
H1113 C1121 0.950 . S
H1114 C1119 0.950 . S
H1115 C1120 0.949 . S
H1116 C1122 0.950 . S
H1117 C1123 0.950 . S
H1118 C1124 0.949 . S
C1119 H1114 0.950 . S
C1119 C1121 1.327 . S
C1119 C1125 1.429 . S
C1120 C1112 1.574 . S
C1120 H1115 0.949 . S
C1120 C1126 1.368 . S
C1121 C1105 1.349 . S
C1121 H1113 0.950 . S
C1121 C1119 1.327 . S
C1122 C1110 1.349 . S
C1122 H1116 0.950 . S
C1122 C1123 1.327 . S
C1123 H1117 0.950 . S
C1123 C1122 1.327 . S
C1123 C1127 1.429 . S
C1124 C1107 1.574 . S
C1124 H1118 0.949 . S
C1124 C1128 1.368 . S
C1125 C1106 1.429 . S
C1125 C1119 1.429 . S
C1125 C1126 1.523 . S
C1126 C1107 1.368 . S
C1126 C1120 1.368 . S
C1126 C1125 1.523 . S
C1127 C1111 1.429 . S
C1127 C1123 1.429 . S
C1127 C1128 1.523 . S
C1128 C1112 1.368 . S
C1128 C1124 1.368 . S
C1128 C1127 1.523 . S
H1129 C1104 0.950 . S
H1130 C1106 0.950 . S
H1131 C1107 0.949 . S
H1132 C1109 0.950 . S
H1133 C1111 0.950 . S
C1134 C1135 1.349 . S
C1134 C1136 1.327 . S
C1134 H1159 0.950 . S
C1135 C1134 1.349 . S
C1135 C1151 1.349 . S
C1136 C1134 1.327 . S
C1136 C1155 1.429 . S
C1136 H1160 0.950 . S
C1137 C1154 1.574 . S
C1137 C1156 1.368 . S
C1137 H1161 0.949 . S
H1138 C1142 0.949 . S
C1139 C1140 1.349 . S
C1139 C1141 1.327 . S
C1139 H1162 0.950 . S
C1140 C1139 1.349 . S
C1140 C1152 1.349 . S
C1141 C1139 1.327 . S
C1141 C1157 1.429 . S
C1141 H1163 0.950 . S
C1142 H1138 0.949 . S
C1142 C1150 1.574 . S
C1142 C1158 1.368 . S
H1143 C1151 0.950 . S
H1144 C1149 0.950 . S
H1145 C1150 0.949 . S
H1146 C1152 0.950 . S
H1147 C1153 0.950 . S
H1148 C1154 0.949 . S
C1149 H1144 0.950 . S
C1149 C1151 1.327 . S
C1149 C1155 1.429 . S
C1150 C1142 1.574 . S
C1150 H1145 0.949 . S
C1150 C1156 1.368 . S
C1151 C1135 1.349 . S
C1151 H1143 0.950 . S
C1151 C1149 1.327 . S
C1152 C1140 1.349 . S
C1152 H1146 0.950 . S
C1152 C1153 1.327 . S
C1153 H1147 0.950 . S
C1153 C1152 1.327 . S
C1153 C1157 1.429 . S
C1154 C1137 1.574 . S
C1154 H1148 0.949 . S
C1154 C1158 1.368 . S
C1155 C1136 1.429 . S
C1155 C1149 1.429 . S
C1155 C1156 1.523 . S
C1156 C1137 1.368 . S
C1156 C1150 1.368 . S
C1156 C1155 1.523 . S
C1157 C1141 1.429 . S
C1157 C1153 1.429 . S
C1157 C1158 1.523 . S
C1158 C1142 1.368 . S
C1158 C1154 1.368 . S
C1158 C1157 1.523 . S
H1159 C1134 0.950 . S
H1160 C1136 0.950 . S
H1161 C1137 0.949 . S
H1162 C1139 0.950 . S
H1163 C1141 0.950 . S
C1164 C1165 1.349 . S
C1164 C1166 1.327 . S
C1164 H1189 0.950 . S
C1165 C1164 1.349 . S
C1165 C1181 1.349 . S
C1166 C1164 1.327 . S
C1166 C1185 1.429 . S
C1166 H1190 0.950 . S
C1167 C1184 1.574 . S
C1167 C1186 1.368 . S
C1167 H1191 0.949 . S
H1168 C1172 0.949 . S
C1169 C1170 1.349 . S
C1169 C1171 1.327 . S
C1169 H1192 0.950 . S
C1170 C1169 1.349 . S
C1170 C1182 1.349 . S
C1171 C1169 1.327 . S
C1171 C1187 1.429 . S
C1171 H1193 0.950 . S
C1172 H1168 0.949 . S
C1172 C1180 1.574 . S
C1172 C1188 1.368 . S
H1173 C1181 0.950 . S
H1174 C1179 0.950 . S
H1175 C1180 0.949 . S
H1176 C1182 0.950 . S
H1177 C1183 0.950 . S
H1178 C1184 0.949 . S
C1179 H1174 0.950 . S
C1179 C1181 1.327 . S
C1179 C1185 1.429 . S
C1180 C1172 1.574 . S
C1180 H1175 0.949 . S
C1180 C1186 1.368 . S
C1181 C1165 1.349 . S
C1181 H1173 0.950 . S
C1181 C1179 1.327 . S
C1182 C1170 1.349 . S
C1182 H1176 0.950 . S
C1182 C1183 1.327 . S
C1183 H1177 0.950 . S
C1183 C1182 1.327 . S
C1183 C1187 1.429 . S
C1184 C1167 1.574 . S
C1184 H1178 0.949 . S
C1184 C1188 1.368 . S
C1185 C1166 1.429 . S
C1185 C1179 1.429 . S
C1185 C1186 1.523 . S
C1186 C1167 1.368 . S
C1186 C1180 1.368 . S
C1186 C1185 1.523 . S
C1187 C1171 1.429 . S
C1187 C1183 1.429 . S
C1187 C1188 1.523 . S
C1188 C1172 1.368 . S
C1188 C1184 1.368 . S
C1188 C1187 1.523 . S
H1189 C1164 0.950 . S
H1190 C1166 0.950 . S
H1191 C1167 0.949 . S
H1192 C1169 0.950 . S
H1193 C1171 0.950 . S
C1194 C1195 1.349 . S
C1194 C1196 1.327 . S
C1194 H1219 0.950 . S
C1195 C1194 1.349 . S
C1195 C1211 1.349 . S
C1196 C1194 1.327 . S
C1196 C1215 1.429 . S
C1196 H1220 0.950 . S
C1197 C1214 1.574 . S
C1197 C1216 1.368 . S
C1197 H1221 0.949 . S
H1198 C1202 0.949 . S
C1199 C1200 1.349 . S
C1199 C1201 1.327 . S
C1199 H1222 0.950 . S
C1200 C1199 1.349 . S
C1200 C1212 1.349 . S
C1201 C1199 1.327 . S
C1201 C1217 1.429 . S
C1201 H1223 0.950 . S
C1202 H1198 0.949 . S
C1202 C1210 1.574 . S
C1202 C1218 1.368 . S
H1203 C1211 0.950 . S
H1204 C1209 0.950 . S
H1205 C1210 0.949 . S
H1206 C1212 0.950 . S
H1207 C1213 0.950 . S
H1208 C1214 0.949 . S
C1209 H1204 0.950 . S
C1209 C1211 1.327 . S
C1209 C1215 1.429 . S
C1210 C1202 1.574 . S
C1210 H1205 0.949 . S
C1210 C1216 1.368 . S
C1211 C1195 1.349 . S
C1211 H1203 0.950 . S
C1211 C1209 1.327 . S
C1212 C1200 1.349 . S
C1212 H1206 0.950 . S
C1212 C1213 1.327 . S
C1213 H1207 0.950 . S
C1213 C1212 1.327 . S
C1213 C1217 1.429 . S
C1214 C1197 1.574 . S
C1214 H1208 0.949 . S
C1214 C1218 1.368 . S
C1215 C1196 1.429 . S
C1215 C1209 1.429 . S
C1215 C1216 1.523 . S
C1216 C1197 1.368 . S
C1216 C1210 1.368 . S
C1216 C1215 1.523 . S
C1217 C1201 1.429 . S
C1217 C1213 1.429 . S
C1217 C1218 1.523 . S
C1218 C1202 1.368 . S
C1218 C1214 1.368 . S
C1218 C1217 1.523 . S
H1219 C1194 0.950 . S
H1220 C1196 0.950 . S
H1221 C1197 0.949 . S
H1222 C1199 0.950 . S
H1223 C1201 0.950 . S
C1224 C1225 1.349 . S
C1224 C1226 1.327 . S
C1224 H1249 0.950 . S
C1225 C1224 1.349 . S
C1225 C1241 1.349 . S
C1226 C1224 1.327 . S
C1226 C1245 1.429 . S
C1226 H1250 0.950 . S
C1227 C1244 1.574 . S
C1227 C1246 1.368 . S
C1227 H1251 0.949 . S
H1228 C1232 0.949 . S
C1229 C1230 1.349 . S
C1229 C1231 1.327 . S
C1229 H1252 0.950 . S
C1230 C1229 1.349 . S
C1230 C1242 1.349 . S
C1231 C1229 1.327 . S
C1231 C1247 1.429 . S
C1231 H1253 0.950 . S
C1232 H1228 0.949 . S
C1232 C1240 1.574 . S
C1232 C1248 1.368 . S
H1233 C1241 0.950 . S
H1234 C1239 0.950 . S
H1235 C1240 0.949 . S
H1236 C1242 0.950 . S
H1237 C1243 0.950 . S
H1238 C1244 0.949 . S
C1239 H1234 0.950 . S
C1239 C1241 1.327 . S
C1239 C1245 1.429 . S
C1240 C1232 1.574 . S
C1240 H1235 0.949 . S
C1240 C1246 1.368 . S
C1241 C1225 1.349 . S
C1241 H1233 0.950 . S
C1241 C1239 1.327 . S
C1242 C1230 1.349 . S
C1242 H1236 0.950 . S
C1242 C1243 1.327 . S
C1243 H1237 0.950 . S
C1243 C1242 1.327 . S
C1243 C1247 1.429 . S
C1244 C1227 1.574 . S
C1244 H1238 0.949 . S
C1244 C1248 1.368 . S
C1245 C1226 1.429 . S
C1245 C1239 1.429 . S
C1245 C1246 1.523 . S
C1246 C1227 1.368 . S
C1246 C1240 1.368 . S
C1246 C1245 1.523 . S
C1247 C1231 1.429 . S
C1247 C1243 1.429 . S
C1247 C1248 1.523 . S
C1248 C1232 1.368 . S
C1248 C1244 1.368 . S
C1248 C1247 1.523 . S
H1249 C1224 0.950 . S
H1250 C1226 0.950 . S
H1251 C1227 0.949 . S
H1252 C1229 0.950 . S
H1253 C1231 0.950 . S
C1254 C1255 1.349 . S
C1254 C1256 1.327 . S
C1254 H1279 0.950 . S
C1255 C1254 1.349 . S
C1255 C1271 1.349 . S
C1256 C1254 1.327 . S
C1256 C1275 1.429 . S
C1256 H1280 0.950 . S
C1257 C1274 1.574 . S
C1257 C1276 1.368 . S
C1257 H1281 0.949 . S
H1258 C1262 0.949 . S
C1259 C1260 1.349 . S
C1259 C1261 1.327 . S
C1259 H1282 0.950 . S
C1260 C1259 1.349 . S
C1260 C1272 1.349 . S
C1261 C1259 1.327 . S
C1261 C1277 1.429 . S
C1261 H1283 0.950 . S
C1262 H1258 0.949 . S
C1262 C1270 1.574 . S
C1262 C1278 1.368 . S
H1263 C1271 0.950 . S
H1264 C1269 0.950 . S
H1265 C1270 0.949 . S
H1266 C1272 0.950 . S
H1267 C1273 0.950 . S
H1268 C1274 0.949 . S
C1269 H1264 0.950 . S
C1269 C1271 1.327 . S
C1269 C1275 1.429 . S
C1270 C1262 1.574 . S
C1270 H1265 0.949 . S
C1270 C1276 1.368 . S
C1271 C1255 1.349 . S
C1271 H1263 0.950 . S
C1271 C1269 1.327 . S
C1272 C1260 1.349 . S
C1272 H1266 0.950 . S
C1272 C1273 1.327 . S
C1273 H1267 0.950 . S
C1273 C1272 1.327 . S
C1273 C1277 1.429 . S
C1274 C1257 1.574 . S
C1274 H1268 0.949 . S
C1274 C1278 1.368 . S
C1275 C1256 1.429 . S
C1275 C1269 1.429 . S
C1275 C1276 1.523 . S
C1276 C1257 1.368 . S
C1276 C1270 1.368 . S
C1276 C1275 1.523 . S
C1277 C1261 1.429 . S
C1277 C1273 1.429 . S
C1277 C1278 1.523 . S
C1278 C1262 1.368 . S
C1278 C1274 1.368 . S
C1278 C1277 1.523 . S
H1279 C1254 0.950 . S
H1280 C1256 0.950 . S
H1281 C1257 0.949 . S
H1282 C1259 0.950 . S
H1283 C1261 0.950 . S
C1284 C1285 1.349 . S
C1284 C1286 1.327 . S
C1284 H1309 0.950 . S
C1285 C1284 1.349 . S
C1285 C1301 1.349 . S
C1286 C1284 1.327 . S
C1286 C1305 1.429 . S
C1286 H1310 0.950 . S
C1287 C1304 1.574 . S
C1287 C1306 1.368 . S
C1287 H1311 0.949 . S
H1288 C1292 0.949 . S
C1289 C1290 1.349 . S
C1289 C1291 1.327 . S
C1289 H1312 0.950 . S
C1290 C1289 1.349 . S
C1290 C1302 1.349 . S
C1291 C1289 1.327 . S
C1291 C1307 1.429 . S
C1291 H1313 0.950 . S
C1292 H1288 0.949 . S
C1292 C1300 1.574 . S
C1292 C1308 1.368 . S
H1293 C1301 0.950 . S
H1294 C1299 0.950 . S
H1295 C1300 0.949 . S
H1296 C1302 0.950 . S
H1297 C1303 0.950 . S
H1298 C1304 0.949 . S
C1299 H1294 0.950 . S
C1299 C1301 1.327 . S
C1299 C1305 1.429 . S
C1300 C1292 1.574 . S
C1300 H1295 0.949 . S
C1300 C1306 1.368 . S
C1301 C1285 1.349 . S
C1301 H1293 0.950 . S
C1301 C1299 1.327 . S
C1302 C1290 1.349 . S
C1302 H1296 0.950 . S
C1302 C1303 1.327 . S
C1303 H1297 0.950 . S
C1303 C1302 1.327 . S
C1303 C1307 1.429 . S
C1304 C1287 1.574 . S
C1304 H1298 0.949 . S
C1304 C1308 1.368 . S
C1305 C1286 1.429 . S
C1305 C1299 1.429 . S
C1305 C1306 1.523 . S
C1306 C1287 1.368 . S
C1306 C1300 1.368 . S
C1306 C1305 1.523 . S
C1307 C1291 1.429 . S
C1307 C1303 1.429 . S
C1307 C1308 1.523 . S
C1308 C1292 1.368 . S
C1308 C1304 1.368 . S
C1308 C1307 1.523 . S
H1309 C1284 0.950 . S
H1310 C1286 0.950 . S
H1311 C1287 0.949 . S
H1312 C1289 0.950 . S
H1313 C1291 0.950 . S
C1314 C1315 1.349 . S
C1314 C1316 1.327 . S
C1314 H1339 0.950 . S
C1315 C1314 1.349 . S
C1315 C1331 1.349 . S
C1316 C1314 1.327 . S
C1316 C1335 1.429 . S
C1316 H1340 0.950 . S
C1317 C1334 1.574 . S
C1317 C1336 1.368 . S
C1317 H1341 0.949 . S
H1318 C1322 0.949 . S
C1319 C1320 1.349 . S
C1319 C1321 1.327 . S
C1319 H1342 0.950 . S
C1320 C1319 1.349 . S
C1320 C1332 1.349 . S
C1321 C1319 1.327 . S
C1321 C1337 1.429 . S
C1321 H1343 0.950 . S
C1322 H1318 0.949 . S
C1322 C1330 1.574 . S
C1322 C1338 1.368 . S
H1323 C1331 0.950 . S
H1324 C1329 0.950 . S
H1325 C1330 0.949 . S
H1326 C1332 0.950 . S
H1327 C1333 0.950 . S
H1328 C1334 0.949 . S
C1329 H1324 0.950 . S
C1329 C1331 1.327 . S
C1329 C1335 1.429 . S
C1330 C1322 1.574 . S
C1330 H1325 0.949 . S
C1330 C1336 1.368 . S
C1331 C1315 1.349 . S
C1331 H1323 0.950 . S
C1331 C1329 1.327 . S
C1332 C1320 1.349 . S
C1332 H1326 0.950 . S
C1332 C1333 1.327 . S
C1333 H1327 0.950 . S
C1333 C1332 1.327 . S
C1333 C1337 1.429 . S
C1334 C1317 1.574 . S
C1334 H1328 0.949 . S
C1334 C1338 1.368 . S
C1335 C1316 1.429 . S
C1335 C1329 1.429 . S
C1335 C1336 1.523 . S
C1336 C1317 1.368 . S
C1336 C1330 1.368 . S
C1336 C1335 1.523 . S
C1337 C1321 1.429 . S
C1337 C1333 1.429 . S
C1337 C1338 1.523 . S
C1338 C1322 1.368 . S
C1338 C1334 1.368 . S
C1338 C1337 1.523 . S
H1339 C1314 0.950 . S
H1340 C1316 0.950 . S
H1341 C1317 0.949 . S
H1342 C1319 0.950 . S
H1343 C1321 0.950 . S
C1344 C1345 1.349 . S
C1344 C1346 1.327 . S
C1344 H1369 0.950 . S
C1345 C1344 1.349 . S
C1345 C1361 1.349 . S
C1346 C1344 1.327 . S
C1346 C1365 1.429 . S
C1346 H1370 0.950 . S
C1347 C1364 1.574 . S
C1347 C1366 1.368 . S
C1347 H1371 0.949 . S
H1348 C1352 0.949 . S
C1349 C1350 1.349 . S
C1349 C1351 1.327 . S
C1349 H1372 0.950 . S
C1350 C1349 1.349 . S
C1350 C1362 1.349 . S
C1351 C1349 1.327 . S
C1351 C1367 1.429 . S
C1351 H1373 0.950 . S
C1352 H1348 0.949 . S
C1352 C1360 1.574 . S
C1352 C1368 1.368 . S
H1353 C1361 0.950 . S
H1354 C1359 0.950 . S
H1355 C1360 0.949 . S
H1356 C1362 0.950 . S
H1357 C1363 0.950 . S
H1358 C1364 0.949 . S
C1359 H1354 0.950 . S
C1359 C1361 1.327 . S
C1359 C1365 1.429 . S
C1360 C1352 1.574 . S
C1360 H1355 0.949 . S
C1360 C1366 1.368 . S
C1361 C1345 1.349 . S
C1361 H1353 0.950 . S
C1361 C1359 1.327 . S
C1362 C1350 1.349 . S
C1362 H1356 0.950 . S
C1362 C1363 1.327 . S
C1363 H1357 0.950 . S
C1363 C1362 1.327 . S
C1363 C1367 1.429 . S
C1364 C1347 1.574 . S
C1364 H1358 0.949 . S
C1364 C1368 1.368 . S
C1365 C1346 1.429 . S
C1365 C1359 1.429 . S
C1365 C1366 1.523 . S
C1366 C1347 1.368 . S
C1366 C1360 1.368 . S
C1366 C1365 1.523 . S
C1367 C1351 1.429 . S
C1367 C1363 1.429 . S
C1367 C1368 1.523 . S
C1368 C1352 1.368 . S
C1368 C1364 1.368 . S
C1368 C1367 1.523 . S
H1369 C1344 0.950 . S
H1370 C1346 0.950 . S
H1371 C1347 0.949 . S
H1372 C1349 0.950 . S
H1373 C1351 0.950 . S
C1374 C1375 1.349 . S
C1374 C1376 1.327 . S
C1374 H1399 0.950 . S
C1375 C1374 1.349 . S
C1375 C1391 1.349 . S
C1376 C1374 1.327 . S
C1376 C1395 1.429 . S
C1376 H1400 0.950 . S
C1377 C1394 1.574 . S
C1377 C1396 1.368 . S
C1377 H1401 0.949 . S
H1378 C1382 0.949 . S
C1379 C1380 1.349 . S
C1379 C1381 1.327 . S
C1379 H1402 0.950 . S
C1380 C1379 1.349 . S
C1380 C1392 1.349 . S
C1381 C1379 1.327 . S
C1381 C1397 1.429 . S
C1381 H1403 0.950 . S
C1382 H1378 0.949 . S
C1382 C1390 1.574 . S
C1382 C1398 1.368 . S
H1383 C1391 0.950 . S
H1384 C1389 0.950 . S
H1385 C1390 0.949 . S
H1386 C1392 0.950 . S
H1387 C1393 0.950 . S
H1388 C1394 0.949 . S
C1389 H1384 0.950 . S
C1389 C1391 1.327 . S
C1389 C1395 1.429 . S
C1390 C1382 1.574 . S
C1390 H1385 0.949 . S
C1390 C1396 1.368 . S
C1391 C1375 1.349 . S
C1391 H1383 0.950 . S
C1391 C1389 1.327 . S
C1392 C1380 1.349 . S
C1392 H1386 0.950 . S
C1392 C1393 1.327 . S
C1393 H1387 0.950 . S
C1393 C1392 1.327 . S
C1393 C1397 1.429 . S
C1394 C1377 1.574 . S
C1394 H1388 0.949 . S
C1394 C1398 1.368 . S
C1395 C1376 1.429 . S
C1395 C1389 1.429 . S
C1395 C1396 1.523 . S
C1396 C1377 1.368 . S
C1396 C1390 1.368 . S
C1396 C1395 1.523 . S
C1397 C1381 1.429 . S
C1397 C1393 1.429 . S
C1397 C1398 1.523 . S
C1398 C1382 1.368 . S
C1398 C1394 1.368 . S
C1398 C1397 1.523 . S
H1399 C1374 0.950 . S
H1400 C1376 0.950 . S
H1401 C1377 0.949 . S
H1402 C1379 0.950 . S
H1403 C1381 0.950 . S
C1404 C1405 1.349 . S
C1404 C1406 1.327 . S
C1404 H1429 0.950 . S
C1405 C1404 1.349 . S
C1405 C1421 1.349 . S
C1406 C1404 1.327 . S
C1406 C1425 1.429 . S
C1406 H1430 0.950 . S
C1407 C1424 1.574 . S
C1407 C1426 1.368 . S
C1407 H1431 0.949 . S
H1408 C1412 0.949 . S
C1409 C1410 1.349 . S
C1409 C1411 1.327 . S
C1409 H1432 0.950 . S
C1410 C1409 1.349 . S
C1410 C1422 1.349 . S
C1411 C1409 1.327 . S
C1411 C1427 1.429 . S
C1411 H1433 0.950 . S
C1412 H1408 0.949 . S
C1412 C1420 1.574 . S
C1412 C1428 1.368 . S
H1413 C1421 0.950 . S
H1414 C1419 0.950 . S
H1415 C1420 0.949 . S
H1416 C1422 0.950 . S
H1417 C1423 0.950 . S
H1418 C1424 0.949 . S
C1419 H1414 0.950 . S
C1419 C1421 1.327 . S
C1419 C1425 1.429 . S
C1420 C1412 1.574 . S
C1420 H1415 0.949 . S
C1420 C1426 1.368 . S
C1421 C1405 1.349 . S
C1421 H1413 0.950 . S
C1421 C1419 1.327 . S
C1422 C1410 1.349 . S
C1422 H1416 0.950 . S
C1422 C1423 1.327 . S
C1423 H1417 0.950 . S
C1423 C1422 1.327 . S
C1423 C1427 1.429 . S
C1424 C1407 1.574 . S
C1424 H1418 0.949 . S
C1424 C1428 1.368 . S
C1425 C1406 1.429 . S
C1425 C1419 1.429 . S
C1425 C1426 1.523 . S
C1426 C1407 1.368 . S
C1426 C1420 1.368 . S
C1426 C1425 1.523 . S
C1427 C1411 1.429 . S
C1427 C1423 1.429 . S
C1427 C1428 1.523 . S
C1428 C1412 1.368 . S
C1428 C1424 1.368 . S
C1428 C1427 1.523 . S
H1429 C1404 0.950 . S
H1430 C1406 0.950 . S
H1431 C1407 0.949 . S
H1432 C1409 0.950 . S
H1433 C1411 0.950 . S
C1434 C1435 1.349 . S
C1434 C1436 1.327 . S
C1434 H1459 0.950 . S
C1435 C1434 1.349 . S
C1435 C1451 1.349 . S
C1436 C1434 1.327 . S
C1436 C1455 1.429 . S
C1436 H1460 0.950 . S
C1437 C1454 1.574 . S
C1437 C1456 1.368 . S
C1437 H1461 0.949 . S
H1438 C1442 0.949 . S
C1439 C1440 1.349 . S
C1439 C1441 1.327 . S
C1439 H1462 0.950 . S
C1440 C1439 1.349 . S
C1440 C1452 1.349 . S
C1441 C1439 1.327 . S
C1441 C1457 1.429 . S
C1441 H1463 0.950 . S
C1442 H1438 0.949 . S
C1442 C1450 1.574 . S
C1442 C1458 1.368 . S
H1443 C1451 0.950 . S
H1444 C1449 0.950 . S
H1445 C1450 0.949 . S
H1446 C1452 0.950 . S
H1447 C1453 0.950 . S
H1448 C1454 0.949 . S
C1449 H1444 0.950 . S
C1449 C1451 1.327 . S
C1449 C1455 1.429 . S
C1450 C1442 1.574 . S
C1450 H1445 0.949 . S
C1450 C1456 1.368 . S
C1451 C1435 1.349 . S
C1451 H1443 0.950 . S
C1451 C1449 1.327 . S
C1452 C1440 1.349 . S
C1452 H1446 0.950 . S
C1452 C1453 1.327 . S
C1453 H1447 0.950 . S
C1453 C1452 1.327 . S
C1453 C1457 1.429 . S
C1454 C1437 1.574 . S
C1454 H1448 0.949 . S
C1454 C1458 1.368 . S
C1455 C1436 1.429 . S
C1455 C1449 1.429 . S
C1455 C1456 1.523 . S
C1456 C1437 1.368 . S
C1456 C1450 1.368 . S
C1456 C1455 1.523 . S
C1457 C1441 1.429 . S
C1457 C1453 1.429 . S
C1457 C1458 1.523 . S
C1458 C1442 1.368 . S
C1458 C1454 1.368 . S
C1458 C1457 1.523 . S
H1459 C1434 0.950 . S
H1460 C1436 0.950 . S
H1461 C1437 0.949 . S
H1462 C1439 0.950 . S
H1463 C1441 0.950 . S
C1464 C1465 1.349 . S
C1464 C1466 1.327 . S
C1464 H1489 0.950 . S
C1465 C1464 1.349 . S
C1465 C1481 1.349 . S
C1466 C1464 1.327 . S
C1466 C1485 1.429 . S
C1466 H1490 0.950 . S
C1467 C1484 1.574 . S
C1467 C1486 1.368 . S
C1467 H1491 0.949 . S
H1468 C1472 0.949 . S
C1469 C1470 1.349 . S
C1469 C1471 1.327 . S
C1469 H1492 0.950 . S
C1470 C1469 1.349 . S
C1470 C1482 1.349 . S
C1471 C1469 1.327 . S
C1471 C1487 1.429 . S
C1471 H1493 0.950 . S
C1472 H1468 0.949 . S
C1472 C1480 1.574 . S
C1472 C1488 1.368 . S
H1473 C1481 0.950 . S
H1474 C1479 0.950 . S
H1475 C1480 0.949 . S
H1476 C1482 0.950 . S
H1477 C1483 0.950 . S
H1478 C1484 0.949 . S
C1479 H1474 0.950 . S
C1479 C1481 1.327 . S
C1479 C1485 1.429 . S
C1480 C1472 1.574 . S
C1480 H1475 0.949 . S
C1480 C1486 1.368 . S
C1481 C1465 1.349 . S
C1481 H1473 0.950 . S
C1481 C1479 1.327 . S
C1482 C1470 1.349 . S
C1482 H1476 0.950 . S
C1482 C1483 1.327 . S
C1483 H1477 0.950 . S
C1483 C1482 1.327 . S
C1483 C1487 1.429 . S
C1484 C1467 1.574 . S
C1484 H1478 0.949 . S
C1484 C1488 1.368 . S
C1485 C1466 1.429 . S
C1485 C1479 1.429 . S
C1485 C1486 1.523 . S
C1486 C1467 1.368 . S
C1486 C1480 1.368 . S
C1486 C1485 1.523 . S
C1487 C1471 1.429 . S
C1487 C1483 1.429 . S
C1487 C1488 1.523 . S
C1488 C1472 1.368 . S
C1488 C1484 1.368 . S
C1488 C1487 1.523 . S
H1489 C1464 0.950 . S
H1490 C1466 0.950 . S
H1491 C1467 0.949 . S
H1492 C1469 0.950 . S
H1493 C1471 0.950 . S
C1494 C1495 1.349 . S
C1494 C1496 1.327 . S
C1494 H1519 0.950 . S
C1495 C1494 1.349 . S
C1495 C1511 1.349 . S
C1496 C1494 1.327 . S
C1496 C1515 1.429 . S
C1496 H1520 0.950 . S
C1497 C1514 1.574 . S
C1497 C1516 1.368 . S
C1497 H1521 0.949 . S
H1498 C1502 0.949 . S
C1499 C1500 1.349 . S
C1499 C1501 1.327 . S
C1499 H1522 0.950 . S
C1500 C1499 1.349 . S
C1500 C1512 1.349 . S
C1501 C1499 1.327 . S
C1501 C1517 1.429 . S
C1501 H1523 0.950 . S
C1502 H1498 0.949 . S
C1502 C1510 1.574 . S
C1502 C1518 1.368 . S
H1503 C1511 0.950 . S
H1504 C1509 0.950 . S
H1505 C1510 0.949 . S
H1506 C1512 0.950 . S
H1507 C1513 0.950 . S
H1508 C1514 0.949 . S
C1509 H1504 0.950 . S
C1509 C1511 1.327 . S
C1509 C1515 1.429 . S
C1510 C1502 1.574 . S
C1510 H1505 0.949 . S
C1510 C1516 1.368 . S
C1511 C1495 1.349 . S
C1511 H1503 0.950 . S
C1511 C1509 1.327 . S
C1512 C1500 1.349 . S
C1512 H1506 0.950 . S
C1512 C1513 1.327 . S
C1513 H1507 0.950 . S
C1513 C1512 1.327 . S
C1513 C1517 1.429 . S
C1514 C1497 1.574 . S
C1514 H1508 0.949 . S
C1514 C1518 1.368 . S
C1515 C1496 1.429 . S
C1515 C1509 1.429 . S
C1515 C1516 1.523 . S
C1516 C1497 1.368 . S
C1516 C1510 1.368 . S
C1516 C1515 1.523 . S
C1517 C1501 1.429 . S
C1517 C1513 1.429 . S
C1517 C1518 1.523 . S
C1518 C1502 1.368 . S
C1518 C1514 1.368 . S
C1518 C1517 1.523 . S
H1519 C1494 0.950 . S
H1520 C1496 0.950 . S
H1521 C1497 0.949 . S
H1522 C1499 0.950 . S
H1523 C1501 0.950 . S
C1524 C1525 1.349 . S
C1524 C1526 1.327 . S
C1524 H1549 0.950 . S
C1525 C1524 1.349 . S
C1525 C1541 1.349 . S
C1526 C1524 1.327 . S
C1526 C1545 1.429 . S
C1526 H1550 0.950 . S
C1527 C1544 1.574 . S
C1527 C1546 1.368 . S
C1527 H1551 0.949 . S
H1528 C1532 0.949 . S
C1529 C1530 1.349 . S
C1529 C1531 1.327 . S
C1529 H1552 0.950 . S
C1530 C1529 1.349 . S
C1530 C1542 1.349 . S
C1531 C1529 1.327 . S
C1531 C1547 1.429 . S
C1531 H1553 0.950 . S
C1532 H1528 0.949 . S
C1532 C1540 1.574 . S
C1532 C1548 1.368 . S
H1533 C1541 0.950 . S
H1534 C1539 0.950 . S
H1535 C1540 0.949 . S
H1536 C1542 0.950 . S
H1537 C1543 0.950 . S
H1538 C1544 0.949 . S
C1539 H1534 0.950 . S
C1539 C1541 1.327 . S
C1539 C1545 1.429 . S
C1540 C1532 1.574 . S
C1540 H1535 0.949 . S
C1540 C1546 1.368 . S
C1541 C1525 1.349 . S
C1541 H1533 0.950 . S
C1541 C1539 1.327 . S
C1542 C1530 1.349 . S
C1542 H1536 0.950 . S
C1542 C1543 1.327 . S
C1543 H1537 0.950 . S
C1543 C1542 1.327 . S
C1543 C1547 1.429 . S
C1544 C1527 1.574 . S
C1544 H1538 0.949 . S
C1544 C1548 1.368 . S
C1545 C1526 1.429 . S
C1545 C1539 1.429 . S
C1545 C1546 1.523 . S
C1546 C1527 1.368 . S
C1546 C1540 1.368 . S
C1546 C1545 1.523 . S
C1547 C1531 1.429 . S
C1547 C1543 1.429 . S
C1547 C1548 1.523 . S
C1548 C1532 1.368 . S
C1548 C1544 1.368 . S
C1548 C1547 1.523 . S
H1549 C1524 0.950 . S
H1550 C1526 0.950 . S
H1551 C1527 0.949 . S
H1552 C1529 0.950 . S
H1553 C1531 0.950 . S
C1554 C1555 1.349 . S
C1554 C1556 1.327 . S
C1554 H1579 0.950 . S
C1555 C1554 1.349 . S
C1555 C1571 1.349 . S
C1556 C1554 1.327 . S
C1556 C1575 1.429 . S
C1556 H1580 0.950 . S
C1557 C1574 1.574 . S
C1557 C1576 1.368 . S
C1557 H1581 0.949 . S
H1558 C1562 0.949 . S
C1559 C1560 1.349 . S
C1559 C1561 1.327 . S
C1559 H1582 0.950 . S
C1560 C1559 1.349 . S
C1560 C1572 1.349 . S
C1561 C1559 1.327 . S
C1561 C1577 1.429 . S
C1561 H1583 0.950 . S
C1562 H1558 0.949 . S
C1562 C1570 1.574 . S
C1562 C1578 1.368 . S
H1563 C1571 0.950 . S
H1564 C1569 0.950 . S
H1565 C1570 0.949 . S
H1566 C1572 0.950 . S
H1567 C1573 0.950 . S
H1568 C1574 0.949 . S
C1569 H1564 0.950 . S
C1569 C1571 1.327 . S
C1569 C1575 1.429 . S
C1570 C1562 1.574 . S
C1570 H1565 0.949 . S
C1570 C1576 1.368 . S
C1571 C1555 1.349 . S
C1571 H1563 0.950 . S
C1571 C1569 1.327 . S
C1572 C1560 1.349 . S
C1572 H1566 0.950 . S
C1572 C1573 1.327 . S
C1573 H1567 0.950 . S
C1573 C1572 1.327 . S
C1573 C1577 1.429 . S
C1574 C1557 1.574 . S
C1574 H1568 0.949 . S
C1574 C1578 1.368 . S
C1575 C1556 1.429 . S
C1575 C1569 1.429 . S
C1575 C1576 1.523 . S
C1576 C1557 1.368 . S
C1576 C1570 1.368 . S
C1576 C1575 1.523 . S
C1577 C1561 1.429 . S
C1577 C1573 1.429 . S
C1577 C1578 1.523 . S
C1578 C1562 1.368 . S
C1578 C1574 1.368 . S
C1578 C1577 1.523 . S
H1579 C1554 0.950 . S
H1580 C1556 0.950 . S
H1581 C1557 0.949 . S
H1582 C1559 0.950 . S
H1583 C1561 0.950 . S
C1584 C1585 1.349 . S
C1584 C1586 1.327 . S
C1584 H1609 0.950 . S
C1585 C1584 1.349 . S
C1585 C1601 1.349 . S
C1586 C1584 1.327 . S
C1586 C1605 1.429 . S
C1586 H1610 0.950 . S
C1587 C1604 1.574 . S
C1587 C1606 1.368 . S
C1587 H1611 0.949 . S
H1588 C1592 0.949 . S
C1589 C1590 1.349 . S
C1589 C1591 1.327 . S
C1589 H1612 0.950 . S
C1590 C1589 1.349 . S
C1590 C1602 1.349 . S
C1591 C1589 1.327 . S
C1591 C1607 1.429 . S
C1591 H1613 0.950 . S
C1592 H1588 0.949 . S
C1592 C1600 1.574 . S
C1592 C1608 1.368 . S
H1593 C1601 0.950 . S
H1594 C1599 0.950 . S
H1595 C1600 0.949 . S
H1596 C1602 0.950 . S
H1597 C1603 0.950 . S
H1598 C1604 0.949 . S
C1599 H1594 0.950 . S
C1599 C1601 1.327 . S
C1599 C1605 1.429 . S
C1600 C1592 1.574 . S
C1600 H1595 0.949 . S
C1600 C1606 1.368 . S
C1601 C1585 1.349 . S
C1601 H1593 0.950 . S
C1601 C1599 1.327 . S
C1602 C1590 1.349 . S
C1602 H1596 0.950 . S
C1602 C1603 1.327 . S
C1603 H1597 0.950 . S
C1603 C1602 1.327 . S
C1603 C1607 1.429 . S
C1604 C1587 1.574 . S
C1604 H1598 0.949 . S
C1604 C1608 1.368 . S
C1605 C1586 1.429 . S
C1605 C1599 1.429 . S
C1605 C1606 1.523 . S
C1606 C1587 1.368 . S
C1606 C1600 1.368 . S
C1606 C1605 1.523 . S
C1607 C1591 1.429 . S
C1607 C1603 1.429 . S
C1607 C1608 1.523 . S
C1608 C1592 1.368 . S
C1608 C1604 1.368 . S
C1608 C1607 1.523 . S
H1609 C1584 0.950 . S
H1610 C1586 0.950 . S
H1611 C1587 0.949 . S
H1612 C1589 0.950 . S
H1613 C1591 0.950 . S
C1614 C1615 1.349 . S
C1614 C1616 1.327 . S
C1614 H1639 0.950 . S
C1615 C1614 1.349 . S
C1615 C1631 1.349 . S
C1616 C1614 1.327 . S
C1616 C1635 1.429 . S
C1616 H1640 0.950 . S
C1617 C1634 1.574 . S
C1617 C1636 1.368 . S
C1617 H1641 0.949 . S
H1618 C1622 0.949 . S
C1619 C1620 1.349 . S
C1619 C1621 1.327 . S
C1619 H1642 0.950 . S
C1620 C1619 1.349 . S
C1620 C1632 1.349 . S
C1621 C1619 1.327 . S
C1621 C1637 1.429 . S
C1621 H1643 0.950 . S
C1622 H1618 0.949 . S
C1622 C1630 1.574 . S
C1622 C1638 1.368 . S
H1623 C1631 0.950 . S
H1624 C1629 0.950 . S
H1625 C1630 0.949 . S
H1626 C1632 0.950 . S
H1627 C1633 0.950 . S
H1628 C1634 0.949 . S
C1629 H1624 0.950 . S
C1629 C1631 1.327 . S
C1629 C1635 1.429 . S
C1630 C1622 1.574 . S
C1630 H1625 0.949 . S
C1630 C1636 1.368 1_545 S
C1631 C1615 1.349 . S
C1631 H1623 0.950 . S
C1631 C1629 1.327 . S
C1632 C1620 1.349 . S
C1632 H1626 0.950 . S
C1632 C1633 1.327 . S
C1633 H1627 0.950 . S
C1633 C1632 1.327 . S
C1633 C1637 1.429 . S
C1634 C1617 1.574 . S
C1634 H1628 0.949 . S
C1634 C1638 1.368 1_565 S
C1635 C1616 1.429 . S
C1635 C1629 1.429 . S
C1635 C1636 1.523 . S
C1636 C1617 1.368 . S
C1636 C1630 1.368 1_565 S
C1636 C1635 1.523 . S
C1637 C1621 1.429 . S
C1637 C1633 1.429 . S
C1637 C1638 1.523 . S
C1638 C1622 1.368 . S
C1638 C1634 1.368 1_545 S
C1638 C1637 1.523 . S
H1639 C1614 0.950 . S
H1640 C1616 0.950 . S
H1641 C1617 0.949 . S
H1642 C1619 0.950 . S
H1643 C1621 0.950 . S
C1644 C1645 1.349 . S
C1644 C1646 1.327 . S
C1644 H1669 0.950 . S
C1645 C1644 1.349 . S
C1645 C1661 1.349 . S
C1646 C1644 1.327 . S
C1646 C1665 1.429 . S
C1646 H1670 0.950 . S
C1647 C1664 1.574 1_655 S
C1647 C1666 1.368 . S
C1647 H1671 0.949 . S
H1648 C1652 0.949 . S
C1649 C1650 1.349 . S
C1649 C1651 1.327 . S
C1649 H1672 0.950 . S
C1650 C1649 1.349 . S
C1650 C1662 1.349 . S
C1651 C1649 1.327 . S
C1651 C1667 1.429 . S
C1651 H1673 0.950 . S
C1652 H1648 0.949 . S
C1652 C1660 1.574 1_455 S
C1652 C1668 1.368 . S
H1653 C1661 0.950 . S
H1654 C1659 0.950 . S
H1655 C1660 0.949 . S
H1656 C1662 0.950 . S
H1657 C1663 0.950 . S
H1658 C1664 0.949 . S
C1659 H1654 0.950 . S
C1659 C1661 1.327 . S
C1659 C1665 1.429 . S
C1660 C1652 1.574 1_655 S
C1660 H1655 0.949 . S
C1660 C1666 1.368 . S
C1661 C1645 1.349 . S
C1661 H1653 0.950 . S
C1661 C1659 1.327 . S
C1662 C1650 1.349 . S
C1662 H1656 0.950 . S
C1662 C1663 1.327 . S
C1663 H1657 0.950 . S
C1663 C1662 1.327 . S
C1663 C1667 1.429 . S
C1664 C1647 1.574 1_455 S
C1664 H1658 0.949 . S
C1664 C1668 1.368 . S
C1665 C1646 1.429 . S
C1665 C1659 1.429 . S
C1665 C1666 1.523 . S
C1666 C1647 1.368 . S
C1666 C1660 1.368 . S
C1666 C1665 1.523 . S
C1667 C1651 1.429 . S
C1667 C1663 1.429 . S
C1667 C1668 1.523 . S
C1668 C1652 1.368 . S
C1668 C1664 1.368 . S
C1668 C1667 1.523 . S
H1669 C1644 0.950 . S
H1670 C1646 0.950 . S
H1671 C1647 0.949 . S
H1672 C1649 0.950 . S
H1673 C1651 0.950 . S
C1674 C1675 1.349 . S
C1674 C1676 1.327 . S
C1674 H1699 0.950 . S
C1675 C1674 1.349 . S
C1675 C1691 1.349 . S
C1676 C1674 1.327 . S
C1676 C1695 1.429 . S
C1676 H1700 0.950 . S
C1677 C1694 1.574 . S
C1677 C1696 1.368 . S
C1677 H1701 0.949 . S
H1678 C1682 0.949 . S
C1679 C1680 1.349 . S
C1679 C1681 1.327 . S
C1679 H1702 0.950 . S
C1680 C1679 1.349 . S
C1680 C1692 1.349 . S
C1681 C1679 1.327 . S
C1681 C1697 1.429 . S
C1681 H1703 0.950 . S
C1682 H1678 0.949 . S
C1682 C1690 1.574 . S
C1682 C1698 1.368 . S
H1683 C1691 0.950 . S
H1684 C1689 0.950 . S
H1685 C1690 0.949 . S
H1686 C1692 0.950 . S
H1687 C1693 0.950 . S
H1688 C1694 0.949 . S
C1689 H1684 0.950 . S
C1689 C1691 1.327 . S
C1689 C1695 1.429 . S
C1690 C1682 1.574 . S
C1690 H1685 0.949 . S
C1690 C1696 1.368 . S
C1691 C1675 1.349 . S
C1691 H1683 0.950 . S
C1691 C1689 1.327 . S
C1692 C1680 1.349 . S
C1692 H1686 0.950 . S
C1692 C1693 1.327 . S
C1693 H1687 0.950 . S
C1693 C1692 1.327 . S
C1693 C1697 1.429 . S
C1694 C1677 1.574 . S
C1694 H1688 0.949 . S
C1694 C1698 1.368 . S
C1695 C1676 1.429 . S
C1695 C1689 1.429 . S
C1695 C1696 1.523 . S
C1696 C1677 1.368 . S
C1696 C1690 1.368 . S
C1696 C1695 1.523 . S
C1697 C1681 1.429 . S
C1697 C1693 1.429 . S
C1697 C1698 1.523 . S
C1698 C1682 1.368 . S
C1698 C1694 1.368 . S
C1698 C1697 1.523 . S
H1699 C1674 0.950 . S
H1700 C1676 0.950 . S
H1701 C1677 0.949 . S
H1702 C1679 0.950 . S
H1703 C1681 0.950 . S
C1704 C1705 1.349 . S
C1704 C1706 1.327 . S
C1704 H1729 0.950 . S
C1705 C1704 1.349 . S
C1705 C1721 1.349 . S
C1706 C1704 1.327 . S
C1706 C1725 1.429 . S
C1706 H1730 0.950 . S
C1707 C1724 1.574 . S
C1707 C1726 1.368 . S
C1707 H1731 0.949 . S
H1708 C1712 0.949 . S
C1709 C1710 1.349 . S
C1709 C1711 1.327 . S
C1709 H1732 0.950 . S
C1710 C1709 1.349 . S
C1710 C1722 1.349 . S
C1711 C1709 1.327 . S
C1711 C1727 1.429 . S
C1711 H1733 0.950 . S
C1712 H1708 0.949 . S
C1712 C1720 1.574 . S
C1712 C1728 1.368 . S
H1713 C1721 0.950 . S
H1714 C1719 0.950 . S
H1715 C1720 0.949 . S
H1716 C1722 0.950 . S
H1717 C1723 0.950 . S
H1718 C1724 0.949 . S
C1719 H1714 0.950 . S
C1719 C1721 1.327 . S
C1719 C1725 1.429 . S
C1720 C1712 1.574 . S
C1720 H1715 0.949 . S
C1720 C1726 1.368 1_565 S
C1721 C1705 1.349 . S
C1721 H1713 0.950 . S
C1721 C1719 1.327 . S
C1722 C1710 1.349 . S
C1722 H1716 0.950 . S
C1722 C1723 1.327 . S
C1723 H1717 0.950 . S
C1723 C1722 1.327 . S
C1723 C1727 1.429 . S
C1724 C1707 1.574 . S
C1724 H1718 0.949 . S
C1724 C1728 1.368 1_545 S
C1725 C1706 1.429 . S
C1725 C1719 1.429 . S
C1725 C1726 1.523 . S
C1726 C1707 1.368 . S
C1726 C1720 1.368 1_545 S
C1726 C1725 1.523 . S
C1727 C1711 1.429 . S
C1727 C1723 1.429 . S
C1727 C1728 1.523 . S
C1728 C1712 1.368 . S
C1728 C1724 1.368 1_565 S
C1728 C1727 1.523 . S
H1729 C1704 0.950 . S
H1730 C1706 0.950 . S
H1731 C1707 0.949 . S
H1732 C1709 0.950 . S
H1733 C1711 0.950 . S
C1734 C1735 1.349 . S
C1734 C1736 1.327 . S
C1734 H1759 0.950 . S
C1735 C1734 1.349 . S
C1735 C1751 1.349 . S
C1736 C1734 1.327 . S
C1736 C1755 1.429 . S
C1736 H1760 0.950 . S
C1737 C1754 1.574 1_655 S
C1737 C1756 1.368 . S
C1737 H1761 0.949 . S
H1738 C1742 0.949 . S
C1739 C1740 1.349 . S
C1739 C1741 1.327 . S
C1739 H1762 0.950 . S
C1740 C1739 1.349 . S
C1740 C1752 1.349 . S
C1741 C1739 1.327 . S
C1741 C1757 1.429 . S
C1741 H1763 0.950 . S
C1742 H1738 0.949 . S
C1742 C1750 1.574 1_455 S
C1742 C1758 1.368 . S
H1743 C1751 0.950 . S
H1744 C1749 0.950 . S
H1745 C1750 0.949 . S
H1746 C1752 0.950 . S
H1747 C1753 0.950 . S
H1748 C1754 0.949 . S
C1749 H1744 0.950 . S
C1749 C1751 1.327 . S
C1749 C1755 1.429 . S
C1750 C1742 1.574 1_655 S
C1750 H1745 0.949 . S
C1750 C1756 1.368 . S
C1751 C1735 1.349 . S
C1751 H1743 0.950 . S
C1751 C1749 1.327 . S
C1752 C1740 1.349 . S
C1752 H1746 0.950 . S
C1752 C1753 1.327 . S
C1753 H1747 0.950 . S
C1753 C1752 1.327 . S
C1753 C1757 1.429 . S
C1754 C1737 1.574 1_455 S
C1754 H1748 0.949 . S
C1754 C1758 1.368 . S
C1755 C1736 1.429 . S
C1755 C1749 1.429 . S
C1755 C1756 1.523 . S
C1756 C1737 1.368 . S
C1756 C1750 1.368 . S
C1756 C1755 1.523 . S
C1757 C1741 1.429 . S
C1757 C1753 1.429 . S
C1757 C1758 1.523 . S
C1758 C1742 1.368 . S
C1758 C1754 1.368 . S
C1758 C1757 1.523 . S
H1759 C1734 0.950 . S
H1760 C1736 0.950 . S
H1761 C1737 0.949 . S
H1762 C1739 0.950 . S
H1763 C1741 0.950 . S
C1764 C1765 1.349 . S
C1764 C1766 1.327 . S
C1764 H1789 0.950 . S
C1765 C1764 1.349 . S
C1765 C1781 1.349 . S
C1766 C1764 1.327 . S
C1766 C1785 1.429 . S
C1766 H1790 0.950 . S
C1767 C1784 1.574 . S
C1767 C1786 1.368 . S
C1767 H1791 0.949 . S
H1768 C1772 0.949 . S
C1769 C1770 1.349 . S
C1769 C1771 1.327 . S
C1769 H1792 0.950 . S
C1770 C1769 1.349 . S
C1770 C1782 1.349 . S
C1771 C1769 1.327 . S
C1771 C1787 1.429 . S
C1771 H1793 0.950 . S
C1772 H1768 0.949 . S
C1772 C1780 1.574 . S
C1772 C1788 1.368 . S
H1773 C1781 0.950 . S
H1774 C1779 0.950 . S
H1775 C1780 0.949 . S
H1776 C1782 0.950 . S
H1777 C1783 0.950 . S
H1778 C1784 0.949 . S
C1779 H1774 0.950 . S
C1779 C1781 1.327 . S
C1779 C1785 1.429 . S
C1780 C1772 1.574 . S
C1780 H1775 0.949 . S
C1780 C1786 1.368 . S
C1781 C1765 1.349 . S
C1781 H1773 0.950 . S
C1781 C1779 1.327 . S
C1782 C1770 1.349 . S
C1782 H1776 0.950 . S
C1782 C1783 1.327 . S
C1783 H1777 0.950 . S
C1783 C1782 1.327 . S
C1783 C1787 1.429 . S
C1784 C1767 1.574 . S
C1784 H1778 0.949 . S
C1784 C1788 1.368 . S
C1785 C1766 1.429 . S
C1785 C1779 1.429 . S
C1785 C1786 1.523 . S
C1786 C1767 1.368 . S
C1786 C1780 1.368 . S
C1786 C1785 1.523 . S
C1787 C1771 1.429 . S
C1787 C1783 1.429 . S
C1787 C1788 1.523 . S
C1788 C1772 1.368 . S
C1788 C1784 1.368 . S
C1788 C1787 1.523 . S
H1789 C1764 0.950 . S
H1790 C1766 0.950 . S
H1791 C1767 0.949 . S
H1792 C1769 0.950 . S
H1793 C1771 0.950 . S
C1794 C1795 1.349 . S
C1794 C1796 1.327 . S
C1794 H1819 0.950 . S
C1795 C1794 1.349 . S
C1795 C1811 1.349 . S
C1796 C1794 1.327 . S
C1796 C1815 1.429 . S
C1796 H1820 0.950 . S
C1797 C1814 1.574 . S
C1797 C1816 1.368 . S
C1797 H1821 0.949 . S
H1798 C1802 0.949 . S
C1799 C1800 1.349 . S
C1799 C1801 1.327 . S
C1799 H1822 0.950 . S
C1800 C1799 1.349 . S
C1800 C1812 1.349 . S
C1801 C1799 1.327 . S
C1801 C1817 1.429 . S
C1801 H1823 0.950 . S
C1802 H1798 0.949 . S
C1802 C1810 1.574 . S
C1802 C1818 1.368 . S
H1803 C1811 0.950 . S
H1804 C1809 0.950 . S
H1805 C1810 0.949 . S
H1806 C1812 0.950 . S
H1807 C1813 0.950 . S
H1808 C1814 0.949 . S
C1809 H1804 0.950 . S
C1809 C1811 1.327 . S
C1809 C1815 1.429 . S
C1810 C1802 1.574 . S
C1810 H1805 0.949 . S
C1810 C1816 1.368 . S
C1811 C1795 1.349 . S
C1811 H1803 0.950 . S
C1811 C1809 1.327 . S
C1812 C1800 1.349 . S
C1812 H1806 0.950 . S
C1812 C1813 1.327 . S
C1813 H1807 0.950 . S
C1813 C1812 1.327 . S
C1813 C1817 1.429 . S
C1814 C1797 1.574 . S
C1814 H1808 0.949 . S
C1814 C1818 1.368 . S
C1815 C1796 1.429 . S
C1815 C1809 1.429 . S
C1815 C1816 1.523 . S
C1816 C1797 1.368 . S
C1816 C1810 1.368 . S
C1816 C1815 1.523 . S
C1817 C1801 1.429 . S
C1817 C1813 1.429 . S
C1817 C1818 1.523 . S
C1818 C1802 1.368 . S
C1818 C1814 1.368 . S
C1818 C1817 1.523 . S
H1819 C1794 0.950 . S
H1820 C1796 0.950 . S
H1821 C1797 0.949 . S
H1822 C1799 0.950 . S
H1823 C1801 0.950 . S
C1824 C1825 1.349 . S
C1824 C1826 1.327 . S
C1824 H1849 0.950 . S
C1825 C1824 1.349 . S
C1825 C1841 1.349 . S
C1826 C1824 1.327 . S
C1826 C1845 1.429 . S
C1826 H1850 0.950 . S
C1827 C1844 1.574 . S
C1827 C1846 1.368 . S
C1827 H1851 0.949 . S
H1828 C1832 0.949 . S
C1829 C1830 1.349 . S
C1829 C1831 1.327 . S
C1829 H1852 0.950 . S
C1830 C1829 1.349 . S
C1830 C1842 1.349 . S
C1831 C1829 1.327 . S
C1831 C1847 1.429 . S
C1831 H1853 0.950 . S
C1832 H1828 0.949 . S
C1832 C1840 1.574 . S
C1832 C1848 1.368 . S
H1833 C1841 0.950 . S
H1834 C1839 0.950 . S
H1835 C1840 0.949 . S
H1836 C1842 0.950 . S
H1837 C1843 0.950 . S
H1838 C1844 0.949 . S
C1839 H1834 0.950 . S
C1839 C1841 1.327 . S
C1839 C1845 1.429 . S
C1840 C1832 1.574 . S
C1840 H1835 0.949 . S
C1840 C1846 1.368 . S
C1841 C1825 1.349 . S
C1841 H1833 0.950 . S
C1841 C1839 1.327 . S
C1842 C1830 1.349 . S
C1842 H1836 0.950 . S
C1842 C1843 1.327 . S
C1843 H1837 0.950 . S
C1843 C1842 1.327 . S
C1843 C1847 1.429 . S
C1844 C1827 1.574 . S
C1844 H1838 0.949 . S
C1844 C1848 1.368 . S
C1845 C1826 1.429 . S
C1845 C1839 1.429 . S
C1845 C1846 1.523 . S
C1846 C1827 1.368 . S
C1846 C1840 1.368 . S
C1846 C1845 1.523 . S
C1847 C1831 1.429 . S
C1847 C1843 1.429 . S
C1847 C1848 1.523 . S
C1848 C1832 1.368 . S
C1848 C1844 1.368 . S
C1848 C1847 1.523 . S
H1849 C1824 0.950 . S
H1850 C1826 0.950 . S
H1851 C1827 0.949 . S
H1852 C1829 0.950 . S
H1853 C1831 0.950 . S
C1854 C1855 1.349 . S
C1854 C1856 1.327 . S
C1854 H1879 0.950 . S
C1855 C1854 1.349 . S
C1855 C1871 1.347 1_554 S
C1856 C1854 1.327 . S
C1856 C1875 1.429 . S
C1856 H1880 0.950 . S
C1857 C1874 1.574 . S
C1857 C1876 1.368 . S
C1857 H1881 0.949 . S
H1858 C1862 0.949 . S
C1859 C1860 1.349 . S
C1859 C1861 1.327 . S
C1859 H1882 0.950 . S
C1860 C1859 1.349 . S
C1860 C1872 1.349 . S
C1861 C1859 1.327 . S
C1861 C1877 1.429 . S
C1861 H1883 0.950 . S
C1862 H1858 0.949 . S
C1862 C1870 1.574 . S
C1862 C1878 1.368 . S
H1863 C1871 0.961 . S
H1864 C1869 0.950 . S
H1865 C1870 0.949 . S
H1866 C1872 0.950 . S
H1867 C1873 0.950 . S
H1868 C1874 0.949 . S
C1869 H1864 0.950 . S
C1869 C1871 1.318 1_554 S
C1869 C1875 1.429 . S
C1870 C1862 1.574 . S
C1870 H1865 0.949 . S
C1870 C1876 1.368 . S
C1871 C1855 1.347 1_556 S
C1871 H1863 0.961 . S
C1871 C1869 1.318 1_556 S
C1872 C1860 1.349 . S
C1872 H1866 0.950 . S
C1872 C1873 1.327 . S
C1873 H1867 0.950 . S
C1873 C1872 1.327 . S
C1873 C1877 1.429 . S
C1874 C1857 1.574 . S
C1874 H1868 0.949 . S
C1874 C1878 1.368 . S
C1875 C1856 1.429 . S
C1875 C1869 1.429 . S
C1875 C1876 1.523 . S
C1876 C1857 1.368 . S
C1876 C1870 1.368 . S
C1876 C1875 1.523 . S
C1877 C1861 1.429 . S
C1877 C1873 1.429 . S
C1877 C1878 1.523 . S
C1878 C1862 1.368 . S
C1878 C1874 1.368 . S
C1878 C1877 1.523 . S
H1879 C1854 0.950 . S
H1880 C1856 0.950 . S
H1881 C1857 0.949 . S
H1882 C1859 0.950 . S
H1883 C1861 0.950 . S
C1884 C1885 1.349 . S
C1884 C1886 1.327 . S
C1884 H1909 0.950 . S
C1885 C1884 1.349 . S
C1885 C1901 1.349 . S
C1886 C1884 1.327 . S
C1886 C1905 1.429 . S
C1886 H1910 0.950 . S
C1887 C1904 1.574 . S
C1887 C1906 1.368 . S
C1887 H1911 0.949 . S
H1888 C1892 0.949 . S
C1889 C1890 1.349 . S
C1889 C1891 1.327 . S
C1889 H1912 0.950 . S
C1890 C1889 1.349 . S
C1890 C1902 1.349 . S
C1891 C1889 1.327 . S
C1891 C1907 1.429 . S
C1891 H1913 0.950 . S
C1892 H1888 0.949 . S
C1892 C1900 1.574 . S
C1892 C1908 1.368 . S
H1893 C1901 0.950 1_556 S
H1894 C1899 0.950 . S
H1895 C1900 0.949 . S
H1896 C1902 0.950 . S
H1897 C1903 0.950 . S
H1898 C1904 0.949 . S
C1899 H1894 0.950 . S
C1899 C1901 1.327 . S
C1899 C1905 1.429 . S
C1900 C1892 1.574 . S
C1900 H1895 0.949 . S
C1900 C1906 1.368 . S
C1901 C1885 1.349 . S
C1901 H1893 0.950 1_554 S
C1901 C1899 1.327 . S
C1902 C1890 1.349 . S
C1902 H1896 0.950 . S
C1902 C1903 1.327 . S
C1903 H1897 0.950 . S
C1903 C1902 1.327 . S
C1903 C1907 1.429 . S
C1904 C1887 1.574 . S
C1904 H1898 0.949 . S
C1904 C1908 1.368 . S
C1905 C1886 1.429 . S
C1905 C1899 1.429 . S
C1905 C1906 1.523 . S
C1906 C1887 1.368 . S
C1906 C1900 1.368 . S
C1906 C1905 1.523 . S
C1907 C1891 1.429 . S
C1907 C1903 1.429 . S
C1907 C1908 1.523 . S
C1908 C1892 1.368 . S
C1908 C1904 1.368 . S
C1908 C1907 1.523 . S
H1909 C1884 0.950 . S
H1910 C1886 0.950 . S
H1911 C1887 0.949 . S
H1912 C1889 0.950 . S
H1913 C1891 0.950 . S
C1914 C1915 1.349 . S
C1914 C1916 1.327 . S
C1914 H1939 0.950 . S
C1915 C1914 1.349 . S
C1915 C1931 1.349 . S
C1916 C1914 1.327 . S
C1916 C1935 1.429 . S
C1916 H1940 0.950 . S
C1917 C1934 1.574 . S
C1917 C1936 1.368 . S
C1917 H1941 0.949 . S
H1918 C1922 0.949 . S
C1919 C1920 1.349 . S
C1919 C1921 1.327 . S
C1919 H1942 0.950 . S
C1920 C1919 1.349 . S
C1920 C1932 1.349 . S
C1921 C1919 1.327 . S
C1921 C1937 1.429 . S
C1921 H1943 0.950 . S
C1922 H1918 0.949 . S
C1922 C1930 1.574 . S
C1922 C1938 1.368 . S
H1923 C1931 0.950 1_556 S
H1924 C1929 0.950 . S
H1925 C1930 0.949 . S
H1926 C1932 0.950 . S
H1927 C1933 0.950 . S
H1928 C1934 0.949 . S
C1929 H1924 0.950 . S
C1929 C1931 1.327 . S
C1929 C1935 1.429 . S
C1930 C1922 1.574 . S
C1930 H1925 0.949 . S
C1930 C1936 1.368 . S
C1931 C1915 1.349 . S
C1931 H1923 0.950 1_554 S
C1931 C1929 1.327 . S
C1932 C1920 1.349 . S
C1932 H1926 0.950 . S
C1932 C1933 1.327 . S
C1933 H1927 0.950 . S
C1933 C1932 1.327 . S
C1933 C1937 1.429 . S
C1934 C1917 1.574 . S
C1934 H1928 0.949 . S
C1934 C1938 1.368 . S
C1935 C1916 1.429 . S
C1935 C1929 1.429 . S
C1935 C1936 1.523 . S
C1936 C1917 1.368 . S
C1936 C1930 1.368 . S
C1936 C1935 1.523 . S
C1937 C1921 1.429 . S
C1937 C1933 1.429 . S
C1937 C1938 1.523 . S
C1938 C1922 1.368 . S
C1938 C1934 1.368 . S
C1938 C1937 1.523 . S
H1939 C1914 0.950 . S
H1940 C1916 0.950 . S
H1941 C1917 0.949 . S
H1942 C1919 0.950 . S
H1943 C1921 0.950 . S
C1944 C1945 1.349 . S
C1944 C1946 1.327 . S
C1944 H1969 0.950 . S
C1945 C1944 1.349 . S
C1945 C1961 1.349 . S
C1946 C1944 1.327 . S
C1946 C1965 1.429 . S
C1946 H1970 0.950 . S
C1947 C1964 1.574 . S
C1947 C1966 1.368 . S
C1947 H1971 0.949 . S
H1948 C1952 0.949 . S
C1949 C1950 1.349 . S
C1949 C1951 1.327 . S
C1949 H1972 0.950 . S
C1950 C1949 1.349 . S
C1950 C1962 1.349 . S
C1951 C1949 1.327 . S
C1951 C1967 1.429 . S
C1951 H1973 0.950 . S
C1952 H1948 0.949 . S
C1952 C1960 1.574 . S
C1952 C1968 1.368 . S
H1953 C1961 0.950 1_554 S
H1954 C1959 0.950 . S
H1955 C1960 0.949 . S
H1956 C1962 0.950 . S
H1957 C1963 0.950 . S
H1958 C1964 0.949 . S
C1959 H1954 0.950 . S
C1959 C1961 1.327 . S
C1959 C1965 1.429 . S
C1960 C1952 1.574 . S
C1960 H1955 0.949 . S
C1960 C1966 1.368 . S
C1961 C1945 1.349 . S
C1961 H1953 0.950 1_556 S
C1961 C1959 1.327 . S
C1962 C1950 1.349 . S
C1962 H1956 0.950 . S
C1962 C1963 1.327 . S
C1963 H1957 0.950 . S
C1963 C1962 1.327 . S
C1963 C1967 1.429 . S
C1964 C1947 1.574 . S
C1964 H1958 0.949 . S
C1964 C1968 1.368 . S
C1965 C1946 1.429 . S
C1965 C1959 1.429 . S
C1965 C1966 1.523 . S
C1966 C1947 1.368 . S
C1966 C1960 1.368 . S
C1966 C1965 1.523 . S
C1967 C1951 1.429 . S
C1967 C1963 1.429 . S
C1967 C1968 1.523 . S
C1968 C1952 1.368 . S
C1968 C1964 1.368 . S
C1968 C1967 1.523 . S
H1969 C1944 0.950 . S
H1970 C1946 0.950 . S
H1971 C1947 0.949 . S
H1972 C1949 0.950 . S
H1973 C1951 0.950 . S
C1974 C1975 1.349 . S
C1974 C1976 1.327 . S
C1974 H1999 0.950 . S
C1975 C1974 1.349 . S
C1975 C1991 1.349 . S
C1976 C1974 1.327 . S
C1976 C1995 1.429 . S
C1976 H2000 0.950 . S
C1977 C1994 1.574 . S
C1977 C1996 1.368 . S
C1977 H2001 0.949 . S
H1978 C1982 0.949 . S
C1979 C1980 1.349 . S
C1979 C1981 1.327 . S
C1979 H2002 0.950 1_556 S
C1980 C1979 1.349 . S
C1980 C1992 1.349 . S
C1981 C1979 1.327 . S
C1981 C1997 1.429 . S
C1981 H2003 0.950 . S
C1982 H1978 0.949 . S
C1982 C1990 1.574 . S
C1982 C1998 1.368 . S
H1983 C1991 0.950 . S
H1984 C1989 0.950 . S
H1985 C1990 0.949 . S
H1986 C1992 0.950 . S
H1987 C1993 0.950 . S
H1988 C1994 0.949 . S
C1989 H1984 0.950 . S
C1989 C1991 1.327 . S
C1989 C1995 1.429 . S
C1990 C1982 1.574 . S
C1990 H1985 0.949 . S
C1990 C1996 1.368 . S
C1991 C1975 1.349 . S
C1991 H1983 0.950 . S
C1991 C1989 1.327 . S
C1992 C1980 1.349 . S
C1992 H1986 0.950 . S
C1992 C1993 1.327 . S
C1993 H1987 0.950 . S
C1993 C1992 1.327 . S
C1993 C1997 1.429 . S
C1994 C1977 1.574 . S
C1994 H1988 0.949 . S
C1994 C1998 1.368 . S
C1995 C1976 1.429 . S
C1995 C1989 1.429 . S
C1995 C1996 1.523 . S
C1996 C1977 1.368 . S
C1996 C1990 1.368 . S
C1996 C1995 1.523 . S
C1997 C1981 1.429 . S
C1997 C1993 1.429 . S
C1997 C1998 1.523 . S
C1998 C1982 1.368 . S
C1998 C1994 1.368 . S
C1998 C1997 1.523 . S
H1999 C1974 0.950 . S
H2000 C1976 0.950 . S
H2001 C1977 0.949 . S
H2002 C1979 0.950 1_554 S
H2003 C1981 0.950 . S
C2004 C2005 1.349 . S
C2004 C2006 1.327 . S
C2004 H2029 0.960 . S
C2005 C2004 1.349 . S
C2005 C2021 1.349 . S
C2006 C2004 1.327 . S
C2006 C2025 1.429 . S
C2006 H2030 0.950 . S
C2007 C2024 1.574 . S
C2007 C2026 1.368 . S
C2007 H2031 0.949 . S
H2008 C2012 0.949 . S
C2009 C2010 1.349 . S
C2009 C2011 1.327 . S
C2009 H2032 0.950 . S
C2010 C2009 1.349 . S
C2010 C2022 1.349 . S
C2011 C2009 1.327 . S
C2011 C2027 1.429 . S
C2011 H2033 0.950 . S
C2012 H2008 0.949 . S
C2012 C2020 1.574 . S
C2012 C2028 1.368 . S
H2013 C2021 0.950 . S
H2014 C2019 0.950 . S
H2015 C2020 0.949 . S
H2016 C2022 0.950 . S
H2017 C2023 0.950 . S
H2018 C2024 0.949 . S
C2019 H2014 0.950 . S
C2019 C2021 1.327 . S
C2019 C2025 1.429 . S
C2020 C2012 1.574 . S
C2020 H2015 0.949 . S
C2020 C2026 1.368 . S
C2021 C2005 1.349 . S
C2021 H2013 0.950 . S
C2021 C2019 1.327 . S
C2022 C2010 1.349 . S
C2022 H2016 0.950 . S
C2022 C2023 1.327 . S
C2023 H2017 0.950 . S
C2023 C2022 1.327 . S
C2023 C2027 1.429 . S
C2024 C2007 1.574 . S
C2024 H2018 0.949 . S
C2024 C2028 1.368 . S
C2025 C2006 1.429 . S
C2025 C2019 1.429 . S
C2025 C2026 1.523 . S
C2026 C2007 1.368 . S
C2026 C2020 1.368 . S
C2026 C2025 1.523 . S
C2027 C2011 1.429 . S
C2027 C2023 1.429 . S
C2027 C2028 1.523 . S
C2028 C2012 1.368 . S
C2028 C2024 1.368 . S
C2028 C2027 1.523 . S
H2029 C2004 0.960 . S
H2030 C2006 0.950 . S
H2031 C2007 0.949 . S
H2032 C2009 0.950 . S
H2033 C2011 0.950 . S
C2034 C2035 1.349 . S
C2034 C2036 1.327 . S
C2034 H2059 0.950 . S
C2035 C2034 1.349 . S
C2035 C2051 1.349 . S
C2036 C2034 1.327 . S
C2036 C2055 1.429 . S
C2036 H2060 0.950 . S
C2037 C2054 1.574 . S
C2037 C2056 1.368 . S
C2037 H2061 0.949 . S
H2038 C2042 0.949 . S
C2039 C2040 1.349 . S
C2039 C2041 1.327 . S
C2039 H2062 0.950 . S
C2040 C2039 1.349 . S
C2040 C2052 1.349 . S
C2041 C2039 1.327 . S
C2041 C2057 1.429 . S
C2041 H2063 0.950 . S
C2042 H2038 0.949 . S
C2042 C2050 1.574 . S
C2042 C2058 1.368 . S
H2043 C2051 0.950 . S
H2044 C2049 0.950 . S
H2045 C2050 0.949 . S
H2046 C2052 0.950 . S
H2047 C2053 0.950 . S
H2048 C2054 0.949 . S
C2049 H2044 0.950 . S
C2049 C2051 1.327 . S
C2049 C2055 1.429 . S
C2050 C2042 1.574 . S
C2050 H2045 0.949 . S
C2050 C2056 1.368 . S
C2051 C2035 1.349 . S
C2051 H2043 0.950 . S
C2051 C2049 1.327 . S
C2052 C2040 1.349 . S
C2052 H2046 0.950 . S
C2052 C2053 1.327 . S
C2053 H2047 0.950 . S
C2053 C2052 1.327 . S
C2053 C2057 1.429 . S
C2054 C2037 1.574 . S
C2054 H2048 0.949 . S
C2054 C2058 1.368 . S
C2055 C2036 1.429 . S
C2055 C2049 1.429 . S
C2055 C2056 1.523 . S
C2056 C2037 1.368 . S
C2056 C2050 1.368 . S
C2056 C2055 1.523 . S
C2057 C2041 1.429 . S
C2057 C2053 1.429 . S
C2057 C2058 1.523 . S
C2058 C2042 1.368 . S
C2058 C2054 1.368 . S
C2058 C2057 1.523 . S
H2059 C2034 0.950 . S
H2060 C2036 0.950 . S
H2061 C2037 0.949 . S
H2062 C2039 0.950 . S
H2063 C2041 0.950 . S
C2064 C2065 1.349 . S
C2064 C2066 1.327 . S
C2064 H2089 0.950 . S
C2065 C2064 1.349 . S
C2065 C2081 1.349 . S
C2066 C2064 1.327 . S
C2066 C2085 1.429 . S
C2066 H2090 0.950 . S
C2067 C2084 1.574 . S
C2067 C2086 1.368 . S
C2067 H2091 0.949 . S
H2068 C2072 0.949 . S
C2069 C2070 1.349 . S
C2069 C2071 1.327 . S
C2069 H2092 0.950 . S
C2070 C2069 1.349 . S
C2070 C2082 1.349 . S
C2071 C2069 1.327 . S
C2071 C2087 1.429 . S
C2071 H2093 0.950 . S
C2072 H2068 0.949 . S
C2072 C2080 1.574 . S
C2072 C2088 1.368 . S
H2073 C2081 0.950 . S
H2074 C2079 0.950 . S
H2075 C2080 0.949 . S
H2076 C2082 0.950 . S
H2077 C2083 0.950 . S
H2078 C2084 0.949 . S
C2079 H2074 0.950 . S
C2079 C2081 1.327 . S
C2079 C2085 1.429 . S
C2080 C2072 1.574 . S
C2080 H2075 0.949 . S
C2080 C2086 1.368 . S
C2081 C2065 1.349 . S
C2081 H2073 0.950 . S
C2081 C2079 1.327 . S
C2082 C2070 1.349 . S
C2082 H2076 0.950 . S
C2082 C2083 1.327 . S
C2083 H2077 0.950 . S
C2083 C2082 1.327 . S
C2083 C2087 1.429 . S
C2084 C2067 1.574 . S
C2084 H2078 0.949 . S
C2084 C2088 1.368 . S
C2085 C2066 1.429 . S
C2085 C2079 1.429 . S
C2085 C2086 1.523 . S
C2086 C2067 1.368 . S
C2086 C2080 1.368 . S
C2086 C2085 1.523 . S
C2087 C2071 1.429 . S
C2087 C2083 1.429 . S
C2087 C2088 1.523 . S
C2088 C2072 1.368 . S
C2088 C2084 1.368 . S
C2088 C2087 1.523 . S
H2089 C2064 0.950 . S
H2090 C2066 0.950 . S
H2091 C2067 0.949 . S
H2092 C2069 0.950 . S
H2093 C2071 0.950 . S
C2094 C2095 1.349 . S
C2094 C2096 1.327 . S
C2094 H2119 0.950 . S
C2095 C2094 1.349 . S
C2095 C2111 1.349 . S
C2096 C2094 1.327 . S
C2096 C2115 1.429 . S
C2096 H2120 0.950 . S
C2097 C2114 1.574 . S
C2097 C2116 1.368 . S
C2097 H2121 0.949 . S
H2098 C2102 0.949 . S
C2099 C2100 1.349 . S
C2099 C2101 1.327 . S
C2099 H2122 0.950 . S
C2100 C2099 1.349 . S
C2100 C2112 1.349 . S
C2101 C2099 1.327 . S
C2101 C2117 1.429 . S
C2101 H2123 0.950 . S
C2102 H2098 0.949 . S
C2102 C2110 1.574 . S
C2102 C2118 1.368 . S
H2103 C2111 0.950 . S
H2104 C2109 0.950 . S
H2105 C2110 0.949 . S
H2106 C2112 0.950 . S
H2107 C2113 0.950 . S
H2108 C2114 0.949 . S
C2109 H2104 0.950 . S
C2109 C2111 1.327 . S
C2109 C2115 1.429 . S
C2110 C2102 1.574 . S
C2110 H2105 0.949 . S
C2110 C2116 1.368 . S
C2111 C2095 1.349 . S
C2111 H2103 0.950 . S
C2111 C2109 1.327 . S
C2112 C2100 1.349 . S
C2112 H2106 0.950 . S
C2112 C2113 1.327 . S
C2113 H2107 0.950 . S
C2113 C2112 1.327 . S
C2113 C2117 1.429 . S
C2114 C2097 1.574 . S
C2114 H2108 0.949 . S
C2114 C2118 1.368 . S
C2115 C2096 1.429 . S
C2115 C2109 1.429 . S
C2115 C2116 1.523 . S
C2116 C2097 1.368 . S
C2116 C2110 1.368 . S
C2116 C2115 1.523 . S
C2117 C2101 1.429 . S
C2117 C2113 1.429 . S
C2117 C2118 1.523 . S
C2118 C2102 1.368 . S
C2118 C2114 1.368 . S
C2118 C2117 1.523 . S
H2119 C2094 0.950 . S
H2120 C2096 0.950 . S
H2121 C2097 0.949 . S
H2122 C2099 0.950 . S
H2123 C2101 0.950 . S
C2124 C2125 1.349 . S
C2124 C2126 1.327 . S
C2124 H2149 0.950 . S
C2125 C2124 1.349 . S
C2125 C2141 1.349 . S
C2126 C2124 1.327 . S
C2126 C2145 1.429 . S
C2126 H2150 0.950 . S
C2127 C2144 1.574 . S
C2127 C2146 1.368 . S
C2127 H2151 0.949 . S
H2128 C2132 0.949 . S
C2129 C2130 1.349 . S
C2129 C2131 1.327 . S
C2129 H2152 0.950 . S
C2130 C2129 1.349 . S
C2130 C2142 1.349 . S
C2131 C2129 1.327 . S
C2131 C2147 1.429 . S
C2131 H2153 0.950 . S
C2132 H2128 0.949 . S
C2132 C2140 1.574 . S
C2132 C2148 1.368 . S
H2133 C2141 0.950 . S
H2134 C2139 0.950 . S
H2135 C2140 0.949 . S
H2136 C2142 0.950 . S
H2137 C2143 0.950 . S
H2138 C2144 0.949 . S
C2139 H2134 0.950 . S
C2139 C2141 1.327 . S
C2139 C2145 1.429 . S
C2140 C2132 1.574 . S
C2140 H2135 0.949 . S
C2140 C2146 1.368 . S
C2141 C2125 1.349 . S
C2141 H2133 0.950 . S
C2141 C2139 1.327 . S
C2142 C2130 1.349 . S
C2142 H2136 0.950 . S
C2142 C2143 1.327 . S
C2143 H2137 0.950 . S
C2143 C2142 1.327 . S
C2143 C2147 1.429 . S
C2144 C2127 1.574 . S
C2144 H2138 0.949 . S
C2144 C2148 1.368 . S
C2145 C2126 1.429 . S
C2145 C2139 1.429 . S
C2145 C2146 1.523 . S
C2146 C2127 1.368 . S
C2146 C2140 1.368 . S
C2146 C2145 1.523 . S
C2147 C2131 1.429 . S
C2147 C2143 1.429 . S
C2147 C2148 1.523 . S
C2148 C2132 1.368 . S
C2148 C2144 1.368 . S
C2148 C2147 1.523 . S
H2149 C2124 0.950 . S
H2150 C2126 0.950 . S
H2151 C2127 0.949 . S
H2152 C2129 0.950 . S
H2153 C2131 0.950 . S
C2154 C2155 1.349 . S
C2154 C2156 1.327 . S
C2154 H2179 0.950 . S
C2155 C2154 1.349 . S
C2155 C2171 1.349 . S
C2156 C2154 1.327 . S
C2156 C2175 1.429 . S
C2156 H2180 0.950 . S
C2157 C2174 1.574 . S
C2157 C2176 1.368 . S
C2157 H2181 0.949 . S
H2158 C2162 0.949 . S
C2159 C2160 1.349 . S
C2159 C2161 1.327 . S
C2159 H2182 0.950 . S
C2160 C2159 1.349 . S
C2160 C2172 1.349 . S
C2161 C2159 1.327 . S
C2161 C2177 1.429 . S
C2161 H2183 0.950 . S
C2162 H2158 0.949 . S
C2162 C2170 1.574 . S
C2162 C2178 1.368 . S
H2163 C2171 0.950 . S
H2164 C2169 0.950 . S
H2165 C2170 0.949 . S
H2166 C2172 0.950 . S
H2167 C2173 0.950 . S
H2168 C2174 0.949 . S
C2169 H2164 0.950 . S
C2169 C2171 1.327 . S
C2169 C2175 1.429 . S
C2170 C2162 1.574 . S
C2170 H2165 0.949 . S
C2170 C2176 1.368 . S
C2171 C2155 1.349 . S
C2171 H2163 0.950 . S
C2171 C2169 1.327 . S
C2172 C2160 1.349 . S
C2172 H2166 0.950 . S
C2172 C2173 1.327 . S
C2173 H2167 0.950 . S
C2173 C2172 1.327 . S
C2173 C2177 1.429 . S
C2174 C2157 1.574 . S
C2174 H2168 0.949 . S
C2174 C2178 1.368 . S
C2175 C2156 1.429 . S
C2175 C2169 1.429 . S
C2175 C2176 1.523 . S
C2176 C2157 1.368 . S
C2176 C2170 1.368 . S
C2176 C2175 1.523 . S
C2177 C2161 1.429 . S
C2177 C2173 1.429 . S
C2177 C2178 1.523 . S
C2178 C2162 1.368 . S
C2178 C2174 1.368 . S
C2178 C2177 1.523 . S
H2179 C2154 0.950 . S
H2180 C2156 0.950 . S
H2181 C2157 0.949 . S
H2182 C2159 0.950 . S
H2183 C2161 0.950 . S
C2184 C2185 1.349 . S
C2184 C2186 1.327 . S
C2184 H2209 0.950 . S
C2185 C2184 1.349 . S
C2185 C2201 1.349 . S
C2186 C2184 1.327 . S
C2186 C2205 1.429 . S
C2186 H2210 0.950 . S
C2187 C2204 1.574 . S
C2187 C2206 1.368 . S
C2187 H2211 0.949 . S
H2188 C2192 0.949 . S
C2189 C2190 1.349 . S
C2189 C2191 1.327 . S
C2189 H2212 0.950 . S
C2190 C2189 1.349 . S
C2190 C2202 1.349 . S
C2191 C2189 1.327 . S
C2191 C2207 1.429 . S
C2191 H2213 0.950 . S
C2192 H2188 0.949 . S
C2192 C2200 1.574 . S
C2192 C2208 1.368 . S
H2193 C2201 0.950 . S
H2194 C2199 0.950 . S
H2195 C2200 0.949 . S
H2196 C2202 0.950 . S
H2197 C2203 0.950 . S
H2198 C2204 0.949 . S
C2199 H2194 0.950 . S
C2199 C2201 1.327 . S
C2199 C2205 1.429 . S
C2200 C2192 1.574 . S
C2200 H2195 0.949 . S
C2200 C2206 1.368 . S
C2201 C2185 1.349 . S
C2201 H2193 0.950 . S
C2201 C2199 1.327 . S
C2202 C2190 1.349 . S
C2202 H2196 0.950 . S
C2202 C2203 1.327 . S
C2203 H2197 0.950 . S
C2203 C2202 1.327 . S
C2203 C2207 1.429 . S
C2204 C2187 1.574 . S
C2204 H2198 0.949 . S
C2204 C2208 1.368 . S
C2205 C2186 1.429 . S
C2205 C2199 1.429 . S
C2205 C2206 1.523 . S
C2206 C2187 1.368 . S
C2206 C2200 1.368 . S
C2206 C2205 1.523 . S
C2207 C2191 1.429 . S
C2207 C2203 1.429 . S
C2207 C2208 1.523 . S
C2208 C2192 1.368 . S
C2208 C2204 1.368 . S
C2208 C2207 1.523 . S
H2209 C2184 0.950 . S
H2210 C2186 0.950 . S
H2211 C2187 0.949 . S
H2212 C2189 0.950 . S
H2213 C2191 0.950 . S
C2214 C2215 1.349 . S
C2214 C2216 1.327 . S
C2214 H2239 0.950 . S
C2215 C2214 1.349 . S
C2215 C2231 1.349 . S
C2216 C2214 1.327 . S
C2216 C2235 1.429 . S
C2216 H2240 0.950 . S
C2217 C2234 1.574 . S
C2217 C2236 1.368 . S
C2217 H2241 0.949 . S
H2218 C2222 0.949 . S
C2219 C2220 1.349 . S
C2219 C2221 1.327 . S
C2219 H2242 0.950 . S
C2220 C2219 1.349 . S
C2220 C2232 1.349 . S
C2221 C2219 1.327 . S
C2221 C2237 1.429 . S
C2221 H2243 0.950 . S
C2222 H2218 0.949 . S
C2222 C2230 1.574 . S
C2222 C2238 1.368 . S
H2223 C2231 0.950 . S
H2224 C2229 0.950 . S
H2225 C2230 0.949 . S
H2226 C2232 0.950 . S
H2227 C2233 0.950 . S
H2228 C2234 0.949 . S
C2229 H2224 0.950 . S
C2229 C2231 1.327 . S
C2229 C2235 1.429 . S
C2230 C2222 1.574 . S
C2230 H2225 0.949 . S
C2230 C2236 1.368 . S
C2231 C2215 1.349 . S
C2231 H2223 0.950 . S
C2231 C2229 1.327 . S
C2232 C2220 1.349 . S
C2232 H2226 0.950 . S
C2232 C2233 1.327 . S
C2233 H2227 0.950 . S
C2233 C2232 1.327 . S
C2233 C2237 1.429 . S
C2234 C2217 1.574 . S
C2234 H2228 0.949 . S
C2234 C2238 1.368 . S
C2235 C2216 1.429 . S
C2235 C2229 1.429 . S
C2235 C2236 1.523 . S
C2236 C2217 1.368 . S
C2236 C2230 1.368 . S
C2236 C2235 1.523 . S
C2237 C2221 1.429 . S
C2237 C2233 1.429 . S
C2237 C2238 1.523 . S
C2238 C2222 1.368 . S
C2238 C2234 1.368 . S
C2238 C2237 1.523 . S
H2239 C2214 0.950 . S
H2240 C2216 0.950 . S
H2241 C2217 0.949 . S
H2242 C2219 0.950 . S
H2243 C2221 0.950 . S
C2244 C2245 1.349 . S
C2244 C2246 1.327 . S
C2244 H2269 0.950 . S
C2245 C2244 1.349 . S
C2245 C2261 1.349 . S
C2246 C2244 1.327 . S
C2246 C2265 1.429 . S
C2246 H2270 0.950 . S
C2247 C2264 1.574 . S
C2247 C2266 1.368 . S
C2247 H2271 0.949 . S
H2248 C2252 0.949 . S
C2249 C2250 1.349 . S
C2249 C2251 1.327 . S
C2249 H2272 0.950 . S
C2250 C2249 1.349 . S
C2250 C2262 1.349 . S
C2251 C2249 1.327 . S
C2251 C2267 1.429 . S
C2251 H2273 0.950 . S
C2252 H2248 0.949 . S
C2252 C2260 1.574 . S
C2252 C2268 1.368 . S
H2253 C2261 0.950 . S
H2254 C2259 0.950 . S
H2255 C2260 0.949 . S
H2256 C2262 0.950 . S
H2257 C2263 0.950 . S
H2258 C2264 0.949 . S
C2259 H2254 0.950 . S
C2259 C2261 1.327 . S
C2259 C2265 1.429 . S
C2260 C2252 1.574 . S
C2260 H2255 0.949 . S
C2260 C2266 1.368 . S
C2261 C2245 1.349 . S
C2261 H2253 0.950 . S
C2261 C2259 1.327 . S
C2262 C2250 1.349 . S
C2262 H2256 0.950 . S
C2262 C2263 1.327 . S
C2263 H2257 0.950 . S
C2263 C2262 1.327 . S
C2263 C2267 1.429 . S
C2264 C2247 1.574 . S
C2264 H2258 0.949 . S
C2264 C2268 1.368 . S
C2265 C2246 1.429 . S
C2265 C2259 1.429 . S
C2265 C2266 1.523 . S
C2266 C2247 1.368 . S
C2266 C2260 1.368 . S
C2266 C2265 1.523 . S
C2267 C2251 1.429 . S
C2267 C2263 1.429 . S
C2267 C2268 1.523 . S
C2268 C2252 1.368 . S
C2268 C2264 1.368 . S
C2268 C2267 1.523 . S
H2269 C2244 0.950 . S
H2270 C2246 0.950 . S
H2271 C2247 0.949 . S
H2272 C2249 0.950 . S
H2273 C2251 0.950 . S
C2274 C2275 1.349 . S
C2274 C2276 1.327 . S
C2274 H2299 0.950 . S
C2275 C2274 1.349 . S
C2275 C2291 1.349 . S
C2276 C2274 1.327 . S
C2276 C2295 1.429 . S
C2276 H2300 0.950 . S
C2277 C2294 1.574 . S
C2277 C2296 1.368 . S
C2277 H2301 0.949 . S
H2278 C2282 0.949 . S
C2279 C2280 1.349 . S
C2279 C2281 1.327 . S
C2279 H2302 0.950 . S
C2280 C2279 1.349 . S
C2280 C2292 1.349 . S
C2281 C2279 1.327 . S
C2281 C2297 1.429 . S
C2281 H2303 0.950 . S
C2282 H2278 0.949 . S
C2282 C2290 1.574 . S
C2282 C2298 1.368 . S
H2283 C2291 0.950 . S
H2284 C2289 0.950 . S
H2285 C2290 0.949 . S
H2286 C2292 0.950 . S
H2287 C2293 0.950 . S
H2288 C2294 0.949 . S
C2289 H2284 0.950 . S
C2289 C2291 1.327 . S
C2289 C2295 1.429 . S
C2290 C2282 1.574 . S
C2290 H2285 0.949 . S
C2290 C2296 1.368 . S
C2291 C2275 1.349 . S
C2291 H2283 0.950 . S
C2291 C2289 1.327 . S
C2292 C2280 1.349 . S
C2292 H2286 0.950 . S
C2292 C2293 1.327 . S
C2293 H2287 0.950 . S
C2293 C2292 1.327 . S
C2293 C2297 1.429 . S
C2294 C2277 1.574 . S
C2294 H2288 0.949 . S
C2294 C2298 1.368 . S
C2295 C2276 1.429 . S
C2295 C2289 1.429 . S
C2295 C2296 1.523 . S
C2296 C2277 1.368 . S
C2296 C2290 1.368 . S
C2296 C2295 1.523 . S
C2297 C2281 1.429 . S
C2297 C2293 1.429 . S
C2297 C2298 1.523 . S
C2298 C2282 1.368 . S
C2298 C2294 1.368 . S
C2298 C2297 1.523 . S
H2299 C2274 0.950 . S
H2300 C2276 0.950 . S
H2301 C2277 0.949 . S
H2302 C2279 0.950 . S
H2303 C2281 0.950 . S
C2304 C2305 1.349 . S
C2304 C2306 1.327 . S
C2304 H2329 0.950 . S
C2305 C2304 1.349 . S
C2305 C2321 1.349 . S
C2306 C2304 1.327 . S
C2306 C2325 1.429 . S
C2306 H2330 0.950 . S
C2307 C2324 1.574 . S
C2307 C2326 1.368 . S
C2307 H2331 0.949 . S
H2308 C2312 0.949 . S
C2309 C2310 1.349 . S
C2309 C2311 1.327 . S
C2309 H2332 0.950 . S
C2310 C2309 1.349 . S
C2310 C2322 1.349 . S
C2311 C2309 1.327 . S
C2311 C2327 1.429 . S
C2311 H2333 0.950 . S
C2312 H2308 0.949 . S
C2312 C2320 1.574 . S
C2312 C2328 1.368 . S
H2313 C2321 0.950 . S
H2314 C2319 0.950 . S
H2315 C2320 0.949 . S
H2316 C2322 0.950 . S
H2317 C2323 0.950 . S
H2318 C2324 0.949 . S
C2319 H2314 0.950 . S
C2319 C2321 1.327 . S
C2319 C2325 1.429 . S
C2320 C2312 1.574 . S
C2320 H2315 0.949 . S
C2320 C2326 1.368 . S
C2321 C2305 1.349 . S
C2321 H2313 0.950 . S
C2321 C2319 1.327 . S
C2322 C2310 1.349 . S
C2322 H2316 0.950 . S
C2322 C2323 1.327 . S
C2323 H2317 0.950 . S
C2323 C2322 1.327 . S
C2323 C2327 1.429 . S
C2324 C2307 1.574 . S
C2324 H2318 0.949 . S
C2324 C2328 1.368 . S
C2325 C2306 1.429 . S
C2325 C2319 1.429 . S
C2325 C2326 1.523 . S
C2326 C2307 1.368 . S
C2326 C2320 1.368 . S
C2326 C2325 1.523 . S
C2327 C2311 1.429 . S
C2327 C2323 1.429 . S
C2327 C2328 1.523 . S
C2328 C2312 1.368 . S
C2328 C2324 1.368 . S
C2328 C2327 1.523 . S
H2329 C2304 0.950 . S
H2330 C2306 0.950 . S
H2331 C2307 0.949 . S
H2332 C2309 0.950 . S
H2333 C2311 0.950 . S
C2334 C2335 1.349 . S
C2334 C2336 1.327 . S
C2334 H2359 0.950 . S
C2335 C2334 1.349 . S
C2335 C2351 1.349 . S
C2336 C2334 1.327 . S
C2336 C2355 1.429 . S
C2336 H2360 0.950 . S
C2337 C2354 1.574 . S
C2337 C2356 1.368 . S
C2337 H2361 0.949 . S
H2338 C2342 0.949 . S
C2339 C2340 1.349 . S
C2339 C2341 1.327 . S
C2339 H2362 0.950 . S
C2340 C2339 1.349 . S
C2340 C2352 1.349 . S
C2341 C2339 1.327 . S
C2341 C2357 1.429 . S
C2341 H2363 0.950 . S
C2342 H2338 0.949 . S
C2342 C2350 1.574 . S
C2342 C2358 1.368 . S
H2343 C2351 0.950 . S
H2344 C2349 0.950 . S
H2345 C2350 0.949 . S
H2346 C2352 0.950 . S
H2347 C2353 0.950 . S
H2348 C2354 0.949 . S
C2349 H2344 0.950 . S
C2349 C2351 1.327 . S
C2349 C2355 1.429 . S
C2350 C2342 1.574 . S
C2350 H2345 0.949 . S
C2350 C2356 1.368 . S
C2351 C2335 1.349 . S
C2351 H2343 0.950 . S
C2351 C2349 1.327 . S
C2352 C2340 1.349 . S
C2352 H2346 0.950 . S
C2352 C2353 1.327 . S
C2353 H2347 0.950 . S
C2353 C2352 1.327 . S
C2353 C2357 1.429 . S
C2354 C2337 1.574 . S
C2354 H2348 0.949 . S
C2354 C2358 1.368 . S
C2355 C2336 1.429 . S
C2355 C2349 1.429 . S
C2355 C2356 1.523 . S
C2356 C2337 1.368 . S
C2356 C2350 1.368 . S
C2356 C2355 1.523 . S
C2357 C2341 1.429 . S
C2357 C2353 1.429 . S
C2357 C2358 1.523 . S
C2358 C2342 1.368 . S
C2358 C2354 1.368 . S
C2358 C2357 1.523 . S
H2359 C2334 0.950 . S
H2360 C2336 0.950 . S
H2361 C2337 0.949 . S
H2362 C2339 0.950 . S
H2363 C2341 0.950 . S
C2364 C2365 1.349 . S
C2364 C2366 1.327 . S
C2364 H2389 0.950 . S
C2365 C2364 1.349 . S
C2365 C2381 1.349 . S
C2366 C2364 1.327 . S
C2366 C2385 1.429 . S
C2366 H2390 0.950 . S
C2367 C2384 1.574 . S
C2367 C2386 1.368 . S
C2367 H2391 0.949 . S
H2368 C2372 0.949 . S
C2369 C2370 1.349 . S
C2369 C2371 1.327 . S
C2369 H2392 0.950 . S
C2370 C2369 1.349 . S
C2370 C2382 1.349 . S
C2371 C2369 1.327 . S
C2371 C2387 1.429 . S
C2371 H2393 0.950 . S
C2372 H2368 0.949 . S
C2372 C2380 1.574 . S
C2372 C2388 1.368 . S
H2373 C2381 0.950 . S
H2374 C2379 0.950 . S
H2375 C2380 0.949 . S
H2376 C2382 0.950 . S
H2377 C2383 0.950 . S
H2378 C2384 0.949 . S
C2379 H2374 0.950 . S
C2379 C2381 1.327 . S
C2379 C2385 1.429 . S
C2380 C2372 1.574 . S
C2380 H2375 0.949 . S
C2380 C2386 1.368 . S
C2381 C2365 1.349 . S
C2381 H2373 0.950 . S
C2381 C2379 1.327 . S
C2382 C2370 1.349 . S
C2382 H2376 0.950 . S
C2382 C2383 1.327 . S
C2383 H2377 0.950 . S
C2383 C2382 1.327 . S
C2383 C2387 1.429 . S
C2384 C2367 1.574 . S
C2384 H2378 0.949 . S
C2384 C2388 1.368 . S
C2385 C2366 1.429 . S
C2385 C2379 1.429 . S
C2385 C2386 1.523 . S
C2386 C2367 1.368 . S
C2386 C2380 1.368 . S
C2386 C2385 1.523 . S
C2387 C2371 1.429 . S
C2387 C2383 1.429 . S
C2387 C2388 1.523 . S
C2388 C2372 1.368 . S
C2388 C2384 1.368 . S
C2388 C2387 1.523 . S
H2389 C2364 0.950 . S
H2390 C2366 0.950 . S
H2391 C2367 0.949 . S
H2392 C2369 0.950 . S
H2393 C2371 0.950 . S
C2394 C2395 1.349 . S
C2394 C2396 1.327 . S
C2394 H2419 0.950 . S
C2395 C2394 1.349 . S
C2395 C2411 1.349 . S
C2396 C2394 1.327 . S
C2396 C2415 1.429 . S
C2396 H2420 0.950 . S
C2397 C2414 1.574 . S
C2397 C2416 1.368 . S
C2397 H2421 0.949 . S
H2398 C2402 0.949 . S
C2399 C2400 1.349 . S
C2399 C2401 1.327 . S
C2399 H2422 0.950 . S
C2400 C2399 1.349 . S
C2400 C2412 1.349 . S
C2401 C2399 1.327 . S
C2401 C2417 1.429 . S
C2401 H2423 0.950 . S
C2402 H2398 0.949 . S
C2402 C2410 1.574 . S
C2402 C2418 1.368 . S
H2403 C2411 0.950 . S
H2404 C2409 0.950 . S
H2405 C2410 0.949 . S
H2406 C2412 0.950 . S
H2407 C2413 0.950 . S
H2408 C2414 0.949 . S
C2409 H2404 0.950 . S
C2409 C2411 1.327 . S
C2409 C2415 1.429 . S
C2410 C2402 1.574 . S
C2410 H2405 0.949 . S
C2410 C2416 1.368 . S
C2411 C2395 1.349 . S
C2411 H2403 0.950 . S
C2411 C2409 1.327 . S
C2412 C2400 1.349 . S
C2412 H2406 0.950 . S
C2412 C2413 1.327 . S
C2413 H2407 0.950 . S
C2413 C2412 1.327 . S
C2413 C2417 1.429 . S
C2414 C2397 1.574 . S
C2414 H2408 0.949 . S
C2414 C2418 1.368 . S
C2415 C2396 1.429 . S
C2415 C2409 1.429 . S
C2415 C2416 1.523 . S
C2416 C2397 1.368 . S
C2416 C2410 1.368 . S
C2416 C2415 1.523 . S
C2417 C2401 1.429 . S
C2417 C2413 1.429 . S
C2417 C2418 1.523 . S
C2418 C2402 1.368 . S
C2418 C2414 1.368 . S
C2418 C2417 1.523 . S
H2419 C2394 0.950 . S
H2420 C2396 0.950 . S
H2421 C2397 0.949 . S
H2422 C2399 0.950 . S
H2423 C2401 0.950 . S
C2424 C2425 1.349 . S
C2424 C2426 1.327 . S
C2424 H2449 0.950 . S
C2425 C2424 1.349 . S
C2425 C2441 1.349 . S
C2426 C2424 1.327 . S
C2426 C2445 1.429 . S
C2426 H2450 0.950 . S
C2427 C2444 1.574 . S
C2427 C2446 1.368 . S
C2427 H2451 0.949 . S
H2428 C2432 0.949 . S
C2429 C2430 1.349 . S
C2429 C2431 1.327 . S
C2429 H2452 0.950 . S
C2430 C2429 1.349 . S
C2430 C2442 1.349 . S
C2431 C2429 1.327 . S
C2431 C2447 1.429 . S
C2431 H2453 0.950 . S
C2432 H2428 0.949 . S
C2432 C2440 1.574 . S
C2432 C2448 1.368 . S
H2433 C2441 0.950 . S
H2434 C2439 0.950 . S
H2435 C2440 0.949 . S
H2436 C2442 0.950 . S
H2437 C2443 0.950 . S
H2438 C2444 0.949 . S
C2439 H2434 0.950 . S
C2439 C2441 1.327 . S
C2439 C2445 1.429 . S
C2440 C2432 1.574 . S
C2440 H2435 0.949 . S
C2440 C2446 1.368 . S
C2441 C2425 1.349 . S
C2441 H2433 0.950 . S
C2441 C2439 1.327 . S
C2442 C2430 1.349 . S
C2442 H2436 0.950 . S
C2442 C2443 1.327 . S
C2443 H2437 0.950 . S
C2443 C2442 1.327 . S
C2443 C2447 1.429 . S
C2444 C2427 1.574 . S
C2444 H2438 0.949 . S
C2444 C2448 1.368 . S
C2445 C2426 1.429 . S
C2445 C2439 1.429 . S
C2445 C2446 1.523 . S
C2446 C2427 1.368 . S
C2446 C2440 1.368 . S
C2446 C2445 1.523 . S
C2447 C2431 1.429 . S
C2447 C2443 1.429 . S
C2447 C2448 1.523 . S
C2448 C2432 1.368 . S
C2448 C2444 1.368 . S
C2448 C2447 1.523 . S
H2449 C2424 0.950 . S
H2450 C2426 0.950 . S
H2451 C2427 0.949 . S
H2452 C2429 0.950 . S
H2453 C2431 0.950 . S
C2454 C2455 1.349 . S
C2454 C2456 1.327 . S
C2454 H2479 0.950 . S
C2455 C2454 1.349 . S
C2455 C2471 1.349 . S
C2456 C2454 1.327 . S
C2456 C2475 1.429 . S
C2456 H2480 0.950 . S
C2457 C2474 1.574 . S
C2457 C2476 1.368 . S
C2457 H2481 0.949 . S
H2458 C2462 0.949 . S
C2459 C2460 1.349 . S
C2459 C2461 1.327 . S
C2459 H2482 0.950 . S
C2460 C2459 1.349 . S
C2460 C2472 1.349 . S
C2461 C2459 1.327 . S
C2461 C2477 1.429 . S
C2461 H2483 0.950 . S
C2462 H2458 0.949 . S
C2462 C2470 1.574 . S
C2462 C2478 1.368 . S
H2463 C2471 0.950 . S
H2464 C2469 0.950 . S
H2465 C2470 0.949 . S
H2466 C2472 0.950 . S
H2467 C2473 0.950 . S
H2468 C2474 0.949 . S
C2469 H2464 0.950 . S
C2469 C2471 1.327 . S
C2469 C2475 1.429 . S
C2470 C2462 1.574 . S
C2470 H2465 0.949 . S
C2470 C2476 1.368 . S
C2471 C2455 1.349 . S
C2471 H2463 0.950 . S
C2471 C2469 1.327 . S
C2472 C2460 1.349 . S
C2472 H2466 0.950 . S
C2472 C2473 1.327 . S
C2473 H2467 0.950 . S
C2473 C2472 1.327 . S
C2473 C2477 1.429 . S
C2474 C2457 1.574 . S
C2474 H2468 0.949 . S
C2474 C2478 1.368 . S
C2475 C2456 1.429 . S
C2475 C2469 1.429 . S
C2475 C2476 1.523 . S
C2476 C2457 1.368 . S
C2476 C2470 1.368 . S
C2476 C2475 1.523 . S
C2477 C2461 1.429 . S
C2477 C2473 1.429 . S
C2477 C2478 1.523 . S
C2478 C2462 1.368 . S
C2478 C2474 1.368 . S
C2478 C2477 1.523 . S
H2479 C2454 0.950 . S
H2480 C2456 0.950 . S
H2481 C2457 0.949 . S
H2482 C2459 0.950 . S
H2483 C2461 0.950 . S
C2484 C2485 1.349 . S
C2484 C2486 1.327 . S
C2484 H2509 0.950 . S
C2485 C2484 1.349 . S
C2485 C2501 1.349 . S
C2486 C2484 1.327 . S
C2486 C2505 1.429 . S
C2486 H2510 0.950 . S
C2487 C2504 1.574 1_455 S
C2487 C2506 1.368 . S
C2487 H2511 0.949 . S
H2488 C2492 0.949 . S
C2489 C2490 1.349 . S
C2489 C2491 1.327 . S
C2489 H2512 0.950 . S
C2490 C2489 1.349 . S
C2490 C2502 1.349 . S
C2491 C2489 1.327 . S
C2491 C2507 1.429 . S
C2491 H2513 0.950 . S
C2492 H2488 0.949 . S
C2492 C2500 1.574 1_655 S
C2492 C2508 1.368 . S
H2493 C2501 0.950 . S
H2494 C2499 0.950 . S
H2495 C2500 0.949 . S
H2496 C2502 0.950 . S
H2497 C2503 0.950 . S
H2498 C2504 0.949 . S
C2499 H2494 0.950 . S
C2499 C2501 1.327 . S
C2499 C2505 1.429 . S
C2500 C2492 1.574 1_455 S
C2500 H2495 0.949 . S
C2500 C2506 1.368 . S
C2501 C2485 1.349 . S
C2501 H2493 0.950 . S
C2501 C2499 1.327 . S
C2502 C2490 1.349 . S
C2502 H2496 0.950 . S
C2502 C2503 1.327 . S
C2503 H2497 0.950 . S
C2503 C2502 1.327 . S
C2503 C2507 1.429 . S
C2504 C2487 1.574 1_655 S
C2504 H2498 0.949 . S
C2504 C2508 1.368 . S
C2505 C2486 1.429 . S
C2505 C2499 1.429 . S
C2505 C2506 1.523 . S
C2506 C2487 1.368 . S
C2506 C2500 1.368 . S
C2506 C2505 1.523 . S
C2507 C2491 1.429 . S
C2507 C2503 1.429 . S
C2507 C2508 1.523 . S
C2508 C2492 1.368 . S
C2508 C2504 1.368 . S
C2508 C2507 1.523 . S
H2509 C2484 0.950 . S
H2510 C2486 0.950 . S
H2511 C2487 0.949 . S
H2512 C2489 0.950 . S
H2513 C2491 0.950 . S
C2514 C2515 1.349 . S
C2514 C2516 1.327 . S
C2514 H2539 0.950 . S
C2515 C2514 1.349 . S
C2515 C2531 1.349 . S
C2516 C2514 1.327 . S
C2516 C2535 1.429 . S
C2516 H2540 0.950 . S
C2517 C2534 1.574 . S
C2517 C2536 1.368 . S
C2517 H2541 0.949 . S
H2518 C2522 0.949 . S
C2519 C2520 1.349 . S
C2519 C2521 1.327 . S
C2519 H2542 0.950 . S
C2520 C2519 1.349 . S
C2520 C2532 1.349 . S
C2521 C2519 1.327 . S
C2521 C2537 1.429 . S
C2521 H2543 0.950 . S
C2522 H2518 0.949 . S
C2522 C2530 1.574 . S
C2522 C2538 1.368 . S
H2523 C2531 0.950 . S
H2524 C2529 0.950 . S
H2525 C2530 0.949 . S
H2526 C2532 0.950 . S
H2527 C2533 0.950 . S
H2528 C2534 0.949 . S
C2529 H2524 0.950 . S
C2529 C2531 1.327 . S
C2529 C2535 1.429 . S
C2530 C2522 1.574 . S
C2530 H2525 0.949 . S
C2530 C2536 1.368 . S
C2531 C2515 1.349 . S
C2531 H2523 0.950 . S
C2531 C2529 1.327 . S
C2532 C2520 1.349 . S
C2532 H2526 0.950 . S
C2532 C2533 1.327 . S
C2533 H2527 0.950 . S
C2533 C2532 1.327 . S
C2533 C2537 1.429 . S
C2534 C2517 1.574 . S
C2534 H2528 0.949 . S
C2534 C2538 1.368 . S
C2535 C2516 1.429 . S
C2535 C2529 1.429 . S
C2535 C2536 1.523 . S
C2536 C2517 1.368 . S
C2536 C2530 1.368 . S
C2536 C2535 1.523 . S
C2537 C2521 1.429 . S
C2537 C2533 1.429 . S
C2537 C2538 1.523 . S
C2538 C2522 1.368 . S
C2538 C2534 1.368 . S
C2538 C2537 1.523 . S
H2539 C2514 0.950 . S
H2540 C2516 0.950 . S
H2541 C2517 0.949 . S
H2542 C2519 0.950 . S
H2543 C2521 0.950 . S
C2544 C2545 1.349 . S
C2544 C2546 1.327 . S
C2544 H2569 0.950 . S
C2545 C2544 1.349 . S
C2545 C2561 1.349 . S
C2546 C2544 1.327 . S
C2546 C2565 1.429 . S
C2546 H2570 0.950 . S
C2547 C2564 1.574 1_545 S
C2547 C2566 1.368 . S
C2547 H2571 0.949 . S
H2548 C2552 0.949 . S
C2549 C2550 1.349 . S
C2549 C2551 1.327 . S
C2549 H2572 0.950 . S
C2550 C2549 1.349 . S
C2550 C2562 1.349 . S
C2551 C2549 1.327 . S
C2551 C2567 1.429 . S
C2551 H2573 0.950 . S
C2552 H2548 0.949 . S
C2552 C2560 1.574 1_565 S
C2552 C2568 1.368 . S
H2553 C2561 0.950 . S
H2554 C2559 0.950 . S
H2555 C2560 0.949 . S
H2556 C2562 0.950 . S
H2557 C2563 0.950 . S
H2558 C2564 0.949 . S
C2559 H2554 0.950 . S
C2559 C2561 1.327 . S
C2559 C2565 1.429 . S
C2560 C2552 1.574 1_545 S
C2560 H2555 0.949 . S
C2560 C2566 1.368 . S
C2561 C2545 1.349 . S
C2561 H2553 0.950 . S
C2561 C2559 1.327 . S
C2562 C2550 1.349 . S
C2562 H2556 0.950 . S
C2562 C2563 1.327 . S
C2563 H2557 0.950 . S
C2563 C2562 1.327 . S
C2563 C2567 1.429 . S
C2564 C2547 1.574 1_565 S
C2564 H2558 0.949 . S
C2564 C2568 1.368 . S
C2565 C2546 1.429 . S
C2565 C2559 1.429 . S
C2565 C2566 1.523 . S
C2566 C2547 1.368 . S
C2566 C2560 1.368 . S
C2566 C2565 1.523 . S
C2567 C2551 1.429 . S
C2567 C2563 1.429 . S
C2567 C2568 1.523 . S
C2568 C2552 1.368 . S
C2568 C2564 1.368 . S
C2568 C2567 1.523 . S
H2569 C2544 0.950 . S
H2570 C2546 0.950 . S
H2571 C2547 0.949 . S
H2572 C2549 0.950 . S
H2573 C2551 0.950 . S
C2574 C2575 1.349 . S
C2574 C2576 1.327 . S
C2574 H2599 0.950 . S
C2575 C2574 1.349 . S
C2575 C2591 1.349 . S
C2576 C2574 1.327 . S
C2576 C2595 1.429 . S
C2576 H2600 0.950 . S
C2577 C2594 1.574 1_545 S
C2577 C2596 1.368 1_554 S
C2577 H2601 0.949 . S
H2578 C2582 0.949 . S
C2579 C2580 1.349 . S
C2579 C2581 1.327 . S
C2579 H2602 0.950 . S
C2580 C2579 1.349 . S
C2580 C2592 1.349 . S
C2581 C2579 1.327 . S
C2581 C2597 1.429 . S
C2581 H2603 0.950 . S
C2582 H2578 0.949 . S
C2582 C2590 1.574 1_565 S
C2582 C2598 1.368 1_556 S
H2583 C2591 0.950 1_554 S
H2584 C2589 0.987 . S
H2585 C2590 0.949 . S
H2586 C2592 0.950 1_556 S
H2587 C2593 0.987 . S
H2588 C2594 0.949 . S
C2589 H2584 0.987 . S
C2589 C2591 1.315 1_554 S
C2589 C2595 1.405 1_554 S
C2590 C2582 1.574 1_545 S
C2590 H2585 0.949 . S
C2590 C2596 1.368 . S
C2591 C2575 1.349 . S
C2591 H2583 0.950 1_556 S
C2591 C2589 1.315 1_556 S
C2592 C2580 1.349 . S
C2592 H2586 0.950 1_554 S
C2592 C2593 1.315 1_554 S
C2593 H2587 0.987 . S
C2593 C2592 1.315 1_556 S
C2593 C2597 1.405 1_556 S
C2594 C2577 1.574 1_565 S
C2594 H2588 0.949 . S
C2594 C2598 1.368 . S
C2595 C2576 1.429 . S
C2595 C2589 1.405 1_556 S
C2595 C2596 1.523 . S
C2596 C2577 1.368 1_556 S
C2596 C2590 1.368 . S
C2596 C2595 1.523 . S
C2597 C2581 1.429 . S
C2597 C2593 1.405 1_554 S
C2597 C2598 1.523 . S
C2598 C2582 1.368 1_554 S
C2598 C2594 1.368 . S
C2598 C2597 1.523 . S
H2599 C2574 0.950 . S
H2600 C2576 0.950 . S
H2601 C2577 0.949 . S
H2602 C2579 0.950 . S
H2603 C2581 0.950 . S
C2604 C2605 1.349 . S
C2604 C2606 1.327 . S
C2604 H2629 0.936 1_556 S
C2605 C2604 1.349 . S
C2605 C2621 1.349 . S
C2606 C2604 1.327 . S
C2606 C2625 1.429 . S
C2606 H2630 0.950 1_556 S
C2607 C2624 1.574 1_655 S
C2607 C2626 1.368 . S
C2607 H2631 0.949 . S
H2608 C2612 0.949 . S
C2609 C2610 1.349 . S
C2609 C2611 1.327 . S
C2609 H2632 0.936 1_554 S
C2610 C2609 1.349 . S
C2610 C2622 1.349 . S
C2611 C2609 1.327 . S
C2611 C2627 1.429 . S
C2611 H2633 0.950 1_554 S
C2612 H2608 0.949 . S
C2612 C2620 1.574 1_455 S
C2612 C2628 1.368 . S
H2613 C2621 0.950 . S
H2614 C2619 0.950 . S
H2615 C2620 0.949 . S
H2616 C2622 0.950 . S
H2617 C2623 0.950 . S
H2618 C2624 0.949 . S
C2619 H2614 0.950 . S
C2619 C2621 1.327 . S
C2619 C2625 1.429 . S
C2620 C2612 1.574 1_655 S
C2620 H2615 0.949 . S
C2620 C2626 1.368 1_554 S
C2621 C2605 1.349 . S
C2621 H2613 0.950 . S
C2621 C2619 1.327 . S
C2622 C2610 1.349 . S
C2622 H2616 0.950 . S
C2622 C2623 1.327 . S
C2623 H2617 0.950 . S
C2623 C2622 1.327 . S
C2623 C2627 1.429 . S
C2624 C2607 1.574 1_455 S
C2624 H2618 0.949 . S
C2624 C2628 1.368 1_556 S
C2625 C2606 1.429 . S
C2625 C2619 1.429 . S
C2625 C2626 1.523 . S
C2626 C2607 1.368 . S
C2626 C2620 1.368 1_556 S
C2626 C2625 1.523 . S
C2627 C2611 1.429 . S
C2627 C2623 1.429 . S
C2627 C2628 1.523 . S
C2628 C2612 1.368 . S
C2628 C2624 1.368 1_554 S
C2628 C2627 1.523 . S
H2629 C2604 0.936 1_554 S
H2630 C2606 0.950 1_554 S
H2631 C2607 0.949 . S
H2632 C2609 0.936 1_556 S
H2633 C2611 0.950 1_556 S
C2634 C2635 1.349 . S
C2634 C2636 1.327 . S
C2634 H2659 0.950 . S
C2635 C2634 1.349 . S
C2635 C2651 1.349 . S
C2636 C2634 1.327 . S
C2636 C2655 1.429 . S
C2636 H2660 0.950 . S
C2637 C2654 1.574 . S
C2637 C2656 1.368 . S
C2637 H2661 0.949 . S
H2638 C2642 0.949 . S
C2639 C2640 1.349 . S
C2639 C2641 1.327 . S
C2639 H2662 0.950 . S
C2640 C2639 1.349 . S
C2640 C2652 1.349 . S
C2641 C2639 1.327 . S
C2641 C2657 1.429 . S
C2641 H2663 0.950 . S
C2642 H2638 0.949 . S
C2642 C2650 1.574 . S
C2642 C2658 1.368 . S
H2643 C2651 0.950 . S
H2644 C2649 0.950 . S
H2645 C2650 0.949 . S
H2646 C2652 0.950 . S
H2647 C2653 0.950 . S
H2648 C2654 0.949 . S
C2649 H2644 0.950 . S
C2649 C2651 1.327 . S
C2649 C2655 1.429 . S
C2650 C2642 1.574 . S
C2650 H2645 0.949 . S
C2650 C2656 1.368 1_554 S
C2651 C2635 1.349 . S
C2651 H2643 0.950 . S
C2651 C2649 1.327 . S
C2652 C2640 1.349 . S
C2652 H2646 0.950 . S
C2652 C2653 1.327 . S
C2653 H2647 0.950 . S
C2653 C2652 1.327 . S
C2653 C2657 1.429 . S
C2654 C2637 1.574 . S
C2654 H2648 0.949 . S
C2654 C2658 1.368 1_556 S
C2655 C2636 1.429 . S
C2655 C2649 1.429 . S
C2655 C2656 1.523 . S
C2656 C2637 1.368 . S
C2656 C2650 1.368 1_556 S
C2656 C2655 1.523 . S
C2657 C2641 1.429 . S
C2657 C2653 1.429 . S
C2657 C2658 1.523 . S
C2658 C2642 1.368 . S
C2658 C2654 1.368 1_554 S
C2658 C2657 1.523 . S
H2659 C2634 0.950 . S
H2660 C2636 0.950 . S
H2661 C2637 0.949 . S
H2662 C2639 0.950 . S
H2663 C2641 0.950 . S
C505 C7 1.275 . S
C510 C107 1.267 . S
C535 C21 1.275 . S
C540 C121 1.267 . S
C565 C93 1.267 . S
C570 C35 1.275 . S
C595 C163 1.267 . S
C600 C49 1.275 . S
C625 C63 1.275 . S
C630 C135 1.267 . S
C655 C77 1.275 . S
C660 C149 1.267 . S
C685 C23 1.267 . S
C690 C91 1.275 . S
C715 C37 1.267 . S
C720 C105 1.275 . S
C745 C119 1.275 . S
C750 C9 1.267 . S
C775 C133 1.275 . S
C780 C79 1.267 . S
C805 C51 1.267 . S
C810 C147 1.275 . S
C835 C161 1.275 . S
C840 C65 1.267 . S
C865 C275 1.267 . S
C870 C175 1.275 . S
C895 C189 1.276 . S
C900 C289 1.267 . S
C925 C203 1.275 . S
C930 C261 1.267 . S
C955 C331 1.267 . S
C960 C217 1.275 . S
C985 C231 1.275 . S
C990 C303 1.267 . S
C1015 C317 1.267 . S
C1020 C245 1.275 . S
C1045 C191 1.267 . S
C1050 C259 1.275 . S
C1075 C273 1.275 . S
C1080 C205 1.267 . S
C1105 C177 1.267 . S
C1110 C287 1.275 . S
C1135 C301 1.275 . S
C1140 C247 1.267 . S
C1165 C315 1.275 . S
C1170 C219 1.267 . S
C1195 C329 1.276 . S
C1200 C233 1.267 . S
C1225 C443 1.267 . S
C1230 C343 1.275 . S
C1255 C457 1.267 . S
C1260 C357 1.275 . S
C1285 C429 1.267 . S
C1290 C371 1.275 . S
C1315 C385 1.275 . S
C1320 C499 1.267 . S
C1345 C399 1.275 . S
C1350 C471 1.267 . S
C1375 C485 1.267 . S
C1380 C413 1.276 . S
C1405 C427 1.275 . S
C1410 C359 1.267 . S
C1435 C373 1.267 . S
C1440 C441 1.276 . S
C1465 C345 1.267 . S
C1470 C455 1.275 . S
C1495 C469 1.275 . S
C1500 C415 1.267 . S
C1525 C483 1.275 . S
C1530 C387 1.267 . S
C1555 C497 1.275 . S
C1560 C401 1.267 . S
C1585 C50 1.793 . S
C1590 C8 1.793 . S
C1615 C64 1.793 . S
C1620 C22 1.793 . S
C1645 C36 1.793 . S
C1650 C78 1.793 . S
C1675 C134 1.793 . S
C1680 C92 1.793 . S
C1705 C148 1.793 . S
C1710 C106 1.793 . S
C1735 C162 1.793 . S
C1740 C120 1.793 . S
C1765 C218 1.793 . S
C1770 C176 1.793 . S
C1795 C232 1.793 . S
C1800 C190 1.793 . S
C1825 C204 1.793 . S
C1830 C246 1.793 . S
C1855 C302 1.793 1_554 S
C1860 C260 1.793 . S
C1885 C316 1.793 1_554 S
C1890 C274 1.793 . S
C1915 C330 1.793 1_554 S
C1920 C288 1.793 . S
C1945 C386 1.793 1_556 S
C1950 C344 1.793 . S
C1975 C358 1.793 . S
C1980 C400 1.793 1_556 S
C2005 C414 1.793 1_556 S
C2010 C372 1.793 . S
C2035 C428 1.793 . S
C2040 C470 1.793 . S
C2065 C442 1.793 . S
C2070 C484 1.793 . S
C2095 C456 1.793 . S
C2100 C498 1.793 . S
C2125 C6 1.457 . S
C2130 C258 1.457 . S
C2155 C272 1.457 . S
C2160 C20 1.457 . S
C2185 C286 1.457 . S
C2190 C34 1.457 . S
C2215 C468 1.457 . S
C2220 C48 1.457 . S
C2245 C482 1.457 . S
C2250 C62 1.457 . S
C2275 C496 1.457 . S
C2280 C76 1.457 . S
C2305 C90 1.457 . S
C2310 C342 1.457 . S
C2335 C356 1.457 . S
C2340 C104 1.457 . S
C2365 C370 1.457 . S
C2370 C118 1.457 . S
C2395 C132 1.457 . S
C2400 C216 1.457 . S
C2425 C146 1.457 . S
C2430 C230 1.457 . S
C2455 C160 1.457 . S
C2460 C244 1.457 . S
C2485 C426 1.457 . S
C2490 C174 1.457 . S
C2515 C440 1.457 . S
C2520 C188 1.457 . S
C2545 C202 1.457 . S
C2550 C454 1.457 . S
C2575 C300 1.457 . S
C2580 C384 1.457 . S
C2605 C314 1.457 . S
C2610 C398 1.457 . S
C2635 C328 1.457 . S
C2640 C412 1.457 . S
