# Generated by pormake.
# Topology acs-a, (4)-cn, num edge types: 1
# Building blocks:
#     Node 0, Type 0, BuildingBlock: AZAVOO_clean_sbu_0, # of connection points: 4
#     Node 1, Type 0, BuildingBlock: AZAVOO_clean_sbu_0, # of connection points: 4
#     Node 2, Type 0, BuildingBlock: AZAVOO_clean_sbu_0, # of connection points: 4
#     Node 3, Type 0, BuildingBlock: AZAVOO_clean_sbu_0, # of connection points: 4
#     Node 4, Type 0, BuildingBlock: AZAVOO_clean_sbu_0, # of connection points: 4
#     Node 5, Type 0, BuildingBlock: AZAVOO_clean_sbu_0, # of connection points: 4
#     Node 6, Type 0, BuildingBlock: AZAVOO_clean_sbu_0, # of connection points: 4
#     Node 7, Type 0, BuildingBlock: AZAVOO_clean_sbu_0, # of connection points: 4
#     Node 8, Type 0, BuildingBlock: AZAVOO_clean_sbu_0, # of connection points: 4
#     Node 9, Type 0, BuildingBlock: AZAVOO_clean_sbu_0, # of connection points: 4
#     Node 10, Type 0, BuildingBlock: AZAVOO_clean_sbu_0, # of connection points: 4
#     Node 11, Type 0, BuildingBlock: AZAVOO_clean_sbu_0, # of connection points: 4
#     Edge 12, Type (0, 0), BuildingBlock: CIFDUS_clean_linker_0, # of connection points: 2
#     Edge 13, Type (0, 0), BuildingBlock: CIFDUS_clean_linker_0, # of connection points: 2
#     Edge 14, Type (0, 0), BuildingBlock: CIFDUS_clean_linker_0, # of connection points: 2
#     Edge 15, Type (0, 0), BuildingBlock: CIFDUS_clean_linker_0, # of connection points: 2
#     Edge 16, Type (0, 0), BuildingBlock: CIFDUS_clean_linker_0, # of connection points: 2
#     Edge 17, Type (0, 0), BuildingBlock: CIFDUS_clean_linker_0, # of connection points: 2
#     Edge 18, Type (0, 0), BuildingBlock: CIFDUS_clean_linker_0, # of connection points: 2
#     Edge 19, Type (0, 0), BuildingBlock: CIFDUS_clean_linker_0, # of connection points: 2
#     Edge 20, Type (0, 0), BuildingBlock: CIFDUS_clean_linker_0, # of connection points: 2
#     Edge 21, Type (0, 0), BuildingBlock: CIFDUS_clean_linker_0, # of connection points: 2
#     Edge 22, Type (0, 0), BuildingBlock: CIFDUS_clean_linker_0, # of connection points: 2
#     Edge 23, Type (0, 0), BuildingBlock: CIFDUS_clean_linker_0, # of connection points: 2
#     Edge 24, Type (0, 0), BuildingBlock: CIFDUS_clean_linker_0, # of connection points: 2
#     Edge 25, Type (0, 0), BuildingBlock: CIFDUS_clean_linker_0, # of connection points: 2
#     Edge 26, Type (0, 0), BuildingBlock: CIFDUS_clean_linker_0, # of connection points: 2
#     Edge 27, Type (0, 0), BuildingBlock: CIFDUS_clean_linker_0, # of connection points: 2
#     Edge 28, Type (0, 0), BuildingBlock: CIFDUS_clean_linker_0, # of connection points: 2
#     Edge 29, Type (0, 0), BuildingBlock: CIFDUS_clean_linker_0, # of connection points: 2
#     Edge 30, Type (0, 0), BuildingBlock: CIFDUS_clean_linker_0, # of connection points: 2
#     Edge 31, Type (0, 0), BuildingBlock: CIFDUS_clean_linker_0, # of connection points: 2
#     Edge 32, Type (0, 0), BuildingBlock: CIFDUS_clean_linker_0, # of connection points: 2
#     Edge 33, Type (0, 0), BuildingBlock: CIFDUS_clean_linker_0, # of connection points: 2
#     Edge 34, Type (0, 0), BuildingBlock: CIFDUS_clean_linker_0, # of connection points: 2
#     Edge 35, Type (0, 0), BuildingBlock: CIFDUS_clean_linker_0, # of connection points: 2
# Relax obj value: 0.383
# Max RMSD: 0.189
# Mean RMSD: 0.187
data_MOF--net-acs-a--node1-AZAVOO_clean_sbu_0--edge1-CIFDUS_clean_linker_0
_symmetry_space_group_name_H-M    P1
_symmetry_Int_Tables_number       1
_symmetry_cell_setting            triclinic
loop_
_symmetry_equiv_pos_as_xyz
'x, y, z'
_cell_length_a     37.949273
_cell_length_b     38.005008
_cell_length_c     45.048212
_cell_angle_alpha  89.857572
_cell_angle_beta   90.084592
_cell_angle_gamma 118.01985
loop_
_atom_site_label
_atom_site_type_symbol
_atom_site_fract_x
_atom_site_fract_y
_atom_site_fract_z
_atom_type_partial_charge
Mg0 Mg 0.50451 0.13256 0.10689 0.0
O1 O 0.57114 0.16957 0.11891 0.0
O2 O 0.5736 0.19974 0.16215 0.0
Mg3 Mg 0.51005 0.1846 0.17603 0.0
C4 C 0.59069 0.192 0.14057 0.0
C5 C 0.49512 0.0775 0.05322 0.0
O6 O 0.46106 0.07854 0.05128 0.0
O7 O 0.49942 0.08849 0.14316 0.0
O8 O 0.49939 0.12086 0.18438 0.0
O9 O 0.50827 0.18393 0.08095 0.0
O10 O 0.49357 0.17492 0.12871 0.0
C11 C 0.49719 0.09015 0.1713 0.0
C12 C 0.50327 0.19809 0.10577 0.0
O13 O 0.51949 0.09693 0.07373 0.0
Mg14 Mg 0.33194 0.46811 0.61898 0.0
O15 O 0.3714 0.53472 0.60849 0.0
O16 O 0.36462 0.56803 0.64723 0.0
Mg17 Mg 0.31877 0.52419 0.67979 0.0
C18 C 0.37998 0.56713 0.62221 0.0
C19 C 0.37879 0.46684 0.56048 0.0
O20 O 0.37391 0.49738 0.55202 0.0
O21 O 0.37747 0.47216 0.65382 0.0
O22 O 0.36383 0.50222 0.6913 0.0
O23 O 0.2816 0.47058 0.59477 0.0
O24 O 0.29335 0.48245 0.64264 0.0
C25 C 0.38287 0.48518 0.68036 0.0
C26 C 0.27385 0.48311 0.61938 0.0
O27 O 0.36477 0.45014 0.58525 0.0
Mg28 Mg 0.89089 0.37875 0.12579 0.0
O29 O 0.85276 0.4111 0.12371 0.0
O30 O 0.80973 0.38805 0.16176 0.0
Mg31 Mg 0.8174 0.33901 0.18585 0.0
C32 C 0.82461 0.41095 0.13934 0.0
C33 C 0.92558 0.42899 0.0683 0.0
O34 O 0.88762 0.40899 0.06119 0.0
O35 O 0.92392 0.41695 0.1663 0.0
O36 O 0.87826 0.38665 0.20174 0.0
O37 O 0.8464 0.33158 0.09602 0.0
O38 O 0.84256 0.32934 0.14485 0.0
C39 C 0.913 0.41255 0.19347 0.0
C40 C 0.82595 0.31499 0.11967 0.0
O41 O 0.93658 0.42416 0.09399 0.0
Mg42 Mg 0.50324 0.85819 0.59901 0.0
O43 O 0.43544 0.8171 0.59931 0.0
O44 O 0.42227 0.77116 0.63484 0.0
Mg45 Mg 0.47972 0.78796 0.66098 0.0
C46 C 0.41125 0.78581 0.61341 0.0
C47 C 0.48257 0.88815 0.53978 0.0
O48 O 0.46861 0.85033 0.53298 0.0
O49 O 0.49503 0.8923 0.63795 0.0
O50 O 0.48143 0.84687 0.6739 0.0
O51 O 0.50951 0.81175 0.57171 0.0
O52 O 0.51281 0.81501 0.62059 0.0
C53 C 0.48686 0.88092 0.6649 0.0
C54 C 0.51084 0.79571 0.59678 0.0
O55 O 0.4967 0.89982 0.5656 0.0
Mg56 Mg 0.62663 0.51811 0.1204 0.0
O57 O 0.60224 0.45066 0.12728 0.0
O58 O 0.62499 0.44244 0.17132 0.0
Mg59 Mg 0.66452 0.50373 0.19162 0.0
C60 C 0.60442 0.42834 0.14771 0.0
C61 C 0.5825 0.48873 0.05933 0.0
O62 O 0.6069 0.47323 0.05726 0.0
O63 O 0.58014 0.51488 0.15392 0.0
O64 O 0.60732 0.50909 0.19644 0.0
O65 O 0.68064 0.52068 0.0986 0.0
O66 O 0.67582 0.52851 0.14666 0.0
C67 C 0.57974 0.51201 0.18215 0.0
C68 C 0.69509 0.52336 0.12503 0.0
O69 O 0.58289 0.50747 0.08274 0.0
Mg70 Mg 0.11532 0.65737 0.61823 0.0
O71 O 0.14991 0.62279 0.62856 0.0
O72 O 0.2005 0.66132 0.65865 0.0
Mg73 Mg 0.19932 0.72029 0.66643 0.0
C74 C 0.18046 0.62908 0.64415 0.0
C75 C 0.07028 0.58473 0.57627 0.0
O76 O 0.1074 0.59583 0.56853 0.0
O77 O 0.08835 0.64221 0.66529 0.0
O78 O 0.14108 0.68481 0.69179 0.0
O79 O 0.15646 0.68476 0.57977 0.0
O80 O 0.1672 0.71108 0.62465 0.0
C81 C 0.1046 0.65827 0.68997 0.0
C82 C 0.18028 0.71107 0.59836 0.0
O83 O 0.06365 0.60231 0.59788 0.0
Mg84 Mg 0.86 0.49356 0.40243 0.0
O85 O 0.82731 0.42491 0.40023 0.0
O86 O 0.7923 0.40937 0.35775 0.0
Mg87 Mg 0.79875 0.46593 0.33497 0.0
C88 C 0.80411 0.39939 0.38138 0.0
C89 C 0.92908 0.48418 0.43834 0.0
O90 O 0.93574 0.47064 0.41331 0.0
O91 O 0.90266 0.49433 0.3657 0.0
O92 O 0.86363 0.48215 0.32573 0.0
O93 O 0.80769 0.49146 0.42695 0.0
O94 O 0.81375 0.49509 0.37825 0.0
C95 C 0.89721 0.49071 0.33764 0.0
C96 C 0.7918 0.49007 0.40126 0.0
O97 O 0.90115 0.49368 0.43969 0.0
Mg98 Mg 0.43635 0.90427 0.8932 0.0
O99 O 0.43819 0.84729 0.88052 0.0
O100 O 0.38098 0.80368 0.85924 0.0
Mg101 Mg 0.34637 0.83891 0.85164 0.0
C102 C 0.41571 0.81314 0.86945 0.0
C103 C 0.52646 0.95419 0.9222 0.0
O104 O 0.564 0.96177 0.92186 0.0
O105 O 0.45196 0.92557 0.84564 0.0
O106 O 0.39698 0.88297 0.82152 0.0
O107 O 0.40386 0.87199 0.93408 0.0
O108 O 0.37383 0.87327 0.89232 0.0
C109 C 0.43234 0.91214 0.82166 0.0
C110 C 0.37167 0.85769 0.91813 0.0
O111 O 0.50297 0.9301 0.903 0.0
Mg112 Mg 0.46993 0.34865 0.37274 0.0
O113 O 0.53872 0.3826 0.37029 0.0
O114 O 0.55508 0.36178 0.32846 0.0
Mg115 Mg 0.49882 0.31357 0.30644 0.0
C116 C 0.56463 0.38367 0.35165 0.0
C117 C 0.46741 0.38573 0.43385 0.0
O118 O 0.47023 0.35433 0.44306 0.0
O119 O 0.46789 0.38829 0.33557 0.0
O120 O 0.48163 0.36252 0.29553 0.0
O121 O 0.47394 0.30131 0.39956 0.0
O122 O 0.47113 0.30098 0.35065 0.0
C123 C 0.4723 0.38735 0.30761 0.0
C124 C 0.47709 0.28602 0.37471 0.0
O125 O 0.46833 0.39249 0.40618 0.0
Mg126 Mg 0.14297 0.54413 0.89492 0.0
O127 O 0.18059 0.61237 0.90148 0.0
O128 O 0.22315 0.63397 0.86302 0.0
Mg129 Mg 0.21461 0.58203 0.83333 0.0
C130 C 0.2089 0.64022 0.88689 0.0
C131 C 0.06077 0.51782 0.9248 0.0
O132 O 0.05001 0.50202 0.89828 0.0
O133 O 0.10746 0.55437 0.8572 0.0
O134 O 0.15274 0.57313 0.82068 0.0
O135 O 0.18952 0.53519 0.92012 0.0
O136 O 0.18967 0.54287 0.87163 0.0
C137 C 0.1179 0.56415 0.83023 0.0
C138 C 0.20752 0.53967 0.89493 0.0
O139 O 0.0977 0.53932 0.93031 0.0
Mg140 Mg 0.62449 0.10072 0.37328 0.0
O141 O 0.59552 0.14145 0.36527 0.0
O142 O 0.62434 0.1766 0.32413 0.0
Mg143 Mg 0.67185 0.16069 0.30736 0.0
C144 C 0.59918 0.16707 0.34538 0.0
C145 C 0.57346 0.07388 0.43174 0.0
O146 O 0.59683 0.11137 0.43862 0.0
O147 O 0.58672 0.06262 0.33471 0.0
O148 O 0.61979 0.09993 0.29575 0.0
O149 O 0.67143 0.14843 0.40112 0.0
O150 O 0.67641 0.143 0.35278 0.0
C151 C 0.5914 0.06838 0.30675 0.0
C152 C 0.69005 0.1638 0.37658 0.0
O153 O 0.57616 0.06161 0.40606 0.0
Mg154 Mg 0.5198 0.61362 0.87635 0.0
O155 O 0.45299 0.59515 0.87056 0.0
O156 O 0.44862 0.62832 0.83062 0.0
Mg157 Mg 0.51085 0.66688 0.81145 0.0
C158 C 0.43263 0.6039 0.85211 0.0
C159 C 0.48821 0.56209 0.93356 0.0
O160 O 0.47233 0.58599 0.93697 0.0
O161 O 0.51406 0.57257 0.83775 0.0
O162 O 0.51065 0.6083 0.79945 0.0
O163 O 0.52431 0.66343 0.90441 0.0
O164 O 0.53419 0.66791 0.85584 0.0
C165 C 0.51124 0.57735 0.80996 0.0
C166 C 0.52843 0.68273 0.87988 0.0
O167 O 0.5068 0.56406 0.90967 0.0
H168 H 0.59508 0.04215 0.25155 0.0
H169 H 0.51325 0.04554 0.31625 0.0
H170 H 0.46778 0.04227 0.2768 0.0
H171 H 0.46341 0.06028 0.22478 0.0
H172 H 0.54548 0.05721 0.16009 0.0
H173 H 0.578 0.03725 0.19841 0.0
C174 C 0.56623 0.03986 0.257 0.0
C175 C 0.55791 0.04513 0.28657 0.0
C176 C 0.54075 0.03911 0.23411 0.0
C177 C 0.52038 0.04174 0.29359 0.0
C178 C 0.49462 0.04055 0.27096 0.0
C179 C 0.48713 0.05327 0.21889 0.0
C180 C 0.5028 0.06123 0.18996 0.0
C181 C 0.50619 0.04254 0.24118 0.0
C182 C 0.53311 0.05158 0.18232 0.0
C183 C 0.55208 0.04063 0.20432 0.0
H184 H 0.38209 0.45353 0.73425 0.0
H185 H 0.46028 0.52729 0.66509 0.0
H186 H 0.5152 0.55766 0.70057 0.0
H187 H 0.53311 0.57596 0.75294 0.0
H188 H 0.45481 0.50199 0.82206 0.0
H189 H 0.40843 0.4577 0.78498 0.0
C190 C 0.41177 0.47472 0.72678 0.0
C191 C 0.41731 0.48867 0.69741 0.0
C192 C 0.44296 0.4924 0.74741 0.0
C193 C 0.45561 0.51613 0.68769 0.0
C194 C 0.48685 0.53384 0.70805 0.0
C195 C 0.50695 0.54892 0.75979 0.0
C196 C 0.49678 0.5427 0.79002 0.0
C197 C 0.47993 0.52416 0.73829 0.0
C198 C 0.46313 0.50748 0.79885 0.0
C199 C 0.43622 0.48246 0.77761 0.0
H200 H 0.93731 0.3997 0.24687 0.0
H201 H 0.93816 0.49179 0.19056 0.0
H202 H 0.94487 0.53287 0.23397 0.0
H203 H 0.9291 0.53178 0.28716 0.0
H204 H 0.9272 0.43918 0.34343 0.0
H205 H 0.94377 0.40966 0.3011 0.0
C206 C 0.94128 0.42972 0.24411 0.0
C207 C 0.93671 0.44263 0.21577 0.0
C208 C 0.9441 0.45265 0.26927 0.0
C209 C 0.94176 0.4814 0.21221 0.0
C210 C 0.94496 0.50463 0.23711 0.0
C211 C 0.93466 0.5065 0.29038 0.0
C212 C 0.92642 0.48723 0.31811 0.0
C213 C 0.94308 0.48915 0.26573 0.0
C214 C 0.93354 0.4545 0.32224 0.0
C215 C 0.94235 0.43724 0.2979 0.0
H216 H 0.39978 0.91144 0.76775 0.0
H217 H 0.51183 0.94161 0.81111 0.0
H218 H 0.54262 0.94349 0.76326 0.0
H219 H 0.53278 0.92106 0.71122 0.0
H220 H 0.421 0.89054 0.66784 0.0
H221 H 0.39514 0.90515 0.71331 0.0
C222 C 0.43126 0.91965 0.76658 0.0
C223 C 0.45323 0.92542 0.79292 0.0
C224 C 0.44868 0.92025 0.73899 0.0
C225 C 0.49416 0.93674 0.79116 0.0
C226 C 0.51175 0.93751 0.76379 0.0
C227 C 0.50352 0.91957 0.71144 0.0
C228 C 0.47873 0.90494 0.68648 0.0
C229 C 0.48868 0.92715 0.73783 0.0
C230 C 0.44063 0.90235 0.68684 0.0
C231 C 0.4257 0.91013 0.71294 0.0
H232 H 0.44644 0.38567 0.25122 0.0
H233 H 0.51054 0.46538 0.32272 0.0
H234 H 0.54426 0.51984 0.28747 0.0
H235 H 0.56986 0.53673 0.23638 0.0
H236 H 0.50606 0.45691 0.16492 0.0
H237 H 0.4567 0.41125 0.19986 0.0
C238 C 0.46629 0.41549 0.25912 0.0
C239 C 0.47692 0.42139 0.28928 0.0
C240 C 0.48609 0.4465 0.23864 0.0
C241 C 0.50218 0.46011 0.29951 0.0
C242 C 0.52184 0.4912 0.2793 0.0
C243 C 0.54382 0.51048 0.22834 0.0
C244 C 0.5421 0.49951 0.1984 0.0
C245 C 0.51626 0.48377 0.24873 0.0
C246 C 0.50814 0.46579 0.18797 0.0
C247 C 0.48024 0.43926 0.20805 0.0
H248 H 0.06642 0.58048 0.70543 0.0
H249 H 0.10163 0.69853 0.73861 0.0
H250 H 0.09732 0.67487 0.78957 0.0
H251 H 0.10303 0.62595 0.82226 0.0
H252 H 0.07561 0.51025 0.7882 0.0
H253 H 0.05641 0.52682 0.74043 0.0
C254 C 0.07102 0.60043 0.72392 0.0
C255 C 0.08465 0.64118 0.71841 0.0
C256 C 0.07083 0.58705 0.7531 0.0
C257 C 0.09117 0.66701 0.74245 0.0
C258 C 0.08919 0.65358 0.77157 0.0
C259 C 0.09072 0.60375 0.80484 0.0
C260 C 0.09041 0.56696 0.80857 0.0
C261 C 0.08192 0.6144 0.77696 0.0
C262 C 0.07552 0.53859 0.78576 0.0
C263 C 0.0651 0.5483 0.75833 0.0
H264 H 0.45241 0.0367 0.00479 0.0
H265 H 0.56098 0.06637 0.05341 0.0
H266 H 0.5791 0.02966 0.01767 0.0
H267 H 0.56516 0.99058 0.97228 0.0
H268 H 0.45809 0.96244 0.92236 0.0
H269 H 0.43807 0.99657 0.95921 0.0
C270 C 0.47997 0.03503 0.00762 0.0
C271 C 0.50534 0.0544 0.03171 0.0
C272 C 0.4904 0.01398 0.98686 0.0
C273 C 0.54095 0.05191 0.03503 0.0
C274 C 0.55136 0.03088 0.01461 0.0
C275 C 0.53736 0.99179 0.96942 0.0
C276 C 0.51295 0.97349 0.94471 0.0
C277 C 0.52646 0.01206 0.99038 0.0
C278 C 0.47703 0.97536 0.94144 0.0
C279 C 0.46576 0.99528 0.9624 0.0
H280 H 0.40623 0.4897 0.50405 0.0
H281 H 0.39787 0.40792 0.5738 0.0
H282 H 0.42801 0.37821 0.54155 0.0
H283 H 0.45247 0.37221 0.49274 0.0
H284 H 0.45933 0.45231 0.42221 0.0
H285 H 0.43463 0.48619 0.45573 0.0
C286 C 0.41125 0.46557 0.51225 0.0
C287 C 0.39938 0.45083 0.54119 0.0
C288 C 0.42833 0.44825 0.49347 0.0
C289 C 0.40632 0.41965 0.55152 0.0
C290 C 0.42364 0.40262 0.53311 0.0
C291 C 0.44903 0.39737 0.48474 0.0
C292 C 0.45741 0.40944 0.45496 0.0
C293 C 0.43413 0.41622 0.50392 0.0
C294 C 0.45288 0.44221 0.44502 0.0
C295 C 0.43863 0.46156 0.46414 0.0
H296 H 0.07369 0.52457 0.98457 0.0
H297 H 0.98001 0.48326 0.9188 0.0
H298 H 0.92972 0.45512 0.95778 0.0
H299 H 0.91254 0.4371 0.00995 0.0
H300 H 0.0061 0.47551 0.07572 0.0
H301 H 0.05612 0.51011 0.03738 0.0
C302 C 0.04226 0.50998 0.97881 0.0
C303 C 0.03065 0.50585 0.94879 0.0
C304 C 0.01344 0.49299 0.00132 0.0
C305 C 0.98978 0.48665 0.94171 0.0
C306 C 0.96097 0.47046 0.96399 0.0
C307 C 0.94382 0.45339 0.01601 0.0
C308 C 0.95551 0.45339 0.04567 0.0
C309 C 0.97249 0.47262 0.99379 0.0
C310 C 0.99623 0.47477 0.05305 0.0
C311 C 0.0249 0.49455 0.03112 0.0
H312 H 0.52404 0.9944 0.42514 0.0
H313 H 0.57046 0.08771 0.49098 0.0
H314 H 0.54197 0.03816 0.53045 0.0
H315 H 0.51148 0.9682 0.54635 0.0
H316 H 0.46657 0.87487 0.48049 0.0
H317 H 0.48645 0.92463 0.44103 0.0
C318 C 0.52742 0.004 0.4481 0.0
C319 C 0.54999 0.0447 0.45507 0.0
C320 C 0.51154 0.9753 0.47074 0.0
C321 C 0.55358 0.05658 0.48494 0.0
C322 C 0.53742 0.02823 0.50757 0.0
C323 C 0.50548 0.95867 0.5234 0.0
C324 C 0.48819 0.91784 0.51641 0.0
C325 C 0.51754 0.98746 0.50075 0.0
C326 C 0.48018 0.90608 0.48654 0.0
C327 C 0.49166 0.93454 0.46391 0.0
H328 H 0.52377 0.51437 0.93495 0.0
H329 H 0.46299 0.56126 0.99046 0.0
H330 H 0.48297 0.53787 0.03464 0.0
H331 H 0.52562 0.51297 0.0576 0.0
H332 H 0.58792 0.46772 0.00218 0.0
H333 H 0.559 0.48121 0.95793 0.0
C334 C 0.51423 0.51885 0.95667 0.0
C335 C 0.4926 0.54028 0.95939 0.0
C336 C 0.52652 0.50605 0.98205 0.0
C337 C 0.48003 0.54526 0.98769 0.0
C338 C 0.49161 0.53206 0.01302 0.0
C339 C 0.53244 0.50551 0.03587 0.0
C340 C 0.55953 0.49011 0.03318 0.0
C341 C 0.51617 0.51386 0.01049 0.0
C342 C 0.56747 0.47995 0.0049 0.0
C343 C 0.55105 0.48779 0.97954 0.0
H344 H 0.9188 0.50316 0.49464 0.0
H345 H 0.00245 0.4869 0.43893 0.0
H346 H 0.05241 0.51245 0.47841 0.0
H347 H 0.07468 0.54648 0.52643 0.0
H348 H 0.99103 0.56349 0.58169 0.0
H349 H 0.93865 0.53003 0.54486 0.0
C350 C 0.9478 0.50474 0.49123 0.0
C351 C 0.95705 0.49372 0.46367 0.0
C352 C 0.97651 0.51981 0.5139 0.0
C353 C 0.99456 0.49539 0.45983 0.0
C354 C 0.02324 0.51016 0.48238 0.0
C355 C 0.04484 0.54233 0.53067 0.0
C356 C 0.03705 0.55809 0.55662 0.0
C357 C 0.01491 0.52353 0.50917 0.0
C358 C 0.99805 0.55201 0.56183 0.0
C359 C 0.96805 0.53299 0.5407 0.0
H360 H 0.51237 0.2413 0.15625 0.0
H361 H 0.52252 0.25262 0.06097 0.0
H362 H 0.55242 0.32502 0.06532 0.0
H363 H 0.58095 0.38544 0.09647 0.0
H364 H 0.5764 0.37309 0.19186 0.0
H365 H 0.53997 0.30074 0.1872 0.0
C366 C 0.52116 0.25932 0.1364 0.0
C367 C 0.51581 0.2413 0.1084 0.0
C368 C 0.53994 0.30095 0.13912 0.0
C369 C 0.52655 0.26559 0.08289 0.0
C370 C 0.54386 0.30707 0.08534 0.0
C371 C 0.57176 0.36686 0.11621 0.0
C372 C 0.58158 0.38458 0.14446 0.0
C373 C 0.5516 0.32513 0.11339 0.0
C374 C 0.56963 0.36017 0.16985 0.0
C375 C 0.54862 0.31879 0.16722 0.0
H376 H 0.25491 0.51477 0.66701 0.0
H377 H 0.23572 0.497 0.57262 0.0
H378 H 0.2015 0.53781 0.57245 0.0
H379 H 0.18244 0.58357 0.59849 0.0
H380 H 0.20958 0.60716 0.6916 0.0
H381 H 0.23625 0.55982 0.69284 0.0
C382 C 0.24373 0.52006 0.6463 0.0
C383 C 0.24879 0.50352 0.61978 0.0
C384 C 0.22579 0.54496 0.64614 0.0
C385 C 0.23256 0.50958 0.59337 0.0
C386 C 0.21314 0.53309 0.59322 0.0
C387 C 0.1938 0.57788 0.61907 0.0
C388 C 0.19404 0.59859 0.64495 0.0
C389 C 0.2104 0.55168 0.61936 0.0
C390 C 0.20931 0.59159 0.67142 0.0
C391 C 0.22447 0.56452 0.67213 0.0
H392 H 0.77548 0.2757 0.16515 0.0
H393 H 0.77923 0.28846 0.06987 0.0
H394 H 0.70663 0.24825 0.06761 0.0
H395 H 0.64143 0.2149 0.09326 0.0
H396 H 0.63853 0.20919 0.18895 0.0
H397 H 0.71133 0.24209 0.19058 0.0
C398 C 0.76056 0.27014 0.14388 0.0
C399 C 0.78284 0.28601 0.11783 0.0
C400 C 0.71877 0.24856 0.14287 0.0
C401 C 0.76287 0.27692 0.09035 0.0
C402 C 0.72128 0.2541 0.08904 0.0
C403 C 0.65682 0.22056 0.11441 0.0
C404 C 0.63469 0.20981 0.14095 0.0
C405 C 0.69882 0.24062 0.11523 0.0
C406 C 0.65494 0.21754 0.16824 0.0
C407 C 0.69655 0.23624 0.16918 0.0
H408 H 0.46357 0.73428 0.56014 0.0
H409 H 0.53341 0.76199 0.6405 0.0
H410 H 0.50131 0.69174 0.65421 0.0
H411 H 0.44586 0.62452 0.64747 0.0
H412 H 0.37603 0.59519 0.56728 0.0
H413 H 0.41559 0.66382 0.54919 0.0
C414 C 0.47273 0.72468 0.58006 0.0
C415 C 0.50042 0.75323 0.59949 0.0
C416 C 0.4535 0.6841 0.58814 0.0
C417 C 0.51187 0.7405 0.62536 0.0
C418 C 0.49334 0.70038 0.63333 0.0
C419 C 0.44 0.63309 0.62576 0.0
C420 C 0.40807 0.60542 0.6088 0.0
C421 C 0.46288 0.67226 0.61559 0.0
C422 C 0.40065 0.61632 0.58061 0.0
C423 C 0.42311 0.65551 0.57038 0.0
H424 H 0.72988 0.49445 0.08581 0.0
H425 H 0.73339 0.52863 0.17751 0.0
H426 H 0.77502 0.49773 0.18991 0.0
H427 H 0.80466 0.45499 0.17569 0.0
H428 H 0.80583 0.42479 0.0837 0.0
H429 H 0.7686 0.46059 0.07027 0.0
C430 C 0.74032 0.49578 0.10841 0.0
C431 C 0.72718 0.51249 0.13092 0.0
C432 C 0.76487 0.47841 0.11535 0.0
C433 C 0.74167 0.5146 0.15995 0.0
C434 C 0.76571 0.4971 0.16707 0.0
C435 C 0.79712 0.45673 0.15267 0.0
C436 C 0.80729 0.43695 0.13073 0.0
C437 C 0.77635 0.47778 0.14514 0.0
C438 C 0.79813 0.43983 0.10091 0.0
C439 C 0.77674 0.46013 0.09329 0.0
H440 H 0.22743 0.67691 0.59275 0.0
H441 H 0.22918 0.79093 0.59513 0.0
H442 H 0.30246 0.82487 0.59626 0.0
H443 H 0.3654 0.82135 0.60208 0.0
H444 H 0.36204 0.70655 0.60751 0.0
H445 H 0.29005 0.67331 0.59806 0.0
C446 C 0.24407 0.70921 0.59282 0.0
C447 C 0.22347 0.73166 0.59322 0.0
C448 C 0.28578 0.72814 0.5954 0.0
C449 C 0.24483 0.77336 0.59423 0.0
C450 C 0.28656 0.79261 0.59515 0.0
C451 C 0.34886 0.7891 0.60071 0.0
C452 C 0.36869 0.76629 0.60533 0.0
C453 C 0.3073 0.77025 0.59654 0.0
C454 C 0.34712 0.72454 0.60408 0.0
C455 C 0.3061 0.70561 0.59864 0.0
H456 H 0.7512 0.48681 0.35079 0.0
H457 H 0.73459 0.46279 0.44477 0.0
H458 H 0.66216 0.43131 0.43816 0.0
H459 H 0.60349 0.40425 0.40475 0.0
H460 H 0.62163 0.42266 0.3103 0.0
H461 H 0.69347 0.46201 0.3179 0.0
C462 C 0.73187 0.47449 0.36985 0.0
C463 C 0.74839 0.47632 0.3981 0.0
C464 C 0.6904 0.45505 0.36571 0.0
C465 C 0.72272 0.46153 0.4227 0.0
C466 C 0.68126 0.44331 0.41892 0.0
C467 C 0.62322 0.41739 0.38594 0.0
C468 C 0.60742 0.4105 0.35701 0.0
C469 C 0.66474 0.43894 0.3904 0.0
C470 C 0.63321 0.42732 0.33275 0.0
C471 C 0.67426 0.44985 0.33708 0.0
H472 H 0.29709 0.82546 0.89502 0.0
H473 H 0.37093 0.79986 0.95487 0.0
H474 H 0.32242 0.72909 0.95415 0.0
H475 H 0.26508 0.67344 0.92945 0.0
H476 H 0.19476 0.6992 0.86651 0.0
H477 H 0.23552 0.77076 0.87536 0.0
C478 C 0.30214 0.80448 0.9084 0.0
C479 C 0.33787 0.81784 0.92457 0.0
C480 C 0.27487 0.76369 0.90696 0.0
C481 C 0.3437 0.79044 0.94221 0.0
C482 C 0.31614 0.74983 0.94154 0.0
C483 C 0.25806 0.69484 0.91851 0.0
C484 C 0.2269 0.68147 0.89766 0.0
C485 C 0.28251 0.73594 0.923 0.0
C486 C 0.21839 0.70913 0.88293 0.0
C487 C 0.24183 0.74994 0.88785 0.0
H488 H 0.56592 0.18278 0.39387 0.0
H489 H 0.57327 0.19337 0.29841 0.0
H490 H 0.53204 0.22687 0.29887 0.0
H491 H 0.49685 0.25596 0.32634 0.0
H492 H 0.49449 0.25168 0.42204 0.0
H493 H 0.52958 0.21179 0.42152 0.0
C494 C 0.55819 0.1922 0.37321 0.0
C495 C 0.5728 0.18584 0.34618 0.0
C496 C 0.53525 0.21244 0.37367 0.0
C497 C 0.56278 0.19835 0.31955 0.0
C498 C 0.53907 0.21737 0.31976 0.0
C499 C 0.50411 0.24663 0.34712 0.0
C500 C 0.49365 0.2576 0.37415 0.0
C501 C 0.52567 0.22512 0.34671 0.0
C502 C 0.50242 0.24399 0.40084 0.0
C503 C 0.52266 0.22129 0.40059 0.0
H504 H 0.24776 0.5418 0.84502 0.0
H505 H 0.26058 0.55156 0.94023 0.0
H506 H 0.33128 0.569 0.93558 0.0
H507 H 0.39067 0.58675 0.90386 0.0
H508 H 0.37728 0.58231 0.8086 0.0
H509 H 0.30559 0.55807 0.81381 0.0
C510 C 0.26596 0.548 0.86481 0.0
C511 C 0.24907 0.54613 0.89288 0.0
C512 C 0.30657 0.55919 0.86189 0.0
C513 C 0.2729 0.553 0.91832 0.0
C514 C 0.31335 0.56314 0.91566 0.0
C515 C 0.37184 0.57993 0.88433 0.0
C516 C 0.38905 0.58623 0.85588 0.0
C517 C 0.3307 0.56708 0.88749 0.0
C518 C 0.36462 0.57786 0.8307 0.0
C519 C 0.32368 0.56398 0.83366 0.0
H520 H 0.71309 0.21966 0.42048 0.0
H521 H 0.73601 0.20384 0.32895 0.0
H522 H 0.7749 0.2757 0.32274 0.0
H523 H 0.79649 0.34323 0.3418 0.0
H524 H 0.77783 0.35989 0.43392 0.0
H525 H 0.74369 0.28749 0.4416 0.0
C526 C 0.72715 0.23186 0.39931 0.0
C527 C 0.72031 0.20638 0.37489 0.0
C528 C 0.75004 0.27338 0.39597 0.0
C529 C 0.73942 0.22273 0.3478 0.0
C530 C 0.7619 0.26389 0.34425 0.0
C531 C 0.78535 0.33091 0.36363 0.0
C532 C 0.78903 0.35654 0.38718 0.0
C533 C 0.76627 0.2895 0.36789 0.0
C534 C 0.7752 0.34054 0.41549 0.0
C535 C 0.75556 0.29921 0.41983 0.0
H536 H 0.45451 0.67125 0.89073 0.0
H537 H 0.57136 0.76049 0.86342 0.0
H538 H 0.54641 0.80922 0.85749 0.0
H539 H 0.49098 0.82576 0.86002 0.0
H540 H 0.37251 0.73399 0.88178 0.0
H541 H 0.39801 0.6861 0.88909 0.0
C542 C 0.47441 0.70144 0.88356 0.0
C543 C 0.51474 0.71287 0.87803 0.0
C544 C 0.45936 0.72834 0.87878 0.0
C545 C 0.54033 0.7516 0.86821 0.0
C546 C 0.52601 0.7792 0.86467 0.0
C547 C 0.47079 0.79517 0.86615 0.0
C548 C 0.43004 0.78326 0.87044 0.0
C549 C 0.48555 0.76782 0.8698 0.0
C550 C 0.40394 0.74357 0.87811 0.0
C551 C 0.41856 0.71638 0.88255 0.0
loop_
_geom_bond_atom_site_label_1
_geom_bond_atom_site_label_2
_geom_bond_distance
_geom_bond_site_symmetry_2
_ccdc_geom_bond_type
Mg0 O1 2.028 . S
Mg0 O7 1.986 . S
Mg0 O9 2.114 . S
Mg0 O10 2.251 . S
Mg0 O13 2.010 . S
O1 Mg0 2.028 . S
O1 C4 1.250 . S
O2 Mg3 2.028 . S
O2 C4 1.248 . S
Mg3 O2 2.028 . S
Mg3 O8 2.032 . S
Mg3 O10 2.079 . S
C4 O1 1.250 . S
C4 O2 1.248 . S
C5 O6 1.264 . S
C5 O13 1.249 . S
O6 C5 1.264 . S
O7 Mg0 1.986 . S
O7 C11 1.246 . S
O8 Mg3 2.032 . S
O8 C11 1.259 . S
O9 Mg0 2.114 . S
O9 C12 1.252 . S
O10 Mg0 2.251 . S
O10 Mg3 2.079 . S
O10 C12 1.273 . S
C11 O7 1.246 . S
C11 O8 1.259 . S
C12 O9 1.252 . S
C12 O10 1.273 . S
O13 Mg0 2.010 . S
O13 C5 1.249 . S
Mg14 O15 2.028 . S
Mg14 O21 1.986 . S
Mg14 O23 2.114 . S
Mg14 O24 2.251 . S
Mg14 O27 2.010 . S
O15 Mg14 2.028 . S
O15 C18 1.250 . S
O16 Mg17 2.028 . S
O16 C18 1.248 . S
Mg17 O16 2.028 . S
Mg17 O22 2.032 . S
Mg17 O24 2.079 . S
C18 O15 1.250 . S
C18 O16 1.248 . S
C19 O20 1.264 . S
C19 O27 1.249 . S
O20 C19 1.264 . S
O21 Mg14 1.986 . S
O21 C25 1.246 . S
O22 Mg17 2.032 . S
O22 C25 1.259 . S
O23 Mg14 2.114 . S
O23 C26 1.252 . S
O24 Mg14 2.251 . S
O24 Mg17 2.079 . S
O24 C26 1.273 . S
C25 O21 1.246 . S
C25 O22 1.259 . S
C26 O23 1.252 . S
C26 O24 1.273 . S
O27 Mg14 2.010 . S
O27 C19 1.249 . S
Mg28 O29 2.028 . S
Mg28 O35 1.986 . S
Mg28 O37 2.114 . S
Mg28 O38 2.251 . S
Mg28 O41 2.010 . S
O29 Mg28 2.028 . S
O29 C32 1.250 . S
O30 Mg31 2.028 . S
O30 C32 1.248 . S
Mg31 O30 2.028 . S
Mg31 O36 2.032 . S
Mg31 O38 2.079 . S
C32 O29 1.250 . S
C32 O30 1.248 . S
C33 O34 1.264 . S
C33 O41 1.249 . S
O34 C33 1.264 . S
O35 Mg28 1.986 . S
O35 C39 1.246 . S
O36 Mg31 2.032 . S
O36 C39 1.259 . S
O37 Mg28 2.114 . S
O37 C40 1.252 . S
O38 Mg28 2.251 . S
O38 Mg31 2.079 . S
O38 C40 1.273 . S
C39 O35 1.246 . S
C39 O36 1.259 . S
C40 O37 1.252 . S
C40 O38 1.273 . S
O41 Mg28 2.010 . S
O41 C33 1.249 . S
Mg42 O43 2.028 . S
Mg42 O49 1.986 . S
Mg42 O51 2.114 . S
Mg42 O52 2.251 . S
Mg42 O55 2.010 . S
O43 Mg42 2.028 . S
O43 C46 1.250 . S
O44 Mg45 2.028 . S
O44 C46 1.248 . S
Mg45 O44 2.028 . S
Mg45 O50 2.032 . S
Mg45 O52 2.079 . S
C46 O43 1.250 . S
C46 O44 1.248 . S
C47 O48 1.264 . S
C47 O55 1.249 . S
O48 C47 1.264 . S
O49 Mg42 1.986 . S
O49 C53 1.246 . S
O50 Mg45 2.032 . S
O50 C53 1.259 . S
O51 Mg42 2.114 . S
O51 C54 1.252 . S
O52 Mg42 2.251 . S
O52 Mg45 2.079 . S
O52 C54 1.273 . S
C53 O49 1.246 . S
C53 O50 1.259 . S
C54 O51 1.252 . S
C54 O52 1.273 . S
O55 Mg42 2.010 . S
O55 C47 1.249 . S
Mg56 O57 2.028 . S
Mg56 O63 1.986 . S
Mg56 O65 2.114 . S
Mg56 O66 2.251 . S
Mg56 O69 2.010 . S
O57 Mg56 2.028 . S
O57 C60 1.250 . S
O58 Mg59 2.028 . S
O58 C60 1.248 . S
Mg59 O58 2.028 . S
Mg59 O64 2.032 . S
Mg59 O66 2.079 . S
C60 O57 1.250 . S
C60 O58 1.248 . S
C61 O62 1.264 . S
C61 O69 1.249 . S
O62 C61 1.264 . S
O63 Mg56 1.986 . S
O63 C67 1.246 . S
O64 Mg59 2.032 . S
O64 C67 1.259 . S
O65 Mg56 2.114 . S
O65 C68 1.252 . S
O66 Mg56 2.251 . S
O66 Mg59 2.079 . S
O66 C68 1.273 . S
C67 O63 1.246 . S
C67 O64 1.259 . S
C68 O65 1.252 . S
C68 O66 1.273 . S
O69 Mg56 2.010 . S
O69 C61 1.249 . S
Mg70 O71 2.028 . S
Mg70 O77 1.986 . S
Mg70 O79 2.114 . S
Mg70 O80 2.251 . S
Mg70 O83 2.010 . S
O71 Mg70 2.028 . S
O71 C74 1.250 . S
O72 Mg73 2.028 . S
O72 C74 1.248 . S
Mg73 O72 2.028 . S
Mg73 O78 2.032 . S
Mg73 O80 2.079 . S
C74 O71 1.250 . S
C74 O72 1.248 . S
C75 O76 1.264 . S
C75 O83 1.249 . S
O76 C75 1.264 . S
O77 Mg70 1.986 . S
O77 C81 1.246 . S
O78 Mg73 2.032 . S
O78 C81 1.259 . S
O79 Mg70 2.114 . S
O79 C82 1.252 . S
O80 Mg70 2.251 . S
O80 Mg73 2.079 . S
O80 C82 1.273 . S
C81 O77 1.246 . S
C81 O78 1.259 . S
C82 O79 1.252 . S
C82 O80 1.273 . S
O83 Mg70 2.010 . S
O83 C75 1.249 . S
Mg84 O85 2.028 . S
Mg84 O91 1.986 . S
Mg84 O93 2.114 . S
Mg84 O94 2.251 . S
Mg84 O97 2.010 . S
O85 Mg84 2.028 . S
O85 C88 1.250 . S
O86 Mg87 2.028 . S
O86 C88 1.248 . S
Mg87 O86 2.028 . S
Mg87 O92 2.032 . S
Mg87 O94 2.079 . S
C88 O85 1.250 . S
C88 O86 1.248 . S
C89 O90 1.264 . S
C89 O97 1.249 . S
O90 C89 1.264 . S
O91 Mg84 1.986 . S
O91 C95 1.246 . S
O92 Mg87 2.032 . S
O92 C95 1.259 . S
O93 Mg84 2.114 . S
O93 C96 1.252 . S
O94 Mg84 2.251 . S
O94 Mg87 2.079 . S
O94 C96 1.273 . S
C95 O91 1.246 . S
C95 O92 1.259 . S
C96 O93 1.252 . S
C96 O94 1.273 . S
O97 Mg84 2.010 . S
O97 C89 1.249 . S
Mg98 O99 2.028 . S
Mg98 O105 1.986 . S
Mg98 O107 2.114 . S
Mg98 O108 2.251 . S
Mg98 O111 2.010 . S
O99 Mg98 2.028 . S
O99 C102 1.250 . S
O100 Mg101 2.028 . S
O100 C102 1.248 . S
Mg101 O100 2.028 . S
Mg101 O106 2.032 . S
Mg101 O108 2.079 . S
C102 O99 1.250 . S
C102 O100 1.248 . S
C103 O104 1.264 . S
C103 O111 1.249 . S
O104 C103 1.264 . S
O105 Mg98 1.986 . S
O105 C109 1.246 . S
O106 Mg101 2.032 . S
O106 C109 1.259 . S
O107 Mg98 2.114 . S
O107 C110 1.252 . S
O108 Mg98 2.251 . S
O108 Mg101 2.079 . S
O108 C110 1.273 . S
C109 O105 1.246 . S
C109 O106 1.259 . S
C110 O107 1.252 . S
C110 O108 1.273 . S
O111 Mg98 2.010 . S
O111 C103 1.249 . S
Mg112 O113 2.028 . S
Mg112 O119 1.986 . S
Mg112 O121 2.114 . S
Mg112 O122 2.251 . S
Mg112 O125 2.010 . S
O113 Mg112 2.028 . S
O113 C116 1.250 . S
O114 Mg115 2.028 . S
O114 C116 1.248 . S
Mg115 O114 2.028 . S
Mg115 O120 2.032 . S
Mg115 O122 2.079 . S
C116 O113 1.250 . S
C116 O114 1.248 . S
C117 O118 1.264 . S
C117 O125 1.249 . S
O118 C117 1.264 . S
O119 Mg112 1.986 . S
O119 C123 1.246 . S
O120 Mg115 2.032 . S
O120 C123 1.259 . S
O121 Mg112 2.114 . S
O121 C124 1.252 . S
O122 Mg112 2.251 . S
O122 Mg115 2.079 . S
O122 C124 1.273 . S
C123 O119 1.246 . S
C123 O120 1.259 . S
C124 O121 1.252 . S
C124 O122 1.273 . S
O125 Mg112 2.010 . S
O125 C117 1.249 . S
Mg126 O127 2.028 . S
Mg126 O133 1.986 . S
Mg126 O135 2.114 . S
Mg126 O136 2.251 . S
Mg126 O139 2.010 . S
O127 Mg126 2.028 . S
O127 C130 1.250 . S
O128 Mg129 2.028 . S
O128 C130 1.248 . S
Mg129 O128 2.028 . S
Mg129 O134 2.032 . S
Mg129 O136 2.079 . S
C130 O127 1.250 . S
C130 O128 1.248 . S
C131 O132 1.264 . S
C131 O139 1.249 . S
O132 C131 1.264 . S
O133 Mg126 1.986 . S
O133 C137 1.246 . S
O134 Mg129 2.032 . S
O134 C137 1.259 . S
O135 Mg126 2.114 . S
O135 C138 1.252 . S
O136 Mg126 2.251 . S
O136 Mg129 2.079 . S
O136 C138 1.273 . S
C137 O133 1.246 . S
C137 O134 1.259 . S
C138 O135 1.252 . S
C138 O136 1.273 . S
O139 Mg126 2.010 . S
O139 C131 1.249 . S
Mg140 O141 2.028 . S
Mg140 O147 1.986 . S
Mg140 O149 2.114 . S
Mg140 O150 2.251 . S
Mg140 O153 2.010 . S
O141 Mg140 2.028 . S
O141 C144 1.250 . S
O142 Mg143 2.028 . S
O142 C144 1.248 . S
Mg143 O142 2.028 . S
Mg143 O148 2.032 . S
Mg143 O150 2.079 . S
C144 O141 1.250 . S
C144 O142 1.248 . S
C145 O146 1.264 . S
C145 O153 1.249 . S
O146 C145 1.264 . S
O147 Mg140 1.986 . S
O147 C151 1.246 . S
O148 Mg143 2.032 . S
O148 C151 1.259 . S
O149 Mg140 2.114 . S
O149 C152 1.252 . S
O150 Mg140 2.251 . S
O150 Mg143 2.079 . S
O150 C152 1.273 . S
C151 O147 1.246 . S
C151 O148 1.259 . S
C152 O149 1.252 . S
C152 O150 1.273 . S
O153 Mg140 2.010 . S
O153 C145 1.249 . S
Mg154 O155 2.028 . S
Mg154 O161 1.986 . S
Mg154 O163 2.114 . S
Mg154 O164 2.251 . S
Mg154 O167 2.010 . S
O155 Mg154 2.028 . S
O155 C158 1.250 . S
O156 Mg157 2.028 . S
O156 C158 1.248 . S
Mg157 O156 2.028 . S
Mg157 O162 2.032 . S
Mg157 O164 2.079 . S
C158 O155 1.250 . S
C158 O156 1.248 . S
C159 O160 1.264 . S
C159 O167 1.249 . S
O160 C159 1.264 . S
O161 Mg154 1.986 . S
O161 C165 1.246 . S
O162 Mg157 2.032 . S
O162 C165 1.259 . S
O163 Mg154 2.114 . S
O163 C166 1.252 . S
O164 Mg154 2.251 . S
O164 Mg157 2.079 . S
O164 C166 1.273 . S
C165 O161 1.246 . S
C165 O162 1.259 . S
C166 O163 1.252 . S
C166 O164 1.273 . S
O167 Mg154 2.010 . S
O167 C159 1.249 . S
H168 C174 0.930 . S
H169 C177 0.930 . S
H170 C178 0.930 . S
H171 C179 0.930 . S
H172 C182 0.930 . S
H173 C183 0.930 . S
C174 H168 0.930 . S
C174 C175 1.355 . S
C174 C176 1.415 . S
C175 C174 1.355 . S
C175 C177 1.419 . S
C176 C174 1.415 . S
C176 C181 1.425 . S
C176 C183 1.409 . S
C177 H169 0.930 . S
C177 C175 1.419 . S
C177 C178 1.362 . S
C178 H170 0.930 . S
C178 C177 1.362 . S
C178 C181 1.409 . S
C179 H171 0.930 . S
C179 C180 1.355 . S
C179 C181 1.415 . S
C180 C179 1.355 . S
C180 C182 1.419 . S
C181 C176 1.425 . S
C181 C178 1.409 . S
C181 C179 1.415 . S
C182 H172 0.930 . S
C182 C180 1.419 . S
C182 C183 1.362 . S
C183 H173 0.930 . S
C183 C176 1.409 . S
C183 C182 1.362 . S
H184 C190 0.930 . S
H185 C193 0.930 . S
H186 C194 0.930 . S
H187 C195 0.930 . S
H188 C198 0.930 . S
H189 C199 0.930 . S
C190 H184 0.930 . S
C190 C191 1.355 . S
C190 C192 1.415 . S
C191 C190 1.355 . S
C191 C193 1.419 . S
C192 C190 1.415 . S
C192 C197 1.425 . S
C192 C199 1.409 . S
C193 H185 0.930 . S
C193 C191 1.419 . S
C193 C194 1.362 . S
C194 H186 0.930 . S
C194 C193 1.362 . S
C194 C197 1.409 . S
C195 H187 0.930 . S
C195 C196 1.355 . S
C195 C197 1.415 . S
C196 C195 1.355 . S
C196 C198 1.419 . S
C197 C192 1.425 . S
C197 C194 1.409 . S
C197 C195 1.415 . S
C198 H188 0.930 . S
C198 C196 1.419 . S
C198 C199 1.362 . S
C199 H189 0.930 . S
C199 C192 1.409 . S
C199 C198 1.362 . S
H200 C206 0.930 . S
H201 C209 0.930 . S
H202 C210 0.930 . S
H203 C211 0.930 . S
H204 C214 0.930 . S
H205 C215 0.930 . S
C206 H200 0.930 . S
C206 C207 1.355 . S
C206 C208 1.415 . S
C207 C206 1.355 . S
C207 C209 1.419 . S
C208 C206 1.415 . S
C208 C213 1.425 . S
C208 C215 1.409 . S
C209 H201 0.930 . S
C209 C207 1.419 . S
C209 C210 1.362 . S
C210 H202 0.930 . S
C210 C209 1.362 . S
C210 C213 1.409 . S
C211 H203 0.930 . S
C211 C212 1.355 . S
C211 C213 1.415 . S
C212 C211 1.355 . S
C212 C214 1.419 . S
C213 C208 1.425 . S
C213 C210 1.409 . S
C213 C211 1.415 . S
C214 H204 0.930 . S
C214 C212 1.419 . S
C214 C215 1.362 . S
C215 H205 0.930 . S
C215 C208 1.409 . S
C215 C214 1.362 . S
H216 C222 0.930 . S
H217 C225 0.930 . S
H218 C226 0.930 . S
H219 C227 0.930 . S
H220 C230 0.930 . S
H221 C231 0.930 . S
C222 H216 0.930 . S
C222 C223 1.355 . S
C222 C224 1.415 . S
C223 C222 1.355 . S
C223 C225 1.419 . S
C224 C222 1.415 . S
C224 C229 1.425 . S
C224 C231 1.409 . S
C225 H217 0.930 . S
C225 C223 1.419 . S
C225 C226 1.362 . S
C226 H218 0.930 . S
C226 C225 1.362 . S
C226 C229 1.409 . S
C227 H219 0.930 . S
C227 C228 1.355 . S
C227 C229 1.415 . S
C228 C227 1.355 . S
C228 C230 1.419 . S
C229 C224 1.425 . S
C229 C226 1.409 . S
C229 C227 1.415 . S
C230 H220 0.930 . S
C230 C228 1.419 . S
C230 C231 1.362 . S
C231 H221 0.930 . S
C231 C224 1.409 . S
C231 C230 1.362 . S
H232 C238 0.930 . S
H233 C241 0.930 . S
H234 C242 0.930 . S
H235 C243 0.930 . S
H236 C246 0.930 . S
H237 C247 0.930 . S
C238 H232 0.930 . S
C238 C239 1.355 . S
C238 C240 1.415 . S
C239 C238 1.355 . S
C239 C241 1.419 . S
C240 C238 1.415 . S
C240 C245 1.425 . S
C240 C247 1.409 . S
C241 H233 0.930 . S
C241 C239 1.419 . S
C241 C242 1.362 . S
C242 H234 0.930 . S
C242 C241 1.362 . S
C242 C245 1.409 . S
C243 H235 0.930 . S
C243 C244 1.355 . S
C243 C245 1.415 . S
C244 C243 1.355 . S
C244 C246 1.419 . S
C245 C240 1.425 . S
C245 C242 1.409 . S
C245 C243 1.415 . S
C246 H236 0.930 . S
C246 C244 1.419 . S
C246 C247 1.362 . S
C247 H237 0.930 . S
C247 C240 1.409 . S
C247 C246 1.362 . S
H248 C254 0.930 . S
H249 C257 0.930 . S
H250 C258 0.930 . S
H251 C259 0.930 . S
H252 C262 0.930 . S
H253 C263 0.930 . S
C254 H248 0.930 . S
C254 C255 1.355 . S
C254 C256 1.415 . S
C255 C254 1.355 . S
C255 C257 1.419 . S
C256 C254 1.415 . S
C256 C261 1.425 . S
C256 C263 1.409 . S
C257 H249 0.930 . S
C257 C255 1.419 . S
C257 C258 1.362 . S
C258 H250 0.930 . S
C258 C257 1.362 . S
C258 C261 1.409 . S
C259 H251 0.930 . S
C259 C260 1.355 . S
C259 C261 1.415 . S
C260 C259 1.355 . S
C260 C262 1.419 . S
C261 C256 1.425 . S
C261 C258 1.409 . S
C261 C259 1.415 . S
C262 H252 0.930 . S
C262 C260 1.419 . S
C262 C263 1.362 . S
C263 H253 0.930 . S
C263 C256 1.409 . S
C263 C262 1.362 . S
H264 C270 0.930 . S
H265 C273 0.930 . S
H266 C274 0.929 . S
H267 C275 0.930 . S
H268 C278 0.930 . S
H269 C279 0.925 1_554 S
C270 H264 0.930 . S
C270 C271 1.355 . S
C270 C272 1.425 . S
C271 C270 1.355 . S
C271 C273 1.419 . S
C272 C270 1.425 . S
C272 C277 1.420 1_554 S
C272 C279 1.404 1_544 S
C273 H265 0.930 . S
C273 C271 1.419 . S
C273 C274 1.364 1_554 S
C274 H266 0.929 . S
C274 C273 1.364 1_556 S
C274 C277 1.409 . S
C275 H267 0.930 . S
C275 C276 1.355 . S
C275 C277 1.411 1_565 S
C276 C275 1.355 . S
C276 C278 1.419 . S
C277 C272 1.420 1_556 S
C277 C274 1.409 . S
C277 C275 1.411 1_545 S
C278 H268 0.930 . S
C278 C276 1.419 . S
C278 C279 1.370 . S
C279 H269 0.925 1_556 S
C279 C272 1.404 1_566 S
C279 C278 1.370 . S
H280 C286 0.930 . S
H281 C289 0.930 . S
H282 C290 0.930 . S
H283 C291 0.930 . S
H284 C294 0.930 . S
H285 C295 0.930 . S
C286 H280 0.930 . S
C286 C287 1.355 . S
C286 C288 1.415 . S
C287 C286 1.355 . S
C287 C289 1.419 . S
C288 C286 1.415 . S
C288 C293 1.425 . S
C288 C295 1.409 . S
C289 H281 0.930 . S
C289 C287 1.419 . S
C289 C290 1.362 . S
C290 H282 0.930 . S
C290 C289 1.362 . S
C290 C293 1.409 . S
C291 H283 0.930 . S
C291 C292 1.355 . S
C291 C293 1.415 . S
C292 C291 1.355 . S
C292 C294 1.419 . S
C293 C288 1.425 . S
C293 C290 1.409 . S
C293 C291 1.415 . S
C294 H284 0.930 . S
C294 C292 1.419 . S
C294 C295 1.362 . S
C295 H285 0.930 . S
C295 C288 1.409 . S
C295 C294 1.362 . S
H296 C302 0.930 . S
H297 C305 0.928 1_655 S
H298 C306 0.930 . S
H299 C307 0.930 . S
H300 C310 0.930 1_455 S
H301 C311 0.930 . S
C302 H296 0.930 . S
C302 C303 1.355 . S
C302 C304 1.415 1_556 S
C303 C302 1.355 . S
C303 C305 1.419 . S
C304 C302 1.415 1_554 S
C304 C309 1.425 1_454 S
C304 C311 1.409 . S
C305 H297 0.928 1_455 S
C305 C303 1.419 . S
C305 C306 1.362 1_455 S
C306 H298 0.930 . S
C306 C305 1.362 1_655 S
C306 C309 1.409 . S
C307 H299 0.930 . S
C307 C308 1.355 . S
C307 C309 1.415 1_554 S
C308 C307 1.355 . S
C308 C310 1.419 . S
C309 C304 1.425 1_656 S
C309 C306 1.409 . S
C309 C307 1.415 1_556 S
C310 H300 0.930 1_655 S
C310 C308 1.419 . S
C310 C311 1.362 1_655 S
C311 H301 0.930 . S
C311 C304 1.409 . S
C311 C310 1.362 1_455 S
H312 C318 0.930 1_565 S
H313 C321 0.930 . S
H314 C322 0.930 . S
H315 C323 0.930 1_545 S
H316 C326 0.930 . S
H317 C327 0.930 . S
C318 H312 0.930 1_545 S
C318 C319 1.355 . S
C318 C320 1.415 1_545 S
C319 C318 1.355 . S
C319 C321 1.419 . S
C320 C318 1.415 1_565 S
C320 C325 1.425 1_565 S
C320 C327 1.409 . S
C321 H313 0.930 . S
C321 C319 1.419 . S
C321 C322 1.362 . S
C322 H314 0.930 . S
C322 C321 1.362 . S
C322 C325 1.409 . S
C323 H315 0.930 1_565 S
C323 C324 1.355 . S
C323 C325 1.415 1_565 S
C324 C323 1.355 . S
C324 C326 1.419 . S
C325 C320 1.425 1_545 S
C325 C322 1.409 . S
C325 C323 1.415 1_545 S
C326 H316 0.930 . S
C326 C324 1.419 . S
C326 C327 1.362 . S
C327 H317 0.930 . S
C327 C320 1.409 . S
C327 C326 1.362 . S
H328 C334 0.930 . S
H329 C337 0.930 . S
H330 C338 0.930 . S
H331 C339 0.930 . S
H332 C342 0.930 . S
H333 C343 0.930 . S
C334 H328 0.930 . S
C334 C335 1.355 . S
C334 C336 1.415 . S
C335 C334 1.355 . S
C335 C337 1.419 . S
C336 C334 1.415 . S
C336 C341 1.425 1_556 S
C336 C343 1.409 . S
C337 H329 0.930 . S
C337 C335 1.419 . S
C337 C338 1.362 1_556 S
C338 H330 0.930 . S
C338 C337 1.362 1_554 S
C338 C341 1.409 . S
C339 H331 0.930 . S
C339 C340 1.355 . S
C339 C341 1.415 . S
C340 C339 1.355 . S
C340 C342 1.419 . S
C341 C336 1.425 1_554 S
C341 C338 1.409 . S
C341 C339 1.415 . S
C342 H332 0.930 . S
C342 C340 1.419 . S
C342 C343 1.362 1_554 S
C343 H333 0.930 . S
C343 C336 1.409 . S
C343 C342 1.362 1_556 S
H344 C350 0.930 . S
H345 C353 0.930 . S
H346 C354 0.930 . S
H347 C355 0.930 . S
H348 C358 0.930 . S
H349 C359 0.930 . S
C350 H344 0.930 . S
C350 C351 1.355 . S
C350 C352 1.415 . S
C351 C350 1.355 . S
C351 C353 1.419 . S
C352 C350 1.415 . S
C352 C357 1.425 1_655 S
C352 C359 1.409 . S
C353 H345 0.930 . S
C353 C351 1.419 . S
C353 C354 1.362 1_655 S
C354 H346 0.930 . S
C354 C353 1.362 1_455 S
C354 C357 1.409 . S
C355 H347 0.930 . S
C355 C356 1.355 . S
C355 C357 1.415 . S
C356 C355 1.355 . S
C356 C358 1.419 . S
C357 C352 1.425 1_455 S
C357 C354 1.409 . S
C357 C355 1.415 . S
C358 H348 0.930 . S
C358 C356 1.419 . S
C358 C359 1.362 1_455 S
C359 H349 0.930 . S
C359 C352 1.409 . S
C359 C358 1.362 1_655 S
H360 C366 0.930 . S
H361 C369 0.930 . S
H362 C370 0.930 . S
H363 C371 0.930 . S
H364 C374 0.930 . S
H365 C375 0.930 . S
C366 H360 0.930 . S
C366 C367 1.355 . S
C366 C368 1.415 . S
C367 C366 1.355 . S
C367 C369 1.419 . S
C368 C366 1.415 . S
C368 C373 1.425 . S
C368 C375 1.409 . S
C369 H361 0.930 . S
C369 C367 1.419 . S
C369 C370 1.362 . S
C370 H362 0.930 . S
C370 C369 1.362 . S
C370 C373 1.409 . S
C371 H363 0.930 . S
C371 C372 1.355 . S
C371 C373 1.415 . S
C372 C371 1.355 . S
C372 C374 1.419 . S
C373 C368 1.425 . S
C373 C370 1.409 . S
C373 C371 1.415 . S
C374 H364 0.930 . S
C374 C372 1.419 . S
C374 C375 1.362 . S
C375 H365 0.930 . S
C375 C368 1.409 . S
C375 C374 1.362 . S
H376 C382 0.930 . S
H377 C385 0.930 . S
H378 C386 0.930 . S
H379 C387 0.930 . S
H380 C390 0.930 . S
H381 C391 0.930 . S
C382 H376 0.930 . S
C382 C383 1.355 . S
C382 C384 1.415 . S
C383 C382 1.355 . S
C383 C385 1.419 . S
C384 C382 1.415 . S
C384 C389 1.425 . S
C384 C391 1.409 . S
C385 H377 0.930 . S
C385 C383 1.419 . S
C385 C386 1.362 . S
C386 H378 0.930 . S
C386 C385 1.362 . S
C386 C389 1.409 . S
C387 H379 0.930 . S
C387 C388 1.355 . S
C387 C389 1.415 . S
C388 C387 1.355 . S
C388 C390 1.419 . S
C389 C384 1.425 . S
C389 C386 1.409 . S
C389 C387 1.415 . S
C390 H380 0.930 . S
C390 C388 1.419 . S
C390 C391 1.362 . S
C391 H381 0.930 . S
C391 C384 1.409 . S
C391 C390 1.362 . S
H392 C398 0.930 . S
H393 C401 0.930 . S
H394 C402 0.930 . S
H395 C403 0.930 . S
H396 C406 0.930 . S
H397 C407 0.930 . S
C398 H392 0.930 . S
C398 C399 1.355 . S
C398 C400 1.415 . S
C399 C398 1.355 . S
C399 C401 1.419 . S
C400 C398 1.415 . S
C400 C405 1.425 . S
C400 C407 1.409 . S
C401 H393 0.930 . S
C401 C399 1.419 . S
C401 C402 1.362 . S
C402 H394 0.930 . S
C402 C401 1.362 . S
C402 C405 1.409 . S
C403 H395 0.930 . S
C403 C404 1.355 . S
C403 C405 1.415 . S
C404 C403 1.355 . S
C404 C406 1.419 . S
C405 C400 1.425 . S
C405 C402 1.409 . S
C405 C403 1.415 . S
C406 H396 0.930 . S
C406 C404 1.419 . S
C406 C407 1.362 . S
C407 H397 0.930 . S
C407 C400 1.409 . S
C407 C406 1.362 . S
H408 C414 0.930 . S
H409 C417 0.930 . S
H410 C418 0.930 . S
H411 C419 0.930 . S
H412 C422 0.930 . S
H413 C423 0.930 . S
C414 H408 0.930 . S
C414 C415 1.355 . S
C414 C416 1.415 . S
C415 C414 1.355 . S
C415 C417 1.419 . S
C416 C414 1.415 . S
C416 C421 1.425 . S
C416 C423 1.409 . S
C417 H409 0.930 . S
C417 C415 1.419 . S
C417 C418 1.362 . S
C418 H410 0.930 . S
C418 C417 1.362 . S
C418 C421 1.409 . S
C419 H411 0.930 . S
C419 C420 1.355 . S
C419 C421 1.415 . S
C420 C419 1.355 . S
C420 C422 1.419 . S
C421 C416 1.425 . S
C421 C418 1.409 . S
C421 C419 1.415 . S
C422 H412 0.930 . S
C422 C420 1.419 . S
C422 C423 1.362 . S
C423 H413 0.930 . S
C423 C416 1.409 . S
C423 C422 1.362 . S
H424 C430 0.930 . S
H425 C433 0.930 . S
H426 C434 0.930 . S
H427 C435 0.930 . S
H428 C438 0.930 . S
H429 C439 0.930 . S
C430 H424 0.930 . S
C430 C431 1.355 . S
C430 C432 1.415 . S
C431 C430 1.355 . S
C431 C433 1.419 . S
C432 C430 1.415 . S
C432 C437 1.425 . S
C432 C439 1.409 . S
C433 H425 0.930 . S
C433 C431 1.419 . S
C433 C434 1.362 . S
C434 H426 0.930 . S
C434 C433 1.362 . S
C434 C437 1.409 . S
C435 H427 0.930 . S
C435 C436 1.355 . S
C435 C437 1.415 . S
C436 C435 1.355 . S
C436 C438 1.419 . S
C437 C432 1.425 . S
C437 C434 1.409 . S
C437 C435 1.415 . S
C438 H428 0.930 . S
C438 C436 1.419 . S
C438 C439 1.362 . S
C439 H429 0.930 . S
C439 C432 1.409 . S
C439 C438 1.362 . S
H440 C446 0.930 . S
H441 C449 0.930 . S
H442 C450 0.930 . S
H443 C451 0.930 . S
H444 C454 0.930 . S
H445 C455 0.930 . S
C446 H440 0.930 . S
C446 C447 1.355 . S
C446 C448 1.415 . S
C447 C446 1.355 . S
C447 C449 1.419 . S
C448 C446 1.415 . S
C448 C453 1.425 . S
C448 C455 1.409 . S
C449 H441 0.930 . S
C449 C447 1.419 . S
C449 C450 1.362 . S
C450 H442 0.930 . S
C450 C449 1.362 . S
C450 C453 1.409 . S
C451 H443 0.930 . S
C451 C452 1.355 . S
C451 C453 1.415 . S
C452 C451 1.355 . S
C452 C454 1.419 . S
C453 C448 1.425 . S
C453 C450 1.409 . S
C453 C451 1.415 . S
C454 H444 0.930 . S
C454 C452 1.419 . S
C454 C455 1.362 . S
C455 H445 0.930 . S
C455 C448 1.409 . S
C455 C454 1.362 . S
H456 C462 0.930 . S
H457 C465 0.930 . S
H458 C466 0.930 . S
H459 C467 0.930 . S
H460 C470 0.930 . S
H461 C471 0.930 . S
C462 H456 0.930 . S
C462 C463 1.355 . S
C462 C464 1.415 . S
C463 C462 1.355 . S
C463 C465 1.419 . S
C464 C462 1.415 . S
C464 C469 1.425 . S
C464 C471 1.409 . S
C465 H457 0.930 . S
C465 C463 1.419 . S
C465 C466 1.362 . S
C466 H458 0.930 . S
C466 C465 1.362 . S
C466 C469 1.409 . S
C467 H459 0.930 . S
C467 C468 1.355 . S
C467 C469 1.415 . S
C468 C467 1.355 . S
C468 C470 1.419 . S
C469 C464 1.425 . S
C469 C466 1.409 . S
C469 C467 1.415 . S
C470 H460 0.930 . S
C470 C468 1.419 . S
C470 C471 1.362 . S
C471 H461 0.930 . S
C471 C464 1.409 . S
C471 C470 1.362 . S
H472 C478 0.930 . S
H473 C481 0.930 . S
H474 C482 0.930 . S
H475 C483 0.930 . S
H476 C486 0.930 . S
H477 C487 0.930 . S
C478 H472 0.930 . S
C478 C479 1.355 . S
C478 C480 1.415 . S
C479 C478 1.355 . S
C479 C481 1.419 . S
C480 C478 1.415 . S
C480 C485 1.425 . S
C480 C487 1.409 . S
C481 H473 0.930 . S
C481 C479 1.419 . S
C481 C482 1.362 . S
C482 H474 0.930 . S
C482 C481 1.362 . S
C482 C485 1.409 . S
C483 H475 0.930 . S
C483 C484 1.355 . S
C483 C485 1.415 . S
C484 C483 1.355 . S
C484 C486 1.419 . S
C485 C480 1.425 . S
C485 C482 1.409 . S
C485 C483 1.415 . S
C486 H476 0.930 . S
C486 C484 1.419 . S
C486 C487 1.362 . S
C487 H477 0.930 . S
C487 C480 1.409 . S
C487 C486 1.362 . S
H488 C494 0.930 . S
H489 C497 0.930 . S
H490 C498 0.930 . S
H491 C499 0.930 . S
H492 C502 0.930 . S
H493 C503 0.930 . S
C494 H488 0.930 . S
C494 C495 1.355 . S
C494 C496 1.415 . S
C495 C494 1.355 . S
C495 C497 1.419 . S
C496 C494 1.415 . S
C496 C501 1.425 . S
C496 C503 1.409 . S
C497 H489 0.930 . S
C497 C495 1.419 . S
C497 C498 1.362 . S
C498 H490 0.930 . S
C498 C497 1.362 . S
C498 C501 1.409 . S
C499 H491 0.930 . S
C499 C500 1.355 . S
C499 C501 1.415 . S
C500 C499 1.355 . S
C500 C502 1.419 . S
C501 C496 1.425 . S
C501 C498 1.409 . S
C501 C499 1.415 . S
C502 H492 0.930 . S
C502 C500 1.419 . S
C502 C503 1.362 . S
C503 H493 0.930 . S
C503 C496 1.409 . S
C503 C502 1.362 . S
H504 C510 0.930 . S
H505 C513 0.930 . S
H506 C514 0.930 . S
H507 C515 0.930 . S
H508 C518 0.930 . S
H509 C519 0.930 . S
C510 H504 0.930 . S
C510 C511 1.355 . S
C510 C512 1.415 . S
C511 C510 1.355 . S
C511 C513 1.419 . S
C512 C510 1.415 . S
C512 C517 1.425 . S
C512 C519 1.409 . S
C513 H505 0.930 . S
C513 C511 1.419 . S
C513 C514 1.362 . S
C514 H506 0.930 . S
C514 C513 1.362 . S
C514 C517 1.409 . S
C515 H507 0.930 . S
C515 C516 1.355 . S
C515 C517 1.415 . S
C516 C515 1.355 . S
C516 C518 1.419 . S
C517 C512 1.425 . S
C517 C514 1.409 . S
C517 C515 1.415 . S
C518 H508 0.930 . S
C518 C516 1.419 . S
C518 C519 1.362 . S
C519 H509 0.930 . S
C519 C512 1.409 . S
C519 C518 1.362 . S
H520 C526 0.930 . S
H521 C529 0.930 . S
H522 C530 0.930 . S
H523 C531 0.930 . S
H524 C534 0.930 . S
H525 C535 0.930 . S
C526 H520 0.930 . S
C526 C527 1.355 . S
C526 C528 1.415 . S
C527 C526 1.355 . S
C527 C529 1.419 . S
C528 C526 1.415 . S
C528 C533 1.425 . S
C528 C535 1.409 . S
C529 H521 0.930 . S
C529 C527 1.419 . S
C529 C530 1.362 . S
C530 H522 0.930 . S
C530 C529 1.362 . S
C530 C533 1.409 . S
C531 H523 0.930 . S
C531 C532 1.355 . S
C531 C533 1.415 . S
C532 C531 1.355 . S
C532 C534 1.419 . S
C533 C528 1.425 . S
C533 C530 1.409 . S
C533 C531 1.415 . S
C534 H524 0.930 . S
C534 C532 1.419 . S
C534 C535 1.362 . S
C535 H525 0.930 . S
C535 C528 1.409 . S
C535 C534 1.362 . S
H536 C542 0.930 . S
H537 C545 0.930 . S
H538 C546 0.930 . S
H539 C547 0.930 . S
H540 C550 0.930 . S
H541 C551 0.930 . S
C542 H536 0.930 . S
C542 C543 1.355 . S
C542 C544 1.415 . S
C543 C542 1.355 . S
C543 C545 1.419 . S
C544 C542 1.415 . S
C544 C549 1.425 . S
C544 C551 1.409 . S
C545 H537 0.930 . S
C545 C543 1.419 . S
C545 C546 1.362 . S
C546 H538 0.930 . S
C546 C545 1.362 . S
C546 C549 1.409 . S
C547 H539 0.930 . S
C547 C548 1.355 . S
C547 C549 1.415 . S
C548 C547 1.355 . S
C548 C550 1.419 . S
C549 C544 1.425 . S
C549 C546 1.409 . S
C549 C547 1.415 . S
C550 H540 0.930 . S
C550 C548 1.419 . S
C550 C551 1.362 . S
C551 H541 0.930 . S
C551 C544 1.409 . S
C551 C550 1.362 . S
C175 C151 1.273 . S
C180 C11 1.364 . S
C191 C25 1.237 . S
C196 C165 1.335 . S
C207 C39 1.287 . S
C212 C95 1.349 . S
C223 C109 1.292 . S
C228 C53 1.343 . S
C239 C123 1.237 . S
C244 C67 1.333 . S
C255 C81 1.351 . S
C260 C137 1.293 . S
C271 C5 0.969 . S
C276 C103 0.813 . S
C287 C19 0.842 . S
C292 C117 0.844 . S
C303 C131 0.834 . S
C308 C33 0.858 . S
C319 C145 0.991 . S
C324 C47 0.819 . S
C335 C159 0.952 . S
C340 C61 0.891 . S
C351 C89 0.885 . S
C356 C75 0.822 . S
C367 C12 0.997 . S
C372 C60 1.024 . S
C383 C26 1.067 . S
C388 C74 0.903 . S
C399 C40 1.053 . S
C404 C4 0.898 . S
C415 C54 1.066 . S
C420 C18 0.889 . S
C431 C68 1.046 . S
C436 C32 0.989 . S
C447 C82 1.071 . S
C452 C46 0.893 . S
C463 C96 1.013 . S
C468 C116 0.976 . S
C479 C110 1.052 . S
C484 C130 0.899 . S
C495 C144 0.907 . S
C500 C124 1.071 . S
C511 C138 1.058 . S
C516 C158 0.888 . S
C527 C152 1.061 . S
C532 C88 0.938 . S
C543 C166 1.070 . S
C548 C102 0.925 . S
