# Generated by pormake.
# Topology bsn, (6)-cn, num edge types: 1
# Building blocks:
#     Node 0, Type 0, BuildingBlock: MIDCAF_clean_sbu_0, # of connection points: 6
#     Node 1, Type 0, BuildingBlock: MIDCAF_clean_sbu_0, # of connection points: 6
#     Node 2, Type 0, BuildingBlock: MIDCAF_clean_sbu_0, # of connection points: 6
#     Node 3, Type 0, BuildingBlock: MIDCAF_clean_sbu_0, # of connection points: 6
#     Edge 4, Type (0, 0), BuildingBlock: EZIPEK_clean_linker_0, # of connection points: 2
#     Edge 5, Type (0, 0), BuildingBlock: EZIPEK_clean_linker_0, # of connection points: 2
#     Edge 6, Type (0, 0), BuildingBlock: EZIPEK_clean_linker_0, # of connection points: 2
#     Edge 7, Type (0, 0), BuildingBlock: EZIPEK_clean_linker_0, # of connection points: 2
#     Edge 8, Type (0, 0), BuildingBlock: EZIPEK_clean_linker_0, # of connection points: 2
#     Edge 9, Type (0, 0), BuildingBlock: EZIPEK_clean_linker_0, # of connection points: 2
#     Edge 10, Type (0, 0), BuildingBlock: EZIPEK_clean_linker_0, # of connection points: 2
#     Edge 11, Type (0, 0), BuildingBlock: EZIPEK_clean_linker_0, # of connection points: 2
#     Edge 12, Type (0, 0), BuildingBlock: EZIPEK_clean_linker_0, # of connection points: 2
#     Edge 13, Type (0, 0), BuildingBlock: EZIPEK_clean_linker_0, # of connection points: 2
#     Edge 14, Type (0, 0), BuildingBlock: EZIPEK_clean_linker_0, # of connection points: 2
#     Edge 15, Type (0, 0), BuildingBlock: EZIPEK_clean_linker_0, # of connection points: 2
# Relax obj value: 0.106
# Max RMSD: 0.165
# Mean RMSD: 0.164
data_MOF--net-bsn--node1-MIDCAF_clean_sbu_0--edge1-EZIPEK_clean_linker_0
_symmetry_space_group_name_H-M    P1
_symmetry_Int_Tables_number       1
_symmetry_cell_setting            triclinic
loop_
_symmetry_equiv_pos_as_xyz
'x, y, z'
_cell_length_a     22.216092
_cell_length_b     22.215401
_cell_length_c     11.572405
_cell_angle_alpha  90.525911
_cell_angle_beta   99.056225
_cell_angle_gamma 89.780253
loop_
_atom_site_label
_atom_site_type_symbol
_atom_site_fract_x
_atom_site_fract_y
_atom_site_fract_z
_atom_type_partial_charge
Zn0 Zn 0.96289 0.17964 0.3102 0.0
Zn1 Zn 0.10069 0.32658 0.51041 0.0
Zn2 Zn 0.03087 0.26162 0.40159 0.0
C3 C 0.01676 0.39893 0.37512 0.0
C4 C 0.1687 0.26784 0.38031 0.0
O5 O 0.03663 0.18632 0.52815 0.0
O6 O 0.99712 0.11279 0.41064 0.0
C7 C 0.88817 0.27711 0.32498 0.0
O8 O 0.9855 0.35024 0.37608 0.0
O9 O 0.07294 0.39812 0.41586 0.0
O10 O 0.17606 0.28527 0.48537 0.0
O11 O 0.11448 0.26245 0.32252 0.0
O12 O 0.88503 0.22039 0.3285 0.0
O13 O 0.94054 0.30324 0.34151 0.0
O14 O 0.06781 0.23591 0.24436 0.0
O15 O 0.98772 0.18651 0.15372 0.0
C16 C 0.03854 0.21114 0.15143 0.0
O17 O 0.04856 0.23782 0.59122 0.0
O18 O 0.08395 0.32413 0.67016 0.0
C19 C 0.02658 0.12985 0.50733 0.0
C20 C 0.06499 0.27155 0.68205 0.0
Zn21 Zn 0.94363 0.82792 0.44988 0.0
Zn22 Zn 0.08556 0.68 0.64548 0.0
Zn23 Zn 0.01546 0.76195 0.5559 0.0
C24 C 0.1583 0.77887 0.62967 0.0
C25 C 0.02132 0.62982 0.44697 0.0
O26 O 0.93306 0.76295 0.63867 0.0
O27 O 0.86884 0.78896 0.48173 0.0
C28 C 0.03031 0.89999 0.58114 0.0
O29 O 0.10554 0.80443 0.61307 0.0
O30 O 0.1624 0.72213 0.62776 0.0
O31 O 0.05224 0.61316 0.54209 0.0
O32 O 0.00968 0.68609 0.42834 0.0
O33 O 0.97394 0.90018 0.54205 0.0
O34 O 0.06065 0.85051 0.5803 0.0
O35 O 0.99676 0.73728 0.36617 0.0
O36 O 0.9583 0.82232 0.28854 0.0
C37 C 0.97878 0.77015 0.27585 0.0
O38 O 0.98036 0.73615 0.71425 0.0
O39 O 0.06056 0.68606 0.80215 0.0
C40 C 0.87816 0.76985 0.58511 0.0
C41 C 0.0097 0.71079 0.80577 0.0
Zn42 Zn 0.46245 0.66349 0.77455 0.0
Zn43 Zn 0.61728 0.81075 -0.01646 0.0
Zn44 Zn 0.5371 0.74394 0.87599 0.0
C45 C 0.58428 0.7466 0.15669 0.0
C46 C 0.5215 0.88338 0.87365 0.0
O47 O 0.57051 0.71664 0.71491 0.0
O48 O 0.49084 0.66775 0.62039 0.0
C49 C 0.52457 0.61286 0.97756 0.0
O50 O 0.55797 0.71842 0.06448 0.0
O51 O 0.61222 0.79509 0.14738 0.0
O52 O 0.57778 0.88483 0.91338 0.0
O53 O 0.4931 0.83278 0.86267 0.0
O54 O 0.49317 0.59753 0.88145 0.0
O55 O 0.53956 0.66827 -0.00176 0.0
O56 O 0.44785 0.78899 0.82193 0.0
O57 O 0.38717 0.70981 0.7888 0.0
C58 C 0.39408 0.7662 0.79686 0.0
O59 O 0.61773 0.74409 0.78783 0.0
O60 O 0.68953 0.78102 0.9241 0.0
C61 C 0.54226 0.69171 0.62104 0.0
C62 C 0.67403 0.75626 0.82575 0.0
Zn63 Zn 0.58437 0.16301 0.18005 0.0
Zn64 Zn 0.42687 0.3127 0.97755 0.0
Zn65 Zn 0.50866 0.24525 0.08727 0.0
C66 C 0.45918 0.24449 0.80628 0.0
C67 C 0.52437 0.38462 0.08561 0.0
O68 O 0.47983 0.2204 0.25398 0.0
O69 O 0.55593 0.16221 0.33396 0.0
C70 C 0.5217 0.11276 0.9783 0.0
O71 O 0.48469 0.21772 0.90006 0.0
O72 O 0.4319 0.29389 0.81284 0.0
O73 O 0.4679 0.38666 0.04762 0.0
O74 O 0.55235 0.3337 0.09595 0.0
O75 O 0.55715 0.0972 0.06913 0.0
O76 O 0.50366 0.16776 0.96471 0.0
O77 O 0.59781 0.29047 0.13468 0.0
O78 O 0.65869 0.21149 0.17109 0.0
C79 C 0.65157 0.26776 0.16066 0.0
O80 O 0.43111 0.2465 0.18101 0.0
O81 O 0.3579 0.2812 0.04549 0.0
C82 C 0.50762 0.19095 0.34203 0.0
C83 C 0.37458 0.25787 0.14421 0.0
C84 C 0.94478 0.48625 0.38542 0.0
C85 C 0.9908 0.45793 0.33174 0.0
C86 C 0.03125 0.55642 0.28901 0.0
C87 C 0.99465 0.58244 0.36478 0.0
N88 N 0.90088 0.58102 0.44105 0.0
N89 N 0.06105 0.46542 0.19422 0.0
C90 C 0.94524 0.55011 0.39622 0.0
C91 C 0.02735 0.49333 0.268 0.0
N92 N 0.90441 0.45234 0.43391 0.0
N93 N 0.07266 0.59159 0.24591 0.0
H94 H 0.06008 0.41885 0.1824 0.0
H95 H 0.08666 0.48799 0.14046 0.0
H96 H 0.07399 0.63814 0.25977 0.0
H97 H 0.10525 0.57533 0.19805 0.0
H98 H 0.87441 0.46976 0.4863 0.0
H99 H 0.90108 0.40606 0.42147 0.0
H100 H 0.86144 0.56146 0.46147 0.0
H101 H 0.90189 0.62795 0.44775 0.0
C102 C 0.72751 0.80381 0.68091 0.0
C103 C 0.71973 0.75253 0.74805 0.0
C104 C 0.81346 0.7084 0.69903 0.0
C105 C 0.82541 0.76352 0.64618 0.0
N106 N 0.8005 0.86867 0.61142 0.0
N107 N 0.75663 0.658 0.83216 0.0
C108 C 0.78409 0.81259 0.64308 0.0
C109 C 0.76301 0.70515 0.76016 0.0
N110 N 0.68126 0.84469 0.65522 0.0
N111 N 0.8487 0.65888 0.68744 0.0
H112 H 0.71865 0.65331 0.87403 0.0
H113 H 0.79042 0.62574 0.85537 0.0
H114 H 0.886 0.65961 0.64304 0.0
H115 H 0.83812 0.61602 0.71387 0.0
H116 H 0.68264 0.87987 0.59675 0.0
H117 H 0.63916 0.84005 0.68325 0.0
H118 H 0.77417 0.90702 0.61863 0.0
H119 H 0.84347 0.87835 0.59087 0.0
C120 C 0.59483 0.4644 0.03674 0.0
C121 C 0.55571 0.44286 0.11245 0.0
C122 C 0.52158 0.54514 0.14756 0.0
C123 C 0.55133 0.56438 0.05543 0.0
N124 N 0.63442 0.55174 0.94805 0.0
N125 N 0.50387 0.46273 0.27533 0.0
C126 C 0.59511 0.52706 0.01383 0.0
C127 C 0.52761 0.48391 0.18185 0.0
N128 N 0.62682 0.42475 0.97901 0.0
N129 N 0.48447 0.58415 0.19509 0.0
H130 H 0.50809 0.41741 0.29881 0.0
H131 H 0.48502 0.49016 0.33375 0.0
H132 H 0.481 0.62942 0.17144 0.0
H133 H 0.45679 0.57173 0.25548 0.0
H134 H 0.65052 0.4368 0.91205 0.0
H135 H 0.62861 0.37897 -0.0027 0.0
H136 H 0.67018 0.52823 0.92009 0.0
H137 H 0.63389 0.59778 0.93053 0.0
C138 C 0.81282 0.30921 0.15616 0.0
C139 C 0.83107 0.30946 0.27915 0.0
C140 C 0.72484 0.3242 0.30448 0.0
C141 C 0.70675 0.30559 0.18709 0.0
N142 N 0.73097 0.28944 -0.00541 0.0
N143 N 0.80605 0.32394 0.47192 0.0
C144 C 0.75001 0.30276 0.10994 0.0
C145 C 0.78759 0.32081 0.35386 0.0
N146 N 0.85609 0.31212 0.08501 0.0
N147 N 0.68164 0.3429 0.36844 0.0
H148 H 0.85207 0.32257 0.50874 0.0
H149 H 0.77604 0.32569 0.53252 0.0
H150 H 0.63586 0.34646 0.33086 0.0
H151 H 0.69183 0.3603 0.45309 0.0
H152 H 0.84635 0.31544 -0.00568 0.0
H153 H 0.90201 0.31671 0.11947 0.0
H154 H 0.76033 0.2801 0.93495 0.0
H155 H 0.68477 0.28615 0.95981 0.0
C156 C 0.32249 0.30086 0.29793 0.0
C157 C 0.32903 0.25221 0.22167 0.0
C158 C 0.23403 0.20826 0.26217 0.0
C159 C 0.22289 0.26184 0.32292 0.0
N160 N 0.25061 0.36507 0.37524 0.0
N161 N 0.29011 0.1614 0.12193 0.0
C162 C 0.26573 0.30968 0.33553 0.0
C163 C 0.2846 0.20617 0.20128 0.0
N164 N 0.36984 0.3395 0.33196 0.0
N165 N 0.19787 0.15897 0.26587 0.0
H166 H 0.32822 0.15726 0.08008 0.0
H167 H 0.25554 0.1307 0.09309 0.0
H168 H 0.16059 0.15878 0.31033 0.0
H169 H 0.20786 0.11688 0.2332 0.0
H170 H 0.36904 0.37231 0.39667 0.0
H171 H 0.41209 0.33498 0.30425 0.0
H172 H 0.27833 0.4028 0.37529 0.0
H173 H 0.20754 0.3754 0.39503 0.0
C174 C 0.32212 0.81549 0.64082 0.0
C175 C 0.33925 0.80382 0.76169 0.0
C176 C 0.23374 0.81964 0.7902 0.0
C177 C 0.21536 0.81265 0.66825 0.0
N178 N 0.2402 0.81328 0.47422 0.0
N179 N 0.31326 0.80063 0.95534 0.0
C180 C 0.25916 0.8153 0.59223 0.0
C181 C 0.29579 0.80947 0.83828 0.0
N182 N 0.36627 0.82388 0.573 0.0
N183 N 0.19114 0.83337 0.85908 0.0
H184 H 0.35879 0.79379 -0.00814 0.0
H185 H 0.28274 0.7977 0.01472 0.0
H186 H 0.14613 0.84229 0.82238 0.0
H187 H 0.2015 0.84214 0.94854 0.0
H188 H 0.35732 0.83553 0.48504 0.0
H189 H 0.4123 0.82459 0.60918 0.0
H190 H 0.26954 0.80856 0.41289 0.0
H191 H 0.194 0.81477 0.43852 0.0
C192 C 0.45072 0.96527 0.9176 0.0
C193 C 0.49116 0.94203 0.84502 0.0
C194 C 0.526 0.04352 0.80967 0.0
C195 C 0.49456 0.06459 0.89875 0.0
N196 N 0.4098 0.05442 0.00185 0.0
N197 N 0.5472 0.95881 0.68741 0.0
C198 C 0.45003 0.02834 0.93869 0.0
C199 C 0.52088 0.98173 0.77719 0.0
N200 N 0.41784 0.92691 0.97452 0.0
N201 N 0.56399 0.08154 0.76383 0.0
H202 H 0.54412 0.91309 0.66579 0.0
H203 H 0.56747 0.98499 0.63017 0.0
H204 H 0.56698 0.12709 0.78693 0.0
H205 H 0.59294 0.06814 0.7059 0.0
H206 H 0.39297 0.94029 0.03941 0.0
H207 H 0.41659 0.88084 0.95783 0.0
H208 H 0.37353 0.03174 0.02859 0.0
H209 H 0.41023 0.10071 0.01838 0.0
C210 C 0.02344 0.99533 0.68983 0.0
C211 C 0.05785 0.95872 0.62269 0.0
C212 C 0.10227 0.04945 0.55416 0.0
C213 C 0.05379 0.08281 0.58851 0.0
N214 N 0.97749 0.09376 0.71156 0.0
N215 N 0.14011 0.95071 0.50992 0.0
C216 C 0.01857 0.05805 0.66712 0.0
C217 C 0.1022 0.9857 0.56411 0.0
N218 N 0.99267 0.9688 0.76887 0.0
N219 N 0.14617 0.07924 0.50738 0.0
H220 H 0.14273 0.9043 0.52001 0.0
H221 H 0.16831 0.96744 0.454 0.0
H222 H 0.14563 0.12615 0.50159 0.0
H223 H 0.18506 0.05873 0.48531 0.0
H224 H 0.96895 0.99254 0.82533 0.0
H225 H 0.99495 0.92246 0.78271 0.0
H226 H 0.94574 0.07793 0.76108 0.0
H227 H 0.97527 0.14006 0.69646 0.0
C228 C 0.08163 0.1856 0.96877 0.0
C229 C 0.05305 0.22727 0.03615 0.0
C230 C 0.0227 0.28932 0.86419 0.0
C231 C 0.05744 0.25203 0.79999 0.0
N232 N 0.12889 0.17011 0.79567 0.0
N233 N 0.00785 0.32526 0.05446 0.0
C234 C 0.08939 0.20138 0.85314 0.0
C235 C 0.02749 0.2813 -0.01409 0.0
N236 N 0.10035 0.13096 0.01438 0.0
N237 N 0.98304 0.3308 0.80798 0.0
H238 H 0.01054 0.32141 0.14478 0.0
H239 H 0.99382 0.36768 0.02307 0.0
H240 H 0.97623 0.33633 0.71739 0.0
H241 H 0.95199 0.35483 0.8493 0.0
H242 H 0.1157 0.09633 0.96503 0.0
H243 H 0.09658 0.11905 0.09996 0.0
H244 H 0.15757 0.13632 0.83463 0.0
H245 H 0.13651 0.18119 0.71182 0.0
C246 C 0.02095 0.7798 0.97558 0.0
C247 C 0.99509 0.72634 0.92187 0.0
C248 C 0.95646 0.70029 0.10162 0.0
C249 C 0.98779 0.75078 0.15789 0.0
N250 N 0.06265 0.82915 0.15707 0.0
N251 N 0.94623 0.63074 0.93652 0.0
C252 C 0.02375 0.78785 0.09729 0.0
C253 C 0.96521 0.68488 -0.01426 0.0
N254 N 0.04263 0.82323 0.91021 0.0
N255 N 0.91674 0.66876 0.15671 0.0
H256 H 0.95077 0.61914 0.85072 0.0
H257 H 0.92983 0.59612 -0.01702 0.0
H258 H 0.90891 0.67932 0.24108 0.0
H259 H 0.8883 0.63514 0.11575 0.0
H260 H 0.05661 0.86551 0.94361 0.0
H261 H 0.0414 0.81936 0.82007 0.0
H262 H 0.09462 0.85297 0.11888 0.0
H263 H 0.06781 0.83487 0.24771 0.0
C264 C 0.54014 0.76992 0.33496 0.0
C265 C 0.57328 0.72922 0.27401 0.0
C266 C 0.58807 0.66219 0.44317 0.0
C267 C 0.56017 0.70606 0.50725 0.0
N268 N 0.52045 0.80681 0.52198 0.0
N269 N 0.63609 0.64064 0.27253 0.0
C270 C 0.53988 0.76164 0.45567 0.0
C271 C 0.59931 0.67624 0.32857 0.0
N272 N 0.50649 0.81508 0.27611 0.0
N273 N 0.60295 0.60716 0.49125 0.0
H274 H 0.64475 0.64976 0.18841 0.0
H275 H 0.66098 0.60444 0.31188 0.0
H276 H 0.59779 0.59687 0.57697 0.0
H277 H 0.61707 0.57093 0.44434 0.0
H278 H 0.47607 0.84195 0.31355 0.0
H279 H 0.50383 0.82171 0.18629 0.0
H280 H 0.5112 0.85027 0.49098 0.0
H281 H 0.5188 0.80279 0.61104 0.0
C282 C 0.43762 0.1838 0.49332 0.0
C283 C 0.49323 0.20302 0.46043 0.0
C284 C 0.52919 0.23904 0.65987 0.0
C285 C 0.47187 0.22433 0.69084 0.0
N286 N 0.3689 0.18864 0.63729 0.0
N287 N 0.58578 0.26139 0.50398 0.0
C288 C 0.42516 0.19842 0.60749 0.0
C289 C 0.53749 0.23376 0.54158 0.0
N290 N 0.39783 0.15027 0.41679 0.0
N291 N 0.57583 0.25857 0.74331 0.0
H292 H 0.59283 0.26065 0.41708 0.0
H293 H 0.61549 0.29035 0.55614 0.0
H294 H 0.5713 0.26642 0.83045 0.0
H295 H 0.62067 0.26244 0.72831 0.0
H296 H 0.35895 0.13015 0.43857 0.0
H297 H 0.40583 0.13934 0.33263 0.0
H298 H 0.33086 0.17633 0.57735 0.0
H299 H 0.35951 0.19601 0.72187 0.0
loop_
_geom_bond_atom_site_label_1
_geom_bond_atom_site_label_2
_geom_bond_distance
_geom_bond_site_symmetry_2
_ccdc_geom_bond_type
Zn0 O6 1.920 . S
Zn0 O12 1.898 . S
Zn0 O15 1.905 . S
Zn1 O9 1.905 . S
Zn1 O10 1.898 . S
Zn1 O18 1.920 . S
Zn2 O5 2.080 . S
Zn2 O8 2.114 . S
Zn2 O11 2.120 . S
Zn2 O13 2.120 1_455 S
Zn2 O14 2.114 . S
Zn2 O17 2.080 . S
C3 O8 1.166 . S
C3 O9 1.182 . S
C4 O10 1.167 . S
C4 O11 1.299 . S
O5 Zn2 2.080 . S
O5 C19 1.305 . S
O6 Zn0 1.920 . S
O6 C19 1.234 1_655 S
C7 O12 1.167 . S
C7 O13 1.299 . S
O8 Zn2 2.114 . S
O8 C3 1.166 . S
O9 Zn1 1.905 . S
O9 C3 1.182 . S
O10 Zn1 1.898 . S
O10 C4 1.167 . S
O11 Zn2 2.120 . S
O11 C4 1.299 . S
O12 Zn0 1.898 . S
O12 C7 1.167 . S
O13 Zn2 2.120 1_655 S
O13 C7 1.299 . S
O14 Zn2 2.114 . S
O14 C16 1.166 . S
O15 Zn0 1.905 . S
O15 C16 1.182 1_655 S
C16 O14 1.166 . S
C16 O15 1.182 1_455 S
O17 Zn2 2.080 . S
O17 C20 1.305 . S
O18 Zn1 1.920 . S
O18 C20 1.234 . S
C19 O5 1.305 . S
C19 O6 1.234 1_455 S
C20 O17 1.305 . S
C20 O18 1.234 . S
Zn21 O27 1.920 . S
Zn21 O33 1.898 . S
Zn21 O36 1.905 . S
Zn22 O30 1.905 . S
Zn22 O31 1.898 . S
Zn22 O39 1.920 . S
Zn23 O26 2.080 1_455 S
Zn23 O29 2.114 . S
Zn23 O32 2.120 . S
Zn23 O34 2.120 . S
Zn23 O35 2.114 . S
Zn23 O38 2.080 . S
C24 O29 1.166 . S
C24 O30 1.182 . S
C25 O31 1.167 . S
C25 O32 1.299 . S
O26 Zn23 2.080 1_655 S
O26 C40 1.305 . S
O27 Zn21 1.920 . S
O27 C40 1.234 . S
C28 O33 1.167 1_455 S
C28 O34 1.299 . S
O29 Zn23 2.114 . S
O29 C24 1.166 . S
O30 Zn22 1.905 . S
O30 C24 1.182 . S
O31 Zn22 1.898 . S
O31 C25 1.167 . S
O32 Zn23 2.120 . S
O32 C25 1.299 . S
O33 Zn21 1.898 . S
O33 C28 1.167 1_655 S
O34 Zn23 2.120 . S
O34 C28 1.299 . S
O35 Zn23 2.114 . S
O35 C37 1.166 1_455 S
O36 Zn21 1.905 . S
O36 C37 1.182 . S
C37 O35 1.166 1_655 S
C37 O36 1.182 . S
O38 Zn23 2.080 . S
O38 C41 1.305 . S
O39 Zn22 1.920 . S
O39 C41 1.234 . S
C40 O26 1.305 . S
C40 O27 1.234 . S
C41 O38 1.305 . S
C41 O39 1.234 . S
Zn42 O48 1.920 . S
Zn42 O54 1.898 . S
Zn42 O57 1.905 . S
Zn43 O51 1.905 . S
Zn43 O52 1.898 . S
Zn43 O60 1.920 1_554 S
Zn44 O47 2.080 . S
Zn44 O50 2.114 1_556 S
Zn44 O53 2.120 . S
Zn44 O55 2.120 . S
Zn44 O56 2.114 . S
Zn44 O59 2.080 . S
C45 O50 1.166 . S
C45 O51 1.182 . S
C46 O52 1.167 1_556 S
C46 O53 1.299 . S
O47 Zn44 2.080 . S
O47 C61 1.305 . S
O48 Zn42 1.920 . S
O48 C61 1.234 . S
C49 O54 1.167 . S
C49 O55 1.299 . S
O50 Zn44 2.114 1_554 S
O50 C45 1.166 . S
O51 Zn43 1.905 . S
O51 C45 1.182 . S
O52 Zn43 1.898 . S
O52 C46 1.167 1_554 S
O53 Zn44 2.120 . S
O53 C46 1.299 . S
O54 Zn42 1.898 . S
O54 C49 1.167 . S
O55 Zn44 2.120 . S
O55 C49 1.299 . S
O56 Zn44 2.114 . S
O56 C58 1.166 . S
O57 Zn42 1.905 . S
O57 C58 1.182 . S
C58 O56 1.166 . S
C58 O57 1.182 . S
O59 Zn44 2.080 . S
O59 C62 1.305 . S
O60 Zn43 1.920 1_556 S
O60 C62 1.234 . S
C61 O47 1.305 . S
C61 O48 1.234 . S
C62 O59 1.305 . S
C62 O60 1.234 . S
Zn63 O69 1.920 . S
Zn63 O75 1.898 . S
Zn63 O78 1.905 . S
Zn64 O72 1.905 . S
Zn64 O73 1.898 . S
Zn64 O81 1.920 1_556 S
Zn65 O68 2.080 . S
Zn65 O71 2.114 1_554 S
Zn65 O74 2.120 . S
Zn65 O76 2.120 . S
Zn65 O77 2.114 . S
Zn65 O80 2.080 . S
C66 O71 1.166 . S
C66 O72 1.182 . S
C67 O73 1.167 1_554 S
C67 O74 1.299 . S
O68 Zn65 2.080 . S
O68 C82 1.305 . S
O69 Zn63 1.920 . S
O69 C82 1.234 . S
C70 O75 1.167 . S
C70 O76 1.299 . S
O71 Zn65 2.114 1_556 S
O71 C66 1.166 . S
O72 Zn64 1.905 . S
O72 C66 1.182 . S
O73 Zn64 1.898 . S
O73 C67 1.167 1_556 S
O74 Zn65 2.120 . S
O74 C67 1.299 . S
O75 Zn63 1.898 . S
O75 C70 1.167 . S
O76 Zn65 2.120 . S
O76 C70 1.299 . S
O77 Zn65 2.114 . S
O77 C79 1.166 . S
O78 Zn63 1.905 . S
O78 C79 1.182 . S
C79 O77 1.166 . S
C79 O78 1.182 . S
O80 Zn65 2.080 . S
O80 C83 1.305 . S
O81 Zn64 1.920 1_554 S
O81 C83 1.234 . S
C82 O68 1.305 . S
C82 O69 1.234 . S
C83 O80 1.305 . S
C83 O81 1.234 . S
C84 C85 1.363 1_655 S
C84 C90 1.379 . S
C84 N92 1.356 . S
C85 C84 1.363 1_455 S
C85 C91 1.363 . S
C86 C87 1.363 . S
C86 C91 1.379 . S
C86 N93 1.356 . S
C87 C86 1.363 . S
C87 C90 1.363 1_455 S
N88 C90 1.356 . S
N88 H100 0.984 . S
N88 H101 0.985 . S
N89 C91 1.356 . S
N89 H94 0.984 . S
N89 H95 0.985 . S
C90 C84 1.379 . S
C90 C87 1.363 1_655 S
C90 N88 1.356 . S
C91 C85 1.363 . S
C91 C86 1.379 . S
C91 N89 1.356 . S
N92 C84 1.356 . S
N92 H98 0.984 . S
N92 H99 0.984 . S
N93 C86 1.356 . S
N93 H96 0.984 . S
N93 H97 0.985 . S
H94 N89 0.984 . S
H95 N89 0.985 . S
H96 N93 0.984 . S
H97 N93 0.985 . S
H98 N92 0.984 . S
H99 N92 0.984 . S
H100 N88 0.984 . S
H101 N88 0.985 . S
C102 C103 1.363 . S
C102 C108 1.379 . S
C102 N110 1.356 . S
C103 C102 1.363 . S
C103 C109 1.363 . S
C104 C105 1.363 . S
C104 C109 1.379 . S
C104 N111 1.356 . S
C105 C104 1.363 . S
C105 C108 1.363 . S
N106 C108 1.356 . S
N106 H118 0.984 . S
N106 H119 0.985 . S
N107 C109 1.356 . S
N107 H112 0.984 . S
N107 H113 0.985 . S
C108 C102 1.379 . S
C108 C105 1.363 . S
C108 N106 1.356 . S
C109 C103 1.363 . S
C109 C104 1.379 . S
C109 N107 1.356 . S
N110 C102 1.356 . S
N110 H116 0.984 . S
N110 H117 0.984 . S
N111 C104 1.356 . S
N111 H114 0.984 . S
N111 H115 0.985 . S
H112 N107 0.984 . S
H113 N107 0.985 . S
H114 N111 0.984 . S
H115 N111 0.985 . S
H116 N110 0.984 . S
H117 N110 0.984 . S
H118 N106 0.984 . S
H119 N106 0.985 . S
C120 C121 1.363 1_556 S
C120 C126 1.379 . S
C120 N128 1.356 . S
C121 C120 1.363 1_554 S
C121 C127 1.363 . S
C122 C123 1.363 1_554 S
C122 C127 1.379 . S
C122 N129 1.356 . S
C123 C122 1.363 1_556 S
C123 C126 1.363 . S
N124 C126 1.356 . S
N124 H136 0.984 . S
N124 H137 0.985 . S
N125 C127 1.356 . S
N125 H130 0.984 . S
N125 H131 0.985 . S
C126 C120 1.379 . S
C126 C123 1.363 . S
C126 N124 1.356 . S
C127 C121 1.363 . S
C127 C122 1.379 . S
C127 N125 1.356 . S
N128 C120 1.356 . S
N128 H134 0.984 . S
N128 H135 0.984 . S
N129 C122 1.356 . S
N129 H132 0.984 . S
N129 H133 0.985 . S
H130 N125 0.984 . S
H131 N125 0.985 . S
H132 N129 0.984 . S
H133 N129 0.985 . S
H134 N128 0.984 . S
H135 N128 0.984 . S
H136 N124 0.984 . S
H137 N124 0.985 . S
C138 C139 1.363 . S
C138 C144 1.379 . S
C138 N146 1.356 . S
C139 C138 1.363 . S
C139 C145 1.363 . S
C140 C141 1.363 . S
C140 C145 1.379 . S
C140 N147 1.356 . S
C141 C140 1.363 . S
C141 C144 1.363 . S
N142 C144 1.356 . S
N142 H154 0.984 . S
N142 H155 0.985 . S
N143 C145 1.356 . S
N143 H148 0.984 . S
N143 H149 0.985 . S
C144 C138 1.379 . S
C144 C141 1.363 . S
C144 N142 1.356 . S
C145 C139 1.363 . S
C145 C140 1.379 . S
C145 N143 1.356 . S
N146 C138 1.356 . S
N146 H152 0.984 . S
N146 H153 0.984 . S
N147 C140 1.356 . S
N147 H150 0.984 . S
N147 H151 0.985 . S
H148 N143 0.984 . S
H149 N143 0.985 . S
H150 N147 0.984 . S
H151 N147 0.985 . S
H152 N146 0.984 . S
H153 N146 0.984 . S
H154 N142 0.984 . S
H155 N142 0.985 . S
C156 C157 1.363 . S
C156 C162 1.379 . S
C156 N164 1.356 . S
C157 C156 1.363 . S
C157 C163 1.363 . S
C158 C159 1.363 . S
C158 C163 1.379 . S
C158 N165 1.356 . S
C159 C158 1.363 . S
C159 C162 1.363 . S
N160 C162 1.356 . S
N160 H172 0.984 . S
N160 H173 0.985 . S
N161 C163 1.356 . S
N161 H166 0.984 . S
N161 H167 0.985 . S
C162 C156 1.379 . S
C162 C159 1.363 . S
C162 N160 1.356 . S
C163 C157 1.363 . S
C163 C158 1.379 . S
C163 N161 1.356 . S
N164 C156 1.356 . S
N164 H170 0.984 . S
N164 H171 0.984 . S
N165 C158 1.356 . S
N165 H168 0.984 . S
N165 H169 0.985 . S
H166 N161 0.984 . S
H167 N161 0.985 . S
H168 N165 0.984 . S
H169 N165 0.985 . S
H170 N164 0.984 . S
H171 N164 0.984 . S
H172 N160 0.984 . S
H173 N160 0.985 . S
C174 C175 1.363 . S
C174 C180 1.379 . S
C174 N182 1.356 . S
C175 C174 1.363 . S
C175 C181 1.363 . S
C176 C177 1.363 . S
C176 C181 1.379 . S
C176 N183 1.356 . S
C177 C176 1.363 . S
C177 C180 1.363 . S
N178 C180 1.356 . S
N178 H190 0.984 . S
N178 H191 0.985 . S
N179 C181 1.356 . S
N179 H184 0.984 . S
N179 H185 0.985 . S
C180 C174 1.379 . S
C180 C177 1.363 . S
C180 N178 1.356 . S
C181 C175 1.363 . S
C181 C176 1.379 . S
C181 N179 1.356 . S
N182 C174 1.356 . S
N182 H188 0.984 . S
N182 H189 0.984 . S
N183 C176 1.356 . S
N183 H186 0.984 . S
N183 H187 0.985 . S
H184 N179 0.984 . S
H185 N179 0.985 . S
H186 N183 0.984 . S
H187 N183 0.985 . S
H188 N182 0.984 . S
H189 N182 0.984 . S
H190 N178 0.984 . S
H191 N178 0.985 . S
C192 C193 1.363 1_554 S
C192 C198 1.379 1_565 S
C192 N200 1.356 . S
C193 C192 1.363 1_556 S
C193 C199 1.363 . S
C194 C195 1.363 1_556 S
C194 C199 1.379 1_545 S
C194 N201 1.356 . S
C195 C194 1.363 1_554 S
C195 C198 1.363 . S
N196 C198 1.356 . S
N196 H208 0.984 . S
N196 H209 0.985 . S
N197 C199 1.356 . S
N197 H202 0.984 . S
N197 H203 0.985 . S
C198 C192 1.379 1_545 S
C198 C195 1.363 . S
C198 N196 1.356 . S
C199 C193 1.363 . S
C199 C194 1.379 1_565 S
C199 N197 1.356 . S
N200 C192 1.356 . S
N200 H206 0.984 . S
N200 H207 0.984 . S
N201 C194 1.356 . S
N201 H204 0.984 . S
N201 H205 0.985 . S
H202 N197 0.984 . S
H203 N197 0.985 . S
H204 N201 0.984 . S
H205 N201 0.985 . S
H206 N200 0.984 . S
H207 N200 0.984 . S
H208 N196 0.984 . S
H209 N196 0.985 . S
C210 C211 1.363 . S
C210 C216 1.379 1_565 S
C210 N218 1.356 1_455 S
C211 C210 1.363 . S
C211 C217 1.363 . S
C212 C213 1.363 . S
C212 C217 1.379 1_545 S
C212 N219 1.356 . S
C213 C212 1.363 . S
C213 C216 1.363 . S
N214 C216 1.356 1_655 S
N214 H226 0.984 . S
N214 H227 0.985 . S
N215 C217 1.356 . S
N215 H220 0.984 . S
N215 H221 0.985 . S
C216 C210 1.379 1_545 S
C216 C213 1.363 . S
C216 N214 1.356 1_455 S
C217 C211 1.363 . S
C217 C212 1.379 1_565 S
C217 N215 1.356 . S
N218 C210 1.356 1_655 S
N218 H224 0.984 . S
N218 H225 0.984 1_655 S
N219 C212 1.356 . S
N219 H222 0.984 . S
N219 H223 0.985 . S
H220 N215 0.984 . S
H221 N215 0.985 . S
H222 N219 0.984 . S
H223 N219 0.985 . S
H224 N218 0.984 . S
H225 N218 0.984 1_455 S
H226 N214 0.984 . S
H227 N214 0.985 . S
C228 C229 1.363 1_556 S
C228 C234 1.379 . S
C228 N236 1.356 1_556 S
C229 C228 1.363 1_554 S
C229 C235 1.363 1_554 S
C230 C231 1.363 . S
C230 C235 1.379 . S
C230 N237 1.356 . S
C231 C230 1.363 . S
C231 C234 1.363 . S
N232 C234 1.356 . S
N232 H244 0.984 . S
N232 H245 0.985 . S
N233 C235 1.356 1_654 S
N233 H238 0.984 1_655 S
N233 H239 0.985 1_554 S
C234 C228 1.379 . S
C234 C231 1.363 . S
C234 N232 1.356 . S
C235 C229 1.363 1_556 S
C235 C230 1.379 . S
C235 N233 1.356 1_456 S
N236 C228 1.356 1_554 S
N236 H242 0.984 . S
N236 H243 0.984 . S
N237 C230 1.356 . S
N237 H240 0.984 . S
N237 H241 0.985 1_455 S
H238 N233 0.984 1_455 S
H239 N233 0.985 1_556 S
H240 N237 0.984 . S
H241 N237 0.985 1_655 S
H242 N236 0.984 . S
H243 N236 0.984 . S
H244 N232 0.984 . S
H245 N232 0.985 . S
C246 C247 1.362 1_454 S
C246 C252 1.379 . S
C246 N254 1.356 1_554 S
C247 C246 1.362 1_656 S
C247 C253 1.362 1_556 S
C248 C249 1.363 . S
C248 C253 1.379 . S
C248 N255 1.356 . S
C249 C248 1.363 . S
C249 C252 1.363 1_655 S
N250 C252 1.356 . S
N250 H262 0.984 . S
N250 H263 0.985 . S
N251 C253 1.356 1_556 S
N251 H256 0.984 . S
N251 H257 0.985 . S
C252 C246 1.379 . S
C252 C249 1.363 1_455 S
C252 N250 1.356 . S
C253 C247 1.362 1_554 S
C253 C248 1.379 . S
C253 N251 1.356 1_554 S
N254 C246 1.356 1_556 S
N254 H260 0.984 1_556 S
N254 H261 0.984 . S
N255 C248 1.356 . S
N255 H258 0.984 . S
N255 H259 0.985 . S
H256 N251 0.984 . S
H257 N251 0.985 . S
H258 N255 0.984 . S
H259 N255 0.985 . S
H260 N254 0.984 1_554 S
H261 N254 0.984 . S
H262 N250 0.984 . S
H263 N250 0.985 . S
C264 C265 1.363 . S
C264 C270 1.379 . S
C264 N272 1.356 . S
C265 C264 1.363 . S
C265 C271 1.363 . S
C266 C267 1.363 . S
C266 C271 1.379 . S
C266 N273 1.356 . S
C267 C266 1.363 . S
C267 C270 1.363 . S
N268 C270 1.356 . S
N268 H280 0.984 . S
N268 H281 0.985 . S
N269 C271 1.356 . S
N269 H274 0.984 . S
N269 H275 0.985 . S
C270 C264 1.379 . S
C270 C267 1.363 . S
C270 N268 1.356 . S
C271 C265 1.363 . S
C271 C266 1.379 . S
C271 N269 1.356 . S
N272 C264 1.356 . S
N272 H278 0.984 . S
N272 H279 0.984 . S
N273 C266 1.356 . S
N273 H276 0.984 . S
N273 H277 0.985 . S
H274 N269 0.984 . S
H275 N269 0.985 . S
H276 N273 0.984 . S
H277 N273 0.985 . S
H278 N272 0.984 . S
H279 N272 0.984 . S
H280 N268 0.984 . S
H281 N268 0.985 . S
C282 C283 1.363 . S
C282 C288 1.379 . S
C282 N290 1.356 . S
C283 C282 1.363 . S
C283 C289 1.363 . S
C284 C285 1.363 . S
C284 C289 1.379 . S
C284 N291 1.356 . S
C285 C284 1.363 . S
C285 C288 1.363 . S
N286 C288 1.356 . S
N286 H298 0.984 . S
N286 H299 0.985 . S
N287 C289 1.356 . S
N287 H292 0.984 . S
N287 H293 0.985 . S
C288 C282 1.379 . S
C288 C285 1.363 . S
C288 N286 1.356 . S
C289 C283 1.363 . S
C289 C284 1.379 . S
C289 N287 1.356 . S
N290 C282 1.356 . S
N290 H296 0.984 . S
N290 H297 0.984 . S
N291 C284 1.356 . S
N291 H294 0.984 . S
N291 H295 0.985 . S
H292 N287 0.984 . S
H293 N287 0.985 . S
H294 N291 0.984 . S
H295 N291 0.985 . S
H296 N290 0.984 . S
H297 N290 0.984 . S
H298 N286 0.984 . S
H299 N286 0.985 . S
C85 C3 1.356 . S
C87 C25 1.553 . S
C103 C62 1.350 . S
C105 C40 1.348 . S
C121 C67 1.324 . S
C123 C49 1.535 . S
C139 C7 1.568 . S
C141 C79 1.584 . S
C157 C83 1.351 . S
C159 C4 1.348 . S
C175 C58 1.587 . S
C177 C24 1.591 . S
C193 C46 1.337 . S
C195 C70 1.543 . S
C211 C28 1.327 . S
C213 C19 1.541 . S
C229 C16 1.228 . S
C231 C20 1.211 . S
C247 C41 1.222 1_655 S
C249 C37 1.210 . S
C265 C45 1.213 . S
C267 C61 1.222 . S
C283 C82 1.221 . S
C285 C66 1.211 . S
