# Generated by pormake.
# Topology lcs, (4)-cn, num edge types: 1
# Building blocks:
#     Node 0, Type 0, BuildingBlock: TATPOV_clean_sbu_0, # of connection points: 4
#     Node 1, Type 0, BuildingBlock: TATPOV_clean_sbu_0, # of connection points: 4
#     Node 2, Type 0, BuildingBlock: TATPOV_clean_sbu_0, # of connection points: 4
#     Node 3, Type 0, BuildingBlock: TATPOV_clean_sbu_0, # of connection points: 4
#     Node 4, Type 0, BuildingBlock: TATPOV_clean_sbu_0, # of connection points: 4
#     Node 5, Type 0, BuildingBlock: TATPOV_clean_sbu_0, # of connection points: 4
#     Node 6, Type 0, BuildingBlock: TATPOV_clean_sbu_0, # of connection points: 4
#     Node 7, Type 0, BuildingBlock: TATPOV_clean_sbu_0, # of connection points: 4
#     Node 8, Type 0, BuildingBlock: TATPOV_clean_sbu_0, # of connection points: 4
#     Node 9, Type 0, BuildingBlock: TATPOV_clean_sbu_0, # of connection points: 4
#     Node 10, Type 0, BuildingBlock: TATPOV_clean_sbu_0, # of connection points: 4
#     Node 11, Type 0, BuildingBlock: TATPOV_clean_sbu_0, # of connection points: 4
#     Node 12, Type 0, BuildingBlock: TATPOV_clean_sbu_0, # of connection points: 4
#     Node 13, Type 0, BuildingBlock: TATPOV_clean_sbu_0, # of connection points: 4
#     Node 14, Type 0, BuildingBlock: TATPOV_clean_sbu_0, # of connection points: 4
#     Node 15, Type 0, BuildingBlock: TATPOV_clean_sbu_0, # of connection points: 4
#     Node 16, Type 0, BuildingBlock: TATPOV_clean_sbu_0, # of connection points: 4
#     Node 17, Type 0, BuildingBlock: TATPOV_clean_sbu_0, # of connection points: 4
#     Node 18, Type 0, BuildingBlock: TATPOV_clean_sbu_0, # of connection points: 4
#     Node 19, Type 0, BuildingBlock: TATPOV_clean_sbu_0, # of connection points: 4
#     Node 20, Type 0, BuildingBlock: TATPOV_clean_sbu_0, # of connection points: 4
#     Node 21, Type 0, BuildingBlock: TATPOV_clean_sbu_0, # of connection points: 4
#     Node 22, Type 0, BuildingBlock: TATPOV_clean_sbu_0, # of connection points: 4
#     Node 23, Type 0, BuildingBlock: TATPOV_clean_sbu_0, # of connection points: 4
#     Edge 24, Type (0, 0), BuildingBlock: EZIPEK_clean_linker_0, # of connection points: 2
#     Edge 25, Type (0, 0), BuildingBlock: EZIPEK_clean_linker_0, # of connection points: 2
#     Edge 26, Type (0, 0), BuildingBlock: EZIPEK_clean_linker_0, # of connection points: 2
#     Edge 27, Type (0, 0), BuildingBlock: EZIPEK_clean_linker_0, # of connection points: 2
#     Edge 28, Type (0, 0), BuildingBlock: EZIPEK_clean_linker_0, # of connection points: 2
#     Edge 29, Type (0, 0), BuildingBlock: EZIPEK_clean_linker_0, # of connection points: 2
#     Edge 30, Type (0, 0), BuildingBlock: EZIPEK_clean_linker_0, # of connection points: 2
#     Edge 31, Type (0, 0), BuildingBlock: EZIPEK_clean_linker_0, # of connection points: 2
#     Edge 32, Type (0, 0), BuildingBlock: EZIPEK_clean_linker_0, # of connection points: 2
#     Edge 33, Type (0, 0), BuildingBlock: EZIPEK_clean_linker_0, # of connection points: 2
#     Edge 34, Type (0, 0), BuildingBlock: EZIPEK_clean_linker_0, # of connection points: 2
#     Edge 35, Type (0, 0), BuildingBlock: EZIPEK_clean_linker_0, # of connection points: 2
#     Edge 36, Type (0, 0), BuildingBlock: EZIPEK_clean_linker_0, # of connection points: 2
#     Edge 37, Type (0, 0), BuildingBlock: EZIPEK_clean_linker_0, # of connection points: 2
#     Edge 38, Type (0, 0), BuildingBlock: EZIPEK_clean_linker_0, # of connection points: 2
#     Edge 39, Type (0, 0), BuildingBlock: EZIPEK_clean_linker_0, # of connection points: 2
#     Edge 40, Type (0, 0), BuildingBlock: EZIPEK_clean_linker_0, # of connection points: 2
#     Edge 41, Type (0, 0), BuildingBlock: EZIPEK_clean_linker_0, # of connection points: 2
#     Edge 42, Type (0, 0), BuildingBlock: EZIPEK_clean_linker_0, # of connection points: 2
#     Edge 43, Type (0, 0), BuildingBlock: EZIPEK_clean_linker_0, # of connection points: 2
#     Edge 44, Type (0, 0), BuildingBlock: EZIPEK_clean_linker_0, # of connection points: 2
#     Edge 45, Type (0, 0), BuildingBlock: EZIPEK_clean_linker_0, # of connection points: 2
#     Edge 46, Type (0, 0), BuildingBlock: EZIPEK_clean_linker_0, # of connection points: 2
#     Edge 47, Type (0, 0), BuildingBlock: EZIPEK_clean_linker_0, # of connection points: 2
#     Edge 48, Type (0, 0), BuildingBlock: EZIPEK_clean_linker_0, # of connection points: 2
#     Edge 49, Type (0, 0), BuildingBlock: EZIPEK_clean_linker_0, # of connection points: 2
#     Edge 50, Type (0, 0), BuildingBlock: EZIPEK_clean_linker_0, # of connection points: 2
#     Edge 51, Type (0, 0), BuildingBlock: EZIPEK_clean_linker_0, # of connection points: 2
#     Edge 52, Type (0, 0), BuildingBlock: EZIPEK_clean_linker_0, # of connection points: 2
#     Edge 53, Type (0, 0), BuildingBlock: EZIPEK_clean_linker_0, # of connection points: 2
#     Edge 54, Type (0, 0), BuildingBlock: EZIPEK_clean_linker_0, # of connection points: 2
#     Edge 55, Type (0, 0), BuildingBlock: EZIPEK_clean_linker_0, # of connection points: 2
#     Edge 56, Type (0, 0), BuildingBlock: EZIPEK_clean_linker_0, # of connection points: 2
#     Edge 57, Type (0, 0), BuildingBlock: EZIPEK_clean_linker_0, # of connection points: 2
#     Edge 58, Type (0, 0), BuildingBlock: EZIPEK_clean_linker_0, # of connection points: 2
#     Edge 59, Type (0, 0), BuildingBlock: EZIPEK_clean_linker_0, # of connection points: 2
#     Edge 60, Type (0, 0), BuildingBlock: EZIPEK_clean_linker_0, # of connection points: 2
#     Edge 61, Type (0, 0), BuildingBlock: EZIPEK_clean_linker_0, # of connection points: 2
#     Edge 62, Type (0, 0), BuildingBlock: EZIPEK_clean_linker_0, # of connection points: 2
#     Edge 63, Type (0, 0), BuildingBlock: EZIPEK_clean_linker_0, # of connection points: 2
#     Edge 64, Type (0, 0), BuildingBlock: EZIPEK_clean_linker_0, # of connection points: 2
#     Edge 65, Type (0, 0), BuildingBlock: EZIPEK_clean_linker_0, # of connection points: 2
#     Edge 66, Type (0, 0), BuildingBlock: EZIPEK_clean_linker_0, # of connection points: 2
#     Edge 67, Type (0, 0), BuildingBlock: EZIPEK_clean_linker_0, # of connection points: 2
#     Edge 68, Type (0, 0), BuildingBlock: EZIPEK_clean_linker_0, # of connection points: 2
#     Edge 69, Type (0, 0), BuildingBlock: EZIPEK_clean_linker_0, # of connection points: 2
#     Edge 70, Type (0, 0), BuildingBlock: EZIPEK_clean_linker_0, # of connection points: 2
#     Edge 71, Type (0, 0), BuildingBlock: EZIPEK_clean_linker_0, # of connection points: 2
# Relax obj value: 0.083
# Max RMSD: 0.146
# Mean RMSD: 0.143
data_MOF--net-lcs--node1-TATPOV_clean_sbu_0--edge1-EZIPEK_clean_linker_0
_symmetry_space_group_name_H-M    P1
_symmetry_Int_Tables_number       1
_symmetry_cell_setting            triclinic
loop_
_symmetry_equiv_pos_as_xyz
'x, y, z'
_cell_length_a     35.618663
_cell_length_b     35.553034
_cell_length_c     35.599327
_cell_angle_alpha  93.24527
_cell_angle_beta   93.01455
_cell_angle_gamma 92.846742
loop_
_atom_site_label
_atom_site_type_symbol
_atom_site_fract_x
_atom_site_fract_y
_atom_site_fract_z
_atom_type_partial_charge
Zn0 Zn 0.00529 0.14081 0.43576 0.0
Zn1 Zn 0.02537 0.21091 0.41641 0.0
O2 O 0.97467 0.21709 0.44089 0.0
O3 O 0.95456 0.15945 0.45161 0.0
O4 O 0.0397 0.26298 0.40105 0.0
O5 O 0.0533 0.14114 0.46951 0.0
O6 O 0.07076 0.19637 0.44896 0.0
C7 C 0.94915 0.19443 0.45185 0.0
C8 C 0.01793 0.14595 0.35671 0.0
O9 O 0.0219 0.181 0.36599 0.0
O10 O 0.01054 0.12289 0.38151 0.0
C11 C 0.01722 0.27998 0.37974 0.0
O12 O 0.98447 0.26346 0.36848 0.0
C13 C 0.07797 0.16783 0.46765 0.0
Zn14 Zn 0.00025 0.82364 0.54341 0.0
Zn15 Zn 0.98956 0.76517 0.58541 0.0
O16 O 0.9356 0.77892 0.56863 0.0
O17 O 0.94534 0.82115 0.52663 0.0
O18 O 0.98314 0.7216 0.61895 0.0
O19 O 0.04072 0.79521 0.51809 0.0
O20 O 0.02395 0.74371 0.54574 0.0
C21 C 0.92297 0.80109 0.54456 0.0
C22 C 0.02809 0.84 0.61784 0.0
O23 O 0.01996 0.80495 0.61972 0.0
O24 O 0.01864 0.85682 0.5887 0.0
C25 C 0.97955 0.72594 0.65427 0.0
O26 O 0.97795 0.75999 0.67024 0.0
C27 C 0.04525 0.76088 0.52389 0.0
Zn28 Zn 0.49384 0.69987 0.98048 0.0
Zn29 Zn 0.50987 0.7595 0.94175 0.0
O30 O 0.4754 0.78061 0.9825 0.0
O31 O 0.45653 0.72926 0.00913 0.0
O32 O 0.52281 0.80459 0.91188 0.0
O33 O 0.54833 0.69433 0.99594 0.0
O34 O 0.56131 0.73809 0.95636 0.0
C35 C 0.45376 0.7641 0.00461 0.0
C36 C 0.46827 0.6903 0.90353 0.0
O37 O 0.47965 0.72467 0.90303 0.0
O38 O 0.47285 0.67228 0.93291 0.0
C39 C 0.49924 0.81666 0.88783 0.0
O40 O 0.46566 0.79966 0.88226 0.0
C41 C 0.57201 0.71279 0.97797 0.0
Zn42 Zn 0.52023 0.3511 0.08041 0.0
Zn43 Zn 0.49901 0.28313 0.09527 0.0
O44 O 0.45297 0.3014 0.06538 0.0
O45 O 0.47719 0.3524 0.04144 0.0
O46 O 0.48637 0.22901 0.10597 0.0
O47 O 0.57243 0.33653 0.0679 0.0
O48 O 0.54868 0.27841 0.06832 0.0
C49 C 0.44953 0.32921 0.04459 0.0
C50 C 0.50527 0.34468 0.15792 0.0
O51 O 0.50422 0.30972 0.14794 0.0
O52 O 0.51036 0.36869 0.13349 0.0
C53 C 0.46716 0.22048 0.13362 0.0
O54 O 0.45277 0.24712 0.15453 0.0
C55 C 0.57575 0.30151 0.06176 0.0
Zn56 Zn 0.92221 0.72187 0.21617 0.0
Zn57 Zn 0.98061 0.74291 0.17528 0.0
O58 O 0.96179 0.79312 0.19799 0.0
O59 O 0.91527 0.77605 0.23297 0.0
O60 O 0.02741 0.75818 0.14904 0.0
O61 O 0.95353 0.687 0.24552 0.0
O62 O -0.00019 0.70211 0.20945 0.0
C63 C 0.93572 0.80168 0.21972 0.0
C64 C 0.91245 0.70249 0.13547 0.0
O65 O 0.94451 0.71943 0.13342 0.0
O66 O 0.89747 0.70024 0.16683 0.0
C67 C 0.04143 0.73623 0.12464 0.0
O68 O 0.02432 0.70334 0.11473 0.0
C69 C 0.98655 0.6827 0.23519 0.0
Zn70 Zn 0.57056 0.77228 0.28536 0.0
Zn71 Zn 0.51305 0.75839 0.32921 0.0
O72 O 0.48962 0.78928 0.28748 0.0
O73 O 0.53824 0.80727 0.25616 0.0
O74 O 0.46874 0.74708 0.36028 0.0
O75 O 0.57467 0.71609 0.27355 0.0
O76 O 0.5327 0.70614 0.31578 0.0
C77 C 0.50381 0.8095 0.26283 0.0
C78 C 0.58293 0.80319 0.36147 0.0
O79 O 0.54916 0.79111 0.36484 0.0
O80 O 0.5992 0.79699 0.33113 0.0
C81 C 0.45516 0.77145 0.38261 0.0
O82 O 0.47113 0.80561 0.38726 0.0
C83 C 0.55643 0.69373 0.2932 0.0
Zn84 Zn 0.42674 0.26773 0.68691 0.0
Zn85 Zn 0.49449 0.28348 0.66184 0.0
O86 O 0.48332 0.33364 0.6903 0.0
O87 O 0.43023 0.3182 0.71632 0.0
O88 O 0.54591 0.2911 0.64106 0.0
O89 O 0.44481 0.21917 0.70706 0.0
O90 O 0.50213 0.23732 0.69354 0.0
C91 C 0.45633 0.34243 0.71075 0.0
C92 C 0.42494 0.26734 0.60701 0.0
O93 O 0.46038 0.27187 0.61376 0.0
O94 O 0.40362 0.26566 0.63426 0.0
C95 C 0.55117 0.30727 0.61067 0.0
O96 O 0.523 0.32252 0.593 0.0
C97 C 0.47965 0.21354 0.70748 0.0
Zn98 Zn 0.09349 0.2589 0.80166 0.0
Zn99 Zn 0.02812 0.23875 0.83101 0.0
O100 O 0.01832 0.28661 0.8021 0.0
O101 O 0.06975 0.2994 0.77233 0.0
O102 O 0.97811 0.22523 0.85188 0.0
O103 O 0.09923 0.20578 0.78161 0.0
O104 O 0.04491 0.18933 0.80465 0.0
C105 C 0.03693 0.30749 0.78089 0.0
C106 C 0.09197 0.27033 0.88294 0.0
O107 O 0.05917 0.25459 0.8787 0.0
O108 O 0.11173 0.27514 0.8549 0.0
C109 C 0.96347 0.2502 0.87268 0.0
O110 O 0.9805 0.28378 0.87851 0.0
C111 C 0.07418 0.18067 0.78756 0.0
Zn112 Zn 0.40789 0.99264 0.15142 0.0
Zn113 Zn 0.39616 0.01374 0.22237 0.0
O114 O 0.42464 0.96435 0.22492 0.0
O115 O 0.42712 0.94239 0.1662 0.0
O116 O 0.38793 0.02827 0.27692 0.0
O117 O 0.44083 0.03972 0.14629 0.0
O118 O 0.42241 0.06041 0.20161 0.0
C119 C 0.43325 0.93844 0.20106 0.0
C120 C 0.32996 0.00361 0.16545 0.0
O121 O 0.34246 0.00723 0.19962 0.0
O122 O 0.35249 0.99758 0.13966 0.0
C123 C 0.37023 0.00513 0.29653 0.0
O124 O 0.35822 0.97203 0.28107 0.0
C125 C 0.43888 0.06618 0.17137 0.0
Zn126 Zn 0.36801 0.07743 0.52692 0.0
Zn127 Zn 0.29878 0.09615 0.50635 0.0
O128 O 0.31604 0.06858 0.45861 0.0
O129 O 0.36893 0.04455 0.47835 0.0
O130 O 0.24563 0.10996 0.49351 0.0
O131 O 0.35023 0.05843 0.57611 0.0
O132 O 0.29267 0.06593 0.55362 0.0
C133 C 0.34435 0.04911 0.45216 0.0
C134 C 0.36162 0.15722 0.51902 0.0
O135 O 0.32678 0.14755 0.51455 0.0
O136 O 0.38512 0.13225 0.52468 0.0
C137 C 0.22979 0.13361 0.51483 0.0
O138 O 0.24839 0.14922 0.54504 0.0
C139 C 0.31504 0.05474 0.57931 0.0
Zn140 Zn 0.22397 0.91759 0.74173 0.0
Zn141 Zn 0.18543 0.97825 0.761 0.0
O142 O 0.20231 0.95815 0.81221 0.0
O143 O 0.2408 0.91389 0.79644 0.0
O144 O 0.15665 0.02477 0.77336 0.0
O145 O 0.25199 0.9481 0.70494 0.0
O146 O 0.226 -0.001 0.72704 0.0
C147 C 0.22482 0.933 0.82151 0.0
C148 C 0.14621 0.90877 0.7187 0.0
O149 O 0.14622 0.94286 0.73149 0.0
O150 O 0.1757 0.89045 0.72134 0.0
C151 C 0.1299 0.03436 0.75131 0.0
O152 O 0.11958 0.01297 0.72088 0.0
C153 C 0.24808 0.98328 0.70463 0.0
Zn154 Zn 0.2546 0.82885 0.11119 0.0
Zn155 Zn 0.23725 0.84859 0.04163 0.0
O156 O 0.28972 0.8261 0.03838 0.0
O157 O 0.30762 0.81713 0.09701 0.0
O158 O 0.22596 0.8648 0.98889 0.0
O159 O 0.2095 0.79177 0.10747 0.0
O160 O 0.19239 0.81301 0.05244 0.0
C161 C 0.3148 0.81673 0.06254 0.0
C162 C 0.23707 0.90628 0.10867 0.0
O163 O 0.23614 0.89834 0.0733 0.0
O164 O 0.2444 0.88096 0.13115 0.0
C165 C 0.24746 0.88983 0.97559 0.0
O166 O 0.27647 0.90478 0.99651 0.0
C167 C 0.18543 0.79303 0.08014 0.0
Zn168 Zn 0.17841 0.45733 0.00983 0.0
Zn169 Zn 0.23551 0.41579 0.01424 0.0
O170 O 0.24951 0.45113 0.97283 0.0
O171 O 0.19758 0.48122 0.96354 0.0
O172 O 0.2827 0.38833 0.02335 0.0
O173 O 0.18439 0.48062 0.06237 0.0
O174 O 0.22281 0.43443 0.0681 0.0
C175 C 0.23009 0.4733 0.95384 0.0
C176 C 0.16091 0.37917 0.98989 0.0
O177 O 0.19649 0.37731 0.99102 0.0
O178 O 0.14609 0.40879 0.00203 0.0
C179 C 0.30101 0.37307 0.99737 0.0
O180 O 0.28815 0.37312 0.96211 0.0
C181 C 0.20362 0.46011 0.08296 0.0
Zn182 Zn 0.7398 0.21425 0.9284 0.0
Zn183 Zn 0.76742 0.18049 0.98872 0.0
O184 O 0.81505 0.20207 0.96504 0.0
O185 O 0.79179 0.23491 0.91924 0.0
O186 O 0.78547 0.15559 0.03583 0.0
O187 O 0.7034 0.24182 0.95909 0.0
O188 O 0.72867 0.21722 0.00919 0.0
C189 C 0.8198 0.22306 0.93757 0.0
C190 C 0.72756 0.13398 0.92244 0.0
O191 O 0.74399 0.13604 0.95516 0.0
O192 O 0.72293 0.16338 0.90468 0.0
C193 C 0.76357 0.13133 0.04983 0.0
O194 O 0.73031 0.12255 0.03317 0.0
C195 C 0.70452 0.23799 0.99422 0.0
Zn196 Zn 0.07487 0.51089 0.35816 0.0
Zn197 Zn 0.1047 0.48507 0.29225 0.0
O198 O 0.07829 0.43715 0.3102 0.0
O199 O 0.05255 0.45809 0.36197 0.0
O200 O 0.12649 0.47103 0.242 0.0
O201 O 0.04769 0.55056 0.33152 0.0
O202 O 0.07356 0.53083 0.27945 0.0
C203 C 0.05923 0.43118 0.33882 0.0
C204 C 0.15591 0.51666 0.35864 0.0
O205 O 0.15062 0.5002 0.32616 0.0
O206 O 0.12827 0.52444 0.37813 0.0
C207 C 0.16168 0.47065 0.23719 0.0
O208 O 0.18613 0.47631 0.26607 0.0
C209 C 0.05324 0.55375 0.29702 0.0
Zn210 Zn 0.69168 0.98412 0.49607 0.0
Zn211 Zn 0.74043 0.93048 0.50817 0.0
O212 O 0.76654 0.9659 0.47219 0.0
O213 O 0.72701 0.01042 0.46187 0.0
O214 O 0.78094 0.89447 0.52056 0.0
O215 O 0.68765 0.99683 0.55158 0.0
O216 O 0.72225 0.94804 0.56039 0.0
C217 C 0.75754 0.99514 0.45535 0.0
C218 C 0.66701 0.90887 0.46544 0.0
O219 O 0.69922 0.8995 0.4776 0.0
O220 O 0.65665 0.94219 0.47135 0.0
C221 C 0.77811 0.85871 0.51544 0.0
O222 O 0.74621 0.84171 0.5021 0.0
C223 C 0.70203 0.97388 0.57335 0.0
Zn224 Zn 0.84339 0.09698 0.26581 0.0
Zn225 Zn 0.8615 0.0267 0.24396 0.0
O226 O 0.83641 0.0215 0.29496 0.0
O227 O 0.82091 0.07869 0.3131 0.0
O228 O 0.87508 0.97336 0.22934 0.0
O229 O 0.81334 0.10078 0.21706 0.0
O230 O 0.83013 0.0442 0.19793 0.0
C231 C 0.82232 0.04398 0.31899 0.0
C232 C 0.92295 0.08914 0.2568 0.0
O233 O 0.9129 0.05463 0.24926 0.0
O234 O 0.89858 0.11243 0.26555 0.0
C235 C 0.89499 0.9557 0.25257 0.0
O236 O 0.90567 0.97223 0.28561 0.0
C237 C 0.81383 0.07458 0.19153 0.0
Zn238 Zn 0.24298 0.69313 0.42243 0.0
Zn239 Zn 0.26292 0.67651 0.48674 0.0
O240 O 0.30957 0.70477 0.46668 0.0
O241 O 0.2823 0.73552 0.42182 0.0
O242 O 0.27695 0.66113 0.53902 0.0
O243 O 0.18949 0.70096 0.43544 0.0
O244 O 0.21356 0.70447 0.49358 0.0
C245 C 0.31166 0.72851 0.44119 0.0
C246 C 0.25644 0.61604 0.42454 0.0
O247 O 0.25379 0.62476 0.45932 0.0
O248 O 0.25629 0.64203 0.40168 0.0
C249 C 0.2975 0.63327 0.54333 0.0
O250 O 0.31304 0.61749 0.51419 0.0
C251 C 0.18578 0.70822 0.47016 0.0
Zn252 Zn 0.29086 0.58658 0.76592 0.0
Zn253 Zn 0.34122 0.53509 0.75648 0.0
O254 O 0.30562 0.5135 0.79481 0.0
O255 O 0.26404 0.55658 0.80377 0.0
O256 O 0.3745 0.49195 0.74448 0.0
O257 O 0.27585 0.58813 0.71111 0.0
O258 O 0.32389 0.55215 0.70391 0.0
C259 C 0.27791 0.52588 0.81216 0.0
C260 C 0.36655 0.60962 0.79444 0.0
O261 O 0.37438 0.57604 0.78485 0.0
O262 O 0.33415 0.6214 0.78703 0.0
C263 C 0.40493 0.48536 0.76272 0.0
O264 O 0.4178 0.50833 0.7912 0.0
C265 C 0.29862 0.57235 0.69003 0.0
Zn266 Zn 0.55264 0.03176 0.82899 0.0
Zn267 Zn 0.58302 0.00739 0.77014 0.0
O268 O 0.55809 0.95945 0.79175 0.0
O269 O 0.52066 0.98441 0.83257 0.0
O270 O 0.60619 0.99121 0.72114 0.0
O271 O 0.534 0.07809 0.80687 0.0
O272 O 0.54977 0.0512 0.75338 0.0
C273 C 0.53325 0.95559 0.81607 0.0
C274 C 0.63222 0.03269 0.83971 0.0
O275 O 0.6294 0.02531 0.8043 0.0
O276 O 0.60256 0.03542 0.85753 0.0
C277 C 0.63928 0.9794 0.71987 0.0
O278 O 0.65885 0.97409 0.75121 0.0
C279 C 0.53486 0.07819 0.77145 0.0
Zn280 Zn 0.80779 0.5243 0.00731 0.0
Zn281 Zn 0.7556 0.57238 0.98611 0.0
O282 O 0.7721 0.54924 0.93495 0.0
O283 O 0.81554 0.51078 0.95295 0.0
O284 O 0.71232 0.60627 0.97477 0.0
O285 O 0.77319 0.49521 0.03879 0.0
O286 O 0.73365 0.53937 0.02699 0.0
C287 C 0.79697 0.52579 0.92703 0.0
C288 C 0.82675 0.60261 0.02967 0.0
O289 O 0.79701 0.60842 0.01009 0.0
O290 O 0.837 0.56936 0.03346 0.0
C291 C 0.71423 0.64188 0.98201 0.0
O292 O 0.74631 0.65921 0.99422 0.0
C293 C 0.74276 0.51073 0.04483 0.0
Zn294 Zn 0.97957 0.50679 0.68296 0.0
Zn295 Zn 0.92727 0.51176 0.73353 0.0
O296 O 0.95984 0.47004 0.75363 0.0
O297 O 0.00155 0.46381 0.71028 0.0
O298 O 0.8895 0.52101 0.77307 0.0
O299 O 0.9975 0.56121 0.69172 0.0
O300 O 0.95009 0.56572 0.72797 0.0
C301 C 0.98701 0.4529 0.73975 0.0
C302 C 0.90535 0.4829 0.65355 0.0
O303 O 0.8968 0.4888 0.68754 0.0
O304 O 0.93805 0.49173 0.64346 0.0
C305 C 0.87367 0.49535 0.79114 0.0
O306 O 0.88024 0.45985 0.7831 0.0
C307 C 0.97758 0.58144 0.71227 0.0
Zn308 Zn 0.77822 0.29507 0.56917 0.0
Zn309 Zn 0.7633 0.33042 0.50572 0.0
O310 O 0.7959 0.28689 0.48751 0.0
O311 O 0.81378 0.26285 0.54071 0.0
O312 O 0.75026 0.35804 0.45901 0.0
O313 O 0.72272 0.28303 0.57479 0.0
O314 O 0.71161 0.31866 0.52711 0.0
C315 C 0.81641 0.26472 0.50551 0.0
C316 C 0.80609 0.37185 0.57302 0.0
O317 O 0.79435 0.37031 0.53865 0.0
O318 O 0.80127 0.34389 0.59301 0.0
C319 C 0.77014 0.38593 0.44855 0.0
O320 O 0.80134 0.39754 0.46796 0.0
C321 C 0.69986 0.2997 0.55388 0.0
Zn322 Zn 0.67494 0.4122 0.24148 0.0
Zn323 Zn 0.65062 0.4807 0.26132 0.0
O324 O 0.68665 0.46946 0.3065 0.0
O325 O 0.7087 0.41474 0.2884 0.0
O326 O 0.63337 0.53352 0.27179 0.0
O327 O 0.69204 0.42944 0.19171 0.0
O328 O 0.67229 0.48524 0.20897 0.0
C329 C 0.70697 0.44167 0.31294 0.0
C330 C 0.59545 0.41221 0.25456 0.0
O331 O 0.60194 0.44766 0.25982 0.0
O332 O 0.62193 0.39139 0.24596 0.0
C333 C 0.60543 0.54091 0.29124 0.0
O334 O 0.58769 0.51388 0.30799 0.0
C335 C 0.68695 0.4634 0.18483 0.0
C336 C 0.05826 0.38073 0.38504 0.0
C337 C 0.04878 0.39207 0.34825 0.0
C338 C 0.02285 0.32808 0.33049 0.0
C339 C 0.02744 0.31865 0.36872 0.0
N340 N 0.04065 0.34023 0.43397 0.0
N341 N 0.01578 0.37817 0.28769 0.0
C342 C 0.04259 0.34617 0.3965 0.0
C343 C 0.02928 0.36621 0.32136 0.0
N344 N 0.08363 0.40195 0.40858 0.0
N345 N 0.01408 0.30055 0.30263 0.0
H346 H 0.01916 0.40605 0.28031 0.0
H347 H 0.99811 0.36124 0.26872 0.0
H348 H 0.01075 0.27208 0.3078 0.0
H349 H 0.01408 0.30552 0.27406 0.0
H350 H 0.09384 0.39286 0.43433 0.0
H351 H 0.09792 0.4263 0.40062 0.0
H352 H 0.04829 0.36112 0.45511 0.0
H353 H 0.02736 0.31624 0.44387 0.0
C354 C 0.86375 0.82616 0.56922 0.0
C355 C 0.88218 0.80714 0.53983 0.0
C356 C 0.82955 0.81737 0.495 0.0
C357 C 0.81131 0.83664 0.52434 0.0
N358 N 0.80556 0.85029 0.59073 0.0
N359 N 0.87903 0.77604 0.47792 0.0
C360 C 0.82667 0.838 0.56195 0.0
C361 C 0.86374 0.79986 0.50373 0.0
N362 N 0.88247 0.83517 0.60333 0.0
N363 N 0.81552 0.81774 0.45854 0.0
H364 H 0.90395 0.76272 0.48386 0.0
H365 H 0.86538 0.76669 0.45226 0.0
H366 H 0.79055 0.83015 0.45093 0.0
H367 H 0.82989 0.80806 0.43548 0.0
H368 H 0.87223 0.85314 0.62407 0.0
H369 H 0.9095 0.82685 0.61018 0.0
H370 H 0.81364 0.84846 0.61908 0.0
H371 H 0.77819 0.85894 0.58624 0.0
C372 C 0.42962 0.64274 0.81044 0.0
C373 C 0.39263 0.63272 0.82064 0.0
C374 C 0.40406 0.66814 0.88112 0.0
C375 C 0.44234 0.67365 0.87319 0.0
N376 N 0.49313 0.66503 0.83201 0.0
N377 N 0.3471 0.62919 0.86884 0.0
C378 C 0.45565 0.66087 0.83817 0.0
C379 C 0.38035 0.64377 0.85674 0.0
N380 N 0.43943 0.63575 0.7742 0.0
N381 N 0.39022 0.68668 0.91174 0.0
H382 H 0.329 0.61 0.85268 0.0
H383 H 0.33925 0.6331 0.89652 0.0
H384 H 0.40676 0.70528 0.93025 0.0
H385 H 0.3616 0.68664 0.91653 0.0
H386 H 0.46482 0.6455 0.76414 0.0
H387 H 0.4208 0.62272 0.75325 0.0
H388 H 0.50526 0.65273 0.80866 0.0
H389 H 0.5126 0.67904 0.85156 0.0
C390 C 0.63044 0.30586 0.01923 0.0
C391 C 0.61134 0.28723 0.04757 0.0
C392 C 0.65466 0.23596 0.04263 0.0
C393 C 0.67573 0.25631 0.01681 0.0
N394 N 0.69005 0.31644 0.9911 0.0
N395 N 0.61447 0.24117 0.09503 0.0
C396 C 0.66573 0.29323 0.00864 0.0
C397 C 0.62632 0.25436 0.06211 0.0
N398 N 0.61415 0.33387 0.00045 0.0
N399 N 0.65957 0.19856 0.04704 0.0
H400 H 0.5956 0.25514 0.11157 0.0
H401 H 0.627 0.21909 0.10813 0.0
H402 H 0.67806 0.18276 0.03184 0.0
H403 H 0.64208 0.18218 0.06296 0.0
H404 H 0.62598 0.34574 0.97739 0.0
H405 H 0.58696 0.3421 0.00462 0.0
H406 H 0.68523 0.34471 0.98739 0.0
H407 H 0.7169 0.30868 0.98445 0.0
C408 C 0.01164 0.58174 0.24786 0.0
C409 C 0.03897 0.5868 0.27836 0.0
C410 C 0.03355 0.65545 0.27952 0.0
C411 C 0.00696 0.65041 0.24848 0.0
N412 N 0.97636 0.61033 0.1978 0.0
N413 N 0.08261 0.62822 0.3174 0.0
C414 C 0.99785 0.61398 0.23093 0.0
C415 C 0.05191 0.62364 0.29251 0.0
N416 N 0.99751 0.54626 0.23631 0.0
N417 N 0.04049 0.69046 0.29715 0.0
H418 H 0.09734 0.60562 0.3269 0.0
H419 H 0.09568 0.65437 0.32594 0.0
H420 H 0.02844 0.71453 0.28747 0.0
H421 H 0.0562 0.69533 0.32262 0.0
H422 H 0.97446 0.54095 0.2172 0.0
H423 H 0.00701 0.52195 0.24794 0.0
H424 H 0.97204 0.58507 0.18152 0.0
H425 H 0.96535 0.63328 0.1848 0.0
C426 C 0.60804 0.86799 0.38004 0.0
C427 C 0.60118 0.83043 0.39009 0.0
C428 C 0.63193 0.84614 0.45243 0.0
C429 C 0.64328 0.88211 0.44025 0.0
N430 N 0.64836 0.9245 0.38956 0.0
N431 N 0.60859 0.78202 0.4342 0.0
C432 C 0.63289 0.89244 0.40334 0.0
C433 C 0.61346 0.81897 0.42597 0.0
N434 N 0.5901 0.88061 0.3486 0.0
N435 N 0.63779 0.83845 0.48941 0.0
H436 H 0.59461 0.76162 0.41557 0.0
H437 H 0.62057 0.7711 0.45829 0.0
H438 H 0.65076 0.85796 0.50961 0.0
H439 H 0.62695 0.81409 0.50073 0.0
H440 H 0.59112 0.90888 0.34221 0.0
H441 H 0.57102 0.86367 0.331 0.0
H442 H 0.64492 0.9308 0.3614 0.0
H443 H 0.66772 0.94302 0.405 0.0
C444 C 0.44662 0.41074 0.69982 0.0
C445 C 0.45242 0.38192 0.72529 0.0
C446 C 0.43088 0.42263 0.77691 0.0
C447 C 0.42547 0.45155 0.7515 0.0
N448 N 0.43853 0.47723 0.6921 0.0
N449 N 0.46002 0.36395 0.78926 0.0
C450 C 0.43678 0.4469 0.71401 0.0
C451 C 0.44789 0.38916 0.76431 0.0
N452 N 0.44784 0.40307 0.66183 0.0
N453 N 0.41764 0.42596 0.81223 0.0
H454 H 0.47293 0.33941 0.7807 0.0
H455 H 0.46078 0.36916 0.81839 0.0
H456 H 0.40453 0.44968 0.82252 0.0
H457 H 0.41692 0.40396 0.83034 0.0
H458 H 0.43919 0.42167 0.64192 0.0
H459 H 0.45465 0.37708 0.64982 0.0
H460 H 0.45013 0.47646 0.66582 0.0
H461 H 0.43196 0.50422 0.70185 0.0
C462 C 0.89549 0.2277 0.86691 0.0
C463 C 0.92726 0.2419 0.88994 0.0
C464 C 0.8883 0.24554 0.94485 0.0
C465 C 0.85748 0.22835 0.92231 0.0
N466 N 0.83522 0.19329 0.86452 0.0
N467 N 0.95602 0.25658 0.95239 0.0
C468 C 0.8621 0.21652 0.8841 0.0
C469 C 0.92432 0.24866 0.92942 0.0
N470 N 0.8964 0.22654 0.82851 0.0
N471 N 0.88297 0.26005 0.98042 0.0
H472 H 0.98302 0.25789 0.94238 0.0
H473 H 0.9559 0.25809 0.98169 0.0
H474 H 0.85696 0.25836 0.99255 0.0
H475 H 0.90352 0.27649 0.99664 0.0
H476 H 0.87259 0.22013 0.81058 0.0
H477 H 0.91981 0.23579 0.81451 0.0
H478 H 0.83905 0.18086 0.83787 0.0
H479 H 0.81092 0.18301 0.87641 0.0
C480 C 0.3863 0.04567 0.39752 0.0
C481 C 0.35123 0.0361 0.41282 0.0
C482 C 0.32717 0.00975 0.35057 0.0
C483 C 0.36368 0.0151 0.33669 0.0
N484 N 0.43021 0.02911 0.35067 0.0
N485 N 0.29073 0.00207 0.40546 0.0
C486 C 0.39394 0.03035 0.36126 0.0
C487 C 0.32234 0.01603 0.3898 0.0
N488 N 0.41161 0.07111 0.41642 0.0
N489 N 0.29672 0.0006 0.32623 0.0
H490 H 0.28664 0.00529 0.43424 0.0
H491 H 0.27048 0.98409 0.39056 0.0
H492 H 0.29858 0.99748 0.29712 0.0
H493 H 0.2691 9e-05 0.33456 0.0
H494 H 0.43585 0.08155 0.40453 0.0
H495 H 0.40649 0.08522 0.44196 0.0
H496 H 0.45339 0.03669 0.36914 0.0
H497 H 0.43735 0.01654 0.32503 0.0
C498 C 0.24781 0.03258 0.65561 0.0
C499 C 0.26702 0.00508 0.67565 0.0
C500 C 0.31654 0.00767 0.63044 0.0
C501 C 0.29969 0.03845 0.61349 0.0
N502 N 0.25603 0.08816 0.62056 0.0
N503 N 0.32602 0.97608 0.68825 0.0
C504 C 0.26744 0.05347 0.62936 0.0
C505 C 0.30346 0.9957 0.66506 0.0
N506 N 0.21032 0.03736 0.65925 0.0
N507 N 0.34337 0.9882 0.61281 0.0
H508 H 0.31842 0.96888 0.71492 0.0
H509 H 0.35391 0.97122 0.68285 0.0
H510 H 0.35167 0.99352 0.58591 0.0
H511 H 0.3539 0.96367 0.62302 0.0
H512 H 0.19514 0.05509 0.6425 0.0
H513 H 0.1933 0.02046 0.67505 0.0
H514 H 0.23425 0.10111 0.63387 0.0
H515 H 0.27132 0.10591 0.60395 0.0
C516 C 0.2395 0.95059 0.89072 0.0
C517 C 0.22935 0.92275 0.86134 0.0
C518 C 0.23471 0.87332 0.90629 0.0
C519 C 0.24073 0.90125 0.93635 0.0
N520 N 0.24028 0.96698 0.95768 0.0
N521 N 0.20674 0.85854 0.84367 0.0
C522 C 0.24072 0.94011 0.92875 0.0
C523 C 0.22385 0.88435 0.86983 0.0
N524 N 0.24936 0.98669 0.88242 0.0
N525 N 0.24107 0.8364 0.91191 0.0
H526 H 0.19629 0.86565 0.81723 0.0
H527 H 0.19898 0.83101 0.84987 0.0
H528 H 0.25099 0.82713 0.93767 0.0
H529 H 0.24057 0.81572 0.8899 0.0
H530 H 0.26071 0.00708 0.90259 0.0
H531 H 0.24966 0.99532 0.85493 0.0
H532 H 0.23657 0.99536 0.95352 0.0
H533 H 0.23954 0.96042 0.98579 0.0
C534 C 0.24885 0.97523 0.1013 0.0
C535 C 0.23711 0.94605 0.12399 0.0
C536 C 0.26458 0.98214 0.17967 0.0
C537 C 0.28892 8e-05 0.15531 0.0
N538 N 0.29409 0.028 0.09585 0.0
N539 N 0.21694 0.93134 0.18496 0.0
C540 C 0.27687 0.00212 0.11698 0.0
C541 C 0.2387 0.95329 0.16358 0.0
N542 N 0.2336 0.97652 0.06553 0.0
N543 N 0.26688 0.99238 0.21722 0.0
H544 H 0.19667 0.91163 0.17242 0.0
H545 H 0.21855 0.93283 0.21428 0.0
H546 H 0.2838 0.0157 0.22807 0.0
H547 H 0.2498 0.98045 0.23669 0.0
H548 H 0.24012 0.99793 0.04782 0.0
H549 H 0.21142 0.95779 0.05528 0.0
H550 H 0.28935 0.02894 0.06683 0.0
H551 H 0.31347 0.04866 0.10826 0.0
C552 C 0.35025 0.32423 0.99763 0.0
C553 C 0.33964 0.36154 0.00661 0.0
C554 C 0.3991 0.3754 0.04313 0.0
C555 C 0.41159 0.33958 0.0311 0.0
N556 N 0.40134 0.2817 0.99252 0.0
N557 N 0.35855 0.42555 0.02865 0.0
C558 C 0.38781 0.31441 0.00705 0.0
C559 C 0.36547 0.38802 0.02654 0.0
N560 N 0.32417 0.29785 0.98156 0.0
N561 N 0.41811 0.39665 0.07199 0.0
H562 H 0.33493 0.43637 0.01542 0.0
H563 H 0.37835 0.44632 0.03983 0.0
H564 H 0.4417 0.38772 0.08688 0.0
H565 H 0.40783 0.4212 0.08407 0.0
H566 H 0.32914 0.26928 0.97802 0.0
H567 H 0.29647 0.30401 0.97443 0.0
H568 H 0.38664 0.26401 0.97188 0.0
H569 H 0.42867 0.27381 -0.00113 0.0
C570 C 0.95367 0.869 0.24264 0.0
C571 C 0.9263 0.84164 0.22653 0.0
C572 C 0.87791 0.88831 0.23 0.0
C573 C 0.90588 0.91661 0.24282 0.0
N574 N 0.97188 0.93539 0.25336 0.0
N575 N 0.86462 0.8281 0.19568 0.0
C576 C 0.94424 0.90739 0.24691 0.0
C577 C 0.88906 0.85213 0.21749 0.0
N578 N 0.9882 0.85822 0.25521 0.0
N579 N 0.84058 0.89521 0.23143 0.0
H580 H 0.87201 0.80187 0.18459 0.0
H581 H 0.83846 0.8359 0.18518 0.0
H582 H 0.83098 0.9208 0.24177 0.0
H583 H 0.81918 0.87422 0.22609 0.0
H584 H 0.00777 0.87632 0.27089 0.0
H585 H 0.99605 0.83035 0.25296 0.0
H586 H 0.00048 0.93064 0.25278 0.0
H587 H 0.96625 0.96386 0.25543 0.0
C588 C 0.12694 0.74472 0.46228 0.0
C589 C 0.14877 0.71993 0.48331 0.0
C590 C 0.10272 0.72195 0.532 0.0
C591 C 0.07863 0.7428 0.50868 0.0
N592 N 0.06418 0.76395 0.44655 0.0
N593 N 0.1497 0.67535 0.53234 0.0
C594 C 0.08955 0.75088 0.47213 0.0
C595 C 0.13433 0.7055 0.51637 0.0
N596 N 0.14229 0.76425 0.43436 0.0
N597 N 0.09745 0.71972 0.56958 0.0
H598 H 0.17116 0.66057 0.52052 0.0
H599 H 0.13784 0.66222 0.5547 0.0
H600 H 0.07696 0.7338 0.5837 0.0
H601 H 0.11661 0.70751 0.58775 0.0
H602 H 0.12813 0.78493 0.42058 0.0
H603 H 0.17052 0.7634 0.42819 0.0
H604 H 0.07011 0.76731 0.41853 0.0
H605 H 0.03601 0.76707 0.45219 0.0
C606 C 0.9502 0.6803 0.69704 0.0
C607 C 0.98193 0.69301 0.67782 0.0
C608 C 0.01668 0.6395 0.699 0.0
C609 C 0.98287 0.62358 0.71205 0.0
N610 N 0.92638 0.63868 0.74292 0.0
N611 N 0.04711 0.6879 0.66386 0.0
C612 C 0.95217 0.64695 0.71716 0.0
C613 C 0.01595 0.67381 0.68029 0.0
N614 N 0.91754 0.69884 0.69437 0.0
N615 N 0.04963 0.62258 0.70656 0.0
H616 H 0.04838 0.71424 0.65234 0.0
H617 H 0.07136 0.6732 0.66049 0.0
H618 H 0.05076 0.59931 0.72315 0.0
H619 H 0.07602 0.63353 0.70023 0.0
H620 H 0.89217 0.68824 0.70383 0.0
H621 H 0.91508 0.72359 0.68026 0.0
H622 H 0.90474 0.65609 0.74964 0.0
H623 H 0.93009 0.61766 0.76181 0.0
C624 C 0.16197 0.14144 0.52954 0.0
C625 C 0.19139 0.14517 0.50431 0.0
C626 C 0.14624 0.16274 0.45509 0.0
C627 C 0.11732 0.16232 0.48118 0.0
N628 N 0.09915 0.15819 0.54512 0.0
N629 N 0.2131 0.16936 0.44683 0.0
C630 C 0.12566 0.15379 0.51905 0.0
C631 C 0.18401 0.15893 0.46824 0.0
N632 N 0.1681 0.12443 0.56264 0.0
N633 N 0.13762 0.1643 0.41732 0.0
H634 H 0.24131 0.16807 0.4559 0.0
H635 H 0.20923 0.18313 0.42194 0.0
H636 H 0.11022 0.16501 0.40569 0.0
H637 H 0.15739 0.16065 0.39704 0.0
H638 H 0.14671 0.1174 0.58024 0.0
H639 H 0.19399 0.11422 0.57096 0.0
H640 H 0.10478 0.15599 0.5739 0.0
H641 H 0.07246 0.16755 0.53836 0.0
C642 C 0.52704 0.41561 0.23603 0.0
C643 C 0.5564 0.39515 0.25177 0.0
C644 C 0.52478 0.33651 0.22553 0.0
C645 C 0.50708 0.35816 0.19831 0.0
N646 N 0.47673 0.41554 0.18695 0.0
N647 N 0.5738 0.33644 0.27587 0.0
C648 C 0.5027 0.39696 0.20728 0.0
C649 C 0.55145 0.35542 0.25197 0.0
N650 N 0.52309 0.45212 0.24835 0.0
N651 N 0.51612 0.29877 0.2257 0.0
H652 H 0.592 0.35092 0.29637 0.0
H653 H 0.5744 0.30719 0.2754 0.0
H654 H 0.49403 0.28594 0.20844 0.0
H655 H 0.52764 0.28131 0.24526 0.0
H656 H 0.50192 0.46868 0.23832 0.0
H657 H 0.53902 0.46432 0.2717 0.0
H658 H 0.47406 0.44457 0.18945 0.0
H659 H 0.45761 0.40099 0.16735 0.0
C660 C 0.37318 0.77823 0.06789 0.0
C661 C 0.35286 0.80658 0.05034 0.0
C662 C 0.40004 0.80932 0.00267 0.0
C663 C 0.42227 0.7837 0.02241 0.0
N664 N 0.43498 0.7556 0.08167 0.0
N665 N 0.35688 0.85906 0.01006 0.0
C666 C 0.41051 0.77214 0.05768 0.0
C667 C 0.36938 0.82533 0.02058 0.0
N668 N 0.35654 0.75527 0.09239 0.0
N669 N 0.40588 0.81678 0.96614 0.0
H670 H 0.33702 0.87354 0.02481 0.0
H671 H 0.37004 0.87483 0.99019 0.0
H672 H 0.42551 0.80379 0.94994 0.0
H673 H 0.38778 0.8328 0.95041 0.0
H674 H 0.36981 0.73242 0.10325 0.0
H675 H 0.3282 0.75578 0.09813 0.0
H676 H 0.42836 0.74927 0.10887 0.0
H677 H 0.46319 0.75269 0.07605 0.0
C678 C 0.03321 0.41391 0.77372 0.0
C679 C 0.99792 0.41639 0.75406 0.0
C680 C 0.98844 0.34719 0.75057 0.0
C681 C 0.023 0.34483 0.77173 0.0
N682 N 0.07401 0.37625 0.811 0.0
N683 N 0.93901 0.38641 0.72842 0.0
C684 C 0.04425 0.37829 0.7854 0.0
C685 C 0.97451 0.38331 0.74416 0.0
N686 N 0.05646 0.44557 0.78079 0.0
N687 N 0.96993 0.31495 0.73499 0.0
H688 H 0.92822 0.41207 0.72174 0.0
H689 H 0.9191 0.36391 0.72442 0.0
H690 H 0.97945 0.2881 0.7389 0.0
H691 H 0.94687 0.31474 0.71575 0.0
H692 H 0.08445 0.44495 0.79068 0.0
H693 H 0.04842 0.47245 0.77456 0.0
H694 H 0.08785 0.39982 0.82516 0.0
H695 H 0.08285 0.35096 0.82096 0.0
C696 C 0.414 0.20707 0.51943 0.0
C697 C 0.37513 0.1977 0.52234 0.0
C698 C 0.36887 0.25499 0.56165 0.0
C699 C 0.40853 0.2568 0.56822 0.0
N700 N 0.46657 0.25201 0.53716 0.0
N701 N 0.31454 0.22472 0.52564 0.0
C702 C 0.43064 0.23862 0.54154 0.0
C703 C 0.35187 0.22573 0.53662 0.0
N704 N 0.4345 0.18536 0.49616 0.0
N705 N 0.3481 0.28063 0.58012 0.0
H706 H 0.303 0.2062 0.50383 0.0
H707 H 0.29613 0.24477 0.53456 0.0
H708 H 0.36095 0.30398 0.59575 0.0
H709 H 0.31884 0.27896 0.57996 0.0
H710 H 0.46367 0.18795 0.49543 0.0
H711 H 0.42156 0.16458 0.47719 0.0
H712 H 0.48418 0.24057 0.51762 0.0
H713 H 0.47704 0.27758 0.55036 0.0
C714 C 0.58593 0.64095 0.3258 0.0
C715 C 0.56648 0.65377 0.29343 0.0
C716 C 0.57296 0.59262 0.25945 0.0
C717 C 0.591 0.57934 0.29237 0.0
N718 N 0.60948 0.58815 0.35853 0.0
N719 N 0.53615 0.64088 0.23174 0.0
C720 C 0.59567 0.60264 0.32612 0.0
C721 C 0.55857 0.62933 0.26082 0.0
N722 N 0.59702 0.66595 0.35543 0.0
N723 N 0.56973 0.57013 0.22685 0.0
H724 H 0.52514 0.66754 0.23201 0.0
H725 H 0.52597 0.62332 0.20869 0.0
H726 H 0.57745 0.54219 0.22533 0.0
H727 H 0.56114 0.57954 0.20077 0.0
H728 H 0.61507 0.65949 0.37784 0.0
H729 H 0.59077 0.69432 0.3564 0.0
H730 H 0.60928 0.60216 0.385 0.0
H731 H 0.61885 0.56087 0.3595 0.0
C732 C 0.10863 0.72535 0.10938 0.0
C733 C 0.07689 0.74803 0.1075 0.0
C734 C 0.11563 0.79948 0.08417 0.0
C735 C 0.147 0.77617 0.08412 0.0
N736 N 0.17069 0.71413 0.08749 0.0
N737 N 0.04779 0.8017 0.0823 0.0
C738 C 0.14254 0.7381 0.09365 0.0
C739 C 0.07963 0.78347 0.09132 0.0
N740 N 0.10737 0.69292 0.12825 0.0
N741 N 0.12033 0.83747 0.08037 0.0
H742 H 0.02081 0.79038 0.08636 0.0
H743 H 0.04801 0.8259 0.06708 0.0
H744 H 0.1462 0.85136 0.07685 0.0
H745 H 0.09893 0.85596 0.08455 0.0
H746 H 0.13098 0.6776 0.13393 0.0
H747 H 0.08363 0.68303 0.14132 0.0
H748 H 0.16773 0.68519 0.09061 0.0
H749 H 0.19563 0.72266 0.07553 0.0
C750 C 0.66457 0.9434 0.62228 0.0
C751 C 0.68962 0.97327 0.61246 0.0
C752 C 0.68115 0.00736 0.67304 0.0
C753 C 0.6576 0.97668 0.68348 0.0
N754 N 0.63235 0.91282 0.67165 0.0
N755 N 0.72696 0.03033 0.63034 0.0
C756 C 0.65107 0.94382 0.6592 0.0
C757 C 0.69947 0.00429 0.63846 0.0
N758 N 0.65192 0.91571 0.5957 0.0
N759 N 0.68495 0.03992 0.6956 0.0
H760 H 0.74087 0.02869 0.60527 0.0
H761 H 0.73825 0.05161 0.64954 0.0
H762 H 0.67237 0.04306 0.72131 0.0
H763 H 0.69826 0.06476 0.68773 0.0
H764 H 0.63031 0.89582 0.59986 0.0
H765 H 0.66075 0.91421 0.56823 0.0
H766 H 0.63033 0.88656 0.65696 0.0
H767 H 0.6214 0.91248 0.69826 0.0
C768 C 0.82114 0.04727 0.38996 0.0
C769 C 0.80788 0.02979 0.35441 0.0
C770 C 0.76809 0.985 0.38671 0.0
C771 C 0.77756 0.00562 0.4216 0.0
N772 N 0.8102 0.0585 0.45638 0.0
N773 N 0.7638 0.98597 0.31869 0.0
C774 C 0.80325 0.03744 0.42321 0.0
C775 C 0.78026 -0.00053 0.3527 0.0
N776 N 0.8519 0.07204 0.39218 0.0
N777 N 0.74738 0.95149 0.38598 0.0
H778 H 0.77082 0.9965 0.2931 0.0
H779 H 0.74052 0.96689 0.31601 0.0
H780 H 0.73704 0.94019 0.41001 0.0
H781 H 0.74321 0.93324 0.36203 0.0
H782 H 0.86505 0.08295 0.41757 0.0
H783 H 0.86668 0.07888 0.36875 0.0
H784 H 0.82525 0.08448 0.45847 0.0
H785 H 0.79876 0.05106 0.48149 0.0
C786 C 0.75171 0.11434 0.11606 0.0
C787 C 0.7751 0.11323 0.08492 0.0
C788 C 0.82332 0.08315 0.12275 0.0
C789 C 0.79892 0.08214 0.15311 0.0
N790 N 0.73663 0.08807 0.17515 0.0
N791 N 0.82843 0.08731 0.05554 0.0
C792 C 0.76198 0.09487 0.14852 0.0
C793 C 0.80945 0.09473 0.08729 0.0
N794 N 0.72093 0.13584 0.11572 0.0
N795 N 0.8604 0.0755 0.12815 0.0
H796 H 0.81877 0.09459 0.02889 0.0
H797 H 0.85158 0.07051 0.05508 0.0
H798 H 0.87238 0.06763 0.15364 0.0
H799 H 0.88016 0.08025 0.10814 0.0
H800 H 0.70521 0.14072 0.13921 0.0
H801 H 0.71321 0.15199 0.09331 0.0
H802 H 0.70823 0.09353 0.17169 0.0
H803 H 0.74325 0.07332 0.19895 0.0
C804 C 0.66921 0.04284 0.90034 0.0
C805 C 0.669 0.04272 0.86067 0.0
C806 C 0.72282 0.08828 0.86665 0.0
C807 C 0.71345 0.09737 0.90424 0.0
N808 N 0.67685 0.08246 0.95754 0.0
N809 N 0.70416 0.05582 0.80631 0.0
C810 C 0.68734 0.07369 0.92188 0.0
C811 C 0.69896 0.06199 0.84378 0.0
N812 N 0.65062 0.01426 0.91689 0.0
N813 N 0.75468 0.10454 0.85339 0.0
H814 H 0.69197 0.03235 0.79064 0.0
H815 H 0.72146 0.07309 0.79114 0.0
H816 H 0.7731 0.12276 0.87041 0.0
H817 H 0.76471 0.09746 0.82711 0.0
H818 H 0.65175 0.01161 0.94593 0.0
H819 H 0.63776 0.99117 0.90084 0.0
H820 H 0.65503 0.06778 0.96975 0.0
H821 H 0.68731 0.10634 0.97367 0.0
C822 C 0.63385 0.70217 0.01131 0.0
C823 C 0.61093 0.69994 0.97746 0.0
C824 C 0.65912 0.66541 0.94515 0.0
C825 C 0.67957 0.6633 0.98012 0.0
N826 N 0.6842 0.67546 0.04774 0.0
N827 N 0.59909 0.67499 0.91303 0.0
C828 C 0.66658 0.68087 0.01355 0.0
C829 C 0.62297 0.68069 0.94445 0.0
N830 N 0.62446 0.72504 0.04115 0.0
N831 N 0.6746 0.65354 0.91249 0.0
H832 H 0.57228 0.68543 0.91104 0.0
H833 H 0.60463 0.65726 0.88991 0.0
H834 H 0.70105 0.6422 0.91197 0.0
H835 H 0.66286 0.6581 0.88582 0.0
H836 H 0.64193 0.73092 0.06536 0.0
H837 H 0.60065 0.74101 0.04018 0.0
H838 H 0.67363 0.6841 0.07336 0.0
H839 H 0.70771 0.65935 0.05086 0.0
C840 C 0.10954 0.09759 0.73181 0.0
C841 C 0.11122 0.07014 0.75928 0.0
C842 C 0.08486 0.11415 0.80511 0.0
C843 C 0.08134 0.14081 0.77699 0.0
N844 N 0.08099 0.15399 0.71138 0.0
N845 N 0.09103 0.04861 0.81841 0.0
C846 C 0.0906 0.13115 0.73957 0.0
C847 C 0.09588 0.07726 0.79481 0.0
N848 N 0.12801 0.09291 0.69929 0.0
N849 N 0.08011 0.12451 0.84206 0.0
H850 H 0.09804 0.02102 0.81149 0.0
H851 H 0.07651 0.05135 0.84299 0.0
H852 H 0.07267 0.15129 0.85133 0.0
H853 H 0.08676 0.10744 0.86404 0.0
H854 H 0.13103 0.11392 0.68027 0.0
H855 H 0.14356 0.06956 0.69295 0.0
H856 H 0.08381 0.14664 0.68295 0.0
H857 H 0.06653 0.17849 0.71617 0.0
C858 C 0.89252 0.19485 0.49296 0.0
C859 C 0.91227 0.20913 0.46267 0.0
C860 C 0.86841 0.25991 0.45895 0.0
C861 C 0.84642 0.24362 0.48679 0.0
N862 N 0.83168 0.18744 0.51953 0.0
N863 N 0.90772 0.24562 0.40747 0.0
C864 C 0.85654 0.20839 0.5003 0.0
C865 C 0.89667 0.23861 0.44264 0.0
N866 N 0.9085 0.17015 0.51624 0.0
N867 N 0.86475 0.29633 0.44953 0.0
H868 H 0.92547 0.22815 0.39302 0.0
H869 H 0.89509 0.26532 0.39097 0.0
H870 H 0.8475 0.31504 0.46285 0.0
H871 H 0.88274 0.30942 0.43146 0.0
H872 H 0.89605 0.16176 0.54049 0.0
H873 H 0.93585 0.16152 0.51407 0.0
H874 H 0.83687 0.16027 0.52737 0.0
H875 H 0.80422 0.19525 0.5233 0.0
C876 C 0.50993 0.88689 0.81103 0.0
C877 C 0.52632 0.91873 0.83274 0.0
C878 C 0.52173 0.88462 0.89031 0.0
C879 C 0.50849 0.85159 0.86852 0.0
N880 N 0.49665 0.81913 0.80725 0.0
N881 N 0.55829 0.94357 0.89124 0.0
C882 C 0.50438 0.85207 0.82854 0.0
C883 C 0.53537 0.91629 0.87185 0.0
N884 N 0.49872 0.89017 0.77413 0.0
N885 N 0.51961 0.88663 0.92861 0.0
H886 H 0.57055 0.96649 0.87852 0.0
H887 H 0.56862 0.94112 0.91889 0.0
H888 H 0.50801 0.86479 0.94339 0.0
H889 H 0.52544 0.91154 0.94522 0.0
H890 H 0.48295 0.86909 0.75792 0.0
H891 H 0.50279 0.91516 0.76051 0.0
H892 H 0.49698 0.81719 0.77797 0.0
H893 H 0.49334 0.79301 0.81895 0.0
C894 C 0.00158 0.15608 0.28893 0.0
C895 C 0.0152 0.1322 0.3164 0.0
C896 C 0.98937 0.07764 0.27741 0.0
C897 C 0.96334 0.10181 0.26154 0.0
N898 N 0.95362 0.16317 0.23902 0.0
N899 N 0.03663 0.07072 0.32809 0.0
C900 C 0.97308 0.14094 0.26228 0.0
C901 C 0.01453 0.09289 0.30723 0.0
N902 N 0.01588 0.19232 0.28856 0.0
N903 N 0.98983 0.04106 0.26391 0.0
H904 H 0.05688 0.08252 0.34823 0.0
H905 H 0.03487 0.04136 0.32557 0.0
H906 H 0.97352 0.0311 0.23986 0.0
H907 H 0.00909 0.02224 0.27357 0.0
H908 H 0.00806 0.21066 0.2681 0.0
H909 H 0.03889 0.20229 0.30634 0.0
H910 H 0.95642 0.19251 0.24074 0.0
H911 H 0.93416 0.15144 0.21807 0.0
C912 C 0.53851 0.12799 0.72291 0.0
C913 C 0.5193 0.11063 0.75199 0.0
C914 C 0.47812 0.16376 0.75535 0.0
C915 C 0.4938 0.17838 0.72296 0.0
N916 N 0.53157 0.16616 0.66927 0.0
N917 N 0.46282 0.10712 0.78681 0.0
C918 C 0.52184 0.15811 0.70467 0.0
C919 C 0.48658 0.12698 0.76538 0.0
N920 N 0.57345 0.11755 0.71379 0.0
N921 N 0.45668 0.18539 0.7778 0.0
H922 H 0.46646 0.07905 0.79257 0.0
H923 H 0.43713 0.11703 0.79468 0.0
H924 H 0.4523 0.21364 0.77355 0.0
H925 H 0.44734 0.1766 0.80333 0.0
H926 H 0.58952 0.13207 0.69509 0.0
H927 H 0.58827 0.09756 0.72783 0.0
H928 H 0.54965 0.14983 0.65394 0.0
H929 H 0.51819 0.18582 0.65339 0.0
C930 C 0.11224 0.36047 0.93833 0.0
C931 C 0.13732 0.34979 0.9678 0.0
C932 C 0.12743 0.28349 0.94531 0.0
C933 C 0.10173 0.29457 0.91697 0.0
N934 N 0.06046 0.34118 0.89415 0.0
N935 N 0.16172 0.30085 0.005 0.0
C936 C 0.09063 0.33216 0.91659 0.0
C937 C 0.14262 0.31107 0.9732 0.0
N938 N 0.1117 0.39702 0.9281 0.0
N939 N 0.13798 0.24708 0.94481 0.0
H940 H 0.17226 0.32053 0.02629 0.0
H941 H 0.16399 0.27293 0.01184 0.0
H942 H 0.12585 0.2262 0.92548 0.0
H943 H 0.15976 0.23812 0.96225 0.0
H944 H 0.09693 0.40482 0.90396 0.0
H945 H 0.12919 0.41909 0.94043 0.0
H946 H 0.04899 0.3676 0.89601 0.0
H947 H 0.04487 0.32153 0.87607 0.0
C948 C 0.3879 0.74848 0.37373 0.0
C949 C 0.41829 0.7628 0.39849 0.0
C950 C 0.37735 0.75922 0.45181 0.0
C951 C 0.34877 0.74038 0.42741 0.0
N952 N 0.33207 0.70726 0.36695 0.0
N953 N 0.4439 0.77723 0.46211 0.0
C954 C 0.35546 0.73225 0.38885 0.0
C955 C 0.41359 0.76712 0.4379 0.0
N956 N 0.38932 0.75146 0.33569 0.0
N957 N 0.36965 0.77037 0.48781 0.0
H958 H 0.47086 0.78281 0.45301 0.0
H959 H 0.44297 0.77703 0.49129 0.0
H960 H 0.34341 0.76507 0.49871 0.0
H961 H 0.38815 0.78752 0.50573 0.0
H962 H 0.36623 0.74453 0.31692 0.0
H963 H 0.41186 0.76493 0.32338 0.0
H964 H 0.33804 0.69793 0.33973 0.0
H965 H 0.30931 0.69229 0.37725 0.0
C966 C 0.81459 0.48924 0.82708 0.0
C967 C 0.85142 0.50582 0.824 0.0
C968 C 0.84541 0.54352 0.88294 0.0
C969 C 0.81148 0.52275 0.88886 0.0
N970 N 0.76419 0.47436 0.86822 0.0
N971 N 0.90469 0.54365 0.85312 0.0
C972 C 0.79599 0.49529 0.86127 0.0
C973 C 0.86748 0.53196 0.85281 0.0
N974 N 0.79701 0.4687 0.79701 0.0
N975 N 0.85672 0.57421 0.90645 0.0
H976 H 0.92289 0.5342 0.83307 0.0
H977 H 0.91866 0.55951 0.8756 0.0
H978 H 0.8413 0.58338 0.92904 0.0
H979 H 0.87923 0.59269 0.90128 0.0
H980 H 0.76895 0.45881 0.79631 0.0
H981 H 0.80944 0.46443 0.77134 0.0
H982 H 0.75384 0.45091 0.85125 0.0
H983 H 0.74928 0.47936 0.89232 0.0
C984 C 0.68363 0.45906 0.1139 0.0
C985 C 0.69819 0.47769 0.14843 0.0
C986 C 0.73408 0.52321 0.11331 0.0
C987 C 0.72353 0.50156 0.07927 0.0
N988 N 0.69085 0.44734 0.04683 0.0
N989 N 0.7417 0.52412 0.18131 0.0
C990 C 0.69895 0.46904 0.07944 0.0
C991 C 0.72426 0.50918 0.14826 0.0
N992 N 0.65423 0.43283 0.11393 0.0
N993 N 0.75394 0.55706 0.11232 0.0
H994 H 0.73636 0.51405 0.20755 0.0
H995 H 0.76412 0.54417 0.18259 0.0
H996 H 0.76325 0.56776 0.08758 0.0
H997 H 0.75855 0.57608 0.13564 0.0
H998 H 0.64006 0.42085 0.08948 0.0
H999 H 0.64156 0.42558 0.13846 0.0
H1000 H 0.67676 0.4209 0.04583 0.0
H1001 H 0.70025 0.45493 0.02089 0.0
C1002 C 0.72033 0.42176 0.41645 0.0
C1003 C 0.75652 0.40688 0.41613 0.0
C1004 C 0.764 0.42947 0.35305 0.0
C1005 C 0.72536 0.43738 0.35066 0.0
N1006 N 0.6652 0.43751 0.37943 0.0
N1007 N 0.81251 0.39429 0.3831 0.0
C1008 C 0.70316 0.43324 0.38237 0.0
C1009 C 0.77863 0.41065 0.38439 0.0
N1010 N 0.7026 0.42549 0.4495 0.0
N1011 N 0.78658 0.44002 0.32519 0.0
H1012 H 0.824 0.37965 0.40513 0.0
H1013 H 0.82785 0.39254 0.35901 0.0
H1014 H 0.77647 0.45425 0.30219 0.0
H1015 H 0.8157 0.43814 0.32679 0.0
H1016 H 0.67785 0.43962 0.45211 0.0
H1017 H 0.71469 0.41802 0.47518 0.0
H1018 H 0.64722 0.43005 0.40026 0.0
H1019 H 0.65093 0.44568 0.35521 0.0
C1020 C 0.89358 0.42098 0.61787 0.0
C1021 C 0.88063 0.45703 0.62851 0.0
C1022 C 0.81803 0.43843 0.59976 0.0
C1023 C 0.83181 0.40323 0.58798 0.0
N1024 N 0.8845 0.36513 0.5759 0.0
N1025 N 0.83317 0.50281 0.6246 0.0
C1026 C 0.87025 0.39596 0.59372 0.0
C1027 C 0.84357 0.46668 0.61784 0.0
N1028 N 0.9269 0.40936 0.63299 0.0
N1029 N 0.78049 0.44422 0.59486 0.0
H1030 H 0.85148 0.52395 0.63779 0.0
H1031 H 0.80767 0.51257 0.61461 0.0
H1032 H 0.76141 0.42432 0.58078 0.0
H1033 H 0.76791 0.46768 0.60641 0.0
H1034 H 0.93517 0.38174 0.62942 0.0
H1035 H 0.94462 0.42578 0.65231 0.0
H1036 H 0.9132 0.36065 0.57611 0.0
H1037 H 0.86811 0.34609 0.55769 0.0
C1038 C 0.47683 0.12787 0.18129 0.0
C1039 C 0.44746 0.1054 0.16144 0.0
C1040 C 0.43401 0.15719 0.12085 0.0
C1041 C 0.46127 0.18063 0.14257 0.0
N1042 N 0.50683 0.19033 0.19522 0.0
N1043 N 0.39299 0.1007 0.11755 0.0
C1044 C 0.48216 0.16657 0.17339 0.0
C1045 C 0.42477 0.12052 0.13246 0.0
N1046 N 0.50024 0.11183 0.20677 0.0
N1047 N 0.41694 0.16995 0.08902 0.0
H1048 H 0.3844 0.07408 0.12577 0.0
H1049 H 0.37306 0.11199 0.09957 0.0
H1050 H 0.42166 0.19728 0.08046 0.0
H1051 H 0.40028 0.15262 0.06954 0.0
H1052 H 0.52455 0.12545 0.21954 0.0
H1053 H 0.49679 0.08365 0.21322 0.0
H1054 H 0.51976 0.18319 0.22054 0.0
H1055 H 0.51297 0.21822 0.18903 0.0
C1056 C 0.0497 0.86689 0.68264 0.0
C1057 C 0.0572 0.8584 0.64446 0.0
C1058 C 0.12045 0.888 0.65468 0.0
C1059 C 0.11455 0.89303 0.69361 0.0
N1060 N 0.07546 0.88504 0.74606 0.0
N1061 N 0.10237 0.8527 0.59622 0.0
C1062 C 0.07959 0.88202 0.70808 0.0
C1063 C 0.09329 0.86673 0.631 0.0
N1064 N 0.01398 0.8612 0.69419 0.0
N1065 N 0.15155 0.90452 0.64006 0.0
H1066 H 0.08378 0.83584 0.57807 0.0
H1067 H 0.12962 0.85448 0.58692 0.0
H1068 H 0.17208 0.92098 0.65638 0.0
H1069 H 0.15505 0.90512 0.61122 0.0
H1070 H 0.00574 0.8701 0.72073 0.0
H1071 H 0.99177 0.84974 0.67616 0.0
H1072 H 0.05205 0.87405 0.75886 0.0
H1073 H 0.09672 0.8966 0.76519 0.0
C1074 C 0.48895 0.84911 0.20779 0.0
C1075 C 0.48165 0.83909 0.24492 0.0
C1076 C 0.43489 0.88726 0.24713 0.0
C1077 C 0.4487 0.90286 0.21442 0.0
N1078 N 0.49542 0.90091 0.16724 0.0
N1079 N 0.45336 0.85759 0.3036 0.0
C1080 C 0.47743 0.88434 0.19547 0.0
C1081 C 0.45601 0.86041 0.26571 0.0
N1082 N 0.5061 0.82483 0.18392 0.0
N1083 N 0.40104 0.89695 0.25995 0.0
H1084 H 0.47116 0.84211 0.32006 0.0
H1085 H 0.43673 0.87501 0.31955 0.0
H1086 H 0.38297 0.91356 0.24492 0.0
H1087 H 0.38896 0.88417 0.2824 0.0
H1088 H 0.50929 0.82985 0.15566 0.0
H1089 H 0.51273 0.7978 0.19106 0.0
H1090 H 0.51864 0.8895 0.15507 0.0
H1091 H 0.49029 0.92793 0.15906 0.0
C1092 C 0.83097 0.6609 0.07376 0.0
C1093 C 0.84876 0.63435 0.05018 0.0
C1094 C 0.91015 0.65584 0.07933 0.0
C1095 C 0.89252 0.68344 0.10172 0.0
N1096 N 0.83837 0.72032 0.11065 0.0
N1097 N 0.90559 0.61608 0.0217 0.0
C1098 C 0.85364 0.68881 0.09546 0.0
C1099 C 0.88853 0.63519 0.04989 0.0
N1100 N 0.79307 0.65782 0.07822 0.0
N1101 N 0.94634 0.64686 0.08788 0.0
H1102 H 0.89033 0.6015 -0.0009 0.0
H1103 H 0.93455 0.61833 0.01867 0.0
H1104 H 0.96267 0.6592 0.11082 0.0
H1105 H 0.95877 0.62422 0.07446 0.0
H1106 H 0.7799 0.67444 0.09813 0.0
H1107 H 0.7752 0.63637 0.06523 0.0
H1108 H 0.81068 0.72704 0.1043 0.0
H1109 H 0.85462 0.74165 0.12617 0.0
C1110 C 0.60028 0.27077 0.57868 0.0
C1111 C 0.58814 0.30584 0.59352 0.0
C1112 C 0.64871 0.33703 0.58081 0.0
C1113 C 0.66045 0.30224 0.56485 0.0
N1114 N 0.64618 0.23765 0.54292 0.0
N1115 N 0.5976 0.3734 0.60305 0.0
C1116 C 0.63586 0.26952 0.56222 0.0
C1117 C 0.6113 0.33934 0.59256 0.0
N1118 N 0.57781 0.23864 0.58051 0.0
N1119 N 0.67403 0.36729 0.58691 0.0
H1120 H 0.57117 0.37613 0.61388 0.0
H1121 H 0.61127 0.39921 0.59861 0.0
H1122 H 0.7018 0.36699 0.57902 0.0
H1123 H 0.66861 0.39188 0.60251 0.0
H1124 H 0.58666 0.2116 0.57455 0.0
H1125 H 0.5505 0.23874 0.58972 0.0
H1126 H 0.62833 0.21382 0.53659 0.0
H1127 H 0.67199 0.23604 0.5305 0.0
C1128 C 0.17562 0.43078 0.13808 0.0
C1129 C 0.19721 0.46093 0.12368 0.0
C1130 C 0.19501 0.49775 0.18367 0.0
C1131 C 0.17523 0.4668 0.19867 0.0
N1132 N 0.15364 0.40132 0.19322 0.0
N1133 N 0.23344 0.51984 0.13417 0.0
C1134 C 0.16767 0.43251 0.17679 0.0
C1135 C 0.20881 0.49343 0.14699 0.0
N1136 N 0.16087 0.40145 0.11441 0.0
N1137 N 0.19891 0.53185 0.20364 0.0
H1138 H 0.24394 0.51733 0.10737 0.0
H1139 H 0.24603 0.54232 0.15109 0.0
H1140 H 0.18869 0.5364 0.23033 0.0
H1141 H 0.20941 0.55648 0.19258 0.0
H1142 H 0.14126 0.38117 0.12246 0.0
H1143 H 0.16566 0.39886 0.08578 0.0
H1144 H 0.15145 0.37445 0.17979 0.0
H1145 H 0.14736 0.40161 0.22154 0.0
C1146 C 0.2909 0.51666 0.88077 0.0
C1147 C 0.26715 0.50908 0.84747 0.0
C1148 C 0.22195 0.47384 0.88337 0.0
C1149 C 0.24331 0.48547 0.91734 0.0
N1150 N 0.29589 0.52139 0.94916 0.0
N1151 N 0.20845 0.48391 0.81729 0.0
C1152 C 0.27738 0.50756 0.91625 0.0
C1153 C 0.23212 0.48876 0.84887 0.0
N1154 N 0.32642 0.53258 0.87856 0.0
N1155 N 0.19314 0.44698 0.88376 0.0
H1156 H 0.21586 0.49278 0.7911 0.0
H1157 H 0.18068 0.4733 0.81757 0.0
H1158 H 0.18594 0.43401 0.9081 0.0
H1159 H 0.17892 0.43469 0.85947 0.0
H1160 H 0.34646 0.53484 0.90105 0.0
H1161 H 0.33714 0.54105 0.85353 0.0
H1162 H 0.31849 0.54123 0.95042 0.0
H1163 H 0.2867 0.51549 0.97565 0.0
C1164 C 0.33214 0.61962 0.60359 0.0
C1165 C 0.29904 0.61504 0.57964 0.0
C1166 C 0.26895 0.57531 0.62495 0.0
C1167 C 0.30028 0.58373 0.65076 0.0
N1168 N 0.35958 0.61857 0.66711 0.0
N1169 N 0.23513 0.58988 0.56703 0.0
C1170 C 0.33157 0.60676 0.64064 0.0
C1171 C 0.26718 0.59318 0.59016 0.0
N1172 N 0.3641 0.63641 0.591 0.0
N1173 N 0.24146 0.54942 0.63343 0.0
H1174 H 0.2334 0.6007 0.5404 0.0
H1175 H 0.20955 0.5782 0.57489 0.0
H1176 H 0.24229 0.53572 0.6586 0.0
H1177 H 0.2196 0.53911 0.61452 0.0
H1178 H 0.39031 0.63661 0.60546 0.0
H1179 H 0.36513 0.64762 0.5646 0.0
H1180 H 0.38062 0.63894 0.66259 0.0
H1181 H 0.36029 0.61061 0.69485 0.0
C1182 C 0.20468 0.52397 0.4116 0.0
C1183 C 0.19425 0.52925 0.37325 0.0
C1184 C 0.25053 0.57026 0.3699 0.0
C1185 C 0.25106 0.57626 0.40926 0.0
N1186 N 0.24232 0.54778 0.46791 0.0
N1187 N 0.20936 0.55758 0.31463 0.0
C1188 C 0.23296 0.54893 0.43038 0.0
C1189 C 0.21855 0.55114 0.35138 0.0
N1190 N 0.18722 0.49557 0.42953 0.0
N1191 N 0.27906 0.58556 0.35067 0.0
H1192 H 0.1848 0.54702 0.29993 0.0
H1193 H 0.22485 0.57655 0.29946 0.0
H1194 H 0.30223 0.60019 0.36493 0.0
H1195 H 0.28134 0.58029 0.32179 0.0
H1196 H 0.19401 0.48927 0.45716 0.0
H1197 H 0.16742 0.47639 0.41543 0.0
H1198 H 0.2278 0.53131 0.48618 0.0
H1199 H 0.26595 0.56306 0.48038 0.0
loop_
_geom_bond_atom_site_label_1
_geom_bond_atom_site_label_2
_geom_bond_distance
_geom_bond_site_symmetry_2
_ccdc_geom_bond_type
Zn0 O3 2.031 . S
Zn0 O5 2.049 1_655 S
Zn0 O10 2.067 . S
Zn1 O2 1.962 1_455 S
Zn1 O4 1.986 . S
Zn1 O6 1.996 . S
Zn1 O9 1.943 1_455 S
O2 Zn1 1.962 1_655 S
O2 C7 1.254 . S
O3 Zn0 2.031 . S
O3 C7 1.269 . S
O4 Zn1 1.986 . S
O4 C11 1.262 . S
O5 Zn0 2.049 1_455 S
O5 C13 1.260 . S
O6 Zn1 1.996 . S
O6 C13 1.257 . S
C7 O2 1.254 . S
C7 O3 1.269 . S
C8 O9 1.249 . S
C8 O10 1.270 . S
O9 Zn1 1.943 1_655 S
O9 C8 1.249 . S
O10 Zn0 2.067 . S
O10 C8 1.270 . S
C11 O4 1.262 . S
C11 O12 1.232 1_455 S
O12 C11 1.232 1_655 S
C13 O5 1.260 . S
C13 O6 1.257 . S
Zn14 O17 2.031 1_455 S
Zn14 O19 2.049 . S
Zn14 O24 2.067 . S
Zn15 O16 1.962 1_455 S
Zn15 O18 1.986 . S
Zn15 O20 1.996 . S
Zn15 O23 1.943 . S
O16 Zn15 1.962 1_655 S
O16 C21 1.254 . S
O17 Zn14 2.031 1_655 S
O17 C21 1.269 . S
O18 Zn15 1.986 . S
O18 C25 1.262 1_455 S
O19 Zn14 2.049 . S
O19 C27 1.260 . S
O20 Zn15 1.996 . S
O20 C27 1.257 . S
C21 O16 1.254 . S
C21 O17 1.269 . S
C22 O23 1.249 . S
C22 O24 1.270 . S
O23 Zn15 1.943 . S
O23 C22 1.249 . S
O24 Zn14 2.067 . S
O24 C22 1.270 . S
C25 O18 1.262 1_655 S
C25 O26 1.232 . S
O26 C25 1.232 . S
C27 O19 1.260 . S
C27 O20 1.257 . S
Zn28 O31 2.031 . S
Zn28 O33 2.049 . S
Zn28 O38 2.067 . S
Zn29 O30 1.962 . S
Zn29 O32 1.986 . S
Zn29 O34 1.996 . S
Zn29 O37 1.943 . S
O30 Zn29 1.962 . S
O30 C35 1.254 . S
O31 Zn28 2.031 . S
O31 C35 1.269 . S
O32 Zn29 1.986 . S
O32 C39 1.262 . S
O33 Zn28 2.049 . S
O33 C41 1.260 . S
O34 Zn29 1.996 . S
O34 C41 1.257 . S
C35 O30 1.254 . S
C35 O31 1.269 . S
C36 O37 1.249 . S
C36 O38 1.270 . S
O37 Zn29 1.943 . S
O37 C36 1.249 . S
O38 Zn28 2.067 . S
O38 C36 1.270 . S
C39 O32 1.262 . S
C39 O40 1.232 . S
O40 C39 1.232 . S
C41 O33 1.260 . S
C41 O34 1.257 . S
Zn42 O45 2.031 . S
Zn42 O47 2.049 . S
Zn42 O52 2.067 . S
Zn43 O44 1.962 . S
Zn43 O46 1.986 . S
Zn43 O48 1.996 . S
Zn43 O51 1.943 . S
O44 Zn43 1.962 . S
O44 C49 1.254 . S
O45 Zn42 2.031 . S
O45 C49 1.269 . S
O46 Zn43 1.986 . S
O46 C53 1.262 . S
O47 Zn42 2.049 . S
O47 C55 1.260 . S
O48 Zn43 1.996 . S
O48 C55 1.257 . S
C49 O44 1.254 . S
C49 O45 1.269 . S
C50 O51 1.249 . S
C50 O52 1.270 . S
O51 Zn43 1.943 . S
O51 C50 1.249 . S
O52 Zn42 2.067 . S
O52 C50 1.270 . S
C53 O46 1.262 . S
C53 O54 1.232 . S
O54 C53 1.232 . S
C55 O47 1.260 . S
C55 O48 1.257 . S
Zn56 O59 2.031 . S
Zn56 O61 2.049 . S
Zn56 O66 2.067 . S
Zn57 O58 1.962 . S
Zn57 O60 1.986 . S
Zn57 O62 1.996 . S
Zn57 O65 1.943 1_455 S
O58 Zn57 1.962 . S
O58 C63 1.254 1_455 S
O59 Zn56 2.031 . S
O59 C63 1.269 . S
O60 Zn57 1.986 . S
O60 C67 1.262 . S
O61 Zn56 2.049 . S
O61 C69 1.260 1_655 S
O62 Zn57 1.996 . S
O62 C69 1.257 . S
C63 O58 1.254 1_655 S
C63 O59 1.269 . S
C64 O65 1.249 . S
C64 O66 1.270 . S
O65 Zn57 1.943 1_655 S
O65 C64 1.249 . S
O66 Zn56 2.067 . S
O66 C64 1.270 . S
C67 O60 1.262 . S
C67 O68 1.232 . S
O68 C67 1.232 . S
C69 O61 1.260 1_455 S
C69 O62 1.257 . S
Zn70 O73 2.031 . S
Zn70 O75 2.049 . S
Zn70 O80 2.067 . S
Zn71 O72 1.962 . S
Zn71 O74 1.986 . S
Zn71 O76 1.996 . S
Zn71 O79 1.943 . S
O72 Zn71 1.962 . S
O72 C77 1.254 . S
O73 Zn70 2.031 . S
O73 C77 1.269 . S
O74 Zn71 1.986 . S
O74 C81 1.262 . S
O75 Zn70 2.049 . S
O75 C83 1.260 . S
O76 Zn71 1.996 . S
O76 C83 1.257 . S
C77 O72 1.254 . S
C77 O73 1.269 . S
C78 O79 1.249 . S
C78 O80 1.270 . S
O79 Zn71 1.943 . S
O79 C78 1.249 . S
O80 Zn70 2.067 . S
O80 C78 1.270 . S
C81 O74 1.262 . S
C81 O82 1.232 . S
O82 C81 1.232 . S
C83 O75 1.260 . S
C83 O76 1.257 . S
Zn84 O87 2.031 . S
Zn84 O89 2.049 . S
Zn84 O94 2.067 . S
Zn85 O86 1.962 . S
Zn85 O88 1.986 . S
Zn85 O90 1.996 . S
Zn85 O93 1.943 . S
O86 Zn85 1.962 . S
O86 C91 1.254 . S
O87 Zn84 2.031 . S
O87 C91 1.269 . S
O88 Zn85 1.986 . S
O88 C95 1.262 . S
O89 Zn84 2.049 . S
O89 C97 1.260 . S
O90 Zn85 1.996 . S
O90 C97 1.257 . S
C91 O86 1.254 . S
C91 O87 1.269 . S
C92 O93 1.249 . S
C92 O94 1.270 . S
O93 Zn85 1.943 . S
O93 C92 1.249 . S
O94 Zn84 2.067 . S
O94 C92 1.270 . S
C95 O88 1.262 . S
C95 O96 1.232 . S
O96 C95 1.232 . S
C97 O89 1.260 . S
C97 O90 1.257 . S
Zn98 O101 2.031 . S
Zn98 O103 2.049 . S
Zn98 O108 2.067 . S
Zn99 O100 1.962 . S
Zn99 O102 1.986 . S
Zn99 O104 1.996 1_655 S
Zn99 O107 1.943 1_655 S
O100 Zn99 1.962 . S
O100 C105 1.254 . S
O101 Zn98 2.031 . S
O101 C105 1.269 1_455 S
O102 Zn99 1.986 . S
O102 C109 1.262 . S
O103 Zn98 2.049 . S
O103 C111 1.260 . S
O104 Zn99 1.996 1_455 S
O104 C111 1.257 . S
C105 O100 1.254 . S
C105 O101 1.269 1_655 S
C106 O107 1.249 . S
C106 O108 1.270 . S
O107 Zn99 1.943 1_455 S
O107 C106 1.249 . S
O108 Zn98 2.067 . S
O108 C106 1.270 . S
C109 O102 1.262 . S
C109 O110 1.232 . S
O110 C109 1.232 . S
C111 O103 1.260 . S
C111 O104 1.257 . S
Zn112 O115 2.031 . S
Zn112 O117 2.049 1_565 S
Zn112 O122 2.067 . S
Zn113 O114 1.962 1_545 S
Zn113 O116 1.986 . S
Zn113 O118 1.996 . S
Zn113 O121 1.943 1_545 S
O114 Zn113 1.962 1_565 S
O114 C119 1.254 . S
O115 Zn112 2.031 . S
O115 C119 1.269 . S
O116 Zn113 1.986 . S
O116 C123 1.262 . S
O117 Zn112 2.049 1_545 S
O117 C125 1.260 . S
O118 Zn113 1.996 . S
O118 C125 1.257 . S
C119 O114 1.254 . S
C119 O115 1.269 . S
C120 O121 1.249 . S
C120 O122 1.270 . S
O121 Zn113 1.943 1_565 S
O121 C120 1.249 . S
O122 Zn112 2.067 . S
O122 C120 1.270 . S
C123 O116 1.262 . S
C123 O124 1.232 1_545 S
O124 C123 1.232 1_565 S
C125 O117 1.260 . S
C125 O118 1.257 . S
Zn126 O129 2.031 . S
Zn126 O131 2.049 . S
Zn126 O136 2.067 . S
Zn127 O128 1.962 . S
Zn127 O130 1.986 . S
Zn127 O132 1.996 . S
Zn127 O135 1.943 . S
O128 Zn127 1.962 . S
O128 C133 1.254 . S
O129 Zn126 2.031 . S
O129 C133 1.269 . S
O130 Zn127 1.986 . S
O130 C137 1.262 . S
O131 Zn126 2.049 . S
O131 C139 1.260 . S
O132 Zn127 1.996 . S
O132 C139 1.257 . S
C133 O128 1.254 . S
C133 O129 1.269 . S
C134 O135 1.249 . S
C134 O136 1.270 . S
O135 Zn127 1.943 . S
O135 C134 1.249 . S
O136 Zn126 2.067 . S
O136 C134 1.270 . S
C137 O130 1.262 . S
C137 O138 1.232 . S
O138 C137 1.232 . S
C139 O131 1.260 . S
C139 O132 1.257 . S
Zn140 O143 2.031 . S
Zn140 O145 2.049 . S
Zn140 O150 2.067 . S
Zn141 O142 1.962 . S
Zn141 O144 1.986 . S
Zn141 O146 1.996 . S
Zn141 O149 1.943 1_545 S
O142 Zn141 1.962 . S
O142 C147 1.254 1_545 S
O143 Zn140 2.031 . S
O143 C147 1.269 . S
O144 Zn141 1.986 . S
O144 C151 1.262 . S
O145 Zn140 2.049 . S
O145 C153 1.260 1_565 S
O146 Zn141 1.996 . S
O146 C153 1.257 . S
C147 O142 1.254 1_565 S
C147 O143 1.269 . S
C148 O149 1.249 . S
C148 O150 1.270 . S
O149 Zn141 1.943 1_565 S
O149 C148 1.249 . S
O150 Zn140 2.067 . S
O150 C148 1.270 . S
C151 O144 1.262 . S
C151 O152 1.232 . S
O152 C151 1.232 . S
C153 O145 1.260 1_545 S
C153 O146 1.257 . S
Zn154 O157 2.031 . S
Zn154 O159 2.049 . S
Zn154 O164 2.067 . S
Zn155 O156 1.962 . S
Zn155 O158 1.986 . S
Zn155 O160 1.996 1_556 S
Zn155 O163 1.943 1_556 S
O156 Zn155 1.962 . S
O156 C161 1.254 . S
O157 Zn154 2.031 . S
O157 C161 1.269 1_554 S
O158 Zn155 1.986 . S
O158 C165 1.262 . S
O159 Zn154 2.049 . S
O159 C167 1.260 . S
O160 Zn155 1.996 1_554 S
O160 C167 1.257 . S
C161 O156 1.254 . S
C161 O157 1.269 1_556 S
C162 O163 1.249 . S
C162 O164 1.270 . S
O163 Zn155 1.943 1_554 S
O163 C162 1.249 . S
O164 Zn154 2.067 . S
O164 C162 1.270 . S
C165 O158 1.262 . S
C165 O166 1.232 . S
O166 C165 1.232 . S
C167 O159 1.260 . S
C167 O160 1.257 . S
Zn168 O171 2.031 . S
Zn168 O173 2.049 1_556 S
Zn168 O178 2.067 . S
Zn169 O170 1.962 1_554 S
Zn169 O172 1.986 . S
Zn169 O174 1.996 . S
Zn169 O177 1.943 1_554 S
O170 Zn169 1.962 1_556 S
O170 C175 1.254 . S
O171 Zn168 2.031 . S
O171 C175 1.269 . S
O172 Zn169 1.986 . S
O172 C179 1.262 . S
O173 Zn168 2.049 1_554 S
O173 C181 1.260 . S
O174 Zn169 1.996 . S
O174 C181 1.257 . S
C175 O170 1.254 . S
C175 O171 1.269 . S
C176 O177 1.249 . S
C176 O178 1.270 . S
O177 Zn169 1.943 1_556 S
O177 C176 1.249 . S
O178 Zn168 2.067 . S
O178 C176 1.270 . S
C179 O172 1.262 . S
C179 O180 1.232 1_554 S
O180 C179 1.232 1_556 S
C181 O173 1.260 . S
C181 O174 1.257 . S
Zn182 O185 2.031 . S
Zn182 O187 2.049 . S
Zn182 O192 2.067 . S
Zn183 O184 1.962 . S
Zn183 O186 1.986 . S
Zn183 O188 1.996 . S
Zn183 O191 1.943 1_554 S
O184 Zn183 1.962 . S
O184 C189 1.254 1_554 S
O185 Zn182 2.031 . S
O185 C189 1.269 . S
O186 Zn183 1.986 . S
O186 C193 1.262 . S
O187 Zn182 2.049 . S
O187 C195 1.260 1_556 S
O188 Zn183 1.996 . S
O188 C195 1.257 . S
C189 O184 1.254 1_556 S
C189 O185 1.269 . S
C190 O191 1.249 . S
C190 O192 1.270 . S
O191 Zn183 1.943 1_556 S
O191 C190 1.249 . S
O192 Zn182 2.067 . S
O192 C190 1.270 . S
C193 O186 1.262 . S
C193 O194 1.232 . S
O194 C193 1.232 . S
C195 O187 1.260 1_554 S
C195 O188 1.257 . S
Zn196 O199 2.031 . S
Zn196 O201 2.049 . S
Zn196 O206 2.067 . S
Zn197 O198 1.962 . S
Zn197 O200 1.986 . S
Zn197 O202 1.996 . S
Zn197 O205 1.943 . S
O198 Zn197 1.962 . S
O198 C203 1.254 . S
O199 Zn196 2.031 . S
O199 C203 1.269 . S
O200 Zn197 1.986 . S
O200 C207 1.262 . S
O201 Zn196 2.049 . S
O201 C209 1.260 . S
O202 Zn197 1.996 . S
O202 C209 1.257 . S
C203 O198 1.254 . S
C203 O199 1.269 . S
C204 O205 1.249 . S
C204 O206 1.270 . S
O205 Zn197 1.943 . S
O205 C204 1.249 . S
O206 Zn196 2.067 . S
O206 C204 1.270 . S
C207 O200 1.262 . S
C207 O208 1.232 . S
O208 C207 1.232 . S
C209 O201 1.260 . S
C209 O202 1.257 . S
Zn210 O213 2.031 . S
Zn210 O215 2.049 . S
Zn210 O220 2.067 . S
Zn211 O212 1.962 . S
Zn211 O214 1.986 . S
Zn211 O216 1.996 . S
Zn211 O219 1.943 . S
O212 Zn211 1.962 . S
O212 C217 1.254 . S
O213 Zn210 2.031 . S
O213 C217 1.269 . S
O214 Zn211 1.986 . S
O214 C221 1.262 . S
O215 Zn210 2.049 . S
O215 C223 1.260 . S
O216 Zn211 1.996 . S
O216 C223 1.257 . S
C217 O212 1.254 . S
C217 O213 1.269 . S
C218 O219 1.249 . S
C218 O220 1.270 . S
O219 Zn211 1.943 . S
O219 C218 1.249 . S
O220 Zn210 2.067 . S
O220 C218 1.270 . S
C221 O214 1.262 . S
C221 O222 1.232 . S
O222 C221 1.232 . S
C223 O215 1.260 . S
C223 O216 1.257 . S
Zn224 O227 2.031 . S
Zn224 O229 2.049 . S
Zn224 O234 2.067 . S
Zn225 O226 1.962 . S
Zn225 O228 1.986 . S
Zn225 O230 1.996 1_565 S
Zn225 O233 1.943 1_565 S
O226 Zn225 1.962 . S
O226 C231 1.254 . S
O227 Zn224 2.031 . S
O227 C231 1.269 1_545 S
O228 Zn225 1.986 . S
O228 C235 1.262 . S
O229 Zn224 2.049 . S
O229 C237 1.260 . S
O230 Zn225 1.996 1_545 S
O230 C237 1.257 . S
C231 O226 1.254 . S
C231 O227 1.269 1_565 S
C232 O233 1.249 . S
C232 O234 1.270 . S
O233 Zn225 1.943 1_545 S
O233 C232 1.249 . S
O234 Zn224 2.067 . S
O234 C232 1.270 . S
C235 O228 1.262 . S
C235 O236 1.232 . S
O236 C235 1.232 . S
C237 O229 1.260 . S
C237 O230 1.257 . S
Zn238 O241 2.031 . S
Zn238 O243 2.049 . S
Zn238 O248 2.067 . S
Zn239 O240 1.962 . S
Zn239 O242 1.986 . S
Zn239 O244 1.996 . S
Zn239 O247 1.943 . S
O240 Zn239 1.962 . S
O240 C245 1.254 . S
O241 Zn238 2.031 . S
O241 C245 1.269 . S
O242 Zn239 1.986 . S
O242 C249 1.262 . S
O243 Zn238 2.049 . S
O243 C251 1.260 . S
O244 Zn239 1.996 . S
O244 C251 1.257 . S
C245 O240 1.254 . S
C245 O241 1.269 . S
C246 O247 1.249 . S
C246 O248 1.270 . S
O247 Zn239 1.943 . S
O247 C246 1.249 . S
O248 Zn238 2.067 . S
O248 C246 1.270 . S
C249 O242 1.262 . S
C249 O250 1.232 . S
O250 C249 1.232 . S
C251 O243 1.260 . S
C251 O244 1.257 . S
Zn252 O255 2.031 . S
Zn252 O257 2.049 . S
Zn252 O262 2.067 . S
Zn253 O254 1.962 . S
Zn253 O256 1.986 . S
Zn253 O258 1.996 . S
Zn253 O261 1.943 . S
O254 Zn253 1.962 . S
O254 C259 1.254 . S
O255 Zn252 2.031 . S
O255 C259 1.269 . S
O256 Zn253 1.986 . S
O256 C263 1.262 . S
O257 Zn252 2.049 . S
O257 C265 1.260 . S
O258 Zn253 1.996 . S
O258 C265 1.257 . S
C259 O254 1.254 . S
C259 O255 1.269 . S
C260 O261 1.249 . S
C260 O262 1.270 . S
O261 Zn253 1.943 . S
O261 C260 1.249 . S
O262 Zn252 2.067 . S
O262 C260 1.270 . S
C263 O256 1.262 . S
C263 O264 1.232 . S
O264 C263 1.232 . S
C265 O257 1.260 . S
C265 O258 1.257 . S
Zn266 O269 2.031 1_545 S
Zn266 O271 2.049 . S
Zn266 O276 2.067 . S
Zn267 O268 1.962 1_545 S
Zn267 O270 1.986 . S
Zn267 O272 1.996 . S
Zn267 O275 1.943 . S
O268 Zn267 1.962 1_565 S
O268 C273 1.254 . S
O269 Zn266 2.031 1_565 S
O269 C273 1.269 . S
O270 Zn267 1.986 . S
O270 C277 1.262 1_545 S
O271 Zn266 2.049 . S
O271 C279 1.260 . S
O272 Zn267 1.996 . S
O272 C279 1.257 . S
C273 O268 1.254 . S
C273 O269 1.269 . S
C274 O275 1.249 . S
C274 O276 1.270 . S
O275 Zn267 1.943 . S
O275 C274 1.249 . S
O276 Zn266 2.067 . S
O276 C274 1.270 . S
C277 O270 1.262 1_565 S
C277 O278 1.232 . S
O278 C277 1.232 . S
C279 O271 1.260 . S
C279 O272 1.257 . S
Zn280 O283 2.031 1_554 S
Zn280 O285 2.049 . S
Zn280 O290 2.067 . S
Zn281 O282 1.962 1_554 S
Zn281 O284 1.986 . S
Zn281 O286 1.996 . S
Zn281 O289 1.943 . S
O282 Zn281 1.962 1_556 S
O282 C287 1.254 . S
O283 Zn280 2.031 1_556 S
O283 C287 1.269 . S
O284 Zn281 1.986 . S
O284 C291 1.262 1_554 S
O285 Zn280 2.049 . S
O285 C293 1.260 . S
O286 Zn281 1.996 . S
O286 C293 1.257 . S
C287 O282 1.254 . S
C287 O283 1.269 . S
C288 O289 1.249 . S
C288 O290 1.270 . S
O289 Zn281 1.943 . S
O289 C288 1.249 . S
O290 Zn280 2.067 . S
O290 C288 1.270 . S
C291 O284 1.262 1_556 S
C291 O292 1.232 . S
O292 C291 1.232 . S
C293 O285 1.260 . S
C293 O286 1.257 . S
Zn294 O297 2.031 . S
Zn294 O299 2.049 . S
Zn294 O304 2.067 . S
Zn295 O296 1.962 . S
Zn295 O298 1.986 . S
Zn295 O300 1.996 . S
Zn295 O303 1.943 . S
O296 Zn295 1.962 . S
O296 C301 1.254 . S
O297 Zn294 2.031 . S
O297 C301 1.269 . S
O298 Zn295 1.986 . S
O298 C305 1.262 . S
O299 Zn294 2.049 . S
O299 C307 1.260 . S
O300 Zn295 1.996 . S
O300 C307 1.257 . S
C301 O296 1.254 . S
C301 O297 1.269 . S
C302 O303 1.249 . S
C302 O304 1.270 . S
O303 Zn295 1.943 . S
O303 C302 1.249 . S
O304 Zn294 2.067 . S
O304 C302 1.270 . S
C305 O298 1.262 . S
C305 O306 1.232 . S
O306 C305 1.232 . S
C307 O299 1.260 . S
C307 O300 1.257 . S
Zn308 O311 2.031 . S
Zn308 O313 2.049 . S
Zn308 O318 2.067 . S
Zn309 O310 1.962 . S
Zn309 O312 1.986 . S
Zn309 O314 1.996 . S
Zn309 O317 1.943 . S
O310 Zn309 1.962 . S
O310 C315 1.254 . S
O311 Zn308 2.031 . S
O311 C315 1.269 . S
O312 Zn309 1.986 . S
O312 C319 1.262 . S
O313 Zn308 2.049 . S
O313 C321 1.260 . S
O314 Zn309 1.996 . S
O314 C321 1.257 . S
C315 O310 1.254 . S
C315 O311 1.269 . S
C316 O317 1.249 . S
C316 O318 1.270 . S
O317 Zn309 1.943 . S
O317 C316 1.249 . S
O318 Zn308 2.067 . S
O318 C316 1.270 . S
C319 O312 1.262 . S
C319 O320 1.232 . S
O320 C319 1.232 . S
C321 O313 1.260 . S
C321 O314 1.257 . S
Zn322 O325 2.031 . S
Zn322 O327 2.049 . S
Zn322 O332 2.067 . S
Zn323 O324 1.962 . S
Zn323 O326 1.986 . S
Zn323 O328 1.996 . S
Zn323 O331 1.943 . S
O324 Zn323 1.962 . S
O324 C329 1.254 . S
O325 Zn322 2.031 . S
O325 C329 1.269 . S
O326 Zn323 1.986 . S
O326 C333 1.262 . S
O327 Zn322 2.049 . S
O327 C335 1.260 . S
O328 Zn323 1.996 . S
O328 C335 1.257 . S
C329 O324 1.254 . S
C329 O325 1.269 . S
C330 O331 1.249 . S
C330 O332 1.270 . S
O331 Zn323 1.943 . S
O331 C330 1.249 . S
O332 Zn322 2.067 . S
O332 C330 1.270 . S
C333 O326 1.262 . S
C333 O334 1.232 . S
O334 C333 1.232 . S
C335 O327 1.260 . S
C335 O328 1.257 . S
C336 C337 1.363 . S
C336 C342 1.379 . S
C336 N344 1.356 . S
C337 C336 1.363 . S
C337 C343 1.363 . S
C338 C339 1.363 . S
C338 C343 1.379 . S
C338 N345 1.356 . S
C339 C338 1.363 . S
C339 C342 1.363 . S
N340 C342 1.356 . S
N340 H352 0.984 . S
N340 H353 0.985 . S
N341 C343 1.356 . S
N341 H346 0.984 . S
N341 H347 0.985 . S
C342 C336 1.379 . S
C342 C339 1.363 . S
C342 N340 1.356 . S
C343 C337 1.363 . S
C343 C338 1.379 . S
C343 N341 1.356 . S
N344 C336 1.356 . S
N344 H350 0.984 . S
N344 H351 0.984 . S
N345 C338 1.356 . S
N345 H348 0.984 . S
N345 H349 0.985 . S
H346 N341 0.984 . S
H347 N341 0.985 . S
H348 N345 0.984 . S
H349 N345 0.985 . S
H350 N344 0.984 . S
H351 N344 0.984 . S
H352 N340 0.984 . S
H353 N340 0.985 . S
C354 C355 1.363 . S
C354 C360 1.379 . S
C354 N362 1.356 . S
C355 C354 1.363 . S
C355 C361 1.363 . S
C356 C357 1.363 . S
C356 C361 1.379 . S
C356 N363 1.356 . S
C357 C356 1.363 . S
C357 C360 1.363 . S
N358 C360 1.356 . S
N358 H370 0.984 . S
N358 H371 0.985 . S
N359 C361 1.356 . S
N359 H364 0.984 . S
N359 H365 0.985 . S
C360 C354 1.379 . S
C360 C357 1.363 . S
C360 N358 1.356 . S
C361 C355 1.363 . S
C361 C356 1.379 . S
C361 N359 1.356 . S
N362 C354 1.356 . S
N362 H368 0.984 . S
N362 H369 0.984 . S
N363 C356 1.356 . S
N363 H366 0.984 . S
N363 H367 0.985 . S
H364 N359 0.984 . S
H365 N359 0.985 . S
H366 N363 0.984 . S
H367 N363 0.985 . S
H368 N362 0.984 . S
H369 N362 0.984 . S
H370 N358 0.984 . S
H371 N358 0.985 . S
C372 C373 1.363 . S
C372 C378 1.379 . S
C372 N380 1.356 . S
C373 C372 1.363 . S
C373 C379 1.363 . S
C374 C375 1.363 . S
C374 C379 1.379 . S
C374 N381 1.356 . S
C375 C374 1.363 . S
C375 C378 1.363 . S
N376 C378 1.356 . S
N376 H388 0.984 . S
N376 H389 0.985 . S
N377 C379 1.356 . S
N377 H382 0.984 . S
N377 H383 0.985 . S
C378 C372 1.379 . S
C378 C375 1.363 . S
C378 N376 1.356 . S
C379 C373 1.363 . S
C379 C374 1.379 . S
C379 N377 1.356 . S
N380 C372 1.356 . S
N380 H386 0.984 . S
N380 H387 0.984 . S
N381 C374 1.356 . S
N381 H384 0.984 . S
N381 H385 0.985 . S
H382 N377 0.984 . S
H383 N377 0.985 . S
H384 N381 0.984 . S
H385 N381 0.985 . S
H386 N380 0.984 . S
H387 N380 0.984 . S
H388 N376 0.984 . S
H389 N376 0.985 . S
C390 C391 1.363 . S
C390 C396 1.379 . S
C390 N398 1.356 . S
C391 C390 1.363 . S
C391 C397 1.363 . S
C392 C393 1.363 . S
C392 C397 1.379 . S
C392 N399 1.356 . S
C393 C392 1.363 . S
C393 C396 1.363 . S
N394 C396 1.355 1_556 S
N394 H406 0.986 . S
N394 H407 0.985 . S
N395 C397 1.356 . S
N395 H400 0.984 . S
N395 H401 0.985 . S
C396 C390 1.379 . S
C396 C393 1.363 . S
C396 N394 1.355 1_554 S
C397 C391 1.363 . S
C397 C392 1.379 . S
C397 N395 1.356 . S
N398 C390 1.356 . S
N398 H404 0.984 . S
N398 H405 0.984 . S
N399 C392 1.356 . S
N399 H402 0.984 . S
N399 H403 0.985 . S
H400 N395 0.984 . S
H401 N395 0.985 . S
H402 N399 0.984 . S
H403 N399 0.985 . S
H404 N398 0.984 . S
H405 N398 0.984 . S
H406 N394 0.986 . S
H407 N394 0.985 . S
C408 C409 1.363 . S
C408 C414 1.379 . S
C408 N416 1.356 . S
C409 C408 1.363 . S
C409 C415 1.363 . S
C410 C411 1.363 . S
C410 C415 1.379 . S
C410 N417 1.356 . S
C411 C410 1.363 . S
C411 C414 1.363 . S
N412 C414 1.356 . S
N412 H424 0.984 . S
N412 H425 0.985 . S
N413 C415 1.356 . S
N413 H418 0.984 . S
N413 H419 0.985 . S
C414 C408 1.379 . S
C414 C411 1.363 . S
C414 N412 1.356 . S
C415 C409 1.363 . S
C415 C410 1.379 . S
C415 N413 1.356 . S
N416 C408 1.356 . S
N416 H422 0.984 . S
N416 H423 0.984 . S
N417 C410 1.356 . S
N417 H420 0.984 . S
N417 H421 0.985 . S
H418 N413 0.984 . S
H419 N413 0.985 . S
H420 N417 0.984 . S
H421 N417 0.985 . S
H422 N416 0.984 . S
H423 N416 0.984 . S
H424 N412 0.984 . S
H425 N412 0.985 . S
C426 C427 1.363 . S
C426 C432 1.379 . S
C426 N434 1.356 . S
C427 C426 1.363 . S
C427 C433 1.363 . S
C428 C429 1.363 . S
C428 C433 1.379 . S
C428 N435 1.356 . S
C429 C428 1.363 . S
C429 C432 1.363 . S
N430 C432 1.356 . S
N430 H442 0.984 . S
N430 H443 0.985 . S
N431 C433 1.356 . S
N431 H436 0.984 . S
N431 H437 0.985 . S
C432 C426 1.379 . S
C432 C429 1.363 . S
C432 N430 1.356 . S
C433 C427 1.363 . S
C433 C428 1.379 . S
C433 N431 1.356 . S
N434 C426 1.356 . S
N434 H440 0.984 . S
N434 H441 0.984 . S
N435 C428 1.356 . S
N435 H438 0.984 . S
N435 H439 0.985 . S
H436 N431 0.984 . S
H437 N431 0.985 . S
H438 N435 0.984 . S
H439 N435 0.985 . S
H440 N434 0.984 . S
H441 N434 0.984 . S
H442 N430 0.984 . S
H443 N430 0.985 . S
C444 C445 1.363 . S
C444 C450 1.379 . S
C444 N452 1.356 . S
C445 C444 1.363 . S
C445 C451 1.363 . S
C446 C447 1.363 . S
C446 C451 1.379 . S
C446 N453 1.356 . S
C447 C446 1.363 . S
C447 C450 1.363 . S
N448 C450 1.356 . S
N448 H460 0.984 . S
N448 H461 0.985 . S
N449 C451 1.356 . S
N449 H454 0.984 . S
N449 H455 0.985 . S
C450 C444 1.379 . S
C450 C447 1.363 . S
C450 N448 1.356 . S
C451 C445 1.363 . S
C451 C446 1.379 . S
C451 N449 1.356 . S
N452 C444 1.356 . S
N452 H458 0.984 . S
N452 H459 0.984 . S
N453 C446 1.356 . S
N453 H456 0.984 . S
N453 H457 0.985 . S
H454 N449 0.984 . S
H455 N449 0.985 . S
H456 N453 0.984 . S
H457 N453 0.985 . S
H458 N452 0.984 . S
H459 N452 0.984 . S
H460 N448 0.984 . S
H461 N448 0.985 . S
C462 C463 1.363 . S
C462 C468 1.379 . S
C462 N470 1.356 . S
C463 C462 1.363 . S
C463 C469 1.363 . S
C464 C465 1.363 . S
C464 C469 1.379 . S
C464 N471 1.356 1_556 S
C465 C464 1.363 . S
C465 C468 1.363 . S
N466 C468 1.356 . S
N466 H478 0.984 . S
N466 H479 0.985 . S
N467 C469 1.356 . S
N467 H472 0.984 . S
N467 H473 0.985 1_556 S
C468 C462 1.379 . S
C468 C465 1.363 . S
C468 N466 1.356 . S
C469 C463 1.363 . S
C469 C464 1.379 . S
C469 N467 1.356 . S
N470 C462 1.356 . S
N470 H476 0.984 . S
N470 H477 0.984 . S
N471 C464 1.356 1_554 S
N471 H474 0.984 . S
N471 H475 0.985 . S
H472 N467 0.984 . S
H473 N467 0.985 1_554 S
H474 N471 0.984 . S
H475 N471 0.985 . S
H476 N470 0.984 . S
H477 N470 0.984 . S
H478 N466 0.984 . S
H479 N466 0.985 . S
C480 C481 1.363 . S
C480 C486 1.379 . S
C480 N488 1.356 . S
C481 C480 1.363 . S
C481 C487 1.363 . S
C482 C483 1.363 . S
C482 C487 1.379 . S
C482 N489 1.356 . S
C483 C482 1.363 . S
C483 C486 1.363 . S
N484 C486 1.356 . S
N484 H496 0.984 . S
N484 H497 0.985 . S
N485 C487 1.356 . S
N485 H490 0.984 . S
N485 H491 0.985 . S
C486 C480 1.379 . S
C486 C483 1.363 . S
C486 N484 1.356 . S
C487 C481 1.363 . S
C487 C482 1.379 . S
C487 N485 1.356 . S
N488 C480 1.356 . S
N488 H494 0.984 . S
N488 H495 0.984 . S
N489 C482 1.356 . S
N489 H492 0.984 . S
N489 H493 0.985 1_545 S
H490 N485 0.984 . S
H491 N485 0.985 . S
H492 N489 0.984 . S
H493 N489 0.985 1_565 S
H494 N488 0.984 . S
H495 N488 0.984 . S
H496 N484 0.984 . S
H497 N484 0.985 . S
C498 C499 1.363 . S
C498 C504 1.379 . S
C498 N506 1.356 . S
C499 C498 1.363 . S
C499 C505 1.363 . S
C500 C501 1.363 . S
C500 C505 1.379 . S
C500 N507 1.356 . S
C501 C500 1.363 . S
C501 C504 1.363 . S
N502 C504 1.356 . S
N502 H514 0.984 . S
N502 H515 0.985 . S
N503 C505 1.356 . S
N503 H508 0.984 . S
N503 H509 0.985 1_545 S
C504 C498 1.379 . S
C504 C501 1.363 . S
C504 N502 1.356 . S
C505 C499 1.363 . S
C505 C500 1.379 . S
C505 N503 1.356 . S
N506 C498 1.356 . S
N506 H512 0.984 . S
N506 H513 0.984 . S
N507 C500 1.356 . S
N507 H510 0.984 . S
N507 H511 0.985 . S
H508 N503 0.984 . S
H509 N503 0.985 1_565 S
H510 N507 0.984 . S
H511 N507 0.985 . S
H512 N506 0.984 . S
H513 N506 0.984 . S
H514 N502 0.984 . S
H515 N502 0.985 . S
C516 C517 1.363 . S
C516 C522 1.379 . S
C516 N524 1.356 1_565 S
C517 C516 1.363 . S
C517 C523 1.363 . S
C518 C519 1.363 . S
C518 C523 1.379 . S
C518 N525 1.356 . S
C519 C518 1.363 . S
C519 C522 1.363 . S
N520 C522 1.356 . S
N520 H532 0.984 1_565 S
N520 H533 0.985 . S
N521 C523 1.356 . S
N521 H526 0.984 . S
N521 H527 0.985 . S
C522 C516 1.379 . S
C522 C519 1.363 . S
C522 N520 1.356 . S
C523 C517 1.363 . S
C523 C518 1.379 . S
C523 N521 1.356 . S
N524 C516 1.356 1_545 S
N524 H530 0.984 . S
N524 H531 0.984 . S
N525 C518 1.356 . S
N525 H528 0.984 . S
N525 H529 0.985 . S
H526 N521 0.984 . S
H527 N521 0.985 . S
H528 N525 0.984 . S
H529 N525 0.985 . S
H530 N524 0.984 . S
H531 N524 0.984 . S
H532 N520 0.984 1_545 S
H533 N520 0.985 . S
C534 C535 1.363 . S
C534 C540 1.379 . S
C534 N542 1.356 . S
C535 C534 1.363 . S
C535 C541 1.363 . S
C536 C537 1.363 . S
C536 C541 1.379 . S
C536 N543 1.356 . S
C537 C536 1.363 . S
C537 C540 1.363 . S
N538 C540 1.356 1_545 S
N538 H550 0.984 . S
N538 H551 0.985 . S
N539 C541 1.356 . S
N539 H544 0.984 . S
N539 H545 0.985 . S
C540 C534 1.379 . S
C540 C537 1.363 . S
C540 N538 1.356 1_565 S
C541 C535 1.363 . S
C541 C536 1.379 . S
C541 N539 1.356 . S
N542 C534 1.356 . S
N542 H548 0.984 . S
N542 H549 0.984 . S
N543 C536 1.356 . S
N543 H546 0.984 . S
N543 H547 0.985 . S
H544 N539 0.984 . S
H545 N539 0.985 . S
H546 N543 0.984 . S
H547 N543 0.985 . S
H548 N542 0.984 . S
H549 N542 0.984 . S
H550 N538 0.984 . S
H551 N538 0.985 . S
C552 C553 1.363 . S
C552 C558 1.379 . S
C552 N560 1.356 1_554 S
C553 C552 1.363 . S
C553 C559 1.363 . S
C554 C555 1.363 . S
C554 C559 1.379 . S
C554 N561 1.356 . S
C555 C554 1.363 . S
C555 C558 1.363 . S
N556 C558 1.356 . S
N556 H568 0.973 1_554 S
N556 H569 0.985 . S
N557 C559 1.356 . S
N557 H562 0.984 . S
N557 H563 0.985 . S
C558 C552 1.379 . S
C558 C555 1.363 . S
C558 N556 1.356 . S
C559 C553 1.363 . S
C559 C554 1.379 . S
C559 N557 1.356 . S
N560 C552 1.356 1_556 S
N560 H566 0.984 . S
N560 H567 0.984 . S
N561 C554 1.356 . S
N561 H564 0.984 . S
N561 H565 0.985 . S
H562 N557 0.984 . S
H563 N557 0.985 . S
H564 N561 0.984 . S
H565 N561 0.985 . S
H566 N560 0.984 . S
H567 N560 0.984 . S
H568 N556 0.973 1_556 S
H569 N556 0.985 . S
C570 C571 1.363 . S
C570 C576 1.379 . S
C570 N578 1.356 . S
C571 C570 1.363 . S
C571 C577 1.363 . S
C572 C573 1.363 . S
C572 C577 1.379 . S
C572 N579 1.356 . S
C573 C572 1.363 . S
C573 C576 1.363 . S
N574 C576 1.356 . S
N574 H586 0.984 . S
N574 H587 0.985 . S
N575 C577 1.356 . S
N575 H580 0.984 . S
N575 H581 0.985 . S
C576 C570 1.379 . S
C576 C573 1.363 . S
C576 N574 1.356 . S
C577 C571 1.363 . S
C577 C572 1.379 . S
C577 N575 1.356 . S
N578 C570 1.356 . S
N578 H584 0.984 . S
N578 H585 0.984 . S
N579 C572 1.356 . S
N579 H582 0.984 . S
N579 H583 0.985 . S
H580 N575 0.984 . S
H581 N575 0.985 . S
H582 N579 0.984 . S
H583 N579 0.985 . S
H584 N578 0.984 . S
H585 N578 0.984 . S
H586 N574 0.984 . S
H587 N574 0.985 . S
C588 C589 1.363 . S
C588 C594 1.379 . S
C588 N596 1.356 . S
C589 C588 1.363 . S
C589 C595 1.363 . S
C590 C591 1.363 . S
C590 C595 1.379 . S
C590 N597 1.356 . S
C591 C590 1.363 . S
C591 C594 1.363 . S
N592 C594 1.356 . S
N592 H604 0.984 . S
N592 H605 0.985 . S
N593 C595 1.356 . S
N593 H598 0.984 . S
N593 H599 0.985 . S
C594 C588 1.379 . S
C594 C591 1.363 . S
C594 N592 1.356 . S
C595 C589 1.363 . S
C595 C590 1.379 . S
C595 N593 1.356 . S
N596 C588 1.356 . S
N596 H602 0.984 . S
N596 H603 0.984 . S
N597 C590 1.356 . S
N597 H600 0.984 . S
N597 H601 0.985 . S
H598 N593 0.984 . S
H599 N593 0.985 . S
H600 N597 0.984 . S
H601 N597 0.985 . S
H602 N596 0.984 . S
H603 N596 0.984 . S
H604 N592 0.984 . S
H605 N592 0.985 . S
C606 C607 1.363 . S
C606 C612 1.379 . S
C606 N614 1.356 . S
C607 C606 1.363 . S
C607 C613 1.363 . S
C608 C609 1.363 . S
C608 C613 1.379 . S
C608 N615 1.356 . S
C609 C608 1.363 . S
C609 C612 1.363 . S
N610 C612 1.356 . S
N610 H622 0.984 . S
N610 H623 0.985 . S
N611 C613 1.356 1_455 S
N611 H616 0.984 . S
N611 H617 0.985 . S
C612 C606 1.379 . S
C612 C609 1.363 . S
C612 N610 1.356 . S
C613 C607 1.363 . S
C613 C608 1.379 . S
C613 N611 1.356 1_655 S
N614 C606 1.356 . S
N614 H620 0.984 . S
N614 H621 0.984 . S
N615 C608 1.356 . S
N615 H618 0.984 . S
N615 H619 0.985 1_655 S
H616 N611 0.984 . S
H617 N611 0.985 . S
H618 N615 0.984 . S
H619 N615 0.985 1_455 S
H620 N614 0.984 . S
H621 N614 0.984 . S
H622 N610 0.984 . S
H623 N610 0.985 . S
C624 C625 1.363 . S
C624 C630 1.379 . S
C624 N632 1.356 . S
C625 C624 1.363 . S
C625 C631 1.363 . S
C626 C627 1.363 . S
C626 C631 1.379 . S
C626 N633 1.356 . S
C627 C626 1.363 . S
C627 C630 1.363 . S
N628 C630 1.356 . S
N628 H640 0.984 . S
N628 H641 0.985 . S
N629 C631 1.356 . S
N629 H634 0.984 . S
N629 H635 0.985 . S
C630 C624 1.379 . S
C630 C627 1.363 . S
C630 N628 1.356 . S
C631 C625 1.363 . S
C631 C626 1.379 . S
C631 N629 1.356 . S
N632 C624 1.356 . S
N632 H638 0.984 . S
N632 H639 0.984 . S
N633 C626 1.356 . S
N633 H636 0.984 . S
N633 H637 0.985 . S
H634 N629 0.984 . S
H635 N629 0.985 . S
H636 N633 0.984 . S
H637 N633 0.985 . S
H638 N632 0.984 . S
H639 N632 0.984 . S
H640 N628 0.984 . S
H641 N628 0.985 . S
C642 C643 1.363 . S
C642 C648 1.379 . S
C642 N650 1.356 . S
C643 C642 1.363 . S
C643 C649 1.363 . S
C644 C645 1.363 . S
C644 C649 1.379 . S
C644 N651 1.356 . S
C645 C644 1.363 . S
C645 C648 1.363 . S
N646 C648 1.356 . S
N646 H658 0.984 . S
N646 H659 0.985 . S
N647 C649 1.356 . S
N647 H652 0.984 . S
N647 H653 0.985 . S
C648 C642 1.379 . S
C648 C645 1.363 . S
C648 N646 1.356 . S
C649 C643 1.363 . S
C649 C644 1.379 . S
C649 N647 1.356 . S
N650 C642 1.356 . S
N650 H656 0.984 . S
N650 H657 0.984 . S
N651 C644 1.356 . S
N651 H654 0.984 . S
N651 H655 0.985 . S
H652 N647 0.984 . S
H653 N647 0.985 . S
H654 N651 0.984 . S
H655 N651 0.985 . S
H656 N650 0.984 . S
H657 N650 0.984 . S
H658 N646 0.984 . S
H659 N646 0.985 . S
C660 C661 1.375 . S
C660 C666 1.386 . S
C660 N668 1.339 1_556 S
C661 C660 1.375 . S
C661 C667 1.363 . S
C662 C663 1.363 . S
C662 C667 1.379 . S
C662 N669 1.356 . S
C663 C662 1.363 . S
C663 C666 1.363 . S
N664 C666 1.356 1_554 S
N664 H676 0.984 . S
N664 H677 0.985 1_554 S
N665 C667 1.356 . S
N665 H670 0.984 . S
N665 H671 0.985 . S
C666 C660 1.386 . S
C666 C663 1.363 . S
C666 N664 1.356 1_556 S
C667 C661 1.363 . S
C667 C662 1.379 . S
C667 N665 1.356 . S
N668 C660 1.339 1_554 S
N668 H674 0.984 . S
N668 H675 0.984 . S
N669 C662 1.356 . S
N669 H672 0.984 . S
N669 H673 0.985 . S
H670 N665 0.984 . S
H671 N665 0.985 . S
H672 N669 0.984 . S
H673 N669 0.985 . S
H674 N668 0.984 . S
H675 N668 0.984 . S
H676 N664 0.984 . S
H677 N664 0.985 1_556 S
C678 C679 1.363 . S
C678 C684 1.379 . S
C678 N686 1.356 . S
C679 C678 1.363 . S
C679 C685 1.363 . S
C680 C681 1.363 . S
C680 C685 1.379 . S
C680 N687 1.356 . S
C681 C680 1.363 . S
C681 C684 1.363 . S
N682 C684 1.356 1_455 S
N682 H694 0.984 . S
N682 H695 0.985 . S
N683 C685 1.356 . S
N683 H688 0.984 . S
N683 H689 0.985 . S
C684 C678 1.379 . S
C684 C681 1.363 . S
C684 N682 1.356 1_655 S
C685 C679 1.363 . S
C685 C680 1.379 . S
C685 N683 1.356 . S
N686 C678 1.356 . S
N686 H692 0.984 1_655 S
N686 H693 0.984 . S
N687 C680 1.356 . S
N687 H690 0.984 . S
N687 H691 0.985 . S
H688 N683 0.984 . S
H689 N683 0.985 . S
H690 N687 0.984 . S
H691 N687 0.985 . S
H692 N686 0.984 1_455 S
H693 N686 0.984 . S
H694 N682 0.984 . S
H695 N682 0.985 . S
C696 C697 1.363 . S
C696 C702 1.379 . S
C696 N704 1.356 . S
C697 C696 1.363 . S
C697 C703 1.363 . S
C698 C699 1.363 . S
C698 C703 1.379 . S
C698 N705 1.356 . S
C699 C698 1.363 . S
C699 C702 1.363 . S
N700 C702 1.356 . S
N700 H712 0.984 . S
N700 H713 0.985 . S
N701 C703 1.356 . S
N701 H706 0.984 . S
N701 H707 0.985 . S
C702 C696 1.379 . S
C702 C699 1.363 . S
C702 N700 1.356 . S
C703 C697 1.363 . S
C703 C698 1.379 . S
C703 N701 1.356 . S
N704 C696 1.356 . S
N704 H710 0.984 . S
N704 H711 0.984 . S
N705 C698 1.356 . S
N705 H708 0.984 . S
N705 H709 0.985 . S
H706 N701 0.984 . S
H707 N701 0.985 . S
H708 N705 0.984 . S
H709 N705 0.985 . S
H710 N704 0.984 . S
H711 N704 0.984 . S
H712 N700 0.984 . S
H713 N700 0.985 . S
C714 C715 1.363 . S
C714 C720 1.379 . S
C714 N722 1.356 . S
C715 C714 1.363 . S
C715 C721 1.363 . S
C716 C717 1.363 . S
C716 C721 1.379 . S
C716 N723 1.356 . S
C717 C716 1.363 . S
C717 C720 1.363 . S
N718 C720 1.356 . S
N718 H730 0.984 . S
N718 H731 0.985 . S
N719 C721 1.356 . S
N719 H724 0.984 . S
N719 H725 0.985 . S
C720 C714 1.379 . S
C720 C717 1.363 . S
C720 N718 1.356 . S
C721 C715 1.363 . S
C721 C716 1.379 . S
C721 N719 1.356 . S
N722 C714 1.356 . S
N722 H728 0.984 . S
N722 H729 0.984 . S
N723 C716 1.356 . S
N723 H726 0.984 . S
N723 H727 0.985 . S
H724 N719 0.984 . S
H725 N719 0.985 . S
H726 N723 0.984 . S
H727 N723 0.985 . S
H728 N722 0.984 . S
H729 N722 0.984 . S
H730 N718 0.984 . S
H731 N718 0.985 . S
C732 C733 1.363 . S
C732 C738 1.379 . S
C732 N740 1.356 . S
C733 C732 1.363 . S
C733 C739 1.363 . S
C734 C735 1.363 . S
C734 C739 1.379 . S
C734 N741 1.356 . S
C735 C734 1.363 . S
C735 C738 1.363 . S
N736 C738 1.356 . S
N736 H748 0.984 . S
N736 H749 0.985 . S
N737 C739 1.356 . S
N737 H742 0.984 . S
N737 H743 0.985 . S
C738 C732 1.379 . S
C738 C735 1.363 . S
C738 N736 1.356 . S
C739 C733 1.363 . S
C739 C734 1.379 . S
C739 N737 1.356 . S
N740 C732 1.356 . S
N740 H746 0.984 . S
N740 H747 0.984 . S
N741 C734 1.356 . S
N741 H744 0.984 . S
N741 H745 0.985 . S
H742 N737 0.984 . S
H743 N737 0.985 . S
H744 N741 0.984 . S
H745 N741 0.985 . S
H746 N740 0.984 . S
H747 N740 0.984 . S
H748 N736 0.984 . S
H749 N736 0.985 . S
C750 C751 1.363 . S
C750 C756 1.379 . S
C750 N758 1.356 . S
C751 C750 1.363 . S
C751 C757 1.363 . S
C752 C753 1.363 . S
C752 C757 1.379 . S
C752 N759 1.356 . S
C753 C752 1.363 . S
C753 C756 1.363 . S
N754 C756 1.356 . S
N754 H766 0.984 . S
N754 H767 0.985 . S
N755 C757 1.356 . S
N755 H760 0.984 . S
N755 H761 0.985 . S
C756 C750 1.379 . S
C756 C753 1.363 . S
C756 N754 1.356 . S
C757 C751 1.363 . S
C757 C752 1.379 . S
C757 N755 1.356 . S
N758 C750 1.356 . S
N758 H764 0.984 . S
N758 H765 0.984 . S
N759 C752 1.356 . S
N759 H762 0.983 1_565 S
N759 H763 0.985 1_565 S
H760 N755 0.984 . S
H761 N755 0.985 . S
H762 N759 0.983 1_545 S
H763 N759 0.985 1_545 S
H764 N758 0.984 . S
H765 N758 0.984 . S
H766 N754 0.984 . S
H767 N754 0.985 . S
C768 C769 1.363 . S
C768 C774 1.379 . S
C768 N776 1.356 1_565 S
C769 C768 1.363 . S
C769 C775 1.363 . S
C770 C771 1.363 . S
C770 C775 1.379 . S
C770 N777 1.356 . S
C771 C770 1.363 . S
C771 C774 1.363 . S
N772 C774 1.356 1_545 S
N772 H784 0.984 . S
N772 H785 0.985 1_545 S
N773 C775 1.356 . S
N773 H778 0.984 . S
N773 H779 0.985 . S
C774 C768 1.379 . S
C774 C771 1.363 . S
C774 N772 1.356 1_565 S
C775 C769 1.363 . S
C775 C770 1.379 . S
C775 N773 1.356 . S
N776 C768 1.356 1_545 S
N776 H782 0.984 . S
N776 H783 0.984 . S
N777 C770 1.356 . S
N777 H780 0.984 . S
N777 H781 0.985 . S
H778 N773 0.984 . S
H779 N773 0.985 . S
H780 N777 0.984 . S
H781 N777 0.985 . S
H782 N776 0.984 . S
H783 N776 0.984 . S
H784 N772 0.984 . S
H785 N772 0.985 1_565 S
C786 C787 1.363 . S
C786 C792 1.379 . S
C786 N794 1.356 . S
C787 C786 1.363 . S
C787 C793 1.363 . S
C788 C789 1.363 . S
C788 C793 1.379 . S
C788 N795 1.356 . S
C789 C788 1.363 . S
C789 C792 1.363 . S
N790 C792 1.356 . S
N790 H802 0.984 . S
N790 H803 0.985 . S
N791 C793 1.356 . S
N791 H796 0.984 . S
N791 H797 0.985 . S
C792 C786 1.379 . S
C792 C789 1.363 . S
C792 N790 1.356 . S
C793 C787 1.363 . S
C793 C788 1.379 . S
C793 N791 1.356 . S
N794 C786 1.356 . S
N794 H800 0.984 . S
N794 H801 0.984 . S
N795 C788 1.356 . S
N795 H798 0.984 . S
N795 H799 0.985 . S
H796 N791 0.984 . S
H797 N791 0.985 . S
H798 N795 0.984 . S
H799 N795 0.985 . S
H800 N794 0.984 . S
H801 N794 0.984 . S
H802 N790 0.984 . S
H803 N790 0.985 . S
C804 C805 1.363 . S
C804 C810 1.379 . S
C804 N812 1.356 . S
C805 C804 1.363 . S
C805 C811 1.363 . S
C806 C807 1.363 . S
C806 C811 1.379 . S
C806 N813 1.356 . S
C807 C806 1.363 . S
C807 C810 1.363 . S
N808 C810 1.356 . S
N808 H820 0.984 . S
N808 H821 0.985 . S
N809 C811 1.356 . S
N809 H814 0.984 . S
N809 H815 0.985 . S
C810 C804 1.379 . S
C810 C807 1.363 . S
C810 N808 1.356 . S
C811 C805 1.363 . S
C811 C806 1.379 . S
C811 N809 1.356 . S
N812 C804 1.356 . S
N812 H818 0.984 . S
N812 H819 0.984 . S
N813 C806 1.356 . S
N813 H816 0.984 . S
N813 H817 0.985 . S
H814 N809 0.984 . S
H815 N809 0.985 . S
H816 N813 0.984 . S
H817 N813 0.985 . S
H818 N812 0.984 . S
H819 N812 0.984 . S
H820 N808 0.984 . S
H821 N808 0.985 . S
C822 C823 1.363 . S
C822 C828 1.379 . S
C822 N830 1.356 . S
C823 C822 1.363 . S
C823 C829 1.363 . S
C824 C825 1.363 . S
C824 C829 1.379 . S
C824 N831 1.356 . S
C825 C824 1.363 . S
C825 C828 1.363 . S
N826 C828 1.356 1_554 S
N826 H838 0.984 . S
N826 H839 0.985 . S
N827 C829 1.356 . S
N827 H832 0.984 . S
N827 H833 0.985 . S
C828 C822 1.379 . S
C828 C825 1.363 . S
C828 N826 1.356 1_556 S
C829 C823 1.363 . S
C829 C824 1.379 . S
C829 N827 1.356 . S
N830 C822 1.356 . S
N830 H836 0.984 1_556 S
N830 H837 0.984 . S
N831 C824 1.356 . S
N831 H834 0.984 . S
N831 H835 0.985 . S
H832 N827 0.984 . S
H833 N827 0.985 . S
H834 N831 0.984 . S
H835 N831 0.985 . S
H836 N830 0.984 1_554 S
H837 N830 0.984 . S
H838 N826 0.984 . S
H839 N826 0.985 . S
C840 C841 1.363 . S
C840 C846 1.379 . S
C840 N848 1.356 . S
C841 C840 1.363 . S
C841 C847 1.363 . S
C842 C843 1.363 . S
C842 C847 1.379 . S
C842 N849 1.356 . S
C843 C842 1.363 . S
C843 C846 1.363 . S
N844 C846 1.356 . S
N844 H856 0.984 . S
N844 H857 0.985 . S
N845 C847 1.356 . S
N845 H850 0.984 . S
N845 H851 0.985 . S
C846 C840 1.379 . S
C846 C843 1.363 . S
C846 N844 1.356 . S
C847 C841 1.363 . S
C847 C842 1.379 . S
C847 N845 1.356 . S
N848 C840 1.356 . S
N848 H854 0.984 . S
N848 H855 0.984 . S
N849 C842 1.356 . S
N849 H852 0.984 . S
N849 H853 0.985 . S
H850 N845 0.984 . S
H851 N845 0.985 . S
H852 N849 0.984 . S
H853 N849 0.985 . S
H854 N848 0.984 . S
H855 N848 0.984 . S
H856 N844 0.984 . S
H857 N844 0.985 . S
C858 C859 1.363 . S
C858 C864 1.379 . S
C858 N866 1.356 . S
C859 C858 1.363 . S
C859 C865 1.363 . S
C860 C861 1.363 . S
C860 C865 1.379 . S
C860 N867 1.356 . S
C861 C860 1.363 . S
C861 C864 1.363 . S
N862 C864 1.356 . S
N862 H874 0.984 . S
N862 H875 0.985 . S
N863 C865 1.356 . S
N863 H868 0.984 . S
N863 H869 0.985 . S
C864 C858 1.379 . S
C864 C861 1.363 . S
C864 N862 1.356 . S
C865 C859 1.363 . S
C865 C860 1.379 . S
C865 N863 1.356 . S
N866 C858 1.356 . S
N866 H872 0.984 . S
N866 H873 0.984 . S
N867 C860 1.356 . S
N867 H870 0.984 . S
N867 H871 0.985 . S
H868 N863 0.984 . S
H869 N863 0.985 . S
H870 N867 0.984 . S
H871 N867 0.985 . S
H872 N866 0.984 . S
H873 N866 0.984 . S
H874 N862 0.984 . S
H875 N862 0.985 . S
C876 C877 1.363 . S
C876 C882 1.379 . S
C876 N884 1.356 . S
C877 C876 1.363 . S
C877 C883 1.363 . S
C878 C879 1.363 . S
C878 C883 1.379 . S
C878 N885 1.356 . S
C879 C878 1.363 . S
C879 C882 1.363 . S
N880 C882 1.356 . S
N880 H892 0.984 . S
N880 H893 0.985 . S
N881 C883 1.356 . S
N881 H886 0.984 . S
N881 H887 0.985 . S
C882 C876 1.379 . S
C882 C879 1.363 . S
C882 N880 1.356 . S
C883 C877 1.363 . S
C883 C878 1.379 . S
C883 N881 1.356 . S
N884 C876 1.356 . S
N884 H890 0.984 . S
N884 H891 0.984 . S
N885 C878 1.356 . S
N885 H888 0.984 . S
N885 H889 0.985 . S
H886 N881 0.984 . S
H887 N881 0.985 . S
H888 N885 0.984 . S
H889 N885 0.985 . S
H890 N884 0.984 . S
H891 N884 0.984 . S
H892 N880 0.984 . S
H893 N880 0.985 . S
C894 C895 1.363 . S
C894 C900 1.379 . S
C894 N902 1.356 . S
C895 C894 1.363 . S
C895 C901 1.363 . S
C896 C897 1.363 . S
C896 C901 1.379 . S
C896 N903 1.356 . S
C897 C896 1.363 . S
C897 C900 1.363 . S
N898 C900 1.356 . S
N898 H910 0.984 . S
N898 H911 0.985 . S
N899 C901 1.356 . S
N899 H904 0.984 . S
N899 H905 0.985 . S
C900 C894 1.379 . S
C900 C897 1.363 . S
C900 N898 1.356 . S
C901 C895 1.363 . S
C901 C896 1.379 . S
C901 N899 1.356 . S
N902 C894 1.356 . S
N902 H908 0.984 . S
N902 H909 0.984 . S
N903 C896 1.356 . S
N903 H906 0.984 . S
N903 H907 0.985 . S
H904 N899 0.984 . S
H905 N899 0.985 . S
H906 N903 0.984 . S
H907 N903 0.985 . S
H908 N902 0.984 . S
H909 N902 0.984 . S
H910 N898 0.984 . S
H911 N898 0.985 . S
C912 C913 1.363 . S
C912 C918 1.379 . S
C912 N920 1.356 . S
C913 C912 1.363 . S
C913 C919 1.363 . S
C914 C915 1.363 . S
C914 C919 1.379 . S
C914 N921 1.356 . S
C915 C914 1.363 . S
C915 C918 1.363 . S
N916 C918 1.356 . S
N916 H928 0.984 . S
N916 H929 0.985 . S
N917 C919 1.356 . S
N917 H922 0.984 . S
N917 H923 0.985 . S
C918 C912 1.379 . S
C918 C915 1.363 . S
C918 N916 1.356 . S
C919 C913 1.363 . S
C919 C914 1.379 . S
C919 N917 1.356 . S
N920 C912 1.356 . S
N920 H926 0.984 . S
N920 H927 0.984 . S
N921 C914 1.356 . S
N921 H924 0.984 . S
N921 H925 0.985 . S
H922 N917 0.984 . S
H923 N917 0.985 . S
H924 N921 0.984 . S
H925 N921 0.985 . S
H926 N920 0.984 . S
H927 N920 0.984 . S
H928 N916 0.984 . S
H929 N916 0.985 . S
C930 C931 1.363 . S
C930 C936 1.379 . S
C930 N938 1.356 . S
C931 C930 1.363 . S
C931 C937 1.363 . S
C932 C933 1.363 . S
C932 C937 1.379 . S
C932 N939 1.356 . S
C933 C932 1.363 . S
C933 C936 1.363 . S
N934 C936 1.356 . S
N934 H946 0.984 . S
N934 H947 0.985 . S
N935 C937 1.356 . S
N935 H940 0.984 . S
N935 H941 0.985 . S
C936 C930 1.379 . S
C936 C933 1.363 . S
C936 N934 1.356 . S
C937 C931 1.363 . S
C937 C932 1.379 . S
C937 N935 1.356 . S
N938 C930 1.356 . S
N938 H944 0.984 . S
N938 H945 0.984 . S
N939 C932 1.356 . S
N939 H942 0.984 . S
N939 H943 0.985 . S
H940 N935 0.984 . S
H941 N935 0.985 . S
H942 N939 0.984 . S
H943 N939 0.985 . S
H944 N938 0.984 . S
H945 N938 0.984 . S
H946 N934 0.984 . S
H947 N934 0.985 . S
C948 C949 1.363 . S
C948 C954 1.379 . S
C948 N956 1.356 . S
C949 C948 1.363 . S
C949 C955 1.363 . S
C950 C951 1.363 . S
C950 C955 1.379 . S
C950 N957 1.356 . S
C951 C950 1.363 . S
C951 C954 1.363 . S
N952 C954 1.356 . S
N952 H964 0.984 . S
N952 H965 0.985 . S
N953 C955 1.356 . S
N953 H958 0.984 . S
N953 H959 0.985 . S
C954 C948 1.379 . S
C954 C951 1.363 . S
C954 N952 1.356 . S
C955 C949 1.363 . S
C955 C950 1.379 . S
C955 N953 1.356 . S
N956 C948 1.356 . S
N956 H962 0.984 . S
N956 H963 0.984 . S
N957 C950 1.356 . S
N957 H960 0.984 . S
N957 H961 0.985 . S
H958 N953 0.984 . S
H959 N953 0.985 . S
H960 N957 0.984 . S
H961 N957 0.985 . S
H962 N956 0.984 . S
H963 N956 0.984 . S
H964 N952 0.984 . S
H965 N952 0.985 . S
C966 C967 1.363 . S
C966 C972 1.379 . S
C966 N974 1.356 . S
C967 C966 1.363 . S
C967 C973 1.363 . S
C968 C969 1.363 . S
C968 C973 1.379 . S
C968 N975 1.356 . S
C969 C968 1.363 . S
C969 C972 1.363 . S
N970 C972 1.356 . S
N970 H982 0.984 . S
N970 H983 0.985 . S
N971 C973 1.356 . S
N971 H976 0.984 . S
N971 H977 0.985 . S
C972 C966 1.379 . S
C972 C969 1.363 . S
C972 N970 1.356 . S
C973 C967 1.363 . S
C973 C968 1.379 . S
C973 N971 1.356 . S
N974 C966 1.356 . S
N974 H980 0.984 . S
N974 H981 0.984 . S
N975 C968 1.356 . S
N975 H978 0.984 . S
N975 H979 0.985 . S
H976 N971 0.984 . S
H977 N971 0.985 . S
H978 N975 0.984 . S
H979 N975 0.985 . S
H980 N974 0.984 . S
H981 N974 0.984 . S
H982 N970 0.984 . S
H983 N970 0.985 . S
C984 C985 1.363 . S
C984 C990 1.379 . S
C984 N992 1.356 . S
C985 C984 1.363 . S
C985 C991 1.363 . S
C986 C987 1.363 . S
C986 C991 1.379 . S
C986 N993 1.356 . S
C987 C986 1.363 . S
C987 C990 1.363 . S
N988 C990 1.356 . S
N988 H1000 0.984 . S
N988 H1001 0.985 . S
N989 C991 1.356 . S
N989 H994 0.984 . S
N989 H995 0.985 . S
C990 C984 1.379 . S
C990 C987 1.363 . S
C990 N988 1.356 . S
C991 C985 1.363 . S
C991 C986 1.379 . S
C991 N989 1.356 . S
N992 C984 1.356 . S
N992 H998 0.984 . S
N992 H999 0.984 . S
N993 C986 1.356 . S
N993 H996 0.984 . S
N993 H997 0.985 . S
H994 N989 0.984 . S
H995 N989 0.985 . S
H996 N993 0.984 . S
H997 N993 0.985 . S
H998 N992 0.984 . S
H999 N992 0.984 . S
H1000 N988 0.984 . S
H1001 N988 0.985 . S
C1002 C1003 1.363 . S
C1002 C1008 1.379 . S
C1002 N1010 1.356 . S
C1003 C1002 1.363 . S
C1003 C1009 1.363 . S
C1004 C1005 1.363 . S
C1004 C1009 1.379 . S
C1004 N1011 1.356 . S
C1005 C1004 1.363 . S
C1005 C1008 1.363 . S
N1006 C1008 1.356 . S
N1006 H1018 0.984 . S
N1006 H1019 0.985 . S
N1007 C1009 1.356 . S
N1007 H1012 0.984 . S
N1007 H1013 0.985 . S
C1008 C1002 1.379 . S
C1008 C1005 1.363 . S
C1008 N1006 1.356 . S
C1009 C1003 1.363 . S
C1009 C1004 1.379 . S
C1009 N1007 1.356 . S
N1010 C1002 1.356 . S
N1010 H1016 0.984 . S
N1010 H1017 0.984 . S
N1011 C1004 1.356 . S
N1011 H1014 0.984 . S
N1011 H1015 0.985 . S
H1012 N1007 0.984 . S
H1013 N1007 0.985 . S
H1014 N1011 0.984 . S
H1015 N1011 0.985 . S
H1016 N1010 0.984 . S
H1017 N1010 0.984 . S
H1018 N1006 0.984 . S
H1019 N1006 0.985 . S
C1020 C1021 1.363 . S
C1020 C1026 1.379 . S
C1020 N1028 1.356 . S
C1021 C1020 1.363 . S
C1021 C1027 1.363 . S
C1022 C1023 1.363 . S
C1022 C1027 1.379 . S
C1022 N1029 1.356 . S
C1023 C1022 1.363 . S
C1023 C1026 1.363 . S
N1024 C1026 1.356 . S
N1024 H1036 0.984 . S
N1024 H1037 0.985 . S
N1025 C1027 1.356 . S
N1025 H1030 0.984 . S
N1025 H1031 0.985 . S
C1026 C1020 1.379 . S
C1026 C1023 1.363 . S
C1026 N1024 1.356 . S
C1027 C1021 1.363 . S
C1027 C1022 1.379 . S
C1027 N1025 1.356 . S
N1028 C1020 1.356 . S
N1028 H1034 0.984 . S
N1028 H1035 0.984 . S
N1029 C1022 1.356 . S
N1029 H1032 0.984 . S
N1029 H1033 0.985 . S
H1030 N1025 0.984 . S
H1031 N1025 0.985 . S
H1032 N1029 0.984 . S
H1033 N1029 0.985 . S
H1034 N1028 0.984 . S
H1035 N1028 0.984 . S
H1036 N1024 0.984 . S
H1037 N1024 0.985 . S
C1038 C1039 1.363 . S
C1038 C1044 1.379 . S
C1038 N1046 1.356 . S
C1039 C1038 1.363 . S
C1039 C1045 1.363 . S
C1040 C1041 1.363 . S
C1040 C1045 1.379 . S
C1040 N1047 1.356 . S
C1041 C1040 1.363 . S
C1041 C1044 1.363 . S
N1042 C1044 1.356 . S
N1042 H1054 0.984 . S
N1042 H1055 0.985 . S
N1043 C1045 1.356 . S
N1043 H1048 0.984 . S
N1043 H1049 0.985 . S
C1044 C1038 1.379 . S
C1044 C1041 1.363 . S
C1044 N1042 1.356 . S
C1045 C1039 1.363 . S
C1045 C1040 1.379 . S
C1045 N1043 1.356 . S
N1046 C1038 1.356 . S
N1046 H1052 0.984 . S
N1046 H1053 0.984 . S
N1047 C1040 1.356 . S
N1047 H1050 0.984 . S
N1047 H1051 0.985 . S
H1048 N1043 0.984 . S
H1049 N1043 0.985 . S
H1050 N1047 0.984 . S
H1051 N1047 0.985 . S
H1052 N1046 0.984 . S
H1053 N1046 0.984 . S
H1054 N1042 0.984 . S
H1055 N1042 0.985 . S
C1056 C1057 1.363 . S
C1056 C1062 1.379 . S
C1056 N1064 1.356 . S
C1057 C1056 1.363 . S
C1057 C1063 1.363 . S
C1058 C1059 1.363 . S
C1058 C1063 1.379 . S
C1058 N1065 1.356 . S
C1059 C1058 1.363 . S
C1059 C1062 1.363 . S
N1060 C1062 1.356 . S
N1060 H1072 0.984 . S
N1060 H1073 0.985 . S
N1061 C1063 1.356 . S
N1061 H1066 0.984 . S
N1061 H1067 0.985 . S
C1062 C1056 1.379 . S
C1062 C1059 1.363 . S
C1062 N1060 1.356 . S
C1063 C1057 1.363 . S
C1063 C1058 1.379 . S
C1063 N1061 1.356 . S
N1064 C1056 1.356 . S
N1064 H1070 0.983 . S
N1064 H1071 0.984 . S
N1065 C1058 1.356 . S
N1065 H1068 0.984 . S
N1065 H1069 0.985 . S
H1066 N1061 0.984 . S
H1067 N1061 0.985 . S
H1068 N1065 0.984 . S
H1069 N1065 0.985 . S
H1070 N1064 0.983 . S
H1071 N1064 0.984 . S
H1072 N1060 0.984 . S
H1073 N1060 0.985 . S
C1074 C1075 1.363 . S
C1074 C1080 1.379 . S
C1074 N1082 1.356 . S
C1075 C1074 1.363 . S
C1075 C1081 1.363 . S
C1076 C1077 1.363 . S
C1076 C1081 1.379 . S
C1076 N1083 1.356 . S
C1077 C1076 1.363 . S
C1077 C1080 1.363 . S
N1078 C1080 1.356 . S
N1078 H1090 0.984 . S
N1078 H1091 0.985 . S
N1079 C1081 1.356 . S
N1079 H1084 0.984 . S
N1079 H1085 0.985 . S
C1080 C1074 1.379 . S
C1080 C1077 1.363 . S
C1080 N1078 1.356 . S
C1081 C1075 1.363 . S
C1081 C1076 1.379 . S
C1081 N1079 1.356 . S
N1082 C1074 1.356 . S
N1082 H1088 0.984 . S
N1082 H1089 0.984 . S
N1083 C1076 1.356 . S
N1083 H1086 0.984 . S
N1083 H1087 0.985 . S
H1084 N1079 0.984 . S
H1085 N1079 0.985 . S
H1086 N1083 0.984 . S
H1087 N1083 0.985 . S
H1088 N1082 0.984 . S
H1089 N1082 0.984 . S
H1090 N1078 0.984 . S
H1091 N1078 0.985 . S
C1092 C1093 1.363 . S
C1092 C1098 1.379 . S
C1092 N1100 1.356 . S
C1093 C1092 1.363 . S
C1093 C1099 1.363 . S
C1094 C1095 1.363 . S
C1094 C1099 1.379 . S
C1094 N1101 1.356 . S
C1095 C1094 1.363 . S
C1095 C1098 1.363 . S
N1096 C1098 1.356 . S
N1096 H1108 0.984 . S
N1096 H1109 0.985 . S
N1097 C1099 1.356 . S
N1097 H1102 0.984 . S
N1097 H1103 0.985 1_554 S
C1098 C1092 1.379 . S
C1098 C1095 1.363 . S
C1098 N1096 1.356 . S
C1099 C1093 1.363 . S
C1099 C1094 1.379 . S
C1099 N1097 1.356 . S
N1100 C1092 1.356 . S
N1100 H1106 0.984 . S
N1100 H1107 0.984 . S
N1101 C1094 1.356 . S
N1101 H1104 0.984 . S
N1101 H1105 0.985 . S
H1102 N1097 0.984 . S
H1103 N1097 0.985 1_556 S
H1104 N1101 0.984 . S
H1105 N1101 0.985 . S
H1106 N1100 0.984 . S
H1107 N1100 0.984 . S
H1108 N1096 0.984 . S
H1109 N1096 0.985 . S
C1110 C1111 1.363 . S
C1110 C1116 1.379 . S
C1110 N1118 1.356 . S
C1111 C1110 1.363 . S
C1111 C1117 1.363 . S
C1112 C1113 1.363 . S
C1112 C1117 1.379 . S
C1112 N1119 1.356 . S
C1113 C1112 1.363 . S
C1113 C1116 1.363 . S
N1114 C1116 1.356 . S
N1114 H1126 0.984 . S
N1114 H1127 0.985 . S
N1115 C1117 1.356 . S
N1115 H1120 0.984 . S
N1115 H1121 0.985 . S
C1116 C1110 1.379 . S
C1116 C1113 1.363 . S
C1116 N1114 1.356 . S
C1117 C1111 1.363 . S
C1117 C1112 1.379 . S
C1117 N1115 1.356 . S
N1118 C1110 1.356 . S
N1118 H1124 0.984 . S
N1118 H1125 0.984 . S
N1119 C1112 1.356 . S
N1119 H1122 0.984 . S
N1119 H1123 0.985 . S
H1120 N1115 0.984 . S
H1121 N1115 0.985 . S
H1122 N1119 0.984 . S
H1123 N1119 0.985 . S
H1124 N1118 0.984 . S
H1125 N1118 0.984 . S
H1126 N1114 0.984 . S
H1127 N1114 0.985 . S
C1128 C1129 1.363 . S
C1128 C1134 1.379 . S
C1128 N1136 1.356 . S
C1129 C1128 1.363 . S
C1129 C1135 1.363 . S
C1130 C1131 1.363 . S
C1130 C1135 1.379 . S
C1130 N1137 1.356 . S
C1131 C1130 1.363 . S
C1131 C1134 1.363 . S
N1132 C1134 1.356 . S
N1132 H1144 0.984 . S
N1132 H1145 0.985 . S
N1133 C1135 1.356 . S
N1133 H1138 0.984 . S
N1133 H1139 0.985 . S
C1134 C1128 1.379 . S
C1134 C1131 1.363 . S
C1134 N1132 1.356 . S
C1135 C1129 1.363 . S
C1135 C1130 1.379 . S
C1135 N1133 1.356 . S
N1136 C1128 1.356 . S
N1136 H1142 0.984 . S
N1136 H1143 0.984 . S
N1137 C1130 1.356 . S
N1137 H1140 0.984 . S
N1137 H1141 0.985 . S
H1138 N1133 0.984 . S
H1139 N1133 0.985 . S
H1140 N1137 0.984 . S
H1141 N1137 0.985 . S
H1142 N1136 0.984 . S
H1143 N1136 0.984 . S
H1144 N1132 0.984 . S
H1145 N1132 0.985 . S
C1146 C1147 1.363 . S
C1146 C1152 1.379 . S
C1146 N1154 1.356 . S
C1147 C1146 1.363 . S
C1147 C1153 1.363 . S
C1148 C1149 1.363 . S
C1148 C1153 1.379 . S
C1148 N1155 1.356 . S
C1149 C1148 1.363 . S
C1149 C1152 1.363 . S
N1150 C1152 1.356 . S
N1150 H1162 0.984 . S
N1150 H1163 0.985 . S
N1151 C1153 1.356 . S
N1151 H1156 0.984 . S
N1151 H1157 0.985 . S
C1152 C1146 1.379 . S
C1152 C1149 1.363 . S
C1152 N1150 1.356 . S
C1153 C1147 1.363 . S
C1153 C1148 1.379 . S
C1153 N1151 1.356 . S
N1154 C1146 1.356 . S
N1154 H1160 0.984 . S
N1154 H1161 0.984 . S
N1155 C1148 1.356 . S
N1155 H1158 0.984 . S
N1155 H1159 0.985 . S
H1156 N1151 0.984 . S
H1157 N1151 0.985 . S
H1158 N1155 0.984 . S
H1159 N1155 0.985 . S
H1160 N1154 0.984 . S
H1161 N1154 0.984 . S
H1162 N1150 0.984 . S
H1163 N1150 0.985 . S
C1164 C1165 1.363 . S
C1164 C1170 1.379 . S
C1164 N1172 1.356 . S
C1165 C1164 1.363 . S
C1165 C1171 1.363 . S
C1166 C1167 1.363 . S
C1166 C1171 1.379 . S
C1166 N1173 1.356 . S
C1167 C1166 1.363 . S
C1167 C1170 1.363 . S
N1168 C1170 1.356 . S
N1168 H1180 0.984 . S
N1168 H1181 0.985 . S
N1169 C1171 1.356 . S
N1169 H1174 0.984 . S
N1169 H1175 0.985 . S
C1170 C1164 1.379 . S
C1170 C1167 1.363 . S
C1170 N1168 1.356 . S
C1171 C1165 1.363 . S
C1171 C1166 1.379 . S
C1171 N1169 1.356 . S
N1172 C1164 1.356 . S
N1172 H1178 0.984 . S
N1172 H1179 0.984 . S
N1173 C1166 1.356 . S
N1173 H1176 0.984 . S
N1173 H1177 0.985 . S
H1174 N1169 0.984 . S
H1175 N1169 0.985 . S
H1176 N1173 0.984 . S
H1177 N1173 0.985 . S
H1178 N1172 0.984 . S
H1179 N1172 0.984 . S
H1180 N1168 0.984 . S
H1181 N1168 0.985 . S
C1182 C1183 1.363 . S
C1182 C1188 1.379 . S
C1182 N1190 1.356 . S
C1183 C1182 1.363 . S
C1183 C1189 1.363 . S
C1184 C1185 1.363 . S
C1184 C1189 1.379 . S
C1184 N1191 1.356 . S
C1185 C1184 1.363 . S
C1185 C1188 1.363 . S
N1186 C1188 1.356 . S
N1186 H1198 0.984 . S
N1186 H1199 0.985 . S
N1187 C1189 1.356 . S
N1187 H1192 0.984 . S
N1187 H1193 0.985 . S
C1188 C1182 1.379 . S
C1188 C1185 1.363 . S
C1188 N1186 1.356 . S
C1189 C1183 1.363 . S
C1189 C1184 1.379 . S
C1189 N1187 1.356 . S
N1190 C1182 1.356 . S
N1190 H1196 0.984 . S
N1190 H1197 0.984 . S
N1191 C1184 1.356 . S
N1191 H1194 0.984 . S
N1191 H1195 0.985 . S
H1192 N1187 0.984 . S
H1193 N1187 0.985 . S
H1194 N1191 0.984 . S
H1195 N1191 0.985 . S
H1196 N1190 0.984 . S
H1197 N1190 0.984 . S
H1198 N1186 0.984 . S
H1199 N1186 0.985 . S
C337 C203 1.503 . S
C339 C11 1.473 . S
C355 C21 1.503 . S
C357 C221 1.473 . S
C373 C260 1.483 . S
C375 C36 1.483 . S
C391 C55 1.334 . S
C393 C195 1.334 . S
C409 C209 1.334 . S
C411 C69 1.334 . S
C427 C78 1.483 . S
C429 C218 1.483 . S
C445 C91 1.503 . S
C447 C263 1.473 . S
C463 C109 1.473 . S
C465 C189 1.503 . S
C481 C133 1.503 . S
C483 C123 1.473 . S
C499 C153 1.334 . S
C501 C139 1.334 . S
C517 C147 1.503 . S
C519 C165 1.473 . S
C535 C162 1.483 . S
C537 C120 1.483 . S
C553 C179 1.473 . S
C555 C49 1.503 . S
C571 C63 1.503 . S
C573 C235 1.473 . S
C589 C251 1.334 . S
C591 C27 1.334 . S
C607 C25 1.351 . S
C609 C307 1.325 . S
C625 C137 1.351 . S
C627 C13 1.325 . S
C643 C330 1.317 . S
C645 C50 1.317 . S
C661 C161 1.357 . S
C663 C35 1.357 . S
C679 C301 1.357 . S
C681 C105 1.357 . S
C697 C134 1.317 . S
C699 C92 1.317 . S
C715 C83 1.325 . S
C717 C333 1.351 . S
C733 C67 1.351 . S
C735 C167 1.325 . S
C751 C223 1.325 . S
C753 C277 1.351 . S
C769 C231 1.357 . S
C771 C217 1.357 . S
C787 C193 1.351 . S
C789 C237 1.325 . S
C805 C274 1.317 . S
C807 C190 1.317 . S
C823 C41 1.325 . S
C825 C291 1.351 . S
C841 C151 1.351 . S
C843 C111 1.325 . S
C859 C7 1.357 . S
C861 C315 1.357 . S
C877 C273 1.503 . S
C879 C39 1.473 . S
C895 C8 1.483 . S
C897 C232 1.483 . S
C913 C279 1.334 . S
C915 C97 1.334 . S
C931 C176 1.483 . S
C933 C106 1.483 . S
C949 C81 1.473 . S
C951 C245 1.503 . S
C967 C305 1.473 . S
C969 C287 1.503 . S
C985 C335 1.334 . S
C987 C293 1.334 . S
C1003 C319 1.473 . S
C1005 C329 1.503 . S
C1021 C302 1.483 . S
C1023 C316 1.483 . S
C1039 C125 1.325 . S
C1041 C53 1.351 . S
C1057 C22 1.317 . S
C1059 C148 1.317 . S
C1075 C77 1.357 . S
C1077 C119 1.357 . S
C1093 C288 1.317 . S
C1095 C64 1.317 . S
C1111 C95 1.351 . S
C1113 C321 1.325 . S
C1129 C181 1.325 . S
C1131 C207 1.351 . S
C1147 C259 1.357 . S
C1149 C175 1.357 . S
C1165 C249 1.351 . S
C1167 C265 1.325 . S
C1183 C204 1.317 . S
C1185 C246 1.317 . S
