# Generated by pormake.
# Topology wme, (6)-cn, num edge types: 1
# Building blocks:
#     Node 0, Type 0, BuildingBlock: KUMBOL_clean_sbu_1, # of connection points: 6
#     Node 1, Type 0, BuildingBlock: KUMBOL_clean_sbu_1, # of connection points: 6
#     Node 2, Type 0, BuildingBlock: KUMBOL_clean_sbu_1, # of connection points: 6
#     Node 3, Type 0, BuildingBlock: KUMBOL_clean_sbu_1, # of connection points: 6
#     Node 4, Type 0, BuildingBlock: KUMBOL_clean_sbu_1, # of connection points: 6
#     Node 5, Type 0, BuildingBlock: KUMBOL_clean_sbu_1, # of connection points: 6
#     Node 6, Type 0, BuildingBlock: KUMBOL_clean_sbu_1, # of connection points: 6
#     Node 7, Type 0, BuildingBlock: KUMBOL_clean_sbu_1, # of connection points: 6
#     Node 8, Type 0, BuildingBlock: KUMBOL_clean_sbu_1, # of connection points: 6
#     Node 9, Type 0, BuildingBlock: KUMBOL_clean_sbu_1, # of connection points: 6
#     Node 10, Type 0, BuildingBlock: KUMBOL_clean_sbu_1, # of connection points: 6
#     Node 11, Type 0, BuildingBlock: KUMBOL_clean_sbu_1, # of connection points: 6
#     Edge 12, Type (0, 0), BuildingBlock: MIFKUJ_clean_linker_0, # of connection points: 2
#     Edge 13, Type (0, 0), BuildingBlock: MIFKUJ_clean_linker_0, # of connection points: 2
#     Edge 14, Type (0, 0), BuildingBlock: MIFKUJ_clean_linker_0, # of connection points: 2
#     Edge 15, Type (0, 0), BuildingBlock: MIFKUJ_clean_linker_0, # of connection points: 2
#     Edge 16, Type (0, 0), BuildingBlock: MIFKUJ_clean_linker_0, # of connection points: 2
#     Edge 17, Type (0, 0), BuildingBlock: MIFKUJ_clean_linker_0, # of connection points: 2
#     Edge 18, Type (0, 0), BuildingBlock: MIFKUJ_clean_linker_0, # of connection points: 2
#     Edge 19, Type (0, 0), BuildingBlock: MIFKUJ_clean_linker_0, # of connection points: 2
#     Edge 20, Type (0, 0), BuildingBlock: MIFKUJ_clean_linker_0, # of connection points: 2
#     Edge 21, Type (0, 0), BuildingBlock: MIFKUJ_clean_linker_0, # of connection points: 2
#     Edge 22, Type (0, 0), BuildingBlock: MIFKUJ_clean_linker_0, # of connection points: 2
#     Edge 23, Type (0, 0), BuildingBlock: MIFKUJ_clean_linker_0, # of connection points: 2
#     Edge 24, Type (0, 0), BuildingBlock: MIFKUJ_clean_linker_0, # of connection points: 2
#     Edge 25, Type (0, 0), BuildingBlock: MIFKUJ_clean_linker_0, # of connection points: 2
#     Edge 26, Type (0, 0), BuildingBlock: MIFKUJ_clean_linker_0, # of connection points: 2
#     Edge 27, Type (0, 0), BuildingBlock: MIFKUJ_clean_linker_0, # of connection points: 2
#     Edge 28, Type (0, 0), BuildingBlock: MIFKUJ_clean_linker_0, # of connection points: 2
#     Edge 29, Type (0, 0), BuildingBlock: MIFKUJ_clean_linker_0, # of connection points: 2
#     Edge 30, Type (0, 0), BuildingBlock: MIFKUJ_clean_linker_0, # of connection points: 2
#     Edge 31, Type (0, 0), BuildingBlock: MIFKUJ_clean_linker_0, # of connection points: 2
#     Edge 32, Type (0, 0), BuildingBlock: MIFKUJ_clean_linker_0, # of connection points: 2
#     Edge 33, Type (0, 0), BuildingBlock: MIFKUJ_clean_linker_0, # of connection points: 2
#     Edge 34, Type (0, 0), BuildingBlock: MIFKUJ_clean_linker_0, # of connection points: 2
#     Edge 35, Type (0, 0), BuildingBlock: MIFKUJ_clean_linker_0, # of connection points: 2
#     Edge 36, Type (0, 0), BuildingBlock: MIFKUJ_clean_linker_0, # of connection points: 2
#     Edge 37, Type (0, 0), BuildingBlock: MIFKUJ_clean_linker_0, # of connection points: 2
#     Edge 38, Type (0, 0), BuildingBlock: MIFKUJ_clean_linker_0, # of connection points: 2
#     Edge 39, Type (0, 0), BuildingBlock: MIFKUJ_clean_linker_0, # of connection points: 2
#     Edge 40, Type (0, 0), BuildingBlock: MIFKUJ_clean_linker_0, # of connection points: 2
#     Edge 41, Type (0, 0), BuildingBlock: MIFKUJ_clean_linker_0, # of connection points: 2
#     Edge 42, Type (0, 0), BuildingBlock: MIFKUJ_clean_linker_0, # of connection points: 2
#     Edge 43, Type (0, 0), BuildingBlock: MIFKUJ_clean_linker_0, # of connection points: 2
#     Edge 44, Type (0, 0), BuildingBlock: MIFKUJ_clean_linker_0, # of connection points: 2
#     Edge 45, Type (0, 0), BuildingBlock: MIFKUJ_clean_linker_0, # of connection points: 2
#     Edge 46, Type (0, 0), BuildingBlock: MIFKUJ_clean_linker_0, # of connection points: 2
#     Edge 47, Type (0, 0), BuildingBlock: MIFKUJ_clean_linker_0, # of connection points: 2
# Relax obj value: 0.061
# Max RMSD: 0.165
# Mean RMSD: 0.164
data_MOF--net-wme--node1-KUMBOL_clean_sbu_1--edge1-MIFKUJ_clean_linker_0
_symmetry_space_group_name_H-M    P1
_symmetry_Int_Tables_number       1
_symmetry_cell_setting            triclinic
loop_
_symmetry_equiv_pos_as_xyz
'x, y, z'
_cell_length_a     48.550318
_cell_length_b     48.567954
_cell_length_c     70.576325
_cell_angle_alpha  90.079444
_cell_angle_beta   89.876156
_cell_angle_gamma 120.06039
loop_
_atom_site_label
_atom_site_type_symbol
_atom_site_fract_x
_atom_site_fract_y
_atom_site_fract_z
_atom_type_partial_charge
C0 C 0.12693 0.34044 0.08676 0.0
C1 C 0.08427 0.32871 0.10906 0.0
C2 C 0.1166 0.33904 0.10535 0.0
C3 C 0.06263 0.31972 0.09397 0.0
C4 C 0.10514 0.33105 0.07161 0.0
C5 C 0.07302 0.32087 0.07532 0.0
N6 N 0.15788 0.34927 0.0836 0.0
C7 C 0.16881 0.34979 0.0657 0.0
C8 C 0.11615 0.33148 0.05321 0.0
C9 C 0.14812 0.34089 0.05025 0.0
Gd10 Gd 0.21894 0.30767 0.13379 0.0
Gd11 Gd 0.1908 0.36493 0.11024 0.0
N12 N 0.13788 0.34681 0.11977 0.0
C13 C 0.07456 0.3276 0.12784 0.0
C14 C 0.12874 0.34752 0.138 0.0
C15 C 0.09697 0.33738 0.14234 0.0
H16 H 0.14569 0.35685 0.1493 0.0
H17 H 0.0899 0.33764 0.15686 0.0
H18 H 0.26285 0.30837 0.09641 0.0
H19 H 0.19362 0.35762 0.06325 0.0
H20 H 0.31942 0.33277 0.08776 0.0
H21 H 0.04996 0.3198 0.13126 0.0
H22 H 0.03773 0.31165 0.09659 0.0
H23 H 0.21637 0.31478 0.18073 0.0
H24 H 0.10014 0.32441 0.04121 0.0
H25 H 0.15687 0.34138 0.03606 0.0
H26 H 0.37463 0.38065 0.14565 0.0
H27 H 0.05596 0.31353 0.06386 0.0
H28 H 0.31203 0.3672 0.20123 0.0
H29 H 0.25398 0.34049 0.20719 0.0
N30 N 0.25261 0.32838 0.16005 0.0
C31 C 0.28429 0.34164 0.15657 0.0
C32 C 0.24159 0.32714 0.17798 0.0
C33 C 0.29558 0.35617 0.18958 0.0
C34 C 0.26285 0.34124 0.193 0.0
C35 C 0.30668 0.35628 0.17122 0.0
H36 H 0.35689 0.38217 0.17813 0.0
N37 N 0.27197 0.3274 0.12424 0.0
C38 C 0.29426 0.34123 0.13813 0.0
C39 C 0.33604 0.35254 0.11555 0.0
C40 C 0.32695 0.35483 0.13405 0.0
C41 C 0.28058 0.32289 0.10664 0.0
C42 C 0.31271 0.33594 0.10188 0.0
O43 O 0.15739 0.31212 0.10609 0.0
O44 O 0.16637 0.2907 0.13273 0.0
O45 O 0.21532 0.26251 0.1247 0.0
O46 O 0.20913 0.27132 0.15441 0.0
O47 O 0.19926 0.36815 0.14259 0.0
O48 O 0.18488 0.31675 0.15041 0.0
O49 O 0.2497 0.36166 0.13716 0.0
O50 O 0.24211 0.37863 0.10867 0.0
O51 O 0.19612 0.41004 0.12108 0.0
O52 O 0.20151 0.40339 0.0909 0.0
O53 O 0.20927 0.30208 0.10221 0.0
O54 O 0.22103 0.35182 0.0913 0.0
C55 C 0.14924 0.28822 0.11776 0.0
C56 C 0.19079 0.34524 0.15531 0.0
C57 C 0.20327 0.2199 0.14778 0.0
C58 C 0.1982 0.16831 0.14098 0.0
C59 C 0.18857 0.18057 0.17279 0.0
C60 C 0.19514 0.21052 0.16678 0.0
C61 C 0.19013 0.1596 0.16001 0.0
C62 C 0.20463 0.19851 0.13476 0.0
C63 C 0.20925 0.25163 0.14199 0.0
C64 C 0.34939 0.36982 0.14856 0.0
C65 C 0.3393 0.37061 0.16708 0.0
H66 H 0.36092 0.3626 0.11183 0.0
C67 C 0.25917 0.38324 0.12379 0.0
C68 C 0.21749 0.3232 0.08856 0.0
C69 C 0.20867 0.45461 0.09947 0.0
C70 C 0.19972 0.4996 0.10283 0.0
C71 C 0.23705 0.50111 0.07935 0.0
C72 C 0.23051 0.4709 0.08485 0.0
C73 C 0.22169 0.51535 0.08821 0.0
C74 C 0.19335 0.46918 0.10864 0.0
C75 C 0.20107 0.42189 0.10404 0.0
H76 H 0.18226 0.1736 0.18743 0.0
H77 H 0.19364 0.22629 0.17707 0.0
H78 H 0.185 0.13639 0.16497 0.0
H79 H 0.21075 0.20524 0.12005 0.0
H80 H 0.25389 0.51344 0.06804 0.0
H81 H 0.24249 0.46016 0.0776 0.0
H82 H 0.22685 0.53874 0.0836 0.0
H83 H 0.17613 0.45672 0.11978 0.0
C84 C 0.7891 0.12531 0.58665 0.0
C85 C 0.75266 0.08379 0.60812 0.0
C86 C 0.7774 0.11525 0.60487 0.0
C87 C 0.73949 0.06275 0.5928 0.0
C88 C 0.77578 0.10417 0.57125 0.0
C89 C 0.75078 0.07304 0.57441 0.0
N90 N 0.81292 0.15584 0.58395 0.0
C91 C 0.82365 0.16688 0.56607 0.0
C92 C 0.78757 0.11507 0.55304 0.0
C93 C 0.81154 0.14658 0.55045 0.0
Gd94 Gd 0.91576 0.21824 0.63442 0.0
Gd95 Gd 0.82863 0.18831 0.6111 0.0
N96 N 0.79065 0.1361 0.61948 0.0
C97 C 0.74178 0.07448 0.62669 0.0
C98 C 0.77913 0.12756 0.63748 0.0
C99 C 0.75502 0.09651 0.64141 0.0
H100 H 0.78813 0.14464 0.64883 0.0
H101 H 0.74637 0.08971 0.65577 0.0
H102 H 0.95704 0.26296 0.59691 0.0
H103 H 0.8407 0.19158 0.56357 0.0
H104 H 0.99324 0.31918 0.58977 0.0
H105 H 0.72295 0.05048 0.62977 0.0
H106 H 0.72035 0.03855 0.59499 0.0
H107 H 0.90369 0.21404 0.68129 0.0
H108 H 0.77798 0.09951 0.54086 0.0
H109 H 0.82025 0.15545 0.53635 0.0
H110 H 1.00256 0.3727 0.64862 0.0
H111 H 0.73981 0.05685 0.56266 0.0
H112 H 0.94934 0.30901 0.70303 0.0
H113 H 0.91603 0.25096 0.70819 0.0
N114 N 0.92687 0.25079 0.66099 0.0
C115 C 0.94642 0.28245 0.65792 0.0
C116 C 0.91684 0.2393 0.6788 0.0
C117 C 0.94334 0.29289 0.69113 0.0
C118 C 0.92442 0.26016 0.6941 0.0
C119 C 0.95496 0.3044 0.67293 0.0
H120 H 0.98172 0.35421 0.68072 0.0
N121 N 0.94877 0.27125 0.62529 0.0
C122 C 0.95779 0.29293 0.63963 0.0
C123 C 0.99079 0.33515 0.61787 0.0
C124 C 0.97856 0.32557 0.63617 0.0
C125 C 0.9617 0.28032 0.60769 0.0
C126 C 0.98271 0.31232 0.60369 0.0
O127 O 0.83864 0.14868 0.61795 0.0
O128 O 0.89295 0.1688 0.62209 0.0
O129 O 0.96283 0.22506 0.62848 0.0
O130 O 0.9385 0.2033 0.6553 0.0
O131 O 0.83554 0.19827 0.64314 0.0
O132 O 0.87242 0.18346 0.65086 0.0
O133 O 0.89213 0.24874 0.6369 0.0
O134 O 0.86725 0.239 0.60847 0.0
O135 O 0.79232 0.19836 0.62306 0.0
O136 O 0.79781 0.19561 0.59248 0.0
O137 O 0.91201 0.20771 0.6032 0.0
O138 O 0.87173 0.21483 0.59092 0.0
C139 C 0.86385 0.14533 0.61895 0.0
C140 C 0.84907 0.18839 0.65562 0.0
C141 C 0.99075 0.20908 0.65043 0.0
C142 C 0.03419 0.19939 0.64303 0.0
C143 C 0.0229 0.20605 0.6757 0.0
C144 C 0.99781 0.21012 0.66977 0.0
C145 C 0.04094 0.20061 0.66244 0.0
C146 C 0.00921 0.20393 0.63696 0.0
C147 C 0.96352 0.2124 0.6446 0.0
C148 C 0.98681 0.34752 0.65107 0.0
C149 C 0.97496 0.33698 0.66936 0.0
H150 H 0.00706 0.35996 0.61467 0.0
C151 C 0.87915 0.25691 0.62337 0.0
C152 C 0.89838 0.21367 0.58898 0.0
C153 C 0.75817 0.20869 0.6018 0.0
C154 C 0.7047 0.20136 0.60485 0.0
C155 C 0.74148 0.23788 0.58139 0.0
C156 C 0.76454 0.23056 0.58711 0.0
C157 C 0.71172 0.22328 0.59012 0.0
C158 C 0.72816 0.19424 0.61087 0.0
C159 C 0.78195 0.19913 0.60617 0.0
H160 H 0.02828 0.20696 0.69064 0.0
H161 H 0.98395 0.21415 0.6803 0.0
H162 H 0.06023 0.19728 0.66731 0.0
H163 H 1.00386 0.20287 0.62198 0.0
H164 H 0.74654 0.2546 0.56997 0.0
H165 H 0.78728 0.24171 0.57985 0.0
H166 H 0.69394 0.2289 0.58525 0.0
H167 H 0.7227 0.17681 0.62195 0.0
C168 C 0.67388 0.7915 0.08686 0.0
C169 C 0.68462 0.76009 0.10917 0.0
C170 C 0.67408 0.78181 0.10538 0.0
C171 C 0.69549 0.74884 0.09424 0.0
C172 C 0.68505 0.78046 0.07187 0.0
C173 C 0.69587 0.75913 0.07567 0.0
N174 N 0.66347 0.81233 0.08358 0.0
C175 C 0.66313 0.82275 0.06569 0.0
C176 C 0.68507 0.79129 0.05349 0.0
C177 C 0.67404 0.81251 0.0504 0.0
Gd178 Gd 0.70192 0.91243 0.13406 0.0
Gd179 Gd 0.64499 0.82744 0.10997 0.0
N180 N 0.66391 0.79354 0.11963 0.0
C181 C 0.68342 0.74991 0.12782 0.0
C182 C 0.66151 0.78259 0.1377 0.0
C183 C 0.67174 0.76111 0.14213 0.0
H184 H 0.65061 0.78912 0.14871 0.0
H185 H 0.66987 0.75262 0.15651 0.0
H186 H 0.70179 0.95655 0.09757 0.0
H187 H 0.65396 0.83858 0.06311 0.0
H188 H 0.68135 0.99259 0.09018 0.0
H189 H 0.69051 0.73268 0.13124 0.0
H190 H 0.70351 0.73205 0.09686 0.0
H191 H 0.69459 0.90041 0.18102 0.0
H192 H 0.69347 0.78336 0.0416 0.0
H193 H 0.67374 0.82082 0.03622 0.0
H194 H 0.64191 0.00584 0.14989 0.0
H195 H 0.70445 0.75031 0.06432 0.0
H196 H 0.65136 0.95133 0.20385 0.0
H197 H 0.67238 0.91485 0.20824 0.0
N198 N 0.68316 0.92589 0.16108 0.0
C199 C 0.67247 0.94665 0.15838 0.0
C200 C 0.6841 0.91517 0.17879 0.0
C201 C 0.66037 0.94451 0.19175 0.0
C202 C 0.67225 0.92389 0.19431 0.0
C203 C 0.66061 0.95639 0.17365 0.0
H204 H 0.64016 0.98529 0.18198 0.0
N205 N 0.6842 0.94765 0.12567 0.0
C206 C 0.6731 0.95793 0.14018 0.0
C207 C 0.6645 0.99145 0.1186 0.0
C208 C 0.66245 0.97972 0.13696 0.0
C209 C 0.68877 0.9611 0.1082 0.0
C210 C 0.67822 0.98249 0.10422 0.0
O211 O 0.69826 0.84881 0.10641 0.0
O212 O 0.71838 0.8763 0.13413 0.0
O213 O 0.74747 0.95309 0.12442 0.0
O214 O 0.73825 0.93993 0.1544 0.0
O215 O 0.64018 0.8324 0.14218 0.0
O216 O 0.69125 0.8691 0.15103 0.0
O217 O 0.64809 0.89221 0.13672 0.0
O218 O 0.63084 0.86455 0.10912 0.0
O219 O 0.60017 0.78631 0.12013 0.0
O220 O 0.60711 0.79982 0.09021 0.0
O221 O 0.70723 0.90862 0.1022 0.0
O222 O 0.65739 0.87076 0.09126 0.0
C223 C 0.72013 0.86027 0.11961 0.0
C224 C 0.66236 0.84653 0.15532 0.0
C225 C 0.7889 0.98611 0.14763 0.0
C226 C 0.84236 0.02928 0.14059 0.0
C227 C 0.82362 0.01868 0.1731 0.0
C228 C 0.79454 0.99371 0.16701 0.0
C229 C 0.84744 0.0363 0.15999 0.0
C230 C 0.81294 1.00422 0.13431 0.0
C231 C 0.75774 0.95949 0.14184 0.0
C232 C 0.65038 0.98927 0.15213 0.0
C233 C 0.64942 0.9776 0.17041 0.0
H234 H 0.65652 0.00818 0.11552 0.0
C235 C 0.62546 0.87648 0.12426 0.0
C236 C 0.68587 0.89613 0.08858 0.0
C237 C 0.55599 0.7545 0.09813 0.0
C238 C 0.50915 0.70194 0.10311 0.0
C239 C 0.51031 0.73532 0.07721 0.0
C240 C 0.54074 0.75889 0.08249 0.0
C241 C 0.49456 0.70709 0.08745 0.0
C242 C 0.54003 0.72578 0.10853 0.0
C243 C 0.58844 0.78017 0.10306 0.0
H244 H 0.82774 0.02432 0.18803 0.0
H245 H 0.7764 0.98038 0.17754 0.0
H246 H 0.87001 0.05547 0.16499 0.0
H247 H 0.80903 0.99871 0.11933 0.0
H248 H 0.49896 0.73886 0.06502 0.0
H249 H 0.55236 0.78069 0.07431 0.0
H250 H 0.47099 0.68895 0.083 0.0
H251 H 0.55156 0.72186 0.12052 0.0
C252 C 0.89066 0.67757 0.58719 0.0
C253 C 0.93314 0.69338 0.61011 0.0
C254 C 0.90046 0.67977 0.6059 0.0
C255 C 0.95565 0.70506 0.59539 0.0
C256 C 0.91321 0.68914 0.57236 0.0
C257 C 0.94571 0.70288 0.57657 0.0
N258 N 0.85916 0.66502 0.58353 0.0
C259 C 0.84851 0.66271 0.5654 0.0
C260 C 0.90245 0.68692 0.55373 0.0
C261 C 0.86994 0.67359 0.55024 0.0
Gd262 Gd 0.79054 0.69875 0.63439 0.0
Gd263 Gd 0.82479 0.64655 0.60966 0.0
N264 N 0.87811 0.6687 0.61993 0.0
C265 C 0.94228 0.69454 0.62899 0.0
C266 C 0.88692 0.66768 0.63818 0.0
C267 C 0.91902 0.68121 0.64304 0.0
H268 H 0.86963 0.65549 0.64907 0.0
H269 H 0.92575 0.68073 0.65759 0.0
H270 H 0.74334 0.68734 0.59626 0.0
H271 H 0.82337 0.65184 0.56254 0.0
H272 H 0.68669 0.66334 0.58909 0.0
H273 H 0.96712 0.70482 0.6328 0.0
H274 H 0.98082 0.71567 0.5984 0.0
H275 H 0.79503 0.69445 0.6813 0.0
H276 H 0.91903 0.69545 0.54196 0.0
H277 H 0.86137 0.67158 0.53588 0.0
H278 H 0.63543 0.62765 0.64939 0.0
H279 H 0.96337 0.71196 0.56537 0.0
H280 H 0.7008 0.64568 0.70399 0.0
H281 H 0.75904 0.67214 0.70875 0.0
N282 N 0.75801 0.67846 0.66121 0.0
C283 C 0.72621 0.66528 0.65832 0.0
C284 C 0.76983 0.68146 0.67905 0.0
C285 C 0.7166 0.65484 0.69188 0.0
C286 C 0.74941 0.66949 0.69462 0.0
C287 C 0.70461 0.65289 0.6736 0.0
H288 H 0.65493 0.62959 0.68177 0.0
N289 N 0.73668 0.67561 0.62545 0.0
C290 C 0.71525 0.66401 0.63997 0.0
C291 C 0.67203 0.65004 0.61803 0.0
C292 C 0.68234 0.65062 0.63659 0.0
C293 C 0.72669 0.67614 0.60749 0.0
C294 C 0.69434 0.66303 0.60345 0.0
O295 O 0.85431 0.6998 0.60595 0.0
O296 O 0.84388 0.71861 0.6333 0.0
O297 O 0.79052 0.74245 0.62572 0.0
O298 O 0.79945 0.73461 0.65507 0.0
O299 O 0.81571 0.64155 0.64209 0.0
O300 O 0.82626 0.69163 0.65029 0.0
O301 O 0.76106 0.64477 0.63707 0.0
O302 O 0.77294 0.63028 0.6089 0.0
O303 O 0.82395 0.60263 0.61926 0.0
O304 O 0.81521 0.60913 0.58978 0.0
O305 O 0.80057 0.70616 0.60303 0.0
O306 O 0.79559 0.66006 0.58971 0.0
C307 C 0.86174 0.72257 0.61836 0.0
C308 C 0.82239 0.66385 0.65505 0.0
C309 C 0.80017 0.78374 0.64943 0.0
C310 C 0.80605 0.83577 0.64332 0.0
C311 C 0.80469 0.81827 0.67566 0.0
C312 C 0.8012 0.78972 0.66901 0.0
C313 C 0.80703 0.84115 0.66292 0.0
C314 C 0.80288 0.80707 0.63651 0.0
C315 C 0.79672 0.75326 0.64305 0.0
C316 C 0.66078 0.63815 0.65177 0.0
C317 C 0.67187 0.63923 0.6702 0.0
H318 H 0.64697 0.63993 0.61485 0.0
C319 C 0.75564 0.62316 0.62417 0.0
C320 C 0.79552 0.68741 0.58836 0.0
C321 C 0.81443 0.55983 0.59643 0.0
C322 C 0.81845 0.51206 0.60199 0.0
C323 C 0.80331 0.52168 0.57106 0.0
C324 C 0.80543 0.54969 0.57762 0.0
C325 C 0.80938 0.50282 0.58316 0.0
C326 C 0.82119 0.54085 0.6087 0.0
C327 C 0.81853 0.5912 0.6021 0.0
H328 H 0.80557 0.82266 0.69074 0.0
H329 H 0.79929 0.77229 0.67928 0.0
H330 H 0.80989 0.86331 0.66837 0.0
H331 H 0.80235 0.80296 0.62138 0.0
H332 H 0.79682 0.5145 0.55647 0.0
H333 H 0.80038 0.56366 0.56777 0.0
H334 H 0.80755 0.48109 0.57769 0.0
H335 H 0.82888 0.54851 0.62311 0.0
C336 C 0.2144 0.89017 0.0908 0.0
C337 C 0.24157 0.93026 0.115 0.0
C338 C 0.22233 0.89808 0.10971 0.0
C339 C 0.25153 0.95422 0.1012 0.0
C340 C 0.22484 0.91411 0.07685 0.0
C341 C 0.24317 0.94617 0.08218 0.0
N342 N 0.19652 0.85898 0.08604 0.0
C343 C 0.18922 0.85001 0.06757 0.0
C344 C 0.21676 0.90509 0.05791 0.0
C345 C 0.19903 0.87286 0.05325 0.0
Gd346 Gd 0.09479 0.78637 0.13442 0.0
Gd347 Gd 0.18109 0.82211 0.1108 0.0
N348 N 0.21195 0.87432 0.12281 0.0
C349 C 0.25085 0.93741 0.13393 0.0
C350 C 0.22304 0.88118 0.14098 0.0
C351 C 0.24201 0.91272 0.14689 0.0
H352 H 0.2185 0.86268 0.15093 0.0
H353 H 0.25022 0.91794 0.1614 0.0
H354 H 0.07323 0.73413 0.09763 0.0
H355 H 0.17658 0.82517 0.06383 0.0
H356 H 0.04374 0.6766 0.09269 0.0
H357 H 0.26566 0.96181 0.13855 0.0
H358 H 0.26612 0.97905 0.10505 0.0
H359 H 0.09833 0.79736 0.18125 0.0
H360 H 0.22444 0.92276 0.04678 0.0
H361 H 0.19317 0.86559 0.03862 0.0
H362 H 0.01395 0.63348 0.15529 0.0
H363 H 0.25134 0.96489 0.07167 0.0
H364 H 0.04614 0.70596 0.20756 0.0
H365 H 0.07803 0.7646 0.21018 0.0
N366 N 0.07942 0.75767 0.1627 0.0
C367 C 0.06201 0.7255 0.16089 0.0
C368 C 0.08562 0.77178 0.1801 0.0
C369 C 0.05564 0.72022 0.19488 0.0
C370 C 0.07372 0.7533 0.19643 0.0
C371 C 0.04993 0.70588 0.17701 0.0
H372 H 0.02303 0.65727 0.18706 0.0
N373 N 0.06851 0.73156 0.12753 0.0
C374 C 0.05633 0.71206 0.14286 0.0
C375 C 0.03467 0.66591 0.12241 0.0
C376 C 0.03918 0.67869 0.14067 0.0
C377 C 0.06372 0.7191 0.10971 0.0
C378 C 0.04702 0.68623 0.10688 0.0
O379 O 0.15581 0.85035 0.10757 0.0
O380 O 0.12822 0.83969 0.13553 0.0
O381 O 0.05521 0.78743 0.12077 0.0
O382 O 0.05863 0.7887 0.15127 0.0
O383 O 0.17528 0.81075 0.14306 0.0
O384 O 0.13582 0.82116 0.15198 0.0
O385 O 0.11952 0.75694 0.13637 0.0
O386 O 0.1472 0.76981 0.10854 0.0
O387 O 0.22359 0.8206 0.12068 0.0
O388 O 0.21157 0.81665 0.09069 0.0
O389 O 0.0983 0.79659 0.10311 0.0
O390 O 0.14001 0.79282 0.08983 0.0
C391 C 0.1417 0.85793 0.12071 0.0
C392 C 0.15986 0.81721 0.15632 0.0
C393 C 0.03686 0.81729 0.13731 0.0
C394 C 0.99941 0.83638 0.13395 0.0
C395 C 0.05356 0.87251 0.14404 0.0
C396 C 0.06046 0.84791 0.14292 0.0
C397 C 0.02313 0.86679 0.13965 0.0
C398 C 1.00633 0.81162 0.13271 0.0
C399 C 0.04375 0.79111 0.13667 0.0
C400 C 0.02725 0.65914 0.15672 0.0
C401 C 0.03247 0.67269 0.17482 0.0
H402 H 0.02176 0.64041 0.12016 0.0
C403 C 0.13544 0.75139 0.12329 0.0
C404 C 0.11184 0.79115 0.08856 0.0
C405 C 0.25975 0.81546 0.098 0.0
C406 C 0.31279 0.82263 0.10389 0.0
C407 C 0.28778 0.80458 0.07313 0.0
C408 C 0.26119 0.80568 0.07944 0.0
C409 C 0.31345 0.81316 0.08518 0.0
C410 C 0.2858 0.82387 0.11038 0.0
C411 C 0.23161 0.81825 0.10339 0.0
H412 H 0.07175 0.89598 0.14844 0.0
H413 H 0.08408 0.85273 0.14663 0.0
H414 H 0.01802 0.88605 0.14076 0.0
H415 H 0.98795 0.78803 0.12842 0.0
H416 H 0.28852 0.79707 0.05878 0.0
H417 H 0.24173 0.79902 0.06962 0.0
H418 H 0.33388 0.81207 0.07994 0.0
H419 H 0.28525 0.83154 0.12473 0.0
C420 C 0.34304 0.22242 0.58504 0.0
C421 C 0.33944 0.2598 0.60636 0.0
C422 C 0.34589 0.23487 0.60315 0.0
C423 C 0.32982 0.27173 0.59122 0.0
C424 C 0.33332 0.23434 0.56982 0.0
C425 C 0.32669 0.25898 0.57302 0.0
N426 N 0.34949 0.19848 0.58236 0.0
C427 C 0.34773 0.18617 0.5647 0.0
C428 C 0.33061 0.22118 0.5518 0.0
C429 C 0.33798 0.19709 0.54923 0.0
Gd430 Gd 0.30989 0.09803 0.63321 0.0
Gd431 Gd 0.3671 0.18332 0.60921 0.0
N432 N 0.35383 0.22189 0.61772 0.0
C433 C 0.34218 0.27152 0.6248 0.0
C434 C 0.35806 0.23431 0.63551 0.0
C435 C 0.35174 0.25884 0.63941 0.0
H436 H 0.36738 0.22625 0.64659 0.0
H437 H 0.35476 0.26831 0.65362 0.0
H438 H 0.33618 0.0715 0.5969 0.0
H439 H 0.35461 0.16854 0.56227 0.0
H440 H 0.36577 0.04334 0.59252 0.0
H441 H 0.33728 0.29052 0.62787 0.0
H442 H 0.32455 0.2907 0.59346 0.0
H443 H 0.29758 0.09828 0.67978 0.0
H444 H 0.3232 0.22967 0.53975 0.0
H445 H 0.33654 0.18719 0.53527 0.0
H446 H 0.37729 0.01338 0.65542 0.0
H447 H 0.31915 0.26838 0.56149 0.0
H448 H 0.33672 0.04684 0.70708 0.0
H449 H 0.30889 0.07773 0.70901 0.0
N450 N 0.31886 0.0792 0.66164 0.0
C451 C 0.33365 0.0618 0.66019 0.0
C452 C 0.30966 0.08472 0.67883 0.0
C453 C 0.33171 0.05568 0.69422 0.0
C454 C 0.31598 0.07309 0.69537 0.0
C455 C 0.3407 0.04976 0.67649 0.0
H456 H 0.36218 0.02295 0.68699 0.0
N457 N 0.33512 0.06838 0.62686 0.0
C458 C 0.34186 0.05606 0.64232 0.0
C459 C 0.36661 0.03419 0.62227 0.0
C460 C 0.35789 0.03871 0.64042 0.0
C461 C 0.34241 0.06286 0.60912 0.0
C462 C 0.35886 0.04638 0.60658 0.0
O463 O 0.31451 0.16713 0.60903 0.0
O464 O 0.29313 0.1336 0.63482 0.0
O465 O 0.27044 0.05744 0.61929 0.0
O466 O 0.26608 0.0687 0.64849 0.0
O467 O 0.37072 0.17889 0.64172 0.0
O468 O 0.32118 0.13938 0.65237 0.0
O469 O 0.36382 0.11962 0.63636 0.0
O470 O 0.37916 0.1447 0.60802 0.0
O471 O 0.41367 0.22101 0.61963 0.0
O472 O 0.4045 0.21155 0.58926 0.0
O473 O 0.30356 0.10572 0.60219 0.0
O474 O 0.35305 0.13982 0.59019 0.0
C475 C 0.29124 0.1508 0.62109 0.0
C476 C 0.34953 0.16415 0.65545 0.0
C477 C 0.23398 0.01539 0.639 0.0
C478 C 0.18351 0.96575 0.63768 0.0
C479 C 0.22707 0.96925 0.65634 0.0
C480 C 0.24614 1.00104 0.65101 0.0
C481 C 0.19581 0.95165 0.64977 0.0
C482 C 0.20268 0.9976 0.63225 0.0
C483 C 0.2525 0.04932 0.63438 0.0
C484 C 0.36505 0.02681 0.65663 0.0
C485 C 0.35646 0.03229 0.67461 0.0
H486 H 0.37932 0.02137 0.62023 0.0
C487 C 0.3858 0.13444 0.62337 0.0
C488 C 0.32404 0.11503 0.58817 0.0
C489 C 0.4569 0.25438 0.59751 0.0
C490 C 0.50442 0.30609 0.60304 0.0
C491 C 0.50074 0.27531 0.57504 0.0
C492 C 0.47062 0.25147 0.58063 0.0
C493 C 0.51757 0.3024 0.58616 0.0
C494 C 0.47391 0.28195 0.60878 0.0
C495 C 0.42429 0.22915 0.60237 0.0
H496 H 0.23641 0.95832 0.66574 0.0
H497 H 0.27007 0.01444 0.6565 0.0
H498 H 0.18114 0.92711 0.65417 0.0
H499 H 0.19303 0.00867 0.62314 0.0
H500 H 0.51105 0.27283 0.56199 0.0
H501 H 0.45797 0.23069 0.57168 0.0
H502 H 0.54092 0.32075 0.58149 0.0
H503 H 0.46347 0.28475 0.62172 0.0
C504 C 0.67165 0.8897 0.42694 0.0
C505 C 0.67698 0.92931 0.40403 0.0
C506 C 0.66965 0.89798 0.40836 0.0
C507 C 0.68683 0.95216 0.41851 0.0
C508 C 0.68162 0.91263 0.4415 0.0
C509 C 0.68925 0.94387 0.43718 0.0
N510 N 0.66417 0.85932 0.43075 0.0
C511 C 0.66524 0.85004 0.44883 0.0
C512 C 0.68355 0.90345 0.46002 0.0
C513 C 0.67521 0.87198 0.4637 0.0
Gd514 Gd 0.70352 0.79499 0.38089 0.0
Gd515 Gd 0.64632 0.82415 0.40502 0.0
N516 N 0.66127 0.87567 0.39447 0.0
C517 C 0.6747 0.9369 0.3852 0.0
C518 C 0.65773 0.88268 0.37625 0.0
C519 C 0.66487 0.91342 0.37128 0.0
H520 H 0.6484 0.8646 0.36552 0.0
H521 H 0.66229 0.91886 0.35675 0.0
H522 H 0.67938 0.74256 0.41722 0.0
H523 H 0.65755 0.82557 0.45196 0.0
H524 H 0.65581 0.68506 0.4219 0.0
H525 H 0.68021 0.96069 0.3813 0.0
H526 H 0.69277 0.97636 0.41541 0.0
H527 H 0.70978 0.80702 0.33412 0.0
H528 H 0.69112 0.92036 0.47159 0.0
H529 H 0.67606 0.86449 0.47802 0.0
H530 H 0.64345 0.64352 0.35884 0.0
H531 H 0.69697 0.96179 0.44819 0.0
H532 H 0.67432 0.71664 0.30691 0.0
H533 H 0.69754 0.77499 0.30485 0.0
N534 N 0.6929 0.76704 0.3524 0.0
C535 C 0.68047 0.73508 0.3539 0.0
C536 C 0.69929 0.7815 0.33512 0.0
C537 C 0.67952 0.73055 0.31978 0.0
C538 C 0.6926 0.76348 0.31855 0.0
C539 C 0.67334 0.71593 0.33759 0.0
H540 H 0.65451 0.66782 0.32716 0.0
N541 N 0.68041 0.74034 0.38729 0.0
C542 C 0.6744 0.72136 0.37184 0.0
C543 C 0.65409 0.67505 0.39205 0.0
C544 C 0.66083 0.68816 0.37382 0.0
C545 C 0.67433 0.7277 0.40507 0.0
C546 C 0.66092 0.69494 0.40773 0.0
O547 O 0.69916 0.85948 0.40588 0.0
O548 O 0.71842 0.84696 0.37938 0.0
O549 O 0.74521 0.79764 0.39409 0.0
O550 O 0.74601 0.80873 0.36431 0.0
O551 O 0.641 0.81267 0.37289 0.0
O552 O 0.69148 0.82569 0.36303 0.0
O553 O 0.64974 0.76063 0.37919 0.0
O554 O 0.63487 0.77371 0.40666 0.0
O555 O 0.60005 0.8168 0.39492 0.0
O556 O 0.6089 0.81448 0.42508 0.0
O557 O 0.70984 0.80806 0.41204 0.0
O558 O 0.66163 0.79656 0.4251 0.0
C559 C 0.72206 0.8657 0.39371 0.0
C560 C 0.66233 0.819 0.35931 0.0
C561 C 0.78082 0.79094 0.37424 0.0
C562 C 0.83163 0.79271 0.3768 0.0
C563 C 0.78991 0.75314 0.3568 0.0
C564 C 0.76999 0.76503 0.36177 0.0
C565 C 0.82069 0.76703 0.36416 0.0
C566 C 0.81157 0.80451 0.3819 0.0
C567 C 0.76156 0.80574 0.37839 0.0
C568 C 0.6539 0.66907 0.35759 0.0
C569 C 0.66015 0.68291 0.33954 0.0
H570 H 0.64351 0.64965 0.39416 0.0
C571 C 0.62767 0.75558 0.39177 0.0
C572 C 0.68983 0.79831 0.42636 0.0
C573 C 0.55677 0.80621 0.41734 0.0
C574 C 0.50876 0.80991 0.41235 0.0
C575 C 0.51283 0.78182 0.4397 0.0
C576 C 0.54306 0.78872 0.43395 0.0
C577 C 0.49578 0.79224 0.42899 0.0
C578 C 0.53952 0.81701 0.40647 0.0
C579 C 0.58933 0.81345 0.4122 0.0
H580 H 0.78162 0.73336 0.34704 0.0
H581 H 0.74645 0.75439 0.35564 0.0
H582 H 0.83601 0.75779 0.36001 0.0
H583 H 0.82017 0.82472 0.39142 0.0
H584 H 0.50258 0.76836 0.45255 0.0
H585 H 0.55574 0.78024 0.44256 0.0
H586 H 0.47234 0.7867 0.43382 0.0
H587 H 0.54986 0.83079 0.39371 0.0
C588 C 0.7919 0.67338 0.92665 0.0
C589 C 0.75627 0.67739 0.90418 0.0
C590 C 0.78012 0.66976 0.9083 0.0
C591 C 0.74496 0.68917 0.91857 0.0
C592 C 0.7806 0.68527 0.94111 0.0
C593 C 0.75715 0.69319 0.93696 0.0
N594 N 0.81477 0.66576 0.93028 0.0
C595 C 0.82663 0.66853 0.94814 0.0
C596 C 0.7932 0.68884 0.95936 0.0
C597 C 0.81623 0.68032 0.96289 0.0
Gd598 Gd 0.91588 0.69911 0.87995 0.0
Gd599 Gd 0.82921 0.64469 0.90477 0.0
N600 N 0.7924 0.65944 0.89443 0.0
C601 C 0.74472 0.67328 0.88564 0.0
C602 C 0.78013 0.65407 0.87653 0.0
C603 C 0.75656 0.66138 0.87181 0.0
H604 H 0.78749 0.64325 0.86589 0.0
H605 H 0.74721 0.65739 0.85754 0.0
H606 H 0.95623 0.69682 0.91817 0.0
H607 H 0.84354 0.66094 0.95125 0.0
H608 H 0.98731 0.67225 0.92754 0.0
H609 H 0.72647 0.67892 0.8819 0.0
H610 H 0.72682 0.69534 0.9156 0.0
H611 H 0.90282 0.68656 0.83338 0.0
H612 H 0.78512 0.69788 0.97084 0.0
H613 H 0.82573 0.6825 0.97702 0.0
H614 H 0.99805 0.62533 0.87011 0.0
H615 H 0.74822 0.70237 0.94789 0.0
H616 H 0.94685 0.63406 0.81435 0.0
H617 H 0.91305 0.65752 0.80807 0.0
N618 N 0.92752 0.67608 0.85431 0.0
C619 C 0.94644 0.66353 0.85812 0.0
C620 C 0.91647 0.67515 0.83646 0.0
C621 C 0.94192 0.64611 0.82564 0.0
C622 C 0.92292 0.65953 0.82199 0.0
C623 C 0.95409 0.64812 0.84386 0.0
H624 H 0.97886 0.62248 0.83754 0.0
N625 N 0.94786 0.67852 0.89027 0.0
C626 C 0.95678 0.66465 0.87663 0.0
C627 C 0.98618 0.65317 0.8998 0.0
C628 C 0.97571 0.65108 0.88112 0.0
C629 C 0.95988 0.68255 0.90809 0.0
C630 C 0.97853 0.66937 0.91325 0.0
O631 O 0.84778 0.6976 0.90522 0.0
O632 O 0.88392 0.72041 0.88046 0.0
O633 O 0.95936 0.74355 0.88798 0.0
O634 O 0.94308 0.73378 0.85854 0.0
O635 O 0.83411 0.63966 0.87254 0.0
O636 O 0.8727 0.69009 0.8634 0.0
O637 O 0.89169 0.64476 0.87796 0.0
O638 O 0.86754 0.63241 0.90656 0.0
O639 O 0.78974 0.59722 0.89601 0.0
O640 O 0.801 0.60987 0.9258 0.0
O641 O 0.91137 0.70753 0.91111 0.0
O642 O 0.87292 0.65954 0.92388 0.0
C643 C 0.86554 0.72139 0.89384 0.0
C644 C 0.84861 0.66188 0.8594 0.0
C645 C 0.99101 0.78426 0.86395 0.0
C646 C 0.03712 0.83702 0.86964 0.0
C647 C 0.01953 0.81902 0.83749 0.0
C648 C 0.99506 0.79027 0.84436 0.0
C649 C 0.04045 0.8422 0.84999 0.0
C650 C 0.01211 0.80798 0.8767 0.0
C651 C 0.964 0.75357 0.87049 0.0
C652 C 0.98363 0.63599 0.86689 0.0
C653 C 0.97281 0.63447 0.84832 0.0
H654 H 1.00075 0.64304 0.90387 0.0
C655 C 0.87702 0.62399 0.89154 0.0
C656 C 0.89891 0.688 0.92559 0.0
C657 C 0.75623 0.55727 0.92027 0.0
C658 C 0.70468 0.50785 0.91678 0.0
C659 C 0.73325 0.52063 0.94674 0.0
C660 C 0.75763 0.54862 0.93909 0.0
C661 C 0.70704 0.50053 0.93578 0.0
C662 C 0.72942 0.53671 0.90901 0.0
C663 C 0.78208 0.58882 0.91364 0.0
H664 H 0.02228 0.82337 0.82238 0.0
H665 H 0.9792 0.77273 0.83422 0.0
H666 H 0.05929 0.86445 0.8443 0.0
H667 H 0.00925 0.80392 0.89185 0.0
H668 H 0.73456 0.51457 0.96133 0.0
H669 H 0.77759 0.56376 0.94812 0.0
H670 H 0.68826 0.47914 0.94232 0.0
H671 H 0.72776 0.54309 0.89453 0.0
C672 C 0.12927 0.78845 0.42898 0.0
C673 C 0.08711 0.7554 0.40702 0.0
C674 C 0.11887 0.77916 0.41048 0.0
C675 C 0.06599 0.74151 0.4223 0.0
C676 C 0.10803 0.77482 0.44432 0.0
C677 C 0.07634 0.75137 0.44087 0.0
N678 N 0.16021 0.81088 0.43196 0.0
C679 C 0.17156 0.82053 0.44985 0.0
C680 C 0.11938 0.78496 0.46271 0.0
C681 C 0.15128 0.8079 0.46547 0.0
Gd682 Gd 0.21727 0.91422 0.38333 0.0
Gd683 Gd 0.19272 0.8284 0.40507 0.0
N684 N 0.13985 0.79322 0.39594 0.0
C685 C 0.07765 0.74583 0.38833 0.0
C686 C 0.13078 0.78345 0.37772 0.0
C687 C 0.09953 0.76002 0.37363 0.0
H688 H 0.14761 0.7925 0.36629 0.0
H689 H 0.09254 0.75232 0.35915 0.0
H690 H 0.25226 0.9614 0.42116 0.0
H691 H 0.19642 0.83737 0.45219 0.0
H692 H 0.30655 0.9992 0.43216 0.0
H693 H 0.05378 0.727 0.38512 0.0
H694 H 0.04165 0.72295 0.41994 0.0
H695 H 0.22215 0.90615 0.33679 0.0
H696 H 0.1038 0.77503 0.47486 0.0
H697 H 0.16037 0.81556 0.47965 0.0
H698 H 0.37237 0.0124 0.37814 0.0
H699 H 0.05972 0.74047 0.45248 0.0
H700 H 0.3204 0.95764 0.32088 0.0
H701 H 0.26408 0.92013 0.31285 0.0
N702 N 0.25463 0.93189 0.35877 0.0
C703 C 0.28527 0.95283 0.36354 0.0
C704 C 0.2467 0.92135 0.34063 0.0
C705 C 0.30213 0.95091 0.3316 0.0
C706 C 0.27037 0.92997 0.32692 0.0
C707 C 0.30991 0.9629 0.35008 0.0
H708 H 0.36071 0.99203 0.34544 0.0
N709 N 0.26754 0.95236 0.39486 0.0
C710 C 0.29191 0.96328 0.38216 0.0
C711 C 0.32868 0.99768 0.40599 0.0
C712 C 0.32329 0.98558 0.38753 0.0
C713 C 0.27219 0.96647 0.41216 0.0
C714 C 0.30288 0.98868 0.4182 0.0
O715 O 0.15791 0.84618 0.40969 0.0
O716 O 0.16614 0.87487 0.38264 0.0
O717 O 0.20488 0.94917 0.39303 0.0
O718 O 0.20629 0.9407 0.36302 0.0
O719 O 0.20185 0.83526 0.37272 0.0
O720 O 0.18662 0.87179 0.36506 0.0
O721 O 0.25132 0.89498 0.37882 0.0
O722 O 0.24347 0.86716 0.40609 0.0
O723 O 0.19631 0.78828 0.39389 0.0
O724 O 0.20797 0.80235 0.42303 0.0
O725 O 0.20768 0.9072 0.41507 0.0
O726 O 0.22276 0.87105 0.42448 0.0
C727 C 0.14868 0.86023 0.39746 0.0
C728 C 0.19359 0.84993 0.36003 0.0
C729 C 0.21767 0.99211 0.37239 0.0
C730 C 0.2157 0.04104 0.37517 0.0
C731 C 0.25795 0.04033 0.35708 0.0
C732 C 0.24537 0.00816 0.36133 0.0
C733 C 0.24306 0.05667 0.36382 0.0
C734 C 0.20317 0.00878 0.37955 0.0
C735 C 0.20263 0.95778 0.37591 0.0
C736 C 0.34804 0.99557 0.37421 0.0
C737 C 0.34139 0.98412 0.35556 0.0
H738 H 0.35243 0.01491 0.41069 0.0
C739 C 0.2602 0.88054 0.39098 0.0
C740 C 0.21851 0.89548 0.42798 0.0
C741 C 0.18395 0.74728 0.41638 0.0
C742 C 0.17069 0.69165 0.41425 0.0
C743 C 0.14473 0.70761 0.43769 0.0
C744 C 0.1624 0.73897 0.43155 0.0
C745 C 0.14888 0.68411 0.42916 0.0
C746 C 0.18791 0.7233 0.4076 0.0
C747 C 0.20301 0.78096 0.41031 0.0
H748 H 0.27912 0.05257 0.3484 0.0
H749 H 0.25701 0.99579 0.35577 0.0
H750 H 0.25295 0.08157 0.36026 0.0
H751 H 0.18178 0.99653 0.38811 0.0
H752 H 0.12816 0.70159 0.44934 0.0
H753 H 0.15954 0.75672 0.43903 0.0
H754 H 0.13522 0.65993 0.43438 0.0
H755 H 0.20493 0.72938 0.39616 0.0
C756 C 0.34635 0.12781 0.92911 0.0
C757 C 0.34053 0.08593 0.90782 0.0
C758 C 0.34718 0.11737 0.91097 0.0
C759 C 0.33272 0.06505 0.92322 0.0
C760 C 0.33945 0.10714 0.94468 0.0
C761 C 0.33246 0.07574 0.94161 0.0
N762 N 0.35469 0.15877 0.9317 0.0
C763 C 0.35862 0.1709 0.94964 0.0
C764 C 0.34121 0.11901 0.96296 0.0
C765 C 0.35119 0.15114 0.96545 0.0
Gd766 Gd 0.31089 0.22003 0.88095 0.0
Gd767 Gd 0.36875 0.19052 0.90417 0.0
N768 N 0.35566 0.13835 0.89644 0.0
C769 C 0.34289 0.07672 0.88936 0.0
C770 C 0.35958 0.12999 0.87856 0.0
C771 C 0.35269 0.09894 0.87469 0.0
H772 H 0.36795 0.14724 0.86726 0.0
H773 H 0.35528 0.09227 0.86044 0.0
H774 H 0.33485 0.27206 0.91821 0.0
H775 H 0.3686 0.19608 0.95196 0.0
H776 H 0.36422 0.32957 0.92292 0.0
H777 H 0.3379 0.05277 0.88637 0.0
H778 H 0.32767 0.04086 0.9211 0.0
H779 H 0.30852 0.20927 0.83415 0.0
H780 H 0.33611 0.10388 0.97527 0.0
H781 H 0.354 0.1609 0.97957 0.0
H782 H 0.38319 0.37298 0.86028 0.0
H783 H 0.32764 0.05983 0.95346 0.0
H784 H 0.35279 0.30099 0.8078 0.0
H785 H 0.32628 0.24236 0.80522 0.0
N786 N 0.32588 0.24887 0.85277 0.0
C787 C 0.3396 0.28099 0.85457 0.0
C788 C 0.32051 0.23486 0.83539 0.0
C789 C 0.34511 0.28659 0.82053 0.0
C790 C 0.33025 0.25351 0.81901 0.0
C791 C 0.34995 0.30075 0.83844 0.0
H792 H 0.37335 0.34946 0.82841 0.0
N793 N 0.33571 0.27471 0.88806 0.0
C794 C 0.34465 0.2943 0.87266 0.0
C795 C 0.36766 0.34037 0.8932 0.0
C796 C 0.36087 0.32766 0.87488 0.0
C797 C 0.34187 0.28709 0.90596 0.0
C798 C 0.35834 0.31998 0.90875 0.0
O799 O 0.32097 0.15199 0.89364 0.0
O800 O 0.28853 0.1735 0.89761 0.0
O801 O 0.27288 0.23003 0.88753 0.0
O802 O 0.26804 0.19879 0.86381 0.0
O803 O 0.37165 0.20116 0.87214 0.0
O804 O 0.31989 0.18604 0.86392 0.0
O805 O 0.36483 0.25122 0.87746 0.0
O806 O 0.37647 0.23962 0.90597 0.0
O807 O 0.41402 0.19905 0.892 0.0
O808 O 0.41093 0.2081 0.92149 0.0
O809 O 0.30656 0.21554 0.91238 0.0
O810 O 0.34694 0.20967 0.92624 0.0
C811 C 0.29281 0.14882 0.89648 0.0
C812 C 0.34842 0.19126 0.85947 0.0
C813 C 0.22745 0.21312 0.86722 0.0
C814 C 0.17434 0.20492 0.87283 0.0
C815 C 0.19894 0.22141 0.84179 0.0
C816 C 0.22605 0.22136 0.84836 0.0
C817 C 0.17318 0.21316 0.85393 0.0
C818 C 0.20157 0.20502 0.87947 0.0
C819 C 0.25458 0.21086 0.87435 0.0
C820 C 0.37078 0.34732 0.85881 0.0
C821 C 0.36525 0.33392 0.84066 0.0
H822 H 0.38052 0.36586 0.89548 0.0
C823 C 0.38562 0.25752 0.89099 0.0
C824 C 0.32211 0.21423 0.92724 0.0
C825 C 0.44431 0.18739 0.91382 0.0
C826 C 0.48738 0.17553 0.91004 0.0
C827 C 0.44898 0.15093 0.93545 0.0
C828 C 0.4333 0.1668 0.92955 0.0
C829 C 0.47586 0.15525 0.92578 0.0
C830 C 0.47161 0.19173 0.90402 0.0
C831 C 0.42811 0.20523 0.90838 0.0
H832 H 0.19773 0.22753 0.8272 0.0
H833 H 0.2457 0.22743 0.83874 0.0
H834 H 0.15215 0.21284 0.84853 0.0
H835 H 0.20234 0.19816 0.894 0.0
H836 H 0.44041 0.1354 0.94767 0.0
H837 H 0.41283 0.16324 0.9376 0.0
H838 H 0.48791 0.14291 0.93069 0.0
H839 H 0.48065 0.20771 0.89199 0.0
C840 C 0.22338 0.34535 0.42923 0.0
C841 C 0.25465 0.33263 0.4079 0.0
C842 C 0.23185 0.34206 0.41091 0.0
C843 C 0.26843 0.32622 0.42351 0.0
C844 C 0.2368 0.33842 0.44492 0.0
C845 C 0.2593 0.32877 0.44195 0.0
N846 N 0.20185 0.35511 0.4317 0.0
C847 C 0.19288 0.35876 0.44944 0.0
C848 C 0.22738 0.34165 0.46315 0.0
C849 C 0.20534 0.35189 0.46541 0.0
Gd850 Gd 0.09675 0.30971 0.38174 0.0
Gd851 Gd 0.18333 0.36727 0.40419 0.0
N852 N 0.21796 0.34832 0.39607 0.0
C853 C 0.26341 0.33051 0.38931 0.0
C854 C 0.22721 0.34718 0.37794 0.0
C855 C 0.24962 0.33781 0.37427 0.0
H856 H 0.2185 0.35453 0.36618 0.0
H857 H 0.25679 0.33696 0.35985 0.0
H858 H 0.05097 0.30401 0.41896 0.0
H859 H 0.17662 0.3676 0.45136 0.0
H860 H 0.01733 0.32608 0.42924 0.0
H861 H 0.28134 0.32407 0.38643 0.0
H862 H 0.28644 0.31961 0.42149 0.0
H863 H 0.10565 0.32011 0.33491 0.0
H864 H 0.23714 0.33654 0.47556 0.0
H865 H 0.19819 0.35482 0.47945 0.0
H866 H 0.01057 0.37975 0.37393 0.0
H867 H 0.27006 0.32357 0.45383 0.0
H868 H 0.06022 0.37167 0.31699 0.0
H869 H 0.09244 0.34647 0.30952 0.0
N870 N 0.08328 0.33212 0.35652 0.0
C871 C 0.06429 0.34443 0.36078 0.0
C872 C 0.09267 0.33201 0.33833 0.0
C873 C 0.06637 0.36047 0.32818 0.0
C874 C 0.08468 0.34642 0.32392 0.0
C875 C 0.05569 0.35935 0.34677 0.0
H876 H 0.02996 0.38424 0.34119 0.0
N877 N 0.06275 0.32781 0.39252 0.0
C878 C 0.05403 0.34251 0.37937 0.0
C879 C 0.02167 0.3497 0.40266 0.0
C880 C 0.03389 0.35456 0.38422 0.0
C881 C 0.04818 0.32005 0.40974 0.0
C882 C 0.02819 0.33163 0.41532 0.0
O883 O 0.16466 0.31469 0.40849 0.0
O884 O 0.13159 0.29156 0.38277 0.0
O885 O 0.0551 0.2644 0.39024 0.0
O886 O 0.06958 0.27454 0.36049 0.0
O887 O 0.17736 0.36842 0.3717 0.0
O888 O 0.13876 0.31715 0.36456 0.0
O889 O 0.12034 0.3635 0.3771 0.0
O890 O 0.14347 0.37727 0.4056 0.0
O891 O 0.22399 0.41035 0.39247 0.0
O892 O 0.20791 0.41024 0.42092 0.0
O893 O 0.1013 0.30445 0.41357 0.0
O894 O 0.14092 0.35386 0.42411 0.0
C895 C 0.14923 0.29082 0.39672 0.0
C896 C 0.1623 0.34495 0.35933 0.0
C897 C 0.02275 0.22371 0.36671 0.0
C898 C 0.97817 0.171 0.37367 0.0
C899 C 0.99036 0.1892 0.34113 0.0
C900 C 0.01579 0.21797 0.34728 0.0
C901 C 0.97158 0.16585 0.35423 0.0
C902 C 1.00389 0.19995 0.37997 0.0
C903 C 0.04946 0.25466 0.37272 0.0
C904 C 0.02577 0.37008 0.3704 0.0
C905 C 0.0367 0.37251 0.35174 0.0
H906 H 1.00603 0.35848 0.40696 0.0
C907 C 0.13378 0.38482 0.39045 0.0
C908 C 0.11557 0.3255 0.42722 0.0
C909 C 0.26336 0.44288 0.41537 0.0
C910 C 0.31896 0.48551 0.41229 0.0
C911 C 0.30081 0.45433 0.44117 0.0
C912 C 0.27029 0.43657 0.43368 0.0
C913 C 0.32492 0.47875 0.43063 0.0
C914 C 0.28816 0.46722 0.40453 0.0
C915 C 0.22997 0.42587 0.40839 0.0
H916 H 0.98518 0.185 0.32615 0.0
H917 H 0.0299 0.23582 0.33679 0.0
H918 H 0.95192 0.14356 0.34919 0.0
H919 H 0.009 0.20389 0.39499 0.0
H920 H 0.30568 0.44943 0.45535 0.0
H921 H 0.25203 0.41824 0.44244 0.0
H922 H 0.34835 0.4926 0.43686 0.0
H923 H 0.28346 0.47229 0.39035 0.0
C924 C 0.88451 0.22122 0.92893 0.0
C925 C 0.92852 0.25066 0.90722 0.0
C926 C 0.89593 0.22907 0.9105 0.0
C927 C 0.94927 0.2642 0.92264 0.0
C928 C 0.90532 0.23473 0.94444 0.0
C929 C 0.9377 0.2563 0.94119 0.0
N930 N 0.8532 0.19986 0.93169 0.0
C931 C 0.84099 0.19129 0.94954 0.0
C932 C 0.893 0.22599 0.96279 0.0
C933 C 0.86069 0.20419 0.96534 0.0
Gd934 Gd 0.79096 0.09432 0.88091 0.0
Gd935 Gd 0.82181 0.1807 0.90449 0.0
N936 N 0.87538 0.21499 0.89583 0.0
C937 C 0.93934 0.25798 0.88852 0.0
C938 C 0.88568 0.22336 0.8776 0.0
C939 C 0.91776 0.24445 0.87366 0.0
H940 H 0.86947 0.21478 0.86592 0.0
H941 H 0.92573 0.25063 0.85915 0.0
H942 H 0.74345 0.06349 0.91976 0.0
H943 H 0.8159 0.17505 0.95167 0.0
H944 H 0.68684 0.03658 0.92724 0.0
H945 H 0.96418 0.27439 0.88542 0.0
H946 H 0.97435 0.2808 0.92036 0.0
H947 H 0.79562 0.10159 0.83381 0.0
H948 H 0.90821 0.23592 0.97507 0.0
H949 H 0.8509 0.19746 0.97948 0.0
H950 H 0.63562 0.01335 0.8667 0.0
H951 H 0.95403 0.26691 0.95294 0.0
H952 H 0.70116 0.05401 0.81138 0.0
H953 H 0.75938 0.08607 0.80639 0.0
N954 N 0.75849 0.08012 0.85403 0.0
C955 C 0.72666 0.06175 0.85709 0.0
C956 C 0.77032 0.08855 0.83612 0.0
C957 C 0.71702 0.06103 0.82345 0.0
C958 C 0.74984 0.07928 0.82057 0.0
C959 C 0.70503 0.05206 0.84186 0.0
H960 H 0.65524 0.02664 0.83395 0.0
N961 N 0.7371 0.06476 0.89012 0.0
C962 C 0.71563 0.05399 0.87564 0.0
C963 C 0.67222 0.0305 0.8981 0.0
C964 C 0.68262 0.03666 0.87929 0.0
C965 C 0.72696 0.05732 0.90839 0.0
C966 C 0.69453 0.04098 0.91267 0.0
O967 O 0.85561 0.16185 0.90791 0.0
O968 O 0.84422 0.12849 0.88218 0.0
O969 O 0.79023 0.05053 0.89015 0.0
O970 O 0.80111 0.06742 0.86083 0.0
O971 O 0.8141 0.17551 0.87196 0.0
O972 O 0.82591 0.13663 0.86413 0.0
O973 O 0.76072 0.11786 0.87692 0.0
O974 O 0.77183 0.14095 0.9055 0.0
O975 O 0.81733 0.22009 0.8929 0.0
O976 O 0.80545 0.2062 0.9221 0.0
O977 O 0.8019 0.09792 0.91235 0.0
O978 O 0.79442 0.13808 0.92468 0.0
C979 C 0.86253 0.14471 0.89654 0.0
C980 C 0.82159 0.1602 0.85922 0.0
C981 C 0.80122 0.01895 0.86719 0.0
C982 C 0.81193 0.97615 0.87405 0.0
C983 C 0.80664 0.98864 0.84149 0.0
C984 C 0.80125 0.01272 0.84771 0.0
C985 C 0.81211 0.97055 0.85457 0.0
C986 C 0.80632 1.00032 0.88045 0.0
C987 C 0.7976 0.04603 0.87308 0.0
C988 C 0.66104 0.02669 0.86413 0.0
C989 C 0.67221 0.03428 0.84548 0.0
H990 H 0.64707 0.0177 0.90152 0.0
C991 C 0.75467 0.13283 0.89026 0.0
C992 C 0.79697 0.11221 0.92679 0.0
C993 C 0.82684 0.26091 0.91519 0.0
C994 C 0.83784 0.31562 0.91165 0.0
C995 C 0.8606 0.30161 0.93791 0.0
C996 C 0.8459 0.27024 0.93157 0.0
C997 C 0.85661 0.32417 0.92805 0.0
C998 C 0.82285 0.28388 0.9052 0.0
C999 C 0.80977 0.22709 0.90921 0.0
H1000 H 0.80681 0.98414 0.82647 0.0
H1001 H 0.79736 0.02667 0.83721 0.0
H1002 H 0.81656 0.95211 0.8495 0.0
H1003 H 0.80655 0.00491 0.89551 0.0
H1004 H 0.87495 0.3084 0.95063 0.0
H1005 H 0.84911 0.25326 0.93973 0.0
H1006 H 0.86802 0.34839 0.9333 0.0
H1007 H 0.80798 0.27706 0.89268 0.0
H1008 H 0.17909 0.90579 0.14448 0.0
H1009 H 0.1939 0.9616 0.14191 0.0
H1010 H 0.12842 0.93834 0.09519 0.0
H1011 H 0.1174 0.88321 0.09618 0.0
H1012 H 0.17299 0.99119 0.08769 0.0
H1013 H 0.11454 0.95328 0.14592 0.0
H1014 H 0.10141 0.92806 0.17753 0.0
H1015 H 0.19353 0.99814 0.19802 0.0
H1016 H 0.20729 0.02345 0.16651 0.0
H1017 H 0.15348 0.12803 0.11595 0.0
H1018 H 0.14744 0.07698 0.10547 0.0
H1019 H 0.23918 0.1035 0.1292 0.0
H1020 H 0.24531 0.1544 0.13947 0.0
H1021 H 0.1804 0.05016 0.14662 0.0
H1022 H 0.23464 0.09034 0.0871 0.0
H1023 H 0.24261 0.11564 0.05579 0.0
H1024 H 0.15082 0.04083 0.03792 0.0
H1025 H 0.14197 0.01546 0.06931 0.0
C1026 C 0.16812 0.9128 0.13362 0.0
C1027 C 0.14716 0.8905 0.12056 0.0
C1028 C 0.17618 0.94465 0.13229 0.0
C1029 C 0.16153 0.95442 0.11876 0.0
C1030 C 0.14012 0.93173 0.10581 0.0
C1031 C 0.13347 0.90016 0.10649 0.0
C1032 C 0.16848 0.9881 0.11819 0.0
C1033 C 0.17411 1.00381 0.10061 0.0
C1034 C 0.17032 0.00515 0.13493 0.0
C1035 C 0.16199 0.99002 0.15386 0.0
C1036 C 0.132 0.96313 0.15716 0.0
C1037 C 0.12447 0.94885 0.17504 0.0
C1038 C 0.14665 0.96143 0.18974 0.0
C1039 C 0.17638 0.98838 0.18662 0.0
C1040 C 0.18405 1.00271 0.16877 0.0
C1041 C 0.17305 0.1236 0.11792 0.0
C1042 C 0.19996 0.14503 0.12836 0.0
C1043 C 0.16954 0.09443 0.11203 0.0
C1044 C 0.19284 0.08652 0.11665 0.0
C1045 C 0.22106 0.1093 0.12541 0.0
C1046 C 0.22464 0.13841 0.13117 0.0
C1047 C 0.18513 0.05292 0.11631 0.0
C1048 C 0.17915 0.03729 0.13376 0.0
C1049 C 0.18214 0.03595 0.09948 0.0
C1050 C 0.18749 0.05121 0.08064 0.0
C1051 C 0.21597 0.07949 0.07659 0.0
C1052 C 0.22069 0.09381 0.05881 0.0
C1053 C 0.1972 0.07991 0.04489 0.0
C1054 C 0.16897 0.05162 0.04872 0.0
C1055 C 0.16409 0.03726 0.06651 0.0
H1056 H 0.20092 0.091 0.03112 0.0
H1057 H 0.14077 0.95034 0.20357 0.0
H1058 H 0.28829 0.20443 0.61556 0.0
H1059 H 0.24164 0.21009 0.61261 0.0
H1060 H 0.18153 0.10931 0.62206 0.0
H1061 H 0.22916 0.10371 0.62449 0.0
H1062 H 0.15936 0.13508 0.5926 0.0
H1063 H 0.19394 0.15488 0.65698 0.0
H1064 H 0.23328 0.17949 0.68248 0.0
H1065 H 0.25083 0.27198 0.66583 0.0
H1066 H 0.21234 0.24788 0.63967 0.0
H1067 H 0.02534 0.14207 0.63195 0.0
H1068 H 0.06699 0.13222 0.61983 0.0
H1069 H 0.13007 0.2333 0.6136 0.0
H1070 H 0.0884 0.24305 0.62575 0.0
H1071 H 0.15026 0.20618 0.63959 0.0
H1072 H 0.11418 0.18653 0.57579 0.0
H1073 H 0.07711 0.16236 0.54904 0.0
H1074 H 0.06176 0.0702 0.56447 0.0
H1075 H 0.09838 0.09376 0.5915 0.0
C1076 C 0.26538 0.18346 0.61649 0.0
C1077 C 0.26252 0.15376 0.61992 0.0
C1078 C 0.23857 0.18667 0.615 0.0
C1079 C 0.20812 0.1601 0.61707 0.0
C1080 C 0.2049 0.13008 0.6203 0.0
C1081 C 0.232 0.12698 0.62189 0.0
C1082 C 0.18012 0.16456 0.61716 0.0
C1083 C 0.15696 0.1502 0.60301 0.0
C1084 C 0.17765 0.18503 0.63044 0.0
C1085 C 0.20052 0.1996 0.64626 0.0
C1086 C 0.20642 0.1805 0.65863 0.0
C1087 C 0.22856 0.19437 0.67323 0.0
C1088 C 0.24455 0.22732 0.67584 0.0
C1089 C 0.23845 0.24646 0.66379 0.0
C1090 C 0.21653 0.23271 0.64904 0.0
C1091 C 0.04758 0.162 0.62706 0.0
C1092 C 0.05385 0.19327 0.62967 0.0
C1093 C 0.07136 0.15639 0.62015 0.0
C1094 C 0.10169 0.18205 0.61592 0.0
C1095 C 0.1068 0.21318 0.61675 0.0
C1096 C 0.08302 0.21876 0.6236 0.0
C1097 C 0.12932 0.17698 0.61487 0.0
C1098 C 0.15249 0.19112 0.62904 0.0
C1099 C 0.13156 0.15628 0.60164 0.0
C1100 C 0.10871 0.14187 0.58582 0.0
C1101 C 0.10254 0.16105 0.57365 0.0
C1102 C 0.08171 0.14747 0.55839 0.0
C1103 C 0.067 0.11475 0.55509 0.0
C1104 C 0.0731 0.09553 0.56706 0.0
C1105 C 0.09391 0.10899 0.58235 0.0
H1106 H 0.05095 0.1043 0.54323 0.0
H1107 H 0.26164 0.23802 0.6872 0.0
H1108 H 0.89339 0.02275 0.13388 0.0
H1109 H 0.94515 0.0648 0.12249 0.0
H1110 H 0.90379 0.12267 0.10841 0.0
H1111 H 0.8518 0.08042 0.11987 0.0
H1112 H 0.9604 0.12923 0.08365 0.0
H1113 H 0.9286 0.13885 0.148 0.0
H1114 H 0.90504 0.11624 0.17916 0.0
H1115 H 0.97288 0.08499 0.18678 0.0
H1116 H 0.99679 0.1075 0.15562 0.0
H1117 H 0.10005 0.27906 0.09457 0.0
H1118 H 0.04652 0.23432 0.09394 0.0
H1119 H 0.07454 0.18362 0.1324 0.0
H1120 H 0.12717 0.23075 0.13524 0.0
H1121 H 0.02215 0.17282 0.14294 0.0
H1122 H 0.05909 0.17024 0.07931 0.0
H1123 H 0.08224 0.19414 0.0483 0.0
H1124 H 1.00523 0.21183 0.03828 0.0
H1125 H 0.98185 0.18836 0.06931 0.0
C1126 C 0.89506 0.04375 0.12741 0.0
C1127 C 0.86882 0.04843 0.12755 0.0
C1128 C 0.92457 0.06776 0.12098 0.0
C1129 C 0.9282 0.0968 0.11471 0.0
C1130 C 0.9013 0.10026 0.11301 0.0
C1131 C 0.87168 0.07617 0.11951 0.0
C1132 C 0.96043 0.12505 0.11394 0.0
C1133 C 0.97403 0.139 0.09653 0.0
C1134 C 0.97809 0.13753 0.13074 0.0
C1135 C 0.96425 0.12459 0.14954 0.0
C1136 C 0.93838 0.12708 0.15634 0.0
C1137 C 0.92506 0.1144 0.174 0.0
C1138 C 0.93741 0.09912 0.18493 0.0
C1139 C 0.96331 0.09678 0.17829 0.0
C1140 C 0.97683 0.1096 0.16068 0.0
C1141 C 0.09474 0.25891 0.10331 0.0
C1142 C 0.11769 0.25921 0.11552 0.0
C1143 C 0.0641 0.23266 0.1025 0.0
C1144 C 0.05627 0.20498 0.1128 0.0
C1145 C 0.07971 0.20465 0.12435 0.0
C1146 C 0.10991 0.23161 0.12592 0.0
C1147 C 0.02336 0.17704 0.11246 0.0
C1148 C 0.00919 0.16313 0.12984 0.0
C1149 C 1.00542 0.16473 0.09553 0.0
C1150 C 0.01883 0.17768 0.07662 0.0
C1151 C 0.04713 0.17923 0.07047 0.0
C1152 C 0.0603 0.19274 0.05291 0.0
C1153 C 0.04524 0.20452 0.04133 0.0
C1154 C 0.01687 0.20268 0.04725 0.0
C1155 C 1.00362 0.18923 0.06479 0.0
H1156 H 0.05552 0.21504 0.02776 0.0
H1157 H 0.92692 0.08913 0.19855 0.0
H1158 H 0.85481 0.87232 0.61931 0.0
H1159 H 0.86676 0.92418 0.60636 0.0
H1160 H 0.77639 0.90859 0.62722 0.0
H1161 H 0.76456 0.85703 0.63987 0.0
H1162 H 0.79339 0.94315 0.59468 0.0
H1163 H 0.84253 0.94266 0.65495 0.0
H1164 H 0.87698 0.92966 0.67406 0.0
H1165 H 0.95636 0.98801 0.63785 0.0
H1166 H 0.92216 1.00089 0.61833 0.0
H1167 H 0.80899 0.08844 0.62433 0.0
H1168 H 0.80083 0.03505 0.62084 0.0
H1169 H 0.90003 0.07453 0.60654 0.0
H1170 H 0.90826 0.12825 0.61009 0.0
H1171 H 0.88453 0.02892 0.62976 0.0
H1172 H 0.83728 0.03758 0.57288 0.0
H1173 H 0.80233 0.04581 0.55117 0.0
H1174 H 0.7199 0.9712 0.57889 0.0
H1175 H 0.75429 0.96295 0.60103 0.0
C1176 C 0.83709 0.87956 0.62033 0.0
C1177 C 0.8089 0.86104 0.63056 0.0
C1178 C 0.84395 0.90918 0.6131 0.0
C1179 C 0.82271 0.9205 0.61619 0.0
C1180 C 0.79316 0.90042 0.62471 0.0
C1181 C 0.78637 0.87098 0.63193 0.0
C1182 C 0.83256 0.95446 0.6133 0.0
C1183 C 0.81329 0.96201 0.60232 0.0
C1184 C 0.85901 0.97909 0.62291 0.0
C1185 C 0.8798 0.97252 0.63513 0.0
C1186 C 0.86734 0.95268 0.65107 0.0
C1187 C 0.88679 0.94529 0.66195 0.0
C1188 C 0.91884 0.95798 0.65715 0.0
C1189 C 0.93153 0.97819 0.64153 0.0
C1190 C 0.91213 0.98553 0.63056 0.0
C1191 C 0.8289 0.08587 0.62 0.0
C1192 C 0.85906 0.11274 0.61703 0.0
C1193 C 0.82424 0.0552 0.61804 0.0
C1194 C 0.84963 0.05058 0.61294 0.0
C1195 C 0.87995 0.07737 0.61029 0.0
C1196 C 0.88463 0.10811 0.61235 0.0
C1197 C 0.8448 0.01784 0.61141 0.0
C1198 C 0.86497 0.01044 0.62172 0.0
C1199 C 0.81913 0.99336 0.60112 0.0
C1200 C 0.7984 0.99968 0.58863 0.0
C1201 C 0.81171 0.02321 0.57451 0.0
C1202 C 0.79199 0.0278 0.56208 0.0
C1203 C 0.75895 0.00879 0.56353 0.0
C1204 C 0.74551 0.98571 0.5777 0.0
C1205 C 0.7651 0.9811 0.5902 0.0
H1206 H 0.74373 0.01186 0.55363 0.0
H1207 H 0.93385 0.95217 0.66556 0.0
H1208 H 0.976 0.84043 0.09987 0.0
H1209 H 0.92494 0.83786 0.09372 0.0
H1210 H 0.90089 0.81902 0.15304 0.0
H1211 H 0.95162 0.82101 0.15897 0.0
H1212 H 0.84974 0.78428 0.13184 0.0
H1213 H 0.93312 0.8939 0.13452 0.0
H1214 H 0.98416 0.94022 0.12486 0.0
H1215 H 0.94864 0.9334 0.06834 0.0
H1216 H 0.89754 0.88664 0.07762 0.0
H1217 H 0.75559 0.85885 0.14913 0.0
H1218 H 0.79912 0.84718 0.148 0.0
H1219 H 0.78684 0.83258 0.08765 0.0
H1220 H 0.74299 0.84401 0.08864 0.0
H1221 H 0.85405 0.88087 0.10515 0.0
H1222 H 0.7788 0.75898 0.10317 0.0
H1223 H 0.73172 0.70982 0.11462 0.0
H1224 H 0.75322 0.7442 0.17186 0.0
H1225 H 0.80098 0.79305 0.16072 0.0
C1226 C 0.95937 0.83509 0.11141 0.0
C1227 C 0.96732 0.83077 0.12982 0.0
C1228 C 0.93042 0.83386 0.10797 0.0
C1229 C 0.90927 0.82868 0.12298 0.0
C1230 C 0.9168 0.82304 0.14125 0.0
C1231 C 0.94569 0.8242 0.14465 0.0
C1232 C 0.88015 0.83085 0.12004 0.0
C1233 C 0.85083 0.80546 0.12598 0.0
C1234 C 0.88127 0.85825 0.11221 0.0
C1235 C 0.9117 0.88662 0.1067 0.0
C1236 C 0.93629 0.90217 0.12001 0.0
C1237 C 0.96522 0.92849 0.1146 0.0
C1238 C 0.96968 0.9397 0.09598 0.0
C1239 C 0.94518 0.92465 0.08275 0.0
C1240 C 0.91623 0.89824 0.08807 0.0
C1241 C 0.76207 0.85309 0.13562 0.0
C1242 C 0.746 0.85254 0.11896 0.0
C1243 C 0.78675 0.84617 0.13502 0.0
C1244 C 0.796 0.83888 0.11776 0.0
C1245 C 0.77988 0.83801 0.10111 0.0
C1246 C 0.75488 0.84454 0.10172 0.0
C1247 C 0.824 0.83446 0.11715 0.0
C1248 C 0.85308 0.85952 0.11062 0.0
C1249 C 0.8229 0.80707 0.12466 0.0
C1250 C 0.79297 0.77955 0.13115 0.0
C1251 C 0.77321 0.75607 0.11816 0.0
C1252 C 0.74666 0.72819 0.12461 0.0
C1253 C 0.73948 0.72391 0.14395 0.0
C1254 C 0.75881 0.74754 0.15689 0.0
C1255 C 0.78567 0.77523 0.15054 0.0
H1256 H 0.71885 0.70233 0.1489 0.0
H1257 H 0.9921 0.96008 0.09182 0.0
H1258 H 0.89084 0.77123 0.64404 0.0
H1259 H 0.94481 0.81703 0.64241 0.0
H1260 H 0.95896 0.78479 0.58824 0.0
H1261 H 0.9046 0.74005 0.58922 0.0
H1262 H 0.00748 0.79833 0.61505 0.0
H1263 H 0.95241 0.84584 0.58773 0.0
H1264 H 0.91229 0.8624 0.58443 0.0
H1265 H 0.94675 0.91845 0.6351 0.0
H1266 H 0.98668 0.90166 0.63897 0.0
H1267 H 0.16155 0.93173 0.60519 0.0
H1268 H 0.1057 0.895 0.5968 0.0
H1269 H 0.07543 0.92097 0.64801 0.0
H1270 H 0.13123 0.95789 0.65621 0.0
H1271 H 0.03509 0.91143 0.6183 0.0
H1272 H 0.0855 0.85776 0.64732 0.0
H1273 H 0.12744 0.84343 0.64955 0.0
H1274 H 0.10161 0.79937 0.5947 0.0
H1275 H 0.05988 0.81403 0.592 0.0
C1276 C 0.90527 0.77403 0.63167 0.0
C1277 C 0.8936 0.75146 0.61696 0.0
C1278 C 0.93609 0.80023 0.63076 0.0
C1279 C 0.95583 0.80417 0.61523 0.0
C1280 C 0.94412 0.78205 0.60039 0.0
C1281 C 0.91311 0.75628 0.60109 0.0
C1282 C 0.98919 0.8306 0.61494 0.0
C1283 C 0.01354 0.82309 0.61542 0.0
C1284 C 0.99698 0.86281 0.61566 0.0
C1285 C 0.97235 0.8722 0.61375 0.0
C1286 C 0.95115 0.86131 0.59834 0.0
C1287 C 0.92849 0.87082 0.59634 0.0
C1288 C 0.92697 0.89146 0.60956 0.0
C1289 C 0.94795 0.90245 0.62489 0.0
C1290 C 0.9706 0.89293 0.62699 0.0
C1291 C 0.14281 0.92993 0.61437 0.0
C1292 C 0.15028 0.94723 0.63133 0.0
C1293 C 0.11104 0.90902 0.60963 0.0
C1294 C 0.08646 0.90498 0.62192 0.0
C1295 C 0.09401 0.92373 0.63835 0.0
C1296 C 0.12576 0.94464 0.64307 0.0
C1297 C 0.05326 0.87912 0.61878 0.0
C1298 C 0.02896 0.88668 0.61772 0.0
C1299 C 0.04543 0.8469 0.61753 0.0
C1300 C 0.06984 0.83728 0.61937 0.0
C1301 C 0.08889 0.84517 0.6357 0.0
C1302 C 0.11262 0.83701 0.63704 0.0
C1303 C 0.11724 0.82057 0.62225 0.0
C1304 C 0.09804 0.81216 0.60612 0.0
C1305 C 0.07435 0.8204 0.60467 0.0
H1306 H 0.13565 0.81429 0.62331 0.0
H1307 H 0.9097 0.89912 0.60785 0.0
H1308 H 0.1034 0.82878 0.42504 0.0
H1309 H 0.04947 0.82055 0.42644 0.0
H1310 H 0.0667 0.87412 0.37476 0.0
H1311 H 0.12035 0.88208 0.37311 0.0
H1312 H 0.03788 0.89195 0.39994 0.0
H1313 H 0.01753 0.792 0.37326 0.0
H1314 H 0.01532 0.74039 0.37004 0.0
H1315 H 0.97204 0.71237 0.42505 0.0
H1316 H 0.97345 0.76369 0.42839 0.0
H1317 H 0.88583 0.83443 0.35864 0.0
H1318 H 0.94058 0.85238 0.36866 0.0
H1319 H 0.90544 0.80079 0.42116 0.0
H1320 H 0.85056 0.78295 0.41107 0.0
H1321 H 0.94285 0.78388 0.4017 0.0
H1322 H 0.95358 0.88212 0.42351 0.0
H1323 H 0.94866 0.9302 0.42149 0.0
H1324 H 0.00738 0.95989 0.37161 0.0
H1325 H 0.01295 0.91229 0.3735 0.0
C1326 C 0.09565 0.83851 0.41386 0.0
C1327 C 0.11615 0.85568 0.39881 0.0
C1328 C 0.06478 0.83384 0.41471 0.0
C1329 C 0.05393 0.84653 0.40063 0.0
C1330 C 0.07453 0.86413 0.3858 0.0
C1331 C 0.10523 0.86857 0.38485 0.0
C1332 C 0.02118 0.84166 0.40126 0.0
C1333 C 0.01711 0.8683 0.4003 0.0
C1334 C 0.99398 0.81098 0.40222 0.0
C1335 C 0.99604 0.78171 0.40118 0.0
C1336 C 0.008 0.77499 0.38477 0.0
C1337 C 1.00657 0.74569 0.38285 0.0
C1338 C 0.99353 0.7231 0.39733 0.0
C1339 C 0.98207 0.72986 0.41383 0.0
C1340 C 0.98308 0.75899 0.41573 0.0
C1341 C 0.89 0.82769 0.37251 0.0
C1342 C 0.86434 0.80743 0.38414 0.0
C1343 C 0.92119 0.83807 0.37829 0.0
C1344 C 0.92712 0.82815 0.39574 0.0
C1345 C 0.9014 0.80891 0.40771 0.0
C1346 C 0.87018 0.79875 0.40198 0.0
C1347 C 0.95952 0.83404 0.40006 0.0
C1348 C 0.96359 0.80759 0.40193 0.0
C1349 C 0.9866 0.86484 0.39968 0.0
C1350 C 0.9836 0.89365 0.39862 0.0
C1351 C 0.96541 0.89894 0.41211 0.0
C1352 C 0.96262 0.92618 0.41104 0.0
C1353 C 0.97781 0.9482 0.39648 0.0
C1354 C 0.99587 0.94304 0.38299 0.0
C1355 C 0.99897 0.91601 0.3841 0.0
H1356 H 0.97555 0.96923 0.39564 0.0
H1357 H 0.99241 0.70039 0.39579 0.0
H1358 H 0.02688 0.87482 0.89412 0.0
H1359 H 0.06792 0.92665 0.90657 0.0
H1360 H 0.14098 0.91025 0.8837 0.0
H1361 H 0.10019 0.85854 0.87174 0.0
H1362 H 0.16151 0.94365 0.91533 0.0
H1363 H 0.10767 0.94796 0.85851 0.0
H1364 H 0.05967 0.93762 0.84081 0.0
H1365 H 0.0432 0.99535 0.88022 0.0
H1366 H 0.09077 0.00545 0.89838 0.0
H1367 H 0.28985 0.09241 0.8879 0.0
H1368 H 0.24483 0.03876 0.89065 0.0
H1369 H 0.18651 0.07634 0.91123 0.0
H1370 H 0.23193 0.13054 0.90848 0.0
H1371 H 0.15453 0.03295 0.8864 0.0
H1372 H 0.21423 0.03527 0.94045 0.0
H1373 H 0.25853 0.04055 0.96014 0.0
H1374 H 0.26357 0.96922 0.92676 0.0
H1375 H 0.21976 0.96394 0.90664 0.0
C1376 C 0.05174 0.88183 0.8925 0.0
C1377 C 0.06048 0.86278 0.88203 0.0
C1378 C 0.07518 0.91158 0.89939 0.0
C1379 C 0.10762 0.92279 0.89567 0.0
C1380 C 0.11623 0.90236 0.8867 0.0
C1381 C 0.09291 0.87274 0.8799 0.0
C1382 C 0.13251 0.95667 0.89902 0.0
C1383 C 0.1601 0.96322 0.90895 0.0
C1384 C 0.1304 0.98236 0.89114 0.0
C1385 C 0.10252 0.97718 0.87988 0.0
C1386 C 0.09372 0.95835 0.86342 0.0
C1387 C 0.06658 0.95249 0.85333 0.0
C1388 C 0.04835 0.96576 0.85941 0.0
C1389 C 0.0573 0.98502 0.87556 0.0
C1390 C 0.08433 0.9908 0.88576 0.0
C1391 C 0.26774 0.08942 0.89339 0.0
C1392 C 0.26489 0.116 0.89827 0.0
C1393 C 0.24182 0.05851 0.89497 0.0
C1394 C 0.2122 0.05316 0.90155 0.0
C1395 C 0.20911 0.07966 0.90627 0.0
C1396 C 0.23514 0.11071 0.90467 0.0
C1397 C 0.18421 0.02009 0.90237 0.0
C1398 C 0.15599 0.01364 0.8931 0.0
C1399 C 0.18588 0.99444 0.91079 0.0
C1400 C 0.21373 0.99927 0.92202 0.0
C1401 C 0.22507 0.02103 0.93715 0.0
C1402 C 0.24999 0.0239 0.94844 0.0
C1403 C 0.26358 0.00497 0.94481 0.0
C1404 C 0.25283 0.98368 0.92963 0.0
C1405 C 0.22799 0.98077 0.91827 0.0
H1406 H 0.28247 0.00677 0.95375 0.0
H1407 H 0.02732 0.96118 0.85159 0.0
H1408 H 0.17812 0.27581 0.42517 0.0
H1409 H 0.18598 0.2299 0.42681 0.0
H1410 H 0.14141 0.19846 0.37211 0.0
H1411 H 0.13298 0.24372 0.37055 0.0
H1412 H 0.1181 0.15049 0.39436 0.0
H1413 H 0.2288 0.22999 0.37865 0.0
H1414 H 0.2829 0.27619 0.38193 0.0
H1415 H 0.28682 0.25005 0.43955 0.0
H1416 H 0.23315 0.20299 0.43632 0.0
H1417 H 0.18278 0.06158 0.35435 0.0
H1418 H 0.16384 0.09752 0.36452 0.0
H1419 H 0.19637 0.09726 0.42134 0.0
H1420 H 0.21477 0.06065 0.41117 0.0
H1421 H 0.22191 0.1571 0.40581 0.0
H1422 H 0.11948 0.06859 0.41537 0.0
H1423 H 0.07001 0.01817 0.40898 0.0
H1424 H 0.05104 0.06045 0.36105 0.0
H1425 H 0.10062 0.11097 0.36694 0.0
C1426 C 0.17021 0.25924 0.41343 0.0
C1427 C 0.15484 0.26349 0.39774 0.0
C1428 C 0.17487 0.23303 0.41435 0.0
C1429 C 0.16446 0.21068 0.39954 0.0
C1430 C 0.1495 0.21518 0.38379 0.0
C1431 C 0.14469 0.24118 0.38292 0.0
C1432 C 0.16775 0.18182 0.40052 0.0
C1433 C 0.14091 0.15203 0.3967 0.0
C1434 C 0.19698 0.18326 0.40454 0.0
C1435 C 0.22693 0.21349 0.40736 0.0
C1436 C 0.24102 0.2345 0.39211 0.0
C1437 C 0.27171 0.2606 0.39389 0.0
C1438 C 0.28824 0.26613 0.41096 0.0
C1439 C 0.27401 0.24572 0.42634 0.0
C1440 C 0.24354 0.21928 0.42452 0.0
C1441 C 0.18507 0.06861 0.3691 0.0
C1442 C 0.20017 0.05861 0.38202 0.0
C1443 C 0.17413 0.08894 0.37493 0.0
C1444 C 0.17851 0.09989 0.39372 0.0
C1445 C 0.19253 0.08887 0.40683 0.0
C1446 C 0.20302 0.06807 0.40105 0.0
C1447 C 0.1727 0.12622 0.3987 0.0
C1448 C 0.19896 0.15546 0.40381 0.0
C1449 C 0.14302 0.12425 0.39566 0.0
C1450 C 0.11388 0.09354 0.39156 0.0
C1451 C 0.10498 0.06703 0.40332 0.0
C1452 C 0.07686 0.03845 0.39982 0.0
C1453 C 0.05742 0.03615 0.38463 0.0
C1454 C 0.06613 0.0623 0.37282 0.0
C1455 C 0.09422 0.09092 0.37624 0.0
H1456 H 0.03551 0.01419 0.38206 0.0
H1457 H 0.31208 0.28628 0.41226 0.0
H1458 H 0.15978 0.24199 0.89479 0.0
H1459 H 0.10661 0.2272 0.90694 0.0
H1460 H 0.07173 0.13043 0.88894 0.0
H1461 H 0.12482 0.14513 0.877 0.0
H1462 H 0.04839 0.16909 0.86968 0.0
H1463 H 0.0642 0.13837 0.93217 0.0
H1464 H 0.09005 0.14669 0.96335 0.0
H1465 H 0.07093 0.22223 0.9754 0.0
H1466 H 0.04541 0.21469 0.94418 0.0
H1467 H 0.88503 0.11052 0.87784 0.0
H1468 H 0.93789 0.11658 0.87989 0.0
H1469 H 0.96563 0.19268 0.92039 0.0
H1470 H 0.91193 0.1842 0.91996 0.0
H1471 H 0.99394 0.16475 0.93002 0.0
H1472 H 0.98548 0.20389 0.86994 0.0
H1473 H 0.96356 0.20414 0.83849 0.0
H1474 H 0.97503 0.1257 0.82103 0.0
H1475 H 0.99656 0.12469 0.85248 0.0
C1476 C 0.14101 0.21733 0.89423 0.0
C1477 C 0.14607 0.19464 0.88496 0.0
C1478 C 0.11075 0.20888 0.90121 0.0
C1479 C 0.0853 0.17773 0.89881 0.0
C1480 C 0.09115 0.15451 0.89105 0.0
C1481 C 0.12138 0.16289 0.88422 0.0
C1482 C 0.05213 0.17124 0.90004 0.0
C1483 C 0.0362 0.16753 0.8829 0.0
C1484 C 0.03711 0.17114 0.91722 0.0
C1485 C 0.05322 0.17618 0.93575 0.0
C1486 C 0.0659 0.15704 0.94136 0.0
C1487 C 0.08039 0.16155 0.95907 0.0
C1488 C 0.08221 0.18503 0.97133 0.0
C1489 C 0.06956 0.20408 0.96589 0.0
C1490 C 0.05507 0.19969 0.94819 0.0
C1491 C 0.90232 0.12845 0.88726 0.0
C1492 C 0.89441 0.14768 0.89823 0.0
C1493 C 0.93274 0.13211 0.88831 0.0
C1494 C 0.95638 0.15592 0.89978 0.0
C1495 C 0.94814 0.17436 0.91124 0.0
C1496 C 0.91739 0.16988 0.91071 0.0
C1497 C 0.98972 0.16197 0.89955 0.0
C1498 C 1.00588 0.16601 0.91677 0.0
C1499 C 1.0057 0.16378 0.88237 0.0
C1500 C 0.99227 0.164 0.86359 0.0
C1501 C 0.98305 0.18652 0.85944 0.0
C1502 C 0.97074 0.18682 0.84161 0.0
C1503 C 0.96783 0.1649 0.82778 0.0
C1504 C 0.97723 0.14262 0.83176 0.0
C1505 C 0.98948 0.14217 0.84957 0.0
H1506 H 0.95835 0.16521 0.81397 0.0
H1507 H 0.09335 0.18842 0.98506 0.0
H1508 H 0.91833 0.15368 0.38464 0.0
H1509 H 0.87896 0.10142 0.39684 0.0
H1510 H 0.95231 0.07658 0.40279 0.0
H1511 H 0.99174 0.12906 0.3905 0.0
H1512 H 0.90633 0.03808 0.37865 0.0
H1513 H 0.90908 0.07541 0.44139 0.0
H1514 H 0.90818 0.11028 0.4665 0.0
H1515 H 0.81432 0.08786 0.44948 0.0
H1516 H 0.81484 0.05324 0.42408 0.0
H1517 H 0.78304 0.87782 0.39602 0.0
H1518 H 0.83146 0.9301 0.39954 0.0
H1519 H 0.77458 0.97554 0.39674 0.0
H1520 H 0.727 0.92371 0.39296 0.0
H1521 H 0.81703 1.0014 0.42432 0.0
H1522 H 0.81753 0.9747 0.35891 0.0
H1523 H 0.81707 0.94245 0.33176 0.0
H1524 H 0.90329 0.94812 0.35173 0.0
H1525 H 0.90397 0.98005 0.37914 0.0
C1526 C 0.9262 0.13756 0.38944 0.0
C1527 C 0.95788 0.14519 0.3868 0.0
C1528 C 0.90374 0.10772 0.39641 0.0
C1529 C 0.91269 0.08507 0.40072 0.0
C1530 C 0.94496 0.09377 0.39962 0.0
C1531 C 0.96747 0.12374 0.39274 0.0
C1532 C 0.88783 0.05115 0.40266 0.0
C1533 C 0.8873 0.02983 0.38904 0.0
C1534 C 0.86236 0.04072 0.41567 0.0
C1535 C 0.86209 0.06186 0.43076 0.0
C1536 C 0.88836 0.07814 0.44289 0.0
C1537 C 0.88789 0.09782 0.4572 0.0
C1538 C 0.86122 0.10131 0.45957 0.0
C1539 C 0.83496 0.08514 0.44763 0.0
C1540 C 0.83532 0.06545 0.43329 0.0
C1541 C 0.78111 0.8991 0.39614 0.0
C1542 C 0.75125 0.8969 0.39477 0.0
C1543 C 0.80864 0.92886 0.39819 0.0
C1544 C 0.80662 0.95676 0.39858 0.0
C1545 C 0.77673 0.95438 0.39688 0.0
C1546 C 0.74941 0.92474 0.3949 0.0
C1547 C 0.83548 0.98863 0.40017 0.0
C1548 C 0.83657 0.00951 0.41432 0.0
C1549 C 0.86125 0.99898 0.3874 0.0
C1550 C 0.86054 0.9793 0.37118 0.0
C1551 C 0.83618 0.96874 0.35761 0.0
C1552 C 0.83592 0.9506 0.34216 0.0
C1553 C 0.86006 0.94313 0.34006 0.0
C1554 C 0.88454 0.95383 0.3534 0.0
C1555 C 0.88488 0.97193 0.3689 0.0
H1556 H 0.85987 0.92914 0.32806 0.0
H1557 H 0.86089 0.11652 0.47068 0.0
H1558 H 0.91078 0.78302 0.90057 0.0
H1559 H 0.90256 0.82897 0.903 0.0
H1560 H 0.80237 0.76723 0.89183 0.0
H1561 H 0.81157 0.7228 0.88763 0.0
H1562 H 0.82136 0.81646 0.87244 0.0
H1563 H 0.83431 0.79838 0.93739 0.0
H1564 H 0.86123 0.79118 0.96491 0.0
H1565 H 0.94036 0.88571 0.95739 0.0
H1566 H 0.91413 0.89327 0.92959 0.0
H1567 H 0.76788 0.92084 0.88995 0.0
H1568 H 0.77767 0.87863 0.90084 0.0
H1569 H 0.87884 0.94278 0.89629 0.0
H1570 H 0.86899 0.98506 0.88549 0.0
H1571 H 0.85947 0.89333 0.92585 0.0
H1572 H 0.84643 0.90534 0.85773 0.0
H1573 H 0.81756 0.90998 0.83029 0.0
H1574 H 0.73377 0.82308 0.84636 0.0
H1575 H 0.76235 0.81775 0.87375 0.0
C1576 C 0.88713 0.77958 0.89859 0.0
C1577 C 0.86137 0.74925 0.89464 0.0
C1578 C 0.88234 0.80563 0.90021 0.0
C1579 C 0.85165 0.80147 0.8981 0.0
C1580 C 0.82618 0.7711 0.89381 0.0
C1581 C 0.83117 0.74545 0.89183 0.0
C1582 C 0.84597 0.82875 0.89923 0.0
C1583 C 0.82931 0.83283 0.88433 0.0
C1584 C 0.85673 0.85061 0.91453 0.0
C1585 C 0.87241 0.84628 0.93132 0.0
C1586 C 0.85756 0.81755 0.94153 0.0
C1587 C 0.87268 0.81341 0.95718 0.0
C1588 C 0.90252 0.83795 0.96287 0.0
C1589 C 0.91727 0.86671 0.95294 0.0
C1590 C 0.90228 0.87094 0.93724 0.0
C1591 C 0.79216 0.92632 0.8923 0.0
C1592 C 0.81773 0.95604 0.88709 0.0
C1593 C 0.79775 0.90223 0.8984 0.0
C1594 C 0.82897 0.90757 0.89913 0.0
C1595 C 0.85462 0.93829 0.8959 0.0
C1596 C 0.84901 0.9624 0.88979 0.0
C1597 C 0.83447 0.88026 0.89928 0.0
C1598 C 0.85131 0.8765 0.91419 0.0
C1599 C 0.82343 0.85815 0.8842 0.0
C1600 C 0.80636 0.86132 0.86779 0.0
C1601 C 0.82182 0.88732 0.85541 0.0
C1602 C 0.80554 0.89002 0.83987 0.0
C1603 C 0.77379 0.86698 0.83667 0.0
C1604 C 0.75833 0.84097 0.84889 0.0
C1605 C 0.77458 0.83801 0.86436 0.0
H1606 H 0.7612 0.86921 0.82467 0.0
H1607 H 0.9142 0.8347 0.975 0.0
H1608 H 0.15019 0.72633 0.15345 0.0
H1609 H 0.15667 0.67915 0.15353 0.0
H1610 H 0.12831 0.66187 0.09489 0.0
H1611 H 0.12356 0.70987 0.09447 0.0
H1612 H 0.09922 0.6058 0.12852 0.0
H1613 H 0.18789 0.68096 0.09031 0.0
H1614 H 0.23523 0.73222 0.08236 0.0
H1615 H 0.2811 0.72789 0.13332 0.0
H1616 H 0.23352 0.67687 0.14182 0.0
H1617 H 0.14732 0.49964 0.08969 0.0
H1618 H 0.13002 0.53766 0.098 0.0
H1619 H 0.20073 0.57603 0.14222 0.0
H1620 H 0.21818 0.53812 0.1337 0.0
H1621 H 0.20727 0.62124 0.11869 0.0
H1622 H 0.11891 0.53733 0.15204 0.0
H1623 H 0.07145 0.48443 0.15653 0.0
H1624 H 0.02397 0.50303 0.1113 0.0
H1625 H 0.07131 0.55585 0.10636 0.0
C1626 C 0.14519 0.71227 0.14065 0.0
C1627 C 0.13654 0.72164 0.12393 0.0
C1628 C 0.14891 0.68546 0.1407 0.0
C1629 C 0.14308 0.66719 0.12419 0.0
C1630 C 0.13308 0.67579 0.10773 0.0
C1631 C 0.13042 0.70315 0.1075 0.0
C1632 C 0.14859 0.63981 0.12388 0.0
C1633 C 0.12277 0.609 0.12631 0.0
C1634 C 0.1793 0.64412 0.1212 0.0
C1635 C 0.20694 0.67562 0.11691 0.0
C1636 C 0.20772 0.69137 0.10006 0.0
C1637 C 0.23463 0.72024 0.0954 0.0
C1638 C 0.26102 0.73328 0.10736 0.0
C1639 C 0.26051 0.71777 0.12413 0.0
C1640 C 0.23356 0.68893 0.1289 0.0
C1641 C 0.15819 0.51535 0.10169 0.0
C1642 C 0.18364 0.51568 0.11131 0.0
C1643 C 0.14837 0.53713 0.10642 0.0
C1644 C 0.16392 0.55968 0.12084 0.0
C1645 C 0.18824 0.55879 0.13113 0.0
C1646 C 0.19803 0.53698 0.12639 0.0
C1647 C 0.15786 0.58668 0.12338 0.0
C1648 C 0.18367 0.61769 0.12129 0.0
C1649 C 0.12696 0.58233 0.126 0.0
C1650 C 0.09874 0.55041 0.12874 0.0
C1651 C 0.09846 0.53 0.14293 0.0
C1652 C 0.07155 0.50006 0.14558 0.0
C1653 C 0.04473 0.49034 0.13418 0.0
C1654 C 0.04476 0.51056 0.12011 0.0
C1655 C 0.07161 0.5405 0.11739 0.0
H1656 H 0.0239 0.46717 0.13628 0.0
H1657 H 0.28197 0.75514 0.10343 0.0
H1658 H 0.65144 0.15401 0.58881 0.0
H1659 H 0.59642 0.13843 0.59685 0.0
H1660 H 0.62927 0.19952 0.6459 0.0
H1661 H 0.68459 0.21513 0.63783 0.0
H1662 H 0.56606 0.13827 0.65001 0.0
H1663 H 0.62139 0.23223 0.61114 0.0
H1664 H 0.65565 0.26215 0.58415 0.0
H1665 H 0.5873 0.19396 0.54543 0.0
H1666 H 0.55293 0.1633 0.57226 0.0
H1667 H 0.42456 0.15049 0.6543 0.0
H1668 H 0.47934 0.16048 0.65518 0.0
H1669 H 0.47138 0.1317 0.59656 0.0
H1670 H 0.41782 0.12424 0.5954 0.0
H1671 H 0.52469 0.17999 0.60018 0.0
H1672 H 0.46982 0.08445 0.63845 0.0
H1673 H 0.43525 0.05361 0.66513 0.0
H1674 H 0.50098 0.1228 0.70445 0.0
H1675 H 0.53583 0.15418 0.67796 0.0
C1676 C 0.64677 0.16308 0.60173 0.0
C1677 C 0.6721 0.18546 0.61283 0.0
C1678 C 0.61539 0.1543 0.60627 0.0
C1679 C 0.60875 0.16795 0.62192 0.0
C1680 C 0.63383 0.18849 0.63387 0.0
C1681 C 0.66537 0.19733 0.62929 0.0
C1682 C 0.57661 0.16443 0.62389 0.0
C1683 C 0.55704 0.14761 0.63925 0.0
C1684 C 0.56473 0.17643 0.60982 0.0
C1685 C 0.58476 0.19539 0.59368 0.0
C1686 C 0.61377 0.22355 0.59687 0.0
C1687 C 0.6332 0.24063 0.58161 0.0
C1688 C 0.62368 0.22994 0.56309 0.0
C1689 C 0.59465 0.2022 0.55979 0.0
C1690 C 0.57518 0.18498 0.57501 0.0
C1691 C 0.43455 0.146 0.64173 0.0
C1692 C 0.41708 0.13649 0.62482 0.0
C1693 C 0.46583 0.15157 0.64222 0.0
C1694 C 0.47968 0.14643 0.626 0.0
C1695 C 0.4616 0.13606 0.60927 0.0
C1696 C 0.43086 0.13156 0.60862 0.0
C1697 C 0.51319 0.15269 0.62601 0.0
C1698 C 0.53336 0.17042 0.61101 0.0
C1699 C 0.52538 0.14127 0.64036 0.0
C1700 C 0.50529 0.12168 0.65627 0.0
C1701 C 0.47688 0.09303 0.6528 0.0
C1702 C 0.45721 0.07551 0.66787 0.0
C1703 C 0.46585 0.08628 0.68647 0.0
C1704 C 0.49431 0.11449 0.69004 0.0
C1705 C 0.51407 0.13211 0.67501 0.0
H1706 H 0.45051 0.07274 0.69811 0.0
H1707 H 0.63879 0.24316 0.55129 0.0
H1708 H 0.51394 0.64953 0.09646 0.0
H1709 H 0.47439 0.59459 0.10481 0.0
H1710 H 0.42325 0.62869 0.13833 0.0
H1711 H 0.46277 0.6837 0.12982 0.0
H1712 H 0.42147 0.5719 0.15368 0.0
H1713 H 0.40022 0.61143 0.09675 0.0
H1714 H 0.4144 0.63826 0.06571 0.0
H1715 H 0.43203 0.56597 0.04375 0.0
H1716 H 0.41863 0.53911 0.07484 0.0
H1717 H 0.26854 0.43052 0.14804 0.0
H1718 H 0.31342 0.48531 0.14812 0.0
H1719 H 0.35941 0.4605 0.10429 0.0
H1720 H 0.31356 0.40631 0.10354 0.0
H1721 H 0.36384 0.51388 0.09567 0.0
H1722 H 0.3828 0.4731 0.15361 0.0
H1723 H 0.36531 0.44612 0.18452 0.0
H1724 H 0.34912 0.52034 0.20466 0.0
H1725 H 0.36595 0.54743 0.17373 0.0
C1726 C 0.49502 0.6453 0.10627 0.0
C1727 C 0.49161 0.67075 0.11277 0.0
C1728 C 0.47232 0.61394 0.11093 0.0
C1729 C 0.44574 0.6075 0.12212 0.0
C1730 C 0.44365 0.63307 0.12982 0.0
C1731 C 0.46626 0.66447 0.12502 0.0
C1732 C 0.41821 0.57446 0.1234 0.0
C1733 C 0.40875 0.55922 0.14103 0.0
C1734 C 0.40148 0.55788 0.10694 0.0
C1735 C 0.40879 0.57349 0.08814 0.0
C1736 C 0.40736 0.60141 0.08534 0.0
C1737 C 0.41525 0.61661 0.06774 0.0
C1738 C 0.42419 0.60388 0.05278 0.0
C1739 C 0.42516 0.57585 0.05537 0.0
C1740 C 0.41744 0.56063 0.07297 0.0
C1741 C 0.28862 0.43679 0.13875 0.0
C1742 C 0.28814 0.41433 0.12605 0.0
C1743 C 0.31427 0.46807 0.13876 0.0
C1744 C 0.34028 0.47714 0.12643 0.0
C1745 C 0.33981 0.45425 0.11398 0.0
C1746 C 0.31383 0.42324 0.11366 0.0
C1747 C 0.36746 0.51061 0.12592 0.0
C1748 C 0.3767 0.52621 0.10836 0.0
C1749 C 0.38377 0.52745 0.14248 0.0
C1750 C 0.37553 0.51222 0.16138 0.0
C1751 C 0.37556 0.48367 0.16466 0.0
C1752 C 0.36568 0.46832 0.18215 0.0
C1753 C 0.35611 0.48151 0.19655 0.0
C1754 C 0.35657 0.51017 0.19351 0.0
C1755 C 0.3663 0.52555 0.17601 0.0
H1756 H 0.34836 0.46954 0.21007 0.0
H1757 H 0.43029 0.61568 0.03916 0.0
H1758 H 0.87717 0.52027 0.60851 0.0
H1759 H 0.88901 0.47844 0.6173 0.0
H1760 H 0.78935 0.41411 0.62798 0.0
H1761 H 0.77754 0.45597 0.61905 0.0
H1762 H 0.82911 0.40343 0.6527 0.0
H1763 H 0.81506 0.41288 0.58685 0.0
H1764 H 0.82406 0.44085 0.55639 0.0
H1765 H 0.92218 0.46524 0.55719 0.0
H1766 H 0.9139 0.43803 0.58795 0.0
H1767 H 0.82471 0.25663 0.63286 0.0
H1768 H 0.81554 0.30184 0.6334 0.0
H1769 H 0.91422 0.36495 0.61923 0.0
H1770 H 0.92289 0.31931 0.61803 0.0
H1771 H 0.87497 0.3765 0.59761 0.0
H1772 H 0.88555 0.36209 0.66409 0.0
H1773 H 0.87213 0.32977 0.69316 0.0
H1774 H 0.77555 0.30989 0.68971 0.0
H1775 H 0.78827 0.34161 0.6604 0.0
C1776 C 0.85805 0.4977 0.61362 0.0
C1777 C 0.82654 0.49154 0.61349 0.0
C1778 C 0.86475 0.47366 0.61844 0.0
C1779 C 0.84004 0.44296 0.62314 0.0
C1780 C 0.80884 0.43758 0.62452 0.0
C1781 C 0.80212 0.46157 0.61954 0.0
C1782 C 0.84615 0.41573 0.62405 0.0
C1783 C 0.83901 0.39747 0.64064 0.0
C1784 C 0.85894 0.40769 0.60832 0.0
C1785 C 0.86398 0.42384 0.5898 0.0
C1786 C 0.83864 0.42451 0.58063 0.0
C1787 C 0.84359 0.44019 0.5633 0.0
C1788 C 0.8737 0.45491 0.55488 0.0
C1789 C 0.8989 0.45391 0.56376 0.0
C1790 C 0.8941 0.4384 0.58115 0.0
C1791 C 0.84441 0.28016 0.62998 0.0
C1792 C 0.87461 0.28461 0.62565 0.0
C1793 C 0.83924 0.30606 0.63039 0.0
C1794 C 0.86427 0.337 0.62658 0.0
C1795 C 0.89455 0.3414 0.62234 0.0
C1796 C 0.89964 0.31543 0.62188 0.0
C1797 C 0.85866 0.36458 0.62641 0.0
C1798 C 0.86555 0.38273 0.60981 0.0
C1799 C 0.84519 0.37209 0.64203 0.0
C1800 C 0.83782 0.35407 0.66002 0.0
C1801 C 0.86143 0.35075 0.66951 0.0
C1802 C 0.85394 0.3325 0.68601 0.0
C1803 C 0.823 0.31775 0.69327 0.0
C1804 C 0.79951 0.32132 0.68407 0.0
C1805 C 0.80685 0.33945 0.66752 0.0
H1806 H 0.81723 0.30358 0.70603 0.0
H1807 H 0.87749 0.46701 0.54145 0.0
H1808 H 0.57005 0.82195 0.11829 0.0
H1809 H 0.51612 0.81288 0.12044 0.0
H1810 H 0.55337 0.91082 0.1371 0.0
H1811 H 0.60734 0.91884 0.13657 0.0
H1812 H 0.50192 0.87857 0.15468 0.0
H1813 H 0.52751 0.87748 0.08856 0.0
H1814 H 0.54445 0.85893 0.06068 0.0
H1815 H 0.46528 0.7645 0.06847 0.0
H1816 H 0.44839 0.7823 0.09664 0.0
H1817 H 0.3641 0.88118 0.1109 0.0
H1818 H 0.41724 0.89171 0.12052 0.0
H1819 H 0.37912 0.79166 0.13078 0.0
H1820 H 0.32626 0.78132 0.12185 0.0
H1821 H 0.4301 0.82551 0.10025 0.0
H1822 H 0.40452 0.8262 0.16568 0.0
H1823 H 0.38816 0.84327 0.19439 0.0
H1824 H 0.46689 0.9382 0.18749 0.0
H1825 H 0.48337 0.92178 0.15852 0.0
C1826 C 0.5667 0.84143 0.12261 0.0
C1827 C 0.59297 0.87122 0.12707 0.0
C1828 C 0.53578 0.83636 0.12364 0.0
C1829 C 0.5304 0.86146 0.1282 0.0
C1830 C 0.55667 0.89104 0.13333 0.0
C1831 C 0.58763 0.89573 0.133 0.0
C1832 C 0.49759 0.85697 0.12734 0.0
C1833 C 0.48652 0.86746 0.14259 0.0
C1834 C 0.47681 0.84172 0.11183 0.0
C1835 C 0.48684 0.83118 0.09476 0.0
C1836 C 0.51385 0.85273 0.08437 0.0
C1837 C 0.52348 0.84232 0.06855 0.0
C1838 C 0.50605 0.81052 0.06285 0.0
C1839 C 0.47888 0.78908 0.07294 0.0
C1840 C 0.46928 0.79931 0.08883 0.0
C1841 C 0.36681 0.86175 0.1162 0.0
C1842 C 0.34089 0.83047 0.11587 0.0
C1843 C 0.3972 0.86772 0.12152 0.0
C1844 C 0.4021 0.84243 0.12633 0.0
C1845 C 0.37584 0.81153 0.12722 0.0
C1846 C 0.34552 0.80566 0.12219 0.0
C1847 C 0.43482 0.84729 0.12748 0.0
C1848 C 0.44577 0.83689 0.11222 0.0
C1849 C 0.45542 0.86269 0.14287 0.0
C1850 C 0.44481 0.87291 0.15976 0.0
C1851 C 0.41799 0.85085 0.17009 0.0
C1852 C 0.40879 0.86036 0.18646 0.0
C1853 C 0.42638 0.89184 0.19271 0.0
C1854 C 0.4532 0.91386 0.18259 0.0
C1855 C 0.46247 0.90447 0.16619 0.0
H1856 H 0.4193 0.89913 0.20545 0.0
H1857 H 0.51355 0.8025 0.05061 0.0
H1858 H 0.75844 0.56971 0.63076 0.0
H1859 H 0.71398 0.51485 0.6322 0.0
H1860 H 0.64815 0.54853 0.62197 0.0
H1861 H 0.69266 0.60324 0.62123 0.0
H1862 H 0.62216 0.50414 0.64575 0.0
H1863 H 0.67318 0.51165 0.58639 0.0
H1864 H 0.7135 0.5185 0.56266 0.0
H1865 H 0.72767 0.44852 0.59116 0.0
H1866 H 0.68759 0.44142 0.61516 0.0
H1867 H 0.49607 0.35753 0.60566 0.0
H1868 H 0.53672 0.41147 0.61528 0.0
H1869 H 0.59762 0.37549 0.63333 0.0
H1870 H 0.55731 0.32193 0.62343 0.0
H1871 H 0.62587 0.42037 0.60758 0.0
H1872 H 0.56786 0.40941 0.6648 0.0
H1873 H 0.52191 0.39946 0.68463 0.0
H1874 H 0.5175 0.47592 0.65704 0.0
H1875 H 0.56309 0.48598 0.63683 0.0
C1876 C 0.73437 0.56524 0.62908 0.0
C1877 C 0.72872 0.59056 0.62625 0.0
C1878 C 0.70897 0.53389 0.6297 0.0
C1879 C 0.67751 0.52725 0.62692 0.0
C1880 C 0.67203 0.55282 0.62428 0.0
C1881 C 0.69742 0.58417 0.62397 0.0
C1882 C 0.65037 0.4938 0.62656 0.0
C1883 C 0.6229 0.48592 0.63722 0.0
C1884 C 0.65127 0.46962 0.6158 0.0
C1885 C 0.67758 0.47617 0.6026 0.0
C1886 C 0.68529 0.49813 0.58777 0.0
C1887 C 0.70795 0.50192 0.57423 0.0
C1888 C 0.72284 0.48372 0.57532 0.0
C1889 C 0.71591 0.46241 0.59028 0.0
C1890 C 0.69326 0.45851 0.60385 0.0
C1891 C 0.5176 0.36105 0.61245 0.0
C1892 C 0.52353 0.33565 0.61403 0.0
C1893 C 0.54087 0.39187 0.6179 0.0
C1894 C 0.57034 0.39763 0.62503 0.0
C1895 C 0.57514 0.37171 0.62788 0.0
C1896 C 0.55203 0.34107 0.62237 0.0
C1897 C 0.59776 0.43068 0.62679 0.0
C1898 C 0.62528 0.4385 0.61629 0.0
C1899 C 0.59657 0.45479 0.6374 0.0
C1900 C 0.56865 0.4482 0.64917 0.0
C1901 C 0.55683 0.42383 0.6628 0.0
C1902 C 0.53091 0.41824 0.67414 0.0
C1903 C 0.51673 0.43699 0.67206 0.0
C1904 C 0.52844 0.46137 0.65862 0.0
C1905 C 0.55432 0.46702 0.64722 0.0
H1906 H 0.49672 0.43267 0.68091 0.0
H1907 H 0.73942 0.48583 0.56442 0.0
H1908 H 0.25804 0.82604 0.38041 0.0
H1909 H 0.3023 0.81551 0.37901 0.0
H1910 H 0.3677 0.91358 0.39337 0.0
H1911 H 0.32328 0.92424 0.39397 0.0
H1912 H 0.39508 0.89446 0.36915 0.0
H1913 H 0.3358 0.84921 0.42689 0.0
H1914 H 0.28751 0.81487 0.44555 0.0
H1915 H 0.27702 0.7324 0.41652 0.0
H1916 H 0.32501 0.7663 0.39751 0.0
H1917 H 0.51851 0.87028 0.4087 0.0
H1918 H 0.47832 0.88448 0.39972 0.0
H1919 H 0.41358 0.78668 0.38463 0.0
H1920 H 0.45343 0.77257 0.39396 0.0
H1921 H 0.38576 0.80547 0.40826 0.0
H1922 H 0.44494 0.84882 0.3514 0.0
H1923 H 0.49078 0.88208 0.33076 0.0
H1924 H 0.50028 0.9665 0.35664 0.0
H1925 H 0.45481 0.93371 0.37765 0.0
C1926 C 0.282 0.84544 0.38284 0.0
C1927 C 0.28746 0.876 0.38708 0.0
C1928 C 0.30727 0.83936 0.38227 0.0
C1929 C 0.33841 0.86352 0.38657 0.0
C1930 C 0.34397 0.89446 0.39007 0.0
C1931 C 0.31867 0.90064 0.39032 0.0
C1932 C 0.36492 0.85635 0.38802 0.0
C1933 C 0.39321 0.87527 0.37792 0.0
C1934 C 0.36232 0.83072 0.39901 0.0
C1935 C 0.33379 0.81032 0.41066 0.0
C1936 C 0.32309 0.82377 0.42443 0.0
C1937 C 0.29578 0.80438 0.43507 0.0
C1938 C 0.27915 0.77149 0.43218 0.0
C1939 C 0.28989 0.75788 0.41872 0.0
C1940 C 0.31715 0.77716 0.40802 0.0
C1941 C 0.49614 0.85216 0.40276 0.0
C1942 C 0.48915 0.82039 0.40182 0.0
C1943 C 0.47307 0.86022 0.39769 0.0
C1944 C 0.44269 0.83665 0.39153 0.0
C1945 C 0.43666 0.80532 0.38942 0.0
C1946 C 0.45956 0.79729 0.39456 0.0
C1947 C 0.41609 0.84359 0.38936 0.0
C1948 C 0.38774 0.82467 0.39944 0.0
C1949 C 0.41865 0.86911 0.37831 0.0
C1950 C 0.44677 0.8888 0.36627 0.0
C1951 C 0.45711 0.87446 0.35288 0.0
C1952 C 0.48295 0.89324 0.34107 0.0
C1953 C 0.49851 0.92638 0.34243 0.0
C1954 C 0.48828 0.94083 0.35563 0.0
C1955 C 0.46248 0.92216 0.3675 0.0
H1956 H 0.51844 0.94088 0.33321 0.0
H1957 H 0.25797 0.75653 0.44039 0.0
H1958 H 0.68004 0.44404 0.91441 0.0
H1959 H 0.62691 0.40425 0.90466 0.0
H1960 H 0.60959 0.47823 0.88478 0.0
H1961 H 0.66282 0.51867 0.89587 0.0
H1962 H 0.5608 0.43908 0.90371 0.0
H1963 H 0.616 0.42045 0.85394 0.0
H1964 H 0.65646 0.41102 0.83894 0.0
H1965 H 0.62297 0.32506 0.87113 0.0
H1966 H 0.58257 0.33418 0.88649 0.0
H1967 H 0.41113 0.30713 0.86544 0.0
H1968 H 0.46611 0.35203 0.86434 0.0
H1969 H 0.49084 0.31229 0.9114 0.0
H1970 H 0.43594 0.26875 0.91338 0.0
H1971 H 0.53404 0.33647 0.8733 0.0
H1972 H 0.48665 0.36257 0.92685 0.0
H1973 H 0.44293 0.36885 0.93988 0.0
H1974 H 0.46058 0.43971 0.89783 0.0
H1975 H 0.50403 0.43329 0.88432 0.0
C1976 C 0.66521 0.45194 0.90762 0.0
C1977 C 0.67573 0.48462 0.90602 0.0
C1978 C 0.63469 0.42899 0.90185 0.0
C1979 C 0.6139 0.43785 0.89367 0.0
C1980 C 0.62499 0.47056 0.89102 0.0
C1981 C 0.65563 0.49374 0.89712 0.0
C1982 C 0.58004 0.41293 0.88953 0.0
C1983 C 0.5552 0.41705 0.89663 0.0
C1984 C 0.57203 0.38362 0.88055 0.0
C1985 C 0.59638 0.37811 0.87142 0.0
C1986 C 0.61741 0.39965 0.8579 0.0
C1987 C 0.64031 0.39434 0.84933 0.0
C1988 C 0.64232 0.36748 0.8541 0.0
C1989 C 0.62139 0.34585 0.86744 0.0
C1990 C 0.59845 0.35105 0.87606 0.0
C1991 C 0.42825 0.30798 0.87556 0.0
C1992 C 0.41904 0.28418 0.88947 0.0
C1993 C 0.45967 0.33358 0.87487 0.0
C1994 C 0.48257 0.33536 0.88773 0.0
C1995 C 0.47361 0.31127 0.90127 0.0
C1996 C 0.44214 0.28631 0.90234 0.0
C1997 C 0.51566 0.36282 0.88769 0.0
C1998 C 0.54006 0.35895 0.87994 0.0
C1999 C 0.52328 0.39231 0.89591 0.0
C2000 C 0.49827 0.39723 0.90448 0.0
C2001 C 0.48104 0.37933 0.92032 0.0
C2002 C 0.45634 0.38291 0.92779 0.0
C2003 C 0.44892 0.4046 0.91965 0.0
C2004 C 0.46632 0.42288 0.9041 0.0
C2005 C 0.49098 0.41929 0.89653 0.0
H2006 H 0.42972 0.40728 0.92542 0.0
H2007 H 0.66006 0.36341 0.84744 0.0
H2008 H 0.16105 0.66772 0.37802 0.0
H2009 H 0.15939 0.61831 0.36794 0.0
H2010 H 0.18777 0.60764 0.42415 0.0
H2011 H 0.19014 0.65692 0.43389 0.0
H2012 H 0.21492 0.58937 0.40059 0.0
H2013 H 0.10854 0.56979 0.40863 0.0
H2014 H 0.06169 0.5756 0.40268 0.0
H2015 H 0.05924 0.54703 0.3448 0.0
H2016 H 0.10648 0.54161 0.35035 0.0
H2017 H 0.15118 0.42815 0.41868 0.0
H2018 H 0.16111 0.48219 0.41709 0.0
H2019 H 0.13786 0.47037 0.35758 0.0
H2020 H 0.12667 0.41501 0.35922 0.0
H2021 H 0.1126 0.50209 0.37588 0.0
H2022 H 0.21817 0.51392 0.37356 0.0
H2023 H 0.25941 0.50301 0.38533 0.0
H2024 H 0.25722 0.54181 0.43968 0.0
H2025 H 0.21598 0.55308 0.42817 0.0
C2026 C 0.16778 0.65517 0.38796 0.0
C2027 C 0.17571 0.66599 0.40671 0.0
C2028 C 0.16646 0.62678 0.3823 0.0
C2029 C 0.17291 0.60883 0.39537 0.0
C2030 C 0.18263 0.62085 0.41376 0.0
C2031 C 0.18399 0.64904 0.41935 0.0
C2032 C 0.16821 0.57682 0.39058 0.0
C2033 C 0.19253 0.57038 0.39512 0.0
C2034 C 0.13917 0.55187 0.38327 0.0
C2035 C 0.11134 0.55587 0.3798 0.0
C2036 C 0.09826 0.56516 0.39457 0.0
C2037 C 0.07159 0.5683 0.39129 0.0
C2038 C 0.05758 0.56183 0.37335 0.0
C2039 C 0.0702 0.55218 0.35866 0.0
C2040 C 0.09694 0.54912 0.36186 0.0
C2041 C 0.14812 0.43685 0.40518 0.0
C2042 C 0.13842 0.4173 0.389 0.0
C2043 C 0.15407 0.468 0.40428 0.0
C2044 C 0.15125 0.48082 0.38709 0.0
C2045 C 0.14065 0.46114 0.37095 0.0
C2046 C 0.13425 0.42955 0.37189 0.0
C2047 C 0.15898 0.51462 0.3864 0.0
C2048 C 0.13528 0.52136 0.3808 0.0
C2049 C 0.18815 0.53967 0.39343 0.0
C2050 C 0.21395 0.53421 0.40001 0.0
C2051 C 0.22653 0.52014 0.38801 0.0
C2052 C 0.24988 0.51385 0.39467 0.0
C2053 C 0.26074 0.52144 0.41333 0.0
C2054 C 0.24871 0.53586 0.42526 0.0
C2055 C 0.22547 0.54235 0.41864 0.0
H2056 H 0.27839 0.51612 0.41864 0.0
H2057 H 0.03687 0.56418 0.37085 0.0
H2058 H 0.74656 0.17518 0.91108 0.0
H2059 H 0.70349 0.18663 0.90986 0.0
H2060 H 0.6575 0.11528 0.86643 0.0
H2061 H 0.70283 0.10611 0.86627 0.0
H2062 H 0.64703 0.16069 0.85918 0.0
H2063 H 0.63601 0.10321 0.9163 0.0
H2064 H 0.65311 0.09142 0.94663 0.0
H2065 H 0.67114 0.18119 0.96907 0.0
H2066 H 0.65462 0.19372 0.93878 0.0
H2067 H 0.49131 0.13701 0.88367 0.0
H2068 H 0.53902 0.13411 0.87565 0.0
H2069 H 0.59611 0.21802 0.90926 0.0
H2070 H 0.54837 0.22095 0.91716 0.0
H2071 H 0.59966 0.16525 0.92061 0.0
H2072 H 0.60809 0.2207 0.86274 0.0
H2073 H 0.58997 0.23047 0.83219 0.0
H2074 H 0.57342 0.14031 0.81135 0.0
H2075 H 0.59095 0.12977 0.8419 0.0
C2076 C 0.72767 0.16227 0.901 0.0
C2077 C 0.72822 0.13966 0.88881 0.0
C2078 C 0.70263 0.1685 0.90052 0.0
C2079 C 0.67648 0.15109 0.88854 0.0
C2080 C 0.6772 0.1289 0.87597 0.0
C2081 C 0.70304 0.12349 0.87595 0.0
C2082 C 0.64848 0.15598 0.88945 0.0
C2083 C 0.63638 0.16117 0.87261 0.0
C2084 C 0.63468 0.15715 0.90696 0.0
C2085 C 0.64427 0.14947 0.92525 0.0
C2086 C 0.64376 0.12048 0.92768 0.0
C2087 C 0.65336 0.11368 0.94486 0.0
C2088 C 0.66324 0.13556 0.95975 0.0
C2089 C 0.66349 0.16427 0.95752 0.0
C2090 C 0.65399 0.17122 0.94036 0.0
C2091 C 0.51431 0.15559 0.8886 0.0
C2092 C 0.51642 0.17953 0.90071 0.0
C2093 C 0.54151 0.15385 0.88411 0.0
C2094 C 0.57115 0.17585 0.89186 0.0
C2095 C 0.57351 0.20087 0.90308 0.0
C2096 C 0.54635 0.20274 0.90744 0.0
C2097 C 0.59858 0.17033 0.8904 0.0
C2098 C 0.61037 0.16477 0.90719 0.0
C2099 C 0.61159 0.16825 0.87287 0.0
C2100 C 0.6005 0.17431 0.85466 0.0
C2101 C 0.60022 0.20279 0.85172 0.0
C2102 C 0.59014 0.20851 0.83439 0.0
C2103 C 0.58047 0.18599 0.81985 0.0
C2104 C 0.58086 0.15771 0.82262 0.0
C2105 C 0.59087 0.15186 0.83994 0.0
H2106 H 0.57274 0.1905 0.80642 0.0
H2107 H 0.67067 0.13025 0.97304 0.0
H2108 H 0.33224 0.54708 0.41005 0.0
H2109 H 0.38318 0.59329 0.40123 0.0
H2110 H 0.41816 0.53095 0.38426 0.0
H2111 H 0.36723 0.48474 0.39344 0.0
H2112 H 0.45765 0.57276 0.408 0.0
H2113 H 0.40565 0.57997 0.35211 0.0
H2114 H 0.36538 0.58397 0.33296 0.0
H2115 H 0.38751 0.67103 0.36121 0.0
H2116 H 0.42757 0.6673 0.38073 0.0
H2117 H 0.60684 0.7001 0.37151 0.0
H2118 H 0.55264 0.65395 0.37077 0.0
H2119 H 0.51997 0.70382 0.40655 0.0
H2120 H 0.57409 0.74904 0.40823 0.0
H2121 H 0.48036 0.66875 0.3711 0.0
H2122 H 0.52562 0.65827 0.42934 0.0
H2123 H 0.56727 0.65705 0.44859 0.0
H2124 H 0.55732 0.57755 0.41628 0.0
H2125 H 0.51594 0.57875 0.39658 0.0
C2126 C 0.3503 0.54321 0.40369 0.0
C2127 C 0.34556 0.51229 0.40204 0.0
C2128 C 0.37958 0.56971 0.3987 0.0
C2129 C 0.4047 0.56579 0.39196 0.0
C2130 C 0.39926 0.53472 0.38938 0.0
C2131 C 0.37005 0.50828 0.39443 0.0
C2132 C 0.43749 0.59373 0.38976 0.0
C2133 C 0.46252 0.59337 0.39956 0.0
C2134 C 0.44407 0.62135 0.37935 0.0
C2135 C 0.41936 0.62315 0.36802 0.0
C2136 C 0.40165 0.59976 0.3544 0.0
C2137 C 0.37893 0.60203 0.34344 0.0
C2138 C 0.37383 0.62769 0.3459 0.0
C2139 C 0.39143 0.65114 0.35934 0.0
C2140 C 0.41415 0.64896 0.37035 0.0
C2141 C 0.58814 0.7012 0.37921 0.0
C2142 C 0.59487 0.72815 0.39006 0.0
C2143 C 0.55718 0.6749 0.37871 0.0
C2144 C 0.53233 0.67557 0.38856 0.0
C2145 C 0.53877 0.70289 0.39879 0.0
C2146 C 0.56978 0.72868 0.39977 0.0
C2147 C 0.49992 0.64721 0.38909 0.0
C2148 C 0.47519 0.64773 0.37921 0.0
C2149 C 0.49342 0.61983 0.39953 0.0
C2150 C 0.51813 0.61893 0.41131 0.0
C2151 C 0.53263 0.64081 0.42618 0.0
C2152 C 0.55612 0.64007 0.43721 0.0
C2153 C 0.56507 0.61734 0.43361 0.0
C2154 C 0.55045 0.59523 0.41901 0.0
C2155 C 0.52699 0.59593 0.40791 0.0
H2156 H 0.58325 0.61678 0.44217 0.0
H2157 H 0.35629 0.62945 0.33736 0.0
H2158 H 0.90363 0.59898 0.86741 0.0
H2159 H 0.89456 0.54471 0.86719 0.0
H2160 H 0.82466 0.51901 0.91165 0.0
H2161 H 0.8352 0.57345 0.91273 0.0
H2162 H 0.85822 0.49465 0.91986 0.0
H2163 H 0.80569 0.49615 0.86296 0.0
H2164 H 0.80217 0.51799 0.83213 0.0
H2165 H 0.87617 0.50318 0.80989 0.0
H2166 H 0.88045 0.48168 0.84072 0.0
H2167 H 0.79105 0.32987 0.91716 0.0
H2168 H 0.7933 0.37997 0.90868 0.0
H2169 H 0.88013 0.40911 0.87755 0.0
H2170 H 0.87786 0.35898 0.88608 0.0
H2171 H 0.83769 0.43061 0.86127 0.0
H2172 H 0.88927 0.43021 0.92024 0.0
H2173 H 0.88929 0.40699 0.95129 0.0
H2174 H 0.8112 0.41844 0.96965 0.0
H2175 H 0.8104 0.44123 0.93855 0.0
C2176 C 0.88645 0.58181 0.87715 0.0
C2177 C 0.87044 0.59075 0.89019 0.0
C2178 C 0.881 0.55059 0.87691 0.0
C2179 C 0.85862 0.52741 0.88929 0.0
C2180 C 0.84218 0.53629 0.90203 0.0
C2181 C 0.84817 0.56754 0.90256 0.0
C2182 C 0.85276 0.49413 0.88951 0.0
C2183 C 0.85331 0.48068 0.90701 0.0
C2184 C 0.84677 0.47567 0.87283 0.0
C2185 C 0.84353 0.48753 0.85414 0.0
C2186 C 0.82126 0.49763 0.85149 0.0
C2187 C 0.81915 0.50997 0.83404 0.0
C2188 C 0.83897 0.51202 0.81907 0.0
C2189 C 0.86084 0.50159 0.82151 0.0
C2190 C 0.8631 0.48929 0.83896 0.0
C2191 C 0.8098 0.34641 0.90783 0.0
C2192 C 0.83406 0.34054 0.90203 0.0
C2193 C 0.81119 0.37506 0.90307 0.0
C2194 C 0.83699 0.39835 0.89256 0.0
C2195 C 0.8599 0.3914 0.88552 0.0
C2196 C 0.85857 0.36279 0.89036 0.0
C2197 C 0.84271 0.43141 0.89158 0.0
C2198 C 0.84241 0.44476 0.87402 0.0
C2199 C 0.84838 0.44973 0.90822 0.0
C2200 C 0.84963 0.43717 0.92709 0.0
C2201 C 0.87204 0.42765 0.93089 0.0
C2202 C 0.87218 0.41456 0.94848 0.0
C2203 C 0.85022 0.41119 0.96243 0.0
C2204 C 0.82817 0.42104 0.95883 0.0
C2205 C 0.82788 0.43406 0.94124 0.0
H2206 H 0.85033 0.401 0.97603 0.0
H2207 H 0.83735 0.52165 0.80557 0.0
H2208 H 0.14477 0.29806 0.33301 0.0
H2209 H 0.15181 0.30289 0.29908 0.0
H2210 H 0.2102 0.40481 0.30445 0.0
H2211 H 0.20025 0.40019 0.33883 0.0
H2212 H 0.17695 0.39527 0.27547 0.0
H2213 H 0.23865 0.34711 0.2931 0.0
H2214 H 0.24937 0.30795 0.3086 0.0
H2215 H 0.17392 0.23254 0.2768 0.0
H2216 H 0.16248 0.27118 0.2613 0.0
H2217 H 0.22304 0.40052 0.17634 0.0
H2218 H 0.22214 0.4056 0.21106 0.0
H2219 H 0.14993 0.30661 0.21507 0.0
H2220 H 0.15078 0.30153 0.18075 0.0
H2221 H 0.197 0.31967 0.23907 0.0
H2222 H 0.13396 0.36768 0.22289 0.0
H2223 H 0.12353 0.40684 0.20715 0.0
H2224 H 0.2034 0.48296 0.23581 0.0
H2225 H 0.21457 0.44424 0.25151 0.0
C2226 C 0.15931 0.32165 0.32712 0.0
C2227 C 0.17167 0.34879 0.33883 0.0
C2228 C 0.16371 0.32435 0.3075 0.0
C2229 C 0.18236 0.35416 0.29885 0.0
C2230 C 0.19578 0.38141 0.31058 0.0
C2231 C 0.1904 0.37877 0.33033 0.0
C2232 C 0.18655 0.35658 0.27761 0.0
C2233 C 0.18203 0.3791 0.26763 0.0
C2234 C 0.19255 0.33525 0.26696 0.0
C2235 C 0.19965 0.31204 0.27612 0.0
C2236 C 0.22428 0.32217 0.28948 0.0
C2237 C 0.23047 0.30005 0.29826 0.0
C2238 C 0.21232 0.26778 0.2937 0.0
C2239 C 0.18797 0.25754 0.28031 0.0
C2240 C 0.18166 0.27954 0.27151 0.0
C2241 C 0.20647 0.38011 0.18463 0.0
C2242 C 0.18706 0.35062 0.17576 0.0
C2243 C 0.20605 0.38296 0.2045 0.0
C2244 C 0.18604 0.35642 0.21584 0.0
C2245 C 0.16578 0.32741 0.2068 0.0
C2246 C 0.16616 0.32458 0.18709 0.0
C2247 C 0.18692 0.35791 0.23709 0.0
C2248 C 0.19238 0.33608 0.24702 0.0
C2249 C 0.18202 0.37994 0.24762 0.0
C2250 C 0.17531 0.40314 0.23818 0.0
C2251 C 0.14946 0.3928 0.22569 0.0
C2252 C 0.14339 0.4149 0.21681 0.0
C2253 C 0.16285 0.44738 0.22043 0.0
C2254 C 0.18838 0.45781 0.23299 0.0
C2255 C 0.19459 0.4358 0.24188 0.0
H2256 H 0.15809 0.46446 0.21355 0.0
H2257 H 0.21714 0.2507 0.30053 0.0
H2258 H 0.84949 0.14622 0.68072 0.0
H2259 H 0.84247 0.14455 0.71504 0.0
H2260 H 0.82205 0.22119 0.71155 0.0
H2261 H 0.82944 0.2231 0.67694 0.0
H2262 H 0.86369 0.23176 0.73999 0.0
H2263 H 0.76329 0.14416 0.7214 0.0
H2264 H 0.72673 0.0941 0.70502 0.0
H2265 H 0.76651 0.04572 0.73546 0.0
H2266 H 0.80372 0.09564 0.75177 0.0
H2267 H 0.80057 0.19523 0.839 0.0
H2268 H 0.80395 0.20409 0.80442 0.0
H2269 H 0.85604 0.15427 0.79861 0.0
H2270 H 0.8543 0.14684 0.83281 0.0
H2271 H 0.79436 0.13203 0.77515 0.0
H2272 H 0.89765 0.2193 0.79094 0.0
H2273 H 0.93588 0.26897 0.80702 0.0
H2274 H 0.89158 0.31735 0.78163 0.0
H2275 H 0.85256 0.26766 0.76574 0.0
C2276 C 0.84294 0.16237 0.6872 0.0
C2277 C 0.83978 0.18462 0.67604 0.0
C2278 C 0.83892 0.1614 0.70689 0.0
C2279 C 0.83144 0.18255 0.71607 0.0
C2280 C 0.8277 0.20451 0.7049 0.0
C2281 C 0.83154 0.20534 0.68507 0.0
C2282 C 0.82856 0.18212 0.73729 0.0
C2283 C 0.84796 0.21006 0.74762 0.0
C2284 C 0.80873 0.15374 0.74749 0.0
C2285 C 0.78645 0.1237 0.73769 0.0
C2286 C 0.76442 0.12291 0.72448 0.0
C2287 C 0.74356 0.09454 0.71523 0.0
C2288 C 0.74433 0.06675 0.71917 0.0
C2289 C 0.76596 0.06727 0.7324 0.0
C2290 C 0.78693 0.09559 0.74166 0.0
C2291 C 0.81334 0.18681 0.8304 0.0
C2292 C 0.82669 0.16986 0.83876 0.0
C2293 C 0.81511 0.19173 0.81061 0.0
C2294 C 0.82999 0.17955 0.79886 0.0
C2295 C 0.84427 0.16372 0.8073 0.0
C2296 C 0.84322 0.15953 0.82695 0.0
C2297 C 0.82945 0.18156 0.77772 0.0
C2298 C 0.80956 0.15383 0.76746 0.0
C2299 C 0.84893 0.21002 0.76762 0.0
C2300 C 0.87178 0.23963 0.7775 0.0
C2301 C 0.89567 0.24037 0.78908 0.0
C2302 C 0.91758 0.26856 0.79809 0.0
C2303 C 0.91605 0.29627 0.79543 0.0
C2304 C 0.89263 0.29583 0.78375 0.0
C2305 C 0.87059 0.26765 0.77476 0.0
H2306 H 0.93311 0.31812 0.80236 0.0
H2307 H 0.72813 0.04481 0.71201 0.0
H2308 H 0.61458 0.84167 0.17847 0.0
H2309 H 0.61117 0.83517 0.21317 0.0
H2310 H 0.69212 0.82116 0.2121 0.0
H2311 H 0.69686 0.82993 0.17786 0.0
H2312 H 0.60262 0.79047 0.23822 0.0
H2313 H 0.73338 0.84649 0.23944 0.0
H2314 H 0.78125 0.88884 0.22344 0.0
H2315 H 0.73831 0.94755 0.22117 0.0
H2316 H 0.69028 0.90536 0.23716 0.0
H2317 H 0.62856 0.76885 0.33563 0.0
H2318 H 0.6261 0.77018 0.30103 0.0
H2319 H 0.67672 0.8729 0.30262 0.0
H2320 H 0.68189 0.8712 0.337 0.0
H2321 H 0.69932 0.86007 0.27573 0.0
H2322 H 0.58832 0.81724 0.2916 0.0
H2323 H 0.53753 0.77927 0.30694 0.0
H2324 H 0.5363 0.70211 0.27638 0.0
H2325 H 0.58723 0.73961 0.26102 0.0
C2326 C 0.63127 0.83668 0.18569 0.0
C2327 C 0.65592 0.8362 0.17547 0.0
C2328 C 0.62951 0.83322 0.20555 0.0
C2329 C 0.65208 0.82874 0.21556 0.0
C2330 C 0.67533 0.82612 0.20505 0.0
C2331 C 0.67765 0.83048 0.18537 0.0
C2332 C 0.65177 0.82726 0.23687 0.0
C2333 C 0.62378 0.80565 0.24642 0.0
C2334 C 0.679 0.84724 0.24785 0.0
C2335 C 0.70821 0.87274 0.239 0.0
C2336 C 0.7343 0.86849 0.23551 0.0
C2337 C 0.76137 0.89238 0.22643 0.0
C2338 C 0.76275 0.9208 0.22117 0.0
C2339 C 0.73714 0.92545 0.22509 0.0
C2340 C 0.70995 0.90152 0.23405 0.0
C2341 C 0.63836 0.79165 0.32856 0.0
C2342 C 0.65448 0.81992 0.33908 0.0
C2343 C 0.63695 0.79249 0.30868 0.0
C2344 C 0.6505 0.82168 0.29881 0.0
C2345 C 0.66593 0.84994 0.30956 0.0
C2346 C 0.6684 0.84904 0.32934 0.0
C2347 C 0.65 0.82306 0.27741 0.0
C2348 C 0.67797 0.84472 0.26773 0.0
C2349 C 0.62245 0.80349 0.26641 0.0
C2350 C 0.59158 0.78114 0.27528 0.0
C2351 C 0.5772 0.79215 0.2882 0.0
C2352 C 0.54843 0.77073 0.2969 0.0
C2353 C 0.53373 0.73829 0.29266 0.0
C2354 C 0.54771 0.72723 0.27965 0.0
C2355 C 0.57648 0.74855 0.27093 0.0
H2356 H 0.51148 0.72173 0.29944 0.0
H2357 H 0.78371 0.93926 0.21413 0.0
H2358 H 0.80832 0.60857 0.67489 0.0
H2359 H 0.81409 0.60366 0.70908 0.0
H2360 H 0.85149 0.70486 0.71533 0.0
H2361 H 0.85132 0.71018 0.68158 0.0
H2362 H 0.87646 0.69614 0.73947 0.0
H2363 H 0.76406 0.63085 0.72609 0.0
H2364 H 0.71672 0.5871 0.71068 0.0
H2365 H 0.73918 0.51925 0.73435 0.0
H2366 H 0.78688 0.56274 0.74964 0.0
H2367 H 0.84083 0.70124 0.83572 0.0
H2368 H 0.83438 0.69724 0.80137 0.0
H2369 H 0.83114 0.60689 0.80235 0.0
H2370 H 0.8357 0.61006 0.83716 0.0
H2371 H 0.79091 0.60689 0.77572 0.0
H2372 H 0.9109 0.68397 0.78304 0.0
H2373 H 0.95324 0.73114 0.79967 0.0
H2374 H 0.90611 0.78349 0.7861 0.0
H2375 H 0.86321 0.73615 0.77007 0.0
C2376 C 0.81849 0.62975 0.68362 0.0
C2377 C 0.82829 0.65963 0.67541 0.0
C2378 C 0.82108 0.62691 0.70338 0.0
C2379 C 0.83192 0.65362 0.71552 0.0
C2380 C 0.843 0.68348 0.70691 0.0
C2381 C 0.84242 0.68651 0.6873 0.0
C2382 C 0.83221 0.65146 0.73696 0.0
C2383 C 0.85707 0.6767 0.74708 0.0
C2384 C 0.80788 0.62609 0.74772 0.0
C2385 C 0.77912 0.59999 0.73877 0.0
C2386 C 0.7589 0.6066 0.7279 0.0
C2387 C 0.73205 0.58187 0.7192 0.0
C2388 C 0.72499 0.55041 0.72149 0.0
C2389 C 0.74472 0.54362 0.73254 0.0
C2390 C 0.77165 0.56829 0.74123 0.0
C2391 C 0.83804 0.68017 0.82865 0.0
C2392 C 0.8386 0.6559 0.83917 0.0
C2393 C 0.835 0.67818 0.8089 0.0
C2394 C 0.83363 0.65241 0.79896 0.0
C2395 C 0.83252 0.62725 0.80954 0.0
C2396 C 0.83482 0.6289 0.82948 0.0
C2397 C 0.83396 0.65217 0.77763 0.0
C2398 C 0.80966 0.62633 0.76773 0.0
C2399 C 0.85764 0.67783 0.76696 0.0
C2400 C 0.88359 0.70637 0.7761 0.0
C2401 C 0.90938 0.70535 0.78415 0.0
C2402 C 0.9335 0.73213 0.7933 0.0
C2403 C 0.93222 0.76023 0.79411 0.0
C2404 C 0.90698 0.76166 0.7856 0.0
C2405 C 0.88279 0.73487 0.7765 0.0
H2406 H 0.95089 0.78096 0.80119 0.0
H2407 H 0.7042 0.53127 0.71473 0.0
H2408 H 0.19131 0.79184 0.17629 0.0
H2409 H 0.20164 0.79567 0.21063 0.0
H2410 H 0.15828 0.85406 0.21667 0.0
H2411 H 0.1499 0.85189 0.18274 0.0
H2412 H 0.20502 0.87763 0.23783 0.0
H2413 H 0.11958 0.76633 0.23116 0.0
H2414 H 0.09561 0.7113 0.21895 0.0
H2415 H 0.1761 0.70557 0.23852 0.0
H2416 H 0.20039 0.76033 0.25102 0.0
H2417 H 0.15387 0.85357 0.33435 0.0
H2418 H 0.15295 0.84707 0.30007 0.0
H2419 H 0.22638 0.82229 0.30411 0.0
H2420 H 0.22691 0.82805 0.3389 0.0
H2421 H 0.1718 0.78271 0.27831 0.0
H2422 H 0.26286 0.90337 0.26873 0.0
H2423 H 0.28722 0.9595 0.27879 0.0
H2424 H 0.19451 0.9465 0.29021 0.0
H2425 H 0.1697 0.89082 0.2793 0.0
C2426 C 0.1845 0.80587 0.18497 0.0
C2427 C 0.1695 0.82129 0.17671 0.0
C2428 C 0.1899 0.80764 0.20471 0.0
C2429 C 0.18016 0.82462 0.21661 0.0
C2430 C 0.16607 0.8407 0.20811 0.0
C2431 C 0.16114 0.83932 0.18855 0.0
C2432 C 0.18489 0.82671 0.23779 0.0
C2433 C 0.19738 0.85663 0.24654 0.0
C2434 C 0.17613 0.79987 0.24956 0.0
C2435 C 0.16188 0.76738 0.24176 0.0
C2436 C 0.1322 0.75335 0.23268 0.0
C2437 C 0.11855 0.72226 0.22577 0.0
C2438 C 0.1344 0.7051 0.22781 0.0
C2439 C 0.16388 0.71891 0.23689 0.0
C2440 C 0.17755 0.7499 0.24396 0.0
C2441 C 0.16975 0.8465 0.32804 0.0
C2442 C 0.19061 0.84149 0.33946 0.0
C2443 C 0.16954 0.84331 0.30831 0.0
C2444 C 0.19049 0.83548 0.2993 0.0
C2445 C 0.21038 0.82896 0.31067 0.0
C2446 C 0.21046 0.83194 0.33057 0.0
C2447 C 0.19062 0.83331 0.27811 0.0
C2448 C 0.17938 0.80353 0.26944 0.0
C2449 C 0.20015 0.86018 0.26634 0.0
C2450 C 0.21458 0.89273 0.274 0.0
C2451 C 0.24777 0.9125 0.27357 0.0
C2452 C 0.26161 0.94434 0.27912 0.0
C2453 C 0.24244 0.95646 0.28537 0.0
C2454 C 0.20935 0.93695 0.28565 0.0
C2455 C 0.19539 0.90529 0.27972 0.0
H2456 H 0.25322 0.98101 0.28986 0.0
H2457 H 0.12375 0.68105 0.22242 0.0
H2458 H 0.31344 0.14221 0.83537 0.0
H2459 H 0.31964 0.1406 0.80088 0.0
H2460 H 0.40141 0.23498 0.80267 0.0
H2461 H 0.39629 0.23591 0.83732 0.0
H2462 H 0.32339 0.19471 0.77513 0.0
H2463 H 0.43737 0.22175 0.78849 0.0
H2464 H 0.47348 0.20857 0.80562 0.0
H2465 H 0.42002 0.11208 0.7859 0.0
H2466 H 0.38293 0.12454 0.76921 0.0
H2467 H 0.34544 0.2103 0.67596 0.0
H2468 H 0.35262 0.21992 0.70996 0.0
H2469 H 0.37276 0.1431 0.71537 0.0
H2470 H 0.37108 0.13762 0.68095 0.0
H2471 H 0.40156 0.17594 0.74072 0.0
H2472 H 0.29272 0.14402 0.72501 0.0
H2473 H 0.24779 0.14649 0.71049 0.0
H2474 H 0.28077 0.2387 0.7351 0.0
H2475 H 0.32605 0.23693 0.74956 0.0
C2476 C 0.33331 0.16221 0.82844 0.0
C2477 C 0.35484 0.18887 0.83909 0.0
C2478 C 0.33677 0.16133 0.80872 0.0
C2479 C 0.3615 0.18731 0.79912 0.0
C2480 C 0.38293 0.2141 0.80975 0.0
C2481 C 0.37998 0.21465 0.82957 0.0
C2482 C 0.36313 0.18725 0.77792 0.0
C2483 C 0.34075 0.19108 0.76751 0.0
C2484 C 0.38484 0.18121 0.76796 0.0
C2485 C 0.40701 0.17389 0.77805 0.0
C2486 C 0.43293 0.19759 0.78817 0.0
C2487 C 0.45364 0.19028 0.79773 0.0
C2488 C 0.44893 0.15945 0.79696 0.0
C2489 C 0.42352 0.13589 0.7866 0.0
C2490 C 0.4026 0.14304 0.77716 0.0
C2491 C 0.35285 0.19648 0.68429 0.0
C2492 C 0.35809 0.17342 0.67565 0.0
C2493 C 0.35586 0.2012 0.70403 0.0
C2494 C 0.3619 0.18141 0.71589 0.0
C2495 C 0.36796 0.15889 0.70701 0.0
C2496 C 0.36671 0.15546 0.6872 0.0
C2497 C 0.36173 0.18375 0.73733 0.0
C2498 C 0.3842 0.17998 0.74798 0.0
C2499 C 0.33935 0.18894 0.74754 0.0
C2500 C 0.31287 0.19045 0.73821 0.0
C2501 C 0.29052 0.16492 0.72716 0.0
C2502 C 0.26498 0.16619 0.71898 0.0
C2503 C 0.26142 0.19272 0.72192 0.0
C2504 C 0.28355 0.21817 0.73286 0.0
C2505 C 0.30914 0.21706 0.74104 0.0
H2506 H 0.2414 0.1935 0.71584 0.0
H2507 H 0.46507 0.15387 0.8043 0.0
H2508 H 0.26554 0.2112 0.9344 0.0
H2509 H 0.24985 0.23052 0.96168 0.0
H2510 H 0.3378 0.25415 0.98957 0.0
H2511 H 0.35455 0.23549 0.96165 0.0
H2512 H 0.27955 0.22269 0.01369 0.0
H2513 H 0.33588 0.32182 0.97545 0.0
H2514 H 0.34754 0.35256 0.94579 0.0
H2515 H 0.24752 0.31408 0.9362 0.0
H2516 H 0.23546 0.28439 0.96636 0.0
H2517 H 0.27217 0.35759 0.06769 0.0
H2518 H 0.29051 0.33807 0.04101 0.0
H2519 H 0.20079 0.25017 0.04118 0.0
H2520 H 0.18337 0.26871 0.0685 0.0
H2521 H 0.26303 0.31466 1.00398 0.0
H2522 H 0.20736 0.20447 0.03857 0.0
H2523 H 0.19607 0.17613 0.06915 0.0
H2524 H 0.2943 0.23343 0.08497 0.0
H2525 H 0.30578 0.26281 0.05472 0.0
C2526 C 0.28179 0.22031 0.94629 0.0
C2527 C 0.31159 0.22175 0.94561 0.0
C2528 C 0.27264 0.2315 0.96195 0.0
C2529 C 0.29273 0.24431 0.97764 0.0
C2530 C 0.32189 0.24451 0.97758 0.0
C2531 C 0.33136 0.23355 0.96165 0.0
C2532 C 0.28299 0.25778 0.99375 0.0
C2533 C 0.27619 0.24293 0.01155 0.0
C2534 C 0.27785 0.28378 0.99114 0.0
C2535 C 0.28484 0.30079 0.97292 0.0
C2536 C 0.31645 0.31986 0.96693 0.0
C2537 C 0.32311 0.33714 0.95008 0.0
C2538 C 0.29829 0.33484 0.93892 0.0
C2539 C 0.26673 0.3157 0.94479 0.0
C2540 C 0.25998 0.29892 0.96184 0.0
C2541 C 0.25623 0.33431 0.06179 0.0
C2542 C 0.22629 0.31469 0.07014 0.0
C2543 C 0.26685 0.32299 0.04669 0.0
C2544 C 0.24756 0.29204 0.03947 0.0
C2545 C 0.21684 0.2734 0.04702 0.0
C2546 C 0.2066 0.28431 0.0624 0.0
C2547 C 0.25937 0.27949 0.02391 0.0
C2548 C 0.26649 0.29448 1.00617 0.0
C2549 C 0.26413 0.2532 0.02649 0.0
C2550 C 0.25721 0.23623 0.04471 0.0
C2551 C 0.22638 0.21129 0.04874 0.0
C2552 C 0.21996 0.19507 0.06598 0.0
C2553 C 0.24441 0.2031 0.07905 0.0
C2554 C 0.27532 0.22744 0.07492 0.0
C2555 C 0.28174 0.24403 0.0578 0.0
H2556 H 0.23946 0.19034 0.09233 0.0
H2557 H 0.30353 0.34807 0.92581 0.0
H2558 H 0.11012 0.28274 0.45433 0.0
H2559 H 0.07655 0.2664 0.4826 0.0
H2560 H 0.04391 0.3317 0.46775 0.0
H2561 H 0.0829 0.35259 0.44228 0.0
H2562 H 0.03391 0.32772 0.49898 0.0
H2563 H 1.00275 0.23288 0.4609 0.0
H2564 H 0.01027 0.19207 0.44461 0.0
H2565 H 0.04004 0.16997 0.49691 0.0
H2566 H 0.03289 0.21076 0.51344 0.0
H2567 H 0.89345 0.24569 0.55747 0.0
H2568 H 0.92885 0.26481 0.52968 0.0
H2569 H 0.9825 0.22351 0.55227 0.0
H2570 H 0.9466 0.20307 0.57909 0.0
H2571 H 0.97884 0.21406 0.51711 0.0
H2572 H 0.00671 0.31296 0.55336 0.0
H2573 H 0.99418 0.3528 0.56651 0.0
H2574 H 0.95986 0.36182 0.51229 0.0
H2575 H 0.97267 0.32272 0.49873 0.0
C2576 C 0.09635 0.29413 0.45755 0.0
C2577 C 0.09869 0.31854 0.44583 0.0
C2578 C 0.07608 0.28399 0.47348 0.0
C2579 C 0.05523 0.29583 0.47719 0.0
C2580 C 0.0589 0.32134 0.46572 0.0
C2581 C 0.08116 0.33328 0.45082 0.0
C2582 C 0.02997 0.28225 0.49279 0.0
C2583 C 0.02166 0.30261 0.50239 0.0
C2584 C 0.01342 0.24955 0.49824 0.0
C2585 C 0.01758 0.22502 0.48832 0.0
C2586 C 0.01097 0.21934 0.46888 0.0
C2587 C 0.01518 0.19624 0.45962 0.0
C2588 C 0.02571 0.17851 0.46971 0.0
C2589 C 0.03194 0.18374 0.4891 0.0
C2590 C 0.02778 0.20681 0.49842 0.0
C2591 C 0.91242 0.24019 0.55631 0.0
C2592 C 0.91691 0.22275 0.57069 0.0
C2593 C 0.93315 0.25167 0.54051 0.0
C2594 C 0.95924 0.24647 0.53885 0.0
C2595 C 0.96292 0.2282 0.55296 0.0
C2596 C 0.94215 0.21645 0.56846 0.0
C2597 C 0.98283 0.25945 0.52264 0.0
C2598 C 0.99097 0.23901 0.51318 0.0
C2599 C 0.99818 0.29166 0.51675 0.0
C2600 C 0.99037 0.31481 0.52511 0.0
C2601 C 0.99636 0.32338 0.54431 0.0
C2602 C 0.98925 0.34579 0.55182 0.0
C2603 C 0.97598 0.3595 0.54031 0.0
C2604 C 0.97004 0.35111 0.52121 0.0
C2605 C 0.97736 0.32899 0.51358 0.0
H2606 H 0.97044 0.37676 0.54619 0.0
H2607 H 0.02899 0.16066 0.46251 0.0
H2608 H 0.73407 0.90732 0.06415 0.0
H2609 H 0.75202 0.94212 0.03643 0.0
H2610 H 0.67723 0.96421 0.04605 0.0
H2611 H 0.65662 0.92546 0.07181 0.0
H2612 H 0.68405 0.97054 0.01343 0.0
H2613 H 0.77084 0.01438 0.05864 0.0
H2614 H 0.81168 0.01409 0.07929 0.0
H2615 H 0.85332 0.99412 0.03125 0.0
H2616 H 0.81257 0.99402 0.01037 0.0
H2617 H 0.75989 0.11301 0.95665 0.0
H2618 H 0.74083 0.07731 0.98429 0.0
H2619 H 0.79456 0.03355 0.96568 0.0
H2620 H 0.8138 0.06911 0.93842 0.0
H2621 H 0.79975 0.04094 1.00299 0.0
H2622 H 0.70356 0.98503 0.96128 0.0
H2623 H 0.66015 0.98256 0.94183 0.0
H2624 H 0.63933 0.03125 0.98547 0.0
H2625 H 0.68173 0.03264 1.00547 0.0
C2626 C 0.72104 0.91904 0.05995 0.0
C2627 C 0.69393 0.91364 0.07018 0.0
C2628 C 0.73187 0.93982 0.04431 0.0
C2629 C 0.71737 0.95777 0.03929 0.0
C2630 C 0.68946 0.9513 0.04928 0.0
C2631 C 0.67749 0.92897 0.06413 0.0
C2632 C 0.7307 0.98287 0.02374 0.0
C2633 C 0.70945 0.98624 0.01169 0.0
C2634 C 0.76391 1.00355 0.0205 0.0
C2635 C 0.78855 1.00396 0.03301 0.0
C2636 C 0.78868 0.00986 0.05252 0.0
C2637 C 0.81179 0.00975 0.06425 0.0
C2638 C 0.83504 1.00403 0.05659 0.0
C2639 C 0.83529 0.99852 0.03717 0.0
C2640 C 0.81223 0.99859 0.02538 0.0
C2641 C 0.76809 0.09618 0.95864 0.0
C2642 C 0.78856 0.0942 0.94522 0.0
C2643 C 0.75674 0.07532 0.97434 0.0
C2644 C 0.76566 0.05202 0.97708 0.0
C2645 C 0.78704 0.05098 0.96405 0.0
C2646 C 0.79813 0.07153 0.94838 0.0
C2647 C 0.75301 0.02865 0.99335 0.0
C2648 C 0.77442 0.02549 1.00528 0.0
C2649 C 0.7201 0.00873 0.99687 0.0
C2650 C 0.69587 0.00931 0.98465 0.0
C2651 C 0.68974 0.99529 0.96663 0.0
C2652 C 0.66516 0.9938 0.95562 0.0
C2653 C 0.64718 0.00701 0.96233 0.0
C2654 C 0.65336 0.02118 0.98024 0.0
C2655 C 0.67743 0.02204 0.99149 0.0
H2656 H 0.62839 0.00616 0.95367 0.0
H2657 H 0.85288 1.00392 0.0657 0.0
H2658 H 0.77761 0.65731 0.55282 0.0
H2659 H 0.76063 0.67529 0.52469 0.0
H2660 H 0.77445 0.75787 0.5554 0.0
H2661 H 0.79317 0.74182 0.58258 0.0
H2662 H 0.70575 0.69809 0.52833 0.0
H2663 H 0.81684 0.79443 0.53535 0.0
H2664 H 0.87482 0.81612 0.53713 0.0
H2665 H 0.87172 0.7666 0.48599 0.0
H2666 H 0.81346 0.74373 0.48434 0.0
H2667 H 0.66352 0.78413 0.46299 0.0
H2668 H 0.68218 0.7672 0.4904 0.0
H2669 H 0.75505 0.76636 0.45566 0.0
H2670 H 0.73928 0.78686 0.42945 0.0
H2671 H 0.78082 0.78329 0.48518 0.0
H2672 H 0.67455 0.69472 0.47336 0.0
H2673 H 0.61634 0.6695 0.46975 0.0
H2674 H 0.60874 0.69839 0.52616 0.0
H2675 H 0.66695 0.724 0.53002 0.0
C2676 C 0.77776 0.67965 0.55344 0.0
C2677 C 0.7871 0.69795 0.57019 0.0
C2678 C 0.7678 0.68983 0.53736 0.0
C2679 C 0.76662 0.71827 0.53778 0.0
C2680 C 0.77578 0.7363 0.55444 0.0
C2681 C 0.78644 0.72677 0.57014 0.0
C2682 C 0.75494 0.72919 0.52132 0.0
C2683 C 0.7221 0.71664 0.51881 0.0
C2684 C 0.77601 0.75331 0.5088 0.0
C2685 C 0.8108 0.76672 0.51003 0.0
C2686 C 0.82842 0.78759 0.52475 0.0
C2687 C 0.86135 0.80021 0.52568 0.0
C2688 C 0.87693 0.79256 0.51176 0.0
C2689 C 0.8596 0.77231 0.49685 0.0
C2690 C 0.82663 0.75941 0.49596 0.0
C2691 C 0.6839 0.78099 0.4613 0.0
C2692 C 0.69988 0.78745 0.44376 0.0
C2693 C 0.69431 0.77054 0.47701 0.0
C2694 C 0.71991 0.76449 0.4754 0.0
C2695 C 0.73553 0.77083 0.45781 0.0
C2696 C 0.72616 0.78255 0.44253 0.0
C2697 C 0.73104 0.75194 0.49164 0.0
C2698 C 0.76401 0.76439 0.49433 0.0
C2699 C 0.70993 0.72731 0.50411 0.0
C2700 C 0.67501 0.7114 0.50192 0.0
C2701 C 0.66042 0.6957 0.48497 0.0
C2702 C 0.62745 0.68138 0.48287 0.0
C2703 C 0.60885 0.6824 0.4977 0.0
C2704 C 0.62316 0.69763 0.51469 0.0
C2705 C 0.65612 0.71201 0.51685 0.0
H2706 H 0.58333 0.67135 0.49603 0.0
H2707 H 0.90244 0.80248 0.51245 0.0
H2708 H 0.94766 0.74714 0.93492 0.0
H2709 H 0.98384 0.76284 0.9618 0.0
H2710 H 0.93045 0.6681 0.98461 0.0
H2711 H 0.89431 0.6516 0.95716 0.0
H2712 H 0.96309 0.75293 1.00424 0.0
H2713 H 0.97406 0.65678 0.98586 0.0
H2714 H 0.98572 0.62608 0.96252 0.0
H2715 H 0.0676 0.71206 0.94323 0.0
H2716 H 0.05602 0.7432 0.9663 0.0
H2717 H 0.04765 0.7652 0.08638 0.0
H2718 H 0.0132 0.74763 0.05929 0.0
H2719 H 0.09402 0.77556 0.02254 0.0
H2720 H 0.12904 0.7909 0.05038 0.0
H2721 H 0.04926 0.72653 0.00817 0.0
H2722 H 0.0498 0.82 0.02884 0.0
H2723 H 0.04562 0.85687 0.05116 0.0
H2724 H 0.94876 0.78648 0.06346 0.0
H2725 H 0.95246 0.74906 0.04134 0.0
C2726 C 0.94331 0.72944 0.94562 0.0
C2727 C 0.91788 0.69788 0.94365 0.0
C2728 C 0.9643 0.73854 0.961 0.0
C2729 C 0.96055 0.71655 0.97504 0.0
C2730 C 0.93447 0.68535 0.97368 0.0
C2731 C 0.91346 0.67603 0.9581 0.0
C2732 C 0.98336 0.72703 0.99136 0.0
C2733 C 0.98158 0.74667 1.00531 0.0
C2734 C 0.00868 0.72055 0.99232 0.0
C2735 C 0.01383 0.70226 0.97747 0.0
C2736 C 0.99413 0.66913 0.97636 0.0
C2737 C 1.00093 0.65164 0.96333 0.0
C2738 C 0.02754 0.66707 0.9515 0.0
C2739 C 0.0471 0.7001 0.95245 0.0
C2740 C 0.04036 0.71768 0.96544 0.0
C2741 C 0.05861 0.76796 0.07263 0.0
C2742 C 0.09176 0.78029 0.07087 0.0
C2743 C 0.03852 0.75802 0.05692 0.0
C2744 C 0.05068 0.76133 0.03851 0.0
C2745 C 0.08373 0.77305 0.0365 0.0
C2746 C 0.10397 0.7821 0.0525 0.0
C2747 C 0.02845 0.75158 0.02172 0.0
C2748 C 0.03061 0.73259 1.00743 0.0
C2749 C 1.00383 0.7593 0.02025 0.0
C2750 C 1.00148 0.7817 0.03353 0.0
C2751 C 0.02767 0.81234 0.03639 0.0
C2752 C 0.02538 0.83333 0.04898 0.0
C2753 C 0.99696 0.82401 0.05872 0.0
C2754 C 0.97075 0.79366 0.05589 0.0
C2755 C 0.97291 0.77258 0.0433 0.0
H2756 H 0.99523 0.84039 0.06837 0.0
H2757 H 0.03279 0.65348 0.94144 0.0
H2758 H 0.18146 0.90405 0.4537 0.0
H2759 H 0.19868 0.93887 0.48143 0.0
H2760 H 0.29621 0.96524 0.46951 0.0
H2761 H 0.27801 0.92664 0.44361 0.0
H2762 H 0.29712 0.97168 0.50237 0.0
H2763 H 0.2494 0.01168 0.45827 0.0
H2764 H 0.20673 0.00949 0.43824 0.0
H2765 H 0.14647 0.98807 0.4871 0.0
H2766 H 0.18867 0.98986 0.50737 0.0
H2767 H 0.36139 0.11463 0.5584 0.0
H2768 H 0.3446 0.07791 0.53128 0.0
H2769 H 0.24767 0.03207 0.55129 0.0
H2770 H 0.26409 0.06869 0.57802 0.0
H2771 H 0.24785 0.03813 0.51412 0.0
H2772 H 0.29543 0.99221 0.55619 0.0
H2773 H 0.33883 0.99386 0.5752 0.0
H2774 H 0.40257 0.03278 0.52779 0.0
H2775 H 0.3591 0.03018 0.50833 0.0
C2776 C 0.20647 0.91667 0.45742 0.0
C2777 C 0.22836 0.91254 0.44649 0.0
C2778 C 0.21659 0.93745 0.47305 0.0
C2779 C 0.24924 0.95662 0.4774 0.0
C2780 C 0.27091 0.95135 0.46678 0.0
C2781 C 0.26052 0.92909 0.45187 0.0
C2782 C 0.26091 0.98186 0.49285 0.0
C2783 C 0.2865 0.98648 0.50445 0.0
C2784 C 0.24728 1.00144 0.49644 0.0
C2785 C 0.22207 1.00067 0.48428 0.0
C2786 C 0.22701 0.00642 0.46471 0.0
C2787 C 0.20291 0.00524 0.45332 0.0
C2788 C 0.17389 0.99858 0.46138 0.0
C2789 C 0.16894 0.9932 0.48087 0.0
C2790 C 0.19294 0.99433 0.49231 0.0
C2791 C 0.33646 0.09698 0.5569 0.0
C2792 C 0.31422 0.09487 0.57053 0.0
C2793 C 0.32686 0.07563 0.54146 0.0
C2794 C 0.29477 0.05158 0.5392 0.0
C2795 C 0.27253 0.05013 0.55254 0.0
C2796 C 0.28208 0.07125 0.56794 0.0
C2797 C 0.28401 0.02786 0.52312 0.0
C2798 C 0.25855 0.02348 0.51159 0.0
C2799 C 0.29816 0.00909 0.51924 0.0
C2800 C 0.32428 0.01131 0.53095 0.0
C2801 C 0.31877 1.00122 0.5499 0.0
C2802 C 0.34332 1.0022 0.56071 0.0
C2803 C 0.37357 0.01379 0.55279 0.0
C2804 C 0.37919 0.02395 0.53394 0.0
C2805 C 0.35456 0.02247 0.52297 0.0
H2806 H 0.3926 0.01474 0.56124 0.0
H2807 H 0.15526 0.99765 0.45254 0.0
loop_
_geom_bond_atom_site_label_1
_geom_bond_atom_site_label_2
_geom_bond_distance
_geom_bond_site_symmetry_2
_ccdc_geom_bond_type
C0 C2 1.422 . S
C0 C4 1.415 . S
C0 N6 1.369 . S
C1 C2 1.421 . S
C1 C3 1.417 . S
C1 C13 1.422 . S
C2 C0 1.422 . S
C2 C1 1.421 . S
C2 N12 1.359 . S
C3 C1 1.417 . S
C3 C5 1.329 . S
C3 H22 0.930 . S
C4 C0 1.415 . S
C4 C5 1.437 . S
C4 C8 1.413 . S
C5 C3 1.329 . S
C5 C4 1.437 . S
C5 H27 0.929 . S
N6 C0 1.369 . S
N6 C7 1.338 . S
N6 Gd11 2.622 . S
C7 N6 1.338 . S
C7 C9 1.378 . S
C7 H19 0.929 . S
C8 C4 1.413 . S
C8 C9 1.348 . S
C8 H24 0.931 . S
C9 C7 1.378 . S
C9 C8 1.348 . S
C9 H25 0.930 . S
Gd10 N30 2.622 . S
Gd10 N37 2.570 . S
Gd10 O44 2.353 . S
Gd10 O45 2.468 . S
Gd10 O46 2.427 . S
Gd10 O48 2.388 . S
Gd10 O49 2.386 . S
Gd10 O53 2.307 . S
Gd10 C63 2.805 . S
Gd11 N6 2.622 . S
Gd11 N12 2.570 . S
Gd11 O43 2.386 . S
Gd11 O47 2.307 . S
Gd11 O50 2.353 . S
Gd11 O51 2.468 . S
Gd11 O52 2.427 . S
Gd11 O54 2.388 . S
Gd11 C75 2.805 . S
N12 C2 1.359 . S
N12 Gd11 2.570 . S
N12 C14 1.343 . S
C13 C1 1.422 . S
C13 C15 1.321 . S
C13 H21 0.931 . S
C14 N12 1.343 . S
C14 C15 1.390 . S
C14 H16 0.931 . S
C15 C13 1.321 . S
C15 C14 1.390 . S
C15 H17 0.930 . S
H16 C14 0.931 . S
H17 C15 0.930 . S
H18 C41 0.931 . S
H19 C7 0.929 . S
H20 C42 0.930 . S
H21 C13 0.931 . S
H22 C3 0.930 . S
H23 C32 0.929 . S
H24 C8 0.931 . S
H25 C9 0.930 . S
H26 C64 0.930 . S
H27 C5 0.929 . S
H28 C33 0.931 . S
H29 C34 0.930 . S
N30 Gd10 2.622 . S
N30 C31 1.369 . S
N30 C32 1.338 . S
C31 N30 1.369 . S
C31 C35 1.415 . S
C31 C38 1.422 . S
C32 H23 0.929 . S
C32 N30 1.338 . S
C32 C34 1.378 . S
C33 H28 0.931 . S
C33 C34 1.348 . S
C33 C35 1.413 . S
C34 H29 0.930 . S
C34 C32 1.378 . S
C34 C33 1.348 . S
C35 C31 1.415 . S
C35 C33 1.413 . S
C35 C65 1.437 . S
H36 C65 0.929 . S
N37 Gd10 2.570 . S
N37 C38 1.359 . S
N37 C41 1.343 . S
C38 C31 1.422 . S
C38 N37 1.359 . S
C38 C40 1.421 . S
C39 C40 1.422 . S
C39 C42 1.321 . S
C39 H66 0.931 . S
C40 C38 1.421 . S
C40 C39 1.422 . S
C40 C64 1.417 . S
C41 H18 0.931 . S
C41 N37 1.343 . S
C41 C42 1.390 . S
C42 H20 0.930 . S
C42 C39 1.321 . S
C42 C41 1.390 . S
O43 Gd11 2.386 . S
O43 C55 1.265 . S
O44 Gd10 2.353 . S
O44 C55 1.242 . S
O45 Gd10 2.468 . S
O45 C63 1.263 . S
O46 Gd10 2.427 . S
O46 C63 1.252 . S
O47 Gd11 2.307 . S
O47 C56 1.261 . S
O48 Gd10 2.388 . S
O48 C56 1.252 . S
O49 Gd10 2.386 . S
O49 C67 1.265 . S
O50 Gd11 2.353 . S
O50 C67 1.242 . S
O51 Gd11 2.468 . S
O51 C75 1.263 . S
O52 Gd11 2.427 . S
O52 C75 1.252 . S
O53 Gd10 2.307 . S
O53 C68 1.261 . S
O54 Gd11 2.388 . S
O54 C68 1.252 . S
C55 O43 1.265 . S
C55 O44 1.242 . S
C56 O47 1.261 . S
C56 O48 1.252 . S
C57 C60 1.394 . S
C57 C62 1.370 . S
C57 C63 1.500 . S
C58 C61 1.383 . S
C58 C62 1.395 . S
C59 C60 1.396 . S
C59 C61 1.365 . S
C59 H76 0.929 . S
C60 C57 1.394 . S
C60 C59 1.396 . S
C60 H77 0.930 . S
C61 C58 1.383 . S
C61 C59 1.365 . S
C61 H78 0.931 . S
C62 C57 1.370 . S
C62 C58 1.395 . S
C62 H79 0.930 . S
C63 Gd10 2.805 . S
C63 O45 1.263 . S
C63 O46 1.252 . S
C63 C57 1.500 . S
C64 H26 0.930 . S
C64 C40 1.417 . S
C64 C65 1.329 . S
C65 C35 1.437 . S
C65 H36 0.929 . S
C65 C64 1.329 . S
H66 C39 0.931 . S
C67 O49 1.265 . S
C67 O50 1.242 . S
C68 O53 1.261 . S
C68 O54 1.252 . S
C69 C72 1.394 . S
C69 C74 1.370 . S
C69 C75 1.500 . S
C70 C73 1.383 . S
C70 C74 1.395 . S
C71 C72 1.396 . S
C71 C73 1.365 . S
C71 H80 0.929 . S
C72 C69 1.394 . S
C72 C71 1.396 . S
C72 H81 0.930 . S
C73 C70 1.383 . S
C73 C71 1.365 . S
C73 H82 0.931 . S
C74 C69 1.370 . S
C74 C70 1.395 . S
C74 H83 0.930 . S
C75 Gd11 2.805 . S
C75 O51 1.263 . S
C75 O52 1.252 . S
C75 C69 1.500 . S
H76 C59 0.929 . S
H77 C60 0.930 . S
H78 C61 0.931 . S
H79 C62 0.930 . S
H80 C71 0.929 . S
H81 C72 0.930 . S
H82 C73 0.931 . S
H83 C74 0.930 . S
C84 C86 1.422 . S
C84 C88 1.415 . S
C84 N90 1.369 . S
C85 C86 1.421 . S
C85 C87 1.417 . S
C85 C97 1.422 . S
C86 C84 1.422 . S
C86 C85 1.421 . S
C86 N96 1.359 . S
C87 C85 1.417 . S
C87 C89 1.329 . S
C87 H106 0.930 . S
C88 C84 1.415 . S
C88 C89 1.437 . S
C88 C92 1.413 . S
C89 C87 1.329 . S
C89 C88 1.437 . S
C89 H111 0.929 . S
N90 C84 1.369 . S
N90 C91 1.338 . S
N90 Gd95 2.622 . S
C91 N90 1.338 . S
C91 C93 1.378 . S
C91 H103 0.929 . S
C92 C88 1.413 . S
C92 C93 1.348 . S
C92 H108 0.931 . S
C93 C91 1.378 . S
C93 C92 1.348 . S
C93 H109 0.930 . S
Gd94 N114 2.622 . S
Gd94 N121 2.570 . S
Gd94 O128 2.353 . S
Gd94 O129 2.468 . S
Gd94 O130 2.427 . S
Gd94 O132 2.388 . S
Gd94 O133 2.386 . S
Gd94 O137 2.307 . S
Gd94 C147 2.805 . S
Gd95 N90 2.622 . S
Gd95 N96 2.570 . S
Gd95 O127 2.386 . S
Gd95 O131 2.307 . S
Gd95 O134 2.353 . S
Gd95 O135 2.468 . S
Gd95 O136 2.427 . S
Gd95 O138 2.388 . S
Gd95 C159 2.805 . S
N96 C86 1.359 . S
N96 Gd95 2.570 . S
N96 C98 1.343 . S
C97 C85 1.422 . S
C97 C99 1.321 . S
C97 H105 0.931 . S
C98 N96 1.343 . S
C98 C99 1.390 . S
C98 H100 0.931 . S
C99 C97 1.321 . S
C99 C98 1.390 . S
C99 H101 0.930 . S
H100 C98 0.931 . S
H101 C99 0.930 . S
H102 C125 0.931 . S
H103 C91 0.929 . S
H104 C126 0.930 . S
H105 C97 0.931 . S
H106 C87 0.930 . S
H107 C116 0.929 . S
H108 C92 0.931 . S
H109 C93 0.930 . S
H110 C148 0.930 . S
H111 C89 0.929 . S
H112 C117 0.931 . S
H113 C118 0.930 . S
N114 Gd94 2.622 . S
N114 C115 1.369 . S
N114 C116 1.338 . S
C115 N114 1.369 . S
C115 C119 1.415 . S
C115 C122 1.422 . S
C116 H107 0.929 . S
C116 N114 1.338 . S
C116 C118 1.378 . S
C117 H112 0.931 . S
C117 C118 1.348 . S
C117 C119 1.413 . S
C118 H113 0.930 . S
C118 C116 1.378 . S
C118 C117 1.348 . S
C119 C115 1.415 . S
C119 C117 1.413 . S
C119 C149 1.437 . S
H120 C149 0.929 . S
N121 Gd94 2.570 . S
N121 C122 1.359 . S
N121 C125 1.343 . S
C122 C115 1.422 . S
C122 N121 1.359 . S
C122 C124 1.421 . S
C123 C124 1.422 . S
C123 C126 1.321 . S
C123 H150 0.931 . S
C124 C122 1.421 . S
C124 C123 1.422 . S
C124 C148 1.417 . S
C125 H102 0.931 . S
C125 N121 1.343 . S
C125 C126 1.390 . S
C126 H104 0.930 . S
C126 C123 1.321 . S
C126 C125 1.390 . S
O127 Gd95 2.386 . S
O127 C139 1.265 . S
O128 Gd94 2.353 . S
O128 C139 1.242 . S
O129 Gd94 2.468 . S
O129 C147 1.263 . S
O130 Gd94 2.427 . S
O130 C147 1.252 . S
O131 Gd95 2.307 . S
O131 C140 1.261 . S
O132 Gd94 2.388 . S
O132 C140 1.252 . S
O133 Gd94 2.386 . S
O133 C151 1.265 . S
O134 Gd95 2.353 . S
O134 C151 1.242 . S
O135 Gd95 2.468 . S
O135 C159 1.263 . S
O136 Gd95 2.427 . S
O136 C159 1.252 . S
O137 Gd94 2.307 . S
O137 C152 1.261 . S
O138 Gd95 2.388 . S
O138 C152 1.252 . S
C139 O127 1.265 . S
C139 O128 1.242 . S
C140 O131 1.261 . S
C140 O132 1.252 . S
C141 C144 1.394 . S
C141 C146 1.370 . S
C141 C147 1.500 . S
C142 C145 1.383 . S
C142 C146 1.395 1_455 S
C143 C144 1.396 1_455 S
C143 C145 1.365 . S
C143 H160 0.929 . S
C144 C141 1.394 . S
C144 C143 1.396 1_655 S
C144 H161 0.930 . S
C145 C142 1.383 . S
C145 C143 1.365 . S
C145 H162 0.931 . S
C146 C141 1.370 . S
C146 C142 1.395 1_655 S
C146 H163 0.930 . S
C147 Gd94 2.805 . S
C147 O129 1.263 . S
C147 O130 1.252 . S
C147 C141 1.500 . S
C148 H110 0.930 . S
C148 C124 1.417 . S
C148 C149 1.329 . S
C149 C119 1.437 . S
C149 H120 0.929 . S
C149 C148 1.329 . S
H150 C123 0.931 . S
C151 O133 1.265 . S
C151 O134 1.242 . S
C152 O137 1.261 . S
C152 O138 1.252 . S
C153 C156 1.394 . S
C153 C158 1.370 . S
C153 C159 1.500 . S
C154 C157 1.383 . S
C154 C158 1.395 . S
C155 C156 1.396 . S
C155 C157 1.365 . S
C155 H164 0.929 . S
C156 C153 1.394 . S
C156 C155 1.396 . S
C156 H165 0.930 . S
C157 C154 1.383 . S
C157 C155 1.365 . S
C157 H166 0.931 . S
C158 C153 1.370 . S
C158 C154 1.395 . S
C158 H167 0.930 . S
C159 Gd95 2.805 . S
C159 O135 1.263 . S
C159 O136 1.252 . S
C159 C153 1.500 . S
H160 C143 0.929 . S
H161 C144 0.930 . S
H162 C145 0.931 . S
H163 C146 0.930 . S
H164 C155 0.929 . S
H165 C156 0.930 . S
H166 C157 0.931 . S
H167 C158 0.930 . S
C168 C170 1.422 . S
C168 C172 1.415 . S
C168 N174 1.369 . S
C169 C170 1.421 . S
C169 C171 1.417 . S
C169 C181 1.422 . S
C170 C168 1.422 . S
C170 C169 1.421 . S
C170 N180 1.359 . S
C171 C169 1.417 . S
C171 C173 1.329 . S
C171 H190 0.930 . S
C172 C168 1.415 . S
C172 C173 1.437 . S
C172 C176 1.413 . S
C173 C171 1.329 . S
C173 C172 1.437 . S
C173 H195 0.929 . S
N174 C168 1.369 . S
N174 C175 1.338 . S
N174 Gd179 2.622 . S
C175 N174 1.338 . S
C175 C177 1.378 . S
C175 H187 0.929 . S
C176 C172 1.413 . S
C176 C177 1.348 . S
C176 H192 0.931 . S
C177 C175 1.378 . S
C177 C176 1.348 . S
C177 H193 0.930 . S
Gd178 N198 2.622 . S
Gd178 N205 2.570 . S
Gd178 O212 2.353 . S
Gd178 O213 2.468 . S
Gd178 O214 2.427 . S
Gd178 O216 2.388 . S
Gd178 O217 2.386 . S
Gd178 O221 2.307 . S
Gd178 C231 2.805 . S
Gd179 N174 2.622 . S
Gd179 N180 2.570 . S
Gd179 O211 2.386 . S
Gd179 O215 2.307 . S
Gd179 O218 2.353 . S
Gd179 O219 2.468 . S
Gd179 O220 2.427 . S
Gd179 O222 2.388 . S
Gd179 C243 2.805 . S
N180 C170 1.359 . S
N180 Gd179 2.570 . S
N180 C182 1.343 . S
C181 C169 1.422 . S
C181 C183 1.321 . S
C181 H189 0.931 . S
C182 N180 1.343 . S
C182 C183 1.390 . S
C182 H184 0.931 . S
C183 C181 1.321 . S
C183 C182 1.390 . S
C183 H185 0.930 . S
H184 C182 0.931 . S
H185 C183 0.930 . S
H186 C209 0.931 . S
H187 C175 0.929 . S
H188 C210 0.930 . S
H189 C181 0.931 . S
H190 C171 0.930 . S
H191 C200 0.929 . S
H192 C176 0.931 . S
H193 C177 0.930 . S
H194 C232 0.930 . S
H195 C173 0.929 . S
H196 C201 0.931 . S
H197 C202 0.930 . S
N198 Gd178 2.622 . S
N198 C199 1.369 . S
N198 C200 1.338 . S
C199 N198 1.369 . S
C199 C203 1.415 . S
C199 C206 1.422 . S
C200 H191 0.929 . S
C200 N198 1.338 . S
C200 C202 1.378 . S
C201 H196 0.931 . S
C201 C202 1.348 . S
C201 C203 1.413 . S
C202 H197 0.930 . S
C202 C200 1.378 . S
C202 C201 1.348 . S
C203 C199 1.415 . S
C203 C201 1.413 . S
C203 C233 1.437 . S
H204 C233 0.929 . S
N205 Gd178 2.570 . S
N205 C206 1.359 . S
N205 C209 1.343 . S
C206 C199 1.422 . S
C206 N205 1.359 . S
C206 C208 1.421 . S
C207 C208 1.422 . S
C207 C210 1.321 . S
C207 H234 0.931 . S
C208 C206 1.421 . S
C208 C207 1.422 . S
C208 C232 1.417 . S
C209 H186 0.931 . S
C209 N205 1.343 . S
C209 C210 1.390 . S
C210 H188 0.930 . S
C210 C207 1.321 . S
C210 C209 1.390 . S
O211 Gd179 2.386 . S
O211 C223 1.265 . S
O212 Gd178 2.353 . S
O212 C223 1.242 . S
O213 Gd178 2.468 . S
O213 C231 1.263 . S
O214 Gd178 2.427 . S
O214 C231 1.252 . S
O215 Gd179 2.307 . S
O215 C224 1.261 . S
O216 Gd178 2.388 . S
O216 C224 1.252 . S
O217 Gd178 2.386 . S
O217 C235 1.265 . S
O218 Gd179 2.353 . S
O218 C235 1.242 . S
O219 Gd179 2.468 . S
O219 C243 1.263 . S
O220 Gd179 2.427 . S
O220 C243 1.252 . S
O221 Gd178 2.307 . S
O221 C236 1.261 . S
O222 Gd179 2.388 . S
O222 C236 1.252 . S
C223 O211 1.265 . S
C223 O212 1.242 . S
C224 O215 1.261 . S
C224 O216 1.252 . S
C225 C228 1.394 . S
C225 C230 1.370 . S
C225 C231 1.500 . S
C226 C229 1.383 . S
C226 C230 1.395 1_545 S
C227 C228 1.396 1_545 S
C227 C229 1.365 . S
C227 H244 0.929 . S
C228 C225 1.394 . S
C228 C227 1.396 1_565 S
C228 H245 0.930 . S
C229 C226 1.383 . S
C229 C227 1.365 . S
C229 H246 0.931 . S
C230 C225 1.370 . S
C230 C226 1.395 1_565 S
C230 H247 0.930 . S
C231 Gd178 2.805 . S
C231 O213 1.263 . S
C231 O214 1.252 . S
C231 C225 1.500 . S
C232 H194 0.930 . S
C232 C208 1.417 . S
C232 C233 1.329 . S
C233 C203 1.437 . S
C233 H204 0.929 . S
C233 C232 1.329 . S
H234 C207 0.931 . S
C235 O217 1.265 . S
C235 O218 1.242 . S
C236 O221 1.261 . S
C236 O222 1.252 . S
C237 C240 1.394 . S
C237 C242 1.370 . S
C237 C243 1.500 . S
C238 C241 1.383 . S
C238 C242 1.395 . S
C239 C240 1.396 . S
C239 C241 1.365 . S
C239 H248 0.929 . S
C240 C237 1.394 . S
C240 C239 1.396 . S
C240 H249 0.930 . S
C241 C238 1.383 . S
C241 C239 1.365 . S
C241 H250 0.931 . S
C242 C237 1.370 . S
C242 C238 1.395 . S
C242 H251 0.930 . S
C243 Gd179 2.805 . S
C243 O219 1.263 . S
C243 O220 1.252 . S
C243 C237 1.500 . S
H244 C227 0.929 . S
H245 C228 0.930 . S
H246 C229 0.931 . S
H247 C230 0.930 . S
H248 C239 0.929 . S
H249 C240 0.930 . S
H250 C241 0.931 . S
H251 C242 0.930 . S
C252 C254 1.422 . S
C252 C256 1.415 . S
C252 N258 1.369 . S
C253 C254 1.421 . S
C253 C255 1.417 . S
C253 C265 1.422 . S
C254 C252 1.422 . S
C254 C253 1.421 . S
C254 N264 1.359 . S
C255 C253 1.417 . S
C255 C257 1.329 . S
C255 H274 0.930 . S
C256 C252 1.415 . S
C256 C257 1.437 . S
C256 C260 1.413 . S
C257 C255 1.329 . S
C257 C256 1.437 . S
C257 H279 0.929 . S
N258 C252 1.369 . S
N258 C259 1.338 . S
N258 Gd263 2.622 . S
C259 N258 1.338 . S
C259 C261 1.378 . S
C259 H271 0.929 . S
C260 C256 1.413 . S
C260 C261 1.348 . S
C260 H276 0.931 . S
C261 C259 1.378 . S
C261 C260 1.348 . S
C261 H277 0.930 . S
Gd262 N282 2.622 . S
Gd262 N289 2.570 . S
Gd262 O296 2.353 . S
Gd262 O297 2.468 . S
Gd262 O298 2.427 . S
Gd262 O300 2.388 . S
Gd262 O301 2.386 . S
Gd262 O305 2.307 . S
Gd262 C315 2.805 . S
Gd263 N258 2.622 . S
Gd263 N264 2.570 . S
Gd263 O295 2.386 . S
Gd263 O299 2.307 . S
Gd263 O302 2.353 . S
Gd263 O303 2.468 . S
Gd263 O304 2.427 . S
Gd263 O306 2.388 . S
Gd263 C327 2.805 . S
N264 C254 1.359 . S
N264 Gd263 2.570 . S
N264 C266 1.343 . S
C265 C253 1.422 . S
C265 C267 1.321 . S
C265 H273 0.931 . S
C266 N264 1.343 . S
C266 C267 1.390 . S
C266 H268 0.931 . S
C267 C265 1.321 . S
C267 C266 1.390 . S
C267 H269 0.930 . S
H268 C266 0.931 . S
H269 C267 0.930 . S
H270 C293 0.931 . S
H271 C259 0.929 . S
H272 C294 0.930 . S
H273 C265 0.931 . S
H274 C255 0.930 . S
H275 C284 0.929 . S
H276 C260 0.931 . S
H277 C261 0.930 . S
H278 C316 0.930 . S
H279 C257 0.929 . S
H280 C285 0.931 . S
H281 C286 0.930 . S
N282 Gd262 2.622 . S
N282 C283 1.369 . S
N282 C284 1.338 . S
C283 N282 1.369 . S
C283 C287 1.415 . S
C283 C290 1.422 . S
C284 H275 0.929 . S
C284 N282 1.338 . S
C284 C286 1.378 . S
C285 H280 0.931 . S
C285 C286 1.348 . S
C285 C287 1.413 . S
C286 H281 0.930 . S
C286 C284 1.378 . S
C286 C285 1.348 . S
C287 C283 1.415 . S
C287 C285 1.413 . S
C287 C317 1.437 . S
H288 C317 0.929 . S
N289 Gd262 2.570 . S
N289 C290 1.359 . S
N289 C293 1.343 . S
C290 C283 1.422 . S
C290 N289 1.359 . S
C290 C292 1.421 . S
C291 C292 1.422 . S
C291 C294 1.321 . S
C291 H318 0.931 . S
C292 C290 1.421 . S
C292 C291 1.422 . S
C292 C316 1.417 . S
C293 H270 0.931 . S
C293 N289 1.343 . S
C293 C294 1.390 . S
C294 H272 0.930 . S
C294 C291 1.321 . S
C294 C293 1.390 . S
O295 Gd263 2.386 . S
O295 C307 1.265 . S
O296 Gd262 2.353 . S
O296 C307 1.242 . S
O297 Gd262 2.468 . S
O297 C315 1.263 . S
O298 Gd262 2.427 . S
O298 C315 1.252 . S
O299 Gd263 2.307 . S
O299 C308 1.261 . S
O300 Gd262 2.388 . S
O300 C308 1.252 . S
O301 Gd262 2.386 . S
O301 C319 1.265 . S
O302 Gd263 2.353 . S
O302 C319 1.242 . S
O303 Gd263 2.468 . S
O303 C327 1.263 . S
O304 Gd263 2.427 . S
O304 C327 1.252 . S
O305 Gd262 2.307 . S
O305 C320 1.261 . S
O306 Gd263 2.388 . S
O306 C320 1.252 . S
C307 O295 1.265 . S
C307 O296 1.242 . S
C308 O299 1.261 . S
C308 O300 1.252 . S
C309 C312 1.394 . S
C309 C314 1.370 . S
C309 C315 1.500 . S
C310 C313 1.383 . S
C310 C314 1.395 . S
C311 C312 1.396 . S
C311 C313 1.365 . S
C311 H328 0.929 . S
C312 C309 1.394 . S
C312 C311 1.396 . S
C312 H329 0.930 . S
C313 C310 1.383 . S
C313 C311 1.365 . S
C313 H330 0.931 . S
C314 C309 1.370 . S
C314 C310 1.395 . S
C314 H331 0.930 . S
C315 Gd262 2.805 . S
C315 O297 1.263 . S
C315 O298 1.252 . S
C315 C309 1.500 . S
C316 H278 0.930 . S
C316 C292 1.417 . S
C316 C317 1.329 . S
C317 C287 1.437 . S
C317 H288 0.929 . S
C317 C316 1.329 . S
H318 C291 0.931 . S
C319 O301 1.265 . S
C319 O302 1.242 . S
C320 O305 1.261 . S
C320 O306 1.252 . S
C321 C324 1.394 . S
C321 C326 1.370 . S
C321 C327 1.500 . S
C322 C325 1.383 . S
C322 C326 1.395 . S
C323 C324 1.396 . S
C323 C325 1.365 . S
C323 H332 0.929 . S
C324 C321 1.394 . S
C324 C323 1.396 . S
C324 H333 0.930 . S
C325 C322 1.383 . S
C325 C323 1.365 . S
C325 H334 0.931 . S
C326 C321 1.370 . S
C326 C322 1.395 . S
C326 H335 0.930 . S
C327 Gd263 2.805 . S
C327 O303 1.263 . S
C327 O304 1.252 . S
C327 C321 1.500 . S
H328 C311 0.929 . S
H329 C312 0.930 . S
H330 C313 0.931 . S
H331 C314 0.930 . S
H332 C323 0.929 . S
H333 C324 0.930 . S
H334 C325 0.931 . S
H335 C326 0.930 . S
C336 C338 1.422 . S
C336 C340 1.415 . S
C336 N342 1.369 . S
C337 C338 1.421 . S
C337 C339 1.417 . S
C337 C349 1.422 . S
C338 C336 1.422 . S
C338 C337 1.421 . S
C338 N348 1.359 . S
C339 C337 1.417 . S
C339 C341 1.329 . S
C339 H358 0.930 . S
C340 C336 1.415 . S
C340 C341 1.437 . S
C340 C344 1.413 . S
C341 C339 1.329 . S
C341 C340 1.437 . S
C341 H363 0.929 . S
N342 C336 1.369 . S
N342 C343 1.338 . S
N342 Gd347 2.622 . S
C343 N342 1.338 . S
C343 C345 1.378 . S
C343 H355 0.929 . S
C344 C340 1.413 . S
C344 C345 1.348 . S
C344 H360 0.931 . S
C345 C343 1.378 . S
C345 C344 1.348 . S
C345 H361 0.930 . S
Gd346 N366 2.622 . S
Gd346 N373 2.570 . S
Gd346 O380 2.353 . S
Gd346 O381 2.468 . S
Gd346 O382 2.427 . S
Gd346 O384 2.388 . S
Gd346 O385 2.386 . S
Gd346 O389 2.307 . S
Gd346 C399 2.805 . S
Gd347 N342 2.622 . S
Gd347 N348 2.570 . S
Gd347 O379 2.386 . S
Gd347 O383 2.307 . S
Gd347 O386 2.353 . S
Gd347 O387 2.468 . S
Gd347 O388 2.427 . S
Gd347 O390 2.388 . S
Gd347 C411 2.805 . S
N348 C338 1.359 . S
N348 Gd347 2.570 . S
N348 C350 1.343 . S
C349 C337 1.422 . S
C349 C351 1.321 . S
C349 H357 0.931 . S
C350 N348 1.343 . S
C350 C351 1.390 . S
C350 H352 0.931 . S
C351 C349 1.321 . S
C351 C350 1.390 . S
C351 H353 0.930 . S
H352 C350 0.931 . S
H353 C351 0.930 . S
H354 C377 0.931 . S
H355 C343 0.929 . S
H356 C378 0.930 . S
H357 C349 0.931 . S
H358 C339 0.930 . S
H359 C368 0.929 . S
H360 C344 0.931 . S
H361 C345 0.930 . S
H362 C400 0.930 . S
H363 C341 0.929 . S
H364 C369 0.931 . S
H365 C370 0.930 . S
N366 Gd346 2.622 . S
N366 C367 1.369 . S
N366 C368 1.338 . S
C367 N366 1.369 . S
C367 C371 1.415 . S
C367 C374 1.422 . S
C368 H359 0.929 . S
C368 N366 1.338 . S
C368 C370 1.378 . S
C369 H364 0.931 . S
C369 C370 1.348 . S
C369 C371 1.413 . S
C370 H365 0.930 . S
C370 C368 1.378 . S
C370 C369 1.348 . S
C371 C367 1.415 . S
C371 C369 1.413 . S
C371 C401 1.437 . S
H372 C401 0.929 . S
N373 Gd346 2.570 . S
N373 C374 1.359 . S
N373 C377 1.343 . S
C374 C367 1.422 . S
C374 N373 1.359 . S
C374 C376 1.421 . S
C375 C376 1.422 . S
C375 C378 1.321 . S
C375 H402 0.931 . S
C376 C374 1.421 . S
C376 C375 1.422 . S
C376 C400 1.417 . S
C377 H354 0.931 . S
C377 N373 1.343 . S
C377 C378 1.390 . S
C378 H356 0.930 . S
C378 C375 1.321 . S
C378 C377 1.390 . S
O379 Gd347 2.386 . S
O379 C391 1.265 . S
O380 Gd346 2.353 . S
O380 C391 1.242 . S
O381 Gd346 2.468 . S
O381 C399 1.263 . S
O382 Gd346 2.427 . S
O382 C399 1.252 . S
O383 Gd347 2.307 . S
O383 C392 1.261 . S
O384 Gd346 2.388 . S
O384 C392 1.252 . S
O385 Gd346 2.386 . S
O385 C403 1.265 . S
O386 Gd347 2.353 . S
O386 C403 1.242 . S
O387 Gd347 2.468 . S
O387 C411 1.263 . S
O388 Gd347 2.427 . S
O388 C411 1.252 . S
O389 Gd346 2.307 . S
O389 C404 1.261 . S
O390 Gd347 2.388 . S
O390 C404 1.252 . S
C391 O379 1.265 . S
C391 O380 1.242 . S
C392 O383 1.261 . S
C392 O384 1.252 . S
C393 C396 1.394 . S
C393 C398 1.370 . S
C393 C399 1.500 . S
C394 C397 1.383 . S
C394 C398 1.395 1_655 S
C395 C396 1.396 1_655 S
C395 C397 1.365 . S
C395 H412 0.929 . S
C396 C393 1.394 . S
C396 C395 1.396 1_455 S
C396 H413 0.930 . S
C397 C394 1.383 . S
C397 C395 1.365 . S
C397 H414 0.931 . S
C398 C393 1.370 . S
C398 C394 1.395 1_455 S
C398 H415 0.930 . S
C399 Gd346 2.805 . S
C399 O381 1.263 . S
C399 O382 1.252 . S
C399 C393 1.500 . S
C400 H362 0.930 . S
C400 C376 1.417 . S
C400 C401 1.329 . S
C401 C371 1.437 . S
C401 H372 0.929 . S
C401 C400 1.329 . S
H402 C375 0.931 . S
C403 O385 1.265 . S
C403 O386 1.242 . S
C404 O389 1.261 . S
C404 O390 1.252 . S
C405 C408 1.394 . S
C405 C410 1.370 . S
C405 C411 1.500 . S
C406 C409 1.383 . S
C406 C410 1.395 . S
C407 C408 1.396 . S
C407 C409 1.365 . S
C407 H416 0.929 . S
C408 C405 1.394 . S
C408 C407 1.396 . S
C408 H417 0.930 . S
C409 C406 1.383 . S
C409 C407 1.365 . S
C409 H418 0.931 . S
C410 C405 1.370 . S
C410 C406 1.395 . S
C410 H419 0.930 . S
C411 Gd347 2.805 . S
C411 O387 1.263 . S
C411 O388 1.252 . S
C411 C405 1.500 . S
H412 C395 0.929 . S
H413 C396 0.930 . S
H414 C397 0.931 . S
H415 C398 0.930 . S
H416 C407 0.929 . S
H417 C408 0.930 . S
H418 C409 0.931 . S
H419 C410 0.930 . S
C420 C422 1.422 . S
C420 C424 1.415 . S
C420 N426 1.369 . S
C421 C422 1.421 . S
C421 C423 1.417 . S
C421 C433 1.422 . S
C422 C420 1.422 . S
C422 C421 1.421 . S
C422 N432 1.359 . S
C423 C421 1.417 . S
C423 C425 1.329 . S
C423 H442 0.930 . S
C424 C420 1.415 . S
C424 C425 1.437 . S
C424 C428 1.413 . S
C425 C423 1.329 . S
C425 C424 1.437 . S
C425 H447 0.929 . S
N426 C420 1.369 . S
N426 C427 1.338 . S
N426 Gd431 2.622 . S
C427 N426 1.338 . S
C427 C429 1.378 . S
C427 H439 0.929 . S
C428 C424 1.413 . S
C428 C429 1.348 . S
C428 H444 0.931 . S
C429 C427 1.378 . S
C429 C428 1.348 . S
C429 H445 0.930 . S
Gd430 N450 2.622 . S
Gd430 N457 2.570 . S
Gd430 O464 2.353 . S
Gd430 O465 2.468 . S
Gd430 O466 2.427 . S
Gd430 O468 2.388 . S
Gd430 O469 2.386 . S
Gd430 O473 2.307 . S
Gd430 C483 2.805 . S
Gd431 N426 2.622 . S
Gd431 N432 2.570 . S
Gd431 O463 2.386 . S
Gd431 O467 2.307 . S
Gd431 O470 2.353 . S
Gd431 O471 2.468 . S
Gd431 O472 2.427 . S
Gd431 O474 2.388 . S
Gd431 C495 2.805 . S
N432 C422 1.359 . S
N432 Gd431 2.570 . S
N432 C434 1.343 . S
C433 C421 1.422 . S
C433 C435 1.321 . S
C433 H441 0.931 . S
C434 N432 1.343 . S
C434 C435 1.390 . S
C434 H436 0.931 . S
C435 C433 1.321 . S
C435 C434 1.390 . S
C435 H437 0.930 . S
H436 C434 0.931 . S
H437 C435 0.930 . S
H438 C461 0.931 . S
H439 C427 0.929 . S
H440 C462 0.930 . S
H441 C433 0.931 . S
H442 C423 0.930 . S
H443 C452 0.929 . S
H444 C428 0.931 . S
H445 C429 0.930 . S
H446 C484 0.930 . S
H447 C425 0.929 . S
H448 C453 0.931 . S
H449 C454 0.930 . S
N450 Gd430 2.622 . S
N450 C451 1.369 . S
N450 C452 1.338 . S
C451 N450 1.369 . S
C451 C455 1.415 . S
C451 C458 1.422 . S
C452 H443 0.929 . S
C452 N450 1.338 . S
C452 C454 1.378 . S
C453 H448 0.931 . S
C453 C454 1.348 . S
C453 C455 1.413 . S
C454 H449 0.930 . S
C454 C452 1.378 . S
C454 C453 1.348 . S
C455 C451 1.415 . S
C455 C453 1.413 . S
C455 C485 1.437 . S
H456 C485 0.929 . S
N457 Gd430 2.570 . S
N457 C458 1.359 . S
N457 C461 1.343 . S
C458 C451 1.422 . S
C458 N457 1.359 . S
C458 C460 1.421 . S
C459 C460 1.422 . S
C459 C462 1.321 . S
C459 H486 0.931 . S
C460 C458 1.421 . S
C460 C459 1.422 . S
C460 C484 1.417 . S
C461 H438 0.931 . S
C461 N457 1.343 . S
C461 C462 1.390 . S
C462 H440 0.930 . S
C462 C459 1.321 . S
C462 C461 1.390 . S
O463 Gd431 2.386 . S
O463 C475 1.265 . S
O464 Gd430 2.353 . S
O464 C475 1.242 . S
O465 Gd430 2.468 . S
O465 C483 1.263 . S
O466 Gd430 2.427 . S
O466 C483 1.252 . S
O467 Gd431 2.307 . S
O467 C476 1.261 . S
O468 Gd430 2.388 . S
O468 C476 1.252 . S
O469 Gd430 2.386 . S
O469 C487 1.265 . S
O470 Gd431 2.353 . S
O470 C487 1.242 . S
O471 Gd431 2.468 . S
O471 C495 1.263 . S
O472 Gd431 2.427 . S
O472 C495 1.252 . S
O473 Gd430 2.307 . S
O473 C488 1.261 . S
O474 Gd431 2.388 . S
O474 C488 1.252 . S
C475 O463 1.265 . S
C475 O464 1.242 . S
C476 O467 1.261 . S
C476 O468 1.252 . S
C477 C480 1.394 . S
C477 C482 1.370 . S
C477 C483 1.500 . S
C478 C481 1.383 . S
C478 C482 1.395 1_565 S
C479 C480 1.396 1_565 S
C479 C481 1.365 . S
C479 H496 0.929 . S
C480 C477 1.394 . S
C480 C479 1.396 1_545 S
C480 H497 0.930 . S
C481 C478 1.383 . S
C481 C479 1.365 . S
C481 H498 0.931 . S
C482 C477 1.370 . S
C482 C478 1.395 1_545 S
C482 H499 0.930 . S
C483 Gd430 2.805 . S
C483 O465 1.263 . S
C483 O466 1.252 . S
C483 C477 1.500 . S
C484 H446 0.930 . S
C484 C460 1.417 . S
C484 C485 1.329 . S
C485 C455 1.437 . S
C485 H456 0.929 . S
C485 C484 1.329 . S
H486 C459 0.931 . S
C487 O469 1.265 . S
C487 O470 1.242 . S
C488 O473 1.261 . S
C488 O474 1.252 . S
C489 C492 1.394 . S
C489 C494 1.370 . S
C489 C495 1.500 . S
C490 C493 1.383 . S
C490 C494 1.395 . S
C491 C492 1.396 . S
C491 C493 1.365 . S
C491 H500 0.929 . S
C492 C489 1.394 . S
C492 C491 1.396 . S
C492 H501 0.930 . S
C493 C490 1.383 . S
C493 C491 1.365 . S
C493 H502 0.931 . S
C494 C489 1.370 . S
C494 C490 1.395 . S
C494 H503 0.930 . S
C495 Gd431 2.805 . S
C495 O471 1.263 . S
C495 O472 1.252 . S
C495 C489 1.500 . S
H496 C479 0.929 . S
H497 C480 0.930 . S
H498 C481 0.931 . S
H499 C482 0.930 . S
H500 C491 0.929 . S
H501 C492 0.930 . S
H502 C493 0.931 . S
H503 C494 0.930 . S
C504 C506 1.422 . S
C504 C508 1.415 . S
C504 N510 1.369 . S
C505 C506 1.421 . S
C505 C507 1.417 . S
C505 C517 1.422 . S
C506 C504 1.422 . S
C506 C505 1.421 . S
C506 N516 1.359 . S
C507 C505 1.417 . S
C507 C509 1.329 . S
C507 H526 0.930 . S
C508 C504 1.415 . S
C508 C509 1.437 . S
C508 C512 1.413 . S
C509 C507 1.329 . S
C509 C508 1.437 . S
C509 H531 0.929 . S
N510 C504 1.369 . S
N510 C511 1.338 . S
N510 Gd515 2.622 . S
C511 N510 1.338 . S
C511 C513 1.378 . S
C511 H523 0.929 . S
C512 C508 1.413 . S
C512 C513 1.348 . S
C512 H528 0.931 . S
C513 C511 1.378 . S
C513 C512 1.348 . S
C513 H529 0.930 . S
Gd514 N534 2.622 . S
Gd514 N541 2.570 . S
Gd514 O548 2.353 . S
Gd514 O549 2.468 . S
Gd514 O550 2.427 . S
Gd514 O552 2.388 . S
Gd514 O553 2.386 . S
Gd514 O557 2.307 . S
Gd514 C567 2.805 . S
Gd515 N510 2.622 . S
Gd515 N516 2.570 . S
Gd515 O547 2.386 . S
Gd515 O551 2.307 . S
Gd515 O554 2.353 . S
Gd515 O555 2.468 . S
Gd515 O556 2.427 . S
Gd515 O558 2.388 . S
Gd515 C579 2.805 . S
N516 C506 1.359 . S
N516 Gd515 2.570 . S
N516 C518 1.343 . S
C517 C505 1.422 . S
C517 C519 1.321 . S
C517 H525 0.931 . S
C518 N516 1.343 . S
C518 C519 1.390 . S
C518 H520 0.931 . S
C519 C517 1.321 . S
C519 C518 1.390 . S
C519 H521 0.930 . S
H520 C518 0.931 . S
H521 C519 0.930 . S
H522 C545 0.931 . S
H523 C511 0.929 . S
H524 C546 0.930 . S
H525 C517 0.931 . S
H526 C507 0.930 . S
H527 C536 0.929 . S
H528 C512 0.931 . S
H529 C513 0.930 . S
H530 C568 0.930 . S
H531 C509 0.929 . S
H532 C537 0.931 . S
H533 C538 0.930 . S
N534 Gd514 2.622 . S
N534 C535 1.369 . S
N534 C536 1.338 . S
C535 N534 1.369 . S
C535 C539 1.415 . S
C535 C542 1.422 . S
C536 H527 0.929 . S
C536 N534 1.338 . S
C536 C538 1.378 . S
C537 H532 0.931 . S
C537 C538 1.348 . S
C537 C539 1.413 . S
C538 H533 0.930 . S
C538 C536 1.378 . S
C538 C537 1.348 . S
C539 C535 1.415 . S
C539 C537 1.413 . S
C539 C569 1.437 . S
H540 C569 0.929 . S
N541 Gd514 2.570 . S
N541 C542 1.359 . S
N541 C545 1.343 . S
C542 C535 1.422 . S
C542 N541 1.359 . S
C542 C544 1.421 . S
C543 C544 1.422 . S
C543 C546 1.321 . S
C543 H570 0.931 . S
C544 C542 1.421 . S
C544 C543 1.422 . S
C544 C568 1.417 . S
C545 H522 0.931 . S
C545 N541 1.343 . S
C545 C546 1.390 . S
C546 H524 0.930 . S
C546 C543 1.321 . S
C546 C545 1.390 . S
O547 Gd515 2.386 . S
O547 C559 1.265 . S
O548 Gd514 2.353 . S
O548 C559 1.242 . S
O549 Gd514 2.468 . S
O549 C567 1.263 . S
O550 Gd514 2.427 . S
O550 C567 1.252 . S
O551 Gd515 2.307 . S
O551 C560 1.261 . S
O552 Gd514 2.388 . S
O552 C560 1.252 . S
O553 Gd514 2.386 . S
O553 C571 1.265 . S
O554 Gd515 2.353 . S
O554 C571 1.242 . S
O555 Gd515 2.468 . S
O555 C579 1.263 . S
O556 Gd515 2.427 . S
O556 C579 1.252 . S
O557 Gd514 2.307 . S
O557 C572 1.261 . S
O558 Gd515 2.388 . S
O558 C572 1.252 . S
C559 O547 1.265 . S
C559 O548 1.242 . S
C560 O551 1.261 . S
C560 O552 1.252 . S
C561 C564 1.394 . S
C561 C566 1.370 . S
C561 C567 1.500 . S
C562 C565 1.383 . S
C562 C566 1.395 . S
C563 C564 1.396 . S
C563 C565 1.365 . S
C563 H580 0.929 . S
C564 C561 1.394 . S
C564 C563 1.396 . S
C564 H581 0.930 . S
C565 C562 1.383 . S
C565 C563 1.365 . S
C565 H582 0.931 . S
C566 C561 1.370 . S
C566 C562 1.395 . S
C566 H583 0.930 . S
C567 Gd514 2.805 . S
C567 O549 1.263 . S
C567 O550 1.252 . S
C567 C561 1.500 . S
C568 H530 0.930 . S
C568 C544 1.417 . S
C568 C569 1.329 . S
C569 C539 1.437 . S
C569 H540 0.929 . S
C569 C568 1.329 . S
H570 C543 0.931 . S
C571 O553 1.265 . S
C571 O554 1.242 . S
C572 O557 1.261 . S
C572 O558 1.252 . S
C573 C576 1.394 . S
C573 C578 1.370 . S
C573 C579 1.500 . S
C574 C577 1.383 . S
C574 C578 1.395 . S
C575 C576 1.396 . S
C575 C577 1.365 . S
C575 H584 0.929 . S
C576 C573 1.394 . S
C576 C575 1.396 . S
C576 H585 0.930 . S
C577 C574 1.383 . S
C577 C575 1.365 . S
C577 H586 0.931 . S
C578 C573 1.370 . S
C578 C574 1.395 . S
C578 H587 0.930 . S
C579 Gd515 2.805 . S
C579 O555 1.263 . S
C579 O556 1.252 . S
C579 C573 1.500 . S
H580 C563 0.929 . S
H581 C564 0.930 . S
H582 C565 0.931 . S
H583 C566 0.930 . S
H584 C575 0.929 . S
H585 C576 0.930 . S
H586 C577 0.931 . S
H587 C578 0.930 . S
C588 C590 1.422 . S
C588 C592 1.415 . S
C588 N594 1.369 . S
C589 C590 1.421 . S
C589 C591 1.417 . S
C589 C601 1.422 . S
C590 C588 1.422 . S
C590 C589 1.421 . S
C590 N600 1.359 . S
C591 C589 1.417 . S
C591 C593 1.329 . S
C591 H610 0.930 . S
C592 C588 1.415 . S
C592 C593 1.437 . S
C592 C596 1.413 . S
C593 C591 1.329 . S
C593 C592 1.437 . S
C593 H615 0.929 . S
N594 C588 1.369 . S
N594 C595 1.338 . S
N594 Gd599 2.622 . S
C595 N594 1.338 . S
C595 C597 1.378 . S
C595 H607 0.929 . S
C596 C592 1.413 . S
C596 C597 1.348 . S
C596 H612 0.931 . S
C597 C595 1.378 . S
C597 C596 1.348 . S
C597 H613 0.930 . S
Gd598 N618 2.622 . S
Gd598 N625 2.570 . S
Gd598 O632 2.353 . S
Gd598 O633 2.468 . S
Gd598 O634 2.427 . S
Gd598 O636 2.388 . S
Gd598 O637 2.386 . S
Gd598 O641 2.307 . S
Gd598 C651 2.805 . S
Gd599 N594 2.622 . S
Gd599 N600 2.570 . S
Gd599 O631 2.386 . S
Gd599 O635 2.307 . S
Gd599 O638 2.353 . S
Gd599 O639 2.468 . S
Gd599 O640 2.427 . S
Gd599 O642 2.388 . S
Gd599 C663 2.805 . S
N600 C590 1.359 . S
N600 Gd599 2.570 . S
N600 C602 1.343 . S
C601 C589 1.422 . S
C601 C603 1.321 . S
C601 H609 0.931 . S
C602 N600 1.343 . S
C602 C603 1.390 . S
C602 H604 0.931 . S
C603 C601 1.321 . S
C603 C602 1.390 . S
C603 H605 0.930 . S
H604 C602 0.931 . S
H605 C603 0.930 . S
H606 C629 0.931 . S
H607 C595 0.929 . S
H608 C630 0.930 . S
H609 C601 0.931 . S
H610 C591 0.930 . S
H611 C620 0.929 . S
H612 C596 0.931 . S
H613 C597 0.930 . S
H614 C652 0.930 . S
H615 C593 0.929 . S
H616 C621 0.931 . S
H617 C622 0.930 . S
N618 Gd598 2.622 . S
N618 C619 1.369 . S
N618 C620 1.338 . S
C619 N618 1.369 . S
C619 C623 1.415 . S
C619 C626 1.422 . S
C620 H611 0.929 . S
C620 N618 1.338 . S
C620 C622 1.378 . S
C621 H616 0.931 . S
C621 C622 1.348 . S
C621 C623 1.413 . S
C622 H617 0.930 . S
C622 C620 1.378 . S
C622 C621 1.348 . S
C623 C619 1.415 . S
C623 C621 1.413 . S
C623 C653 1.437 . S
H624 C653 0.929 . S
N625 Gd598 2.570 . S
N625 C626 1.359 . S
N625 C629 1.343 . S
C626 C619 1.422 . S
C626 N625 1.359 . S
C626 C628 1.421 . S
C627 C628 1.422 . S
C627 C630 1.321 . S
C627 H654 0.931 . S
C628 C626 1.421 . S
C628 C627 1.422 . S
C628 C652 1.417 . S
C629 H606 0.931 . S
C629 N625 1.343 . S
C629 C630 1.390 . S
C630 H608 0.930 . S
C630 C627 1.321 . S
C630 C629 1.390 . S
O631 Gd599 2.386 . S
O631 C643 1.265 . S
O632 Gd598 2.353 . S
O632 C643 1.242 . S
O633 Gd598 2.468 . S
O633 C651 1.263 . S
O634 Gd598 2.427 . S
O634 C651 1.252 . S
O635 Gd599 2.307 . S
O635 C644 1.261 . S
O636 Gd598 2.388 . S
O636 C644 1.252 . S
O637 Gd598 2.386 . S
O637 C655 1.265 . S
O638 Gd599 2.353 . S
O638 C655 1.242 . S
O639 Gd599 2.468 . S
O639 C663 1.263 . S
O640 Gd599 2.427 . S
O640 C663 1.252 . S
O641 Gd598 2.307 . S
O641 C656 1.261 . S
O642 Gd599 2.388 . S
O642 C656 1.252 . S
C643 O631 1.265 . S
C643 O632 1.242 . S
C644 O635 1.261 . S
C644 O636 1.252 . S
C645 C648 1.394 . S
C645 C650 1.370 . S
C645 C651 1.500 . S
C646 C649 1.383 . S
C646 C650 1.395 1_455 S
C647 C648 1.396 1_455 S
C647 C649 1.365 . S
C647 H664 0.929 . S
C648 C645 1.394 . S
C648 C647 1.396 1_655 S
C648 H665 0.930 . S
C649 C646 1.383 . S
C649 C647 1.365 . S
C649 H666 0.931 . S
C650 C645 1.370 . S
C650 C646 1.395 1_655 S
C650 H667 0.930 . S
C651 Gd598 2.805 . S
C651 O633 1.263 . S
C651 O634 1.252 . S
C651 C645 1.500 . S
C652 H614 0.930 . S
C652 C628 1.417 . S
C652 C653 1.329 . S
C653 C623 1.437 . S
C653 H624 0.929 . S
C653 C652 1.329 . S
H654 C627 0.931 . S
C655 O637 1.265 . S
C655 O638 1.242 . S
C656 O641 1.261 . S
C656 O642 1.252 . S
C657 C660 1.394 . S
C657 C662 1.370 . S
C657 C663 1.500 . S
C658 C661 1.383 . S
C658 C662 1.395 . S
C659 C660 1.396 . S
C659 C661 1.365 . S
C659 H668 0.929 . S
C660 C657 1.394 . S
C660 C659 1.396 . S
C660 H669 0.930 . S
C661 C658 1.383 . S
C661 C659 1.365 . S
C661 H670 0.931 . S
C662 C657 1.370 . S
C662 C658 1.395 . S
C662 H671 0.930 . S
C663 Gd599 2.805 . S
C663 O639 1.263 . S
C663 O640 1.252 . S
C663 C657 1.500 . S
H664 C647 0.929 . S
H665 C648 0.930 . S
H666 C649 0.931 . S
H667 C650 0.930 . S
H668 C659 0.929 . S
H669 C660 0.930 . S
H670 C661 0.931 . S
H671 C662 0.930 . S
C672 C674 1.422 . S
C672 C676 1.415 . S
C672 N678 1.369 . S
C673 C674 1.421 . S
C673 C675 1.417 . S
C673 C685 1.422 . S
C674 C672 1.422 . S
C674 C673 1.421 . S
C674 N684 1.359 . S
C675 C673 1.417 . S
C675 C677 1.329 . S
C675 H694 0.930 . S
C676 C672 1.415 . S
C676 C677 1.437 . S
C676 C680 1.413 . S
C677 C675 1.329 . S
C677 C676 1.437 . S
C677 H699 0.929 . S
N678 C672 1.369 . S
N678 C679 1.338 . S
N678 Gd683 2.622 . S
C679 N678 1.338 . S
C679 C681 1.378 . S
C679 H691 0.929 . S
C680 C676 1.413 . S
C680 C681 1.348 . S
C680 H696 0.931 . S
C681 C679 1.378 . S
C681 C680 1.348 . S
C681 H697 0.930 . S
Gd682 N702 2.622 . S
Gd682 N709 2.570 . S
Gd682 O716 2.353 . S
Gd682 O717 2.468 . S
Gd682 O718 2.427 . S
Gd682 O720 2.388 . S
Gd682 O721 2.386 . S
Gd682 O725 2.307 . S
Gd682 C735 2.805 . S
Gd683 N678 2.622 . S
Gd683 N684 2.570 . S
Gd683 O715 2.386 . S
Gd683 O719 2.307 . S
Gd683 O722 2.353 . S
Gd683 O723 2.468 . S
Gd683 O724 2.427 . S
Gd683 O726 2.388 . S
Gd683 C747 2.805 . S
N684 C674 1.359 . S
N684 Gd683 2.570 . S
N684 C686 1.343 . S
C685 C673 1.422 . S
C685 C687 1.321 . S
C685 H693 0.931 . S
C686 N684 1.343 . S
C686 C687 1.390 . S
C686 H688 0.931 . S
C687 C685 1.321 . S
C687 C686 1.390 . S
C687 H689 0.930 . S
H688 C686 0.931 . S
H689 C687 0.930 . S
H690 C713 0.931 . S
H691 C679 0.929 . S
H692 C714 0.930 . S
H693 C685 0.931 . S
H694 C675 0.930 . S
H695 C704 0.929 . S
H696 C680 0.931 . S
H697 C681 0.930 . S
H698 C736 0.930 . S
H699 C677 0.929 . S
H700 C705 0.931 . S
H701 C706 0.930 . S
N702 Gd682 2.622 . S
N702 C703 1.369 . S
N702 C704 1.338 . S
C703 N702 1.369 . S
C703 C707 1.415 . S
C703 C710 1.422 . S
C704 H695 0.929 . S
C704 N702 1.338 . S
C704 C706 1.378 . S
C705 H700 0.931 . S
C705 C706 1.348 . S
C705 C707 1.413 . S
C706 H701 0.930 . S
C706 C704 1.378 . S
C706 C705 1.348 . S
C707 C703 1.415 . S
C707 C705 1.413 . S
C707 C737 1.437 . S
H708 C737 0.929 . S
N709 Gd682 2.570 . S
N709 C710 1.359 . S
N709 C713 1.343 . S
C710 C703 1.422 . S
C710 N709 1.359 . S
C710 C712 1.421 . S
C711 C712 1.422 . S
C711 C714 1.321 . S
C711 H738 0.931 . S
C712 C710 1.421 . S
C712 C711 1.422 . S
C712 C736 1.417 . S
C713 H690 0.931 . S
C713 N709 1.343 . S
C713 C714 1.390 . S
C714 H692 0.930 . S
C714 C711 1.321 . S
C714 C713 1.390 . S
O715 Gd683 2.386 . S
O715 C727 1.265 . S
O716 Gd682 2.353 . S
O716 C727 1.242 . S
O717 Gd682 2.468 . S
O717 C735 1.263 . S
O718 Gd682 2.427 . S
O718 C735 1.252 . S
O719 Gd683 2.307 . S
O719 C728 1.261 . S
O720 Gd682 2.388 . S
O720 C728 1.252 . S
O721 Gd682 2.386 . S
O721 C739 1.265 . S
O722 Gd683 2.353 . S
O722 C739 1.242 . S
O723 Gd683 2.468 . S
O723 C747 1.263 . S
O724 Gd683 2.427 . S
O724 C747 1.252 . S
O725 Gd682 2.307 . S
O725 C740 1.261 . S
O726 Gd683 2.388 . S
O726 C740 1.252 . S
C727 O715 1.265 . S
C727 O716 1.242 . S
C728 O719 1.261 . S
C728 O720 1.252 . S
C729 C732 1.394 . S
C729 C734 1.370 . S
C729 C735 1.500 . S
C730 C733 1.383 . S
C730 C734 1.395 1_545 S
C731 C732 1.396 1_545 S
C731 C733 1.365 . S
C731 H748 0.929 . S
C732 C729 1.394 . S
C732 C731 1.396 1_565 S
C732 H749 0.930 . S
C733 C730 1.383 . S
C733 C731 1.365 . S
C733 H750 0.931 . S
C734 C729 1.370 . S
C734 C730 1.395 1_565 S
C734 H751 0.930 . S
C735 Gd682 2.805 . S
C735 O717 1.263 . S
C735 O718 1.252 . S
C735 C729 1.500 . S
C736 H698 0.930 . S
C736 C712 1.417 . S
C736 C737 1.329 . S
C737 C707 1.437 . S
C737 H708 0.929 . S
C737 C736 1.329 . S
H738 C711 0.931 . S
C739 O721 1.265 . S
C739 O722 1.242 . S
C740 O725 1.261 . S
C740 O726 1.252 . S
C741 C744 1.394 . S
C741 C746 1.370 . S
C741 C747 1.500 . S
C742 C745 1.383 . S
C742 C746 1.395 . S
C743 C744 1.396 . S
C743 C745 1.365 . S
C743 H752 0.929 . S
C744 C741 1.394 . S
C744 C743 1.396 . S
C744 H753 0.930 . S
C745 C742 1.383 . S
C745 C743 1.365 . S
C745 H754 0.931 . S
C746 C741 1.370 . S
C746 C742 1.395 . S
C746 H755 0.930 . S
C747 Gd683 2.805 . S
C747 O723 1.263 . S
C747 O724 1.252 . S
C747 C741 1.500 . S
H748 C731 0.929 . S
H749 C732 0.930 . S
H750 C733 0.931 . S
H751 C734 0.930 . S
H752 C743 0.929 . S
H753 C744 0.930 . S
H754 C745 0.931 . S
H755 C746 0.930 . S
C756 C758 1.422 . S
C756 C760 1.415 . S
C756 N762 1.369 . S
C757 C758 1.421 . S
C757 C759 1.417 . S
C757 C769 1.422 . S
C758 C756 1.422 . S
C758 C757 1.421 . S
C758 N768 1.359 . S
C759 C757 1.417 . S
C759 C761 1.329 . S
C759 H778 0.930 . S
C760 C756 1.415 . S
C760 C761 1.437 . S
C760 C764 1.413 . S
C761 C759 1.329 . S
C761 C760 1.437 . S
C761 H783 0.929 . S
N762 C756 1.369 . S
N762 C763 1.338 . S
N762 Gd767 2.622 . S
C763 N762 1.338 . S
C763 C765 1.378 . S
C763 H775 0.929 . S
C764 C760 1.413 . S
C764 C765 1.348 . S
C764 H780 0.931 . S
C765 C763 1.378 . S
C765 C764 1.348 . S
C765 H781 0.930 . S
Gd766 N786 2.622 . S
Gd766 N793 2.570 . S
Gd766 O800 2.353 . S
Gd766 O801 2.468 . S
Gd766 O802 2.427 . S
Gd766 O804 2.388 . S
Gd766 O805 2.386 . S
Gd766 O809 2.307 . S
Gd766 C819 2.805 . S
Gd767 N762 2.622 . S
Gd767 N768 2.570 . S
Gd767 O799 2.386 . S
Gd767 O803 2.307 . S
Gd767 O806 2.353 . S
Gd767 O807 2.468 . S
Gd767 O808 2.427 . S
Gd767 O810 2.388 . S
Gd767 C831 2.805 . S
N768 C758 1.359 . S
N768 Gd767 2.570 . S
N768 C770 1.343 . S
C769 C757 1.422 . S
C769 C771 1.321 . S
C769 H777 0.931 . S
C770 N768 1.343 . S
C770 C771 1.390 . S
C770 H772 0.931 . S
C771 C769 1.321 . S
C771 C770 1.390 . S
C771 H773 0.930 . S
H772 C770 0.931 . S
H773 C771 0.930 . S
H774 C797 0.931 . S
H775 C763 0.929 . S
H776 C798 0.930 . S
H777 C769 0.931 . S
H778 C759 0.930 . S
H779 C788 0.929 . S
H780 C764 0.931 . S
H781 C765 0.930 . S
H782 C820 0.930 . S
H783 C761 0.929 . S
H784 C789 0.931 . S
H785 C790 0.930 . S
N786 Gd766 2.622 . S
N786 C787 1.369 . S
N786 C788 1.338 . S
C787 N786 1.369 . S
C787 C791 1.415 . S
C787 C794 1.422 . S
C788 H779 0.929 . S
C788 N786 1.338 . S
C788 C790 1.378 . S
C789 H784 0.931 . S
C789 C790 1.348 . S
C789 C791 1.413 . S
C790 H785 0.930 . S
C790 C788 1.378 . S
C790 C789 1.348 . S
C791 C787 1.415 . S
C791 C789 1.413 . S
C791 C821 1.437 . S
H792 C821 0.929 . S
N793 Gd766 2.570 . S
N793 C794 1.359 . S
N793 C797 1.343 . S
C794 C787 1.422 . S
C794 N793 1.359 . S
C794 C796 1.421 . S
C795 C796 1.422 . S
C795 C798 1.321 . S
C795 H822 0.931 . S
C796 C794 1.421 . S
C796 C795 1.422 . S
C796 C820 1.417 . S
C797 H774 0.931 . S
C797 N793 1.343 . S
C797 C798 1.390 . S
C798 H776 0.930 . S
C798 C795 1.321 . S
C798 C797 1.390 . S
O799 Gd767 2.386 . S
O799 C811 1.265 . S
O800 Gd766 2.353 . S
O800 C811 1.242 . S
O801 Gd766 2.468 . S
O801 C819 1.263 . S
O802 Gd766 2.427 . S
O802 C819 1.252 . S
O803 Gd767 2.307 . S
O803 C812 1.261 . S
O804 Gd766 2.388 . S
O804 C812 1.252 . S
O805 Gd766 2.386 . S
O805 C823 1.265 . S
O806 Gd767 2.353 . S
O806 C823 1.242 . S
O807 Gd767 2.468 . S
O807 C831 1.263 . S
O808 Gd767 2.427 . S
O808 C831 1.252 . S
O809 Gd766 2.307 . S
O809 C824 1.261 . S
O810 Gd767 2.388 . S
O810 C824 1.252 . S
C811 O799 1.265 . S
C811 O800 1.242 . S
C812 O803 1.261 . S
C812 O804 1.252 . S
C813 C816 1.394 . S
C813 C818 1.370 . S
C813 C819 1.500 . S
C814 C817 1.383 . S
C814 C818 1.395 . S
C815 C816 1.396 . S
C815 C817 1.365 . S
C815 H832 0.929 . S
C816 C813 1.394 . S
C816 C815 1.396 . S
C816 H833 0.930 . S
C817 C814 1.383 . S
C817 C815 1.365 . S
C817 H834 0.931 . S
C818 C813 1.370 . S
C818 C814 1.395 . S
C818 H835 0.930 . S
C819 Gd766 2.805 . S
C819 O801 1.263 . S
C819 O802 1.252 . S
C819 C813 1.500 . S
C820 H782 0.930 . S
C820 C796 1.417 . S
C820 C821 1.329 . S
C821 C791 1.437 . S
C821 H792 0.929 . S
C821 C820 1.329 . S
H822 C795 0.931 . S
C823 O805 1.265 . S
C823 O806 1.242 . S
C824 O809 1.261 . S
C824 O810 1.252 . S
C825 C828 1.394 . S
C825 C830 1.370 . S
C825 C831 1.500 . S
C826 C829 1.383 . S
C826 C830 1.395 . S
C827 C828 1.396 . S
C827 C829 1.365 . S
C827 H836 0.929 . S
C828 C825 1.394 . S
C828 C827 1.396 . S
C828 H837 0.930 . S
C829 C826 1.383 . S
C829 C827 1.365 . S
C829 H838 0.931 . S
C830 C825 1.370 . S
C830 C826 1.395 . S
C830 H839 0.930 . S
C831 Gd767 2.805 . S
C831 O807 1.263 . S
C831 O808 1.252 . S
C831 C825 1.500 . S
H832 C815 0.929 . S
H833 C816 0.930 . S
H834 C817 0.931 . S
H835 C818 0.930 . S
H836 C827 0.929 . S
H837 C828 0.930 . S
H838 C829 0.931 . S
H839 C830 0.930 . S
C840 C842 1.422 . S
C840 C844 1.415 . S
C840 N846 1.369 . S
C841 C842 1.421 . S
C841 C843 1.417 . S
C841 C853 1.422 . S
C842 C840 1.422 . S
C842 C841 1.421 . S
C842 N852 1.359 . S
C843 C841 1.417 . S
C843 C845 1.329 . S
C843 H862 0.930 . S
C844 C840 1.415 . S
C844 C845 1.437 . S
C844 C848 1.413 . S
C845 C843 1.329 . S
C845 C844 1.437 . S
C845 H867 0.929 . S
N846 C840 1.369 . S
N846 C847 1.338 . S
N846 Gd851 2.622 . S
C847 N846 1.338 . S
C847 C849 1.378 . S
C847 H859 0.929 . S
C848 C844 1.413 . S
C848 C849 1.348 . S
C848 H864 0.931 . S
C849 C847 1.378 . S
C849 C848 1.348 . S
C849 H865 0.930 . S
Gd850 N870 2.622 . S
Gd850 N877 2.570 . S
Gd850 O884 2.353 . S
Gd850 O885 2.468 . S
Gd850 O886 2.427 . S
Gd850 O888 2.388 . S
Gd850 O889 2.386 . S
Gd850 O893 2.307 . S
Gd850 C903 2.805 . S
Gd851 N846 2.622 . S
Gd851 N852 2.570 . S
Gd851 O883 2.386 . S
Gd851 O887 2.307 . S
Gd851 O890 2.353 . S
Gd851 O891 2.468 . S
Gd851 O892 2.427 . S
Gd851 O894 2.388 . S
Gd851 C915 2.805 . S
N852 C842 1.359 . S
N852 Gd851 2.570 . S
N852 C854 1.343 . S
C853 C841 1.422 . S
C853 C855 1.321 . S
C853 H861 0.931 . S
C854 N852 1.343 . S
C854 C855 1.390 . S
C854 H856 0.931 . S
C855 C853 1.321 . S
C855 C854 1.390 . S
C855 H857 0.930 . S
H856 C854 0.931 . S
H857 C855 0.930 . S
H858 C881 0.931 . S
H859 C847 0.929 . S
H860 C882 0.930 . S
H861 C853 0.931 . S
H862 C843 0.930 . S
H863 C872 0.929 . S
H864 C848 0.931 . S
H865 C849 0.930 . S
H866 C904 0.930 . S
H867 C845 0.929 . S
H868 C873 0.931 . S
H869 C874 0.930 . S
N870 Gd850 2.622 . S
N870 C871 1.369 . S
N870 C872 1.338 . S
C871 N870 1.369 . S
C871 C875 1.415 . S
C871 C878 1.422 . S
C872 H863 0.929 . S
C872 N870 1.338 . S
C872 C874 1.378 . S
C873 H868 0.931 . S
C873 C874 1.348 . S
C873 C875 1.413 . S
C874 H869 0.930 . S
C874 C872 1.378 . S
C874 C873 1.348 . S
C875 C871 1.415 . S
C875 C873 1.413 . S
C875 C905 1.437 . S
H876 C905 0.929 . S
N877 Gd850 2.570 . S
N877 C878 1.359 . S
N877 C881 1.343 . S
C878 C871 1.422 . S
C878 N877 1.359 . S
C878 C880 1.421 . S
C879 C880 1.422 . S
C879 C882 1.321 . S
C879 H906 0.931 . S
C880 C878 1.421 . S
C880 C879 1.422 . S
C880 C904 1.417 . S
C881 H858 0.931 . S
C881 N877 1.343 . S
C881 C882 1.390 . S
C882 H860 0.930 . S
C882 C879 1.321 . S
C882 C881 1.390 . S
O883 Gd851 2.386 . S
O883 C895 1.265 . S
O884 Gd850 2.353 . S
O884 C895 1.242 . S
O885 Gd850 2.468 . S
O885 C903 1.263 . S
O886 Gd850 2.427 . S
O886 C903 1.252 . S
O887 Gd851 2.307 . S
O887 C896 1.261 . S
O888 Gd850 2.388 . S
O888 C896 1.252 . S
O889 Gd850 2.386 . S
O889 C907 1.265 . S
O890 Gd851 2.353 . S
O890 C907 1.242 . S
O891 Gd851 2.468 . S
O891 C915 1.263 . S
O892 Gd851 2.427 . S
O892 C915 1.252 . S
O893 Gd850 2.307 . S
O893 C908 1.261 . S
O894 Gd851 2.388 . S
O894 C908 1.252 . S
C895 O883 1.265 . S
C895 O884 1.242 . S
C896 O887 1.261 . S
C896 O888 1.252 . S
C897 C900 1.394 . S
C897 C902 1.370 . S
C897 C903 1.500 . S
C898 C901 1.383 . S
C898 C902 1.395 1_655 S
C899 C900 1.396 1_655 S
C899 C901 1.365 . S
C899 H916 0.929 . S
C900 C897 1.394 . S
C900 C899 1.396 1_455 S
C900 H917 0.930 . S
C901 C898 1.383 . S
C901 C899 1.365 . S
C901 H918 0.931 . S
C902 C897 1.370 . S
C902 C898 1.395 1_455 S
C902 H919 0.930 . S
C903 Gd850 2.805 . S
C903 O885 1.263 . S
C903 O886 1.252 . S
C903 C897 1.500 . S
C904 H866 0.930 . S
C904 C880 1.417 . S
C904 C905 1.329 . S
C905 C875 1.437 . S
C905 H876 0.929 . S
C905 C904 1.329 . S
H906 C879 0.931 . S
C907 O889 1.265 . S
C907 O890 1.242 . S
C908 O893 1.261 . S
C908 O894 1.252 . S
C909 C912 1.394 . S
C909 C914 1.370 . S
C909 C915 1.500 . S
C910 C913 1.383 . S
C910 C914 1.395 . S
C911 C912 1.396 . S
C911 C913 1.365 . S
C911 H920 0.929 . S
C912 C909 1.394 . S
C912 C911 1.396 . S
C912 H921 0.930 . S
C913 C910 1.383 . S
C913 C911 1.365 . S
C913 H922 0.931 . S
C914 C909 1.370 . S
C914 C910 1.395 . S
C914 H923 0.930 . S
C915 Gd851 2.805 . S
C915 O891 1.263 . S
C915 O892 1.252 . S
C915 C909 1.500 . S
H916 C899 0.929 . S
H917 C900 0.930 . S
H918 C901 0.931 . S
H919 C902 0.930 . S
H920 C911 0.929 . S
H921 C912 0.930 . S
H922 C913 0.931 . S
H923 C914 0.930 . S
C924 C926 1.422 . S
C924 C928 1.415 . S
C924 N930 1.369 . S
C925 C926 1.421 . S
C925 C927 1.417 . S
C925 C937 1.422 . S
C926 C924 1.422 . S
C926 C925 1.421 . S
C926 N936 1.359 . S
C927 C925 1.417 . S
C927 C929 1.329 . S
C927 H946 0.930 . S
C928 C924 1.415 . S
C928 C929 1.437 . S
C928 C932 1.413 . S
C929 C927 1.329 . S
C929 C928 1.437 . S
C929 H951 0.929 . S
N930 C924 1.369 . S
N930 C931 1.338 . S
N930 Gd935 2.622 . S
C931 N930 1.338 . S
C931 C933 1.378 . S
C931 H943 0.929 . S
C932 C928 1.413 . S
C932 C933 1.348 . S
C932 H948 0.931 . S
C933 C931 1.378 . S
C933 C932 1.348 . S
C933 H949 0.930 . S
Gd934 N954 2.622 . S
Gd934 N961 2.570 . S
Gd934 O968 2.353 . S
Gd934 O969 2.468 . S
Gd934 O970 2.427 . S
Gd934 O972 2.388 . S
Gd934 O973 2.386 . S
Gd934 O977 2.307 . S
Gd934 C987 2.805 . S
Gd935 N930 2.622 . S
Gd935 N936 2.570 . S
Gd935 O967 2.386 . S
Gd935 O971 2.307 . S
Gd935 O974 2.353 . S
Gd935 O975 2.468 . S
Gd935 O976 2.427 . S
Gd935 O978 2.388 . S
Gd935 C999 2.805 . S
N936 C926 1.359 . S
N936 Gd935 2.570 . S
N936 C938 1.343 . S
C937 C925 1.422 . S
C937 C939 1.321 . S
C937 H945 0.931 . S
C938 N936 1.343 . S
C938 C939 1.390 . S
C938 H940 0.931 . S
C939 C937 1.321 . S
C939 C938 1.390 . S
C939 H941 0.930 . S
H940 C938 0.931 . S
H941 C939 0.930 . S
H942 C965 0.931 . S
H943 C931 0.929 . S
H944 C966 0.930 . S
H945 C937 0.931 . S
H946 C927 0.930 . S
H947 C956 0.929 . S
H948 C932 0.931 . S
H949 C933 0.930 . S
H950 C988 0.930 . S
H951 C929 0.929 . S
H952 C957 0.931 . S
H953 C958 0.930 . S
N954 Gd934 2.622 . S
N954 C955 1.369 . S
N954 C956 1.338 . S
C955 N954 1.369 . S
C955 C959 1.415 . S
C955 C962 1.422 . S
C956 H947 0.929 . S
C956 N954 1.338 . S
C956 C958 1.378 . S
C957 H952 0.931 . S
C957 C958 1.348 . S
C957 C959 1.413 . S
C958 H953 0.930 . S
C958 C956 1.378 . S
C958 C957 1.348 . S
C959 C955 1.415 . S
C959 C957 1.413 . S
C959 C989 1.437 . S
H960 C989 0.929 . S
N961 Gd934 2.570 . S
N961 C962 1.359 . S
N961 C965 1.343 . S
C962 C955 1.422 . S
C962 N961 1.359 . S
C962 C964 1.421 . S
C963 C964 1.422 . S
C963 C966 1.321 . S
C963 H990 0.931 . S
C964 C962 1.421 . S
C964 C963 1.422 . S
C964 C988 1.417 . S
C965 H942 0.931 . S
C965 N961 1.343 . S
C965 C966 1.390 . S
C966 H944 0.930 . S
C966 C963 1.321 . S
C966 C965 1.390 . S
O967 Gd935 2.386 . S
O967 C979 1.265 . S
O968 Gd934 2.353 . S
O968 C979 1.242 . S
O969 Gd934 2.468 . S
O969 C987 1.263 . S
O970 Gd934 2.427 . S
O970 C987 1.252 . S
O971 Gd935 2.307 . S
O971 C980 1.261 . S
O972 Gd934 2.388 . S
O972 C980 1.252 . S
O973 Gd934 2.386 . S
O973 C991 1.265 . S
O974 Gd935 2.353 . S
O974 C991 1.242 . S
O975 Gd935 2.468 . S
O975 C999 1.263 . S
O976 Gd935 2.427 . S
O976 C999 1.252 . S
O977 Gd934 2.307 . S
O977 C992 1.261 . S
O978 Gd935 2.388 . S
O978 C992 1.252 . S
C979 O967 1.265 . S
C979 O968 1.242 . S
C980 O971 1.261 . S
C980 O972 1.252 . S
C981 C984 1.394 . S
C981 C986 1.370 . S
C981 C987 1.500 . S
C982 C985 1.383 . S
C982 C986 1.395 1_565 S
C983 C984 1.396 1_565 S
C983 C985 1.365 . S
C983 H1000 0.929 . S
C984 C981 1.394 . S
C984 C983 1.396 1_545 S
C984 H1001 0.930 . S
C985 C982 1.383 . S
C985 C983 1.365 . S
C985 H1002 0.931 . S
C986 C981 1.370 . S
C986 C982 1.395 1_545 S
C986 H1003 0.930 . S
C987 Gd934 2.805 . S
C987 O969 1.263 . S
C987 O970 1.252 . S
C987 C981 1.500 . S
C988 H950 0.930 . S
C988 C964 1.417 . S
C988 C989 1.329 . S
C989 C959 1.437 . S
C989 H960 0.929 . S
C989 C988 1.329 . S
H990 C963 0.931 . S
C991 O973 1.265 . S
C991 O974 1.242 . S
C992 O977 1.261 . S
C992 O978 1.252 . S
C993 C996 1.394 . S
C993 C998 1.370 . S
C993 C999 1.500 . S
C994 C997 1.383 . S
C994 C998 1.395 . S
C995 C996 1.396 . S
C995 C997 1.365 . S
C995 H1004 0.929 . S
C996 C993 1.394 . S
C996 C995 1.396 . S
C996 H1005 0.930 . S
C997 C994 1.383 . S
C997 C995 1.365 . S
C997 H1006 0.931 . S
C998 C993 1.370 . S
C998 C994 1.395 . S
C998 H1007 0.930 . S
C999 Gd935 2.805 . S
C999 O975 1.263 . S
C999 O976 1.252 . S
C999 C993 1.500 . S
H1000 C983 0.929 . S
H1001 C984 0.930 . S
H1002 C985 0.931 . S
H1003 C986 0.930 . S
H1004 C995 0.929 . S
H1005 C996 0.930 . S
H1006 C997 0.931 . S
H1007 C998 0.930 . S
H1008 C1026 0.951 . S
H1009 C1028 0.951 . S
H1010 C1030 0.950 . S
H1011 C1031 0.950 . S
H1012 C1033 0.950 1_565 S
H1013 C1036 0.950 . S
H1014 C1037 0.950 . S
H1015 C1039 0.950 1_545 S
H1016 C1040 0.950 . S
H1017 C1041 0.951 . S
H1018 C1043 0.951 . S
H1019 C1045 0.950 . S
H1020 C1046 0.950 . S
H1021 C1048 0.950 . S
H1022 C1051 0.950 . S
H1023 C1052 0.950 . S
H1024 C1054 0.950 . S
H1025 C1055 0.950 . S
C1026 H1008 0.951 . S
C1026 C1027 1.366 . S
C1026 C1028 1.388 . S
C1027 C1026 1.366 . S
C1027 C1031 1.385 . S
C1028 H1009 0.951 . S
C1028 C1026 1.388 . S
C1028 C1029 1.366 . S
C1029 C1028 1.366 . S
C1029 C1030 1.414 . S
C1029 C1032 1.499 . S
C1030 H1010 0.950 . S
C1030 C1029 1.414 . S
C1030 C1031 1.374 . S
C1031 H1011 0.950 . S
C1031 C1027 1.385 . S
C1031 C1030 1.374 . S
C1032 C1029 1.499 . S
C1032 C1033 1.373 1_565 S
C1032 C1034 1.389 1_565 S
C1033 H1012 0.950 1_545 S
C1033 C1032 1.373 1_545 S
C1033 C1049 1.377 . S
C1034 C1032 1.389 1_545 S
C1034 C1035 1.524 1_545 S
C1034 C1048 1.377 . S
C1035 C1034 1.524 1_565 S
C1035 C1036 1.397 . S
C1035 C1040 1.363 1_565 S
C1036 H1013 0.950 . S
C1036 C1035 1.397 . S
C1036 C1037 1.334 . S
C1037 H1014 0.950 . S
C1037 C1036 1.334 . S
C1037 C1038 1.287 . S
C1038 C1037 1.287 . S
C1038 C1039 1.524 . S
C1038 H1057 0.913 . S
C1039 H1015 0.950 1_565 S
C1039 C1038 1.524 . S
C1039 C1040 1.415 1_565 S
C1040 H1016 0.950 . S
C1040 C1035 1.363 1_545 S
C1040 C1039 1.415 1_545 S
C1041 H1017 0.951 . S
C1041 C1042 1.366 . S
C1041 C1043 1.388 . S
C1042 C1041 1.366 . S
C1042 C1046 1.385 . S
C1043 H1018 0.951 . S
C1043 C1041 1.388 . S
C1043 C1044 1.366 . S
C1044 C1043 1.366 . S
C1044 C1045 1.414 . S
C1044 C1047 1.499 . S
C1045 H1019 0.950 . S
C1045 C1044 1.414 . S
C1045 C1046 1.374 . S
C1046 H1020 0.950 . S
C1046 C1042 1.385 . S
C1046 C1045 1.374 . S
C1047 C1044 1.499 . S
C1047 C1048 1.373 . S
C1047 C1049 1.389 . S
C1048 H1021 0.950 . S
C1048 C1034 1.377 . S
C1048 C1047 1.373 . S
C1049 C1033 1.377 . S
C1049 C1047 1.389 . S
C1049 C1050 1.524 . S
C1050 C1049 1.524 . S
C1050 C1051 1.397 . S
C1050 C1055 1.363 . S
C1051 H1022 0.950 . S
C1051 C1050 1.397 . S
C1051 C1052 1.334 . S
C1052 H1023 0.950 . S
C1052 C1051 1.334 . S
C1052 C1053 1.287 . S
C1053 C1052 1.287 . S
C1053 C1054 1.524 . S
C1053 H1056 0.999 . S
C1054 H1024 0.950 . S
C1054 C1053 1.524 . S
C1054 C1055 1.415 . S
C1055 H1025 0.950 . S
C1055 C1050 1.363 . S
C1055 C1054 1.415 . S
H1056 C1053 0.999 . S
H1057 C1038 0.913 . S
H1058 C1076 0.951 . S
H1059 C1078 0.951 . S
H1060 C1080 0.950 . S
H1061 C1081 0.950 . S
H1062 C1083 0.950 . S
H1063 C1086 0.950 . S
H1064 C1087 0.950 . S
H1065 C1089 0.950 . S
H1066 C1090 0.950 . S
H1067 C1091 0.951 . S
H1068 C1093 0.951 . S
H1069 C1095 0.950 . S
H1070 C1096 0.950 . S
H1071 C1098 0.950 . S
H1072 C1101 0.950 . S
H1073 C1102 0.950 . S
H1074 C1104 0.950 . S
H1075 C1105 0.950 . S
C1076 H1058 0.951 . S
C1076 C1077 1.366 . S
C1076 C1078 1.388 . S
C1077 C1076 1.366 . S
C1077 C1081 1.385 . S
C1078 H1059 0.951 . S
C1078 C1076 1.388 . S
C1078 C1079 1.366 . S
C1079 C1078 1.366 . S
C1079 C1080 1.414 . S
C1079 C1082 1.499 . S
C1080 H1060 0.950 . S
C1080 C1079 1.414 . S
C1080 C1081 1.374 . S
C1081 H1061 0.950 . S
C1081 C1077 1.385 . S
C1081 C1080 1.374 . S
C1082 C1079 1.499 . S
C1082 C1083 1.373 . S
C1082 C1084 1.389 . S
C1083 H1062 0.950 . S
C1083 C1082 1.373 . S
C1083 C1099 1.377 . S
C1084 C1082 1.389 . S
C1084 C1085 1.524 . S
C1084 C1098 1.377 . S
C1085 C1084 1.524 . S
C1085 C1086 1.397 . S
C1085 C1090 1.363 . S
C1086 H1063 0.950 . S
C1086 C1085 1.397 . S
C1086 C1087 1.334 . S
C1087 H1064 0.950 . S
C1087 C1086 1.334 . S
C1087 C1088 1.287 . S
C1088 C1087 1.287 . S
C1088 C1089 1.524 . S
C1088 H1107 0.913 . S
C1089 H1065 0.950 . S
C1089 C1088 1.524 . S
C1089 C1090 1.415 . S
C1090 H1066 0.950 . S
C1090 C1085 1.363 . S
C1090 C1089 1.415 . S
C1091 H1067 0.951 . S
C1091 C1092 1.366 . S
C1091 C1093 1.388 . S
C1092 C1091 1.366 . S
C1092 C1096 1.385 . S
C1093 H1068 0.951 . S
C1093 C1091 1.388 . S
C1093 C1094 1.366 . S
C1094 C1093 1.366 . S
C1094 C1095 1.414 . S
C1094 C1097 1.499 . S
C1095 H1069 0.950 . S
C1095 C1094 1.414 . S
C1095 C1096 1.374 . S
C1096 H1070 0.950 . S
C1096 C1092 1.385 . S
C1096 C1095 1.374 . S
C1097 C1094 1.499 . S
C1097 C1098 1.373 . S
C1097 C1099 1.389 . S
C1098 H1071 0.950 . S
C1098 C1084 1.377 . S
C1098 C1097 1.373 . S
C1099 C1083 1.377 . S
C1099 C1097 1.389 . S
C1099 C1100 1.524 . S
C1100 C1099 1.524 . S
C1100 C1101 1.397 . S
C1100 C1105 1.363 . S
C1101 H1072 0.950 . S
C1101 C1100 1.397 . S
C1101 C1102 1.334 . S
C1102 H1073 0.950 . S
C1102 C1101 1.334 . S
C1102 C1103 1.287 . S
C1103 C1102 1.287 . S
C1103 C1104 1.524 . S
C1103 H1106 0.999 . S
C1104 H1074 0.950 . S
C1104 C1103 1.524 . S
C1104 C1105 1.415 . S
C1105 H1075 0.950 . S
C1105 C1100 1.363 . S
C1105 C1104 1.415 . S
H1106 C1103 0.999 . S
H1107 C1088 0.913 . S
H1108 C1126 0.951 . S
H1109 C1128 0.951 . S
H1110 C1130 0.950 . S
H1111 C1131 0.950 . S
H1112 C1133 0.950 . S
H1113 C1136 0.950 . S
H1114 C1137 0.950 . S
H1115 C1139 0.950 . S
H1116 C1140 0.950 . S
H1117 C1141 0.951 . S
H1118 C1143 0.951 . S
H1119 C1145 0.950 . S
H1120 C1146 0.950 . S
H1121 C1148 0.950 1_455 S
H1122 C1151 0.950 . S
H1123 C1152 0.950 . S
H1124 C1154 0.929 1_655 S
H1125 C1155 0.950 . S
C1126 H1108 0.951 . S
C1126 C1127 1.366 . S
C1126 C1128 1.388 . S
C1127 C1126 1.366 . S
C1127 C1131 1.385 . S
C1128 H1109 0.951 . S
C1128 C1126 1.388 . S
C1128 C1129 1.366 . S
C1129 C1128 1.366 . S
C1129 C1130 1.414 . S
C1129 C1132 1.499 . S
C1130 H1110 0.950 . S
C1130 C1129 1.414 . S
C1130 C1131 1.374 . S
C1131 H1111 0.950 . S
C1131 C1127 1.385 . S
C1131 C1130 1.374 . S
C1132 C1129 1.499 . S
C1132 C1133 1.373 . S
C1132 C1134 1.389 . S
C1133 H1112 0.950 . S
C1133 C1132 1.373 . S
C1133 C1149 1.377 . S
C1134 C1132 1.389 . S
C1134 C1135 1.524 . S
C1134 C1148 1.377 . S
C1135 C1134 1.524 . S
C1135 C1136 1.397 . S
C1135 C1140 1.363 . S
C1136 H1113 0.950 . S
C1136 C1135 1.397 . S
C1136 C1137 1.334 . S
C1137 H1114 0.950 . S
C1137 C1136 1.334 . S
C1137 C1138 1.287 . S
C1138 C1137 1.287 . S
C1138 C1139 1.524 . S
C1138 H1157 0.913 . S
C1139 H1115 0.950 . S
C1139 C1138 1.524 . S
C1139 C1140 1.415 . S
C1140 H1116 0.950 . S
C1140 C1135 1.363 . S
C1140 C1139 1.415 . S
C1141 H1117 0.951 . S
C1141 C1142 1.366 . S
C1141 C1143 1.388 . S
C1142 C1141 1.366 . S
C1142 C1146 1.385 . S
C1143 H1118 0.951 . S
C1143 C1141 1.388 . S
C1143 C1144 1.366 . S
C1144 C1143 1.366 . S
C1144 C1145 1.414 . S
C1144 C1147 1.499 . S
C1145 H1119 0.950 . S
C1145 C1144 1.414 . S
C1145 C1146 1.374 . S
C1146 H1120 0.950 . S
C1146 C1142 1.385 . S
C1146 C1145 1.374 . S
C1147 C1144 1.499 . S
C1147 C1148 1.373 1_455 S
C1147 C1149 1.389 1_455 S
C1148 H1121 0.950 1_655 S
C1148 C1134 1.377 . S
C1148 C1147 1.373 1_655 S
C1149 C1133 1.377 . S
C1149 C1147 1.389 1_655 S
C1149 C1150 1.524 1_655 S
C1150 C1149 1.524 1_455 S
C1150 C1151 1.397 . S
C1150 C1155 1.363 1_455 S
C1151 H1122 0.950 . S
C1151 C1150 1.397 . S
C1151 C1152 1.334 . S
C1152 H1123 0.950 . S
C1152 C1151 1.334 . S
C1152 C1153 1.287 . S
C1153 C1152 1.287 . S
C1153 C1154 1.553 . S
C1153 H1156 0.999 . S
C1154 H1124 0.929 1_455 S
C1154 C1153 1.553 . S
C1154 C1155 1.410 1_455 S
C1155 H1125 0.950 . S
C1155 C1150 1.363 1_655 S
C1155 C1154 1.410 1_655 S
H1156 C1153 0.999 . S
H1157 C1138 0.913 . S
H1158 C1176 0.951 . S
H1159 C1178 0.951 . S
H1160 C1180 0.950 . S
H1161 C1181 0.950 . S
H1162 C1183 0.950 . S
H1163 C1186 0.950 . S
H1164 C1187 0.950 . S
H1165 C1189 0.950 . S
H1166 C1190 0.940 1_545 S
H1167 C1191 0.951 . S
H1168 C1193 0.951 . S
H1169 C1195 0.950 . S
H1170 C1196 0.950 . S
H1171 C1198 0.950 . S
H1172 C1201 0.950 . S
H1173 C1202 0.950 . S
H1174 C1204 0.950 . S
H1175 C1205 0.950 . S
C1176 H1158 0.951 . S
C1176 C1177 1.366 . S
C1176 C1178 1.388 . S
C1177 C1176 1.366 . S
C1177 C1181 1.385 . S
C1178 H1159 0.951 . S
C1178 C1176 1.388 . S
C1178 C1179 1.366 . S
C1179 C1178 1.366 . S
C1179 C1180 1.414 . S
C1179 C1182 1.499 . S
C1180 H1160 0.950 . S
C1180 C1179 1.414 . S
C1180 C1181 1.374 . S
C1181 H1161 0.950 . S
C1181 C1177 1.385 . S
C1181 C1180 1.374 . S
C1182 C1179 1.499 . S
C1182 C1183 1.373 . S
C1182 C1184 1.389 . S
C1183 H1162 0.950 . S
C1183 C1182 1.373 . S
C1183 C1199 1.377 . S
C1184 C1182 1.389 . S
C1184 C1185 1.524 . S
C1184 C1198 1.377 1_565 S
C1185 C1184 1.524 . S
C1185 C1186 1.397 . S
C1185 C1190 1.363 . S
C1186 H1163 0.950 . S
C1186 C1185 1.397 . S
C1186 C1187 1.334 . S
C1187 H1164 0.950 . S
C1187 C1186 1.334 . S
C1187 C1188 1.287 . S
C1188 C1187 1.287 . S
C1188 C1189 1.524 . S
C1188 H1207 0.913 . S
C1189 H1165 0.950 . S
C1189 C1188 1.524 . S
C1189 C1190 1.415 . S
C1190 H1166 0.940 1_565 S
C1190 C1185 1.363 . S
C1190 C1189 1.415 . S
C1191 H1167 0.951 . S
C1191 C1192 1.366 . S
C1191 C1193 1.388 . S
C1192 C1191 1.366 . S
C1192 C1196 1.385 . S
C1193 H1168 0.951 . S
C1193 C1191 1.388 . S
C1193 C1194 1.366 . S
C1194 C1193 1.366 . S
C1194 C1195 1.414 . S
C1194 C1197 1.499 . S
C1195 H1169 0.950 . S
C1195 C1194 1.414 . S
C1195 C1196 1.374 . S
C1196 H1170 0.950 . S
C1196 C1192 1.385 . S
C1196 C1195 1.374 . S
C1197 C1194 1.499 . S
C1197 C1198 1.373 . S
C1197 C1199 1.389 1_545 S
C1198 H1171 0.950 . S
C1198 C1184 1.377 1_545 S
C1198 C1197 1.373 . S
C1199 C1183 1.377 . S
C1199 C1197 1.389 1_565 S
C1199 C1200 1.524 . S
C1200 C1199 1.524 . S
C1200 C1201 1.397 1_565 S
C1200 C1205 1.363 . S
C1201 H1172 0.950 . S
C1201 C1200 1.397 1_545 S
C1201 C1202 1.334 . S
C1202 H1173 0.950 . S
C1202 C1201 1.334 . S
C1202 C1203 1.291 . S
C1203 C1202 1.291 . S
C1203 C1204 1.502 1_545 S
C1203 H1206 1.023 . S
C1204 H1174 0.950 . S
C1204 C1203 1.502 1_565 S
C1204 C1205 1.415 . S
C1205 H1175 0.950 . S
C1205 C1200 1.363 . S
C1205 C1204 1.415 . S
H1206 C1203 1.023 . S
H1207 C1188 0.913 . S
H1208 C1226 0.951 . S
H1209 C1228 0.951 . S
H1210 C1230 0.950 . S
H1211 C1231 0.950 . S
H1212 C1233 0.950 . S
H1213 C1236 0.950 . S
H1214 C1237 0.950 . S
H1215 C1239 0.950 . S
H1216 C1240 0.950 . S
H1217 C1241 0.951 . S
H1218 C1243 0.951 . S
H1219 C1245 0.950 . S
H1220 C1246 0.950 . S
H1221 C1248 0.950 . S
H1222 C1251 0.950 . S
H1223 C1252 0.950 . S
H1224 C1254 0.950 . S
H1225 C1255 0.950 . S
C1226 H1208 0.951 . S
C1226 C1227 1.366 . S
C1226 C1228 1.388 . S
C1227 C1226 1.366 . S
C1227 C1231 1.385 . S
C1228 H1209 0.951 . S
C1228 C1226 1.388 . S
C1228 C1229 1.366 . S
C1229 C1228 1.366 . S
C1229 C1230 1.414 . S
C1229 C1232 1.499 . S
C1230 H1210 0.950 . S
C1230 C1229 1.414 . S
C1230 C1231 1.374 . S
C1231 H1211 0.950 . S
C1231 C1227 1.385 . S
C1231 C1230 1.374 . S
C1232 C1229 1.499 . S
C1232 C1233 1.373 . S
C1232 C1234 1.389 . S
C1233 H1212 0.950 . S
C1233 C1232 1.373 . S
C1233 C1249 1.377 . S
C1234 C1232 1.389 . S
C1234 C1235 1.524 . S
C1234 C1248 1.377 . S
C1235 C1234 1.524 . S
C1235 C1236 1.397 . S
C1235 C1240 1.363 . S
C1236 H1213 0.950 . S
C1236 C1235 1.397 . S
C1236 C1237 1.334 . S
C1237 H1214 0.950 . S
C1237 C1236 1.334 . S
C1237 C1238 1.287 . S
C1238 C1237 1.287 . S
C1238 C1239 1.524 . S
C1238 H1257 0.913 . S
C1239 H1215 0.950 . S
C1239 C1238 1.524 . S
C1239 C1240 1.415 . S
C1240 H1216 0.950 . S
C1240 C1235 1.363 . S
C1240 C1239 1.415 . S
C1241 H1217 0.951 . S
C1241 C1242 1.366 . S
C1241 C1243 1.388 . S
C1242 C1241 1.366 . S
C1242 C1246 1.385 . S
C1243 H1218 0.951 . S
C1243 C1241 1.388 . S
C1243 C1244 1.366 . S
C1244 C1243 1.366 . S
C1244 C1245 1.414 . S
C1244 C1247 1.499 . S
C1245 H1219 0.950 . S
C1245 C1244 1.414 . S
C1245 C1246 1.374 . S
C1246 H1220 0.950 . S
C1246 C1242 1.385 . S
C1246 C1245 1.374 . S
C1247 C1244 1.499 . S
C1247 C1248 1.373 . S
C1247 C1249 1.389 . S
C1248 H1221 0.950 . S
C1248 C1234 1.377 . S
C1248 C1247 1.373 . S
C1249 C1233 1.377 . S
C1249 C1247 1.389 . S
C1249 C1250 1.524 . S
C1250 C1249 1.524 . S
C1250 C1251 1.397 . S
C1250 C1255 1.363 . S
C1251 H1222 0.950 . S
C1251 C1250 1.397 . S
C1251 C1252 1.334 . S
C1252 H1223 0.950 . S
C1252 C1251 1.334 . S
C1252 C1253 1.287 . S
C1253 C1252 1.287 . S
C1253 C1254 1.524 . S
C1253 H1256 0.999 . S
C1254 H1224 0.950 . S
C1254 C1253 1.524 . S
C1254 C1255 1.415 . S
C1255 H1225 0.950 . S
C1255 C1250 1.363 . S
C1255 C1254 1.415 . S
H1256 C1253 0.999 . S
H1257 C1238 0.913 . S
H1258 C1276 0.951 . S
H1259 C1278 0.951 . S
H1260 C1280 0.950 . S
H1261 C1281 0.950 . S
H1262 C1283 0.950 . S
H1263 C1286 0.950 . S
H1264 C1287 0.950 . S
H1265 C1289 0.950 . S
H1266 C1290 0.950 . S
H1267 C1291 0.951 . S
H1268 C1293 0.951 . S
H1269 C1295 0.950 . S
H1270 C1296 0.950 . S
H1271 C1298 0.950 . S
H1272 C1301 0.950 . S
H1273 C1302 0.950 . S
H1274 C1304 0.950 . S
H1275 C1305 0.950 . S
C1276 H1258 0.951 . S
C1276 C1277 1.366 . S
C1276 C1278 1.388 . S
C1277 C1276 1.366 . S
C1277 C1281 1.385 . S
C1278 H1259 0.951 . S
C1278 C1276 1.388 . S
C1278 C1279 1.366 . S
C1279 C1278 1.366 . S
C1279 C1280 1.414 . S
C1279 C1282 1.499 . S
C1280 H1260 0.950 . S
C1280 C1279 1.414 . S
C1280 C1281 1.374 . S
C1281 H1261 0.950 . S
C1281 C1277 1.385 . S
C1281 C1280 1.374 . S
C1282 C1279 1.499 . S
C1282 C1283 1.373 1_655 S
C1282 C1284 1.389 . S
C1283 H1262 0.950 . S
C1283 C1282 1.373 1_455 S
C1283 C1299 1.377 . S
C1284 C1282 1.389 . S
C1284 C1285 1.524 . S
C1284 C1298 1.377 1_655 S
C1285 C1284 1.524 . S
C1285 C1286 1.397 . S
C1285 C1290 1.363 . S
C1286 H1263 0.950 . S
C1286 C1285 1.397 . S
C1286 C1287 1.334 . S
C1287 H1264 0.950 . S
C1287 C1286 1.334 . S
C1287 C1288 1.287 . S
C1288 C1287 1.287 . S
C1288 C1289 1.524 . S
C1288 H1307 0.913 . S
C1289 H1265 0.950 . S
C1289 C1288 1.524 . S
C1289 C1290 1.415 . S
C1290 H1266 0.950 . S
C1290 C1285 1.363 . S
C1290 C1289 1.415 . S
C1291 H1267 0.951 . S
C1291 C1292 1.366 . S
C1291 C1293 1.388 . S
C1292 C1291 1.366 . S
C1292 C1296 1.385 . S
C1293 H1268 0.951 . S
C1293 C1291 1.388 . S
C1293 C1294 1.366 . S
C1294 C1293 1.366 . S
C1294 C1295 1.414 . S
C1294 C1297 1.499 . S
C1295 H1269 0.950 . S
C1295 C1294 1.414 . S
C1295 C1296 1.374 . S
C1296 H1270 0.950 . S
C1296 C1292 1.385 . S
C1296 C1295 1.374 . S
C1297 C1294 1.499 . S
C1297 C1298 1.373 . S
C1297 C1299 1.389 . S
C1298 H1271 0.950 . S
C1298 C1284 1.377 1_455 S
C1298 C1297 1.373 . S
C1299 C1283 1.377 . S
C1299 C1297 1.389 . S
C1299 C1300 1.524 . S
C1300 C1299 1.524 . S
C1300 C1301 1.397 . S
C1300 C1305 1.363 . S
C1301 H1272 0.950 . S
C1301 C1300 1.397 . S
C1301 C1302 1.334 . S
C1302 H1273 0.950 . S
C1302 C1301 1.334 . S
C1302 C1303 1.287 . S
C1303 C1302 1.287 . S
C1303 C1304 1.524 . S
C1303 H1306 0.999 . S
C1304 H1274 0.950 . S
C1304 C1303 1.524 . S
C1304 C1305 1.415 . S
C1305 H1275 0.950 . S
C1305 C1300 1.363 . S
C1305 C1304 1.415 . S
H1306 C1303 0.999 . S
H1307 C1288 0.913 . S
H1308 C1326 0.951 . S
H1309 C1328 0.951 . S
H1310 C1330 0.950 . S
H1311 C1331 0.950 . S
H1312 C1333 0.950 . S
H1313 C1336 0.949 1_455 S
H1314 C1337 0.950 . S
H1315 C1339 0.950 . S
H1316 C1340 0.950 . S
H1317 C1341 0.951 . S
H1318 C1343 0.951 . S
H1319 C1345 0.950 . S
H1320 C1346 0.950 . S
H1321 C1348 0.950 . S
H1322 C1351 0.950 . S
H1323 C1352 0.950 . S
H1324 C1354 0.950 . S
H1325 C1355 0.950 . S
C1326 H1308 0.951 . S
C1326 C1327 1.366 . S
C1326 C1328 1.388 . S
C1327 C1326 1.366 . S
C1327 C1331 1.385 . S
C1328 H1309 0.951 . S
C1328 C1326 1.388 . S
C1328 C1329 1.366 . S
C1329 C1328 1.366 . S
C1329 C1330 1.414 . S
C1329 C1332 1.499 . S
C1330 H1310 0.950 . S
C1330 C1329 1.414 . S
C1330 C1331 1.374 . S
C1331 H1311 0.950 . S
C1331 C1327 1.385 . S
C1331 C1330 1.374 . S
C1332 C1329 1.499 . S
C1332 C1333 1.373 . S
C1332 C1334 1.389 1_455 S
C1333 H1312 0.950 . S
C1333 C1332 1.373 . S
C1333 C1349 1.377 1_455 S
C1334 C1332 1.389 1_655 S
C1334 C1335 1.524 . S
C1334 C1348 1.377 . S
C1335 C1334 1.524 . S
C1335 C1336 1.416 . S
C1335 C1340 1.363 . S
C1336 H1313 0.949 1_655 S
C1336 C1335 1.416 . S
C1336 C1337 1.317 1_655 S
C1337 H1314 0.950 . S
C1337 C1336 1.317 1_455 S
C1337 C1338 1.287 1_455 S
C1338 C1337 1.287 1_655 S
C1338 C1339 1.524 . S
C1338 H1357 0.913 . S
C1339 H1315 0.950 . S
C1339 C1338 1.524 . S
C1339 C1340 1.415 . S
C1340 H1316 0.950 . S
C1340 C1335 1.363 . S
C1340 C1339 1.415 . S
C1341 H1317 0.951 . S
C1341 C1342 1.366 . S
C1341 C1343 1.388 . S
C1342 C1341 1.366 . S
C1342 C1346 1.385 . S
C1343 H1318 0.951 . S
C1343 C1341 1.388 . S
C1343 C1344 1.366 . S
C1344 C1343 1.366 . S
C1344 C1345 1.414 . S
C1344 C1347 1.499 . S
C1345 H1319 0.950 . S
C1345 C1344 1.414 . S
C1345 C1346 1.374 . S
C1346 H1320 0.950 . S
C1346 C1342 1.385 . S
C1346 C1345 1.374 . S
C1347 C1344 1.499 . S
C1347 C1348 1.373 . S
C1347 C1349 1.389 . S
C1348 H1321 0.950 . S
C1348 C1334 1.377 . S
C1348 C1347 1.373 . S
C1349 C1333 1.377 1_655 S
C1349 C1347 1.389 . S
C1349 C1350 1.524 . S
C1350 C1349 1.524 . S
C1350 C1351 1.397 . S
C1350 C1355 1.363 . S
C1351 H1322 0.950 . S
C1351 C1350 1.397 . S
C1351 C1352 1.334 . S
C1352 H1323 0.950 . S
C1352 C1351 1.334 . S
C1352 C1353 1.287 . S
C1353 C1352 1.287 . S
C1353 C1354 1.524 . S
C1353 H1356 0.999 . S
C1354 H1324 0.950 . S
C1354 C1353 1.524 . S
C1354 C1355 1.415 . S
C1355 H1325 0.950 . S
C1355 C1350 1.363 . S
C1355 C1354 1.415 . S
H1356 C1353 0.999 . S
H1357 C1338 0.913 . S
H1358 C1376 0.951 . S
H1359 C1378 0.951 . S
H1360 C1380 0.950 . S
H1361 C1381 0.950 . S
H1362 C1383 0.950 . S
H1363 C1386 0.950 . S
H1364 C1387 0.950 . S
H1365 C1389 0.950 . S
H1366 C1390 0.950 1_545 S
H1367 C1391 0.951 . S
H1368 C1393 0.951 . S
H1369 C1395 0.950 . S
H1370 C1396 0.950 . S
H1371 C1398 0.950 . S
H1372 C1401 0.950 . S
H1373 C1402 0.950 . S
H1374 C1404 0.950 . S
H1375 C1405 0.950 . S
C1376 H1358 0.951 . S
C1376 C1377 1.366 . S
C1376 C1378 1.388 . S
C1377 C1376 1.366 . S
C1377 C1381 1.385 . S
C1378 H1359 0.951 . S
C1378 C1376 1.388 . S
C1378 C1379 1.366 . S
C1379 C1378 1.366 . S
C1379 C1380 1.414 . S
C1379 C1382 1.499 . S
C1380 H1360 0.950 . S
C1380 C1379 1.414 . S
C1380 C1381 1.374 . S
C1381 H1361 0.950 . S
C1381 C1377 1.385 . S
C1381 C1380 1.374 . S
C1382 C1379 1.499 . S
C1382 C1383 1.373 . S
C1382 C1384 1.389 . S
C1383 H1362 0.950 . S
C1383 C1382 1.373 . S
C1383 C1399 1.377 . S
C1384 C1382 1.389 . S
C1384 C1385 1.524 . S
C1384 C1398 1.377 1_565 S
C1385 C1384 1.524 . S
C1385 C1386 1.397 . S
C1385 C1390 1.363 . S
C1386 H1363 0.950 . S
C1386 C1385 1.397 . S
C1386 C1387 1.334 . S
C1387 H1364 0.950 . S
C1387 C1386 1.334 . S
C1387 C1388 1.287 . S
C1388 C1387 1.287 . S
C1388 C1389 1.524 . S
C1388 H1407 0.913 . S
C1389 H1365 0.950 . S
C1389 C1388 1.524 . S
C1389 C1390 1.415 . S
C1390 H1366 0.950 1_565 S
C1390 C1385 1.363 . S
C1390 C1389 1.415 . S
C1391 H1367 0.951 . S
C1391 C1392 1.366 . S
C1391 C1393 1.388 . S
C1392 C1391 1.366 . S
C1392 C1396 1.385 . S
C1393 H1368 0.951 . S
C1393 C1391 1.388 . S
C1393 C1394 1.366 . S
C1394 C1393 1.366 . S
C1394 C1395 1.414 . S
C1394 C1397 1.499 . S
C1395 H1369 0.950 . S
C1395 C1394 1.414 . S
C1395 C1396 1.374 . S
C1396 H1370 0.950 . S
C1396 C1392 1.385 . S
C1396 C1395 1.374 . S
C1397 C1394 1.499 . S
C1397 C1398 1.373 . S
C1397 C1399 1.389 1_545 S
C1398 H1371 0.950 . S
C1398 C1384 1.377 1_545 S
C1398 C1397 1.373 . S
C1399 C1383 1.377 . S
C1399 C1397 1.389 1_565 S
C1399 C1400 1.524 . S
C1400 C1399 1.524 . S
C1400 C1401 1.397 1_565 S
C1400 C1405 1.363 . S
C1401 H1372 0.950 . S
C1401 C1400 1.397 1_545 S
C1401 C1402 1.334 . S
C1402 H1373 0.950 . S
C1402 C1401 1.334 . S
C1402 C1403 1.287 1_545 S
C1403 C1402 1.287 1_565 S
C1403 C1404 1.524 . S
C1403 H1406 1.009 1_565 S
C1404 H1374 0.950 . S
C1404 C1403 1.524 . S
C1404 C1405 1.415 . S
C1405 H1375 0.950 . S
C1405 C1400 1.363 . S
C1405 C1404 1.415 . S
H1406 C1403 1.009 1_545 S
H1407 C1388 0.913 . S
H1408 C1426 0.951 . S
H1409 C1428 0.951 . S
H1410 C1430 0.950 . S
H1411 C1431 0.950 . S
H1412 C1433 0.950 . S
H1413 C1436 0.950 . S
H1414 C1437 0.950 . S
H1415 C1439 0.950 . S
H1416 C1440 0.950 . S
H1417 C1441 0.951 . S
H1418 C1443 0.951 . S
H1419 C1445 0.950 . S
H1420 C1446 0.950 . S
H1421 C1448 0.950 . S
H1422 C1451 0.950 . S
H1423 C1452 0.950 . S
H1424 C1454 0.950 . S
H1425 C1455 0.950 . S
C1426 H1408 0.951 . S
C1426 C1427 1.366 . S
C1426 C1428 1.388 . S
C1427 C1426 1.366 . S
C1427 C1431 1.385 . S
C1428 H1409 0.951 . S
C1428 C1426 1.388 . S
C1428 C1429 1.366 . S
C1429 C1428 1.366 . S
C1429 C1430 1.414 . S
C1429 C1432 1.499 . S
C1430 H1410 0.950 . S
C1430 C1429 1.414 . S
C1430 C1431 1.374 . S
C1431 H1411 0.950 . S
C1431 C1427 1.385 . S
C1431 C1430 1.374 . S
C1432 C1429 1.499 . S
C1432 C1433 1.373 . S
C1432 C1434 1.389 . S
C1433 H1412 0.950 . S
C1433 C1432 1.373 . S
C1433 C1449 1.377 . S
C1434 C1432 1.389 . S
C1434 C1435 1.524 . S
C1434 C1448 1.377 . S
C1435 C1434 1.524 . S
C1435 C1436 1.397 . S
C1435 C1440 1.363 . S
C1436 H1413 0.950 . S
C1436 C1435 1.397 . S
C1436 C1437 1.334 . S
C1437 H1414 0.950 . S
C1437 C1436 1.334 . S
C1437 C1438 1.287 . S
C1438 C1437 1.287 . S
C1438 C1439 1.524 . S
C1438 H1457 0.913 . S
C1439 H1415 0.950 . S
C1439 C1438 1.524 . S
C1439 C1440 1.415 . S
C1440 H1416 0.950 . S
C1440 C1435 1.363 . S
C1440 C1439 1.415 . S
C1441 H1417 0.951 . S
C1441 C1442 1.366 . S
C1441 C1443 1.388 . S
C1442 C1441 1.366 . S
C1442 C1446 1.385 . S
C1443 H1418 0.951 . S
C1443 C1441 1.388 . S
C1443 C1444 1.366 . S
C1444 C1443 1.366 . S
C1444 C1445 1.414 . S
C1444 C1447 1.499 . S
C1445 H1419 0.950 . S
C1445 C1444 1.414 . S
C1445 C1446 1.374 . S
C1446 H1420 0.950 . S
C1446 C1442 1.385 . S
C1446 C1445 1.374 . S
C1447 C1444 1.499 . S
C1447 C1448 1.373 . S
C1447 C1449 1.389 . S
C1448 H1421 0.950 . S
C1448 C1434 1.377 . S
C1448 C1447 1.373 . S
C1449 C1433 1.377 . S
C1449 C1447 1.389 . S
C1449 C1450 1.524 . S
C1450 C1449 1.524 . S
C1450 C1451 1.397 . S
C1450 C1455 1.363 . S
C1451 H1422 0.950 . S
C1451 C1450 1.397 . S
C1451 C1452 1.334 . S
C1452 H1423 0.950 . S
C1452 C1451 1.334 . S
C1452 C1453 1.287 . S
C1453 C1452 1.287 . S
C1453 C1454 1.524 . S
C1453 H1456 0.999 . S
C1454 H1424 0.950 . S
C1454 C1453 1.524 . S
C1454 C1455 1.415 . S
C1455 H1425 0.950 . S
C1455 C1450 1.363 . S
C1455 C1454 1.415 . S
H1456 C1453 0.999 . S
H1457 C1438 0.913 . S
H1458 C1476 0.951 . S
H1459 C1478 0.951 . S
H1460 C1480 0.950 . S
H1461 C1481 0.950 . S
H1462 C1483 0.950 . S
H1463 C1486 0.950 . S
H1464 C1487 0.950 . S
H1465 C1489 0.950 . S
H1466 C1490 0.950 . S
H1467 C1491 0.951 . S
H1468 C1493 0.951 . S
H1469 C1495 0.950 . S
H1470 C1496 0.950 . S
H1471 C1498 0.950 1_655 S
H1472 C1501 0.950 . S
H1473 C1502 0.950 . S
H1474 C1504 0.950 . S
H1475 C1505 0.925 1_455 S
C1476 H1458 0.951 . S
C1476 C1477 1.366 . S
C1476 C1478 1.388 . S
C1477 C1476 1.366 . S
C1477 C1481 1.385 . S
C1478 H1459 0.951 . S
C1478 C1476 1.388 . S
C1478 C1479 1.366 . S
C1479 C1478 1.366 . S
C1479 C1480 1.414 . S
C1479 C1482 1.499 . S
C1480 H1460 0.950 . S
C1480 C1479 1.414 . S
C1480 C1481 1.374 . S
C1481 H1461 0.950 . S
C1481 C1477 1.385 . S
C1481 C1480 1.374 . S
C1482 C1479 1.499 . S
C1482 C1483 1.373 . S
C1482 C1484 1.389 . S
C1483 H1462 0.950 . S
C1483 C1482 1.373 . S
C1483 C1499 1.377 . S
C1484 C1482 1.389 . S
C1484 C1485 1.524 . S
C1484 C1498 1.377 . S
C1485 C1484 1.524 . S
C1485 C1486 1.397 . S
C1485 C1490 1.363 . S
C1486 H1463 0.950 . S
C1486 C1485 1.397 . S
C1486 C1487 1.334 . S
C1487 H1464 0.950 . S
C1487 C1486 1.334 . S
C1487 C1488 1.287 . S
C1488 C1487 1.287 . S
C1488 C1489 1.524 . S
C1488 H1507 0.913 . S
C1489 H1465 0.950 . S
C1489 C1488 1.524 . S
C1489 C1490 1.415 . S
C1490 H1466 0.950 . S
C1490 C1485 1.363 . S
C1490 C1489 1.415 . S
C1491 H1467 0.951 . S
C1491 C1492 1.366 . S
C1491 C1493 1.388 . S
C1492 C1491 1.366 . S
C1492 C1496 1.385 . S
C1493 H1468 0.951 . S
C1493 C1491 1.388 . S
C1493 C1494 1.366 . S
C1494 C1493 1.366 . S
C1494 C1495 1.414 . S
C1494 C1497 1.499 . S
C1495 H1469 0.950 . S
C1495 C1494 1.414 . S
C1495 C1496 1.374 . S
C1496 H1470 0.950 . S
C1496 C1492 1.385 . S
C1496 C1495 1.374 . S
C1497 C1494 1.499 . S
C1497 C1498 1.373 1_655 S
C1497 C1499 1.389 1_655 S
C1498 H1471 0.950 1_455 S
C1498 C1484 1.377 . S
C1498 C1497 1.373 1_455 S
C1499 C1483 1.377 . S
C1499 C1497 1.389 1_455 S
C1499 C1500 1.524 1_455 S
C1500 C1499 1.524 1_655 S
C1500 C1501 1.397 . S
C1500 C1505 1.363 . S
C1501 H1472 0.950 . S
C1501 C1500 1.397 . S
C1501 C1502 1.334 . S
C1502 H1473 0.950 . S
C1502 C1501 1.334 . S
C1502 C1503 1.287 . S
C1503 C1502 1.287 . S
C1503 C1504 1.524 . S
C1503 H1506 0.999 . S
C1504 H1474 0.950 . S
C1504 C1503 1.524 . S
C1504 C1505 1.415 . S
C1505 H1475 0.925 1_655 S
C1505 C1500 1.363 . S
C1505 C1504 1.415 . S
H1506 C1503 0.999 . S
H1507 C1488 0.913 . S
H1508 C1526 0.951 . S
H1509 C1528 0.951 . S
H1510 C1530 0.950 . S
H1511 C1531 0.950 . S
H1512 C1533 0.950 . S
H1513 C1536 0.950 . S
H1514 C1537 0.950 . S
H1515 C1539 0.950 . S
H1516 C1540 0.950 . S
H1517 C1541 0.951 . S
H1518 C1543 0.951 . S
H1519 C1545 0.950 . S
H1520 C1546 0.950 . S
H1521 C1548 0.950 . S
H1522 C1551 0.950 . S
H1523 C1552 0.950 . S
H1524 C1554 0.950 . S
H1525 C1555 0.950 . S
C1526 H1508 0.951 . S
C1526 C1527 1.366 . S
C1526 C1528 1.388 . S
C1527 C1526 1.366 . S
C1527 C1531 1.385 . S
C1528 H1509 0.951 . S
C1528 C1526 1.388 . S
C1528 C1529 1.366 . S
C1529 C1528 1.366 . S
C1529 C1530 1.414 . S
C1529 C1532 1.499 . S
C1530 H1510 0.950 . S
C1530 C1529 1.414 . S
C1530 C1531 1.374 . S
C1531 H1511 0.950 . S
C1531 C1527 1.385 . S
C1531 C1530 1.374 . S
C1532 C1529 1.499 . S
C1532 C1533 1.373 . S
C1532 C1534 1.389 . S
C1533 H1512 0.950 . S
C1533 C1532 1.373 . S
C1533 C1549 1.377 . S
C1534 C1532 1.389 . S
C1534 C1535 1.524 . S
C1534 C1548 1.377 . S
C1535 C1534 1.524 . S
C1535 C1536 1.397 . S
C1535 C1540 1.363 . S
C1536 H1513 0.950 . S
C1536 C1535 1.397 . S
C1536 C1537 1.334 . S
C1537 H1514 0.950 . S
C1537 C1536 1.334 . S
C1537 C1538 1.287 . S
C1538 C1537 1.287 . S
C1538 C1539 1.524 . S
C1538 H1557 0.913 . S
C1539 H1515 0.950 . S
C1539 C1538 1.524 . S
C1539 C1540 1.415 . S
C1540 H1516 0.950 . S
C1540 C1535 1.363 . S
C1540 C1539 1.415 . S
C1541 H1517 0.951 . S
C1541 C1542 1.366 . S
C1541 C1543 1.388 . S
C1542 C1541 1.366 . S
C1542 C1546 1.385 . S
C1543 H1518 0.951 . S
C1543 C1541 1.388 . S
C1543 C1544 1.366 . S
C1544 C1543 1.366 . S
C1544 C1545 1.414 . S
C1544 C1547 1.499 . S
C1545 H1519 0.950 . S
C1545 C1544 1.414 . S
C1545 C1546 1.374 . S
C1546 H1520 0.950 . S
C1546 C1542 1.385 . S
C1546 C1545 1.374 . S
C1547 C1544 1.499 . S
C1547 C1548 1.373 1_565 S
C1547 C1549 1.389 1_565 S
C1548 H1521 0.950 . S
C1548 C1534 1.377 . S
C1548 C1547 1.373 1_545 S
C1549 C1533 1.377 . S
C1549 C1547 1.389 1_545 S
C1549 C1550 1.524 1_545 S
C1550 C1549 1.524 1_565 S
C1550 C1551 1.397 . S
C1550 C1555 1.363 . S
C1551 H1522 0.950 . S
C1551 C1550 1.397 . S
C1551 C1552 1.334 . S
C1552 H1523 0.950 . S
C1552 C1551 1.334 . S
C1552 C1553 1.287 . S
C1553 C1552 1.287 . S
C1553 C1554 1.524 . S
C1553 H1556 0.999 . S
C1554 H1524 0.950 . S
C1554 C1553 1.524 . S
C1554 C1555 1.415 . S
C1555 H1525 0.950 . S
C1555 C1550 1.363 . S
C1555 C1554 1.415 . S
H1556 C1553 0.999 . S
H1557 C1538 0.913 . S
H1558 C1576 0.951 . S
H1559 C1578 0.951 . S
H1560 C1580 0.950 . S
H1561 C1581 0.950 . S
H1562 C1583 0.950 . S
H1563 C1586 0.950 . S
H1564 C1587 0.950 . S
H1565 C1589 0.950 . S
H1566 C1590 0.950 . S
H1567 C1591 0.951 . S
H1568 C1593 0.951 . S
H1569 C1595 0.950 . S
H1570 C1596 0.950 . S
H1571 C1598 0.950 . S
H1572 C1601 0.950 . S
H1573 C1602 0.950 . S
H1574 C1604 0.950 . S
H1575 C1605 0.950 . S
C1576 H1558 0.951 . S
C1576 C1577 1.366 . S
C1576 C1578 1.388 . S
C1577 C1576 1.366 . S
C1577 C1581 1.385 . S
C1578 H1559 0.951 . S
C1578 C1576 1.388 . S
C1578 C1579 1.366 . S
C1579 C1578 1.366 . S
C1579 C1580 1.414 . S
C1579 C1582 1.499 . S
C1580 H1560 0.950 . S
C1580 C1579 1.414 . S
C1580 C1581 1.374 . S
C1581 H1561 0.950 . S
C1581 C1577 1.385 . S
C1581 C1580 1.374 . S
C1582 C1579 1.499 . S
C1582 C1583 1.373 . S
C1582 C1584 1.389 . S
C1583 H1562 0.950 . S
C1583 C1582 1.373 . S
C1583 C1599 1.377 . S
C1584 C1582 1.389 . S
C1584 C1585 1.524 . S
C1584 C1598 1.377 . S
C1585 C1584 1.524 . S
C1585 C1586 1.397 . S
C1585 C1590 1.363 . S
C1586 H1563 0.950 . S
C1586 C1585 1.397 . S
C1586 C1587 1.334 . S
C1587 H1564 0.950 . S
C1587 C1586 1.334 . S
C1587 C1588 1.287 . S
C1588 C1587 1.287 . S
C1588 C1589 1.524 . S
C1588 H1607 0.913 . S
C1589 H1565 0.950 . S
C1589 C1588 1.524 . S
C1589 C1590 1.415 . S
C1590 H1566 0.950 . S
C1590 C1585 1.363 . S
C1590 C1589 1.415 . S
C1591 H1567 0.951 . S
C1591 C1592 1.366 . S
C1591 C1593 1.388 . S
C1592 C1591 1.366 . S
C1592 C1596 1.385 . S
C1593 H1568 0.951 . S
C1593 C1591 1.388 . S
C1593 C1594 1.366 . S
C1594 C1593 1.366 . S
C1594 C1595 1.414 . S
C1594 C1597 1.499 . S
C1595 H1569 0.950 . S
C1595 C1594 1.414 . S
C1595 C1596 1.374 . S
C1596 H1570 0.950 . S
C1596 C1592 1.385 . S
C1596 C1595 1.374 . S
C1597 C1594 1.499 . S
C1597 C1598 1.373 . S
C1597 C1599 1.389 . S
C1598 H1571 0.950 . S
C1598 C1584 1.377 . S
C1598 C1597 1.373 . S
C1599 C1583 1.377 . S
C1599 C1597 1.389 . S
C1599 C1600 1.524 . S
C1600 C1599 1.524 . S
C1600 C1601 1.397 . S
C1600 C1605 1.363 . S
C1601 H1572 0.950 . S
C1601 C1600 1.397 . S
C1601 C1602 1.334 . S
C1602 H1573 0.950 . S
C1602 C1601 1.334 . S
C1602 C1603 1.287 . S
C1603 C1602 1.287 . S
C1603 C1604 1.524 . S
C1603 H1606 0.999 . S
C1604 H1574 0.950 . S
C1604 C1603 1.524 . S
C1604 C1605 1.415 . S
C1605 H1575 0.950 . S
C1605 C1600 1.363 . S
C1605 C1604 1.415 . S
H1606 C1603 0.999 . S
H1607 C1588 0.913 . S
H1608 C1626 0.951 . S
H1609 C1628 0.951 . S
H1610 C1630 0.950 . S
H1611 C1631 0.950 . S
H1612 C1633 0.950 . S
H1613 C1636 0.950 . S
H1614 C1637 0.950 . S
H1615 C1639 0.950 . S
H1616 C1640 0.950 . S
H1617 C1641 0.951 . S
H1618 C1643 0.951 . S
H1619 C1645 0.950 . S
H1620 C1646 0.950 . S
H1621 C1648 0.950 . S
H1622 C1651 0.950 . S
H1623 C1652 0.950 . S
H1624 C1654 0.950 . S
H1625 C1655 0.950 . S
C1626 H1608 0.951 . S
C1626 C1627 1.366 . S
C1626 C1628 1.388 . S
C1627 C1626 1.366 . S
C1627 C1631 1.385 . S
C1628 H1609 0.951 . S
C1628 C1626 1.388 . S
C1628 C1629 1.366 . S
C1629 C1628 1.366 . S
C1629 C1630 1.414 . S
C1629 C1632 1.499 . S
C1630 H1610 0.950 . S
C1630 C1629 1.414 . S
C1630 C1631 1.374 . S
C1631 H1611 0.950 . S
C1631 C1627 1.385 . S
C1631 C1630 1.374 . S
C1632 C1629 1.499 . S
C1632 C1633 1.373 . S
C1632 C1634 1.389 . S
C1633 H1612 0.950 . S
C1633 C1632 1.373 . S
C1633 C1649 1.377 . S
C1634 C1632 1.389 . S
C1634 C1635 1.524 . S
C1634 C1648 1.377 . S
C1635 C1634 1.524 . S
C1635 C1636 1.397 . S
C1635 C1640 1.363 . S
C1636 H1613 0.950 . S
C1636 C1635 1.397 . S
C1636 C1637 1.334 . S
C1637 H1614 0.950 . S
C1637 C1636 1.334 . S
C1637 C1638 1.287 . S
C1638 C1637 1.287 . S
C1638 C1639 1.524 . S
C1638 H1657 0.913 . S
C1639 H1615 0.950 . S
C1639 C1638 1.524 . S
C1639 C1640 1.415 . S
C1640 H1616 0.950 . S
C1640 C1635 1.363 . S
C1640 C1639 1.415 . S
C1641 H1617 0.951 . S
C1641 C1642 1.366 . S
C1641 C1643 1.388 . S
C1642 C1641 1.366 . S
C1642 C1646 1.385 . S
C1643 H1618 0.951 . S
C1643 C1641 1.388 . S
C1643 C1644 1.366 . S
C1644 C1643 1.366 . S
C1644 C1645 1.414 . S
C1644 C1647 1.499 . S
C1645 H1619 0.950 . S
C1645 C1644 1.414 . S
C1645 C1646 1.374 . S
C1646 H1620 0.950 . S
C1646 C1642 1.385 . S
C1646 C1645 1.374 . S
C1647 C1644 1.499 . S
C1647 C1648 1.373 . S
C1647 C1649 1.389 . S
C1648 H1621 0.950 . S
C1648 C1634 1.377 . S
C1648 C1647 1.373 . S
C1649 C1633 1.377 . S
C1649 C1647 1.389 . S
C1649 C1650 1.524 . S
C1650 C1649 1.524 . S
C1650 C1651 1.397 . S
C1650 C1655 1.363 . S
C1651 H1622 0.950 . S
C1651 C1650 1.397 . S
C1651 C1652 1.334 . S
C1652 H1623 0.950 . S
C1652 C1651 1.334 . S
C1652 C1653 1.287 . S
C1653 C1652 1.287 . S
C1653 C1654 1.524 . S
C1653 H1656 0.999 . S
C1654 H1624 0.950 . S
C1654 C1653 1.524 . S
C1654 C1655 1.415 . S
C1655 H1625 0.950 . S
C1655 C1650 1.363 . S
C1655 C1654 1.415 . S
H1656 C1653 0.999 . S
H1657 C1638 0.913 . S
H1658 C1676 0.951 . S
H1659 C1678 0.951 . S
H1660 C1680 0.950 . S
H1661 C1681 0.950 . S
H1662 C1683 0.950 . S
H1663 C1686 0.950 . S
H1664 C1687 0.950 . S
H1665 C1689 0.950 . S
H1666 C1690 0.950 . S
H1667 C1691 0.951 . S
H1668 C1693 0.951 . S
H1669 C1695 0.950 . S
H1670 C1696 0.950 . S
H1671 C1698 0.950 . S
H1672 C1701 0.950 . S
H1673 C1702 0.950 . S
H1674 C1704 0.950 . S
H1675 C1705 0.950 . S
C1676 H1658 0.951 . S
C1676 C1677 1.366 . S
C1676 C1678 1.388 . S
C1677 C1676 1.366 . S
C1677 C1681 1.385 . S
C1678 H1659 0.951 . S
C1678 C1676 1.388 . S
C1678 C1679 1.366 . S
C1679 C1678 1.366 . S
C1679 C1680 1.414 . S
C1679 C1682 1.499 . S
C1680 H1660 0.950 . S
C1680 C1679 1.414 . S
C1680 C1681 1.374 . S
C1681 H1661 0.950 . S
C1681 C1677 1.385 . S
C1681 C1680 1.374 . S
C1682 C1679 1.499 . S
C1682 C1683 1.373 . S
C1682 C1684 1.389 . S
C1683 H1662 0.950 . S
C1683 C1682 1.373 . S
C1683 C1699 1.377 . S
C1684 C1682 1.389 . S
C1684 C1685 1.524 . S
C1684 C1698 1.377 . S
C1685 C1684 1.524 . S
C1685 C1686 1.397 . S
C1685 C1690 1.363 . S
C1686 H1663 0.950 . S
C1686 C1685 1.397 . S
C1686 C1687 1.334 . S
C1687 H1664 0.950 . S
C1687 C1686 1.334 . S
C1687 C1688 1.287 . S
C1688 C1687 1.287 . S
C1688 C1689 1.524 . S
C1688 H1707 0.913 . S
C1689 H1665 0.950 . S
C1689 C1688 1.524 . S
C1689 C1690 1.415 . S
C1690 H1666 0.950 . S
C1690 C1685 1.363 . S
C1690 C1689 1.415 . S
C1691 H1667 0.951 . S
C1691 C1692 1.366 . S
C1691 C1693 1.388 . S
C1692 C1691 1.366 . S
C1692 C1696 1.385 . S
C1693 H1668 0.951 . S
C1693 C1691 1.388 . S
C1693 C1694 1.366 . S
C1694 C1693 1.366 . S
C1694 C1695 1.414 . S
C1694 C1697 1.499 . S
C1695 H1669 0.950 . S
C1695 C1694 1.414 . S
C1695 C1696 1.374 . S
C1696 H1670 0.950 . S
C1696 C1692 1.385 . S
C1696 C1695 1.374 . S
C1697 C1694 1.499 . S
C1697 C1698 1.373 . S
C1697 C1699 1.389 . S
C1698 H1671 0.950 . S
C1698 C1684 1.377 . S
C1698 C1697 1.373 . S
C1699 C1683 1.377 . S
C1699 C1697 1.389 . S
C1699 C1700 1.524 . S
C1700 C1699 1.524 . S
C1700 C1701 1.397 . S
C1700 C1705 1.363 . S
C1701 H1672 0.950 . S
C1701 C1700 1.397 . S
C1701 C1702 1.334 . S
C1702 H1673 0.950 . S
C1702 C1701 1.334 . S
C1702 C1703 1.287 . S
C1703 C1702 1.287 . S
C1703 C1704 1.524 . S
C1703 H1706 0.999 . S
C1704 H1674 0.950 . S
C1704 C1703 1.524 . S
C1704 C1705 1.415 . S
C1705 H1675 0.950 . S
C1705 C1700 1.363 . S
C1705 C1704 1.415 . S
H1706 C1703 0.999 . S
H1707 C1688 0.913 . S
H1708 C1726 0.951 . S
H1709 C1728 0.951 . S
H1710 C1730 0.950 . S
H1711 C1731 0.950 . S
H1712 C1733 0.950 . S
H1713 C1736 0.950 . S
H1714 C1737 0.950 . S
H1715 C1739 0.950 . S
H1716 C1740 0.950 . S
H1717 C1741 0.951 . S
H1718 C1743 0.951 . S
H1719 C1745 0.950 . S
H1720 C1746 0.950 . S
H1721 C1748 0.950 . S
H1722 C1751 0.950 . S
H1723 C1752 0.950 . S
H1724 C1754 0.950 . S
H1725 C1755 0.950 . S
C1726 H1708 0.951 . S
C1726 C1727 1.366 . S
C1726 C1728 1.388 . S
C1727 C1726 1.366 . S
C1727 C1731 1.385 . S
C1728 H1709 0.951 . S
C1728 C1726 1.388 . S
C1728 C1729 1.366 . S
C1729 C1728 1.366 . S
C1729 C1730 1.414 . S
C1729 C1732 1.499 . S
C1730 H1710 0.950 . S
C1730 C1729 1.414 . S
C1730 C1731 1.374 . S
C1731 H1711 0.950 . S
C1731 C1727 1.385 . S
C1731 C1730 1.374 . S
C1732 C1729 1.499 . S
C1732 C1733 1.373 . S
C1732 C1734 1.389 . S
C1733 H1712 0.950 . S
C1733 C1732 1.373 . S
C1733 C1749 1.377 . S
C1734 C1732 1.389 . S
C1734 C1735 1.524 . S
C1734 C1748 1.377 . S
C1735 C1734 1.524 . S
C1735 C1736 1.397 . S
C1735 C1740 1.363 . S
C1736 H1713 0.950 . S
C1736 C1735 1.397 . S
C1736 C1737 1.334 . S
C1737 H1714 0.950 . S
C1737 C1736 1.334 . S
C1737 C1738 1.287 . S
C1738 C1737 1.287 . S
C1738 C1739 1.524 . S
C1738 H1757 0.913 . S
C1739 H1715 0.950 . S
C1739 C1738 1.524 . S
C1739 C1740 1.415 . S
C1740 H1716 0.950 . S
C1740 C1735 1.363 . S
C1740 C1739 1.415 . S
C1741 H1717 0.951 . S
C1741 C1742 1.366 . S
C1741 C1743 1.388 . S
C1742 C1741 1.366 . S
C1742 C1746 1.385 . S
C1743 H1718 0.951 . S
C1743 C1741 1.388 . S
C1743 C1744 1.366 . S
C1744 C1743 1.366 . S
C1744 C1745 1.414 . S
C1744 C1747 1.499 . S
C1745 H1719 0.950 . S
C1745 C1744 1.414 . S
C1745 C1746 1.374 . S
C1746 H1720 0.950 . S
C1746 C1742 1.385 . S
C1746 C1745 1.374 . S
C1747 C1744 1.499 . S
C1747 C1748 1.373 . S
C1747 C1749 1.389 . S
C1748 H1721 0.950 . S
C1748 C1734 1.377 . S
C1748 C1747 1.373 . S
C1749 C1733 1.377 . S
C1749 C1747 1.389 . S
C1749 C1750 1.524 . S
C1750 C1749 1.524 . S
C1750 C1751 1.397 . S
C1750 C1755 1.363 . S
C1751 H1722 0.950 . S
C1751 C1750 1.397 . S
C1751 C1752 1.334 . S
C1752 H1723 0.950 . S
C1752 C1751 1.334 . S
C1752 C1753 1.287 . S
C1753 C1752 1.287 . S
C1753 C1754 1.524 . S
C1753 H1756 0.999 . S
C1754 H1724 0.950 . S
C1754 C1753 1.524 . S
C1754 C1755 1.415 . S
C1755 H1725 0.950 . S
C1755 C1750 1.363 . S
C1755 C1754 1.415 . S
H1756 C1753 0.999 . S
H1757 C1738 0.913 . S
H1758 C1776 0.951 . S
H1759 C1778 0.951 . S
H1760 C1780 0.950 . S
H1761 C1781 0.950 . S
H1762 C1783 0.950 . S
H1763 C1786 0.950 . S
H1764 C1787 0.950 . S
H1765 C1789 0.950 . S
H1766 C1790 0.950 . S
H1767 C1791 0.951 . S
H1768 C1793 0.951 . S
H1769 C1795 0.950 . S
H1770 C1796 0.950 . S
H1771 C1798 0.950 . S
H1772 C1801 0.950 . S
H1773 C1802 0.950 . S
H1774 C1804 0.950 . S
H1775 C1805 0.950 . S
C1776 H1758 0.951 . S
C1776 C1777 1.366 . S
C1776 C1778 1.388 . S
C1777 C1776 1.366 . S
C1777 C1781 1.385 . S
C1778 H1759 0.951 . S
C1778 C1776 1.388 . S
C1778 C1779 1.366 . S
C1779 C1778 1.366 . S
C1779 C1780 1.414 . S
C1779 C1782 1.499 . S
C1780 H1760 0.950 . S
C1780 C1779 1.414 . S
C1780 C1781 1.374 . S
C1781 H1761 0.950 . S
C1781 C1777 1.385 . S
C1781 C1780 1.374 . S
C1782 C1779 1.499 . S
C1782 C1783 1.373 . S
C1782 C1784 1.389 . S
C1783 H1762 0.950 . S
C1783 C1782 1.373 . S
C1783 C1799 1.377 . S
C1784 C1782 1.389 . S
C1784 C1785 1.524 . S
C1784 C1798 1.377 . S
C1785 C1784 1.524 . S
C1785 C1786 1.397 . S
C1785 C1790 1.363 . S
C1786 H1763 0.950 . S
C1786 C1785 1.397 . S
C1786 C1787 1.334 . S
C1787 H1764 0.950 . S
C1787 C1786 1.334 . S
C1787 C1788 1.287 . S
C1788 C1787 1.287 . S
C1788 C1789 1.524 . S
C1788 H1807 0.913 . S
C1789 H1765 0.950 . S
C1789 C1788 1.524 . S
C1789 C1790 1.415 . S
C1790 H1766 0.950 . S
C1790 C1785 1.363 . S
C1790 C1789 1.415 . S
C1791 H1767 0.951 . S
C1791 C1792 1.366 . S
C1791 C1793 1.388 . S
C1792 C1791 1.366 . S
C1792 C1796 1.385 . S
C1793 H1768 0.951 . S
C1793 C1791 1.388 . S
C1793 C1794 1.366 . S
C1794 C1793 1.366 . S
C1794 C1795 1.414 . S
C1794 C1797 1.499 . S
C1795 H1769 0.950 . S
C1795 C1794 1.414 . S
C1795 C1796 1.374 . S
C1796 H1770 0.950 . S
C1796 C1792 1.385 . S
C1796 C1795 1.374 . S
C1797 C1794 1.499 . S
C1797 C1798 1.373 . S
C1797 C1799 1.389 . S
C1798 H1771 0.950 . S
C1798 C1784 1.377 . S
C1798 C1797 1.373 . S
C1799 C1783 1.377 . S
C1799 C1797 1.389 . S
C1799 C1800 1.524 . S
C1800 C1799 1.524 . S
C1800 C1801 1.397 . S
C1800 C1805 1.363 . S
C1801 H1772 0.950 . S
C1801 C1800 1.397 . S
C1801 C1802 1.334 . S
C1802 H1773 0.950 . S
C1802 C1801 1.334 . S
C1802 C1803 1.287 . S
C1803 C1802 1.287 . S
C1803 C1804 1.524 . S
C1803 H1806 0.999 . S
C1804 H1774 0.950 . S
C1804 C1803 1.524 . S
C1804 C1805 1.415 . S
C1805 H1775 0.950 . S
C1805 C1800 1.363 . S
C1805 C1804 1.415 . S
H1806 C1803 0.999 . S
H1807 C1788 0.913 . S
H1808 C1826 0.951 . S
H1809 C1828 0.951 . S
H1810 C1830 0.950 . S
H1811 C1831 0.950 . S
H1812 C1833 0.950 . S
H1813 C1836 0.950 . S
H1814 C1837 0.950 . S
H1815 C1839 0.950 . S
H1816 C1840 0.950 . S
H1817 C1841 0.951 . S
H1818 C1843 0.951 . S
H1819 C1845 0.950 . S
H1820 C1846 0.950 . S
H1821 C1848 0.950 . S
H1822 C1851 0.950 . S
H1823 C1852 0.950 . S
H1824 C1854 0.950 . S
H1825 C1855 0.950 . S
C1826 H1808 0.951 . S
C1826 C1827 1.366 . S
C1826 C1828 1.388 . S
C1827 C1826 1.366 . S
C1827 C1831 1.385 . S
C1828 H1809 0.951 . S
C1828 C1826 1.388 . S
C1828 C1829 1.366 . S
C1829 C1828 1.366 . S
C1829 C1830 1.414 . S
C1829 C1832 1.499 . S
C1830 H1810 0.950 . S
C1830 C1829 1.414 . S
C1830 C1831 1.374 . S
C1831 H1811 0.950 . S
C1831 C1827 1.385 . S
C1831 C1830 1.374 . S
C1832 C1829 1.499 . S
C1832 C1833 1.373 . S
C1832 C1834 1.389 . S
C1833 H1812 0.950 . S
C1833 C1832 1.373 . S
C1833 C1849 1.377 . S
C1834 C1832 1.389 . S
C1834 C1835 1.524 . S
C1834 C1848 1.377 . S
C1835 C1834 1.524 . S
C1835 C1836 1.397 . S
C1835 C1840 1.363 . S
C1836 H1813 0.950 . S
C1836 C1835 1.397 . S
C1836 C1837 1.334 . S
C1837 H1814 0.950 . S
C1837 C1836 1.334 . S
C1837 C1838 1.287 . S
C1838 C1837 1.287 . S
C1838 C1839 1.524 . S
C1838 H1857 0.913 . S
C1839 H1815 0.950 . S
C1839 C1838 1.524 . S
C1839 C1840 1.415 . S
C1840 H1816 0.950 . S
C1840 C1835 1.363 . S
C1840 C1839 1.415 . S
C1841 H1817 0.951 . S
C1841 C1842 1.366 . S
C1841 C1843 1.388 . S
C1842 C1841 1.366 . S
C1842 C1846 1.385 . S
C1843 H1818 0.951 . S
C1843 C1841 1.388 . S
C1843 C1844 1.366 . S
C1844 C1843 1.366 . S
C1844 C1845 1.414 . S
C1844 C1847 1.499 . S
C1845 H1819 0.950 . S
C1845 C1844 1.414 . S
C1845 C1846 1.374 . S
C1846 H1820 0.950 . S
C1846 C1842 1.385 . S
C1846 C1845 1.374 . S
C1847 C1844 1.499 . S
C1847 C1848 1.373 . S
C1847 C1849 1.389 . S
C1848 H1821 0.950 . S
C1848 C1834 1.377 . S
C1848 C1847 1.373 . S
C1849 C1833 1.377 . S
C1849 C1847 1.389 . S
C1849 C1850 1.524 . S
C1850 C1849 1.524 . S
C1850 C1851 1.397 . S
C1850 C1855 1.363 . S
C1851 H1822 0.950 . S
C1851 C1850 1.397 . S
C1851 C1852 1.334 . S
C1852 H1823 0.950 . S
C1852 C1851 1.334 . S
C1852 C1853 1.287 . S
C1853 C1852 1.287 . S
C1853 C1854 1.524 . S
C1853 H1856 0.999 . S
C1854 H1824 0.950 . S
C1854 C1853 1.524 . S
C1854 C1855 1.415 . S
C1855 H1825 0.950 . S
C1855 C1850 1.363 . S
C1855 C1854 1.415 . S
H1856 C1853 0.999 . S
H1857 C1838 0.913 . S
H1858 C1876 0.951 . S
H1859 C1878 0.951 . S
H1860 C1880 0.950 . S
H1861 C1881 0.950 . S
H1862 C1883 0.950 . S
H1863 C1886 0.950 . S
H1864 C1887 0.950 . S
H1865 C1889 0.950 . S
H1866 C1890 0.950 . S
H1867 C1891 0.951 . S
H1868 C1893 0.951 . S
H1869 C1895 0.950 . S
H1870 C1896 0.950 . S
H1871 C1898 0.950 . S
H1872 C1901 0.950 . S
H1873 C1902 0.950 . S
H1874 C1904 0.950 . S
H1875 C1905 0.950 . S
C1876 H1858 0.951 . S
C1876 C1877 1.366 . S
C1876 C1878 1.388 . S
C1877 C1876 1.366 . S
C1877 C1881 1.385 . S
C1878 H1859 0.951 . S
C1878 C1876 1.388 . S
C1878 C1879 1.366 . S
C1879 C1878 1.366 . S
C1879 C1880 1.414 . S
C1879 C1882 1.499 . S
C1880 H1860 0.950 . S
C1880 C1879 1.414 . S
C1880 C1881 1.374 . S
C1881 H1861 0.950 . S
C1881 C1877 1.385 . S
C1881 C1880 1.374 . S
C1882 C1879 1.499 . S
C1882 C1883 1.373 . S
C1882 C1884 1.389 . S
C1883 H1862 0.950 . S
C1883 C1882 1.373 . S
C1883 C1899 1.377 . S
C1884 C1882 1.389 . S
C1884 C1885 1.524 . S
C1884 C1898 1.377 . S
C1885 C1884 1.524 . S
C1885 C1886 1.397 . S
C1885 C1890 1.363 . S
C1886 H1863 0.950 . S
C1886 C1885 1.397 . S
C1886 C1887 1.334 . S
C1887 H1864 0.950 . S
C1887 C1886 1.334 . S
C1887 C1888 1.287 . S
C1888 C1887 1.287 . S
C1888 C1889 1.524 . S
C1888 H1907 0.913 . S
C1889 H1865 0.950 . S
C1889 C1888 1.524 . S
C1889 C1890 1.415 . S
C1890 H1866 0.950 . S
C1890 C1885 1.363 . S
C1890 C1889 1.415 . S
C1891 H1867 0.951 . S
C1891 C1892 1.366 . S
C1891 C1893 1.388 . S
C1892 C1891 1.366 . S
C1892 C1896 1.385 . S
C1893 H1868 0.951 . S
C1893 C1891 1.388 . S
C1893 C1894 1.366 . S
C1894 C1893 1.366 . S
C1894 C1895 1.414 . S
C1894 C1897 1.499 . S
C1895 H1869 0.950 . S
C1895 C1894 1.414 . S
C1895 C1896 1.374 . S
C1896 H1870 0.950 . S
C1896 C1892 1.385 . S
C1896 C1895 1.374 . S
C1897 C1894 1.499 . S
C1897 C1898 1.373 . S
C1897 C1899 1.389 . S
C1898 H1871 0.950 . S
C1898 C1884 1.377 . S
C1898 C1897 1.373 . S
C1899 C1883 1.377 . S
C1899 C1897 1.389 . S
C1899 C1900 1.524 . S
C1900 C1899 1.524 . S
C1900 C1901 1.397 . S
C1900 C1905 1.363 . S
C1901 H1872 0.950 . S
C1901 C1900 1.397 . S
C1901 C1902 1.334 . S
C1902 H1873 0.950 . S
C1902 C1901 1.334 . S
C1902 C1903 1.287 . S
C1903 C1902 1.287 . S
C1903 C1904 1.524 . S
C1903 H1906 0.999 . S
C1904 H1874 0.950 . S
C1904 C1903 1.524 . S
C1904 C1905 1.415 . S
C1905 H1875 0.950 . S
C1905 C1900 1.363 . S
C1905 C1904 1.415 . S
H1906 C1903 0.999 . S
H1907 C1888 0.913 . S
H1908 C1926 0.951 . S
H1909 C1928 0.951 . S
H1910 C1930 0.950 . S
H1911 C1931 0.950 . S
H1912 C1933 0.950 . S
H1913 C1936 0.950 . S
H1914 C1937 0.950 . S
H1915 C1939 0.950 . S
H1916 C1940 0.950 . S
H1917 C1941 0.951 . S
H1918 C1943 0.951 . S
H1919 C1945 0.950 . S
H1920 C1946 0.950 . S
H1921 C1948 0.950 . S
H1922 C1951 0.950 . S
H1923 C1952 0.950 . S
H1924 C1954 0.950 . S
H1925 C1955 0.950 . S
C1926 H1908 0.951 . S
C1926 C1927 1.366 . S
C1926 C1928 1.388 . S
C1927 C1926 1.366 . S
C1927 C1931 1.385 . S
C1928 H1909 0.951 . S
C1928 C1926 1.388 . S
C1928 C1929 1.366 . S
C1929 C1928 1.366 . S
C1929 C1930 1.414 . S
C1929 C1932 1.499 . S
C1930 H1910 0.950 . S
C1930 C1929 1.414 . S
C1930 C1931 1.374 . S
C1931 H1911 0.950 . S
C1931 C1927 1.385 . S
C1931 C1930 1.374 . S
C1932 C1929 1.499 . S
C1932 C1933 1.373 . S
C1932 C1934 1.389 . S
C1933 H1912 0.950 . S
C1933 C1932 1.373 . S
C1933 C1949 1.377 . S
C1934 C1932 1.389 . S
C1934 C1935 1.524 . S
C1934 C1948 1.377 . S
C1935 C1934 1.524 . S
C1935 C1936 1.397 . S
C1935 C1940 1.363 . S
C1936 H1913 0.950 . S
C1936 C1935 1.397 . S
C1936 C1937 1.334 . S
C1937 H1914 0.950 . S
C1937 C1936 1.334 . S
C1937 C1938 1.287 . S
C1938 C1937 1.287 . S
C1938 C1939 1.524 . S
C1938 H1957 0.913 . S
C1939 H1915 0.950 . S
C1939 C1938 1.524 . S
C1939 C1940 1.415 . S
C1940 H1916 0.950 . S
C1940 C1935 1.363 . S
C1940 C1939 1.415 . S
C1941 H1917 0.951 . S
C1941 C1942 1.366 . S
C1941 C1943 1.388 . S
C1942 C1941 1.366 . S
C1942 C1946 1.385 . S
C1943 H1918 0.951 . S
C1943 C1941 1.388 . S
C1943 C1944 1.366 . S
C1944 C1943 1.366 . S
C1944 C1945 1.414 . S
C1944 C1947 1.499 . S
C1945 H1919 0.950 . S
C1945 C1944 1.414 . S
C1945 C1946 1.374 . S
C1946 H1920 0.950 . S
C1946 C1942 1.385 . S
C1946 C1945 1.374 . S
C1947 C1944 1.499 . S
C1947 C1948 1.373 . S
C1947 C1949 1.389 . S
C1948 H1921 0.950 . S
C1948 C1934 1.377 . S
C1948 C1947 1.373 . S
C1949 C1933 1.377 . S
C1949 C1947 1.389 . S
C1949 C1950 1.524 . S
C1950 C1949 1.524 . S
C1950 C1951 1.397 . S
C1950 C1955 1.363 . S
C1951 H1922 0.950 . S
C1951 C1950 1.397 . S
C1951 C1952 1.334 . S
C1952 H1923 0.950 . S
C1952 C1951 1.334 . S
C1952 C1953 1.287 . S
C1953 C1952 1.287 . S
C1953 C1954 1.524 . S
C1953 H1956 0.999 . S
C1954 H1924 0.950 . S
C1954 C1953 1.524 . S
C1954 C1955 1.415 . S
C1955 H1925 0.950 . S
C1955 C1950 1.363 . S
C1955 C1954 1.415 . S
H1956 C1953 0.999 . S
H1957 C1938 0.913 . S
H1958 C1976 0.951 . S
H1959 C1978 0.951 . S
H1960 C1980 0.950 . S
H1961 C1981 0.950 . S
H1962 C1983 0.950 . S
H1963 C1986 0.950 . S
H1964 C1987 0.950 . S
H1965 C1989 0.950 . S
H1966 C1990 0.950 . S
H1967 C1991 0.951 . S
H1968 C1993 0.951 . S
H1969 C1995 0.950 . S
H1970 C1996 0.950 . S
H1971 C1998 0.950 . S
H1972 C2001 0.950 . S
H1973 C2002 0.950 . S
H1974 C2004 0.950 . S
H1975 C2005 0.950 . S
C1976 H1958 0.951 . S
C1976 C1977 1.366 . S
C1976 C1978 1.388 . S
C1977 C1976 1.366 . S
C1977 C1981 1.385 . S
C1978 H1959 0.951 . S
C1978 C1976 1.388 . S
C1978 C1979 1.366 . S
C1979 C1978 1.366 . S
C1979 C1980 1.414 . S
C1979 C1982 1.499 . S
C1980 H1960 0.950 . S
C1980 C1979 1.414 . S
C1980 C1981 1.374 . S
C1981 H1961 0.950 . S
C1981 C1977 1.385 . S
C1981 C1980 1.374 . S
C1982 C1979 1.499 . S
C1982 C1983 1.373 . S
C1982 C1984 1.389 . S
C1983 H1962 0.950 . S
C1983 C1982 1.373 . S
C1983 C1999 1.377 . S
C1984 C1982 1.389 . S
C1984 C1985 1.524 . S
C1984 C1998 1.377 . S
C1985 C1984 1.524 . S
C1985 C1986 1.397 . S
C1985 C1990 1.363 . S
C1986 H1963 0.950 . S
C1986 C1985 1.397 . S
C1986 C1987 1.334 . S
C1987 H1964 0.950 . S
C1987 C1986 1.334 . S
C1987 C1988 1.287 . S
C1988 C1987 1.287 . S
C1988 C1989 1.524 . S
C1988 H2007 0.913 . S
C1989 H1965 0.950 . S
C1989 C1988 1.524 . S
C1989 C1990 1.415 . S
C1990 H1966 0.950 . S
C1990 C1985 1.363 . S
C1990 C1989 1.415 . S
C1991 H1967 0.951 . S
C1991 C1992 1.366 . S
C1991 C1993 1.388 . S
C1992 C1991 1.366 . S
C1992 C1996 1.385 . S
C1993 H1968 0.951 . S
C1993 C1991 1.388 . S
C1993 C1994 1.366 . S
C1994 C1993 1.366 . S
C1994 C1995 1.414 . S
C1994 C1997 1.499 . S
C1995 H1969 0.950 . S
C1995 C1994 1.414 . S
C1995 C1996 1.374 . S
C1996 H1970 0.950 . S
C1996 C1992 1.385 . S
C1996 C1995 1.374 . S
C1997 C1994 1.499 . S
C1997 C1998 1.373 . S
C1997 C1999 1.389 . S
C1998 H1971 0.950 . S
C1998 C1984 1.377 . S
C1998 C1997 1.373 . S
C1999 C1983 1.377 . S
C1999 C1997 1.389 . S
C1999 C2000 1.524 . S
C2000 C1999 1.524 . S
C2000 C2001 1.397 . S
C2000 C2005 1.363 . S
C2001 H1972 0.950 . S
C2001 C2000 1.397 . S
C2001 C2002 1.334 . S
C2002 H1973 0.950 . S
C2002 C2001 1.334 . S
C2002 C2003 1.287 . S
C2003 C2002 1.287 . S
C2003 C2004 1.524 . S
C2003 H2006 0.999 . S
C2004 H1974 0.950 . S
C2004 C2003 1.524 . S
C2004 C2005 1.415 . S
C2005 H1975 0.950 . S
C2005 C2000 1.363 . S
C2005 C2004 1.415 . S
H2006 C2003 0.999 . S
H2007 C1988 0.913 . S
H2008 C2026 0.951 . S
H2009 C2028 0.951 . S
H2010 C2030 0.950 . S
H2011 C2031 0.950 . S
H2012 C2033 0.950 . S
H2013 C2036 0.950 . S
H2014 C2037 0.950 . S
H2015 C2039 0.950 . S
H2016 C2040 0.950 . S
H2017 C2041 0.951 . S
H2018 C2043 0.951 . S
H2019 C2045 0.950 . S
H2020 C2046 0.950 . S
H2021 C2048 0.950 . S
H2022 C2051 0.950 . S
H2023 C2052 0.950 . S
H2024 C2054 0.950 . S
H2025 C2055 0.950 . S
C2026 H2008 0.951 . S
C2026 C2027 1.366 . S
C2026 C2028 1.388 . S
C2027 C2026 1.366 . S
C2027 C2031 1.385 . S
C2028 H2009 0.951 . S
C2028 C2026 1.388 . S
C2028 C2029 1.366 . S
C2029 C2028 1.366 . S
C2029 C2030 1.414 . S
C2029 C2032 1.499 . S
C2030 H2010 0.950 . S
C2030 C2029 1.414 . S
C2030 C2031 1.374 . S
C2031 H2011 0.950 . S
C2031 C2027 1.385 . S
C2031 C2030 1.374 . S
C2032 C2029 1.499 . S
C2032 C2033 1.373 . S
C2032 C2034 1.389 . S
C2033 H2012 0.950 . S
C2033 C2032 1.373 . S
C2033 C2049 1.377 . S
C2034 C2032 1.389 . S
C2034 C2035 1.524 . S
C2034 C2048 1.377 . S
C2035 C2034 1.524 . S
C2035 C2036 1.397 . S
C2035 C2040 1.363 . S
C2036 H2013 0.950 . S
C2036 C2035 1.397 . S
C2036 C2037 1.334 . S
C2037 H2014 0.950 . S
C2037 C2036 1.334 . S
C2037 C2038 1.287 . S
C2038 C2037 1.287 . S
C2038 C2039 1.524 . S
C2038 H2057 0.913 . S
C2039 H2015 0.950 . S
C2039 C2038 1.524 . S
C2039 C2040 1.415 . S
C2040 H2016 0.950 . S
C2040 C2035 1.363 . S
C2040 C2039 1.415 . S
C2041 H2017 0.951 . S
C2041 C2042 1.366 . S
C2041 C2043 1.388 . S
C2042 C2041 1.366 . S
C2042 C2046 1.385 . S
C2043 H2018 0.951 . S
C2043 C2041 1.388 . S
C2043 C2044 1.366 . S
C2044 C2043 1.366 . S
C2044 C2045 1.414 . S
C2044 C2047 1.499 . S
C2045 H2019 0.950 . S
C2045 C2044 1.414 . S
C2045 C2046 1.374 . S
C2046 H2020 0.950 . S
C2046 C2042 1.385 . S
C2046 C2045 1.374 . S
C2047 C2044 1.499 . S
C2047 C2048 1.373 . S
C2047 C2049 1.389 . S
C2048 H2021 0.950 . S
C2048 C2034 1.377 . S
C2048 C2047 1.373 . S
C2049 C2033 1.377 . S
C2049 C2047 1.389 . S
C2049 C2050 1.524 . S
C2050 C2049 1.524 . S
C2050 C2051 1.397 . S
C2050 C2055 1.363 . S
C2051 H2022 0.950 . S
C2051 C2050 1.397 . S
C2051 C2052 1.334 . S
C2052 H2023 0.950 . S
C2052 C2051 1.334 . S
C2052 C2053 1.287 . S
C2053 C2052 1.287 . S
C2053 C2054 1.524 . S
C2053 H2056 0.999 . S
C2054 H2024 0.950 . S
C2054 C2053 1.524 . S
C2054 C2055 1.415 . S
C2055 H2025 0.950 . S
C2055 C2050 1.363 . S
C2055 C2054 1.415 . S
H2056 C2053 0.999 . S
H2057 C2038 0.913 . S
H2058 C2076 0.951 . S
H2059 C2078 0.951 . S
H2060 C2080 0.950 . S
H2061 C2081 0.950 . S
H2062 C2083 0.950 . S
H2063 C2086 0.950 . S
H2064 C2087 0.950 . S
H2065 C2089 0.950 . S
H2066 C2090 0.950 . S
H2067 C2091 0.951 . S
H2068 C2093 0.951 . S
H2069 C2095 0.950 . S
H2070 C2096 0.950 . S
H2071 C2098 0.950 . S
H2072 C2101 0.950 . S
H2073 C2102 0.950 . S
H2074 C2104 0.950 . S
H2075 C2105 0.950 . S
C2076 H2058 0.951 . S
C2076 C2077 1.366 . S
C2076 C2078 1.388 . S
C2077 C2076 1.366 . S
C2077 C2081 1.385 . S
C2078 H2059 0.951 . S
C2078 C2076 1.388 . S
C2078 C2079 1.366 . S
C2079 C2078 1.366 . S
C2079 C2080 1.414 . S
C2079 C2082 1.499 . S
C2080 H2060 0.950 . S
C2080 C2079 1.414 . S
C2080 C2081 1.374 . S
C2081 H2061 0.950 . S
C2081 C2077 1.385 . S
C2081 C2080 1.374 . S
C2082 C2079 1.499 . S
C2082 C2083 1.373 . S
C2082 C2084 1.389 . S
C2083 H2062 0.950 . S
C2083 C2082 1.373 . S
C2083 C2099 1.377 . S
C2084 C2082 1.389 . S
C2084 C2085 1.524 . S
C2084 C2098 1.377 . S
C2085 C2084 1.524 . S
C2085 C2086 1.397 . S
C2085 C2090 1.363 . S
C2086 H2063 0.950 . S
C2086 C2085 1.397 . S
C2086 C2087 1.334 . S
C2087 H2064 0.950 . S
C2087 C2086 1.334 . S
C2087 C2088 1.287 . S
C2088 C2087 1.287 . S
C2088 C2089 1.524 . S
C2088 H2107 0.913 . S
C2089 H2065 0.950 . S
C2089 C2088 1.524 . S
C2089 C2090 1.415 . S
C2090 H2066 0.950 . S
C2090 C2085 1.363 . S
C2090 C2089 1.415 . S
C2091 H2067 0.951 . S
C2091 C2092 1.366 . S
C2091 C2093 1.388 . S
C2092 C2091 1.366 . S
C2092 C2096 1.385 . S
C2093 H2068 0.951 . S
C2093 C2091 1.388 . S
C2093 C2094 1.366 . S
C2094 C2093 1.366 . S
C2094 C2095 1.414 . S
C2094 C2097 1.499 . S
C2095 H2069 0.950 . S
C2095 C2094 1.414 . S
C2095 C2096 1.374 . S
C2096 H2070 0.950 . S
C2096 C2092 1.385 . S
C2096 C2095 1.374 . S
C2097 C2094 1.499 . S
C2097 C2098 1.373 . S
C2097 C2099 1.389 . S
C2098 H2071 0.950 . S
C2098 C2084 1.377 . S
C2098 C2097 1.373 . S
C2099 C2083 1.377 . S
C2099 C2097 1.389 . S
C2099 C2100 1.524 . S
C2100 C2099 1.524 . S
C2100 C2101 1.397 . S
C2100 C2105 1.363 . S
C2101 H2072 0.950 . S
C2101 C2100 1.397 . S
C2101 C2102 1.334 . S
C2102 H2073 0.950 . S
C2102 C2101 1.334 . S
C2102 C2103 1.287 . S
C2103 C2102 1.287 . S
C2103 C2104 1.524 . S
C2103 H2106 0.999 . S
C2104 H2074 0.950 . S
C2104 C2103 1.524 . S
C2104 C2105 1.415 . S
C2105 H2075 0.950 . S
C2105 C2100 1.363 . S
C2105 C2104 1.415 . S
H2106 C2103 0.999 . S
H2107 C2088 0.913 . S
H2108 C2126 0.951 . S
H2109 C2128 0.951 . S
H2110 C2130 0.950 . S
H2111 C2131 0.950 . S
H2112 C2133 0.950 . S
H2113 C2136 0.950 . S
H2114 C2137 0.950 . S
H2115 C2139 0.950 . S
H2116 C2140 0.950 . S
H2117 C2141 0.951 . S
H2118 C2143 0.951 . S
H2119 C2145 0.950 . S
H2120 C2146 0.950 . S
H2121 C2148 0.950 . S
H2122 C2151 0.950 . S
H2123 C2152 0.950 . S
H2124 C2154 0.950 . S
H2125 C2155 0.950 . S
C2126 H2108 0.951 . S
C2126 C2127 1.366 . S
C2126 C2128 1.388 . S
C2127 C2126 1.366 . S
C2127 C2131 1.385 . S
C2128 H2109 0.951 . S
C2128 C2126 1.388 . S
C2128 C2129 1.366 . S
C2129 C2128 1.366 . S
C2129 C2130 1.414 . S
C2129 C2132 1.499 . S
C2130 H2110 0.950 . S
C2130 C2129 1.414 . S
C2130 C2131 1.374 . S
C2131 H2111 0.950 . S
C2131 C2127 1.385 . S
C2131 C2130 1.374 . S
C2132 C2129 1.499 . S
C2132 C2133 1.373 . S
C2132 C2134 1.389 . S
C2133 H2112 0.950 . S
C2133 C2132 1.373 . S
C2133 C2149 1.377 . S
C2134 C2132 1.389 . S
C2134 C2135 1.524 . S
C2134 C2148 1.377 . S
C2135 C2134 1.524 . S
C2135 C2136 1.397 . S
C2135 C2140 1.363 . S
C2136 H2113 0.950 . S
C2136 C2135 1.397 . S
C2136 C2137 1.334 . S
C2137 H2114 0.950 . S
C2137 C2136 1.334 . S
C2137 C2138 1.287 . S
C2138 C2137 1.287 . S
C2138 C2139 1.524 . S
C2138 H2157 0.913 . S
C2139 H2115 0.950 . S
C2139 C2138 1.524 . S
C2139 C2140 1.415 . S
C2140 H2116 0.950 . S
C2140 C2135 1.363 . S
C2140 C2139 1.415 . S
C2141 H2117 0.951 . S
C2141 C2142 1.366 . S
C2141 C2143 1.388 . S
C2142 C2141 1.366 . S
C2142 C2146 1.385 . S
C2143 H2118 0.951 . S
C2143 C2141 1.388 . S
C2143 C2144 1.366 . S
C2144 C2143 1.366 . S
C2144 C2145 1.414 . S
C2144 C2147 1.499 . S
C2145 H2119 0.950 . S
C2145 C2144 1.414 . S
C2145 C2146 1.374 . S
C2146 H2120 0.950 . S
C2146 C2142 1.385 . S
C2146 C2145 1.374 . S
C2147 C2144 1.499 . S
C2147 C2148 1.373 . S
C2147 C2149 1.389 . S
C2148 H2121 0.950 . S
C2148 C2134 1.377 . S
C2148 C2147 1.373 . S
C2149 C2133 1.377 . S
C2149 C2147 1.389 . S
C2149 C2150 1.524 . S
C2150 C2149 1.524 . S
C2150 C2151 1.397 . S
C2150 C2155 1.363 . S
C2151 H2122 0.950 . S
C2151 C2150 1.397 . S
C2151 C2152 1.334 . S
C2152 H2123 0.950 . S
C2152 C2151 1.334 . S
C2152 C2153 1.287 . S
C2153 C2152 1.287 . S
C2153 C2154 1.524 . S
C2153 H2156 0.999 . S
C2154 H2124 0.950 . S
C2154 C2153 1.524 . S
C2154 C2155 1.415 . S
C2155 H2125 0.950 . S
C2155 C2150 1.363 . S
C2155 C2154 1.415 . S
H2156 C2153 0.999 . S
H2157 C2138 0.913 . S
H2158 C2176 0.951 . S
H2159 C2178 0.951 . S
H2160 C2180 0.950 . S
H2161 C2181 0.950 . S
H2162 C2183 0.950 . S
H2163 C2186 0.950 . S
H2164 C2187 0.950 . S
H2165 C2189 0.950 . S
H2166 C2190 0.950 . S
H2167 C2191 0.951 . S
H2168 C2193 0.951 . S
H2169 C2195 0.950 . S
H2170 C2196 0.950 . S
H2171 C2198 0.950 . S
H2172 C2201 0.950 . S
H2173 C2202 0.950 . S
H2174 C2204 0.950 . S
H2175 C2205 0.950 . S
C2176 H2158 0.951 . S
C2176 C2177 1.366 . S
C2176 C2178 1.388 . S
C2177 C2176 1.366 . S
C2177 C2181 1.385 . S
C2178 H2159 0.951 . S
C2178 C2176 1.388 . S
C2178 C2179 1.366 . S
C2179 C2178 1.366 . S
C2179 C2180 1.414 . S
C2179 C2182 1.499 . S
C2180 H2160 0.950 . S
C2180 C2179 1.414 . S
C2180 C2181 1.374 . S
C2181 H2161 0.950 . S
C2181 C2177 1.385 . S
C2181 C2180 1.374 . S
C2182 C2179 1.499 . S
C2182 C2183 1.373 . S
C2182 C2184 1.389 . S
C2183 H2162 0.950 . S
C2183 C2182 1.373 . S
C2183 C2199 1.377 . S
C2184 C2182 1.389 . S
C2184 C2185 1.524 . S
C2184 C2198 1.377 . S
C2185 C2184 1.524 . S
C2185 C2186 1.397 . S
C2185 C2190 1.363 . S
C2186 H2163 0.950 . S
C2186 C2185 1.397 . S
C2186 C2187 1.334 . S
C2187 H2164 0.950 . S
C2187 C2186 1.334 . S
C2187 C2188 1.287 . S
C2188 C2187 1.287 . S
C2188 C2189 1.524 . S
C2188 H2207 0.913 . S
C2189 H2165 0.950 . S
C2189 C2188 1.524 . S
C2189 C2190 1.415 . S
C2190 H2166 0.950 . S
C2190 C2185 1.363 . S
C2190 C2189 1.415 . S
C2191 H2167 0.951 . S
C2191 C2192 1.366 . S
C2191 C2193 1.388 . S
C2192 C2191 1.366 . S
C2192 C2196 1.385 . S
C2193 H2168 0.951 . S
C2193 C2191 1.388 . S
C2193 C2194 1.366 . S
C2194 C2193 1.366 . S
C2194 C2195 1.414 . S
C2194 C2197 1.499 . S
C2195 H2169 0.950 . S
C2195 C2194 1.414 . S
C2195 C2196 1.374 . S
C2196 H2170 0.950 . S
C2196 C2192 1.385 . S
C2196 C2195 1.374 . S
C2197 C2194 1.499 . S
C2197 C2198 1.373 . S
C2197 C2199 1.389 . S
C2198 H2171 0.950 . S
C2198 C2184 1.377 . S
C2198 C2197 1.373 . S
C2199 C2183 1.377 . S
C2199 C2197 1.389 . S
C2199 C2200 1.524 . S
C2200 C2199 1.524 . S
C2200 C2201 1.397 . S
C2200 C2205 1.363 . S
C2201 H2172 0.950 . S
C2201 C2200 1.397 . S
C2201 C2202 1.334 . S
C2202 H2173 0.950 . S
C2202 C2201 1.334 . S
C2202 C2203 1.287 . S
C2203 C2202 1.287 . S
C2203 C2204 1.524 . S
C2203 H2206 0.999 . S
C2204 H2174 0.950 . S
C2204 C2203 1.524 . S
C2204 C2205 1.415 . S
C2205 H2175 0.950 . S
C2205 C2200 1.363 . S
C2205 C2204 1.415 . S
H2206 C2203 0.999 . S
H2207 C2188 0.913 . S
H2208 C2226 0.951 . S
H2209 C2228 0.951 . S
H2210 C2230 0.950 . S
H2211 C2231 0.950 . S
H2212 C2233 0.950 . S
H2213 C2236 0.950 . S
H2214 C2237 0.950 . S
H2215 C2239 0.950 . S
H2216 C2240 0.950 . S
H2217 C2241 0.951 . S
H2218 C2243 0.951 . S
H2219 C2245 0.950 . S
H2220 C2246 0.950 . S
H2221 C2248 0.950 . S
H2222 C2251 0.950 . S
H2223 C2252 0.950 . S
H2224 C2254 0.950 . S
H2225 C2255 0.950 . S
C2226 H2208 0.951 . S
C2226 C2227 1.366 . S
C2226 C2228 1.388 . S
C2227 C2226 1.366 . S
C2227 C2231 1.385 . S
C2228 H2209 0.951 . S
C2228 C2226 1.388 . S
C2228 C2229 1.366 . S
C2229 C2228 1.366 . S
C2229 C2230 1.414 . S
C2229 C2232 1.499 . S
C2230 H2210 0.950 . S
C2230 C2229 1.414 . S
C2230 C2231 1.374 . S
C2231 H2211 0.950 . S
C2231 C2227 1.385 . S
C2231 C2230 1.374 . S
C2232 C2229 1.499 . S
C2232 C2233 1.373 . S
C2232 C2234 1.389 . S
C2233 H2212 0.950 . S
C2233 C2232 1.373 . S
C2233 C2249 1.377 . S
C2234 C2232 1.389 . S
C2234 C2235 1.524 . S
C2234 C2248 1.377 . S
C2235 C2234 1.524 . S
C2235 C2236 1.397 . S
C2235 C2240 1.363 . S
C2236 H2213 0.950 . S
C2236 C2235 1.397 . S
C2236 C2237 1.334 . S
C2237 H2214 0.950 . S
C2237 C2236 1.334 . S
C2237 C2238 1.287 . S
C2238 C2237 1.287 . S
C2238 C2239 1.524 . S
C2238 H2257 0.913 . S
C2239 H2215 0.950 . S
C2239 C2238 1.524 . S
C2239 C2240 1.415 . S
C2240 H2216 0.950 . S
C2240 C2235 1.363 . S
C2240 C2239 1.415 . S
C2241 H2217 0.951 . S
C2241 C2242 1.366 . S
C2241 C2243 1.388 . S
C2242 C2241 1.366 . S
C2242 C2246 1.385 . S
C2243 H2218 0.951 . S
C2243 C2241 1.388 . S
C2243 C2244 1.366 . S
C2244 C2243 1.366 . S
C2244 C2245 1.414 . S
C2244 C2247 1.499 . S
C2245 H2219 0.950 . S
C2245 C2244 1.414 . S
C2245 C2246 1.374 . S
C2246 H2220 0.950 . S
C2246 C2242 1.385 . S
C2246 C2245 1.374 . S
C2247 C2244 1.499 . S
C2247 C2248 1.373 . S
C2247 C2249 1.389 . S
C2248 H2221 0.950 . S
C2248 C2234 1.377 . S
C2248 C2247 1.373 . S
C2249 C2233 1.377 . S
C2249 C2247 1.389 . S
C2249 C2250 1.524 . S
C2250 C2249 1.524 . S
C2250 C2251 1.397 . S
C2250 C2255 1.363 . S
C2251 H2222 0.950 . S
C2251 C2250 1.397 . S
C2251 C2252 1.334 . S
C2252 H2223 0.950 . S
C2252 C2251 1.334 . S
C2252 C2253 1.287 . S
C2253 C2252 1.287 . S
C2253 C2254 1.524 . S
C2253 H2256 0.999 . S
C2254 H2224 0.950 . S
C2254 C2253 1.524 . S
C2254 C2255 1.415 . S
C2255 H2225 0.950 . S
C2255 C2250 1.363 . S
C2255 C2254 1.415 . S
H2256 C2253 0.999 . S
H2257 C2238 0.913 . S
H2258 C2276 0.951 . S
H2259 C2278 0.951 . S
H2260 C2280 0.950 . S
H2261 C2281 0.950 . S
H2262 C2283 0.950 . S
H2263 C2286 0.950 . S
H2264 C2287 0.950 . S
H2265 C2289 0.950 . S
H2266 C2290 0.950 . S
H2267 C2291 0.951 . S
H2268 C2293 0.951 . S
H2269 C2295 0.950 . S
H2270 C2296 0.950 . S
H2271 C2298 0.950 . S
H2272 C2301 0.950 . S
H2273 C2302 0.950 . S
H2274 C2304 0.950 . S
H2275 C2305 0.950 . S
C2276 H2258 0.951 . S
C2276 C2277 1.366 . S
C2276 C2278 1.388 . S
C2277 C2276 1.366 . S
C2277 C2281 1.385 . S
C2278 H2259 0.951 . S
C2278 C2276 1.388 . S
C2278 C2279 1.366 . S
C2279 C2278 1.366 . S
C2279 C2280 1.414 . S
C2279 C2282 1.499 . S
C2280 H2260 0.950 . S
C2280 C2279 1.414 . S
C2280 C2281 1.374 . S
C2281 H2261 0.950 . S
C2281 C2277 1.385 . S
C2281 C2280 1.374 . S
C2282 C2279 1.499 . S
C2282 C2283 1.373 . S
C2282 C2284 1.389 . S
C2283 H2262 0.950 . S
C2283 C2282 1.373 . S
C2283 C2299 1.377 . S
C2284 C2282 1.389 . S
C2284 C2285 1.524 . S
C2284 C2298 1.377 . S
C2285 C2284 1.524 . S
C2285 C2286 1.397 . S
C2285 C2290 1.363 . S
C2286 H2263 0.950 . S
C2286 C2285 1.397 . S
C2286 C2287 1.334 . S
C2287 H2264 0.950 . S
C2287 C2286 1.334 . S
C2287 C2288 1.287 . S
C2288 C2287 1.287 . S
C2288 C2289 1.524 . S
C2288 H2307 0.913 . S
C2289 H2265 0.950 . S
C2289 C2288 1.524 . S
C2289 C2290 1.415 . S
C2290 H2266 0.950 . S
C2290 C2285 1.363 . S
C2290 C2289 1.415 . S
C2291 H2267 0.951 . S
C2291 C2292 1.366 . S
C2291 C2293 1.388 . S
C2292 C2291 1.366 . S
C2292 C2296 1.385 . S
C2293 H2268 0.951 . S
C2293 C2291 1.388 . S
C2293 C2294 1.366 . S
C2294 C2293 1.366 . S
C2294 C2295 1.414 . S
C2294 C2297 1.499 . S
C2295 H2269 0.950 . S
C2295 C2294 1.414 . S
C2295 C2296 1.374 . S
C2296 H2270 0.950 . S
C2296 C2292 1.385 . S
C2296 C2295 1.374 . S
C2297 C2294 1.499 . S
C2297 C2298 1.373 . S
C2297 C2299 1.389 . S
C2298 H2271 0.950 . S
C2298 C2284 1.377 . S
C2298 C2297 1.373 . S
C2299 C2283 1.377 . S
C2299 C2297 1.389 . S
C2299 C2300 1.524 . S
C2300 C2299 1.524 . S
C2300 C2301 1.397 . S
C2300 C2305 1.363 . S
C2301 H2272 0.950 . S
C2301 C2300 1.397 . S
C2301 C2302 1.334 . S
C2302 H2273 0.950 . S
C2302 C2301 1.334 . S
C2302 C2303 1.287 . S
C2303 C2302 1.287 . S
C2303 C2304 1.524 . S
C2303 H2306 0.999 . S
C2304 H2274 0.950 . S
C2304 C2303 1.524 . S
C2304 C2305 1.415 . S
C2305 H2275 0.950 . S
C2305 C2300 1.363 . S
C2305 C2304 1.415 . S
H2306 C2303 0.999 . S
H2307 C2288 0.913 . S
H2308 C2326 0.951 . S
H2309 C2328 0.951 . S
H2310 C2330 0.950 . S
H2311 C2331 0.950 . S
H2312 C2333 0.950 . S
H2313 C2336 0.950 . S
H2314 C2337 0.950 . S
H2315 C2339 0.950 . S
H2316 C2340 0.950 . S
H2317 C2341 0.951 . S
H2318 C2343 0.951 . S
H2319 C2345 0.950 . S
H2320 C2346 0.950 . S
H2321 C2348 0.950 . S
H2322 C2351 0.950 . S
H2323 C2352 0.950 . S
H2324 C2354 0.950 . S
H2325 C2355 0.950 . S
C2326 H2308 0.951 . S
C2326 C2327 1.366 . S
C2326 C2328 1.388 . S
C2327 C2326 1.366 . S
C2327 C2331 1.385 . S
C2328 H2309 0.951 . S
C2328 C2326 1.388 . S
C2328 C2329 1.366 . S
C2329 C2328 1.366 . S
C2329 C2330 1.414 . S
C2329 C2332 1.499 . S
C2330 H2310 0.950 . S
C2330 C2329 1.414 . S
C2330 C2331 1.374 . S
C2331 H2311 0.950 . S
C2331 C2327 1.385 . S
C2331 C2330 1.374 . S
C2332 C2329 1.499 . S
C2332 C2333 1.373 . S
C2332 C2334 1.389 . S
C2333 H2312 0.950 . S
C2333 C2332 1.373 . S
C2333 C2349 1.377 . S
C2334 C2332 1.389 . S
C2334 C2335 1.524 . S
C2334 C2348 1.377 . S
C2335 C2334 1.524 . S
C2335 C2336 1.397 . S
C2335 C2340 1.363 . S
C2336 H2313 0.950 . S
C2336 C2335 1.397 . S
C2336 C2337 1.334 . S
C2337 H2314 0.950 . S
C2337 C2336 1.334 . S
C2337 C2338 1.287 . S
C2338 C2337 1.287 . S
C2338 C2339 1.524 . S
C2338 H2357 0.913 . S
C2339 H2315 0.950 . S
C2339 C2338 1.524 . S
C2339 C2340 1.415 . S
C2340 H2316 0.950 . S
C2340 C2335 1.363 . S
C2340 C2339 1.415 . S
C2341 H2317 0.951 . S
C2341 C2342 1.366 . S
C2341 C2343 1.388 . S
C2342 C2341 1.366 . S
C2342 C2346 1.385 . S
C2343 H2318 0.951 . S
C2343 C2341 1.388 . S
C2343 C2344 1.366 . S
C2344 C2343 1.366 . S
C2344 C2345 1.414 . S
C2344 C2347 1.499 . S
C2345 H2319 0.950 . S
C2345 C2344 1.414 . S
C2345 C2346 1.374 . S
C2346 H2320 0.950 . S
C2346 C2342 1.385 . S
C2346 C2345 1.374 . S
C2347 C2344 1.499 . S
C2347 C2348 1.373 . S
C2347 C2349 1.389 . S
C2348 H2321 0.950 . S
C2348 C2334 1.377 . S
C2348 C2347 1.373 . S
C2349 C2333 1.377 . S
C2349 C2347 1.389 . S
C2349 C2350 1.524 . S
C2350 C2349 1.524 . S
C2350 C2351 1.397 . S
C2350 C2355 1.363 . S
C2351 H2322 0.950 . S
C2351 C2350 1.397 . S
C2351 C2352 1.334 . S
C2352 H2323 0.950 . S
C2352 C2351 1.334 . S
C2352 C2353 1.287 . S
C2353 C2352 1.287 . S
C2353 C2354 1.524 . S
C2353 H2356 0.999 . S
C2354 H2324 0.950 . S
C2354 C2353 1.524 . S
C2354 C2355 1.415 . S
C2355 H2325 0.950 . S
C2355 C2350 1.363 . S
C2355 C2354 1.415 . S
H2356 C2353 0.999 . S
H2357 C2338 0.913 . S
H2358 C2376 0.951 . S
H2359 C2378 0.951 . S
H2360 C2380 0.950 . S
H2361 C2381 0.950 . S
H2362 C2383 0.950 . S
H2363 C2386 0.950 . S
H2364 C2387 0.950 . S
H2365 C2389 0.950 . S
H2366 C2390 0.950 . S
H2367 C2391 0.951 . S
H2368 C2393 0.951 . S
H2369 C2395 0.950 . S
H2370 C2396 0.950 . S
H2371 C2398 0.950 . S
H2372 C2401 0.950 . S
H2373 C2402 0.950 . S
H2374 C2404 0.950 . S
H2375 C2405 0.950 . S
C2376 H2358 0.951 . S
C2376 C2377 1.366 . S
C2376 C2378 1.388 . S
C2377 C2376 1.366 . S
C2377 C2381 1.385 . S
C2378 H2359 0.951 . S
C2378 C2376 1.388 . S
C2378 C2379 1.366 . S
C2379 C2378 1.366 . S
C2379 C2380 1.414 . S
C2379 C2382 1.499 . S
C2380 H2360 0.950 . S
C2380 C2379 1.414 . S
C2380 C2381 1.374 . S
C2381 H2361 0.950 . S
C2381 C2377 1.385 . S
C2381 C2380 1.374 . S
C2382 C2379 1.499 . S
C2382 C2383 1.373 . S
C2382 C2384 1.389 . S
C2383 H2362 0.950 . S
C2383 C2382 1.373 . S
C2383 C2399 1.377 . S
C2384 C2382 1.389 . S
C2384 C2385 1.524 . S
C2384 C2398 1.377 . S
C2385 C2384 1.524 . S
C2385 C2386 1.397 . S
C2385 C2390 1.363 . S
C2386 H2363 0.950 . S
C2386 C2385 1.397 . S
C2386 C2387 1.334 . S
C2387 H2364 0.950 . S
C2387 C2386 1.334 . S
C2387 C2388 1.287 . S
C2388 C2387 1.287 . S
C2388 C2389 1.524 . S
C2388 H2407 0.913 . S
C2389 H2365 0.950 . S
C2389 C2388 1.524 . S
C2389 C2390 1.415 . S
C2390 H2366 0.950 . S
C2390 C2385 1.363 . S
C2390 C2389 1.415 . S
C2391 H2367 0.951 . S
C2391 C2392 1.366 . S
C2391 C2393 1.388 . S
C2392 C2391 1.366 . S
C2392 C2396 1.385 . S
C2393 H2368 0.951 . S
C2393 C2391 1.388 . S
C2393 C2394 1.366 . S
C2394 C2393 1.366 . S
C2394 C2395 1.414 . S
C2394 C2397 1.499 . S
C2395 H2369 0.950 . S
C2395 C2394 1.414 . S
C2395 C2396 1.374 . S
C2396 H2370 0.950 . S
C2396 C2392 1.385 . S
C2396 C2395 1.374 . S
C2397 C2394 1.499 . S
C2397 C2398 1.373 . S
C2397 C2399 1.389 . S
C2398 H2371 0.950 . S
C2398 C2384 1.377 . S
C2398 C2397 1.373 . S
C2399 C2383 1.377 . S
C2399 C2397 1.389 . S
C2399 C2400 1.524 . S
C2400 C2399 1.524 . S
C2400 C2401 1.397 . S
C2400 C2405 1.363 . S
C2401 H2372 0.950 . S
C2401 C2400 1.397 . S
C2401 C2402 1.334 . S
C2402 H2373 0.950 . S
C2402 C2401 1.334 . S
C2402 C2403 1.287 . S
C2403 C2402 1.287 . S
C2403 C2404 1.524 . S
C2403 H2406 0.999 . S
C2404 H2374 0.950 . S
C2404 C2403 1.524 . S
C2404 C2405 1.415 . S
C2405 H2375 0.950 . S
C2405 C2400 1.363 . S
C2405 C2404 1.415 . S
H2406 C2403 0.999 . S
H2407 C2388 0.913 . S
H2408 C2426 0.951 . S
H2409 C2428 0.951 . S
H2410 C2430 0.950 . S
H2411 C2431 0.950 . S
H2412 C2433 0.950 . S
H2413 C2436 0.950 . S
H2414 C2437 0.950 . S
H2415 C2439 0.950 . S
H2416 C2440 0.950 . S
H2417 C2441 0.951 . S
H2418 C2443 0.951 . S
H2419 C2445 0.950 . S
H2420 C2446 0.950 . S
H2421 C2448 0.950 . S
H2422 C2451 0.950 . S
H2423 C2452 0.950 . S
H2424 C2454 0.950 . S
H2425 C2455 0.950 . S
C2426 H2408 0.951 . S
C2426 C2427 1.366 . S
C2426 C2428 1.388 . S
C2427 C2426 1.366 . S
C2427 C2431 1.385 . S
C2428 H2409 0.951 . S
C2428 C2426 1.388 . S
C2428 C2429 1.366 . S
C2429 C2428 1.366 . S
C2429 C2430 1.414 . S
C2429 C2432 1.499 . S
C2430 H2410 0.950 . S
C2430 C2429 1.414 . S
C2430 C2431 1.374 . S
C2431 H2411 0.950 . S
C2431 C2427 1.385 . S
C2431 C2430 1.374 . S
C2432 C2429 1.499 . S
C2432 C2433 1.373 . S
C2432 C2434 1.389 . S
C2433 H2412 0.950 . S
C2433 C2432 1.373 . S
C2433 C2449 1.377 . S
C2434 C2432 1.389 . S
C2434 C2435 1.524 . S
C2434 C2448 1.377 . S
C2435 C2434 1.524 . S
C2435 C2436 1.397 . S
C2435 C2440 1.363 . S
C2436 H2413 0.950 . S
C2436 C2435 1.397 . S
C2436 C2437 1.334 . S
C2437 H2414 0.950 . S
C2437 C2436 1.334 . S
C2437 C2438 1.287 . S
C2438 C2437 1.287 . S
C2438 C2439 1.524 . S
C2438 H2457 0.913 . S
C2439 H2415 0.950 . S
C2439 C2438 1.524 . S
C2439 C2440 1.415 . S
C2440 H2416 0.950 . S
C2440 C2435 1.363 . S
C2440 C2439 1.415 . S
C2441 H2417 0.951 . S
C2441 C2442 1.366 . S
C2441 C2443 1.388 . S
C2442 C2441 1.366 . S
C2442 C2446 1.385 . S
C2443 H2418 0.951 . S
C2443 C2441 1.388 . S
C2443 C2444 1.366 . S
C2444 C2443 1.366 . S
C2444 C2445 1.414 . S
C2444 C2447 1.499 . S
C2445 H2419 0.950 . S
C2445 C2444 1.414 . S
C2445 C2446 1.374 . S
C2446 H2420 0.950 . S
C2446 C2442 1.385 . S
C2446 C2445 1.374 . S
C2447 C2444 1.499 . S
C2447 C2448 1.373 . S
C2447 C2449 1.389 . S
C2448 H2421 0.950 . S
C2448 C2434 1.377 . S
C2448 C2447 1.373 . S
C2449 C2433 1.377 . S
C2449 C2447 1.389 . S
C2449 C2450 1.524 . S
C2450 C2449 1.524 . S
C2450 C2451 1.397 . S
C2450 C2455 1.363 . S
C2451 H2422 0.950 . S
C2451 C2450 1.397 . S
C2451 C2452 1.334 . S
C2452 H2423 0.950 . S
C2452 C2451 1.334 . S
C2452 C2453 1.287 . S
C2453 C2452 1.287 . S
C2453 C2454 1.524 . S
C2453 H2456 0.999 . S
C2454 H2424 0.950 . S
C2454 C2453 1.524 . S
C2454 C2455 1.415 . S
C2455 H2425 0.950 . S
C2455 C2450 1.363 . S
C2455 C2454 1.415 . S
H2456 C2453 0.999 . S
H2457 C2438 0.913 . S
H2458 C2476 0.951 . S
H2459 C2478 0.951 . S
H2460 C2480 0.950 . S
H2461 C2481 0.950 . S
H2462 C2483 0.950 . S
H2463 C2486 0.950 . S
H2464 C2487 0.950 . S
H2465 C2489 0.950 . S
H2466 C2490 0.950 . S
H2467 C2491 0.951 . S
H2468 C2493 0.951 . S
H2469 C2495 0.950 . S
H2470 C2496 0.950 . S
H2471 C2498 0.950 . S
H2472 C2501 0.950 . S
H2473 C2502 0.950 . S
H2474 C2504 0.950 . S
H2475 C2505 0.950 . S
C2476 H2458 0.951 . S
C2476 C2477 1.366 . S
C2476 C2478 1.388 . S
C2477 C2476 1.366 . S
C2477 C2481 1.385 . S
C2478 H2459 0.951 . S
C2478 C2476 1.388 . S
C2478 C2479 1.366 . S
C2479 C2478 1.366 . S
C2479 C2480 1.414 . S
C2479 C2482 1.499 . S
C2480 H2460 0.950 . S
C2480 C2479 1.414 . S
C2480 C2481 1.374 . S
C2481 H2461 0.950 . S
C2481 C2477 1.385 . S
C2481 C2480 1.374 . S
C2482 C2479 1.499 . S
C2482 C2483 1.373 . S
C2482 C2484 1.389 . S
C2483 H2462 0.950 . S
C2483 C2482 1.373 . S
C2483 C2499 1.377 . S
C2484 C2482 1.389 . S
C2484 C2485 1.524 . S
C2484 C2498 1.377 . S
C2485 C2484 1.524 . S
C2485 C2486 1.397 . S
C2485 C2490 1.363 . S
C2486 H2463 0.950 . S
C2486 C2485 1.397 . S
C2486 C2487 1.334 . S
C2487 H2464 0.950 . S
C2487 C2486 1.334 . S
C2487 C2488 1.287 . S
C2488 C2487 1.287 . S
C2488 C2489 1.524 . S
C2488 H2507 0.913 . S
C2489 H2465 0.950 . S
C2489 C2488 1.524 . S
C2489 C2490 1.415 . S
C2490 H2466 0.950 . S
C2490 C2485 1.363 . S
C2490 C2489 1.415 . S
C2491 H2467 0.951 . S
C2491 C2492 1.366 . S
C2491 C2493 1.388 . S
C2492 C2491 1.366 . S
C2492 C2496 1.385 . S
C2493 H2468 0.951 . S
C2493 C2491 1.388 . S
C2493 C2494 1.366 . S
C2494 C2493 1.366 . S
C2494 C2495 1.414 . S
C2494 C2497 1.499 . S
C2495 H2469 0.950 . S
C2495 C2494 1.414 . S
C2495 C2496 1.374 . S
C2496 H2470 0.950 . S
C2496 C2492 1.385 . S
C2496 C2495 1.374 . S
C2497 C2494 1.499 . S
C2497 C2498 1.373 . S
C2497 C2499 1.389 . S
C2498 H2471 0.950 . S
C2498 C2484 1.377 . S
C2498 C2497 1.373 . S
C2499 C2483 1.377 . S
C2499 C2497 1.389 . S
C2499 C2500 1.524 . S
C2500 C2499 1.524 . S
C2500 C2501 1.397 . S
C2500 C2505 1.363 . S
C2501 H2472 0.950 . S
C2501 C2500 1.397 . S
C2501 C2502 1.334 . S
C2502 H2473 0.950 . S
C2502 C2501 1.334 . S
C2502 C2503 1.287 . S
C2503 C2502 1.287 . S
C2503 C2504 1.524 . S
C2503 H2506 0.999 . S
C2504 H2474 0.950 . S
C2504 C2503 1.524 . S
C2504 C2505 1.415 . S
C2505 H2475 0.950 . S
C2505 C2500 1.363 . S
C2505 C2504 1.415 . S
H2506 C2503 0.999 . S
H2507 C2488 0.913 . S
H2508 C2526 0.951 . S
H2509 C2528 0.951 . S
H2510 C2530 0.950 . S
H2511 C2531 0.950 . S
H2512 C2533 0.950 . S
H2513 C2536 0.950 . S
H2514 C2537 0.950 . S
H2515 C2539 0.950 . S
H2516 C2540 0.950 . S
H2517 C2541 0.951 . S
H2518 C2543 0.951 . S
H2519 C2545 0.950 . S
H2520 C2546 0.950 . S
H2521 C2548 0.950 . S
H2522 C2551 0.950 . S
H2523 C2552 0.950 . S
H2524 C2554 0.950 . S
H2525 C2555 0.950 . S
C2526 H2508 0.951 . S
C2526 C2527 1.366 . S
C2526 C2528 1.388 . S
C2527 C2526 1.366 . S
C2527 C2531 1.385 . S
C2528 H2509 0.951 . S
C2528 C2526 1.388 . S
C2528 C2529 1.366 . S
C2529 C2528 1.366 . S
C2529 C2530 1.414 . S
C2529 C2532 1.499 . S
C2530 H2510 0.950 . S
C2530 C2529 1.414 . S
C2530 C2531 1.374 . S
C2531 H2511 0.950 . S
C2531 C2527 1.385 . S
C2531 C2530 1.374 . S
C2532 C2529 1.499 . S
C2532 C2533 1.373 1_556 S
C2532 C2534 1.389 . S
C2533 H2512 0.950 . S
C2533 C2532 1.373 1_554 S
C2533 C2549 1.377 . S
C2534 C2532 1.389 . S
C2534 C2535 1.524 . S
C2534 C2548 1.377 . S
C2535 C2534 1.524 . S
C2535 C2536 1.397 . S
C2535 C2540 1.363 . S
C2536 H2513 0.950 . S
C2536 C2535 1.397 . S
C2536 C2537 1.334 . S
C2537 H2514 0.950 . S
C2537 C2536 1.334 . S
C2537 C2538 1.287 . S
C2538 C2537 1.287 . S
C2538 C2539 1.524 . S
C2538 H2557 0.913 . S
C2539 H2515 0.950 . S
C2539 C2538 1.524 . S
C2539 C2540 1.415 . S
C2540 H2516 0.950 . S
C2540 C2535 1.363 . S
C2540 C2539 1.415 . S
C2541 H2517 0.951 . S
C2541 C2542 1.366 . S
C2541 C2543 1.388 . S
C2542 C2541 1.366 . S
C2542 C2546 1.385 . S
C2543 H2518 0.951 . S
C2543 C2541 1.388 . S
C2543 C2544 1.366 . S
C2544 C2543 1.366 . S
C2544 C2545 1.414 . S
C2544 C2547 1.499 . S
C2545 H2519 0.950 . S
C2545 C2544 1.414 . S
C2545 C2546 1.374 . S
C2546 H2520 0.950 . S
C2546 C2542 1.385 . S
C2546 C2545 1.374 . S
C2547 C2544 1.499 . S
C2547 C2548 1.373 1_554 S
C2547 C2549 1.389 . S
C2548 H2521 0.950 . S
C2548 C2534 1.377 . S
C2548 C2547 1.373 1_556 S
C2549 C2533 1.377 . S
C2549 C2547 1.389 . S
C2549 C2550 1.524 . S
C2550 C2549 1.524 . S
C2550 C2551 1.397 . S
C2550 C2555 1.363 . S
C2551 H2522 0.950 . S
C2551 C2550 1.397 . S
C2551 C2552 1.334 . S
C2552 H2523 0.950 . S
C2552 C2551 1.334 . S
C2552 C2553 1.287 . S
C2553 C2552 1.287 . S
C2553 C2554 1.524 . S
C2553 H2556 0.999 . S
C2554 H2524 0.950 . S
C2554 C2553 1.524 . S
C2554 C2555 1.415 . S
C2555 H2525 0.950 . S
C2555 C2550 1.363 . S
C2555 C2554 1.415 . S
H2556 C2553 0.999 . S
H2557 C2538 0.913 . S
H2558 C2576 0.951 . S
H2559 C2578 0.951 . S
H2560 C2580 0.950 . S
H2561 C2581 0.950 . S
H2562 C2583 0.950 . S
H2563 C2586 0.950 . S
H2564 C2587 0.950 . S
H2565 C2589 0.950 . S
H2566 C2590 0.950 . S
H2567 C2591 0.951 . S
H2568 C2593 0.951 . S
H2569 C2595 0.950 . S
H2570 C2596 0.950 . S
H2571 C2598 0.950 . S
H2572 C2601 0.950 . S
H2573 C2602 0.950 . S
H2574 C2604 0.950 . S
H2575 C2605 0.950 . S
C2576 H2558 0.951 . S
C2576 C2577 1.366 . S
C2576 C2578 1.388 . S
C2577 C2576 1.366 . S
C2577 C2581 1.385 . S
C2578 H2559 0.951 . S
C2578 C2576 1.388 . S
C2578 C2579 1.366 . S
C2579 C2578 1.366 . S
C2579 C2580 1.414 . S
C2579 C2582 1.499 . S
C2580 H2560 0.950 . S
C2580 C2579 1.414 . S
C2580 C2581 1.374 . S
C2581 H2561 0.950 . S
C2581 C2577 1.385 . S
C2581 C2580 1.374 . S
C2582 C2579 1.499 . S
C2582 C2583 1.373 . S
C2582 C2584 1.389 . S
C2583 H2562 0.950 . S
C2583 C2582 1.373 . S
C2583 C2599 1.377 1_455 S
C2584 C2582 1.389 . S
C2584 C2585 1.524 . S
C2584 C2598 1.377 1_455 S
C2585 C2584 1.524 . S
C2585 C2586 1.397 . S
C2585 C2590 1.363 . S
C2586 H2563 0.950 . S
C2586 C2585 1.397 . S
C2586 C2587 1.334 . S
C2587 H2564 0.950 . S
C2587 C2586 1.334 . S
C2587 C2588 1.287 . S
C2588 C2587 1.287 . S
C2588 C2589 1.524 . S
C2588 H2607 0.913 . S
C2589 H2565 0.950 . S
C2589 C2588 1.524 . S
C2589 C2590 1.415 . S
C2590 H2566 0.950 . S
C2590 C2585 1.363 . S
C2590 C2589 1.415 . S
C2591 H2567 0.951 . S
C2591 C2592 1.366 . S
C2591 C2593 1.388 . S
C2592 C2591 1.366 . S
C2592 C2596 1.385 . S
C2593 H2568 0.951 . S
C2593 C2591 1.388 . S
C2593 C2594 1.366 . S
C2594 C2593 1.366 . S
C2594 C2595 1.414 . S
C2594 C2597 1.499 . S
C2595 H2569 0.950 . S
C2595 C2594 1.414 . S
C2595 C2596 1.374 . S
C2596 H2570 0.950 . S
C2596 C2592 1.385 . S
C2596 C2595 1.374 . S
C2597 C2594 1.499 . S
C2597 C2598 1.373 . S
C2597 C2599 1.389 . S
C2598 H2571 0.950 . S
C2598 C2584 1.377 1_655 S
C2598 C2597 1.373 . S
C2599 C2583 1.377 1_655 S
C2599 C2597 1.389 . S
C2599 C2600 1.524 . S
C2600 C2599 1.524 . S
C2600 C2601 1.397 . S
C2600 C2605 1.363 . S
C2601 H2572 0.950 . S
C2601 C2600 1.397 . S
C2601 C2602 1.334 . S
C2602 H2573 0.950 . S
C2602 C2601 1.334 . S
C2602 C2603 1.287 . S
C2603 C2602 1.287 . S
C2603 C2604 1.524 . S
C2603 H2606 0.999 . S
C2604 H2574 0.950 . S
C2604 C2603 1.524 . S
C2604 C2605 1.415 . S
C2605 H2575 0.950 . S
C2605 C2600 1.363 . S
C2605 C2604 1.415 . S
H2606 C2603 0.999 . S
H2607 C2588 0.913 . S
H2608 C2626 0.951 . S
H2609 C2628 0.951 . S
H2610 C2630 0.950 . S
H2611 C2631 0.950 . S
H2612 C2633 0.950 . S
H2613 C2636 0.950 1_545 S
H2614 C2637 0.950 1_545 S
H2615 C2639 0.950 . S
H2616 C2640 0.950 1_556 S
H2617 C2641 0.951 . S
H2618 C2643 0.951 . S
H2619 C2645 0.950 . S
H2620 C2646 0.950 . S
H2621 C2648 0.950 . S
H2622 C2651 0.950 1_565 S
H2623 C2652 0.950 1_565 S
H2624 C2654 0.950 . S
H2625 C2655 0.950 1_554 S
C2626 H2608 0.951 . S
C2626 C2627 1.366 . S
C2626 C2628 1.388 . S
C2627 C2626 1.366 . S
C2627 C2631 1.385 . S
C2628 H2609 0.951 . S
C2628 C2626 1.388 . S
C2628 C2629 1.366 . S
C2629 C2628 1.366 . S
C2629 C2630 1.414 . S
C2629 C2632 1.499 . S
C2630 H2610 0.950 . S
C2630 C2629 1.414 . S
C2630 C2631 1.374 . S
C2631 H2611 0.950 . S
C2631 C2627 1.385 . S
C2631 C2630 1.374 . S
C2632 C2629 1.499 . S
C2632 C2633 1.373 . S
C2632 C2634 1.389 . S
C2633 H2612 0.950 . S
C2633 C2632 1.373 . S
C2633 C2649 1.377 1_564 S
C2634 C2632 1.389 . S
C2634 C2635 1.524 . S
C2634 C2648 1.377 1_564 S
C2635 C2634 1.524 . S
C2635 C2636 1.397 . S
C2635 C2640 1.363 . S
C2636 H2613 0.950 1_565 S
C2636 C2635 1.397 . S
C2636 C2637 1.334 . S
C2637 H2614 0.950 1_565 S
C2637 C2636 1.334 . S
C2637 C2638 1.287 . S
C2638 C2637 1.287 . S
C2638 C2639 1.524 . S
C2638 H2657 0.913 . S
C2639 H2615 0.950 . S
C2639 C2638 1.524 . S
C2639 C2640 1.415 . S
C2640 H2616 0.950 1_554 S
C2640 C2635 1.363 . S
C2640 C2639 1.415 . S
C2641 H2617 0.951 . S
C2641 C2642 1.366 . S
C2641 C2643 1.388 . S
C2642 C2641 1.366 . S
C2642 C2646 1.385 . S
C2643 H2618 0.951 . S
C2643 C2641 1.388 . S
C2643 C2644 1.366 . S
C2644 C2643 1.366 . S
C2644 C2645 1.414 . S
C2644 C2647 1.499 . S
C2645 H2619 0.950 . S
C2645 C2644 1.414 . S
C2645 C2646 1.374 . S
C2646 H2620 0.950 . S
C2646 C2642 1.385 . S
C2646 C2645 1.374 . S
C2647 C2644 1.499 . S
C2647 C2648 1.373 . S
C2647 C2649 1.389 . S
C2648 H2621 0.950 . S
C2648 C2634 1.377 1_546 S
C2648 C2647 1.373 . S
C2649 C2633 1.377 1_546 S
C2649 C2647 1.389 . S
C2649 C2650 1.524 . S
C2650 C2649 1.524 . S
C2650 C2651 1.397 . S
C2650 C2655 1.363 . S
C2651 H2622 0.950 1_545 S
C2651 C2650 1.397 . S
C2651 C2652 1.334 . S
C2652 H2623 0.950 1_545 S
C2652 C2651 1.334 . S
C2652 C2653 1.287 . S
C2653 C2652 1.287 . S
C2653 C2654 1.524 . S
C2653 H2656 0.999 . S
C2654 H2624 0.950 . S
C2654 C2653 1.524 . S
C2654 C2655 1.415 . S
C2655 H2625 0.950 1_556 S
C2655 C2650 1.363 . S
C2655 C2654 1.415 . S
H2656 C2653 0.999 . S
H2657 C2638 0.913 . S
H2658 C2676 0.951 . S
H2659 C2678 0.951 . S
H2660 C2680 0.950 . S
H2661 C2681 0.950 . S
H2662 C2683 0.950 . S
H2663 C2686 0.950 . S
H2664 C2687 0.950 . S
H2665 C2689 0.950 . S
H2666 C2690 0.950 . S
H2667 C2691 0.951 . S
H2668 C2693 0.951 . S
H2669 C2695 0.950 . S
H2670 C2696 0.950 . S
H2671 C2698 0.950 . S
H2672 C2701 0.950 . S
H2673 C2702 0.950 . S
H2674 C2704 0.950 . S
H2675 C2705 0.950 . S
C2676 H2658 0.951 . S
C2676 C2677 1.366 . S
C2676 C2678 1.388 . S
C2677 C2676 1.366 . S
C2677 C2681 1.385 . S
C2678 H2659 0.951 . S
C2678 C2676 1.388 . S
C2678 C2679 1.366 . S
C2679 C2678 1.366 . S
C2679 C2680 1.414 . S
C2679 C2682 1.499 . S
C2680 H2660 0.950 . S
C2680 C2679 1.414 . S
C2680 C2681 1.374 . S
C2681 H2661 0.950 . S
C2681 C2677 1.385 . S
C2681 C2680 1.374 . S
C2682 C2679 1.499 . S
C2682 C2683 1.373 . S
C2682 C2684 1.389 . S
C2683 H2662 0.950 . S
C2683 C2682 1.373 . S
C2683 C2699 1.377 . S
C2684 C2682 1.389 . S
C2684 C2685 1.524 . S
C2684 C2698 1.377 . S
C2685 C2684 1.524 . S
C2685 C2686 1.397 . S
C2685 C2690 1.363 . S
C2686 H2663 0.950 . S
C2686 C2685 1.397 . S
C2686 C2687 1.334 . S
C2687 H2664 0.950 . S
C2687 C2686 1.334 . S
C2687 C2688 1.287 . S
C2688 C2687 1.287 . S
C2688 C2689 1.524 . S
C2688 H2707 0.913 . S
C2689 H2665 0.950 . S
C2689 C2688 1.524 . S
C2689 C2690 1.415 . S
C2690 H2666 0.950 . S
C2690 C2685 1.363 . S
C2690 C2689 1.415 . S
C2691 H2667 0.951 . S
C2691 C2692 1.366 . S
C2691 C2693 1.388 . S
C2692 C2691 1.366 . S
C2692 C2696 1.385 . S
C2693 H2668 0.951 . S
C2693 C2691 1.388 . S
C2693 C2694 1.366 . S
C2694 C2693 1.366 . S
C2694 C2695 1.414 . S
C2694 C2697 1.499 . S
C2695 H2669 0.950 . S
C2695 C2694 1.414 . S
C2695 C2696 1.374 . S
C2696 H2670 0.950 . S
C2696 C2692 1.385 . S
C2696 C2695 1.374 . S
C2697 C2694 1.499 . S
C2697 C2698 1.373 . S
C2697 C2699 1.389 . S
C2698 H2671 0.950 . S
C2698 C2684 1.377 . S
C2698 C2697 1.373 . S
C2699 C2683 1.377 . S
C2699 C2697 1.389 . S
C2699 C2700 1.524 . S
C2700 C2699 1.524 . S
C2700 C2701 1.397 . S
C2700 C2705 1.363 . S
C2701 H2672 0.950 . S
C2701 C2700 1.397 . S
C2701 C2702 1.334 . S
C2702 H2673 0.950 . S
C2702 C2701 1.334 . S
C2702 C2703 1.287 . S
C2703 C2702 1.287 . S
C2703 C2704 1.524 . S
C2703 H2706 0.999 . S
C2704 H2674 0.950 . S
C2704 C2703 1.524 . S
C2704 C2705 1.415 . S
C2705 H2675 0.950 . S
C2705 C2700 1.363 . S
C2705 C2704 1.415 . S
H2706 C2703 0.999 . S
H2707 C2688 0.913 . S
H2708 C2726 0.951 . S
H2709 C2728 0.951 . S
H2710 C2730 0.950 . S
H2711 C2731 0.950 . S
H2712 C2733 0.950 . S
H2713 C2736 0.950 . S
H2714 C2737 0.950 . S
H2715 C2739 0.950 . S
H2716 C2740 0.950 . S
H2717 C2741 0.951 . S
H2718 C2743 0.951 . S
H2719 C2745 0.950 . S
H2720 C2746 0.950 . S
H2721 C2748 0.950 . S
H2722 C2751 0.950 . S
H2723 C2752 0.950 . S
H2724 C2754 0.950 . S
H2725 C2755 0.950 . S
C2726 H2708 0.951 . S
C2726 C2727 1.366 . S
C2726 C2728 1.388 . S
C2727 C2726 1.366 . S
C2727 C2731 1.385 . S
C2728 H2709 0.951 . S
C2728 C2726 1.388 . S
C2728 C2729 1.366 . S
C2729 C2728 1.366 . S
C2729 C2730 1.414 . S
C2729 C2732 1.499 . S
C2730 H2710 0.950 . S
C2730 C2729 1.414 . S
C2730 C2731 1.374 . S
C2731 H2711 0.950 . S
C2731 C2727 1.385 . S
C2731 C2730 1.374 . S
C2732 C2729 1.499 . S
C2732 C2733 1.373 1_556 S
C2732 C2734 1.389 1_655 S
C2733 H2712 0.950 . S
C2733 C2732 1.373 1_554 S
C2733 C2749 1.377 . S
C2734 C2732 1.389 1_455 S
C2734 C2735 1.524 . S
C2734 C2748 1.377 . S
C2735 C2734 1.524 . S
C2735 C2736 1.397 1_455 S
C2735 C2740 1.363 . S
C2736 H2713 0.950 . S
C2736 C2735 1.397 1_655 S
C2736 C2737 1.334 . S
C2737 H2714 0.950 . S
C2737 C2736 1.334 . S
C2737 C2738 1.287 1_655 S
C2738 C2737 1.287 1_455 S
C2738 C2739 1.524 . S
C2738 H2757 0.913 . S
C2739 H2715 0.950 . S
C2739 C2738 1.524 . S
C2739 C2740 1.415 . S
C2740 H2716 0.950 . S
C2740 C2735 1.363 . S
C2740 C2739 1.415 . S
C2741 H2717 0.951 . S
C2741 C2742 1.366 . S
C2741 C2743 1.388 . S
C2742 C2741 1.366 . S
C2742 C2746 1.385 . S
C2743 H2718 0.951 . S
C2743 C2741 1.388 . S
C2743 C2744 1.366 . S
C2744 C2743 1.366 . S
C2744 C2745 1.414 . S
C2744 C2747 1.499 . S
C2745 H2719 0.950 . S
C2745 C2744 1.414 . S
C2745 C2746 1.374 . S
C2746 H2720 0.950 . S
C2746 C2742 1.385 . S
C2746 C2745 1.374 . S
C2747 C2744 1.499 . S
C2747 C2748 1.373 1_554 S
C2747 C2749 1.389 1_455 S
C2748 H2721 0.950 . S
C2748 C2734 1.377 . S
C2748 C2747 1.373 1_556 S
C2749 C2733 1.377 . S
C2749 C2747 1.389 1_655 S
C2749 C2750 1.524 . S
C2750 C2749 1.524 . S
C2750 C2751 1.397 1_655 S
C2750 C2755 1.363 . S
C2751 H2722 0.950 . S
C2751 C2750 1.397 1_455 S
C2751 C2752 1.334 . S
C2752 H2723 0.950 . S
C2752 C2751 1.334 . S
C2752 C2753 1.287 1_455 S
C2753 C2752 1.287 1_655 S
C2753 C2754 1.524 . S
C2753 H2756 0.999 . S
C2754 H2724 0.950 . S
C2754 C2753 1.524 . S
C2754 C2755 1.415 . S
C2755 H2725 0.950 . S
C2755 C2750 1.363 . S
C2755 C2754 1.415 . S
H2756 C2753 0.999 . S
H2757 C2738 0.913 . S
H2758 C2776 0.951 . S
H2759 C2778 0.951 . S
H2760 C2780 0.950 . S
H2761 C2781 0.950 . S
H2762 C2783 0.950 . S
H2763 C2786 0.950 1_545 S
H2764 C2787 0.950 . S
H2765 C2789 0.950 . S
H2766 C2790 0.950 . S
H2767 C2791 0.951 . S
H2768 C2793 0.951 . S
H2769 C2795 0.950 . S
H2770 C2796 0.950 . S
H2771 C2798 0.950 . S
H2772 C2801 0.950 1_565 S
H2773 C2802 0.950 . S
H2774 C2804 0.950 . S
H2775 C2805 0.950 . S
C2776 H2758 0.951 . S
C2776 C2777 1.366 . S
C2776 C2778 1.388 . S
C2777 C2776 1.366 . S
C2777 C2781 1.385 . S
C2778 H2759 0.951 . S
C2778 C2776 1.388 . S
C2778 C2779 1.366 . S
C2779 C2778 1.366 . S
C2779 C2780 1.414 . S
C2779 C2782 1.499 . S
C2780 H2760 0.950 . S
C2780 C2779 1.414 . S
C2780 C2781 1.374 . S
C2781 H2761 0.950 . S
C2781 C2777 1.385 . S
C2781 C2780 1.374 . S
C2782 C2779 1.499 . S
C2782 C2783 1.373 . S
C2782 C2784 1.389 . S
C2783 H2762 0.950 . S
C2783 C2782 1.373 . S
C2783 C2799 1.377 1_565 S
C2784 C2782 1.389 . S
C2784 C2785 1.524 . S
C2784 C2798 1.377 1_565 S
C2785 C2784 1.524 . S
C2785 C2786 1.397 . S
C2785 C2790 1.363 . S
C2786 H2763 0.950 1_565 S
C2786 C2785 1.397 . S
C2786 C2787 1.334 . S
C2787 H2764 0.950 . S
C2787 C2786 1.334 . S
C2787 C2788 1.287 . S
C2788 C2787 1.287 . S
C2788 C2789 1.524 . S
C2788 H2807 0.913 . S
C2789 H2765 0.950 . S
C2789 C2788 1.524 . S
C2789 C2790 1.415 . S
C2790 H2766 0.950 . S
C2790 C2785 1.363 . S
C2790 C2789 1.415 . S
C2791 H2767 0.951 . S
C2791 C2792 1.366 . S
C2791 C2793 1.388 . S
C2792 C2791 1.366 . S
C2792 C2796 1.385 . S
C2793 H2768 0.951 . S
C2793 C2791 1.388 . S
C2793 C2794 1.366 . S
C2794 C2793 1.366 . S
C2794 C2795 1.414 . S
C2794 C2797 1.499 . S
C2795 H2769 0.950 . S
C2795 C2794 1.414 . S
C2795 C2796 1.374 . S
C2796 H2770 0.950 . S
C2796 C2792 1.385 . S
C2796 C2795 1.374 . S
C2797 C2794 1.499 . S
C2797 C2798 1.373 . S
C2797 C2799 1.389 . S
C2798 H2771 0.950 . S
C2798 C2784 1.377 1_545 S
C2798 C2797 1.373 . S
C2799 C2783 1.377 1_545 S
C2799 C2797 1.389 . S
C2799 C2800 1.524 . S
C2800 C2799 1.524 . S
C2800 C2801 1.397 . S
C2800 C2805 1.363 . S
C2801 H2772 0.950 1_545 S
C2801 C2800 1.397 . S
C2801 C2802 1.334 . S
C2802 H2773 0.950 . S
C2802 C2801 1.334 . S
C2802 C2803 1.287 . S
C2803 C2802 1.287 . S
C2803 C2804 1.524 . S
C2803 H2806 0.999 . S
C2804 H2774 0.950 . S
C2804 C2803 1.524 . S
C2804 C2805 1.415 . S
C2805 H2775 0.950 . S
C2805 C2800 1.363 . S
C2805 C2804 1.415 . S
H2806 C2803 0.999 . S
H2807 C2788 0.913 . S
C1027 C391 1.330 . S
C1042 C58 1.175 . S
C1077 C475 1.330 . S
C1092 C142 1.175 . S
C1127 C226 1.177 . S
C1142 C55 1.330 . S
C1177 C310 1.177 . S
C1192 C139 1.330 . S
C1227 C394 1.176 . S
C1242 C223 1.330 . S
C1277 C307 1.330 . S
C1292 C478 1.176 . S
C1327 C727 1.330 . S
C1342 C562 1.176 . S
C1377 C646 1.177 . S
C1392 C811 1.330 . S
C1427 C895 1.330 . S
C1442 C730 1.176 . S
C1477 C814 1.175 . S
C1492 C979 1.330 . S
C1527 C898 1.175 . S
C1542 C559 1.329 . S
C1577 C643 1.330 . S
C1592 C982 1.177 . S
C1627 C403 1.424 . S
C1642 C70 1.270 . S
C1677 C154 1.271 . S
C1692 C487 1.424 . S
C1727 C238 1.272 . S
C1742 C67 1.424 . S
C1777 C322 1.271 . S
C1792 C151 1.424 . S
C1827 C235 1.424 . S
C1842 C406 1.269 . S
C1877 C319 1.424 . S
C1892 C490 1.270 . S
C1927 C739 1.424 . S
C1942 C574 1.269 . S
C1977 C658 1.270 . S
C1992 C823 1.424 . S
C2027 C742 1.271 . S
C2042 C907 1.424 . S
C2077 C991 1.424 . S
C2092 C826 1.269 . S
C2127 C910 1.270 . S
C2142 C571 1.424 . S
C2177 C655 1.424 . S
C2192 C994 1.272 . S
C2227 C896 1.829 . S
C2242 C56 1.829 . S
C2277 C140 1.829 . S
C2292 C980 1.829 . S
C2327 C224 1.830 . S
C2342 C560 1.829 . S
C2377 C308 1.829 . S
C2392 C644 1.830 . S
C2427 C392 1.830 . S
C2442 C728 1.830 . S
C2477 C812 1.829 . S
C2492 C476 1.830 . S
C2527 C824 1.933 . S
C2542 C68 1.933 . S
C2577 C908 1.932 . S
C2592 C152 1.933 . S
C2627 C236 1.932 . S
C2642 C992 1.933 . S
C2677 C320 1.932 . S
C2692 C572 1.933 . S
C2727 C656 1.933 . S
C2742 C404 1.932 . S
C2777 C740 1.932 . S
C2792 C488 1.933 . S
