# Generated by pormake.
# Topology acs-i, (5)-cn, num edge types: 1
# Building blocks:
#     Node 0, Type 0, BuildingBlock: XOMCOT_clean_sbu_0, # of connection points: 5
#     Node 1, Type 0, BuildingBlock: XOMCOT_clean_sbu_0, # of connection points: 5
#     Node 2, Type 0, BuildingBlock: XOMCOT_clean_sbu_0, # of connection points: 5
#     Node 3, Type 0, BuildingBlock: XOMCOT_clean_sbu_0, # of connection points: 5
#     Node 4, Type 0, BuildingBlock: XOMCOT_clean_sbu_0, # of connection points: 5
#     Node 5, Type 0, BuildingBlock: XOMCOT_clean_sbu_0, # of connection points: 5
#     Node 6, Type 0, BuildingBlock: XOMCOT_clean_sbu_0, # of connection points: 5
#     Node 7, Type 0, BuildingBlock: XOMCOT_clean_sbu_0, # of connection points: 5
#     Node 8, Type 0, BuildingBlock: XOMCOT_clean_sbu_0, # of connection points: 5
#     Node 9, Type 0, BuildingBlock: XOMCOT_clean_sbu_0, # of connection points: 5
#     Node 10, Type 0, BuildingBlock: XOMCOT_clean_sbu_0, # of connection points: 5
#     Node 11, Type 0, BuildingBlock: XOMCOT_clean_sbu_0, # of connection points: 5
#     Edge 12, Type (0, 0), BuildingBlock: OJICUG_clean_linker_0, # of connection points: 2
#     Edge 13, Type (0, 0), BuildingBlock: OJICUG_clean_linker_0, # of connection points: 2
#     Edge 14, Type (0, 0), BuildingBlock: OJICUG_clean_linker_0, # of connection points: 2
#     Edge 15, Type (0, 0), BuildingBlock: OJICUG_clean_linker_0, # of connection points: 2
#     Edge 16, Type (0, 0), BuildingBlock: OJICUG_clean_linker_0, # of connection points: 2
#     Edge 17, Type (0, 0), BuildingBlock: OJICUG_clean_linker_0, # of connection points: 2
#     Edge 18, Type (0, 0), BuildingBlock: OJICUG_clean_linker_0, # of connection points: 2
#     Edge 19, Type (0, 0), BuildingBlock: OJICUG_clean_linker_0, # of connection points: 2
#     Edge 20, Type (0, 0), BuildingBlock: OJICUG_clean_linker_0, # of connection points: 2
#     Edge 21, Type (0, 0), BuildingBlock: OJICUG_clean_linker_0, # of connection points: 2
#     Edge 22, Type (0, 0), BuildingBlock: OJICUG_clean_linker_0, # of connection points: 2
#     Edge 23, Type (0, 0), BuildingBlock: OJICUG_clean_linker_0, # of connection points: 2
#     Edge 24, Type (0, 0), BuildingBlock: OJICUG_clean_linker_0, # of connection points: 2
#     Edge 25, Type (0, 0), BuildingBlock: OJICUG_clean_linker_0, # of connection points: 2
#     Edge 26, Type (0, 0), BuildingBlock: OJICUG_clean_linker_0, # of connection points: 2
#     Edge 27, Type (0, 0), BuildingBlock: OJICUG_clean_linker_0, # of connection points: 2
#     Edge 28, Type (0, 0), BuildingBlock: OJICUG_clean_linker_0, # of connection points: 2
#     Edge 29, Type (0, 0), BuildingBlock: OJICUG_clean_linker_0, # of connection points: 2
#     Edge 30, Type (0, 0), BuildingBlock: OJICUG_clean_linker_0, # of connection points: 2
#     Edge 31, Type (0, 0), BuildingBlock: OJICUG_clean_linker_0, # of connection points: 2
#     Edge 32, Type (0, 0), BuildingBlock: OJICUG_clean_linker_0, # of connection points: 2
#     Edge 33, Type (0, 0), BuildingBlock: OJICUG_clean_linker_0, # of connection points: 2
#     Edge 34, Type (0, 0), BuildingBlock: OJICUG_clean_linker_0, # of connection points: 2
#     Edge 35, Type (0, 0), BuildingBlock: OJICUG_clean_linker_0, # of connection points: 2
#     Edge 36, Type (0, 0), BuildingBlock: OJICUG_clean_linker_0, # of connection points: 2
#     Edge 37, Type (0, 0), BuildingBlock: OJICUG_clean_linker_0, # of connection points: 2
#     Edge 38, Type (0, 0), BuildingBlock: OJICUG_clean_linker_0, # of connection points: 2
#     Edge 39, Type (0, 0), BuildingBlock: OJICUG_clean_linker_0, # of connection points: 2
#     Edge 40, Type (0, 0), BuildingBlock: OJICUG_clean_linker_0, # of connection points: 2
#     Edge 41, Type (0, 0), BuildingBlock: OJICUG_clean_linker_0, # of connection points: 2
# Relax obj value: 0.862
# Max RMSD: 0.237
# Mean RMSD: 0.237
data_MOF--net-acs-i--node1-XOMCOT_clean_sbu_0--edge1-OJICUG_clean_linker_0
_symmetry_space_group_name_H-M    P1
_symmetry_Int_Tables_number       1
_symmetry_cell_setting            triclinic
loop_
_symmetry_equiv_pos_as_xyz
'x, y, z'
_cell_length_a     40.206053
_cell_length_b     40.326625
_cell_length_c     27.208998
_cell_angle_alpha  90.089775
_cell_angle_beta   89.952756
_cell_angle_gamma 120.1266
loop_
_atom_site_label
_atom_site_type_symbol
_atom_site_fract_x
_atom_site_fract_y
_atom_site_fract_z
_atom_type_partial_charge
Co0 Co 0.30243 0.50153 0.07128 0.0
C1 C 0.36967 0.52624 0.13473 0.0
C2 C 0.3371 0.4649 0.12939 0.0
C3 C 0.36762 0.47489 0.16052 0.0
N4 N 0.33866 0.49717 0.11311 0.0
N5 N 0.388 0.5135 0.16403 0.0
H6 H 0.37738 0.55596 0.13087 0.0
H7 H 0.31481 0.43606 0.12065 0.0
C8 C 0.35143 0.56008 0.99459 0.0
O9 O 0.32484 0.54373 0.96062 0.0
N10 N 0.266 0.50637 0.02995 0.0
C11 C 0.23363 0.47874 0.00843 0.0
C12 C 0.21388 0.49536 0.98856 0.0
C13 C 0.26529 0.53911 0.02327 0.0
N14 N 0.23423 0.53331 -0.00245 0.0
C15 C 0.27573 0.42585 0.03503 0.0
C16 C 0.34493 0.44351 0.99231 0.0
C17 C 0.31956 0.40566 0.00627 0.0
C18 C 0.28338 0.39632 0.02457 0.0
C19 C 0.3366 0.47203 0.00419 0.0
N20 N 0.30333 0.46342 0.02816 0.0
H21 H 0.2496 0.4186 0.05461 0.0
H22 H 0.35953 0.50098 -0.00053 0.0
H23 H 0.22392 0.44849 0.00875 0.0
H24 H 0.28633 0.56646 0.03879 0.0
O25 O 0.26142 0.4683 0.11555 0.0
O26 O 0.29579 0.53164 0.12106 0.0
O27 O 0.34683 0.54582 0.03751 0.0
C28 C 0.26924 0.49944 0.1394 0.0
H29 H 0.37365 0.45511 0.17995 0.0
H30 H 0.18626 0.48064 0.97026 0.0
H31 H 0.37287 0.45164 0.97693 0.0
H32 H 0.26288 0.36723 0.03545 0.0
Co33 Co 0.81168 0.29962 0.59112 0.0
C34 C 0.85194 0.35421 0.67277 0.0
C35 C 0.89089 0.36257 0.61423 0.0
C36 C 0.91005 0.39089 0.64873 0.0
N37 N 0.85425 0.33928 0.62925 0.0
N38 N 0.88542 0.38546 0.68544 0.0
H39 H 0.82569 0.34455 0.69335 0.0
H40 H 0.90281 0.36099 0.57945 0.0
C41 C 0.79884 0.3432 0.50892 0.0
O42 O 0.78228 0.31304 0.48007 0.0
N43 N 0.76902 0.26051 0.55389 0.0
C44 C 0.7645 0.22736 0.53568 0.0
C45 C 0.72754 0.20593 0.5173 0.0
C46 C 0.73481 0.25848 0.54738 0.0
N47 N 0.7094 0.226 0.52425 0.0
C48 C 0.86486 0.27424 0.57394 0.0
C49 C 0.89852 0.31731 0.49087 0.0
C50 C 0.9183 0.30296 0.5178 0.0
C51 C 0.89976 0.27892 0.55768 0.0
C52 C 0.86339 0.31181 0.50835 0.0
N53 N 0.84857 0.29304 0.55172 0.0
H54 H 0.85315 0.25833 0.60735 0.0
H55 H 0.85079 0.32603 0.48932 0.0
H56 H 0.78605 0.21884 0.53687 0.0
H57 H 0.7285 0.28027 0.55976 0.0
O58 O 0.8021 0.26219 0.64151 0.0
O59 O 0.77534 0.29851 0.63875 0.0
O60 O 0.81445 0.34236 0.54943 0.0
C61 C 0.77949 0.27253 0.66171 0.0
H62 H 0.93923 0.41465 0.64589 0.0
H63 H 0.71494 0.17787 0.50039 0.0
H64 H 0.9117 0.3358 0.45942 0.0
H65 H 0.91355 0.26632 0.57859 0.0
Co66 Co 0.50352 0.81144 0.08099 0.0
C67 C 0.49364 0.85072 0.16753 0.0
C68 C 0.51656 0.88824 0.10567 0.0
C69 C 0.50828 0.90678 0.14187 0.0
N70 N 0.50762 0.85302 0.12176 0.0
N71 N 0.4937 0.88301 0.1806 0.0
H72 H 0.4801 0.82486 0.18932 0.0
H73 H 0.52559 0.89888 0.06879 0.0
C74 C 0.44073 0.79861 0.00694 0.0
O75 O 0.44983 0.77966 0.97564 0.0
N76 N 0.49908 0.77017 0.04039 0.0
C77 C 0.52731 0.76768 0.01683 0.0
C78 C 0.51178 0.73169 0.99589 0.0
C79 C 0.46725 0.73566 0.03466 0.0
N80 N 0.474 0.7122 0.00664 0.0
C81 C 0.57935 0.8707 0.0631 0.0
C82 C 0.56693 0.89142 0.97137 0.0
C83 C 0.59976 0.91739 -0.00189 0.0
C84 C 0.60711 0.90523 0.0429 0.0
C85 C 0.53951 0.85722 0.9934 0.0
N86 N 0.54482 0.8489 0.04025 0.0
H87 H 0.5839 0.86393 0.09993 0.0
H88 H 0.51323 0.83913 0.97402 0.0
H89 H 0.55718 0.79005 0.01585 0.0
H90 H 0.43962 0.72783 0.05078 0.0
O91 O 0.53422 0.80171 0.12674 0.0
O92 O 0.47075 0.77434 0.12952 0.0
O93 O 0.46158 0.81498 0.04459 0.0
C94 C 0.50222 0.7786 0.14902 0.0
H95 H 0.51028 0.93447 0.13862 0.0
H96 H 0.52691 0.72061 0.97476 0.0
H97 H 0.56085 0.89886 0.93559 0.0
H98 H 0.63188 0.92387 0.06513 0.0
Co99 Co 0.69489 0.49696 0.57034 0.0
C100 C 0.62628 0.47217 0.63084 0.0
C101 C 0.65746 0.5334 0.62358 0.0
C102 C 0.62658 0.52324 0.6542 0.0
N103 N 0.65702 0.50127 0.60886 0.0
N104 N 0.60711 0.48471 0.65893 0.0
H105 H 0.61959 0.44266 0.62858 0.0
H106 H 0.67943 0.56228 0.61458 0.0
C107 C 0.64829 0.43645 0.49389 0.0
O108 O 0.67576 0.45211 0.46091 0.0
N109 N 0.73293 0.49196 0.53257 0.0
C110 C 0.7666 0.51959 0.51378 0.0
C111 C 0.78734 0.50292 0.49729 0.0
C112 C 0.73388 0.45917 0.52775 0.0
N113 N 0.76634 0.46495 0.50571 0.0
C114 C 0.72185 0.57184 0.53203 0.0
C115 C 0.65342 0.55283 0.48613 0.0
C116 C 0.6775 0.59067 0.50145 0.0
C117 C 0.71353 0.60078 0.52102 0.0
C118 C 0.66235 0.52485 0.4987 0.0
N119 N 0.69494 0.5341 0.52473 0.0
H120 H 0.74759 0.57963 0.55282 0.0
H121 H 0.64016 0.49569 0.49295 0.0
H122 H 0.77646 0.54987 0.51393 0.0
H123 H 0.71193 0.4318 0.5421 0.0
O124 O 0.73436 0.53138 0.61577 0.0
O125 O 0.70047 0.4681 0.62248 0.0
O126 O 0.65172 0.45175 0.53599 0.0
C127 C 0.72618 0.50075 0.6409 0.0
H128 H 0.61985 0.54289 0.67281 0.0
H129 H 0.81594 0.51758 0.48158 0.0
H130 H 0.62577 0.54415 0.46941 0.0
H131 H 0.73316 0.62988 0.53282 0.0
Co132 Co 0.1819 0.69001 0.08842 0.0
C133 C 0.13426 0.63364 0.16568 0.0
C134 C 0.10845 0.61738 0.09451 0.0
C135 C 0.08848 0.58706 0.1259 0.0
N136 N 0.13749 0.6468 0.11918 0.0
N137 N 0.10484 0.59739 0.1705 0.0
H138 H 0.1551 0.64823 0.19444 0.0
H139 H 0.10428 0.61595 0.0553 0.0
C140 C 0.19994 0.6531 0.00215 0.0
O141 O 0.21611 0.68464 0.97586 0.0
N142 N 0.22647 0.73214 0.05769 0.0
C143 C 0.23202 0.76658 0.04342 0.0
C144 C 0.26959 0.78874 0.02739 0.0
C145 C 0.26065 0.73408 0.05119 0.0
N146 N 0.28711 0.76785 0.0318 0.0
C147 C 0.13252 0.71952 0.06734 0.0
C148 C 0.09655 0.67416 0.98662 0.0
C149 C 0.07844 0.69095 0.0122 0.0
C150 C 0.09822 0.71609 0.05071 0.0
C151 C 0.13114 0.67847 0.00446 0.0
N152 N 0.14693 0.69828 0.04701 0.0
H153 H 0.14543 0.73699 0.09936 0.0
H154 H 0.14207 0.66207 0.98688 0.0
H155 H 0.21066 0.77531 0.04529 0.0
H156 H 0.26608 0.71114 0.06063 0.0
O157 O 0.18683 0.72347 0.14224 0.0
O158 O 0.21539 0.68886 0.13898 0.0
O159 O 0.18384 0.65144 0.04321 0.0
C160 C 0.20942 0.71338 0.16292 0.0
H161 H 0.06584 0.55858 0.11584 0.0
H162 H 0.28294 0.81775 0.01341 0.0
H163 H 0.08227 0.65467 0.9563 0.0
H164 H 0.08568 0.73048 0.07053 0.0
Co165 Co 0.49432 0.18434 0.57749 0.0
C166 C 0.5033 0.14508 0.66461 0.0
C167 C 0.48161 0.10775 0.60228 0.0
C168 C 0.48934 0.08917 0.63891 0.0
N169 N 0.4901 0.14286 0.61839 0.0
N170 N 0.50316 0.11282 0.67795 0.0
H171 H 0.51621 0.17083 0.68669 0.0
H172 H 0.4731 0.0972 0.56523 0.0
C173 C 0.55618 0.19623 0.50244 0.0
O174 O 0.54671 0.21495 0.47133 0.0
N175 N 0.49916 0.22571 0.53686 0.0
C176 C 0.47125 0.22878 0.51346 0.0
C177 C 0.4873 0.26496 0.49298 0.0
C178 C 0.53131 0.26002 0.53142 0.0
N179 N 0.52509 0.28398 0.50382 0.0
C180 C 0.41842 0.12487 0.56028 0.0
C181 C 0.42978 0.10417 0.46788 0.0
C182 C 0.39701 0.0783 0.49479 0.0
C183 C 0.39034 0.09042 0.54012 0.0
C184 C 0.45756 0.13828 0.48988 0.0
N185 N 0.45274 0.14671 0.53695 0.0
H186 H 0.41425 0.13162 0.59734 0.0
H187 H 0.48363 0.15628 0.47014 0.0
H188 H 0.44125 0.20673 0.51239 0.0
H189 H 0.55879 0.2674 0.5476 0.0
O190 O 0.46374 0.19443 0.62308 0.0
O191 O 0.52717 0.22158 0.62608 0.0
O192 O 0.53601 0.18047 0.54078 0.0
C193 C 0.49571 0.21762 0.64535 0.0
H194 H 0.48731 0.06144 0.63588 0.0
H195 H 0.47248 0.2765 0.47219 0.0
H196 H 0.43541 0.09683 0.43173 0.0
H197 H 0.36572 0.07186 0.56261 0.0
Co198 Co 0.50611 0.68915 0.40966 0.0
C199 C 0.49457 0.63937 0.32325 0.0
C200 C 0.51813 0.62482 0.38445 0.0
C201 C 0.50906 0.59773 0.34835 0.0
N202 N 0.50926 0.65123 0.3687 0.0
N203 N 0.49409 0.6069 0.31003 0.0
H204 H 0.48094 0.65178 0.30185 0.0
H205 H 0.52769 0.62338 0.42107 0.0
C206 C 0.44451 0.64011 0.48543 0.0
O207 O 0.45436 0.66851 0.51643 0.0
N208 N 0.5025 0.72643 0.45038 0.0
C209 C 0.53118 0.75748 0.47289 0.0
C210 C 0.51613 0.77841 0.49372 0.0
C211 C 0.47085 0.72935 0.45666 0.0
N212 N 0.47819 0.76008 0.48397 0.0
C213 C 0.58215 0.70552 0.42535 0.0
C214 C 0.57168 0.67425 0.51806 0.0
C215 C 0.60431 0.68121 0.49078 0.0
C216 C 0.61053 0.69956 0.44526 0.0
C217 C 0.54363 0.68023 0.49635 0.0
N218 N 0.54805 0.69314 0.4492 0.0
H219 H 0.58595 0.71615 0.38821 0.0
H220 H 0.51766 0.6722 0.51639 0.0
H221 H 0.56105 0.76495 0.47307 0.0
H222 H 0.44296 0.70944 0.44129 0.0
O223 O 0.53614 0.72918 0.36308 0.0
O224 O 0.47261 0.69325 0.36212 0.0
O225 O 0.46471 0.64407 0.44727 0.0
C226 C 0.50379 0.72026 0.34175 0.0
H227 H 0.51087 0.57192 0.35142 0.0
H228 H 0.53172 0.80502 0.51399 0.0
H229 H 0.56638 0.66149 0.55428 0.0
H230 H 0.63505 0.70558 0.42255 0.0
Co231 Co 0.80889 0.50547 0.91011 0.0
C232 C 0.85101 0.47648 0.85475 0.0
C233 C 0.8841 0.53781 0.85965 0.0
C234 C 0.90378 0.52529 0.83072 0.0
N235 N 0.8511 0.50704 0.87463 0.0
N236 N 0.88278 0.48668 0.82754 0.0
H237 H 0.82686 0.44759 0.85769 0.0
H238 H 0.89264 0.56732 0.86741 0.0
C239 C 0.7938 0.44974 0.99332 0.0
O240 O 0.7829 0.46798 0.0234 0.0
N241 N 0.76553 0.5028 0.9449 0.0
C242 C 0.75939 0.53135 0.95925 0.0
C243 C 0.72197 0.5155 0.97584 0.0
C244 C 0.73174 0.47025 0.95228 0.0
N245 N 0.705 0.47712 0.97184 0.0
C246 C 0.8559 0.58216 0.94403 0.0
C247 C 0.90373 0.56735 0.00106 0.0
C248 C 0.91584 0.60509 0.98724 0.0
C249 C 0.89103 0.61266 0.95992 0.0
C250 C 0.86903 0.53764 0.98323 0.0
N251 N 0.84599 0.54504 0.95373 0.0
H252 H 0.83876 0.58847 0.91951 0.0
H253 H 0.86338 0.50894 0.98915 0.0
H254 H 0.77976 0.56159 0.95622 0.0
H255 H 0.72639 0.44206 0.94184 0.0
O256 O 0.80489 0.53743 0.86006 0.0
O257 O 0.77448 0.47393 0.85907 0.0
O258 O 0.80581 0.46221 0.95013 0.0
C259 C 0.78211 0.50558 0.83719 0.0
H260 H 0.93078 0.54338 0.81217 0.0
H261 H 0.7081 0.53092 0.98895 0.0
H262 H 0.92267 0.56049 0.02137 0.0
H263 H 0.89979 0.64158 0.94825 0.0
Co264 Co 0.30559 0.79985 0.42353 0.0
C265 C 0.37176 0.84156 0.35827 0.0
C266 C 0.33897 0.87008 0.36335 0.0
C267 C 0.36905 0.89027 0.33149 0.0
N268 N 0.34096 0.83975 0.38026 0.0
N269 N 0.38958 0.8722 0.32816 0.0
H270 H 0.37969 0.81975 0.3625 0.0
H271 H 0.31665 0.87655 0.37215 0.0
C272 C 0.35619 0.79064 0.4982 0.0
O273 O 0.33045 0.78082 0.53321 0.0
N274 N 0.26999 0.75928 0.46635 0.0
C275 C 0.23842 0.75522 0.4894 0.0
C276 C 0.21897 0.71917 0.51025 0.0
C277 C 0.2691 0.72576 0.47311 0.0
N278 N 0.23873 0.70111 0.50036 0.0
C279 C 0.2805 0.85 0.45978 0.0
C280 C 0.35082 0.9017 0.49976 0.0
C281 C 0.32586 0.9146 0.48534 0.0
C282 C 0.28911 0.8877 0.46864 0.0
C283 C 0.34156 0.86433 0.48932 0.0
N284 N 0.30778 0.8396 0.46639 0.0
H285 H 0.25383 0.83094 0.44137 0.0
H286 H 0.3641 0.85779 0.49427 0.0
H287 H 0.22906 0.77603 0.48953 0.0
H288 H 0.2895 0.71896 0.45665 0.0
O289 O 0.26365 0.79173 0.38076 0.0
O290 O 0.2975 0.76234 0.37408 0.0
O291 O 0.35066 0.80009 0.4556 0.0
C292 C 0.27073 0.76802 0.35663 0.0
H293 H 0.37467 0.91572 0.31147 0.0
H294 H 0.19192 0.70677 0.52989 0.0
H295 H 0.37907 0.92142 0.51443 0.0
H296 H 0.26877 0.89644 0.45764 0.0
Co297 Co 0.49014 0.30785 0.90563 0.0
C298 C 0.50291 0.35892 0.82026 0.0
C299 C 0.4807 0.37397 0.88259 0.0
C300 C 0.49003 0.40137 0.84695 0.0
N301 N 0.4885 0.34704 0.86582 0.0
N302 N 0.50415 0.3919 0.8079 0.0
H303 H 0.51559 0.34593 0.79804 0.0
H304 H 0.47147 0.3753 0.91949 0.0
C305 C 0.55016 0.3547 0.98445 0.0
O306 O 0.53933 0.3256 0.01444 0.0
N307 N 0.49239 0.2694 0.94526 0.0
C308 C 0.46325 0.23834 0.96706 0.0
C309 C 0.47785 0.21731 0.98866 0.0
C310 C 0.52383 0.26633 0.95255 0.0
N311 N 0.51596 0.23557 0.98002 0.0
C312 C 0.41457 0.29351 0.91946 0.0
C313 C 0.42263 0.31918 0.0151 0.0
C314 C 0.39093 0.31429 0.98742 0.0
C315 C 0.38597 0.29888 0.94002 0.0
C316 C 0.45101 0.31404 0.99269 0.0
N317 N 0.44778 0.30379 0.94442 0.0
H318 H 0.41174 0.28494 0.88138 0.0
H319 H 0.47616 0.32027 0.01346 0.0
H320 H 0.43346 0.23114 0.96666 0.0
H321 H 0.55207 0.28643 0.93828 0.0
O322 O 0.46042 0.26893 0.85758 0.0
O323 O 0.52404 0.30397 0.85834 0.0
O324 O 0.53123 0.35172 0.94538 0.0
C325 C 0.49296 0.27756 0.83699 0.0
H326 H 0.48874 0.42743 0.8507 0.0
H327 H 0.4619 0.19086 0.00906 0.0
H328 H 0.42694 0.32956 0.0526 0.0
H329 H 0.36225 0.2946 0.91686 0.0
Co330 Co 0.18434 0.49191 0.40915 0.0
C331 C 0.13586 0.5006 0.33299 0.0
C332 C 0.11126 0.49197 0.40482 0.0
C333 C 0.09087 0.50206 0.37385 0.0
N334 N 0.13977 0.4911 0.37947 0.0
N335 N 0.10648 0.50755 0.32884 0.0
H336 H 0.15618 0.50639 0.30369 0.0
H337 H 0.10772 0.48974 0.44412 0.0
C338 C 0.20381 0.54702 0.49554 0.0
O339 O 0.2198 0.53126 0.52139 0.0
N340 N 0.22906 0.49398 0.43881 0.0
C341 C 0.23445 0.46489 0.45262 0.0
C342 C 0.27214 0.48002 0.46795 0.0
C343 C 0.26346 0.52606 0.44492 0.0
N344 N 0.28992 0.51846 0.46359 0.0
C345 C 0.13522 0.41318 0.43153 0.0
C346 C 0.0996 0.42332 0.51201 0.0
C347 C 0.08147 0.38806 0.48719 0.0
C348 C 0.10111 0.38238 0.44878 0.0
C349 C 0.13404 0.45346 0.49367 0.0
N350 N 0.14964 0.44904 0.45122 0.0
H351 H 0.14809 0.40829 0.39972 0.0
H352 H 0.14498 0.48097 0.51078 0.0
H353 H 0.2129 0.43484 0.4509 0.0
H354 H 0.26906 0.55452 0.43566 0.0
O355 O 0.18803 0.46282 0.35522 0.0
O356 O 0.21736 0.52607 0.35788 0.0
O357 O 0.18744 0.53285 0.45451 0.0
C358 C 0.21067 0.49528 0.33408 0.0
H359 H 0.06847 0.50809 0.38443 0.0
H360 H 0.28541 0.46414 0.48139 0.0
H361 H 0.08557 0.42887 0.5423 0.0
H362 H 0.08879 0.35511 0.42977 0.0
Co363 Co 0.68655 0.19355 0.92564 0.0
C364 C 0.62015 0.15163 0.86091 0.0
C365 C 0.65071 0.12107 0.8693 0.0
C366 C 0.62085 0.10118 0.83697 0.0
N367 N 0.65001 0.15255 0.88439 0.0
N368 N 0.60177 0.12056 0.83152 0.0
H369 H 0.61354 0.1745 0.86324 0.0
H370 H 0.67218 0.11373 0.87933 0.0
C371 C 0.63741 0.2051 0.00048 0.0
O372 O 0.66385 0.21635 0.0348 0.0
N373 N 0.72324 0.2353 0.96636 0.0
C374 C 0.75523 0.23976 0.98864 0.0
C375 C 0.77541 0.27636 0.00781 0.0
C376 C 0.72462 0.26919 0.97195 0.0
N377 N 0.75574 0.29442 -0.00231 0.0
C378 C 0.71261 0.14488 0.96346 0.0
C379 C 0.64313 0.09386 0.00586 0.0
C380 C 0.66807 0.08091 0.99141 0.0
C381 C 0.70449 0.10759 0.97362 0.0
C382 C 0.65192 0.1309 0.99415 0.0
N383 N 0.68521 0.15513 0.96997 0.0
H384 H 0.73889 0.1635 0.94405 0.0
H385 H 0.62938 0.13747 -0.00087 0.0
H386 H 0.76442 0.21884 0.9894 0.0
H387 H 0.70402 0.27577 0.95573 0.0
O388 O 0.72736 0.19991 0.88207 0.0
O389 O 0.69384 0.22961 0.87462 0.0
O390 O 0.64228 0.19441 0.95832 0.0
C391 C 0.71993 0.2229 0.857 0.0
H392 H 0.61455 0.07512 0.81785 0.0
H393 H 0.80288 0.28909 0.02647 0.0
H394 H 0.61515 0.07433 0.02137 0.0
H395 H 0.7248 0.09882 0.9625 0.0
C396 C 0.33022 0.3184 0.9864 0.0
C397 C 0.36828 0.33248 0.00285 0.0
H398 H 0.28476 0.33084 0.97395 0.0
C399 C 0.38727 0.36827 0.02658 0.0
H400 H 0.31437 0.29057 0.96897 0.0
C401 C 0.3702 0.39078 0.02977 0.0
C402 C 0.33391 0.37841 0.00888 0.0
H403 H 0.41656 0.38047 0.03951 0.0
H404 H 0.38628 0.41885 0.04669 0.0
C405 C 0.31316 0.34129 0.98931 0.0
C406 C 0.9852 0.33155 0.5504 0.0
C407 C 0.95997 0.31834 0.50991 0.0
H408 H 0.04361 0.3636 0.57507 0.0
C409 C 0.97532 0.3244 0.46233 0.0
H410 H 0.97425 0.32783 0.58758 0.0
C411 C 0.01507 0.34502 0.45527 0.0
C412 C 0.04023 0.3602 0.49567 0.0
H413 H 0.95658 0.31449 0.43053 0.0
H414 H 0.02594 0.35102 0.41798 0.0
C415 C 0.02493 0.35236 0.54333 0.0
C416 C 0.67551 0.02281 0.00123 0.0
C417 C 0.65332 0.03922 0.98741 0.0
H418 H 0.67658 0.97089 0.01321 0.0
C419 C 0.61612 0.01544 0.96883 0.0
H420 H 0.7046 0.04059 0.01462 0.0
C421 C 0.59998 0.97588 0.96845 0.0
C422 C 0.62081 0.95893 0.98603 0.0
H423 H 0.59885 0.02737 0.95588 0.0
H424 H 0.57018 0.95873 0.95745 0.0
C425 C 0.6594 0.98293 0.0004 0.0
C426 C 0.68277 0.65513 0.48958 0.0
C427 C 0.66177 0.61679 0.50484 0.0
H428 H 0.68156 0.70671 0.47506 0.0
C429 C 0.6245 0.60257 0.52363 0.0
H430 H 0.71188 0.66701 0.476 0.0
C431 C 0.6071 0.62484 0.52283 0.0
C432 C 0.62667 0.66222 0.50371 0.0
H433 H 0.60813 0.57352 0.53749 0.0
H434 H 0.5773 0.61153 0.5341 0.0
C435 C 0.66534 0.67773 0.48907 0.0
C436 C 0.02047 0.67052 0.9586 0.0
C437 C 0.03682 0.67636 0.00562 0.0
H438 H 0.96847 0.64395 0.91623 0.0
C439 C 0.01252 0.66315 0.04697 0.0
H440 H 0.03858 0.6803 0.92623 0.0
C441 C 0.9727 0.64212 0.04127 0.0
C442 C 0.95648 0.63457 0.9942 0.0
H443 H 0.02431 0.66667 0.08366 0.0
H444 H 0.95465 0.63003 0.0734 0.0
C445 C 0.9805 0.65004 0.95297 0.0
C446 C 0.31955 0.97329 0.49662 0.0
C447 C 0.34084 0.95633 0.48101 0.0
H448 H 0.31999 0.02572 0.5111 0.0
C449 C 0.37778 0.97971 0.46144 0.0
H450 H 0.29067 0.95584 0.51083 0.0
C451 C 0.39472 0.01938 0.4621 0.0
C452 C 0.37496 0.03686 0.48175 0.0
H453 H 0.39435 0.96734 0.44722 0.0
H454 H 0.42437 0.03611 0.45036 0.0
C455 C 0.33645 0.01329 0.49684 0.0
C456 C 0.25018 0.59825 0.97266 0.0
C457 C 0.22296 0.56137 0.98887 0.0
H458 H 0.26349 0.6563 0.96213 0.0
C459 C 0.18603 0.55369 0.00201 0.0
H460 H 0.27881 0.6046 0.96233 0.0
C461 C 0.1775 0.58327 0.0029 0.0
C462 C 0.20546 0.6207 0.98936 0.0
H463 H 0.16477 0.52551 0.01498 0.0
H464 H 0.14971 0.57733 0.01657 0.0
C465 C 0.24132 0.62763 0.97221 0.0
C466 C 0.62566 0.23384 0.48037 0.0
C467 C 0.59465 0.20005 0.49937 0.0
H468 H 0.68701 0.26874 0.47447 0.0
C469 C 0.60193 0.17299 0.52204 0.0
H470 H 0.62104 0.25545 0.4633 0.0
C471 C 0.6397 0.18038 0.52744 0.0
C472 C 0.67068 0.21535 0.5115 0.0
H473 H 0.57855 0.14681 0.53726 0.0
H474 H 0.64488 0.15992 0.54669 0.0
C475 C 0.66336 0.24163 0.48702 0.0
C476 C 0.41143 0.66559 0.9719 0.0
C477 C 0.44625 0.6736 0.9939 0.0
H478 H 0.35397 0.62232 0.95292 0.0
C479 C 0.4515 0.64339 0.00911 0.0
H480 H 0.40703 0.68879 0.96027 0.0
C481 C 0.42109 0.60566 0.00603 0.0
C482 C 0.38554 0.59775 0.98633 0.0
H483 H 0.47809 0.64925 0.02663 0.0
H484 H 0.42467 0.58284 0.02132 0.0
C485 C 0.38136 0.62777 0.96742 0.0
C486 C 0.81299 0.44296 0.51649 0.0
C487 C 0.77749 0.43659 0.49879 0.0
H488 H 0.84762 0.41788 0.53387 0.0
C489 C 0.75127 0.40069 0.47882 0.0
H490 H 0.8334 0.47039 0.53241 0.0
C491 C 0.75972 0.37104 0.47835 0.0
C492 C 0.79408 0.37655 0.49921 0.0
H493 H 0.72373 0.39533 0.46506 0.0
H494 H 0.73825 0.34314 0.4647 0.0
C495 C 0.82102 0.413 0.51734 0.0
C496 C 0.39473 0.8211 0.02911 0.0
C497 C 0.40207 0.79449 0.00506 0.0
H498 H 0.35177 0.83358 0.05563 0.0
C499 C 0.37101 0.76086 0.98574 0.0
H500 H 0.41812 0.84717 0.04462 0.0
C501 C 0.33329 0.75281 0.99324 0.0
C502 C 0.32592 0.7786 0.01905 0.0
H503 H 0.37564 0.73959 0.96757 0.0
H504 H 0.30969 0.72591 0.98007 0.0
C505 C 0.35692 0.81342 0.03547 0.0
C506 C 0.61877 0.36846 0.46736 0.0
C507 C 0.61433 0.39854 0.48561 0.0
H508 H 0.59308 0.30743 0.45997 0.0
C509 C 0.57841 0.39064 0.50408 0.0
H510 H 0.64638 0.37386 0.45375 0.0
C511 C 0.54787 0.35292 0.50651 0.0
C512 C 0.55327 0.32264 0.49187 0.0
H513 H 0.57456 0.41348 0.51878 0.0
H514 H 0.52096 0.34712 0.52301 0.0
C515 C 0.58854 0.33064 0.47118 0.0
C516 C 0.38675 0.75346 0.52561 0.0
C517 C 0.39041 0.78699 0.50504 0.0
H518 H 0.41254 0.7183 0.53382 0.0
C519 C 0.42536 0.81378 0.48306 0.0
H520 H 0.35983 0.73214 0.54194 0.0
C521 C 0.45561 0.80627 0.47956 0.0
C522 C 0.45081 0.77141 0.4967 0.0
H523 H 0.42856 0.83966 0.46651 0.0
H524 H 0.48168 0.8263 0.46042 0.0
C525 C 0.41662 0.74545 0.52076 0.0
C526 C 0.65697 0.41462 0.00561 0.0
C527 C 0.66569 0.44893 0.9819 0.0
H528 H 0.61321 0.35823 0.02662 0.0
C529 C 0.63559 0.45383 0.96452 0.0
H530 H 0.67984 0.41043 0.01941 0.0
C531 C 0.59748 0.42381 0.9678 0.0
C532 C 0.58885 0.3888 0.98969 0.0
H533 H 0.64177 0.48002 0.94587 0.0
H534 H 0.5749 0.42743 0.95155 0.0
C535 C 0.61886 0.38498 0.01006 0.0
C536 C 0.24583 0.61386 0.52507 0.0
C537 C 0.20962 0.58493 0.50888 0.0
H538 H 0.28369 0.67443 0.5341 0.0
C539 C 0.18147 0.59443 0.49659 0.0
H540 H 0.26812 0.60731 0.53417 0.0
C541 C 0.19015 0.63259 0.49758 0.0
C542 C 0.22739 0.66183 0.50956 0.0
H543 H 0.15341 0.57257 0.48368 0.0
H544 H 0.16874 0.63955 0.48543 0.0
C545 C 0.25482 0.65214 0.5247 0.0
C546 C 0.60756 0.24376 0.02403 0.0
C547 C 0.60334 0.20904 0.00696 0.0
H548 H 0.58231 0.27964 0.02765 0.0
C549 C 0.56798 0.18117 0.98697 0.0
H550 H 0.63481 0.26588 0.03871 0.0
C551 C 0.53787 0.18874 0.98167 0.0
C552 C 0.54325 0.22467 0.99493 0.0
H553 H 0.56437 0.15435 0.97308 0.0
H554 H 0.5115 0.16777 0.96391 0.0
C555 C 0.57782 0.25173 0.01738 0.0
C556 C 0.39756 0.5716 0.46439 0.0
C557 C 0.40565 0.60589 0.48818 0.0
H558 H 0.35377 0.51622 0.43875 0.0
C559 C 0.37511 0.60911 0.50799 0.0
H560 H 0.42054 0.56844 0.44852 0.0
C561 C 0.33713 0.57975 0.50119 0.0
C562 C 0.329 0.54625 0.4756 0.0
H563 H 0.38033 0.63528 0.52598 0.0
H564 H 0.31393 0.58354 0.51472 0.0
C565 C 0.35951 0.5418 0.45873 0.0
C566 C 0.74145 0.34463 0.02262 0.0
C567 C 0.76779 0.33404 0.00554 0.0
H568 H 0.72992 0.39055 0.03421 0.0
C569 C 0.80471 0.36259 0.99126 0.0
H570 H 0.7128 0.32287 0.03369 0.0
C571 C 0.81418 0.40097 0.99047 0.0
C572 C 0.78725 0.41143 0.00543 0.0
H573 H 0.82524 0.3549 0.97753 0.0
H574 H 0.8419 0.42231 0.97601 0.0
C575 C 0.75132 0.38319 0.02329 0.0
C576 C 0.21455 0.46233 0.25841 0.0
C577 C 0.22514 0.49659 0.28388 0.0
H578 H 0.21974 0.43634 0.1924 0.0
C579 C 0.24873 0.53176 0.26049 0.0
H580 H 0.19613 0.43474 0.27538 0.0
C581 C 0.2621 0.53263 0.21282 0.0
C582 C 0.25202 0.49835 0.18767 0.0
H583 H 0.25711 0.55859 0.27909 0.0
H584 H 0.28083 0.56021 0.19601 0.0
C585 C 0.22782 0.4632 0.21074 0.0
C586 C 0.72761 0.26142 0.78174 0.0
C587 C 0.73675 0.23709 0.80806 0.0
H588 H 0.73363 0.29139 0.71448 0.0
C589 C 0.75952 0.22404 0.7856 0.0
H590 H 0.70991 0.27175 0.79803 0.0
C591 C 0.77268 0.23491 0.73756 0.0
C592 C 0.76343 0.25912 0.71118 0.0
H593 H 0.76673 0.20499 0.80483 0.0
H594 H 0.79032 0.2245 0.72125 0.0
C595 C 0.7409 0.2724 0.73376 0.0
C596 C 0.53724 0.77304 0.22119 0.0
C597 C 0.50225 0.76235 0.19753 0.0
H598 H 0.56512 0.76877 0.28569 0.0
C599 C 0.46759 0.73843 0.2222 0.0
H600 H 0.56444 0.79174 0.20332 0.0
C601 C 0.46798 0.72535 0.26964 0.0
C602 C 0.50304 0.73619 0.29329 0.0
H603 H 0.44018 0.72999 0.205 0.0
H604 H 0.44086 0.7066 0.28764 0.0
C605 C 0.53763 0.7602 0.26862 0.0
C606 C 0.73177 0.46859 0.71573 0.0
C607 C 0.74225 0.50266 0.69016 0.0
H608 H 0.73577 0.44289 0.78228 0.0
C609 C 0.76587 0.53802 0.71341 0.0
H610 H 0.71347 0.44087 0.6989 0.0
C611 C 0.77855 0.53917 0.76161 0.0
C612 C 0.76776 0.50499 0.78719 0.0
H613 H 0.77416 0.56473 0.69465 0.0
H614 H 0.79681 0.56676 0.77875 0.0
C615 C 0.74437 0.46974 0.76369 0.0
C616 C 0.26198 0.72711 0.28322 0.0
C617 C 0.25265 0.75171 0.30876 0.0
H618 H 0.25582 0.69585 0.21685 0.0
C619 C 0.22853 0.76302 0.28629 0.0
H620 H 0.28062 0.71797 0.29955 0.0
C621 C 0.21464 0.75062 0.23881 0.0
C622 C 0.22453 0.72659 0.21292 0.0
H623 H 0.22102 0.78212 0.30493 0.0
H624 H 0.19632 0.76008 0.2223 0.0
C625 C 0.24799 0.71462 0.23575 0.0
C626 C 0.53004 0.25815 0.71866 0.0
C627 C 0.49555 0.23443 0.6935 0.0
H628 H 0.55631 0.29025 0.78423 0.0
C629 C 0.46042 0.22452 0.7163 0.0
H630 H 0.55753 0.26602 0.70212 0.0
C631 C 0.45971 0.23786 0.76337 0.0
C632 C 0.49411 0.2616 0.7886 0.0
H633 H 0.43333 0.20604 0.69804 0.0
H634 H 0.43211 0.2298 0.77977 0.0
C635 C 0.52933 0.27175 0.76578 0.0
C636 C 0.46945 0.59872 0.22547 0.0
C637 C 0.47249 0.58258 0.26971 0.0
H638 H 0.44092 0.58919 0.15633 0.0
C639 C 0.45047 0.54272 0.2761 0.0
H640 H 0.48654 0.62934 0.21944 0.0
C641 C 0.42399 0.51976 0.24039 0.0
C642 C 0.4191 0.53618 0.1974 0.0
H643 H 0.45187 0.52951 0.31003 0.0
H644 H 0.40593 0.48952 0.24797 0.0
C645 C 0.44316 0.57574 0.18956 0.0
C646 C 0.91097 0.4762 0.75231 0.0
C647 C 0.88897 0.46183 0.79542 0.0
H648 H 0.92709 0.4629 0.68327 0.0
C649 C 0.87006 0.42213 0.80428 0.0
H650 H 0.92576 0.50651 0.74407 0.0
C651 C 0.8706 0.39718 0.76916 0.0
C652 C 0.89044 0.41139 0.72474 0.0
H653 H 0.85374 0.41016 0.83766 0.0
H654 H 0.85447 0.36661 0.77598 0.0
C655 C 0.91178 0.4512 0.71737 0.0
C656 C 0.45064 0.90407 0.21486 0.0
C657 C 0.47269 0.88629 0.2212 0.0
H658 H 0.40648 0.91309 0.24344 0.0
C659 C 0.47024 0.86769 0.26573 0.0
H660 H 0.45159 0.91822 0.18069 0.0
C661 C 0.44445 0.86488 0.30207 0.0
C662 C 0.42029 0.88026 0.29431 0.0
H663 H 0.48738 0.85422 0.27168 0.0
H664 H 0.44265 0.84963 0.33555 0.0
C665 C 0.42463 0.90101 0.25097 0.0
C666 C 0.52759 0.39956 0.72266 0.0
C667 C 0.52506 0.41596 0.76705 0.0
H668 H 0.555 0.4088 0.65266 0.0
C669 C 0.54665 0.45595 0.77276 0.0
H670 H 0.51075 0.36886 0.71703 0.0
C671 C 0.57221 0.47879 0.7362 0.0
C672 C 0.57664 0.46213 0.69307 0.0
H673 H 0.54564 0.46942 0.80671 0.0
H674 H 0.59003 0.50918 0.74317 0.0
C675 C 0.55302 0.42242 0.68597 0.0
C676 C 0.09946 0.53758 0.20134 0.0
C677 C 0.10006 0.57219 0.21038 0.0
H678 H 0.10158 0.48988 0.23285 0.0
C679 C 0.09991 0.5837 0.25896 0.0
H680 H 0.10023 0.52856 0.16405 0.0
C681 C 0.09989 0.56128 0.29802 0.0
C682 C 0.10102 0.52754 0.28898 0.0
H683 H 0.10072 0.61047 0.26648 0.0
H684 H 0.10098 0.57126 0.33527 0.0
C685 C 0.10042 0.51565 0.2404 0.0
C686 C 0.56856 0.09241 0.75301 0.0
C687 C 0.57235 0.11344 0.796 0.0
H688 H 0.54351 0.07573 0.68163 0.0
C689 C 0.54912 0.1301 0.80173 0.0
H690 H 0.58609 0.0794 0.74703 0.0
C691 C 0.52475 0.1281 0.76391 0.0
C692 C 0.52287 0.10915 0.71979 0.0
H693 H 0.55056 0.14566 0.83484 0.0
H694 H 0.50825 0.14241 0.76849 0.0
C695 C 0.54402 0.09022 0.71537 0.0
loop_
_geom_bond_atom_site_label_1
_geom_bond_atom_site_label_2
_geom_bond_distance
_geom_bond_site_symmetry_2
_ccdc_geom_bond_type
Co0 N4 2.148 . S
Co0 N10 2.128 . S
Co0 N20 2.194 . S
Co0 O25 2.351 . S
Co0 O26 2.155 . S
Co0 O27 2.096 . S
C1 N4 1.301 . S
C1 N5 1.328 . S
C1 H6 0.930 . S
C2 C3 1.333 . S
C2 N4 1.317 . S
C2 H7 0.930 . S
C3 C2 1.333 . S
C3 N5 1.350 . S
C3 H29 0.931 . S
N4 Co0 2.148 . S
N4 C1 1.301 . S
N4 C2 1.317 . S
N5 C1 1.328 . S
N5 C3 1.350 . S
H6 C1 0.930 . S
H7 C2 0.930 . S
C8 O9 1.234 . S
C8 O27 1.247 . S
O9 C8 1.234 . S
N10 Co0 2.128 . S
N10 C11 1.358 . S
N10 C13 1.311 1_554 S
C11 N10 1.358 . S
C11 C12 1.356 1_554 S
C11 H23 0.933 . S
C12 C11 1.356 1_556 S
C12 N14 1.375 . S
C12 H30 0.931 . S
C13 N10 1.311 1_556 S
C13 N14 1.347 . S
C13 H24 0.929 . S
N14 C12 1.375 . S
N14 C13 1.347 . S
C15 C18 1.365 . S
C15 N20 1.328 . S
C15 H21 0.929 . S
C16 C17 1.362 . S
C16 C19 1.376 . S
C16 H31 0.929 . S
C17 C16 1.362 . S
C17 C18 1.366 1_556 S
C18 C15 1.365 . S
C18 C17 1.366 1_554 S
C18 H32 0.930 . S
C19 C16 1.376 . S
C19 N20 1.317 1_556 S
C19 H22 0.929 . S
N20 Co0 2.194 . S
N20 C15 1.328 . S
N20 C19 1.317 1_554 S
H21 C15 0.929 . S
H22 C19 0.929 . S
H23 C11 0.933 . S
H24 C13 0.929 . S
O25 Co0 2.351 . S
O25 C28 1.244 . S
O26 Co0 2.155 . S
O26 C28 1.240 . S
O27 Co0 2.096 . S
O27 C8 1.247 . S
C28 O25 1.244 . S
C28 O26 1.240 . S
H29 C3 0.931 . S
H30 C12 0.931 . S
H31 C16 0.929 . S
H32 C18 0.930 . S
Co33 N37 2.148 . S
Co33 N43 2.128 . S
Co33 N53 2.194 . S
Co33 O58 2.351 . S
Co33 O59 2.155 . S
Co33 O60 2.096 . S
C34 N37 1.301 . S
C34 N38 1.328 . S
C34 H39 0.930 . S
C35 C36 1.333 . S
C35 N37 1.317 . S
C35 H40 0.930 . S
C36 C35 1.333 . S
C36 N38 1.350 . S
C36 H62 0.931 . S
N37 Co33 2.148 . S
N37 C34 1.301 . S
N37 C35 1.317 . S
N38 C34 1.328 . S
N38 C36 1.350 . S
H39 C34 0.930 . S
H40 C35 0.930 . S
C41 O42 1.224 . S
C41 O60 1.247 . S
O42 C41 1.224 . S
N43 Co33 2.128 . S
N43 C44 1.355 . S
N43 C46 1.311 . S
C44 N43 1.355 . S
C44 C45 1.363 . S
C44 H56 0.929 . S
C45 C44 1.363 . S
C45 N47 1.375 . S
C45 H63 0.931 . S
C46 N43 1.311 . S
C46 N47 1.347 . S
C46 H57 0.929 . S
N47 C45 1.375 . S
N47 C46 1.347 . S
C48 C51 1.365 . S
C48 N53 1.328 . S
C48 H54 0.929 . S
C49 C50 1.362 . S
C49 C52 1.378 . S
C49 H64 0.929 . S
C50 C49 1.362 . S
C50 C51 1.366 . S
C51 C48 1.365 . S
C51 C50 1.366 . S
C51 H65 0.930 . S
C52 C49 1.378 . S
C52 N53 1.315 . S
C52 H55 0.930 . S
N53 Co33 2.194 . S
N53 C48 1.328 . S
N53 C52 1.315 . S
H54 C48 0.929 . S
H55 C52 0.930 . S
H56 C44 0.929 . S
H57 C46 0.929 . S
O58 Co33 2.351 . S
O58 C61 1.244 . S
O59 Co33 2.155 . S
O59 C61 1.240 . S
O60 Co33 2.096 . S
O60 C41 1.247 . S
C61 O58 1.244 . S
C61 O59 1.240 . S
H62 C36 0.931 . S
H63 C45 0.931 . S
H64 C49 0.929 . S
H65 C51 0.930 . S
Co66 N70 2.148 . S
Co66 N76 2.128 . S
Co66 N86 2.194 . S
Co66 O91 2.351 . S
Co66 O92 2.155 . S
Co66 O93 2.096 . S
C67 N70 1.301 . S
C67 N71 1.328 . S
C67 H72 0.930 . S
C68 C69 1.333 . S
C68 N70 1.317 . S
C68 H73 0.930 . S
C69 C68 1.333 . S
C69 N71 1.350 . S
C69 H95 0.931 . S
N70 Co66 2.148 . S
N70 C67 1.301 . S
N70 C68 1.317 . S
N71 C67 1.328 . S
N71 C69 1.350 . S
H72 C67 0.930 . S
H73 C68 0.930 . S
C74 O75 1.235 . S
C74 O93 1.247 . S
O75 C74 1.235 . S
N76 Co66 2.128 . S
N76 C77 1.358 . S
N76 C79 1.311 1_554 S
C77 N76 1.358 . S
C77 C78 1.355 1_554 S
C77 H89 0.933 . S
C78 C77 1.355 1_556 S
C78 N80 1.375 . S
C78 H96 0.931 . S
C79 N76 1.311 1_556 S
C79 N80 1.347 . S
C79 H90 0.929 . S
N80 C78 1.375 . S
N80 C79 1.347 . S
C81 C84 1.365 . S
C81 N86 1.328 . S
C81 H87 0.929 . S
C82 C83 1.362 . S
C82 C85 1.378 1_556 S
C82 H97 0.929 . S
C83 C82 1.362 . S
C83 C84 1.366 1_556 S
C84 C81 1.365 . S
C84 C83 1.366 1_554 S
C84 H98 0.930 . S
C85 C82 1.378 1_554 S
C85 N86 1.314 . S
C85 H88 0.930 1_554 S
N86 Co66 2.194 . S
N86 C81 1.328 . S
N86 C85 1.314 . S
H87 C81 0.929 . S
H88 C85 0.930 1_556 S
H89 C77 0.933 . S
H90 C79 0.929 . S
O91 Co66 2.351 . S
O91 C94 1.244 . S
O92 Co66 2.155 . S
O92 C94 1.240 . S
O93 Co66 2.096 . S
O93 C74 1.247 . S
C94 O91 1.244 . S
C94 O92 1.240 . S
H95 C69 0.931 . S
H96 C78 0.931 . S
H97 C82 0.929 . S
H98 C84 0.930 . S
Co99 N103 2.148 . S
Co99 N109 2.128 . S
Co99 N119 2.194 . S
Co99 O124 2.351 . S
Co99 O125 2.155 . S
Co99 O126 2.096 . S
C100 N103 1.301 . S
C100 N104 1.328 . S
C100 H105 0.930 . S
C101 C102 1.333 . S
C101 N103 1.317 . S
C101 H106 0.930 . S
C102 C101 1.333 . S
C102 N104 1.350 . S
C102 H128 0.931 . S
N103 Co99 2.148 . S
N103 C100 1.301 . S
N103 C101 1.317 . S
N104 C100 1.328 . S
N104 C102 1.350 . S
H105 C100 0.930 . S
H106 C101 0.930 . S
C107 O108 1.224 . S
C107 O126 1.247 . S
O108 C107 1.224 . S
N109 Co99 2.128 . S
N109 C110 1.355 . S
N109 C112 1.311 . S
C110 N109 1.355 . S
C110 C111 1.363 . S
C110 H122 0.929 . S
C111 C110 1.363 . S
C111 N113 1.375 . S
C111 H129 0.931 . S
C112 N109 1.311 . S
C112 N113 1.347 . S
C112 H123 0.929 . S
N113 C111 1.375 . S
N113 C112 1.347 . S
C114 C117 1.365 . S
C114 N119 1.328 . S
C114 H120 0.929 . S
C115 C116 1.362 . S
C115 C118 1.378 . S
C115 H130 0.929 . S
C116 C115 1.362 . S
C116 C117 1.366 . S
C117 C114 1.365 . S
C117 C116 1.366 . S
C117 H131 0.930 . S
C118 C115 1.378 . S
C118 N119 1.315 . S
C118 H121 0.930 . S
N119 Co99 2.194 . S
N119 C114 1.328 . S
N119 C118 1.315 . S
H120 C114 0.929 . S
H121 C118 0.930 . S
H122 C110 0.929 . S
H123 C112 0.929 . S
O124 Co99 2.351 . S
O124 C127 1.244 . S
O125 Co99 2.155 . S
O125 C127 1.240 . S
O126 Co99 2.096 . S
O126 C107 1.247 . S
C127 O124 1.244 . S
C127 O125 1.240 . S
H128 C102 0.931 . S
H129 C111 0.931 . S
H130 C115 0.929 . S
H131 C117 0.930 . S
Co132 N136 2.148 . S
Co132 N142 2.128 . S
Co132 N152 2.194 . S
Co132 O157 2.351 . S
Co132 O158 2.155 . S
Co132 O159 2.096 . S
C133 N136 1.301 . S
C133 N137 1.328 . S
C133 H138 0.930 . S
C134 C135 1.333 . S
C134 N136 1.317 . S
C134 H139 0.930 . S
C135 C134 1.333 . S
C135 N137 1.350 . S
C135 H161 0.931 . S
N136 Co132 2.148 . S
N136 C133 1.301 . S
N136 C134 1.317 . S
N137 C133 1.328 . S
N137 C135 1.350 . S
H138 C133 0.930 . S
H139 C134 0.930 . S
C140 O141 1.233 . S
C140 O159 1.247 . S
O141 C140 1.233 . S
N142 Co132 2.128 . S
N142 C143 1.359 . S
N142 C145 1.311 1_554 S
C143 N142 1.359 . S
C143 C144 1.354 1_554 S
C143 H155 0.934 . S
C144 C143 1.354 1_556 S
C144 N146 1.375 . S
C144 H162 0.931 . S
C145 N142 1.311 1_556 S
C145 N146 1.347 . S
C145 H156 0.929 . S
N146 C144 1.375 . S
N146 C145 1.347 . S
C147 C150 1.365 . S
C147 N152 1.328 . S
C147 H153 0.929 . S
C148 C149 1.362 . S
C148 C151 1.376 . S
C148 H163 0.929 . S
C149 C148 1.362 . S
C149 C150 1.366 1_556 S
C150 C147 1.365 . S
C150 C149 1.366 1_554 S
C150 H164 0.930 . S
C151 C148 1.376 . S
C151 N152 1.317 1_556 S
C151 H154 0.929 . S
N152 Co132 2.194 . S
N152 C147 1.328 . S
N152 C151 1.317 1_554 S
H153 C147 0.929 . S
H154 C151 0.929 . S
H155 C143 0.934 . S
H156 C145 0.929 . S
O157 Co132 2.351 . S
O157 C160 1.244 . S
O158 Co132 2.155 . S
O158 C160 1.240 . S
O159 Co132 2.096 . S
O159 C140 1.247 . S
C160 O157 1.244 . S
C160 O158 1.240 . S
H161 C135 0.931 . S
H162 C144 0.931 . S
H163 C148 0.929 . S
H164 C150 0.930 . S
Co165 N169 2.148 . S
Co165 N175 2.128 . S
Co165 N185 2.194 . S
Co165 O190 2.351 . S
Co165 O191 2.155 . S
Co165 O192 2.096 . S
C166 N169 1.301 . S
C166 N170 1.328 . S
C166 H171 0.930 . S
C167 C168 1.333 . S
C167 N169 1.317 . S
C167 H172 0.930 . S
C168 C167 1.333 . S
C168 N170 1.350 . S
C168 H194 0.931 . S
N169 Co165 2.148 . S
N169 C166 1.301 . S
N169 C167 1.317 . S
N170 C166 1.328 . S
N170 C168 1.350 . S
H171 C166 0.930 . S
H172 C167 0.930 . S
C173 O174 1.224 . S
C173 O192 1.247 . S
O174 C173 1.224 . S
N175 Co165 2.128 . S
N175 C176 1.355 . S
N175 C178 1.311 . S
C176 N175 1.355 . S
C176 C177 1.363 . S
C176 H188 0.929 . S
C177 C176 1.363 . S
C177 N179 1.375 . S
C177 H195 0.931 . S
C178 N175 1.311 . S
C178 N179 1.347 . S
C178 H189 0.929 . S
N179 C177 1.375 . S
N179 C178 1.347 . S
C180 C183 1.365 . S
C180 N185 1.328 . S
C180 H186 0.929 . S
C181 C182 1.362 . S
C181 C184 1.378 . S
C181 H196 0.929 . S
C182 C181 1.362 . S
C182 C183 1.366 . S
C183 C180 1.365 . S
C183 C182 1.366 . S
C183 H197 0.930 . S
C184 C181 1.378 . S
C184 N185 1.315 . S
C184 H187 0.930 . S
N185 Co165 2.194 . S
N185 C180 1.328 . S
N185 C184 1.315 . S
H186 C180 0.929 . S
H187 C184 0.930 . S
H188 C176 0.929 . S
H189 C178 0.929 . S
O190 Co165 2.351 . S
O190 C193 1.244 . S
O191 Co165 2.155 . S
O191 C193 1.240 . S
O192 Co165 2.096 . S
O192 C173 1.247 . S
C193 O190 1.244 . S
C193 O191 1.240 . S
H194 C168 0.931 . S
H195 C177 0.931 . S
H196 C181 0.929 . S
H197 C183 0.930 . S
Co198 N202 2.148 . S
Co198 N208 2.128 . S
Co198 N218 2.194 . S
Co198 O223 2.351 . S
Co198 O224 2.155 . S
Co198 O225 2.096 . S
C199 N202 1.301 . S
C199 N203 1.328 . S
C199 H204 0.930 . S
C200 C201 1.333 . S
C200 N202 1.317 . S
C200 H205 0.930 . S
C201 C200 1.333 . S
C201 N203 1.350 . S
C201 H227 0.931 . S
N202 Co198 2.148 . S
N202 C199 1.301 . S
N202 C200 1.317 . S
N203 C199 1.328 . S
N203 C201 1.350 . S
H204 C199 0.930 . S
H205 C200 0.930 . S
C206 O207 1.224 . S
C206 O225 1.247 . S
O207 C206 1.224 . S
N208 Co198 2.128 . S
N208 C209 1.355 . S
N208 C211 1.311 . S
C209 N208 1.355 . S
C209 C210 1.363 . S
C209 H221 0.929 . S
C210 C209 1.363 . S
C210 N212 1.375 . S
C210 H228 0.931 . S
C211 N208 1.311 . S
C211 N212 1.347 . S
C211 H222 0.929 . S
N212 C210 1.375 . S
N212 C211 1.347 . S
C213 C216 1.365 . S
C213 N218 1.328 . S
C213 H219 0.929 . S
C214 C215 1.362 . S
C214 C217 1.378 . S
C214 H229 0.929 . S
C215 C214 1.362 . S
C215 C216 1.366 . S
C216 C213 1.365 . S
C216 C215 1.366 . S
C216 H230 0.930 . S
C217 C214 1.378 . S
C217 N218 1.315 . S
C217 H220 0.930 . S
N218 Co198 2.194 . S
N218 C213 1.328 . S
N218 C217 1.315 . S
H219 C213 0.929 . S
H220 C217 0.930 . S
H221 C209 0.929 . S
H222 C211 0.929 . S
O223 Co198 2.351 . S
O223 C226 1.244 . S
O224 Co198 2.155 . S
O224 C226 1.240 . S
O225 Co198 2.096 . S
O225 C206 1.247 . S
C226 O223 1.244 . S
C226 O224 1.240 . S
H227 C201 0.931 . S
H228 C210 0.931 . S
H229 C214 0.929 . S
H230 C216 0.930 . S
Co231 N235 2.148 . S
Co231 N241 2.128 . S
Co231 N251 2.194 . S
Co231 O256 2.351 . S
Co231 O257 2.155 . S
Co231 O258 2.096 . S
C232 N235 1.301 . S
C232 N236 1.328 . S
C232 H237 0.930 . S
C233 C234 1.333 . S
C233 N235 1.317 . S
C233 H238 0.930 . S
C234 C233 1.333 . S
C234 N236 1.350 . S
C234 H260 0.931 . S
N235 Co231 2.148 . S
N235 C232 1.301 . S
N235 C233 1.317 . S
N236 C232 1.328 . S
N236 C234 1.350 . S
H237 C232 0.930 . S
H238 C233 0.930 . S
C239 O240 1.235 . S
C239 O258 1.247 . S
O240 C239 1.235 . S
N241 Co231 2.128 . S
N241 C242 1.358 . S
N241 C244 1.311 1_556 S
C242 N241 1.358 . S
C242 C243 1.355 1_556 S
C242 H254 0.933 . S
C243 C242 1.355 1_554 S
C243 N245 1.375 . S
C243 H261 0.931 . S
C244 N241 1.311 1_554 S
C244 N245 1.347 . S
C244 H255 0.929 . S
N245 C243 1.375 . S
N245 C244 1.347 . S
C246 C249 1.365 . S
C246 N251 1.328 . S
C246 H252 0.929 . S
C247 C248 1.362 . S
C247 C250 1.378 1_554 S
C247 H262 0.929 . S
C248 C247 1.362 . S
C248 C249 1.366 1_554 S
C249 C246 1.365 . S
C249 C248 1.366 1_556 S
C249 H263 0.930 . S
C250 C247 1.378 1_556 S
C250 N251 1.315 . S
C250 H253 0.930 1_556 S
N251 Co231 2.194 . S
N251 C246 1.328 . S
N251 C250 1.315 . S
H252 C246 0.929 . S
H253 C250 0.930 1_554 S
H254 C242 0.933 . S
H255 C244 0.929 . S
O256 Co231 2.351 . S
O256 C259 1.244 . S
O257 Co231 2.155 . S
O257 C259 1.240 . S
O258 Co231 2.096 . S
O258 C239 1.247 . S
C259 O256 1.244 . S
C259 O257 1.240 . S
H260 C234 0.931 . S
H261 C243 0.931 . S
H262 C247 0.929 . S
H263 C249 0.930 . S
Co264 N268 2.148 . S
Co264 N274 2.128 . S
Co264 N284 2.194 . S
Co264 O289 2.351 . S
Co264 O290 2.155 . S
Co264 O291 2.096 . S
C265 N268 1.301 . S
C265 N269 1.328 . S
C265 H270 0.930 . S
C266 C267 1.333 . S
C266 N268 1.317 . S
C266 H271 0.930 . S
C267 C266 1.333 . S
C267 N269 1.350 . S
C267 H293 0.931 . S
N268 Co264 2.148 . S
N268 C265 1.301 . S
N268 C266 1.317 . S
N269 C265 1.328 . S
N269 C267 1.350 . S
H270 C265 0.930 . S
H271 C266 0.930 . S
C272 O273 1.224 . S
C272 O291 1.247 . S
O273 C272 1.224 . S
N274 Co264 2.128 . S
N274 C275 1.355 . S
N274 C277 1.311 . S
C275 N274 1.355 . S
C275 C276 1.363 . S
C275 H287 0.929 . S
C276 C275 1.363 . S
C276 N278 1.375 . S
C276 H294 0.931 . S
C277 N274 1.311 . S
C277 N278 1.347 . S
C277 H288 0.929 . S
N278 C276 1.375 . S
N278 C277 1.347 . S
C279 C282 1.365 . S
C279 N284 1.328 . S
C279 H285 0.929 . S
C280 C281 1.362 . S
C280 C283 1.378 . S
C280 H295 0.929 . S
C281 C280 1.362 . S
C281 C282 1.366 . S
C282 C279 1.365 . S
C282 C281 1.366 . S
C282 H296 0.930 . S
C283 C280 1.378 . S
C283 N284 1.315 . S
C283 H286 0.930 . S
N284 Co264 2.194 . S
N284 C279 1.328 . S
N284 C283 1.315 . S
H285 C279 0.929 . S
H286 C283 0.930 . S
H287 C275 0.929 . S
H288 C277 0.929 . S
O289 Co264 2.351 . S
O289 C292 1.244 . S
O290 Co264 2.155 . S
O290 C292 1.240 . S
O291 Co264 2.096 . S
O291 C272 1.247 . S
C292 O289 1.244 . S
C292 O290 1.240 . S
H293 C267 0.931 . S
H294 C276 0.931 . S
H295 C280 0.929 . S
H296 C282 0.930 . S
Co297 N301 2.148 . S
Co297 N307 2.128 . S
Co297 N317 2.194 . S
Co297 O322 2.351 . S
Co297 O323 2.155 . S
Co297 O324 2.096 . S
C298 N301 1.301 . S
C298 N302 1.328 . S
C298 H303 0.930 . S
C299 C300 1.333 . S
C299 N301 1.317 . S
C299 H304 0.930 . S
C300 C299 1.333 . S
C300 N302 1.350 . S
C300 H326 0.931 . S
N301 Co297 2.148 . S
N301 C298 1.301 . S
N301 C299 1.317 . S
N302 C298 1.328 . S
N302 C300 1.350 . S
H303 C298 0.930 . S
H304 C299 0.930 . S
C305 O306 1.234 . S
C305 O324 1.247 . S
O306 C305 1.234 . S
N307 Co297 2.128 . S
N307 C308 1.358 . S
N307 C310 1.311 1_556 S
C308 N307 1.358 . S
C308 C309 1.356 1_556 S
C308 H320 0.933 . S
C309 C308 1.356 1_554 S
C309 N311 1.375 . S
C309 H327 0.931 . S
C310 N307 1.311 1_554 S
C310 N311 1.347 . S
C310 H321 0.929 . S
N311 C309 1.375 . S
N311 C310 1.347 . S
C312 C315 1.365 . S
C312 N317 1.328 . S
C312 H318 0.929 . S
C313 C314 1.362 . S
C313 C316 1.376 . S
C313 H328 0.929 . S
C314 C313 1.362 . S
C314 C315 1.366 1_554 S
C315 C312 1.365 . S
C315 C314 1.366 1_556 S
C315 H329 0.930 . S
C316 C313 1.376 . S
C316 N317 1.317 1_554 S
C316 H319 0.929 . S
N317 Co297 2.194 . S
N317 C312 1.328 . S
N317 C316 1.317 1_556 S
H318 C312 0.929 . S
H319 C316 0.929 . S
H320 C308 0.933 . S
H321 C310 0.929 . S
O322 Co297 2.351 . S
O322 C325 1.244 . S
O323 Co297 2.155 . S
O323 C325 1.240 . S
O324 Co297 2.096 . S
O324 C305 1.247 . S
C325 O322 1.244 . S
C325 O323 1.240 . S
H326 C300 0.931 . S
H327 C309 0.931 . S
H328 C313 0.929 . S
H329 C315 0.930 . S
Co330 N334 2.148 . S
Co330 N340 2.128 . S
Co330 N350 2.194 . S
Co330 O355 2.351 . S
Co330 O356 2.155 . S
Co330 O357 2.096 . S
C331 N334 1.301 . S
C331 N335 1.328 . S
C331 H336 0.930 . S
C332 C333 1.333 . S
C332 N334 1.317 . S
C332 H337 0.930 . S
C333 C332 1.333 . S
C333 N335 1.350 . S
C333 H359 0.931 . S
N334 Co330 2.148 . S
N334 C331 1.301 . S
N334 C332 1.317 . S
N335 C331 1.328 . S
N335 C333 1.350 . S
H336 C331 0.930 . S
H337 C332 0.930 . S
C338 O339 1.224 . S
C338 O357 1.247 . S
O339 C338 1.224 . S
N340 Co330 2.128 . S
N340 C341 1.355 . S
N340 C343 1.311 . S
C341 N340 1.355 . S
C341 C342 1.363 . S
C341 H353 0.929 . S
C342 C341 1.363 . S
C342 N344 1.375 . S
C342 H360 0.931 . S
C343 N340 1.311 . S
C343 N344 1.347 . S
C343 H354 0.929 . S
N344 C342 1.375 . S
N344 C343 1.347 . S
C345 C348 1.365 . S
C345 N350 1.328 . S
C345 H351 0.929 . S
C346 C347 1.362 . S
C346 C349 1.378 . S
C346 H361 0.929 . S
C347 C346 1.362 . S
C347 C348 1.366 . S
C348 C345 1.365 . S
C348 C347 1.366 . S
C348 H362 0.930 . S
C349 C346 1.378 . S
C349 N350 1.315 . S
C349 H352 0.930 . S
N350 Co330 2.194 . S
N350 C345 1.328 . S
N350 C349 1.315 . S
H351 C345 0.929 . S
H352 C349 0.930 . S
H353 C341 0.929 . S
H354 C343 0.929 . S
O355 Co330 2.351 . S
O355 C358 1.244 . S
O356 Co330 2.155 . S
O356 C358 1.240 . S
O357 Co330 2.096 . S
O357 C338 1.247 . S
C358 O355 1.244 . S
C358 O356 1.240 . S
H359 C333 0.931 . S
H360 C342 0.931 . S
H361 C346 0.929 . S
H362 C348 0.930 . S
Co363 N367 2.148 . S
Co363 N373 2.128 . S
Co363 N383 2.194 . S
Co363 O388 2.351 . S
Co363 O389 2.155 . S
Co363 O390 2.096 . S
C364 N367 1.301 . S
C364 N368 1.328 . S
C364 H369 0.930 . S
C365 C366 1.333 . S
C365 N367 1.317 . S
C365 H370 0.930 . S
C366 C365 1.333 . S
C366 N368 1.350 . S
C366 H392 0.931 . S
N367 Co363 2.148 . S
N367 C364 1.301 . S
N367 C365 1.317 . S
N368 C364 1.328 . S
N368 C366 1.350 . S
H369 C364 0.930 . S
H370 C365 0.930 . S
C371 O372 1.233 . S
C371 O390 1.247 . S
O372 C371 1.233 . S
N373 Co363 2.128 . S
N373 C374 1.359 . S
N373 C376 1.311 1_556 S
C374 N373 1.359 . S
C374 C375 1.354 1_556 S
C374 H386 0.934 . S
C375 C374 1.354 1_554 S
C375 N377 1.375 . S
C375 H393 0.931 . S
C376 N373 1.311 1_554 S
C376 N377 1.347 . S
C376 H387 0.929 . S
N377 C375 1.375 . S
N377 C376 1.347 . S
C378 C381 1.365 . S
C378 N383 1.328 . S
C378 H384 0.929 . S
C379 C380 1.362 . S
C379 C382 1.376 . S
C379 H394 0.929 . S
C380 C379 1.362 . S
C380 C381 1.366 1_554 S
C381 C378 1.365 . S
C381 C380 1.366 1_556 S
C381 H395 0.930 . S
C382 C379 1.376 . S
C382 N383 1.317 1_554 S
C382 H385 0.929 . S
N383 Co363 2.194 . S
N383 C378 1.328 . S
N383 C382 1.317 1_556 S
H384 C378 0.929 . S
H385 C382 0.929 . S
H386 C374 0.934 . S
H387 C376 0.929 . S
O388 Co363 2.351 . S
O388 C391 1.244 . S
O389 Co363 2.155 . S
O389 C391 1.240 . S
O390 Co363 2.096 . S
O390 C371 1.247 . S
C391 O388 1.244 . S
C391 O389 1.240 . S
H392 C366 0.931 . S
H393 C375 0.931 . S
H394 C379 0.929 . S
H395 C381 0.930 . S
C396 C397 1.387 1_556 S
C396 H400 0.950 . S
C396 C405 1.390 . S
C397 C396 1.387 1_554 S
C397 C399 1.387 . S
H398 C405 0.950 . S
C399 C397 1.387 . S
C399 C401 1.390 . S
C399 H403 0.950 . S
H400 C396 0.950 . S
C401 C399 1.390 . S
C401 C402 1.387 1_554 S
C401 H404 0.950 . S
C402 C401 1.387 1_556 S
C402 C405 1.387 . S
H403 C399 0.950 . S
H404 C401 0.950 . S
C405 C396 1.390 . S
C405 H398 0.950 . S
C405 C402 1.387 . S
C406 C407 1.387 . S
C406 H410 0.950 . S
C406 C415 1.390 1_655 S
C407 C406 1.387 . S
C407 C409 1.387 . S
H408 C415 0.950 . S
C409 C407 1.387 . S
C409 C411 1.390 1_655 S
C409 H413 0.950 . S
H410 C406 0.950 . S
C411 C409 1.390 1_455 S
C411 C412 1.387 . S
C411 H414 0.950 . S
C412 C411 1.387 . S
C412 C415 1.387 . S
H413 C409 0.950 . S
H414 C411 0.950 . S
C415 C406 1.390 1_455 S
C415 H408 0.950 . S
C415 C412 1.387 . S
C416 C417 1.387 . S
C416 H420 0.950 . S
C416 C425 1.390 1_544 S
C417 C416 1.387 . S
C417 C419 1.387 . S
H418 C425 0.950 . S
C419 C417 1.387 . S
C419 C421 1.390 1_544 S
C419 H423 0.950 . S
H420 C416 0.950 . S
C421 C419 1.390 1_566 S
C421 C422 1.387 . S
C421 H424 0.950 . S
C422 C421 1.387 . S
C422 C425 1.387 . S
H423 C419 0.950 . S
H424 C421 0.950 . S
C425 C416 1.390 1_566 S
C425 H418 0.950 . S
C425 C422 1.387 . S
C426 C427 1.387 . S
C426 H430 0.950 . S
C426 C435 1.390 . S
C427 C426 1.387 . S
C427 C429 1.387 . S
H428 C435 0.950 . S
C429 C427 1.387 . S
C429 C431 1.390 . S
C429 H433 0.950 . S
H430 C426 0.950 . S
C431 C429 1.390 . S
C431 C432 1.387 . S
C431 H434 0.950 . S
C432 C431 1.387 . S
C432 C435 1.387 . S
H433 C429 0.950 . S
H434 C431 0.950 . S
C435 C426 1.390 . S
C435 H428 0.950 . S
C435 C432 1.387 . S
C436 C437 1.387 . S
C436 H440 0.950 . S
C436 C445 1.390 1_455 S
C437 C436 1.387 . S
C437 C439 1.387 1_556 S
H438 C445 0.950 . S
C439 C437 1.387 1_554 S
C439 C441 1.390 1_455 S
C439 H443 0.950 . S
H440 C436 0.950 . S
C441 C439 1.390 1_655 S
C441 C442 1.387 . S
C441 H444 0.950 . S
C442 C441 1.387 . S
C442 C445 1.387 1_554 S
H443 C439 0.950 . S
H444 C441 0.950 . S
C445 C436 1.390 1_655 S
C445 H438 0.950 . S
C445 C442 1.387 1_556 S
C446 C447 1.387 . S
C446 H450 0.950 . S
C446 C455 1.390 1_565 S
C447 C446 1.387 . S
C447 C449 1.387 . S
H448 C455 0.950 . S
C449 C447 1.387 . S
C449 C451 1.390 1_565 S
C449 H453 0.950 . S
H450 C446 0.950 . S
C451 C449 1.390 1_545 S
C451 C452 1.387 . S
C451 H454 0.950 . S
C452 C451 1.387 . S
C452 C455 1.387 . S
H453 C449 0.950 . S
H454 C451 0.950 . S
C455 C446 1.390 1_545 S
C455 H448 0.950 . S
C455 C452 1.387 . S
C456 C457 1.387 . S
C456 H460 0.950 . S
C456 C465 1.390 . S
C457 C456 1.387 . S
C457 C459 1.387 . S
H458 C465 0.950 . S
C459 C457 1.387 . S
C459 C461 1.390 . S
C459 H463 0.950 . S
H460 C456 0.950 . S
C461 C459 1.390 . S
C461 C462 1.387 . S
C461 H464 0.950 . S
C462 C461 1.387 . S
C462 C465 1.387 . S
H463 C459 0.950 . S
H464 C461 0.950 . S
C465 C456 1.390 . S
C465 H458 0.950 . S
C465 C462 1.387 . S
C466 C467 1.387 . S
C466 H470 0.950 . S
C466 C475 1.390 . S
C467 C466 1.387 . S
C467 C469 1.387 . S
H468 C475 0.950 . S
C469 C467 1.387 . S
C469 C471 1.390 . S
C469 H473 0.950 . S
H470 C466 0.950 . S
C471 C469 1.390 . S
C471 C472 1.387 . S
C471 H474 0.950 . S
C472 C471 1.387 . S
C472 C475 1.387 . S
H473 C469 0.950 . S
H474 C471 0.950 . S
C475 C466 1.390 . S
C475 H468 0.950 . S
C475 C472 1.387 . S
C476 C477 1.387 . S
C476 H480 0.950 . S
C476 C485 1.390 . S
C477 C476 1.387 . S
C477 C479 1.387 1_556 S
H478 C485 0.950 . S
C479 C477 1.387 1_554 S
C479 C481 1.390 . S
C479 H483 0.950 . S
H480 C476 0.950 . S
C481 C479 1.390 . S
C481 C482 1.387 1_554 S
C481 H484 0.950 . S
C482 C481 1.387 1_556 S
C482 C485 1.387 . S
H483 C479 0.950 . S
H484 C481 0.950 . S
C485 C476 1.390 . S
C485 H478 0.950 . S
C485 C482 1.387 . S
C486 C487 1.387 . S
C486 H490 0.950 . S
C486 C495 1.390 . S
C487 C486 1.387 . S
C487 C489 1.387 . S
H488 C495 0.950 . S
C489 C487 1.387 . S
C489 C491 1.390 . S
C489 H493 0.950 . S
H490 C486 0.950 . S
C491 C489 1.390 . S
C491 C492 1.387 . S
C491 H494 0.950 . S
C492 C491 1.387 . S
C492 C495 1.387 . S
H493 C489 0.950 . S
H494 C491 0.950 . S
C495 C486 1.390 . S
C495 H488 0.950 . S
C495 C492 1.387 . S
C496 C497 1.387 1_554 S
C496 H500 0.950 . S
C496 C505 1.390 1_554 S
C497 C496 1.387 1_556 S
C497 C499 1.387 . S
H498 C505 0.950 . S
C499 C497 1.387 . S
C499 C501 1.390 . S
C499 H503 0.950 . S
H500 C496 0.950 . S
C501 C499 1.390 . S
C501 C502 1.387 . S
C501 H504 0.950 . S
C502 C501 1.387 . S
C502 C505 1.387 . S
H503 C499 0.950 . S
H504 C501 0.950 . S
C505 C496 1.390 1_556 S
C505 H498 0.950 . S
C505 C502 1.387 . S
C506 C507 1.387 . S
C506 H510 0.950 . S
C506 C515 1.390 . S
C507 C506 1.387 . S
C507 C509 1.387 . S
H508 C515 0.950 . S
C509 C507 1.387 . S
C509 C511 1.390 . S
C509 H513 0.950 . S
H510 C506 0.950 . S
C511 C509 1.390 . S
C511 C512 1.387 . S
C511 H514 0.950 . S
C512 C511 1.387 . S
C512 C515 1.387 . S
H513 C509 0.950 . S
H514 C511 0.950 . S
C515 C506 1.390 . S
C515 H508 0.950 . S
C515 C512 1.387 . S
C516 C517 1.387 . S
C516 H520 0.950 . S
C516 C525 1.390 . S
C517 C516 1.387 . S
C517 C519 1.387 . S
H518 C525 0.950 . S
C519 C517 1.387 . S
C519 C521 1.390 . S
C519 H523 0.950 . S
H520 C516 0.950 . S
C521 C519 1.390 . S
C521 C522 1.387 . S
C521 H524 0.950 . S
C522 C521 1.387 . S
C522 C525 1.387 . S
H523 C519 0.950 . S
H524 C521 0.950 . S
C525 C516 1.390 . S
C525 H518 0.950 . S
C525 C522 1.387 . S
C526 C527 1.387 . S
C526 H530 0.950 . S
C526 C535 1.390 . S
C527 C526 1.387 . S
C527 C529 1.387 . S
H528 C535 0.950 . S
C529 C527 1.387 . S
C529 C531 1.390 . S
C529 H533 0.950 . S
H530 C526 0.950 . S
C531 C529 1.390 . S
C531 C532 1.387 . S
C531 H534 0.950 1_554 S
C532 C531 1.387 . S
C532 C535 1.387 . S
H533 C529 0.950 . S
H534 C531 0.950 1_556 S
C535 C526 1.390 . S
C535 H528 0.950 . S
C535 C532 1.387 . S
C536 C537 1.387 . S
C536 H540 0.950 . S
C536 C545 1.390 . S
C537 C536 1.387 . S
C537 C539 1.387 . S
H538 C545 0.950 . S
C539 C537 1.387 . S
C539 C541 1.390 . S
C539 H543 0.950 . S
H540 C536 0.950 . S
C541 C539 1.390 . S
C541 C542 1.387 . S
C541 H544 0.950 . S
C542 C541 1.387 . S
C542 C545 1.387 . S
H543 C539 0.950 . S
H544 C541 0.950 . S
C545 C536 1.390 . S
C545 H538 0.950 . S
C545 C542 1.387 . S
C546 C547 1.387 . S
C546 H550 0.950 . S
C546 C555 1.390 . S
C547 C546 1.387 . S
C547 C549 1.387 1_554 S
H548 C555 0.950 . S
C549 C547 1.387 1_556 S
C549 C551 1.390 1_556 S
C549 H553 0.950 . S
H550 C546 0.950 . S
C551 C549 1.390 1_554 S
C551 C552 1.387 . S
C551 H554 0.950 . S
C552 C551 1.387 . S
C552 C555 1.387 . S
H553 C549 0.950 . S
H554 C551 0.950 . S
C555 C546 1.390 . S
C555 H548 0.950 . S
C555 C552 1.387 . S
C556 C557 1.387 . S
C556 H560 0.950 . S
C556 C565 1.390 . S
C557 C556 1.387 . S
C557 C559 1.387 . S
H558 C565 0.950 . S
C559 C557 1.387 . S
C559 C561 1.390 . S
C559 H563 0.950 . S
H560 C556 0.950 . S
C561 C559 1.390 . S
C561 C562 1.387 . S
C561 H564 0.950 . S
C562 C561 1.387 . S
C562 C565 1.387 . S
H563 C559 0.950 . S
H564 C561 0.950 . S
C565 C556 1.390 . S
C565 H558 0.950 . S
C565 C562 1.387 . S
C566 C567 1.387 . S
C566 H570 0.950 . S
C566 C575 1.390 1_554 S
C567 C566 1.387 . S
C567 C569 1.387 . S
H568 C575 0.950 . S
C569 C567 1.387 . S
C569 C571 1.390 . S
C569 H573 0.950 . S
H570 C566 0.950 . S
C571 C569 1.390 . S
C571 C572 1.387 . S
C571 H574 0.950 . S
C572 C571 1.387 . S
C572 C575 1.387 1_554 S
H573 C569 0.950 . S
H574 C571 0.950 . S
C575 C566 1.390 1_556 S
C575 H568 0.950 . S
C575 C572 1.387 1_556 S
C576 C577 1.387 . S
C576 H580 0.950 . S
C576 C585 1.390 . S
C577 C576 1.387 . S
C577 C579 1.387 . S
H578 C585 0.950 . S
C579 C577 1.387 . S
C579 C581 1.390 . S
C579 H583 0.950 . S
H580 C576 0.950 . S
C581 C579 1.390 . S
C581 C582 1.387 . S
C581 H584 0.950 . S
C582 C581 1.387 . S
C582 C585 1.387 . S
H583 C579 0.950 . S
H584 C581 0.950 . S
C585 C576 1.390 . S
C585 H578 0.950 . S
C585 C582 1.387 . S
C586 C587 1.387 . S
C586 H590 0.950 . S
C586 C595 1.390 . S
C587 C586 1.387 . S
C587 C589 1.387 . S
H588 C595 0.950 . S
C589 C587 1.387 . S
C589 C591 1.390 . S
C589 H593 0.950 . S
H590 C586 0.950 . S
C591 C589 1.390 . S
C591 C592 1.387 . S
C591 H594 0.950 . S
C592 C591 1.387 . S
C592 C595 1.387 . S
H593 C589 0.950 . S
H594 C591 0.950 . S
C595 C586 1.390 . S
C595 H588 0.950 . S
C595 C592 1.387 . S
C596 C597 1.387 . S
C596 H600 0.950 . S
C596 C605 1.390 . S
C597 C596 1.387 . S
C597 C599 1.387 . S
H598 C605 0.950 . S
C599 C597 1.387 . S
C599 C601 1.390 . S
C599 H603 0.950 . S
H600 C596 0.950 . S
C601 C599 1.390 . S
C601 C602 1.387 . S
C601 H604 0.950 . S
C602 C601 1.387 . S
C602 C605 1.387 . S
H603 C599 0.950 . S
H604 C601 0.950 . S
C605 C596 1.390 . S
C605 H598 0.950 . S
C605 C602 1.387 . S
C606 C607 1.387 . S
C606 H610 0.950 . S
C606 C615 1.390 . S
C607 C606 1.387 . S
C607 C609 1.387 . S
H608 C615 0.950 . S
C609 C607 1.387 . S
C609 C611 1.390 . S
C609 H613 0.950 . S
H610 C606 0.950 . S
C611 C609 1.390 . S
C611 C612 1.387 . S
C611 H614 0.950 . S
C612 C611 1.387 . S
C612 C615 1.387 . S
H613 C609 0.950 . S
H614 C611 0.950 . S
C615 C606 1.390 . S
C615 H608 0.950 . S
C615 C612 1.387 . S
C616 C617 1.387 . S
C616 H620 0.950 . S
C616 C625 1.390 . S
C617 C616 1.387 . S
C617 C619 1.387 . S
H618 C625 0.950 . S
C619 C617 1.387 . S
C619 C621 1.390 . S
C619 H623 0.950 . S
H620 C616 0.950 . S
C621 C619 1.390 . S
C621 C622 1.387 . S
C621 H624 0.950 . S
C622 C621 1.387 . S
C622 C625 1.387 . S
H623 C619 0.950 . S
H624 C621 0.950 . S
C625 C616 1.390 . S
C625 H618 0.950 . S
C625 C622 1.387 . S
C626 C627 1.387 . S
C626 H630 0.950 . S
C626 C635 1.390 . S
C627 C626 1.387 . S
C627 C629 1.387 . S
H628 C635 0.950 . S
C629 C627 1.387 . S
C629 C631 1.390 . S
C629 H633 0.950 . S
H630 C626 0.950 . S
C631 C629 1.390 . S
C631 C632 1.387 . S
C631 H634 0.950 . S
C632 C631 1.387 . S
C632 C635 1.387 . S
H633 C629 0.950 . S
H634 C631 0.950 . S
C635 C626 1.390 . S
C635 H628 0.950 . S
C635 C632 1.387 . S
C636 C637 1.387 . S
C636 H640 0.950 . S
C636 C645 1.390 . S
C637 C636 1.387 . S
C637 C639 1.387 . S
H638 C645 0.950 . S
C639 C637 1.387 . S
C639 C641 1.390 . S
C639 H643 0.950 . S
H640 C636 0.950 . S
C641 C639 1.390 . S
C641 C642 1.387 . S
C641 H644 0.950 . S
C642 C641 1.387 . S
C642 C645 1.387 . S
H643 C639 0.950 . S
H644 C641 0.950 . S
C645 C636 1.390 . S
C645 H638 0.950 . S
C645 C642 1.387 . S
C646 C647 1.387 . S
C646 H650 0.950 . S
C646 C655 1.390 . S
C647 C646 1.387 . S
C647 C649 1.387 . S
H648 C655 0.950 . S
C649 C647 1.387 . S
C649 C651 1.390 . S
C649 H653 0.950 . S
H650 C646 0.950 . S
C651 C649 1.390 . S
C651 C652 1.387 . S
C651 H654 0.950 . S
C652 C651 1.387 . S
C652 C655 1.387 . S
H653 C649 0.950 . S
H654 C651 0.950 . S
C655 C646 1.390 . S
C655 H648 0.950 . S
C655 C652 1.387 . S
C656 C657 1.387 . S
C656 H660 0.950 . S
C656 C665 1.390 . S
C657 C656 1.387 . S
C657 C659 1.387 . S
H658 C665 0.950 . S
C659 C657 1.387 . S
C659 C661 1.390 . S
C659 H663 0.950 . S
H660 C656 0.950 . S
C661 C659 1.390 . S
C661 C662 1.387 . S
C661 H664 0.950 . S
C662 C661 1.387 . S
C662 C665 1.387 . S
H663 C659 0.950 . S
H664 C661 0.950 . S
C665 C656 1.390 . S
C665 H658 0.950 . S
C665 C662 1.387 . S
C666 C667 1.387 . S
C666 H670 0.950 . S
C666 C675 1.390 . S
C667 C666 1.387 . S
C667 C669 1.387 . S
H668 C675 0.950 . S
C669 C667 1.387 . S
C669 C671 1.390 . S
C669 H673 0.950 . S
H670 C666 0.950 . S
C671 C669 1.390 . S
C671 C672 1.387 . S
C671 H674 0.950 . S
C672 C671 1.387 . S
C672 C675 1.387 . S
H673 C669 0.950 . S
H674 C671 0.950 . S
C675 C666 1.390 . S
C675 H668 0.950 . S
C675 C672 1.387 . S
C676 C677 1.387 . S
C676 H680 0.950 . S
C676 C685 1.390 . S
C677 C676 1.387 . S
C677 C679 1.387 . S
H678 C685 0.950 . S
C679 C677 1.387 . S
C679 C681 1.390 . S
C679 H683 0.950 . S
H680 C676 0.950 . S
C681 C679 1.390 . S
C681 C682 1.387 . S
C681 H684 0.950 . S
C682 C681 1.387 . S
C682 C685 1.387 . S
H683 C679 0.950 . S
H684 C681 0.950 . S
C685 C676 1.390 . S
C685 H678 0.950 . S
C685 C682 1.387 . S
C686 C687 1.387 . S
C686 H690 0.950 . S
C686 C695 1.390 . S
C687 C686 1.387 . S
C687 C689 1.387 . S
H688 C695 0.950 . S
C689 C687 1.387 . S
C689 C691 1.390 . S
C689 H693 0.950 . S
H690 C686 0.950 . S
C691 C689 1.390 . S
C691 C692 1.387 . S
C691 H694 0.950 . S
C692 C691 1.387 . S
C692 C695 1.387 . S
H693 C689 0.950 . S
H694 C691 0.950 . S
C695 C686 1.390 . S
C695 H688 0.950 . S
C695 C692 1.387 . S
C397 C314 1.272 . S
C402 C17 1.273 . S
C407 C50 1.273 . S
C412 C347 1.274 . S
C417 C380 1.272 . S
C422 C83 1.271 . S
C427 C116 1.274 . S
C432 C215 1.273 . S
C437 C149 1.275 . S
C442 C248 1.272 . S
C447 C281 1.272 . S
C452 C182 1.271 . S
C457 N14 1.369 . S
C462 C140 1.706 1_556 S
C467 C173 1.707 . S
C472 N47 1.370 . S
C477 N80 1.374 . S
C482 C8 1.709 1_556 S
C487 N113 1.375 . S
C492 C41 1.708 . S
C497 C74 1.708 1_556 S
C502 N146 1.376 . S
C507 C107 1.709 . S
C512 N179 1.376 . S
C517 C272 1.707 . S
C522 N212 1.369 . S
C527 N245 1.372 . S
C532 C305 1.709 1_554 S
C537 C338 1.706 . S
C542 N278 1.372 . S
C547 C371 1.706 1_554 S
C552 N311 1.374 . S
C557 C206 1.711 . S
C562 N344 1.378 . S
C567 N377 1.370 . S
C572 C239 1.708 1_554 S
C577 C358 1.803 . S
C582 C28 1.803 . S
C587 C391 1.802 . S
C592 C61 1.803 . S
C597 C94 1.804 . S
C602 C226 1.803 . S
C607 C127 1.803 . S
C612 C259 1.803 . S
C617 C292 1.802 . S
C622 C160 1.802 . S
C627 C193 1.802 . S
C632 C325 1.803 . S
C637 N203 0.811 . S
C642 N5 0.817 . S
C647 N236 0.816 . S
C652 N38 0.818 . S
C657 N71 0.817 . S
C662 N269 0.817 . S
C667 N302 0.812 . S
C672 N104 0.816 . S
C677 N137 0.816 . S
C682 N335 0.811 . S
C687 N368 0.817 . S
C692 N170 0.817 . S
