# Generated by pormake.
# Topology wjw, (5)-cn, num edge types: 1
# Building blocks:
#     Node 0, Type 0, BuildingBlock: XOMCOT_clean_sbu_1, # of connection points: 5
#     Node 1, Type 0, BuildingBlock: XOMCOT_clean_sbu_1, # of connection points: 5
#     Node 2, Type 0, BuildingBlock: XOMCOT_clean_sbu_1, # of connection points: 5
#     Node 3, Type 0, BuildingBlock: XOMCOT_clean_sbu_1, # of connection points: 5
#     Node 4, Type 0, BuildingBlock: XOMCOT_clean_sbu_1, # of connection points: 5
#     Node 5, Type 0, BuildingBlock: XOMCOT_clean_sbu_1, # of connection points: 5
#     Node 6, Type 0, BuildingBlock: XOMCOT_clean_sbu_1, # of connection points: 5
#     Node 7, Type 0, BuildingBlock: XOMCOT_clean_sbu_1, # of connection points: 5
#     Node 8, Type 0, BuildingBlock: XOMCOT_clean_sbu_1, # of connection points: 5
#     Node 9, Type 0, BuildingBlock: XOMCOT_clean_sbu_1, # of connection points: 5
#     Node 10, Type 0, BuildingBlock: XOMCOT_clean_sbu_1, # of connection points: 5
#     Node 11, Type 0, BuildingBlock: XOMCOT_clean_sbu_1, # of connection points: 5
#     Edge 12, Type (0, 0), BuildingBlock: ZUJKAS_clean_linker_0, # of connection points: 2
#     Edge 13, Type (0, 0), BuildingBlock: ZUJKAS_clean_linker_0, # of connection points: 2
#     Edge 14, Type (0, 0), BuildingBlock: ZUJKAS_clean_linker_0, # of connection points: 2
#     Edge 15, Type (0, 0), BuildingBlock: ZUJKAS_clean_linker_0, # of connection points: 2
#     Edge 16, Type (0, 0), BuildingBlock: ZUJKAS_clean_linker_0, # of connection points: 2
#     Edge 17, Type (0, 0), BuildingBlock: ZUJKAS_clean_linker_0, # of connection points: 2
#     Edge 18, Type (0, 0), BuildingBlock: ZUJKAS_clean_linker_0, # of connection points: 2
#     Edge 19, Type (0, 0), BuildingBlock: ZUJKAS_clean_linker_0, # of connection points: 2
#     Edge 20, Type (0, 0), BuildingBlock: ZUJKAS_clean_linker_0, # of connection points: 2
#     Edge 21, Type (0, 0), BuildingBlock: ZUJKAS_clean_linker_0, # of connection points: 2
#     Edge 22, Type (0, 0), BuildingBlock: ZUJKAS_clean_linker_0, # of connection points: 2
#     Edge 23, Type (0, 0), BuildingBlock: ZUJKAS_clean_linker_0, # of connection points: 2
#     Edge 24, Type (0, 0), BuildingBlock: ZUJKAS_clean_linker_0, # of connection points: 2
#     Edge 25, Type (0, 0), BuildingBlock: ZUJKAS_clean_linker_0, # of connection points: 2
#     Edge 26, Type (0, 0), BuildingBlock: ZUJKAS_clean_linker_0, # of connection points: 2
#     Edge 27, Type (0, 0), BuildingBlock: ZUJKAS_clean_linker_0, # of connection points: 2
#     Edge 28, Type (0, 0), BuildingBlock: ZUJKAS_clean_linker_0, # of connection points: 2
#     Edge 29, Type (0, 0), BuildingBlock: ZUJKAS_clean_linker_0, # of connection points: 2
#     Edge 30, Type (0, 0), BuildingBlock: ZUJKAS_clean_linker_0, # of connection points: 2
#     Edge 31, Type (0, 0), BuildingBlock: ZUJKAS_clean_linker_0, # of connection points: 2
#     Edge 32, Type (0, 0), BuildingBlock: ZUJKAS_clean_linker_0, # of connection points: 2
#     Edge 33, Type (0, 0), BuildingBlock: ZUJKAS_clean_linker_0, # of connection points: 2
#     Edge 34, Type (0, 0), BuildingBlock: ZUJKAS_clean_linker_0, # of connection points: 2
#     Edge 35, Type (0, 0), BuildingBlock: ZUJKAS_clean_linker_0, # of connection points: 2
#     Edge 36, Type (0, 0), BuildingBlock: ZUJKAS_clean_linker_0, # of connection points: 2
#     Edge 37, Type (0, 0), BuildingBlock: ZUJKAS_clean_linker_0, # of connection points: 2
#     Edge 38, Type (0, 0), BuildingBlock: ZUJKAS_clean_linker_0, # of connection points: 2
#     Edge 39, Type (0, 0), BuildingBlock: ZUJKAS_clean_linker_0, # of connection points: 2
#     Edge 40, Type (0, 0), BuildingBlock: ZUJKAS_clean_linker_0, # of connection points: 2
#     Edge 41, Type (0, 0), BuildingBlock: ZUJKAS_clean_linker_0, # of connection points: 2
# Relax obj value: 0.184
# Max RMSD: 0.164
# Mean RMSD: 0.161
data_MOF--net-wjw--node1-XOMCOT_clean_sbu_1--edge1-ZUJKAS_clean_linker_0
_symmetry_space_group_name_H-M    P1
_symmetry_Int_Tables_number       1
_symmetry_cell_setting            triclinic
loop_
_symmetry_equiv_pos_as_xyz
'x, y, z'
_cell_length_a     50.375424
_cell_length_b     50.357804
_cell_length_c     48.553296
_cell_angle_alpha  90.005294
_cell_angle_beta   90.031832
_cell_angle_gamma 119.95299
loop_
_atom_site_label
_atom_site_type_symbol
_atom_site_fract_x
_atom_site_fract_y
_atom_site_fract_z
_atom_type_partial_charge
C0 C 0.18219 0.38228 0.27805 0.0
C1 C 0.19768 0.36641 0.27461 0.0
N2 N 0.18896 0.34524 0.29474 0.0
N3 N 0.1639 0.37127 0.30031 0.0
C4 C 0.16825 0.3485 0.30981 0.0
H5 H 0.1851 0.40154 0.26588 0.0
Co6 Co 0.14213 0.38835 0.31624 0.0
C7 C 0.11783 0.35026 0.36694 0.0
O8 O 0.08956 0.34333 0.36136 0.0
N9 N 0.12062 0.40601 0.33251 0.0
C10 C 0.10739 0.43041 0.36282 0.0
C11 C 0.12514 0.41721 0.3584 0.0
C12 C 0.10017 0.41303 0.3215 0.0
N13 N 0.0916 0.42783 0.33961 0.0
O14 O 0.10475 0.355 0.30189 0.0
H15 H 0.14108 0.41663 0.37298 0.0
H16 H 0.09199 0.40776 0.30054 0.0
O17 O 0.13938 0.36723 0.35047 0.0
C18 C 0.10292 0.36345 0.2775 0.0
O19 O 0.12433 0.39076 0.26938 0.0
N20 N 0.17897 0.42196 0.32712 0.0
C21 C 0.23635 0.47404 0.33251 0.0
C22 C 0.22882 0.44755 0.34783 0.0
C23 C 0.19994 0.42149 0.34464 0.0
C24 C 0.18564 0.44769 0.31265 0.0
C25 C 0.21414 0.47405 0.31513 0.0
H26 H 0.19502 0.40072 0.35529 0.0
H27 H 0.16896 0.44735 0.29841 0.0
H28 H 0.15782 0.33565 0.32837 0.0
H29 H 0.21467 0.37074 0.25896 0.0
H30 H 0.1071 0.44202 0.38148 0.0
H31 H 0.24553 0.44657 0.36121 0.0
H32 H 0.21891 0.49411 0.30317 0.0
C33 C 0.80296 0.18581 0.61404 0.0
C34 C 0.83432 0.20022 0.61153 0.0
N35 N 0.84544 0.19119 0.63258 0.0
N36 N 0.79425 0.16773 0.63653 0.0
C37 C 0.82061 0.17127 0.64722 0.0
H38 H 0.78759 0.18935 0.601 0.0
Co39 Co 0.75466 0.14731 0.65106 0.0
C40 C 0.76355 0.12031 0.7025 0.0
O41 O 0.74064 0.0929 0.69667 0.0
N42 N 0.71491 0.12735 0.66582 0.0
C43 C 0.67625 0.11696 0.69412 0.0
C44 C 0.70747 0.13297 0.69103 0.0
C45 C 0.68769 0.10769 0.65397 0.0
N46 N 0.6638 0.10113 0.67081 0.0
O47 O 0.74909 0.10934 0.63661 0.0
H48 H 0.72373 0.14846 0.70601 0.0
H49 H 0.6853 0.0993 0.63308 0.0
O50 O 0.77067 0.1424 0.68584 0.0
C51 C 0.74277 0.10935 0.61114 0.0
O52 O 0.73907 0.13181 0.60187 0.0
N53 N 0.75972 0.18486 0.66223 0.0
C54 C 0.76799 0.24333 0.6691 0.0
C55 C 0.785 0.23368 0.68485 0.0
C56 C 0.78072 0.20429 0.68091 0.0
C57 C 0.74266 0.19365 0.64716 0.0
C58 C 0.7463 0.22275 0.65035 0.0
H59 H 0.79508 0.19773 0.69209 0.0
H60 H 0.72665 0.17814 0.63203 0.0
H61 H 0.82183 0.16084 0.66626 0.0
H62 H 0.84787 0.21671 0.59585 0.0
H63 H 0.66362 0.11713 0.71209 0.0
H64 H 0.80227 0.24908 0.69926 0.0
H65 H 0.73249 0.22919 0.638 0.0
C66 C 0.61709 0.80076 0.94866 0.0
C67 C 0.63176 0.83202 0.94496 0.0
N68 N 0.65271 0.84543 0.96517 0.0
N69 N 0.62871 0.79442 0.97106 0.0
C70 C 0.65055 0.82203 0.98047 0.0
H71 H 0.59828 0.78378 0.93646 0.0
Co72 Co 0.61361 0.7558 0.98695 0.0
C73 C 0.65252 0.76976 0.03726 0.0
O74 O 0.65877 0.74785 0.03212 0.0
N75 N 0.598 0.71681 1.00308 0.0
C76 C 0.57527 0.67838 0.03284 0.0
C77 C 0.58652 0.70914 0.02879 0.0
C78 C 0.59329 0.69019 0.99186 0.0
N79 N 0.57949 0.66631 0.00958 0.0
O80 O 0.64711 0.75313 0.97092 0.0
H81 H 0.58566 0.72483 0.0435 0.0
H82 H 0.59949 0.68827 0.97099 0.0
O83 O 0.63581 0.77458 0.02063 0.0
C84 C 0.6379 0.7432 0.94655 0.0
O85 O 0.60986 0.73621 0.9398 0.0
N86 N 0.57981 0.75785 0.99956 0.0
C87 C 0.52753 0.7626 0.00687 0.0
C88 C 0.55507 0.78305 0.02017 0.0
C89 C 0.5811 0.78035 0.01616 0.0
C90 C 0.55311 0.73726 0.9872 0.0
C91 C 0.52661 0.73897 0.99083 0.0
H92 H 0.60255 0.79732 0.02515 0.0
H93 H 0.5527 0.72004 0.9736 0.0
H94 H 0.66354 0.82508 0.99906 0.0
H95 H 0.62675 0.84386 0.92899 0.0
H96 H 0.56388 0.66584 0.05129 0.0
H97 H 0.55692 0.80188 0.03241 0.0
H98 H 0.50578 0.72238 0.98055 0.0
C99 C 0.81377 0.61119 0.2775 0.0
C100 C 0.79878 0.62751 0.27385 0.0
N101 N 0.80663 0.64781 0.29467 0.0
N102 N 0.8309 0.62105 0.30055 0.0
C103 C 0.82636 0.64359 0.31036 0.0
H104 H 0.81136 0.59245 0.26482 0.0
Co105 Co 0.85194 0.60318 0.31645 0.0
C106 C 0.87453 0.64227 0.36708 0.0
O107 O 0.90333 0.6548 0.35947 0.0
N108 N 0.87291 0.58491 0.3326 0.0
C109 C 0.88568 0.55978 0.36256 0.0
C110 C 0.869 0.57426 0.35866 0.0
C111 C 0.89208 0.57651 0.32103 0.0
N112 N 0.90013 0.56109 0.33885 0.0
O113 O 0.88981 0.63695 0.30356 0.0
H114 H 0.85411 0.57599 0.37371 0.0
H115 H 0.899 0.5804 0.29967 0.0
O116 O 0.85348 0.62263 0.35151 0.0
C117 C 0.8927 0.62946 0.27909 0.0
O118 O 0.87151 0.60264 0.26974 0.0
N119 N 0.81462 0.56916 0.32597 0.0
C120 C 0.75711 0.51701 0.3308 0.0
C121 C 0.76353 0.54435 0.34406 0.0
C122 C 0.79244 0.57037 0.34113 0.0
C123 C 0.80887 0.54275 0.31318 0.0
C124 C 0.78035 0.51632 0.31549 0.0
H125 H 0.79641 0.59176 0.34981 0.0
H126 H 0.82633 0.54247 0.30043 0.0
H127 H 0.83591 0.65554 0.32951 0.0
H128 H 0.78275 0.62411 0.25752 0.0
H129 H 0.88681 0.54887 0.38138 0.0
H130 H 0.74599 0.546 0.35556 0.0
H131 H 0.7764 0.49566 0.30504 0.0
C132 C 0.20236 0.81007 0.61962 0.0
C133 C 0.17099 0.79579 0.61669 0.0
N134 N 0.15984 0.80602 0.63674 0.0
N135 N 0.21091 0.8292 0.64138 0.0
C136 C 0.18458 0.82655 0.65111 0.0
H137 H 0.2178 0.80571 0.60751 0.0
Co138 Co 0.25012 0.85034 0.65648 0.0
C139 C 0.23922 0.87662 0.70752 0.0
O140 O 0.26189 0.90431 0.70218 0.0
N141 N 0.28973 0.87126 0.67184 0.0
C142 C 0.32831 0.88317 0.70078 0.0
C143 C 0.29711 0.86661 0.69744 0.0
C144 C 0.31697 0.8908 0.66 0.0
N145 N 0.34082 0.89832 0.6772 0.0
O146 O 0.25488 0.88778 0.64164 0.0
H147 H 0.28085 0.85138 0.71254 0.0
H148 H 0.3195 0.89842 0.63886 0.0
O149 O 0.23311 0.85477 0.69084 0.0
C150 C 0.26415 0.88895 0.61696 0.0
O151 O 0.26921 0.86702 0.60863 0.0
N152 N 0.24593 0.81325 0.66814 0.0
C153 C 0.24058 0.75619 0.67708 0.0
C154 C 0.22128 0.76448 0.69086 0.0
C155 C 0.22425 0.79322 0.68601 0.0
C156 C 0.26476 0.80557 0.65457 0.0
C157 C 0.26264 0.77726 0.65887 0.0
H158 H 0.20856 0.7989 0.69595 0.0
H159 H 0.28109 0.82135 0.63981 0.0
H160 H 0.18339 0.83881 0.6689 0.0
H161 H 0.15738 0.77801 0.60193 0.0
H162 H 0.34085 0.88382 0.71913 0.0
H163 H 0.20388 0.74882 0.705 0.0
H164 H 0.27749 0.77156 0.64729 0.0
C165 C 0.38193 0.20289 0.94882 0.0
C166 C 0.36827 0.17144 0.9475 0.0
N167 N 0.35101 0.1595 0.97028 0.0
N168 N 0.37345 0.21071 0.97237 0.0
C169 C 0.35444 0.18385 0.98487 0.0
H170 H 0.39733 0.21909 0.93378 0.0
Co171 Co 0.38664 0.25042 0.98409 0.0
C172 C 0.38588 0.24704 0.04465 0.0
O173 O 0.41259 0.27245 0.04401 0.0
N174 N 0.39905 0.29111 0.99546 0.0
C175 C 0.39367 0.32859 0.01407 0.0
C176 C 0.38104 0.29752 0.01148 0.0
C177 C 0.42217 0.31911 0.98781 0.0
N178 N 0.41954 0.34233 0.99903 0.0
O179 O 0.34817 0.24587 0.97276 0.0
H180 H 0.35944 0.28053 0.0203 0.0
H181 H 0.43968 0.32273 0.97315 0.0
O182 O 0.37158 0.23544 0.02202 0.0
C183 C 0.35238 0.2575 0.94873 0.0
O184 O 0.3799 0.27005 0.93787 0.0
N185 N 0.42524 0.25449 0.99187 0.0
C186 C 0.48054 0.25422 0.99244 0.0
C187 C 0.45647 0.23476 0.00984 0.0
C188 C 0.42883 0.23481 0.00887 0.0
C189 C 0.44804 0.27253 0.97398 0.0
C190 C 0.47622 0.27347 0.97447 0.0
H191 H 0.40984 0.2176 0.02061 0.0
H192 H 0.44366 0.28448 0.95778 0.0
H193 H 0.34393 0.18216 1.00468 0.0
H194 H 0.37086 0.15846 0.93101 0.0
H195 H 0.38413 0.34004 0.0259 0.0
H196 H 0.45861 0.21886 0.02342 0.0
H197 H 0.49374 0.28767 0.95973 0.0
C198 C 0.60992 0.80927 0.39371 0.0
C199 C 0.62544 0.79337 0.39657 0.0
N200 N 0.64731 0.80312 0.37701 0.0
N201 N 0.62189 0.82892 0.37243 0.0
C202 C 0.64482 0.82487 0.36288 0.0
H203 H 0.59032 0.80581 0.40563 0.0
Co204 Co 0.6058 0.85218 0.35766 0.0
C205 C 0.64485 0.87808 0.30775 0.0
O206 O 0.65234 0.90625 0.31443 0.0
N207 N 0.5892 0.87509 0.34263 0.0
C208 C 0.56631 0.89102 0.31325 0.0
C209 C 0.57889 0.87256 0.31657 0.0
C210 C 0.5822 0.89497 0.3549 0.0
N211 N 0.56835 0.90519 0.33735 0.0
O212 O 0.63948 0.8886 0.37299 0.0
H213 H 0.57961 0.85748 0.3011 0.0
H214 H 0.58679 0.90148 0.37635 0.0
O215 O 0.62715 0.85591 0.32337 0.0
C216 C 0.63263 0.88878 0.39829 0.0
O217 O 0.60581 0.86695 0.40695 0.0
N218 N 0.57181 0.81628 0.34569 0.0
C219 C 0.51921 0.75952 0.33936 0.0
C220 C 0.54541 0.76722 0.32356 0.0
C221 C 0.57177 0.79581 0.32723 0.0
C222 C 0.54629 0.80953 0.3605 0.0
C223 C 0.51968 0.78133 0.35758 0.0
H224 H 0.59237 0.80079 0.31624 0.0
H225 H 0.54705 0.82581 0.37546 0.0
H226 H 0.65843 0.83643 0.34496 0.0
H227 H 0.62042 0.77549 0.41146 0.0
H228 H 0.55539 0.89286 0.29471 0.0
H229 H 0.54599 0.7508 0.30952 0.0
H230 H 0.49984 0.77638 0.36994 0.0
C231 C 0.80005 0.62234 0.73273 0.0
C232 C 0.83126 0.63881 0.73686 0.0
N233 N 0.84429 0.6567 0.71463 0.0
N234 N 0.79341 0.62978 0.70803 0.0
C235 C 0.8208 0.65092 0.69762 0.0
H236 H 0.78338 0.60511 0.74636 0.0
Co237 Co 0.75494 0.61047 0.69134 0.0
C238 C 0.76735 0.64644 0.63947 0.0
O239 O 0.74475 0.6518 0.64408 0.0
N240 N 0.7161 0.59041 0.67437 0.0
C241 C 0.67955 0.56204 0.64418 0.0
C242 C 0.71053 0.57773 0.64899 0.0
C243 C 0.68797 0.58204 0.68458 0.0
N244 N 0.66535 0.56467 0.6666 0.0
O245 O 0.7486 0.64302 0.70395 0.0
H246 H 0.7279 0.57901 0.63509 0.0
H247 H 0.68389 0.58738 0.70515 0.0
O248 O 0.7731 0.63101 0.65685 0.0
C249 C 0.7374 0.63502 0.7281 0.0
O250 O 0.73142 0.60798 0.73717 0.0
N251 N 0.76057 0.57783 0.68219 0.0
C252 C 0.7687 0.52725 0.67881 0.0
C253 C 0.78622 0.55316 0.66236 0.0
C254 C 0.78201 0.57851 0.66456 0.0
C255 C 0.743 0.55266 0.69786 0.0
C256 C 0.74659 0.52706 0.69644 0.0
H257 H 0.79668 0.59888 0.65288 0.0
H258 H 0.72659 0.55286 0.7121 0.0
H259 H 0.82377 0.66072 0.67729 0.0
H260 H 0.84339 0.63711 0.75455 0.0
H261 H 0.66831 0.5494 0.62568 0.0
H262 H 0.80376 0.55425 0.64874 0.0
H263 H 0.7324 0.50739 0.70927 0.0
C264 C 0.19011 0.80023 0.06625 0.0
C265 C 0.2054 0.83158 0.06969 0.0
N266 N 0.19634 0.84383 0.04964 0.0
N267 N 0.1715 0.79279 0.04418 0.0
C268 C 0.17547 0.81977 0.03478 0.0
H269 H 0.19353 0.78402 0.07816 0.0
Co270 Co 0.14982 0.75411 0.02812 0.0
C271 C 0.1245 0.76755 0.97796 0.0
O272 O 0.09641 0.74612 0.98391 0.0
N273 N 0.12834 0.71509 0.0118 0.0
C274 C 0.11533 0.67724 0.98175 0.0
C275 C 0.13228 0.70833 0.98574 0.0
C276 C 0.10893 0.6876 0.02329 0.0
N277 N 0.10073 0.66417 0.00542 0.0
O278 O 0.11253 0.74979 0.0429 0.0
H279 H 0.14736 0.72491 0.97076 0.0
H280 H 0.10198 0.68459 0.04465 0.0
O281 O 0.14642 0.77242 0.99411 0.0
C282 C 0.11074 0.7397 0.06735 0.0
O283 O 0.13229 0.73407 0.07568 0.0
N284 N 0.18667 0.7577 0.01649 0.0
C285 C 0.24362 0.76273 0.00824 0.0
C286 C 0.23652 0.7836 0.99584 0.0
C287 C 0.20775 0.78067 1.00022 0.0
C288 C 0.19318 0.73725 0.02861 0.0
C289 C 0.22139 0.73911 0.0245 0.0
H290 H 0.20295 0.79754 0.99147 0.0
H291 H 0.17661 0.71987 0.04221 0.0
H292 H 0.16406 0.82194 0.01679 0.0
H293 H 0.22312 0.84442 0.08474 0.0
H294 H 0.11415 0.66517 0.96293 0.0
H295 H 0.2532 0.80225 0.98327 0.0
H296 H 0.22621 0.72295 0.03491 0.0
C297 C 0.37919 0.17846 0.39958 0.0
C298 C 0.36315 0.19383 0.40242 0.0
N299 N 0.3434 0.18606 0.38117 0.0
N300 N 0.36968 0.1611 0.37664 0.0
C301 C 0.34766 0.16598 0.36605 0.0
H302 H 0.39766 0.18091 0.41268 0.0
Co303 Co 0.38824 0.14034 0.3615 0.0
C304 C 0.35219 0.11284 0.31028 0.0
O305 O 0.34995 0.08615 0.31525 0.0
N306 N 0.40766 0.12 0.34616 0.0
C307 C 0.43374 0.1078 0.31677 0.0
C308 C 0.42004 0.12518 0.32069 0.0
C309 C 0.4146 0.09959 0.35745 0.0
N310 N 0.43034 0.09164 0.3399 0.0
O311 O 0.35632 0.10271 0.37679 0.0
H312 H 0.41956 0.14104 0.30596 0.0
H313 H 0.4084 0.09079 0.37816 0.0
O314 O 0.36611 0.13486 0.32725 0.0
C315 C 0.36512 0.10191 0.40128 0.0
O316 O 0.39219 0.12412 0.40906 0.0
N317 N 0.42038 0.1776 0.34959 0.0
C318 C 0.47078 0.23572 0.34222 0.0
C319 C 0.44447 0.22581 0.32592 0.0
C320 C 0.41918 0.19657 0.33014 0.0
C321 C 0.44599 0.18662 0.36507 0.0
C322 C 0.47149 0.21555 0.36169 0.0
H323 H 0.39848 0.18973 0.31848 0.0
H324 H 0.44621 0.17142 0.38069 0.0
H325 H 0.33615 0.15646 0.34676 0.0
H326 H 0.36646 0.21014 0.41845 0.0
H327 H 0.44603 0.10781 0.2985 0.0
H328 H 0.44304 0.24091 0.31086 0.0
H329 H 0.49149 0.22223 0.37446 0.0
C330 C 0.20454 0.37918 0.72601 0.0
C331 C 0.17331 0.36256 0.73007 0.0
N332 N 0.1608 0.34194 0.70952 0.0
N333 N 0.21164 0.36905 0.70303 0.0
C334 C 0.1846 0.34612 0.69369 0.0
H335 H 0.22088 0.39836 0.73827 0.0
Co336 Co 0.25002 0.38674 0.68639 0.0
C337 C 0.23546 0.34948 0.63498 0.0
O338 O 0.25705 0.34264 0.63962 0.0
N339 N 0.2888 0.40506 0.66949 0.0
C340 C 0.32592 0.43192 0.63934 0.0
C341 C 0.29486 0.41664 0.64369 0.0
C342 C 0.31669 0.41364 0.68041 0.0
N343 N 0.33966 0.43013 0.66248 0.0
O344 O 0.25465 0.3533 0.69949 0.0
H345 H 0.27783 0.41522 0.62927 0.0
H346 H 0.32035 0.40938 0.70151 0.0
O347 O 0.23112 0.36611 0.65209 0.0
C348 C 0.26562 0.36096 0.72376 0.0
O349 O 0.27216 0.38815 0.7329 0.0
N350 N 0.2461 0.42031 0.67654 0.0
C351 C 0.24117 0.47268 0.67087 0.0
C352 C 0.221 0.4456 0.65682 0.0
C353 C 0.22376 0.41949 0.66003 0.0
C354 C 0.26588 0.44635 0.69026 0.0
C355 C 0.26398 0.47286 0.68758 0.0
H356 H 0.20735 0.39849 0.65003 0.0
H357 H 0.28275 0.44624 0.70397 0.0
H358 H 0.18219 0.33316 0.6752 0.0
H359 H 0.16071 0.36652 0.74605 0.0
H360 H 0.33755 0.44394 0.62074 0.0
H361 H 0.20302 0.44448 0.64378 0.0
H362 H 0.27954 0.49297 0.69935 0.0
C363 C 0.80928 0.20536 0.05836 0.0
C364 C 0.79345 0.17396 0.06163 0.0
N365 N 0.80386 0.16168 0.04281 0.0
N366 N 0.82953 0.21274 0.03761 0.0
C367 C 0.82601 0.18571 0.02889 0.0
H368 H 0.80529 0.22166 0.06948 0.0
Co369 Co 0.85349 0.25138 0.02198 0.0
C370 C 0.87742 0.23559 0.97195 0.0
O371 O 0.906 0.25618 0.97737 0.0
N372 N 0.87736 0.29027 0.00602 0.0
C373 C 0.89386 0.32859 0.97604 0.0
C374 C 0.8749 0.29771 0.97981 0.0
C375 C 0.89776 0.31717 0.01787 0.0
N376 N 0.90828 0.34094 1.0 0.0
O377 O 0.88934 0.25306 0.03763 0.0
H378 H 0.8594 0.28184 0.9646 0.0
H379 H 0.90435 0.3194 0.0393 0.0
O380 O 0.85612 0.23231 0.98817 0.0
C381 C 0.89064 0.26262 0.06223 0.0
O382 O 0.86982 0.2696 0.06987 0.0
N383 N 0.81805 0.25044 0.00953 0.0
C384 C 0.76298 0.24945 1.00018 0.0
C385 C 0.76862 0.22741 0.98802 0.0
C386 C 0.79638 0.22825 0.99302 0.0
C387 C 0.81317 0.27221 0.02117 0.0
C388 C 0.78604 0.27244 0.01645 0.0
H389 H 0.79983 0.21033 0.98465 0.0
H390 H 0.83025 0.28915 0.03476 0.0
H391 H 0.83883 0.18348 0.0121 0.0
H392 H 0.77459 0.16113 0.07565 0.0
H393 H 0.89578 0.3411 0.95733 0.0
H394 H 0.7513 0.20892 0.97573 0.0
H395 H 0.78302 0.29022 0.02591 0.0
H396 H 0.92996 0.23897 0.06063 0.0
H397 H 0.96506 0.24194 0.09759 0.0
H398 H 0.93845 0.29632 0.14646 0.0
H399 H 0.90377 0.2933 0.11045 0.0
H400 H 0.01436 0.2918 0.12168 0.0
H401 H 0.92667 0.23068 0.20111 0.0
H402 H 0.91719 0.22885 0.165 0.0
H403 H 0.92139 0.26021 0.18608 0.0
C404 C 0.93174 0.25156 0.07928 0.0
C405 C 0.91382 0.2656 0.08271 0.0
C406 C 0.9516 0.25308 0.10042 0.0
C407 C 0.95358 0.26847 0.12522 0.0
C408 C 0.93649 0.28332 0.12804 0.0
H409 H 0.08574 0.38307 0.23296 0.0
H410 H 0.0502 0.35286 0.1968 0.0
C411 C 0.9168 0.28177 0.1072 0.0
C412 C 0.97461 0.27112 0.14791 0.0
H413 H 0.97718 0.26959 0.21822 0.0
C414 C 0.00619 0.28613 0.14271 0.0
C415 C 0.96409 0.26307 0.17538 0.0
C416 C 0.93043 0.24448 0.18215 0.0
C417 C 0.02747 0.29611 0.16443 0.0
C418 C 0.01687 0.29154 0.192 0.0
C419 C 0.98536 0.27369 0.19713 0.0
C420 C 0.03766 0.30899 0.21513 0.0
C421 C 0.06118 0.31278 0.15761 0.0
C422 C 0.04122 0.29445 0.23846 0.0
C423 C 0.06157 0.31191 0.25966 0.0
C424 C 0.07841 0.34406 0.25772 0.0
C425 C 0.07356 0.35833 0.23492 0.0
C426 C 0.05338 0.34106 0.21404 0.0
H427 H 0.06547 0.30467 0.13772 0.0
H428 H 0.06936 0.33763 0.15548 0.0
H429 H 0.07477 0.30966 0.17399 0.0
H430 H 0.02884 0.26968 0.23994 0.0
H431 H 0.06486 0.30032 0.277 0.0
H432 H 0.63094 0.8828 0.45358 0.0
H433 H 0.65951 0.92194 0.48797 0.0
H434 H 0.70977 0.98687 0.42365 0.0
H435 H 0.68072 0.94734 0.38862 0.0
H436 H 0.72291 0.95985 0.49979 0.0
H437 H 0.66643 0.02559 0.46681 0.0
H438 H 0.65302 0.98674 0.45573 0.0
H439 H 0.68689 0.01775 0.44071 0.0
C440 C 0.64824 0.90533 0.44661 0.0
C441 C 0.65329 0.91214 0.41834 0.0
C442 C 0.6647 0.92763 0.46638 0.0
C443 C 0.68647 0.95739 0.45842 0.0
C444 C 0.69276 0.96406 0.43021 0.0
H445 H 0.76362 0.12085 0.55916 0.0
H446 H 0.7547 0.0841 0.52269 0.0
C447 C 0.67631 0.9415 0.41024 0.0
C448 C 0.70043 0.98152 0.4799 0.0
H449 H 0.69854 0.04368 0.50537 0.0
C450 C 0.71794 0.97845 0.5009 0.0
C451 C 0.69354 0.00546 0.48147 0.0
C452 C 0.67377 0.00913 0.46015 0.0
C453 C 0.72877 0.99874 0.52343 0.0
C454 C 0.72135 0.02232 0.52524 0.0
C455 C 0.70425 0.02561 0.50399 0.0
C456 C 0.73097 0.04415 0.54876 0.0
C457 C 0.74818 0.99487 0.54494 0.0
C458 C 0.72147 0.03404 0.57593 0.0
C459 C 0.727 0.05524 0.59711 0.0
C460 C 0.74152 0.08668 0.59114 0.0
C461 C 0.75214 0.09668 0.56427 0.0
C462 C 0.74706 0.0757 0.54338 0.0
H463 H 0.75882 0.98174 0.53682 0.0
H464 H 0.76658 0.01744 0.5525 0.0
H465 H 0.73352 0.98203 0.5627 0.0
H466 H 0.70849 0.00978 0.58051 0.0
H467 H 0.71832 0.047 0.6176 0.0
H468 H 0.70034 0.76363 0.9473 0.0
H469 H 0.73076 0.75918 0.90954 0.0
H470 H 0.64863 0.70995 0.86087 0.0
H471 H 0.61866 0.71429 0.89765 0.0
H472 H 0.72518 0.70687 0.88403 0.0
H473 H 0.70552 0.77568 0.80715 0.0
H474 H 0.69901 0.77755 0.84352 0.0
H475 H 0.66992 0.74789 0.82232 0.0
C476 C 0.68892 0.75188 0.92851 0.0
C477 C 0.65713 0.7396 0.92542 0.0
C478 C 0.70629 0.74951 0.90693 0.0
C479 C 0.69208 0.73511 0.88201 0.0
C480 C 0.66031 0.72214 0.87943 0.0
H481 H 0.69709 0.61682 0.76996 0.0
H482 H 0.69365 0.64794 0.80651 0.0
C483 C 0.64313 0.72444 0.90073 0.0
C484 C 0.70928 0.73136 0.85891 0.0
H485 H 0.7129 0.73451 0.78859 0.0
C486 C 0.72335 0.71371 0.86325 0.0
C487 C 0.70754 0.74077 0.83177 0.0
C488 C 0.69497 0.76183 0.82597 0.0
C489 C 0.73279 0.70264 0.84097 0.0
C490 C 0.7275 0.70893 0.8137 0.0
C491 C 0.71641 0.72918 0.80945 0.0
C492 C 0.72898 0.69111 0.78996 0.0
C493 C 0.74694 0.68297 0.84681 0.0
C494 C 0.74873 0.70522 0.76749 0.0
C495 C 0.75054 0.6873 0.74612 0.0
C496 C 0.7325 0.65516 0.74707 0.0
C497 C 0.7116 0.6415 0.76881 0.0
C498 C 0.70976 0.65924 0.78988 0.0
H499 H 0.75901 0.68898 0.86696 0.0
H500 H 0.72859 0.65858 0.84775 0.0
H501 H 0.76341 0.68543 0.83043 0.0
H502 H 0.76339 0.72988 0.76695 0.0
H503 H 0.76692 0.69839 0.72965 0.0
H504 H 0.09383 0.70349 0.11228 0.0
H505 H 0.05717 0.69735 0.14762 0.0
H506 H 0.03523 0.75815 0.10328 0.0
H507 H 0.0722 0.76417 0.06706 0.0
H508 H 0.05823 0.74322 0.18086 0.0
H509 H 0.95083 0.68259 0.11906 0.0
H510 H 0.98644 0.68634 0.10706 0.0
H511 H 0.98093 0.71889 0.10664 0.0
C512 C 0.08115 0.71549 0.10981 0.0
C513 C 0.08598 0.73439 0.08686 0.0
C514 C 0.06024 0.71203 0.13017 0.0
C515 C 0.04355 0.72738 0.12826 0.0
C516 C 0.04773 0.7459 0.1051 0.0
H517 H 0.92846 0.69275 0.27874 0.0
H518 H 0.96578 0.7242 0.2429 0.0
C519 C 0.06875 0.74927 0.08441 0.0
C520 C 0.02193 0.72323 0.15087 0.0
H521 H 0.94584 0.68383 0.16686 0.0
C522 C 0.03361 0.73088 0.17782 0.0
C523 C 0.98987 0.70717 0.14681 0.0
C524 C 0.97606 0.69805 0.11841 0.0
C525 C 0.01415 0.72081 0.20088 0.0
C526 C 0.98217 0.70301 0.19684 0.0
C527 C 0.97042 0.69749 0.16987 0.0
C528 C 0.96102 0.68534 0.21964 0.0
C529 C 0.02799 0.72717 0.22936 0.0
C530 C 0.94643 0.6533 0.21866 0.0
C531 C 0.92536 0.63558 0.2388 0.0
C532 C 0.91831 0.64939 0.26058 0.0
C533 C 0.93369 0.68155 0.26231 0.0
C534 C 0.95487 0.69947 0.24182 0.0
H535 H 0.05341 0.73885 0.22884 0.0
H536 H 0.02123 0.74202 0.24068 0.0
H537 H 0.0192 0.70544 0.24107 0.0
H538 H 0.95107 0.64189 0.20198 0.0
H539 H 0.91412 0.61086 0.23698 0.0
H540 H 0.30256 0.06118 0.4012 0.0
H541 H 0.27262 0.02519 0.43844 0.0
H542 H 0.35605 0.05241 0.48365 0.0
H543 H 0.38557 0.08799 0.44732 0.0
H544 H 0.27526 0.976 0.46119 0.0
H545 H 0.30421 0.06397 0.54108 0.0
H546 H 0.30988 0.0732 0.50482 0.0
H547 H 0.33837 0.06961 0.52438 0.0
C548 C 0.31437 0.05924 0.41906 0.0
C549 C 0.34636 0.07767 0.42147 0.0
C550 C 0.29729 0.0389 0.44036 0.0
C551 C 0.31204 0.03693 0.46428 0.0
C552 C 0.34403 0.05435 0.46594 0.0
H553 H 0.29877 0.90481 0.57105 0.0
H554 H 0.30288 0.93995 0.53493 0.0
C555 C 0.36092 0.07454 0.44495 0.0
C556 C 0.29493 0.01588 0.48733 0.0
H557 H 0.29362 0.0137 0.55768 0.0
C558 C 0.27853 0.98426 0.48225 0.0
C559 C 0.29841 0.02654 0.51484 0.0
C560 C 0.31339 0.06023 0.52155 0.0
C561 C 0.26829 0.96309 0.50404 0.0
C562 C 0.27526 0.97387 0.53154 0.0
C563 C 0.28883 0.0054 0.53663 0.0
C564 C 0.27273 0.95326 0.55454 0.0
C565 C 0.25121 0.92933 0.49733 0.0
C566 C 0.25579 0.95032 0.57854 0.0
C567 C 0.25369 0.93028 0.59971 0.0
C568 C 0.26862 0.91311 0.59707 0.0
C569 C 0.28656 0.91729 0.57356 0.0
C570 C 0.28872 0.9372 0.5527 0.0
H571 H 0.23798 0.92487 0.4779 0.0
H572 H 0.26791 0.92131 0.49433 0.0
H573 H 0.23525 0.91573 0.51414 0.0
H574 H 0.24372 0.96297 0.5806 0.0
H575 H 0.23971 0.9275 0.6176 0.0
H576 H 0.30622 0.37795 0.76536 0.0
H577 H 0.30771 0.34625 0.8025 0.0
H578 H 0.23514 0.26559 0.76367 0.0
H579 H 0.23346 0.29761 0.72588 0.0
H580 H 0.24641 0.30299 0.83445 0.0
H581 H 0.31063 0.24997 0.78911 0.0
H582 H 0.31797 0.28697 0.77709 0.0
H583 H 0.28205 0.25347 0.76947 0.0
C584 C 0.29086 0.35339 0.76438 0.0
C585 C 0.26962 0.34026 0.74277 0.0
C586 C 0.29173 0.33534 0.78567 0.0
C587 C 0.2714 0.30369 0.78593 0.0
C588 C 0.25104 0.29004 0.76376 0.0
H589 H 0.30557 0.20935 0.92214 0.0
H590 H 0.27602 0.21322 0.88348 0.0
C591 C 0.25024 0.30826 0.74215 0.0
C592 C 0.27089 0.2861 0.81058 0.0
H593 H 0.30581 0.24878 0.83751 0.0
C594 C 0.25867 0.29038 0.83506 0.0
C595 C 0.28674 0.2696 0.81125 0.0
C596 C 0.30016 0.26452 0.7854 0.0
C597 C 0.26365 0.28032 0.8605 0.0
C598 C 0.28177 0.26612 0.86153 0.0
C599 C 0.29195 0.25972 0.83676 0.0
C600 C 0.29434 0.26208 0.88791 0.0
C601 C 0.25053 0.28616 0.88619 0.0
C602 C 0.31379 0.28805 0.90365 0.0
C603 C 0.33052 0.28582 0.92558 0.0
C604 C 0.32788 0.25755 0.93239 0.0
C605 C 0.30716 0.2312 0.91777 0.0
C606 C 0.29058 0.23347 0.89554 0.0
H607 H 0.22925 0.28677 0.88153 0.0
H608 H 0.24538 0.26834 0.90205 0.0
H609 H 0.26742 0.30879 0.89488 0.0
H610 H 0.31772 0.31048 0.8978 0.0
H611 H 0.34709 0.30655 0.93606 0.0
H612 H 0.08277 0.33094 0.41382 0.0
H613 H 0.0988 0.3242 0.45983 0.0
H614 H 0.18677 0.34517 0.42746 0.0
H615 H 0.17109 0.35195 0.3815 0.0
H616 H 0.14602 0.28742 0.47121 0.0
H617 H 0.17809 0.40736 0.49849 0.0
H618 H 0.14357 0.3839 0.47906 0.0
H619 H 0.18015 0.39658 0.46341 0.0
C620 C 0.10534 0.33361 0.41638 0.0
C621 C 0.12574 0.34228 0.394 0.0
C622 C 0.11445 0.32979 0.44268 0.0
C623 C 0.14398 0.33429 0.44698 0.0
C624 C 0.16389 0.34159 0.42452 0.0
H625 H 0.24971 0.3303 0.58712 0.0
H626 H 0.22559 0.32369 0.5419 0.0
C627 C 0.15491 0.3456 0.3983 0.0
C628 C 0.15496 0.33371 0.4752 0.0
H629 H 0.18656 0.37875 0.53191 0.0
C630 C 0.1548 0.30728 0.48459 0.0
C631 C 0.16633 0.35966 0.49251 0.0
C632 C 0.16724 0.38864 0.48305 0.0
C633 C 0.16567 0.30613 0.51106 0.0
C634 C 0.17757 0.33234 0.52827 0.0
C635 C 0.17744 0.35865 0.51879 0.0
C636 C 0.19052 0.33333 0.5561 0.0
C637 C 0.16381 0.27672 0.52051 0.0
C638 C 0.17899 0.34103 0.57921 0.0
C639 C 0.19289 0.34507 0.60499 0.0
C640 C 0.21877 0.34163 0.6083 0.0
C641 C 0.2297 0.33292 0.58535 0.0
C642 C 0.21583 0.32901 0.55947 0.0
H643 H 0.14647 0.2567 0.50858 0.0
H644 H 0.18637 0.27831 0.51738 0.0
H645 H 0.15796 0.27259 0.54273 0.0
H646 H 0.1595 0.34448 0.57718 0.0
H647 H 0.18363 0.35145 0.62224 0.0
H648 H 0.74287 0.08589 0.74965 0.0
H649 H 0.76428 0.10073 0.7962 0.0
H650 H 0.83877 0.1849 0.76432 0.0
H651 H 0.81762 0.17039 0.71784 0.0
H652 H 0.85328 0.14876 0.80734 0.0
H653 H 0.7624 0.17605 0.83564 0.0
H654 H 0.7506 0.13969 0.81938 0.0
H655 H 0.77256 0.17443 0.80026 0.0
C656 C 0.76407 0.10732 0.75246 0.0
C657 C 0.77836 0.12708 0.73003 0.0
C658 C 0.7762 0.11581 0.77908 0.0
C659 C 0.80295 0.14402 0.78369 0.0
C660 C 0.81807 0.16307 0.76119 0.0
H661 H 0.91116 0.25006 0.92434 0.0
H662 H 0.89403 0.22595 0.8791 0.0
C663 C 0.80585 0.15476 0.73465 0.0
C664 C 0.8141 0.15469 0.81209 0.0
H665 H 0.79856 0.18342 0.86964 0.0
C666 C 0.84132 0.15624 0.82108 0.0
C667 C 0.79843 0.16441 0.82988 0.0
C668 C 0.76945 0.16382 0.82093 0.0
C669 C 0.85314 0.167 0.84761 0.0
C670 C 0.83775 0.1773 0.86529 0.0
C671 C 0.81039 0.17552 0.85621 0.0
C672 C 0.84951 0.19039 0.89316 0.0
C673 C 0.88164 0.16665 0.85655 0.0
C674 C 0.83021 0.17877 0.91621 0.0
C675 C 0.83976 0.19285 0.94195 0.0
C676 C 0.86894 0.21884 0.94533 0.0
C677 C 0.88869 0.22988 0.9225 0.0
C678 C 0.87895 0.21598 0.89661 0.0
H679 H 0.88477 0.14951 0.84473 0.0
H680 H 0.90194 0.18952 0.85269 0.0
H681 H 0.88091 0.16141 0.87885 0.0
H682 H 0.80741 0.15911 0.91416 0.0
H683 H 0.82401 0.18367 0.9591 0.0
H684 H 0.66513 0.91491 0.262 0.0
H685 H 0.67322 0.9008 0.21566 0.0
H686 H 0.65163 0.8116 0.24537 0.0
H687 H 0.64338 0.82536 0.29165 0.0
H688 H 0.70803 0.8481 0.20567 0.0
H689 H 0.59487 0.83042 0.17097 0.0
H690 H 0.61977 0.86476 0.18997 0.0
H691 H 0.60316 0.82828 0.20684 0.0
C692 C 0.66256 0.89246 0.25878 0.0
C693 C 0.65335 0.87118 0.28049 0.0
C694 C 0.66711 0.88442 0.23228 0.0
C695 C 0.66284 0.8551 0.22711 0.0
C696 C 0.655 0.83431 0.24895 0.0
H697 H 0.66755 0.75188 0.08538 0.0
H698 H 0.67301 0.77444 0.13113 0.0
C699 C 0.65017 0.8422 0.27536 0.0
C700 C 0.66457 0.84534 0.19864 0.0
H701 H 0.62412 0.82156 0.13859 0.0
C702 C 0.68981 0.8424 0.19089 0.0
C703 C 0.64077 0.83799 0.17949 0.0
C704 C 0.61295 0.8403 0.18707 0.0
C705 C 0.69198 0.83249 0.16429 0.0
C706 C 0.66781 0.82449 0.14522 0.0
C707 C 0.64269 0.8277 0.15308 0.0
C708 C 0.66759 0.81231 0.11715 0.0
C709 C 0.72041 0.83128 0.15677 0.0
C710 C 0.66246 0.8258 0.09393 0.0
C711 C 0.65882 0.81264 0.06784 0.0
C712 C 0.66036 0.78571 0.06428 0.0
C713 C 0.66661 0.77281 0.08734 0.0
C714 C 0.66988 0.78581 0.11355 0.0
H715 H 0.74023 0.84708 0.16978 0.0
H716 H 0.71619 0.80771 0.16022 0.0
H717 H 0.7266 0.83734 0.13481 0.0
H718 H 0.66056 0.8462 0.09609 0.0
H719 H 0.65413 0.82324 0.05054 0.0
H720 H 0.82 0.64633 0.62606 0.0
H721 H 0.84291 0.65257 0.58055 0.0
H722 H 0.77388 0.66949 0.54593 0.0
H723 H 0.75089 0.6635 0.59158 0.0
H724 H 0.81428 0.61589 0.53659 0.0
H725 H 0.85156 0.73652 0.50978 0.0
H726 H 0.84186 0.72201 0.54452 0.0
H727 H 0.81213 0.71475 0.52009 0.0
C728 C 0.80984 0.65173 0.60887 0.0
C729 C 0.78342 0.65418 0.61249 0.0
C730 C 0.82305 0.65538 0.58282 0.0
C731 C 0.81031 0.66172 0.55977 0.0
C732 C 0.78454 0.66521 0.56344 0.0
H733 H 0.8178 0.61544 0.39094 0.0
H734 H 0.80436 0.62242 0.43742 0.0
C735 C 0.77132 0.66165 0.58958 0.0
C736 C 0.82233 0.66185 0.53172 0.0
H737 H 0.85066 0.70442 0.47299 0.0
C738 C 0.82247 0.63538 0.52282 0.0
C739 C 0.83327 0.68734 0.51375 0.0
C740 C 0.83502 0.71689 0.52256 0.0
C741 C 0.83242 0.63338 0.49629 0.0
C742 C 0.84221 0.65837 0.47797 0.0
C743 C 0.84294 0.68521 0.48703 0.0
C744 C 0.85052 0.65627 0.44902 0.0
C745 C 0.83228 0.60443 0.488 0.0
C746 C 0.8809 0.67362 0.43977 0.0
C747 C 0.88877 0.66965 0.41295 0.0
C748 C 0.86632 0.64842 0.39488 0.0
C749 C 0.83577 0.63194 0.40409 0.0
C750 C 0.82799 0.63581 0.4308 0.0
H751 H 0.83105 0.59045 0.50617 0.0
H752 H 0.81199 0.59036 0.47483 0.0
H753 H 0.85311 0.60984 0.47593 0.0
H754 H 0.89864 0.68962 0.45352 0.0
H755 H 0.91249 0.68282 0.40657 0.0
H756 H 0.08904 0.75005 0.93129 0.0
H757 H 0.10446 0.77147 0.88484 0.0
H758 H 0.19211 0.84058 0.91619 0.0
H759 H 0.177 0.81937 0.96261 0.0
H760 H 0.15878 0.85983 0.87409 0.0
H761 H 0.17479 0.76203 0.84387 0.0
H762 H 0.13949 0.75322 0.86072 0.0
H763 H 0.17487 0.77262 0.87943 0.0
C764 C 0.11139 0.77012 0.92841 0.0
C765 C 0.13189 0.78281 0.95064 0.0
C766 C 0.1202 0.78225 0.90184 0.0
C767 C 0.14952 0.80742 0.89709 0.0
C768 C 0.16942 0.8211 0.91943 0.0
H769 H 0.25775 0.91021 0.75528 0.0
H770 H 0.23436 0.89467 0.80092 0.0
C771 C 0.16076 0.80885 0.94593 0.0
C772 C 0.16027 0.81821 0.86864 0.0
H773 H 0.18451 0.79917 0.81014 0.0
C774 C 0.16432 0.84659 0.86 0.0
C775 C 0.16747 0.80086 0.85039 0.0
C776 C 0.16417 0.77054 0.85894 0.0
C777 C 0.17511 0.85795 0.83338 0.0
C778 C 0.18283 0.84081 0.81521 0.0
C779 C 0.17857 0.81233 0.82395 0.0
C780 C 0.1957 0.85185 0.78716 0.0
C781 C 0.17752 0.88788 0.82484 0.0
C782 C 0.18205 0.83296 0.76414 0.0
C783 C 0.19564 0.84158 0.73815 0.0
C784 C 0.22321 0.86938 0.73449 0.0
C785 C 0.23636 0.88881 0.75733 0.0
C786 C 0.22289 0.87999 0.78346 0.0
H787 H 0.16205 0.89297 0.83722 0.0
H788 H 0.20133 0.90675 0.82827 0.0
H789 H 0.17186 0.88765 0.80271 0.0
H790 H 0.16111 0.81115 0.76639 0.0
H791 H 0.1848 0.82612 0.721 0.0
H792 H 0.42253 0.24927 0.08626 0.0
H793 H 0.40825 0.22164 0.12961 0.0
H794 H 0.31279 0.17851 0.10673 0.0
H795 H 0.32741 0.20522 0.06207 0.0
H796 H 0.37838 0.22584 0.16998 0.0
H797 H 0.3151 0.10521 0.13392 0.0
H798 H 0.33672 0.13682 0.1108 0.0
H799 H 0.29916 0.12804 0.12206 0.0
C800 C 0.39845 0.23384 0.09032 0.0
C801 C 0.37605 0.22961 0.07081 0.0
C802 C 0.39028 0.21796 0.1152 0.0
C803 C 0.35942 0.19773 0.12162 0.0
C804 C 0.33682 0.1934 0.10215 0.0
H805 H 0.32979 0.15073 0.29755 0.0
H806 H 0.32523 0.1684 0.25183 0.0
C807 C 0.34513 0.20887 0.07674 0.0
C808 C 0.35167 0.18262 0.14923 0.0
H809 H 0.31668 0.11324 0.18204 0.0
C810 C 0.36482 0.20119 0.17254 0.0
C811 C 0.33415 0.15042 0.15273 0.0
C812 C 0.3207 0.1289 0.12855 0.0
C813 C 0.3621 0.18865 0.1989 0.0
C814 C 0.34414 0.15648 0.20256 0.0
C815 C 0.33019 0.13788 0.17938 0.0
C816 C 0.34146 0.14178 0.22991 0.0
C817 C 0.38005 0.2101 0.22218 0.0
C818 C 0.34959 0.11895 0.23282 0.0
C819 C 0.35102 0.1079 0.25895 0.0
C820 C 0.34482 0.11984 0.28267 0.0
C821 C 0.33503 0.14136 0.27965 0.0
C822 C 0.33273 0.15172 0.2535 0.0
H823 H 0.39933 0.23203 0.2144 0.0
H824 H 0.36474 0.21567 0.2342 0.0
H825 H 0.38961 0.19956 0.23621 0.0
H826 H 0.35624 0.11068 0.21501 0.0
H827 H 0.35881 0.09144 0.26067 0.0
H828 H 0.89492 0.51006 0.36254 0.0
H829 H 0.92836 0.48841 0.35591 0.0
H830 H 0.98121 0.55872 0.29637 0.0
H831 H 0.94787 0.58087 0.30318 0.0
H832 H 0.94381 0.46754 0.30502 0.0
H833 H 0.04382 0.56475 0.35691 0.0
H834 H 0.00525 0.55781 0.3611 0.0
H835 H 0.02554 0.57389 0.32959 0.0
C836 C 0.91372 0.52105 0.34812 0.0
C837 C 0.91895 0.54743 0.33363 0.0
C838 C 0.93265 0.50847 0.34418 0.0
C839 C 0.9574 0.52209 0.32584 0.0
C840 C 0.96235 0.548 0.3108 0.0
H841 H 0.07565 0.44271 0.29062 0.0
H842 H 0.04302 0.46554 0.28396 0.0
C843 C 0.94321 0.56052 0.31459 0.0
C844 C 0.97843 0.50954 0.32347 0.0
H845 H 0.04951 0.52332 0.34252 0.0
C846 C 0.96708 0.47986 0.31284 0.0
C847 C 0.00865 0.5256 0.33395 0.0
C848 C 0.02167 0.55722 0.34622 0.0
C849 C 0.985 0.4656 0.31289 0.0
C850 C 0.01498 0.48144 0.32389 0.0
C851 C 0.02655 0.51134 0.33397 0.0
C852 C 0.03376 0.46648 0.32732 0.0
C853 C 0.97144 0.43325 0.30228 0.0
C854 C 0.0392 0.45931 0.35385 0.0
C855 C 0.05753 0.44605 0.35772 0.0
C856 C 0.0712 0.43991 0.33516 0.0
C857 C 0.06534 0.44677 0.30847 0.0
C858 C 0.04678 0.45995 0.30461 0.0
H859 H 0.94674 0.42295 0.29716 0.0
H860 H 0.98388 0.4332 0.28345 0.0
H861 H 0.97416 0.41863 0.31785 0.0
H862 H 0.02921 0.46401 0.37164 0.0
H863 H 0.06092 0.4406 0.37851 0.0
H864 H 0.63545 0.0473 0.64291 0.0
H865 H 0.57988 0.01271 0.63866 0.0
H866 H 0.56393 0.07843 0.6817 0.0
H867 H 0.61911 0.11235 0.68658 0.0
H868 H 0.53209 0.02402 0.70413 0.0
H869 H 0.51376 0.01171 0.59123 0.0
H870 H 0.54175 0.00217 0.60301 0.0
H871 H 0.54911 0.04085 0.60644 0.0
C872 C 0.61997 0.05446 0.65097 0.0
C873 C 0.63151 0.08234 0.66527 0.0
C874 C 0.58824 0.03479 0.64844 0.0
C875 C 0.5676 0.04302 0.65967 0.0
C876 C 0.57929 0.07147 0.67294 0.0
H877 H 0.36786 0.94875 0.64454 0.0
H878 H 0.42316 0.9837 0.63867 0.0
C879 C 0.61083 0.09082 0.67579 0.0
C880 C 0.53397 0.0212 0.65997 0.0
H881 H 0.47165 0.97716 0.61935 0.0
C882 C 0.51892 0.01394 0.68553 0.0
C883 C 0.51661 0.00821 0.63571 0.0
C884 C 0.53104 0.01633 0.60752 0.0
C885 C 0.48723 0.99401 0.6876 0.0
C886 C 0.47004 0.98007 0.6635 0.0
C887 C 0.4849 0.98757 0.63784 0.0
C888 C 0.43666 0.95764 0.66482 0.0
C889 C 0.47241 0.98859 0.71562 0.0
C890 C 0.4259 0.93094 0.6807 0.0
C891 C 0.3945 0.91125 0.68426 0.0
C892 C 0.37309 0.91752 0.67165 0.0
C893 C 0.38382 0.94337 0.65451 0.0
C894 C 0.41538 0.96332 0.65117 0.0
H895 H 0.48668 0.00742 0.7302 0.0
H896 H 0.44944 0.9865 0.71428 0.0
H897 H 0.46966 0.96699 0.72433 0.0
H898 H 0.44185 0.9256 0.69079 0.0
H899 H 0.38694 0.89112 0.69702 0.0
H900 H 0.40453 0.38677 0.00618 0.0
H901 H 0.43779 0.44165 1.00156 0.0
H902 H 0.51213 0.42795 0.97628 0.0
H903 H 0.47922 0.37255 0.98236 0.0
H904 H 0.53147 0.47294 0.01295 0.0
H905 H 0.46528 0.49351 0.9339 0.0
H906 H 0.44117 0.47372 0.96263 0.0
H907 H 0.45761 0.45545 0.94247 0.0
C908 C 0.42794 0.39517 0.9998 0.0
C909 C 0.43907 0.37494 0.99478 0.0
C910 C 0.44687 0.42674 0.99669 0.0
C911 C 0.4773 0.439 0.98793 0.0
C912 C 0.4886 0.419 0.98276 0.0
H913 H 0.57199 0.63788 0.95985 0.0
H914 H 0.55272 0.58346 0.95176 0.0
C915 C 0.46967 0.38728 0.98609 0.0
C916 C 0.49747 0.47281 0.9859 0.0
H917 H 0.4987 0.53726 0.96231 0.0
C918 C 0.52459 0.48699 1.00147 0.0
C919 C 0.48906 0.49127 0.97038 0.0
C920 C 0.46187 0.47763 0.95117 0.0
C921 C 0.54236 0.51907 1.00337 0.0
C922 C 0.53224 0.53745 0.99003 0.0
C923 C 0.50625 0.52329 0.97301 0.0
C924 C 0.54686 0.57105 0.99491 0.0
C925 C 0.57168 0.53281 0.01982 0.0
C926 C 0.55014 0.58239 0.02184 0.0
C927 C 0.56166 0.61361 0.0266 0.0
C928 C 0.56958 0.63434 1.00451 0.0
C929 C 0.56652 0.62293 0.97748 0.0
C930 C 0.55528 0.59166 0.97276 0.0
H931 H 0.58189 0.5177 0.01944 0.0
H932 H 0.58884 0.55574 0.01189 0.0
H933 H 0.56661 0.53519 0.04163 0.0
H934 H 0.54305 0.56698 0.0393 0.0
H935 H 0.56398 0.62128 0.0477 0.0
H936 H 0.54955 0.91584 0.38678 0.0
H937 H 0.52511 0.94692 0.3948 0.0
H938 H 0.53467 0.9707 0.30873 0.0
H939 H 0.55965 0.94059 0.30062 0.0
H940 H 0.54993 0.01683 0.3739 0.0
H941 H 0.43793 0.92502 0.33379 0.0
H942 H 0.46591 0.91698 0.34906 0.0
H943 H 0.47164 0.93233 0.31485 0.0
C944 C 0.54692 0.92808 0.36965 0.0
C945 C 0.55626 0.92534 0.34296 0.0
C946 C 0.53284 0.94571 0.37427 0.0
C947 C 0.52784 0.96077 0.35227 0.0
C948 C 0.53806 0.95896 0.3259 0.0
H949 H 0.44184 0.05969 0.30151 0.0
H950 H 0.46466 0.02751 0.30876 0.0
C951 C 0.55217 0.94155 0.32129 0.0
C952 C 0.51098 0.97761 0.35616 0.0
H953 H 0.44371 0.97441 0.3391 0.0
C954 C 0.52652 0.00749 0.36681 0.0
C955 C 0.48053 0.96527 0.34675 0.0
C956 C 0.4628 0.93306 0.3356 0.0
C957 C 0.51283 0.02597 0.36697 0.0
C958 C 0.48268 0.01398 0.35661 0.0
C959 C 0.46679 0.98361 0.34704 0.0
C960 C 0.46823 0.03329 0.353 0.0
C961 C 0.53133 0.05869 0.3768 0.0
C962 C 0.46215 0.04695 0.37553 0.0
C963 C 0.44924 0.06572 0.3714 0.0
C964 C 0.44213 0.07108 0.34466 0.0
C965 C 0.44756 0.05664 0.32231 0.0
C966 C 0.46041 0.03799 0.32644 0.0
H967 H 0.55601 0.06608 0.37912 0.0
H968 H 0.5291 0.07448 0.36226 0.0
H969 H 0.52258 0.06086 0.39715 0.0
H970 H 0.46746 0.0432 0.39628 0.0
H971 H 0.44547 0.0765 0.38907 0.0
H972 H 0.62198 0.50965 0.64724 0.0
H973 H 0.56649 0.48703 0.65083 0.0
H974 H 0.57889 0.56481 0.69832 0.0
H975 H 0.63477 0.58733 0.69521 0.0
H976 H 0.53164 0.5105 0.71827 0.0
H977 H 0.51971 0.5173 0.60547 0.0
H978 H 0.53807 0.49583 0.61448 0.0
H979 H 0.55642 0.53607 0.62251 0.0
C980 C 0.6129 0.52197 0.65841 0.0
C981 C 0.6327 0.55051 0.67056 0.0
C982 C 0.58117 0.50903 0.66044 0.0
C983 C 0.56849 0.52458 0.67422 0.0
C984 C 0.58817 0.5525 0.68739 0.0
H985 H 0.38296 0.48483 0.64263 0.0
H986 H 0.43836 0.50871 0.64825 0.0
C987 C 0.62004 0.56533 0.68565 0.0
C988 C 0.53478 0.51204 0.67401 0.0
H989 H 0.47365 0.48795 0.63064 0.0
C990 C 0.51893 0.50571 0.69913 0.0
C991 C 0.51825 0.50626 0.64904 0.0
C992 C 0.53401 0.51451 0.62137 0.0
C993 C 0.48692 0.49319 0.69993 0.0
C994 C 0.47028 0.48619 0.6749 0.0
C995 C 0.48628 0.49299 0.64985 0.0
C996 C 0.43639 0.47258 0.67387 0.0
C997 C 0.47141 0.48819 0.72753 0.0
C998 C 0.41663 0.44438 0.68662 0.0
C999 C 0.38478 0.43081 0.68361 0.0
C1000 C 0.3722 0.44487 0.66733 0.0
C1001 C 0.392 0.47323 0.65495 0.0
C1002 C 0.42368 0.48695 0.65825 0.0
H1003 H 0.48779 0.50278 0.74375 0.0
H1004 H 0.4523 0.49317 0.72661 0.0
H1005 H 0.46192 0.4639 0.73374 0.0
H1006 H 0.4258 0.43242 0.69821 0.0
H1007 H 0.37003 0.40882 0.69316 0.0
H1008 H 0.94288 0.3848 0.96274 0.0
H1009 H 0.97467 0.43968 0.97093 0.0
H1010 H 0.95337 0.42574 0.05749 0.0
H1011 H 0.92064 0.37058 0.04946 0.0
H1012 H 0.95122 0.47807 0.99914 0.0
H1013 H 0.05152 0.47906 0.04881 0.0
H1014 H 0.02599 0.44841 0.02612 0.0
H1015 H 0.01342 0.45129 0.05993 0.0
C1016 C 0.94469 0.39325 0.98354 0.0
C1017 C 0.92886 0.37311 0.00538 0.0
C1018 C 0.96305 0.42467 0.98818 0.0
C1019 C 0.96632 0.43669 0.01477 0.0
C1020 C 0.95123 0.41679 0.03682 0.0
H1021 H 0.05257 0.63656 0.04061 0.0
H1022 H 0.01883 0.58114 0.04726 0.0
C1023 C 0.93265 0.38524 0.03218 0.0
C1024 C 0.98492 0.47024 0.01893 0.0
H1025 H 0.05541 0.52683 0.03992 0.0
C1026 C 0.97381 0.48881 0.00844 0.0
C1027 C 0.01439 0.484 0.03091 0.0
C1028 C 0.02732 0.46484 0.04206 0.0
C1029 C 0.99181 0.52091 0.00895 0.0
C1030 C 0.02162 0.53471 0.02031 0.0
C1031 C 0.03244 0.51613 0.03143 0.0
C1032 C 0.04292 0.56817 0.01821 0.0
C1033 C 0.97943 0.53985 0.99619 0.0
C1034 C 0.06789 0.57912 1.00016 0.0
C1035 C 0.08703 0.61056 0.99631 0.0
C1036 C 0.08173 0.63178 0.01059 0.0
C1037 C 0.05725 0.62078 0.02938 0.0
C1038 C 0.0379 0.58919 0.03308 0.0
H1039 H 0.95746 0.5255 0.98516 0.0
H1040 H 0.97547 0.55285 0.01258 0.0
H1041 H 0.99631 0.55672 0.98149 0.0
H1042 H 0.07219 0.56326 0.98856 0.0
H1043 H 0.106 0.61827 0.9821 0.0
H1044 H 0.16124 0.29076 0.32161 0.0
H1045 H 0.18464 0.26053 0.33602 0.0
H1046 H 0.26955 0.32614 0.29758 0.0
H1047 H 0.24634 0.35641 0.28308 0.0
H1048 H 0.2546 0.26643 0.28729 0.0
H1049 H 0.24594 0.28445 0.39901 0.0
H1050 H 0.21009 0.2678 0.38089 0.0
H1051 H 0.23967 0.30616 0.37283 0.0
C1052 C 0.1849 0.29878 0.31627 0.0
C1053 C 0.20195 0.32615 0.30135 0.0
C1054 C 0.19827 0.2815 0.32456 0.0
C1055 C 0.22902 0.29139 0.31834 0.0
C1056 C 0.2458 0.31813 0.30269 0.0
H1057 H 0.35361 0.24275 0.39456 0.0
H1058 H 0.32427 0.26668 0.37932 0.0
C1059 C 0.23243 0.33535 0.29429 0.0
C1060 C 0.24395 0.27418 0.32839 0.0
H1061 H 0.26401 0.25073 0.3869 0.0
C1062 C 0.2566 0.26291 0.30906 0.0
C1063 C 0.2469 0.27 0.35683 0.0
C1064 C 0.23521 0.28296 0.37864 0.0
C1065 C 0.27209 0.24753 0.31737 0.0
C1066 C 0.27448 0.2428 0.34579 0.0
C1067 C 0.26187 0.25411 0.36512 0.0
C1068 C 0.29121 0.22742 0.35595 0.0
C1069 C 0.28653 0.23732 0.29567 0.0
C1070 C 0.28196 0.1971 0.34842 0.0
C1071 C 0.2987 0.18331 0.35715 0.0
C1072 C 0.32487 0.19946 0.3738 0.0
C1073 C 0.33344 0.22949 0.38202 0.0
C1074 C 0.31677 0.24329 0.3732 0.0
H1075 H 0.28921 0.24928 0.27576 0.0
H1076 H 0.30937 0.24153 0.30244 0.0
H1077 H 0.27167 0.21236 0.29205 0.0
H1078 H 0.26187 0.18415 0.33568 0.0
H1079 H 0.29116 0.16 0.35083 0.0
H1080 H 0.86941 0.1635 0.66382 0.0
H1081 H 0.92243 0.18587 0.67969 0.0
H1082 H 0.9467 0.26832 0.63404 0.0
H1083 H 0.89374 0.24666 0.61883 0.0
H1084 H 0.97714 0.20805 0.65008 0.0
H1085 H 0.97629 0.29995 0.71226 0.0
H1086 H 0.94166 0.26736 0.6995 0.0
H1087 H 0.96469 0.29917 0.67716 0.0
C1088 C 0.88596 0.18646 0.65728 0.0
C1089 C 0.87714 0.20333 0.6402 0.0
C1090 C 0.91629 0.19913 0.66625 0.0
C1091 C 0.93834 0.22895 0.65845 0.0
C1092 C 0.92989 0.24548 0.64074 0.0
H1093 H 0.13458 0.32236 0.65928 0.0
H1094 H 0.08012 0.29198 0.64891 0.0
C1095 C 0.89961 0.23287 0.63177 0.0
C1096 C 0.97023 0.2429 0.66877 0.0
H1097 H 0.02516 0.30477 0.70387 0.0
C1098 C 0.98761 0.22906 0.66203 0.0
C1099 C 0.98363 0.26998 0.68482 0.0
C1100 C 0.96554 0.28485 0.69413 0.0
C1101 C 0.01845 0.24226 0.67001 0.0
C1102 C 0.03232 0.27027 0.68472 0.0
C1103 C 0.01458 0.28345 0.69237 0.0
C1104 C 0.06549 0.28702 0.69141 0.0
C1105 C 0.03584 0.22606 0.66263 0.0
C1106 C 0.07545 0.29483 0.71876 0.0
C1107 C 0.10673 0.31235 0.7248 0.0
C1108 C 0.12863 0.32248 0.70357 0.0
C1109 C 0.1185 0.3144 0.67622 0.0
C1110 C 0.08729 0.29697 0.67022 0.0
H1111 H 0.02012 0.20116 0.65926 0.0
H1112 H 0.04867 0.23585 0.64322 0.0
H1113 H 0.05251 0.22901 0.67899 0.0
H1114 H 0.05899 0.28753 0.73542 0.0
H1115 H 0.11377 0.31803 0.74605 0.0
H1116 H 0.80172 0.13743 0.99251 0.0
H1117 H 0.77791 0.08332 0.98055 0.0
H1118 H 0.75286 0.05885 0.06557 0.0
H1119 H 0.77656 0.1133 0.07769 0.0
H1120 H 0.78913 0.03834 0.99727 0.0
H1121 H 0.67125 0.00984 0.02644 0.0
H1122 H 0.70239 0.0488 0.02379 0.0
H1123 H 0.69873 0.02631 0.05382 0.0
C1124 C 0.79151 0.12063 0.00878 0.0
C1125 C 0.79104 0.12969 0.0361 0.0
C1126 C 0.77775 0.08965 1.00186 0.0
C1127 C 0.7632 0.06702 0.02207 0.0
C1128 C 0.76334 0.07592 0.04952 0.0
H1129 H 0.70428 0.87378 0.99661 0.0
H1130 H 0.73179 0.92743 0.01061 0.0
C1131 C 0.77695 0.107 0.05645 0.0
C1132 C 0.74769 0.03419 0.01411 0.0
H1133 H 0.67809 0.96852 0.01293 0.0
C1134 C 0.76486 0.02304 1.00071 0.0
C1135 C 0.71592 0.01441 0.01825 0.0
C1136 C 0.69588 0.02544 0.03111 0.0
C1137 C 0.75114 0.99262 0.99136 0.0
C1138 C 0.71952 0.97265 0.99608 0.0
C1139 C 0.70237 0.98382 0.00947 0.0
C1140 C 0.70353 0.94022 0.98688 0.0
C1141 C 0.77048 0.98245 0.97586 0.0
C1142 C 0.67815 0.92937 0.96923 0.0
C1143 C 0.66196 0.89851 0.96156 0.0
C1144 C 0.67075 0.87775 0.97144 0.0
C1145 C 0.69656 0.88888 0.98879 0.0
C1146 C 0.71262 0.91972 0.99658 0.0
H1147 H 0.79154 0.00226 0.96737 0.0
H1148 H 0.77764 0.96996 0.99012 0.0
H1149 H 0.7574 0.96682 0.95866 0.0
H1150 H 0.67065 0.94477 0.96159 0.0
H1151 H 0.64205 0.89088 0.94852 0.0
H1152 H 0.83327 0.7009 0.3238 0.0
H1153 H 0.8097 0.73114 0.33771 0.0
H1154 H 0.72711 0.66856 0.29426 0.0
H1155 H 0.75043 0.63825 0.28031 0.0
H1156 H 0.74419 0.72953 0.28582 0.0
H1157 H 0.74393 0.70437 0.39727 0.0
H1158 H 0.78089 0.72134 0.38112 0.0
H1159 H 0.75142 0.68372 0.37089 0.0
C1160 C 0.81007 0.69354 0.31725 0.0
C1161 C 0.79369 0.66699 0.30109 0.0
C1162 C 0.79663 0.71083 0.32524 0.0
C1163 C 0.76645 0.70179 0.31743 0.0
C1164 C 0.7504 0.67591 0.30058 0.0
H1165 H 0.63592 0.74536 0.38728 0.0
H1166 H 0.66679 0.7228 0.37301 0.0
C1167 C 0.76385 0.65867 0.2925 0.0
C1168 C 0.75128 0.71886 0.32714 0.0
H1169 H 0.72666 0.73864 0.38505 0.0
C1170 C 0.74045 0.73165 0.30751 0.0
C1171 C 0.74611 0.72125 0.35546 0.0
C1172 C 0.75592 0.70673 0.37744 0.0
C1173 C 0.7245 0.74669 0.31541 0.0
C1174 C 0.7197 0.74943 0.34374 0.0
C1175 C 0.73062 0.73674 0.36337 0.0
C1176 C 0.70198 0.76396 0.35338 0.0
C1177 C 0.71208 0.75862 0.29332 0.0
C1178 C 0.71185 0.79482 0.34764 0.0
C1179 C 0.69424 0.80786 0.35585 0.0
C1180 C 0.66653 0.79033 0.37016 0.0
C1181 C 0.65724 0.75966 0.37659 0.0
C1182 C 0.6748 0.74665 0.36831 0.0
H1183 H 0.71142 0.7484 0.27287 0.0
H1184 H 0.68861 0.75375 0.29853 0.0
H1185 H 0.72705 0.78383 0.2916 0.0
H1186 H 0.73312 0.80881 0.3367 0.0
H1187 H 0.70234 0.83166 0.35099 0.0
H1188 H 0.13633 0.80451 0.68742 0.0
H1189 H 0.08243 0.78181 0.69974 0.0
H1190 H 0.05685 0.75765 0.61476 0.0
H1191 H 0.11099 0.78056 0.60215 0.0
H1192 H 0.0367 0.79405 0.68186 0.0
H1193 H 0.00904 0.67555 0.65546 0.0
H1194 H 0.04791 0.70681 0.65863 0.0
H1195 H 0.02612 0.70293 0.62807 0.0
C1196 C 0.11939 0.79485 0.6712 0.0
C1197 C 0.12806 0.79431 0.64374 0.0
C1198 C 0.08851 0.78172 0.67835 0.0
C1199 C 0.06564 0.76766 0.65825 0.0
C1200 C 0.07415 0.76785 0.63069 0.0
H1201 H 0.87142 0.70548 0.68006 0.0
H1202 H 0.92534 0.73358 0.66656 0.0
C1203 C 0.10507 0.78095 0.62351 0.0
C1204 C 0.03292 0.75222 0.6664 0.0
H1205 H 0.96772 0.68228 0.66896 0.0
C1206 C 0.02156 0.76963 0.67901 0.0
C1207 C 0.01339 0.72028 0.663 0.0
C1208 C 0.0247 0.70017 0.65078 0.0
C1209 C 0.99108 0.75596 0.68816 0.0
C1210 C 0.97142 0.72412 0.68428 0.0
C1211 C 0.98283 0.70672 0.67178 0.0
C1212 C 0.939 0.70819 0.69338 0.0
C1213 C 0.98039 0.77555 0.70245 0.0
C1214 C 0.9287 0.68439 0.71273 0.0
C1215 C 0.89782 0.66806 0.72028 0.0
C1216 C 0.87654 0.67507 0.70847 0.0
C1217 C 0.88709 0.69928 0.68938 0.0
C1218 C 0.91798 0.7156 0.68184 0.0
H1219 H 0.99994 0.79753 0.70983 0.0
H1220 H 0.96688 0.78097 0.68777 0.0
H1221 H 0.96546 0.76324 0.72027 0.0
H1222 H 0.94453 0.6782 0.72176 0.0
H1223 H 0.89053 0.64933 0.73472 0.0
H1224 H 0.36056 0.1134 0.95382 0.0
H1225 H 0.33194 0.05975 0.96802 0.0
H1226 H 0.27455 0.07961 0.01986 0.0
H1227 H 0.30226 0.13305 0.00502 0.0
H1228 H 0.32518 0.03617 0.02076 0.0
H1229 H 0.21223 0.00565 0.97545 0.0
H1230 H 0.24712 0.04007 0.96611 0.0
H1231 H 0.22792 0.03845 0.99779 0.0
C1232 C 0.34154 0.10633 0.96786 0.0
C1233 C 0.3337 0.12764 0.97816 0.0
C1234 C 0.32535 0.07568 0.97614 0.0
C1235 C 0.30091 0.06563 0.99475 0.0
C1236 C 0.29301 0.08676 0.00513 0.0
H1237 H 0.22225 0.89205 0.08487 0.0
H1238 H 0.24714 0.94656 0.07286 0.0
C1239 C 0.30915 0.11742 0.99684 0.0
C1240 C 0.28428 0.03321 1.00384 0.0
H1241 H 0.21386 0.9685 1.0043 0.0
C1242 C 0.30084 0.02134 0.01719 0.0
C1243 C 0.25258 0.0139 0.99892 0.0
C1244 C 0.23391 0.025 0.98357 0.0
C1245 C 0.28655 0.99066 0.0258 0.0
C1246 C 0.25473 0.9715 0.02135 0.0
C1247 C 0.23818 0.98335 0.00795 0.0
C1248 C 0.23853 0.93865 0.02911 0.0
C1249 C 0.30581 0.97881 0.03888 0.0
C1250 C 0.22464 0.91618 0.00865 0.0
C1251 C 0.21034 0.88514 0.01545 0.0
C1252 C 0.20951 0.87587 0.04294 0.0
C1253 C 0.22286 0.89845 0.06351 0.0
C1254 C 0.23711 0.92957 0.05667 0.0
H1255 H 0.33064 0.99421 0.03492 0.0
H1256 H 0.3022 0.97726 0.0615 0.0
H1257 H 0.29912 0.95556 0.03107 0.0
H1258 H 0.22548 0.9227 0.98725 0.0
H1259 H 0.20077 0.86848 0.999 0.0
H1260 H 0.48995 0.72531 0.2937 0.0
H1261 H 0.44307 0.6749 0.29258 0.0
H1262 H 0.44099 0.6732 0.38139 0.0
H1263 H 0.48741 0.72341 0.38264 0.0
H1264 H 0.4296 0.61823 0.31516 0.0
H1265 H 0.35679 0.66044 0.36135 0.0
H1266 H 0.39465 0.68595 0.34811 0.0
H1267 H 0.3899 0.66894 0.38163 0.0
C1268 C 0.47952 0.71404 0.31293 0.0
C1269 C 0.49197 0.72844 0.33824 0.0
C1270 C 0.45279 0.68535 0.31228 0.0
C1271 C 0.43825 0.67071 0.33691 0.0
C1272 C 0.45139 0.68451 0.36216 0.0
H1273 H 0.27154 0.50169 0.37805 0.0
H1274 H 0.32214 0.54825 0.37938 0.0
C1275 C 0.47789 0.71317 0.36283 0.0
C1276 C 0.40916 0.64112 0.33638 0.0
H1277 H 0.3345 0.60651 0.3571 0.0
C1278 C 0.40876 0.61565 0.32421 0.0
C1279 C 0.38204 0.6379 0.34822 0.0
C1280 C 0.38068 0.66481 0.36034 0.0
C1281 C 0.38198 0.58684 0.32397 0.0
C1282 C 0.35499 0.58363 0.336 0.0
C1283 C 0.35539 0.60907 0.34815 0.0
C1284 C 0.32562 0.5544 0.33516 0.0
C1285 C 0.38282 0.55996 0.3112 0.0
C1286 C 0.311 0.54264 0.30988 0.0
C1287 C 0.28223 0.51625 0.30909 0.0
C1288 C 0.26751 0.5012 0.33358 0.0
C1289 C 0.28245 0.51272 0.35887 0.0
C1290 C 0.31123 0.53929 0.35966 0.0
H1291 H 0.40665 0.5644 0.30894 0.0
H1292 H 0.36954 0.53894 0.32376 0.0
H1293 H 0.3723 0.55555 0.29041 0.0
H1294 H 0.32156 0.55425 0.2908 0.0
H1295 H 0.27142 0.50769 0.28927 0.0
H1296 H 0.77529 0.4981 0.63397 0.0
H1297 H 0.77998 0.45185 0.63388 0.0
H1298 H 0.77897 0.45105 0.72271 0.0
H1299 H 0.77406 0.49694 0.72294 0.0
H1300 H 0.82344 0.43899 0.65785 0.0
H1301 H 0.70745 0.36657 0.70247 0.0
H1302 H 0.72004 0.4043 0.68872 0.0
H1303 H 0.73205 0.39994 0.72248 0.0
C1304 C 0.77635 0.48816 0.65344 0.0
C1305 C 0.77383 0.50076 0.67845 0.0
C1306 C 0.77897 0.46179 0.65337 0.0
C1307 C 0.77917 0.44775 0.67829 0.0
C1308 C 0.77807 0.46112 0.70327 0.0
H1309 H 0.77463 0.27629 0.71599 0.0
H1310 H 0.7809 0.32776 0.71926 0.0
C1311 C 0.77527 0.4873 0.70336 0.0
C1312 C 0.77966 0.41865 0.67822 0.0
H1313 H 0.73817 0.34355 0.69741 0.0
C1314 C 0.80482 0.41809 0.66647 0.0
C1315 C 0.7553 0.39149 0.68952 0.0
C1316 C 0.72704 0.3904 0.7013 0.0
C1317 C 0.80636 0.39103 0.6659 0.0
C1318 C 0.78193 0.36389 0.67708 0.0
C1319 C 0.75695 0.36452 0.68906 0.0
C1320 C 0.78086 0.33409 0.67518 0.0
C1321 C 0.83415 0.3917 0.65354 0.0
C1322 C 0.77875 0.32077 0.64934 0.0
C1323 C 0.77513 0.29151 0.64743 0.0
C1324 C 0.7734 0.27498 0.67135 0.0
C1325 C 0.7761 0.28861 0.69724 0.0
C1326 C 0.77959 0.31789 0.69913 0.0
H1327 H 0.85406 0.41538 0.65268 0.0
H1328 H 0.84074 0.37708 0.6655 0.0
H1329 H 0.82876 0.38269 0.63218 0.0
H1330 H 0.77916 0.33271 0.63065 0.0
H1331 H 0.77348 0.28173 0.6272 0.0
H1332 H 0.48848 0.75599 0.96503 0.0
H1333 H 0.44312 0.76136 0.96703 0.0
H1334 H 0.46043 0.78583 0.05296 0.0
H1335 H 0.50534 0.77907 0.05148 0.0
H1336 H 0.40132 0.74349 0.04364 0.0
H1337 H 0.43699 0.83814 0.96896 0.0
H1338 H 0.43972 0.80682 0.95452 0.0
H1339 H 0.46355 0.82768 0.98336 0.0
C1340 C 0.48257 0.76226 0.98446 0.0
C1341 C 0.50044 0.76685 0.00818 0.0
C1342 C 0.45689 0.76586 0.98543 0.0
C1343 C 0.44876 0.77462 0.00998 0.0
C1344 C 0.46653 0.77936 0.03371 0.0
H1345 H 0.29875 0.81524 0.01436 0.0
H1346 H 0.34962 0.82004 0.01579 0.0
C1347 C 0.49223 0.77562 0.03281 0.0
C1348 C 0.42057 0.77687 0.01108 0.0
H1349 H 0.38286 0.80833 0.97829 0.0
C1350 C 0.39743 0.75797 0.0296 0.0
C1351 C 0.41571 0.79614 0.99307 0.0
C1352 C 0.44047 0.81858 0.97407 0.0
C1353 C 0.36904 0.75679 0.02977 0.0
C1354 C 0.36342 0.77442 0.0104 0.0
C1355 C 0.38703 0.7944 0.99276 0.0
C1356 C 0.33299 0.77196 0.00788 0.0
C1357 C 0.34535 0.73665 0.0507 0.0
C1358 C 0.307 0.74358 1.00199 0.0
C1359 C 0.27803 0.74079 1.00123 0.0
C1360 C 0.27458 0.76643 0.00593 0.0
C1361 C 0.30079 0.79515 0.01048 0.0
C1362 C 0.32979 0.79788 0.01146 0.0
H1363 H 0.35613 0.73241 0.06889 0.0
H1364 H 0.33167 0.74707 0.05787 0.0
H1365 H 0.32954 0.71414 0.04117 0.0
H1366 H 0.30909 0.72348 0.99835 0.0
H1367 H 0.25824 0.71848 0.99727 0.0
H1368 H 0.50112 0.27534 0.38398 0.0
H1369 H 0.54743 0.32555 0.38104 0.0
H1370 H 0.5468 0.31721 0.29257 0.0
H1371 H 0.50004 0.26692 0.29541 0.0
H1372 H 0.60208 0.33564 0.36075 0.0
H1373 H 0.56219 0.40406 0.30247 0.0
H1374 H 0.53604 0.36773 0.3182 0.0
H1375 H 0.5541 0.3689 0.28594 0.0
C1376 C 0.51073 0.28434 0.36388 0.0
C1377 C 0.49718 0.26721 0.33992 0.0
C1378 C 0.53709 0.31303 0.36223 0.0
C1379 C 0.55042 0.3252 0.3366 0.0
C1380 C 0.53653 0.30851 0.31252 0.0
H1381 H 0.72444 0.47934 0.2883 0.0
H1382 H 0.67384 0.43325 0.29015 0.0
C1383 C 0.50993 0.27979 0.31415 0.0
C1384 C 0.58009 0.35422 0.33547 0.0
H1385 H 0.616 0.42688 0.30937 0.0
C1386 C 0.60507 0.35566 0.34967 0.0
C1387 C 0.58391 0.38022 0.32091 0.0
C1388 C 0.55759 0.38037 0.30621 0.0
C1389 C 0.63389 0.38229 0.34944 0.0
C1390 C 0.63772 0.40825 0.33487 0.0
C1391 C 0.61285 0.40687 0.32058 0.0
C1392 C 0.66768 0.43681 0.3338 0.0
C1393 C 0.66021 0.38229 0.36431 0.0
C1394 C 0.68067 0.4542 0.3577 0.0
C1395 C 0.70963 0.48047 0.35675 0.0
C1396 C 0.72603 0.48967 0.33187 0.0
C1397 C 0.71259 0.47249 0.30787 0.0
C1398 C 0.68362 0.44634 0.30882 0.0
H1399 H 0.65503 0.35873 0.3697 0.0
H1400 H 0.68129 0.3933 0.35152 0.0
H1401 H 0.66499 0.39563 0.38367 0.0
H1402 H 0.66848 0.4473 0.37711 0.0
H1403 H 0.71943 0.49323 0.37556 0.0
H1404 H 0.28584 0.74173 0.68217 0.0
H1405 H 0.28034 0.69072 0.68246 0.0
H1406 H 0.182 0.64975 0.68055 0.0
H1407 H 0.18732 0.70083 0.67931 0.0
H1408 H 0.25009 0.64182 0.71895 0.0
H1409 H 0.19992 0.6114 0.61366 0.0
H1410 H 0.2181 0.6501 0.62675 0.0
H1411 H 0.18008 0.62248 0.63768 0.0
C1412 C 0.26303 0.72187 0.68175 0.0
C1413 C 0.23702 0.7253 0.6804 0.0
C1414 C 0.25993 0.69276 0.68207 0.0
C1415 C 0.2308 0.66652 0.68102 0.0
C1416 C 0.2047 0.66976 0.68084 0.0
H1417 H 0.18807 0.47521 0.67214 0.0
H1418 H 0.18308 0.52116 0.6746 0.0
C1419 C 0.20778 0.69894 0.68048 0.0
C1420 C 0.22812 0.63593 0.67958 0.0
H1421 H 0.20684 0.57435 0.63721 0.0
C1422 C 0.24046 0.62698 0.70116 0.0
C1423 C 0.2155 0.61664 0.65633 0.0
C1424 C 0.20284 0.62562 0.63215 0.0
C1425 C 0.24097 0.59943 0.69995 0.0
C1426 C 0.22916 0.5806 0.67638 0.0
C1427 C 0.21591 0.58899 0.65518 0.0
C1428 C 0.23185 0.5529 0.67291 0.0
C1429 C 0.25432 0.59074 0.72379 0.0
C1430 C 0.26085 0.55572 0.67022 0.0
C1431 C 0.26378 0.52965 0.66856 0.0
C1432 C 0.23772 0.50025 0.66954 0.0
C1433 C 0.20856 0.49753 0.6711 0.0
C1434 C 0.20566 0.5237 0.6727 0.0
H1435 H 0.25539 0.60348 0.74283 0.0
H1436 H 0.24064 0.56577 0.72804 0.0
H1437 H 0.27798 0.59629 0.71854 0.0
H1438 H 0.28128 0.57815 0.66979 0.0
H1439 H 0.2865 0.53252 0.66684 0.0
H1440 H 0.53964 0.30147 0.99363 0.0
H1441 H 0.58652 0.29816 0.99187 0.0
H1442 H 0.53213 0.19965 0.98577 0.0
H1443 H 0.48534 0.20286 0.98841 0.0
H1444 H 0.57603 0.21508 0.02185 0.0
H1445 H 0.62663 0.2831 0.92734 0.0
H1446 H 0.61908 0.30437 0.95269 0.0
H1447 H 0.58773 0.27044 0.93773 0.0
C1448 C 0.5378 0.27918 0.99178 0.0
C1449 C 0.50896 0.25243 0.99126 0.0
C1450 C 0.56454 0.2773 0.99055 0.0
C1451 C 0.56286 0.24869 0.98812 0.0
C1452 C 0.53401 0.22197 0.98755 0.0
H1453 H 0.72577 0.2334 0.95447 0.0
H1454 H 0.67574 0.23016 0.95055 0.0
C1455 C 0.50731 0.22381 0.98917 0.0
C1456 C 0.59111 0.24642 0.98756 0.0
H1457 H 0.66035 0.27402 0.95568 0.0
C1458 C 0.59432 0.22774 0.00719 0.0
C1459 C 0.61474 0.26241 0.96807 0.0
C1460 C 0.61176 0.28093 0.94509 0.0
C1461 C 0.62089 0.22543 0.00848 0.0
C1462 C 0.64535 0.24305 0.99021 0.0
C1463 C 0.64174 0.26086 0.96993 0.0
C1464 C 0.67527 0.24427 0.99257 0.0
C1465 C 0.62232 0.20394 0.02932 0.0
C1466 C 0.6917 0.25355 0.01737 0.0
C1467 C 0.71993 0.25494 0.01981 0.0
C1468 C 0.73276 0.24771 0.99729 0.0
C1469 C 0.71641 0.23876 0.97231 0.0
C1470 C 0.68793 0.23711 0.96997 0.0
H1471 H 0.59904 0.1851 0.03476 0.0
H1472 H 0.63595 0.19371 0.02153 0.0
H1473 H 0.63321 0.21682 0.04848 0.0
H1474 H 0.68273 0.25988 0.03489 0.0
H1475 H 0.73155 0.26145 0.0395 0.0
loop_
_geom_bond_atom_site_label_1
_geom_bond_atom_site_label_2
_geom_bond_distance
_geom_bond_site_symmetry_2
_ccdc_geom_bond_type
C0 C1 1.351 . S
C0 N3 1.368 . S
C0 H5 0.931 . S
C1 C0 1.351 . S
C1 N2 1.373 . S
C1 H29 0.930 . S
N2 C1 1.373 . S
N2 C4 1.340 . S
N3 C0 1.368 . S
N3 C4 1.321 . S
N3 Co6 2.135 . S
C4 N2 1.340 . S
C4 N3 1.321 . S
C4 H28 0.930 . S
H5 C0 0.931 . S
Co6 N3 2.135 . S
Co6 N9 2.121 . S
Co6 O14 2.055 . S
Co6 O17 2.039 . S
Co6 N20 2.140 . S
C7 O8 1.227 . S
C7 O17 1.265 . S
O8 C7 1.227 . S
N9 Co6 2.121 . S
N9 C11 1.375 . S
N9 C12 1.313 . S
C10 C11 1.338 . S
C10 N13 1.377 . S
C10 H30 0.930 . S
C11 N9 1.375 . S
C11 C10 1.338 . S
C11 H15 0.931 . S
C12 N9 1.313 . S
C12 N13 1.344 . S
C12 H16 0.930 . S
N13 C10 1.377 . S
N13 C12 1.344 . S
O14 Co6 2.055 . S
O14 C18 1.253 . S
H15 C11 0.931 . S
H16 C12 0.930 . S
O17 Co6 2.039 . S
O17 C7 1.265 . S
C18 O14 1.253 . S
C18 O19 1.227 . S
O19 C18 1.227 . S
N20 Co6 2.140 . S
N20 C23 1.346 . S
N20 C24 1.345 . S
C21 C22 1.387 . S
C21 C25 1.391 . S
C22 C21 1.387 . S
C22 C23 1.369 . S
C22 H31 0.929 . S
C23 N20 1.346 . S
C23 C22 1.369 . S
C23 H26 0.928 . S
C24 N20 1.345 . S
C24 C25 1.371 . S
C24 H27 0.931 . S
C25 C21 1.391 . S
C25 C24 1.371 . S
C25 H32 0.930 . S
H26 C23 0.928 . S
H27 C24 0.931 . S
H28 C4 0.930 . S
H29 C1 0.930 . S
H30 C10 0.930 . S
H31 C22 0.929 . S
H32 C25 0.930 . S
C33 C34 1.351 . S
C33 N36 1.368 . S
C33 H38 0.931 . S
C34 C33 1.351 . S
C34 N35 1.373 . S
C34 H62 0.930 . S
N35 C34 1.373 . S
N35 C37 1.340 . S
N36 C33 1.368 . S
N36 C37 1.321 . S
N36 Co39 2.135 . S
C37 N35 1.340 . S
C37 N36 1.321 . S
C37 H61 0.930 . S
H38 C33 0.931 . S
Co39 N36 2.135 . S
Co39 N42 2.121 . S
Co39 O47 2.055 . S
Co39 O50 2.039 . S
Co39 N53 2.140 . S
C40 O41 1.227 . S
C40 O50 1.265 . S
O41 C40 1.227 . S
N42 Co39 2.121 . S
N42 C44 1.375 . S
N42 C45 1.313 . S
C43 C44 1.338 . S
C43 N46 1.377 . S
C43 H63 0.930 . S
C44 N42 1.375 . S
C44 C43 1.338 . S
C44 H48 0.931 . S
C45 N42 1.313 . S
C45 N46 1.344 . S
C45 H49 0.930 . S
N46 C43 1.377 . S
N46 C45 1.344 . S
O47 Co39 2.055 . S
O47 C51 1.253 . S
H48 C44 0.931 . S
H49 C45 0.930 . S
O50 Co39 2.039 . S
O50 C40 1.265 . S
C51 O47 1.253 . S
C51 O52 1.227 . S
O52 C51 1.227 . S
N53 Co39 2.140 . S
N53 C56 1.346 . S
N53 C57 1.345 . S
C54 C55 1.387 . S
C54 C58 1.391 . S
C55 C54 1.387 . S
C55 C56 1.369 . S
C55 H64 0.929 . S
C56 N53 1.346 . S
C56 C55 1.369 . S
C56 H59 0.928 . S
C57 N53 1.345 . S
C57 C58 1.371 . S
C57 H60 0.931 . S
C58 C54 1.391 . S
C58 C57 1.371 . S
C58 H65 0.930 . S
H59 C56 0.928 . S
H60 C57 0.931 . S
H61 C37 0.930 . S
H62 C34 0.930 . S
H63 C43 0.930 . S
H64 C55 0.929 . S
H65 C58 0.930 . S
C66 C67 1.351 . S
C66 N69 1.368 . S
C66 H71 0.931 . S
C67 C66 1.351 . S
C67 N68 1.373 . S
C67 H95 0.930 . S
N68 C67 1.373 . S
N68 C70 1.340 1_556 S
N69 C66 1.368 . S
N69 C70 1.321 1_556 S
N69 Co72 2.135 1_556 S
C70 N68 1.340 1_554 S
C70 N69 1.321 1_554 S
C70 H94 0.930 . S
H71 C66 0.931 . S
Co72 N69 2.135 1_554 S
Co72 N75 2.121 . S
Co72 O80 2.055 1_554 S
Co72 O83 2.039 . S
Co72 N86 2.140 1_554 S
C73 O74 1.227 . S
C73 O83 1.265 . S
O74 C73 1.227 . S
N75 Co72 2.121 . S
N75 C77 1.375 . S
N75 C78 1.309 1_554 S
C76 C77 1.338 . S
C76 N79 1.377 . S
C76 H96 0.930 . S
C77 N75 1.375 . S
C77 C76 1.338 . S
C77 H81 0.931 . S
C78 N75 1.309 1_556 S
C78 N79 1.340 1_556 S
C78 H82 0.938 . S
N79 C76 1.377 . S
N79 C78 1.340 1_554 S
O80 Co72 2.055 1_556 S
O80 C84 1.253 . S
H81 C77 0.931 . S
H82 C78 0.938 . S
O83 Co72 2.039 . S
O83 C73 1.265 . S
C84 O80 1.253 . S
C84 O85 1.227 . S
O85 C84 1.227 . S
N86 Co72 2.140 1_556 S
N86 C89 1.346 1_556 S
N86 C90 1.345 . S
C87 C88 1.387 . S
C87 C91 1.391 . S
C88 C87 1.387 . S
C88 C89 1.369 1_556 S
C88 H97 0.929 1_556 S
C89 N86 1.346 1_554 S
C89 C88 1.369 1_554 S
C89 H92 0.928 . S
C90 N86 1.345 . S
C90 C91 1.371 . S
C90 H93 0.931 . S
C91 C87 1.391 . S
C91 C90 1.371 . S
C91 H98 0.930 . S
H92 C89 0.928 . S
H93 C90 0.931 . S
H94 C70 0.930 . S
H95 C67 0.930 . S
H96 C76 0.930 . S
H97 C88 0.929 1_554 S
H98 C91 0.930 . S
C99 C100 1.351 . S
C99 N102 1.368 . S
C99 H104 0.931 . S
C100 C99 1.351 . S
C100 N101 1.373 . S
C100 H128 0.930 . S
N101 C100 1.373 . S
N101 C103 1.340 . S
N102 C99 1.368 . S
N102 C103 1.321 . S
N102 Co105 2.135 . S
C103 N101 1.340 . S
C103 N102 1.321 . S
C103 H127 0.930 . S
H104 C99 0.931 . S
Co105 N102 2.135 . S
Co105 N108 2.121 . S
Co105 O113 2.055 . S
Co105 O116 2.039 . S
Co105 N119 2.140 . S
C106 O107 1.227 . S
C106 O116 1.265 . S
O107 C106 1.227 . S
N108 Co105 2.121 . S
N108 C110 1.375 . S
N108 C111 1.313 . S
C109 C110 1.338 . S
C109 N112 1.377 . S
C109 H129 0.930 . S
C110 N108 1.375 . S
C110 C109 1.338 . S
C110 H114 0.931 . S
C111 N108 1.313 . S
C111 N112 1.344 . S
C111 H115 0.930 . S
N112 C109 1.377 . S
N112 C111 1.344 . S
O113 Co105 2.055 . S
O113 C117 1.253 . S
H114 C110 0.931 . S
H115 C111 0.930 . S
O116 Co105 2.039 . S
O116 C106 1.265 . S
C117 O113 1.253 . S
C117 O118 1.227 . S
O118 C117 1.227 . S
N119 Co105 2.140 . S
N119 C122 1.346 . S
N119 C123 1.345 . S
C120 C121 1.387 . S
C120 C124 1.391 . S
C121 C120 1.387 . S
C121 C122 1.369 . S
C121 H130 0.929 . S
C122 N119 1.346 . S
C122 C121 1.369 . S
C122 H125 0.928 . S
C123 N119 1.345 . S
C123 C124 1.371 . S
C123 H126 0.931 . S
C124 C120 1.391 . S
C124 C123 1.371 . S
C124 H131 0.930 . S
H125 C122 0.928 . S
H126 C123 0.931 . S
H127 C103 0.930 . S
H128 C100 0.930 . S
H129 C109 0.930 . S
H130 C121 0.929 . S
H131 C124 0.930 . S
C132 C133 1.351 . S
C132 N135 1.368 . S
C132 H137 0.931 . S
C133 C132 1.351 . S
C133 N134 1.373 . S
C133 H161 0.930 . S
N134 C133 1.373 . S
N134 C136 1.340 . S
N135 C132 1.368 . S
N135 C136 1.321 . S
N135 Co138 2.135 . S
C136 N134 1.340 . S
C136 N135 1.321 . S
C136 H160 0.930 . S
H137 C132 0.931 . S
Co138 N135 2.135 . S
Co138 N141 2.121 . S
Co138 O146 2.055 . S
Co138 O149 2.039 . S
Co138 N152 2.140 . S
C139 O140 1.227 . S
C139 O149 1.265 . S
O140 C139 1.227 . S
N141 Co138 2.121 . S
N141 C143 1.375 . S
N141 C144 1.313 . S
C142 C143 1.338 . S
C142 N145 1.377 . S
C142 H162 0.930 . S
C143 N141 1.375 . S
C143 C142 1.338 . S
C143 H147 0.931 . S
C144 N141 1.313 . S
C144 N145 1.344 . S
C144 H148 0.930 . S
N145 C142 1.377 . S
N145 C144 1.344 . S
O146 Co138 2.055 . S
O146 C150 1.253 . S
H147 C143 0.931 . S
H148 C144 0.930 . S
O149 Co138 2.039 . S
O149 C139 1.265 . S
C150 O146 1.253 . S
C150 O151 1.227 . S
O151 C150 1.227 . S
N152 Co138 2.140 . S
N152 C155 1.346 . S
N152 C156 1.345 . S
C153 C154 1.387 . S
C153 C157 1.391 . S
C154 C153 1.387 . S
C154 C155 1.369 . S
C154 H163 0.929 . S
C155 N152 1.346 . S
C155 C154 1.369 . S
C155 H158 0.928 . S
C156 N152 1.345 . S
C156 C157 1.371 . S
C156 H159 0.931 . S
C157 C153 1.391 . S
C157 C156 1.371 . S
C157 H164 0.930 . S
H158 C155 0.928 . S
H159 C156 0.931 . S
H160 C136 0.930 . S
H161 C133 0.930 . S
H162 C142 0.930 . S
H163 C154 0.929 . S
H164 C157 0.930 . S
C165 C166 1.351 . S
C165 N168 1.368 . S
C165 H170 0.931 . S
C166 C165 1.351 . S
C166 N167 1.373 . S
C166 H194 0.930 . S
N167 C166 1.373 . S
N167 C169 1.340 1_556 S
N168 C165 1.368 . S
N168 C169 1.321 1_556 S
N168 Co171 2.135 1_556 S
C169 N167 1.340 1_554 S
C169 N168 1.321 1_554 S
C169 H193 0.930 . S
H170 C165 0.931 . S
Co171 N168 2.135 1_554 S
Co171 N174 2.121 . S
Co171 O179 2.055 1_554 S
Co171 O182 2.039 . S
Co171 N185 2.140 1_554 S
C172 O173 1.227 . S
C172 O182 1.265 . S
O173 C172 1.227 . S
N174 Co171 2.121 . S
N174 C176 1.375 . S
N174 C177 1.309 1_554 S
C175 C176 1.338 . S
C175 N178 1.377 . S
C175 H195 0.930 . S
C176 N174 1.375 . S
C176 C175 1.338 . S
C176 H180 0.931 . S
C177 N174 1.309 1_556 S
C177 N178 1.340 1_556 S
C177 H181 0.938 . S
N178 C175 1.377 . S
N178 C177 1.340 1_554 S
O179 Co171 2.055 1_556 S
O179 C183 1.253 . S
H180 C176 0.931 . S
H181 C177 0.938 . S
O182 Co171 2.039 . S
O182 C172 1.265 . S
C183 O179 1.253 . S
C183 O184 1.227 . S
O184 C183 1.227 . S
N185 Co171 2.140 1_556 S
N185 C188 1.346 1_556 S
N185 C189 1.345 . S
C186 C187 1.387 . S
C186 C190 1.391 . S
C187 C186 1.387 . S
C187 C188 1.369 1_556 S
C187 H196 0.929 1_556 S
C188 N185 1.346 1_554 S
C188 C187 1.369 1_554 S
C188 H191 0.928 . S
C189 N185 1.345 . S
C189 C190 1.371 . S
C189 H192 0.931 . S
C190 C186 1.391 . S
C190 C189 1.371 . S
C190 H197 0.930 . S
H191 C188 0.928 . S
H192 C189 0.931 . S
H193 C169 0.930 . S
H194 C166 0.930 . S
H195 C175 0.930 . S
H196 C187 0.929 1_554 S
H197 C190 0.930 . S
C198 C199 1.351 . S
C198 N201 1.368 . S
C198 H203 0.931 . S
C199 C198 1.351 . S
C199 N200 1.373 . S
C199 H227 0.930 . S
N200 C199 1.373 . S
N200 C202 1.340 . S
N201 C198 1.368 . S
N201 C202 1.321 . S
N201 Co204 2.135 . S
C202 N200 1.340 . S
C202 N201 1.321 . S
C202 H226 0.930 . S
H203 C198 0.931 . S
Co204 N201 2.135 . S
Co204 N207 2.121 . S
Co204 O212 2.055 . S
Co204 O215 2.039 . S
Co204 N218 2.140 . S
C205 O206 1.227 . S
C205 O215 1.265 . S
O206 C205 1.227 . S
N207 Co204 2.121 . S
N207 C209 1.375 . S
N207 C210 1.313 . S
C208 C209 1.338 . S
C208 N211 1.377 . S
C208 H228 0.930 . S
C209 N207 1.375 . S
C209 C208 1.338 . S
C209 H213 0.931 . S
C210 N207 1.313 . S
C210 N211 1.344 . S
C210 H214 0.930 . S
N211 C208 1.377 . S
N211 C210 1.344 . S
O212 Co204 2.055 . S
O212 C216 1.253 . S
H213 C209 0.931 . S
H214 C210 0.930 . S
O215 Co204 2.039 . S
O215 C205 1.265 . S
C216 O212 1.253 . S
C216 O217 1.227 . S
O217 C216 1.227 . S
N218 Co204 2.140 . S
N218 C221 1.346 . S
N218 C222 1.345 . S
C219 C220 1.387 . S
C219 C223 1.391 . S
C220 C219 1.387 . S
C220 C221 1.369 . S
C220 H229 0.929 . S
C221 N218 1.346 . S
C221 C220 1.369 . S
C221 H224 0.928 . S
C222 N218 1.345 . S
C222 C223 1.371 . S
C222 H225 0.931 . S
C223 C219 1.391 . S
C223 C222 1.371 . S
C223 H230 0.930 . S
H224 C221 0.928 . S
H225 C222 0.931 . S
H226 C202 0.930 . S
H227 C199 0.930 . S
H228 C208 0.930 . S
H229 C220 0.929 . S
H230 C223 0.930 . S
C231 C232 1.351 . S
C231 N234 1.368 . S
C231 H236 0.931 . S
C232 C231 1.351 . S
C232 N233 1.373 . S
C232 H260 0.930 . S
N233 C232 1.373 . S
N233 C235 1.340 . S
N234 C231 1.368 . S
N234 C235 1.321 . S
N234 Co237 2.135 . S
C235 N233 1.340 . S
C235 N234 1.321 . S
C235 H259 0.930 . S
H236 C231 0.931 . S
Co237 N234 2.135 . S
Co237 N240 2.121 . S
Co237 O245 2.055 . S
Co237 O248 2.039 . S
Co237 N251 2.140 . S
C238 O239 1.227 . S
C238 O248 1.265 . S
O239 C238 1.227 . S
N240 Co237 2.121 . S
N240 C242 1.375 . S
N240 C243 1.313 . S
C241 C242 1.338 . S
C241 N244 1.377 . S
C241 H261 0.930 . S
C242 N240 1.375 . S
C242 C241 1.338 . S
C242 H246 0.931 . S
C243 N240 1.313 . S
C243 N244 1.344 . S
C243 H247 0.930 . S
N244 C241 1.377 . S
N244 C243 1.344 . S
O245 Co237 2.055 . S
O245 C249 1.253 . S
H246 C242 0.931 . S
H247 C243 0.930 . S
O248 Co237 2.039 . S
O248 C238 1.265 . S
C249 O245 1.253 . S
C249 O250 1.227 . S
O250 C249 1.227 . S
N251 Co237 2.140 . S
N251 C254 1.346 . S
N251 C255 1.345 . S
C252 C253 1.387 . S
C252 C256 1.391 . S
C253 C252 1.387 . S
C253 C254 1.369 . S
C253 H262 0.929 . S
C254 N251 1.346 . S
C254 C253 1.369 . S
C254 H257 0.928 . S
C255 N251 1.345 . S
C255 C256 1.371 . S
C255 H258 0.931 . S
C256 C252 1.391 . S
C256 C255 1.371 . S
C256 H263 0.930 . S
H257 C254 0.928 . S
H258 C255 0.931 . S
H259 C235 0.930 . S
H260 C232 0.930 . S
H261 C241 0.930 . S
H262 C253 0.929 . S
H263 C256 0.930 . S
C264 C265 1.351 . S
C264 N267 1.368 . S
C264 H269 0.931 . S
C265 C264 1.351 . S
C265 N266 1.373 . S
C265 H293 0.930 . S
N266 C265 1.373 . S
N266 C268 1.340 1_554 S
N267 C264 1.368 . S
N267 C268 1.321 1_554 S
N267 Co270 2.135 1_554 S
C268 N266 1.340 1_556 S
C268 N267 1.321 1_556 S
C268 H292 0.930 . S
H269 C264 0.931 . S
Co270 N267 2.135 1_556 S
Co270 N273 2.121 . S
Co270 O278 2.055 1_556 S
Co270 O281 2.039 . S
Co270 N284 2.140 1_556 S
C271 O272 1.227 . S
C271 O281 1.265 . S
O272 C271 1.227 . S
N273 Co270 2.121 . S
N273 C275 1.375 . S
N273 C276 1.309 1_556 S
C274 C275 1.338 . S
C274 N277 1.377 . S
C274 H294 0.930 . S
C275 N273 1.375 . S
C275 C274 1.338 . S
C275 H279 0.931 . S
C276 N273 1.309 1_554 S
C276 N277 1.340 1_554 S
C276 H280 0.938 . S
N277 C274 1.377 . S
N277 C276 1.340 1_556 S
O278 Co270 2.055 1_554 S
O278 C282 1.253 . S
H279 C275 0.931 . S
H280 C276 0.938 . S
O281 Co270 2.039 . S
O281 C271 1.265 . S
C282 O278 1.253 . S
C282 O283 1.227 . S
O283 C282 1.227 . S
N284 Co270 2.140 1_554 S
N284 C287 1.346 1_554 S
N284 C288 1.345 . S
C285 C286 1.387 . S
C285 C289 1.391 . S
C286 C285 1.387 . S
C286 C287 1.369 1_554 S
C286 H295 0.929 1_554 S
C287 N284 1.346 1_556 S
C287 C286 1.369 1_556 S
C287 H290 0.928 . S
C288 N284 1.345 . S
C288 C289 1.371 . S
C288 H291 0.931 . S
C289 C285 1.391 . S
C289 C288 1.371 . S
C289 H296 0.930 . S
H290 C287 0.928 . S
H291 C288 0.931 . S
H292 C268 0.930 . S
H293 C265 0.930 . S
H294 C274 0.930 . S
H295 C286 0.929 1_556 S
H296 C289 0.930 . S
C297 C298 1.351 . S
C297 N300 1.368 . S
C297 H302 0.931 . S
C298 C297 1.351 . S
C298 N299 1.373 . S
C298 H326 0.930 . S
N299 C298 1.373 . S
N299 C301 1.340 . S
N300 C297 1.368 . S
N300 C301 1.321 . S
N300 Co303 2.135 . S
C301 N299 1.340 . S
C301 N300 1.321 . S
C301 H325 0.930 . S
H302 C297 0.931 . S
Co303 N300 2.135 . S
Co303 N306 2.121 . S
Co303 O311 2.055 . S
Co303 O314 2.039 . S
Co303 N317 2.140 . S
C304 O305 1.227 . S
C304 O314 1.265 . S
O305 C304 1.227 . S
N306 Co303 2.121 . S
N306 C308 1.375 . S
N306 C309 1.313 . S
C307 C308 1.338 . S
C307 N310 1.377 . S
C307 H327 0.930 . S
C308 N306 1.375 . S
C308 C307 1.338 . S
C308 H312 0.931 . S
C309 N306 1.313 . S
C309 N310 1.344 . S
C309 H313 0.930 . S
N310 C307 1.377 . S
N310 C309 1.344 . S
O311 Co303 2.055 . S
O311 C315 1.253 . S
H312 C308 0.931 . S
H313 C309 0.930 . S
O314 Co303 2.039 . S
O314 C304 1.265 . S
C315 O311 1.253 . S
C315 O316 1.227 . S
O316 C315 1.227 . S
N317 Co303 2.140 . S
N317 C320 1.346 . S
N317 C321 1.345 . S
C318 C319 1.387 . S
C318 C322 1.391 . S
C319 C318 1.387 . S
C319 C320 1.369 . S
C319 H328 0.929 . S
C320 N317 1.346 . S
C320 C319 1.369 . S
C320 H323 0.928 . S
C321 N317 1.345 . S
C321 C322 1.371 . S
C321 H324 0.931 . S
C322 C318 1.391 . S
C322 C321 1.371 . S
C322 H329 0.930 . S
H323 C320 0.928 . S
H324 C321 0.931 . S
H325 C301 0.930 . S
H326 C298 0.930 . S
H327 C307 0.930 . S
H328 C319 0.929 . S
H329 C322 0.930 . S
C330 C331 1.351 . S
C330 N333 1.368 . S
C330 H335 0.931 . S
C331 C330 1.351 . S
C331 N332 1.373 . S
C331 H359 0.930 . S
N332 C331 1.373 . S
N332 C334 1.340 . S
N333 C330 1.368 . S
N333 C334 1.321 . S
N333 Co336 2.135 . S
C334 N332 1.340 . S
C334 N333 1.321 . S
C334 H358 0.930 . S
H335 C330 0.931 . S
Co336 N333 2.135 . S
Co336 N339 2.121 . S
Co336 O344 2.055 . S
Co336 O347 2.039 . S
Co336 N350 2.140 . S
C337 O338 1.227 . S
C337 O347 1.265 . S
O338 C337 1.227 . S
N339 Co336 2.121 . S
N339 C341 1.375 . S
N339 C342 1.313 . S
C340 C341 1.338 . S
C340 N343 1.377 . S
C340 H360 0.930 . S
C341 N339 1.375 . S
C341 C340 1.338 . S
C341 H345 0.931 . S
C342 N339 1.313 . S
C342 N343 1.344 . S
C342 H346 0.930 . S
N343 C340 1.377 . S
N343 C342 1.344 . S
O344 Co336 2.055 . S
O344 C348 1.253 . S
H345 C341 0.931 . S
H346 C342 0.930 . S
O347 Co336 2.039 . S
O347 C337 1.265 . S
C348 O344 1.253 . S
C348 O349 1.227 . S
O349 C348 1.227 . S
N350 Co336 2.140 . S
N350 C353 1.346 . S
N350 C354 1.345 . S
C351 C352 1.387 . S
C351 C355 1.391 . S
C352 C351 1.387 . S
C352 C353 1.369 . S
C352 H361 0.929 . S
C353 N350 1.346 . S
C353 C352 1.369 . S
C353 H356 0.928 . S
C354 N350 1.345 . S
C354 C355 1.371 . S
C354 H357 0.931 . S
C355 C351 1.391 . S
C355 C354 1.371 . S
C355 H362 0.930 . S
H356 C353 0.928 . S
H357 C354 0.931 . S
H358 C334 0.930 . S
H359 C331 0.930 . S
H360 C340 0.930 . S
H361 C352 0.929 . S
H362 C355 0.930 . S
C363 C364 1.351 . S
C363 N366 1.368 . S
C363 H368 0.931 . S
C364 C363 1.351 . S
C364 N365 1.373 . S
C364 H392 0.930 . S
N365 C364 1.373 . S
N365 C367 1.340 1_554 S
N366 C363 1.368 . S
N366 C367 1.321 1_554 S
N366 Co369 2.135 1_554 S
C367 N365 1.340 1_556 S
C367 N366 1.321 1_556 S
C367 H391 0.930 . S
H368 C363 0.931 . S
Co369 N366 2.135 1_556 S
Co369 N372 2.121 . S
Co369 O377 2.055 1_556 S
Co369 O380 2.039 . S
Co369 N383 2.140 1_556 S
C370 O371 1.227 . S
C370 O380 1.265 . S
O371 C370 1.227 . S
N372 Co369 2.121 . S
N372 C374 1.375 . S
N372 C375 1.309 1_556 S
C373 C374 1.338 . S
C373 N376 1.377 . S
C373 H393 0.930 . S
C374 N372 1.375 . S
C374 C373 1.338 . S
C374 H378 0.931 . S
C375 N372 1.309 1_554 S
C375 N376 1.340 1_554 S
C375 H379 0.938 . S
N376 C373 1.377 . S
N376 C375 1.340 1_556 S
O377 Co369 2.055 1_554 S
O377 C381 1.253 . S
H378 C374 0.931 . S
H379 C375 0.938 . S
O380 Co369 2.039 . S
O380 C370 1.265 . S
C381 O377 1.253 . S
C381 O382 1.227 . S
O382 C381 1.227 . S
N383 Co369 2.140 1_554 S
N383 C386 1.346 1_554 S
N383 C387 1.345 . S
C384 C385 1.387 . S
C384 C388 1.391 . S
C385 C384 1.387 . S
C385 C386 1.369 1_554 S
C385 H394 0.929 1_554 S
C386 N383 1.346 1_556 S
C386 C385 1.369 1_556 S
C386 H389 0.928 . S
C387 N383 1.345 . S
C387 C388 1.371 . S
C387 H390 0.931 . S
C388 C384 1.391 . S
C388 C387 1.371 . S
C388 H395 0.930 . S
H389 C386 0.928 . S
H390 C387 0.931 . S
H391 C367 0.930 . S
H392 C364 0.930 . S
H393 C373 0.930 . S
H394 C385 0.929 1_556 S
H395 C388 0.930 . S
H396 C404 0.929 . S
H397 C406 0.930 . S
H398 C408 0.930 . S
H399 C411 0.929 . S
H400 C414 0.930 . S
H401 C416 0.960 . S
H402 C416 0.960 . S
H403 C416 0.960 . S
C404 H396 0.929 . S
C404 C405 1.377 . S
C404 C406 1.384 . S
C405 C404 1.377 . S
C405 C411 1.390 . S
C406 H397 0.930 . S
C406 C404 1.384 . S
C406 C407 1.372 . S
C407 C406 1.372 . S
C407 C408 1.400 . S
C407 C412 1.490 . S
C408 H398 0.930 . S
C408 C407 1.400 . S
C408 C411 1.386 . S
H409 C425 0.930 . S
H410 C426 0.931 . S
C411 H399 0.929 . S
C411 C405 1.390 . S
C411 C408 1.386 . S
C412 C407 1.490 . S
C412 C414 1.395 . S
C412 C415 1.403 . S
H413 C419 0.930 . S
C414 H400 0.930 . S
C414 C412 1.395 . S
C414 C417 1.403 1_655 S
C415 C412 1.403 . S
C415 C416 1.524 . S
C415 C419 1.400 1_655 S
C416 H401 0.960 . S
C416 H402 0.960 . S
C416 H403 0.960 . S
C416 C415 1.524 . S
C417 C414 1.403 1_455 S
C417 C418 1.392 . S
C417 C421 1.495 . S
C418 C417 1.392 . S
C418 C419 1.385 . S
C418 C420 1.478 . S
C419 H413 0.930 . S
C419 C415 1.400 1_455 S
C419 C418 1.385 . S
C420 C418 1.478 . S
C420 C422 1.381 . S
C420 C426 1.383 . S
C421 C417 1.495 . S
C421 H427 0.959 . S
C421 H428 0.961 . S
C421 H429 0.960 . S
C422 C420 1.381 . S
C422 C423 1.394 . S
C422 H430 0.930 . S
C423 C422 1.394 . S
C423 C424 1.383 . S
C423 H431 0.929 . S
C424 C423 1.383 . S
C424 C425 1.377 . S
C425 H409 0.930 . S
C425 C424 1.377 . S
C425 C426 1.379 . S
C426 H410 0.931 . S
C426 C420 1.383 . S
C426 C425 1.379 . S
H427 C421 0.959 . S
H428 C421 0.961 . S
H429 C421 0.960 . S
H430 C422 0.930 . S
H431 C423 0.929 . S
H432 C440 0.929 . S
H433 C442 0.930 . S
H434 C444 0.930 . S
H435 C447 0.929 . S
H436 C450 0.930 . S
H437 C452 0.960 1_545 S
H438 C452 0.960 . S
H439 C452 0.960 1_545 S
C440 H432 0.929 . S
C440 C441 1.377 . S
C440 C442 1.384 . S
C441 C440 1.377 . S
C441 C447 1.390 . S
C442 H433 0.930 . S
C442 C440 1.384 . S
C442 C443 1.372 . S
C443 C442 1.372 . S
C443 C444 1.400 . S
C443 C448 1.490 . S
C444 H434 0.930 . S
C444 C443 1.400 . S
C444 C447 1.386 . S
H445 C461 0.930 . S
H446 C462 0.931 . S
C447 H435 0.929 . S
C447 C441 1.390 . S
C447 C444 1.386 . S
C448 C443 1.490 . S
C448 C450 1.395 . S
C448 C451 1.403 . S
H449 C455 0.930 . S
C450 H436 0.930 . S
C450 C448 1.395 . S
C450 C453 1.403 . S
C451 C448 1.403 . S
C451 C452 1.524 . S
C451 C455 1.400 1_565 S
C452 H437 0.960 1_565 S
C452 H438 0.960 . S
C452 H439 0.960 1_565 S
C452 C451 1.524 . S
C453 C450 1.403 . S
C453 C454 1.392 1_565 S
C453 C457 1.495 . S
C454 C453 1.392 1_545 S
C454 C455 1.385 . S
C454 C456 1.478 . S
C455 H449 0.930 . S
C455 C451 1.400 1_545 S
C455 C454 1.385 . S
C456 C454 1.478 . S
C456 C458 1.381 . S
C456 C462 1.383 . S
C457 C453 1.495 . S
C457 H463 0.959 . S
C457 H464 0.961 1_565 S
C457 H465 0.960 . S
C458 C456 1.381 . S
C458 C459 1.394 . S
C458 H466 0.930 . S
C459 C458 1.394 . S
C459 C460 1.383 . S
C459 H467 0.929 . S
C460 C459 1.383 . S
C460 C461 1.377 . S
C461 H445 0.930 . S
C461 C460 1.377 . S
C461 C462 1.379 . S
C462 H446 0.931 . S
C462 C456 1.383 . S
C462 C461 1.379 . S
H463 C457 0.959 . S
H464 C457 0.961 1_545 S
H465 C457 0.960 . S
H466 C458 0.930 . S
H467 C459 0.929 . S
H468 C476 0.929 . S
H469 C478 0.930 . S
H470 C480 0.930 . S
H471 C483 0.929 . S
H472 C486 0.930 . S
H473 C488 0.960 . S
H474 C488 0.960 . S
H475 C488 0.960 . S
C476 H468 0.929 . S
C476 C477 1.377 . S
C476 C478 1.384 . S
C477 C476 1.377 . S
C477 C483 1.390 . S
C478 H469 0.930 . S
C478 C476 1.384 . S
C478 C479 1.372 . S
C479 C478 1.372 . S
C479 C480 1.400 . S
C479 C484 1.490 . S
C480 H470 0.930 . S
C480 C479 1.400 . S
C480 C483 1.386 . S
H481 C497 0.930 . S
H482 C498 0.931 . S
C483 H471 0.929 . S
C483 C477 1.390 . S
C483 C480 1.386 . S
C484 C479 1.490 . S
C484 C486 1.395 . S
C484 C487 1.403 . S
H485 C491 0.930 . S
C486 H472 0.930 . S
C486 C484 1.395 . S
C486 C489 1.403 . S
C487 C484 1.403 . S
C487 C488 1.524 . S
C487 C491 1.400 . S
C488 H473 0.960 . S
C488 H474 0.960 . S
C488 H475 0.960 . S
C488 C487 1.524 . S
C489 C486 1.403 . S
C489 C490 1.392 . S
C489 C493 1.495 . S
C490 C489 1.392 . S
C490 C491 1.385 . S
C490 C492 1.478 . S
C491 H485 0.930 . S
C491 C487 1.400 . S
C491 C490 1.385 . S
C492 C490 1.478 . S
C492 C494 1.381 . S
C492 C498 1.383 . S
C493 C489 1.495 . S
C493 H499 0.959 . S
C493 H500 0.961 . S
C493 H501 0.960 . S
C494 C492 1.381 . S
C494 C495 1.394 . S
C494 H502 0.930 . S
C495 C494 1.394 . S
C495 C496 1.383 . S
C495 H503 0.929 . S
C496 C495 1.383 . S
C496 C497 1.377 . S
C497 H481 0.930 . S
C497 C496 1.377 . S
C497 C498 1.379 . S
C498 H482 0.931 . S
C498 C492 1.383 . S
C498 C497 1.379 . S
H499 C493 0.959 . S
H500 C493 0.961 . S
H501 C493 0.960 . S
H502 C494 0.930 . S
H503 C495 0.929 . S
H504 C512 0.929 . S
H505 C514 0.930 . S
H506 C516 0.930 . S
H507 C519 0.929 . S
H508 C522 0.930 . S
H509 C524 0.960 . S
H510 C524 0.960 . S
H511 C524 0.960 . S
C512 H504 0.929 . S
C512 C513 1.377 . S
C512 C514 1.384 . S
C513 C512 1.377 . S
C513 C519 1.390 . S
C514 H505 0.930 . S
C514 C512 1.384 . S
C514 C515 1.372 . S
C515 C514 1.372 . S
C515 C516 1.400 . S
C515 C520 1.490 . S
C516 H506 0.930 . S
C516 C515 1.400 . S
C516 C519 1.386 . S
H517 C533 0.930 . S
H518 C534 0.931 . S
C519 H507 0.929 . S
C519 C513 1.390 . S
C519 C516 1.386 . S
C520 C515 1.490 . S
C520 C522 1.395 . S
C520 C523 1.403 1_455 S
H521 C527 0.930 . S
C522 H508 0.930 . S
C522 C520 1.395 . S
C522 C525 1.403 . S
C523 C520 1.403 1_655 S
C523 C524 1.524 . S
C523 C527 1.400 . S
C524 H509 0.960 . S
C524 H510 0.960 . S
C524 H511 0.960 . S
C524 C523 1.524 . S
C525 C522 1.403 . S
C525 C526 1.392 1_455 S
C525 C529 1.495 . S
C526 C525 1.392 1_655 S
C526 C527 1.385 . S
C526 C528 1.478 . S
C527 H521 0.930 . S
C527 C523 1.400 . S
C527 C526 1.385 . S
C528 C526 1.478 . S
C528 C530 1.381 . S
C528 C534 1.383 . S
C529 C525 1.495 . S
C529 H535 0.959 . S
C529 H536 0.961 . S
C529 H537 0.960 . S
C530 C528 1.381 . S
C530 C531 1.394 . S
C530 H538 0.930 . S
C531 C530 1.394 . S
C531 C532 1.383 . S
C531 H539 0.929 . S
C532 C531 1.383 . S
C532 C533 1.377 . S
C533 H517 0.930 . S
C533 C532 1.377 . S
C533 C534 1.379 . S
C534 H518 0.931 . S
C534 C528 1.383 . S
C534 C533 1.379 . S
H535 C529 0.959 . S
H536 C529 0.961 . S
H537 C529 0.960 . S
H538 C530 0.930 . S
H539 C531 0.929 . S
H540 C548 0.929 . S
H541 C550 0.930 . S
H542 C552 0.930 . S
H543 C555 0.929 . S
H544 C558 0.930 . S
H545 C560 0.960 . S
H546 C560 0.960 . S
H547 C560 0.960 . S
C548 H540 0.929 . S
C548 C549 1.377 . S
C548 C550 1.384 . S
C549 C548 1.377 . S
C549 C555 1.390 . S
C550 H541 0.930 . S
C550 C548 1.384 . S
C550 C551 1.372 . S
C551 C550 1.372 . S
C551 C552 1.400 . S
C551 C556 1.490 . S
C552 H542 0.930 . S
C552 C551 1.400 . S
C552 C555 1.386 . S
H553 C569 0.930 . S
H554 C570 0.931 . S
C555 H543 0.929 . S
C555 C549 1.390 . S
C555 C552 1.386 . S
C556 C551 1.490 . S
C556 C558 1.395 1_545 S
C556 C559 1.403 . S
H557 C563 0.930 . S
C558 H544 0.930 . S
C558 C556 1.395 1_565 S
C558 C561 1.403 . S
C559 C556 1.403 . S
C559 C560 1.524 . S
C559 C563 1.400 . S
C560 H545 0.960 . S
C560 H546 0.960 . S
C560 H547 0.960 . S
C560 C559 1.524 . S
C561 C558 1.403 . S
C561 C562 1.392 . S
C561 C565 1.495 . S
C562 C561 1.392 . S
C562 C563 1.385 1_565 S
C562 C564 1.478 . S
C563 H557 0.930 . S
C563 C559 1.400 . S
C563 C562 1.385 1_545 S
C564 C562 1.478 . S
C564 C566 1.381 . S
C564 C570 1.383 . S
C565 C561 1.495 . S
C565 H571 0.959 . S
C565 H572 0.961 . S
C565 H573 0.960 . S
C566 C564 1.381 . S
C566 C567 1.394 . S
C566 H574 0.930 . S
C567 C566 1.394 . S
C567 C568 1.383 . S
C567 H575 0.929 . S
C568 C567 1.383 . S
C568 C569 1.377 . S
C569 H553 0.930 . S
C569 C568 1.377 . S
C569 C570 1.379 . S
C570 H554 0.931 . S
C570 C564 1.383 . S
C570 C569 1.379 . S
H571 C565 0.959 . S
H572 C565 0.961 . S
H573 C565 0.960 . S
H574 C566 0.930 . S
H575 C567 0.929 . S
H576 C584 0.929 . S
H577 C586 0.930 . S
H578 C588 0.930 . S
H579 C591 0.929 . S
H580 C594 0.930 . S
H581 C596 0.960 . S
H582 C596 0.960 . S
H583 C596 0.960 . S
C584 H576 0.929 . S
C584 C585 1.377 . S
C584 C586 1.384 . S
C585 C584 1.377 . S
C585 C591 1.390 . S
C586 H577 0.930 . S
C586 C584 1.384 . S
C586 C587 1.372 . S
C587 C586 1.372 . S
C587 C588 1.400 . S
C587 C592 1.490 . S
C588 H578 0.930 . S
C588 C587 1.400 . S
C588 C591 1.386 . S
H589 C605 0.930 . S
H590 C606 0.931 . S
C591 H579 0.929 . S
C591 C585 1.390 . S
C591 C588 1.386 . S
C592 C587 1.490 . S
C592 C594 1.395 . S
C592 C595 1.403 . S
H593 C599 0.930 . S
C594 H580 0.930 . S
C594 C592 1.395 . S
C594 C597 1.403 . S
C595 C592 1.403 . S
C595 C596 1.524 . S
C595 C599 1.400 . S
C596 H581 0.960 . S
C596 H582 0.960 . S
C596 H583 0.960 . S
C596 C595 1.524 . S
C597 C594 1.403 . S
C597 C598 1.392 . S
C597 C601 1.495 . S
C598 C597 1.392 . S
C598 C599 1.385 . S
C598 C600 1.478 . S
C599 H593 0.930 . S
C599 C595 1.400 . S
C599 C598 1.385 . S
C600 C598 1.478 . S
C600 C602 1.381 . S
C600 C606 1.383 . S
C601 C597 1.495 . S
C601 H607 0.959 . S
C601 H608 0.961 . S
C601 H609 0.960 . S
C602 C600 1.381 . S
C602 C603 1.394 . S
C602 H610 0.930 . S
C603 C602 1.394 . S
C603 C604 1.383 . S
C603 H611 0.929 . S
C604 C603 1.383 . S
C604 C605 1.377 . S
C605 H589 0.930 . S
C605 C604 1.377 . S
C605 C606 1.379 . S
C606 H590 0.931 . S
C606 C600 1.383 . S
C606 C605 1.379 . S
H607 C601 0.959 . S
H608 C601 0.961 . S
H609 C601 0.960 . S
H610 C602 0.930 . S
H611 C603 0.929 . S
H612 C620 0.929 . S
H613 C622 0.930 . S
H614 C624 0.930 . S
H615 C627 0.929 . S
H616 C630 0.930 . S
H617 C632 0.960 . S
H618 C632 0.960 . S
H619 C632 0.960 . S
C620 H612 0.929 . S
C620 C621 1.377 . S
C620 C622 1.384 . S
C621 C620 1.377 . S
C621 C627 1.390 . S
C622 H613 0.930 . S
C622 C620 1.384 . S
C622 C623 1.372 . S
C623 C622 1.372 . S
C623 C624 1.400 . S
C623 C628 1.490 . S
C624 H614 0.930 . S
C624 C623 1.400 . S
C624 C627 1.386 . S
H625 C641 0.930 . S
H626 C642 0.931 . S
C627 H615 0.929 . S
C627 C621 1.390 . S
C627 C624 1.386 . S
C628 C623 1.490 . S
C628 C630 1.395 . S
C628 C631 1.403 . S
H629 C635 0.930 . S
C630 H616 0.930 . S
C630 C628 1.395 . S
C630 C633 1.403 . S
C631 C628 1.403 . S
C631 C632 1.524 . S
C631 C635 1.400 . S
C632 H617 0.960 . S
C632 H618 0.960 . S
C632 H619 0.960 . S
C632 C631 1.524 . S
C633 C630 1.403 . S
C633 C634 1.392 . S
C633 C637 1.495 . S
C634 C633 1.392 . S
C634 C635 1.385 . S
C634 C636 1.478 . S
C635 H629 0.930 . S
C635 C631 1.400 . S
C635 C634 1.385 . S
C636 C634 1.478 . S
C636 C638 1.381 . S
C636 C642 1.383 . S
C637 C633 1.495 . S
C637 H643 0.959 . S
C637 H644 0.961 . S
C637 H645 0.960 . S
C638 C636 1.381 . S
C638 C639 1.394 . S
C638 H646 0.930 . S
C639 C638 1.394 . S
C639 C640 1.383 . S
C639 H647 0.929 . S
C640 C639 1.383 . S
C640 C641 1.377 . S
C641 H625 0.930 . S
C641 C640 1.377 . S
C641 C642 1.379 . S
C642 H626 0.931 . S
C642 C636 1.383 . S
C642 C641 1.379 . S
H643 C637 0.959 . S
H644 C637 0.961 . S
H645 C637 0.960 . S
H646 C638 0.930 . S
H647 C639 0.929 . S
H648 C656 0.929 . S
H649 C658 0.930 . S
H650 C660 0.930 . S
H651 C663 0.929 . S
H652 C666 0.930 . S
H653 C668 0.960 . S
H654 C668 0.960 . S
H655 C668 0.960 . S
C656 H648 0.929 . S
C656 C657 1.377 . S
C656 C658 1.384 . S
C657 C656 1.377 . S
C657 C663 1.390 . S
C658 H649 0.930 . S
C658 C656 1.384 . S
C658 C659 1.372 . S
C659 C658 1.372 . S
C659 C660 1.400 . S
C659 C664 1.490 . S
C660 H650 0.930 . S
C660 C659 1.400 . S
C660 C663 1.386 . S
H661 C677 0.930 . S
H662 C678 0.931 . S
C663 H651 0.929 . S
C663 C657 1.390 . S
C663 C660 1.386 . S
C664 C659 1.490 . S
C664 C666 1.395 . S
C664 C667 1.403 . S
H665 C671 0.930 . S
C666 H652 0.930 . S
C666 C664 1.395 . S
C666 C669 1.403 . S
C667 C664 1.403 . S
C667 C668 1.524 . S
C667 C671 1.400 . S
C668 H653 0.960 . S
C668 H654 0.960 . S
C668 H655 0.960 . S
C668 C667 1.524 . S
C669 C666 1.403 . S
C669 C670 1.392 . S
C669 C673 1.495 . S
C670 C669 1.392 . S
C670 C671 1.385 . S
C670 C672 1.478 . S
C671 H665 0.930 . S
C671 C667 1.400 . S
C671 C670 1.385 . S
C672 C670 1.478 . S
C672 C674 1.381 . S
C672 C678 1.383 . S
C673 C669 1.495 . S
C673 H679 0.959 . S
C673 H680 0.961 . S
C673 H681 0.960 . S
C674 C672 1.381 . S
C674 C675 1.394 . S
C674 H682 0.930 . S
C675 C674 1.394 . S
C675 C676 1.383 . S
C675 H683 0.929 . S
C676 C675 1.383 . S
C676 C677 1.377 . S
C677 H661 0.930 . S
C677 C676 1.377 . S
C677 C678 1.379 . S
C678 H662 0.931 . S
C678 C672 1.383 . S
C678 C677 1.379 . S
H679 C673 0.959 . S
H680 C673 0.961 . S
H681 C673 0.960 . S
H682 C674 0.930 . S
H683 C675 0.929 . S
H684 C692 0.929 . S
H685 C694 0.930 . S
H686 C696 0.930 . S
H687 C699 0.929 . S
H688 C702 0.930 . S
H689 C704 0.960 . S
H690 C704 0.960 . S
H691 C704 0.960 . S
C692 H684 0.929 . S
C692 C693 1.377 . S
C692 C694 1.384 . S
C693 C692 1.377 . S
C693 C699 1.390 . S
C694 H685 0.930 . S
C694 C692 1.384 . S
C694 C695 1.372 . S
C695 C694 1.372 . S
C695 C696 1.400 . S
C695 C700 1.490 . S
C696 H686 0.930 . S
C696 C695 1.400 . S
C696 C699 1.386 . S
H697 C713 0.930 . S
H698 C714 0.931 . S
C699 H687 0.929 . S
C699 C693 1.390 . S
C699 C696 1.386 . S
C700 C695 1.490 . S
C700 C702 1.395 . S
C700 C703 1.403 . S
H701 C707 0.930 . S
C702 H688 0.930 . S
C702 C700 1.395 . S
C702 C705 1.403 . S
C703 C700 1.403 . S
C703 C704 1.524 . S
C703 C707 1.400 . S
C704 H689 0.960 . S
C704 H690 0.960 . S
C704 H691 0.960 . S
C704 C703 1.524 . S
C705 C702 1.403 . S
C705 C706 1.392 . S
C705 C709 1.495 . S
C706 C705 1.392 . S
C706 C707 1.385 . S
C706 C708 1.478 . S
C707 H701 0.930 . S
C707 C703 1.400 . S
C707 C706 1.385 . S
C708 C706 1.478 . S
C708 C710 1.381 . S
C708 C714 1.383 . S
C709 C705 1.495 . S
C709 H715 0.959 . S
C709 H716 0.961 . S
C709 H717 0.960 . S
C710 C708 1.381 . S
C710 C711 1.394 . S
C710 H718 0.930 . S
C711 C710 1.394 . S
C711 C712 1.383 . S
C711 H719 0.929 . S
C712 C711 1.383 . S
C712 C713 1.377 . S
C713 H697 0.930 . S
C713 C712 1.377 . S
C713 C714 1.379 . S
C714 H698 0.931 . S
C714 C708 1.383 . S
C714 C713 1.379 . S
H715 C709 0.959 . S
H716 C709 0.961 . S
H717 C709 0.960 . S
H718 C710 0.930 . S
H719 C711 0.929 . S
H720 C728 0.929 . S
H721 C730 0.930 . S
H722 C732 0.930 . S
H723 C735 0.929 . S
H724 C738 0.930 . S
H725 C740 0.960 . S
H726 C740 0.960 . S
H727 C740 0.960 . S
C728 H720 0.929 . S
C728 C729 1.377 . S
C728 C730 1.384 . S
C729 C728 1.377 . S
C729 C735 1.390 . S
C730 H721 0.930 . S
C730 C728 1.384 . S
C730 C731 1.372 . S
C731 C730 1.372 . S
C731 C732 1.400 . S
C731 C736 1.490 . S
C732 H722 0.930 . S
C732 C731 1.400 . S
C732 C735 1.386 . S
H733 C749 0.930 . S
H734 C750 0.931 . S
C735 H723 0.929 . S
C735 C729 1.390 . S
C735 C732 1.386 . S
C736 C731 1.490 . S
C736 C738 1.395 . S
C736 C739 1.403 . S
H737 C743 0.930 . S
C738 H724 0.930 . S
C738 C736 1.395 . S
C738 C741 1.403 . S
C739 C736 1.403 . S
C739 C740 1.524 . S
C739 C743 1.400 . S
C740 H725 0.960 . S
C740 H726 0.960 . S
C740 H727 0.960 . S
C740 C739 1.524 . S
C741 C738 1.403 . S
C741 C742 1.392 . S
C741 C745 1.495 . S
C742 C741 1.392 . S
C742 C743 1.385 . S
C742 C744 1.478 . S
C743 H737 0.930 . S
C743 C739 1.400 . S
C743 C742 1.385 . S
C744 C742 1.478 . S
C744 C746 1.381 . S
C744 C750 1.383 . S
C745 C741 1.495 . S
C745 H751 0.959 . S
C745 H752 0.961 . S
C745 H753 0.960 . S
C746 C744 1.381 . S
C746 C747 1.394 . S
C746 H754 0.930 . S
C747 C746 1.394 . S
C747 C748 1.383 . S
C747 H755 0.929 . S
C748 C747 1.383 . S
C748 C749 1.377 . S
C749 H733 0.930 . S
C749 C748 1.377 . S
C749 C750 1.379 . S
C750 H734 0.931 . S
C750 C744 1.383 . S
C750 C749 1.379 . S
H751 C745 0.959 . S
H752 C745 0.961 . S
H753 C745 0.960 . S
H754 C746 0.930 . S
H755 C747 0.929 . S
H756 C764 0.929 . S
H757 C766 0.930 . S
H758 C768 0.930 . S
H759 C771 0.929 . S
H760 C774 0.930 . S
H761 C776 0.960 . S
H762 C776 0.960 . S
H763 C776 0.960 . S
C764 H756 0.929 . S
C764 C765 1.377 . S
C764 C766 1.384 . S
C765 C764 1.377 . S
C765 C771 1.390 . S
C766 H757 0.930 . S
C766 C764 1.384 . S
C766 C767 1.372 . S
C767 C766 1.372 . S
C767 C768 1.400 . S
C767 C772 1.490 . S
C768 H758 0.930 . S
C768 C767 1.400 . S
C768 C771 1.386 . S
H769 C785 0.930 . S
H770 C786 0.931 . S
C771 H759 0.929 . S
C771 C765 1.390 . S
C771 C768 1.386 . S
C772 C767 1.490 . S
C772 C774 1.395 . S
C772 C775 1.403 . S
H773 C779 0.930 . S
C774 H760 0.930 . S
C774 C772 1.395 . S
C774 C777 1.403 . S
C775 C772 1.403 . S
C775 C776 1.524 . S
C775 C779 1.400 . S
C776 H761 0.960 . S
C776 H762 0.960 . S
C776 H763 0.960 . S
C776 C775 1.524 . S
C777 C774 1.403 . S
C777 C778 1.392 . S
C777 C781 1.495 . S
C778 C777 1.392 . S
C778 C779 1.385 . S
C778 C780 1.478 . S
C779 H773 0.930 . S
C779 C775 1.400 . S
C779 C778 1.385 . S
C780 C778 1.478 . S
C780 C782 1.381 . S
C780 C786 1.383 . S
C781 C777 1.495 . S
C781 H787 0.959 . S
C781 H788 0.961 . S
C781 H789 0.960 . S
C782 C780 1.381 . S
C782 C783 1.394 . S
C782 H790 0.930 . S
C783 C782 1.394 . S
C783 C784 1.383 . S
C783 H791 0.929 . S
C784 C783 1.383 . S
C784 C785 1.377 . S
C785 H769 0.930 . S
C785 C784 1.377 . S
C785 C786 1.379 . S
C786 H770 0.931 . S
C786 C780 1.383 . S
C786 C785 1.379 . S
H787 C781 0.959 . S
H788 C781 0.961 . S
H789 C781 0.960 . S
H790 C782 0.930 . S
H791 C783 0.929 . S
H792 C800 0.929 . S
H793 C802 0.930 . S
H794 C804 0.930 . S
H795 C807 0.929 . S
H796 C810 0.930 . S
H797 C812 0.960 . S
H798 C812 0.960 . S
H799 C812 0.960 . S
C800 H792 0.929 . S
C800 C801 1.377 . S
C800 C802 1.384 . S
C801 C800 1.377 . S
C801 C807 1.390 . S
C802 H793 0.930 . S
C802 C800 1.384 . S
C802 C803 1.372 . S
C803 C802 1.372 . S
C803 C804 1.400 . S
C803 C808 1.490 . S
C804 H794 0.930 . S
C804 C803 1.400 . S
C804 C807 1.386 . S
H805 C821 0.930 . S
H806 C822 0.931 . S
C807 H795 0.929 . S
C807 C801 1.390 . S
C807 C804 1.386 . S
C808 C803 1.490 . S
C808 C810 1.395 . S
C808 C811 1.403 . S
H809 C815 0.930 . S
C810 H796 0.930 . S
C810 C808 1.395 . S
C810 C813 1.403 . S
C811 C808 1.403 . S
C811 C812 1.524 . S
C811 C815 1.400 . S
C812 H797 0.960 . S
C812 H798 0.960 . S
C812 H799 0.960 . S
C812 C811 1.524 . S
C813 C810 1.403 . S
C813 C814 1.392 . S
C813 C817 1.495 . S
C814 C813 1.392 . S
C814 C815 1.385 . S
C814 C816 1.478 . S
C815 H809 0.930 . S
C815 C811 1.400 . S
C815 C814 1.385 . S
C816 C814 1.478 . S
C816 C818 1.381 . S
C816 C822 1.383 . S
C817 C813 1.495 . S
C817 H823 0.959 . S
C817 H824 0.961 . S
C817 H825 0.960 . S
C818 C816 1.381 . S
C818 C819 1.394 . S
C818 H826 0.930 . S
C819 C818 1.394 . S
C819 C820 1.383 . S
C819 H827 0.929 . S
C820 C819 1.383 . S
C820 C821 1.377 . S
C821 H805 0.930 . S
C821 C820 1.377 . S
C821 C822 1.379 . S
C822 H806 0.931 . S
C822 C816 1.383 . S
C822 C821 1.379 . S
H823 C817 0.959 . S
H824 C817 0.961 . S
H825 C817 0.960 . S
H826 C818 0.930 . S
H827 C819 0.929 . S
H828 C836 0.929 . S
H829 C838 0.930 . S
H830 C840 0.930 . S
H831 C843 0.929 . S
H832 C846 0.930 . S
H833 C848 0.960 . S
H834 C848 0.960 . S
H835 C848 0.960 . S
C836 H828 0.929 . S
C836 C837 1.377 . S
C836 C838 1.384 . S
C837 C836 1.377 . S
C837 C843 1.390 . S
C838 H829 0.930 . S
C838 C836 1.384 . S
C838 C839 1.372 . S
C839 C838 1.372 . S
C839 C840 1.400 . S
C839 C844 1.490 . S
C840 H830 0.930 . S
C840 C839 1.400 . S
C840 C843 1.386 . S
H841 C857 0.930 . S
H842 C858 0.931 . S
C843 H831 0.929 . S
C843 C837 1.390 . S
C843 C840 1.386 . S
C844 C839 1.490 . S
C844 C846 1.395 . S
C844 C847 1.403 1_655 S
H845 C851 0.930 . S
C846 H832 0.930 . S
C846 C844 1.395 . S
C846 C849 1.403 . S
C847 C844 1.403 1_455 S
C847 C848 1.524 . S
C847 C851 1.400 . S
C848 H833 0.960 . S
C848 H834 0.960 . S
C848 H835 0.960 . S
C848 C847 1.524 . S
C849 C846 1.403 . S
C849 C850 1.392 1_655 S
C849 C853 1.495 . S
C850 C849 1.392 1_455 S
C850 C851 1.385 . S
C850 C852 1.478 . S
C851 H845 0.930 . S
C851 C847 1.400 . S
C851 C850 1.385 . S
C852 C850 1.478 . S
C852 C854 1.381 . S
C852 C858 1.383 . S
C853 C849 1.495 . S
C853 H859 0.959 . S
C853 H860 0.961 . S
C853 H861 0.960 . S
C854 C852 1.381 . S
C854 C855 1.394 . S
C854 H862 0.930 . S
C855 C854 1.394 . S
C855 C856 1.383 . S
C855 H863 0.929 . S
C856 C855 1.383 . S
C856 C857 1.377 . S
C857 H841 0.930 . S
C857 C856 1.377 . S
C857 C858 1.379 . S
C858 H842 0.931 . S
C858 C852 1.383 . S
C858 C857 1.379 . S
H859 C853 0.959 . S
H860 C853 0.961 . S
H861 C853 0.960 . S
H862 C854 0.930 . S
H863 C855 0.929 . S
H864 C872 0.929 . S
H865 C874 0.930 . S
H866 C876 0.930 . S
H867 C879 0.929 . S
H868 C882 0.930 . S
H869 C884 0.960 . S
H870 C884 0.960 . S
H871 C884 0.960 . S
C872 H864 0.929 . S
C872 C873 1.377 . S
C872 C874 1.384 . S
C873 C872 1.377 . S
C873 C879 1.390 . S
C874 H865 0.930 . S
C874 C872 1.384 . S
C874 C875 1.372 . S
C875 C874 1.372 . S
C875 C876 1.400 . S
C875 C880 1.490 . S
C876 H866 0.930 . S
C876 C875 1.400 . S
C876 C879 1.386 . S
H877 C893 0.930 . S
H878 C894 0.931 . S
C879 H867 0.929 . S
C879 C873 1.390 . S
C879 C876 1.386 . S
C880 C875 1.490 . S
C880 C882 1.395 . S
C880 C883 1.403 . S
H881 C887 0.930 . S
C882 H868 0.930 . S
C882 C880 1.395 . S
C882 C885 1.403 1_545 S
C883 C880 1.403 . S
C883 C884 1.524 . S
C883 C887 1.400 1_545 S
C884 H869 0.960 . S
C884 H870 0.960 . S
C884 H871 0.960 . S
C884 C883 1.524 . S
C885 C882 1.403 1_565 S
C885 C886 1.392 . S
C885 C889 1.495 . S
C886 C885 1.392 . S
C886 C887 1.385 . S
C886 C888 1.478 . S
C887 H881 0.930 . S
C887 C883 1.400 1_565 S
C887 C886 1.385 . S
C888 C886 1.478 . S
C888 C890 1.381 . S
C888 C894 1.383 . S
C889 C885 1.495 . S
C889 H895 0.959 . S
C889 H896 0.961 . S
C889 H897 0.960 . S
C890 C888 1.381 . S
C890 C891 1.394 . S
C890 H898 0.930 . S
C891 C890 1.394 . S
C891 C892 1.383 . S
C891 H899 0.929 . S
C892 C891 1.383 . S
C892 C893 1.377 . S
C893 H877 0.930 . S
C893 C892 1.377 . S
C893 C894 1.379 . S
C894 H878 0.931 . S
C894 C888 1.383 . S
C894 C893 1.379 . S
H895 C889 0.959 . S
H896 C889 0.961 . S
H897 C889 0.960 . S
H898 C890 0.930 . S
H899 C891 0.929 . S
H900 C908 0.929 . S
H901 C910 0.930 . S
H902 C912 0.930 . S
H903 C915 0.929 . S
H904 C918 0.930 . S
H905 C920 0.960 . S
H906 C920 0.960 . S
H907 C920 0.960 . S
C908 H900 0.929 . S
C908 C909 1.377 . S
C908 C910 1.384 . S
C909 C908 1.377 . S
C909 C915 1.390 1_554 S
C910 H901 0.930 . S
C910 C908 1.384 . S
C910 C911 1.372 . S
C911 C910 1.372 . S
C911 C912 1.400 1_554 S
C911 C916 1.490 . S
C912 H902 0.930 . S
C912 C911 1.400 1_556 S
C912 C915 1.386 . S
H913 C929 0.930 . S
H914 C930 0.931 . S
C915 H903 0.929 . S
C915 C909 1.390 1_556 S
C915 C912 1.386 . S
C916 C911 1.490 . S
C916 C918 1.395 . S
C916 C919 1.403 1_554 S
H917 C923 0.930 . S
C918 H904 0.930 . S
C918 C916 1.395 . S
C918 C921 1.403 . S
C919 C916 1.403 1_556 S
C919 C920 1.524 . S
C919 C923 1.400 . S
C920 H905 0.960 . S
C920 H906 0.960 . S
C920 H907 0.960 . S
C920 C919 1.524 . S
C921 C918 1.403 . S
C921 C922 1.392 . S
C921 C925 1.495 . S
C922 C921 1.392 . S
C922 C923 1.385 1_554 S
C922 C924 1.478 . S
C923 H917 0.930 . S
C923 C919 1.400 . S
C923 C922 1.385 1_556 S
C924 C922 1.478 . S
C924 C926 1.381 . S
C924 C930 1.383 1_554 S
C925 C921 1.495 . S
C925 H931 0.959 . S
C925 H932 0.961 . S
C925 H933 0.960 . S
C926 C924 1.381 . S
C926 C927 1.394 . S
C926 H934 0.930 . S
C927 C926 1.394 . S
C927 C928 1.383 . S
C927 H935 0.929 . S
C928 C927 1.383 . S
C928 C929 1.377 1_554 S
C929 H913 0.930 . S
C929 C928 1.377 1_556 S
C929 C930 1.379 . S
C930 H914 0.931 . S
C930 C924 1.383 1_556 S
C930 C929 1.379 . S
H931 C925 0.959 . S
H932 C925 0.961 . S
H933 C925 0.960 . S
H934 C926 0.930 . S
H935 C927 0.929 . S
H936 C944 0.929 . S
H937 C946 0.930 . S
H938 C948 0.930 . S
H939 C951 0.929 . S
H940 C954 0.930 . S
H941 C956 0.960 . S
H942 C956 0.960 . S
H943 C956 0.960 . S
C944 H936 0.929 . S
C944 C945 1.377 . S
C944 C946 1.384 . S
C945 C944 1.377 . S
C945 C951 1.390 . S
C946 H937 0.930 . S
C946 C944 1.384 . S
C946 C947 1.372 . S
C947 C946 1.372 . S
C947 C948 1.400 . S
C947 C952 1.490 . S
C948 H938 0.930 . S
C948 C947 1.400 . S
C948 C951 1.386 . S
H949 C965 0.930 . S
H950 C966 0.931 . S
C951 H939 0.929 . S
C951 C945 1.390 . S
C951 C948 1.386 . S
C952 C947 1.490 . S
C952 C954 1.395 1_565 S
C952 C955 1.403 . S
H953 C959 0.930 . S
C954 H940 0.930 . S
C954 C952 1.395 1_545 S
C954 C957 1.403 . S
C955 C952 1.403 . S
C955 C956 1.524 . S
C955 C959 1.400 . S
C956 H941 0.960 . S
C956 H942 0.960 . S
C956 H943 0.960 . S
C956 C955 1.524 . S
C957 C954 1.403 . S
C957 C958 1.392 . S
C957 C961 1.495 . S
C958 C957 1.392 . S
C958 C959 1.385 1_545 S
C958 C960 1.478 . S
C959 H953 0.930 . S
C959 C955 1.400 . S
C959 C958 1.385 1_565 S
C960 C958 1.478 . S
C960 C962 1.381 . S
C960 C966 1.383 . S
C961 C957 1.495 . S
C961 H967 0.959 . S
C961 H968 0.961 . S
C961 H969 0.960 . S
C962 C960 1.381 . S
C962 C963 1.394 . S
C962 H970 0.930 . S
C963 C962 1.394 . S
C963 C964 1.383 . S
C963 H971 0.929 . S
C964 C963 1.383 . S
C964 C965 1.377 . S
C965 H949 0.930 . S
C965 C964 1.377 . S
C965 C966 1.379 . S
C966 H950 0.931 . S
C966 C960 1.383 . S
C966 C965 1.379 . S
H967 C961 0.959 . S
H968 C961 0.961 . S
H969 C961 0.960 . S
H970 C962 0.930 . S
H971 C963 0.929 . S
H972 C980 0.929 . S
H973 C982 0.930 . S
H974 C984 0.930 . S
H975 C987 0.929 . S
H976 C990 0.930 . S
H977 C992 0.960 . S
H978 C992 0.960 . S
H979 C992 0.960 . S
C980 H972 0.929 . S
C980 C981 1.377 . S
C980 C982 1.384 . S
C981 C980 1.377 . S
C981 C987 1.390 . S
C982 H973 0.930 . S
C982 C980 1.384 . S
C982 C983 1.372 . S
C983 C982 1.372 . S
C983 C984 1.400 . S
C983 C988 1.490 . S
C984 H974 0.930 . S
C984 C983 1.400 . S
C984 C987 1.386 . S
H985 C1001 0.930 . S
H986 C1002 0.931 . S
C987 H975 0.929 . S
C987 C981 1.390 . S
C987 C984 1.386 . S
C988 C983 1.490 . S
C988 C990 1.395 . S
C988 C991 1.403 . S
H989 C995 0.930 . S
C990 H976 0.930 . S
C990 C988 1.395 . S
C990 C993 1.403 . S
C991 C988 1.403 . S
C991 C992 1.524 . S
C991 C995 1.400 . S
C992 H977 0.960 . S
C992 H978 0.960 . S
C992 H979 0.960 . S
C992 C991 1.524 . S
C993 C990 1.403 . S
C993 C994 1.392 . S
C993 C997 1.495 . S
C994 C993 1.392 . S
C994 C995 1.385 . S
C994 C996 1.478 . S
C995 H989 0.930 . S
C995 C991 1.400 . S
C995 C994 1.385 . S
C996 C994 1.478 . S
C996 C998 1.381 . S
C996 C1002 1.383 . S
C997 C993 1.495 . S
C997 H1003 0.959 . S
C997 H1004 0.961 . S
C997 H1005 0.960 . S
C998 C996 1.381 . S
C998 C999 1.394 . S
C998 H1006 0.930 . S
C999 C998 1.394 . S
C999 C1000 1.383 . S
C999 H1007 0.929 . S
C1000 C999 1.383 . S
C1000 C1001 1.377 . S
C1001 H985 0.930 . S
C1001 C1000 1.377 . S
C1001 C1002 1.379 . S
C1002 H986 0.931 . S
C1002 C996 1.383 . S
C1002 C1001 1.379 . S
H1003 C997 0.959 . S
H1004 C997 0.961 . S
H1005 C997 0.960 . S
H1006 C998 0.930 . S
H1007 C999 0.929 . S
H1008 C1016 0.929 . S
H1009 C1018 0.930 . S
H1010 C1020 0.930 . S
H1011 C1023 0.929 . S
H1012 C1026 0.930 . S
H1013 C1028 0.960 . S
H1014 C1028 0.960 . S
H1015 C1028 0.960 1_655 S
C1016 H1008 0.929 . S
C1016 C1017 1.377 . S
C1016 C1018 1.384 . S
C1017 C1016 1.377 . S
C1017 C1023 1.390 1_556 S
C1018 H1009 0.930 . S
C1018 C1016 1.384 . S
C1018 C1019 1.372 . S
C1019 C1018 1.372 . S
C1019 C1020 1.400 1_556 S
C1019 C1024 1.490 . S
C1020 H1010 0.930 . S
C1020 C1019 1.400 1_554 S
C1020 C1023 1.386 . S
H1021 C1037 0.930 . S
H1022 C1038 0.931 . S
C1023 H1011 0.929 . S
C1023 C1017 1.390 1_554 S
C1023 C1020 1.386 . S
C1024 C1019 1.490 . S
C1024 C1026 1.395 . S
C1024 C1027 1.403 1_656 S
H1025 C1031 0.930 . S
C1026 H1012 0.930 . S
C1026 C1024 1.395 . S
C1026 C1029 1.403 . S
C1027 C1024 1.403 1_454 S
C1027 C1028 1.524 . S
C1027 C1031 1.400 . S
C1028 H1013 0.960 . S
C1028 H1014 0.960 . S
C1028 H1015 0.960 1_455 S
C1028 C1027 1.524 . S
C1029 C1026 1.403 . S
C1029 C1030 1.392 1_655 S
C1029 C1033 1.495 . S
C1030 C1029 1.392 1_455 S
C1030 C1031 1.385 1_556 S
C1030 C1032 1.478 . S
C1031 H1025 0.930 . S
C1031 C1027 1.400 . S
C1031 C1030 1.385 1_554 S
C1032 C1030 1.478 . S
C1032 C1034 1.381 . S
C1032 C1038 1.383 1_556 S
C1033 C1029 1.495 . S
C1033 H1039 0.959 . S
C1033 H1040 0.961 . S
C1033 H1041 0.960 1_655 S
C1034 C1032 1.381 . S
C1034 C1035 1.394 . S
C1034 H1042 0.930 . S
C1035 C1034 1.394 . S
C1035 C1036 1.383 . S
C1035 H1043 0.929 . S
C1036 C1035 1.383 . S
C1036 C1037 1.377 1_556 S
C1037 H1021 0.930 . S
C1037 C1036 1.377 1_554 S
C1037 C1038 1.379 . S
C1038 H1022 0.931 . S
C1038 C1032 1.383 1_554 S
C1038 C1037 1.379 . S
H1039 C1033 0.959 . S
H1040 C1033 0.961 . S
H1041 C1033 0.960 1_455 S
H1042 C1034 0.930 . S
H1043 C1035 0.929 . S
H1044 C1052 0.929 . S
H1045 C1054 0.930 . S
H1046 C1056 0.930 . S
H1047 C1059 0.929 . S
H1048 C1062 0.930 . S
H1049 C1064 0.960 . S
H1050 C1064 0.960 . S
H1051 C1064 0.960 . S
C1052 H1044 0.929 . S
C1052 C1053 1.377 . S
C1052 C1054 1.384 . S
C1053 C1052 1.377 . S
C1053 C1059 1.390 . S
C1054 H1045 0.930 . S
C1054 C1052 1.384 . S
C1054 C1055 1.372 . S
C1055 C1054 1.372 . S
C1055 C1056 1.400 . S
C1055 C1060 1.490 . S
C1056 H1046 0.930 . S
C1056 C1055 1.400 . S
C1056 C1059 1.386 . S
H1057 C1073 0.930 . S
H1058 C1074 0.931 . S
C1059 H1047 0.929 . S
C1059 C1053 1.390 . S
C1059 C1056 1.386 . S
C1060 C1055 1.490 . S
C1060 C1062 1.395 . S
C1060 C1063 1.403 . S
H1061 C1067 0.930 . S
C1062 H1048 0.930 . S
C1062 C1060 1.395 . S
C1062 C1065 1.403 . S
C1063 C1060 1.403 . S
C1063 C1064 1.524 . S
C1063 C1067 1.400 . S
C1064 H1049 0.960 . S
C1064 H1050 0.960 . S
C1064 H1051 0.960 . S
C1064 C1063 1.524 . S
C1065 C1062 1.403 . S
C1065 C1066 1.392 . S
C1065 C1069 1.495 . S
C1066 C1065 1.392 . S
C1066 C1067 1.385 . S
C1066 C1068 1.478 . S
C1067 H1061 0.930 . S
C1067 C1063 1.400 . S
C1067 C1066 1.385 . S
C1068 C1066 1.478 . S
C1068 C1070 1.381 . S
C1068 C1074 1.383 . S
C1069 C1065 1.495 . S
C1069 H1075 0.959 . S
C1069 H1076 0.961 . S
C1069 H1077 0.960 . S
C1070 C1068 1.381 . S
C1070 C1071 1.394 . S
C1070 H1078 0.930 . S
C1071 C1070 1.394 . S
C1071 C1072 1.383 . S
C1071 H1079 0.929 . S
C1072 C1071 1.383 . S
C1072 C1073 1.377 . S
C1073 H1057 0.930 . S
C1073 C1072 1.377 . S
C1073 C1074 1.379 . S
C1074 H1058 0.931 . S
C1074 C1068 1.383 . S
C1074 C1073 1.379 . S
H1075 C1069 0.959 . S
H1076 C1069 0.961 . S
H1077 C1069 0.960 . S
H1078 C1070 0.930 . S
H1079 C1071 0.929 . S
H1080 C1088 0.929 . S
H1081 C1090 0.930 . S
H1082 C1092 0.930 . S
H1083 C1095 0.929 . S
H1084 C1098 0.930 . S
H1085 C1100 0.960 . S
H1086 C1100 0.960 . S
H1087 C1100 0.960 . S
C1088 H1080 0.929 . S
C1088 C1089 1.377 . S
C1088 C1090 1.384 . S
C1089 C1088 1.377 . S
C1089 C1095 1.390 . S
C1090 H1081 0.930 . S
C1090 C1088 1.384 . S
C1090 C1091 1.372 . S
C1091 C1090 1.372 . S
C1091 C1092 1.400 . S
C1091 C1096 1.490 . S
C1092 H1082 0.930 . S
C1092 C1091 1.400 . S
C1092 C1095 1.386 . S
H1093 C1109 0.930 . S
H1094 C1110 0.931 . S
C1095 H1083 0.929 . S
C1095 C1089 1.390 . S
C1095 C1092 1.386 . S
C1096 C1091 1.490 . S
C1096 C1098 1.395 . S
C1096 C1099 1.403 . S
H1097 C1103 0.930 . S
C1098 H1084 0.930 . S
C1098 C1096 1.395 . S
C1098 C1101 1.403 1_655 S
C1099 C1096 1.403 . S
C1099 C1100 1.524 . S
C1099 C1103 1.400 1_655 S
C1100 H1085 0.960 . S
C1100 H1086 0.960 . S
C1100 H1087 0.960 . S
C1100 C1099 1.524 . S
C1101 C1098 1.403 1_455 S
C1101 C1102 1.392 . S
C1101 C1105 1.495 . S
C1102 C1101 1.392 . S
C1102 C1103 1.385 . S
C1102 C1104 1.478 . S
C1103 H1097 0.930 . S
C1103 C1099 1.400 1_455 S
C1103 C1102 1.385 . S
C1104 C1102 1.478 . S
C1104 C1106 1.381 . S
C1104 C1110 1.383 . S
C1105 C1101 1.495 . S
C1105 H1111 0.959 . S
C1105 H1112 0.961 . S
C1105 H1113 0.960 . S
C1106 C1104 1.381 . S
C1106 C1107 1.394 . S
C1106 H1114 0.930 . S
C1107 C1106 1.394 . S
C1107 C1108 1.383 . S
C1107 H1115 0.929 . S
C1108 C1107 1.383 . S
C1108 C1109 1.377 . S
C1109 H1093 0.930 . S
C1109 C1108 1.377 . S
C1109 C1110 1.379 . S
C1110 H1094 0.931 . S
C1110 C1104 1.383 . S
C1110 C1109 1.379 . S
H1111 C1105 0.959 . S
H1112 C1105 0.961 . S
H1113 C1105 0.960 . S
H1114 C1106 0.930 . S
H1115 C1107 0.929 . S
H1116 C1124 0.929 . S
H1117 C1126 0.930 . S
H1118 C1128 0.930 . S
H1119 C1131 0.929 . S
H1120 C1134 0.930 . S
H1121 C1136 0.960 . S
H1122 C1136 0.960 . S
H1123 C1136 0.960 . S
C1124 H1116 0.929 . S
C1124 C1125 1.377 1_556 S
C1124 C1126 1.384 . S
C1125 C1124 1.377 1_554 S
C1125 C1131 1.390 . S
C1126 H1117 0.930 . S
C1126 C1124 1.384 . S
C1126 C1127 1.372 1_556 S
C1127 C1126 1.372 1_554 S
C1127 C1128 1.400 . S
C1127 C1132 1.488 1_554 S
C1128 H1118 0.930 . S
C1128 C1127 1.400 . S
C1128 C1131 1.386 . S
H1129 C1145 0.930 . S
H1130 C1146 0.931 . S
C1131 H1119 0.929 . S
C1131 C1125 1.390 . S
C1131 C1128 1.386 . S
C1132 C1127 1.488 1_556 S
C1132 C1134 1.420 . S
C1132 C1135 1.380 1_556 S
H1133 C1139 0.930 . S
C1134 H1120 0.930 . S
C1134 C1132 1.420 . S
C1134 C1137 1.403 1_545 S
C1135 C1132 1.380 1_554 S
C1135 C1136 1.524 . S
C1135 C1139 1.400 1_545 S
C1136 H1121 0.960 . S
C1136 H1122 0.960 . S
C1136 H1123 0.960 . S
C1136 C1135 1.524 . S
C1137 C1134 1.403 1_565 S
C1137 C1138 1.392 . S
C1137 C1141 1.495 . S
C1138 C1137 1.392 . S
C1138 C1139 1.385 1_556 S
C1138 C1140 1.478 . S
C1139 H1133 0.930 . S
C1139 C1135 1.400 1_565 S
C1139 C1138 1.385 1_554 S
C1140 C1138 1.478 . S
C1140 C1142 1.381 . S
C1140 C1146 1.383 1_556 S
C1141 C1137 1.495 . S
C1141 H1147 0.959 . S
C1141 H1148 0.961 . S
C1141 H1149 0.960 . S
C1142 C1140 1.381 . S
C1142 C1143 1.394 . S
C1142 H1150 0.930 . S
C1143 C1142 1.394 . S
C1143 C1144 1.383 . S
C1143 H1151 0.929 . S
C1144 C1143 1.383 . S
C1144 C1145 1.377 1_556 S
C1145 H1129 0.930 . S
C1145 C1144 1.377 1_554 S
C1145 C1146 1.379 . S
C1146 H1130 0.931 . S
C1146 C1140 1.383 1_554 S
C1146 C1145 1.379 . S
H1147 C1141 0.959 . S
H1148 C1141 0.961 . S
H1149 C1141 0.960 . S
H1150 C1142 0.930 . S
H1151 C1143 0.929 . S
H1152 C1160 0.929 . S
H1153 C1162 0.930 . S
H1154 C1164 0.930 . S
H1155 C1167 0.929 . S
H1156 C1170 0.930 . S
H1157 C1172 0.960 . S
H1158 C1172 0.960 . S
H1159 C1172 0.960 . S
C1160 H1152 0.929 . S
C1160 C1161 1.377 . S
C1160 C1162 1.384 . S
C1161 C1160 1.377 . S
C1161 C1167 1.390 . S
C1162 H1153 0.930 . S
C1162 C1160 1.384 . S
C1162 C1163 1.372 . S
C1163 C1162 1.372 . S
C1163 C1164 1.400 . S
C1163 C1168 1.490 . S
C1164 H1154 0.930 . S
C1164 C1163 1.400 . S
C1164 C1167 1.386 . S
H1165 C1181 0.930 . S
H1166 C1182 0.931 . S
C1167 H1155 0.929 . S
C1167 C1161 1.390 . S
C1167 C1164 1.386 . S
C1168 C1163 1.490 . S
C1168 C1170 1.395 . S
C1168 C1171 1.403 . S
H1169 C1175 0.930 . S
C1170 H1156 0.930 . S
C1170 C1168 1.395 . S
C1170 C1173 1.403 . S
C1171 C1168 1.403 . S
C1171 C1172 1.524 . S
C1171 C1175 1.400 . S
C1172 H1157 0.960 . S
C1172 H1158 0.960 . S
C1172 H1159 0.960 . S
C1172 C1171 1.524 . S
C1173 C1170 1.403 . S
C1173 C1174 1.392 . S
C1173 C1177 1.495 . S
C1174 C1173 1.392 . S
C1174 C1175 1.385 . S
C1174 C1176 1.478 . S
C1175 H1169 0.930 . S
C1175 C1171 1.400 . S
C1175 C1174 1.385 . S
C1176 C1174 1.478 . S
C1176 C1178 1.381 . S
C1176 C1182 1.383 . S
C1177 C1173 1.495 . S
C1177 H1183 0.959 . S
C1177 H1184 0.961 . S
C1177 H1185 0.960 . S
C1178 C1176 1.381 . S
C1178 C1179 1.394 . S
C1178 H1186 0.930 . S
C1179 C1178 1.394 . S
C1179 C1180 1.383 . S
C1179 H1187 0.929 . S
C1180 C1179 1.383 . S
C1180 C1181 1.377 . S
C1181 H1165 0.930 . S
C1181 C1180 1.377 . S
C1181 C1182 1.379 . S
C1182 H1166 0.931 . S
C1182 C1176 1.383 . S
C1182 C1181 1.379 . S
H1183 C1177 0.959 . S
H1184 C1177 0.961 . S
H1185 C1177 0.960 . S
H1186 C1178 0.930 . S
H1187 C1179 0.929 . S
H1188 C1196 0.929 . S
H1189 C1198 0.930 . S
H1190 C1200 0.930 . S
H1191 C1203 0.929 . S
H1192 C1206 0.930 . S
H1193 C1208 0.960 . S
H1194 C1208 0.960 . S
H1195 C1208 0.960 . S
C1196 H1188 0.929 . S
C1196 C1197 1.377 . S
C1196 C1198 1.384 . S
C1197 C1196 1.377 . S
C1197 C1203 1.390 . S
C1198 H1189 0.930 . S
C1198 C1196 1.384 . S
C1198 C1199 1.372 . S
C1199 C1198 1.372 . S
C1199 C1200 1.400 . S
C1199 C1204 1.490 . S
C1200 H1190 0.930 . S
C1200 C1199 1.400 . S
C1200 C1203 1.386 . S
H1201 C1217 0.930 . S
H1202 C1218 0.931 . S
C1203 H1191 0.929 . S
C1203 C1197 1.390 . S
C1203 C1200 1.386 . S
C1204 C1199 1.490 . S
C1204 C1206 1.395 . S
C1204 C1207 1.403 . S
H1205 C1211 0.930 . S
C1206 H1192 0.930 . S
C1206 C1204 1.395 . S
C1206 C1209 1.403 1_455 S
C1207 C1204 1.403 . S
C1207 C1208 1.524 . S
C1207 C1211 1.400 1_455 S
C1208 H1193 0.960 . S
C1208 H1194 0.960 . S
C1208 H1195 0.960 . S
C1208 C1207 1.524 . S
C1209 C1206 1.403 1_655 S
C1209 C1210 1.392 . S
C1209 C1213 1.495 . S
C1210 C1209 1.392 . S
C1210 C1211 1.385 . S
C1210 C1212 1.478 . S
C1211 H1205 0.930 . S
C1211 C1207 1.400 1_655 S
C1211 C1210 1.385 . S
C1212 C1210 1.478 . S
C1212 C1214 1.381 . S
C1212 C1218 1.383 . S
C1213 C1209 1.495 . S
C1213 H1219 0.959 . S
C1213 H1220 0.961 . S
C1213 H1221 0.960 . S
C1214 C1212 1.381 . S
C1214 C1215 1.394 . S
C1214 H1222 0.930 . S
C1215 C1214 1.394 . S
C1215 C1216 1.383 . S
C1215 H1223 0.929 . S
C1216 C1215 1.383 . S
C1216 C1217 1.377 . S
C1217 H1201 0.930 . S
C1217 C1216 1.377 . S
C1217 C1218 1.379 . S
C1218 H1202 0.931 . S
C1218 C1212 1.383 . S
C1218 C1217 1.379 . S
H1219 C1213 0.959 . S
H1220 C1213 0.961 . S
H1221 C1213 0.960 . S
H1222 C1214 0.930 . S
H1223 C1215 0.929 . S
H1224 C1232 0.929 . S
H1225 C1234 0.930 . S
H1226 C1236 0.930 . S
H1227 C1239 0.929 . S
H1228 C1242 0.930 . S
H1229 C1244 0.960 . S
H1230 C1244 0.960 . S
H1231 C1244 0.960 1_554 S
C1232 H1224 0.929 . S
C1232 C1233 1.377 . S
C1232 C1234 1.384 . S
C1233 C1232 1.377 . S
C1233 C1239 1.390 1_556 S
C1234 H1225 0.930 . S
C1234 C1232 1.384 . S
C1234 C1235 1.372 . S
C1235 C1234 1.372 . S
C1235 C1236 1.400 1_556 S
C1235 C1240 1.490 . S
C1236 H1226 0.930 . S
C1236 C1235 1.400 1_554 S
C1236 C1239 1.386 . S
H1237 C1253 0.930 . S
H1238 C1254 0.931 . S
C1239 H1227 0.929 . S
C1239 C1233 1.390 1_554 S
C1239 C1236 1.386 . S
C1240 C1235 1.490 . S
C1240 C1242 1.395 . S
C1240 C1243 1.403 . S
H1241 C1247 0.930 1_554 S
C1242 H1228 0.930 . S
C1242 C1240 1.395 . S
C1242 C1245 1.405 1_545 S
C1243 C1240 1.403 . S
C1243 C1244 1.524 . S
C1243 C1247 1.401 1_545 S
C1244 H1229 0.960 . S
C1244 H1230 0.960 . S
C1244 H1231 0.960 1_556 S
C1244 C1243 1.524 . S
C1245 C1242 1.405 1_565 S
C1245 C1246 1.392 1_556 S
C1245 C1249 1.494 1_556 S
C1246 C1245 1.392 1_554 S
C1246 C1247 1.385 1_554 S
C1246 C1248 1.478 . S
C1247 H1241 0.930 1_556 S
C1247 C1243 1.401 1_565 S
C1247 C1246 1.385 1_556 S
C1248 C1246 1.478 . S
C1248 C1250 1.381 1_554 S
C1248 C1254 1.383 . S
C1249 C1245 1.494 1_554 S
C1249 H1255 0.958 1_554 S
C1249 H1256 0.981 . S
C1249 H1257 0.942 1_554 S
C1250 C1248 1.381 1_556 S
C1250 C1251 1.394 . S
C1250 H1258 0.930 . S
C1251 C1250 1.394 . S
C1251 C1252 1.383 1_556 S
C1251 H1259 0.929 . S
C1252 C1251 1.383 1_554 S
C1252 C1253 1.377 . S
C1253 H1237 0.930 . S
C1253 C1252 1.377 . S
C1253 C1254 1.379 . S
C1254 H1238 0.931 . S
C1254 C1248 1.383 . S
C1254 C1253 1.379 . S
H1255 C1249 0.958 1_556 S
H1256 C1249 0.981 . S
H1257 C1249 0.942 1_556 S
H1258 C1250 0.930 . S
H1259 C1251 0.929 . S
H1260 C1268 0.929 . S
H1261 C1270 0.930 . S
H1262 C1272 0.930 . S
H1263 C1275 0.929 . S
H1264 C1278 0.930 . S
H1265 C1280 0.960 . S
H1266 C1280 0.960 . S
H1267 C1280 0.960 . S
C1268 H1260 0.929 . S
C1268 C1269 1.377 . S
C1268 C1270 1.384 . S
C1269 C1268 1.377 . S
C1269 C1275 1.390 . S
C1270 H1261 0.930 . S
C1270 C1268 1.384 . S
C1270 C1271 1.372 . S
C1271 C1270 1.372 . S
C1271 C1272 1.400 . S
C1271 C1276 1.490 . S
C1272 H1262 0.930 . S
C1272 C1271 1.400 . S
C1272 C1275 1.386 . S
H1273 C1289 0.930 . S
H1274 C1290 0.931 . S
C1275 H1263 0.929 . S
C1275 C1269 1.390 . S
C1275 C1272 1.386 . S
C1276 C1271 1.490 . S
C1276 C1278 1.395 . S
C1276 C1279 1.403 . S
H1277 C1283 0.930 . S
C1278 H1264 0.930 . S
C1278 C1276 1.395 . S
C1278 C1281 1.403 . S
C1279 C1276 1.403 . S
C1279 C1280 1.524 . S
C1279 C1283 1.400 . S
C1280 H1265 0.960 . S
C1280 H1266 0.960 . S
C1280 H1267 0.960 . S
C1280 C1279 1.524 . S
C1281 C1278 1.403 . S
C1281 C1282 1.392 . S
C1281 C1285 1.495 . S
C1282 C1281 1.392 . S
C1282 C1283 1.385 . S
C1282 C1284 1.478 . S
C1283 H1277 0.930 . S
C1283 C1279 1.400 . S
C1283 C1282 1.385 . S
C1284 C1282 1.478 . S
C1284 C1286 1.381 . S
C1284 C1290 1.383 . S
C1285 C1281 1.495 . S
C1285 H1291 0.959 . S
C1285 H1292 0.961 . S
C1285 H1293 0.960 . S
C1286 C1284 1.381 . S
C1286 C1287 1.394 . S
C1286 H1294 0.930 . S
C1287 C1286 1.394 . S
C1287 C1288 1.383 . S
C1287 H1295 0.929 . S
C1288 C1287 1.383 . S
C1288 C1289 1.377 . S
C1289 H1273 0.930 . S
C1289 C1288 1.377 . S
C1289 C1290 1.379 . S
C1290 H1274 0.931 . S
C1290 C1284 1.383 . S
C1290 C1289 1.379 . S
H1291 C1285 0.959 . S
H1292 C1285 0.961 . S
H1293 C1285 0.960 . S
H1294 C1286 0.930 . S
H1295 C1287 0.929 . S
H1296 C1304 0.929 . S
H1297 C1306 0.930 . S
H1298 C1308 0.930 . S
H1299 C1311 0.929 . S
H1300 C1314 0.930 . S
H1301 C1316 0.960 . S
H1302 C1316 0.960 . S
H1303 C1316 0.960 . S
C1304 H1296 0.929 . S
C1304 C1305 1.377 . S
C1304 C1306 1.384 . S
C1305 C1304 1.377 . S
C1305 C1311 1.390 . S
C1306 H1297 0.930 . S
C1306 C1304 1.384 . S
C1306 C1307 1.372 . S
C1307 C1306 1.372 . S
C1307 C1308 1.400 . S
C1307 C1312 1.490 . S
C1308 H1298 0.930 . S
C1308 C1307 1.400 . S
C1308 C1311 1.386 . S
H1309 C1325 0.930 . S
H1310 C1326 0.931 . S
C1311 H1299 0.929 . S
C1311 C1305 1.390 . S
C1311 C1308 1.386 . S
C1312 C1307 1.490 . S
C1312 C1314 1.395 . S
C1312 C1315 1.403 . S
H1313 C1319 0.930 . S
C1314 H1300 0.930 . S
C1314 C1312 1.395 . S
C1314 C1317 1.403 . S
C1315 C1312 1.403 . S
C1315 C1316 1.524 . S
C1315 C1319 1.400 . S
C1316 H1301 0.960 . S
C1316 H1302 0.960 . S
C1316 H1303 0.960 . S
C1316 C1315 1.524 . S
C1317 C1314 1.403 . S
C1317 C1318 1.392 . S
C1317 C1321 1.495 . S
C1318 C1317 1.392 . S
C1318 C1319 1.385 . S
C1318 C1320 1.478 . S
C1319 H1313 0.930 . S
C1319 C1315 1.400 . S
C1319 C1318 1.385 . S
C1320 C1318 1.478 . S
C1320 C1322 1.381 . S
C1320 C1326 1.383 . S
C1321 C1317 1.495 . S
C1321 H1327 0.959 . S
C1321 H1328 0.961 . S
C1321 H1329 0.960 . S
C1322 C1320 1.381 . S
C1322 C1323 1.394 . S
C1322 H1330 0.930 . S
C1323 C1322 1.394 . S
C1323 C1324 1.383 . S
C1323 H1331 0.929 . S
C1324 C1323 1.383 . S
C1324 C1325 1.377 . S
C1325 H1309 0.930 . S
C1325 C1324 1.377 . S
C1325 C1326 1.379 . S
C1326 H1310 0.931 . S
C1326 C1320 1.383 . S
C1326 C1325 1.379 . S
H1327 C1321 0.959 . S
H1328 C1321 0.961 . S
H1329 C1321 0.960 . S
H1330 C1322 0.930 . S
H1331 C1323 0.929 . S
H1332 C1340 0.929 . S
H1333 C1342 0.930 . S
H1334 C1344 0.930 . S
H1335 C1347 0.929 . S
H1336 C1350 0.930 . S
H1337 C1352 0.960 . S
H1338 C1352 0.960 . S
H1339 C1352 0.960 . S
C1340 H1332 0.929 . S
C1340 C1341 1.377 . S
C1340 C1342 1.384 . S
C1341 C1340 1.377 . S
C1341 C1347 1.390 1_556 S
C1342 H1333 0.930 . S
C1342 C1340 1.384 . S
C1342 C1343 1.372 . S
C1343 C1342 1.372 . S
C1343 C1344 1.400 1_556 S
C1343 C1348 1.490 . S
C1344 H1334 0.930 . S
C1344 C1343 1.400 1_554 S
C1344 C1347 1.386 . S
H1345 C1361 0.930 . S
H1346 C1362 0.931 . S
C1347 H1335 0.929 . S
C1347 C1341 1.390 1_554 S
C1347 C1344 1.386 . S
C1348 C1343 1.490 . S
C1348 C1350 1.395 1_556 S
C1348 C1351 1.403 . S
H1349 C1355 0.930 . S
C1350 H1336 0.930 . S
C1350 C1348 1.395 1_554 S
C1350 C1353 1.403 . S
C1351 C1348 1.403 . S
C1351 C1352 1.524 . S
C1351 C1355 1.400 . S
C1352 H1337 0.960 . S
C1352 H1338 0.960 . S
C1352 H1339 0.960 . S
C1352 C1351 1.524 . S
C1353 C1350 1.403 . S
C1353 C1354 1.392 . S
C1353 C1357 1.495 . S
C1354 C1353 1.392 . S
C1354 C1355 1.385 1_554 S
C1354 C1356 1.478 . S
C1355 H1349 0.930 . S
C1355 C1351 1.400 . S
C1355 C1354 1.385 1_556 S
C1356 C1354 1.478 . S
C1356 C1358 1.381 1_554 S
C1356 C1362 1.383 . S
C1357 C1353 1.495 . S
C1357 H1363 0.959 . S
C1357 H1364 0.961 . S
C1357 H1365 0.987 . S
C1358 C1356 1.381 1_556 S
C1358 C1359 1.394 . S
C1358 H1366 0.930 . S
C1359 C1358 1.394 . S
C1359 C1360 1.383 1_556 S
C1359 H1367 0.929 . S
C1360 C1359 1.383 1_554 S
C1360 C1361 1.377 . S
C1361 H1345 0.930 . S
C1361 C1360 1.377 . S
C1361 C1362 1.379 . S
C1362 H1346 0.931 . S
C1362 C1356 1.383 . S
C1362 C1361 1.379 . S
H1363 C1357 0.959 . S
H1364 C1357 0.961 . S
H1365 C1357 0.987 . S
H1366 C1358 0.930 . S
H1367 C1359 0.929 . S
H1368 C1376 0.929 . S
H1369 C1378 0.930 . S
H1370 C1380 0.930 . S
H1371 C1383 0.929 . S
H1372 C1386 0.930 . S
H1373 C1388 0.960 . S
H1374 C1388 0.960 . S
H1375 C1388 0.960 . S
C1376 H1368 0.929 . S
C1376 C1377 1.377 . S
C1376 C1378 1.384 . S
C1377 C1376 1.377 . S
C1377 C1383 1.390 . S
C1378 H1369 0.930 . S
C1378 C1376 1.384 . S
C1378 C1379 1.372 . S
C1379 C1378 1.372 . S
C1379 C1380 1.400 . S
C1379 C1384 1.490 . S
C1380 H1370 0.930 . S
C1380 C1379 1.400 . S
C1380 C1383 1.386 . S
H1381 C1397 0.930 . S
H1382 C1398 0.931 . S
C1383 H1371 0.929 . S
C1383 C1377 1.390 . S
C1383 C1380 1.386 . S
C1384 C1379 1.490 . S
C1384 C1386 1.395 . S
C1384 C1387 1.403 . S
H1385 C1391 0.930 . S
C1386 H1372 0.930 . S
C1386 C1384 1.395 . S
C1386 C1389 1.403 . S
C1387 C1384 1.403 . S
C1387 C1388 1.524 . S
C1387 C1391 1.400 . S
C1388 H1373 0.960 . S
C1388 H1374 0.960 . S
C1388 H1375 0.960 . S
C1388 C1387 1.524 . S
C1389 C1386 1.403 . S
C1389 C1390 1.392 . S
C1389 C1393 1.495 . S
C1390 C1389 1.392 . S
C1390 C1391 1.385 . S
C1390 C1392 1.478 . S
C1391 H1385 0.930 . S
C1391 C1387 1.400 . S
C1391 C1390 1.385 . S
C1392 C1390 1.478 . S
C1392 C1394 1.381 . S
C1392 C1398 1.383 . S
C1393 C1389 1.495 . S
C1393 H1399 0.959 . S
C1393 H1400 0.961 . S
C1393 H1401 0.960 . S
C1394 C1392 1.381 . S
C1394 C1395 1.394 . S
C1394 H1402 0.930 . S
C1395 C1394 1.394 . S
C1395 C1396 1.383 . S
C1395 H1403 0.929 . S
C1396 C1395 1.383 . S
C1396 C1397 1.377 . S
C1397 H1381 0.930 . S
C1397 C1396 1.377 . S
C1397 C1398 1.379 . S
C1398 H1382 0.931 . S
C1398 C1392 1.383 . S
C1398 C1397 1.379 . S
H1399 C1393 0.959 . S
H1400 C1393 0.961 . S
H1401 C1393 0.960 . S
H1402 C1394 0.930 . S
H1403 C1395 0.929 . S
H1404 C1412 0.929 . S
H1405 C1414 0.930 . S
H1406 C1416 0.930 . S
H1407 C1419 0.929 . S
H1408 C1422 0.930 . S
H1409 C1424 0.960 . S
H1410 C1424 0.960 . S
H1411 C1424 0.960 . S
C1412 H1404 0.929 . S
C1412 C1413 1.377 . S
C1412 C1414 1.384 . S
C1413 C1412 1.377 . S
C1413 C1419 1.390 . S
C1414 H1405 0.930 . S
C1414 C1412 1.384 . S
C1414 C1415 1.372 . S
C1415 C1414 1.372 . S
C1415 C1416 1.400 . S
C1415 C1420 1.490 . S
C1416 H1406 0.930 . S
C1416 C1415 1.400 . S
C1416 C1419 1.386 . S
H1417 C1433 0.930 . S
H1418 C1434 0.931 . S
C1419 H1407 0.929 . S
C1419 C1413 1.390 . S
C1419 C1416 1.386 . S
C1420 C1415 1.490 . S
C1420 C1422 1.395 . S
C1420 C1423 1.403 . S
H1421 C1427 0.930 . S
C1422 H1408 0.930 . S
C1422 C1420 1.395 . S
C1422 C1425 1.403 . S
C1423 C1420 1.403 . S
C1423 C1424 1.524 . S
C1423 C1427 1.400 . S
C1424 H1409 0.960 . S
C1424 H1410 0.960 . S
C1424 H1411 0.960 . S
C1424 C1423 1.524 . S
C1425 C1422 1.403 . S
C1425 C1426 1.392 . S
C1425 C1429 1.495 . S
C1426 C1425 1.392 . S
C1426 C1427 1.385 . S
C1426 C1428 1.478 . S
C1427 H1421 0.930 . S
C1427 C1423 1.400 . S
C1427 C1426 1.385 . S
C1428 C1426 1.478 . S
C1428 C1430 1.381 . S
C1428 C1434 1.383 . S
C1429 C1425 1.495 . S
C1429 H1435 0.959 . S
C1429 H1436 0.961 . S
C1429 H1437 0.960 . S
C1430 C1428 1.381 . S
C1430 C1431 1.394 . S
C1430 H1438 0.930 . S
C1431 C1430 1.394 . S
C1431 C1432 1.383 . S
C1431 H1439 0.929 . S
C1432 C1431 1.383 . S
C1432 C1433 1.377 . S
C1433 H1417 0.930 . S
C1433 C1432 1.377 . S
C1433 C1434 1.379 . S
C1434 H1418 0.931 . S
C1434 C1428 1.383 . S
C1434 C1433 1.379 . S
H1435 C1429 0.959 . S
H1436 C1429 0.961 . S
H1437 C1429 0.960 . S
H1438 C1430 0.930 . S
H1439 C1431 0.929 . S
H1440 C1448 0.929 . S
H1441 C1450 0.930 . S
H1442 C1452 0.930 . S
H1443 C1455 0.929 . S
H1444 C1458 0.930 . S
H1445 C1460 0.960 . S
H1446 C1460 0.960 . S
H1447 C1460 0.960 . S
C1448 H1440 0.929 . S
C1448 C1449 1.377 1_554 S
C1448 C1450 1.384 . S
C1449 C1448 1.377 1_556 S
C1449 C1455 1.390 . S
C1450 H1441 0.930 . S
C1450 C1448 1.384 . S
C1450 C1451 1.372 1_554 S
C1451 C1450 1.372 1_556 S
C1451 C1452 1.400 . S
C1451 C1456 1.490 . S
C1452 H1442 0.930 . S
C1452 C1451 1.400 . S
C1452 C1455 1.386 . S
H1453 C1469 0.930 . S
H1454 C1470 0.931 . S
C1455 H1443 0.929 . S
C1455 C1449 1.390 . S
C1455 C1452 1.386 . S
C1456 C1451 1.490 . S
C1456 C1458 1.395 1_556 S
C1456 C1459 1.403 . S
H1457 C1463 0.930 . S
C1458 H1444 0.930 . S
C1458 C1456 1.395 1_554 S
C1458 C1461 1.403 . S
C1459 C1456 1.403 . S
C1459 C1460 1.524 . S
C1459 C1463 1.400 . S
C1460 H1445 0.960 . S
C1460 H1446 0.960 . S
C1460 H1447 0.960 . S
C1460 C1459 1.524 . S
C1461 C1458 1.403 . S
C1461 C1462 1.392 . S
C1461 C1465 1.495 . S
C1462 C1461 1.392 . S
C1462 C1463 1.385 1_554 S
C1462 C1464 1.478 . S
C1463 H1457 0.930 . S
C1463 C1459 1.400 . S
C1463 C1462 1.385 1_556 S
C1464 C1462 1.478 . S
C1464 C1466 1.381 . S
C1464 C1470 1.383 1_554 S
C1465 C1461 1.495 . S
C1465 H1471 0.959 . S
C1465 H1472 0.961 . S
C1465 H1473 0.960 . S
C1466 C1464 1.381 . S
C1466 C1467 1.394 . S
C1466 H1474 0.930 . S
C1467 C1466 1.394 . S
C1467 C1468 1.383 . S
C1467 H1475 0.929 . S
C1468 C1467 1.383 . S
C1468 C1469 1.377 1_554 S
C1469 H1453 0.930 . S
C1469 C1468 1.377 1_556 S
C1469 C1470 1.379 . S
C1470 H1454 0.931 . S
C1470 C1464 1.383 1_556 S
C1470 C1469 1.379 . S
H1471 C1465 0.959 . S
H1472 C1465 0.961 . S
H1473 C1465 0.960 . S
H1474 C1466 0.930 . S
H1475 C1467 0.929 . S
C405 C381 1.944 . S
C424 C18 1.942 . S
C441 C216 2.037 . S
C460 C51 2.043 . S
C477 C84 1.945 . S
C496 C249 1.941 . S
C513 C282 1.945 . S
C532 C117 1.938 . S
C549 C315 2.038 . S
C568 C150 2.037 . S
C585 C348 1.944 . S
C604 C183 1.941 . S
C621 C7 0.504 . S
C640 C337 0.567 . S
C657 C40 0.470 . S
C676 C370 0.528 . S
C693 C205 0.472 . S
C712 C73 0.537 . S
C729 C238 0.499 . S
C748 C106 0.549 . S
C765 C271 0.478 . S
C784 C139 0.546 . S
C801 C172 0.439 . S
C820 C304 0.360 . S
C837 N112 1.249 . S
C856 N13 1.268 . S
C873 N46 1.265 . S
C892 N145 1.239 . S
C909 N178 1.264 . S
C928 N79 1.251 . S
C945 N211 1.262 . S
C964 N310 1.267 . S
C981 N244 1.249 . S
C1000 N343 1.270 . S
C1017 N376 1.264 . S
C1036 N277 1.250 . S
C1053 N2 0.822 . S
C1072 N299 0.852 . S
C1089 N35 0.829 . S
C1108 N332 0.803 . S
C1125 N365 0.806 . S
C1144 N68 0.770 . S
C1161 N101 0.817 . S
C1180 N200 0.856 . S
C1197 N134 0.823 . S
C1216 N233 0.789 . S
C1233 N167 0.794 . S
C1252 N266 0.819 . S
C1269 C219 1.669 . S
C1288 C21 1.676 . S
C1305 C252 1.667 . S
C1324 C54 1.672 . S
C1341 C87 1.654 . S
C1360 C285 1.653 . S
C1377 C318 1.670 . S
C1396 C120 1.663 . S
C1413 C153 1.671 . S
C1432 C351 1.677 . S
C1449 C186 1.651 . S
C1468 C384 1.658 . S
