# Generated by pormake.
# Topology uoq, (4)-cn, num edge types: 1
# Building blocks:
#     Node 0, Type 0, BuildingBlock: AZAVOO_clean_sbu_0, # of connection points: 4
#     Node 1, Type 0, BuildingBlock: AZAVOO_clean_sbu_0, # of connection points: 4
#     Node 2, Type 0, BuildingBlock: AZAVOO_clean_sbu_0, # of connection points: 4
#     Node 3, Type 0, BuildingBlock: AZAVOO_clean_sbu_0, # of connection points: 4
#     Node 4, Type 0, BuildingBlock: AZAVOO_clean_sbu_0, # of connection points: 4
#     Node 5, Type 0, BuildingBlock: AZAVOO_clean_sbu_0, # of connection points: 4
#     Node 6, Type 0, BuildingBlock: AZAVOO_clean_sbu_0, # of connection points: 4
#     Node 7, Type 0, BuildingBlock: AZAVOO_clean_sbu_0, # of connection points: 4
#     Node 8, Type 0, BuildingBlock: AZAVOO_clean_sbu_0, # of connection points: 4
#     Node 9, Type 0, BuildingBlock: AZAVOO_clean_sbu_0, # of connection points: 4
#     Node 10, Type 0, BuildingBlock: AZAVOO_clean_sbu_0, # of connection points: 4
#     Node 11, Type 0, BuildingBlock: AZAVOO_clean_sbu_0, # of connection points: 4
#     Edge 12, Type (0, 0), BuildingBlock: AJUNOK_clean_linker_0, # of connection points: 2
#     Edge 13, Type (0, 0), BuildingBlock: AJUNOK_clean_linker_0, # of connection points: 2
#     Edge 14, Type (0, 0), BuildingBlock: AJUNOK_clean_linker_0, # of connection points: 2
#     Edge 15, Type (0, 0), BuildingBlock: AJUNOK_clean_linker_0, # of connection points: 2
#     Edge 16, Type (0, 0), BuildingBlock: AJUNOK_clean_linker_0, # of connection points: 2
#     Edge 17, Type (0, 0), BuildingBlock: AJUNOK_clean_linker_0, # of connection points: 2
#     Edge 18, Type (0, 0), BuildingBlock: AJUNOK_clean_linker_0, # of connection points: 2
#     Edge 19, Type (0, 0), BuildingBlock: AJUNOK_clean_linker_0, # of connection points: 2
#     Edge 20, Type (0, 0), BuildingBlock: AJUNOK_clean_linker_0, # of connection points: 2
#     Edge 21, Type (0, 0), BuildingBlock: AJUNOK_clean_linker_0, # of connection points: 2
#     Edge 22, Type (0, 0), BuildingBlock: AJUNOK_clean_linker_0, # of connection points: 2
#     Edge 23, Type (0, 0), BuildingBlock: AJUNOK_clean_linker_0, # of connection points: 2
#     Edge 24, Type (0, 0), BuildingBlock: AJUNOK_clean_linker_0, # of connection points: 2
#     Edge 25, Type (0, 0), BuildingBlock: AJUNOK_clean_linker_0, # of connection points: 2
#     Edge 26, Type (0, 0), BuildingBlock: AJUNOK_clean_linker_0, # of connection points: 2
#     Edge 27, Type (0, 0), BuildingBlock: AJUNOK_clean_linker_0, # of connection points: 2
#     Edge 28, Type (0, 0), BuildingBlock: AJUNOK_clean_linker_0, # of connection points: 2
#     Edge 29, Type (0, 0), BuildingBlock: AJUNOK_clean_linker_0, # of connection points: 2
#     Edge 30, Type (0, 0), BuildingBlock: AJUNOK_clean_linker_0, # of connection points: 2
#     Edge 31, Type (0, 0), BuildingBlock: AJUNOK_clean_linker_0, # of connection points: 2
#     Edge 32, Type (0, 0), BuildingBlock: AJUNOK_clean_linker_0, # of connection points: 2
#     Edge 33, Type (0, 0), BuildingBlock: AJUNOK_clean_linker_0, # of connection points: 2
#     Edge 34, Type (0, 0), BuildingBlock: AJUNOK_clean_linker_0, # of connection points: 2
#     Edge 35, Type (0, 0), BuildingBlock: AJUNOK_clean_linker_0, # of connection points: 2
# Relax obj value: 0.083
# Max RMSD: 0.082
# Mean RMSD: 0.081
data_MOF--net-uoq--node1-AZAVOO_clean_sbu_0--edge1-AJUNOK_clean_linker_0
_symmetry_space_group_name_H-M    P1
_symmetry_Int_Tables_number       1
_symmetry_cell_setting            triclinic
loop_
_symmetry_equiv_pos_as_xyz
'x, y, z'
_cell_length_a     43.747735
_cell_length_b     43.64723
_cell_length_c     18.047818
_cell_angle_alpha  89.804016
_cell_angle_beta   90.242697
_cell_angle_gamma 119.47275
loop_
_atom_site_label
_atom_site_type_symbol
_atom_site_fract_x
_atom_site_fract_y
_atom_site_fract_z
_atom_type_partial_charge
Mg0 Mg 0.29978 0.4384 0.22526 0.0
O1 O 0.26884 0.44007 0.32589 0.0
O2 O 0.30195 0.45049 0.42706 0.0
Mg3 Mg 0.35401 0.45488 0.39271 0.0
C4 C 0.27345 0.44478 0.39572 0.0
C5 C 0.25282 0.41525 0.08297 0.0
O6 O 0.28279 0.42002 0.05654 0.0
O7 O 0.28948 0.38272 0.25825 0.0
O8 O 0.32502 0.39736 0.35702 0.0
O9 O 0.32633 0.49776 0.21527 0.0
O10 O 0.34722 0.46917 0.27996 0.0
C11 C 0.30335 0.3744 0.31186 0.0
C12 C 0.35037 0.49863 0.25862 0.0
O13 O 0.25042 0.41873 0.15239 0.0
Mg14 Mg 0.84968 0.30051 0.5585 0.0
O15 O 0.81924 0.26884 0.66025 0.0
O16 O 0.84272 0.30105 0.76191 0.0
Mg17 Mg 0.8893 0.35328 0.72677 0.0
C18 C 0.81993 0.27284 0.73041 0.0
C19 C 0.82531 0.25258 0.41594 0.0
O20 O 0.85148 0.28142 0.38835 0.0
O21 O 0.89572 0.29003 0.58494 0.0
O22 O 0.91718 0.32434 0.68511 0.0
O23 O 0.81658 0.32743 0.55552 0.0
O24 O 0.86662 0.34743 0.616 0.0
C25 C 0.91817 0.30315 0.63786 0.0
C26 C 0.84005 0.35091 0.59869 0.0
O27 O 0.81917 0.25141 0.48513 0.0
Mg28 Mg 0.53358 0.84986 0.89936 0.0
O29 O 0.53672 0.81703 -0.00426 0.0
O30 O 0.53114 0.83974 0.10201 0.0
Mg31 Mg 0.52516 0.88755 0.07597 0.0
C32 C 0.53519 0.8168 0.06642 0.0
C33 C 0.52653 0.80437 0.76595 0.0
O34 O 0.4986 0.80824 0.76504 0.0
O35 O 0.59026 0.89484 0.92245 0.0
O36 O 0.5802 0.91565 0.02733 0.0
O37 O 0.47386 0.81833 0.9018 0.0
O38 O 0.50576 0.86671 0.96531 0.0
C39 C 0.60088 0.91691 0.97621 0.0
C40 C 0.47528 0.84157 0.94798 0.0
O41 O 0.54969 0.82026 0.8158 0.0
Mg42 Mg 0.67483 0.53798 0.24271 0.0
O43 O 0.70741 0.53535 0.33919 0.0
O44 O 0.67747 0.52572 0.44432 0.0
Mg45 Mg 0.62487 0.52192 0.41603 0.0
C46 C 0.70479 0.53073 0.40917 0.0
C47 C 0.71861 0.55334 0.09706 0.0
O48 O 0.68668 0.54074 0.07031 0.0
O49 O 0.68654 0.59377 0.2781 0.0
O50 O 0.65314 0.57936 0.37983 0.0
O51 O 0.6463 0.47838 0.2318 0.0
O52 O 0.62869 0.50806 0.30128 0.0
C53 C 0.67394 0.60223 0.33348 0.0
C54 C 0.62352 0.47828 0.27745 0.0
O55 O 0.72303 0.55737 0.16686 0.0
Mg56 Mg 0.12393 0.67729 0.57691 0.0
O57 O 0.15795 0.71011 0.67391 0.0
O58 O 0.13866 0.67921 0.77836 0.0
Mg59 Mg 0.09147 0.62607 0.7492 0.0
C60 C 0.16006 0.70711 0.74379 0.0
C61 C 0.15101 0.72141 0.43187 0.0
O62 O 0.13307 0.6892 0.40595 0.0
O63 O 0.07853 0.6871 0.61193 0.0
O64 O 0.06064 0.65324 0.71349 0.0
O65 O 0.15714 0.6508 0.56581 0.0
O66 O 0.10955 0.63076 0.63448 0.0
C67 C 0.05767 0.67384 0.6672 0.0
C68 C 0.13529 0.62724 0.61116 0.0
O69 O 0.151 0.72602 0.50149 0.0
Mg70 Mg 0.44037 0.12586 0.89827 0.0
O71 O 0.44143 0.16095 -0.00628 0.0
O72 O 0.45347 0.14194 0.09892 0.0
Mg73 Mg 0.46028 0.09473 0.07249 0.0
C74 C 0.4466 0.16324 0.06366 0.0
C75 C 0.42301 0.15239 0.75141 0.0
O76 O 0.43863 0.13543 0.72607 0.0
O77 O 0.38617 0.08119 0.93648 0.0
O78 O 0.40247 0.06375 0.03866 0.0
O79 O 0.49875 0.15946 0.88237 0.0
O80 O 0.47433 0.11413 0.95861 0.0
C81 C 0.37887 0.0608 -0.00724 0.0
C82 C 0.50238 0.14024 0.93251 0.0
O83 O 0.41751 0.15162 0.8208 0.0
Mg84 Mg 0.53386 0.6721 0.4103 0.0
O85 O 0.53639 0.70649 0.31096 0.0
O86 O 0.52951 0.67552 0.20794 0.0
Mg87 Mg 0.52343 0.62228 0.23872 0.0
C88 C 0.53428 0.70345 0.2404 0.0
C89 C 0.53098 0.70736 0.55016 0.0
O90 O 0.50885 0.6735 0.55652 0.0
O91 O 0.59045 0.68311 0.38654 0.0
O92 O 0.57922 0.65012 0.28466 0.0
O93 O 0.47445 0.64571 0.41021 0.0
O94 O 0.50485 0.62651 0.34812 0.0
C95 C 0.60054 0.67056 0.3338 0.0
C96 C 0.47483 0.62294 0.36515 0.0
O97 O 0.55001 0.71808 0.49232 0.0
Mg98 Mg 0.8492 0.53467 0.75364 0.0
O99 O 0.81751 0.53484 0.65235 0.0
O100 O 0.84074 0.52533 0.55119 0.0
Mg101 Mg 0.88827 0.52047 0.58589 0.0
C102 C 0.81775 0.53079 0.58234 0.0
C103 C 0.82439 0.55611 0.89694 0.0
O104 O 0.84901 0.55022 0.92361 0.0
O105 O 0.89423 0.59067 0.72502 0.0
O106 O 0.91577 0.57739 0.6255 0.0
O107 O 0.81678 0.47514 0.75874 0.0
O108 O 0.86628 0.50446 0.69696 0.0
C109 C 0.91658 0.59969 0.6722 0.0
C110 C 0.84003 0.47477 0.71522 0.0
O111 O 0.8191 0.55379 0.82722 0.0
Mg112 Mg 0.29903 0.85072 0.08861 0.0
O113 O 0.26764 0.81874 0.98772 0.0
O114 O 0.30025 0.84131 0.88643 0.0
Mg115 Mg 0.35277 0.88778 0.92085 0.0
C116 C 0.27189 0.81884 0.91774 0.0
C117 C 0.25211 0.82747 0.23098 0.0
O118 O 0.28192 0.85245 0.25798 0.0
O119 O 0.28938 0.89691 0.05704 0.0
O120 O 0.32497 0.91735 0.9587 0.0
O121 O 0.3263 0.81793 0.09788 0.0
O122 O 0.34601 0.86693 0.03344 0.0
C123 C 0.30371 0.91924 0.00427 0.0
C124 C 0.35016 0.84128 0.05527 0.0
O125 O 0.24988 0.82161 0.16154 0.0
Mg126 Mg 0.43789 0.30074 0.40733 0.0
O127 O 0.43979 0.27 0.30658 0.0
O128 O 0.44892 0.30269 0.20501 0.0
Mg129 Mg 0.45273 0.35457 0.23937 0.0
C130 C 0.44392 0.27443 0.23663 0.0
C131 C 0.41693 0.25407 0.55009 0.0
O132 O 0.42236 0.28429 0.57693 0.0
O133 O 0.38185 0.28946 0.37514 0.0
O134 O 0.39562 0.32473 0.27596 0.0
O135 O 0.49737 0.32879 0.41659 0.0
O136 O 0.46751 0.34807 0.35177 0.0
C137 C 0.37305 0.30284 0.3213 0.0
C138 C 0.49734 0.35248 0.37332 0.0
O139 O 0.41935 0.25142 0.48037 0.0
Mg140 Mg 0.12463 0.43836 0.73472 0.0
O141 O 0.15914 0.44004 0.63836 0.0
O142 O 0.13941 0.45144 0.53368 0.0
Mg143 Mg 0.0915 0.4568 0.56222 0.0
C144 C 0.16121 0.44521 0.56854 0.0
C145 C 0.15151 0.42077 0.8802 0.0
O146 O 0.13274 0.43435 0.90604 0.0
O147 O 0.08023 0.38342 0.69839 0.0
O148 O 0.06157 0.39902 0.59699 0.0
O149 O 0.15705 0.49759 0.74681 0.0
O150 O 0.10969 0.47028 0.67702 0.0
C151 C 0.05916 0.37569 0.64317 0.0
C152 C 0.13521 0.49935 0.70075 0.0
O153 O 0.15215 0.41687 0.81045 0.0
Mg154 Mg 0.67468 0.12603 0.06872 0.0
O155 O 0.70912 0.16061 0.97367 0.0
O156 O 0.67894 0.14181 0.86799 0.0
Mg157 Mg 0.6245 0.0963 0.89396 0.0
C158 C 0.70676 0.16268 0.9035 0.0
C159 C 0.71756 0.15266 0.21565 0.0
O160 O 0.68508 0.13796 0.23975 0.0
O161 O 0.68308 0.08007 0.03105 0.0
O162 O 0.64917 0.06304 0.92968 0.0
O163 O 0.65049 0.16084 0.08405 0.0
O164 O 0.62982 0.11555 0.00779 0.0
C165 C 0.6692 0.05918 0.97598 0.0
C166 C 0.62799 0.14195 0.03374 0.0
O167 O 0.72261 0.15043 0.1469 0.0
C168 C 0.3086 0.32831 0.38254 0.0
C169 C 0.30175 0.33966 0.31426 0.0
C170 C 0.32664 0.30918 0.38538 0.0
C171 C 0.33839 0.30106 0.31993 0.0
H172 H 0.30448 0.33846 0.43402 0.0
H173 H 0.336 0.30573 0.43874 0.0
S174 S 0.31504 0.31269 0.12825 0.0
N175 N 0.29884 0.33223 0.1806 0.0
N176 N 0.33271 0.29626 0.18596 0.0
C177 C 0.3252 0.3058 0.2521 0.0
C178 C 0.3068 0.32521 0.24919 0.0
C179 C 0.9708 0.31178 0.56998 0.0
C180 C 0.95146 0.3021 0.63609 0.0
C181 C 0.00763 0.33124 0.57184 0.0
C182 C 0.02605 0.3414 0.63979 0.0
H183 H 0.95766 0.30913 0.51742 0.0
H184 H 0.02132 0.34231 0.5203 0.0
S185 S -0.01259 0.31046 0.82585 0.0
N186 N 0.9533 0.29486 0.76919 0.0
N187 N 0.02246 0.33136 0.77283 0.0
C188 C 0.00722 0.3256 0.70478 0.0
C189 C 0.96976 0.30586 0.70282 0.0
C190 C 0.64249 0.96932 0.90465 0.0
C191 C 0.63453 0.95035 0.97143 0.0
C192 C 0.65953 0.00623 0.9052 0.0
C193 C 0.66923 0.02517 0.97245 0.0
H194 H 0.63108 0.95585 0.85302 0.0
H195 H 0.66107 0.01965 0.85356 0.0
S196 S 0.66604 0.98758 0.15855 0.0
N197 N 0.64656 0.95302 0.10344 0.0
N198 N 0.67862 0.02237 0.10463 0.0
C199 C 0.66769 0.00667 0.03746 0.0
C200 C 0.65029 0.9691 0.03683 0.0
C201 C 0.66813 0.64924 0.26877 0.0
C202 C 0.67474 0.63657 0.33512 0.0
C203 C 0.64861 0.66688 0.26923 0.0
C204 C 0.63529 0.67236 0.33597 0.0
H205 H 0.67321 0.64096 0.21589 0.0
H206 H 0.63979 0.67175 0.21654 0.0
S207 S 0.65802 0.65683 0.52504 0.0
N208 N 0.67625 0.64041 0.46951 0.0
N209 N 0.63932 0.6733 0.47032 0.0
C210 C 0.64818 0.6665 0.40274 0.0
C211 C 0.66809 0.64859 0.40226 0.0
C212 C 0.96741 0.64682 0.60472 0.0
C213 C 0.9492 0.63435 0.67221 0.0
C214 C 0.00423 0.66637 0.6031 0.0
C215 C 0.02379 0.67381 0.66903 0.0
H216 H 0.95355 0.63741 0.55259 0.0
H217 H 0.01718 0.67092 0.54993 0.0
S218 S -0.01176 0.65878 0.85992 0.0
N219 N 0.95308 0.63966 0.80632 0.0
N220 N 0.02224 0.67643 0.80333 0.0
C221 C 0.00564 0.66767 0.73658 0.0
C222 C 0.96818 0.64785 0.73822 0.0
C223 C 0.30986 0.97135 0.93618 0.0
C224 C 0.30386 0.95326 0.0042 0.0
C225 C 0.32997 0.00819 0.9329 0.0
C226 C 0.34461 0.02789 -0.00234 0.0
H227 H 0.3033 0.95683 0.88456 0.0
H228 H 0.33803 0.02053 0.87898 0.0
S229 S 0.32545 -0.00593 0.19036 0.0
N230 N 0.30563 0.95845 0.13828 0.0
N231 N 0.34328 0.02767 0.13228 0.0
C232 C 0.33293 0.01062 0.0663 0.0
C233 C 0.31236 0.97314 0.06959 0.0
C234 C 0.17355 0.41949 0.00811 0.0
C235 C 0.17469 0.41437 0.93131 0.0
C236 C 0.19776 0.41796 0.05714 0.0
C237 C 0.22438 0.41144 0.03156 0.0
H238 H 0.15442 0.42581 0.03066 0.0
H239 H 0.19638 0.42337 0.11519 0.0
S240 S 0.23645 0.39197 0.83701 0.0
N241 N 0.20289 0.39931 0.83304 0.0
N242 N 0.24838 0.39656 0.92497 0.0
C243 C 0.22472 0.40441 0.95547 0.0
C244 C 0.19991 0.40581 0.90549 0.0
C245 C 0.76647 0.19962 0.3913 0.0
C246 C 0.80014 0.22419 0.36566 0.0
C247 C 0.74055 0.17572 0.34288 0.0
C248 C 0.74714 0.17507 0.26667 0.0
H249 H 0.75948 0.1997 0.44878 0.0
H250 H 0.71475 0.15829 0.36531 0.0
S251 S 0.83241 0.23096 0.1729 0.0
N252 N 0.83964 0.24423 0.25995 0.0
N253 N 0.79107 0.19929 0.1692 0.0
C254 C 0.78133 0.19812 0.24102 0.0
C255 C 0.80772 0.22266 0.29035 0.0
C256 C 0.56001 0.78699 0.67751 0.0
C257 C 0.52853 0.77926 0.71361 0.0
C258 C 0.56084 0.76399 0.6237 0.0
C259 C 0.53042 0.73209 0.60599 0.0
H260 H 0.58388 0.81132 0.68948 0.0
H261 H 0.58543 0.77103 0.5964 0.0
S262 S 0.44178 0.69935 0.68711 0.0
N263 N 0.46652 0.73739 0.72861 0.0
N264 N 0.46813 0.69409 0.62985 0.0
C265 C 0.49906 0.72394 0.64302 0.0
C266 C 0.4981 0.74753 0.69621 0.0
C267 C 0.74213 0.55464 0.96978 0.0
C268 C 0.7479 0.55875 0.0469 0.0
C269 C 0.7676 0.55549 0.92144 0.0
C270 C 0.79996 0.56027 0.94803 0.0
H271 H 0.71729 0.54973 0.94639 0.0
H272 H 0.76123 0.55101 0.863 0.0
S273 S 0.82991 0.57616 0.14416 0.0
N274 N 0.78982 0.57071 0.14681 0.0
N275 N 0.83754 0.57218 0.0562 0.0
C276 C 0.80681 0.56614 0.0246 0.0
C277 C 0.78089 0.56545 0.07388 0.0
C278 C 0.17325 0.74455 0.3044 0.0
C279 C 0.17407 0.75081 0.38115 0.0
C280 C 0.19741 0.77009 0.25583 0.0
C281 C 0.22368 0.80303 0.28183 0.0
H282 H 0.15442 0.71925 0.28156 0.0
H283 H 0.19629 0.76331 0.19782 0.0
S284 S 0.23478 0.83448 0.47632 0.0
N285 N 0.20156 0.79385 0.47976 0.0
N286 N 0.24697 0.84172 0.38867 0.0
C287 C 0.22368 0.8104 0.35782 0.0
C288 C 0.19891 0.78439 0.40735 0.0
C289 C 0.42124 0.17445 0.62372 0.0
C290 C 0.41632 0.17553 0.70062 0.0
C291 C 0.41963 0.19878 0.57503 0.0
C292 C 0.41331 0.22552 0.6011 0.0
H293 H 0.42744 0.15525 0.60086 0.0
H294 H 0.42484 0.19744 0.51686 0.0
S295 S 0.3946 0.23764 0.7961 0.0
N296 N 0.40177 0.20389 0.79952 0.0
N297 N 0.39894 0.24963 0.70824 0.0
C298 C 0.40653 0.22583 0.67729 0.0
C299 C 0.40795 0.20087 0.72691 0.0
C300 C 0.19027 0.44638 0.44845 0.0
C301 C 0.1899 0.44433 0.52637 0.0
C302 C 0.21713 0.44616 0.40695 0.0
C303 C 0.24497 0.44411 0.44147 0.0
H304 H 0.16965 0.44821 0.41882 0.0
H305 H 0.21616 0.44803 0.34721 0.0
S306 S 0.25617 0.43736 0.64408 0.0
N307 N 0.21969 0.43954 0.63652 0.0
N308 N 0.27012 0.43917 0.55854 0.0
C309 C 0.24487 0.44177 0.51938 0.0
C310 C 0.21738 0.44184 0.56175 0.0
C311 C 0.762 0.21781 0.74192 0.0
C312 C 0.79247 0.24434 0.77615 0.0
C313 C 0.73478 0.19153 0.78354 0.0
C314 C 0.73684 0.1904 0.86135 0.0
H315 H 0.75871 0.21761 0.68236 0.0
H316 H 0.71179 0.17208 0.75408 0.0
S317 S 0.81202 0.25263 0.97799 0.0
N318 N 0.82382 0.2671 0.89254 0.0
N319 N 0.77269 0.21764 0.97089 0.0
C320 C 0.76754 0.21634 0.89636 0.0
C321 C 0.79528 0.24328 0.85382 0.0
C322 C 0.53395 0.78751 0.18688 0.0
C323 C 0.53692 0.78846 0.10905 0.0
C324 C 0.53376 0.76037 0.22874 0.0
C325 C 0.53645 0.73285 0.19473 0.0
H326 H 0.53125 0.80768 0.21612 0.0
H327 H 0.53083 0.76072 0.28825 0.0
S328 S 0.54717 0.72394 -0.00703 0.0
N329 N 0.54428 0.76011 -0.00012 0.0
N330 N 0.54399 0.70915 0.07844 0.0
C331 C 0.54031 0.73383 0.11705 0.0
C332 C 0.54055 0.76158 0.07433 0.0
C333 C 0.73437 0.5323 0.52924 0.0
C334 C 0.7343 0.53126 0.45128 0.0
C335 C 0.76158 0.53255 0.57077 0.0
C336 C 0.78989 0.53158 0.53628 0.0
H337 H 0.71323 0.53299 0.55885 0.0
H338 H 0.7601 0.53318 0.6306 0.0
S339 S 0.80253 0.5289 0.33326 0.0
N340 N 0.76524 0.52945 0.34094 0.0
N341 N 0.81635 0.52992 0.41887 0.0
C342 C 0.79032 0.53072 0.4582 0.0
C343 C 0.76259 0.53059 0.41581 0.0
C344 C 0.18917 0.7347 0.8642 0.0
C345 C 0.18843 0.73661 0.78633 0.0
C346 C 0.2159 0.76155 0.90599 0.0
C347 C 0.24326 0.79147 0.87183 0.0
H348 H 0.16899 0.71216 0.89355 0.0
H349 H 0.2153 0.75848 0.96565 0.0
S350 S 0.25312 0.81023 0.66968 0.0
N351 N 0.21718 0.77161 0.67673 0.0
N352 N 0.26738 0.822 0.75528 0.0
C353 C 0.24269 0.79404 0.79404 0.0
C354 C 0.21532 0.7667 0.75137 0.0
C355 C 0.45013 0.19372 0.18322 0.0
C356 C 0.44494 0.19157 0.10589 0.0
C357 C 0.44935 0.22029 0.22488 0.0
C358 C 0.44357 0.24607 0.19103 0.0
H359 H 0.45503 0.17479 0.21232 0.0
H360 H 0.45384 0.22086 0.28402 0.0
S361 S 0.42686 0.2517 -0.00911 0.0
N362 N 0.43263 0.21717 -0.00257 0.0
N363 N 0.43127 0.26716 0.07587 0.0
C364 C 0.43791 0.24412 0.11393 0.0
C365 C 0.43854 0.2169 0.07136 0.0
C366 C 0.41336 0.5321 0.29133 0.0
C367 C 0.38125 0.53172 0.28278 0.0
C368 C 0.44338 0.56208 0.31628 0.0
C369 C 0.44243 0.59278 0.33554 0.0
H370 H 0.41541 0.50894 0.27837 0.0
H371 H 0.46739 0.56081 0.32215 0.0
S372 S 0.36475 0.60552 0.32307 0.0
N373 N 0.35017 0.56476 0.29403 0.0
N374 N 0.40668 0.6212 0.34374 0.0
C375 C 0.41049 0.59292 0.32729 0.0
C376 C 0.3799 0.5624 0.30001 0.0
C377 C 0.86928 0.44208 0.67149 0.0
C378 C 0.83777 0.44201 0.68659 0.0
C379 C 0.86927 0.41234 0.64351 0.0
C380 C 0.83776 0.38135 0.62783 0.0
H381 H 0.89438 0.46532 0.68209 0.0
H382 H 0.89439 0.41389 0.63324 0.0
S383 S 0.74792 0.36742 0.65646 0.0
N384 N 0.77399 0.40829 0.68421 0.0
N385 N 0.77398 0.35222 0.62918 0.0
C386 C 0.80589 0.3808 0.64188 0.0
C387 C 0.8059 0.41114 0.6721 0.0
C388 C 0.41136 0.80896 0.98477 0.0
C389 C 0.4435 0.84064 0.97882 0.0
C390 C 0.3811 0.80869 0.01231 0.0
C391 C 0.38203 0.84021 0.03279 0.0
H392 H 0.40958 0.78433 0.96807 0.0
H393 H 0.35672 0.78396 0.01538 0.0
S394 S 0.45955 0.92991 0.02867 0.0
N395 N 0.47418 0.90412 -0.00298 0.0
N396 N 0.4177 0.90354 0.04736 0.0
C397 C 0.41404 0.87183 0.02773 0.0
C398 C 0.44468 0.87207 0.00107 0.0
C399 C 0.59174 0.41385 0.31215 0.0
C400 C 0.59168 0.44576 0.30081 0.0
C401 C 0.56135 0.38357 0.33713 0.0
C402 C 0.52987 0.38417 0.34938 0.0
H403 H 0.61549 0.41248 0.30296 0.0
H404 H 0.56232 0.35949 0.34576 0.0
S405 S 0.51606 0.46106 0.32606 0.0
N406 N 0.55746 0.4759 0.30319 0.0
N407 N 0.50071 0.41936 0.34837 0.0
C408 C 0.52959 0.41587 0.33735 0.0
C409 C 0.5604 0.44656 0.31348 0.0
C410 C 0.10603 0.564 0.64256 0.0
C411 C 0.13755 0.59579 0.63319 0.0
C412 C 0.10601 0.53318 0.66343 0.0
C413 C 0.13748 0.53295 0.67777 0.0
H414 H 0.08098 0.56274 0.63279 0.0
H415 H 0.08092 0.50938 0.66953 0.0
S416 S 0.22729 0.60936 0.6623 0.0
N417 N 0.20128 0.62536 0.63911 0.0
N418 N 0.20122 0.56725 0.68146 0.0
C419 C 0.16934 0.56459 0.66945 0.0
C420 C 0.16939 0.59604 0.64614 0.0
C421 C 0.57375 0.14483 0.05923 0.0
C422 C 0.59986 0.14887 0.0089 0.0
C423 C 0.54279 0.14376 0.03447 0.0
C424 C 0.53729 0.14734 0.9588 0.0
H425 H 0.57636 0.14042 0.11747 0.0
H426 H 0.52273 0.13927 0.07466 0.0
S427 S 0.59982 0.16287 0.80638 0.0
N428 N 0.61975 0.15942 0.8813 0.0
N429 N 0.5619 0.15823 0.83479 0.0
C430 C 0.56434 0.15389 0.90875 0.0
C431 C 0.59554 0.15431 0.93381 0.0
loop_
_geom_bond_atom_site_label_1
_geom_bond_atom_site_label_2
_geom_bond_distance
_geom_bond_site_symmetry_2
_ccdc_geom_bond_type
Mg0 O1 2.028 . S
Mg0 O7 1.986 . S
Mg0 O9 2.114 . S
Mg0 O10 2.251 . S
Mg0 O13 2.010 . S
O1 Mg0 2.028 . S
O1 C4 1.250 . S
O2 Mg3 2.028 . S
O2 C4 1.248 . S
Mg3 O2 2.028 . S
Mg3 O8 2.032 . S
Mg3 O10 2.079 . S
C4 O1 1.250 . S
C4 O2 1.248 . S
C5 O6 1.264 . S
C5 O13 1.249 . S
O6 C5 1.264 . S
O7 Mg0 1.986 . S
O7 C11 1.246 . S
O8 Mg3 2.032 . S
O8 C11 1.259 . S
O9 Mg0 2.114 . S
O9 C12 1.252 . S
O10 Mg0 2.251 . S
O10 Mg3 2.079 . S
O10 C12 1.273 . S
C11 O7 1.246 . S
C11 O8 1.259 . S
C12 O9 1.252 . S
C12 O10 1.273 . S
O13 Mg0 2.010 . S
O13 C5 1.249 . S
Mg14 O15 2.028 . S
Mg14 O21 1.986 . S
Mg14 O23 2.114 . S
Mg14 O24 2.251 . S
Mg14 O27 2.010 . S
O15 Mg14 2.028 . S
O15 C18 1.250 . S
O16 Mg17 2.028 . S
O16 C18 1.248 . S
Mg17 O16 2.028 . S
Mg17 O22 2.032 . S
Mg17 O24 2.079 . S
C18 O15 1.250 . S
C18 O16 1.248 . S
C19 O20 1.264 . S
C19 O27 1.249 . S
O20 C19 1.264 . S
O21 Mg14 1.986 . S
O21 C25 1.246 . S
O22 Mg17 2.032 . S
O22 C25 1.259 . S
O23 Mg14 2.114 . S
O23 C26 1.252 . S
O24 Mg14 2.251 . S
O24 Mg17 2.079 . S
O24 C26 1.273 . S
C25 O21 1.246 . S
C25 O22 1.259 . S
C26 O23 1.252 . S
C26 O24 1.273 . S
O27 Mg14 2.010 . S
O27 C19 1.249 . S
Mg28 O29 2.028 . S
Mg28 O35 1.986 . S
Mg28 O37 2.114 . S
Mg28 O38 2.251 1_556 S
Mg28 O41 2.010 . S
O29 Mg28 2.028 . S
O29 C32 1.250 1_556 S
O30 Mg31 2.028 . S
O30 C32 1.248 . S
Mg31 O30 2.028 . S
Mg31 O36 2.032 . S
Mg31 O38 2.079 . S
C32 O29 1.250 1_554 S
C32 O30 1.248 . S
C33 O34 1.264 . S
C33 O41 1.249 . S
O34 C33 1.264 . S
O35 Mg28 1.986 . S
O35 C39 1.246 . S
O36 Mg31 2.032 . S
O36 C39 1.259 1_554 S
O37 Mg28 2.114 . S
O37 C40 1.252 . S
O38 Mg28 2.251 1_554 S
O38 Mg31 2.079 . S
O38 C40 1.273 1_554 S
C39 O35 1.246 . S
C39 O36 1.259 1_556 S
C40 O37 1.252 . S
C40 O38 1.273 1_556 S
O41 Mg28 2.010 . S
O41 C33 1.249 . S
Mg42 O43 2.028 . S
Mg42 O49 1.986 . S
Mg42 O51 2.114 . S
Mg42 O52 2.251 . S
Mg42 O55 2.010 . S
O43 Mg42 2.028 . S
O43 C46 1.250 . S
O44 Mg45 2.028 . S
O44 C46 1.248 . S
Mg45 O44 2.028 . S
Mg45 O50 2.032 . S
Mg45 O52 2.079 . S
C46 O43 1.250 . S
C46 O44 1.248 . S
C47 O48 1.264 . S
C47 O55 1.249 . S
O48 C47 1.264 . S
O49 Mg42 1.986 . S
O49 C53 1.246 . S
O50 Mg45 2.032 . S
O50 C53 1.259 . S
O51 Mg42 2.114 . S
O51 C54 1.252 . S
O52 Mg42 2.251 . S
O52 Mg45 2.079 . S
O52 C54 1.273 . S
C53 O49 1.246 . S
C53 O50 1.259 . S
C54 O51 1.252 . S
C54 O52 1.273 . S
O55 Mg42 2.010 . S
O55 C47 1.249 . S
Mg56 O57 2.028 . S
Mg56 O63 1.986 . S
Mg56 O65 2.114 . S
Mg56 O66 2.251 . S
Mg56 O69 2.010 . S
O57 Mg56 2.028 . S
O57 C60 1.250 . S
O58 Mg59 2.028 . S
O58 C60 1.248 . S
Mg59 O58 2.028 . S
Mg59 O64 2.032 . S
Mg59 O66 2.079 . S
C60 O57 1.250 . S
C60 O58 1.248 . S
C61 O62 1.264 . S
C61 O69 1.249 . S
O62 C61 1.264 . S
O63 Mg56 1.986 . S
O63 C67 1.246 . S
O64 Mg59 2.032 . S
O64 C67 1.259 . S
O65 Mg56 2.114 . S
O65 C68 1.252 . S
O66 Mg56 2.251 . S
O66 Mg59 2.079 . S
O66 C68 1.273 . S
C67 O63 1.246 . S
C67 O64 1.259 . S
C68 O65 1.252 . S
C68 O66 1.273 . S
O69 Mg56 2.010 . S
O69 C61 1.249 . S
Mg70 O71 2.028 . S
Mg70 O77 1.986 . S
Mg70 O79 2.114 . S
Mg70 O80 2.251 1_556 S
Mg70 O83 2.010 . S
O71 Mg70 2.028 . S
O71 C74 1.250 1_556 S
O72 Mg73 2.028 . S
O72 C74 1.248 . S
Mg73 O72 2.028 . S
Mg73 O78 2.032 . S
Mg73 O80 2.079 . S
C74 O71 1.250 1_554 S
C74 O72 1.248 . S
C75 O76 1.264 . S
C75 O83 1.249 . S
O76 C75 1.264 . S
O77 Mg70 1.986 . S
O77 C81 1.246 . S
O78 Mg73 2.032 . S
O78 C81 1.259 1_554 S
O79 Mg70 2.114 . S
O79 C82 1.252 . S
O80 Mg70 2.251 1_554 S
O80 Mg73 2.079 . S
O80 C82 1.273 1_554 S
C81 O77 1.246 . S
C81 O78 1.259 1_556 S
C82 O79 1.252 . S
C82 O80 1.273 1_556 S
O83 Mg70 2.010 . S
O83 C75 1.249 . S
Mg84 O85 2.028 . S
Mg84 O91 1.986 . S
Mg84 O93 2.114 . S
Mg84 O94 2.251 . S
Mg84 O97 2.010 . S
O85 Mg84 2.028 . S
O85 C88 1.250 . S
O86 Mg87 2.028 . S
O86 C88 1.248 . S
Mg87 O86 2.028 . S
Mg87 O92 2.032 . S
Mg87 O94 2.079 . S
C88 O85 1.250 . S
C88 O86 1.248 . S
C89 O90 1.264 . S
C89 O97 1.249 . S
O90 C89 1.264 . S
O91 Mg84 1.986 . S
O91 C95 1.246 . S
O92 Mg87 2.032 . S
O92 C95 1.259 . S
O93 Mg84 2.114 . S
O93 C96 1.252 . S
O94 Mg84 2.251 . S
O94 Mg87 2.079 . S
O94 C96 1.273 . S
C95 O91 1.246 . S
C95 O92 1.259 . S
C96 O93 1.252 . S
C96 O94 1.273 . S
O97 Mg84 2.010 . S
O97 C89 1.249 . S
Mg98 O99 2.028 . S
Mg98 O105 1.986 . S
Mg98 O107 2.114 . S
Mg98 O108 2.251 . S
Mg98 O111 2.010 . S
O99 Mg98 2.028 . S
O99 C102 1.250 . S
O100 Mg101 2.028 . S
O100 C102 1.248 . S
Mg101 O100 2.028 . S
Mg101 O106 2.032 . S
Mg101 O108 2.079 . S
C102 O99 1.250 . S
C102 O100 1.248 . S
C103 O104 1.264 . S
C103 O111 1.249 . S
O104 C103 1.264 . S
O105 Mg98 1.986 . S
O105 C109 1.246 . S
O106 Mg101 2.032 . S
O106 C109 1.259 . S
O107 Mg98 2.114 . S
O107 C110 1.252 . S
O108 Mg98 2.251 . S
O108 Mg101 2.079 . S
O108 C110 1.273 . S
C109 O105 1.246 . S
C109 O106 1.259 . S
C110 O107 1.252 . S
C110 O108 1.273 . S
O111 Mg98 2.010 . S
O111 C103 1.249 . S
Mg112 O113 2.028 . S
Mg112 O119 1.986 . S
Mg112 O121 2.114 . S
Mg112 O122 2.251 1_554 S
Mg112 O125 2.010 . S
O113 Mg112 2.028 . S
O113 C116 1.250 1_554 S
O114 Mg115 2.028 . S
O114 C116 1.248 . S
Mg115 O114 2.028 . S
Mg115 O120 2.032 . S
Mg115 O122 2.079 . S
C116 O113 1.250 1_556 S
C116 O114 1.248 . S
C117 O118 1.264 . S
C117 O125 1.249 . S
O118 C117 1.264 . S
O119 Mg112 1.986 . S
O119 C123 1.246 . S
O120 Mg115 2.032 . S
O120 C123 1.259 1_556 S
O121 Mg112 2.114 . S
O121 C124 1.252 . S
O122 Mg112 2.251 1_556 S
O122 Mg115 2.079 . S
O122 C124 1.273 1_556 S
C123 O119 1.246 . S
C123 O120 1.259 1_554 S
C124 O121 1.252 . S
C124 O122 1.273 1_554 S
O125 Mg112 2.010 . S
O125 C117 1.249 . S
Mg126 O127 2.028 . S
Mg126 O133 1.986 . S
Mg126 O135 2.114 . S
Mg126 O136 2.251 . S
Mg126 O139 2.010 . S
O127 Mg126 2.028 . S
O127 C130 1.250 . S
O128 Mg129 2.028 . S
O128 C130 1.248 . S
Mg129 O128 2.028 . S
Mg129 O134 2.032 . S
Mg129 O136 2.079 . S
C130 O127 1.250 . S
C130 O128 1.248 . S
C131 O132 1.264 . S
C131 O139 1.249 . S
O132 C131 1.264 . S
O133 Mg126 1.986 . S
O133 C137 1.246 . S
O134 Mg129 2.032 . S
O134 C137 1.259 . S
O135 Mg126 2.114 . S
O135 C138 1.252 . S
O136 Mg126 2.251 . S
O136 Mg129 2.079 . S
O136 C138 1.273 . S
C137 O133 1.246 . S
C137 O134 1.259 . S
C138 O135 1.252 . S
C138 O136 1.273 . S
O139 Mg126 2.010 . S
O139 C131 1.249 . S
Mg140 O141 2.028 . S
Mg140 O147 1.986 . S
Mg140 O149 2.114 . S
Mg140 O150 2.251 . S
Mg140 O153 2.010 . S
O141 Mg140 2.028 . S
O141 C144 1.250 . S
O142 Mg143 2.028 . S
O142 C144 1.248 . S
Mg143 O142 2.028 . S
Mg143 O148 2.032 . S
Mg143 O150 2.079 . S
C144 O141 1.250 . S
C144 O142 1.248 . S
C145 O146 1.264 . S
C145 O153 1.249 . S
O146 C145 1.264 . S
O147 Mg140 1.986 . S
O147 C151 1.246 . S
O148 Mg143 2.032 . S
O148 C151 1.259 . S
O149 Mg140 2.114 . S
O149 C152 1.252 . S
O150 Mg140 2.251 . S
O150 Mg143 2.079 . S
O150 C152 1.273 . S
C151 O147 1.246 . S
C151 O148 1.259 . S
C152 O149 1.252 . S
C152 O150 1.273 . S
O153 Mg140 2.010 . S
O153 C145 1.249 . S
Mg154 O155 2.028 . S
Mg154 O161 1.986 . S
Mg154 O163 2.114 . S
Mg154 O164 2.251 1_554 S
Mg154 O167 2.010 . S
O155 Mg154 2.028 . S
O155 C158 1.250 1_554 S
O156 Mg157 2.028 . S
O156 C158 1.248 . S
Mg157 O156 2.028 . S
Mg157 O162 2.032 . S
Mg157 O164 2.079 . S
C158 O155 1.250 1_556 S
C158 O156 1.248 . S
C159 O160 1.264 . S
C159 O167 1.249 . S
O160 C159 1.264 . S
O161 Mg154 1.986 . S
O161 C165 1.246 . S
O162 Mg157 2.032 . S
O162 C165 1.259 1_556 S
O163 Mg154 2.114 . S
O163 C166 1.252 . S
O164 Mg154 2.251 1_556 S
O164 Mg157 2.079 . S
O164 C166 1.273 1_556 S
C165 O161 1.246 . S
C165 O162 1.259 1_554 S
C166 O163 1.252 . S
C166 O164 1.273 1_554 S
O167 Mg154 2.010 . S
O167 C159 1.249 . S
C168 C169 1.369 . S
C168 C170 1.419 . S
C168 H172 0.930 . S
C169 C168 1.369 . S
C169 C178 1.429 . S
C170 C168 1.419 . S
C170 C171 1.363 . S
C170 H173 0.929 . S
C171 C170 1.363 . S
C171 C177 1.428 . S
H172 C168 0.930 . S
H173 C170 0.929 . S
S174 N175 1.613 . S
S174 N176 1.610 . S
N175 S174 1.613 . S
N175 C178 1.350 . S
N176 S174 1.610 . S
N176 C177 1.351 . S
C177 C171 1.428 . S
C177 N176 1.351 . S
C177 C178 1.434 . S
C178 C169 1.429 . S
C178 N175 1.350 . S
C178 C177 1.434 . S
C179 C180 1.369 . S
C179 C181 1.419 1_655 S
C179 H183 0.930 . S
C180 C179 1.369 . S
C180 C189 1.429 . S
C181 C179 1.419 1_455 S
C181 C182 1.363 . S
C181 H184 0.929 . S
C182 C181 1.363 . S
C182 C188 1.428 . S
H183 C179 0.930 . S
H184 C181 0.929 . S
S185 N186 1.613 . S
S185 N187 1.610 1_655 S
N186 S185 1.613 . S
N186 C189 1.350 . S
N187 S185 1.610 1_455 S
N187 C188 1.351 . S
C188 C182 1.428 . S
C188 N187 1.351 . S
C188 C189 1.434 1_455 S
C189 C180 1.429 . S
C189 N186 1.350 . S
C189 C188 1.434 1_655 S
C190 C191 1.369 . S
C190 C192 1.419 1_565 S
C190 H194 0.930 . S
C191 C190 1.369 . S
C191 C200 1.429 1_556 S
C192 C190 1.419 1_545 S
C192 C193 1.363 1_556 S
C192 H195 0.929 . S
C193 C192 1.363 1_554 S
C193 C199 1.428 . S
H194 C190 0.930 . S
H195 C192 0.929 . S
S196 N197 1.613 . S
S196 N198 1.610 1_565 S
N197 S196 1.613 . S
N197 C200 1.350 . S
N198 S196 1.610 1_545 S
N198 C199 1.351 . S
C199 C193 1.428 . S
C199 N198 1.351 . S
C199 C200 1.434 1_545 S
C200 C191 1.429 1_554 S
C200 N197 1.350 . S
C200 C199 1.434 1_565 S
C201 C202 1.369 . S
C201 C203 1.419 . S
C201 H205 0.930 . S
C202 C201 1.369 . S
C202 C211 1.429 . S
C203 C201 1.419 . S
C203 C204 1.363 . S
C203 H206 0.929 . S
C204 C203 1.363 . S
C204 C210 1.428 . S
H205 C201 0.930 . S
H206 C203 0.929 . S
S207 N208 1.613 . S
S207 N209 1.610 . S
N208 S207 1.613 . S
N208 C211 1.350 . S
N209 S207 1.610 . S
N209 C210 1.351 . S
C210 C204 1.428 . S
C210 N209 1.351 . S
C210 C211 1.434 . S
C211 C202 1.429 . S
C211 N208 1.350 . S
C211 C210 1.434 . S
C212 C213 1.369 . S
C212 C214 1.419 1_655 S
C212 H216 0.930 . S
C213 C212 1.369 . S
C213 C222 1.429 . S
C214 C212 1.419 1_455 S
C214 C215 1.363 . S
C214 H217 0.929 . S
C215 C214 1.363 . S
C215 C221 1.428 . S
H216 C212 0.930 . S
H217 C214 0.929 . S
S218 N219 1.613 1_455 S
S218 N220 1.610 . S
N219 S218 1.613 1_655 S
N219 C222 1.350 . S
N220 S218 1.610 . S
N220 C221 1.351 . S
C221 C215 1.428 . S
C221 N220 1.351 . S
C221 C222 1.434 1_455 S
C222 C213 1.429 . S
C222 N219 1.350 . S
C222 C221 1.434 1_655 S
C223 C224 1.369 1_556 S
C223 C225 1.419 1_565 S
C223 H227 0.930 . S
C224 C223 1.369 1_554 S
C224 C233 1.429 . S
C225 C223 1.419 1_545 S
C225 C226 1.363 . S
C225 H228 0.929 . S
C226 C225 1.363 . S
C226 C232 1.428 1_556 S
H227 C223 0.930 . S
H228 C225 0.929 . S
S229 N230 1.613 1_545 S
S229 N231 1.610 . S
N230 S229 1.613 1_565 S
N230 C233 1.350 . S
N231 S229 1.610 . S
N231 C232 1.351 . S
C232 C226 1.428 1_554 S
C232 N231 1.351 . S
C232 C233 1.434 1_545 S
C233 C224 1.429 . S
C233 N230 1.350 . S
C233 C232 1.434 1_565 S
C234 C235 1.369 . S
C234 C236 1.419 1_556 S
C234 H238 0.930 . S
C235 C234 1.369 . S
C235 C244 1.429 . S
C236 C234 1.419 1_554 S
C236 C237 1.363 . S
C236 H239 0.929 . S
C237 C236 1.363 . S
C237 C243 1.428 . S
H238 C234 0.930 . S
H239 C236 0.929 . S
S240 N241 1.613 . S
S240 N242 1.610 1_556 S
N241 S240 1.613 . S
N241 C244 1.350 . S
N242 S240 1.610 1_554 S
N242 C243 1.351 . S
C243 C237 1.428 . S
C243 N242 1.351 . S
C243 C244 1.434 1_554 S
C244 C235 1.429 . S
C244 N241 1.350 . S
C244 C243 1.434 1_556 S
C245 C246 1.369 . S
C245 C247 1.419 . S
C245 H249 0.930 . S
C246 C245 1.369 . S
C246 C255 1.429 . S
C247 C245 1.419 . S
C247 C248 1.363 . S
C247 H250 0.929 . S
C248 C247 1.363 . S
C248 C254 1.428 . S
H249 C245 0.930 . S
H250 C247 0.929 . S
S251 N252 1.613 . S
S251 N253 1.610 . S
N252 S251 1.613 . S
N252 C255 1.350 . S
N253 S251 1.610 . S
N253 C254 1.351 . S
C254 C248 1.428 . S
C254 N253 1.351 . S
C254 C255 1.434 . S
C255 C246 1.429 . S
C255 N252 1.350 . S
C255 C254 1.434 . S
C256 C257 1.369 . S
C256 C258 1.419 . S
C256 H260 0.930 . S
C257 C256 1.369 . S
C257 C266 1.429 . S
C258 C256 1.419 . S
C258 C259 1.363 . S
C258 H261 0.929 . S
C259 C258 1.363 . S
C259 C265 1.428 . S
H260 C256 0.930 . S
H261 C258 0.929 . S
S262 N263 1.613 . S
S262 N264 1.610 . S
N263 S262 1.613 . S
N263 C266 1.350 . S
N264 S262 1.610 . S
N264 C265 1.351 . S
C265 C259 1.428 . S
C265 N264 1.351 . S
C265 C266 1.434 . S
C266 C257 1.429 . S
C266 N263 1.350 . S
C266 C265 1.434 . S
C267 C268 1.369 . S
C267 C269 1.419 1_554 S
C267 H271 0.930 . S
C268 C267 1.369 . S
C268 C277 1.429 . S
C269 C267 1.419 1_556 S
C269 C270 1.363 . S
C269 H272 0.929 . S
C270 C269 1.363 . S
C270 C276 1.428 . S
H271 C267 0.930 . S
H272 C269 0.929 . S
S273 N274 1.613 . S
S273 N275 1.610 . S
N274 S273 1.613 . S
N274 C277 1.350 . S
N275 S273 1.610 . S
N275 C276 1.351 1_554 S
C276 C270 1.428 . S
C276 N275 1.351 1_556 S
C276 C277 1.434 1_556 S
C277 C268 1.429 . S
C277 N274 1.350 . S
C277 C276 1.434 1_554 S
C278 C279 1.369 . S
C278 C280 1.419 . S
C278 H282 0.930 . S
C279 C278 1.369 . S
C279 C288 1.429 . S
C280 C278 1.419 . S
C280 C281 1.363 . S
C280 H283 0.929 . S
C281 C280 1.363 . S
C281 C287 1.428 . S
H282 C278 0.930 . S
H283 C280 0.929 . S
S284 N285 1.613 . S
S284 N286 1.610 . S
N285 S284 1.613 . S
N285 C288 1.350 . S
N286 S284 1.610 . S
N286 C287 1.351 . S
C287 C281 1.428 . S
C287 N286 1.351 . S
C287 C288 1.434 . S
C288 C279 1.429 . S
C288 N285 1.350 . S
C288 C287 1.434 . S
C289 C290 1.369 . S
C289 C291 1.419 . S
C289 H293 0.930 . S
C290 C289 1.369 . S
C290 C299 1.429 . S
C291 C289 1.419 . S
C291 C292 1.363 . S
C291 H294 0.929 . S
C292 C291 1.363 . S
C292 C298 1.428 . S
H293 C289 0.930 . S
H294 C291 0.929 . S
S295 N296 1.613 . S
S295 N297 1.610 . S
N296 S295 1.613 . S
N296 C299 1.350 . S
N297 S295 1.610 . S
N297 C298 1.351 . S
C298 C292 1.428 . S
C298 N297 1.351 . S
C298 C299 1.434 . S
C299 C290 1.429 . S
C299 N296 1.350 . S
C299 C298 1.434 . S
C300 C301 1.369 . S
C300 C302 1.419 . S
C300 H304 0.930 . S
C301 C300 1.369 . S
C301 C310 1.429 . S
C302 C300 1.419 . S
C302 C303 1.363 . S
C302 H305 0.929 . S
C303 C302 1.363 . S
C303 C309 1.428 . S
H304 C300 0.930 . S
H305 C302 0.929 . S
S306 N307 1.613 . S
S306 N308 1.610 . S
N307 S306 1.613 . S
N307 C310 1.350 . S
N308 S306 1.610 . S
N308 C309 1.351 . S
C309 C303 1.428 . S
C309 N308 1.351 . S
C309 C310 1.434 . S
C310 C301 1.429 . S
C310 N307 1.350 . S
C310 C309 1.434 . S
C311 C312 1.369 . S
C311 C313 1.419 . S
C311 H315 0.930 . S
C312 C311 1.369 . S
C312 C321 1.429 . S
C313 C311 1.419 . S
C313 C314 1.363 . S
C313 H316 0.929 . S
C314 C313 1.363 . S
C314 C320 1.428 . S
H315 C311 0.930 . S
H316 C313 0.929 . S
S317 N318 1.613 . S
S317 N319 1.610 . S
N318 S317 1.613 . S
N318 C321 1.350 . S
N319 S317 1.610 . S
N319 C320 1.351 . S
C320 C314 1.428 . S
C320 N319 1.351 . S
C320 C321 1.434 . S
C321 C312 1.429 . S
C321 N318 1.350 . S
C321 C320 1.434 . S
C322 C323 1.369 . S
C322 C324 1.419 . S
C322 H326 0.930 . S
C323 C322 1.369 . S
C323 C332 1.429 . S
C324 C322 1.419 . S
C324 C325 1.363 . S
C324 H327 0.929 . S
C325 C324 1.363 . S
C325 C331 1.428 . S
H326 C322 0.930 . S
H327 C324 0.929 . S
S328 N329 1.613 . S
S328 N330 1.610 . S
N329 S328 1.613 . S
N329 C332 1.350 . S
N330 S328 1.610 . S
N330 C331 1.351 . S
C331 C325 1.428 . S
C331 N330 1.351 . S
C331 C332 1.434 . S
C332 C323 1.429 . S
C332 N329 1.350 . S
C332 C331 1.434 . S
C333 C334 1.369 . S
C333 C335 1.419 . S
C333 H337 0.930 . S
C334 C333 1.369 . S
C334 C343 1.429 . S
C335 C333 1.419 . S
C335 C336 1.363 . S
C335 H338 0.929 . S
C336 C335 1.363 . S
C336 C342 1.428 . S
H337 C333 0.930 . S
H338 C335 0.929 . S
S339 N340 1.613 . S
S339 N341 1.610 . S
N340 S339 1.613 . S
N340 C343 1.350 . S
N341 S339 1.610 . S
N341 C342 1.351 . S
C342 C336 1.428 . S
C342 N341 1.351 . S
C342 C343 1.434 . S
C343 C334 1.429 . S
C343 N340 1.350 . S
C343 C342 1.434 . S
C344 C345 1.369 . S
C344 C346 1.419 . S
C344 H348 0.930 . S
C345 C344 1.369 . S
C345 C354 1.429 . S
C346 C344 1.419 . S
C346 C347 1.363 . S
C346 H349 0.929 . S
C347 C346 1.363 . S
C347 C353 1.428 . S
H348 C344 0.930 . S
H349 C346 0.929 . S
S350 N351 1.613 . S
S350 N352 1.610 . S
N351 S350 1.613 . S
N351 C354 1.350 . S
N352 S350 1.610 . S
N352 C353 1.351 . S
C353 C347 1.428 . S
C353 N352 1.351 . S
C353 C354 1.434 . S
C354 C345 1.429 . S
C354 N351 1.350 . S
C354 C353 1.434 . S
C355 C356 1.369 . S
C355 C357 1.419 . S
C355 H359 0.930 . S
C356 C355 1.369 . S
C356 C365 1.429 . S
C357 C355 1.419 . S
C357 C358 1.363 . S
C357 H360 0.929 . S
C358 C357 1.363 . S
C358 C364 1.428 . S
H359 C355 0.930 . S
H360 C357 0.929 . S
S361 N362 1.613 . S
S361 N363 1.610 . S
N362 S361 1.613 . S
N362 C365 1.350 . S
N363 S361 1.610 . S
N363 C364 1.351 . S
C364 C358 1.428 . S
C364 N363 1.351 . S
C364 C365 1.434 . S
C365 C356 1.429 . S
C365 N362 1.350 . S
C365 C364 1.434 . S
C366 C367 1.369 . S
C366 C368 1.419 . S
C366 H370 0.930 . S
C367 C366 1.369 . S
C367 C376 1.429 . S
C368 C366 1.419 . S
C368 C369 1.363 . S
C368 H371 0.929 . S
C369 C368 1.363 . S
C369 C375 1.428 . S
H370 C366 0.930 . S
H371 C368 0.929 . S
S372 N373 1.613 . S
S372 N374 1.610 . S
N373 S372 1.613 . S
N373 C376 1.350 . S
N374 S372 1.610 . S
N374 C375 1.351 . S
C375 C369 1.428 . S
C375 N374 1.351 . S
C375 C376 1.434 . S
C376 C367 1.429 . S
C376 N373 1.350 . S
C376 C375 1.434 . S
C377 C378 1.369 . S
C377 C379 1.419 . S
C377 H381 0.930 . S
C378 C377 1.369 . S
C378 C387 1.429 . S
C379 C377 1.419 . S
C379 C380 1.363 . S
C379 H382 0.929 . S
C380 C379 1.363 . S
C380 C386 1.428 . S
H381 C377 0.930 . S
H382 C379 0.929 . S
S383 N384 1.613 . S
S383 N385 1.610 . S
N384 S383 1.613 . S
N384 C387 1.350 . S
N385 S383 1.610 . S
N385 C386 1.351 . S
C386 C380 1.428 . S
C386 N385 1.351 . S
C386 C387 1.434 . S
C387 C378 1.429 . S
C387 N384 1.350 . S
C387 C386 1.434 . S
C388 C389 1.369 . S
C388 C390 1.419 1_556 S
C388 H392 0.930 . S
C389 C388 1.369 . S
C389 C398 1.429 . S
C390 C388 1.419 1_554 S
C390 C391 1.363 . S
C390 H393 0.929 . S
C391 C390 1.363 . S
C391 C397 1.428 . S
H392 C388 0.930 . S
H393 C390 0.929 . S
S394 N395 1.613 . S
S394 N396 1.610 . S
N395 S394 1.613 . S
N395 C398 1.350 1_554 S
N396 S394 1.610 . S
N396 C397 1.351 . S
C397 C391 1.428 . S
C397 N396 1.351 . S
C397 C398 1.434 1_554 S
C398 C389 1.429 . S
C398 N395 1.350 1_556 S
C398 C397 1.434 1_556 S
C399 C400 1.369 . S
C399 C401 1.419 . S
C399 H403 0.930 . S
C400 C399 1.369 . S
C400 C409 1.429 . S
C401 C399 1.419 . S
C401 C402 1.363 . S
C401 H404 0.929 . S
C402 C401 1.363 . S
C402 C408 1.428 . S
H403 C399 0.930 . S
H404 C401 0.929 . S
S405 N406 1.613 . S
S405 N407 1.610 . S
N406 S405 1.613 . S
N406 C409 1.350 . S
N407 S405 1.610 . S
N407 C408 1.351 . S
C408 C402 1.428 . S
C408 N407 1.351 . S
C408 C409 1.434 . S
C409 C400 1.429 . S
C409 N406 1.350 . S
C409 C408 1.434 . S
C410 C411 1.369 . S
C410 C412 1.419 . S
C410 H414 0.930 . S
C411 C410 1.369 . S
C411 C420 1.429 . S
C412 C410 1.419 . S
C412 C413 1.363 . S
C412 H415 0.929 . S
C413 C412 1.363 . S
C413 C419 1.428 . S
H414 C410 0.930 . S
H415 C412 0.929 . S
S416 N417 1.613 . S
S416 N418 1.610 . S
N417 S416 1.613 . S
N417 C420 1.350 . S
N418 S416 1.610 . S
N418 C419 1.351 . S
C419 C413 1.428 . S
C419 N418 1.351 . S
C419 C420 1.434 . S
C420 C411 1.429 . S
C420 N417 1.350 . S
C420 C419 1.434 . S
C421 C422 1.369 . S
C421 C423 1.419 . S
C421 H425 0.930 . S
C422 C421 1.369 . S
C422 C431 1.429 1_554 S
C423 C421 1.419 . S
C423 C424 1.363 1_554 S
C423 H426 0.929 . S
C424 C423 1.363 1_556 S
C424 C430 1.428 . S
H425 C421 0.930 . S
H426 C423 0.929 . S
S427 N428 1.613 . S
S427 N429 1.610 . S
N428 S427 1.613 . S
N428 C431 1.350 . S
N429 S427 1.610 . S
N429 C430 1.351 . S
C430 C424 1.428 . S
C430 N429 1.351 . S
C430 C431 1.434 . S
C431 C422 1.429 1_556 S
C431 N428 1.350 . S
C431 C430 1.434 . S
C169 C11 1.400 . S
C171 C137 1.394 . S
C180 C25 1.397 . S
C182 C151 1.399 . S
C191 C39 1.396 . S
C193 C165 1.399 . S
C202 C53 1.390 . S
C204 C95 1.395 . S
C213 C109 1.397 . S
C215 C67 1.392 . S
C224 C123 1.396 . S
C226 C81 1.392 . S
C235 C145 1.253 . S
C237 C5 1.248 . S
C246 C19 1.239 . S
C248 C159 1.255 . S
C257 C33 1.252 . S
C259 C89 1.243 . S
C268 C47 1.258 . S
C270 C103 1.242 . S
C279 C61 1.258 . S
C281 C117 1.242 . S
C290 C75 1.255 . S
C292 C131 1.242 . S
C301 C144 1.178 . S
C303 C4 1.170 . S
C312 C18 1.174 . S
C314 C158 1.174 . S
C323 C32 1.178 . S
C325 C88 1.169 . S
C334 C46 1.170 . S
C336 C102 1.171 . S
C345 C60 1.178 . S
C347 C116 1.170 . S
C356 C74 1.175 . S
C358 C130 1.168 . S
C367 C12 1.555 . S
C369 C96 1.555 . S
C378 C110 1.555 . S
C380 C26 1.555 . S
C389 C40 1.554 . S
C391 C124 1.554 . S
C400 C54 1.553 . S
C402 C138 1.554 . S
C411 C68 1.555 . S
C413 C152 1.555 . S
C422 C166 1.555 . S
C424 C82 1.554 . S
