# Generated by pormake.
# Topology gme, (4)-cn, num edge types: 1
# Building blocks:
#     Node 0, Type 0, BuildingBlock: QUQFOY_clean_sbu_3, # of connection points: 4
#     Node 1, Type 0, BuildingBlock: QUQFOY_clean_sbu_3, # of connection points: 4
#     Node 2, Type 0, BuildingBlock: QUQFOY_clean_sbu_3, # of connection points: 4
#     Node 3, Type 0, BuildingBlock: QUQFOY_clean_sbu_3, # of connection points: 4
#     Node 4, Type 0, BuildingBlock: QUQFOY_clean_sbu_3, # of connection points: 4
#     Node 5, Type 0, BuildingBlock: QUQFOY_clean_sbu_3, # of connection points: 4
#     Node 6, Type 0, BuildingBlock: QUQFOY_clean_sbu_3, # of connection points: 4
#     Node 7, Type 0, BuildingBlock: QUQFOY_clean_sbu_3, # of connection points: 4
#     Node 8, Type 0, BuildingBlock: QUQFOY_clean_sbu_3, # of connection points: 4
#     Node 9, Type 0, BuildingBlock: QUQFOY_clean_sbu_3, # of connection points: 4
#     Node 10, Type 0, BuildingBlock: QUQFOY_clean_sbu_3, # of connection points: 4
#     Node 11, Type 0, BuildingBlock: QUQFOY_clean_sbu_3, # of connection points: 4
#     Node 12, Type 0, BuildingBlock: QUQFOY_clean_sbu_3, # of connection points: 4
#     Node 13, Type 0, BuildingBlock: QUQFOY_clean_sbu_3, # of connection points: 4
#     Node 14, Type 0, BuildingBlock: QUQFOY_clean_sbu_3, # of connection points: 4
#     Node 15, Type 0, BuildingBlock: QUQFOY_clean_sbu_3, # of connection points: 4
#     Node 16, Type 0, BuildingBlock: QUQFOY_clean_sbu_3, # of connection points: 4
#     Node 17, Type 0, BuildingBlock: QUQFOY_clean_sbu_3, # of connection points: 4
#     Node 18, Type 0, BuildingBlock: QUQFOY_clean_sbu_3, # of connection points: 4
#     Node 19, Type 0, BuildingBlock: QUQFOY_clean_sbu_3, # of connection points: 4
#     Node 20, Type 0, BuildingBlock: QUQFOY_clean_sbu_3, # of connection points: 4
#     Node 21, Type 0, BuildingBlock: QUQFOY_clean_sbu_3, # of connection points: 4
#     Node 22, Type 0, BuildingBlock: QUQFOY_clean_sbu_3, # of connection points: 4
#     Node 23, Type 0, BuildingBlock: QUQFOY_clean_sbu_3, # of connection points: 4
#     Edge 24, Type (0, 0), BuildingBlock: UVAHIK_clean_linker_0, # of connection points: 2
#     Edge 25, Type (0, 0), BuildingBlock: UVAHIK_clean_linker_0, # of connection points: 2
#     Edge 26, Type (0, 0), BuildingBlock: UVAHIK_clean_linker_0, # of connection points: 2
#     Edge 27, Type (0, 0), BuildingBlock: UVAHIK_clean_linker_0, # of connection points: 2
#     Edge 28, Type (0, 0), BuildingBlock: UVAHIK_clean_linker_0, # of connection points: 2
#     Edge 29, Type (0, 0), BuildingBlock: UVAHIK_clean_linker_0, # of connection points: 2
#     Edge 30, Type (0, 0), BuildingBlock: UVAHIK_clean_linker_0, # of connection points: 2
#     Edge 31, Type (0, 0), BuildingBlock: UVAHIK_clean_linker_0, # of connection points: 2
#     Edge 32, Type (0, 0), BuildingBlock: UVAHIK_clean_linker_0, # of connection points: 2
#     Edge 33, Type (0, 0), BuildingBlock: UVAHIK_clean_linker_0, # of connection points: 2
#     Edge 34, Type (0, 0), BuildingBlock: UVAHIK_clean_linker_0, # of connection points: 2
#     Edge 35, Type (0, 0), BuildingBlock: UVAHIK_clean_linker_0, # of connection points: 2
#     Edge 36, Type (0, 0), BuildingBlock: UVAHIK_clean_linker_0, # of connection points: 2
#     Edge 37, Type (0, 0), BuildingBlock: UVAHIK_clean_linker_0, # of connection points: 2
#     Edge 38, Type (0, 0), BuildingBlock: UVAHIK_clean_linker_0, # of connection points: 2
#     Edge 39, Type (0, 0), BuildingBlock: UVAHIK_clean_linker_0, # of connection points: 2
#     Edge 40, Type (0, 0), BuildingBlock: UVAHIK_clean_linker_0, # of connection points: 2
#     Edge 41, Type (0, 0), BuildingBlock: UVAHIK_clean_linker_0, # of connection points: 2
#     Edge 42, Type (0, 0), BuildingBlock: UVAHIK_clean_linker_0, # of connection points: 2
#     Edge 43, Type (0, 0), BuildingBlock: UVAHIK_clean_linker_0, # of connection points: 2
#     Edge 44, Type (0, 0), BuildingBlock: UVAHIK_clean_linker_0, # of connection points: 2
#     Edge 45, Type (0, 0), BuildingBlock: UVAHIK_clean_linker_0, # of connection points: 2
#     Edge 46, Type (0, 0), BuildingBlock: UVAHIK_clean_linker_0, # of connection points: 2
#     Edge 47, Type (0, 0), BuildingBlock: UVAHIK_clean_linker_0, # of connection points: 2
#     Edge 48, Type (0, 0), BuildingBlock: UVAHIK_clean_linker_0, # of connection points: 2
#     Edge 49, Type (0, 0), BuildingBlock: UVAHIK_clean_linker_0, # of connection points: 2
#     Edge 50, Type (0, 0), BuildingBlock: UVAHIK_clean_linker_0, # of connection points: 2
#     Edge 51, Type (0, 0), BuildingBlock: UVAHIK_clean_linker_0, # of connection points: 2
#     Edge 52, Type (0, 0), BuildingBlock: UVAHIK_clean_linker_0, # of connection points: 2
#     Edge 53, Type (0, 0), BuildingBlock: UVAHIK_clean_linker_0, # of connection points: 2
#     Edge 54, Type (0, 0), BuildingBlock: UVAHIK_clean_linker_0, # of connection points: 2
#     Edge 55, Type (0, 0), BuildingBlock: UVAHIK_clean_linker_0, # of connection points: 2
#     Edge 56, Type (0, 0), BuildingBlock: UVAHIK_clean_linker_0, # of connection points: 2
#     Edge 57, Type (0, 0), BuildingBlock: UVAHIK_clean_linker_0, # of connection points: 2
#     Edge 58, Type (0, 0), BuildingBlock: UVAHIK_clean_linker_0, # of connection points: 2
#     Edge 59, Type (0, 0), BuildingBlock: UVAHIK_clean_linker_0, # of connection points: 2
#     Edge 60, Type (0, 0), BuildingBlock: UVAHIK_clean_linker_0, # of connection points: 2
#     Edge 61, Type (0, 0), BuildingBlock: UVAHIK_clean_linker_0, # of connection points: 2
#     Edge 62, Type (0, 0), BuildingBlock: UVAHIK_clean_linker_0, # of connection points: 2
#     Edge 63, Type (0, 0), BuildingBlock: UVAHIK_clean_linker_0, # of connection points: 2
#     Edge 64, Type (0, 0), BuildingBlock: UVAHIK_clean_linker_0, # of connection points: 2
#     Edge 65, Type (0, 0), BuildingBlock: UVAHIK_clean_linker_0, # of connection points: 2
#     Edge 66, Type (0, 0), BuildingBlock: UVAHIK_clean_linker_0, # of connection points: 2
#     Edge 67, Type (0, 0), BuildingBlock: UVAHIK_clean_linker_0, # of connection points: 2
#     Edge 68, Type (0, 0), BuildingBlock: UVAHIK_clean_linker_0, # of connection points: 2
#     Edge 69, Type (0, 0), BuildingBlock: UVAHIK_clean_linker_0, # of connection points: 2
#     Edge 70, Type (0, 0), BuildingBlock: UVAHIK_clean_linker_0, # of connection points: 2
#     Edge 71, Type (0, 0), BuildingBlock: UVAHIK_clean_linker_0, # of connection points: 2
# Relax obj value: 0.071
# Max RMSD: 0.094
# Mean RMSD: 0.094
data_MOF--net-gme--node1-QUQFOY_clean_sbu_3--edge1-UVAHIK_clean_linker_0
_symmetry_space_group_name_H-M    P1
_symmetry_Int_Tables_number       1
_symmetry_cell_setting            triclinic
loop_
_symmetry_equiv_pos_as_xyz
'x, y, z'
_cell_length_a     73.632022
_cell_length_b     73.14511
_cell_length_c     76.977662
_cell_angle_alpha  89.921303
_cell_angle_beta   90.422832
_cell_angle_gamma 120.20962
loop_
_atom_site_label
_atom_site_type_symbol
_atom_site_fract_x
_atom_site_fract_y
_atom_site_fract_z
_atom_type_partial_charge
C0 C 0.3919 0.09564 0.10649 0.0
O1 O 0.40778 0.0968 0.11417 0.0
Cd2 Cd 0.415 0.06858 0.11688 0.0
O3 O 0.37831 0.07846 0.09913 0.0
Cd4 Cd 0.37314 0.04222 0.09428 0.0
C5 C 0.36956 0.03248 0.13766 0.0
O6 O 0.40985 0.05368 0.08871 0.0
O7 O 0.38997 0.02026 0.09297 0.0
O8 O 0.36346 0.04637 0.06485 0.0
C9 C 0.40784 0.03545 0.08871 0.0
O10 O 0.3895 0.04404 0.13751 0.0
C11 C 0.34782 0.02783 0.0632 0.0
O12 O 0.35865 0.0301 0.12397 0.0
O13 O 0.34299 0.01595 0.07649 0.0
C14 C 0.28229 0.40236 0.60277 0.0
O15 O 0.29618 0.41927 0.61006 0.0
Cd16 Cd 0.33047 0.42658 0.61733 0.0
O17 O 0.28673 0.38845 0.59765 0.0
Cd18 Cd 0.3186 0.38419 0.59574 0.0
C19 C 0.31751 0.38019 0.63963 0.0
O20 O 0.34352 0.42129 0.59086 0.0
O21 O 0.35769 0.40246 0.59656 0.0
O22 O 0.30664 0.37438 0.5659 0.0
C23 C 0.36011 0.42028 0.59225 0.0
O24 O 0.32365 0.39986 0.63917 0.0
C25 C 0.30982 0.35892 0.56487 0.0
O26 O 0.314 0.36952 0.62564 0.0
O27 O 0.31637 0.35432 0.57861 0.0
C28 C 0.87453 0.29365 0.10442 0.0
O29 O 0.8733 0.30871 0.11139 0.0
Cd30 Cd 0.90119 0.34452 0.11335 0.0
O31 O 0.89164 0.29702 0.0975 0.0
Cd32 Cd 0.92764 0.32811 0.09256 0.0
C33 C 0.93727 0.33634 0.13574 0.0
O34 O 0.91624 0.35327 0.08533 0.0
O35 O 0.94933 0.36712 0.09034 0.0
O36 O 0.92341 0.31235 0.06392 0.0
C37 C 0.93428 0.36965 0.08542 0.0
O38 O 0.92584 0.34479 0.13464 0.0
C39 C 0.94211 0.31605 0.06246 0.0
O40 O 0.93956 0.32685 0.12276 0.0
O41 O 0.95416 0.32443 0.07554 0.0
C42 C 0.57908 0.88667 0.60717 0.0
O43 O 0.56252 0.88383 0.61461 0.0
Cd44 Cd 0.5511 0.90904 0.61634 0.0
O45 O 0.59126 0.90414 0.5996 0.0
Cd46 Cd 0.59248 0.93861 0.59434 0.0
C47 C 0.59464 0.94852 0.6376 0.0
O48 O 0.55497 0.92326 0.58804 0.0
O49 O 0.57209 0.95691 0.5922 0.0
O50 O 0.60598 0.93603 0.56603 0.0
C51 C 0.55497 0.94057 0.58793 0.0
O52 O 0.57495 0.93544 0.63706 0.0
C53 C 0.61836 0.95573 0.56411 0.0
O54 O 0.60608 0.95181 0.62424 0.0
O55 O 0.6197 0.9676 0.57669 0.0
C56 C 0.67818 0.57963 0.10423 0.0
O57 O 0.66326 0.56317 0.1111 0.0
Cd58 Cd 0.62772 0.55522 0.11323 0.0
O59 O 0.67482 0.59361 0.09746 0.0
Cd60 Cd 0.64388 0.59867 0.09273 0.0
C61 C 0.6361 0.59953 0.13594 0.0
O62 O 0.61852 0.56197 0.08544 0.0
O63 O 0.60517 0.5816 0.09078 0.0
O64 O 0.65818 0.60996 0.06376 0.0
C65 C 0.60237 0.56387 0.08573 0.0
O66 O 0.62773 0.57953 0.1347 0.0
C67 C 0.65528 0.62562 0.06276 0.0
O68 O 0.64541 0.61156 0.12304 0.0
O69 O 0.64808 0.62974 0.07625 0.0
C70 C 0.08493 0.69062 0.60701 0.0
O71 O 0.08729 0.67611 0.61381 0.0
Cd72 Cd 0.06133 0.63948 0.61466 0.0
O73 O 0.06756 0.68621 0.59973 0.0
Cd74 Cd 0.03259 0.65371 0.59418 0.0
C75 C 0.02346 0.64413 0.63715 0.0
O76 O 0.04633 0.63057 0.58646 0.0
O77 O 0.01316 0.61481 0.59143 0.0
O78 O 0.03504 0.67102 0.56638 0.0
C79 C 0.02881 0.6135 0.58641 0.0
O80 O 0.03579 0.63673 0.63587 0.0
C81 C 0.01553 0.66429 0.56471 0.0
O82 O 0.02049 0.65352 0.62439 0.0
O83 O 0.00389 0.6536 0.57727 0.0
C84 C 0.87477 0.58224 0.34889 0.0
O85 O 0.87297 0.56571 0.34184 0.0
Cd86 Cd 0.90015 0.55717 0.33979 0.0
O87 O 0.8922 0.596 0.35573 0.0
Cd88 Cd 0.92808 0.60062 0.36021 0.0
C89 C 0.93649 0.60105 0.31707 0.0
O90 O 0.91563 0.56371 0.36781 0.0
O91 O 0.94869 0.58253 0.36269 0.0
O92 O 0.92541 0.61512 0.38807 0.0
C93 C 0.93345 0.56507 0.36774 0.0
O94 O 0.92469 0.58108 0.31832 0.0
C95 C 0.94483 0.6285 0.38965 0.0
O96 O 0.93936 0.61322 0.32995 0.0
O97 O 0.95652 0.62993 0.37704 0.0
C98 C 0.28235 0.88658 0.84456 0.0
O99 O 0.29653 0.8844 0.8372 0.0
Cd100 Cd 0.33272 0.911 0.8356 0.0
O101 O 0.28695 0.90392 0.85212 0.0
Cd102 Cd 0.31927 0.93905 0.85788 0.0
C103 C 0.32683 0.94955 0.81474 0.0
O104 O 0.3428 0.92538 0.8639 0.0
O105 O 0.35808 0.95901 0.85994 0.0
O106 O 0.30433 0.93453 0.88672 0.0
C107 C 0.35967 0.94309 0.8641 0.0
O108 O 0.33406 0.93698 0.81516 0.0
C109 C 0.30889 0.95356 0.88891 0.0
O110 O 0.31838 0.95237 0.82815 0.0
O111 O 0.31744 0.96602 0.87617 0.0
C112 C 0.38858 0.29285 0.3495 0.0
O113 O 0.4051 0.30741 0.34246 0.0
Cd114 Cd 0.41454 0.34371 0.34061 0.0
O115 O 0.37551 0.29705 0.35663 0.0
Cd116 Cd 0.37221 0.32899 0.36194 0.0
C117 C 0.3704 0.33683 0.31872 0.0
O118 O 0.40919 0.35336 0.36862 0.0
O119 O 0.39048 0.36795 0.36406 0.0
O120 O 0.3613 0.31369 0.39068 0.0
C121 C 0.408 0.37003 0.36863 0.0
O122 O 0.39023 0.34463 0.3196 0.0
C123 C 0.34665 0.31783 0.39249 0.0
O124 O 0.35873 0.32786 0.33184 0.0
O125 O 0.34283 0.32626 0.37956 0.0
C126 C 0.09041 0.39844 0.84891 0.0
O127 O 0.09245 0.41513 0.84199 0.0
Cd128 Cd 0.06594 0.42476 0.84032 0.0
O129 O 0.07314 0.38513 0.85604 0.0
Cd130 Cd 0.03804 0.38182 0.86123 0.0
C131 C 0.02836 0.38092 0.81803 0.0
O132 O 0.05067 0.41891 0.86819 0.0
O133 O 0.01747 0.39991 0.86308 0.0
O134 O 0.04088 0.37056 0.89041 0.0
C135 C 0.03282 0.41751 0.86795 0.0
O136 O 0.04052 0.40086 0.8191 0.0
C137 C 0.02218 0.35518 0.89131 0.0
O138 O 0.02563 0.36892 0.83101 0.0
O139 O 0.01087 0.35118 0.87771 0.0
C140 C 0.67736 0.09441 0.34634 0.0
O141 O 0.66267 0.09572 0.33878 0.0
Cd142 Cd 0.62715 0.06791 0.33614 0.0
O143 O 0.67372 0.07714 0.3535 0.0
Cd144 Cd 0.64244 0.04085 0.35788 0.0
C145 C 0.63571 0.03159 0.31454 0.0
O146 O 0.61794 0.05318 0.36433 0.0
O147 O 0.60364 0.01982 0.3594 0.0
O148 O 0.65901 0.04432 0.38633 0.0
C149 C 0.60145 0.03517 0.36414 0.0
O150 O 0.62751 0.0433 0.31514 0.0
C151 C 0.65285 0.02483 0.38819 0.0
O152 O 0.64444 0.02897 0.32797 0.0
O153 O 0.64288 0.01276 0.37548 0.0
C154 C 0.57369 0.68862 0.84625 0.0
O155 O 0.55765 0.67375 0.83872 0.0
Cd156 Cd 0.54965 0.63794 0.83665 0.0
O157 O 0.58709 0.68502 0.85376 0.0
Cd158 Cd 0.59164 0.65371 0.85917 0.0
C159 C 0.59473 0.64633 0.81605 0.0
O160 O 0.55473 0.62866 0.86502 0.0
O161 O 0.5741 0.61472 0.86127 0.0
O162 O 0.60222 0.66905 0.88809 0.0
C163 C 0.55636 0.61224 0.86535 0.0
O164 O 0.57484 0.63817 0.8163 0.0
C165 C 0.61718 0.66535 0.89012 0.0
O166 O 0.60589 0.65522 0.82957 0.0
O167 O 0.62125 0.65713 0.87726 0.0
C168 C 0.5734 0.8849 0.84532 0.0
O169 O 0.55731 0.88335 0.83774 0.0
Cd170 Cd 0.54898 0.91079 0.83578 0.0
O171 O 0.58663 0.90212 0.85286 0.0
Cd172 Cd 0.59058 0.93783 0.85815 0.0
C173 C 0.59356 0.9485 0.81504 0.0
O174 O 0.55366 0.92487 0.86422 0.0
O175 O 0.57217 0.95841 0.86016 0.0
O176 O 0.60145 0.93334 0.88703 0.0
C177 C 0.55467 0.94264 0.86441 0.0
O178 O 0.57371 0.93632 0.81534 0.0
C179 C 0.61607 0.95233 0.88915 0.0
O180 O 0.60481 0.951 0.82852 0.0
O181 O 0.61985 0.96473 0.87635 0.0
C182 C 0.67965 0.58205 0.34995 0.0
O183 O 0.66476 0.56547 0.34302 0.0
Cd184 Cd 0.62907 0.55699 0.34081 0.0
O185 O 0.67617 0.59594 0.35666 0.0
Cd186 Cd 0.64497 0.60062 0.36097 0.0
C187 C 0.63663 0.60077 0.31772 0.0
O188 O 0.62046 0.5638 0.36869 0.0
O189 O 0.60631 0.58268 0.36311 0.0
O190 O 0.66215 0.61508 0.38899 0.0
C191 C 0.60405 0.56525 0.36839 0.0
O192 O 0.6284 0.58081 0.31911 0.0
C193 C 0.65611 0.62847 0.39042 0.0
O194 O 0.64607 0.61304 0.33057 0.0
O195 O 0.64594 0.62999 0.37762 0.0
C196 C 0.08857 0.68997 0.84847 0.0
O197 O 0.09065 0.67532 0.84168 0.0
Cd198 Cd 0.06433 0.63873 0.84057 0.0
O199 O 0.07138 0.68577 0.85575 0.0
Cd200 Cd 0.0365 0.65352 0.86145 0.0
C201 C 0.02629 0.6439 0.8184 0.0
O202 O 0.04942 0.62949 0.86859 0.0
O203 O 0.01613 0.61461 0.86379 0.0
O204 O 0.0395 0.66804 0.89046 0.0
C205 C 0.03162 0.61273 0.86856 0.0
O206 O 0.03854 0.63637 0.81948 0.0
C207 C 0.02083 0.66457 0.89132 0.0
O208 O 0.0237 0.65329 0.83131 0.0
O209 O 0.00944 0.65689 0.87778 0.0
C210 C 0.39131 0.0991 0.35033 0.0
O211 O 0.40835 0.10201 0.34381 0.0
Cd212 Cd 0.41556 0.07449 0.33812 0.0
O213 O 0.37748 0.0808 0.3557 0.0
Cd214 Cd 0.37339 0.04462 0.35904 0.0
C215 C 0.36973 0.04109 0.31519 0.0
O216 O 0.41012 0.05604 0.36474 0.0
O217 O 0.39068 0.02304 0.3584 0.0
O218 O 0.36402 0.04731 0.38876 0.0
C219 C 0.40847 0.03803 0.3633 0.0
O220 O 0.38933 0.05444 0.31594 0.0
C221 C 0.34853 0.02863 0.38992 0.0
O222 O 0.35888 0.03418 0.32901 0.0
O223 O 0.34364 0.01729 0.37626 0.0
C224 C 0.28434 0.39754 0.84788 0.0
O225 O 0.29881 0.41385 0.84046 0.0
Cd226 Cd 0.33463 0.4226 0.83821 0.0
O227 O 0.28838 0.38433 0.85525 0.0
Cd228 Cd 0.31994 0.38048 0.86037 0.0
C229 C 0.32615 0.37746 0.81697 0.0
O230 O 0.34489 0.41767 0.86626 0.0
O231 O 0.35869 0.39821 0.86186 0.0
O232 O 0.30648 0.3703 0.88972 0.0
C233 C 0.36124 0.41608 0.86618 0.0
O234 O 0.33426 0.39748 0.81734 0.0
C235 C 0.30945 0.35471 0.89101 0.0
O236 O 0.31776 0.36631 0.83051 0.0
O237 O 0.31641 0.35018 0.87759 0.0
C238 C 0.87237 0.29218 0.34714 0.0
O239 O 0.87091 0.30703 0.33996 0.0
Cd240 Cd 0.89859 0.34299 0.33819 0.0
O241 O 0.88954 0.29586 0.35439 0.0
Cd242 Cd 0.9253 0.32714 0.35985 0.0
C243 C 0.93532 0.3353 0.31683 0.0
O244 O 0.91345 0.35209 0.36644 0.0
O245 O 0.94671 0.36608 0.3624 0.0
O246 O 0.92053 0.31135 0.38847 0.0
C247 C 0.93149 0.36851 0.36677 0.0
O248 O 0.92362 0.34347 0.31753 0.0
C249 C 0.93918 0.31501 0.39047 0.0
O250 O 0.93766 0.32599 0.32998 0.0
O251 O 0.95151 0.32345 0.3777 0.0
C252 C 0.08663 0.39838 0.60345 0.0
O253 O 0.08893 0.41504 0.61061 0.0
Cd254 Cd 0.06203 0.42379 0.61366 0.0
O255 O 0.0689 0.38473 0.597 0.0
Cd256 Cd 0.0333 0.38088 0.59316 0.0
C257 C 0.02564 0.38019 0.63651 0.0
O258 O 0.04595 0.41773 0.58591 0.0
O259 O 0.01297 0.3996 0.59146 0.0
O260 O 0.03564 0.36906 0.56421 0.0
C261 C 0.02841 0.41692 0.58636 0.0
O262 O 0.03781 0.40011 0.63534 0.0
C263 C 0.01682 0.35392 0.56315 0.0
O264 O 0.02221 0.36807 0.62347 0.0
O265 O 0.00555 0.35032 0.57658 0.0
C266 C 0.67858 0.09659 0.10535 0.0
O267 O 0.6639 0.09793 0.11268 0.0
Cd268 Cd 0.62843 0.06988 0.11524 0.0
O269 O 0.67494 0.07928 0.09828 0.0
Cd270 Cd 0.64378 0.04303 0.0935 0.0
C271 C 0.63723 0.03359 0.13681 0.0
O272 O 0.61839 0.05434 0.0873 0.0
O273 O 0.60503 0.02102 0.09206 0.0
O274 O 0.65733 0.0468 0.06418 0.0
C275 C 0.60221 0.03609 0.08751 0.0
O276 O 0.62907 0.04534 0.1362 0.0
C277 C 0.65448 0.02826 0.06279 0.0
O278 O 0.64588 0.03099 0.12344 0.0
O279 O 0.64761 0.01657 0.07618 0.0
C280 C 0.58136 0.69316 0.60786 0.0
O281 O 0.56486 0.67904 0.61526 0.0
Cd282 Cd 0.55401 0.64243 0.61717 0.0
O283 O 0.59382 0.68831 0.60043 0.0
Cd284 Cd 0.59569 0.65537 0.59546 0.0
C285 C 0.59774 0.64784 0.63873 0.0
O286 O 0.55836 0.63222 0.58903 0.0
O287 O 0.57577 0.61634 0.59372 0.0
O288 O 0.60915 0.67153 0.56709 0.0
C289 C 0.55854 0.61502 0.58925 0.0
O290 O 0.57801 0.64068 0.63806 0.0
C291 C 0.62177 0.66464 0.56536 0.0
O292 O 0.60925 0.65629 0.62542 0.0
O293 O 0.62326 0.65434 0.57807 0.0
C294 C 0.87357 0.5799 0.10418 0.0
O295 O 0.87223 0.56349 0.11107 0.0
Cd296 Cd 0.90008 0.55584 0.11313 0.0
O297 O 0.89076 0.59389 0.09736 0.0
Cd298 Cd 0.92673 0.59922 0.09244 0.0
C299 C 0.93624 0.60049 0.13559 0.0
O300 O 0.91535 0.56249 0.08523 0.0
O301 O 0.94846 0.5823 0.09031 0.0
O302 O 0.92249 0.61072 0.06381 0.0
C303 C 0.93346 0.56451 0.08538 0.0
O304 O 0.92471 0.58047 0.13445 0.0
C305 C 0.94119 0.62595 0.06234 0.0
O306 O 0.93863 0.61241 0.12263 0.0
O307 O 0.95324 0.62978 0.07543 0.0
C308 C 0.28093 0.88432 0.60833 0.0
O309 O 0.29485 0.88187 0.61606 0.0
Cd310 Cd 0.33136 0.90763 0.61789 0.0
O311 O 0.28596 0.90156 0.60041 0.0
Cd312 Cd 0.31883 0.93599 0.59457 0.0
C313 C 0.32667 0.94734 0.6377 0.0
O314 O 0.34161 0.92127 0.58947 0.0
O315 O 0.35757 0.95506 0.59282 0.0
O316 O 0.30431 0.93166 0.56535 0.0
C317 C 0.3587 0.93878 0.58914 0.0
O318 O 0.33347 0.93441 0.63779 0.0
C319 C 0.30913 0.95077 0.56314 0.0
O320 O 0.31844 0.95012 0.62401 0.0
O321 O 0.31762 0.96317 0.57602 0.0
C322 C 0.39168 0.29215 0.10687 0.0
O323 O 0.40789 0.30719 0.11406 0.0
Cd324 Cd 0.41566 0.34298 0.11592 0.0
O325 O 0.37795 0.29551 0.0997 0.0
Cd326 Cd 0.37293 0.32656 0.09452 0.0
C327 C 0.37133 0.33488 0.13759 0.0
O328 O 0.40954 0.35181 0.08774 0.0
O329 O 0.39008 0.36549 0.09227 0.0
O330 O 0.36162 0.31077 0.06582 0.0
C331 C 0.4077 0.36811 0.08759 0.0
O332 O 0.39121 0.3433 0.13676 0.0
C333 C 0.3467 0.31455 0.06397 0.0
O334 O 0.35958 0.32535 0.1245 0.0
O335 O 0.34291 0.32293 0.07687 0.0
C336 C 0.3445 0.01395 0.29369 0.0
C337 C 0.35987 0.03489 0.29775 0.0
C338 C 0.33757 0.00823 0.27642 0.0
C339 C 0.34267 0.00131 0.23727 0.0
H340 H 0.33432 0.03901 0.20707 0.0
C341 C 0.37053 0.01855 0.16698 0.0
C342 C 0.35948 0.0233 0.15451 0.0
C343 C 0.36339 0.0137 0.18403 0.0
C344 C 0.33613 0.02799 0.21528 0.0
H345 H 0.37909 0.0664 0.28727 0.0
H346 H 0.36673 0.05663 0.25753 0.0
H347 H 0.33429 0.04306 0.23852 0.0
H348 H 0.33163 0.02555 0.14991 0.0
H349 H 0.31921 0.01737 0.18 0.0
H350 H 0.3457 0.98701 0.21399 0.0
C351 C 0.36009 0.04455 0.26747 0.0
C352 C 0.33627 0.03042 0.23331 0.0
C353 C 0.36731 0.05012 0.28451 0.0
C354 C 0.34041 0.02186 0.15923 0.0
C355 C 0.33339 0.01732 0.17646 0.0
C356 C 0.3427 -0.00102 0.21921 0.0
C357 C 0.34549 0.02349 0.26312 0.0
C358 C 0.34036 0.01766 0.24448 0.0
C359 C 0.34514 0.01375 0.18916 0.0
C360 C 0.34025 0.01284 0.208 0.0
H361 H 0.3386 0.0019 0.30366 0.0
H362 H 0.32631 -0.00814 0.27341 0.0
H363 H 0.34593 -0.00871 0.24552 0.0
H364 H 0.38525 0.01946 0.16371 0.0
H365 H 0.37296 0.01127 0.19346 0.0
C366 C 0.30618 0.37732 0.67029 0.0
C367 C 0.31379 0.37004 0.65689 0.0
C368 C 0.30452 0.3698 0.68719 0.0
C369 C 0.29472 0.34525 0.72088 0.0
H370 H 0.34746 0.3546 0.74026 0.0
C371 C 0.30764 0.34827 0.79497 0.0
C372 C 0.3253 0.36752 0.80001 0.0
C373 C 0.3051 0.34144 0.77762 0.0
C374 C 0.33252 0.35161 0.73502 0.0
H375 H 0.32513 0.34871 0.65055 0.0
H376 H 0.32283 0.33589 0.68055 0.0
H377 H 0.34332 0.35533 0.70875 0.0
H378 H 0.35489 0.39377 0.79127 0.0
H379 H 0.3507 0.38177 0.7613 0.0
H380 H 0.28431 0.34281 0.74711 0.0
C381 C 0.31789 0.34726 0.67777 0.0
C382 C 0.33009 0.35186 0.71697 0.0
C383 C 0.31912 0.35451 0.66065 0.0
C384 C 0.34107 0.3789 0.78775 0.0
C385 C 0.33872 0.37193 0.77057 0.0
C386 C 0.29706 0.34481 0.7389 0.0
C387 C 0.31075 0.35504 0.69124 0.0
C388 C 0.31148 0.3496 0.70976 0.0
C389 C 0.32038 0.35354 0.76513 0.0
C390 C 0.31631 0.34889 0.74621 0.0
H391 H 0.30186 0.38923 0.66777 0.0
H392 H 0.29923 0.37633 0.69727 0.0
H393 H 0.28013 0.3433 0.71567 0.0
H394 H 0.29518 0.33924 0.80413 0.0
H395 H 0.29084 0.32714 0.77383 0.0
C396 C 0.94361 0.31848 0.16103 0.0
C397 C 0.94681 0.33705 0.15285 0.0
C398 C 0.94777 0.31858 0.1789 0.0
C399 C 0.9485 0.34861 0.21739 0.0
H400 H 0.96764 0.31552 0.24274 0.0
C401 C 0.95446 0.35524 0.29069 0.0
C402 C 0.9452 0.3362 0.3 0.0
C403 C 0.9593 0.35563 0.27317 0.0
C404 C 0.96221 0.32479 0.23581 0.0
H405 H 0.95862 0.37053 0.15632 0.0
H406 H 0.96678 0.37097 0.18706 0.0
H407 H 0.96799 0.3157 0.21079 0.0
H408 H 0.93488 0.30283 0.29866 0.0
H409 H 0.94287 0.30331 0.26766 0.0
H410 H 0.94217 0.35736 0.24201 0.0
C411 C 0.96037 0.35616 0.18003 0.0
C412 C 0.96241 0.32489 0.21753 0.0
C413 C 0.95591 0.35598 0.16237 0.0
C414 C 0.94222 0.31775 0.29177 0.0
C415 C 0.94676 0.31805 0.27403 0.0
C416 C 0.94829 0.34851 0.23548 0.0
C417 C 0.95534 0.33729 0.18874 0.0
C418 C 0.95571 0.33699 0.20812 0.0
C419 C 0.9545 0.33686 0.26436 0.0
C420 C 0.95529 0.33678 0.24499 0.0
H421 H 0.93639 0.30364 0.15397 0.0
H422 H 0.94371 0.30376 0.18518 0.0
H423 H 0.94252 0.35754 0.21066 0.0
H424 H 0.957 0.3697 0.29678 0.0
H425 H 0.96583 0.37051 0.26628 0.0
C426 C 0.59176 0.96328 0.66584 0.0
C427 C 0.60387 0.9588 0.65448 0.0
C428 C 0.59836 0.9696 0.68292 0.0
C429 C 0.6272 0.96148 0.71752 0.0
H430 H 0.61479 2e-05 0.74225 0.0
C431 C 0.62234 0.96112 0.79277 0.0
C432 C 0.60309 0.95869 0.79829 0.0
C433 C 0.62904 0.96715 0.77559 0.0
C434 C 0.61849 0.9893 0.73555 0.0
H435 H 0.63282 0.9582 0.65191 0.0
H436 H 0.64431 0.96897 0.68214 0.0
H437 H 0.61485 -1e-05 0.71055 0.0
H438 H 0.57652 0.962 0.79061 0.0
H439 H 0.58822 0.97274 0.76103 0.0
H440 H 0.62965 0.94995 0.74254 0.0
C441 C 0.62975 0.96771 0.67767 0.0
C442 C 0.61854 0.9893 0.71739 0.0
C443 C 0.62327 0.96172 0.66036 0.0
C444 C 0.59141 0.96369 0.78672 0.0
C445 C 0.59821 0.97 0.76976 0.0
C446 C 0.62711 0.96145 0.73573 0.0
C447 C 0.61712 0.97133 0.68922 0.0
C448 C 0.622 0.97477 0.70815 0.0
C449 C 0.6168 0.97126 0.7638 0.0
C450 C 0.62185 0.97473 0.74493 0.0
H451 H 0.57673 0.96116 0.66167 0.0
H452 H 0.5881 0.97198 0.69147 0.0
H453 H 0.62981 0.95 0.71081 0.0
H454 H 0.63159 0.95723 0.8014 0.0
H455 H 0.64348 0.96806 0.77139 0.0
C456 C 0.61704 0.5984 0.29072 0.0
C457 C 0.6357 0.60912 0.30045 0.0
C458 C 0.61681 0.60245 0.27305 0.0
C459 C 0.64695 0.63667 0.23583 0.0
H460 H 0.61684 0.58333 0.21106 0.0
C461 C 0.65362 0.62416 0.1612 0.0
C462 C 0.63535 0.60817 0.15309 0.0
C463 C 0.6536 0.62828 0.17904 0.0
C464 C 0.62503 0.59845 0.21769 0.0
H465 H 0.66851 0.63345 0.29966 0.0
H466 H 0.66831 0.64028 0.2684 0.0
H467 H 0.61689 0.5835 0.24243 0.0
H468 H 0.60237 0.58542 0.15665 0.0
H469 H 0.60204 0.59314 0.18733 0.0
H470 H 0.6554 0.65145 0.21069 0.0
C471 C 0.65375 0.62896 0.27454 0.0
C472 C 0.62506 0.59855 0.23577 0.0
C473 C 0.65388 0.6251 0.29243 0.0
C474 C 0.61671 0.59771 0.16265 0.0
C475 C 0.6166 0.60202 0.18026 0.0
C476 C 0.64693 0.63657 0.21755 0.0
C477 C 0.63538 0.61699 0.26452 0.0
C478 C 0.63578 0.61762 0.24514 0.0
C479 C 0.63524 0.61655 0.18891 0.0
C480 C 0.63572 0.61741 0.20828 0.0
H481 H 0.60278 0.5861 0.29664 0.0
H482 H 0.60224 0.59339 0.26586 0.0
H483 H 0.65544 0.65163 0.24266 0.0
H484 H 0.66824 0.63231 0.15411 0.0
H485 H 0.66823 0.63959 0.18529 0.0
C486 C 0.01543 0.66035 0.66254 0.0
C487 C 0.0138 0.64248 0.65424 0.0
C488 C 0.01125 0.65977 0.68038 0.0
C489 C 0.01374 0.63109 0.7187 0.0
H490 H -0.00944 0.66028 0.74413 0.0
C491 C 0.00829 0.62348 0.79187 0.0
C492 C 0.01619 0.64233 0.8014 0.0
C493 C 0.00326 0.62284 0.77431 0.0
C494 C -0.00287 0.65212 0.73718 0.0
H495 H 0.00466 0.60956 0.65748 0.0
H496 H -0.00352 0.60822 0.68818 0.0
H497 H -0.00999 0.6603 0.71218 0.0
H498 H 0.0238 0.675 0.80039 0.0
H499 H 0.01549 0.67411 0.76932 0.0
H500 H 0.02137 0.62328 0.7433 0.0
C501 C 0.00169 0.62292 0.68125 0.0
C502 C -0.00318 0.65213 0.7189 0.0
C503 C 0.00618 0.6236 0.66362 0.0
C504 C 0.01756 0.66022 0.79333 0.0
C505 C 0.01283 0.65969 0.77555 0.0
C506 C 0.01405 0.63108 0.73678 0.0
C507 C 0.00522 0.64126 0.69008 0.0
C508 C 0.00497 0.64141 0.70946 0.0
C509 C 0.00649 0.6412 0.76568 0.0
C510 C 0.0056 0.64139 0.74632 0.0
H511 H 0.02147 0.67515 0.65559 0.0
H512 H 0.01411 0.67418 0.68677 0.0
H513 H 0.02083 0.62329 0.71194 0.0
H514 H 0.00695 0.60942 0.79784 0.0
H515 H -0.00217 0.60817 0.76725 0.0
C516 C 0.94326 0.62507 0.16077 0.0
C517 C 0.94583 0.6093 0.15271 0.0
C518 C 0.94751 0.62922 0.17862 0.0
C519 C 0.94695 0.59949 0.21726 0.0
H520 H 0.96871 0.65243 0.24239 0.0
C521 C 0.95409 0.59901 0.29046 0.0
C522 C 0.94587 0.60952 0.29994 0.0
C523 C 0.95858 0.60323 0.27286 0.0
C524 C 0.96253 0.63754 0.23552 0.0
H525 H 0.95668 0.58702 0.15637 0.0
H526 H 0.96493 0.59481 0.18709 0.0
H527 H 0.96873 0.65245 0.21043 0.0
H528 H 0.93708 0.63363 0.29881 0.0
H529 H 0.94441 0.64069 0.26767 0.0
H530 H 0.94022 0.58439 0.24194 0.0
C531 C 0.95896 0.60348 0.17996 0.0
C532 C 0.96254 0.63755 0.21724 0.0
C533 C 0.95443 0.59914 0.16233 0.0
C534 C 0.94358 0.62544 0.29178 0.0
C535 C 0.94775 0.62945 0.27395 0.0
C536 C 0.94692 0.59948 0.23534 0.0
C537 C 0.95454 0.61774 0.18855 0.0
C538 C 0.95494 0.61849 0.20792 0.0
C539 C 0.95445 0.61769 0.26415 0.0
C540 C 0.95489 0.61846 0.24478 0.0
H541 H 0.93646 0.63298 0.15363 0.0
H542 H 0.94394 0.64031 0.18483 0.0
H543 H 0.94029 0.58443 0.21058 0.0
H544 H 0.95614 0.58677 0.2965 0.0
H545 H 0.96432 0.59434 0.26585 0.0
C546 C 0.31078 0.96211 0.79203 0.0
C547 C 0.32763 0.95982 0.79795 0.0
C548 C 0.31016 0.96799 0.77473 0.0
C549 C 0.34291 0.98988 0.735 0.0
H550 H 0.29258 0.94986 0.7099 0.0
C551 C 0.34427 0.96308 0.66589 0.0
C552 C 0.32759 0.95804 0.65428 0.0
C553 C 0.34386 0.96969 0.68279 0.0
C554 C 0.30658 0.96154 0.7167 0.0
H555 H 0.35762 0.96325 0.79088 0.0
H556 H 0.35676 0.97379 0.76112 0.0
H557 H 0.29256 0.95025 0.74163 0.0
H558 H 0.29774 0.95675 0.65103 0.0
H559 H 0.29681 0.96807 0.68095 0.0
H560 H 0.35729 0.00036 0.71012 0.0
C561 C 0.34397 0.97104 0.76961 0.0
C562 C 0.30657 0.96176 0.73491 0.0
C563 C 0.34441 0.96486 0.78668 0.0
C564 C 0.31088 0.96071 0.65969 0.0
C565 C 0.31028 0.96701 0.67682 0.0
C566 C 0.34293 0.98964 0.71684 0.0
C567 C 0.32658 0.9721 0.76323 0.0
C568 C 0.32503 0.97531 0.74427 0.0
C569 C 0.32661 0.97116 0.68866 0.0
C570 C 0.32505 0.97484 0.70749 0.0
H571 H 0.29756 0.95816 0.80041 0.0
H572 H 0.29659 0.96875 0.77022 0.0
H573 H 0.35727 0.00079 0.74182 0.0
H574 H 0.35735 0.96115 0.66208 0.0
H575 H 0.35657 0.97247 0.69158 0.0
C576 C 0.34606 0.31899 0.29346 0.0
C577 C 0.36148 0.33756 0.30167 0.0
C578 C 0.34202 0.319 0.27558 0.0
C579 C 0.37152 0.34868 0.23716 0.0
H580 H 0.31933 0.31558 0.21162 0.0
C581 C 0.37232 0.35491 0.16384 0.0
C582 C 0.36246 0.33584 0.15448 0.0
C583 C 0.3679 0.35538 0.18136 0.0
C584 C 0.33402 0.32484 0.2186 0.0
H585 H 0.38331 0.37097 0.29823 0.0
H586 H 0.37564 0.37129 0.26746 0.0
H587 H 0.31907 0.316 0.24356 0.0
H588 H 0.3393 0.3025 0.15575 0.0
H589 H 0.33186 0.30314 0.18675 0.0
H590 H 0.38667 0.35718 0.2126 0.0
C591 C 0.36715 0.35653 0.27449 0.0
C592 C 0.33387 0.32509 0.23688 0.0
C593 C 0.3714 0.35643 0.29216 0.0
C594 C 0.34696 0.31744 0.16267 0.0
C595 C 0.34275 0.31783 0.18042 0.0
C596 C 0.37167 0.34843 0.21908 0.0
C597 C 0.35326 0.33763 0.26575 0.0
C598 C 0.35265 0.3372 0.24636 0.0
C599 C 0.35388 0.33668 0.19012 0.0
C600 C 0.35296 0.3367 0.20949 0.0
H601 H 0.33838 0.30418 0.30051 0.0
H602 H 0.33122 0.30416 0.26928 0.0
H603 H 0.3864 0.3576 0.24395 0.0
H604 H 0.38425 0.36934 0.15778 0.0
H605 H 0.37631 0.37029 0.18827 0.0
C606 C 0.00846 0.38242 0.6633 0.0
C607 C 0.01638 0.37174 0.65367 0.0
C608 C 0.00421 0.37828 0.68094 0.0
C609 C 0.00033 0.34394 0.7182 0.0
H610 H 0.0237 0.39721 0.74305 0.0
C611 C 0.02043 0.35617 0.79282 0.0
C612 C 0.01846 0.37225 0.80098 0.0
C613 C 0.01594 0.35209 0.77499 0.0
C614 C 0.01672 0.38211 0.73641 0.0
H615 H 0.02489 0.34742 0.6546 0.0
H616 H 0.01794 0.34045 0.68581 0.0
H617 H 0.0233 0.39713 0.71169 0.0
H618 H 0.00843 0.39521 0.79751 0.0
H619 H -0.00028 0.38752 0.76684 0.0
H620 H -0.00576 0.32909 0.74331 0.0
C621 C 0.01465 0.35179 0.6796 0.0
C622 C 0.01649 0.38205 0.71832 0.0
C623 C 0.0186 0.35572 0.66174 0.0
C624 C 0.01021 0.38283 0.79148 0.0
C625 C 0.00542 0.37855 0.77386 0.0
C626 C 0.00056 0.34399 0.73648 0.0
C627 C 0.00827 0.36371 0.68954 0.0
C628 C 0.00811 0.36302 0.70892 0.0
C629 C 0.00925 0.36393 0.76517 0.0
C630 C 0.00858 0.36312 0.74579 0.0
H631 H 0.00649 0.39475 0.65734 0.0
H632 H -0.00129 0.38732 0.68805 0.0
H633 H -0.00617 0.329 0.71135 0.0
H634 H 0.02696 0.34795 0.79986 0.0
H635 H 0.01905 0.34072 0.76871 0.0
C636 C 0.653 0.02047 0.29205 0.0
C637 C 0.63569 0.02208 0.29757 0.0
C638 C 0.65416 0.015 0.27476 0.0
C639 C 0.62224 -0.00747 0.23441 0.0
H640 H 0.67216 0.03388 0.21019 0.0
C641 C 0.62018 0.01827 0.16504 0.0
C642 C 0.637 0.02377 0.1537 0.0
C643 C 0.62087 0.0121 0.18206 0.0
C644 C 0.65831 0.02184 0.21675 0.0
H645 H 0.60552 0.01793 0.28973 0.0
H646 H 0.60731 0.00807 0.25996 0.0
H647 H 0.67185 0.0335 0.24193 0.0
H648 H 0.66748 0.02637 0.1511 0.0
H649 H 0.6689 0.01584 0.18124 0.0
H650 H 0.6083 0.98161 0.20928 0.0
C651 C 0.62005 0.01107 0.26878 0.0
C652 C 0.65813 0.02163 0.23496 0.0
C653 C 0.61907 0.01686 0.28585 0.0
C654 C 0.65423 0.02207 0.15954 0.0
C655 C 0.6551 0.01621 0.17679 0.0
C656 C 0.62242 -0.00726 0.21625 0.0
C657 C 0.63782 0.0106 0.26286 0.0
C658 C 0.63977 0.00757 0.24398 0.0
C659 C 0.63854 0.01151 0.18832 0.0
C660 C 0.64013 0.008 0.20721 0.0
H661 H 0.6661 0.02457 0.30079 0.0
H662 H 0.66803 0.01471 0.27059 0.0
H663 H 0.60799 0.98124 0.24097 0.0
H664 H 0.60668 0.01941 0.16091 0.0
H665 H 0.60797 0.00888 0.1906 0.0
C666 C 0.5949 0.63019 0.667 0.0
C667 C 0.60692 0.64703 0.65568 0.0
C668 C 0.6014 0.63061 0.68413 0.0
C669 C 0.62956 0.66805 0.71877 0.0
H670 H 0.61733 0.61704 0.7437 0.0
C671 C 0.62374 0.66315 0.794 0.0
C672 C 0.60443 0.64601 0.79935 0.0
C673 C 0.63069 0.66405 0.77689 0.0
C674 C 0.621 0.63149 0.73694 0.0
H675 H 0.63566 0.67719 0.65321 0.0
H676 H 0.64698 0.67815 0.68352 0.0
H677 H 0.61787 0.61721 0.712 0.0
H678 H 0.578 0.61582 0.79144 0.0
H679 H 0.59016 0.61717 0.762 0.0
H680 H 0.63152 0.68195 0.74373 0.0
C681 C 0.63255 0.66454 0.67898 0.0
C682 C 0.62131 0.63159 0.71879 0.0
C683 C 0.62617 0.66393 0.66163 0.0
C684 C 0.59292 0.62926 0.78769 0.0
C685 C 0.59998 0.62998 0.77081 0.0
C686 C 0.62923 0.66795 0.73698 0.0
C687 C 0.61998 0.64804 0.6905 0.0
C688 C 0.62468 0.64957 0.70947 0.0
C689 C 0.61866 0.64761 0.76502 0.0
C690 C 0.62402 0.64936 0.74624 0.0
H691 H 0.57999 0.61695 0.66277 0.0
H692 H 0.59119 0.61776 0.69265 0.0
H693 H 0.6321 0.68213 0.712 0.0
H694 H 0.63285 0.67634 0.80269 0.0
H695 H 0.64518 0.67781 0.77282 0.0
C696 C 0.37265 0.11447 0.09721 0.0
C697 C 0.38967 0.1147 0.10586 0.0
C698 C 0.37121 0.13285 0.09629 0.0
C699 C 0.40452 0.19091 0.09921 0.0
H700 H 0.35268 0.19072 0.10823 0.0
C701 C 0.40463 0.26737 0.11433 0.0
C702 C 0.38931 0.27077 0.10642 0.0
C703 C 0.40327 0.24769 0.11331 0.0
C704 C 0.3672 0.19097 0.10546 0.0
H705 H 0.41825 0.13438 0.12065 0.0
H706 H 0.41566 0.1661 0.11911 0.0
H707 H 0.3528 0.15727 0.10803 0.0
H708 H 0.36018 0.25584 0.09157 0.0
H709 H 0.35784 0.22127 0.08978 0.0
H710 H 0.41903 0.22447 0.09683 0.0
C711 C 0.40359 0.15187 0.1128 0.0
C712 C 0.36727 0.17183 0.10534 0.0
C713 C 0.40499 0.13359 0.11376 0.0
C714 C 0.37227 0.25377 0.09779 0.0
C715 C 0.37088 0.23396 0.0968 0.0
C716 C 0.40446 0.20993 0.09933 0.0
C717 C 0.38683 0.15181 0.10391 0.0
C718 C 0.38605 0.17168 0.10257 0.0
C719 C 0.38655 0.23083 0.10436 0.0
C720 C 0.38592 0.21026 0.10282 0.0
H721 H 0.36055 0.10017 0.091 0.0
H722 H 0.35814 0.13234 0.0893 0.0
H723 H 0.41915 0.19128 0.09662 0.0
H724 H 0.41789 0.28 0.12121 0.0
H725 H 0.41537 0.24568 0.11958 0.0
C726 C 0.12512 0.41211 0.60685 0.0
C727 C 0.10514 0.39556 0.6019 0.0
C728 C 0.1429 0.41029 0.60461 0.0
C729 C 0.16197 0.37326 0.60071 0.0
H730 H 0.21088 0.42215 0.58149 0.0
C731 C 0.24415 0.37989 0.59401 0.0
C732 C 0.26091 0.39917 0.6002 0.0
C733 C 0.22402 0.37726 0.59192 0.0
C734 C 0.19737 0.40837 0.58688 0.0
H735 H 0.08816 0.36381 0.59113 0.0
H736 H 0.11951 0.36058 0.58742 0.0
H737 H 0.17743 0.42133 0.58237 0.0
H738 H 0.2696 0.43076 0.60901 0.0
H739 H 0.23485 0.42616 0.60543 0.0
H740 H 0.18227 0.36067 0.60577 0.0
C741 C 0.12123 0.37499 0.59294 0.0
C742 C 0.17823 0.4079 0.58737 0.0
C743 C 0.10333 0.37688 0.59503 0.0
C744 C 0.25713 0.4157 0.60417 0.0
C745 C 0.23719 0.41313 0.60199 0.0
C746 C 0.18125 0.37376 0.60027 0.0
C747 C 0.14121 0.39185 0.59747 0.0
C748 C 0.1605 0.39066 0.59478 0.0
C749 C 0.22041 0.39394 0.59581 0.0
C750 C 0.19929 0.39165 0.59386 0.0
H751 H 0.12715 0.4267 0.61224 0.0
H752 H 0.15806 0.4234 0.60852 0.0
H753 H 0.14852 0.35979 0.60649 0.0
H754 H 0.24653 0.36682 0.59087 0.0
H755 H 0.21136 0.3623 0.58711 0.0
C756 C 0.85575 0.25514 0.09575 0.0
C757 C 0.8556 0.27222 0.10401 0.0
C758 C 0.83742 0.23524 0.09487 0.0
C759 C 0.7798 0.21082 0.09698 0.0
H760 H 0.77936 0.15863 0.10705 0.0
C761 C 0.70347 0.13466 0.11227 0.0
C762 C 0.69986 0.11563 0.10469 0.0
C763 C 0.7231 0.15295 0.11118 0.0
C764 C 0.7793 0.17305 0.10397 0.0
H765 H 0.83614 0.28152 0.11822 0.0
H766 H 0.80452 0.24706 0.11679 0.0
H767 H 0.81278 0.19223 0.10692 0.0
H768 H 0.71435 0.10087 0.09031 0.0
H769 H 0.74885 0.13307 0.08839 0.0
H770 H 0.74645 0.19189 0.09422 0.0
C771 C 0.81864 0.24906 0.11072 0.0
C772 C 0.79841 0.19227 0.1039 0.0
C773 C 0.83686 0.26883 0.11163 0.0
C774 C 0.71658 0.11527 0.09627 0.0
C775 C 0.73635 0.13367 0.09522 0.0
C776 C 0.7608 0.19171 0.09705 0.0
C777 C 0.81861 0.23209 0.10216 0.0
C778 C 0.79878 0.2114 0.10077 0.0
C779 C 0.73971 0.15277 0.10247 0.0
C780 C 0.76025 0.17267 0.10091 0.0
H781 H 0.86992 0.2572 0.08976 0.0
H782 H 0.83786 0.22246 0.08815 0.0
H783 H 0.7796 0.22522 0.09409 0.0
H784 H 0.69105 0.13555 0.11897 0.0
H785 H 0.72528 0.1673 0.11721 0.0
C786 C 0.57398 0.72095 0.61861 0.0
C787 C 0.58588 0.71533 0.60801 0.0
C788 C 0.57765 0.74159 0.61872 0.0
C789 C 0.59783 0.78936 0.59236 0.0
H790 H 0.59463 0.81407 0.63597 0.0
C791 C 0.59997 0.87003 0.59703 0.0
C792 C 0.58401 0.86935 0.60745 0.0
C793 C 0.60397 0.85319 0.59717 0.0
C794 C 0.59556 0.80739 0.62368 0.0
H795 H 0.6111 0.72714 0.58923 0.0
H796 H 0.61741 0.76343 0.58934 0.0
H797 H 0.59506 0.78098 0.6361 0.0
H798 H 0.55998 0.85057 0.62632 0.0
H799 H 0.56694 0.8215 0.62654 0.0
H800 H 0.59768 0.81557 0.57995 0.0
C801 C 0.60524 0.7517 0.59756 0.0
C802 C 0.59581 0.78845 0.62376 0.0
C803 C 0.60168 0.73097 0.59756 0.0
C804 C 0.57238 0.85166 0.61812 0.0
C805 C 0.57648 0.83503 0.61837 0.0
C806 C 0.59758 0.80839 0.59229 0.0
C807 C 0.59326 0.7572 0.60819 0.0
C808 C 0.59628 0.77887 0.60809 0.0
C809 C 0.59227 0.83554 0.60788 0.0
C810 C 0.59578 0.81724 0.60794 0.0
H811 H 0.5617 0.70937 0.62684 0.0
H812 H 0.5679 0.74521 0.62683 0.0
H813 H 0.59811 0.78232 0.58008 0.0
H814 H 0.6092 0.88342 0.58864 0.0
H815 H 0.61627 0.85403 0.58899 0.0
C816 C 0.70278 0.56641 0.11116 0.0
C817 C 0.69943 0.58206 0.10375 0.0
C818 C 0.72238 0.5679 0.1102 0.0
C819 C 0.77877 0.60466 0.1037 0.0
H820 H 0.77888 0.55285 0.09326 0.0
C821 C 0.85505 0.5997 0.09564 0.0
C822 C 0.85471 0.58225 0.10372 0.0
C823 C 0.8368 0.60117 0.09473 0.0
C824 C 0.77913 0.56743 0.0963 0.0
H825 H 0.71433 0.61187 0.08985 0.0
H826 H 0.74876 0.61444 0.08816 0.0
H827 H 0.74583 0.55281 0.09325 0.0
H828 H 0.83498 0.55299 0.11758 0.0
H829 H 0.80348 0.55564 0.11608 0.0
H830 H 0.8122 0.61916 0.10694 0.0
C831 C 0.7361 0.60104 0.09474 0.0
C832 C 0.76019 0.56741 0.0963 0.0
C833 C 0.71637 0.59952 0.09566 0.0
C834 C 0.83585 0.56657 0.11113 0.0
C835 C 0.8177 0.56801 0.11019 0.0
C836 C 0.79782 0.60468 0.10371 0.0
C837 C 0.7392 0.58507 0.10181 0.0
C838 C 0.75971 0.58588 0.10036 0.0
C839 C 0.81786 0.58517 0.1018 0.0
C840 C 0.79811 0.58592 0.10037 0.0
H841 H 0.6902 0.55281 0.11761 0.0
H842 H 0.72436 0.55555 0.11609 0.0
H843 H 0.77889 0.61912 0.10693 0.0
H844 H 0.86932 0.61207 0.08982 0.0
H845 H 0.83738 0.61455 0.08815 0.0
C846 C 0.25306 0.84904 0.61908 0.0
C847 C 0.25876 0.86684 0.60859 0.0
C848 C 0.23239 0.83226 0.61927 0.0
C849 C 0.18409 0.80593 0.59321 0.0
H850 H 0.16018 0.77725 0.63667 0.0
C851 C 0.10249 0.72879 0.5977 0.0
C852 C 0.1027 0.71272 0.60763 0.0
C853 C 0.11977 0.74943 0.59805 0.0
C854 C 0.16663 0.78508 0.62443 0.0
H855 H 0.24707 0.88096 0.59009 0.0
H856 H 0.21077 0.8514 0.59039 0.0
H857 H 0.1937 0.81033 0.63686 0.0
H858 H 0.12108 0.70589 0.62592 0.0
H859 H 0.15094 0.74163 0.62652 0.0
H860 H 0.15718 0.78027 0.58077 0.0
C861 C 0.22244 0.85054 0.59844 0.0
C862 C 0.18584 0.80401 0.62453 0.0
C863 C 0.2432 0.86749 0.59833 0.0
C864 C 0.12036 0.71782 0.61808 0.0
C865 C 0.13745 0.73839 0.61854 0.0
C866 C 0.16481 0.78693 0.59311 0.0
C867 C 0.21684 0.83276 0.60894 0.0
C868 C 0.19509 0.81433 0.6089 0.0
C869 C 0.13742 0.75443 0.60851 0.0
C870 C 0.1562 0.776 0.60869 0.0
H871 H 0.2646 0.84796 0.62715 0.0
H872 H 0.2287 0.81865 0.62728 0.0
H873 H 0.19087 0.81346 0.58095 0.0
H874 H 0.08913 0.72536 0.5895 0.0
H875 H 0.11929 0.7615 0.59022 0.0
C876 C 0.83695 0.56934 0.34224 0.0
C877 C 0.8561 0.58491 0.34955 0.0
C878 C 0.81895 0.57097 0.34348 0.0
C879 C 0.79953 0.60778 0.35045 0.0
H880 H 0.74791 0.5561 0.36154 0.0
C881 C 0.71797 0.60231 0.35862 0.0
C882 C 0.70099 0.58469 0.35053 0.0
C883 C 0.7378 0.60401 0.35961 0.0
C884 C 0.76216 0.57065 0.35834 0.0
H885 H 0.87141 0.61477 0.36353 0.0
H886 H 0.83971 0.6176 0.36567 0.0
H887 H 0.78097 0.55616 0.36126 0.0
H888 H 0.69177 0.55535 0.33676 0.0
H889 H 0.72606 0.5584 0.33842 0.0
H890 H 0.78045 0.62213 0.34728 0.0
C891 C 0.83879 0.60414 0.35897 0.0
C892 C 0.7811 0.57068 0.35818 0.0
C893 C 0.8569 0.60247 0.35779 0.0
C894 C 0.70438 0.56907 0.34321 0.0
C895 C 0.72406 0.57074 0.34425 0.0
C896 C 0.78047 0.60775 0.3506 0.0
C897 C 0.81955 0.58821 0.35204 0.0
C898 C 0.79993 0.58909 0.35383 0.0
C899 C 0.74094 0.58806 0.35264 0.0
C900 C 0.76152 0.58902 0.35414 0.0
H901 H 0.83572 0.55567 0.33568 0.0
H902 H 0.80447 0.55866 0.33769 0.0
H903 H 0.81379 0.6222 0.34703 0.0
H904 H 0.71591 0.61465 0.36436 0.0
H905 H 0.75052 0.61754 0.36618 0.0
C906 C 0.12404 0.71687 0.83762 0.0
C907 C 0.10637 0.71205 0.84774 0.0
C908 C 0.14102 0.73749 0.83688 0.0
C909 C 0.16797 0.78739 0.86097 0.0
H910 H 0.19601 0.80907 0.81697 0.0
C911 C 0.24465 0.86903 0.85429 0.0
C912 C 0.26042 0.86859 0.8444 0.0
C913 C 0.22418 0.85158 0.85438 0.0
C914 C 0.1884 0.80323 0.82937 0.0
H915 H 0.09272 0.72522 0.86503 0.0
H916 H 0.12266 0.76142 0.86379 0.0
H917 H 0.16306 0.77546 0.81776 0.0
H918 H 0.26689 0.84952 0.82668 0.0
H919 H 0.23148 0.81933 0.82691 0.0
H920 H 0.19371 0.81497 0.87262 0.0
C921 C 0.12324 0.74911 0.85646 0.0
C922 C 0.16952 0.78399 0.82982 0.0
C923 C 0.10609 0.72841 0.8571 0.0
C924 C 0.25519 0.85046 0.83445 0.0
C925 C 0.2348 0.83317 0.83447 0.0
C926 C 0.18694 0.80669 0.86053 0.0
C927 C 0.14086 0.75385 0.84629 0.0
C928 C 0.15939 0.77556 0.84567 0.0
C929 C 0.21905 0.83346 0.84445 0.0
C930 C 0.19763 0.81452 0.84477 0.0
H931 H 0.12484 0.7047 0.83024 0.0
H932 H 0.1545 0.74054 0.82916 0.0
H933 H 0.16058 0.78124 0.8734 0.0
H934 H 0.24816 0.88274 0.8621 0.0
H935 H 0.21235 0.85231 0.86214 0.0
C936 C 0.40128 0.13607 0.34242 0.0
C937 C 0.38743 0.11711 0.35093 0.0
C938 C 0.3976 0.15297 0.34224 0.0
C939 C 0.37239 0.17752 0.36534 0.0
H940 H 0.38095 0.2075 0.32181 0.0
C941 C 0.36802 0.25466 0.35872 0.0
C942 C 0.38475 0.27092 0.34942 0.0
C943 C 0.36494 0.23412 0.35876 0.0
C944 C 0.37854 0.19933 0.33408 0.0
H945 H 0.35897 0.10122 0.36621 0.0
H946 H 0.35269 0.13117 0.36606 0.0
H947 H 0.38172 0.1746 0.32239 0.0
H948 H 0.41125 0.27823 0.33279 0.0
H949 H 0.40594 0.24273 0.33293 0.0
H950 H 0.36991 0.20274 0.3771 0.0
C951 C 0.36634 0.13272 0.35947 0.0
C952 C 0.37895 0.18049 0.3344 0.0
C953 C 0.36992 0.1156 0.35951 0.0
C954 C 0.39818 0.26614 0.34008 0.0
C955 C 0.39504 0.2457 0.34004 0.0
C956 C 0.37203 0.19649 0.36503 0.0
C957 C 0.38005 0.15147 0.35064 0.0
C958 C 0.37651 0.16971 0.3501 0.0
C959 C 0.37841 0.22944 0.34937 0.0
C960 C 0.37575 0.20791 0.34946 0.0
H961 H 0.41495 0.13787 0.33569 0.0
H962 H 0.40866 0.16736 0.3356 0.0
H963 H 0.37051 0.16955 0.37763 0.0
H964 H 0.3574 0.25781 0.36607 0.0
H965 H 0.35195 0.22188 0.36601 0.0
C966 C 0.258 0.40752 0.83819 0.0
C967 C 0.26266 0.39402 0.84782 0.0
C968 C 0.23775 0.40454 0.83804 0.0
C969 C 0.18894 0.38186 0.86294 0.0
H970 H 0.16661 0.39035 0.81983 0.0
C971 C 0.10798 0.37786 0.85787 0.0
C972 C 0.10838 0.39464 0.84857 0.0
C973 C 0.12529 0.37477 0.85759 0.0
C974 C 0.17264 0.38798 0.83198 0.0
H975 H 0.24955 0.36675 0.86487 0.0
H976 H 0.214 0.36159 0.86461 0.0
H977 H 0.19964 0.39025 0.81968 0.0
H978 H 0.12727 0.42118 0.83158 0.0
H979 H 0.1572 0.41582 0.83114 0.0
H980 H 0.16206 0.38007 0.87527 0.0
C981 C 0.22616 0.37451 0.85723 0.0
C982 C 0.19157 0.38794 0.8319 0.0
C983 C 0.24649 0.37742 0.85731 0.0
C984 C 0.12636 0.40809 0.8389 0.0
C985 C 0.14351 0.40492 0.83853 0.0
C986 C 0.16993 0.3819 0.86302 0.0
C987 C 0.22158 0.38802 0.84753 0.0
C988 C 0.20022 0.38543 0.84744 0.0
C989 C 0.14321 0.38826 0.84786 0.0
C990 C 0.16188 0.38552 0.8476 0.0
H991 H 0.27002 0.42049 0.83075 0.0
H992 H 0.23484 0.41546 0.83067 0.0
H993 H 0.19525 0.38 0.87513 0.0
H994 H 0.09438 0.36722 0.86546 0.0
H995 H 0.12458 0.36174 0.86486 0.0
C996 C 0.71542 0.11326 0.35581 0.0
C997 C 0.69864 0.11345 0.3471 0.0
C998 C 0.73518 0.13172 0.35694 0.0
C999 C 0.75935 0.1897 0.35473 0.0
H1000 H 0.81142 0.19052 0.34528 0.0
C1001 C 0.83474 0.26687 0.3397 0.0
C1002 C 0.85362 0.27063 0.34753 0.0
C1003 C 0.81667 0.24701 0.34068 0.0
C1004 C 0.79703 0.19048 0.34818 0.0
H1005 H 0.68972 0.1331 0.33235 0.0
H1006 H 0.72388 0.16492 0.33426 0.0
H1007 H 0.77815 0.15675 0.34531 0.0
H1008 H 0.86838 0.25618 0.36221 0.0
H1009 H 0.83659 0.2213 0.36392 0.0
H1010 H 0.77797 0.22328 0.35739 0.0
C1011 C 0.72177 0.15068 0.34047 0.0
C1012 C 0.77801 0.17117 0.3482 0.0
C1013 C 0.70217 0.13234 0.33929 0.0
C1014 C 0.85409 0.25383 0.35605 0.0
C1015 C 0.83592 0.23384 0.35699 0.0
C1016 C 0.77826 0.20889 0.35471 0.0
C1017 C 0.73843 0.15069 0.34947 0.0
C1018 C 0.75892 0.17067 0.35108 0.0
C1019 C 0.81694 0.23034 0.34952 0.0
C1020 C 0.79726 0.20958 0.35105 0.0
H1021 H 0.71325 0.09897 0.36194 0.0
H1022 H 0.74774 0.13128 0.36398 0.0
H1023 H 0.74498 0.18979 0.35741 0.0
H1024 H 0.83378 0.27935 0.33291 0.0
H1025 H 0.80241 0.24471 0.33448 0.0
C1026 C 0.59308 0.7269 0.85561 0.0
C1027 C 0.57625 0.71008 0.84665 0.0
C1028 C 0.59464 0.7468 0.85649 0.0
C1029 C 0.56149 0.77119 0.85296 0.0
H1030 H 0.61349 0.82377 0.84496 0.0
C1031 C 0.56136 0.84735 0.83746 0.0
C1032 C 0.57615 0.86616 0.84581 0.0
C1033 C 0.56295 0.8292 0.83855 0.0
C1034 C 0.59893 0.80922 0.84745 0.0
H1035 H 0.54824 0.70124 0.83115 0.0
H1036 H 0.55106 0.73568 0.83261 0.0
H1037 H 0.61348 0.79023 0.84514 0.0
H1038 H 0.60463 0.88071 0.86151 0.0
H1039 H 0.60738 0.84872 0.86341 0.0
H1040 H 0.54683 0.78992 0.85506 0.0
C1041 C 0.56286 0.73348 0.83921 0.0
C1042 C 0.59892 0.79005 0.84756 0.0
C1043 C 0.56132 0.71372 0.8383 0.0
C1044 C 0.59294 0.86647 0.85495 0.0
C1045 C 0.59457 0.8482 0.856 0.0
C1046 C 0.5615 0.79024 0.85285 0.0
C1047 C 0.57934 0.75017 0.8485 0.0
C1048 C 0.58008 0.77079 0.84993 0.0
C1049 C 0.57937 0.82928 0.84803 0.0
C1050 C 0.58009 0.80943 0.8497 0.0
H1051 H 0.60487 0.72464 0.86216 0.0
H1052 H 0.6075 0.75936 0.86377 0.0
H1053 H 0.54681 0.75668 0.85526 0.0
H1054 H 0.54831 0.84651 0.83018 0.0
H1055 H 0.55124 0.815 0.83195 0.0
C1056 C 0.31635 0.98268 0.91013 0.0
C1057 C 0.30628 0.96099 0.90614 0.0
C1058 C 0.31653 0.98945 0.92721 0.0
C1059 C 0.31232 0.97017 0.97223 0.0
H1060 H 0.31238 0.02164 -0.01572 0.0
C1061 C 0.32263 -0.00148 0.04338 0.0
C1062 C 0.33731 0.02004 0.04608 0.0
C1063 C 0.31514 -0.00919 0.02662 0.0
C1064 C 0.31246 0.00725 -0.01888 0.0
H1065 H 0.28735 0.92945 0.9167 0.0
H1066 H 0.28728 0.9412 0.94625 0.0
H1067 H 0.30603 0.00923 0.95418 0.0
H1068 H 0.35479 0.05052 0.03338 0.0
H1069 H 0.34188 0.03713 0.0043 0.0
H1070 H 0.31921 0.96839 -0.001 0.0
C1071 C 0.29551 0.95302 0.93636 0.0
C1072 C 0.30884 0.00015 0.96386 0.0
C1073 C 0.29542 0.94628 0.91936 0.0
C1074 C 0.3435 0.03384 0.03178 0.0
C1075 C 0.33599 0.02616 0.01507 0.0
C1076 C 0.31591 0.97725 -0.01054 0.0
C1077 C 0.30658 0.97467 0.94063 0.0
C1078 C 0.30895 0.98163 0.95915 0.0
C1079 C 0.32212 0.00447 0.01219 0.0
C1080 C 0.3163 -0.00398 -0.00588 0.0
H1081 H 0.32492 -0.00558 0.90026 0.0
H1082 H 0.32533 0.00624 0.93001 0.0
H1083 H 0.31293 0.95607 0.96909 0.0
H1084 H 0.31751 0.98747 0.05411 0.0
H1085 H 0.3042 0.97406 0.02492 0.0
C1086 C 0.34019 0.30438 0.42303 0.0
C1087 C 0.33631 0.31499 0.40955 0.0
C1088 C 0.33339 0.30448 0.43992 0.0
C1089 C 0.29924 0.31734 0.46664 0.0
H1090 H 0.34158 0.32958 0.50209 0.0
C1091 C 0.30001 0.35378 0.53332 0.0
C1092 C 0.30763 0.34818 0.54799 0.0
C1093 C 0.30032 0.34587 0.51688 0.0
C1094 C 0.32938 0.32575 0.49246 0.0
H1095 H 0.32128 0.33312 0.40309 0.0
H1096 H 0.3096 0.33352 0.43264 0.0
H1097 H 0.34765 0.32273 0.47245 0.0
H1098 H 0.32065 0.32904 0.55697 0.0
H1099 H 0.32104 0.31503 0.52823 0.0
H1100 H 0.28122 0.32093 0.48669 0.0
C1101 C 0.31774 0.32492 0.43012 0.0
C1102 C 0.33287 0.32182 0.4754 0.0
C1103 C 0.32447 0.32474 0.41317 0.0
C1104 C 0.31472 0.33371 0.54594 0.0
C1105 C 0.31508 0.32581 0.52944 0.0
C1106 C 0.29575 0.32128 0.48374 0.0
C1107 C 0.32264 0.31529 0.44381 0.0
C1108 C 0.31798 0.31782 0.4622 0.0
C1109 C 0.3083 0.33215 0.51465 0.0
C1110 C 0.31091 0.32584 0.49683 0.0
H1111 H 0.34912 0.29656 0.42067 0.0
H1112 H 0.33703 0.29648 0.45003 0.0
H1113 H 0.2873 0.31402 0.45687 0.0
H1114 H 0.29441 0.36488 0.53442 0.0
H1115 H 0.29518 0.3513 0.50581 0.0
C1116 C -0.008 0.32973 0.9099 0.0
C1117 C 0.01359 0.34411 0.90803 0.0
C1118 C -0.01644 0.32187 0.92632 0.0
C1119 C -0.00236 0.31763 0.97232 0.0
H1120 H 0.94737 0.3199 -0.0174 0.0
C1121 C 0.93547 0.30221 0.03198 0.0
C1122 C 0.94977 0.31282 0.04562 0.0
C1123 C 0.9426 0.30198 0.01525 0.0
C1124 C 0.96119 0.31876 -0.02006 0.0
H1125 H 0.04341 0.36059 0.92182 0.0
H1126 H 0.02874 0.34707 0.95033 0.0
H1127 H 0.96074 0.32627 0.95315 0.0
H1128 H -0.01717 0.33058 0.05254 0.0
H1129 H -0.00467 0.33043 0.02327 0.0
H1130 H -0.0017 0.31062 -0.0007 0.0
C1131 C 0.01828 0.34169 0.93917 0.0
C1132 C 0.96887 0.32241 0.96298 0.0
C1133 C 0.02669 0.34955 0.92279 0.0
C1134 C 0.9714 0.32222 0.04233 0.0
C1135 C 0.97856 0.32208 0.02553 0.0
C1136 C -0.01007 0.31395 -0.01068 0.0
C1137 C -0.00347 0.32819 0.94123 0.0
C1138 C -0.01265 0.32219 0.95897 0.0
C1139 C 0.96424 0.31246 0.01167 0.0
C1140 C 0.97173 0.31472 -0.0066 0.0
H1141 H -0.01852 0.32517 0.89879 0.0
H1142 H 0.96678 0.31122 0.92739 0.0
H1143 H 0.01177 0.31707 0.96965 0.0
H1144 H 0.91869 0.29465 0.03409 0.0
H1145 H 0.93111 0.294 0.00501 0.0
C1146 C 0.63961 -0.00382 0.41049 0.0
C1147 C 0.65498 0.01647 0.40514 0.0
C1148 C 0.63942 0.98956 0.42759 0.0
C1149 C 0.66087 0.01201 0.47175 0.0
H1150 H 0.63192 0.95263 0.48388 0.0
C1151 C 0.63246 0.98426 0.54167 0.0
C1152 C 0.6287 0.96439 0.54725 0.0
C1153 C 0.63895 -0.00896 0.52465 0.0
C1154 C 0.64048 0.96934 0.48089 0.0
H1155 H 0.68305 0.04524 0.4131 0.0
H1156 H 0.68373 0.03326 0.4425 0.0
H1157 H 0.63827 0.96279 0.4537 0.0
H1158 H 0.63009 0.93661 0.53981 0.0
H1159 H 0.64285 0.94894 0.51059 0.0
H1160 H 0.66419 0.0186 0.49896 0.0
C1161 C 0.67109 0.02271 0.43389 0.0
C1162 C 0.64374 0.97521 0.46337 0.0
C1163 C 0.67092 0.02954 0.41692 0.0
C1164 C 0.63274 0.95196 0.5358 0.0
C1165 C 0.6398 0.95898 0.51893 0.0
C1166 C 0.65811 0.00616 0.48928 0.0
C1167 C 0.65495 0.00288 0.43971 0.0
C1168 C 0.65351 -0.00337 0.45846 0.0
C1169 C 0.64239 0.97835 0.51286 0.0
C1170 C 0.64738 0.9847 0.49417 0.0
H1171 H 0.62697 0.98585 0.40175 0.0
H1172 H 0.62647 0.97435 0.43141 0.0
H1173 H 0.66824 0.02868 0.46874 0.0
H1174 H 0.62923 -0.00592 0.55015 0.0
H1175 H 0.64032 0.00585 0.52062 0.0
C1176 C 0.66597 0.63151 0.03154 0.0
C1177 C 0.65808 0.63685 0.04606 0.0
C1178 C 0.66569 0.63949 0.01509 0.0
C1179 C 0.63587 0.65878 -0.00967 0.0
H1180 H 0.6777 0.67089 0.955 0.0
C1181 C 0.62357 0.67892 0.92068 0.0
C1182 C 0.62766 0.66847 0.90728 0.0
C1183 C 0.63064 0.67914 0.93762 0.0
C1184 C 0.66583 0.66747 0.96469 0.0
H1185 H 0.64477 0.65574 0.05481 0.0
H1186 H 0.64447 0.66988 0.02607 0.0
H1187 H 0.68431 0.66441 -0.0151 0.0
H1188 H 0.64331 0.65095 0.90103 0.0
H1189 H 0.65543 0.65107 0.93067 0.0
H1190 H 0.61711 0.66121 0.97016 0.0
C1191 C 0.65059 0.65923 0.02739 0.0
C1192 C 0.66963 0.66378 -0.01816 0.0
C1193 C 0.65092 0.65127 0.04389 0.0
C1194 C 0.63994 0.6592 0.91105 0.0
C1195 C 0.64694 0.65932 0.92806 0.0
C1196 C 0.63206 0.66244 0.97322 0.0
C1197 C 0.65748 0.65301 0.01271 0.0
C1198 C 0.65456 0.6591 -0.00516 0.0
C1199 C 0.64187 0.6688 0.94166 0.0
C1200 C 0.64686 0.66657 0.96011 0.0
H1201 H 0.67163 0.62045 0.03273 0.0
H1202 H 0.67095 0.63418 0.0041 0.0
H1203 H 0.62372 0.65483 -0.00012 0.0
H1204 H 0.6143 0.68639 0.9182 0.0
H1205 H 0.62685 0.68702 0.94766 0.0
C1206 C -0.01327 0.6508 0.5425 0.0
C1207 C 0.00674 0.6666 0.54805 0.0
C1208 C 0.97983 0.65083 0.52552 0.0
C1209 C 0.00133 0.67388 0.4818 0.0
H1210 H 0.94224 0.64299 0.46951 0.0
C1211 C 0.97368 0.64454 0.41181 0.0
C1212 C 0.95355 0.63974 0.4063 0.0
C1213 C 0.98054 0.65155 0.42879 0.0
C1214 C 0.95885 0.65211 0.47256 0.0
H1215 H 0.03466 0.69565 0.54065 0.0
H1216 H 0.02215 0.69667 0.5115 0.0
H1217 H 0.95254 0.6493 0.49974 0.0
H1218 H 0.92536 0.63992 0.41377 0.0
H1219 H 0.93779 0.6536 0.44292 0.0
H1220 H 0.00763 0.67774 0.45462 0.0
C1221 C 0.01207 0.68356 0.51983 0.0
C1222 C 0.96481 0.65535 0.49009 0.0
C1223 C 0.01919 0.68318 0.53666 0.0
C1224 C 0.94093 0.64338 0.41773 0.0
C1225 C 0.948 0.65096 0.43456 0.0
C1226 C -0.00464 0.67113 0.46427 0.0
C1227 C -0.00743 0.667 0.51375 0.0
C1228 C -0.01385 0.66576 0.49504 0.0
C1229 C 0.96764 0.65446 0.4406 0.0
C1230 C 0.97402 0.65967 0.45932 0.0
H1231 H 0.97689 0.63767 0.55093 0.0
H1232 H 0.96491 0.63755 0.52147 0.0
H1233 H 0.01794 0.68179 0.48485 0.0
H1234 H -0.01634 0.64164 0.40334 0.0
H1235 H -0.00442 0.65363 0.4328 0.0
C1236 C 0.63834 0.98153 0.91022 0.0
C1237 C 0.62647 0.95982 0.90634 0.0
C1238 C 0.64526 0.98839 0.92726 0.0
C1239 C 0.63085 0.96954 0.97238 0.0
H1240 H 0.68265 0.02089 -0.01582 0.0
C1241 C 0.65004 -0.00134 0.04333 0.0
C1242 C 0.657 0.02023 0.04581 0.0
C1243 C 0.64959 -0.00927 0.02666 0.0
C1244 C 0.66808 0.00654 -0.01891 0.0
H1245 H 0.61376 0.92832 0.91708 0.0
H1246 H 0.62619 0.94023 0.94657 0.0
H1247 H 0.67604 0.00817 0.95417 0.0
H1248 H 0.66998 0.05057 0.03284 0.0
H1249 H 0.66907 0.03679 0.00392 0.0
H1250 H 0.62263 0.9681 -0.00087 0.0
C1251 C 0.6297 0.952 0.93661 0.0
C1252 C 0.66428 -0.00074 0.96387 0.0
C1253 C 0.62271 0.94517 0.91965 0.0
C1254 C 0.6645 0.03385 0.03141 0.0
C1255 C 0.66408 0.02595 0.01479 0.0
C1256 C 0.63465 0.97679 -0.01045 0.0
C1257 C 0.64053 0.97368 0.94077 0.0
C1258 C 0.64549 0.98079 0.95925 0.0
C1259 C 0.65613 0.0042 0.01211 0.0
C1260 C 0.65318 -0.00447 -0.00588 0.0
H1261 H 0.64144 -0.00678 0.90029 0.0
H1262 H 0.65344 0.00521 0.92997 0.0
H1263 H 0.61602 0.95548 0.9693 0.0
H1264 H 0.6442 0.98775 0.05414 0.0
H1265 H 0.64367 0.97394 0.02512 0.0
C1266 C 0.67458 0.64306 0.41882 0.0
C1267 C 0.65847 0.63956 0.40708 0.0
C1268 C 0.6749 0.65046 0.43565 0.0
C1269 C 0.64741 0.67038 0.46477 0.0
H1270 H 0.66837 0.64855 0.50073 0.0
C1271 C 0.6361 0.68289 0.53699 0.0
C1272 C 0.63225 0.66651 0.54858 0.0
C1273 C 0.64328 0.68302 0.52016 0.0
C1274 C 0.66215 0.65459 0.49094 0.0
H1275 H 0.63029 0.64149 0.40358 0.0
H1276 H 0.63003 0.65316 0.43302 0.0
H1277 H 0.67243 0.64228 0.47061 0.0
H1278 H 0.63321 0.63761 0.55179 0.0
H1279 H 0.64448 0.63704 0.52235 0.0
H1280 H 0.63543 0.68101 0.48509 0.0
C1281 C 0.64302 0.65111 0.42926 0.0
C1282 C 0.66491 0.65137 0.47347 0.0
C1283 C 0.64307 0.64429 0.41229 0.0
C1284 C 0.6363 0.65059 0.5432 0.0
C1285 C 0.6429 0.65037 0.52623 0.0
C1286 C 0.64414 0.6731 0.48224 0.0
C1287 C 0.65871 0.6539 0.44137 0.0
C1288 C 0.65735 0.65897 0.46005 0.0
C1289 C 0.64615 0.66639 0.5143 0.0
C1290 C 0.65121 0.66501 0.49565 0.0
H1291 H 0.68674 0.63964 0.41511 0.0
H1292 H 0.68766 0.65301 0.44425 0.0
H1293 H 0.64178 0.67701 0.45499 0.0
H1294 H 0.63323 0.69544 0.54084 0.0
H1295 H 0.64618 0.69602 0.51171 0.0
C1296 C 0.93457 0.63309 0.03184 0.0
C1297 C 0.94888 0.6369 0.04546 0.0
C1298 C 0.94169 0.64036 0.01507 0.0
C1299 C -0.01092 0.67548 -0.01115 0.0
H1300 H 0.95942 0.63309 0.9532 0.0
C1301 C 0.02549 0.6753 0.92264 0.0
C1302 C 0.01235 0.66734 0.90792 0.0
C1303 C 0.01715 0.67508 0.93895 0.0
C1304 C 0.96768 0.64532 0.96288 0.0
H1305 H -0.01806 0.65234 0.05232 0.0
H1306 H -0.00558 0.66482 0.02296 0.0
H1307 H 0.9461 0.62659 -0.01734 0.0
H1308 H 0.98027 0.65399 0.89864 0.0
H1309 H 0.96571 0.65384 0.92711 0.0
H1310 H 0.011 0.69395 0.96902 0.0
C1311 C 0.97765 0.65638 0.02528 0.0
C1312 C 0.96003 0.64158 -0.02016 0.0
C1313 C 0.97051 0.64919 0.04213 0.0
C1314 C -0.00918 0.66017 0.90973 0.0
C1315 C -0.01755 0.65993 0.92607 0.0
C1316 C -0.00324 0.67923 0.97184 0.0
C1317 C 0.96331 0.65151 0.01143 0.0
C1318 C 0.97075 0.65648 -0.00688 0.0
C1319 C -0.00456 0.66689 0.94097 0.0
C1320 C -0.0137 0.66405 0.95868 0.0
H1321 H 0.91779 0.62382 0.034 0.0
H1322 H 0.93019 0.63672 0.00483 0.0
H1323 H -0.00241 0.68743 -0.00131 0.0
H1324 H 0.04216 0.68096 0.92172 0.0
H1325 H 0.02762 0.68039 0.95011 0.0
C1326 C 0.29634 0.94378 0.53231 0.0
C1327 C 0.30678 0.95835 0.54583 0.0
C1328 C 0.29658 0.95073 0.51534 0.0
C1329 C 0.30924 -0.00192 0.48847 0.0
H1330 H 0.32078 0.96762 0.45313 0.0
C1331 C 0.34407 0.03361 0.42146 0.0
C1332 C 0.33816 0.02019 0.40687 0.0
C1333 C 0.3366 0.02545 0.43798 0.0
C1334 C 0.31716 0.97611 0.46273 0.0
H1335 H 0.32487 -0.00829 0.55224 0.0
H1336 H 0.32551 0.00389 0.52256 0.0
H1337 H 0.31445 0.95472 0.48284 0.0
H1338 H 0.31895 0.98775 0.39814 0.0
H1339 H 0.30572 0.97347 0.42702 0.0
H1340 H 0.31251 0.01978 0.46833 0.0
C1341 C 0.31693 0.98705 0.5251 0.0
C1342 C 0.31353 0.9687 0.47983 0.0
C1343 C 0.31662 0.98008 0.54213 0.0
C1344 C 0.32384 -0.00149 0.4091 0.0
C1345 C 0.31639 0.99032 0.42568 0.0
C1346 C 0.3129 0.00551 0.47133 0.0
C1347 C 0.30735 0.97244 0.5114 0.0
C1348 C 0.30976 0.9797 0.49299 0.0
C1349 C 0.32304 0.00363 0.44039 0.0
C1350 C 0.31717 -0.00524 0.45828 0.0
H1351 H 0.28846 0.92691 0.53472 0.0
H1352 H 0.28864 0.93902 0.50522 0.0
H1353 H 0.30609 0.00679 0.49819 0.0
H1354 H 0.35507 0.0504 0.42022 0.0
H1355 H 0.34225 0.03617 0.44898 0.0
C1356 C 0.32418 0.32117 0.04313 0.0
C1357 C 0.33606 0.31145 0.04688 0.0
C1358 C 0.31726 0.32122 0.02612 0.0
C1359 C 0.29854 0.31363 -0.01056 0.0
H1360 H 0.34047 0.32518 0.95434 0.0
C1361 C 0.29932 0.3497 0.92239 0.0
C1362 C 0.30683 0.34387 0.90791 0.0
C1363 C 0.29953 0.34184 0.93891 0.0
C1364 C 0.32837 0.32155 0.96387 0.0
H1365 H 0.3487 0.29288 0.03596 0.0
H1366 H 0.33625 0.29254 0.00652 0.0
H1367 H 0.3467 0.31849 -0.01593 0.0
H1368 H 0.31944 0.3243 0.89932 0.0
H1369 H 0.31961 0.31037 0.92817 0.0
H1370 H 0.28049 0.3173 0.96918 0.0
C1371 C 0.33274 0.30064 0.01656 0.0
C1372 C 0.33195 0.31771 -0.01901 0.0
C1373 C 0.33975 0.30069 0.03349 0.0
C1374 C 0.31361 0.32916 0.9102 0.0
C1375 C 0.31385 0.32131 0.92677 0.0
C1376 C 0.29496 0.3175 0.97227 0.0
C1377 C 0.32199 0.31147 0.01252 0.0
C1378 C 0.31721 0.31393 -0.00593 0.0
C1379 C 0.30727 0.32794 0.9414 0.0
C1380 C 0.30997 0.32178 0.95931 0.0
H1381 H 0.32114 0.32966 0.05314 0.0
H1382 H 0.30913 0.32983 0.02351 0.0
H1383 H 0.28671 0.3105 -0.0009 0.0
H1384 H 0.29397 0.36099 0.92109 0.0
H1385 H 0.29453 0.34747 0.94985 0.0
C1386 C 0.02138 0.34757 0.53197 0.0
C1387 C 0.00817 0.34266 0.54644 0.0
C1388 C 0.01304 0.33957 0.51551 0.0
C1389 C 0.96406 0.32096 0.49058 0.0
H1390 H -0.00653 0.30821 0.45535 0.0
C1391 C 0.93183 0.30103 0.42083 0.0
C1392 C 0.94644 0.3116 0.40755 0.0
C1393 C 0.93858 0.30063 0.43777 0.0
C1394 C -0.01489 0.3118 0.46503 0.0
H1395 H 0.97591 0.32449 0.5551 0.0
H1396 H 0.96133 0.31026 0.52635 0.0
H1397 H 0.00642 0.31452 0.48533 0.0
H1398 H 0.97963 0.32909 0.40149 0.0
H1399 H -0.00853 0.32861 0.43113 0.0
H1400 H 0.94307 0.31881 0.47033 0.0
C1401 C 0.97815 0.32063 0.52771 0.0
C1402 C -0.00748 0.3154 0.48222 0.0
C1403 C -0.01349 0.32864 0.54422 0.0
C1404 C 0.96798 0.32076 0.41141 0.0
C1405 C 0.97475 0.32044 0.42842 0.0
C1406 C 0.95666 0.31735 0.47344 0.0
C1407 C -0.00874 0.32643 0.51307 0.0
C1408 C -0.01775 0.32034 0.49517 0.0
C1409 C 0.96013 0.31088 0.44191 0.0
C1410 C 0.96723 0.313 0.46038 0.0
H1411 H 0.03815 0.35831 0.5332 0.0
H1412 H 0.02362 0.34457 0.50457 0.0
H1413 H 0.95596 0.32511 0.50009 0.0
H1414 H 0.91511 0.29365 0.41828 0.0
H1415 H 0.92687 0.29272 0.44773 0.0
C1416 C 0.42463 0.01287 0.08849 0.0
C1417 C 0.42616 0.03263 0.08599 0.0
C1418 C 0.44235 0.01067 0.08665 0.0
C1419 C 0.49577 0.03685 0.06779 0.0
H1420 H 0.50764 0.00718 0.10384 0.0
C1421 C 0.57865 0.05043 0.08025 0.0
C1422 C 0.58097 0.03313 0.08492 0.0
C1423 C 0.55871 0.0481 0.07859 0.0
C1424 C 0.5044 0.01521 0.0935 0.0
H1425 H 0.44732 0.06547 0.07929 0.0
H1426 H 0.4781 0.06168 0.07618 0.0
H1427 H 0.47444 0.00705 0.10408 0.0
H1428 H 0.56415 -0.00033 0.09116 0.0
H1429 H 0.52919 -0.00438 0.08819 0.0
H1430 H 0.52589 0.0454 0.0574 0.0
C1431 C 0.46324 0.04782 0.07939 0.0
C1432 C 0.48537 0.01514 0.09364 0.0
C1433 C 0.44561 0.05002 0.0813 0.0
C1434 C 0.56287 0.01334 0.08758 0.0
C1435 C 0.54286 0.01102 0.08597 0.0
C1436 C 0.51476 0.03692 0.06764 0.0
C1437 C 0.46188 0.02817 0.08216 0.0
C1438 C 0.48103 0.02633 0.08099 0.0
C1439 C 0.54058 0.02843 0.08156 0.0
C1440 C 0.51949 0.02647 0.0807 0.0
H1441 H 0.40984 -0.00084 0.09208 0.0
H1442 H 0.44077 -0.00471 0.08872 0.0
H1443 H 0.49272 0.04528 0.05766 0.0
H1444 H 0.59226 0.06588 0.07813 0.0
H1445 H 0.55753 0.06192 0.07542 0.0
C1446 C 0.51986 0.59362 0.58368 0.0
C1447 C 0.53892 0.59439 0.58749 0.0
C1448 C 0.50101 0.57431 0.58328 0.0
C1449 C 0.47836 0.51632 0.58025 0.0
H1450 H 0.43064 0.51513 0.60238 0.0
C1451 C 0.39957 0.43873 0.59361 0.0
C1452 C 0.38108 0.43947 0.59067 0.0
C1453 C 0.41925 0.45721 0.5927 0.0
C1454 C 0.44374 0.51522 0.59598 0.0
H1455 H 0.55323 0.57542 0.59335 0.0
H1456 H 0.52022 0.54164 0.5928 0.0
H1457 H 0.46412 0.54807 0.60141 0.0
H1458 H 0.36877 0.46003 0.58401 0.0
H1459 H 0.40294 0.49205 0.58227 0.0
H1460 H 0.45783 0.48333 0.57488 0.0
C1461 C 0.51989 0.55599 0.59 0.0
C1462 C 0.46294 0.53413 0.5954 0.0
C1463 C 0.53879 0.57535 0.59039 0.0
C1464 C 0.38269 0.45893 0.58648 0.0
C1465 C 0.40229 0.47733 0.58558 0.0
C1466 C 0.45909 0.49734 0.58083 0.0
C1467 C 0.50074 0.55529 0.58671 0.0
C1468 C 0.48045 0.53497 0.58742 0.0
C1469 C 0.4208 0.47676 0.58886 0.0
C1470 C 0.44151 0.49664 0.58858 0.0
H1471 H 0.51943 0.60799 0.58126 0.0
H1472 H 0.48659 0.5743 0.58037 0.0
H1473 H 0.49151 0.51647 0.57389 0.0
H1474 H 0.39882 0.42396 0.59685 0.0
H1475 H 0.43322 0.45627 0.59539 0.0
C1476 C 0.95659 0.40926 0.08507 0.0
C1477 C 0.937 0.39087 0.08243 0.0
C1478 C 0.95867 0.42926 0.0832 0.0
C1479 C 0.93235 0.45677 0.06442 0.0
H1480 H 0.96204 0.49808 0.1008 0.0
C1481 C 0.91908 0.52652 0.0775 0.0
C1482 C 0.93631 0.54613 0.08242 0.0
C1483 C 0.92132 0.50878 0.0756 0.0
C1484 C 0.954 0.48688 0.09037 0.0
H1485 H 0.90438 0.37901 0.07535 0.0
H1486 H 0.90796 0.41377 0.07222 0.0
H1487 H 0.96221 0.46482 0.10079 0.0
H1488 H 0.96956 0.56263 0.08881 0.0
H1489 H 0.97351 0.53157 0.08542 0.0
H1490 H 0.92375 0.47862 0.05421 0.0
C1491 C 0.92178 0.41282 0.07557 0.0
C1492 C 0.9541 0.46781 0.09036 0.0
C1493 C 0.91968 0.39287 0.07748 0.0
C1494 C 0.95597 0.54772 0.08505 0.0
C1495 C 0.95821 0.52992 0.0832 0.0
C1496 C 0.93225 0.47582 0.06443 0.0
C1497 C 0.94123 0.43126 0.07857 0.0
C1498 C 0.94293 0.45236 0.07757 0.0
C1499 C 0.94086 0.5102 0.07858 0.0
C1500 C 0.94273 0.49092 0.07759 0.0
H1501 H 0.97024 0.40821 0.08884 0.0
H1502 H 0.97392 0.44317 0.08544 0.0
H1503 H 0.92392 0.44537 0.0542 0.0
H1504 H 0.90372 0.52475 0.07538 0.0
H1505 H 0.90757 0.49379 0.07226 0.0
C1506 C 0.37966 0.92109 0.58365 0.0
C1507 C 0.37909 0.93969 0.58695 0.0
C1508 C 0.39883 0.92162 0.58244 0.0
C1509 C 0.45586 0.95737 0.57579 0.0
H1510 H 0.46019 0.91251 0.59881 0.0
C1511 C 0.53509 0.96012 0.58761 0.0
C1512 C 0.53525 0.94109 0.58574 0.0
C1513 C 0.5162 0.96029 0.58661 0.0
C1514 C 0.45919 0.925 0.59211 0.0
H1515 H 0.39823 0.97352 0.5912 0.0
H1516 H 0.43177 0.97441 0.58927 0.0
H1517 H 0.42703 0.91224 0.59919 0.0
H1518 H 0.51579 0.90742 0.5808 0.0
H1519 H 0.48292 0.90776 0.57889 0.0
H1520 H 0.48816 0.97019 0.56885 0.0
C1521 C 0.41736 0.95944 0.58745 0.0
C1522 C 0.44016 0.92486 0.59233 0.0
C1523 C 0.39815 0.95892 0.58865 0.0
C1524 C 0.5162 0.92233 0.58241 0.0
C1525 C 0.49734 0.9225 0.58142 0.0
C1526 C 0.47494 0.95752 0.57558 0.0
C1527 C 0.41791 0.94075 0.58453 0.0
C1528 C 0.43823 0.94101 0.58415 0.0
C1529 C 0.49706 0.94143 0.58374 0.0
C1530 C 0.47681 0.94131 0.58372 0.0
H1531 H 0.36526 0.90604 0.58216 0.0
H1532 H 0.39869 0.90699 0.57988 0.0
H1533 H 0.45484 0.96992 0.56921 0.0
H1534 H 0.54952 0.97484 0.59018 0.0
H1535 H 0.51652 0.97511 0.5886 0.0
C1536 C 0.56304 0.54684 0.08562 0.0
C1537 C 0.58113 0.54539 0.08288 0.0
C1538 C 0.54302 0.52893 0.08391 0.0
C1539 C 0.51479 0.47457 0.06555 0.0
H1540 H 0.4747 0.46369 0.10214 0.0
C1541 C 0.44536 0.3915 0.07961 0.0
C1542 C 0.42604 0.38936 0.08449 0.0
C1543 C 0.46305 0.4115 0.0775 0.0
C1544 C 0.48556 0.46664 0.09166 0.0
H1545 H 0.5924 0.52416 0.07578 0.0
H1546 H 0.55765 0.49301 0.07295 0.0
H1547 H 0.50793 0.49714 0.10177 0.0
H1548 H 0.41001 0.40655 0.09063 0.0
H1549 H 0.441 0.4416 0.08691 0.0
H1550 H 0.49264 0.44388 0.05566 0.0
C1551 C 0.55883 0.50797 0.07624 0.0
C1552 C 0.50461 0.48582 0.09144 0.0
C1553 C 0.57879 0.52582 0.07798 0.0
C1554 C 0.42469 0.40769 0.0869 0.0
C1555 C 0.44246 0.42775 0.08486 0.0
C1556 C 0.49577 0.45541 0.06577 0.0
C1557 C 0.54071 0.50924 0.07935 0.0
C1558 C 0.51962 0.48984 0.07857 0.0
C1559 C 0.46187 0.42987 0.08025 0.0
C1560 C 0.48111 0.45105 0.07902 0.0
H1561 H 0.56433 0.56172 0.08935 0.0
H1562 H 0.52937 0.53047 0.08622 0.0
H1563 H 0.52585 0.47734 0.05527 0.0
H1564 H 0.44693 0.37769 0.07765 0.0
H1565 H 0.47782 0.41256 0.07418 0.0
C1566 C 0.04481 0.45519 0.57886 0.0
C1567 C 0.02694 0.43619 0.58381 0.0
C1568 C 0.04411 0.47385 0.57761 0.0
C1569 C 0.00837 0.49545 0.57405 0.0
H1570 H 0.05577 0.54548 0.5941 0.0
C1571 C 0.00854 0.57381 0.58651 0.0
C1572 C 0.02746 0.59283 0.5837 0.0
C1573 C 0.00778 0.55436 0.58524 0.0
C1574 C 0.04254 0.53175 0.58822 0.0
H1575 H -0.00591 0.42172 0.5908 0.0
H1576 H -0.0071 0.45448 0.58874 0.0
H1577 H 0.05557 0.51216 0.59421 0.0
H1578 H 0.0602 0.60632 0.57665 0.0
H1579 H 0.05882 0.57245 0.57419 0.0
H1580 H -0.00469 0.51517 0.56816 0.0
C1581 C 0.00742 0.45486 0.58572 0.0
C1582 C 0.04242 0.51262 0.58829 0.0
C1583 C 0.00813 0.43613 0.58697 0.0
C1584 C 0.04542 0.59196 0.57904 0.0
C1585 C 0.04466 0.57255 0.57773 0.0
C1586 C 0.0085 0.51466 0.57396 0.0
C1587 C 0.02552 0.474 0.5813 0.0
C1588 C 0.02538 0.49425 0.58116 0.0
C1589 C 0.02593 0.55353 0.5811 0.0
C1590 C 0.02564 0.53305 0.58099 0.0
H1591 H 0.05951 0.45575 0.57619 0.0
H1592 H 0.05821 0.48824 0.57385 0.0
H1593 H -0.00491 0.48161 0.56833 0.0
H1594 H -0.00558 0.57396 0.59011 0.0
H1595 H -0.00685 0.54002 0.58804 0.0
C1596 C 0.91803 0.52679 0.37507 0.0
C1597 C 0.93566 0.54628 0.37068 0.0
C1598 C 0.9197 0.50869 0.37684 0.0
C1599 C 0.95184 0.48608 0.36257 0.0
H1600 H 0.92027 0.44377 0.39749 0.0
C1601 C 0.95376 0.40812 0.36777 0.0
C1602 C 0.93409 0.38969 0.36974 0.0
C1603 C 0.95581 0.4281 0.36968 0.0
C1604 C 0.9291 0.45539 0.38761 0.0
H1605 H 0.96901 0.56219 0.36516 0.0
H1606 H 0.97196 0.53054 0.36835 0.0
H1607 H 0.9206 0.47728 0.39774 0.0
H1608 H 0.90126 0.37776 0.37564 0.0
H1609 H 0.90479 0.4125 0.37886 0.0
H1610 H 0.96002 0.46403 0.35225 0.0
C1611 C 0.95678 0.52923 0.37022 0.0
C1612 C 0.92929 0.47459 0.38775 0.0
C1613 C 0.95512 0.54738 0.36848 0.0
C1614 C 0.91664 0.39165 0.37404 0.0
C1615 C 0.91869 0.41158 0.376 0.0
C1616 C 0.95166 0.46687 0.36244 0.0
C1617 C 0.93904 0.50963 0.37425 0.0
C1618 C 0.94037 0.49002 0.37505 0.0
C1619 C 0.93825 0.43005 0.37369 0.0
C1620 C 0.94 0.45116 0.37478 0.0
H1621 H 0.90281 0.5254 0.37684 0.0
H1622 H 0.90567 0.4938 0.37972 0.0
H1623 H 0.96032 0.49751 0.35247 0.0
H1624 H 0.96752 0.40712 0.3645 0.0
H1625 H 0.97114 0.44203 0.36799 0.0
C1626 C 0.536 0.96346 0.86414 0.0
C1627 C 0.53556 0.9442 0.86667 0.0
C1628 C 0.51748 0.96436 0.86511 0.0
C1629 C 0.46013 0.92985 0.86059 0.0
H1630 H 0.45733 0.97612 0.88239 0.0
C1631 C 0.38127 0.92624 0.87034 0.0
C1632 C 0.3803 0.94448 0.86638 0.0
C1633 C 0.40058 0.92703 0.87137 0.0
C1634 C 0.45793 0.9632 0.87611 0.0
H1635 H 0.51553 0.91099 0.87288 0.0
H1636 H 0.4834 0.91261 0.87475 0.0
H1637 H 0.49055 0.9761 0.88244 0.0
H1638 H 0.39892 0.97806 0.86093 0.0
H1639 H 0.43274 0.9794 0.86258 0.0
H1640 H 0.42767 0.91696 0.85415 0.0
C1641 C 0.49793 0.92694 0.87168 0.0
C1642 C 0.47694 0.96319 0.87614 0.0
C1643 C 0.51638 0.92604 0.87071 0.0
C1644 C 0.39915 0.96371 0.86398 0.0
C1645 C 0.41853 0.96451 0.865 0.0
C1646 C 0.4412 0.92987 0.86055 0.0
C1647 C 0.49818 0.94601 0.86861 0.0
C1648 C 0.4782 0.94642 0.86848 0.0
C1649 C 0.41943 0.94609 0.86845 0.0
C1650 C 0.4398 0.94644 0.86841 0.0
H1651 H 0.55056 0.97774 0.86103 0.0
H1652 H 0.51818 0.97927 0.86259 0.0
H1653 H 0.46067 0.91694 0.85422 0.0
H1654 H 0.36705 0.91121 0.8724 0.0
H1655 H 0.40074 0.91264 0.87439 0.0
C1656 C 0.42599 0.40968 0.36922 0.0
C1657 C 0.42688 0.39106 0.37142 0.0
C1658 C 0.44417 0.42951 0.37095 0.0
C1659 C 0.49851 0.45625 0.38871 0.0
H1660 H 0.50927 0.49808 0.35319 0.0
C1661 C 0.58109 0.52705 0.3759 0.0
C1662 C 0.58304 0.54657 0.37135 0.0
C1663 C 0.56128 0.50906 0.37771 0.0
C1664 C 0.50637 0.48674 0.36338 0.0
H1665 H 0.44743 0.37865 0.37754 0.0
H1666 H 0.47908 0.41315 0.38043 0.0
H1667 H 0.47588 0.46485 0.35319 0.0
H1668 H 0.56572 0.56264 0.3656 0.0
H1669 H 0.53106 0.53118 0.36888 0.0
H1670 H 0.52915 0.47799 0.39872 0.0
C1671 C 0.46434 0.41248 0.37754 0.0
C1672 C 0.48722 0.46767 0.36338 0.0
C1673 C 0.4462 0.39269 0.37576 0.0
C1674 C 0.56474 0.54781 0.36904 0.0
C1675 C 0.54489 0.52977 0.37083 0.0
C1676 C 0.51765 0.47531 0.38872 0.0
C1677 C 0.46359 0.43113 0.37499 0.0
C1678 C 0.4832 0.45207 0.37588 0.0
C1679 C 0.54294 0.51014 0.37502 0.0
C1680 C 0.52194 0.49064 0.37589 0.0
H1681 H 0.41131 0.40894 0.36592 0.0
H1682 H 0.44304 0.44358 0.36909 0.0
H1683 H 0.49574 0.44471 0.3987 0.0
H1684 H 0.59489 0.52557 0.37776 0.0
H1685 H 0.56036 0.49415 0.38073 0.0
C1686 C 0.01106 0.4351 0.86858 0.0
C1687 C 0.03061 0.43631 0.87076 0.0
C1688 C 0.00933 0.4532 0.87034 0.0
C1689 C 0.03685 0.50783 0.88809 0.0
H1690 H 0.00497 0.51797 0.85293 0.0
C1691 C 0.04744 0.59029 0.87559 0.0
C1692 C 0.02964 0.59178 0.87135 0.0
C1693 C 0.04593 0.57055 0.87727 0.0
C1694 C 0.01365 0.51524 0.86303 0.0
H1695 H 0.06357 0.45736 0.87685 0.0
H1696 H 0.06059 0.48888 0.87977 0.0
H1697 H 0.00519 0.48476 0.85278 0.0
H1698 H -0.00384 0.57371 0.86596 0.0
H1699 H -0.0065 0.53918 0.86899 0.0
H1700 H 0.04562 0.53847 0.89814 0.0
C1701 C 0.04654 0.47394 0.87688 0.0
C1702 C 0.01378 0.49619 0.86293 0.0
C1703 C 0.04828 0.45589 0.8751 0.0
C1704 C 0.01018 0.57308 0.86918 0.0
C1705 C 0.00868 0.55331 0.87082 0.0
C1706 C 0.03672 0.52687 0.88818 0.0
C1707 C 0.02709 0.47287 0.87437 0.0
C1708 C 0.02563 0.49239 0.87531 0.0
C1709 C 0.02658 0.55183 0.87473 0.0
C1710 C 0.02537 0.53093 0.87549 0.0
H1711 H -0.00286 0.42022 0.8653 0.0
H1712 H -0.00592 0.45179 0.86853 0.0
H1713 H 0.04583 0.50524 0.89799 0.0
H1714 H 0.06267 0.60439 0.87734 0.0
H1715 H 0.06008 0.57 0.88007 0.0
C1716 C 0.56205 0.01337 0.36382 0.0
C1717 C 0.5805 0.03287 0.36669 0.0
C1718 C 0.54232 0.01167 0.36529 0.0
C1719 C 0.51551 0.03866 0.38352 0.0
H1720 H 0.47478 0.00967 0.34665 0.0
C1721 C 0.44643 0.05253 0.3705 0.0
C1722 C 0.42691 0.03526 0.36555 0.0
C1723 C 0.46409 0.05028 0.37216 0.0
C1724 C 0.48582 0.01752 0.3572 0.0
H1725 H 0.59273 0.06575 0.37373 0.0
H1726 H 0.55844 0.06282 0.3762 0.0
H1727 H 0.50762 0.0091 0.34703 0.0
H1728 H 0.41052 0.00196 0.3587 0.0
H1729 H 0.44145 -0.00201 0.36167 0.0
H1730 H 0.4939 0.0474 0.39353 0.0
C1731 C 0.55914 0.04878 0.37297 0.0
C1732 C 0.50465 0.0172 0.35742 0.0
C1733 C 0.57882 0.0505 0.37144 0.0
C1734 C 0.42537 0.01558 0.36249 0.0
C1735 C 0.44309 0.01333 0.36411 0.0
C1736 C 0.4967 0.03897 0.38331 0.0
C1737 C 0.54066 0.02941 0.36975 0.0
C1738 C 0.51987 0.02808 0.37041 0.0
C1739 C 0.46268 0.03069 0.3689 0.0
C1740 C 0.4818 0.02873 0.36997 0.0
H1741 H 0.56284 -0.00051 0.36019 0.0
H1742 H 0.52837 -0.00352 0.3629 0.0
H1743 H 0.52675 0.04687 0.39388 0.0
H1744 H 0.44816 0.06791 0.37293 0.0
H1745 H 0.47899 0.06405 0.3756 0.0
C1746 C 0.5183 0.5891 0.87222 0.0
C1747 C 0.53775 0.59105 0.86807 0.0
C1748 C 0.50041 0.56918 0.87403 0.0
C1749 C 0.47805 0.51383 0.86039 0.0
H1750 H 0.43662 0.50374 0.89558 0.0
C1751 C 0.4006 0.43354 0.8665 0.0
C1752 C 0.38236 0.43486 0.8687 0.0
C1753 C 0.42051 0.45162 0.8681 0.0
C1754 C 0.44799 0.50634 0.88562 0.0
H1755 H 0.55377 0.57361 0.86289 0.0
H1756 H 0.52243 0.5387 0.8661 0.0
H1757 H 0.46986 0.53715 0.89544 0.0
H1758 H 0.3707 0.45609 0.87462 0.0
H1759 H 0.40528 0.48754 0.87727 0.0
H1760 H 0.45599 0.48317 0.85035 0.0
C1761 C 0.52104 0.55264 0.8678 0.0
C1762 C 0.46703 0.52548 0.88555 0.0
C1763 C 0.53899 0.57262 0.86605 0.0
C1764 C 0.38444 0.45452 0.87286 0.0
C1765 C 0.40429 0.47254 0.8745 0.0
C1766 C 0.45898 0.49466 0.86046 0.0
C1767 C 0.50151 0.55071 0.87171 0.0
C1768 C 0.48213 0.52961 0.87275 0.0
C1769 C 0.42256 0.47136 0.87201 0.0
C1770 C 0.44357 0.49086 0.87289 0.0
H1771 H 0.5168 0.60299 0.87385 0.0
H1772 H 0.48558 0.56827 0.8768 0.0
H1773 H 0.48925 0.51659 0.85024 0.0
H1774 H 0.39952 0.41859 0.86334 0.0
H1775 H 0.43429 0.45015 0.86628 0.0
loop_
_geom_bond_atom_site_label_1
_geom_bond_atom_site_label_2
_geom_bond_distance
_geom_bond_site_symmetry_2
_ccdc_geom_bond_type
C0 O1 1.306 . S
C0 O3 1.160 . S
O1 C0 1.306 . S
O1 Cd2 2.228 . S
Cd2 O1 2.228 . S
Cd2 O6 2.273 . S
Cd2 O10 2.277 . S
O3 C0 1.160 . S
O3 Cd4 2.203 . S
Cd4 O3 2.203 . S
Cd4 O6 2.411 . S
Cd4 O7 2.333 . S
Cd4 O8 2.352 . S
Cd4 O12 2.277 . S
Cd4 O13 2.356 . S
C5 O10 1.209 . S
C5 O12 1.226 . S
O6 Cd2 2.273 . S
O6 Cd4 2.411 . S
O6 C9 1.320 . S
O7 Cd4 2.333 . S
O7 C9 1.214 . S
O8 Cd4 2.352 . S
O8 C11 1.258 . S
C9 O6 1.320 . S
C9 O7 1.214 . S
O10 Cd2 2.277 . S
O10 C5 1.209 . S
C11 O8 1.258 . S
C11 O13 1.282 . S
O12 Cd4 2.277 . S
O12 C5 1.226 . S
O13 Cd4 2.356 . S
O13 C11 1.282 . S
C14 O15 1.306 . S
C14 O17 1.160 . S
O15 C14 1.306 . S
O15 Cd16 2.228 . S
Cd16 O15 2.228 . S
Cd16 O20 2.273 . S
Cd16 O24 2.277 . S
O17 C14 1.160 . S
O17 Cd18 2.203 . S
Cd18 O17 2.203 . S
Cd18 O20 2.411 . S
Cd18 O21 2.333 . S
Cd18 O22 2.352 . S
Cd18 O26 2.277 . S
Cd18 O27 2.356 . S
C19 O24 1.209 . S
C19 O26 1.226 . S
O20 Cd16 2.273 . S
O20 Cd18 2.411 . S
O20 C23 1.320 . S
O21 Cd18 2.333 . S
O21 C23 1.214 . S
O22 Cd18 2.352 . S
O22 C25 1.258 . S
C23 O20 1.320 . S
C23 O21 1.214 . S
O24 Cd16 2.277 . S
O24 C19 1.209 . S
C25 O22 1.258 . S
C25 O27 1.282 . S
O26 Cd18 2.277 . S
O26 C19 1.226 . S
O27 Cd18 2.356 . S
O27 C25 1.282 . S
C28 O29 1.306 . S
C28 O31 1.160 . S
O29 C28 1.306 . S
O29 Cd30 2.228 . S
Cd30 O29 2.228 . S
Cd30 O34 2.273 . S
Cd30 O38 2.277 . S
O31 C28 1.160 . S
O31 Cd32 2.203 . S
Cd32 O31 2.203 . S
Cd32 O34 2.411 . S
Cd32 O35 2.333 . S
Cd32 O36 2.352 . S
Cd32 O40 2.277 . S
Cd32 O41 2.356 . S
C33 O38 1.209 . S
C33 O40 1.226 . S
O34 Cd30 2.273 . S
O34 Cd32 2.411 . S
O34 C37 1.320 . S
O35 Cd32 2.333 . S
O35 C37 1.214 . S
O36 Cd32 2.352 . S
O36 C39 1.258 . S
C37 O34 1.320 . S
C37 O35 1.214 . S
O38 Cd30 2.277 . S
O38 C33 1.209 . S
C39 O36 1.258 . S
C39 O41 1.282 . S
O40 Cd32 2.277 . S
O40 C33 1.226 . S
O41 Cd32 2.356 . S
O41 C39 1.282 . S
C42 O43 1.306 . S
C42 O45 1.160 . S
O43 C42 1.306 . S
O43 Cd44 2.228 . S
Cd44 O43 2.228 . S
Cd44 O48 2.273 . S
Cd44 O52 2.277 . S
O45 C42 1.160 . S
O45 Cd46 2.203 . S
Cd46 O45 2.203 . S
Cd46 O48 2.411 . S
Cd46 O49 2.333 . S
Cd46 O50 2.352 . S
Cd46 O54 2.277 . S
Cd46 O55 2.356 . S
C47 O52 1.209 . S
C47 O54 1.226 . S
O48 Cd44 2.273 . S
O48 Cd46 2.411 . S
O48 C51 1.320 . S
O49 Cd46 2.333 . S
O49 C51 1.214 . S
O50 Cd46 2.352 . S
O50 C53 1.258 . S
C51 O48 1.320 . S
C51 O49 1.214 . S
O52 Cd44 2.277 . S
O52 C47 1.209 . S
C53 O50 1.258 . S
C53 O55 1.282 . S
O54 Cd46 2.277 . S
O54 C47 1.226 . S
O55 Cd46 2.356 . S
O55 C53 1.282 . S
C56 O57 1.306 . S
C56 O59 1.160 . S
O57 C56 1.306 . S
O57 Cd58 2.228 . S
Cd58 O57 2.228 . S
Cd58 O62 2.273 . S
Cd58 O66 2.277 . S
O59 C56 1.160 . S
O59 Cd60 2.203 . S
Cd60 O59 2.203 . S
Cd60 O62 2.411 . S
Cd60 O63 2.333 . S
Cd60 O64 2.352 . S
Cd60 O68 2.277 . S
Cd60 O69 2.356 . S
C61 O66 1.209 . S
C61 O68 1.226 . S
O62 Cd58 2.273 . S
O62 Cd60 2.411 . S
O62 C65 1.320 . S
O63 Cd60 2.333 . S
O63 C65 1.214 . S
O64 Cd60 2.352 . S
O64 C67 1.258 . S
C65 O62 1.320 . S
C65 O63 1.214 . S
O66 Cd58 2.277 . S
O66 C61 1.209 . S
C67 O64 1.258 . S
C67 O69 1.282 . S
O68 Cd60 2.277 . S
O68 C61 1.226 . S
O69 Cd60 2.356 . S
O69 C67 1.282 . S
C70 O71 1.306 . S
C70 O73 1.160 . S
O71 C70 1.306 . S
O71 Cd72 2.228 . S
Cd72 O71 2.228 . S
Cd72 O76 2.273 . S
Cd72 O80 2.277 . S
O73 C70 1.160 . S
O73 Cd74 2.203 . S
Cd74 O73 2.203 . S
Cd74 O76 2.411 . S
Cd74 O77 2.333 . S
Cd74 O78 2.352 . S
Cd74 O82 2.277 . S
Cd74 O83 2.356 . S
C75 O80 1.209 . S
C75 O82 1.226 . S
O76 Cd72 2.273 . S
O76 Cd74 2.411 . S
O76 C79 1.320 . S
O77 Cd74 2.333 . S
O77 C79 1.214 . S
O78 Cd74 2.352 . S
O78 C81 1.258 . S
C79 O76 1.320 . S
C79 O77 1.214 . S
O80 Cd72 2.277 . S
O80 C75 1.209 . S
C81 O78 1.258 . S
C81 O83 1.282 . S
O82 Cd74 2.277 . S
O82 C75 1.226 . S
O83 Cd74 2.356 . S
O83 C81 1.282 . S
C84 O85 1.306 . S
C84 O87 1.160 . S
O85 C84 1.306 . S
O85 Cd86 2.228 . S
Cd86 O85 2.228 . S
Cd86 O90 2.273 . S
Cd86 O94 2.277 . S
O87 C84 1.160 . S
O87 Cd88 2.203 . S
Cd88 O87 2.203 . S
Cd88 O90 2.411 . S
Cd88 O91 2.333 . S
Cd88 O92 2.352 . S
Cd88 O96 2.277 . S
Cd88 O97 2.356 . S
C89 O94 1.209 . S
C89 O96 1.226 . S
O90 Cd86 2.273 . S
O90 Cd88 2.411 . S
O90 C93 1.320 . S
O91 Cd88 2.333 . S
O91 C93 1.214 . S
O92 Cd88 2.352 . S
O92 C95 1.258 . S
C93 O90 1.320 . S
C93 O91 1.214 . S
O94 Cd86 2.277 . S
O94 C89 1.209 . S
C95 O92 1.258 . S
C95 O97 1.282 . S
O96 Cd88 2.277 . S
O96 C89 1.226 . S
O97 Cd88 2.356 . S
O97 C95 1.282 . S
C98 O99 1.306 . S
C98 O101 1.160 . S
O99 C98 1.306 . S
O99 Cd100 2.228 . S
Cd100 O99 2.228 . S
Cd100 O104 2.273 . S
Cd100 O108 2.277 . S
O101 C98 1.160 . S
O101 Cd102 2.203 . S
Cd102 O101 2.203 . S
Cd102 O104 2.411 . S
Cd102 O105 2.333 . S
Cd102 O106 2.352 . S
Cd102 O110 2.277 . S
Cd102 O111 2.356 . S
C103 O108 1.209 . S
C103 O110 1.226 . S
O104 Cd100 2.273 . S
O104 Cd102 2.411 . S
O104 C107 1.320 . S
O105 Cd102 2.333 . S
O105 C107 1.214 . S
O106 Cd102 2.352 . S
O106 C109 1.258 . S
C107 O104 1.320 . S
C107 O105 1.214 . S
O108 Cd100 2.277 . S
O108 C103 1.209 . S
C109 O106 1.258 . S
C109 O111 1.282 . S
O110 Cd102 2.277 . S
O110 C103 1.226 . S
O111 Cd102 2.356 . S
O111 C109 1.282 . S
C112 O113 1.306 . S
C112 O115 1.160 . S
O113 C112 1.306 . S
O113 Cd114 2.228 . S
Cd114 O113 2.228 . S
Cd114 O118 2.273 . S
Cd114 O122 2.277 . S
O115 C112 1.160 . S
O115 Cd116 2.203 . S
Cd116 O115 2.203 . S
Cd116 O118 2.411 . S
Cd116 O119 2.333 . S
Cd116 O120 2.352 . S
Cd116 O124 2.277 . S
Cd116 O125 2.356 . S
C117 O122 1.209 . S
C117 O124 1.226 . S
O118 Cd114 2.273 . S
O118 Cd116 2.411 . S
O118 C121 1.320 . S
O119 Cd116 2.333 . S
O119 C121 1.214 . S
O120 Cd116 2.352 . S
O120 C123 1.258 . S
C121 O118 1.320 . S
C121 O119 1.214 . S
O122 Cd114 2.277 . S
O122 C117 1.209 . S
C123 O120 1.258 . S
C123 O125 1.282 . S
O124 Cd116 2.277 . S
O124 C117 1.226 . S
O125 Cd116 2.356 . S
O125 C123 1.282 . S
C126 O127 1.306 . S
C126 O129 1.160 . S
O127 C126 1.306 . S
O127 Cd128 2.228 . S
Cd128 O127 2.228 . S
Cd128 O132 2.273 . S
Cd128 O136 2.277 . S
O129 C126 1.160 . S
O129 Cd130 2.203 . S
Cd130 O129 2.203 . S
Cd130 O132 2.411 . S
Cd130 O133 2.333 . S
Cd130 O134 2.352 . S
Cd130 O138 2.277 . S
Cd130 O139 2.356 . S
C131 O136 1.209 . S
C131 O138 1.226 . S
O132 Cd128 2.273 . S
O132 Cd130 2.411 . S
O132 C135 1.320 . S
O133 Cd130 2.333 . S
O133 C135 1.214 . S
O134 Cd130 2.352 . S
O134 C137 1.258 . S
C135 O132 1.320 . S
C135 O133 1.214 . S
O136 Cd128 2.277 . S
O136 C131 1.209 . S
C137 O134 1.258 . S
C137 O139 1.282 . S
O138 Cd130 2.277 . S
O138 C131 1.226 . S
O139 Cd130 2.356 . S
O139 C137 1.282 . S
C140 O141 1.306 . S
C140 O143 1.160 . S
O141 C140 1.306 . S
O141 Cd142 2.228 . S
Cd142 O141 2.228 . S
Cd142 O146 2.273 . S
Cd142 O150 2.277 . S
O143 C140 1.160 . S
O143 Cd144 2.203 . S
Cd144 O143 2.203 . S
Cd144 O146 2.411 . S
Cd144 O147 2.333 . S
Cd144 O148 2.352 . S
Cd144 O152 2.277 . S
Cd144 O153 2.356 . S
C145 O150 1.209 . S
C145 O152 1.226 . S
O146 Cd142 2.273 . S
O146 Cd144 2.411 . S
O146 C149 1.320 . S
O147 Cd144 2.333 . S
O147 C149 1.214 . S
O148 Cd144 2.352 . S
O148 C151 1.258 . S
C149 O146 1.320 . S
C149 O147 1.214 . S
O150 Cd142 2.277 . S
O150 C145 1.209 . S
C151 O148 1.258 . S
C151 O153 1.282 . S
O152 Cd144 2.277 . S
O152 C145 1.226 . S
O153 Cd144 2.356 . S
O153 C151 1.282 . S
C154 O155 1.306 . S
C154 O157 1.160 . S
O155 C154 1.306 . S
O155 Cd156 2.228 . S
Cd156 O155 2.228 . S
Cd156 O160 2.273 . S
Cd156 O164 2.277 . S
O157 C154 1.160 . S
O157 Cd158 2.203 . S
Cd158 O157 2.203 . S
Cd158 O160 2.411 . S
Cd158 O161 2.333 . S
Cd158 O162 2.352 . S
Cd158 O166 2.277 . S
Cd158 O167 2.356 . S
C159 O164 1.209 . S
C159 O166 1.226 . S
O160 Cd156 2.273 . S
O160 Cd158 2.411 . S
O160 C163 1.320 . S
O161 Cd158 2.333 . S
O161 C163 1.214 . S
O162 Cd158 2.352 . S
O162 C165 1.258 . S
C163 O160 1.320 . S
C163 O161 1.214 . S
O164 Cd156 2.277 . S
O164 C159 1.209 . S
C165 O162 1.258 . S
C165 O167 1.282 . S
O166 Cd158 2.277 . S
O166 C159 1.226 . S
O167 Cd158 2.356 . S
O167 C165 1.282 . S
C168 O169 1.306 . S
C168 O171 1.160 . S
O169 C168 1.306 . S
O169 Cd170 2.228 . S
Cd170 O169 2.228 . S
Cd170 O174 2.273 . S
Cd170 O178 2.277 . S
O171 C168 1.160 . S
O171 Cd172 2.203 . S
Cd172 O171 2.203 . S
Cd172 O174 2.411 . S
Cd172 O175 2.333 . S
Cd172 O176 2.352 . S
Cd172 O180 2.277 . S
Cd172 O181 2.356 . S
C173 O178 1.209 . S
C173 O180 1.226 . S
O174 Cd170 2.273 . S
O174 Cd172 2.411 . S
O174 C177 1.320 . S
O175 Cd172 2.333 . S
O175 C177 1.214 . S
O176 Cd172 2.352 . S
O176 C179 1.258 . S
C177 O174 1.320 . S
C177 O175 1.214 . S
O178 Cd170 2.277 . S
O178 C173 1.209 . S
C179 O176 1.258 . S
C179 O181 1.282 . S
O180 Cd172 2.277 . S
O180 C173 1.226 . S
O181 Cd172 2.356 . S
O181 C179 1.282 . S
C182 O183 1.306 . S
C182 O185 1.160 . S
O183 C182 1.306 . S
O183 Cd184 2.228 . S
Cd184 O183 2.228 . S
Cd184 O188 2.273 . S
Cd184 O192 2.277 . S
O185 C182 1.160 . S
O185 Cd186 2.203 . S
Cd186 O185 2.203 . S
Cd186 O188 2.411 . S
Cd186 O189 2.333 . S
Cd186 O190 2.352 . S
Cd186 O194 2.277 . S
Cd186 O195 2.356 . S
C187 O192 1.209 . S
C187 O194 1.226 . S
O188 Cd184 2.273 . S
O188 Cd186 2.411 . S
O188 C191 1.320 . S
O189 Cd186 2.333 . S
O189 C191 1.214 . S
O190 Cd186 2.352 . S
O190 C193 1.258 . S
C191 O188 1.320 . S
C191 O189 1.214 . S
O192 Cd184 2.277 . S
O192 C187 1.209 . S
C193 O190 1.258 . S
C193 O195 1.282 . S
O194 Cd186 2.277 . S
O194 C187 1.226 . S
O195 Cd186 2.356 . S
O195 C193 1.282 . S
C196 O197 1.306 . S
C196 O199 1.160 . S
O197 C196 1.306 . S
O197 Cd198 2.228 . S
Cd198 O197 2.228 . S
Cd198 O202 2.273 . S
Cd198 O206 2.277 . S
O199 C196 1.160 . S
O199 Cd200 2.203 . S
Cd200 O199 2.203 . S
Cd200 O202 2.411 . S
Cd200 O203 2.333 . S
Cd200 O204 2.352 . S
Cd200 O208 2.277 . S
Cd200 O209 2.356 . S
C201 O206 1.209 . S
C201 O208 1.226 . S
O202 Cd198 2.273 . S
O202 Cd200 2.411 . S
O202 C205 1.320 . S
O203 Cd200 2.333 . S
O203 C205 1.214 . S
O204 Cd200 2.352 . S
O204 C207 1.258 . S
C205 O202 1.320 . S
C205 O203 1.214 . S
O206 Cd198 2.277 . S
O206 C201 1.209 . S
C207 O204 1.258 . S
C207 O209 1.282 . S
O208 Cd200 2.277 . S
O208 C201 1.226 . S
O209 Cd200 2.356 . S
O209 C207 1.282 . S
C210 O211 1.306 . S
C210 O213 1.160 . S
O211 C210 1.306 . S
O211 Cd212 2.228 . S
Cd212 O211 2.228 . S
Cd212 O216 2.273 . S
Cd212 O220 2.277 . S
O213 C210 1.160 . S
O213 Cd214 2.203 . S
Cd214 O213 2.203 . S
Cd214 O216 2.411 . S
Cd214 O217 2.333 . S
Cd214 O218 2.352 . S
Cd214 O222 2.277 . S
Cd214 O223 2.356 . S
C215 O220 1.209 . S
C215 O222 1.226 . S
O216 Cd212 2.273 . S
O216 Cd214 2.411 . S
O216 C219 1.320 . S
O217 Cd214 2.333 . S
O217 C219 1.214 . S
O218 Cd214 2.352 . S
O218 C221 1.258 . S
C219 O216 1.320 . S
C219 O217 1.214 . S
O220 Cd212 2.277 . S
O220 C215 1.209 . S
C221 O218 1.258 . S
C221 O223 1.282 . S
O222 Cd214 2.277 . S
O222 C215 1.226 . S
O223 Cd214 2.356 . S
O223 C221 1.282 . S
C224 O225 1.306 . S
C224 O227 1.160 . S
O225 C224 1.306 . S
O225 Cd226 2.228 . S
Cd226 O225 2.228 . S
Cd226 O230 2.273 . S
Cd226 O234 2.277 . S
O227 C224 1.160 . S
O227 Cd228 2.203 . S
Cd228 O227 2.203 . S
Cd228 O230 2.411 . S
Cd228 O231 2.333 . S
Cd228 O232 2.352 . S
Cd228 O236 2.277 . S
Cd228 O237 2.356 . S
C229 O234 1.209 . S
C229 O236 1.226 . S
O230 Cd226 2.273 . S
O230 Cd228 2.411 . S
O230 C233 1.320 . S
O231 Cd228 2.333 . S
O231 C233 1.214 . S
O232 Cd228 2.352 . S
O232 C235 1.258 . S
C233 O230 1.320 . S
C233 O231 1.214 . S
O234 Cd226 2.277 . S
O234 C229 1.209 . S
C235 O232 1.258 . S
C235 O237 1.282 . S
O236 Cd228 2.277 . S
O236 C229 1.226 . S
O237 Cd228 2.356 . S
O237 C235 1.282 . S
C238 O239 1.306 . S
C238 O241 1.160 . S
O239 C238 1.306 . S
O239 Cd240 2.228 . S
Cd240 O239 2.228 . S
Cd240 O244 2.273 . S
Cd240 O248 2.277 . S
O241 C238 1.160 . S
O241 Cd242 2.203 . S
Cd242 O241 2.203 . S
Cd242 O244 2.411 . S
Cd242 O245 2.333 . S
Cd242 O246 2.352 . S
Cd242 O250 2.277 . S
Cd242 O251 2.356 . S
C243 O248 1.209 . S
C243 O250 1.226 . S
O244 Cd240 2.273 . S
O244 Cd242 2.411 . S
O244 C247 1.320 . S
O245 Cd242 2.333 . S
O245 C247 1.214 . S
O246 Cd242 2.352 . S
O246 C249 1.258 . S
C247 O244 1.320 . S
C247 O245 1.214 . S
O248 Cd240 2.277 . S
O248 C243 1.209 . S
C249 O246 1.258 . S
C249 O251 1.282 . S
O250 Cd242 2.277 . S
O250 C243 1.226 . S
O251 Cd242 2.356 . S
O251 C249 1.282 . S
C252 O253 1.306 . S
C252 O255 1.160 . S
O253 C252 1.306 . S
O253 Cd254 2.228 . S
Cd254 O253 2.228 . S
Cd254 O258 2.273 . S
Cd254 O262 2.277 . S
O255 C252 1.160 . S
O255 Cd256 2.203 . S
Cd256 O255 2.203 . S
Cd256 O258 2.411 . S
Cd256 O259 2.333 . S
Cd256 O260 2.352 . S
Cd256 O264 2.277 . S
Cd256 O265 2.356 . S
C257 O262 1.209 . S
C257 O264 1.226 . S
O258 Cd254 2.273 . S
O258 Cd256 2.411 . S
O258 C261 1.320 . S
O259 Cd256 2.333 . S
O259 C261 1.214 . S
O260 Cd256 2.352 . S
O260 C263 1.258 . S
C261 O258 1.320 . S
C261 O259 1.214 . S
O262 Cd254 2.277 . S
O262 C257 1.209 . S
C263 O260 1.258 . S
C263 O265 1.282 . S
O264 Cd256 2.277 . S
O264 C257 1.226 . S
O265 Cd256 2.356 . S
O265 C263 1.282 . S
C266 O267 1.306 . S
C266 O269 1.160 . S
O267 C266 1.306 . S
O267 Cd268 2.228 . S
Cd268 O267 2.228 . S
Cd268 O272 2.273 . S
Cd268 O276 2.277 . S
O269 C266 1.160 . S
O269 Cd270 2.203 . S
Cd270 O269 2.203 . S
Cd270 O272 2.411 . S
Cd270 O273 2.333 . S
Cd270 O274 2.352 . S
Cd270 O278 2.277 . S
Cd270 O279 2.356 . S
C271 O276 1.209 . S
C271 O278 1.226 . S
O272 Cd268 2.273 . S
O272 Cd270 2.411 . S
O272 C275 1.320 . S
O273 Cd270 2.333 . S
O273 C275 1.214 . S
O274 Cd270 2.352 . S
O274 C277 1.258 . S
C275 O272 1.320 . S
C275 O273 1.214 . S
O276 Cd268 2.277 . S
O276 C271 1.209 . S
C277 O274 1.258 . S
C277 O279 1.282 . S
O278 Cd270 2.277 . S
O278 C271 1.226 . S
O279 Cd270 2.356 . S
O279 C277 1.282 . S
C280 O281 1.306 . S
C280 O283 1.160 . S
O281 C280 1.306 . S
O281 Cd282 2.228 . S
Cd282 O281 2.228 . S
Cd282 O286 2.273 . S
Cd282 O290 2.277 . S
O283 C280 1.160 . S
O283 Cd284 2.203 . S
Cd284 O283 2.203 . S
Cd284 O286 2.411 . S
Cd284 O287 2.333 . S
Cd284 O288 2.352 . S
Cd284 O292 2.277 . S
Cd284 O293 2.356 . S
C285 O290 1.209 . S
C285 O292 1.226 . S
O286 Cd282 2.273 . S
O286 Cd284 2.411 . S
O286 C289 1.320 . S
O287 Cd284 2.333 . S
O287 C289 1.214 . S
O288 Cd284 2.352 . S
O288 C291 1.258 . S
C289 O286 1.320 . S
C289 O287 1.214 . S
O290 Cd282 2.277 . S
O290 C285 1.209 . S
C291 O288 1.258 . S
C291 O293 1.282 . S
O292 Cd284 2.277 . S
O292 C285 1.226 . S
O293 Cd284 2.356 . S
O293 C291 1.282 . S
C294 O295 1.306 . S
C294 O297 1.160 . S
O295 C294 1.306 . S
O295 Cd296 2.228 . S
Cd296 O295 2.228 . S
Cd296 O300 2.273 . S
Cd296 O304 2.277 . S
O297 C294 1.160 . S
O297 Cd298 2.203 . S
Cd298 O297 2.203 . S
Cd298 O300 2.411 . S
Cd298 O301 2.333 . S
Cd298 O302 2.352 . S
Cd298 O306 2.277 . S
Cd298 O307 2.356 . S
C299 O304 1.209 . S
C299 O306 1.226 . S
O300 Cd296 2.273 . S
O300 Cd298 2.411 . S
O300 C303 1.320 . S
O301 Cd298 2.333 . S
O301 C303 1.214 . S
O302 Cd298 2.352 . S
O302 C305 1.258 . S
C303 O300 1.320 . S
C303 O301 1.214 . S
O304 Cd296 2.277 . S
O304 C299 1.209 . S
C305 O302 1.258 . S
C305 O307 1.282 . S
O306 Cd298 2.277 . S
O306 C299 1.226 . S
O307 Cd298 2.356 . S
O307 C305 1.282 . S
C308 O309 1.306 . S
C308 O311 1.160 . S
O309 C308 1.306 . S
O309 Cd310 2.228 . S
Cd310 O309 2.228 . S
Cd310 O314 2.273 . S
Cd310 O318 2.277 . S
O311 C308 1.160 . S
O311 Cd312 2.203 . S
Cd312 O311 2.203 . S
Cd312 O314 2.411 . S
Cd312 O315 2.333 . S
Cd312 O316 2.352 . S
Cd312 O320 2.277 . S
Cd312 O321 2.356 . S
C313 O318 1.209 . S
C313 O320 1.226 . S
O314 Cd310 2.273 . S
O314 Cd312 2.411 . S
O314 C317 1.320 . S
O315 Cd312 2.333 . S
O315 C317 1.214 . S
O316 Cd312 2.352 . S
O316 C319 1.258 . S
C317 O314 1.320 . S
C317 O315 1.214 . S
O318 Cd310 2.277 . S
O318 C313 1.209 . S
C319 O316 1.258 . S
C319 O321 1.282 . S
O320 Cd312 2.277 . S
O320 C313 1.226 . S
O321 Cd312 2.356 . S
O321 C319 1.282 . S
C322 O323 1.306 . S
C322 O325 1.160 . S
O323 C322 1.306 . S
O323 Cd324 2.228 . S
Cd324 O323 2.228 . S
Cd324 O328 2.273 . S
Cd324 O332 2.277 . S
O325 C322 1.160 . S
O325 Cd326 2.203 . S
Cd326 O325 2.203 . S
Cd326 O328 2.411 . S
Cd326 O329 2.333 . S
Cd326 O330 2.352 . S
Cd326 O334 2.277 . S
Cd326 O335 2.356 . S
C327 O332 1.209 . S
C327 O334 1.226 . S
O328 Cd324 2.273 . S
O328 Cd326 2.411 . S
O328 C331 1.320 . S
O329 Cd326 2.333 . S
O329 C331 1.214 . S
O330 Cd326 2.352 . S
O330 C333 1.258 . S
C331 O328 1.320 . S
C331 O329 1.214 . S
O332 Cd324 2.277 . S
O332 C327 1.209 . S
C333 O330 1.258 . S
C333 O335 1.282 . S
O334 Cd326 2.277 . S
O334 C327 1.226 . S
O335 Cd326 2.356 . S
O335 C333 1.282 . S
C336 C337 1.349 . S
C336 C338 1.327 . S
C336 H361 0.950 . S
C337 C336 1.349 . S
C337 C353 1.349 . S
C338 C336 1.327 . S
C338 C357 1.429 . S
C338 H362 0.950 . S
C339 C356 1.574 . S
C339 C358 1.368 . S
C339 H363 0.949 . S
H340 C344 0.949 . S
C341 C342 1.349 . S
C341 C343 1.327 . S
C341 H364 0.950 . S
C342 C341 1.349 . S
C342 C354 1.349 . S
C343 C341 1.327 . S
C343 C359 1.429 . S
C343 H365 0.950 . S
C344 H340 0.949 . S
C344 C352 1.574 . S
C344 C360 1.368 . S
H345 C353 0.950 . S
H346 C351 0.950 . S
H347 C352 0.949 . S
H348 C354 0.950 . S
H349 C355 0.950 . S
H350 C356 0.949 . S
C351 H346 0.950 . S
C351 C353 1.327 . S
C351 C357 1.429 . S
C352 C344 1.574 . S
C352 H347 0.949 . S
C352 C358 1.368 . S
C353 C337 1.349 . S
C353 H345 0.950 . S
C353 C351 1.327 . S
C354 C342 1.349 . S
C354 H348 0.950 . S
C354 C355 1.327 . S
C355 H349 0.950 . S
C355 C354 1.327 . S
C355 C359 1.429 . S
C356 C339 1.574 . S
C356 H350 0.949 . S
C356 C360 1.368 . S
C357 C338 1.429 . S
C357 C351 1.429 . S
C357 C358 1.523 . S
C358 C339 1.368 . S
C358 C352 1.368 . S
C358 C357 1.523 . S
C359 C343 1.429 . S
C359 C355 1.429 . S
C359 C360 1.523 . S
C360 C344 1.368 . S
C360 C356 1.368 . S
C360 C359 1.523 . S
H361 C336 0.950 . S
H362 C338 0.950 . S
H363 C339 0.949 . S
H364 C341 0.950 . S
H365 C343 0.950 . S
C366 C367 1.349 . S
C366 C368 1.327 . S
C366 H391 0.950 . S
C367 C366 1.349 . S
C367 C383 1.349 . S
C368 C366 1.327 . S
C368 C387 1.429 . S
C368 H392 0.950 . S
C369 C386 1.574 . S
C369 C388 1.368 . S
C369 H393 0.949 . S
H370 C374 0.949 . S
C371 C372 1.349 . S
C371 C373 1.327 . S
C371 H394 0.950 . S
C372 C371 1.349 . S
C372 C384 1.349 . S
C373 C371 1.327 . S
C373 C389 1.429 . S
C373 H395 0.950 . S
C374 H370 0.949 . S
C374 C382 1.574 . S
C374 C390 1.368 . S
H375 C383 0.950 . S
H376 C381 0.950 . S
H377 C382 0.949 . S
H378 C384 0.950 . S
H379 C385 0.950 . S
H380 C386 0.949 . S
C381 H376 0.950 . S
C381 C383 1.327 . S
C381 C387 1.429 . S
C382 C374 1.574 . S
C382 H377 0.949 . S
C382 C388 1.368 . S
C383 C367 1.349 . S
C383 H375 0.950 . S
C383 C381 1.327 . S
C384 C372 1.349 . S
C384 H378 0.950 . S
C384 C385 1.327 . S
C385 H379 0.950 . S
C385 C384 1.327 . S
C385 C389 1.429 . S
C386 C369 1.574 . S
C386 H380 0.949 . S
C386 C390 1.368 . S
C387 C368 1.429 . S
C387 C381 1.429 . S
C387 C388 1.523 . S
C388 C369 1.368 . S
C388 C382 1.368 . S
C388 C387 1.523 . S
C389 C373 1.429 . S
C389 C385 1.429 . S
C389 C390 1.523 . S
C390 C374 1.368 . S
C390 C386 1.368 . S
C390 C389 1.523 . S
H391 C366 0.950 . S
H392 C368 0.950 . S
H393 C369 0.949 . S
H394 C371 0.950 . S
H395 C373 0.950 . S
C396 C397 1.349 . S
C396 C398 1.327 . S
C396 H421 0.950 . S
C397 C396 1.349 . S
C397 C413 1.349 . S
C398 C396 1.327 . S
C398 C417 1.429 . S
C398 H422 0.950 . S
C399 C416 1.574 . S
C399 C418 1.368 . S
C399 H423 0.949 . S
H400 C404 0.949 . S
C401 C402 1.349 . S
C401 C403 1.327 . S
C401 H424 0.950 . S
C402 C401 1.349 . S
C402 C414 1.349 . S
C403 C401 1.327 . S
C403 C419 1.429 . S
C403 H425 0.950 . S
C404 H400 0.949 . S
C404 C412 1.574 . S
C404 C420 1.368 . S
H405 C413 0.950 . S
H406 C411 0.950 . S
H407 C412 0.949 . S
H408 C414 0.950 . S
H409 C415 0.950 . S
H410 C416 0.949 . S
C411 H406 0.950 . S
C411 C413 1.327 . S
C411 C417 1.429 . S
C412 C404 1.574 . S
C412 H407 0.949 . S
C412 C418 1.368 . S
C413 C397 1.349 . S
C413 H405 0.950 . S
C413 C411 1.327 . S
C414 C402 1.349 . S
C414 H408 0.950 . S
C414 C415 1.327 . S
C415 H409 0.950 . S
C415 C414 1.327 . S
C415 C419 1.429 . S
C416 C399 1.574 . S
C416 H410 0.949 . S
C416 C420 1.368 . S
C417 C398 1.429 . S
C417 C411 1.429 . S
C417 C418 1.523 . S
C418 C399 1.368 . S
C418 C412 1.368 . S
C418 C417 1.523 . S
C419 C403 1.429 . S
C419 C415 1.429 . S
C419 C420 1.523 . S
C420 C404 1.368 . S
C420 C416 1.368 . S
C420 C419 1.523 . S
H421 C396 0.950 . S
H422 C398 0.950 . S
H423 C399 0.949 . S
H424 C401 0.950 . S
H425 C403 0.950 . S
C426 C427 1.349 . S
C426 C428 1.327 . S
C426 H451 0.950 . S
C427 C426 1.349 . S
C427 C443 1.349 . S
C428 C426 1.327 . S
C428 C447 1.429 . S
C428 H452 0.950 . S
C429 C446 1.574 . S
C429 C448 1.368 . S
C429 H453 0.949 . S
H430 C434 0.949 . S
C431 C432 1.349 . S
C431 C433 1.327 . S
C431 H454 0.950 . S
C432 C431 1.349 . S
C432 C444 1.349 . S
C433 C431 1.327 . S
C433 C449 1.429 . S
C433 H455 0.950 . S
C434 H430 0.949 . S
C434 C442 1.574 . S
C434 C450 1.368 . S
H435 C443 0.950 . S
H436 C441 0.950 . S
H437 C442 0.949 . S
H438 C444 0.950 . S
H439 C445 0.950 . S
H440 C446 0.949 . S
C441 H436 0.950 . S
C441 C443 1.327 . S
C441 C447 1.429 . S
C442 C434 1.574 . S
C442 H437 0.949 . S
C442 C448 1.368 . S
C443 C427 1.349 . S
C443 H435 0.950 . S
C443 C441 1.327 . S
C444 C432 1.349 . S
C444 H438 0.950 . S
C444 C445 1.327 . S
C445 H439 0.950 . S
C445 C444 1.327 . S
C445 C449 1.429 . S
C446 C429 1.574 . S
C446 H440 0.949 . S
C446 C450 1.368 . S
C447 C428 1.429 . S
C447 C441 1.429 . S
C447 C448 1.523 . S
C448 C429 1.368 . S
C448 C442 1.368 . S
C448 C447 1.523 . S
C449 C433 1.429 . S
C449 C445 1.429 . S
C449 C450 1.523 . S
C450 C434 1.368 . S
C450 C446 1.368 . S
C450 C449 1.523 . S
H451 C426 0.950 . S
H452 C428 0.950 . S
H453 C429 0.949 . S
H454 C431 0.950 . S
H455 C433 0.950 . S
C456 C457 1.349 . S
C456 C458 1.327 . S
C456 H481 0.950 . S
C457 C456 1.349 . S
C457 C473 1.349 . S
C458 C456 1.327 . S
C458 C477 1.429 . S
C458 H482 0.950 . S
C459 C476 1.574 . S
C459 C478 1.368 . S
C459 H483 0.949 . S
H460 C464 0.949 . S
C461 C462 1.349 . S
C461 C463 1.327 . S
C461 H484 0.950 . S
C462 C461 1.349 . S
C462 C474 1.349 . S
C463 C461 1.327 . S
C463 C479 1.429 . S
C463 H485 0.950 . S
C464 H460 0.949 . S
C464 C472 1.574 . S
C464 C480 1.368 . S
H465 C473 0.950 . S
H466 C471 0.950 . S
H467 C472 0.949 . S
H468 C474 0.950 . S
H469 C475 0.950 . S
H470 C476 0.949 . S
C471 H466 0.950 . S
C471 C473 1.327 . S
C471 C477 1.429 . S
C472 C464 1.574 . S
C472 H467 0.949 . S
C472 C478 1.368 . S
C473 C457 1.349 . S
C473 H465 0.950 . S
C473 C471 1.327 . S
C474 C462 1.349 . S
C474 H468 0.950 . S
C474 C475 1.327 . S
C475 H469 0.950 . S
C475 C474 1.327 . S
C475 C479 1.429 . S
C476 C459 1.574 . S
C476 H470 0.949 . S
C476 C480 1.368 . S
C477 C458 1.429 . S
C477 C471 1.429 . S
C477 C478 1.523 . S
C478 C459 1.368 . S
C478 C472 1.368 . S
C478 C477 1.523 . S
C479 C463 1.429 . S
C479 C475 1.429 . S
C479 C480 1.523 . S
C480 C464 1.368 . S
C480 C476 1.368 . S
C480 C479 1.523 . S
H481 C456 0.950 . S
H482 C458 0.950 . S
H483 C459 0.949 . S
H484 C461 0.950 . S
H485 C463 0.950 . S
C486 C487 1.349 . S
C486 C488 1.327 . S
C486 H511 0.950 . S
C487 C486 1.349 . S
C487 C503 1.349 . S
C488 C486 1.327 . S
C488 C507 1.429 . S
C488 H512 0.950 . S
C489 C506 1.574 . S
C489 C508 1.368 . S
C489 H513 0.949 . S
H490 C494 0.949 . S
C491 C492 1.349 . S
C491 C493 1.327 . S
C491 H514 0.950 . S
C492 C491 1.349 . S
C492 C504 1.349 . S
C493 C491 1.327 . S
C493 C509 1.429 . S
C493 H515 0.950 . S
C494 H490 0.949 . S
C494 C502 1.574 . S
C494 C510 1.368 . S
H495 C503 0.950 . S
H496 C501 0.950 . S
H497 C502 0.949 . S
H498 C504 0.950 . S
H499 C505 0.950 . S
H500 C506 0.949 . S
C501 H496 0.950 . S
C501 C503 1.327 . S
C501 C507 1.429 . S
C502 C494 1.574 . S
C502 H497 0.949 . S
C502 C508 1.368 . S
C503 C487 1.349 . S
C503 H495 0.950 . S
C503 C501 1.327 . S
C504 C492 1.349 . S
C504 H498 0.950 . S
C504 C505 1.327 . S
C505 H499 0.950 . S
C505 C504 1.327 . S
C505 C509 1.429 . S
C506 C489 1.574 . S
C506 H500 0.949 . S
C506 C510 1.368 . S
C507 C488 1.429 . S
C507 C501 1.429 . S
C507 C508 1.523 . S
C508 C489 1.368 . S
C508 C502 1.368 . S
C508 C507 1.523 . S
C509 C493 1.429 . S
C509 C505 1.429 . S
C509 C510 1.523 . S
C510 C494 1.368 . S
C510 C506 1.368 . S
C510 C509 1.523 . S
H511 C486 0.950 . S
H512 C488 0.950 . S
H513 C489 0.949 . S
H514 C491 0.950 . S
H515 C493 0.950 . S
C516 C517 1.349 . S
C516 C518 1.327 . S
C516 H541 0.950 . S
C517 C516 1.349 . S
C517 C533 1.349 . S
C518 C516 1.327 . S
C518 C537 1.429 . S
C518 H542 0.950 . S
C519 C536 1.574 . S
C519 C538 1.368 . S
C519 H543 0.949 . S
H520 C524 0.949 . S
C521 C522 1.349 . S
C521 C523 1.327 . S
C521 H544 0.950 . S
C522 C521 1.349 . S
C522 C534 1.349 . S
C523 C521 1.327 . S
C523 C539 1.429 . S
C523 H545 0.950 . S
C524 H520 0.949 . S
C524 C532 1.574 . S
C524 C540 1.368 . S
H525 C533 0.950 . S
H526 C531 0.950 . S
H527 C532 0.949 . S
H528 C534 0.950 . S
H529 C535 0.950 . S
H530 C536 0.949 . S
C531 H526 0.950 . S
C531 C533 1.327 . S
C531 C537 1.429 . S
C532 C524 1.574 . S
C532 H527 0.949 . S
C532 C538 1.368 . S
C533 C517 1.349 . S
C533 H525 0.950 . S
C533 C531 1.327 . S
C534 C522 1.349 . S
C534 H528 0.950 . S
C534 C535 1.327 . S
C535 H529 0.950 . S
C535 C534 1.327 . S
C535 C539 1.429 . S
C536 C519 1.574 . S
C536 H530 0.949 . S
C536 C540 1.368 . S
C537 C518 1.429 . S
C537 C531 1.429 . S
C537 C538 1.523 . S
C538 C519 1.368 . S
C538 C532 1.368 . S
C538 C537 1.523 . S
C539 C523 1.429 . S
C539 C535 1.429 . S
C539 C540 1.523 . S
C540 C524 1.368 . S
C540 C536 1.368 . S
C540 C539 1.523 . S
H541 C516 0.950 . S
H542 C518 0.950 . S
H543 C519 0.949 . S
H544 C521 0.950 . S
H545 C523 0.950 . S
C546 C547 1.349 . S
C546 C548 1.327 . S
C546 H571 0.950 . S
C547 C546 1.349 . S
C547 C563 1.349 . S
C548 C546 1.327 . S
C548 C567 1.429 . S
C548 H572 0.950 . S
C549 C566 1.574 . S
C549 C568 1.368 . S
C549 H573 0.949 . S
H550 C554 0.949 . S
C551 C552 1.349 . S
C551 C553 1.327 . S
C551 H574 0.950 . S
C552 C551 1.349 . S
C552 C564 1.349 . S
C553 C551 1.327 . S
C553 C569 1.429 . S
C553 H575 0.950 . S
C554 H550 0.949 . S
C554 C562 1.574 . S
C554 C570 1.368 . S
H555 C563 0.950 . S
H556 C561 0.950 . S
H557 C562 0.949 . S
H558 C564 0.950 . S
H559 C565 0.950 . S
H560 C566 0.949 . S
C561 H556 0.950 . S
C561 C563 1.327 . S
C561 C567 1.429 . S
C562 C554 1.574 . S
C562 H557 0.949 . S
C562 C568 1.368 . S
C563 C547 1.349 . S
C563 H555 0.950 . S
C563 C561 1.327 . S
C564 C552 1.349 . S
C564 H558 0.950 . S
C564 C565 1.327 . S
C565 H559 0.950 . S
C565 C564 1.327 . S
C565 C569 1.429 . S
C566 C549 1.574 . S
C566 H560 0.949 . S
C566 C570 1.368 . S
C567 C548 1.429 . S
C567 C561 1.429 . S
C567 C568 1.523 . S
C568 C549 1.368 . S
C568 C562 1.368 . S
C568 C567 1.523 . S
C569 C553 1.429 . S
C569 C565 1.429 . S
C569 C570 1.523 . S
C570 C554 1.368 . S
C570 C566 1.368 . S
C570 C569 1.523 . S
H571 C546 0.950 . S
H572 C548 0.950 . S
H573 C549 0.949 . S
H574 C551 0.950 . S
H575 C553 0.950 . S
C576 C577 1.349 . S
C576 C578 1.327 . S
C576 H601 0.950 . S
C577 C576 1.349 . S
C577 C593 1.349 . S
C578 C576 1.327 . S
C578 C597 1.429 . S
C578 H602 0.950 . S
C579 C596 1.574 . S
C579 C598 1.368 . S
C579 H603 0.949 . S
H580 C584 0.949 . S
C581 C582 1.349 . S
C581 C583 1.327 . S
C581 H604 0.950 . S
C582 C581 1.349 . S
C582 C594 1.349 . S
C583 C581 1.327 . S
C583 C599 1.429 . S
C583 H605 0.950 . S
C584 H580 0.949 . S
C584 C592 1.574 . S
C584 C600 1.368 . S
H585 C593 0.950 . S
H586 C591 0.950 . S
H587 C592 0.949 . S
H588 C594 0.950 . S
H589 C595 0.950 . S
H590 C596 0.949 . S
C591 H586 0.950 . S
C591 C593 1.327 . S
C591 C597 1.429 . S
C592 C584 1.574 . S
C592 H587 0.949 . S
C592 C598 1.368 . S
C593 C577 1.349 . S
C593 H585 0.950 . S
C593 C591 1.327 . S
C594 C582 1.349 . S
C594 H588 0.950 . S
C594 C595 1.327 . S
C595 H589 0.950 . S
C595 C594 1.327 . S
C595 C599 1.429 . S
C596 C579 1.574 . S
C596 H590 0.949 . S
C596 C600 1.368 . S
C597 C578 1.429 . S
C597 C591 1.429 . S
C597 C598 1.523 . S
C598 C579 1.368 . S
C598 C592 1.368 . S
C598 C597 1.523 . S
C599 C583 1.429 . S
C599 C595 1.429 . S
C599 C600 1.523 . S
C600 C584 1.368 . S
C600 C596 1.368 . S
C600 C599 1.523 . S
H601 C576 0.950 . S
H602 C578 0.950 . S
H603 C579 0.949 . S
H604 C581 0.950 . S
H605 C583 0.950 . S
C606 C607 1.349 . S
C606 C608 1.327 . S
C606 H631 0.950 . S
C607 C606 1.349 . S
C607 C623 1.349 . S
C608 C606 1.327 . S
C608 C627 1.429 . S
C608 H632 0.950 . S
C609 C626 1.574 . S
C609 C628 1.368 . S
C609 H633 0.949 . S
H610 C614 0.949 . S
C611 C612 1.349 . S
C611 C613 1.327 . S
C611 H634 0.950 . S
C612 C611 1.349 . S
C612 C624 1.349 . S
C613 C611 1.327 . S
C613 C629 1.429 . S
C613 H635 0.950 . S
C614 H610 0.949 . S
C614 C622 1.574 . S
C614 C630 1.368 . S
H615 C623 0.950 . S
H616 C621 0.950 . S
H617 C622 0.949 . S
H618 C624 0.950 . S
H619 C625 0.950 . S
H620 C626 0.949 . S
C621 H616 0.950 . S
C621 C623 1.327 . S
C621 C627 1.429 . S
C622 C614 1.574 . S
C622 H617 0.949 . S
C622 C628 1.368 . S
C623 C607 1.349 . S
C623 H615 0.950 . S
C623 C621 1.327 . S
C624 C612 1.349 . S
C624 H618 0.950 . S
C624 C625 1.327 . S
C625 H619 0.950 . S
C625 C624 1.327 . S
C625 C629 1.429 . S
C626 C609 1.574 . S
C626 H620 0.949 . S
C626 C630 1.368 . S
C627 C608 1.429 . S
C627 C621 1.429 . S
C627 C628 1.523 . S
C628 C609 1.368 . S
C628 C622 1.368 . S
C628 C627 1.523 . S
C629 C613 1.429 . S
C629 C625 1.429 . S
C629 C630 1.523 . S
C630 C614 1.368 . S
C630 C626 1.368 . S
C630 C629 1.523 . S
H631 C606 0.950 . S
H632 C608 0.950 . S
H633 C609 0.949 . S
H634 C611 0.950 . S
H635 C613 0.950 . S
C636 C637 1.349 . S
C636 C638 1.327 . S
C636 H661 0.950 . S
C637 C636 1.349 . S
C637 C653 1.349 . S
C638 C636 1.327 . S
C638 C657 1.429 . S
C638 H662 0.950 . S
C639 C656 1.574 . S
C639 C658 1.368 . S
C639 H663 0.949 . S
H640 C644 0.949 . S
C641 C642 1.349 . S
C641 C643 1.327 . S
C641 H664 0.950 . S
C642 C641 1.349 . S
C642 C654 1.349 . S
C643 C641 1.327 . S
C643 C659 1.429 . S
C643 H665 0.950 . S
C644 H640 0.949 . S
C644 C652 1.574 . S
C644 C660 1.368 . S
H645 C653 0.950 . S
H646 C651 0.950 . S
H647 C652 0.949 . S
H648 C654 0.950 . S
H649 C655 0.950 . S
H650 C656 0.949 . S
C651 H646 0.950 . S
C651 C653 1.327 . S
C651 C657 1.429 . S
C652 C644 1.574 . S
C652 H647 0.949 . S
C652 C658 1.368 . S
C653 C637 1.349 . S
C653 H645 0.950 . S
C653 C651 1.327 . S
C654 C642 1.349 . S
C654 H648 0.950 . S
C654 C655 1.327 . S
C655 H649 0.950 . S
C655 C654 1.327 . S
C655 C659 1.429 . S
C656 C639 1.574 . S
C656 H650 0.949 . S
C656 C660 1.368 . S
C657 C638 1.429 . S
C657 C651 1.429 . S
C657 C658 1.523 . S
C658 C639 1.368 . S
C658 C652 1.368 . S
C658 C657 1.523 . S
C659 C643 1.429 . S
C659 C655 1.429 . S
C659 C660 1.523 . S
C660 C644 1.368 . S
C660 C656 1.368 . S
C660 C659 1.523 . S
H661 C636 0.950 . S
H662 C638 0.950 . S
H663 C639 0.949 . S
H664 C641 0.950 . S
H665 C643 0.950 . S
C666 C667 1.349 . S
C666 C668 1.327 . S
C666 H691 0.950 . S
C667 C666 1.349 . S
C667 C683 1.349 . S
C668 C666 1.327 . S
C668 C687 1.429 . S
C668 H692 0.950 . S
C669 C686 1.574 . S
C669 C688 1.368 . S
C669 H693 0.949 . S
H670 C674 0.949 . S
C671 C672 1.349 . S
C671 C673 1.327 . S
C671 H694 0.950 . S
C672 C671 1.349 . S
C672 C684 1.349 . S
C673 C671 1.327 . S
C673 C689 1.429 . S
C673 H695 0.950 . S
C674 H670 0.949 . S
C674 C682 1.574 . S
C674 C690 1.368 . S
H675 C683 0.950 . S
H676 C681 0.950 . S
H677 C682 0.949 . S
H678 C684 0.950 . S
H679 C685 0.950 . S
H680 C686 0.949 . S
C681 H676 0.950 . S
C681 C683 1.327 . S
C681 C687 1.429 . S
C682 C674 1.574 . S
C682 H677 0.949 . S
C682 C688 1.368 . S
C683 C667 1.349 . S
C683 H675 0.950 . S
C683 C681 1.327 . S
C684 C672 1.349 . S
C684 H678 0.950 . S
C684 C685 1.327 . S
C685 H679 0.950 . S
C685 C684 1.327 . S
C685 C689 1.429 . S
C686 C669 1.574 . S
C686 H680 0.949 . S
C686 C690 1.368 . S
C687 C668 1.429 . S
C687 C681 1.429 . S
C687 C688 1.523 . S
C688 C669 1.368 . S
C688 C682 1.368 . S
C688 C687 1.523 . S
C689 C673 1.429 . S
C689 C685 1.429 . S
C689 C690 1.523 . S
C690 C674 1.368 . S
C690 C686 1.368 . S
C690 C689 1.523 . S
H691 C666 0.950 . S
H692 C668 0.950 . S
H693 C669 0.949 . S
H694 C671 0.950 . S
H695 C673 0.950 . S
C696 C697 1.349 . S
C696 C698 1.327 . S
C696 H721 0.950 . S
C697 C696 1.349 . S
C697 C713 1.349 . S
C698 C696 1.327 . S
C698 C717 1.429 . S
C698 H722 0.950 . S
C699 C716 1.574 . S
C699 C718 1.368 . S
C699 H723 0.949 . S
H700 C704 0.949 . S
C701 C702 1.349 . S
C701 C703 1.327 . S
C701 H724 0.950 . S
C702 C701 1.349 . S
C702 C714 1.349 . S
C703 C701 1.327 . S
C703 C719 1.429 . S
C703 H725 0.950 . S
C704 H700 0.949 . S
C704 C712 1.574 . S
C704 C720 1.368 . S
H705 C713 0.950 . S
H706 C711 0.950 . S
H707 C712 0.949 . S
H708 C714 0.950 . S
H709 C715 0.950 . S
H710 C716 0.949 . S
C711 H706 0.950 . S
C711 C713 1.327 . S
C711 C717 1.429 . S
C712 C704 1.574 . S
C712 H707 0.949 . S
C712 C718 1.368 . S
C713 C697 1.349 . S
C713 H705 0.950 . S
C713 C711 1.327 . S
C714 C702 1.349 . S
C714 H708 0.950 . S
C714 C715 1.327 . S
C715 H709 0.950 . S
C715 C714 1.327 . S
C715 C719 1.429 . S
C716 C699 1.574 . S
C716 H710 0.949 . S
C716 C720 1.368 . S
C717 C698 1.429 . S
C717 C711 1.429 . S
C717 C718 1.523 . S
C718 C699 1.368 . S
C718 C712 1.368 . S
C718 C717 1.523 . S
C719 C703 1.429 . S
C719 C715 1.429 . S
C719 C720 1.523 . S
C720 C704 1.368 . S
C720 C716 1.368 . S
C720 C719 1.523 . S
H721 C696 0.950 . S
H722 C698 0.950 . S
H723 C699 0.949 . S
H724 C701 0.950 . S
H725 C703 0.950 . S
C726 C727 1.349 . S
C726 C728 1.327 . S
C726 H751 0.950 . S
C727 C726 1.349 . S
C727 C743 1.349 . S
C728 C726 1.327 . S
C728 C747 1.429 . S
C728 H752 0.950 . S
C729 C746 1.574 . S
C729 C748 1.368 . S
C729 H753 0.949 . S
H730 C734 0.949 . S
C731 C732 1.349 . S
C731 C733 1.327 . S
C731 H754 0.950 . S
C732 C731 1.349 . S
C732 C744 1.349 . S
C733 C731 1.327 . S
C733 C749 1.429 . S
C733 H755 0.950 . S
C734 H730 0.949 . S
C734 C742 1.574 . S
C734 C750 1.368 . S
H735 C743 0.950 . S
H736 C741 0.950 . S
H737 C742 0.949 . S
H738 C744 0.950 . S
H739 C745 0.950 . S
H740 C746 0.949 . S
C741 H736 0.950 . S
C741 C743 1.327 . S
C741 C747 1.429 . S
C742 C734 1.574 . S
C742 H737 0.949 . S
C742 C748 1.368 . S
C743 C727 1.349 . S
C743 H735 0.950 . S
C743 C741 1.327 . S
C744 C732 1.349 . S
C744 H738 0.950 . S
C744 C745 1.327 . S
C745 H739 0.950 . S
C745 C744 1.327 . S
C745 C749 1.429 . S
C746 C729 1.574 . S
C746 H740 0.949 . S
C746 C750 1.368 . S
C747 C728 1.429 . S
C747 C741 1.429 . S
C747 C748 1.523 . S
C748 C729 1.368 . S
C748 C742 1.368 . S
C748 C747 1.523 . S
C749 C733 1.429 . S
C749 C745 1.429 . S
C749 C750 1.523 . S
C750 C734 1.368 . S
C750 C746 1.368 . S
C750 C749 1.523 . S
H751 C726 0.950 . S
H752 C728 0.950 . S
H753 C729 0.949 . S
H754 C731 0.950 . S
H755 C733 0.950 . S
C756 C757 1.349 . S
C756 C758 1.327 . S
C756 H781 0.950 . S
C757 C756 1.349 . S
C757 C773 1.349 . S
C758 C756 1.327 . S
C758 C777 1.429 . S
C758 H782 0.950 . S
C759 C776 1.574 . S
C759 C778 1.368 . S
C759 H783 0.949 . S
H760 C764 0.949 . S
C761 C762 1.349 . S
C761 C763 1.327 . S
C761 H784 0.950 . S
C762 C761 1.349 . S
C762 C774 1.349 . S
C763 C761 1.327 . S
C763 C779 1.429 . S
C763 H785 0.950 . S
C764 H760 0.949 . S
C764 C772 1.574 . S
C764 C780 1.368 . S
H765 C773 0.950 . S
H766 C771 0.950 . S
H767 C772 0.949 . S
H768 C774 0.950 . S
H769 C775 0.950 . S
H770 C776 0.949 . S
C771 H766 0.950 . S
C771 C773 1.327 . S
C771 C777 1.429 . S
C772 C764 1.574 . S
C772 H767 0.949 . S
C772 C778 1.368 . S
C773 C757 1.349 . S
C773 H765 0.950 . S
C773 C771 1.327 . S
C774 C762 1.349 . S
C774 H768 0.950 . S
C774 C775 1.327 . S
C775 H769 0.950 . S
C775 C774 1.327 . S
C775 C779 1.429 . S
C776 C759 1.574 . S
C776 H770 0.949 . S
C776 C780 1.368 . S
C777 C758 1.429 . S
C777 C771 1.429 . S
C777 C778 1.523 . S
C778 C759 1.368 . S
C778 C772 1.368 . S
C778 C777 1.523 . S
C779 C763 1.429 . S
C779 C775 1.429 . S
C779 C780 1.523 . S
C780 C764 1.368 . S
C780 C776 1.368 . S
C780 C779 1.523 . S
H781 C756 0.950 . S
H782 C758 0.950 . S
H783 C759 0.949 . S
H784 C761 0.950 . S
H785 C763 0.950 . S
C786 C787 1.349 . S
C786 C788 1.327 . S
C786 H811 0.950 . S
C787 C786 1.349 . S
C787 C803 1.349 . S
C788 C786 1.327 . S
C788 C807 1.429 . S
C788 H812 0.950 . S
C789 C806 1.574 . S
C789 C808 1.368 . S
C789 H813 0.949 . S
H790 C794 0.949 . S
C791 C792 1.349 . S
C791 C793 1.327 . S
C791 H814 0.950 . S
C792 C791 1.349 . S
C792 C804 1.349 . S
C793 C791 1.327 . S
C793 C809 1.429 . S
C793 H815 0.950 . S
C794 H790 0.949 . S
C794 C802 1.574 . S
C794 C810 1.368 . S
H795 C803 0.950 . S
H796 C801 0.950 . S
H797 C802 0.949 . S
H798 C804 0.950 . S
H799 C805 0.950 . S
H800 C806 0.949 . S
C801 H796 0.950 . S
C801 C803 1.327 . S
C801 C807 1.429 . S
C802 C794 1.574 . S
C802 H797 0.949 . S
C802 C808 1.368 . S
C803 C787 1.349 . S
C803 H795 0.950 . S
C803 C801 1.327 . S
C804 C792 1.349 . S
C804 H798 0.950 . S
C804 C805 1.327 . S
C805 H799 0.950 . S
C805 C804 1.327 . S
C805 C809 1.429 . S
C806 C789 1.574 . S
C806 H800 0.949 . S
C806 C810 1.368 . S
C807 C788 1.429 . S
C807 C801 1.429 . S
C807 C808 1.523 . S
C808 C789 1.368 . S
C808 C802 1.368 . S
C808 C807 1.523 . S
C809 C793 1.429 . S
C809 C805 1.429 . S
C809 C810 1.523 . S
C810 C794 1.368 . S
C810 C806 1.368 . S
C810 C809 1.523 . S
H811 C786 0.950 . S
H812 C788 0.950 . S
H813 C789 0.949 . S
H814 C791 0.950 . S
H815 C793 0.950 . S
C816 C817 1.349 . S
C816 C818 1.327 . S
C816 H841 0.950 . S
C817 C816 1.349 . S
C817 C833 1.349 . S
C818 C816 1.327 . S
C818 C837 1.429 . S
C818 H842 0.950 . S
C819 C836 1.574 . S
C819 C838 1.368 . S
C819 H843 0.949 . S
H820 C824 0.949 . S
C821 C822 1.349 . S
C821 C823 1.327 . S
C821 H844 0.950 . S
C822 C821 1.349 . S
C822 C834 1.349 . S
C823 C821 1.327 . S
C823 C839 1.429 . S
C823 H845 0.950 . S
C824 H820 0.949 . S
C824 C832 1.574 . S
C824 C840 1.368 . S
H825 C833 0.950 . S
H826 C831 0.950 . S
H827 C832 0.949 . S
H828 C834 0.950 . S
H829 C835 0.950 . S
H830 C836 0.949 . S
C831 H826 0.950 . S
C831 C833 1.327 . S
C831 C837 1.429 . S
C832 C824 1.574 . S
C832 H827 0.949 . S
C832 C838 1.368 . S
C833 C817 1.349 . S
C833 H825 0.950 . S
C833 C831 1.327 . S
C834 C822 1.349 . S
C834 H828 0.950 . S
C834 C835 1.327 . S
C835 H829 0.950 . S
C835 C834 1.327 . S
C835 C839 1.429 . S
C836 C819 1.574 . S
C836 H830 0.949 . S
C836 C840 1.368 . S
C837 C818 1.429 . S
C837 C831 1.429 . S
C837 C838 1.523 . S
C838 C819 1.368 . S
C838 C832 1.368 . S
C838 C837 1.523 . S
C839 C823 1.429 . S
C839 C835 1.429 . S
C839 C840 1.523 . S
C840 C824 1.368 . S
C840 C836 1.368 . S
C840 C839 1.523 . S
H841 C816 0.950 . S
H842 C818 0.950 . S
H843 C819 0.949 . S
H844 C821 0.950 . S
H845 C823 0.950 . S
C846 C847 1.349 . S
C846 C848 1.327 . S
C846 H871 0.950 . S
C847 C846 1.349 . S
C847 C863 1.349 . S
C848 C846 1.327 . S
C848 C867 1.429 . S
C848 H872 0.950 . S
C849 C866 1.574 . S
C849 C868 1.368 . S
C849 H873 0.949 . S
H850 C854 0.949 . S
C851 C852 1.349 . S
C851 C853 1.327 . S
C851 H874 0.950 . S
C852 C851 1.349 . S
C852 C864 1.349 . S
C853 C851 1.327 . S
C853 C869 1.429 . S
C853 H875 0.950 . S
C854 H850 0.949 . S
C854 C862 1.574 . S
C854 C870 1.368 . S
H855 C863 0.950 . S
H856 C861 0.950 . S
H857 C862 0.949 . S
H858 C864 0.950 . S
H859 C865 0.950 . S
H860 C866 0.949 . S
C861 H856 0.950 . S
C861 C863 1.327 . S
C861 C867 1.429 . S
C862 C854 1.574 . S
C862 H857 0.949 . S
C862 C868 1.368 . S
C863 C847 1.349 . S
C863 H855 0.950 . S
C863 C861 1.327 . S
C864 C852 1.349 . S
C864 H858 0.950 . S
C864 C865 1.327 . S
C865 H859 0.950 . S
C865 C864 1.327 . S
C865 C869 1.429 . S
C866 C849 1.574 . S
C866 H860 0.949 . S
C866 C870 1.368 . S
C867 C848 1.429 . S
C867 C861 1.429 . S
C867 C868 1.523 . S
C868 C849 1.368 . S
C868 C862 1.368 . S
C868 C867 1.523 . S
C869 C853 1.429 . S
C869 C865 1.429 . S
C869 C870 1.523 . S
C870 C854 1.368 . S
C870 C866 1.368 . S
C870 C869 1.523 . S
H871 C846 0.950 . S
H872 C848 0.950 . S
H873 C849 0.949 . S
H874 C851 0.950 . S
H875 C853 0.950 . S
C876 C877 1.349 . S
C876 C878 1.327 . S
C876 H901 0.950 . S
C877 C876 1.349 . S
C877 C893 1.349 . S
C878 C876 1.327 . S
C878 C897 1.429 . S
C878 H902 0.950 . S
C879 C896 1.574 . S
C879 C898 1.368 . S
C879 H903 0.949 . S
H880 C884 0.949 . S
C881 C882 1.349 . S
C881 C883 1.327 . S
C881 H904 0.950 . S
C882 C881 1.349 . S
C882 C894 1.349 . S
C883 C881 1.327 . S
C883 C899 1.429 . S
C883 H905 0.950 . S
C884 H880 0.949 . S
C884 C892 1.574 . S
C884 C900 1.368 . S
H885 C893 0.950 . S
H886 C891 0.950 . S
H887 C892 0.949 . S
H888 C894 0.950 . S
H889 C895 0.950 . S
H890 C896 0.949 . S
C891 H886 0.950 . S
C891 C893 1.327 . S
C891 C897 1.429 . S
C892 C884 1.574 . S
C892 H887 0.949 . S
C892 C898 1.368 . S
C893 C877 1.349 . S
C893 H885 0.950 . S
C893 C891 1.327 . S
C894 C882 1.349 . S
C894 H888 0.950 . S
C894 C895 1.327 . S
C895 H889 0.950 . S
C895 C894 1.327 . S
C895 C899 1.429 . S
C896 C879 1.574 . S
C896 H890 0.949 . S
C896 C900 1.368 . S
C897 C878 1.429 . S
C897 C891 1.429 . S
C897 C898 1.523 . S
C898 C879 1.368 . S
C898 C892 1.368 . S
C898 C897 1.523 . S
C899 C883 1.429 . S
C899 C895 1.429 . S
C899 C900 1.523 . S
C900 C884 1.368 . S
C900 C896 1.368 . S
C900 C899 1.523 . S
H901 C876 0.950 . S
H902 C878 0.950 . S
H903 C879 0.949 . S
H904 C881 0.950 . S
H905 C883 0.950 . S
C906 C907 1.349 . S
C906 C908 1.327 . S
C906 H931 0.950 . S
C907 C906 1.349 . S
C907 C923 1.349 . S
C908 C906 1.327 . S
C908 C927 1.429 . S
C908 H932 0.950 . S
C909 C926 1.574 . S
C909 C928 1.368 . S
C909 H933 0.949 . S
H910 C914 0.949 . S
C911 C912 1.349 . S
C911 C913 1.327 . S
C911 H934 0.950 . S
C912 C911 1.349 . S
C912 C924 1.349 . S
C913 C911 1.327 . S
C913 C929 1.429 . S
C913 H935 0.950 . S
C914 H910 0.949 . S
C914 C922 1.574 . S
C914 C930 1.368 . S
H915 C923 0.950 . S
H916 C921 0.950 . S
H917 C922 0.949 . S
H918 C924 0.950 . S
H919 C925 0.950 . S
H920 C926 0.949 . S
C921 H916 0.950 . S
C921 C923 1.327 . S
C921 C927 1.429 . S
C922 C914 1.574 . S
C922 H917 0.949 . S
C922 C928 1.368 . S
C923 C907 1.349 . S
C923 H915 0.950 . S
C923 C921 1.327 . S
C924 C912 1.349 . S
C924 H918 0.950 . S
C924 C925 1.327 . S
C925 H919 0.950 . S
C925 C924 1.327 . S
C925 C929 1.429 . S
C926 C909 1.574 . S
C926 H920 0.949 . S
C926 C930 1.368 . S
C927 C908 1.429 . S
C927 C921 1.429 . S
C927 C928 1.523 . S
C928 C909 1.368 . S
C928 C922 1.368 . S
C928 C927 1.523 . S
C929 C913 1.429 . S
C929 C925 1.429 . S
C929 C930 1.523 . S
C930 C914 1.368 . S
C930 C926 1.368 . S
C930 C929 1.523 . S
H931 C906 0.950 . S
H932 C908 0.950 . S
H933 C909 0.949 . S
H934 C911 0.950 . S
H935 C913 0.950 . S
C936 C937 1.349 . S
C936 C938 1.327 . S
C936 H961 0.950 . S
C937 C936 1.349 . S
C937 C953 1.349 . S
C938 C936 1.327 . S
C938 C957 1.429 . S
C938 H962 0.950 . S
C939 C956 1.574 . S
C939 C958 1.368 . S
C939 H963 0.949 . S
H940 C944 0.949 . S
C941 C942 1.349 . S
C941 C943 1.327 . S
C941 H964 0.950 . S
C942 C941 1.349 . S
C942 C954 1.349 . S
C943 C941 1.327 . S
C943 C959 1.429 . S
C943 H965 0.950 . S
C944 H940 0.949 . S
C944 C952 1.574 . S
C944 C960 1.368 . S
H945 C953 0.950 . S
H946 C951 0.950 . S
H947 C952 0.949 . S
H948 C954 0.950 . S
H949 C955 0.950 . S
H950 C956 0.949 . S
C951 H946 0.950 . S
C951 C953 1.327 . S
C951 C957 1.429 . S
C952 C944 1.574 . S
C952 H947 0.949 . S
C952 C958 1.368 . S
C953 C937 1.349 . S
C953 H945 0.950 . S
C953 C951 1.327 . S
C954 C942 1.349 . S
C954 H948 0.950 . S
C954 C955 1.327 . S
C955 H949 0.950 . S
C955 C954 1.327 . S
C955 C959 1.429 . S
C956 C939 1.574 . S
C956 H950 0.949 . S
C956 C960 1.368 . S
C957 C938 1.429 . S
C957 C951 1.429 . S
C957 C958 1.523 . S
C958 C939 1.368 . S
C958 C952 1.368 . S
C958 C957 1.523 . S
C959 C943 1.429 . S
C959 C955 1.429 . S
C959 C960 1.523 . S
C960 C944 1.368 . S
C960 C956 1.368 . S
C960 C959 1.523 . S
H961 C936 0.950 . S
H962 C938 0.950 . S
H963 C939 0.949 . S
H964 C941 0.950 . S
H965 C943 0.950 . S
C966 C967 1.349 . S
C966 C968 1.327 . S
C966 H991 0.950 . S
C967 C966 1.349 . S
C967 C983 1.349 . S
C968 C966 1.327 . S
C968 C987 1.429 . S
C968 H992 0.950 . S
C969 C986 1.574 . S
C969 C988 1.368 . S
C969 H993 0.949 . S
H970 C974 0.949 . S
C971 C972 1.349 . S
C971 C973 1.327 . S
C971 H994 0.950 . S
C972 C971 1.349 . S
C972 C984 1.349 . S
C973 C971 1.327 . S
C973 C989 1.429 . S
C973 H995 0.950 . S
C974 H970 0.949 . S
C974 C982 1.574 . S
C974 C990 1.368 . S
H975 C983 0.950 . S
H976 C981 0.950 . S
H977 C982 0.949 . S
H978 C984 0.950 . S
H979 C985 0.950 . S
H980 C986 0.949 . S
C981 H976 0.950 . S
C981 C983 1.327 . S
C981 C987 1.429 . S
C982 C974 1.574 . S
C982 H977 0.949 . S
C982 C988 1.368 . S
C983 C967 1.349 . S
C983 H975 0.950 . S
C983 C981 1.327 . S
C984 C972 1.349 . S
C984 H978 0.950 . S
C984 C985 1.327 . S
C985 H979 0.950 . S
C985 C984 1.327 . S
C985 C989 1.429 . S
C986 C969 1.574 . S
C986 H980 0.949 . S
C986 C990 1.368 . S
C987 C968 1.429 . S
C987 C981 1.429 . S
C987 C988 1.523 . S
C988 C969 1.368 . S
C988 C982 1.368 . S
C988 C987 1.523 . S
C989 C973 1.429 . S
C989 C985 1.429 . S
C989 C990 1.523 . S
C990 C974 1.368 . S
C990 C986 1.368 . S
C990 C989 1.523 . S
H991 C966 0.950 . S
H992 C968 0.950 . S
H993 C969 0.949 . S
H994 C971 0.950 . S
H995 C973 0.950 . S
C996 C997 1.349 . S
C996 C998 1.327 . S
C996 H1021 0.950 . S
C997 C996 1.349 . S
C997 C1013 1.349 . S
C998 C996 1.327 . S
C998 C1017 1.429 . S
C998 H1022 0.950 . S
C999 C1016 1.574 . S
C999 C1018 1.368 . S
C999 H1023 0.949 . S
H1000 C1004 0.949 . S
C1001 C1002 1.349 . S
C1001 C1003 1.327 . S
C1001 H1024 0.950 . S
C1002 C1001 1.349 . S
C1002 C1014 1.349 . S
C1003 C1001 1.327 . S
C1003 C1019 1.429 . S
C1003 H1025 0.950 . S
C1004 H1000 0.949 . S
C1004 C1012 1.574 . S
C1004 C1020 1.368 . S
H1005 C1013 0.950 . S
H1006 C1011 0.950 . S
H1007 C1012 0.949 . S
H1008 C1014 0.950 . S
H1009 C1015 0.950 . S
H1010 C1016 0.949 . S
C1011 H1006 0.950 . S
C1011 C1013 1.327 . S
C1011 C1017 1.429 . S
C1012 C1004 1.574 . S
C1012 H1007 0.949 . S
C1012 C1018 1.368 . S
C1013 C997 1.349 . S
C1013 H1005 0.950 . S
C1013 C1011 1.327 . S
C1014 C1002 1.349 . S
C1014 H1008 0.950 . S
C1014 C1015 1.327 . S
C1015 H1009 0.950 . S
C1015 C1014 1.327 . S
C1015 C1019 1.429 . S
C1016 C999 1.574 . S
C1016 H1010 0.949 . S
C1016 C1020 1.368 . S
C1017 C998 1.429 . S
C1017 C1011 1.429 . S
C1017 C1018 1.523 . S
C1018 C999 1.368 . S
C1018 C1012 1.368 . S
C1018 C1017 1.523 . S
C1019 C1003 1.429 . S
C1019 C1015 1.429 . S
C1019 C1020 1.523 . S
C1020 C1004 1.368 . S
C1020 C1016 1.368 . S
C1020 C1019 1.523 . S
H1021 C996 0.950 . S
H1022 C998 0.950 . S
H1023 C999 0.949 . S
H1024 C1001 0.950 . S
H1025 C1003 0.950 . S
C1026 C1027 1.349 . S
C1026 C1028 1.327 . S
C1026 H1051 0.950 . S
C1027 C1026 1.349 . S
C1027 C1043 1.349 . S
C1028 C1026 1.327 . S
C1028 C1047 1.429 . S
C1028 H1052 0.950 . S
C1029 C1046 1.574 . S
C1029 C1048 1.368 . S
C1029 H1053 0.949 . S
H1030 C1034 0.949 . S
C1031 C1032 1.349 . S
C1031 C1033 1.327 . S
C1031 H1054 0.950 . S
C1032 C1031 1.349 . S
C1032 C1044 1.349 . S
C1033 C1031 1.327 . S
C1033 C1049 1.429 . S
C1033 H1055 0.950 . S
C1034 H1030 0.949 . S
C1034 C1042 1.574 . S
C1034 C1050 1.368 . S
H1035 C1043 0.950 . S
H1036 C1041 0.950 . S
H1037 C1042 0.949 . S
H1038 C1044 0.950 . S
H1039 C1045 0.950 . S
H1040 C1046 0.949 . S
C1041 H1036 0.950 . S
C1041 C1043 1.327 . S
C1041 C1047 1.429 . S
C1042 C1034 1.574 . S
C1042 H1037 0.949 . S
C1042 C1048 1.368 . S
C1043 C1027 1.349 . S
C1043 H1035 0.950 . S
C1043 C1041 1.327 . S
C1044 C1032 1.349 . S
C1044 H1038 0.950 . S
C1044 C1045 1.327 . S
C1045 H1039 0.950 . S
C1045 C1044 1.327 . S
C1045 C1049 1.429 . S
C1046 C1029 1.574 . S
C1046 H1040 0.949 . S
C1046 C1050 1.368 . S
C1047 C1028 1.429 . S
C1047 C1041 1.429 . S
C1047 C1048 1.523 . S
C1048 C1029 1.368 . S
C1048 C1042 1.368 . S
C1048 C1047 1.523 . S
C1049 C1033 1.429 . S
C1049 C1045 1.429 . S
C1049 C1050 1.523 . S
C1050 C1034 1.368 . S
C1050 C1046 1.368 . S
C1050 C1049 1.523 . S
H1051 C1026 0.950 . S
H1052 C1028 0.950 . S
H1053 C1029 0.949 . S
H1054 C1031 0.950 . S
H1055 C1033 0.950 . S
C1056 C1057 1.349 . S
C1056 C1058 1.327 . S
C1056 H1081 0.988 . S
C1057 C1056 1.349 . S
C1057 C1073 1.349 . S
C1058 C1056 1.327 . S
C1058 C1077 1.429 . S
C1058 H1082 0.950 1_565 S
C1059 C1076 1.574 1_556 S
C1059 C1078 1.368 . S
C1059 H1083 0.949 . S
H1060 C1064 0.949 . S
C1061 C1062 1.349 . S
C1061 C1063 1.327 . S
C1061 H1084 0.988 . S
C1062 C1061 1.349 . S
C1062 C1074 1.349 . S
C1063 C1061 1.327 . S
C1063 C1079 1.429 . S
C1063 H1085 0.950 1_545 S
C1064 H1060 0.949 . S
C1064 C1072 1.574 1_554 S
C1064 C1080 1.368 . S
H1065 C1073 0.950 . S
H1066 C1071 0.950 . S
H1067 C1072 0.949 . S
H1068 C1074 0.950 . S
H1069 C1075 0.950 . S
H1070 C1076 0.949 . S
C1071 H1066 0.950 . S
C1071 C1073 1.327 . S
C1071 C1077 1.429 . S
C1072 C1064 1.574 1_556 S
C1072 H1067 0.949 . S
C1072 C1078 1.368 1_545 S
C1073 C1057 1.349 . S
C1073 H1065 0.950 . S
C1073 C1071 1.327 . S
C1074 C1062 1.349 . S
C1074 H1068 0.950 . S
C1074 C1075 1.327 . S
C1075 H1069 0.950 . S
C1075 C1074 1.327 . S
C1075 C1079 1.429 . S
C1076 C1059 1.574 1_554 S
C1076 H1070 0.949 . S
C1076 C1080 1.368 1_565 S
C1077 C1058 1.429 . S
C1077 C1071 1.429 . S
C1077 C1078 1.523 . S
C1078 C1059 1.368 . S
C1078 C1072 1.368 1_565 S
C1078 C1077 1.523 . S
C1079 C1063 1.429 . S
C1079 C1075 1.429 . S
C1079 C1080 1.523 . S
C1080 C1064 1.368 . S
C1080 C1076 1.368 1_545 S
C1080 C1079 1.523 . S
H1081 C1056 0.988 . S
H1082 C1058 0.950 1_545 S
H1083 C1059 0.949 . S
H1084 C1061 0.988 . S
H1085 C1063 0.950 1_565 S
C1086 C1087 1.349 . S
C1086 C1088 1.327 . S
C1086 H1111 0.950 . S
C1087 C1086 1.349 . S
C1087 C1103 1.349 . S
C1088 C1086 1.327 . S
C1088 C1107 1.429 . S
C1088 H1112 0.950 . S
C1089 C1106 1.574 . S
C1089 C1108 1.368 . S
C1089 H1113 0.949 . S
H1090 C1094 0.949 . S
C1091 C1092 1.349 . S
C1091 C1093 1.327 . S
C1091 H1114 0.950 . S
C1092 C1091 1.349 . S
C1092 C1104 1.349 . S
C1093 C1091 1.327 . S
C1093 C1109 1.429 . S
C1093 H1115 0.950 . S
C1094 H1090 0.949 . S
C1094 C1102 1.574 . S
C1094 C1110 1.368 . S
H1095 C1103 0.950 . S
H1096 C1101 0.950 . S
H1097 C1102 0.949 . S
H1098 C1104 0.950 . S
H1099 C1105 0.950 . S
H1100 C1106 0.949 . S
C1101 H1096 0.950 . S
C1101 C1103 1.327 . S
C1101 C1107 1.429 . S
C1102 C1094 1.574 . S
C1102 H1097 0.949 . S
C1102 C1108 1.368 . S
C1103 C1087 1.349 . S
C1103 H1095 0.950 . S
C1103 C1101 1.327 . S
C1104 C1092 1.349 . S
C1104 H1098 0.950 . S
C1104 C1105 1.327 . S
C1105 H1099 0.950 . S
C1105 C1104 1.327 . S
C1105 C1109 1.429 . S
C1106 C1089 1.574 . S
C1106 H1100 0.949 . S
C1106 C1110 1.368 . S
C1107 C1088 1.429 . S
C1107 C1101 1.429 . S
C1107 C1108 1.523 . S
C1108 C1089 1.368 . S
C1108 C1102 1.368 . S
C1108 C1107 1.523 . S
C1109 C1093 1.429 . S
C1109 C1105 1.429 . S
C1109 C1110 1.523 . S
C1110 C1094 1.368 . S
C1110 C1106 1.368 . S
C1110 C1109 1.523 . S
H1111 C1086 0.950 . S
H1112 C1088 0.950 . S
H1113 C1089 0.949 . S
H1114 C1091 0.950 . S
H1115 C1093 0.950 . S
C1116 C1117 1.349 . S
C1116 C1118 1.327 . S
C1116 H1141 0.950 . S
C1117 C1116 1.349 . S
C1117 C1133 1.349 . S
C1118 C1116 1.327 . S
C1118 C1137 1.429 . S
C1118 H1142 0.950 . S
C1119 C1136 1.574 1_456 S
C1119 C1138 1.368 . S
C1119 H1143 0.949 . S
H1120 C1124 0.949 . S
C1121 C1122 1.349 . S
C1121 C1123 1.327 . S
C1121 H1144 0.950 . S
C1122 C1121 1.349 . S
C1122 C1134 1.349 . S
C1123 C1121 1.327 . S
C1123 C1139 1.429 . S
C1123 H1145 0.950 . S
C1124 H1120 0.949 . S
C1124 C1132 1.574 1_654 S
C1124 C1140 1.368 . S
H1125 C1133 0.950 . S
H1126 C1131 0.950 . S
H1127 C1132 0.949 . S
H1128 C1134 0.950 . S
H1129 C1135 0.950 . S
H1130 C1136 0.949 . S
C1131 H1126 0.950 . S
C1131 C1133 1.327 . S
C1131 C1137 1.429 . S
C1132 C1124 1.574 1_456 S
C1132 H1127 0.949 . S
C1132 C1138 1.368 . S
C1133 C1117 1.349 . S
C1133 H1125 0.950 . S
C1133 C1131 1.327 . S
C1134 C1122 1.349 . S
C1134 H1128 0.950 . S
C1134 C1135 1.327 . S
C1135 H1129 0.950 . S
C1135 C1134 1.327 . S
C1135 C1139 1.429 . S
C1136 C1119 1.574 1_654 S
C1136 H1130 0.949 . S
C1136 C1140 1.368 . S
C1137 C1118 1.429 . S
C1137 C1131 1.429 . S
C1137 C1138 1.523 . S
C1138 C1119 1.368 . S
C1138 C1132 1.368 . S
C1138 C1137 1.523 . S
C1139 C1123 1.429 . S
C1139 C1135 1.429 . S
C1139 C1140 1.523 . S
C1140 C1124 1.368 . S
C1140 C1136 1.368 . S
C1140 C1139 1.523 . S
H1141 C1116 0.950 . S
H1142 C1118 0.950 . S
H1143 C1119 0.949 . S
H1144 C1121 0.950 . S
H1145 C1123 0.950 . S
C1146 C1147 1.349 . S
C1146 C1148 1.327 1_545 S
C1146 H1171 0.950 1_545 S
C1147 C1146 1.349 . S
C1147 C1163 1.349 . S
C1148 C1146 1.327 1_565 S
C1148 C1167 1.429 1_565 S
C1148 H1172 0.950 . S
C1149 C1166 1.574 . S
C1149 C1168 1.368 . S
C1149 H1173 0.949 . S
H1150 C1154 0.949 . S
C1151 C1152 1.349 . S
C1151 C1153 1.327 1_565 S
C1151 H1174 0.950 1_565 S
C1152 C1151 1.349 . S
C1152 C1164 1.349 . S
C1153 C1151 1.327 1_545 S
C1153 C1169 1.429 1_545 S
C1153 H1175 0.950 . S
C1154 H1150 0.949 . S
C1154 C1162 1.574 . S
C1154 C1170 1.368 . S
H1155 C1163 0.950 . S
H1156 C1161 0.950 . S
H1157 C1162 0.949 . S
H1158 C1164 0.950 . S
H1159 C1165 0.950 . S
H1160 C1166 0.949 . S
C1161 H1156 0.950 . S
C1161 C1163 1.327 . S
C1161 C1167 1.429 . S
C1162 C1154 1.574 . S
C1162 H1157 0.949 . S
C1162 C1168 1.368 1_565 S
C1163 C1147 1.349 . S
C1163 H1155 0.950 . S
C1163 C1161 1.327 . S
C1164 C1152 1.349 . S
C1164 H1158 0.950 . S
C1164 C1165 1.327 . S
C1165 H1159 0.950 . S
C1165 C1164 1.327 . S
C1165 C1169 1.429 . S
C1166 C1149 1.574 . S
C1166 H1160 0.949 . S
C1166 C1170 1.368 1_545 S
C1167 C1148 1.429 1_545 S
C1167 C1161 1.429 . S
C1167 C1168 1.523 . S
C1168 C1149 1.368 . S
C1168 C1162 1.368 1_545 S
C1168 C1167 1.523 . S
C1169 C1153 1.429 1_565 S
C1169 C1165 1.429 . S
C1169 C1170 1.523 . S
C1170 C1154 1.368 . S
C1170 C1166 1.368 1_565 S
C1170 C1169 1.523 . S
H1171 C1146 0.950 1_565 S
H1172 C1148 0.950 . S
H1173 C1149 0.949 . S
H1174 C1151 0.950 1_545 S
H1175 C1153 0.950 . S
C1176 C1177 1.349 . S
C1176 C1178 1.327 . S
C1176 H1201 0.950 . S
C1177 C1176 1.349 . S
C1177 C1193 1.349 . S
C1178 C1176 1.327 . S
C1178 C1197 1.429 . S
C1178 H1202 0.950 . S
C1179 C1196 1.574 1_554 S
C1179 C1198 1.368 . S
C1179 H1203 0.949 . S
H1180 C1184 0.949 . S
C1181 C1182 1.349 . S
C1181 C1183 1.327 . S
C1181 H1204 0.950 . S
C1182 C1181 1.349 . S
C1182 C1194 1.349 . S
C1183 C1181 1.327 . S
C1183 C1199 1.429 . S
C1183 H1205 0.950 . S
C1184 H1180 0.949 . S
C1184 C1192 1.574 1_556 S
C1184 C1200 1.368 . S
H1185 C1193 0.950 . S
H1186 C1191 0.950 . S
H1187 C1192 0.949 . S
H1188 C1194 0.950 . S
H1189 C1195 0.950 . S
H1190 C1196 0.949 . S
C1191 H1186 0.950 . S
C1191 C1193 1.327 . S
C1191 C1197 1.429 . S
C1192 C1184 1.574 1_554 S
C1192 H1187 0.949 . S
C1192 C1198 1.368 . S
C1193 C1177 1.349 . S
C1193 H1185 0.950 . S
C1193 C1191 1.327 . S
C1194 C1182 1.349 . S
C1194 H1188 0.950 . S
C1194 C1195 1.327 . S
C1195 H1189 0.950 . S
C1195 C1194 1.327 . S
C1195 C1199 1.429 . S
C1196 C1179 1.574 1_556 S
C1196 H1190 0.949 . S
C1196 C1200 1.368 . S
C1197 C1178 1.429 . S
C1197 C1191 1.429 . S
C1197 C1198 1.523 . S
C1198 C1179 1.368 . S
C1198 C1192 1.368 . S
C1198 C1197 1.523 . S
C1199 C1183 1.429 . S
C1199 C1195 1.429 . S
C1199 C1200 1.523 . S
C1200 C1184 1.368 . S
C1200 C1196 1.368 . S
C1200 C1199 1.523 . S
H1201 C1176 0.950 . S
H1202 C1178 0.950 . S
H1203 C1179 0.949 . S
H1204 C1181 0.950 . S
H1205 C1183 0.950 . S
C1206 C1207 1.349 . S
C1206 C1208 1.328 1_455 S
C1206 H1231 0.950 1_455 S
C1207 C1206 1.349 . S
C1207 C1223 1.349 . S
C1208 C1206 1.328 1_655 S
C1208 C1227 1.430 1_655 S
C1208 H1232 0.947 . S
C1209 C1226 1.574 . S
C1209 C1228 1.368 . S
C1209 H1233 0.949 . S
H1210 C1214 0.949 . S
C1211 C1212 1.349 . S
C1211 C1213 1.328 1_655 S
C1211 H1234 0.950 1_655 S
C1212 C1211 1.349 . S
C1212 C1224 1.349 . S
C1213 C1211 1.328 1_455 S
C1213 C1229 1.430 1_455 S
C1213 H1235 0.947 . S
C1214 H1210 0.949 . S
C1214 C1222 1.574 . S
C1214 C1230 1.368 . S
H1215 C1223 0.950 . S
H1216 C1221 0.950 . S
H1217 C1222 0.949 . S
H1218 C1224 0.950 . S
H1219 C1225 0.950 . S
H1220 C1226 0.949 . S
C1221 H1216 0.950 . S
C1221 C1223 1.327 . S
C1221 C1227 1.429 . S
C1222 C1214 1.574 . S
C1222 H1217 0.949 . S
C1222 C1228 1.368 1_655 S
C1223 C1207 1.349 . S
C1223 H1215 0.950 . S
C1223 C1221 1.327 . S
C1224 C1212 1.349 . S
C1224 H1218 0.950 . S
C1224 C1225 1.327 . S
C1225 H1219 0.950 . S
C1225 C1224 1.327 . S
C1225 C1229 1.429 . S
C1226 C1209 1.574 . S
C1226 H1220 0.949 . S
C1226 C1230 1.368 1_455 S
C1227 C1208 1.430 1_455 S
C1227 C1221 1.429 . S
C1227 C1228 1.523 . S
C1228 C1209 1.368 . S
C1228 C1222 1.368 1_455 S
C1228 C1227 1.523 . S
C1229 C1213 1.430 1_655 S
C1229 C1225 1.429 . S
C1229 C1230 1.523 . S
C1230 C1214 1.368 . S
C1230 C1226 1.368 1_655 S
C1230 C1229 1.523 . S
H1231 C1206 0.950 1_655 S
H1232 C1208 0.947 . S
H1233 C1209 0.949 . S
H1234 C1211 0.950 1_455 S
H1235 C1213 0.947 . S
C1236 C1237 1.349 . S
C1236 C1238 1.327 . S
C1236 H1261 0.950 . S
C1237 C1236 1.349 . S
C1237 C1253 1.349 . S
C1238 C1236 1.327 . S
C1238 C1257 1.429 . S
C1238 H1262 0.950 1_565 S
C1239 C1256 1.574 1_556 S
C1239 C1258 1.368 . S
C1239 H1263 0.949 . S
H1240 C1244 0.949 . S
C1241 C1242 1.349 . S
C1241 C1243 1.327 . S
C1241 H1264 0.950 . S
C1242 C1241 1.349 . S
C1242 C1254 1.349 . S
C1243 C1241 1.327 . S
C1243 C1259 1.429 . S
C1243 H1265 0.950 1_545 S
C1244 H1240 0.949 . S
C1244 C1252 1.574 1_554 S
C1244 C1260 1.368 . S
H1245 C1253 0.950 . S
H1246 C1251 0.950 . S
H1247 C1252 0.949 . S
H1248 C1254 0.950 . S
H1249 C1255 0.950 . S
H1250 C1256 0.949 . S
C1251 H1246 0.950 . S
C1251 C1253 1.327 . S
C1251 C1257 1.429 . S
C1252 C1244 1.574 1_556 S
C1252 H1247 0.949 . S
C1252 C1258 1.368 1_545 S
C1253 C1237 1.349 . S
C1253 H1245 0.950 . S
C1253 C1251 1.327 . S
C1254 C1242 1.349 . S
C1254 H1248 0.950 . S
C1254 C1255 1.327 . S
C1255 H1249 0.950 . S
C1255 C1254 1.327 . S
C1255 C1259 1.429 . S
C1256 C1239 1.574 1_554 S
C1256 H1250 0.949 . S
C1256 C1260 1.368 1_565 S
C1257 C1238 1.429 . S
C1257 C1251 1.429 . S
C1257 C1258 1.523 . S
C1258 C1239 1.368 . S
C1258 C1252 1.368 1_565 S
C1258 C1257 1.523 . S
C1259 C1243 1.429 . S
C1259 C1255 1.429 . S
C1259 C1260 1.523 . S
C1260 C1244 1.368 . S
C1260 C1256 1.368 1_545 S
C1260 C1259 1.523 . S
H1261 C1236 0.950 . S
H1262 C1238 0.950 1_545 S
H1263 C1239 0.949 . S
H1264 C1241 0.950 . S
H1265 C1243 0.950 1_565 S
C1266 C1267 1.349 . S
C1266 C1268 1.327 . S
C1266 H1291 0.950 . S
C1267 C1266 1.349 . S
C1267 C1283 1.349 . S
C1268 C1266 1.327 . S
C1268 C1287 1.429 . S
C1268 H1292 0.950 . S
C1269 C1286 1.574 . S
C1269 C1288 1.368 . S
C1269 H1293 0.949 . S
H1270 C1274 0.949 . S
C1271 C1272 1.349 . S
C1271 C1273 1.327 . S
C1271 H1294 0.950 . S
C1272 C1271 1.349 . S
C1272 C1284 1.349 . S
C1273 C1271 1.327 . S
C1273 C1289 1.429 . S
C1273 H1295 0.950 . S
C1274 H1270 0.949 . S
C1274 C1282 1.574 . S
C1274 C1290 1.368 . S
H1275 C1283 0.950 . S
H1276 C1281 0.950 . S
H1277 C1282 0.949 . S
H1278 C1284 0.950 . S
H1279 C1285 0.950 . S
H1280 C1286 0.949 . S
C1281 H1276 0.950 . S
C1281 C1283 1.327 . S
C1281 C1287 1.429 . S
C1282 C1274 1.574 . S
C1282 H1277 0.949 . S
C1282 C1288 1.368 . S
C1283 C1267 1.349 . S
C1283 H1275 0.950 . S
C1283 C1281 1.327 . S
C1284 C1272 1.349 . S
C1284 H1278 0.950 . S
C1284 C1285 1.327 . S
C1285 H1279 0.950 . S
C1285 C1284 1.327 . S
C1285 C1289 1.429 . S
C1286 C1269 1.574 . S
C1286 H1280 0.949 . S
C1286 C1290 1.368 . S
C1287 C1268 1.429 . S
C1287 C1281 1.429 . S
C1287 C1288 1.523 . S
C1288 C1269 1.368 . S
C1288 C1282 1.368 . S
C1288 C1287 1.523 . S
C1289 C1273 1.429 . S
C1289 C1285 1.429 . S
C1289 C1290 1.523 . S
C1290 C1274 1.368 . S
C1290 C1286 1.368 . S
C1290 C1289 1.523 . S
H1291 C1266 0.950 . S
H1292 C1268 0.950 . S
H1293 C1269 0.949 . S
H1294 C1271 0.950 . S
H1295 C1273 0.950 . S
C1296 C1297 1.349 . S
C1296 C1298 1.327 . S
C1296 H1321 0.950 . S
C1297 C1296 1.349 . S
C1297 C1313 1.349 . S
C1298 C1296 1.327 . S
C1298 C1317 1.429 . S
C1298 H1322 0.950 . S
C1299 C1316 1.574 1_554 S
C1299 C1318 1.368 1_455 S
C1299 H1323 0.949 . S
H1300 C1304 0.949 . S
C1301 C1302 1.349 . S
C1301 C1303 1.327 . S
C1301 H1324 0.950 . S
C1302 C1301 1.349 . S
C1302 C1314 1.349 . S
C1303 C1301 1.327 . S
C1303 C1319 1.429 . S
C1303 H1325 0.950 . S
C1304 H1300 0.949 . S
C1304 C1312 1.574 1_556 S
C1304 C1320 1.368 1_655 S
H1305 C1313 0.950 1_455 S
H1306 C1311 0.929 1_455 S
H1307 C1312 0.949 . S
H1308 C1314 0.950 1_655 S
H1309 C1315 0.929 1_655 S
H1310 C1316 0.949 . S
C1311 H1306 0.929 1_655 S
C1311 C1313 1.338 . S
C1311 C1317 1.440 . S
C1312 C1304 1.574 1_554 S
C1312 H1307 0.949 . S
C1312 C1318 1.368 . S
C1313 C1297 1.349 . S
C1313 H1305 0.950 1_655 S
C1313 C1311 1.338 . S
C1314 C1302 1.349 . S
C1314 H1308 0.950 1_455 S
C1314 C1315 1.338 . S
C1315 H1309 0.929 1_455 S
C1315 C1314 1.338 . S
C1315 C1319 1.440 . S
C1316 C1299 1.574 1_556 S
C1316 H1310 0.949 . S
C1316 C1320 1.368 . S
C1317 C1298 1.429 . S
C1317 C1311 1.440 . S
C1317 C1318 1.523 . S
C1318 C1299 1.368 1_655 S
C1318 C1312 1.368 . S
C1318 C1317 1.523 . S
C1319 C1303 1.429 . S
C1319 C1315 1.440 . S
C1319 C1320 1.523 . S
C1320 C1304 1.368 1_455 S
C1320 C1316 1.368 . S
C1320 C1319 1.523 . S
H1321 C1296 0.950 . S
H1322 C1298 0.950 . S
H1323 C1299 0.949 . S
H1324 C1301 0.950 . S
H1325 C1303 0.950 . S
C1326 C1327 1.349 . S
C1326 C1328 1.327 . S
C1326 H1351 0.950 . S
C1327 C1326 1.349 . S
C1327 C1343 1.349 . S
C1328 C1326 1.327 . S
C1328 C1347 1.429 . S
C1328 H1352 0.950 . S
C1329 C1346 1.574 . S
C1329 C1348 1.368 1_545 S
C1329 H1353 0.949 . S
H1330 C1334 0.949 . S
C1331 C1332 1.349 . S
C1331 C1333 1.327 . S
C1331 H1354 0.950 . S
C1332 C1331 1.349 . S
C1332 C1344 1.349 . S
C1333 C1331 1.327 . S
C1333 C1349 1.429 . S
C1333 H1355 0.950 . S
C1334 H1330 0.949 . S
C1334 C1342 1.574 . S
C1334 C1350 1.368 1_565 S
H1335 C1343 0.948 1_545 S
H1336 C1341 0.950 1_545 S
H1337 C1342 0.949 . S
H1338 C1344 0.948 1_565 S
H1339 C1345 0.950 1_565 S
H1340 C1346 0.949 . S
C1341 H1336 0.950 1_565 S
C1341 C1343 1.327 . S
C1341 C1347 1.429 . S
C1342 C1334 1.574 . S
C1342 H1337 0.949 . S
C1342 C1348 1.368 . S
C1343 C1327 1.349 . S
C1343 H1335 0.948 1_565 S
C1343 C1341 1.327 . S
C1344 C1332 1.349 . S
C1344 H1338 0.948 1_545 S
C1344 C1345 1.327 . S
C1345 H1339 0.950 1_545 S
C1345 C1344 1.327 . S
C1345 C1349 1.429 . S
C1346 C1329 1.574 . S
C1346 H1340 0.949 . S
C1346 C1350 1.368 . S
C1347 C1328 1.429 . S
C1347 C1341 1.429 . S
C1347 C1348 1.523 . S
C1348 C1329 1.368 1_565 S
C1348 C1342 1.368 . S
C1348 C1347 1.523 . S
C1349 C1333 1.429 . S
C1349 C1345 1.429 . S
C1349 C1350 1.523 . S
C1350 C1334 1.368 1_545 S
C1350 C1346 1.368 . S
C1350 C1349 1.523 . S
H1351 C1326 0.950 . S
H1352 C1328 0.950 . S
H1353 C1329 0.949 . S
H1354 C1331 0.950 . S
H1355 C1333 0.950 . S
C1356 C1357 1.349 . S
C1356 C1358 1.327 . S
C1356 H1381 0.950 . S
C1357 C1356 1.349 . S
C1357 C1373 1.349 . S
C1358 C1356 1.327 . S
C1358 C1377 1.429 . S
C1358 H1382 0.950 . S
C1359 C1376 1.574 1_554 S
C1359 C1378 1.368 . S
C1359 H1383 0.949 . S
H1360 C1364 0.949 . S
C1361 C1362 1.349 . S
C1361 C1363 1.327 . S
C1361 H1384 0.950 . S
C1362 C1361 1.349 . S
C1362 C1374 1.349 . S
C1363 C1361 1.327 . S
C1363 C1379 1.429 . S
C1363 H1385 0.950 . S
C1364 H1360 0.949 . S
C1364 C1372 1.574 1_556 S
C1364 C1380 1.368 . S
H1365 C1373 0.950 . S
H1366 C1371 0.950 . S
H1367 C1372 0.949 . S
H1368 C1374 0.950 . S
H1369 C1375 0.950 . S
H1370 C1376 0.949 . S
C1371 H1366 0.950 . S
C1371 C1373 1.327 . S
C1371 C1377 1.429 . S
C1372 C1364 1.574 1_554 S
C1372 H1367 0.949 . S
C1372 C1378 1.368 . S
C1373 C1357 1.349 . S
C1373 H1365 0.950 . S
C1373 C1371 1.327 . S
C1374 C1362 1.349 . S
C1374 H1368 0.950 . S
C1374 C1375 1.327 . S
C1375 H1369 0.950 . S
C1375 C1374 1.327 . S
C1375 C1379 1.429 . S
C1376 C1359 1.574 1_556 S
C1376 H1370 0.949 . S
C1376 C1380 1.368 . S
C1377 C1358 1.429 . S
C1377 C1371 1.429 . S
C1377 C1378 1.523 . S
C1378 C1359 1.368 . S
C1378 C1372 1.368 . S
C1378 C1377 1.523 . S
C1379 C1363 1.429 . S
C1379 C1375 1.429 . S
C1379 C1380 1.523 . S
C1380 C1364 1.368 . S
C1380 C1376 1.368 . S
C1380 C1379 1.523 . S
H1381 C1356 0.950 . S
H1382 C1358 0.950 . S
H1383 C1359 0.949 . S
H1384 C1361 0.950 . S
H1385 C1363 0.950 . S
C1386 C1387 1.349 . S
C1386 C1388 1.327 . S
C1386 H1411 0.950 . S
C1387 C1386 1.349 . S
C1387 C1403 1.349 . S
C1388 C1386 1.327 . S
C1388 C1407 1.429 . S
C1388 H1412 0.950 . S
C1389 C1406 1.574 . S
C1389 C1408 1.368 1_655 S
C1389 H1413 0.949 . S
H1390 C1394 0.949 . S
C1391 C1392 1.349 . S
C1391 C1393 1.327 . S
C1391 H1414 0.950 . S
C1392 C1391 1.349 . S
C1392 C1404 1.349 . S
C1393 C1391 1.327 . S
C1393 C1409 1.429 . S
C1393 H1415 0.950 . S
C1394 H1390 0.949 . S
C1394 C1402 1.574 . S
C1394 C1410 1.368 1_455 S
H1395 C1403 0.939 1_655 S
H1396 C1401 0.950 1_655 S
H1397 C1402 0.949 . S
H1398 C1404 0.939 1_455 S
H1399 C1405 0.950 1_455 S
H1400 C1406 0.949 . S
C1401 H1396 0.950 1_455 S
C1401 C1403 1.327 . S
C1401 C1407 1.429 . S
C1402 C1394 1.574 . S
C1402 H1397 0.949 . S
C1402 C1408 1.368 . S
C1403 C1387 1.349 . S
C1403 H1395 0.939 1_455 S
C1403 C1401 1.327 . S
C1404 C1392 1.349 . S
C1404 H1398 0.939 1_655 S
C1404 C1405 1.327 . S
C1405 H1399 0.950 1_655 S
C1405 C1404 1.327 . S
C1405 C1409 1.429 . S
C1406 C1389 1.574 . S
C1406 H1400 0.949 . S
C1406 C1410 1.368 . S
C1407 C1388 1.429 . S
C1407 C1401 1.429 . S
C1407 C1408 1.523 . S
C1408 C1389 1.368 1_455 S
C1408 C1402 1.368 . S
C1408 C1407 1.523 . S
C1409 C1393 1.429 . S
C1409 C1405 1.429 . S
C1409 C1410 1.523 . S
C1410 C1394 1.368 1_655 S
C1410 C1406 1.368 . S
C1410 C1409 1.523 . S
H1411 C1386 0.950 . S
H1412 C1388 0.950 . S
H1413 C1389 0.949 . S
H1414 C1391 0.950 . S
H1415 C1393 0.950 . S
C1416 C1417 1.349 . S
C1416 C1418 1.327 . S
C1416 H1441 0.950 . S
C1417 C1416 1.349 . S
C1417 C1433 1.349 . S
C1418 C1416 1.327 . S
C1418 C1437 1.429 . S
C1418 H1442 0.950 . S
C1419 C1436 1.574 . S
C1419 C1438 1.368 . S
C1419 H1443 0.949 . S
H1420 C1424 0.949 . S
C1421 C1422 1.349 . S
C1421 C1423 1.327 . S
C1421 H1444 0.950 . S
C1422 C1421 1.349 . S
C1422 C1434 1.349 . S
C1423 C1421 1.327 . S
C1423 C1439 1.429 . S
C1423 H1445 0.950 . S
C1424 H1420 0.949 . S
C1424 C1432 1.574 . S
C1424 C1440 1.368 . S
H1425 C1433 0.950 . S
H1426 C1431 0.950 . S
H1427 C1432 0.949 . S
H1428 C1434 0.950 . S
H1429 C1435 0.950 . S
H1430 C1436 0.949 . S
C1431 H1426 0.950 . S
C1431 C1433 1.327 . S
C1431 C1437 1.429 . S
C1432 C1424 1.574 . S
C1432 H1427 0.949 . S
C1432 C1438 1.368 . S
C1433 C1417 1.349 . S
C1433 H1425 0.950 . S
C1433 C1431 1.327 . S
C1434 C1422 1.349 . S
C1434 H1428 0.950 . S
C1434 C1435 1.327 . S
C1435 H1429 0.950 . S
C1435 C1434 1.327 . S
C1435 C1439 1.429 . S
C1436 C1419 1.574 . S
C1436 H1430 0.949 . S
C1436 C1440 1.368 . S
C1437 C1418 1.429 . S
C1437 C1431 1.429 . S
C1437 C1438 1.523 . S
C1438 C1419 1.368 . S
C1438 C1432 1.368 . S
C1438 C1437 1.523 . S
C1439 C1423 1.429 . S
C1439 C1435 1.429 . S
C1439 C1440 1.523 . S
C1440 C1424 1.368 . S
C1440 C1436 1.368 . S
C1440 C1439 1.523 . S
H1441 C1416 0.950 . S
H1442 C1418 0.950 . S
H1443 C1419 0.949 . S
H1444 C1421 0.950 . S
H1445 C1423 0.950 . S
C1446 C1447 1.349 . S
C1446 C1448 1.327 . S
C1446 H1471 0.950 . S
C1447 C1446 1.349 . S
C1447 C1463 1.349 . S
C1448 C1446 1.327 . S
C1448 C1467 1.429 . S
C1448 H1472 0.950 . S
C1449 C1466 1.574 . S
C1449 C1468 1.368 . S
C1449 H1473 0.949 . S
H1450 C1454 0.949 . S
C1451 C1452 1.349 . S
C1451 C1453 1.327 . S
C1451 H1474 0.950 . S
C1452 C1451 1.349 . S
C1452 C1464 1.349 . S
C1453 C1451 1.327 . S
C1453 C1469 1.429 . S
C1453 H1475 0.950 . S
C1454 H1450 0.949 . S
C1454 C1462 1.574 . S
C1454 C1470 1.368 . S
H1455 C1463 0.950 . S
H1456 C1461 0.950 . S
H1457 C1462 0.949 . S
H1458 C1464 0.950 . S
H1459 C1465 0.950 . S
H1460 C1466 0.949 . S
C1461 H1456 0.950 . S
C1461 C1463 1.327 . S
C1461 C1467 1.429 . S
C1462 C1454 1.574 . S
C1462 H1457 0.949 . S
C1462 C1468 1.368 . S
C1463 C1447 1.349 . S
C1463 H1455 0.950 . S
C1463 C1461 1.327 . S
C1464 C1452 1.349 . S
C1464 H1458 0.950 . S
C1464 C1465 1.327 . S
C1465 H1459 0.950 . S
C1465 C1464 1.327 . S
C1465 C1469 1.429 . S
C1466 C1449 1.574 . S
C1466 H1460 0.949 . S
C1466 C1470 1.368 . S
C1467 C1448 1.429 . S
C1467 C1461 1.429 . S
C1467 C1468 1.523 . S
C1468 C1449 1.368 . S
C1468 C1462 1.368 . S
C1468 C1467 1.523 . S
C1469 C1453 1.429 . S
C1469 C1465 1.429 . S
C1469 C1470 1.523 . S
C1470 C1454 1.368 . S
C1470 C1466 1.368 . S
C1470 C1469 1.523 . S
H1471 C1446 0.950 . S
H1472 C1448 0.950 . S
H1473 C1449 0.949 . S
H1474 C1451 0.950 . S
H1475 C1453 0.950 . S
C1476 C1477 1.349 . S
C1476 C1478 1.327 . S
C1476 H1501 0.950 . S
C1477 C1476 1.349 . S
C1477 C1493 1.349 . S
C1478 C1476 1.327 . S
C1478 C1497 1.429 . S
C1478 H1502 0.950 . S
C1479 C1496 1.574 . S
C1479 C1498 1.368 . S
C1479 H1503 0.949 . S
H1480 C1484 0.949 . S
C1481 C1482 1.349 . S
C1481 C1483 1.327 . S
C1481 H1504 0.950 . S
C1482 C1481 1.349 . S
C1482 C1494 1.349 . S
C1483 C1481 1.327 . S
C1483 C1499 1.429 . S
C1483 H1505 0.950 . S
C1484 H1480 0.949 . S
C1484 C1492 1.574 . S
C1484 C1500 1.368 . S
H1485 C1493 0.950 . S
H1486 C1491 0.950 . S
H1487 C1492 0.949 . S
H1488 C1494 0.950 . S
H1489 C1495 0.950 . S
H1490 C1496 0.949 . S
C1491 H1486 0.950 . S
C1491 C1493 1.327 . S
C1491 C1497 1.429 . S
C1492 C1484 1.574 . S
C1492 H1487 0.949 . S
C1492 C1498 1.368 . S
C1493 C1477 1.349 . S
C1493 H1485 0.950 . S
C1493 C1491 1.327 . S
C1494 C1482 1.349 . S
C1494 H1488 0.950 . S
C1494 C1495 1.327 . S
C1495 H1489 0.950 . S
C1495 C1494 1.327 . S
C1495 C1499 1.429 . S
C1496 C1479 1.574 . S
C1496 H1490 0.949 . S
C1496 C1500 1.368 . S
C1497 C1478 1.429 . S
C1497 C1491 1.429 . S
C1497 C1498 1.523 . S
C1498 C1479 1.368 . S
C1498 C1492 1.368 . S
C1498 C1497 1.523 . S
C1499 C1483 1.429 . S
C1499 C1495 1.429 . S
C1499 C1500 1.523 . S
C1500 C1484 1.368 . S
C1500 C1496 1.368 . S
C1500 C1499 1.523 . S
H1501 C1476 0.950 . S
H1502 C1478 0.950 . S
H1503 C1479 0.949 . S
H1504 C1481 0.950 . S
H1505 C1483 0.950 . S
C1506 C1507 1.349 . S
C1506 C1508 1.327 . S
C1506 H1531 0.950 . S
C1507 C1506 1.349 . S
C1507 C1523 1.349 . S
C1508 C1506 1.327 . S
C1508 C1527 1.429 . S
C1508 H1532 0.950 . S
C1509 C1526 1.574 . S
C1509 C1528 1.368 . S
C1509 H1533 0.949 . S
H1510 C1514 0.949 . S
C1511 C1512 1.349 . S
C1511 C1513 1.327 . S
C1511 H1534 0.950 . S
C1512 C1511 1.349 . S
C1512 C1524 1.349 . S
C1513 C1511 1.327 . S
C1513 C1529 1.429 . S
C1513 H1535 0.950 . S
C1514 H1510 0.949 . S
C1514 C1522 1.574 . S
C1514 C1530 1.368 . S
H1515 C1523 0.950 . S
H1516 C1521 0.950 . S
H1517 C1522 0.949 . S
H1518 C1524 0.950 . S
H1519 C1525 0.950 . S
H1520 C1526 0.949 . S
C1521 H1516 0.950 . S
C1521 C1523 1.327 . S
C1521 C1527 1.429 . S
C1522 C1514 1.574 . S
C1522 H1517 0.949 . S
C1522 C1528 1.368 . S
C1523 C1507 1.349 . S
C1523 H1515 0.950 . S
C1523 C1521 1.327 . S
C1524 C1512 1.349 . S
C1524 H1518 0.950 . S
C1524 C1525 1.327 . S
C1525 H1519 0.950 . S
C1525 C1524 1.327 . S
C1525 C1529 1.429 . S
C1526 C1509 1.574 . S
C1526 H1520 0.949 . S
C1526 C1530 1.368 . S
C1527 C1508 1.429 . S
C1527 C1521 1.429 . S
C1527 C1528 1.523 . S
C1528 C1509 1.368 . S
C1528 C1522 1.368 . S
C1528 C1527 1.523 . S
C1529 C1513 1.429 . S
C1529 C1525 1.429 . S
C1529 C1530 1.523 . S
C1530 C1514 1.368 . S
C1530 C1526 1.368 . S
C1530 C1529 1.523 . S
H1531 C1506 0.950 . S
H1532 C1508 0.950 . S
H1533 C1509 0.949 . S
H1534 C1511 0.950 . S
H1535 C1513 0.950 . S
C1536 C1537 1.349 . S
C1536 C1538 1.327 . S
C1536 H1561 0.950 . S
C1537 C1536 1.349 . S
C1537 C1553 1.349 . S
C1538 C1536 1.327 . S
C1538 C1557 1.429 . S
C1538 H1562 0.950 . S
C1539 C1556 1.574 . S
C1539 C1558 1.368 . S
C1539 H1563 0.949 . S
H1540 C1544 0.949 . S
C1541 C1542 1.349 . S
C1541 C1543 1.327 . S
C1541 H1564 0.950 . S
C1542 C1541 1.349 . S
C1542 C1554 1.349 . S
C1543 C1541 1.327 . S
C1543 C1559 1.429 . S
C1543 H1565 0.950 . S
C1544 H1540 0.949 . S
C1544 C1552 1.574 . S
C1544 C1560 1.368 . S
H1545 C1553 0.950 . S
H1546 C1551 0.950 . S
H1547 C1552 0.949 . S
H1548 C1554 0.950 . S
H1549 C1555 0.950 . S
H1550 C1556 0.949 . S
C1551 H1546 0.950 . S
C1551 C1553 1.327 . S
C1551 C1557 1.429 . S
C1552 C1544 1.574 . S
C1552 H1547 0.949 . S
C1552 C1558 1.368 . S
C1553 C1537 1.349 . S
C1553 H1545 0.950 . S
C1553 C1551 1.327 . S
C1554 C1542 1.349 . S
C1554 H1548 0.950 . S
C1554 C1555 1.327 . S
C1555 H1549 0.950 . S
C1555 C1554 1.327 . S
C1555 C1559 1.429 . S
C1556 C1539 1.574 . S
C1556 H1550 0.949 . S
C1556 C1560 1.368 . S
C1557 C1538 1.429 . S
C1557 C1551 1.429 . S
C1557 C1558 1.523 . S
C1558 C1539 1.368 . S
C1558 C1552 1.368 . S
C1558 C1557 1.523 . S
C1559 C1543 1.429 . S
C1559 C1555 1.429 . S
C1559 C1560 1.523 . S
C1560 C1544 1.368 . S
C1560 C1556 1.368 . S
C1560 C1559 1.523 . S
H1561 C1536 0.950 . S
H1562 C1538 0.950 . S
H1563 C1539 0.949 . S
H1564 C1541 0.950 . S
H1565 C1543 0.950 . S
C1566 C1567 1.349 . S
C1566 C1568 1.327 . S
C1566 H1591 0.950 . S
C1567 C1566 1.349 . S
C1567 C1583 1.349 . S
C1568 C1566 1.327 . S
C1568 C1587 1.429 . S
C1568 H1592 0.950 . S
C1569 C1586 1.574 . S
C1569 C1588 1.368 . S
C1569 H1593 0.949 . S
H1570 C1574 0.949 . S
C1571 C1572 1.349 . S
C1571 C1573 1.327 . S
C1571 H1594 0.950 . S
C1572 C1571 1.349 . S
C1572 C1584 1.349 . S
C1573 C1571 1.327 . S
C1573 C1589 1.429 . S
C1573 H1595 0.950 . S
C1574 H1570 0.949 . S
C1574 C1582 1.574 . S
C1574 C1590 1.368 . S
H1575 C1583 0.950 . S
H1576 C1581 0.950 . S
H1577 C1582 0.949 . S
H1578 C1584 0.950 . S
H1579 C1585 0.950 . S
H1580 C1586 0.949 . S
C1581 H1576 0.950 . S
C1581 C1583 1.327 . S
C1581 C1587 1.429 . S
C1582 C1574 1.574 . S
C1582 H1577 0.949 . S
C1582 C1588 1.368 . S
C1583 C1567 1.349 . S
C1583 H1575 0.950 . S
C1583 C1581 1.327 . S
C1584 C1572 1.349 . S
C1584 H1578 0.950 . S
C1584 C1585 1.327 . S
C1585 H1579 0.950 . S
C1585 C1584 1.327 . S
C1585 C1589 1.429 . S
C1586 C1569 1.574 . S
C1586 H1580 0.949 . S
C1586 C1590 1.368 . S
C1587 C1568 1.429 . S
C1587 C1581 1.429 . S
C1587 C1588 1.523 . S
C1588 C1569 1.368 . S
C1588 C1582 1.368 . S
C1588 C1587 1.523 . S
C1589 C1573 1.429 . S
C1589 C1585 1.429 . S
C1589 C1590 1.523 . S
C1590 C1574 1.368 . S
C1590 C1586 1.368 . S
C1590 C1589 1.523 . S
H1591 C1566 0.950 . S
H1592 C1568 0.950 . S
H1593 C1569 0.949 . S
H1594 C1571 0.950 . S
H1595 C1573 0.950 . S
C1596 C1597 1.349 . S
C1596 C1598 1.327 . S
C1596 H1621 0.950 . S
C1597 C1596 1.349 . S
C1597 C1613 1.349 . S
C1598 C1596 1.327 . S
C1598 C1617 1.429 . S
C1598 H1622 0.950 . S
C1599 C1616 1.574 . S
C1599 C1618 1.368 . S
C1599 H1623 0.949 . S
H1600 C1604 0.949 . S
C1601 C1602 1.349 . S
C1601 C1603 1.327 . S
C1601 H1624 0.950 . S
C1602 C1601 1.349 . S
C1602 C1614 1.349 . S
C1603 C1601 1.327 . S
C1603 C1619 1.429 . S
C1603 H1625 0.950 . S
C1604 H1600 0.949 . S
C1604 C1612 1.574 . S
C1604 C1620 1.368 . S
H1605 C1613 0.950 . S
H1606 C1611 0.950 . S
H1607 C1612 0.949 . S
H1608 C1614 0.950 . S
H1609 C1615 0.950 . S
H1610 C1616 0.949 . S
C1611 H1606 0.950 . S
C1611 C1613 1.327 . S
C1611 C1617 1.429 . S
C1612 C1604 1.574 . S
C1612 H1607 0.949 . S
C1612 C1618 1.368 . S
C1613 C1597 1.349 . S
C1613 H1605 0.950 . S
C1613 C1611 1.327 . S
C1614 C1602 1.349 . S
C1614 H1608 0.950 . S
C1614 C1615 1.327 . S
C1615 H1609 0.950 . S
C1615 C1614 1.327 . S
C1615 C1619 1.429 . S
C1616 C1599 1.574 . S
C1616 H1610 0.949 . S
C1616 C1620 1.368 . S
C1617 C1598 1.429 . S
C1617 C1611 1.429 . S
C1617 C1618 1.523 . S
C1618 C1599 1.368 . S
C1618 C1612 1.368 . S
C1618 C1617 1.523 . S
C1619 C1603 1.429 . S
C1619 C1615 1.429 . S
C1619 C1620 1.523 . S
C1620 C1604 1.368 . S
C1620 C1616 1.368 . S
C1620 C1619 1.523 . S
H1621 C1596 0.950 . S
H1622 C1598 0.950 . S
H1623 C1599 0.949 . S
H1624 C1601 0.950 . S
H1625 C1603 0.950 . S
C1626 C1627 1.349 . S
C1626 C1628 1.327 . S
C1626 H1651 0.950 . S
C1627 C1626 1.349 . S
C1627 C1643 1.349 . S
C1628 C1626 1.327 . S
C1628 C1647 1.429 . S
C1628 H1652 0.950 . S
C1629 C1646 1.574 . S
C1629 C1648 1.368 . S
C1629 H1653 0.949 . S
H1630 C1634 0.949 . S
C1631 C1632 1.349 . S
C1631 C1633 1.327 . S
C1631 H1654 0.950 . S
C1632 C1631 1.349 . S
C1632 C1644 1.349 . S
C1633 C1631 1.327 . S
C1633 C1649 1.429 . S
C1633 H1655 0.950 . S
C1634 H1630 0.949 . S
C1634 C1642 1.574 . S
C1634 C1650 1.368 . S
H1635 C1643 0.950 . S
H1636 C1641 0.950 . S
H1637 C1642 0.949 . S
H1638 C1644 0.950 . S
H1639 C1645 0.950 . S
H1640 C1646 0.949 . S
C1641 H1636 0.950 . S
C1641 C1643 1.327 . S
C1641 C1647 1.429 . S
C1642 C1634 1.574 . S
C1642 H1637 0.949 . S
C1642 C1648 1.368 . S
C1643 C1627 1.349 . S
C1643 H1635 0.950 . S
C1643 C1641 1.327 . S
C1644 C1632 1.349 . S
C1644 H1638 0.950 . S
C1644 C1645 1.327 . S
C1645 H1639 0.950 . S
C1645 C1644 1.327 . S
C1645 C1649 1.429 . S
C1646 C1629 1.574 . S
C1646 H1640 0.949 . S
C1646 C1650 1.368 . S
C1647 C1628 1.429 . S
C1647 C1641 1.429 . S
C1647 C1648 1.523 . S
C1648 C1629 1.368 . S
C1648 C1642 1.368 . S
C1648 C1647 1.523 . S
C1649 C1633 1.429 . S
C1649 C1645 1.429 . S
C1649 C1650 1.523 . S
C1650 C1634 1.368 . S
C1650 C1646 1.368 . S
C1650 C1649 1.523 . S
H1651 C1626 0.950 . S
H1652 C1628 0.950 . S
H1653 C1629 0.949 . S
H1654 C1631 0.950 . S
H1655 C1633 0.950 . S
C1656 C1657 1.349 . S
C1656 C1658 1.327 . S
C1656 H1681 0.950 . S
C1657 C1656 1.349 . S
C1657 C1673 1.349 . S
C1658 C1656 1.327 . S
C1658 C1677 1.429 . S
C1658 H1682 0.950 . S
C1659 C1676 1.574 . S
C1659 C1678 1.368 . S
C1659 H1683 0.949 . S
H1660 C1664 0.949 . S
C1661 C1662 1.349 . S
C1661 C1663 1.327 . S
C1661 H1684 0.950 . S
C1662 C1661 1.349 . S
C1662 C1674 1.349 . S
C1663 C1661 1.327 . S
C1663 C1679 1.429 . S
C1663 H1685 0.950 . S
C1664 H1660 0.949 . S
C1664 C1672 1.574 . S
C1664 C1680 1.368 . S
H1665 C1673 0.950 . S
H1666 C1671 0.950 . S
H1667 C1672 0.949 . S
H1668 C1674 0.950 . S
H1669 C1675 0.950 . S
H1670 C1676 0.949 . S
C1671 H1666 0.950 . S
C1671 C1673 1.327 . S
C1671 C1677 1.429 . S
C1672 C1664 1.574 . S
C1672 H1667 0.949 . S
C1672 C1678 1.368 . S
C1673 C1657 1.349 . S
C1673 H1665 0.950 . S
C1673 C1671 1.327 . S
C1674 C1662 1.349 . S
C1674 H1668 0.950 . S
C1674 C1675 1.327 . S
C1675 H1669 0.950 . S
C1675 C1674 1.327 . S
C1675 C1679 1.429 . S
C1676 C1659 1.574 . S
C1676 H1670 0.949 . S
C1676 C1680 1.368 . S
C1677 C1658 1.429 . S
C1677 C1671 1.429 . S
C1677 C1678 1.523 . S
C1678 C1659 1.368 . S
C1678 C1672 1.368 . S
C1678 C1677 1.523 . S
C1679 C1663 1.429 . S
C1679 C1675 1.429 . S
C1679 C1680 1.523 . S
C1680 C1664 1.368 . S
C1680 C1676 1.368 . S
C1680 C1679 1.523 . S
H1681 C1656 0.950 . S
H1682 C1658 0.950 . S
H1683 C1659 0.949 . S
H1684 C1661 0.950 . S
H1685 C1663 0.950 . S
C1686 C1687 1.349 . S
C1686 C1688 1.327 . S
C1686 H1711 0.950 . S
C1687 C1686 1.349 . S
C1687 C1703 1.349 . S
C1688 C1686 1.327 . S
C1688 C1707 1.429 . S
C1688 H1712 0.950 . S
C1689 C1706 1.574 . S
C1689 C1708 1.368 . S
C1689 H1713 0.949 . S
H1690 C1694 0.949 . S
C1691 C1692 1.349 . S
C1691 C1693 1.327 . S
C1691 H1714 0.950 . S
C1692 C1691 1.349 . S
C1692 C1704 1.349 . S
C1693 C1691 1.327 . S
C1693 C1709 1.429 . S
C1693 H1715 0.950 . S
C1694 H1690 0.949 . S
C1694 C1702 1.574 . S
C1694 C1710 1.368 . S
H1695 C1703 0.950 . S
H1696 C1701 0.950 . S
H1697 C1702 0.949 . S
H1698 C1704 0.950 . S
H1699 C1705 0.950 . S
H1700 C1706 0.949 . S
C1701 H1696 0.950 . S
C1701 C1703 1.327 . S
C1701 C1707 1.429 . S
C1702 C1694 1.574 . S
C1702 H1697 0.949 . S
C1702 C1708 1.368 . S
C1703 C1687 1.349 . S
C1703 H1695 0.950 . S
C1703 C1701 1.327 . S
C1704 C1692 1.349 . S
C1704 H1698 0.950 . S
C1704 C1705 1.327 . S
C1705 H1699 0.950 . S
C1705 C1704 1.327 . S
C1705 C1709 1.429 . S
C1706 C1689 1.574 . S
C1706 H1700 0.949 . S
C1706 C1710 1.368 . S
C1707 C1688 1.429 . S
C1707 C1701 1.429 . S
C1707 C1708 1.523 . S
C1708 C1689 1.368 . S
C1708 C1702 1.368 . S
C1708 C1707 1.523 . S
C1709 C1693 1.429 . S
C1709 C1705 1.429 . S
C1709 C1710 1.523 . S
C1710 C1694 1.368 . S
C1710 C1706 1.368 . S
C1710 C1709 1.523 . S
H1711 C1686 0.950 . S
H1712 C1688 0.950 . S
H1713 C1689 0.949 . S
H1714 C1691 0.950 . S
H1715 C1693 0.950 . S
C1716 C1717 1.349 . S
C1716 C1718 1.327 . S
C1716 H1741 0.950 . S
C1717 C1716 1.349 . S
C1717 C1733 1.349 . S
C1718 C1716 1.327 . S
C1718 C1737 1.429 . S
C1718 H1742 0.950 . S
C1719 C1736 1.574 . S
C1719 C1738 1.368 . S
C1719 H1743 0.949 . S
H1720 C1724 0.949 . S
C1721 C1722 1.349 . S
C1721 C1723 1.327 . S
C1721 H1744 0.950 . S
C1722 C1721 1.349 . S
C1722 C1734 1.349 . S
C1723 C1721 1.327 . S
C1723 C1739 1.429 . S
C1723 H1745 0.950 . S
C1724 H1720 0.949 . S
C1724 C1732 1.574 . S
C1724 C1740 1.368 . S
H1725 C1733 0.950 . S
H1726 C1731 0.950 . S
H1727 C1732 0.949 . S
H1728 C1734 0.950 . S
H1729 C1735 0.950 . S
H1730 C1736 0.949 . S
C1731 H1726 0.950 . S
C1731 C1733 1.327 . S
C1731 C1737 1.429 . S
C1732 C1724 1.574 . S
C1732 H1727 0.949 . S
C1732 C1738 1.368 . S
C1733 C1717 1.349 . S
C1733 H1725 0.950 . S
C1733 C1731 1.327 . S
C1734 C1722 1.349 . S
C1734 H1728 0.950 . S
C1734 C1735 1.327 . S
C1735 H1729 0.950 . S
C1735 C1734 1.327 . S
C1735 C1739 1.429 . S
C1736 C1719 1.574 . S
C1736 H1730 0.949 . S
C1736 C1740 1.368 . S
C1737 C1718 1.429 . S
C1737 C1731 1.429 . S
C1737 C1738 1.523 . S
C1738 C1719 1.368 . S
C1738 C1732 1.368 . S
C1738 C1737 1.523 . S
C1739 C1723 1.429 . S
C1739 C1735 1.429 . S
C1739 C1740 1.523 . S
C1740 C1724 1.368 . S
C1740 C1736 1.368 . S
C1740 C1739 1.523 . S
H1741 C1716 0.950 . S
H1742 C1718 0.950 . S
H1743 C1719 0.949 . S
H1744 C1721 0.950 . S
H1745 C1723 0.950 . S
C1746 C1747 1.349 . S
C1746 C1748 1.327 . S
C1746 H1771 0.950 . S
C1747 C1746 1.349 . S
C1747 C1763 1.349 . S
C1748 C1746 1.327 . S
C1748 C1767 1.429 . S
C1748 H1772 0.950 . S
C1749 C1766 1.574 . S
C1749 C1768 1.368 . S
C1749 H1773 0.949 . S
H1750 C1754 0.949 . S
C1751 C1752 1.349 . S
C1751 C1753 1.327 . S
C1751 H1774 0.950 . S
C1752 C1751 1.349 . S
C1752 C1764 1.349 . S
C1753 C1751 1.327 . S
C1753 C1769 1.429 . S
C1753 H1775 0.950 . S
C1754 H1750 0.949 . S
C1754 C1762 1.574 . S
C1754 C1770 1.368 . S
H1755 C1763 0.950 . S
H1756 C1761 0.950 . S
H1757 C1762 0.949 . S
H1758 C1764 0.950 . S
H1759 C1765 0.950 . S
H1760 C1766 0.949 . S
C1761 H1756 0.950 . S
C1761 C1763 1.327 . S
C1761 C1767 1.429 . S
C1762 C1754 1.574 . S
C1762 H1757 0.949 . S
C1762 C1768 1.368 . S
C1763 C1747 1.349 . S
C1763 H1755 0.950 . S
C1763 C1761 1.327 . S
C1764 C1752 1.349 . S
C1764 H1758 0.950 . S
C1764 C1765 1.327 . S
C1765 H1759 0.950 . S
C1765 C1764 1.327 . S
C1765 C1769 1.429 . S
C1766 C1749 1.574 . S
C1766 H1760 0.949 . S
C1766 C1770 1.368 . S
C1767 C1748 1.429 . S
C1767 C1761 1.429 . S
C1767 C1768 1.523 . S
C1768 C1749 1.368 . S
C1768 C1762 1.368 . S
C1768 C1767 1.523 . S
C1769 C1753 1.429 . S
C1769 C1765 1.429 . S
C1769 C1770 1.523 . S
C1770 C1754 1.368 . S
C1770 C1766 1.368 . S
C1770 C1769 1.523 . S
H1771 C1746 0.950 . S
H1772 C1748 0.950 . S
H1773 C1749 0.949 . S
H1774 C1751 0.950 . S
H1775 C1753 0.950 . S
C337 C215 1.183 . S
C342 C5 1.183 . S
C367 C19 1.183 . S
C372 C229 1.183 . S
C397 C33 1.183 . S
C402 C243 1.183 . S
C427 C47 1.183 . S
C432 C173 1.183 . S
C457 C187 1.183 . S
C462 C61 1.183 . S
C487 C75 1.183 . S
C492 C201 1.183 . S
C517 C299 1.183 . S
C522 C89 1.183 . S
C547 C103 1.183 . S
C552 C313 1.183 . S
C577 C117 1.183 . S
C582 C327 1.183 . S
C607 C257 1.183 . S
C612 C131 1.183 . S
C637 C145 1.183 . S
C642 C271 1.183 . S
C667 C285 1.183 . S
C672 C159 1.183 . S
C697 C0 1.577 . S
C702 C322 1.577 . S
C727 C252 1.577 . S
C732 C14 1.577 . S
C757 C28 1.577 . S
C762 C266 1.577 . S
C787 C280 1.577 . S
C792 C42 1.577 . S
C817 C56 1.577 . S
C822 C294 1.577 . S
C847 C308 1.577 . S
C852 C70 1.577 . S
C877 C84 1.577 . S
C882 C182 1.577 . S
C907 C196 1.577 . S
C912 C98 1.577 . S
C937 C210 1.577 . S
C942 C112 1.577 . S
C967 C224 1.577 . S
C972 C126 1.577 . S
C997 C140 1.577 . S
C1002 C238 1.577 . S
C1027 C154 1.577 . S
C1032 C168 1.577 . S
C1057 C109 1.172 . S
C1062 C11 1.172 . S
C1087 C123 1.173 . S
C1092 C25 1.173 . S
C1117 C137 1.172 . S
C1122 C39 1.172 . S
C1147 C151 1.173 . S
C1152 C53 1.172 . S
C1177 C67 1.173 . S
C1182 C165 1.173 . S
C1207 C81 1.173 . S
C1212 C95 1.173 . S
C1237 C179 1.172 . S
C1242 C277 1.172 . S
C1267 C193 1.173 . S
C1272 C291 1.173 . S
C1297 C305 1.173 . S
C1302 C207 1.173 . S
C1327 C319 1.172 . S
C1332 C221 1.172 . S
C1357 C333 1.173 . S
C1362 C235 1.173 . S
C1387 C263 1.172 . S
C1392 C249 1.172 . S
C1417 C9 1.634 . S
C1422 C275 1.634 . S
C1447 C289 1.634 . S
C1452 C23 1.634 . S
C1477 C37 1.634 . S
C1482 C303 1.634 . S
C1507 C317 1.634 . S
C1512 C51 1.634 . S
C1537 C65 1.634 . S
C1542 C331 1.634 . S
C1567 C261 1.634 . S
C1572 C79 1.634 . S
C1597 C93 1.634 . S
C1602 C247 1.634 . S
C1627 C177 1.634 . S
C1632 C107 1.634 . S
C1657 C121 1.634 . S
C1662 C191 1.634 . S
C1687 C135 1.634 . S
C1692 C205 1.634 . S
C1717 C149 1.634 . S
C1722 C219 1.634 . S
C1747 C163 1.634 . S
C1752 C233 1.634 . S
