# Generated by pormake.
# Topology sml, (6)-cn, num edge types: 1
# Building blocks:
#     Node 0, Type 0, BuildingBlock: MIDCAF_clean_sbu_0, # of connection points: 6
#     Node 1, Type 0, BuildingBlock: MIDCAF_clean_sbu_0, # of connection points: 6
#     Node 2, Type 0, BuildingBlock: MIDCAF_clean_sbu_0, # of connection points: 6
#     Node 3, Type 0, BuildingBlock: MIDCAF_clean_sbu_0, # of connection points: 6
#     Node 4, Type 0, BuildingBlock: MIDCAF_clean_sbu_0, # of connection points: 6
#     Node 5, Type 0, BuildingBlock: MIDCAF_clean_sbu_0, # of connection points: 6
#     Edge 6, Type (0, 0), BuildingBlock: FUNLAD_clean_linker_0, # of connection points: 2
#     Edge 7, Type (0, 0), BuildingBlock: FUNLAD_clean_linker_0, # of connection points: 2
#     Edge 8, Type (0, 0), BuildingBlock: FUNLAD_clean_linker_0, # of connection points: 2
#     Edge 9, Type (0, 0), BuildingBlock: FUNLAD_clean_linker_0, # of connection points: 2
#     Edge 10, Type (0, 0), BuildingBlock: FUNLAD_clean_linker_0, # of connection points: 2
#     Edge 11, Type (0, 0), BuildingBlock: FUNLAD_clean_linker_0, # of connection points: 2
#     Edge 12, Type (0, 0), BuildingBlock: FUNLAD_clean_linker_0, # of connection points: 2
#     Edge 13, Type (0, 0), BuildingBlock: FUNLAD_clean_linker_0, # of connection points: 2
#     Edge 14, Type (0, 0), BuildingBlock: FUNLAD_clean_linker_0, # of connection points: 2
#     Edge 15, Type (0, 0), BuildingBlock: FUNLAD_clean_linker_0, # of connection points: 2
#     Edge 16, Type (0, 0), BuildingBlock: FUNLAD_clean_linker_0, # of connection points: 2
#     Edge 17, Type (0, 0), BuildingBlock: FUNLAD_clean_linker_0, # of connection points: 2
#     Edge 18, Type (0, 0), BuildingBlock: FUNLAD_clean_linker_0, # of connection points: 2
#     Edge 19, Type (0, 0), BuildingBlock: FUNLAD_clean_linker_0, # of connection points: 2
#     Edge 20, Type (0, 0), BuildingBlock: FUNLAD_clean_linker_0, # of connection points: 2
#     Edge 21, Type (0, 0), BuildingBlock: FUNLAD_clean_linker_0, # of connection points: 2
#     Edge 22, Type (0, 0), BuildingBlock: FUNLAD_clean_linker_0, # of connection points: 2
#     Edge 23, Type (0, 0), BuildingBlock: FUNLAD_clean_linker_0, # of connection points: 2
# Relax obj value: 0.361
# Max RMSD: 0.205
# Mean RMSD: 0.205
data_MOF--net-sml--node1-MIDCAF_clean_sbu_0--edge1-FUNLAD_clean_linker_0
_symmetry_space_group_name_H-M    P1
_symmetry_Int_Tables_number       1
_symmetry_cell_setting            triclinic
loop_
_symmetry_equiv_pos_as_xyz
'x, y, z'
_cell_length_a     46.540193
_cell_length_b     45.768828
_cell_length_c     16.236849
_cell_angle_alpha  88.634424
_cell_angle_beta   91.491194
_cell_angle_gamma 119.62772
loop_
_atom_site_label
_atom_site_type_symbol
_atom_site_fract_x
_atom_site_fract_y
_atom_site_fract_z
_atom_type_partial_charge
Zn0 Zn 0.24229 0.44117 0.86077 0.0
Zn1 Zn 0.17525 0.42484 0.09339 0.0
Zn2 Zn 0.20939 0.42399 -0.01347 0.0
C3 C 0.13061 0.39505 -0.02548 0.0
C4 C 0.19844 0.38122 0.14551 0.0
O5 O 0.24462 0.48046 0.96779 0.0
O6 O 0.27308 0.48854 0.85428 0.0
C7 C 0.18156 0.40182 0.79991 0.0
O8 O 0.1559 0.39368 0.94899 0.0
O9 O 0.13409 0.41405 0.03332 0.0
O10 O 0.17503 0.3872 0.15501 0.0
O11 O 0.21863 0.39537 0.0858 0.0
O12 O 0.20865 0.42509 0.77397 0.0
O13 O 0.17698 0.39651 0.87809 0.0
O14 O 0.23718 0.3973 0.01027 0.0
O15 O 0.26159 0.41228 0.88955 0.0
C16 C 0.25637 0.39604 0.95661 0.0
O17 O 0.22339 0.47609 0.03086 0.0
O18 O 0.19762 0.4685 0.1484 0.0
C19 C 0.26713 0.50028 0.91659 0.0
C20 C 0.21766 0.48817 0.09585 0.0
Zn21 Zn 0.75686 0.17612 0.52622 0.0
Zn22 Zn 0.84167 0.30567 0.15639 0.0
Zn23 Zn 0.79345 0.21048 0.29224 0.0
C24 C 0.86408 0.26643 0.25987 0.0
C25 C 0.81071 0.23735 0.09005 0.0
O26 O 0.75652 0.2202 0.36722 0.0
O27 O 0.73628 0.205 0.49722 0.0
C28 C 0.82421 0.20898 0.43986 0.0
O29 O 0.84908 0.23661 0.29086 0.0
O30 O 0.84797 0.28223 0.25988 0.0
O31 O 0.82446 0.26852 0.0695 0.0
O32 O 0.80438 0.22765 0.1653 0.0
O33 O 0.7933 0.19624 0.44334 0.0
O34 O 0.83667 0.22053 0.37023 0.0
O35 O 0.76627 0.15529 0.28132 0.0
O36 O 0.76224 0.16645 0.40622 0.0
C37 C 0.75512 0.14415 0.35268 0.0
O38 O 0.76857 0.24065 0.28665 0.0
O39 O 0.81771 0.28176 0.26261 0.0
C40 C 0.73837 0.21988 0.42784 0.0
C41 C 0.78695 0.27123 0.264 0.0
Zn42 Zn 0.58116 0.74699 0.7505 0.0
Zn43 Zn 0.54942 0.85751 0.55774 0.0
Zn44 Zn 0.58189 0.78685 0.65103 0.0
C45 C 0.59846 0.8596 0.67274 0.0
C46 C 0.58986 0.83396 0.4733 0.0
O47 O 0.53135 0.74998 0.70043 0.0
O48 O 0.54202 0.73293 0.81905 0.0
C49 C 0.62823 0.80882 0.8042 0.0
O50 O 0.61119 0.84064 0.68511 0.0
O51 O 0.56721 0.84478 0.66289 0.0
O52 O 0.57671 0.85283 0.46608 0.0
O53 O 0.58681 0.81661 0.53914 0.0
O54 O 0.62463 0.77961 0.80199 0.0
O55 O 0.61081 0.81652 0.75537 0.0
O56 O 0.611 0.76347 0.61725 0.0
O57 O 0.57867 0.7138 0.6683 0.0
C58 C 0.60425 0.73302 0.62845 0.0
O59 O 0.52825 0.76549 0.62322 0.0
O60 O 0.53809 0.81682 0.63172 0.0
C61 C 0.52133 0.73423 0.76974 0.0
C62 C 0.51877 0.78711 0.6081 0.0
Zn63 Zn 0.82384 0.57435 0.10637 0.0
Zn64 Zn 0.79834 0.61453 0.88039 0.0
Zn65 Zn 0.79992 0.58856 0.00158 0.0
C66 C 0.77621 0.63941 -0.01859 0.0
C67 C 0.82452 0.57724 0.84265 0.0
O68 O 0.78605 0.53521 -0.02515 0.0
O69 O 0.80257 0.52514 0.09567 0.0
C70 C 0.77887 0.5918 0.17214 0.0
O71 O 0.76667 0.60948 0.00867 0.0
O72 O 0.80312 0.65417 0.94292 0.0
O73 O 0.83717 0.60884 0.84607 0.0
O74 O 0.80338 0.55964 0.89846 0.0
O75 O 0.805 0.59084 0.18978 0.0
O76 O 0.76847 0.5884 0.09742 0.0
O77 O 0.85174 0.62909 0.00561 0.0
O78 O 0.87117 0.6023 0.08181 0.0
C79 C 0.87623 0.6277 0.03901 0.0
O80 O 0.76737 0.5469 0.92092 0.0
O81 O 0.74996 0.57637 0.84848 0.0
C82 C 0.78809 0.51457 0.02721 0.0
C83 C 0.74487 0.54785 0.8743 0.0
Zn84 Zn 0.25493 0.82125 0.447 0.0
Zn85 Zn 0.18284 0.76584 0.22553 0.0
Zn86 Zn 0.21686 0.79952 0.32673 0.0
C87 C 0.14034 0.74419 0.33771 0.0
C88 C 0.19634 0.82866 0.17945 0.0
O89 O 0.25144 0.77769 0.3444 0.0
O90 O 0.28115 0.79908 0.45808 0.0
C91 C 0.19256 0.79832 0.5092 0.0
O92 O 0.16339 0.77336 0.36107 0.0
O93 O 0.14768 0.72803 0.28868 0.0
O94 O 0.17137 0.79966 0.18252 0.0
O95 O 0.22142 0.83535 0.22687 0.0
O96 O 0.22225 0.81046 0.53256 0.0
O97 O 0.18452 0.79183 0.43271 0.0
O98 O 0.24235 0.8543 0.30229 0.0
O99 O 0.27727 0.86833 0.40795 0.0
C100 C 0.26607 0.87686 0.34593 0.0
O101 O 0.23194 0.7637 0.27529 0.0
O102 O 0.20859 0.75399 0.1518 0.0
C103 C 0.27381 0.78008 0.3972 0.0
C104 C 0.22765 0.75074 0.20297 0.0
Zn105 Zn 0.43796 0.25099 0.74948 0.0
Zn106 Zn 0.42737 0.1905 0.52725 0.0
Zn107 Zn 0.42655 0.22418 0.62455 0.0
C108 C 0.40332 0.14533 0.63682 0.0
C109 C 0.38046 0.20709 0.47451 0.0
O110 O 0.48056 0.26374 0.63887 0.0
O111 O 0.47805 0.29424 0.73882 0.0
C112 C 0.41199 0.19289 0.80924 0.0
O113 O 0.39767 0.16901 0.65739 0.0
O114 O 0.42666 0.15232 0.58872 0.0
O115 O 0.38499 0.18208 0.47501 0.0
O116 O 0.39717 0.23111 0.52515 0.0
O117 O 0.43899 0.21814 0.82978 0.0
O118 O 0.40165 0.1907 0.73399 0.0
O119 O 0.39815 0.25024 0.60455 0.0
O120 O 0.3961 0.25278 0.73964 0.0
C121 C 0.38594 0.2557 0.6687 0.0
O122 O 0.47881 0.24011 0.58096 0.0
O123 O 0.46678 0.21512 0.46081 0.0
C124 C 0.49413 0.29064 0.68282 0.0
C125 C 0.48835 0.23402 0.5122 0.0
C126 C 0.33269 0.2496 0.70917 0.0
C127 C 0.36221 0.26806 0.66573 0.0
C128 C 0.31672 0.2656 0.74232 0.0
C129 C 0.33032 0.30062 0.73351 0.0
C130 C 0.35789 0.31834 0.68251 0.0
C131 C 0.3738 0.30224 0.64915 0.0
C132 C 0.31817 0.31998 0.78023 0.0
C133 C 0.29953 0.30858 0.84867 0.0
C134 C 0.29059 0.33027 0.89617 0.0
C135 C 0.25876 0.31688 0.92882 0.0
C136 C 0.24839 0.33821 0.96162 0.0
C137 C 0.26997 0.37308 0.96311 0.0
H138 H 0.33828 0.3755 0.88514 0.0
C139 C 0.30292 0.38576 0.93966 0.0
C140 C 0.31315 0.36461 0.9065 0.0
H141 H 0.31994 0.4126 0.93952 0.0
H142 H 0.32362 0.22328 0.72393 0.0
H143 H 0.29481 0.25063 0.7781 0.0
H144 H 0.36869 0.34525 0.67355 0.0
H145 H 0.39702 0.31722 0.6179 0.0
H146 H 0.32662 0.3457 0.75972 0.0
H147 H 0.28995 0.28285 0.87002 0.0
H148 H 0.24111 0.29034 0.92303 0.0
H149 H 0.22267 0.3279 -0.02243 0.0
C150 C 0.07276 0.38 0.94385 0.0
C151 C 0.09638 0.36959 0.95316 0.0
C152 C 0.03967 0.3581 0.96248 0.0
C153 C 0.0294 0.32511 -0.00856 0.0
C154 C 0.05252 0.31373 -0.00814 0.0
C155 C 0.08569 0.3357 0.97233 0.0
C156 C 0.99713 0.30434 0.0341 0.0
C157 C 0.97239 0.31169 0.03141 0.0
C158 C 0.94489 0.29858 0.09131 0.0
C159 C 0.93172 0.31936 0.10948 0.0
C160 C 0.90649 0.30925 0.16626 0.0
C161 C 0.89277 0.27748 0.20478 0.0
H162 H 0.94127 0.25017 0.11827 0.0
C163 C 0.90601 0.25654 0.18737 0.0
C164 C 0.93195 0.26702 0.13128 0.0
H165 H 0.89604 0.2319 0.21607 0.0
H166 H 0.0805 0.40616 0.93061 0.0
H167 H 0.02337 0.36857 0.96127 0.0
H168 H 0.04554 0.28856 0.01364 0.0
H169 H 0.10353 0.32721 -0.01818 0.0
H170 H 0.99537 0.28467 0.07596 0.0
H171 H 0.97372 0.33092 -0.0111 0.0
H172 H 0.9414 0.34394 0.08052 0.0
H173 H 0.89774 0.32653 0.1797 0.0
C174 C 0.72187 0.09912 0.45434 0.0
C175 C 0.73679 0.10802 0.37678 0.0
C176 C 0.70702 0.06604 0.48335 0.0
C177 C 0.70602 0.04043 0.4351 0.0
C178 C 0.72084 0.04916 0.35713 0.0
C179 C 0.73594 0.08264 0.32794 0.0
C180 C 0.69072 1.00496 0.46675 0.0
C181 C 0.66642 0.99268 0.52291 0.0
C182 C 0.65062 0.95832 0.56091 0.0
C183 C 0.62069 0.94722 0.60181 0.0
C184 C 0.60473 0.91572 0.64026 0.0
C185 C 0.6183 0.89434 0.63969 0.0
H186 H 0.68809 0.94508 0.53199 0.0
C187 C 0.64871 0.9055 0.60064 0.0
C188 C 0.66473 0.93723 0.56132 0.0
H189 H 0.65961 0.88941 0.59845 0.0
H190 H 0.72209 0.11789 0.494 0.0
H191 H 0.69719 0.06102 0.54489 0.0
H192 H 0.72082 0.03008 0.31888 0.0
H193 H 0.74758 0.08875 0.26834 0.0
H194 H 0.69913 0.98873 0.44185 0.0
H195 H 0.65635 0.00845 0.54103 0.0
H196 H 0.60929 0.96289 0.60341 0.0
H197 H 0.58133 0.90784 0.66964 0.0
C198 C 0.62301 0.69087 0.64708 0.0
C199 C 0.63119 0.72455 0.63277 0.0
C200 C 0.64566 0.68311 0.68563 0.0
C201 C 0.67711 0.70887 0.71001 0.0
C202 C 0.68677 0.74211 0.68593 0.0
C203 C 0.66399 0.74996 0.64787 0.0
C204 C 0.69965 0.70196 0.76341 0.0
C205 C 0.68842 0.67762 0.82245 0.0
C206 C 0.71027 0.67009 0.8772 0.0
C207 C 0.69765 0.63762 0.91156 0.0
C208 C 0.71844 0.62831 0.95462 0.0
C209 C 0.7523 0.65144 0.96451 0.0
H210 H 0.75372 0.71983 0.87274 0.0
C211 C 0.76411 0.68485 0.93756 0.0
C212 C 0.74337 0.69411 0.89444 0.0
H213 H 0.79003 0.70337 0.94489 0.0
H214 H 0.59808 0.67066 0.63531 0.0
H215 H 0.63794 0.65703 0.69954 0.0
H216 H 0.71117 0.76237 0.70218 0.0
H217 H 0.6712 0.77617 0.63793 0.0
H218 H 0.72602 0.71839 0.75595 0.0
H219 H 0.66193 0.66163 0.82959 0.0
H220 H 0.67205 0.61877 0.90084 0.0
H221 H 0.70854 0.60232 -0.02599 0.0
C222 C 0.08107 0.70275 0.31369 0.0
C223 C 0.10501 0.73487 0.34062 0.0
C224 C 0.05059 0.69714 0.28241 0.0
C225 C 0.04309 0.72332 0.27876 0.0
C226 C 0.06508 0.75411 0.3155 0.0
C227 C 0.096 0.75996 0.34588 0.0
C228 C 0.01318 0.71882 0.23273 0.0
C229 C 0.00623 0.70545 0.15658 0.0
C230 C 0.97422 0.69338 0.11077 0.0
C231 C 0.96762 0.67165 0.04436 0.0
C232 C 0.93566 0.65317 0.01138 0.0
C233 C 0.9098 0.65668 0.04272 0.0
H234 H 0.95311 0.71676 0.18531 0.0
C235 C 0.91703 0.68134 0.102 0.0
C236 C 0.949 0.69957 0.13605 0.0
H237 H 0.89727 0.68399 0.12829 0.0
H238 H 0.08704 0.68276 0.30956 0.0
H239 H 0.03352 0.67275 0.25711 0.0
H240 H 0.05945 0.77442 0.31491 0.0
H241 H 0.11385 0.785 0.36607 0.0
H242 H 0.99705 0.72599 0.26249 0.0
H243 H 0.02418 0.7001 0.12907 0.0
H244 H 0.98657 0.66665 0.0226 0.0
H245 H 0.93055 0.63382 0.96692 0.0
C246 C 0.34673 0.10003 0.60285 0.0
C247 C 0.37758 0.10966 0.64093 0.0
C248 C 0.32797 0.06791 0.56899 0.0
C249 C 0.33964 0.04478 0.57392 0.0
C250 C 0.36838 0.0532 0.62118 0.0
C251 C 0.38735 0.0854 0.65351 0.0
C252 C 0.32479 0.01301 0.52603 0.0
C253 C 0.30468 0.00617 0.45904 0.0
C254 C 0.29563 0.97607 0.40821 0.0
C255 C 0.26278 0.95509 0.38189 0.0
C256 C 0.25331 0.92357 0.34782 0.0
C257 C 0.27674 0.91298 0.33901 0.0
H258 H 0.3453 0.98332 0.40642 0.0
C259 C 0.31019 0.93591 0.35539 0.0
C260 C 0.31955 0.96708 0.38974 0.0
H261 H 0.32872 0.92832 0.34968 0.0
H262 H 0.33887 0.11845 0.59104 0.0
H263 H 0.30542 0.0621 0.53548 0.0
H264 H 0.37777 0.03578 0.62735 0.0
H265 H 0.41124 0.09231 0.68142 0.0
H266 H 0.33317 0.99527 0.54301 0.0
H267 H 0.29472 0.02239 0.44084 0.0
H268 H 0.24399 0.96179 0.39401 0.0
H269 H 0.22727 0.90618 0.33717 0.0
C270 C 0.14816 0.38633 0.67159 0.0
C271 C 0.16122 0.37653 0.73866 0.0
C272 C 0.1449 0.37216 0.59408 0.0
C273 C 0.15577 0.34891 0.58207 0.0
C274 C 0.16564 0.33663 0.65075 0.0
C275 C 0.16779 0.34997 0.72883 0.0
C276 C 0.15978 0.34074 0.49676 0.0
C277 C 0.18842 0.34338 0.4713 0.0
C278 C 0.19582 0.34531 0.38216 0.0
C279 C 0.22618 0.37119 0.35288 0.0
C280 C 0.22997 0.37974 0.26871 0.0
C281 C 0.2035 0.36223 0.21325 0.0
H282 H 0.14809 0.3041 0.34568 0.0
C283 C 0.17534 0.33304 0.2411 0.0
C284 C 0.17137 0.32479 0.32498 0.0
H285 H 0.15448 0.31924 0.19962 0.0
H286 H 0.14383 0.40739 0.67704 0.0
H287 H 0.13699 0.38183 0.54197 0.0
H288 H 0.17366 0.31831 0.64321 0.0
H289 H 0.17873 0.3426 0.77914 0.0
H290 H 0.14122 0.33837 0.45124 0.0
H291 H 0.20858 0.34997 0.51549 0.0
H292 H 0.24559 0.38711 0.39584 0.0
H293 H 0.25171 0.40264 0.24925 0.0
C294 C 0.78549 0.20471 0.96359 0.0
C295 C 0.80872 0.21392 0.02813 0.0
C296 C 0.78931 0.19017 0.89316 0.0
C297 C 0.81705 0.186 0.88571 0.0
C298 C 0.83903 0.19312 0.95272 0.0
C299 C 0.83465 0.20673 0.02407 0.0
C300 C 0.82483 0.17893 0.80387 0.0
C301 C 0.85412 0.19981 0.76912 0.0
C302 C 0.85672 0.20242 0.67855 0.0
C303 C 0.86939 0.23426 0.64067 0.0
C304 C 0.86228 0.23696 0.55753 0.0
C305 C 0.84283 0.2078 0.51218 0.0
H306 H 0.83148 0.14875 0.65769 0.0
C307 C 0.83375 0.17623 0.54741 0.0
C308 C 0.84091 0.17353 0.63004 0.0
H309 H 0.8185 0.15348 0.51305 0.0
H310 H 0.76565 0.2106 0.96562 0.0
H311 H 0.77217 0.18487 0.84178 0.0
H312 H 0.86047 0.18988 0.94814 0.0
H313 H 0.85296 0.21411 0.07332 0.0
H314 H 0.80408 0.1616 0.7656 0.0
H315 H 0.87347 0.21994 0.80535 0.0
H316 H 0.88166 0.25685 0.67717 0.0
H317 H 0.86897 0.26147 0.5314 0.0
C318 C 0.63371 0.86549 0.37173 0.0
C319 C 0.61077 0.83457 0.40667 0.0
C320 C 0.65076 0.86656 0.30143 0.0
C321 C 0.64433 0.83658 0.26341 0.0
C322 C 0.62302 0.80566 0.30201 0.0
C323 C 0.60644 0.80465 0.37356 0.0
C324 C 0.6567 0.83638 0.1802 0.0
C325 C 0.66364 0.86106 0.12381 0.0
C326 C 0.66405 0.85529 0.03465 0.0
C327 C 0.67456 0.83357 0.00527 0.0
C328 C 0.6661 0.82124 0.92542 0.0
C329 C 0.647 0.83043 0.87398 0.0
H330 H 0.64143 0.88543 0.00038 0.0
C331 C 0.64061 0.85573 0.89951 0.0
C332 C 0.6492 0.86815 -0.02055 0.0
H333 H 0.62629 0.86363 0.86089 0.0
H334 H 0.63793 0.88888 0.39792 0.0
H335 H 0.66813 0.89088 0.27593 0.0
H336 H 0.61783 0.78218 0.27443 0.0
H337 H 0.5889 0.78055 0.4001 0.0
H338 H 0.65472 0.81288 0.16084 0.0
H339 H 0.66262 0.88333 0.14055 0.0
H340 H 0.68733 0.82433 0.04547 0.0
H341 H 0.67214 0.8024 0.90655 0.0
C342 C 0.79044 0.53798 0.73092 0.0
C343 C 0.82134 0.56377 0.75882 0.0
C344 C 0.78043 0.53773 0.64865 0.0
C345 C 0.80203 0.56221 0.59265 0.0
C346 C 0.83492 0.5836 0.6175 0.0
C347 C 0.84452 0.58444 0.69992 0.0
C348 C 0.79117 0.56821 0.5103 0.0
C349 C 0.76011 0.56142 0.49077 0.0
C350 C 0.75349 0.57285 0.41004 0.0
C351 C 0.73221 0.54927 0.35237 0.0
C352 C 0.73491 0.55806 0.26849 0.0
C353 C 0.75915 0.5903 0.2425 0.0
H354 H 0.78904 0.62536 0.42919 0.0
C355 C 0.77547 0.61532 0.30174 0.0
C356 C 0.77299 0.60657 0.38519 0.0
H357 H 0.7943 0.64034 0.28316 0.0
H358 H 0.77268 0.52033 0.77393 0.0
H359 H 0.75541 0.51957 0.63036 0.0
H360 H 0.85245 0.60198 0.57489 0.0
H361 H 0.86882 0.60412 0.71908 0.0
H362 H 0.81049 0.582 0.46557 0.0
H363 H 0.73977 0.5474 0.53244 0.0
H364 H 0.7166 0.52324 0.3706 0.0
H365 H 0.72215 0.53826 0.22391 0.0
C366 C 0.17066 0.82839 0.58482 0.0
C367 C 0.16981 0.79782 0.57056 0.0
C368 C 0.16495 0.83597 0.66355 0.0
C369 C 0.15756 0.81271 0.72856 0.0
C370 C 0.15256 0.78054 0.7117 0.0
C371 C 0.1592 0.77333 0.63344 0.0
C372 C 0.15864 0.82256 0.81538 0.0
C373 C 0.18433 0.85097 0.84587 0.0
C374 C 0.19005 0.85622 0.93601 0.0
C375 C 0.16372 0.84799 -0.01103 0.0
C376 C 0.16772 0.84494 0.07365 0.0
C377 C 0.19785 0.84922 0.10653 0.0
H378 H 0.24228 0.87261 0.93037 0.0
C379 C 0.22538 0.86205 0.05513 0.0
C380 C 0.22149 0.8657 0.97016 0.0
H381 H 0.24878 0.86528 0.07849 0.0
H382 H 0.17959 0.84796 0.53776 0.0
H383 H 0.1684 0.86074 0.67481 0.0
H384 H 0.14668 0.76215 0.76094 0.0
H385 H 0.15933 0.75 0.62454 0.0
H386 H 0.14112 0.80372 0.85749 0.0
H387 H 0.20406 0.86777 0.8051 0.0
H388 H 0.13945 0.8415 0.96441 0.0
H389 H 0.1461 0.83519 0.11201 0.0
C390 C 0.33579 0.18039 0.37066 0.0
C391 C 0.36233 0.21017 0.40211 0.0
C392 C 0.32913 0.17683 0.28602 0.0
C393 C 0.34859 0.20322 0.23161 0.0
C394 C 0.3715 0.23467 0.2642 0.0
C395 C 0.37845 0.23813 0.34918 0.0
C396 C 0.34887 0.19715 0.14215 0.0
C397 C 0.34952 0.16972 0.1156 0.0
C398 C 0.35975 0.16773 0.0311 0.0
C399 C 0.34749 0.17705 0.96143 0.0
C400 C 0.36161 0.18018 0.88431 0.0
C401 C 0.38883 0.17507 0.87637 0.0
H402 H 0.39407 0.15146 0.07404 0.0
C403 C 0.39931 0.16324 0.94475 0.0
C404 C 0.38439 0.15893 0.02117 0.0
H405 H 0.42068 0.15986 0.94057 0.0
H406 H 0.32293 0.15844 0.41025 0.0
H407 H 0.31062 0.1526 0.26272 0.0
H408 H 0.38651 0.25555 0.22339 0.0
H409 H 0.39923 0.26124 0.3715 0.0
H410 H 0.35434 0.21781 0.09933 0.0
H411 H 0.34812 0.151 0.16028 0.0
H412 H 0.32815 0.18348 0.96736 0.0
H413 H 0.35354 0.19006 0.83293 0.0
C414 C 0.23706 0.54666 0.04304 0.0
C415 C 0.23334 0.52471 0.10878 0.0
C416 C 0.24853 0.58074 0.05725 0.0
C417 C 0.25567 0.59329 0.13816 0.0
C418 C 0.25317 0.57142 0.20321 0.0
C419 C 0.24192 0.53747 0.18881 0.0
C420 C 0.2632 0.62794 0.15899 0.0
C421 C 0.25514 0.64699 0.10964 0.0
C422 C 0.25467 0.67749 0.13754 0.0
C423 C 0.25332 0.69943 0.07762 0.0
C424 C 0.24671 0.72481 0.0997 0.0
C425 C 0.24125 0.72878 0.1823 0.0
H426 H 0.25059 0.66574 0.26904 0.0
C427 C 0.24404 0.70791 0.24284 0.0
C428 C 0.2508 0.68258 0.22092 0.0
H429 H 0.23863 0.70949 0.30648 0.0
H430 H 0.22989 0.53725 -0.01899 0.0
H431 H 0.25099 0.59673 0.00475 0.0
H432 H 0.2586 0.58027 0.26605 0.0
H433 H 0.23918 0.521 0.24067 0.0
H434 H 0.27285 0.63659 0.22058 0.0
H435 H 0.24601 0.63891 0.04752 0.0
H436 H 0.25593 0.696 0.01298 0.0
H437 H 0.24442 0.7404 0.05162 0.0
C438 C 0.71342 0.25362 0.47555 0.0
C439 C 0.71612 0.23391 0.41473 0.0
C440 C 0.68822 0.26187 0.47079 0.0
C441 C 0.66466 0.2498 0.40582 0.0
C442 C 0.66858 0.23151 0.34291 0.0
C443 C 0.69392 0.22346 0.34759 0.0
C444 C 0.63452 0.25348 0.40373 0.0
C445 C 0.62238 0.26058 0.47041 0.0
C446 C 0.58891 0.25732 0.47297 0.0
C447 C 0.58155 0.27226 0.53778 0.0
C448 C 0.54919 0.26577 0.54939 0.0
C449 C 0.52352 0.24478 0.49567 0.0
H450 H 0.5672 0.22344 0.36938 0.0
C451 C 0.53115 0.23077 0.42904 0.0
C452 C 0.56325 0.23662 0.41828 0.0
H453 H 0.51197 0.21377 0.38705 0.0
H454 H 0.73029 0.26186 0.52809 0.0
H455 H 0.68706 0.27701 0.51923 0.0
H456 H 0.65099 0.22193 0.29195 0.0
H457 H 0.69502 0.20748 0.30106 0.0
H458 H 0.62055 0.24747 0.34614 0.0
H459 H 0.63641 0.2672 0.52785 0.0
H460 H 0.60068 0.28804 0.58153 0.0
H461 H 0.54412 0.27602 0.60223 0.0
C462 C 0.28899 0.55831 0.86407 0.0
C463 C 0.28692 0.53664 0.92894 0.0
C464 C 0.31412 0.59176 0.86349 0.0
C465 C 0.33835 0.60381 0.92666 0.0
C466 C 0.33414 0.58299 -0.00424 0.0
C467 C 0.30856 0.5495 -0.00314 0.0
C468 C 0.37004 0.63593 0.91769 0.0
C469 C 0.38351 0.64811 0.84322 0.0
C470 C 0.41848 0.67444 0.82964 0.0
C471 C 0.42791 0.68733 0.74932 0.0
C472 C 0.46121 0.70786 0.73011 0.0
C473 C 0.48588 0.71603 0.79093 0.0
H474 H 0.43742 0.67418 0.95365 0.0
C475 C 0.47643 0.70441 0.87208 0.0
C476 C 0.44317 0.68382 0.89132 0.0
H477 H 0.49486 0.71031 0.92054 0.0
H478 H 0.27221 0.54882 0.81149 0.0
H479 H 0.31541 0.60747 0.81128 0.0
H480 H 0.35212 0.59181 0.04596 0.0
H481 H 0.30734 0.53307 0.04746 0.0
H482 H 0.38409 0.64715 0.9736 0.0
H483 H 0.36924 0.63627 0.78791 0.0
H484 H 0.40953 0.68038 0.70027 0.0
H485 H 0.46759 0.71584 0.66687 0.0
C486 C 0.79593 0.32685 0.21583 0.0
C487 C 0.77409 0.29218 0.22508 0.0
C488 C 0.78612 0.34743 0.17415 0.0
C489 C 0.75396 0.33407 0.14127 0.0
C490 C 0.73144 0.29969 0.15336 0.0
C491 C 0.74161 0.27872 0.19379 0.0
C492 C 0.74384 0.35675 0.09889 0.0
C493 C 0.76471 0.38164 0.04809 0.0
C494 C 0.76235 0.41211 0.02538 0.0
C495 C 0.7838 0.43438 0.96526 0.0
C496 C 0.78944 0.46737 0.95809 0.0
C497 C 0.77385 0.47854 0.01145 0.0
H498 H 0.72787 0.40661 0.12052 0.0
C499 C 0.75021 0.45557 0.06619 0.0
C500 C 0.74428 0.42258 0.07284 0.0
H501 H 0.73826 0.46394 0.10866 0.0
H502 H 0.82097 0.33822 0.24041 0.0
H503 H 0.8037 0.37404 0.16869 0.0
H504 H 0.70632 0.28895 0.12971 0.0
H505 H 0.72444 0.25207 0.19851 0.0
H506 H 0.7201 0.35412 0.11402 0.0
H507 H 0.78686 0.38149 0.02892 0.0
H508 H 0.79817 0.42709 0.92811 0.0
H509 H 0.8082 0.4849 0.9165 0.0
C510 C 0.29207 0.74111 0.45231 0.0
C511 C 0.29228 0.76206 0.38772 0.0
C512 C 0.31675 0.73228 0.45889 0.0
C513 C 0.34265 0.74513 0.40215 0.0
C514 C 0.34071 0.7629 0.33238 0.0
C515 C 0.31566 0.77146 0.32531 0.0
C516 C 0.37399 0.745 0.42186 0.0
C517 C 0.38656 0.75126 0.49925 0.0
C518 C 0.42093 0.76019 0.52181 0.0
C519 C 0.43754 0.78542 0.58028 0.0
C520 C 0.46959 0.79449 0.60593 0.0
C521 C 0.48549 0.77782 0.57568 0.0
H522 H 0.42436 0.72386 0.44544 0.0
C523 C 0.46892 0.75223 0.5176 0.0
C524 C 0.43688 0.74373 0.48987 0.0
H525 H 0.48072 0.73896 0.49374 0.0
H526 H 0.27414 0.73353 0.50093 0.0
H527 H 0.31694 0.71754 0.51187 0.0
H528 H 0.36018 0.77278 0.28734 0.0
H529 H 0.31631 0.78783 0.27521 0.0
H530 H 0.38916 0.74531 0.37169 0.0
H531 H 0.37262 0.75467 0.54715 0.0
H532 H 0.42569 0.79834 0.60607 0.0
H533 H 0.48166 0.81407 0.65134 0.0
C534 C 0.69611 0.51489 0.77779 0.0
C535 C 0.71652 0.51593 0.84442 0.0
C536 C 0.66991 0.48397 0.75065 0.0
C537 C 0.6638 0.45365 0.78997 0.0
C538 C 0.68426 0.45501 0.85629 0.0
C539 C 0.7101 0.4856 0.88313 0.0
C540 C 0.63526 0.4202 0.76908 0.0
C541 C 0.61858 0.41216 0.69649 0.0
C542 C 0.58883 0.37857 0.68244 0.0
C543 C 0.56394 0.37596 0.62721 0.0
C544 C 0.53372 0.34595 0.62165 0.0
C545 C 0.52809 0.31798 0.67046 0.0
H546 H 0.60292 0.34991 0.76693 0.0
C547 C 0.55355 0.31981 0.72185 0.0
C548 C 0.58389 0.34956 0.72656 0.0
H549 H 0.54951 0.29858 0.76075 0.0
H550 H 0.70034 0.53786 0.74679 0.0
H551 H 0.65419 0.48407 0.70055 0.0
H552 H 0.68009 0.43221 0.88832 0.0
H553 H 0.72473 0.48537 0.93542 0.0
H554 H 0.62756 0.40126 0.81772 0.0
H555 H 0.62549 0.43105 0.64794 0.0
H556 H 0.56713 0.39772 0.59189 0.0
H557 H 0.51404 0.34525 0.58308 0.0
loop_
_geom_bond_atom_site_label_1
_geom_bond_atom_site_label_2
_geom_bond_distance
_geom_bond_site_symmetry_2
_ccdc_geom_bond_type
Zn0 O6 1.920 . S
Zn0 O12 1.898 . S
Zn0 O15 1.905 . S
Zn1 O9 1.905 . S
Zn1 O10 1.898 . S
Zn1 O18 1.920 . S
Zn2 O5 2.080 1_554 S
Zn2 O8 2.114 . S
Zn2 O11 2.120 . S
Zn2 O13 2.120 1_554 S
Zn2 O14 2.114 1_554 S
Zn2 O17 2.080 . S
C3 O8 1.166 . S
C3 O9 1.182 . S
C4 O10 1.167 . S
C4 O11 1.299 . S
O5 Zn2 2.080 1_556 S
O5 C19 1.305 . S
O6 Zn0 1.920 . S
O6 C19 1.234 . S
C7 O12 1.167 . S
C7 O13 1.299 . S
O8 Zn2 2.114 . S
O8 C3 1.166 . S
O9 Zn1 1.905 . S
O9 C3 1.182 . S
O10 Zn1 1.898 . S
O10 C4 1.167 . S
O11 Zn2 2.120 . S
O11 C4 1.299 . S
O12 Zn0 1.898 . S
O12 C7 1.167 . S
O13 Zn2 2.120 1_556 S
O13 C7 1.299 . S
O14 Zn2 2.114 1_556 S
O14 C16 1.166 . S
O15 Zn0 1.905 . S
O15 C16 1.182 . S
C16 O14 1.166 . S
C16 O15 1.182 . S
O17 Zn2 2.080 . S
O17 C20 1.305 . S
O18 Zn1 1.920 . S
O18 C20 1.234 . S
C19 O5 1.305 . S
C19 O6 1.234 . S
C20 O17 1.305 . S
C20 O18 1.234 . S
Zn21 O27 1.920 . S
Zn21 O33 1.898 . S
Zn21 O36 1.905 . S
Zn22 O30 1.905 . S
Zn22 O31 1.898 . S
Zn22 O39 1.920 . S
Zn23 O26 2.080 . S
Zn23 O29 2.114 . S
Zn23 O32 2.120 . S
Zn23 O34 2.120 . S
Zn23 O35 2.114 . S
Zn23 O38 2.080 . S
C24 O29 1.166 . S
C24 O30 1.182 . S
C25 O31 1.167 . S
C25 O32 1.299 . S
O26 Zn23 2.080 . S
O26 C40 1.305 . S
O27 Zn21 1.920 . S
O27 C40 1.234 . S
C28 O33 1.167 . S
C28 O34 1.299 . S
O29 Zn23 2.114 . S
O29 C24 1.166 . S
O30 Zn22 1.905 . S
O30 C24 1.182 . S
O31 Zn22 1.898 . S
O31 C25 1.167 . S
O32 Zn23 2.120 . S
O32 C25 1.299 . S
O33 Zn21 1.898 . S
O33 C28 1.167 . S
O34 Zn23 2.120 . S
O34 C28 1.299 . S
O35 Zn23 2.114 . S
O35 C37 1.166 . S
O36 Zn21 1.905 . S
O36 C37 1.182 . S
C37 O35 1.166 . S
C37 O36 1.182 . S
O38 Zn23 2.080 . S
O38 C41 1.305 . S
O39 Zn22 1.920 . S
O39 C41 1.234 . S
C40 O26 1.305 . S
C40 O27 1.234 . S
C41 O38 1.305 . S
C41 O39 1.234 . S
Zn42 O48 1.920 . S
Zn42 O54 1.898 . S
Zn42 O57 1.905 . S
Zn43 O51 1.905 . S
Zn43 O52 1.898 . S
Zn43 O60 1.920 . S
Zn44 O47 2.080 . S
Zn44 O50 2.114 . S
Zn44 O53 2.120 . S
Zn44 O55 2.120 . S
Zn44 O56 2.114 . S
Zn44 O59 2.080 . S
C45 O50 1.166 . S
C45 O51 1.182 . S
C46 O52 1.167 . S
C46 O53 1.299 . S
O47 Zn44 2.080 . S
O47 C61 1.305 . S
O48 Zn42 1.920 . S
O48 C61 1.234 . S
C49 O54 1.167 . S
C49 O55 1.299 . S
O50 Zn44 2.114 . S
O50 C45 1.166 . S
O51 Zn43 1.905 . S
O51 C45 1.182 . S
O52 Zn43 1.898 . S
O52 C46 1.167 . S
O53 Zn44 2.120 . S
O53 C46 1.299 . S
O54 Zn42 1.898 . S
O54 C49 1.167 . S
O55 Zn44 2.120 . S
O55 C49 1.299 . S
O56 Zn44 2.114 . S
O56 C58 1.166 . S
O57 Zn42 1.905 . S
O57 C58 1.182 . S
C58 O56 1.166 . S
C58 O57 1.182 . S
O59 Zn44 2.080 . S
O59 C62 1.305 . S
O60 Zn43 1.920 . S
O60 C62 1.234 . S
C61 O47 1.305 . S
C61 O48 1.234 . S
C62 O59 1.305 . S
C62 O60 1.234 . S
Zn63 O69 1.920 . S
Zn63 O75 1.898 . S
Zn63 O78 1.905 . S
Zn64 O72 1.905 . S
Zn64 O73 1.898 . S
Zn64 O81 1.920 . S
Zn65 O68 2.080 . S
Zn65 O71 2.114 1_554 S
Zn65 O74 2.120 1_554 S
Zn65 O76 2.120 . S
Zn65 O77 2.114 . S
Zn65 O80 2.080 1_554 S
C66 O71 1.166 . S
C66 O72 1.182 . S
C67 O73 1.167 . S
C67 O74 1.299 . S
O68 Zn65 2.080 . S
O68 C82 1.305 . S
O69 Zn63 1.920 . S
O69 C82 1.234 . S
C70 O75 1.167 . S
C70 O76 1.299 . S
O71 Zn65 2.114 1_556 S
O71 C66 1.166 . S
O72 Zn64 1.905 . S
O72 C66 1.182 . S
O73 Zn64 1.898 . S
O73 C67 1.167 . S
O74 Zn65 2.120 1_556 S
O74 C67 1.299 . S
O75 Zn63 1.898 . S
O75 C70 1.167 . S
O76 Zn65 2.120 . S
O76 C70 1.299 . S
O77 Zn65 2.114 . S
O77 C79 1.166 . S
O78 Zn63 1.905 . S
O78 C79 1.182 . S
C79 O77 1.166 . S
C79 O78 1.182 . S
O80 Zn65 2.080 1_556 S
O80 C83 1.305 . S
O81 Zn64 1.920 . S
O81 C83 1.234 . S
C82 O68 1.305 . S
C82 O69 1.234 . S
C83 O80 1.305 . S
C83 O81 1.234 . S
Zn84 O90 1.920 . S
Zn84 O96 1.898 . S
Zn84 O99 1.905 . S
Zn85 O93 1.905 . S
Zn85 O94 1.898 . S
Zn85 O102 1.920 . S
Zn86 O89 2.080 . S
Zn86 O92 2.114 . S
Zn86 O95 2.120 . S
Zn86 O97 2.120 . S
Zn86 O98 2.114 . S
Zn86 O101 2.080 . S
C87 O92 1.166 . S
C87 O93 1.182 . S
C88 O94 1.167 . S
C88 O95 1.299 . S
O89 Zn86 2.080 . S
O89 C103 1.305 . S
O90 Zn84 1.920 . S
O90 C103 1.234 . S
C91 O96 1.167 . S
C91 O97 1.299 . S
O92 Zn86 2.114 . S
O92 C87 1.166 . S
O93 Zn85 1.905 . S
O93 C87 1.182 . S
O94 Zn85 1.898 . S
O94 C88 1.167 . S
O95 Zn86 2.120 . S
O95 C88 1.299 . S
O96 Zn84 1.898 . S
O96 C91 1.167 . S
O97 Zn86 2.120 . S
O97 C91 1.299 . S
O98 Zn86 2.114 . S
O98 C100 1.166 . S
O99 Zn84 1.905 . S
O99 C100 1.182 . S
C100 O98 1.166 . S
C100 O99 1.182 . S
O101 Zn86 2.080 . S
O101 C104 1.305 . S
O102 Zn85 1.920 . S
O102 C104 1.234 . S
C103 O89 1.305 . S
C103 O90 1.234 . S
C104 O101 1.305 . S
C104 O102 1.234 . S
Zn105 O111 1.920 . S
Zn105 O117 1.898 . S
Zn105 O120 1.905 . S
Zn106 O114 1.905 . S
Zn106 O115 1.898 . S
Zn106 O123 1.920 . S
Zn107 O110 2.080 . S
Zn107 O113 2.114 . S
Zn107 O116 2.120 . S
Zn107 O118 2.120 . S
Zn107 O119 2.114 . S
Zn107 O122 2.080 . S
C108 O113 1.166 . S
C108 O114 1.182 . S
C109 O115 1.167 . S
C109 O116 1.299 . S
O110 Zn107 2.080 . S
O110 C124 1.305 . S
O111 Zn105 1.920 . S
O111 C124 1.234 . S
C112 O117 1.167 . S
C112 O118 1.299 . S
O113 Zn107 2.114 . S
O113 C108 1.166 . S
O114 Zn106 1.905 . S
O114 C108 1.182 . S
O115 Zn106 1.898 . S
O115 C109 1.167 . S
O116 Zn107 2.120 . S
O116 C109 1.299 . S
O117 Zn105 1.898 . S
O117 C112 1.167 . S
O118 Zn107 2.120 . S
O118 C112 1.299 . S
O119 Zn107 2.114 . S
O119 C121 1.166 . S
O120 Zn105 1.905 . S
O120 C121 1.182 . S
C121 O119 1.166 . S
C121 O120 1.182 . S
O122 Zn107 2.080 . S
O122 C125 1.305 . S
O123 Zn106 1.920 . S
O123 C125 1.234 . S
C124 O110 1.305 . S
C124 O111 1.234 . S
C125 O122 1.305 . S
C125 O123 1.234 . S
C126 C127 1.386 . S
C126 C128 1.383 . S
C126 H142 0.951 . S
C127 C126 1.386 . S
C127 C131 1.383 . S
C128 C126 1.383 . S
C128 C129 1.402 . S
C128 H143 0.951 . S
C129 C128 1.402 . S
C129 C130 1.375 . S
C129 C132 1.481 . S
C130 C129 1.375 . S
C130 C131 1.367 . S
C130 H144 0.951 . S
C131 C127 1.383 . S
C131 C130 1.367 . S
C131 H145 0.950 . S
C132 C129 1.481 . S
C132 C133 1.297 . S
C132 H146 0.950 . S
C133 C132 1.297 . S
C133 C134 1.479 . S
C133 H147 0.950 . S
C134 C133 1.479 . S
C134 C135 1.375 . S
C134 C140 1.404 . S
C135 C134 1.375 . S
C135 C136 1.369 . S
C135 H148 0.950 . S
C136 C135 1.369 . S
C136 C137 1.392 . S
C136 H149 0.951 . S
C137 C136 1.392 . S
C137 C139 1.384 . S
H138 C140 0.949 . S
C139 C137 1.384 . S
C139 C140 1.385 . S
C139 H141 0.950 . S
C140 C134 1.404 . S
C140 H138 0.949 . S
C140 C139 1.385 . S
H141 C139 0.950 . S
H142 C126 0.951 . S
H143 C128 0.951 . S
H144 C130 0.951 . S
H145 C131 0.950 . S
H146 C132 0.950 . S
H147 C133 0.950 . S
H148 C135 0.950 . S
H149 C136 0.951 . S
C150 C151 1.386 . S
C150 C152 1.383 . S
C150 H166 0.951 1_554 S
C151 C150 1.386 . S
C151 C155 1.383 . S
C152 C150 1.383 . S
C152 C153 1.402 . S
C152 H167 0.951 . S
C153 C152 1.402 . S
C153 C154 1.375 . S
C153 C156 1.481 . S
C154 C153 1.375 . S
C154 C155 1.367 . S
C154 H168 0.951 . S
C155 C151 1.383 . S
C155 C154 1.367 . S
C155 H169 0.950 . S
C156 C153 1.481 . S
C156 C157 1.297 1_455 S
C156 H170 0.950 . S
C157 C156 1.297 1_655 S
C157 C158 1.479 . S
C157 H171 0.950 . S
C158 C157 1.479 . S
C158 C159 1.375 . S
C158 C164 1.404 . S
C159 C158 1.375 . S
C159 C160 1.369 . S
C159 H172 0.950 . S
C160 C159 1.369 . S
C160 C161 1.392 . S
C160 H173 0.951 . S
C161 C160 1.392 . S
C161 C163 1.384 . S
H162 C164 0.949 . S
C163 C161 1.384 . S
C163 C164 1.385 . S
C163 H165 0.950 . S
C164 C158 1.404 . S
C164 H162 0.949 . S
C164 C163 1.385 . S
H165 C163 0.950 . S
H166 C150 0.951 1_556 S
H167 C152 0.951 . S
H168 C154 0.951 . S
H169 C155 0.950 . S
H170 C156 0.950 . S
H171 C157 0.950 . S
H172 C159 0.950 . S
H173 C160 0.951 . S
C174 C175 1.386 . S
C174 C176 1.383 . S
C174 H190 0.951 . S
C175 C174 1.386 . S
C175 C179 1.383 . S
C176 C174 1.383 . S
C176 C177 1.402 . S
C176 H191 0.951 . S
C177 C176 1.402 . S
C177 C178 1.375 . S
C177 C180 1.481 . S
C178 C177 1.375 . S
C178 C179 1.367 . S
C178 H192 0.951 . S
C179 C175 1.383 . S
C179 C178 1.367 . S
C179 H193 0.950 . S
C180 C177 1.481 . S
C180 C181 1.297 1_545 S
C180 H194 0.950 1_545 S
C181 C180 1.297 1_565 S
C181 C182 1.479 . S
C181 H195 0.950 . S
C182 C181 1.479 . S
C182 C183 1.375 . S
C182 C188 1.404 . S
C183 C182 1.375 . S
C183 C184 1.369 . S
C183 H196 0.950 . S
C184 C183 1.369 . S
C184 C185 1.392 . S
C184 H197 0.951 . S
C185 C184 1.392 . S
C185 C187 1.384 . S
H186 C188 0.949 . S
C187 C185 1.384 . S
C187 C188 1.385 . S
C187 H189 0.950 . S
C188 C182 1.404 . S
C188 H186 0.949 . S
C188 C187 1.385 . S
H189 C187 0.950 . S
H190 C174 0.951 . S
H191 C176 0.951 . S
H192 C178 0.951 . S
H193 C179 0.950 . S
H194 C180 0.950 1_565 S
H195 C181 0.950 . S
H196 C183 0.950 . S
H197 C184 0.951 . S
C198 C199 1.386 . S
C198 C200 1.383 . S
C198 H214 0.951 . S
C199 C198 1.386 . S
C199 C203 1.383 . S
C200 C198 1.383 . S
C200 C201 1.402 . S
C200 H215 0.951 . S
C201 C200 1.402 . S
C201 C202 1.375 . S
C201 C204 1.481 . S
C202 C201 1.375 . S
C202 C203 1.367 . S
C202 H216 0.951 . S
C203 C199 1.383 . S
C203 C202 1.367 . S
C203 H217 0.950 . S
C204 C201 1.481 . S
C204 C205 1.297 . S
C204 H218 0.950 . S
C205 C204 1.297 . S
C205 C206 1.479 . S
C205 H219 0.950 . S
C206 C205 1.479 . S
C206 C207 1.375 . S
C206 C212 1.404 . S
C207 C206 1.375 . S
C207 C208 1.369 . S
C207 H220 0.950 . S
C208 C207 1.369 . S
C208 C209 1.392 . S
C208 H221 0.951 . S
C209 C208 1.392 . S
C209 C211 1.384 . S
H210 C212 0.949 . S
C211 C209 1.384 . S
C211 C212 1.385 . S
C211 H213 0.950 1_556 S
C212 C206 1.404 . S
C212 H210 0.949 . S
C212 C211 1.385 . S
H213 C211 0.950 1_554 S
H214 C198 0.951 . S
H215 C200 0.951 . S
H216 C202 0.951 . S
H217 C203 0.950 . S
H218 C204 0.950 . S
H219 C205 0.950 . S
H220 C207 0.950 . S
H221 C208 0.951 . S
C222 C223 1.386 . S
C222 C224 1.383 . S
C222 H238 0.951 . S
C223 C222 1.386 . S
C223 C227 1.383 . S
C224 C222 1.383 . S
C224 C225 1.402 . S
C224 H239 0.951 . S
C225 C224 1.402 . S
C225 C226 1.375 . S
C225 C228 1.481 . S
C226 C225 1.375 . S
C226 C227 1.367 . S
C226 H240 0.951 . S
C227 C223 1.383 . S
C227 C226 1.367 . S
C227 H241 0.950 . S
C228 C225 1.481 . S
C228 C229 1.297 1_455 S
C228 H242 0.950 1_455 S
C229 C228 1.297 1_655 S
C229 C230 1.479 . S
C229 H243 0.950 1_655 S
C230 C229 1.479 . S
C230 C231 1.375 . S
C230 C236 1.404 . S
C231 C230 1.375 . S
C231 C232 1.369 . S
C231 H244 0.950 . S
C232 C231 1.369 . S
C232 C233 1.392 . S
C232 H245 0.951 1_554 S
C233 C232 1.392 . S
C233 C235 1.384 . S
H234 C236 0.949 . S
C235 C233 1.384 . S
C235 C236 1.385 . S
C235 H237 0.950 . S
C236 C230 1.404 . S
C236 H234 0.949 . S
C236 C235 1.385 . S
H237 C235 0.950 . S
H238 C222 0.951 . S
H239 C224 0.951 . S
H240 C226 0.951 . S
H241 C227 0.950 . S
H242 C228 0.950 1_655 S
H243 C229 0.950 1_455 S
H244 C231 0.950 . S
H245 C232 0.951 1_556 S
C246 C247 1.386 . S
C246 C248 1.383 . S
C246 H262 0.951 . S
C247 C246 1.386 . S
C247 C251 1.383 . S
C248 C246 1.383 . S
C248 C249 1.402 . S
C248 H263 0.951 . S
C249 C248 1.402 . S
C249 C250 1.375 . S
C249 C252 1.481 . S
C250 C249 1.375 . S
C250 C251 1.367 . S
C250 H264 0.951 . S
C251 C247 1.383 . S
C251 C250 1.367 . S
C251 H265 0.950 . S
C252 C249 1.481 . S
C252 C253 1.297 1_545 S
C252 H266 0.950 . S
C253 C252 1.297 1_565 S
C253 C254 1.479 . S
C253 H267 0.950 1_565 S
C254 C253 1.479 . S
C254 C255 1.375 . S
C254 C260 1.404 . S
C255 C254 1.375 . S
C255 C256 1.369 . S
C255 H268 0.950 . S
C256 C255 1.369 . S
C256 C257 1.392 . S
C256 H269 0.951 . S
C257 C256 1.392 . S
C257 C259 1.384 . S
H258 C260 0.949 . S
C259 C257 1.384 . S
C259 C260 1.385 . S
C259 H261 0.950 . S
C260 C254 1.404 . S
C260 H258 0.949 . S
C260 C259 1.385 . S
H261 C259 0.950 . S
H262 C246 0.951 . S
H263 C248 0.951 . S
H264 C250 0.951 . S
H265 C251 0.950 . S
H266 C252 0.950 . S
H267 C253 0.950 1_545 S
H268 C255 0.950 . S
H269 C256 0.951 . S
C270 C271 1.386 . S
C270 C272 1.383 . S
C270 H286 0.951 . S
C271 C270 1.386 . S
C271 C275 1.383 . S
C272 C270 1.383 . S
C272 C273 1.402 . S
C272 H287 0.951 . S
C273 C272 1.402 . S
C273 C274 1.375 . S
C273 C276 1.481 . S
C274 C273 1.375 . S
C274 C275 1.367 . S
C274 H288 0.951 . S
C275 C271 1.383 . S
C275 C274 1.367 . S
C275 H289 0.950 . S
C276 C273 1.481 . S
C276 C277 1.297 . S
C276 H290 0.950 . S
C277 C276 1.297 . S
C277 C278 1.479 . S
C277 H291 0.950 . S
C278 C277 1.479 . S
C278 C279 1.375 . S
C278 C284 1.404 . S
C279 C278 1.375 . S
C279 C280 1.369 . S
C279 H292 0.950 . S
C280 C279 1.369 . S
C280 C281 1.392 . S
C280 H293 0.951 . S
C281 C280 1.392 . S
C281 C283 1.384 . S
H282 C284 0.949 . S
C283 C281 1.384 . S
C283 C284 1.385 . S
C283 H285 0.950 . S
C284 C278 1.404 . S
C284 H282 0.949 . S
C284 C283 1.385 . S
H285 C283 0.950 . S
H286 C270 0.951 . S
H287 C272 0.951 . S
H288 C274 0.951 . S
H289 C275 0.950 . S
H290 C276 0.950 . S
H291 C277 0.950 . S
H292 C279 0.950 . S
H293 C280 0.951 . S
C294 C295 1.386 . S
C294 C296 1.383 1_554 S
C294 H310 0.951 . S
C295 C294 1.386 . S
C295 C299 1.383 . S
C296 C294 1.383 1_556 S
C296 C297 1.402 . S
C296 H311 0.951 . S
C297 C296 1.402 . S
C297 C298 1.375 1_556 S
C297 C300 1.481 . S
C298 C297 1.375 1_554 S
C298 C299 1.367 . S
C298 H312 0.951 . S
C299 C295 1.383 . S
C299 C298 1.367 . S
C299 H313 0.950 . S
C300 C297 1.481 . S
C300 C301 1.297 . S
C300 H314 0.950 . S
C301 C300 1.297 . S
C301 C302 1.479 . S
C301 H315 0.950 . S
C302 C301 1.479 . S
C302 C303 1.375 . S
C302 C308 1.404 . S
C303 C302 1.375 . S
C303 C304 1.369 . S
C303 H316 0.950 . S
C304 C303 1.369 . S
C304 C305 1.392 . S
C304 H317 0.951 . S
C305 C304 1.392 . S
C305 C307 1.384 . S
H306 C308 0.949 . S
C307 C305 1.384 . S
C307 C308 1.385 . S
C307 H309 0.950 . S
C308 C302 1.404 . S
C308 H306 0.949 . S
C308 C307 1.385 . S
H309 C307 0.950 . S
H310 C294 0.951 . S
H311 C296 0.951 . S
H312 C298 0.951 . S
H313 C299 0.950 . S
H314 C300 0.950 . S
H315 C301 0.950 . S
H316 C303 0.950 . S
H317 C304 0.951 . S
C318 C319 1.386 . S
C318 C320 1.383 . S
C318 H334 0.951 . S
C319 C318 1.386 . S
C319 C323 1.383 . S
C320 C318 1.383 . S
C320 C321 1.402 . S
C320 H335 0.951 . S
C321 C320 1.402 . S
C321 C322 1.375 . S
C321 C324 1.481 . S
C322 C321 1.375 . S
C322 C323 1.367 . S
C322 H336 0.951 . S
C323 C319 1.383 . S
C323 C322 1.367 . S
C323 H337 0.950 . S
C324 C321 1.481 . S
C324 C325 1.297 . S
C324 H338 0.950 . S
C325 C324 1.297 . S
C325 C326 1.479 . S
C325 H339 0.950 . S
C326 C325 1.479 . S
C326 C327 1.375 . S
C326 C332 1.404 1_554 S
C327 C326 1.375 . S
C327 C328 1.369 1_554 S
C327 H340 0.950 . S
C328 C327 1.369 1_556 S
C328 C329 1.392 . S
C328 H341 0.951 . S
C329 C328 1.392 . S
C329 C331 1.384 . S
H330 C332 0.949 1_554 S
C331 C329 1.384 . S
C331 C332 1.385 . S
C331 H333 0.950 . S
C332 C326 1.404 1_556 S
C332 H330 0.949 1_556 S
C332 C331 1.385 . S
H333 C331 0.950 . S
H334 C318 0.951 . S
H335 C320 0.951 . S
H336 C322 0.951 . S
H337 C323 0.950 . S
H338 C324 0.950 . S
H339 C325 0.950 . S
H340 C327 0.950 . S
H341 C328 0.951 . S
C342 C343 1.386 . S
C342 C344 1.383 . S
C342 H358 0.951 . S
C343 C342 1.386 . S
C343 C347 1.383 . S
C344 C342 1.383 . S
C344 C345 1.402 . S
C344 H359 0.951 . S
C345 C344 1.402 . S
C345 C346 1.375 . S
C345 C348 1.481 . S
C346 C345 1.375 . S
C346 C347 1.367 . S
C346 H360 0.951 . S
C347 C343 1.383 . S
C347 C346 1.367 . S
C347 H361 0.950 . S
C348 C345 1.481 . S
C348 C349 1.297 . S
C348 H362 0.950 . S
C349 C348 1.297 . S
C349 C350 1.479 . S
C349 H363 0.950 . S
C350 C349 1.479 . S
C350 C351 1.375 . S
C350 C356 1.404 . S
C351 C350 1.375 . S
C351 C352 1.369 . S
C351 H364 0.950 . S
C352 C351 1.369 . S
C352 C353 1.392 . S
C352 H365 0.951 . S
C353 C352 1.392 . S
C353 C355 1.384 . S
H354 C356 0.949 . S
C355 C353 1.384 . S
C355 C356 1.385 . S
C355 H357 0.950 . S
C356 C350 1.404 . S
C356 H354 0.949 . S
C356 C355 1.385 . S
H357 C355 0.950 . S
H358 C342 0.951 . S
H359 C344 0.951 . S
H360 C346 0.951 . S
H361 C347 0.950 . S
H362 C348 0.950 . S
H363 C349 0.950 . S
H364 C351 0.950 . S
H365 C352 0.951 . S
C366 C367 1.386 . S
C366 C368 1.383 . S
C366 H382 0.951 . S
C367 C366 1.386 . S
C367 C371 1.383 . S
C368 C366 1.383 . S
C368 C369 1.402 . S
C368 H383 0.951 . S
C369 C368 1.402 . S
C369 C370 1.375 . S
C369 C372 1.481 . S
C370 C369 1.375 . S
C370 C371 1.367 . S
C370 H384 0.951 . S
C371 C367 1.383 . S
C371 C370 1.367 . S
C371 H385 0.950 . S
C372 C369 1.481 . S
C372 C373 1.297 . S
C372 H386 0.950 . S
C373 C372 1.297 . S
C373 C374 1.479 . S
C373 H387 0.950 . S
C374 C373 1.479 . S
C374 C375 1.373 1_556 S
C374 C380 1.404 1_556 S
C375 C374 1.373 1_554 S
C375 C376 1.373 . S
C375 H388 0.948 1_554 S
C376 C375 1.373 . S
C376 C377 1.392 . S
C376 H389 0.951 . S
C377 C376 1.392 . S
C377 C379 1.384 . S
H378 C380 0.949 1_556 S
C379 C377 1.384 . S
C379 C380 1.385 . S
C379 H381 0.950 . S
C380 C374 1.404 1_554 S
C380 H378 0.949 1_554 S
C380 C379 1.385 . S
H381 C379 0.950 . S
H382 C366 0.951 . S
H383 C368 0.951 . S
H384 C370 0.951 . S
H385 C371 0.950 . S
H386 C372 0.950 . S
H387 C373 0.950 . S
H388 C375 0.948 1_556 S
H389 C376 0.951 . S
C390 C391 1.386 . S
C390 C392 1.383 . S
C390 H406 0.951 . S
C391 C390 1.386 . S
C391 C395 1.383 . S
C392 C390 1.383 . S
C392 C393 1.402 . S
C392 H407 0.951 . S
C393 C392 1.402 . S
C393 C394 1.375 . S
C393 C396 1.481 . S
C394 C393 1.375 . S
C394 C395 1.367 . S
C394 H408 0.951 . S
C395 C391 1.383 . S
C395 C394 1.367 . S
C395 H409 0.950 . S
C396 C393 1.481 . S
C396 C397 1.297 . S
C396 H410 0.950 . S
C397 C396 1.297 . S
C397 C398 1.479 . S
C397 H411 0.950 . S
C398 C397 1.479 . S
C398 C399 1.375 1_554 S
C398 C404 1.404 . S
C399 C398 1.375 1_556 S
C399 C400 1.369 . S
C399 H412 0.950 1_556 S
C400 C399 1.369 . S
C400 C401 1.392 . S
C400 H413 0.951 . S
C401 C400 1.392 . S
C401 C403 1.384 . S
H402 C404 0.949 . S
C403 C401 1.384 . S
C403 C404 1.385 1_556 S
C403 H405 0.950 . S
C404 C398 1.404 . S
C404 H402 0.949 . S
C404 C403 1.385 1_554 S
H405 C403 0.950 . S
H406 C390 0.951 . S
H407 C392 0.951 . S
H408 C394 0.951 . S
H409 C395 0.950 . S
H410 C396 0.950 . S
H411 C397 0.950 . S
H412 C399 0.950 1_554 S
H413 C400 0.951 . S
C414 C415 1.386 . S
C414 C416 1.383 . S
C414 H430 0.951 1_554 S
C415 C414 1.386 . S
C415 C419 1.383 . S
C416 C414 1.383 . S
C416 C417 1.402 . S
C416 H431 0.951 . S
C417 C416 1.402 . S
C417 C418 1.375 . S
C417 C420 1.481 . S
C418 C417 1.375 . S
C418 C419 1.367 . S
C418 H432 0.951 . S
C419 C415 1.383 . S
C419 C418 1.367 . S
C419 H433 0.950 . S
C420 C417 1.481 . S
C420 C421 1.297 . S
C420 H434 0.950 . S
C421 C420 1.297 . S
C421 C422 1.479 . S
C421 H435 0.950 . S
C422 C421 1.479 . S
C422 C423 1.375 . S
C422 C428 1.404 . S
C423 C422 1.375 . S
C423 C424 1.369 . S
C423 H436 0.950 . S
C424 C423 1.369 . S
C424 C425 1.392 . S
C424 H437 0.951 . S
C425 C424 1.392 . S
C425 C427 1.384 . S
H426 C428 0.949 . S
C427 C425 1.384 . S
C427 C428 1.385 . S
C427 H429 0.950 . S
C428 C422 1.404 . S
C428 H426 0.949 . S
C428 C427 1.385 . S
H429 C427 0.950 . S
H430 C414 0.951 1_556 S
H431 C416 0.951 . S
H432 C418 0.951 . S
H433 C419 0.950 . S
H434 C420 0.950 . S
H435 C421 0.950 . S
H436 C423 0.950 . S
H437 C424 0.951 . S
C438 C439 1.386 . S
C438 C440 1.383 . S
C438 H454 0.951 . S
C439 C438 1.386 . S
C439 C443 1.383 . S
C440 C438 1.383 . S
C440 C441 1.402 . S
C440 H455 0.951 . S
C441 C440 1.402 . S
C441 C442 1.375 . S
C441 C444 1.481 . S
C442 C441 1.375 . S
C442 C443 1.367 . S
C442 H456 0.951 . S
C443 C439 1.383 . S
C443 C442 1.367 . S
C443 H457 0.950 . S
C444 C441 1.481 . S
C444 C445 1.297 . S
C444 H458 0.950 . S
C445 C444 1.297 . S
C445 C446 1.479 . S
C445 H459 0.950 . S
C446 C445 1.479 . S
C446 C447 1.375 . S
C446 C452 1.404 . S
C447 C446 1.375 . S
C447 C448 1.369 . S
C447 H460 0.950 . S
C448 C447 1.369 . S
C448 C449 1.392 . S
C448 H461 0.951 . S
C449 C448 1.392 . S
C449 C451 1.384 . S
H450 C452 0.949 . S
C451 C449 1.384 . S
C451 C452 1.385 . S
C451 H453 0.950 . S
C452 C446 1.404 . S
C452 H450 0.949 . S
C452 C451 1.385 . S
H453 C451 0.950 . S
H454 C438 0.951 . S
H455 C440 0.951 . S
H456 C442 0.951 . S
H457 C443 0.950 . S
H458 C444 0.950 . S
H459 C445 0.950 . S
H460 C447 0.950 . S
H461 C448 0.951 . S
C462 C463 1.386 . S
C462 C464 1.383 . S
C462 H478 0.951 . S
C463 C462 1.386 . S
C463 C467 1.383 . S
C464 C462 1.383 . S
C464 C465 1.402 . S
C464 H479 0.951 . S
C465 C464 1.402 . S
C465 C466 1.375 . S
C465 C468 1.481 . S
C466 C465 1.375 . S
C466 C467 1.367 . S
C466 H480 0.951 . S
C467 C463 1.383 . S
C467 C466 1.367 . S
C467 H481 0.950 . S
C468 C465 1.481 . S
C468 C469 1.297 . S
C468 H482 0.950 . S
C469 C468 1.297 . S
C469 C470 1.479 . S
C469 H483 0.950 . S
C470 C469 1.479 . S
C470 C471 1.375 . S
C470 C476 1.404 . S
C471 C470 1.375 . S
C471 C472 1.369 . S
C471 H484 0.950 . S
C472 C471 1.369 . S
C472 C473 1.392 . S
C472 H485 0.951 . S
C473 C472 1.392 . S
C473 C475 1.384 . S
H474 C476 0.949 . S
C475 C473 1.384 . S
C475 C476 1.385 . S
C475 H477 0.950 . S
C476 C470 1.404 . S
C476 H474 0.949 . S
C476 C475 1.385 . S
H477 C475 0.950 . S
H478 C462 0.951 . S
H479 C464 0.951 . S
H480 C466 0.951 . S
H481 C467 0.950 . S
H482 C468 0.950 . S
H483 C469 0.950 . S
H484 C471 0.950 . S
H485 C472 0.951 . S
C486 C487 1.386 . S
C486 C488 1.383 . S
C486 H502 0.951 . S
C487 C486 1.386 . S
C487 C491 1.383 . S
C488 C486 1.383 . S
C488 C489 1.402 . S
C488 H503 0.951 . S
C489 C488 1.402 . S
C489 C490 1.375 . S
C489 C492 1.481 . S
C490 C489 1.375 . S
C490 C491 1.367 . S
C490 H504 0.951 . S
C491 C487 1.383 . S
C491 C490 1.367 . S
C491 H505 0.950 . S
C492 C489 1.481 . S
C492 C493 1.297 . S
C492 H506 0.950 . S
C493 C492 1.297 . S
C493 C494 1.479 . S
C493 H507 0.950 . S
C494 C493 1.479 . S
C494 C495 1.375 . S
C494 C500 1.404 . S
C495 C494 1.375 . S
C495 C496 1.369 . S
C495 H508 0.950 . S
C496 C495 1.369 . S
C496 C497 1.392 . S
C496 H509 0.951 . S
C497 C496 1.392 . S
C497 C499 1.384 . S
H498 C500 0.949 . S
C499 C497 1.384 . S
C499 C500 1.385 . S
C499 H501 0.950 . S
C500 C494 1.404 . S
C500 H498 0.949 . S
C500 C499 1.385 . S
H501 C499 0.950 . S
H502 C486 0.951 . S
H503 C488 0.951 . S
H504 C490 0.951 . S
H505 C491 0.950 . S
H506 C492 0.950 . S
H507 C493 0.950 . S
H508 C495 0.950 . S
H509 C496 0.951 . S
C510 C511 1.386 . S
C510 C512 1.383 . S
C510 H526 0.951 . S
C511 C510 1.386 . S
C511 C515 1.383 . S
C512 C510 1.383 . S
C512 C513 1.402 . S
C512 H527 0.951 . S
C513 C512 1.402 . S
C513 C514 1.375 . S
C513 C516 1.481 . S
C514 C513 1.375 . S
C514 C515 1.367 . S
C514 H528 0.951 . S
C515 C511 1.383 . S
C515 C514 1.367 . S
C515 H529 0.950 . S
C516 C513 1.481 . S
C516 C517 1.297 . S
C516 H530 0.950 . S
C517 C516 1.297 . S
C517 C518 1.479 . S
C517 H531 0.950 . S
C518 C517 1.479 . S
C518 C519 1.375 . S
C518 C524 1.404 . S
C519 C518 1.375 . S
C519 C520 1.369 . S
C519 H532 0.950 . S
C520 C519 1.369 . S
C520 C521 1.392 . S
C520 H533 0.951 . S
C521 C520 1.392 . S
C521 C523 1.384 . S
H522 C524 0.949 . S
C523 C521 1.384 . S
C523 C524 1.385 . S
C523 H525 0.950 . S
C524 C518 1.404 . S
C524 H522 0.949 . S
C524 C523 1.385 . S
H525 C523 0.950 . S
H526 C510 0.951 . S
H527 C512 0.951 . S
H528 C514 0.951 . S
H529 C515 0.950 . S
H530 C516 0.950 . S
H531 C517 0.950 . S
H532 C519 0.950 . S
H533 C520 0.951 . S
C534 C535 1.386 . S
C534 C536 1.383 . S
C534 H550 0.951 . S
C535 C534 1.386 . S
C535 C539 1.383 . S
C536 C534 1.383 . S
C536 C537 1.402 . S
C536 H551 0.951 . S
C537 C536 1.402 . S
C537 C538 1.375 . S
C537 C540 1.481 . S
C538 C537 1.375 . S
C538 C539 1.367 . S
C538 H552 0.951 . S
C539 C535 1.383 . S
C539 C538 1.367 . S
C539 H553 0.950 . S
C540 C537 1.481 . S
C540 C541 1.297 . S
C540 H554 0.950 . S
C541 C540 1.297 . S
C541 C542 1.479 . S
C541 H555 0.950 . S
C542 C541 1.479 . S
C542 C543 1.375 . S
C542 C548 1.404 . S
C543 C542 1.375 . S
C543 C544 1.369 . S
C543 H556 0.950 . S
C544 C543 1.369 . S
C544 C545 1.392 . S
C544 H557 0.951 . S
C545 C544 1.392 . S
C545 C547 1.384 . S
H546 C548 0.949 . S
C547 C545 1.384 . S
C547 C548 1.385 . S
C547 H549 0.950 . S
C548 C542 1.404 . S
C548 H546 0.949 . S
C548 C547 1.385 . S
H549 C547 0.950 . S
H550 C534 0.951 . S
H551 C536 0.951 . S
H552 C538 0.951 . S
H553 C539 0.950 . S
H554 C540 0.950 . S
H555 C541 0.950 . S
H556 C543 0.950 . S
H557 C544 0.951 . S
C127 C121 1.203 . S
C137 C16 1.351 . S
C151 C3 1.263 . S
C161 C24 1.231 . S
C175 C37 1.319 . S
C185 C45 1.148 . S
C199 C58 1.292 . S
C209 C66 1.184 . S
C223 C87 1.315 . S
C233 C79 1.160 . S
C247 C108 1.198 . S
C257 C100 1.356 . S
C271 C7 0.637 . S
C281 C4 0.721 . S
C295 C25 0.636 . S
C305 C28 0.728 . S
C319 C46 0.826 . S
C329 C49 0.646 . S
C343 C67 0.797 . S
C353 C70 0.911 . S
C367 C91 0.836 . S
C377 C88 0.674 . S
C391 C109 0.753 . S
C401 C112 0.563 . S
C415 C20 1.352 . S
C425 C104 1.354 . S
C439 C40 1.392 . S
C449 C125 1.332 . S
C463 C19 1.410 . S
C473 C61 1.358 . S
C487 C41 1.386 . S
C497 C82 1.430 . S
C511 C103 1.436 . S
C521 C62 1.445 . S
C535 C83 1.373 . S
C545 C124 1.409 . S
