# Generated by pormake.
# Topology uog, (4)-cn, num edge types: 1
# Building blocks:
#     Node 0, Type 0, BuildingBlock: KOZSID_clean_sbu_0, # of connection points: 4
#     Node 1, Type 0, BuildingBlock: KOZSID_clean_sbu_0, # of connection points: 4
#     Node 2, Type 0, BuildingBlock: KOZSID_clean_sbu_0, # of connection points: 4
#     Node 3, Type 0, BuildingBlock: KOZSID_clean_sbu_0, # of connection points: 4
#     Node 4, Type 0, BuildingBlock: KOZSID_clean_sbu_0, # of connection points: 4
#     Node 5, Type 0, BuildingBlock: KOZSID_clean_sbu_0, # of connection points: 4
#     Edge 6, Type (0, 0), BuildingBlock: KIFKEQ_clean_linker_1, # of connection points: 2
#     Edge 7, Type (0, 0), BuildingBlock: KIFKEQ_clean_linker_1, # of connection points: 2
#     Edge 8, Type (0, 0), BuildingBlock: KIFKEQ_clean_linker_1, # of connection points: 2
#     Edge 9, Type (0, 0), BuildingBlock: KIFKEQ_clean_linker_1, # of connection points: 2
#     Edge 10, Type (0, 0), BuildingBlock: KIFKEQ_clean_linker_1, # of connection points: 2
#     Edge 11, Type (0, 0), BuildingBlock: KIFKEQ_clean_linker_1, # of connection points: 2
#     Edge 12, Type (0, 0), BuildingBlock: KIFKEQ_clean_linker_1, # of connection points: 2
#     Edge 13, Type (0, 0), BuildingBlock: KIFKEQ_clean_linker_1, # of connection points: 2
#     Edge 14, Type (0, 0), BuildingBlock: KIFKEQ_clean_linker_1, # of connection points: 2
#     Edge 15, Type (0, 0), BuildingBlock: KIFKEQ_clean_linker_1, # of connection points: 2
#     Edge 16, Type (0, 0), BuildingBlock: KIFKEQ_clean_linker_1, # of connection points: 2
#     Edge 17, Type (0, 0), BuildingBlock: KIFKEQ_clean_linker_1, # of connection points: 2
# Relax obj value: 0.022
# Max RMSD: 0.256
# Mean RMSD: 0.256
data_MOF--net-uog--node1-KOZSID_clean_sbu_0--edge1-KIFKEQ_clean_linker_1
_symmetry_space_group_name_H-M    P1
_symmetry_Int_Tables_number       1
_symmetry_cell_setting            triclinic
loop_
_symmetry_equiv_pos_as_xyz
'x, y, z'
_cell_length_a     38.697836
_cell_length_b     38.582145
_cell_length_c     47.169403
_cell_angle_alpha  89.876794
_cell_angle_beta   90.070788
_cell_angle_gamma 120.02964
loop_
_atom_site_label
_atom_site_type_symbol
_atom_site_fract_x
_atom_site_fract_y
_atom_site_fract_z
_atom_type_partial_charge
C0 C 0.57378 0.30901 0.23598 0.0
C1 C 0.53774 0.29485 0.24998 0.0
C2 C 0.50833 0.27475 0.23023 0.0
C3 C 0.52797 0.27774 0.2053 0.0
N4 N 0.56794 0.29817 0.20801 0.0
Co5 Co 0.60714 0.31273 0.17619 0.0
N6 N 0.56462 0.28311 0.14701 0.0
C7 C 0.5251 0.26294 0.15188 0.0
C8 C 0.50315 0.24246 0.12851 0.0
C9 C 0.53058 0.2499 0.10753 0.0
C10 C 0.56777 0.27466 0.11927 0.0
N11 N 0.64684 0.33065 0.14438 0.0
C12 C 0.64149 0.32334 0.11612 0.0
C13 C 0.67662 0.34614 0.10107 0.0
C14 C 0.70538 0.36796 0.12054 0.0
C15 C 0.6861 0.35751 0.14614 0.0
N16 N 0.65066 0.34047 0.20508 0.0
C17 C 0.69015 0.36208 0.19971 0.0
C18 C 0.71345 0.37688 0.22336 0.0
C19 C 0.68728 0.36452 0.24536 0.0
C20 C 0.64917 0.34276 0.23378 0.0
N21 N 0.60834 0.2613 0.18203 0.0
C22 C 0.58679 0.17828 0.18429 0.0
C23 C 0.60523 0.20241 0.16036 0.0
C24 C 0.61626 0.24326 0.15993 0.0
C25 C 0.58295 0.19828 0.208 0.0
C26 C 0.59415 0.23927 0.20655 0.0
N27 N 0.60276 0.36217 0.17037 0.0
C28 C 0.59802 0.41793 0.19031 0.0
C29 C 0.57991 0.42198 0.1657 0.0
C30 C 0.57588 0.39691 0.14285 0.0
C31 C 0.58813 0.36813 0.14538 0.0
C32 C 0.60891 0.38812 0.19225 0.0
H33 H 0.58453 0.35008 0.12708 0.0
H34 H 0.62108 0.38571 0.21205 0.0
H35 H 0.63011 0.25942 0.14106 0.0
H36 H 0.59014 0.25238 0.22542 0.0
C37 C 0.5102 0.26211 0.17903 0.0
C38 C 0.61285 0.33086 0.25032 0.0
C39 C 0.60541 0.29115 0.1032 0.0
C40 C 0.70446 0.37009 0.17221 0.0
H41 H 0.53328 0.29845 0.27219 0.0
H42 H 0.47641 0.25983 0.23365 0.0
H43 H 0.47105 0.22373 0.12703 0.0
H44 H 0.52406 0.23865 0.08604 0.0
H45 H 0.68127 0.34578 0.07847 0.0
H46 H 0.7368 0.38812 0.11659 0.0
H47 H 0.74558 0.39571 0.2244 0.0
H48 H 0.69558 0.37276 0.26724 0.0
H49 H 0.61006 0.18983 0.14133 0.0
H50 H 0.57102 0.18244 0.22775 0.0
H51 H 0.6023 0.43663 0.20858 0.0
H52 H 0.56314 0.39937 0.12301 0.0
C53 C 0.28813 0.56093 0.56592 0.0
C54 C 0.26023 0.52602 0.57934 0.0
C55 C 0.2416 0.49778 0.55852 0.0
C56 C 0.25903 0.51685 0.53353 0.0
N57 N 0.28813 0.55512 0.53737 0.0
Co58 Co 0.31633 0.59392 0.50602 0.0
N59 N 0.29864 0.55144 0.47659 0.0
C60 C 0.26966 0.51317 0.47979 0.0
C61 C 0.26523 0.49039 0.45618 0.0
C62 C 0.29322 0.5161 0.43699 0.0
C63 C 0.3132 0.55327 0.44991 0.0
N64 N 0.34275 0.63344 0.4749 0.0
C65 C 0.35103 0.62833 0.44792 0.0
C66 C 0.36663 0.66385 0.43257 0.0
C67 C 0.36887 0.69233 0.45076 0.0
C68 C 0.35426 0.67262 0.47593 0.0
N69 N 0.33603 0.63747 0.53497 0.0
C70 C 0.35207 0.67688 0.52942 0.0
C71 C 0.36279 0.70039 0.55309 0.0
C72 C 0.35214 0.67434 0.57522 0.0
C73 C 0.33512 0.63599 0.56375 0.0
N74 N 0.36461 0.58795 0.51143 0.0
C75 C 0.42866 0.57059 0.51184 0.0
C76 C 0.43539 0.60962 0.50631 0.0
C77 C 0.40314 0.61764 0.50622 0.0
C78 C 0.38925 0.54152 0.51829 0.0
C79 C 0.35836 0.55049 0.51774 0.0
N80 N 0.26607 0.59624 0.50043 0.0
C81 C 0.20631 0.59117 0.52162 0.0
C82 C 0.18437 0.5759 0.49649 0.0
C83 C 0.20543 0.57415 0.47277 0.0
C84 C 0.24617 0.58532 0.47499 0.0
C85 C 0.24661 0.60086 0.52319 0.0
H86 H 0.26085 0.58301 0.45626 0.0
H87 H 0.26104 0.60995 0.54347 0.0
H88 H 0.4093 0.64754 0.50119 0.0
H89 H 0.32893 0.52592 0.52153 0.0
C90 C 0.25153 0.49925 0.50641 0.0
C91 C 0.31176 0.59959 0.58076 0.0
C92 C 0.34398 0.59042 0.43598 0.0
C93 C 0.35789 0.69114 0.50178 0.0
H94 H 0.25348 0.52174 0.60176 0.0
H95 H 0.21824 0.46698 0.56133 0.0
H96 H 0.245 0.45862 0.45353 0.0
H97 H 0.29823 0.50845 0.41593 0.0
H98 H 0.37576 0.66888 0.41057 0.0
H99 H 0.38135 0.72395 0.44647 0.0
H100 H 0.37611 0.73261 0.55415 0.0
H101 H 0.35454 0.68283 0.59727 0.0
H102 H 0.46511 0.63364 0.50126 0.0
H103 H 0.38171 0.51123 0.52363 0.0
H104 H 0.19184 0.59361 0.54054 0.0
H105 H 0.19037 0.56363 0.45261 0.0
C106 C 0.74502 0.27078 0.90178 0.0
C107 C 0.74989 0.2403 0.91303 0.0
C108 C 0.76035 0.22434 0.89095 0.0
C109 C 0.76116 0.2458 0.86743 0.0
N110 N 0.75294 0.2751 0.87334 0.0
Co111 Co 0.74397 0.30755 0.8441 0.0
N112 N 0.76597 0.28997 0.81249 0.0
C113 C 0.77435 0.26014 0.81391 0.0
C114 C 0.78951 0.25493 0.78896 0.0
C115 C 0.79068 0.28325 0.77063 0.0
C116 C 0.77611 0.30422 0.78542 0.0
N117 N 0.73249 0.3384 0.81514 0.0
C118 C 0.74434 0.34745 0.78777 0.0
C119 C 0.72925 0.36995 0.77543 0.0
C120 C 0.70729 0.37523 0.79566 0.0
C121 C 0.71022 0.35594 0.81912 0.0
N122 N 0.72377 0.32755 0.87553 0.0
C123 C 0.70671 0.35043 0.8727 0.0
C124 C 0.69868 0.36252 0.89789 0.0
C125 C 0.71054 0.34553 0.91818 0.0
C126 C 0.72456 0.3234 0.90407 0.0
N127 N 0.79942 0.35382 0.84994 0.0
C128 C 0.88145 0.41639 0.85233 0.0
C129 C 0.85008 0.4247 0.84816 0.0
C130 C 0.80956 0.39325 0.84716 0.0
C131 C 0.86985 0.37594 0.85637 0.0
C132 C 0.82965 0.34577 0.85479 0.0
N133 N 0.68976 0.2591 0.83805 0.0
C134 C 0.6348 0.19967 0.85969 0.0
C135 C 0.62817 0.17698 0.83496 0.0
C136 C 0.65062 0.19782 0.81096 0.0
C137 C 0.68022 0.23877 0.81275 0.0
C138 C 0.66526 0.24019 0.86073 0.0
H139 H 0.69675 0.25314 0.79378 0.0
H140 H 0.67022 0.25518 0.88059 0.0
H141 H 0.78671 0.40096 0.84352 0.0
H142 H 0.82364 0.3156 0.85685 0.0
C143 C 0.77042 0.24017 0.83964 0.0
C144 C 0.72938 0.29237 0.9183 0.0
C145 C 0.76945 0.33533 0.77253 0.0
C146 C 0.69948 0.36084 0.84617 0.0
H147 H 0.74517 0.22995 0.93479 0.0
H148 H 0.766 0.19958 0.89186 0.0
H149 H 0.79913 0.2335 0.7847 0.0
H150 H 0.80056 0.28765 0.74879 0.0
H151 H 0.73421 0.38214 0.75419 0.0
H152 H 0.69293 0.39307 0.79395 0.0
H153 H 0.68518 0.38092 0.90111 0.0
H154 H 0.70684 0.34705 0.94081 0.0
H155 H 0.85663 0.45517 0.84492 0.0
H156 H 0.89174 0.36698 0.86067 0.0
H157 H 0.61804 0.18571 0.8788 0.0
H158 H 0.64583 0.18242 0.79092 0.0
C159 C 0.49422 0.73389 0.23337 0.0
C160 C 0.5291 0.73863 0.24525 0.0
C161 C 0.55669 0.75074 0.22382 0.0
C162 C 0.53721 0.75256 0.2 0.0
N163 N 0.4993 0.74347 0.20515 0.0
Co164 Co 0.45944 0.73545 0.17501 0.0
N165 N 0.50056 0.75973 0.1445 0.0
C166 C 0.53886 0.76904 0.14678 0.0
C167 C 0.56073 0.7873 0.12282 0.0
C168 C 0.53447 0.78963 0.1043 0.0
C169 C 0.49787 0.77245 0.11793 0.0
N170 N 0.4187 0.72442 0.1451 0.0
C171 C 0.42292 0.73686 0.11782 0.0
C172 C 0.38642 0.71888 0.10376 0.0
C173 C 0.35821 0.69543 0.12315 0.0
C174 C 0.37898 0.69993 0.14769 0.0
N175 N 0.41763 0.71317 0.20532 0.0
C176 C 0.37789 0.69559 0.20137 0.0
C177 C 0.35638 0.68615 0.22603 0.0
C178 C 0.38409 0.69753 0.24709 0.0
C179 C 0.42099 0.71253 0.23395 0.0
N180 N 0.46772 0.79057 0.18159 0.0
C181 C 0.48744 0.87291 0.1832 0.0
C182 C 0.44829 0.84162 0.17713 0.0
C183 C 0.43907 0.80094 0.17656 0.0
C184 C 0.51541 0.86105 0.1897 0.0
C185 C 0.50531 0.82074 0.1885 0.0
N186 N 0.45451 0.68176 0.16806 0.0
C187 C 0.45663 0.62465 0.18819 0.0
C188 C 0.47325 0.61917 0.16335 0.0
C189 C 0.47667 0.64352 0.14006 0.0
C190 C 0.46619 0.67363 0.14261 0.0
C191 C 0.44759 0.65575 0.19008 0.0
H192 H 0.46961 0.69158 0.12415 0.0
H193 H 0.43703 0.65972 0.21005 0.0
H194 H 0.40902 0.77816 0.17127 0.0
H195 H 0.5291 0.81474 0.19232 0.0
C196 C 0.55362 0.76388 0.17268 0.0
C197 C 0.45604 0.71664 0.24895 0.0
C198 C 0.46053 0.76623 0.10464 0.0
C199 C 0.36171 0.68818 0.1743 0.0
H200 H 0.53371 0.73274 0.26696 0.0
H201 H 0.58714 0.75683 0.22535 0.0
H202 H 0.59225 0.79856 0.11946 0.0
H203 H 0.54137 0.80224 0.08316 0.0
H204 H 0.38054 0.72294 0.08193 0.0
H205 H 0.32619 0.67882 0.1201 0.0
H206 H 0.3243 0.67178 0.22839 0.0
H207 H 0.3776 0.69262 0.26954 0.0
H208 H 0.42504 0.8484 0.17201 0.0
H209 H 0.54568 0.88289 0.19555 0.0
H210 H 0.45259 0.6064 0.20673 0.0
H211 H 0.48798 0.63977 0.12 0.0
C212 C 0.78276 0.48851 0.56835 0.0
C213 C 0.81187 0.52361 0.58079 0.0
C214 C 0.82969 0.55097 0.55932 0.0
C215 C 0.81058 0.53121 0.53496 0.0
N216 N 0.7811 0.49333 0.53975 0.0
Co217 Co 0.75067 0.45356 0.50933 0.0
N218 N 0.76892 0.495 0.47888 0.0
C219 C 0.79896 0.53297 0.48122 0.0
C220 C 0.80477 0.55482 0.45683 0.0
C221 C 0.77663 0.52886 0.43793 0.0
C222 C 0.75513 0.49252 0.45185 0.0
N223 N 0.72155 0.413 0.47913 0.0
C224 C 0.71221 0.41736 0.45218 0.0
C225 C 0.69135 0.38053 0.43855 0.0
C226 C 0.68766 0.35224 0.45751 0.0
C227 C 0.70619 0.37314 0.48154 0.0
N228 N 0.73063 0.41123 0.53947 0.0
C229 C 0.71163 0.37138 0.53497 0.0
C230 C 0.7012 0.34891 0.55919 0.0
C231 C 0.71514 0.37604 0.58064 0.0
C232 C 0.73363 0.41391 0.5682 0.0
N233 N 0.70382 0.46178 0.51499 0.0
C234 C 0.64081 0.48054 0.51615 0.0
C235 C 0.63317 0.44113 0.51132 0.0
C236 C 0.66483 0.43235 0.51109 0.0
C237 C 0.68079 0.50969 0.52081 0.0
C238 C 0.71122 0.49994 0.52001 0.0
N239 N 0.79951 0.4488 0.50332 0.0
C240 C 0.8596 0.45378 0.52395 0.0
C241 C 0.88073 0.46786 0.49839 0.0
C242 C 0.85894 0.46868 0.47476 0.0
C243 C 0.81842 0.45808 0.47749 0.0
C244 C 0.81949 0.44462 0.52598 0.0
H245 H 0.8032 0.45965 0.4588 0.0
H246 H 0.80574 0.43641 0.54651 0.0
H247 H 0.65774 0.40193 0.50716 0.0
H248 H 0.74115 0.5243 0.52248 0.0
C249 C 0.81775 0.5476 0.50749 0.0
C250 C 0.75978 0.45053 0.58415 0.0
C251 C 0.72375 0.45557 0.43829 0.0
C252 C 0.70272 0.35576 0.50783 0.0
H253 H 0.82005 0.52852 0.60298 0.0
H254 H 0.85387 0.58155 0.56127 0.0
H255 H 0.82629 0.58612 0.45336 0.0
H256 H 0.77259 0.53569 0.41633 0.0
H257 H 0.67957 0.37445 0.4172 0.0
H258 H 0.67154 0.3201 0.4546 0.0
H259 H 0.68586 0.31661 0.56103 0.0
H260 H 0.71367 0.36834 0.60281 0.0
H261 H 0.60293 0.41709 0.50777 0.0
H262 H 0.68911 0.54067 0.52408 0.0
H263 H 0.87459 0.45194 0.54281 0.0
H264 H 0.87331 0.47812 0.45427 0.0
C265 C 0.32025 0.77578 0.89996 0.0
C266 C 0.30596 0.79909 0.91158 0.0
C267 C 0.28282 0.80294 0.89108 0.0
C268 C 0.28439 0.78195 0.86805 0.0
N269 N 0.30678 0.76488 0.87276 0.0
Co270 Co 0.32084 0.73598 0.84392 0.0
N271 N 0.29503 0.74882 0.81192 0.0
C272 C 0.27237 0.76603 0.81469 0.0
C273 C 0.25583 0.76854 0.78951 0.0
C274 C 0.26858 0.75154 0.76958 0.0
C275 C 0.29228 0.73957 0.78371 0.0
N276 N 0.33758 0.70867 0.81552 0.0
C277 C 0.33576 0.7077 0.78673 0.0
C278 C 0.35156 0.68513 0.77568 0.0
C279 C 0.36263 0.67065 0.7981 0.0
C280 C 0.35328 0.68517 0.82149 0.0
N281 N 0.34331 0.71932 0.87598 0.0
C282 C 0.35358 0.69077 0.87502 0.0
C283 C 0.36357 0.68193 0.90084 0.0
C284 C 0.3596 0.70661 0.91953 0.0
C285 C 0.3477 0.72932 0.90381 0.0
N286 N 0.26781 0.68582 0.84955 0.0
C287 C 0.18514 0.62498 0.85309 0.0
C288 C 0.20754 0.63198 0.8281 0.0
C289 C 0.24815 0.6616 0.82691 0.0
C290 C 0.20639 0.64818 0.87682 0.0
C291 C 0.24728 0.67796 0.87467 0.0
N292 N 0.37279 0.78839 0.83792 0.0
C293 C 0.43317 0.84498 0.85777 0.0
C294 C 0.43395 0.87132 0.83677 0.0
C295 C 0.40574 0.8541 0.81503 0.0
C296 C 0.37656 0.8132 0.81563 0.0
C297 C 0.40283 0.80405 0.85787 0.0
H298 H 0.35688 0.80289 0.79782 0.0
H299 H 0.40387 0.78584 0.87463 0.0
H300 H 0.26277 0.6657 0.80691 0.0
H301 H 0.26179 0.69537 0.8933 0.0
C302 C 0.2688 0.78075 0.84101 0.0
C303 C 0.3449 0.76275 0.91558 0.0
C304 C 0.3129 0.72092 0.76945 0.0
C305 C 0.35823 0.67657 0.84924 0.0
H306 H 0.31162 0.81187 0.93263 0.0
H307 H 0.26762 0.82 0.89254 0.0
H308 H 0.23701 0.78149 0.78599 0.0
H309 H 0.2616 0.74859 0.74718 0.0
H310 H 0.35284 0.67763 0.75378 0.0
H311 H 0.37494 0.6509 0.79744 0.0
H312 H 0.37398 0.66117 0.90535 0.0
H313 H 0.36596 0.7086 0.94201 0.0
H314 H 0.19367 0.61584 0.80882 0.0
H315 H 0.19161 0.64376 0.89706 0.0
H316 H 0.45496 0.85613 0.87472 0.0
H317 H 0.4059 0.8723 0.79745 0.0
H318 H 0.61366 0.13507 0.15292 0.0
H319 H 0.52483 0.11709 0.2155 0.0
H320 H 0.58783 0.06369 0.15107 0.0
H321 H 0.50083 0.04551 0.21522 0.0
H322 H 0.44333 0.91091 0.1949 0.0
H323 H 0.46564 0.98247 0.19456 0.0
H324 H 0.58392 1.00836 0.17076 0.0
H325 H 0.56113 0.93772 0.16907 0.0
C326 C 0.58861 0.11622 0.16644 0.0
C327 C 0.57173 0.1332 0.18432 0.0
C328 C 0.57397 0.07456 0.16574 0.0
C329 C 0.54197 0.04752 0.18314 0.0
C330 C 0.5251 0.06443 0.20112 0.0
C331 C 0.53954 0.10619 0.20163 0.0
C332 C 0.47398 0.93174 0.18919 0.0
C333 C 0.50016 0.91741 0.18238 0.0
C334 C 0.48713 0.97333 0.18937 0.0
C335 C 0.52705 1.00247 0.18274 0.0
C336 C 0.5529 0.98788 0.17566 0.0
C337 C 0.53975 0.94659 0.17524 0.0
H338 H 0.42208 0.4987 0.49507 0.0
H339 H 0.50988 0.61543 0.52562 0.0
H340 H 0.47084 0.47699 0.49695 0.0
H341 H 0.55989 0.59432 0.52589 0.0
H342 H 0.63401 0.53562 0.54985 0.0
H343 H 0.58527 0.55779 0.54781 0.0
H344 H 0.52524 0.47565 0.47897 0.0
H345 H 0.5738 0.45294 0.48154 0.0
C346 C 0.45184 0.52005 0.50228 0.0
C347 C 0.46111 0.55896 0.51072 0.0
C348 C 0.48044 0.50755 0.50291 0.0
C349 C 0.52011 0.5334 0.51172 0.0
C350 C 0.52981 0.57277 0.51946 0.0
C351 C 0.50098 0.58528 0.51893 0.0
C352 C 0.61053 0.5222 0.53414 0.0
C353 C 0.60849 0.49225 0.51582 0.0
C354 C 0.58232 0.53524 0.53285 0.0
C355 C 0.55065 0.51915 0.51307 0.0
C356 C 0.54837 0.48882 0.49492 0.0
C357 C 0.57652 0.47556 0.49636 0.0
H358 H 0.94643 0.40929 0.83586 0.0
H359 H 0.91887 0.49749 0.86768 0.0
H360 H 1.01664 0.45736 0.83812 0.0
H361 H 0.99003 0.54726 0.86776 0.0
H362 H 0.12493 0.62318 0.88703 0.0
H363 H 0.05362 0.57483 0.88724 0.0
H364 H 0.07087 0.51008 0.81937 0.0
H365 H 0.14179 0.55601 0.82078 0.0
C366 C 0.95501 0.43895 0.84347 0.0
C367 C 0.92573 0.44845 0.85207 0.0
C368 C 0.99609 0.46732 0.84421 0.0
C369 C 1.01037 0.50718 0.853 0.0
C370 C 0.98114 0.51709 0.86119 0.0
C371 C 0.93977 0.48837 0.86075 0.0
C372 C 0.11383 0.59826 0.87245 0.0
C373 C 0.14039 0.5944 0.85387 0.0
C374 C 0.07226 0.57052 0.87224 0.0
C375 C 0.05518 0.53767 0.85334 0.0
C376 C 0.08183 0.53399 0.83478 0.0
C377 C 0.12325 0.56132 0.83522 0.0
H378 H 0.14287 0.61287 0.51481 0.0
H379 H 0.12421 0.50363 0.47633 0.0
H380 H 0.07049 0.58705 0.51419 0.0
H381 H 0.05177 0.47726 0.47663 0.0
H382 H 0.92273 0.43165 0.51746 0.0
H383 H 0.99507 0.45734 0.51594 0.0
H384 H 1.01265 0.56526 0.47555 0.0
H385 H 0.94025 0.53899 0.47618 0.0
C386 C 0.1234 0.58332 0.50623 0.0
C387 C 0.13981 0.56058 0.49547 0.0
C388 C 0.08176 0.5685 0.5058 0.0
C389 C 0.05488 0.52989 0.4954 0.0
C390 C 0.07127 0.507 0.48491 0.0
C391 C 0.11297 0.52228 0.48458 0.0
C392 C 0.94194 0.46074 0.50807 0.0
C393 C 0.92522 0.48299 0.49679 0.0
C394 C 0.98355 0.47549 0.50712 0.0
C395 C 1.01012 0.51356 0.49567 0.0
C396 C 0.99341 0.53595 0.48464 0.0
C397 C 0.95172 0.52072 0.48484 0.0
H398 H 0.4185 0.93256 0.82667 0.0
H399 H 0.51553 0.91266 0.84801 0.0
H400 H 0.46449 1.00486 0.82628 0.0
H401 H 0.56191 0.98536 0.8472 0.0
H402 H 0.63795 0.11691 0.81126 0.0
H403 H 0.59251 0.04424 0.8125 0.0
H404 H 0.50692 0.06181 0.85931 0.0
H405 H 0.55252 0.13435 0.85841 0.0
C406 C 0.44972 0.94351 0.8312 0.0
C407 C 0.46296 0.91619 0.8373 0.0
C408 C 0.47621 0.98526 0.83115 0.0
C409 C 0.51729 1.00155 0.83664 0.0
C410 C 0.53068 0.97428 0.84265 0.0
C411 C 0.50393 0.93241 0.84332 0.0
C412 C 0.60934 0.1054 0.82168 0.0
C413 C 0.5992 0.13209 0.83463 0.0
C414 C 0.58332 0.06347 0.82264 0.0
C415 C 0.54571 0.04657 0.83604 0.0
C416 C 0.53535 0.07331 0.84863 0.0
C417 C 0.56172 0.11515 0.84822 0.0
H418 H 0.54489 0.63052 0.14276 0.0
H419 H 0.43596 0.5405 0.18187 0.0
H420 H 0.57067 0.58391 0.14306 0.0
H421 H 0.46134 0.49353 0.1815 0.0
H422 H 0.50716 0.40913 0.14617 0.0
H423 H 0.48124 0.45562 0.14522 0.0
H424 H 0.59193 0.54827 0.18048 0.0
H425 H 0.61747 0.50145 0.18211 0.0
C426 C 0.52617 0.60064 0.15114 0.0
C427 C 0.48813 0.58952 0.16221 0.0
C428 C 0.54114 0.57391 0.15151 0.0
C429 C 0.51824 0.53467 0.1623 0.0
C430 C 0.47989 0.52328 0.17287 0.0
C431 C 0.46533 0.55036 0.17317 0.0
C432 C 0.52611 0.43945 0.15364 0.0
C433 C 0.56459 0.45127 0.16418 0.0
C434 C 0.51108 0.46613 0.15327 0.0
C435 C 0.53434 0.50598 0.16275 0.0
C436 C 0.57309 0.51802 0.17284 0.0
C437 C 0.58773 0.49102 0.1739 0.0
H438 H 0.75971 0.30196 0.97231 0.0
H439 H 0.64859 0.25009 0.92643 0.0
H440 H 0.72319 0.29194 0.01695 0.0
H441 H 0.61227 0.24068 0.97063 0.0
H442 H 0.58208 0.29865 0.04952 0.0
H443 H 0.60906 0.28979 1.00474 0.0
H444 H 0.67161 0.24108 0.05067 0.0
H445 H 0.64418 0.24928 0.09502 0.0
C446 C 0.72743 0.28711 0.97185 0.0
C447 C 0.70715 0.27634 0.94579 0.0
C448 C 0.70642 0.28163 0.99739 0.0
C449 C 0.66468 0.26586 0.99743 0.0
C450 C 0.64433 0.25327 0.97146 0.0
C451 C 0.6652 0.25817 0.94608 0.0
C452 C 0.60007 0.28435 0.04986 0.0
C453 C 0.61031 0.27405 0.07587 0.0
C454 C 0.61597 0.27966 0.02424 0.0
C455 C 0.64304 0.26518 0.02406 0.0
C456 C 0.65132 0.25275 0.04995 0.0
C457 C 0.63501 0.25688 0.07541 0.0
H458 H 0.48168 0.74373 0.30337 0.0
H459 H 0.41115 0.63541 0.25576 0.0
H460 H 0.45719 0.70548 0.34776 0.0
H461 H 0.38617 0.59749 0.29976 0.0
H462 H 0.30726 0.56989 0.38383 0.0
H463 H 0.33955 0.59684 0.338 0.0
H464 H 0.45502 0.64937 0.37822 0.0
H465 H 0.42259 0.62147 0.42381 0.0
C466 C 0.46191 0.71163 0.30236 0.0
C467 C 0.4487 0.69273 0.27594 0.0
C468 C 0.44764 0.68964 0.32779 0.0
C469 C 0.4193 0.64829 0.32744 0.0
C470 C 0.40757 0.62922 0.30096 0.0
C471 C 0.4223 0.65099 0.27566 0.0
C472 C 0.33952 0.58525 0.38259 0.0
C473 C 0.36229 0.59266 0.40743 0.0
C474 C 0.35816 0.60133 0.35636 0.0
C475 C 0.40001 0.6259 0.35438 0.0
C476 C 0.4228 0.63105 0.37892 0.0
C477 C 0.40422 0.61437 0.40497 0.0
H478 H 0.72304 0.30071 0.72607 0.0
H479 H 0.83434 0.40274 0.7516 0.0
H480 H 0.72551 0.33438 0.68131 0.0
H481 H 0.83764 0.43604 0.70627 0.0
H482 H 0.82756 0.45129 0.6024 0.0
H483 H 0.83611 0.42311 0.64701 0.0
H484 H 0.72245 0.40418 0.67624 0.0
H485 H 0.71467 0.43357 0.6322 0.0
C486 C 0.74906 0.32947 0.72147 0.0
C487 C 0.77894 0.34863 0.74215 0.0
C488 C 0.75013 0.34912 0.69607 0.0
C489 C 0.78152 0.38815 0.69036 0.0
C490 C 0.81308 0.40604 0.71 0.0
C491 C 0.81151 0.38671 0.73577 0.0
C492 C 0.80527 0.4427 0.61889 0.0
C493 C 0.77065 0.44517 0.6139 0.0
C494 C 0.80991 0.42606 0.64428 0.0
C495 C 0.7796 0.41068 0.66496 0.0
C496 C 0.74611 0.41529 0.66061 0.0
C497 C 0.74193 0.43273 0.63559 0.0
H498 H 0.31437 0.76061 0.96889 0.0
H499 H 0.42518 0.80124 0.92428 0.0
H500 H 0.34963 0.7715 0.01426 0.0
H501 H 0.46017 0.81105 0.96933 0.0
H502 H 0.48058 0.75079 0.05198 0.0
H503 H 0.45652 0.76016 1.00605 0.0
H504 H 0.40456 0.82289 0.04734 0.0
H505 H 0.42976 0.81456 0.09305 0.0
C506 C 0.34648 0.77345 0.96877 0.0
C507 C 0.36697 0.78075 0.94286 0.0
C508 C 0.36672 0.77927 0.99478 0.0
C509 C 0.40783 0.79176 0.99555 0.0
C510 C 0.42857 0.80107 0.96966 0.0
C511 C 0.40853 0.79597 0.94379 0.0
C512 C 0.46582 0.76834 0.05105 0.0
C513 C 0.45791 0.78267 0.07619 0.0
C514 C 0.45148 0.77329 0.02473 0.0
C515 C 0.4281 0.79193 0.02291 0.0
C516 C 0.42208 0.80811 0.04787 0.0
C517 C 0.43711 0.8039 0.07403 0.0
H518 H 0.65463 0.44956 0.41825 0.0
H519 H 0.76121 0.45045 0.39099 0.0
H520 H 0.6224 0.4197 0.37275 0.0
H521 H 0.7287 0.41941 0.34601 0.0
H522 H 0.63392 0.3054 0.29784 0.0
H523 H 0.66226 0.34346 0.34162 0.0
H524 H 0.63412 0.43271 0.31315 0.0
H525 H 0.60693 0.39511 0.26875 0.0
C526 C 0.67182 0.44519 0.40199 0.0
C527 C 0.71086 0.45334 0.40797 0.0
C528 C 0.65314 0.42748 0.37611 0.0
C529 C 0.67275 0.41656 0.35595 0.0
C530 C 0.71268 0.42716 0.36118 0.0
C531 C 0.73163 0.44569 0.38672 0.0
C532 C 0.63255 0.33243 0.30135 0.0
C533 C 0.61778 0.347 0.27997 0.0
C534 C 0.64939 0.35459 0.3262 0.0
C535 C 0.65108 0.39148 0.33067 0.0
C536 C 0.63344 0.40454 0.31029 0.0
C537 C 0.61738 0.38275 0.28506 0.0
H538 H 0.36331 0.75055 0.72422 0.0
H539 H 0.24561 0.65687 0.74755 0.0
H540 H 0.35876 0.71565 0.67982 0.0
H541 H 0.24052 0.62206 0.70274 0.0
H542 H 0.24546 0.59846 0.60234 0.0
H543 H 0.24101 0.62845 0.64717 0.0
H544 H 0.35755 0.64918 0.67084 0.0
H545 H 0.36144 0.61854 0.62639 0.0
C546 C 0.3358 0.72329 0.71928 0.0
C547 C 0.30462 0.7068 0.73921 0.0
C548 C 0.33344 0.70284 0.69409 0.0
C549 C 0.29957 0.66557 0.68789 0.0
C550 C 0.26708 0.65058 0.70683 0.0
C551 C 0.26974 0.67077 0.73233 0.0
C552 C 0.2693 0.60786 0.61772 0.0
C553 C 0.30354 0.60554 0.61102 0.0
C554 C 0.26702 0.62554 0.64324 0.0
C555 C 0.29928 0.64204 0.66241 0.0
C556 C 0.33243 0.63744 0.6564 0.0
C557 C 0.3344 0.61919 0.63117 0.0
loop_
_geom_bond_atom_site_label_1
_geom_bond_atom_site_label_2
_geom_bond_distance
_geom_bond_site_symmetry_2
_ccdc_geom_bond_type
C0 C1 1.443 . S
C0 N4 1.376 . S
C0 C38 1.389 . S
C1 C0 1.443 . S
C1 C2 1.340 . S
C1 H41 0.951 . S
C2 C1 1.340 . S
C2 C3 1.439 . S
C2 H42 0.950 . S
C3 C2 1.439 . S
C3 N4 1.374 . S
C3 C37 1.395 . S
N4 C0 1.376 . S
N4 C3 1.374 . S
N4 Co5 2.008 . S
Co5 N4 2.008 . S
Co5 N6 1.995 . S
Co5 N11 2.008 . S
Co5 N16 1.995 . S
Co5 N21 2.282 . S
Co5 N27 2.282 . S
N6 Co5 1.995 . S
N6 C7 1.376 . S
N6 C10 1.383 . S
C7 N6 1.376 . S
C7 C8 1.446 . S
C7 C37 1.391 . S
C8 C7 1.446 . S
C8 C9 1.339 . S
C8 H43 0.949 . S
C9 C8 1.339 . S
C9 C10 1.439 . S
C9 H44 0.950 . S
C10 N6 1.383 . S
C10 C9 1.439 . S
C10 C39 1.392 . S
N11 Co5 2.008 . S
N11 C12 1.376 . S
N11 C15 1.374 . S
C12 N11 1.376 . S
C12 C13 1.443 . S
C12 C39 1.389 . S
C13 C12 1.443 . S
C13 C14 1.340 . S
C13 H45 0.951 . S
C14 C13 1.340 . S
C14 C15 1.439 . S
C14 H46 0.950 . S
C15 N11 1.374 . S
C15 C14 1.439 . S
C15 C40 1.395 . S
N16 Co5 1.995 . S
N16 C17 1.376 . S
N16 C20 1.383 . S
C17 N16 1.376 . S
C17 C18 1.446 . S
C17 C40 1.391 . S
C18 C17 1.446 . S
C18 C19 1.339 . S
C18 H47 0.949 . S
C19 C18 1.339 . S
C19 C20 1.439 . S
C19 H48 0.950 . S
C20 N16 1.383 . S
C20 C19 1.439 . S
C20 C38 1.392 . S
N21 Co5 2.282 . S
N21 C24 1.332 . S
N21 C26 1.332 . S
C22 C23 1.386 . S
C22 C25 1.388 . S
C23 C22 1.386 . S
C23 C24 1.382 . S
C23 H49 0.950 . S
C24 N21 1.332 . S
C24 C23 1.382 . S
C24 H35 0.952 . S
C25 C22 1.388 . S
C25 C26 1.382 . S
C25 H50 0.950 . S
C26 N21 1.332 . S
C26 C25 1.382 . S
C26 H36 0.948 . S
N27 Co5 2.282 . S
N27 C31 1.332 . S
N27 C32 1.332 . S
C28 C29 1.388 . S
C28 C32 1.382 . S
C28 H51 0.950 . S
C29 C28 1.388 . S
C29 C30 1.386 . S
C30 C29 1.386 . S
C30 C31 1.382 . S
C30 H52 0.950 . S
C31 N27 1.332 . S
C31 C30 1.382 . S
C31 H33 0.952 . S
C32 N27 1.332 . S
C32 C28 1.382 . S
C32 H34 0.948 . S
H33 C31 0.952 . S
H34 C32 0.948 . S
H35 C24 0.952 . S
H36 C26 0.948 . S
C37 C3 1.395 . S
C37 C7 1.391 . S
C38 C0 1.389 . S
C38 C20 1.392 . S
C39 C10 1.392 . S
C39 C12 1.389 . S
C40 C15 1.395 . S
C40 C17 1.391 . S
H41 C1 0.951 . S
H42 C2 0.950 . S
H43 C8 0.949 . S
H44 C9 0.950 . S
H45 C13 0.951 . S
H46 C14 0.950 . S
H47 C18 0.949 . S
H48 C19 0.950 . S
H49 C23 0.950 . S
H50 C25 0.950 . S
H51 C28 0.950 . S
H52 C30 0.950 . S
C53 C54 1.443 . S
C53 N57 1.376 . S
C53 C91 1.389 . S
C54 C53 1.443 . S
C54 C55 1.340 . S
C54 H94 0.951 . S
C55 C54 1.340 . S
C55 C56 1.439 . S
C55 H95 0.950 . S
C56 C55 1.439 . S
C56 N57 1.374 . S
C56 C90 1.395 . S
N57 C53 1.376 . S
N57 C56 1.374 . S
N57 Co58 2.008 . S
Co58 N57 2.008 . S
Co58 N59 1.995 . S
Co58 N64 2.008 . S
Co58 N69 1.995 . S
Co58 N74 2.282 . S
Co58 N80 2.282 . S
N59 Co58 1.995 . S
N59 C60 1.376 . S
N59 C63 1.383 . S
C60 N59 1.376 . S
C60 C61 1.446 . S
C60 C90 1.391 . S
C61 C60 1.446 . S
C61 C62 1.339 . S
C61 H96 0.949 . S
C62 C61 1.339 . S
C62 C63 1.439 . S
C62 H97 0.950 . S
C63 N59 1.383 . S
C63 C62 1.439 . S
C63 C92 1.392 . S
N64 Co58 2.008 . S
N64 C65 1.376 . S
N64 C68 1.374 . S
C65 N64 1.376 . S
C65 C66 1.443 . S
C65 C92 1.389 . S
C66 C65 1.443 . S
C66 C67 1.340 . S
C66 H98 0.951 . S
C67 C66 1.340 . S
C67 C68 1.439 . S
C67 H99 0.950 . S
C68 N64 1.374 . S
C68 C67 1.439 . S
C68 C93 1.395 . S
N69 Co58 1.995 . S
N69 C70 1.376 . S
N69 C73 1.383 . S
C70 N69 1.376 . S
C70 C71 1.446 . S
C70 C93 1.391 . S
C71 C70 1.446 . S
C71 C72 1.339 . S
C71 H100 0.949 . S
C72 C71 1.339 . S
C72 C73 1.439 . S
C72 H101 0.950 . S
C73 N69 1.383 . S
C73 C72 1.439 . S
C73 C91 1.392 . S
N74 Co58 2.282 . S
N74 C77 1.332 . S
N74 C79 1.332 . S
C75 C76 1.386 . S
C75 C78 1.388 . S
C76 C75 1.386 . S
C76 C77 1.382 . S
C76 H102 0.950 . S
C77 N74 1.332 . S
C77 C76 1.382 . S
C77 H88 0.952 . S
C78 C75 1.388 . S
C78 C79 1.382 . S
C78 H103 0.950 . S
C79 N74 1.332 . S
C79 C78 1.382 . S
C79 H89 0.948 . S
N80 Co58 2.282 . S
N80 C84 1.332 . S
N80 C85 1.332 . S
C81 C82 1.388 . S
C81 C85 1.382 . S
C81 H104 0.950 . S
C82 C81 1.388 . S
C82 C83 1.386 . S
C83 C82 1.386 . S
C83 C84 1.382 . S
C83 H105 0.950 . S
C84 N80 1.332 . S
C84 C83 1.382 . S
C84 H86 0.952 . S
C85 N80 1.332 . S
C85 C81 1.382 . S
C85 H87 0.948 . S
H86 C84 0.952 . S
H87 C85 0.948 . S
H88 C77 0.952 . S
H89 C79 0.948 . S
C90 C56 1.395 . S
C90 C60 1.391 . S
C91 C53 1.389 . S
C91 C73 1.392 . S
C92 C63 1.392 . S
C92 C65 1.389 . S
C93 C68 1.395 . S
C93 C70 1.391 . S
H94 C54 0.951 . S
H95 C55 0.950 . S
H96 C61 0.949 . S
H97 C62 0.950 . S
H98 C66 0.951 . S
H99 C67 0.950 . S
H100 C71 0.949 . S
H101 C72 0.950 . S
H102 C76 0.950 . S
H103 C78 0.950 . S
H104 C81 0.950 . S
H105 C83 0.950 . S
C106 C107 1.443 . S
C106 N110 1.376 . S
C106 C144 1.389 . S
C107 C106 1.443 . S
C107 C108 1.340 . S
C107 H147 0.951 . S
C108 C107 1.340 . S
C108 C109 1.439 . S
C108 H148 0.950 . S
C109 C108 1.439 . S
C109 N110 1.374 . S
C109 C143 1.395 . S
N110 C106 1.376 . S
N110 C109 1.374 . S
N110 Co111 2.008 . S
Co111 N110 2.008 . S
Co111 N112 1.995 . S
Co111 N117 2.008 . S
Co111 N122 1.995 . S
Co111 N127 2.282 . S
Co111 N133 2.282 . S
N112 Co111 1.995 . S
N112 C113 1.376 . S
N112 C116 1.383 . S
C113 N112 1.376 . S
C113 C114 1.446 . S
C113 C143 1.391 . S
C114 C113 1.446 . S
C114 C115 1.339 . S
C114 H149 0.949 . S
C115 C114 1.339 . S
C115 C116 1.439 . S
C115 H150 0.950 . S
C116 N112 1.383 . S
C116 C115 1.439 . S
C116 C145 1.392 . S
N117 Co111 2.008 . S
N117 C118 1.376 . S
N117 C121 1.374 . S
C118 N117 1.376 . S
C118 C119 1.443 . S
C118 C145 1.389 . S
C119 C118 1.443 . S
C119 C120 1.340 . S
C119 H151 0.951 . S
C120 C119 1.340 . S
C120 C121 1.439 . S
C120 H152 0.950 . S
C121 N117 1.374 . S
C121 C120 1.439 . S
C121 C146 1.395 . S
N122 Co111 1.995 . S
N122 C123 1.376 . S
N122 C126 1.383 . S
C123 N122 1.376 . S
C123 C124 1.446 . S
C123 C146 1.391 . S
C124 C123 1.446 . S
C124 C125 1.339 . S
C124 H153 0.949 . S
C125 C124 1.339 . S
C125 C126 1.439 . S
C125 H154 0.950 . S
C126 N122 1.383 . S
C126 C125 1.439 . S
C126 C144 1.392 . S
N127 Co111 2.282 . S
N127 C130 1.332 . S
N127 C132 1.332 . S
C128 C129 1.386 . S
C128 C131 1.388 . S
C129 C128 1.386 . S
C129 C130 1.382 . S
C129 H155 0.950 . S
C130 N127 1.332 . S
C130 C129 1.382 . S
C130 H141 0.952 . S
C131 C128 1.388 . S
C131 C132 1.382 . S
C131 H156 0.950 . S
C132 N127 1.332 . S
C132 C131 1.382 . S
C132 H142 0.948 . S
N133 Co111 2.282 . S
N133 C137 1.332 . S
N133 C138 1.332 . S
C134 C135 1.388 . S
C134 C138 1.382 . S
C134 H157 0.950 . S
C135 C134 1.388 . S
C135 C136 1.386 . S
C136 C135 1.386 . S
C136 C137 1.382 . S
C136 H158 0.950 . S
C137 N133 1.332 . S
C137 C136 1.382 . S
C137 H139 0.952 . S
C138 N133 1.332 . S
C138 C134 1.382 . S
C138 H140 0.948 . S
H139 C137 0.952 . S
H140 C138 0.948 . S
H141 C130 0.952 . S
H142 C132 0.948 . S
C143 C109 1.395 . S
C143 C113 1.391 . S
C144 C106 1.389 . S
C144 C126 1.392 . S
C145 C116 1.392 . S
C145 C118 1.389 . S
C146 C121 1.395 . S
C146 C123 1.391 . S
H147 C107 0.951 . S
H148 C108 0.950 . S
H149 C114 0.949 . S
H150 C115 0.950 . S
H151 C119 0.951 . S
H152 C120 0.950 . S
H153 C124 0.949 . S
H154 C125 0.950 . S
H155 C129 0.950 . S
H156 C131 0.950 . S
H157 C134 0.950 . S
H158 C136 0.950 . S
C159 C160 1.443 . S
C159 N163 1.376 . S
C159 C197 1.389 . S
C160 C159 1.443 . S
C160 C161 1.340 . S
C160 H200 0.951 . S
C161 C160 1.340 . S
C161 C162 1.439 . S
C161 H201 0.950 . S
C162 C161 1.439 . S
C162 N163 1.374 . S
C162 C196 1.395 . S
N163 C159 1.376 . S
N163 C162 1.374 . S
N163 Co164 2.008 . S
Co164 N163 2.008 . S
Co164 N165 1.995 . S
Co164 N170 2.008 . S
Co164 N175 1.995 . S
Co164 N180 2.282 . S
Co164 N186 2.282 . S
N165 Co164 1.995 . S
N165 C166 1.376 . S
N165 C169 1.383 . S
C166 N165 1.376 . S
C166 C167 1.446 . S
C166 C196 1.391 . S
C167 C166 1.446 . S
C167 C168 1.339 . S
C167 H202 0.949 . S
C168 C167 1.339 . S
C168 C169 1.439 . S
C168 H203 0.950 . S
C169 N165 1.383 . S
C169 C168 1.439 . S
C169 C198 1.392 . S
N170 Co164 2.008 . S
N170 C171 1.376 . S
N170 C174 1.374 . S
C171 N170 1.376 . S
C171 C172 1.443 . S
C171 C198 1.389 . S
C172 C171 1.443 . S
C172 C173 1.340 . S
C172 H204 0.951 . S
C173 C172 1.340 . S
C173 C174 1.439 . S
C173 H205 0.950 . S
C174 N170 1.374 . S
C174 C173 1.439 . S
C174 C199 1.395 . S
N175 Co164 1.995 . S
N175 C176 1.376 . S
N175 C179 1.383 . S
C176 N175 1.376 . S
C176 C177 1.446 . S
C176 C199 1.391 . S
C177 C176 1.446 . S
C177 C178 1.339 . S
C177 H206 0.949 . S
C178 C177 1.339 . S
C178 C179 1.439 . S
C178 H207 0.950 . S
C179 N175 1.383 . S
C179 C178 1.439 . S
C179 C197 1.392 . S
N180 Co164 2.282 . S
N180 C183 1.332 . S
N180 C185 1.332 . S
C181 C182 1.386 . S
C181 C184 1.388 . S
C182 C181 1.386 . S
C182 C183 1.382 . S
C182 H208 0.950 . S
C183 N180 1.332 . S
C183 C182 1.382 . S
C183 H194 0.952 . S
C184 C181 1.388 . S
C184 C185 1.382 . S
C184 H209 0.950 . S
C185 N180 1.332 . S
C185 C184 1.382 . S
C185 H195 0.948 . S
N186 Co164 2.282 . S
N186 C190 1.332 . S
N186 C191 1.332 . S
C187 C188 1.388 . S
C187 C191 1.382 . S
C187 H210 0.950 . S
C188 C187 1.388 . S
C188 C189 1.386 . S
C189 C188 1.386 . S
C189 C190 1.382 . S
C189 H211 0.950 . S
C190 N186 1.332 . S
C190 C189 1.382 . S
C190 H192 0.952 . S
C191 N186 1.332 . S
C191 C187 1.382 . S
C191 H193 0.948 . S
H192 C190 0.952 . S
H193 C191 0.948 . S
H194 C183 0.952 . S
H195 C185 0.948 . S
C196 C162 1.395 . S
C196 C166 1.391 . S
C197 C159 1.389 . S
C197 C179 1.392 . S
C198 C169 1.392 . S
C198 C171 1.389 . S
C199 C174 1.395 . S
C199 C176 1.391 . S
H200 C160 0.951 . S
H201 C161 0.950 . S
H202 C167 0.949 . S
H203 C168 0.950 . S
H204 C172 0.951 . S
H205 C173 0.950 . S
H206 C177 0.949 . S
H207 C178 0.950 . S
H208 C182 0.950 . S
H209 C184 0.950 . S
H210 C187 0.950 . S
H211 C189 0.950 . S
C212 C213 1.443 . S
C212 N216 1.376 . S
C212 C250 1.389 . S
C213 C212 1.443 . S
C213 C214 1.340 . S
C213 H253 0.951 . S
C214 C213 1.340 . S
C214 C215 1.439 . S
C214 H254 0.950 . S
C215 C214 1.439 . S
C215 N216 1.374 . S
C215 C249 1.395 . S
N216 C212 1.376 . S
N216 C215 1.374 . S
N216 Co217 2.008 . S
Co217 N216 2.008 . S
Co217 N218 1.995 . S
Co217 N223 2.008 . S
Co217 N228 1.995 . S
Co217 N233 2.282 . S
Co217 N239 2.282 . S
N218 Co217 1.995 . S
N218 C219 1.376 . S
N218 C222 1.383 . S
C219 N218 1.376 . S
C219 C220 1.446 . S
C219 C249 1.391 . S
C220 C219 1.446 . S
C220 C221 1.339 . S
C220 H255 0.949 . S
C221 C220 1.339 . S
C221 C222 1.439 . S
C221 H256 0.950 . S
C222 N218 1.383 . S
C222 C221 1.439 . S
C222 C251 1.392 . S
N223 Co217 2.008 . S
N223 C224 1.376 . S
N223 C227 1.374 . S
C224 N223 1.376 . S
C224 C225 1.443 . S
C224 C251 1.389 . S
C225 C224 1.443 . S
C225 C226 1.340 . S
C225 H257 0.951 . S
C226 C225 1.340 . S
C226 C227 1.439 . S
C226 H258 0.950 . S
C227 N223 1.374 . S
C227 C226 1.439 . S
C227 C252 1.395 . S
N228 Co217 1.995 . S
N228 C229 1.376 . S
N228 C232 1.383 . S
C229 N228 1.376 . S
C229 C230 1.446 . S
C229 C252 1.391 . S
C230 C229 1.446 . S
C230 C231 1.339 . S
C230 H259 0.949 . S
C231 C230 1.339 . S
C231 C232 1.439 . S
C231 H260 0.950 . S
C232 N228 1.383 . S
C232 C231 1.439 . S
C232 C250 1.392 . S
N233 Co217 2.282 . S
N233 C236 1.332 . S
N233 C238 1.332 . S
C234 C235 1.386 . S
C234 C237 1.388 . S
C235 C234 1.386 . S
C235 C236 1.382 . S
C235 H261 0.950 . S
C236 N233 1.332 . S
C236 C235 1.382 . S
C236 H247 0.952 . S
C237 C234 1.388 . S
C237 C238 1.382 . S
C237 H262 0.950 . S
C238 N233 1.332 . S
C238 C237 1.382 . S
C238 H248 0.948 . S
N239 Co217 2.282 . S
N239 C243 1.332 . S
N239 C244 1.332 . S
C240 C241 1.388 . S
C240 C244 1.382 . S
C240 H263 0.950 . S
C241 C240 1.388 . S
C241 C242 1.386 . S
C242 C241 1.386 . S
C242 C243 1.382 . S
C242 H264 0.950 . S
C243 N239 1.332 . S
C243 C242 1.382 . S
C243 H245 0.952 . S
C244 N239 1.332 . S
C244 C240 1.382 . S
C244 H246 0.948 . S
H245 C243 0.952 . S
H246 C244 0.948 . S
H247 C236 0.952 . S
H248 C238 0.948 . S
C249 C215 1.395 . S
C249 C219 1.391 . S
C250 C212 1.389 . S
C250 C232 1.392 . S
C251 C222 1.392 . S
C251 C224 1.389 . S
C252 C227 1.395 . S
C252 C229 1.391 . S
H253 C213 0.951 . S
H254 C214 0.950 . S
H255 C220 0.949 . S
H256 C221 0.950 . S
H257 C225 0.951 . S
H258 C226 0.950 . S
H259 C230 0.949 . S
H260 C231 0.950 . S
H261 C235 0.950 . S
H262 C237 0.950 . S
H263 C240 0.950 . S
H264 C242 0.950 . S
C265 C266 1.443 . S
C265 N269 1.376 . S
C265 C303 1.389 . S
C266 C265 1.443 . S
C266 C267 1.340 . S
C266 H306 0.951 . S
C267 C266 1.340 . S
C267 C268 1.439 . S
C267 H307 0.950 . S
C268 C267 1.439 . S
C268 N269 1.374 . S
C268 C302 1.395 . S
N269 C265 1.376 . S
N269 C268 1.374 . S
N269 Co270 2.008 . S
Co270 N269 2.008 . S
Co270 N271 1.995 . S
Co270 N276 2.008 . S
Co270 N281 1.995 . S
Co270 N286 2.282 . S
Co270 N292 2.282 . S
N271 Co270 1.995 . S
N271 C272 1.376 . S
N271 C275 1.383 . S
C272 N271 1.376 . S
C272 C273 1.446 . S
C272 C302 1.391 . S
C273 C272 1.446 . S
C273 C274 1.339 . S
C273 H308 0.949 . S
C274 C273 1.339 . S
C274 C275 1.439 . S
C274 H309 0.950 . S
C275 N271 1.383 . S
C275 C274 1.439 . S
C275 C304 1.392 . S
N276 Co270 2.008 . S
N276 C277 1.376 . S
N276 C280 1.374 . S
C277 N276 1.376 . S
C277 C278 1.443 . S
C277 C304 1.389 . S
C278 C277 1.443 . S
C278 C279 1.340 . S
C278 H310 0.951 . S
C279 C278 1.340 . S
C279 C280 1.439 . S
C279 H311 0.950 . S
C280 N276 1.374 . S
C280 C279 1.439 . S
C280 C305 1.395 . S
N281 Co270 1.995 . S
N281 C282 1.376 . S
N281 C285 1.383 . S
C282 N281 1.376 . S
C282 C283 1.446 . S
C282 C305 1.391 . S
C283 C282 1.446 . S
C283 C284 1.339 . S
C283 H312 0.949 . S
C284 C283 1.339 . S
C284 C285 1.439 . S
C284 H313 0.950 . S
C285 N281 1.383 . S
C285 C284 1.439 . S
C285 C303 1.392 . S
N286 Co270 2.282 . S
N286 C289 1.332 . S
N286 C291 1.332 . S
C287 C288 1.386 . S
C287 C290 1.388 . S
C288 C287 1.386 . S
C288 C289 1.382 . S
C288 H314 0.950 . S
C289 N286 1.332 . S
C289 C288 1.382 . S
C289 H300 0.952 . S
C290 C287 1.388 . S
C290 C291 1.382 . S
C290 H315 0.950 . S
C291 N286 1.332 . S
C291 C290 1.382 . S
C291 H301 0.948 . S
N292 Co270 2.282 . S
N292 C296 1.332 . S
N292 C297 1.332 . S
C293 C294 1.388 . S
C293 C297 1.382 . S
C293 H316 0.950 . S
C294 C293 1.388 . S
C294 C295 1.386 . S
C295 C294 1.386 . S
C295 C296 1.382 . S
C295 H317 0.950 . S
C296 N292 1.332 . S
C296 C295 1.382 . S
C296 H298 0.952 . S
C297 N292 1.332 . S
C297 C293 1.382 . S
C297 H299 0.948 . S
H298 C296 0.952 . S
H299 C297 0.948 . S
H300 C289 0.952 . S
H301 C291 0.948 . S
C302 C268 1.395 . S
C302 C272 1.391 . S
C303 C265 1.389 . S
C303 C285 1.392 . S
C304 C275 1.392 . S
C304 C277 1.389 . S
C305 C280 1.395 . S
C305 C282 1.391 . S
H306 C266 0.951 . S
H307 C267 0.950 . S
H308 C273 0.949 . S
H309 C274 0.950 . S
H310 C278 0.951 . S
H311 C279 0.950 . S
H312 C283 0.949 . S
H313 C284 0.950 . S
H314 C288 0.950 . S
H315 C290 0.950 . S
H316 C293 0.950 . S
H317 C295 0.950 . S
H318 C326 0.950 . S
H319 C331 0.950 . S
H320 C328 0.950 . S
H321 C330 0.950 . S
H322 C332 0.950 . S
H323 C334 0.950 . S
H324 C336 0.950 . S
H325 C337 0.950 . S
C326 H318 0.950 . S
C326 C327 1.386 . S
C326 C328 1.391 . S
C327 C326 1.386 . S
C327 C331 1.393 . S
C328 H320 0.950 . S
C328 C326 1.391 . S
C328 C329 1.400 . S
C329 C328 1.400 . S
C329 C330 1.398 . S
C329 C335 1.491 1_545 S
C330 H321 0.950 . S
C330 C329 1.398 . S
C330 C331 1.391 . S
C331 H319 0.950 . S
C331 C327 1.393 . S
C331 C330 1.391 . S
C332 H322 0.950 . S
C332 C333 1.386 . S
C332 C334 1.391 . S
C333 C332 1.386 . S
C333 C337 1.393 . S
C334 H323 0.950 . S
C334 C332 1.391 . S
C334 C335 1.400 . S
C335 C329 1.491 1_565 S
C335 C334 1.400 . S
C335 C336 1.398 . S
C336 H324 0.950 . S
C336 C335 1.398 . S
C336 C337 1.391 . S
C337 H325 0.950 . S
C337 C333 1.393 . S
C337 C336 1.391 . S
H338 C346 0.950 . S
H339 C351 0.950 . S
H340 C348 0.950 . S
H341 C350 0.950 . S
H342 C352 0.950 . S
H343 C354 0.950 . S
H344 C356 0.950 . S
H345 C357 0.950 . S
C346 H338 0.950 . S
C346 C347 1.386 . S
C346 C348 1.391 . S
C347 C346 1.386 . S
C347 C351 1.393 . S
C348 H340 0.950 . S
C348 C346 1.391 . S
C348 C349 1.400 . S
C349 C348 1.400 . S
C349 C350 1.398 . S
C349 C355 1.491 . S
C350 H341 0.950 . S
C350 C349 1.398 . S
C350 C351 1.391 . S
C351 H339 0.950 . S
C351 C347 1.393 . S
C351 C350 1.391 . S
C352 H342 0.950 . S
C352 C353 1.386 . S
C352 C354 1.391 . S
C353 C352 1.386 . S
C353 C357 1.393 . S
C354 H343 0.950 . S
C354 C352 1.391 . S
C354 C355 1.400 . S
C355 C349 1.491 . S
C355 C354 1.400 . S
C355 C356 1.398 . S
C356 H344 0.950 . S
C356 C355 1.398 . S
C356 C357 1.391 . S
C357 H345 0.950 . S
C357 C353 1.393 . S
C357 C356 1.391 . S
H358 C366 0.950 . S
H359 C371 0.950 . S
H360 C368 0.950 . S
H361 C370 0.950 . S
H362 C372 0.950 . S
H363 C374 0.950 . S
H364 C376 0.950 . S
H365 C377 0.950 . S
C366 H358 0.950 . S
C366 C367 1.386 . S
C366 C368 1.391 . S
C367 C366 1.386 . S
C367 C371 1.393 . S
C368 H360 0.950 . S
C368 C366 1.391 . S
C368 C369 1.400 . S
C369 C368 1.400 . S
C369 C370 1.398 . S
C369 C375 1.491 1_655 S
C370 H361 0.950 . S
C370 C369 1.398 . S
C370 C371 1.391 . S
C371 H359 0.950 . S
C371 C367 1.393 . S
C371 C370 1.391 . S
C372 H362 0.950 . S
C372 C373 1.386 . S
C372 C374 1.391 . S
C373 C372 1.386 . S
C373 C377 1.393 . S
C374 H363 0.950 . S
C374 C372 1.391 . S
C374 C375 1.400 . S
C375 C369 1.491 1_455 S
C375 C374 1.400 . S
C375 C376 1.398 . S
C376 H364 0.950 . S
C376 C375 1.398 . S
C376 C377 1.391 . S
C377 H365 0.950 . S
C377 C373 1.393 . S
C377 C376 1.391 . S
H378 C386 0.950 . S
H379 C391 0.950 . S
H380 C388 0.950 . S
H381 C390 0.950 . S
H382 C392 0.950 . S
H383 C394 0.950 . S
H384 C396 0.950 . S
H385 C397 0.950 . S
C386 H378 0.950 . S
C386 C387 1.386 . S
C386 C388 1.391 . S
C387 C386 1.386 . S
C387 C391 1.393 . S
C388 H380 0.950 . S
C388 C386 1.391 . S
C388 C389 1.400 . S
C389 C388 1.400 . S
C389 C390 1.398 . S
C389 C395 1.491 1_455 S
C390 H381 0.950 . S
C390 C389 1.398 . S
C390 C391 1.391 . S
C391 H379 0.950 . S
C391 C387 1.393 . S
C391 C390 1.391 . S
C392 H382 0.950 . S
C392 C393 1.386 . S
C392 C394 1.391 . S
C393 C392 1.386 . S
C393 C397 1.393 . S
C394 H383 0.950 . S
C394 C392 1.391 . S
C394 C395 1.400 . S
C395 C389 1.491 1_655 S
C395 C394 1.400 . S
C395 C396 1.398 . S
C396 H384 0.950 . S
C396 C395 1.398 . S
C396 C397 1.391 . S
C397 H385 0.950 . S
C397 C393 1.393 . S
C397 C396 1.391 . S
H398 C406 0.950 . S
H399 C411 0.950 . S
H400 C408 0.950 . S
H401 C410 0.950 . S
H402 C412 0.950 . S
H403 C414 0.950 . S
H404 C416 0.950 . S
H405 C417 0.950 . S
C406 H398 0.950 . S
C406 C407 1.386 . S
C406 C408 1.391 . S
C407 C406 1.386 . S
C407 C411 1.393 . S
C408 H400 0.950 . S
C408 C406 1.391 . S
C408 C409 1.400 . S
C409 C408 1.400 . S
C409 C410 1.398 . S
C409 C415 1.491 1_565 S
C410 H401 0.950 . S
C410 C409 1.398 . S
C410 C411 1.391 . S
C411 H399 0.950 . S
C411 C407 1.393 . S
C411 C410 1.391 . S
C412 H402 0.950 . S
C412 C413 1.386 . S
C412 C414 1.391 . S
C413 C412 1.386 . S
C413 C417 1.393 . S
C414 H403 0.950 . S
C414 C412 1.391 . S
C414 C415 1.400 . S
C415 C409 1.491 1_545 S
C415 C414 1.400 . S
C415 C416 1.398 . S
C416 H404 0.950 . S
C416 C415 1.398 . S
C416 C417 1.391 . S
C417 H405 0.950 . S
C417 C413 1.393 . S
C417 C416 1.391 . S
H418 C426 0.950 . S
H419 C431 0.950 . S
H420 C428 0.950 . S
H421 C430 0.950 . S
H422 C432 0.950 . S
H423 C434 0.950 . S
H424 C436 0.950 . S
H425 C437 0.950 . S
C426 H418 0.950 . S
C426 C427 1.386 . S
C426 C428 1.391 . S
C427 C426 1.386 . S
C427 C431 1.393 . S
C428 H420 0.950 . S
C428 C426 1.391 . S
C428 C429 1.400 . S
C429 C428 1.400 . S
C429 C430 1.398 . S
C429 C435 1.491 . S
C430 H421 0.950 . S
C430 C429 1.398 . S
C430 C431 1.391 . S
C431 H419 0.950 . S
C431 C427 1.393 . S
C431 C430 1.391 . S
C432 H422 0.950 . S
C432 C433 1.386 . S
C432 C434 1.391 . S
C433 C432 1.386 . S
C433 C437 1.393 . S
C434 H423 0.950 . S
C434 C432 1.391 . S
C434 C435 1.400 . S
C435 C429 1.491 . S
C435 C434 1.400 . S
C435 C436 1.398 . S
C436 H424 0.950 . S
C436 C435 1.398 . S
C436 C437 1.391 . S
C437 H425 0.950 . S
C437 C433 1.393 . S
C437 C436 1.391 . S
H438 C446 0.950 . S
H439 C451 0.950 . S
H440 C448 0.950 1_554 S
H441 C450 0.950 . S
H442 C452 0.950 . S
H443 C454 0.950 1_556 S
H444 C456 0.950 . S
H445 C457 0.950 . S
C446 H438 0.950 . S
C446 C447 1.386 . S
C446 C448 1.391 . S
C447 C446 1.386 . S
C447 C451 1.393 . S
C448 H440 0.950 1_556 S
C448 C446 1.391 . S
C448 C449 1.400 . S
C449 C448 1.400 . S
C449 C450 1.398 . S
C449 C455 1.491 1_556 S
C450 H441 0.950 . S
C450 C449 1.398 . S
C450 C451 1.391 . S
C451 H439 0.950 . S
C451 C447 1.393 . S
C451 C450 1.391 . S
C452 H442 0.950 . S
C452 C453 1.386 . S
C452 C454 1.391 . S
C453 C452 1.386 . S
C453 C457 1.393 . S
C454 H443 0.950 1_554 S
C454 C452 1.391 . S
C454 C455 1.400 . S
C455 C449 1.491 1_554 S
C455 C454 1.400 . S
C455 C456 1.398 . S
C456 H444 0.950 . S
C456 C455 1.398 . S
C456 C457 1.391 . S
C457 H445 0.950 . S
C457 C453 1.393 . S
C457 C456 1.391 . S
H458 C466 0.950 . S
H459 C471 0.950 . S
H460 C468 0.950 . S
H461 C470 0.950 . S
H462 C472 0.950 . S
H463 C474 0.950 . S
H464 C476 0.950 . S
H465 C477 0.950 . S
C466 H458 0.950 . S
C466 C467 1.386 . S
C466 C468 1.391 . S
C467 C466 1.386 . S
C467 C471 1.393 . S
C468 H460 0.950 . S
C468 C466 1.391 . S
C468 C469 1.400 . S
C469 C468 1.400 . S
C469 C470 1.398 . S
C469 C475 1.491 . S
C470 H461 0.950 . S
C470 C469 1.398 . S
C470 C471 1.391 . S
C471 H459 0.950 . S
C471 C467 1.393 . S
C471 C470 1.391 . S
C472 H462 0.950 . S
C472 C473 1.386 . S
C472 C474 1.391 . S
C473 C472 1.386 . S
C473 C477 1.393 . S
C474 H463 0.950 . S
C474 C472 1.391 . S
C474 C475 1.400 . S
C475 C469 1.491 . S
C475 C474 1.400 . S
C475 C476 1.398 . S
C476 H464 0.950 . S
C476 C475 1.398 . S
C476 C477 1.391 . S
C477 H465 0.950 . S
C477 C473 1.393 . S
C477 C476 1.391 . S
H478 C486 0.950 . S
H479 C491 0.950 . S
H480 C488 0.950 . S
H481 C490 0.950 . S
H482 C492 0.950 . S
H483 C494 0.950 . S
H484 C496 0.950 . S
H485 C497 0.950 . S
C486 H478 0.950 . S
C486 C487 1.386 . S
C486 C488 1.391 . S
C487 C486 1.386 . S
C487 C491 1.393 . S
C488 H480 0.950 . S
C488 C486 1.391 . S
C488 C489 1.400 . S
C489 C488 1.400 . S
C489 C490 1.398 . S
C489 C495 1.491 . S
C490 H481 0.950 . S
C490 C489 1.398 . S
C490 C491 1.391 . S
C491 H479 0.950 . S
C491 C487 1.393 . S
C491 C490 1.391 . S
C492 H482 0.950 . S
C492 C493 1.386 . S
C492 C494 1.391 . S
C493 C492 1.386 . S
C493 C497 1.393 . S
C494 H483 0.950 . S
C494 C492 1.391 . S
C494 C495 1.400 . S
C495 C489 1.491 . S
C495 C494 1.400 . S
C495 C496 1.398 . S
C496 H484 0.950 . S
C496 C495 1.398 . S
C496 C497 1.391 . S
C497 H485 0.950 . S
C497 C493 1.393 . S
C497 C496 1.391 . S
H498 C506 0.950 . S
H499 C511 0.950 . S
H500 C508 0.950 1_554 S
H501 C510 0.950 . S
H502 C512 0.950 . S
H503 C514 0.950 1_556 S
H504 C516 0.950 . S
H505 C517 0.950 . S
C506 H498 0.950 . S
C506 C507 1.386 . S
C506 C508 1.391 . S
C507 C506 1.386 . S
C507 C511 1.393 . S
C508 H500 0.950 1_556 S
C508 C506 1.391 . S
C508 C509 1.400 . S
C509 C508 1.400 . S
C509 C510 1.398 . S
C509 C515 1.491 1_556 S
C510 H501 0.950 . S
C510 C509 1.398 . S
C510 C511 1.391 . S
C511 H499 0.950 . S
C511 C507 1.393 . S
C511 C510 1.391 . S
C512 H502 0.950 . S
C512 C513 1.386 . S
C512 C514 1.391 . S
C513 C512 1.386 . S
C513 C517 1.393 . S
C514 H503 0.950 1_554 S
C514 C512 1.391 . S
C514 C515 1.400 . S
C515 C509 1.491 1_554 S
C515 C514 1.400 . S
C515 C516 1.398 . S
C516 H504 0.950 . S
C516 C515 1.398 . S
C516 C517 1.391 . S
C517 H505 0.950 . S
C517 C513 1.393 . S
C517 C516 1.391 . S
H518 C526 0.950 . S
H519 C531 0.950 . S
H520 C528 0.950 . S
H521 C530 0.950 . S
H522 C532 0.950 . S
H523 C534 0.950 . S
H524 C536 0.950 . S
H525 C537 0.950 . S
C526 H518 0.950 . S
C526 C527 1.386 . S
C526 C528 1.391 . S
C527 C526 1.386 . S
C527 C531 1.393 . S
C528 H520 0.950 . S
C528 C526 1.391 . S
C528 C529 1.400 . S
C529 C528 1.400 . S
C529 C530 1.398 . S
C529 C535 1.491 . S
C530 H521 0.950 . S
C530 C529 1.398 . S
C530 C531 1.391 . S
C531 H519 0.950 . S
C531 C527 1.393 . S
C531 C530 1.391 . S
C532 H522 0.950 . S
C532 C533 1.386 . S
C532 C534 1.391 . S
C533 C532 1.386 . S
C533 C537 1.393 . S
C534 H523 0.950 . S
C534 C532 1.391 . S
C534 C535 1.400 . S
C535 C529 1.491 . S
C535 C534 1.400 . S
C535 C536 1.398 . S
C536 H524 0.950 . S
C536 C535 1.398 . S
C536 C537 1.391 . S
C537 H525 0.950 . S
C537 C533 1.393 . S
C537 C536 1.391 . S
H538 C546 0.950 . S
H539 C551 0.950 . S
H540 C548 0.950 . S
H541 C550 0.950 . S
H542 C552 0.950 . S
H543 C554 0.950 . S
H544 C556 0.950 . S
H545 C557 0.950 . S
C546 H538 0.950 . S
C546 C547 1.386 . S
C546 C548 1.391 . S
C547 C546 1.386 . S
C547 C551 1.393 . S
C548 H540 0.950 . S
C548 C546 1.391 . S
C548 C549 1.400 . S
C549 C548 1.400 . S
C549 C550 1.398 . S
C549 C555 1.491 . S
C550 H541 0.950 . S
C550 C549 1.398 . S
C550 C551 1.391 . S
C551 H539 0.950 . S
C551 C547 1.393 . S
C551 C550 1.391 . S
C552 H542 0.950 . S
C552 C553 1.386 . S
C552 C554 1.391 . S
C553 C552 1.386 . S
C553 C557 1.393 . S
C554 H543 0.950 . S
C554 C552 1.391 . S
C554 C555 1.400 . S
C555 C549 1.491 . S
C555 C554 1.400 . S
C555 C556 1.398 . S
C556 H544 0.950 . S
C556 C555 1.398 . S
C556 C557 1.391 . S
C557 H545 0.950 . S
C557 C553 1.393 . S
C557 C556 1.391 . S
C327 C22 1.654 . S
C333 C181 1.657 . S
C347 C75 1.659 . S
C353 C234 1.657 . S
C367 C128 1.656 . S
C373 C287 1.652 . S
C387 C82 1.654 . S
C393 C241 1.657 . S
C407 C294 1.661 . S
C413 C135 1.658 . S
C427 C188 1.660 . S
C433 C29 1.657 . S
C447 C144 2.315 . S
C453 C39 2.310 . S
C467 C197 2.319 . S
C473 C92 2.314 . S
C487 C145 2.298 . S
C493 C250 2.310 . S
C507 C303 2.317 . S
C513 C198 2.313 . S
C527 C251 2.308 . S
C533 C38 2.326 . S
C547 C304 2.297 . S
C553 C91 2.311 . S
