# Generated by pormake.
# Topology umm, (4)-cn, num edge types: 1
# Building blocks:
#     Node 0, Type 0, BuildingBlock: KUFVIS_clean_sbu_0, # of connection points: 4
#     Node 1, Type 0, BuildingBlock: KUFVIS_clean_sbu_0, # of connection points: 4
#     Node 2, Type 0, BuildingBlock: KUFVIS_clean_sbu_0, # of connection points: 4
#     Node 3, Type 0, BuildingBlock: KUFVIS_clean_sbu_0, # of connection points: 4
#     Node 4, Type 0, BuildingBlock: KUFVIS_clean_sbu_0, # of connection points: 4
#     Node 5, Type 0, BuildingBlock: KUFVIS_clean_sbu_0, # of connection points: 4
#     Node 6, Type 0, BuildingBlock: KUFVIS_clean_sbu_0, # of connection points: 4
#     Node 7, Type 0, BuildingBlock: KUFVIS_clean_sbu_0, # of connection points: 4
#     Node 8, Type 0, BuildingBlock: KUFVIS_clean_sbu_0, # of connection points: 4
#     Node 9, Type 0, BuildingBlock: KUFVIS_clean_sbu_0, # of connection points: 4
#     Node 10, Type 0, BuildingBlock: KUFVIS_clean_sbu_0, # of connection points: 4
#     Node 11, Type 0, BuildingBlock: KUFVIS_clean_sbu_0, # of connection points: 4
#     Edge 12, Type (0, 0), BuildingBlock: XUDNAN_clean_linker_2, # of connection points: 2
#     Edge 13, Type (0, 0), BuildingBlock: XUDNAN_clean_linker_2, # of connection points: 2
#     Edge 14, Type (0, 0), BuildingBlock: XUDNAN_clean_linker_2, # of connection points: 2
#     Edge 15, Type (0, 0), BuildingBlock: XUDNAN_clean_linker_2, # of connection points: 2
#     Edge 16, Type (0, 0), BuildingBlock: XUDNAN_clean_linker_2, # of connection points: 2
#     Edge 17, Type (0, 0), BuildingBlock: XUDNAN_clean_linker_2, # of connection points: 2
#     Edge 18, Type (0, 0), BuildingBlock: XUDNAN_clean_linker_2, # of connection points: 2
#     Edge 19, Type (0, 0), BuildingBlock: XUDNAN_clean_linker_2, # of connection points: 2
#     Edge 20, Type (0, 0), BuildingBlock: XUDNAN_clean_linker_2, # of connection points: 2
#     Edge 21, Type (0, 0), BuildingBlock: XUDNAN_clean_linker_2, # of connection points: 2
#     Edge 22, Type (0, 0), BuildingBlock: XUDNAN_clean_linker_2, # of connection points: 2
#     Edge 23, Type (0, 0), BuildingBlock: XUDNAN_clean_linker_2, # of connection points: 2
#     Edge 24, Type (0, 0), BuildingBlock: XUDNAN_clean_linker_2, # of connection points: 2
#     Edge 25, Type (0, 0), BuildingBlock: XUDNAN_clean_linker_2, # of connection points: 2
#     Edge 26, Type (0, 0), BuildingBlock: XUDNAN_clean_linker_2, # of connection points: 2
#     Edge 27, Type (0, 0), BuildingBlock: XUDNAN_clean_linker_2, # of connection points: 2
#     Edge 28, Type (0, 0), BuildingBlock: XUDNAN_clean_linker_2, # of connection points: 2
#     Edge 29, Type (0, 0), BuildingBlock: XUDNAN_clean_linker_2, # of connection points: 2
#     Edge 30, Type (0, 0), BuildingBlock: XUDNAN_clean_linker_2, # of connection points: 2
#     Edge 31, Type (0, 0), BuildingBlock: XUDNAN_clean_linker_2, # of connection points: 2
#     Edge 32, Type (0, 0), BuildingBlock: XUDNAN_clean_linker_2, # of connection points: 2
#     Edge 33, Type (0, 0), BuildingBlock: XUDNAN_clean_linker_2, # of connection points: 2
#     Edge 34, Type (0, 0), BuildingBlock: XUDNAN_clean_linker_2, # of connection points: 2
#     Edge 35, Type (0, 0), BuildingBlock: XUDNAN_clean_linker_2, # of connection points: 2
# Relax obj value: 0.165
# Max RMSD: 0.458
# Mean RMSD: 0.287
data_MOF--net-umm--node1-KUFVIS_clean_sbu_0--edge1-XUDNAN_clean_linker_2
_symmetry_space_group_name_H-M    P1
_symmetry_Int_Tables_number       1
_symmetry_cell_setting            triclinic
loop_
_symmetry_equiv_pos_as_xyz
'x, y, z'
_cell_length_a     51.124164
_cell_length_b     57.21365
_cell_length_c     27.030093
_cell_angle_alpha  89.976851
_cell_angle_beta   90.000262
_cell_angle_gamma 116.413
loop_
_atom_site_label
_atom_site_type_symbol
_atom_site_fract_x
_atom_site_fract_y
_atom_site_fract_z
_atom_type_partial_charge
Mn0 Mn 0.41369 0.56341 0.09473 0.0
Mn1 Mn 0.48146 0.61188 0.10464 0.0
C2 C 0.44374 0.57843 0.02587 0.0
C3 C 0.36529 0.55227 0.07343 0.0
C4 C 0.46406 0.55624 0.13949 0.0
O5 O 0.41248 0.57953 0.16163 0.0
O6 O 0.45708 0.61431 0.15953 0.0
C7 C 0.46784 0.65615 0.08437 0.0
N8 N 0.48282 0.64227 0.07285 0.0
C9 C 0.50491 0.66959 0.00218 0.0
C10 C 0.49013 0.68444 0.01385 0.0
C11 C 0.47142 0.67762 0.05501 0.0
C12 C 0.50053 0.64843 0.03286 0.0
H13 H 0.45301 0.65068 0.11534 0.0
C14 C 0.4319 0.60106 0.1792 0.0
O15 O 0.37164 0.53574 0.09752 0.0
O16 O 0.38631 0.57526 0.06674 0.0
N17 N 0.50651 0.61147 0.05227 0.0
C18 C 0.51786 0.59428 0.04439 0.0
C19 C 0.53679 0.59815 0.00427 0.0
C20 C 0.54387 0.61963 0.97274 0.0
C21 C 0.53177 0.63695 0.98136 0.0
C22 C 0.51331 0.63228 0.02228 0.0
H23 H 0.51259 0.57777 0.06857 0.0
O24 O 0.42219 0.55523 0.0261 0.0
O25 O 0.44721 0.5912 0.06659 0.0
O26 O 0.43759 0.54614 0.12435 0.0
O27 O 0.48153 0.58062 0.13609 0.0
C28 C 0.53706 0.65851 0.95069 0.0
C29 C 0.52347 0.6747 0.96087 0.0
H30 H 0.49272 0.70094 -0.00885 0.0
H31 H 0.45964 0.68879 0.06391 0.0
H32 H 0.54593 0.58462 -0.00231 0.0
H33 H 0.55847 0.62254 0.9418 0.0
H34 H 0.5513 0.66266 0.91885 0.0
H35 H 0.52733 0.69097 0.93655 0.0
Mn36 Mn 0.88673 0.37069 0.3889 0.0
Mn37 Mn 0.84967 0.40662 0.36146 0.0
C38 C 0.88699 0.38656 0.30643 0.0
C39 C 0.84046 0.33274 0.35891 0.0
C40 C 0.91052 0.43146 0.39983 0.0
O41 O 0.86456 0.3678 0.45196 0.0
O42 O 0.84165 0.39222 0.43051 0.0
C43 C 0.78909 0.3644 0.3656 0.0
N44 N 0.81154 0.38266 0.33896 0.0
C45 C 0.78102 0.37438 0.26689 0.0
C46 C 0.75789 0.35491 0.29308 0.0
C47 C 0.76187 0.35007 0.3428 0.0
C48 C 0.80764 0.38803 0.29159 0.0
H49 H 0.79196 0.36072 0.40392 0.0
C50 C 0.84752 0.37809 0.46125 0.0
O51 O 0.86274 0.33088 0.37412 0.0
O52 O 0.84422 0.35624 0.3594 0.0
N53 N 0.85492 0.42153 0.29677 0.0
C54 C 0.87747 0.4438 0.27982 0.0
C55 C 0.87596 0.45289 0.23224 0.0
C56 C 0.85141 0.43894 0.20239 0.0
C57 C 0.82806 0.41655 0.22122 0.0
C58 C 0.83059 0.40864 0.26929 0.0
H59 H 0.89637 0.45469 0.3026 0.0
O60 O 0.90477 0.37755 0.32019 0.0
O61 O 0.86688 0.3832 0.33916 0.0
O62 O 0.91212 0.40991 0.40478 0.0
O63 O 0.88799 0.43288 0.38317 0.0
C64 C 0.80195 0.40235 0.19488 0.0
C65 C 0.77843 0.38128 0.21772 0.0
H66 H 0.73687 0.34383 0.27562 0.0
H67 H 0.74403 0.33532 0.36346 0.0
H68 H 0.89362 0.47076 0.21886 0.0
H69 H 0.85039 0.44599 0.16558 0.0
H70 H 0.79946 0.40787 0.15747 0.0
H71 H 0.7582 0.3709 0.19753 0.0
Mn72 Mn 0.47427 0.88062 0.74808 0.0
Mn73 Mn 0.41034 0.88039 0.77982 0.0
C74 C 0.44173 0.87988 0.68861 0.0
C75 C 0.49767 0.85462 0.7272 0.0
C76 C 0.46771 0.92997 0.77474 0.0
O77 O 0.47161 0.87158 0.82114 0.0
O78 O 0.42893 0.8725 0.83746 0.0
C79 C 0.37932 0.8237 0.80134 0.0
N80 N 0.38137 0.84481 0.77516 0.0
C81 C 0.33963 0.81789 0.7256 0.0
C82 C 0.33699 0.79593 0.75229 0.0
C83 C 0.35692 0.79887 0.79032 0.0
C84 C 0.36239 0.84215 0.73825 0.0
H85 H 0.39475 0.8257 0.83019 0.0
C86 C 0.451 0.86902 0.85051 0.0
O87 O 0.51301 0.87892 0.73991 0.0
O88 O 0.46974 0.84564 0.73013 0.0
N89 N 0.38929 0.88695 0.72737 0.0
C90 C 0.39283 0.91033 0.70895 0.0
C91 C 0.37418 0.91096 0.6714 0.0
C92 C 0.35155 0.88756 0.65412 0.0
C93 C 0.34721 0.86383 0.67574 0.0
C94 C 0.36639 0.8645 0.71333 0.0
H95 H 0.40942 0.92834 0.72341 0.0
O96 O 0.46884 0.88709 0.67743 0.0
O97 O 0.4343 0.87256 0.73383 0.0
O98 O 0.48442 0.91925 0.76408 0.0
O99 O 0.44004 0.91732 0.78162 0.0
C100 C 0.32431 0.83962 0.66209 0.0
C101 C 0.32058 0.81664 0.68689 0.0
H102 H 0.31976 0.77673 0.74386 0.0
H103 H 0.35511 0.782 0.81096 0.0
H104 H 0.37713 0.92945 0.65605 0.0
H105 H 0.33724 0.8881 0.62506 0.0
H106 H 0.30929 0.83847 0.63286 0.0
H107 H 0.30284 0.79814 0.67619 0.0
Mn108 Mn 0.59674 0.42353 0.08505 0.0
Mn109 Mn 0.52618 0.37851 0.08057 0.0
C110 C 0.57096 0.41518 0.0123 0.0
C111 C 0.64602 0.43399 0.07588 0.0
C112 C 0.54527 0.43328 0.11972 0.0
O113 O 0.59235 0.40409 0.14971 0.0
O114 O 0.545 0.37511 0.1423 0.0
C115 C 0.53822 0.33264 0.07104 0.0
N116 N 0.5255 0.34741 0.05329 0.0
C117 C 0.5066 0.31936 0.98252 0.0
C118 C 0.51933 0.30375 0.00021 0.0
C119 C 0.53525 0.31046 0.04463 0.0
C120 C 0.51032 0.34123 0.01043 0.0
H121 H 0.55063 0.33779 0.10499 0.0
C122 C 0.56923 0.38508 0.1659 0.0
O123 O 0.63798 0.44934 0.10017 0.0
O124 O 0.62554 0.4122 0.06 0.0
N125 N 0.50499 0.37915 0.02266 0.0
C126 C 0.4937 0.396 0.0111 0.0
C127 C 0.47649 0.39165 0.96846 0.0
C128 C 0.47116 0.37009 0.93804 0.0
C129 C 0.4827 0.35284 0.951 0.0
C130 C 0.49909 0.35782 -0.0054 0.0
H131 H 0.49779 0.41264 0.03422 0.0
O132 O 0.59434 0.43688 0.0181 0.0
O133 O 0.56372 0.3987 0.0487 0.0
O134 O 0.57273 0.44091 0.11422 0.0
O135 O 0.52578 0.41052 0.10752 0.0
C136 C 0.4785 0.33084 0.92246 0.0
C137 C 0.49058 0.31419 0.93807 0.0
H138 H 0.51714 0.28666 0.97989 0.0
H139 H 0.54526 0.29858 0.05841 0.0
H140 H 0.46739 0.4049 0.95902 0.0
H141 H 0.45804 0.36688 0.90497 0.0
H142 H 0.46611 0.32661 0.88835 0.0
H143 H 0.48737 0.29744 0.91566 0.0
Mn144 Mn 0.15074 0.62841 0.33103 0.0
Mn145 Mn 0.15523 0.57213 0.31635 0.0
C146 C 0.14206 0.60829 0.25472 0.0
C147 C 0.17638 0.6739 0.32431 0.0
C148 C 0.10375 0.57582 0.36633 0.0
O149 O 0.17274 0.62675 0.39243 0.0
O150 O 0.178 0.59044 0.37572 0.0
C151 C 0.21814 0.59416 0.29191 0.0
N152 N 0.18975 0.57901 0.2793 0.0
C153 C 0.20379 0.56927 0.19987 0.0
C154 C 0.23319 0.58463 0.21213 0.0
C155 C 0.24038 0.59715 0.25833 0.0
C156 C 0.18258 0.56701 0.23483 0.0
H157 H 0.22375 0.604 0.3272 0.0
C158 C 0.18265 0.61037 0.40259 0.0
O159 O 0.15241 0.66337 0.35023 0.0
O160 O 0.18563 0.65821 0.30586 0.0
N161 N 0.13432 0.55292 0.25957 0.0
C162 C 0.10491 0.5393 0.25304 0.0
C163 C 0.09406 0.5252 0.20913 0.0
C164 C 0.11353 0.52527 0.17244 0.0
C165 C 0.1437 0.53966 0.17973 0.0
C166 C 0.15325 0.55293 0.22464 0.0
H167 H 0.08983 0.53902 0.28126 0.0
O168 O 0.13198 0.6249 0.26468 0.0
O169 O 0.15609 0.60383 0.29038 0.0
O170 O 0.11226 0.60037 0.36014 0.0
O171 O 0.11874 0.56395 0.35292 0.0
C172 C 0.16466 0.54142 0.14419 0.0
C173 C 0.19468 0.55636 0.15412 0.0
H174 H 0.2504 0.58705 0.18627 0.0
H175 H 0.26301 0.60915 0.26796 0.0
H176 H 0.07075 0.51425 0.20363 0.0
H177 H 0.10505 0.51426 0.13872 0.0
H178 H 0.15793 0.53152 0.10896 0.0
H179 H 0.21058 0.55778 0.12631 0.0
Mn180 Mn 0.53771 0.17321 0.76669 0.0
Mn181 Mn 0.59694 0.16225 0.78417 0.0
C182 C 0.56043 0.16616 0.69941 0.0
C183 C 0.51924 0.20388 0.75742 0.0
C184 C 0.53514 0.11931 0.79087 0.0
O185 O 0.5471 0.18207 0.83918 0.0
O186 O 0.58663 0.17492 0.84613 0.0
C187 C 0.63794 0.2181 0.79711 0.0
N188 N 0.62984 0.19517 0.77242 0.0
C189 C 0.67001 0.21509 0.7156 0.0
C190 C 0.67885 0.23888 0.74057 0.0
C191 C 0.6627 0.2404 0.78144 0.0
C192 C 0.64497 0.1936 0.7326 0.0
H193 H 0.62554 0.21941 0.82841 0.0
C194 C 0.56787 0.1816 0.86435 0.0
O195 O 0.50246 0.18009 0.77147 0.0
O196 O 0.54658 0.20988 0.75118 0.0
N197 N 0.61055 0.15007 0.72857 0.0
C198 C 0.60147 0.125 0.71297 0.0
C199 C 0.61581 0.11986 0.67317 0.0
C200 C 0.64004 0.14038 0.65117 0.0
C201 C 0.65027 0.16572 0.67022 0.0
C202 C 0.63497 0.16965 0.70976 0.0
H203 H 0.58308 0.10912 0.73024 0.0
O204 O 0.5348 0.16526 0.69528 0.0
O205 O 0.57335 0.17347 0.74223 0.0
O206 O 0.52212 0.13368 0.78209 0.0
O207 O 0.56294 0.12798 0.79388 0.0
C208 C 0.67547 0.18708 0.65239 0.0
C209 C 0.6852 0.2118 0.6748 0.0
H210 H 0.69803 0.25609 0.72875 0.0
H211 H 0.66934 0.2587 0.80084 0.0
H212 H 0.60822 0.10013 0.65955 0.0
H213 H 0.65106 0.13636 0.62049 0.0
H214 H 0.68768 0.18466 0.62171 0.0
H215 H 0.70464 0.22806 0.66082 0.0
Mn216 Mn 0.48575 0.6539 0.60779 0.0
Mn217 Mn 0.42342 0.59789 0.61544 0.0
C218 C 0.47032 0.63397 0.68292 0.0
C219 C 0.5057 0.69968 0.60821 0.0
C220 C 0.48137 0.59959 0.58402 0.0
O221 O 0.4671 0.65173 0.5408 0.0
O222 O 0.42549 0.61481 0.55047 0.0
C223 C 0.38351 0.62273 0.6182 0.0
N224 N 0.39388 0.6069 0.63934 0.0
C225 C 0.36231 0.59911 0.70981 0.0
C226 C 0.35114 0.61518 0.68863 0.0
C227 C 0.36184 0.62709 0.64267 0.0
C228 C 0.38399 0.59561 0.6838 0.0
H229 H 0.3918 0.63204 0.58302 0.0
C230 C 0.44264 0.63452 0.52497 0.0
O231 O 0.52053 0.68812 0.59018 0.0
O232 O 0.4799 0.68483 0.62461 0.0
N233 N 0.41777 0.57888 0.67588 0.0
C234 C 0.4295 0.56263 0.68958 0.0
C235 C 0.4202 0.54831 0.73366 0.0
C236 C 0.39901 0.55086 0.76321 0.0
C237 C 0.38669 0.56715 0.74765 0.0
C238 C 0.39631 0.58045 0.70277 0.0
H239 H 0.44565 0.56046 0.66687 0.0
O240 O 0.49701 0.65152 0.67716 0.0
O241 O 0.45302 0.62959 0.64518 0.0
O242 O 0.49707 0.62446 0.58747 0.0
O243 O 0.45385 0.58814 0.59276 0.0
C244 C 0.36488 0.57035 0.77447 0.0
C245 C 0.35281 0.58644 0.75572 0.0
H246 H 0.33438 0.61855 0.70734 0.0
H247 H 0.35342 0.6396 0.62617 0.0
H248 H 0.42929 0.53528 0.74474 0.0
H249 H 0.39203 0.53991 0.79737 0.0
H250 H 0.35713 0.56039 0.8094 0.0
H251 H 0.33605 0.58876 0.77667 0.0
Mn252 Mn 0.86086 0.43761 0.89081 0.0
Mn253 Mn 0.88857 0.39435 0.88072 0.0
C254 C 0.88056 0.42667 0.95869 0.0
C255 C 0.82044 0.44477 0.9093 0.0
C256 C 0.91986 0.45035 0.84391 0.0
O257 O 0.84429 0.41991 0.82502 0.0
O258 O 0.86087 0.38924 0.82561 0.0
C259 C 0.83444 0.34601 0.89988 0.0
N260 N 0.8626 0.36237 0.91184 0.0
C261 C 0.86146 0.33539 0.98096 0.0
C262 C 0.83257 0.31809 0.96898 0.0
C263 C 0.81899 0.32346 0.92832 0.0
C264 C 0.87585 0.35743 0.95099 0.0
H265 H 0.82378 0.35025 0.86913 0.0
C266 C 0.84593 0.40002 0.80661 0.0
O267 O 0.84251 0.46215 0.885 0.0
O268 O 0.82147 0.4232 0.92014 0.0
N269 N 0.91525 0.39732 0.93286 0.0
C270 C 0.94242 0.4169 0.94164 0.0
C271 C 0.95879 0.41482 0.98162 0.0
C272 C 0.947 0.39271 0.0123 0.0
C273 C 0.91885 0.37296 0.00292 0.0
C274 C 0.90379 0.37587 0.96196 0.0
H275 H 0.9515 0.43405 0.91853 0.0
O276 O 0.87821 0.4483 0.9584 0.0
O277 O 0.87151 0.41254 0.91926 0.0
O278 O 0.90097 0.45779 0.8585 0.0
O279 O 0.91693 0.42708 0.84942 0.0
C280 C 0.90498 0.35071 0.0331 0.0
C281 C 0.87628 0.33197 0.02219 0.0
H282 H 0.82048 0.3008 -0.00889 0.0
H283 H 0.7966 0.31033 0.91913 0.0
H284 H 0.98038 0.43027 0.98892 0.0
H285 H 0.95966 0.39122 0.04319 0.0
H286 H 0.91603 0.34801 0.0652 0.0
H287 H 0.86568 0.31515 0.04611 0.0
Mn288 Mn 0.38422 0.86246 0.26698 0.0
Mn289 Mn 0.44827 0.86524 0.30505 0.0
C290 C 0.39586 0.8672 0.34916 0.0
C291 C 0.33502 0.83662 0.25029 0.0
C292 C 0.44306 0.91156 0.26037 0.0
O293 O 0.39752 0.84941 0.20726 0.0
O294 O 0.44027 0.85239 0.23569 0.0
C295 C 0.42888 0.80816 0.30606 0.0
N296 N 0.44018 0.83146 0.33026 0.0
C297 C 0.44274 0.81099 0.40671 0.0
C298 C 0.43132 0.7868 0.38252 0.0
C299 C 0.42431 0.78538 0.33199 0.0
C300 C 0.44677 0.83301 0.37894 0.0
H301 H 0.42331 0.80695 0.2673 0.0
C302 C 0.42109 0.84722 0.20161 0.0
O303 O 0.34828 0.86009 0.23209 0.0
O304 O 0.3504 0.8282 0.27588 0.0
N305 N 0.45916 0.87721 0.37139 0.0
C306 C 0.47072 0.90213 0.38878 0.0
C307 C 0.47989 0.90709 0.43822 0.0
C308 C 0.4768 0.88636 0.46943 0.0
C309 C 0.46518 0.86093 0.45054 0.0
C310 C 0.45721 0.85729 0.40055 0.0
H311 H 0.47313 0.91813 0.36502 0.0
O312 O 0.3763 0.87369 0.33229 0.0
O313 O 0.40773 0.85773 0.3174 0.0
O314 O 0.41548 0.89985 0.25209 0.0
O315 O 0.4574 0.90061 0.28075 0.0
C316 C 0.46145 0.83908 0.4792 0.0
C317 C 0.45009 0.8141 0.45734 0.0
H318 H 0.42773 0.76918 0.4024 0.0
H319 H 0.41536 0.76676 0.31311 0.0
H320 H 0.4893 0.92686 0.45224 0.0
H321 H 0.48362 0.89022 0.50772 0.0
H322 H 0.46721 0.84125 0.51807 0.0
H323 H 0.44715 0.79741 0.47975 0.0
Mn324 Mn 0.48717 0.39027 0.58929 0.0
Mn325 Mn 0.56161 0.42155 0.60012 0.0
C326 C 0.51067 0.40346 0.66825 0.0
C327 C 0.48803 0.34741 0.61315 0.0
C328 C 0.52682 0.45029 0.57599 0.0
O329 O 0.49973 0.38511 0.52108 0.0
O330 O 0.54856 0.40732 0.53226 0.0
C331 C 0.57548 0.37728 0.58278 0.0
N332 N 0.57493 0.39583 0.61379 0.0
C333 C 0.6026 0.386 0.67533 0.0
C334 C 0.6029 0.36645 0.64446 0.0
C335 C 0.58963 0.36234 0.59769 0.0
C336 C 0.58867 0.40067 0.65802 0.0
H337 H 0.56556 0.3741 0.54661 0.0
C338 C 0.52601 0.39376 0.50578 0.0
O339 O 0.46569 0.35042 0.60442 0.0
O340 O 0.51082 0.3687 0.60807 0.0
N341 N 0.57709 0.43558 0.66371 0.0
C342 C 0.57854 0.45753 0.68581 0.0
C343 C 0.59284 0.46547 0.73147 0.0
C344 C 0.60558 0.45087 0.75385 0.0
C345 C 0.60424 0.42862 0.73004 0.0
C346 C 0.58981 0.42169 0.68445 0.0
H347 H 0.5689 0.46891 0.66871 0.0
O348 O 0.48376 0.39823 0.66174 0.0
O349 O 0.52289 0.39925 0.62957 0.0
O350 O 0.50266 0.42962 0.57368 0.0
O351 O 0.55083 0.44989 0.58683 0.0
C352 C 0.61721 0.41337 0.74925 0.0
C353 C 0.61648 0.39212 0.72182 0.0
H354 H 0.61369 0.35478 0.65592 0.0
H355 H 0.59034 0.34771 0.57312 0.0
H356 H 0.59414 0.48289 0.74928 0.0
H357 H 0.61671 0.45712 0.78899 0.0
H358 H 0.62832 0.41815 0.78462 0.0
H359 H 0.62715 0.38093 0.73638 0.0
Mn360 Mn 0.18067 0.56946 0.84099 0.0
Mn361 Mn 0.16979 0.62298 0.82717 0.0
C362 C 0.16828 0.58722 0.90763 0.0
C363 C 0.21372 0.55282 0.85929 0.0
C364 C 0.12402 0.56839 0.80146 0.0
O365 O 0.19791 0.58247 0.77317 0.0
O366 O 0.19042 0.61834 0.76854 0.0
C367 C 0.23188 0.6619 0.83261 0.0
N368 N 0.2041 0.65216 0.85047 0.0
C369 C 0.21916 0.68385 0.91614 0.0
C370 C 0.24788 0.69433 0.89824 0.0
C371 C 0.25426 0.68329 0.8563 0.0
C372 C 0.19775 0.66259 0.89087 0.0
H373 H 0.23694 0.65333 0.80065 0.0
C374 C 0.19986 0.60278 0.75064 0.0
O375 O 0.189 0.53815 0.83781 0.0
O376 O 0.21937 0.57685 0.86721 0.0
N377 N 0.15027 0.62991 0.88151 0.0
C378 C 0.1214 0.61771 0.89366 0.0
C379 C 0.11133 0.62657 0.93446 0.0
C380 C 0.13101 0.64791 0.96223 0.0
C381 C 0.16052 0.66042 0.94851 0.0
C382 C 0.16919 0.65099 0.90699 0.0
H383 H 0.10619 0.60125 0.87254 0.0
O384 O 0.16461 0.56335 0.90914 0.0
O385 O 0.17998 0.60024 0.86766 0.0
O386 O 0.13913 0.55632 0.81297 0.0
O387 O 0.13358 0.59318 0.80473 0.0
C388 C 0.18167 0.68185 0.97441 0.0
C389 C 0.21099 0.69352 0.95832 0.0
H390 H 0.26523 0.71076 0.91653 0.0
H391 H 0.2764 0.69119 0.8424 0.0
H392 H 0.08848 0.61692 0.94461 0.0
H393 H 0.1232 0.65458 -0.00613 0.0
H394 H 0.17565 0.68948 0.00684 0.0
H395 H 0.22709 0.70991 0.97868 0.0
Mn396 Mn 0.61825 0.14674 0.28406 0.0
Mn397 Mn 0.55076 0.13915 0.31024 0.0
C398 C 0.60145 0.13697 0.36377 0.0
C399 C 0.66654 0.17734 0.27321 0.0
C400 C 0.5633 0.09856 0.25637 0.0
O401 O 0.60605 0.16042 0.22352 0.0
O402 O 0.56522 0.16189 0.25065 0.0
C403 C 0.56462 0.19319 0.33985 0.0
N404 N 0.55297 0.16729 0.35085 0.0
C405 C 0.53775 0.17448 0.43129 0.0
C406 C 0.54944 0.20123 0.42075 0.0
C407 C 0.5631 0.21064 0.37495 0.0
C408 C 0.54035 0.15811 0.3952 0.0
H409 H 0.57496 0.20043 0.30453 0.0
C410 C 0.58514 0.16659 0.21802 0.0
O411 O 0.65691 0.15449 0.25244 0.0
O412 O 0.64843 0.1821 0.29963 0.0
N413 N 0.53377 0.11748 0.36675 0.0
C414 C 0.52285 0.09104 0.37061 0.0
C415 C 0.5086 0.07853 0.41429 0.0
C416 C 0.50525 0.09324 0.45319 0.0
C417 C 0.51595 0.12031 0.44786 0.0
C418 C 0.52996 0.13171 0.40347 0.0
H419 H 0.52497 0.07954 0.34065 0.0
O420 O 0.62423 0.13422 0.35003 0.0
O421 O 0.59015 0.14632 0.33084 0.0
O422 O 0.59105 0.10911 0.26248 0.0
O423 O 0.54698 0.10911 0.26971 0.0
C424 C 0.51294 0.13639 0.48462 0.0
C425 C 0.52367 0.16342 0.47622 0.0
H426 H 0.54817 0.21472 0.44762 0.0
H427 H 0.57227 0.23127 0.36663 0.0
H428 H 0.50016 0.05759 0.4179 0.0
H429 H 0.49428 0.08353 0.48685 0.0
H430 H 0.50231 0.12815 0.51941 0.0
H431 H 0.52118 0.17557 0.50474 0.0
H432 H 0.40103 0.57355 0.25988 0.0
H433 H 0.45178 0.65205 0.20422 0.0
H434 H 0.45109 0.66993 0.28651 0.0
H435 H 0.35845 0.59106 0.35838 0.0
H436 H 0.36094 0.56793 0.40107 0.0
H437 H 0.35851 0.5615 0.33549 0.0
H438 H 0.40602 0.55585 0.33981 0.0
H439 H 0.40871 0.56241 0.40501 0.0
H440 H 0.43869 0.58188 0.36483 0.0
H441 H 0.4548 0.67881 0.3757 0.0
H442 H 0.46136 0.67787 0.46601 0.0
H443 H 0.40789 0.59401 0.46582 0.0
C444 C 0.41078 0.59452 0.26469 0.0
C445 C 0.42616 0.61143 0.22568 0.0
C446 C 0.4397 0.63875 0.23356 0.0
C447 C 0.4393 0.64912 0.28018 0.0
C448 C 0.42519 0.63195 0.31861 0.0
C449 C 0.41086 0.60521 0.31139 0.0
C450 C 0.40128 0.59093 0.36026 0.0
C451 C 0.3678 0.57704 0.36401 0.0
C452 C 0.41448 0.57166 0.3679 0.0
C453 C 0.41414 0.61368 0.39593 0.0
C454 C 0.42727 0.63721 0.37112 0.0
C455 C 0.44385 0.66062 0.39574 0.0
C456 C 0.44762 0.6599 0.44696 0.0
C457 C 0.43487 0.63594 0.47288 0.0
C458 C 0.41722 0.61272 0.44714 0.0
H459 H 0.84243 0.41431 0.52032 0.0
H460 H 0.82543 0.33313 0.51435 0.0
H461 H 0.81103 0.32784 0.60231 0.0
H462 H 0.87858 0.42732 0.62746 0.0
H463 H 0.86588 0.44968 0.6523 0.0
H464 H 0.86641 0.44543 0.58662 0.0
H465 H 0.81122 0.43329 0.58196 0.0
H466 H 0.81054 0.43756 0.64798 0.0
H467 H 0.78569 0.40717 0.61988 0.0
H468 H 0.80895 0.33328 0.69153 0.0
H469 H 0.82166 0.34943 0.77675 0.0
H470 H 0.84086 0.42756 0.7278 0.0
C471 C 0.83441 0.3952 0.53723 0.0
C472 C 0.83456 0.374 0.51086 0.0
C473 C 0.82519 0.34949 0.53419 0.0
C474 C 0.81675 0.34628 0.58392 0.0
C475 C 0.81793 0.36782 0.60973 0.0
C476 C 0.82647 0.39185 0.58723 0.0
C477 C 0.83096 0.41286 0.62504 0.0
C478 C 0.86231 0.4351 0.62271 0.0
C479 C 0.80824 0.42333 0.61831 0.0
C480 C 0.82559 0.39726 0.67245 0.0
C481 C 0.81718 0.37116 0.6626 0.0
C482 C 0.8147 0.35348 0.69986 0.0
C483 C 0.82208 0.36285 0.74814 0.0
C484 C 0.83188 0.38966 0.75872 0.0
C485 C 0.83254 0.40685 0.72078 0.0
H486 H 0.4055 0.85073 0.91495 0.0
H487 H 0.49714 0.86847 0.90297 0.0
H488 H 0.49707 0.85685 -0.00866 0.0
H489 H 0.40951 0.87909 0.0269 0.0
H490 H 0.37441 0.85529 0.0488 0.0
H491 H 0.38084 0.86076 0.9836 0.0
H492 H 0.36602 0.81152 0.97065 0.0
H493 H 0.35966 0.80594 0.03617 0.0
H494 H 0.38445 0.79623 0.00503 0.0
H495 H 0.48826 0.84908 0.08325 0.0
H496 H 0.47268 0.84823 0.16982 0.0
H497 H 0.3866 0.83509 0.11925 0.0
C498 C 0.42555 0.85183 0.93044 0.0
C499 C 0.45139 0.86064 0.9021 0.0
C500 C 0.47707 0.86173 0.92401 0.0
C501 C 0.47717 0.85502 0.97404 0.0
C502 C 0.45131 0.84686 0.00108 0.0
C503 C 0.42595 0.84511 0.97976 0.0
C504 C 0.40178 0.8384 0.01726 0.0
C505 C 0.39104 0.85966 0.01925 0.0
C506 C 0.37648 0.81141 0.00664 0.0
C507 C 0.41788 0.83801 0.06376 0.0
C508 C 0.44621 0.84232 0.05372 0.0
C509 C 0.46598 0.84522 0.09145 0.0
C510 C 0.45688 0.84469 0.14058 0.0
C511 C 0.42839 0.84168 0.1514 0.0
C512 C 0.40843 0.83724 0.11237 0.0
H513 H 0.60077 0.41441 0.24358 0.0
H514 H 0.5331 0.33774 0.20493 0.0
H515 H 0.51853 0.32938 0.29238 0.0
H516 H 0.61591 0.39578 0.37469 0.0
H517 H 0.62136 0.42718 0.39772 0.0
H518 H 0.63185 0.42411 0.33527 0.0
H519 H 0.59988 0.44554 0.30337 0.0
H520 H 0.58834 0.44782 0.36516 0.0
H521 H 0.56149 0.43084 0.31827 0.0
H522 H 0.50276 0.33404 0.37657 0.0
H523 H 0.49262 0.3483 0.45755 0.0
H524 H 0.57117 0.42139 0.44326 0.0
C525 C 0.58409 0.39529 0.25399 0.0
C526 C 0.56807 0.37672 0.21769 0.0
C527 C 0.54567 0.35221 0.23234 0.0
C528 C 0.53721 0.34729 0.28193 0.0
C529 C 0.55174 0.3669 0.31636 0.0
C530 C 0.57535 0.39012 0.30344 0.0
C531 C 0.58474 0.40921 0.34621 0.0
C532 C 0.61528 0.41437 0.36457 0.0
C533 C 0.58351 0.43484 0.33239 0.0
C534 C 0.56152 0.39377 0.38378 0.0
C535 C 0.54286 0.36934 0.36602 0.0
C536 C 0.51775 0.35277 0.39163 0.0
C537 C 0.51192 0.36118 0.43713 0.0
C538 C 0.53119 0.38587 0.45645 0.0
C539 C 0.55634 0.40225 0.42952 0.0
H540 H 0.18744 0.643 0.47975 0.0
H541 H 0.2122 0.58301 0.43312 0.0
H542 H 0.22968 0.5814 0.51726 0.0
H543 H 0.24752 0.67432 0.57728 0.0
H544 H 0.22251 0.67967 0.61733 0.0
H545 H 0.21922 0.68115 0.5511 0.0
H546 H 0.1652 0.64635 0.55654 0.0
H547 H 0.16835 0.64465 0.62235 0.0
H548 H 0.15664 0.61542 0.58566 0.0
H549 H 0.23374 0.57892 0.60837 0.0
H550 H 0.22468 0.57647 0.69829 0.0
H551 H 0.19843 0.63873 0.68576 0.0
C552 C 0.19761 0.63028 0.48668 0.0
C553 C 0.19834 0.61311 0.44984 0.0
C554 C 0.21129 0.59633 0.46074 0.0
C555 C 0.22151 0.5954 0.50841 0.0
C556 C 0.21906 0.61163 0.54461 0.0
C557 C 0.20783 0.62907 0.5341 0.0
C558 C 0.20361 0.6416 0.58073 0.0
C559 C 0.22447 0.67093 0.58165 0.0
C560 C 0.17156 0.63668 0.58664 0.0
C561 C 0.2121 0.62704 0.61924 0.0
C562 C 0.22168 0.61033 0.59774 0.0
C563 C 0.22708 0.59245 0.62575 0.0
C564 C 0.22172 0.5911 0.67682 0.0
C565 C 0.21085 0.60741 0.69918 0.0
C566 C 0.20714 0.62624 0.67007 0.0
H567 H 0.62009 0.17525 0.13655 0.0
H568 H 0.54313 0.18149 0.18888 0.0
H569 H 0.53416 0.19244 0.10423 0.0
H570 H 0.64166 0.227 0.03863 0.0
H571 H 0.65289 0.20835 -0.00249 0.0
H572 H 0.65627 0.20601 0.06351 0.0
H573 H 0.62571 0.15581 0.05833 0.0
H574 H 0.622 0.15798 -0.00737 0.0
H575 H 0.58987 0.14247 0.03073 0.0
H576 H 0.52944 0.19606 0.01197 0.0
H577 H 0.52961 0.19219 0.92099 0.0
H578 H 0.60951 0.18326 0.92991 0.0
C579 C 0.60181 0.17967 0.13072 0.0
C580 C 0.58236 0.17752 0.16959 0.0
C581 C 0.55846 0.1831 0.15988 0.0
C582 C 0.5532 0.1894 0.11187 0.0
C583 C 0.57219 0.19032 0.07406 0.0
C584 C 0.59621 0.18587 0.08313 0.0
C585 C 0.61154 0.18525 0.03562 0.0
C586 C 0.64242 0.20802 0.03372 0.0
C587 C 0.61229 0.15881 0.02896 0.0
C588 C 0.59164 0.18884 -0.00181 0.0
C589 C 0.56937 0.19222 0.02097 0.0
C590 C 0.5471 0.19391 -0.00625 0.0
C591 C 0.54735 0.19163 0.94202 0.0
C592 C 0.56957 0.18741 0.91809 0.0
C593 C 0.59229 0.18664 0.9468 0.0
H594 H 0.35431 0.58325 0.01048 0.0
H595 H 0.31442 0.50504 0.07205 0.0
H596 H 0.27156 0.49389 0.01645 0.0
H597 H 0.29103 0.5923 -0.00459 0.0
H598 H 0.30394 0.61009 0.93838 0.0
H599 H 0.32967 0.61071 0.98426 0.0
H600 H 0.3546 0.59432 0.91829 0.0
H601 H 0.32835 0.5929 0.8725 0.0
H602 H 0.33319 0.56422 0.88606 0.0
H603 H 0.23191 0.49317 0.95343 0.0
H604 H 0.20041 0.50371 0.89643 0.0
H605 H 0.27121 0.58092 0.87414 0.0
C606 C 0.33655 0.56374 0.0131 0.0
C607 C 0.3376 0.5451 0.04619 0.0
C608 C 0.31391 0.51976 0.04741 0.0
C609 C 0.28967 0.51324 0.01563 0.0
C610 C 0.28993 0.53213 0.98241 0.0
C611 C 0.31297 0.55686 0.98129 0.0
C612 C 0.30898 0.57399 0.94271 0.0
C613 C 0.30834 0.59818 0.96663 0.0
C614 C 0.33269 0.58182 0.90251 0.0
C615 C 0.27953 0.55543 0.92269 0.0
C616 C 0.26864 0.53127 0.94552 0.0
C617 C 0.24053 0.51189 0.93495 0.0
C618 C 0.22289 0.5179 0.9021 0.0
C619 C 0.23356 0.54304 0.88058 0.0
C620 C 0.2626 0.56143 0.88956 0.0
H621 H 0.8199 0.27971 0.37498 0.0
H622 H 0.80176 0.3361 0.29398 0.0
H623 H 0.76131 0.30097 0.25102 0.0
H624 H 0.79723 0.228 0.28036 0.0
H625 H 0.77882 0.20196 0.32402 0.0
H626 H 0.80975 0.23146 0.34351 0.0
H627 H 0.77871 0.23798 0.41308 0.0
H628 H 0.748 0.20826 0.39442 0.0
H629 H 0.74455 0.23824 0.39751 0.0
H630 H 0.72223 0.26061 0.21827 0.0
H631 H 0.67924 0.21772 0.21227 0.0
H632 H 0.71757 0.1861 0.32006 0.0
C633 C 0.8076 0.28455 0.34766 0.0
C634 C 0.81475 0.31087 0.33647 0.0
C635 C 0.79739 0.31634 0.30214 0.0
C636 C 0.77436 0.29639 0.27723 0.0
C637 C 0.76823 0.27073 0.28809 0.0
C638 C 0.78363 0.26463 0.32364 0.0
C639 C 0.76942 0.23544 0.33353 0.0
C640 C 0.79004 0.22352 0.31951 0.0
C641 C 0.75958 0.22964 0.38784 0.0
C642 C 0.74347 0.22633 0.29851 0.0
C643 C 0.74393 0.24704 0.27152 0.0
C644 C 0.72171 0.24414 0.23866 0.0
C645 C 0.69755 0.21969 0.23509 0.0
C646 C 0.6957 0.19861 0.26451 0.0
C647 C 0.7192 0.20172 0.29569 0.0
H648 H 0.4702 0.81605 0.66204 0.0
H649 H 0.55193 0.8548 0.74163 0.0
H650 H 0.56744 0.82228 0.70804 0.0
H651 H 0.45765 0.75328 0.68566 0.0
H652 H 0.44152 0.7407 0.62626 0.0
H653 H 0.4398 0.76906 0.65112 0.0
H654 H 0.46445 0.79504 0.57182 0.0
H655 H 0.46638 0.76667 0.54669 0.0
H656 H 0.49905 0.79704 0.55204 0.0
H657 H 0.57018 0.7808 0.67244 0.0
H658 H 0.5591 0.7361 0.64326 0.0
H659 H 0.47565 0.72681 0.58793 0.0
C660 C 0.49161 0.81803 0.67206 0.0
C661 C 0.5098 0.83783 0.70477 0.0
C662 C 0.53769 0.83981 0.71649 0.0
C663 C 0.54661 0.82143 0.69747 0.0
C664 C 0.5276 0.80164 0.66609 0.0
C665 C 0.50075 0.80021 0.65329 0.0
C666 C 0.48297 0.7764 0.62237 0.0
C667 C 0.45379 0.75884 0.6479 0.0
C668 C 0.47794 0.78426 0.57013 0.0
C669 C 0.50331 0.76373 0.62126 0.0
C670 C 0.52925 0.77861 0.64573 0.0
C671 C 0.55018 0.76936 0.65244 0.0
C672 C 0.54387 0.74404 0.63539 0.0
C673 C 0.51673 0.72827 0.61266 0.0
C674 C 0.49681 0.7387 0.60429 0.0
H675 H 0.66934 0.40199 0.04666 0.0
H676 H 0.69071 0.48366 0.06704 0.0
H677 H 0.73801 0.49615 0.02419 0.0
H678 H 0.74369 0.40881 0.06331 0.0
H679 H 0.73817 0.38418 0.01748 0.0
H680 H 0.70774 0.38256 0.05337 0.0
H681 H 0.68011 0.38115 0.97207 0.0
H682 H 0.71075 0.3835 0.93594 0.0
H683 H 0.69667 0.40705 0.92743 0.0
H684 H 0.78144 0.49903 0.97141 0.0
H685 H 0.81926 0.49197 0.92491 0.0
H686 H 0.76778 0.40833 0.9408 0.0
C687 C 0.68423 0.42253 0.04314 0.0
C688 C 0.67647 0.44188 0.06026 0.0
C689 C 0.69645 0.46853 0.05472 0.0
C690 C 0.72321 0.47578 0.03 0.0
C691 C 0.72962 0.45609 0.01165 0.0
C692 C 0.71087 0.43001 0.01899 0.0
C693 C 0.72226 0.41244 -0.00466 0.0
C694 C 0.72834 0.39604 0.03472 0.0
C695 C 0.70119 0.39502 0.95533 0.0
C696 C 0.75021 0.43262 0.97279 0.0
C697 C 0.7542 0.45773 0.9822 0.0
C698 C 0.77856 0.47943 0.96419 0.0
C699 C 0.79977 0.47526 0.93738 0.0
C700 C 0.79639 0.44963 0.92922 0.0
C701 C 0.771 0.42818 0.94644 0.0
H702 H 0.21683 0.69477 0.25288 0.0
H703 H 0.17227 0.7165 0.3672 0.0
H704 H 0.20296 0.76333 0.34663 0.0
H705 H 0.2854 0.74103 0.27854 0.0
H706 H 0.29758 0.74599 0.21511 0.0
H707 H 0.26874 0.71524 0.23375 0.0
H708 H 0.23533 0.71963 0.16578 0.0
H709 H 0.26412 0.75077 0.1475 0.0
H710 H 0.22881 0.74811 0.16456 0.0
H711 H 0.24397 0.80777 0.32037 0.0
H712 H 0.2922 0.84354 0.29797 0.0
H713 H 0.30854 0.79113 0.20195 0.0
C714 C 0.21304 0.70925 0.27336 0.0
C715 C 0.19225 0.702 0.3119 0.0
C716 C 0.18807 0.72164 0.33747 0.0
C717 C 0.20528 0.74823 0.32576 0.0
C718 C 0.22608 0.75462 0.2879 0.0
C719 C 0.22979 0.73547 0.26213 0.0
C720 C 0.25546 0.74676 0.22711 0.0
C721 C 0.27812 0.73668 0.23941 0.0
C722 C 0.24531 0.74097 0.17303 0.0
C723 C 0.26681 0.77541 0.23865 0.0
C724 C 0.24924 0.7798 0.27278 0.0
C725 C 0.25735 0.80458 0.29272 0.0
C726 C 0.28462 0.8249 0.27937 0.0
C727 C 0.30344 0.82012 0.24697 0.0
C728 C 0.2939 0.79541 0.22508 0.0
H729 H 0.55109 0.25519 0.73322 0.0
H730 H 0.46189 0.19525 0.74874 0.0
H731 H 0.444 0.22569 0.71441 0.0
H732 H 0.53752 0.31131 0.76256 0.0
H733 H 0.56312 0.33195 0.71723 0.0
H734 H 0.56905 0.30649 0.74681 0.0
H735 H 0.57167 0.28712 0.66225 0.0
H736 H 0.56516 0.31151 0.63021 0.0
H737 H 0.54153 0.27762 0.61961 0.0
H738 H 0.43642 0.2622 0.67253 0.0
H739 H 0.4394 0.302 0.63189 0.0
H740 H 0.53378 0.33746 0.6429 0.0
C741 C 0.52773 0.24856 0.73046 0.0
C742 C 0.50787 0.22282 0.74389 0.0
C743 C 0.47751 0.21492 0.7391 0.0
C744 C 0.46717 0.23207 0.71945 0.0
C745 C 0.48748 0.25707 0.70513 0.0
C746 C 0.5171 0.26537 0.71114 0.0
C747 C 0.53456 0.29258 0.69058 0.0
C748 C 0.55211 0.3117 0.73173 0.0
C749 C 0.55441 0.29218 0.64819 0.0
C750 C 0.51022 0.29846 0.6717 0.0
C751 C 0.4832 0.27774 0.68048 0.0
C752 C 0.45748 0.27855 0.66583 0.0
C753 C 0.45943 0.30123 0.64253 0.0
C754 C 0.48688 0.32291 0.63398 0.0
C755 C 0.51255 0.32125 0.64847 0.0
H756 H 0.44272 0.50361 0.12343 0.0
H757 H 0.51468 0.56974 0.19138 0.0
H758 H 0.54059 0.54283 0.20457 0.0
H759 H 0.4491 0.45117 0.20091 0.0
H760 H 0.44034 0.42956 0.14844 0.0
H761 H 0.42484 0.45227 0.15355 0.0
H762 H 0.44552 0.47081 0.06701 0.0
H763 H 0.4614 0.44851 0.06189 0.0
H764 H 0.48413 0.4831 0.05564 0.0
H765 H 0.56242 0.51189 0.19649 0.0
H766 H 0.57745 0.47817 0.17155 0.0
H767 H 0.49104 0.43164 0.11066 0.0
C768 C 0.46338 0.51214 0.1429 0.0
C769 C 0.47657 0.53876 0.15661 0.0
C770 C 0.50407 0.54938 0.18067 0.0
C771 C 0.51895 0.53422 0.18848 0.0
C772 C 0.50595 0.5084 0.17246 0.0
C773 C 0.47858 0.49729 0.15081 0.0
C774 C 0.47092 0.47007 0.13198 0.0
C775 C 0.44475 0.44955 0.16044 0.0
C776 C 0.46517 0.46803 0.07582 0.0
C777 C 0.49878 0.46814 0.14433 0.0
C778 C 0.51857 0.49032 0.16821 0.0
C779 C 0.54688 0.49416 0.17885 0.0
C780 C 0.55528 0.47498 0.16423 0.0
C781 C 0.53543 0.45222 0.1392 0.0
C782 C 0.50664 0.44861 0.13026 0.0
H783 H 0.96735 0.43926 0.40788 0.0
H784 H 0.91348 0.48024 0.41081 0.0
H785 H 0.9578 0.52231 0.41424 0.0
H786 H 0.02777 0.48591 0.48773 0.0
H787 H 0.05508 0.48224 0.45085 0.0
H788 H 0.01919 0.45537 0.4571 0.0
H789 H 0.01389 0.45246 0.36158 0.0
H790 H 0.04961 0.47931 0.35508 0.0
H791 H 0.01852 0.48102 0.32703 0.0
H792 H 0.00811 0.56012 0.40613 0.0
H793 H 0.05957 0.5898 0.38612 0.0
H794 H 0.08002 0.52382 0.38882 0.0
C795 C 0.9648 0.45701 0.41089 0.0
C796 C 0.93686 0.45635 0.4095 0.0
C797 C 0.93461 0.48017 0.41206 0.0
C798 C 0.95969 0.50421 0.41419 0.0
C799 C 0.98693 0.50419 0.41396 0.0
C800 C 0.9896 0.48117 0.4127 0.0
C801 C 0.02122 0.48644 0.40761 0.0
C802 C 0.03141 0.47692 0.45357 0.0
C803 C 0.02608 0.47408 0.36001 0.0
C804 C 0.03581 0.51593 0.40454 0.0
C805 C 0.01581 0.52592 0.40898 0.0
C806 C 0.02405 0.55255 0.40348 0.0
C807 C 0.05336 0.56929 0.39214 0.0
C808 C 0.074 0.55927 0.38597 0.0
C809 C 0.065 0.53229 0.39361 0.0
H810 H 0.54161 0.08216 0.84758 0.0
H811 H 0.49184 0.0919 0.72616 0.0
H812 H 0.47189 0.04492 0.70721 0.0
H813 H 0.55989 0.03581 0.79342 0.0
H814 H 0.55454 0.01591 0.84776 0.0
H815 H 0.56433 0.05015 0.8541 0.0
H816 H 0.51872 0.03953 0.90845 0.0
H817 H 0.50919 1.00527 0.90343 0.0
H818 H 0.48318 0.01708 0.88581 0.0
H819 H 0.46372 0.9992 0.69332 0.0
H820 H 0.4561 0.95361 0.69843 0.0
H821 H 0.50453 0.97049 0.83609 0.0
C822 C 0.52584 0.07417 0.81796 0.0
C823 C 0.51809 0.09061 0.78844 0.0
C824 C 0.49767 0.0796 0.74968 0.0
C825 C 0.48653 0.05301 0.73825 0.0
C826 C 0.49541 0.03753 0.76683 0.0
C827 C 0.51367 0.04739 0.80708 0.0
C828 C 0.51878 0.02606 0.83264 0.0
C829 C 0.55132 0.03237 0.83192 0.0
C830 C 0.50674 0.02172 0.88573 0.0
C831 C 0.50101 1.00282 0.79975 0.0
C832 C 0.48836 0.01022 0.76139 0.0
C833 C 0.47262 0.99296 0.7241 0.0
C834 C 0.46833 0.96711 0.7274 0.0
C835 C 0.47882 0.95843 0.76842 0.0
C836 C 0.49607 0.97663 0.80455 0.0
H837 H 0.45373 0.54712 0.56612 0.0
H838 H 0.54028 0.61198 0.57858 0.0
H839 H 0.56193 0.58102 0.57076 0.0
H840 H 0.46718 0.50417 0.64032 0.0
H841 H 0.44472 0.47546 0.60505 0.0
H842 H 0.43659 0.50298 0.60536 0.0
H843 H 0.43956 0.50514 0.50961 0.0
H844 H 0.44755 0.47748 0.50892 0.0
H845 H 0.47199 0.50749 0.47908 0.0
H846 H 0.57346 0.54179 0.56959 0.0
H847 H 0.57401 0.49889 0.57411 0.0
H848 H 0.4794 0.46042 0.56343 0.0
C849 C 0.47732 0.55509 0.56633 0.0
C850 C 0.49528 0.58217 0.57285 0.0
C851 C 0.52601 0.59143 0.57322 0.0
C852 C 0.53849 0.57395 0.56892 0.0
C853 C 0.51995 0.5473 0.56397 0.0
C854 C 0.49 0.53802 0.56232 0.0
C855 C 0.47456 0.5085 0.56012 0.0
C856 C 0.4546 0.49712 0.6054 0.0
C857 C 0.45741 0.49911 0.51153 0.0
C858 C 0.50045 0.50239 0.56159 0.0
C859 C 0.52648 0.52497 0.56349 0.0
C860 C 0.5532 0.52405 0.56752 0.0
C861 C 0.55325 0.49952 0.57011 0.0
C862 C 0.52675 0.4761 0.56883 0.0
C863 C 0.5001 0.47779 0.56391 0.0
H864 H 0.0909 0.5153 0.80853 0.0
H865 H 0.08591 0.58675 0.76861 0.0
H866 H 0.03239 0.56258 0.76406 0.0
H867 H 0.02613 0.46984 0.73255 0.0
H868 H 0.0153 0.445 0.7797 0.0
H869 H 0.05341 0.46685 0.77069 0.0
H870 H 0.05766 0.47991 0.86322 0.0
H871 H 0.01961 0.45846 0.87241 0.0
H872 H 0.03376 0.49254 0.88803 0.0
H873 H 0.97971 0.53288 0.77911 0.0
H874 H 0.93185 0.49886 0.80702 0.0
H875 H 0.97097 0.44642 0.8336 0.0
C876 C 0.07868 0.52571 0.79705 0.0
C877 C 0.09273 0.55295 0.78894 0.0
C878 C 0.07576 0.56589 0.775 0.0
C879 C 0.04527 0.55232 0.77218 0.0
C880 C 0.03204 0.52572 0.78263 0.0
C881 C 0.04821 0.51244 0.79394 0.0
C882 C 0.02861 0.48445 0.80828 0.0
C883 C 0.031 0.46541 0.77054 0.0
C884 C 0.03531 0.47852 0.8611 0.0
C885 C 0.99905 0.48447 0.80552 0.0
C886 C 1.00143 0.50836 0.79023 0.0
C887 C 0.97744 0.51385 0.78992 0.0
C888 C 0.95038 0.49447 0.80611 0.0
C889 C 0.94757 0.46991 0.82228 0.0
C890 C 0.97219 0.46481 0.82081 0.0
H891 H 0.49811 0.94624 0.29008 0.0
H892 H 0.42523 0.94016 0.19935 0.0
H893 H 0.45235 0.98688 0.17812 0.0
H894 H 0.51301 0.00689 0.34141 0.0
H895 H 0.55206 0.01849 0.34312 0.0
H896 H 0.52835 0.98405 0.34603 0.0
H897 H 0.55485 0.97675 0.27007 0.0
H898 H 0.57841 0.01131 0.26662 0.0
H899 H 0.55722 0.99427 0.21347 0.0
H900 H 0.48493 0.03469 0.17333 0.0
H901 H 0.51906 0.08071 0.18994 0.0
H902 H 0.57104 0.056 0.28331 0.0
C903 C 0.48796 0.95455 0.26508 0.0
C904 C 0.45952 0.93941 0.2462 0.0
C905 C 0.44695 0.95129 0.21431 0.0
C906 C 0.46228 0.97778 0.20173 0.0
C907 C 0.49018 0.99213 0.22127 0.0
C908 C 0.50285 0.98097 0.25246 0.0
C909 C 0.53189 1.00118 0.2722 0.0
C910 C 0.53127 1.00274 0.32904 0.0
C911 C 0.55708 0.99553 0.25452 0.0
C912 C 0.53328 0.02563 0.24819 0.0
C913 C 0.50917 0.01988 0.21837 0.0
C914 C 0.50416 0.03939 0.19576 0.0
C915 C 0.52368 0.06544 0.20527 0.0
C916 C 0.54794 0.07178 0.23698 0.0
C917 C 0.55327 0.05162 0.25748 0.0
H918 H 0.48757 0.60491 0.74161 0.0
H919 H 0.43241 0.64447 0.73642 0.0
H920 H 0.42294 0.63702 0.82622 0.0
H921 H 0.44279 0.55413 0.83491 0.0
H922 H 0.47534 0.55473 0.86113 0.0
H923 H 0.47457 0.56195 0.7965 0.0
H924 H 0.52125 0.60558 0.81268 0.0
H925 H 0.51965 0.59816 0.87759 0.0
H926 H 0.51967 0.62825 0.8574 0.0
H927 H 0.42389 0.62966 0.91607 0.0
H928 H 0.4247 0.61318 -6e-05 0.0
H929 H 0.47501 0.57414 0.94658 0.0
C930 C 0.4729 0.61131 0.75946 0.0
C931 C 0.46014 0.62475 0.73273 0.0
C932 C 0.44169 0.63359 0.75667 0.0
C933 C 0.4365 0.62969 0.80748 0.0
C934 C 0.44987 0.61682 0.83319 0.0
C935 C 0.46683 0.6069 0.80989 0.0
C936 C 0.47816 0.5934 0.8463 0.0
C937 C 0.46701 0.56433 0.83386 0.0
C938 C 0.51169 0.60721 0.84867 0.0
C939 C 0.46468 0.59714 0.89363 0.0
C940 C 0.44925 0.61142 0.88523 0.0
C941 C 0.43553 0.61817 0.92309 0.0
C942 C 0.43631 0.60891 0.97051 0.0
C943 C 0.45002 0.59259 0.97914 0.0
C944 C 0.46469 0.58683 0.94056 0.0
H945 H 0.92462 0.42263 0.24034 0.0
H946 H 0.84185 0.35414 0.25281 0.0
H947 H 0.83333 0.3551 0.16376 0.0
H948 H 0.90573 0.45762 0.14185 0.0
H949 H 0.94128 0.46811 0.1153 0.0
H950 H 0.93619 0.46123 0.18054 0.0
H951 H 0.96105 0.43041 0.16145 0.0
H952 H 0.9603 0.43491 0.09553 0.0
H953 H 0.94232 0.4026 0.12181 0.0
H954 H 0.8323 0.36421 0.07655 0.0
H955 H 0.83762 0.38246 -0.00726 0.0
H956 H 0.92206 0.44486 0.03206 0.0
C957 C 0.90463 0.40815 0.22399 0.0
C958 C 0.88277 0.389 0.25347 0.0
C959 C 0.85754 0.36974 0.23113 0.0
C960 C 0.85296 0.36987 0.18044 0.0
C961 C 0.87441 0.38921 0.15233 0.0
C962 C 0.89975 0.40812 0.17289 0.0
C963 C 0.91915 0.42647 0.13324 0.0
C964 C 0.92596 0.45502 0.14355 0.0
C965 C 0.94739 0.42341 0.12764 0.0
C966 C 0.8996 0.41593 0.08831 0.0
C967 C 0.87436 0.39391 0.10026 0.0
C968 C 0.85211 0.38119 0.06633 0.0
C969 C 0.85534 0.39164 0.01893 0.0
C970 C 0.88055 0.41454 0.00614 0.0
C971 C 0.90299 0.42691 0.04104 0.0
H972 H 0.43219 0.9116 0.62475 0.0
H973 H 0.40709 0.83078 0.66094 0.0
H974 H 0.3857 0.81755 0.57781 0.0
H975 H 0.36255 0.89304 0.53516 0.0
H976 H 0.38438 0.92077 0.497 0.0
H977 H 0.38885 0.92281 0.56321 0.0
H978 H 0.44251 0.93814 0.54992 0.0
H979 H 0.44095 0.93294 0.48427 0.0
H980 H 0.45596 0.9167 0.52447 0.0
H981 H 0.3815 0.81514 0.48732 0.0
H982 H 0.38416 0.82221 0.39684 0.0
H983 H 0.40828 0.90418 0.41987 0.0
C984 C 0.42033 0.89104 0.61599 0.0
C985 C 0.4206 0.87207 0.64865 0.0
C986 C 0.40627 0.84536 0.63621 0.0
C987 C 0.39409 0.83772 0.58925 0.0
C988 C 0.39555 0.85704 0.55648 0.0
C989 C 0.40672 0.88304 0.57015 0.0
C990 C 0.4082 0.90014 0.52645 0.0
C991 C 0.38458 0.90973 0.53073 0.0
C992 C 0.4387 0.92329 0.52075 0.0
C993 C 0.40087 0.8804 0.48518 0.0
C994 C 0.39258 0.85551 0.50347 0.0
C995 C 0.38697 0.83434 0.47253 0.0
C996 C 0.38907 0.83858 0.42146 0.0
C997 C 0.39713 0.86381 0.4023 0.0
C998 C 0.40253 0.88484 0.43429 0.0
H999 H 0.51503 0.43462 0.74778 0.0
H1000 H 0.52837 0.36834 0.70061 0.0
H1001 H 0.54228 0.3627 0.78509 0.0
H1002 H 0.5773 0.46101 0.83713 0.0
H1003 H 0.55669 0.47151 0.87738 0.0
H1004 H 0.5501 0.46968 0.81173 0.0
H1005 H 0.49583 0.44127 0.8346 0.0
H1006 H 0.50346 0.43979 0.89926 0.0
H1007 H 0.48517 0.41015 0.86376 0.0
H1008 H 0.55444 0.36384 0.87302 0.0
H1009 H 0.56844 0.37409 0.96073 0.0
H1010 H 0.54933 0.44058 0.95217 0.0
C1011 C 0.52115 0.41914 0.75553 0.0
C1012 C 0.521 0.40202 0.71801 0.0
C1013 C 0.52869 0.38173 0.72896 0.0
C1014 C 0.53653 0.37834 0.77681 0.0
C1015 C 0.53662 0.39554 0.81312 0.0
C1016 C 0.52973 0.41587 0.80312 0.0
C1017 C 0.53212 0.43174 0.8492 0.0
C1018 C 0.55544 0.46015 0.84337 0.0
C1019 C 0.50238 0.43064 0.86259 0.0
C1020 C 0.5416 0.41716 0.88629 0.0
C1021 C 0.5437 0.39618 0.86462 0.0
C1022 C 0.55279 0.38011 0.89066 0.0
C1023 C 0.56053 0.38595 0.94025 0.0
C1024 C 0.55908 0.40759 0.96276 0.0
C1025 C 0.54981 0.42355 0.93556 0.0
H1026 H 0.12173 0.5758 0.96761 0.0
H1027 H 0.21476 0.62457 0.95317 0.0
H1028 H 0.21752 0.63633 0.0416 0.0
H1029 H 0.11026 0.6209 0.06309 0.0
H1030 H 0.08215 0.59289 0.09316 0.0
H1031 H 0.08721 0.59257 0.02726 0.0
H1032 H 0.09176 0.54995 0.0377 0.0
H1033 H 0.08927 0.55072 0.10394 0.0
H1034 H 0.12061 0.54953 0.07524 0.0
H1035 H 0.21195 0.63476 0.13224 0.0
H1036 H 0.19664 0.6296 0.21966 0.0
H1037 H 0.1062 0.58534 0.17553 0.0
C1038 C 0.14231 0.58994 0.98283 0.0
C1039 C 0.16795 0.5998 0.95417 0.0
C1040 C 0.19487 0.61748 0.97482 0.0
C1041 C 0.19663 0.6241 0.02486 0.0
C1042 C 0.17111 0.61323 0.05286 0.0
C1043 C 0.1442 0.59752 0.03226 0.0
C1044 C 0.1204 0.58766 0.07115 0.0
C1045 C 0.09874 0.59921 0.06316 0.0
C1046 C 0.10459 0.55767 0.07213 0.0
C1047 C 0.1385 0.59869 0.11722 0.0
C1048 C 0.16769 0.61332 0.10563 0.0
C1049 C 0.18909 0.624 0.14179 0.0
C1050 C 0.18026 0.62066 0.19117 0.0
C1051 C 0.15037 0.60693 0.20366 0.0
C1052 C 0.12918 0.59578 0.16644 0.0
H1053 H 0.60074 0.19449 0.63051 0.0
H1054 H 0.53944 0.11606 0.67219 0.0
H1055 H 0.54814 0.09924 0.59295 0.0
H1056 H 0.57583 0.19177 0.51986 0.0
H1057 H 0.60812 0.20853 0.48258 0.0
H1058 H 0.60847 0.21617 0.5472 0.0
H1059 H 0.65022 0.20563 0.5696 0.0
H1060 H 0.65428 0.20108 0.50456 0.0
H1061 H 0.65018 0.17579 0.548 0.0
H1062 H 0.56295 0.09114 0.50908 0.0
H1063 H 0.57415 0.09325 0.41943 0.0
H1064 H 0.61654 0.17763 0.4264 0.0
C1065 C 0.59049 0.17366 0.6237 0.0
C1066 C 0.57091 0.1562 0.65823 0.0
C1067 C 0.55565 0.12936 0.64685 0.0
C1068 C 0.56048 0.11968 0.60213 0.0
C1069 C 0.57989 0.13731 0.56855 0.0
C1070 C 0.59444 0.16381 0.57842 0.0
C1071 C 0.60978 0.17901 0.53262 0.0
C1072 C 0.59994 0.20008 0.51968 0.0
C1073 C 0.6431 0.19109 0.53911 0.0
C1074 C 0.59959 0.15715 0.49495 0.0
C1075 C 0.58405 0.13314 0.51718 0.0
C1076 C 0.57454 0.10983 0.49093 0.0
C1077 C 0.58064 0.11115 0.44021 0.0
C1078 C 0.59437 0.13555 0.41629 0.0
C1079 C 0.60454 0.15881 0.44398 0.0
loop_
_geom_bond_atom_site_label_1
_geom_bond_atom_site_label_2
_geom_bond_distance
_geom_bond_site_symmetry_2
_ccdc_geom_bond_type
Mn0 O5 2.095 . S
Mn0 O15 2.162 . S
Mn0 O16 2.297 . S
Mn0 O24 2.385 1_554 S
Mn0 O25 2.209 . S
Mn0 O26 2.094 . S
Mn1 O6 2.121 . S
Mn1 N8 2.257 . S
Mn1 N17 2.282 1_554 S
Mn1 O25 2.215 . S
Mn1 O27 2.117 . S
C2 O24 1.234 . S
C2 O25 1.283 1_556 S
C3 O15 1.281 . S
C3 O16 1.236 . S
C4 O26 1.240 . S
C4 O27 1.264 . S
O5 Mn0 2.095 . S
O5 C14 1.250 . S
O6 Mn1 2.121 . S
O6 C14 1.258 . S
C7 N8 1.326 . S
C7 C11 1.460 . S
C7 H13 0.929 . S
N8 Mn1 2.257 . S
N8 C7 1.326 . S
N8 C12 1.362 1_554 S
C9 C10 1.258 1_556 S
C9 C12 1.431 . S
C9 C29 1.449 . S
C10 C9 1.258 1_554 S
C10 C11 1.477 . S
C10 H30 0.931 . S
C11 C7 1.460 . S
C11 C10 1.477 . S
C11 H31 0.930 . S
C12 N8 1.362 1_556 S
C12 C9 1.431 . S
C12 C22 1.476 . S
H13 C7 0.929 . S
C14 O5 1.250 . S
C14 O6 1.258 . S
O15 Mn0 2.162 . S
O15 C3 1.281 . S
O16 Mn0 2.297 . S
O16 C3 1.236 . S
N17 Mn1 2.282 1_556 S
N17 C18 1.328 . S
N17 C22 1.318 . S
C18 N17 1.328 . S
C18 C19 1.457 . S
C18 H23 0.929 . S
C19 C18 1.457 . S
C19 C20 1.291 . S
C19 H32 0.931 . S
C20 C19 1.291 . S
C20 C21 1.373 . S
C20 H33 0.929 . S
C21 C20 1.373 . S
C21 C22 1.396 . S
C21 C28 1.403 . S
C22 C12 1.476 . S
C22 N17 1.318 . S
C22 C21 1.396 . S
H23 C18 0.929 . S
O24 Mn0 2.385 1_556 S
O24 C2 1.234 . S
O25 Mn0 2.209 . S
O25 Mn1 2.215 . S
O25 C2 1.283 1_554 S
O26 Mn0 2.094 . S
O26 C4 1.240 . S
O27 Mn1 2.117 . S
O27 C4 1.264 . S
C28 C21 1.403 . S
C28 C29 1.399 . S
C28 H34 0.929 . S
C29 C9 1.449 . S
C29 C28 1.399 . S
C29 H35 0.930 . S
H30 C10 0.931 . S
H31 C11 0.930 . S
H32 C19 0.931 . S
H33 C20 0.929 . S
H34 C28 0.929 . S
H35 C29 0.930 . S
Mn36 O41 2.095 . S
Mn36 O51 2.162 . S
Mn36 O52 2.297 . S
Mn36 O60 2.385 . S
Mn36 O61 2.209 . S
Mn36 O62 2.094 . S
Mn37 O42 2.121 . S
Mn37 N44 2.257 . S
Mn37 N53 2.282 . S
Mn37 O61 2.215 . S
Mn37 O63 2.117 . S
C38 O60 1.234 . S
C38 O61 1.283 . S
C39 O51 1.281 . S
C39 O52 1.236 . S
C40 O62 1.240 . S
C40 O63 1.264 . S
O41 Mn36 2.095 . S
O41 C50 1.250 . S
O42 Mn37 2.121 . S
O42 C50 1.258 . S
C43 N44 1.326 . S
C43 C47 1.460 . S
C43 H49 0.929 . S
N44 Mn37 2.257 . S
N44 C43 1.326 . S
N44 C48 1.362 . S
C45 C46 1.258 . S
C45 C48 1.431 . S
C45 C65 1.449 . S
C46 C45 1.258 . S
C46 C47 1.477 . S
C46 H66 0.931 . S
C47 C43 1.460 . S
C47 C46 1.477 . S
C47 H67 0.930 . S
C48 N44 1.362 . S
C48 C45 1.431 . S
C48 C58 1.476 . S
H49 C43 0.929 . S
C50 O41 1.250 . S
C50 O42 1.258 . S
O51 Mn36 2.162 . S
O51 C39 1.281 . S
O52 Mn36 2.297 . S
O52 C39 1.236 . S
N53 Mn37 2.282 . S
N53 C54 1.328 . S
N53 C58 1.318 . S
C54 N53 1.328 . S
C54 C55 1.457 . S
C54 H59 0.929 . S
C55 C54 1.457 . S
C55 C56 1.291 . S
C55 H68 0.931 . S
C56 C55 1.291 . S
C56 C57 1.373 . S
C56 H69 0.929 . S
C57 C56 1.373 . S
C57 C58 1.396 . S
C57 C64 1.403 . S
C58 C48 1.476 . S
C58 N53 1.318 . S
C58 C57 1.396 . S
H59 C54 0.929 . S
O60 Mn36 2.385 . S
O60 C38 1.234 . S
O61 Mn36 2.209 . S
O61 Mn37 2.215 . S
O61 C38 1.283 . S
O62 Mn36 2.094 . S
O62 C40 1.240 . S
O63 Mn37 2.117 . S
O63 C40 1.264 . S
C64 C57 1.403 . S
C64 C65 1.399 . S
C64 H70 0.929 . S
C65 C45 1.449 . S
C65 C64 1.399 . S
C65 H71 0.930 . S
H66 C46 0.931 . S
H67 C47 0.930 . S
H68 C55 0.931 . S
H69 C56 0.929 . S
H70 C64 0.929 . S
H71 C65 0.930 . S
Mn72 O77 2.095 . S
Mn72 O87 2.162 . S
Mn72 O88 2.297 . S
Mn72 O96 2.385 . S
Mn72 O97 2.209 . S
Mn72 O98 2.094 . S
Mn73 O78 2.121 . S
Mn73 N80 2.257 . S
Mn73 N89 2.282 . S
Mn73 O97 2.215 . S
Mn73 O99 2.117 . S
C74 O96 1.234 . S
C74 O97 1.283 . S
C75 O87 1.281 . S
C75 O88 1.236 . S
C76 O98 1.240 . S
C76 O99 1.264 . S
O77 Mn72 2.095 . S
O77 C86 1.250 . S
O78 Mn73 2.121 . S
O78 C86 1.258 . S
C79 N80 1.326 . S
C79 C83 1.460 . S
C79 H85 0.929 . S
N80 Mn73 2.257 . S
N80 C79 1.326 . S
N80 C84 1.362 . S
C81 C82 1.258 . S
C81 C84 1.431 . S
C81 C101 1.449 . S
C82 C81 1.258 . S
C82 C83 1.477 . S
C82 H102 0.931 . S
C83 C79 1.460 . S
C83 C82 1.477 . S
C83 H103 0.930 . S
C84 N80 1.362 . S
C84 C81 1.431 . S
C84 C94 1.476 . S
H85 C79 0.929 . S
C86 O77 1.250 . S
C86 O78 1.258 . S
O87 Mn72 2.162 . S
O87 C75 1.281 . S
O88 Mn72 2.297 . S
O88 C75 1.236 . S
N89 Mn73 2.282 . S
N89 C90 1.328 . S
N89 C94 1.318 . S
C90 N89 1.328 . S
C90 C91 1.457 . S
C90 H95 0.929 . S
C91 C90 1.457 . S
C91 C92 1.291 . S
C91 H104 0.931 . S
C92 C91 1.291 . S
C92 C93 1.373 . S
C92 H105 0.929 . S
C93 C92 1.373 . S
C93 C94 1.396 . S
C93 C100 1.403 . S
C94 C84 1.476 . S
C94 N89 1.318 . S
C94 C93 1.396 . S
H95 C90 0.929 . S
O96 Mn72 2.385 . S
O96 C74 1.234 . S
O97 Mn72 2.209 . S
O97 Mn73 2.215 . S
O97 C74 1.283 . S
O98 Mn72 2.094 . S
O98 C76 1.240 . S
O99 Mn73 2.117 . S
O99 C76 1.264 . S
C100 C93 1.403 . S
C100 C101 1.399 . S
C100 H106 0.929 . S
C101 C81 1.449 . S
C101 C100 1.399 . S
C101 H107 0.930 . S
H102 C82 0.931 . S
H103 C83 0.930 . S
H104 C91 0.931 . S
H105 C92 0.929 . S
H106 C100 0.929 . S
H107 C101 0.930 . S
Mn108 O113 2.095 . S
Mn108 O123 2.162 . S
Mn108 O124 2.297 . S
Mn108 O132 2.385 1_554 S
Mn108 O133 2.209 . S
Mn108 O134 2.094 . S
Mn109 O114 2.121 . S
Mn109 N116 2.257 . S
Mn109 N125 2.282 1_554 S
Mn109 O133 2.215 . S
Mn109 O135 2.117 . S
C110 O132 1.234 . S
C110 O133 1.283 1_556 S
C111 O123 1.281 . S
C111 O124 1.236 . S
C112 O134 1.240 . S
C112 O135 1.264 . S
O113 Mn108 2.095 . S
O113 C122 1.250 . S
O114 Mn109 2.121 . S
O114 C122 1.258 . S
C115 N116 1.326 . S
C115 C119 1.460 . S
C115 H121 0.929 . S
N116 Mn109 2.257 . S
N116 C115 1.326 . S
N116 C120 1.362 1_554 S
C117 C118 1.258 1_556 S
C117 C120 1.431 . S
C117 C137 1.449 . S
C118 C117 1.258 1_554 S
C118 C119 1.477 . S
C118 H138 0.931 . S
C119 C115 1.460 . S
C119 C118 1.477 . S
C119 H139 0.930 . S
C120 N116 1.362 1_556 S
C120 C117 1.431 . S
C120 C130 1.476 . S
H121 C115 0.929 . S
C122 O113 1.250 . S
C122 O114 1.258 . S
O123 Mn108 2.162 . S
O123 C111 1.281 . S
O124 Mn108 2.297 . S
O124 C111 1.236 . S
N125 Mn109 2.282 1_556 S
N125 C126 1.328 . S
N125 C130 1.318 . S
C126 N125 1.328 . S
C126 C127 1.457 . S
C126 H131 0.929 . S
C127 C126 1.457 . S
C127 C128 1.291 . S
C127 H140 0.931 . S
C128 C127 1.291 . S
C128 C129 1.373 . S
C128 H141 0.929 . S
C129 C128 1.373 . S
C129 C130 1.396 . S
C129 C136 1.403 . S
C130 C120 1.476 . S
C130 N125 1.318 . S
C130 C129 1.396 . S
H131 C126 0.929 . S
O132 Mn108 2.385 1_556 S
O132 C110 1.234 . S
O133 Mn108 2.209 . S
O133 Mn109 2.215 . S
O133 C110 1.283 1_554 S
O134 Mn108 2.094 . S
O134 C112 1.240 . S
O135 Mn109 2.117 . S
O135 C112 1.264 . S
C136 C129 1.403 . S
C136 C137 1.399 . S
C136 H142 0.929 . S
C137 C117 1.449 . S
C137 C136 1.399 . S
C137 H143 0.930 . S
H138 C118 0.931 . S
H139 C119 0.930 . S
H140 C127 0.931 . S
H141 C128 0.929 . S
H142 C136 0.929 . S
H143 C137 0.930 . S
Mn144 O149 2.095 . S
Mn144 O159 2.162 . S
Mn144 O160 2.297 . S
Mn144 O168 2.385 . S
Mn144 O169 2.209 . S
Mn144 O170 2.094 . S
Mn145 O150 2.121 . S
Mn145 N152 2.257 . S
Mn145 N161 2.282 . S
Mn145 O169 2.215 . S
Mn145 O171 2.117 . S
C146 O168 1.234 . S
C146 O169 1.283 . S
C147 O159 1.281 . S
C147 O160 1.236 . S
C148 O170 1.240 . S
C148 O171 1.264 . S
O149 Mn144 2.095 . S
O149 C158 1.250 . S
O150 Mn145 2.121 . S
O150 C158 1.258 . S
C151 N152 1.326 . S
C151 C155 1.460 . S
C151 H157 0.929 . S
N152 Mn145 2.257 . S
N152 C151 1.326 . S
N152 C156 1.362 . S
C153 C154 1.258 . S
C153 C156 1.431 . S
C153 C173 1.449 . S
C154 C153 1.258 . S
C154 C155 1.477 . S
C154 H174 0.931 . S
C155 C151 1.460 . S
C155 C154 1.477 . S
C155 H175 0.930 . S
C156 N152 1.362 . S
C156 C153 1.431 . S
C156 C166 1.476 . S
H157 C151 0.929 . S
C158 O149 1.250 . S
C158 O150 1.258 . S
O159 Mn144 2.162 . S
O159 C147 1.281 . S
O160 Mn144 2.297 . S
O160 C147 1.236 . S
N161 Mn145 2.282 . S
N161 C162 1.328 . S
N161 C166 1.318 . S
C162 N161 1.328 . S
C162 C163 1.457 . S
C162 H167 0.929 . S
C163 C162 1.457 . S
C163 C164 1.291 . S
C163 H176 0.931 . S
C164 C163 1.291 . S
C164 C165 1.373 . S
C164 H177 0.929 . S
C165 C164 1.373 . S
C165 C166 1.396 . S
C165 C172 1.403 . S
C166 C156 1.476 . S
C166 N161 1.318 . S
C166 C165 1.396 . S
H167 C162 0.929 . S
O168 Mn144 2.385 . S
O168 C146 1.234 . S
O169 Mn144 2.209 . S
O169 Mn145 2.215 . S
O169 C146 1.283 . S
O170 Mn144 2.094 . S
O170 C148 1.240 . S
O171 Mn145 2.117 . S
O171 C148 1.264 . S
C172 C165 1.403 . S
C172 C173 1.399 . S
C172 H178 0.929 . S
C173 C153 1.449 . S
C173 C172 1.399 . S
C173 H179 0.930 . S
H174 C154 0.931 . S
H175 C155 0.930 . S
H176 C163 0.931 . S
H177 C164 0.929 . S
H178 C172 0.929 . S
H179 C173 0.930 . S
Mn180 O185 2.095 . S
Mn180 O195 2.162 . S
Mn180 O196 2.297 . S
Mn180 O204 2.385 . S
Mn180 O205 2.209 . S
Mn180 O206 2.094 . S
Mn181 O186 2.121 . S
Mn181 N188 2.257 . S
Mn181 N197 2.282 . S
Mn181 O205 2.215 . S
Mn181 O207 2.117 . S
C182 O204 1.234 . S
C182 O205 1.283 . S
C183 O195 1.281 . S
C183 O196 1.236 . S
C184 O206 1.240 . S
C184 O207 1.264 . S
O185 Mn180 2.095 . S
O185 C194 1.250 . S
O186 Mn181 2.121 . S
O186 C194 1.258 . S
C187 N188 1.326 . S
C187 C191 1.460 . S
C187 H193 0.929 . S
N188 Mn181 2.257 . S
N188 C187 1.326 . S
N188 C192 1.362 . S
C189 C190 1.258 . S
C189 C192 1.431 . S
C189 C209 1.449 . S
C190 C189 1.258 . S
C190 C191 1.477 . S
C190 H210 0.931 . S
C191 C187 1.460 . S
C191 C190 1.477 . S
C191 H211 0.930 . S
C192 N188 1.362 . S
C192 C189 1.431 . S
C192 C202 1.476 . S
H193 C187 0.929 . S
C194 O185 1.250 . S
C194 O186 1.258 . S
O195 Mn180 2.162 . S
O195 C183 1.281 . S
O196 Mn180 2.297 . S
O196 C183 1.236 . S
N197 Mn181 2.282 . S
N197 C198 1.328 . S
N197 C202 1.318 . S
C198 N197 1.328 . S
C198 C199 1.457 . S
C198 H203 0.929 . S
C199 C198 1.457 . S
C199 C200 1.291 . S
C199 H212 0.931 . S
C200 C199 1.291 . S
C200 C201 1.373 . S
C200 H213 0.929 . S
C201 C200 1.373 . S
C201 C202 1.396 . S
C201 C208 1.403 . S
C202 C192 1.476 . S
C202 N197 1.318 . S
C202 C201 1.396 . S
H203 C198 0.929 . S
O204 Mn180 2.385 . S
O204 C182 1.234 . S
O205 Mn180 2.209 . S
O205 Mn181 2.215 . S
O205 C182 1.283 . S
O206 Mn180 2.094 . S
O206 C184 1.240 . S
O207 Mn181 2.117 . S
O207 C184 1.264 . S
C208 C201 1.403 . S
C208 C209 1.399 . S
C208 H214 0.929 . S
C209 C189 1.449 . S
C209 C208 1.399 . S
C209 H215 0.930 . S
H210 C190 0.931 . S
H211 C191 0.930 . S
H212 C199 0.931 . S
H213 C200 0.929 . S
H214 C208 0.929 . S
H215 C209 0.930 . S
Mn216 O221 2.095 . S
Mn216 O231 2.162 . S
Mn216 O232 2.297 . S
Mn216 O240 2.385 . S
Mn216 O241 2.209 . S
Mn216 O242 2.094 . S
Mn217 O222 2.121 . S
Mn217 N224 2.257 . S
Mn217 N233 2.282 . S
Mn217 O241 2.215 . S
Mn217 O243 2.117 . S
C218 O240 1.234 . S
C218 O241 1.283 . S
C219 O231 1.281 . S
C219 O232 1.236 . S
C220 O242 1.240 . S
C220 O243 1.264 . S
O221 Mn216 2.095 . S
O221 C230 1.250 . S
O222 Mn217 2.121 . S
O222 C230 1.258 . S
C223 N224 1.326 . S
C223 C227 1.460 . S
C223 H229 0.929 . S
N224 Mn217 2.257 . S
N224 C223 1.326 . S
N224 C228 1.362 . S
C225 C226 1.258 . S
C225 C228 1.431 . S
C225 C245 1.449 . S
C226 C225 1.258 . S
C226 C227 1.477 . S
C226 H246 0.931 . S
C227 C223 1.460 . S
C227 C226 1.477 . S
C227 H247 0.930 . S
C228 N224 1.362 . S
C228 C225 1.431 . S
C228 C238 1.476 . S
H229 C223 0.929 . S
C230 O221 1.250 . S
C230 O222 1.258 . S
O231 Mn216 2.162 . S
O231 C219 1.281 . S
O232 Mn216 2.297 . S
O232 C219 1.236 . S
N233 Mn217 2.282 . S
N233 C234 1.328 . S
N233 C238 1.318 . S
C234 N233 1.328 . S
C234 C235 1.457 . S
C234 H239 0.929 . S
C235 C234 1.457 . S
C235 C236 1.291 . S
C235 H248 0.931 . S
C236 C235 1.291 . S
C236 C237 1.373 . S
C236 H249 0.929 . S
C237 C236 1.373 . S
C237 C238 1.396 . S
C237 C244 1.403 . S
C238 C228 1.476 . S
C238 N233 1.318 . S
C238 C237 1.396 . S
H239 C234 0.929 . S
O240 Mn216 2.385 . S
O240 C218 1.234 . S
O241 Mn216 2.209 . S
O241 Mn217 2.215 . S
O241 C218 1.283 . S
O242 Mn216 2.094 . S
O242 C220 1.240 . S
O243 Mn217 2.117 . S
O243 C220 1.264 . S
C244 C237 1.403 . S
C244 C245 1.399 . S
C244 H250 0.929 . S
C245 C225 1.449 . S
C245 C244 1.399 . S
C245 H251 0.930 . S
H246 C226 0.931 . S
H247 C227 0.930 . S
H248 C235 0.931 . S
H249 C236 0.929 . S
H250 C244 0.929 . S
H251 C245 0.930 . S
Mn252 O257 2.095 . S
Mn252 O267 2.162 . S
Mn252 O268 2.297 . S
Mn252 O276 2.385 1_556 S
Mn252 O277 2.209 . S
Mn252 O278 2.094 . S
Mn253 O258 2.121 . S
Mn253 N260 2.257 . S
Mn253 N269 2.282 1_556 S
Mn253 O277 2.215 . S
Mn253 O279 2.117 . S
C254 O276 1.234 . S
C254 O277 1.283 1_554 S
C255 O267 1.281 . S
C255 O268 1.236 . S
C256 O278 1.240 . S
C256 O279 1.264 . S
O257 Mn252 2.095 . S
O257 C266 1.250 . S
O258 Mn253 2.121 . S
O258 C266 1.258 . S
C259 N260 1.326 . S
C259 C263 1.460 . S
C259 H265 0.929 . S
N260 Mn253 2.257 . S
N260 C259 1.326 . S
N260 C264 1.362 1_556 S
C261 C262 1.258 1_554 S
C261 C264 1.431 . S
C261 C281 1.449 . S
C262 C261 1.258 1_556 S
C262 C263 1.477 . S
C262 H282 0.931 . S
C263 C259 1.460 . S
C263 C262 1.477 . S
C263 H283 0.930 . S
C264 N260 1.362 1_554 S
C264 C261 1.431 . S
C264 C274 1.476 . S
H265 C259 0.929 . S
C266 O257 1.250 . S
C266 O258 1.258 . S
O267 Mn252 2.162 . S
O267 C255 1.281 . S
O268 Mn252 2.297 . S
O268 C255 1.236 . S
N269 Mn253 2.282 1_554 S
N269 C270 1.328 . S
N269 C274 1.318 . S
C270 N269 1.328 . S
C270 C271 1.457 . S
C270 H275 0.929 . S
C271 C270 1.457 . S
C271 C272 1.291 . S
C271 H284 0.931 . S
C272 C271 1.291 . S
C272 C273 1.373 . S
C272 H285 0.929 . S
C273 C272 1.373 . S
C273 C274 1.396 . S
C273 C280 1.403 . S
C274 C264 1.476 . S
C274 N269 1.318 . S
C274 C273 1.396 . S
H275 C270 0.929 . S
O276 Mn252 2.385 1_554 S
O276 C254 1.234 . S
O277 Mn252 2.209 . S
O277 Mn253 2.215 . S
O277 C254 1.283 1_556 S
O278 Mn252 2.094 . S
O278 C256 1.240 . S
O279 Mn253 2.117 . S
O279 C256 1.264 . S
C280 C273 1.403 . S
C280 C281 1.399 . S
C280 H286 0.929 . S
C281 C261 1.449 . S
C281 C280 1.399 . S
C281 H287 0.930 . S
H282 C262 0.931 . S
H283 C263 0.930 . S
H284 C271 0.931 . S
H285 C272 0.929 . S
H286 C280 0.929 . S
H287 C281 0.930 . S
Mn288 O293 2.095 . S
Mn288 O303 2.162 . S
Mn288 O304 2.297 . S
Mn288 O312 2.385 . S
Mn288 O313 2.209 . S
Mn288 O314 2.094 . S
Mn289 O294 2.121 . S
Mn289 N296 2.257 . S
Mn289 N305 2.282 . S
Mn289 O313 2.215 . S
Mn289 O315 2.117 . S
C290 O312 1.234 . S
C290 O313 1.283 . S
C291 O303 1.281 . S
C291 O304 1.236 . S
C292 O314 1.240 . S
C292 O315 1.264 . S
O293 Mn288 2.095 . S
O293 C302 1.250 . S
O294 Mn289 2.121 . S
O294 C302 1.258 . S
C295 N296 1.326 . S
C295 C299 1.460 . S
C295 H301 0.929 . S
N296 Mn289 2.257 . S
N296 C295 1.326 . S
N296 C300 1.362 . S
C297 C298 1.258 . S
C297 C300 1.431 . S
C297 C317 1.449 . S
C298 C297 1.258 . S
C298 C299 1.477 . S
C298 H318 0.931 . S
C299 C295 1.460 . S
C299 C298 1.477 . S
C299 H319 0.930 . S
C300 N296 1.362 . S
C300 C297 1.431 . S
C300 C310 1.476 . S
H301 C295 0.929 . S
C302 O293 1.250 . S
C302 O294 1.258 . S
O303 Mn288 2.162 . S
O303 C291 1.281 . S
O304 Mn288 2.297 . S
O304 C291 1.236 . S
N305 Mn289 2.282 . S
N305 C306 1.328 . S
N305 C310 1.318 . S
C306 N305 1.328 . S
C306 C307 1.457 . S
C306 H311 0.929 . S
C307 C306 1.457 . S
C307 C308 1.291 . S
C307 H320 0.931 . S
C308 C307 1.291 . S
C308 C309 1.373 . S
C308 H321 0.929 . S
C309 C308 1.373 . S
C309 C310 1.396 . S
C309 C316 1.403 . S
C310 C300 1.476 . S
C310 N305 1.318 . S
C310 C309 1.396 . S
H311 C306 0.929 . S
O312 Mn288 2.385 . S
O312 C290 1.234 . S
O313 Mn288 2.209 . S
O313 Mn289 2.215 . S
O313 C290 1.283 . S
O314 Mn288 2.094 . S
O314 C292 1.240 . S
O315 Mn289 2.117 . S
O315 C292 1.264 . S
C316 C309 1.403 . S
C316 C317 1.399 . S
C316 H322 0.929 . S
C317 C297 1.449 . S
C317 C316 1.399 . S
C317 H323 0.930 . S
H318 C298 0.931 . S
H319 C299 0.930 . S
H320 C307 0.931 . S
H321 C308 0.929 . S
H322 C316 0.929 . S
H323 C317 0.930 . S
Mn324 O329 2.095 . S
Mn324 O339 2.162 . S
Mn324 O340 2.297 . S
Mn324 O348 2.385 . S
Mn324 O349 2.209 . S
Mn324 O350 2.094 . S
Mn325 O330 2.121 . S
Mn325 N332 2.257 . S
Mn325 N341 2.282 . S
Mn325 O349 2.215 . S
Mn325 O351 2.117 . S
C326 O348 1.234 . S
C326 O349 1.283 . S
C327 O339 1.281 . S
C327 O340 1.236 . S
C328 O350 1.240 . S
C328 O351 1.264 . S
O329 Mn324 2.095 . S
O329 C338 1.250 . S
O330 Mn325 2.121 . S
O330 C338 1.258 . S
C331 N332 1.326 . S
C331 C335 1.460 . S
C331 H337 0.929 . S
N332 Mn325 2.257 . S
N332 C331 1.326 . S
N332 C336 1.362 . S
C333 C334 1.258 . S
C333 C336 1.431 . S
C333 C353 1.449 . S
C334 C333 1.258 . S
C334 C335 1.477 . S
C334 H354 0.931 . S
C335 C331 1.460 . S
C335 C334 1.477 . S
C335 H355 0.930 . S
C336 N332 1.362 . S
C336 C333 1.431 . S
C336 C346 1.476 . S
H337 C331 0.929 . S
C338 O329 1.250 . S
C338 O330 1.258 . S
O339 Mn324 2.162 . S
O339 C327 1.281 . S
O340 Mn324 2.297 . S
O340 C327 1.236 . S
N341 Mn325 2.282 . S
N341 C342 1.328 . S
N341 C346 1.318 . S
C342 N341 1.328 . S
C342 C343 1.457 . S
C342 H347 0.929 . S
C343 C342 1.457 . S
C343 C344 1.291 . S
C343 H356 0.931 . S
C344 C343 1.291 . S
C344 C345 1.373 . S
C344 H357 0.929 . S
C345 C344 1.373 . S
C345 C346 1.396 . S
C345 C352 1.403 . S
C346 C336 1.476 . S
C346 N341 1.318 . S
C346 C345 1.396 . S
H347 C342 0.929 . S
O348 Mn324 2.385 . S
O348 C326 1.234 . S
O349 Mn324 2.209 . S
O349 Mn325 2.215 . S
O349 C326 1.283 . S
O350 Mn324 2.094 . S
O350 C328 1.240 . S
O351 Mn325 2.117 . S
O351 C328 1.264 . S
C352 C345 1.403 . S
C352 C353 1.399 . S
C352 H358 0.929 . S
C353 C333 1.449 . S
C353 C352 1.399 . S
C353 H359 0.930 . S
H354 C334 0.931 . S
H355 C335 0.930 . S
H356 C343 0.931 . S
H357 C344 0.929 . S
H358 C352 0.929 . S
H359 C353 0.930 . S
Mn360 O365 2.095 . S
Mn360 O375 2.162 . S
Mn360 O376 2.297 . S
Mn360 O384 2.385 1_556 S
Mn360 O385 2.209 . S
Mn360 O386 2.094 . S
Mn361 O366 2.121 . S
Mn361 N368 2.257 . S
Mn361 N377 2.282 1_556 S
Mn361 O385 2.215 . S
Mn361 O387 2.117 . S
C362 O384 1.234 . S
C362 O385 1.283 1_554 S
C363 O375 1.281 . S
C363 O376 1.236 . S
C364 O386 1.240 . S
C364 O387 1.264 . S
O365 Mn360 2.095 . S
O365 C374 1.250 . S
O366 Mn361 2.121 . S
O366 C374 1.258 . S
C367 N368 1.326 . S
C367 C371 1.460 . S
C367 H373 0.929 . S
N368 Mn361 2.257 . S
N368 C367 1.326 . S
N368 C372 1.362 1_556 S
C369 C370 1.258 1_554 S
C369 C372 1.431 . S
C369 C389 1.449 . S
C370 C369 1.258 1_556 S
C370 C371 1.477 . S
C370 H390 0.931 . S
C371 C367 1.460 . S
C371 C370 1.477 . S
C371 H391 0.930 . S
C372 N368 1.362 1_554 S
C372 C369 1.431 . S
C372 C382 1.476 . S
H373 C367 0.929 . S
C374 O365 1.250 . S
C374 O366 1.258 . S
O375 Mn360 2.162 . S
O375 C363 1.281 . S
O376 Mn360 2.297 . S
O376 C363 1.236 . S
N377 Mn361 2.282 1_554 S
N377 C378 1.328 . S
N377 C382 1.318 . S
C378 N377 1.328 . S
C378 C379 1.457 . S
C378 H383 0.929 . S
C379 C378 1.457 . S
C379 C380 1.291 . S
C379 H392 0.931 . S
C380 C379 1.291 . S
C380 C381 1.373 . S
C380 H393 0.929 . S
C381 C380 1.373 . S
C381 C382 1.396 . S
C381 C388 1.403 . S
C382 C372 1.476 . S
C382 N377 1.318 . S
C382 C381 1.396 . S
H383 C378 0.929 . S
O384 Mn360 2.385 1_554 S
O384 C362 1.234 . S
O385 Mn360 2.209 . S
O385 Mn361 2.215 . S
O385 C362 1.283 1_556 S
O386 Mn360 2.094 . S
O386 C364 1.240 . S
O387 Mn361 2.117 . S
O387 C364 1.264 . S
C388 C381 1.403 . S
C388 C389 1.399 . S
C388 H394 0.929 . S
C389 C369 1.449 . S
C389 C388 1.399 . S
C389 H395 0.930 . S
H390 C370 0.931 . S
H391 C371 0.930 . S
H392 C379 0.931 . S
H393 C380 0.929 . S
H394 C388 0.929 . S
H395 C389 0.930 . S
Mn396 O401 2.095 . S
Mn396 O411 2.162 . S
Mn396 O412 2.297 . S
Mn396 O420 2.385 . S
Mn396 O421 2.209 . S
Mn396 O422 2.094 . S
Mn397 O402 2.121 . S
Mn397 N404 2.257 . S
Mn397 N413 2.282 . S
Mn397 O421 2.215 . S
Mn397 O423 2.117 . S
C398 O420 1.234 . S
C398 O421 1.283 . S
C399 O411 1.281 . S
C399 O412 1.236 . S
C400 O422 1.240 . S
C400 O423 1.264 . S
O401 Mn396 2.095 . S
O401 C410 1.250 . S
O402 Mn397 2.121 . S
O402 C410 1.258 . S
C403 N404 1.326 . S
C403 C407 1.460 . S
C403 H409 0.929 . S
N404 Mn397 2.257 . S
N404 C403 1.326 . S
N404 C408 1.362 . S
C405 C406 1.258 . S
C405 C408 1.431 . S
C405 C425 1.449 . S
C406 C405 1.258 . S
C406 C407 1.477 . S
C406 H426 0.931 . S
C407 C403 1.460 . S
C407 C406 1.477 . S
C407 H427 0.930 . S
C408 N404 1.362 . S
C408 C405 1.431 . S
C408 C418 1.476 . S
H409 C403 0.929 . S
C410 O401 1.250 . S
C410 O402 1.258 . S
O411 Mn396 2.162 . S
O411 C399 1.281 . S
O412 Mn396 2.297 . S
O412 C399 1.236 . S
N413 Mn397 2.282 . S
N413 C414 1.328 . S
N413 C418 1.318 . S
C414 N413 1.328 . S
C414 C415 1.457 . S
C414 H419 0.929 . S
C415 C414 1.457 . S
C415 C416 1.291 . S
C415 H428 0.931 . S
C416 C415 1.291 . S
C416 C417 1.373 . S
C416 H429 0.929 . S
C417 C416 1.373 . S
C417 C418 1.396 . S
C417 C424 1.403 . S
C418 C408 1.476 . S
C418 N413 1.318 . S
C418 C417 1.396 . S
H419 C414 0.929 . S
O420 Mn396 2.385 . S
O420 C398 1.234 . S
O421 Mn396 2.209 . S
O421 Mn397 2.215 . S
O421 C398 1.283 . S
O422 Mn396 2.094 . S
O422 C400 1.240 . S
O423 Mn397 2.117 . S
O423 C400 1.264 . S
C424 C417 1.403 . S
C424 C425 1.399 . S
C424 H430 0.929 . S
C425 C405 1.449 . S
C425 C424 1.399 . S
C425 H431 0.930 . S
H426 C406 0.931 . S
H427 C407 0.930 . S
H428 C415 0.931 . S
H429 C416 0.929 . S
H430 C424 0.929 . S
H431 C425 0.930 . S
H432 C444 0.930 . S
H433 C446 0.930 . S
H434 C447 0.930 . S
H435 C451 0.959 . S
H436 C451 0.959 . S
H437 C451 0.961 . S
H438 C452 0.960 . S
H439 C452 0.961 . S
H440 C452 0.959 . S
H441 C455 0.929 . S
H442 C456 0.931 . S
H443 C458 0.930 . S
C444 H432 0.930 . S
C444 C445 1.399 . S
C444 C449 1.399 . S
C445 C444 1.399 . S
C445 C446 1.376 . S
C446 H433 0.930 . S
C446 C445 1.376 . S
C446 C447 1.388 . S
C447 H434 0.930 . S
C447 C446 1.388 . S
C447 C448 1.390 . S
C448 C447 1.390 . S
C448 C449 1.394 . S
C448 C454 1.465 . S
C449 C444 1.399 . S
C449 C448 1.394 . S
C449 C450 1.516 . S
C450 C449 1.516 . S
C450 C451 1.502 . S
C450 C452 1.561 . S
C450 C453 1.526 . S
C451 H435 0.959 . S
C451 H436 0.959 . S
C451 H437 0.961 . S
C451 C450 1.502 . S
C452 H438 0.960 . S
C452 H439 0.961 . S
C452 H440 0.959 . S
C452 C450 1.561 . S
C453 C450 1.526 . S
C453 C454 1.396 . S
C453 C458 1.390 . S
C454 C448 1.465 . S
C454 C453 1.396 . S
C454 C455 1.399 . S
C455 H441 0.929 . S
C455 C454 1.399 . S
C455 C456 1.385 . S
C456 H442 0.931 . S
C456 C455 1.385 . S
C456 C457 1.389 . S
C457 C456 1.389 . S
C457 C458 1.387 . S
C458 H443 0.930 . S
C458 C453 1.390 . S
C458 C457 1.387 . S
H459 C471 0.930 . S
H460 C473 0.930 . S
H461 C474 0.930 . S
H462 C478 0.959 . S
H463 C478 0.959 . S
H464 C478 0.961 . S
H465 C479 0.960 . S
H466 C479 0.961 . S
H467 C479 0.959 . S
H468 C482 0.929 . S
H469 C483 0.931 . S
H470 C485 0.930 . S
C471 H459 0.930 . S
C471 C472 1.399 . S
C471 C476 1.399 . S
C472 C471 1.399 . S
C472 C473 1.376 . S
C473 H460 0.930 . S
C473 C472 1.376 . S
C473 C474 1.388 . S
C474 H461 0.930 . S
C474 C473 1.388 . S
C474 C475 1.390 . S
C475 C474 1.390 . S
C475 C476 1.394 . S
C475 C481 1.465 . S
C476 C471 1.399 . S
C476 C475 1.394 . S
C476 C477 1.516 . S
C477 C476 1.516 . S
C477 C478 1.502 . S
C477 C479 1.561 . S
C477 C480 1.526 . S
C478 H462 0.959 . S
C478 H463 0.959 . S
C478 H464 0.961 . S
C478 C477 1.502 . S
C479 H465 0.960 . S
C479 H466 0.961 . S
C479 H467 0.959 . S
C479 C477 1.561 . S
C480 C477 1.526 . S
C480 C481 1.396 . S
C480 C485 1.390 . S
C481 C475 1.465 . S
C481 C480 1.396 . S
C481 C482 1.399 . S
C482 H468 0.929 . S
C482 C481 1.399 . S
C482 C483 1.385 . S
C483 H469 0.931 . S
C483 C482 1.385 . S
C483 C484 1.389 . S
C484 C483 1.389 . S
C484 C485 1.387 . S
C485 H470 0.930 . S
C485 C480 1.390 . S
C485 C484 1.387 . S
H486 C498 0.930 . S
H487 C500 0.930 . S
H488 C501 0.930 . S
H489 C505 0.960 . S
H490 C505 0.960 . S
H491 C505 0.960 1_556 S
H492 C506 0.946 1_556 S
H493 C506 0.973 . S
H494 C506 0.961 . S
H495 C509 0.929 . S
H496 C510 0.931 . S
H497 C512 0.930 . S
C498 H486 0.930 . S
C498 C499 1.399 . S
C498 C503 1.399 . S
C499 C498 1.399 . S
C499 C500 1.376 . S
C500 H487 0.930 . S
C500 C499 1.376 . S
C500 C501 1.388 . S
C501 H488 0.930 . S
C501 C500 1.388 . S
C501 C502 1.390 . S
C502 C501 1.390 . S
C502 C503 1.394 . S
C502 C508 1.465 1_556 S
C503 C498 1.399 . S
C503 C502 1.394 . S
C503 C504 1.515 . S
C504 C503 1.515 . S
C504 C505 1.502 1_556 S
C504 C506 1.561 1_556 S
C504 C507 1.527 1_556 S
C505 H489 0.960 . S
C505 H490 0.960 . S
C505 H491 0.960 1_554 S
C505 C504 1.502 1_554 S
C506 H492 0.946 1_554 S
C506 H493 0.973 . S
C506 H494 0.961 . S
C506 C504 1.561 1_554 S
C507 C504 1.527 1_554 S
C507 C508 1.396 . S
C507 C512 1.390 . S
C508 C502 1.465 1_554 S
C508 C507 1.396 . S
C508 C509 1.399 . S
C509 H495 0.929 . S
C509 C508 1.399 . S
C509 C510 1.385 . S
C510 H496 0.931 . S
C510 C509 1.385 . S
C510 C511 1.389 . S
C511 C510 1.389 . S
C511 C512 1.387 . S
C512 H497 0.930 . S
C512 C507 1.390 . S
C512 C511 1.387 . S
H513 C525 0.930 . S
H514 C527 0.930 . S
H515 C528 0.930 . S
H516 C532 0.959 . S
H517 C532 0.959 . S
H518 C532 0.961 . S
H519 C533 0.960 . S
H520 C533 0.961 . S
H521 C533 0.959 . S
H522 C536 0.929 . S
H523 C537 0.931 . S
H524 C539 0.930 . S
C525 H513 0.930 . S
C525 C526 1.399 . S
C525 C530 1.399 . S
C526 C525 1.399 . S
C526 C527 1.376 . S
C527 H514 0.930 . S
C527 C526 1.376 . S
C527 C528 1.388 . S
C528 H515 0.930 . S
C528 C527 1.388 . S
C528 C529 1.390 . S
C529 C528 1.390 . S
C529 C530 1.394 . S
C529 C535 1.465 . S
C530 C525 1.399 . S
C530 C529 1.394 . S
C530 C531 1.516 . S
C531 C530 1.516 . S
C531 C532 1.502 . S
C531 C533 1.561 . S
C531 C534 1.526 . S
C532 H516 0.959 . S
C532 H517 0.959 . S
C532 H518 0.961 . S
C532 C531 1.502 . S
C533 H519 0.960 . S
C533 H520 0.961 . S
C533 H521 0.959 . S
C533 C531 1.561 . S
C534 C531 1.526 . S
C534 C535 1.396 . S
C534 C539 1.390 . S
C535 C529 1.465 . S
C535 C534 1.396 . S
C535 C536 1.399 . S
C536 H522 0.929 . S
C536 C535 1.399 . S
C536 C537 1.385 . S
C537 H523 0.931 . S
C537 C536 1.385 . S
C537 C538 1.389 . S
C538 C537 1.389 . S
C538 C539 1.387 . S
C539 H524 0.930 . S
C539 C534 1.390 . S
C539 C538 1.387 . S
H540 C552 0.930 . S
H541 C554 0.930 . S
H542 C555 0.930 . S
H543 C559 0.959 . S
H544 C559 0.959 . S
H545 C559 0.961 . S
H546 C560 0.960 . S
H547 C560 0.961 . S
H548 C560 0.959 . S
H549 C563 0.929 . S
H550 C564 0.931 . S
H551 C566 0.930 . S
C552 H540 0.930 . S
C552 C553 1.399 . S
C552 C557 1.399 . S
C553 C552 1.399 . S
C553 C554 1.376 . S
C554 H541 0.930 . S
C554 C553 1.376 . S
C554 C555 1.388 . S
C555 H542 0.930 . S
C555 C554 1.388 . S
C555 C556 1.390 . S
C556 C555 1.390 . S
C556 C557 1.394 . S
C556 C562 1.465 . S
C557 C552 1.399 . S
C557 C556 1.394 . S
C557 C558 1.516 . S
C558 C557 1.516 . S
C558 C559 1.502 . S
C558 C560 1.561 . S
C558 C561 1.526 . S
C559 H543 0.959 . S
C559 H544 0.959 . S
C559 H545 0.961 . S
C559 C558 1.502 . S
C560 H546 0.960 . S
C560 H547 0.961 . S
C560 H548 0.959 . S
C560 C558 1.561 . S
C561 C558 1.526 . S
C561 C562 1.396 . S
C561 C566 1.390 . S
C562 C556 1.465 . S
C562 C561 1.396 . S
C562 C563 1.399 . S
C563 H549 0.929 . S
C563 C562 1.399 . S
C563 C564 1.385 . S
C564 H550 0.931 . S
C564 C563 1.385 . S
C564 C565 1.389 . S
C565 C564 1.389 . S
C565 C566 1.387 . S
C566 H551 0.930 . S
C566 C561 1.390 . S
C566 C565 1.387 . S
H567 C579 0.930 . S
H568 C581 0.930 . S
H569 C582 0.930 . S
H570 C586 0.959 . S
H571 C586 0.959 . S
H572 C586 0.961 1_554 S
H573 C587 0.959 1_554 S
H574 C587 0.962 . S
H575 C587 0.959 . S
H576 C590 0.929 . S
H577 C591 0.931 . S
H578 C593 0.930 . S
C579 H567 0.930 . S
C579 C580 1.399 . S
C579 C584 1.399 . S
C580 C579 1.399 . S
C580 C581 1.376 . S
C581 H568 0.930 . S
C581 C580 1.376 . S
C581 C582 1.388 . S
C582 H569 0.930 . S
C582 C581 1.388 . S
C582 C583 1.390 . S
C583 C582 1.390 . S
C583 C584 1.394 . S
C583 C589 1.465 1_554 S
C584 C579 1.399 . S
C584 C583 1.394 . S
C584 C585 1.508 1_554 S
C585 C584 1.508 1_556 S
C585 C586 1.502 . S
C585 C587 1.561 . S
C585 C588 1.534 . S
C586 H570 0.959 . S
C586 H571 0.959 . S
C586 H572 0.961 1_556 S
C586 C585 1.502 . S
C587 H573 0.959 1_556 S
C587 H574 0.962 . S
C587 H575 0.959 . S
C587 C585 1.561 . S
C588 C585 1.534 . S
C588 C589 1.396 . S
C588 C593 1.390 . S
C589 C583 1.465 1_556 S
C589 C588 1.396 . S
C589 C590 1.399 . S
C590 H576 0.929 . S
C590 C589 1.399 . S
C590 C591 1.385 . S
C591 H577 0.931 . S
C591 C590 1.385 . S
C591 C592 1.389 . S
C592 C591 1.389 . S
C592 C593 1.387 . S
C593 H578 0.930 . S
C593 C588 1.390 . S
C593 C592 1.387 . S
H594 C606 0.930 1_556 S
H595 C608 0.930 . S
H596 C609 0.930 . S
H597 C613 0.959 . S
H598 C613 0.959 . S
H599 C613 0.961 . S
H600 C614 0.960 . S
H601 C614 0.961 1_556 S
H602 C614 0.959 . S
H603 C617 0.929 . S
H604 C618 0.931 1_554 S
H605 C620 0.930 . S
C606 H594 0.930 1_554 S
C606 C607 1.399 . S
C606 C611 1.399 . S
C607 C606 1.399 . S
C607 C608 1.376 . S
C608 H595 0.930 . S
C608 C607 1.376 . S
C608 C609 1.388 . S
C609 H596 0.930 . S
C609 C608 1.388 . S
C609 C610 1.390 . S
C610 C609 1.390 . S
C610 C611 1.394 . S
C610 C616 1.465 . S
C611 C606 1.399 . S
C611 C610 1.394 . S
C611 C612 1.516 1_554 S
C612 C611 1.516 1_556 S
C612 C613 1.502 . S
C612 C614 1.561 1_556 S
C612 C615 1.526 . S
C613 H597 0.959 . S
C613 H598 0.959 . S
C613 H599 0.961 . S
C613 C612 1.502 . S
C614 H600 0.960 . S
C614 H601 0.961 1_554 S
C614 H602 0.959 . S
C614 C612 1.561 1_554 S
C615 C612 1.526 . S
C615 C616 1.396 1_556 S
C615 C620 1.390 . S
C616 C610 1.465 . S
C616 C615 1.396 1_554 S
C616 C617 1.399 . S
C617 H603 0.929 . S
C617 C616 1.399 . S
C617 C618 1.385 1_554 S
C618 H604 0.931 1_556 S
C618 C617 1.385 1_556 S
C618 C619 1.389 . S
C619 C618 1.389 . S
C619 C620 1.387 . S
C620 H605 0.930 . S
C620 C615 1.390 . S
C620 C619 1.387 . S
H621 C633 0.930 . S
H622 C635 0.930 . S
H623 C636 0.930 . S
H624 C640 0.959 . S
H625 C640 0.959 . S
H626 C640 0.961 . S
H627 C641 0.960 . S
H628 C641 0.961 . S
H629 C641 0.959 . S
H630 C644 0.929 . S
H631 C645 0.931 . S
H632 C647 0.930 . S
C633 H621 0.930 . S
C633 C634 1.399 . S
C633 C638 1.399 . S
C634 C633 1.399 . S
C634 C635 1.376 . S
C635 H622 0.930 . S
C635 C634 1.376 . S
C635 C636 1.388 . S
C636 H623 0.930 . S
C636 C635 1.388 . S
C636 C637 1.390 . S
C637 C636 1.390 . S
C637 C638 1.394 . S
C637 C643 1.465 . S
C638 C633 1.399 . S
C638 C637 1.394 . S
C638 C639 1.516 . S
C639 C638 1.516 . S
C639 C640 1.502 . S
C639 C641 1.561 . S
C639 C642 1.526 . S
C640 H624 0.959 . S
C640 H625 0.959 . S
C640 H626 0.961 . S
C640 C639 1.502 . S
C641 H627 0.960 . S
C641 H628 0.961 . S
C641 H629 0.959 . S
C641 C639 1.561 . S
C642 C639 1.526 . S
C642 C643 1.396 . S
C642 C647 1.390 . S
C643 C637 1.465 . S
C643 C642 1.396 . S
C643 C644 1.399 . S
C644 H630 0.929 . S
C644 C643 1.399 . S
C644 C645 1.385 . S
C645 H631 0.931 . S
C645 C644 1.385 . S
C645 C646 1.389 . S
C646 C645 1.389 . S
C646 C647 1.387 . S
C647 H632 0.930 . S
C647 C642 1.390 . S
C647 C646 1.387 . S
H648 C660 0.930 . S
H649 C662 0.930 . S
H650 C663 0.930 . S
H651 C667 0.959 . S
H652 C667 0.959 . S
H653 C667 0.961 . S
H654 C668 0.960 . S
H655 C668 0.961 . S
H656 C668 0.959 . S
H657 C671 0.929 . S
H658 C672 0.931 . S
H659 C674 0.930 . S
C660 H648 0.930 . S
C660 C661 1.399 . S
C660 C665 1.399 . S
C661 C660 1.399 . S
C661 C662 1.376 . S
C662 H649 0.930 . S
C662 C661 1.376 . S
C662 C663 1.388 . S
C663 H650 0.930 . S
C663 C662 1.388 . S
C663 C664 1.390 . S
C664 C663 1.390 . S
C664 C665 1.394 . S
C664 C670 1.465 . S
C665 C660 1.399 . S
C665 C664 1.394 . S
C665 C666 1.516 . S
C666 C665 1.516 . S
C666 C667 1.502 . S
C666 C668 1.561 . S
C666 C669 1.526 . S
C667 H651 0.959 . S
C667 H652 0.959 . S
C667 H653 0.961 . S
C667 C666 1.502 . S
C668 H654 0.960 . S
C668 H655 0.961 . S
C668 H656 0.959 . S
C668 C666 1.561 . S
C669 C666 1.526 . S
C669 C670 1.396 . S
C669 C674 1.390 . S
C670 C664 1.465 . S
C670 C669 1.396 . S
C670 C671 1.399 . S
C671 H657 0.929 . S
C671 C670 1.399 . S
C671 C672 1.385 . S
C672 H658 0.931 . S
C672 C671 1.385 . S
C672 C673 1.389 . S
C673 C672 1.389 . S
C673 C674 1.387 . S
C674 H659 0.930 . S
C674 C669 1.390 . S
C674 C673 1.387 . S
H675 C687 0.930 . S
H676 C689 0.930 . S
H677 C690 0.930 1_556 S
H678 C694 0.959 . S
H679 C694 0.959 . S
H680 C694 0.961 1_554 S
H681 C695 0.960 . S
H682 C695 0.961 . S
H683 C695 0.959 . S
H684 C698 0.929 . S
H685 C699 0.931 . S
H686 C701 0.930 . S
C687 H675 0.930 . S
C687 C688 1.399 . S
C687 C692 1.399 . S
C688 C687 1.399 . S
C688 C689 1.376 . S
C689 H676 0.930 . S
C689 C688 1.376 . S
C689 C690 1.388 . S
C690 H677 0.930 1_554 S
C690 C689 1.388 . S
C690 C691 1.390 . S
C691 C690 1.390 . S
C691 C692 1.394 . S
C691 C697 1.465 1_554 S
C692 C687 1.399 . S
C692 C691 1.394 . S
C692 C693 1.516 . S
C693 C692 1.516 . S
C693 C694 1.502 1_554 S
C693 C695 1.561 . S
C693 C696 1.526 1_554 S
C694 H678 0.959 . S
C694 H679 0.959 . S
C694 H680 0.961 1_556 S
C694 C693 1.502 1_556 S
C695 H681 0.960 . S
C695 H682 0.961 . S
C695 H683 0.959 . S
C695 C693 1.561 . S
C696 C693 1.526 1_556 S
C696 C697 1.396 . S
C696 C701 1.390 . S
C697 C691 1.465 1_556 S
C697 C696 1.396 . S
C697 C698 1.399 . S
C698 H684 0.929 . S
C698 C697 1.399 . S
C698 C699 1.385 . S
C699 H685 0.931 . S
C699 C698 1.385 . S
C699 C700 1.389 . S
C700 C699 1.389 . S
C700 C701 1.387 . S
C701 H686 0.930 . S
C701 C696 1.390 . S
C701 C700 1.387 . S
H702 C714 0.930 . S
H703 C716 0.930 . S
H704 C717 0.930 . S
H705 C721 0.959 . S
H706 C721 0.959 . S
H707 C721 0.961 . S
H708 C722 0.960 . S
H709 C722 0.961 . S
H710 C722 0.959 . S
H711 C725 0.929 . S
H712 C726 0.931 . S
H713 C728 0.930 . S
C714 H702 0.930 . S
C714 C715 1.399 . S
C714 C719 1.399 . S
C715 C714 1.399 . S
C715 C716 1.376 . S
C716 H703 0.930 . S
C716 C715 1.376 . S
C716 C717 1.388 . S
C717 H704 0.930 . S
C717 C716 1.388 . S
C717 C718 1.390 . S
C718 C717 1.390 . S
C718 C719 1.394 . S
C718 C724 1.465 . S
C719 C714 1.399 . S
C719 C718 1.394 . S
C719 C720 1.516 . S
C720 C719 1.516 . S
C720 C721 1.502 . S
C720 C722 1.561 . S
C720 C723 1.526 . S
C721 H705 0.959 . S
C721 H706 0.959 . S
C721 H707 0.961 . S
C721 C720 1.502 . S
C722 H708 0.960 . S
C722 H709 0.961 . S
C722 H710 0.959 . S
C722 C720 1.561 . S
C723 C720 1.526 . S
C723 C724 1.396 . S
C723 C728 1.390 . S
C724 C718 1.465 . S
C724 C723 1.396 . S
C724 C725 1.399 . S
C725 H711 0.929 . S
C725 C724 1.399 . S
C725 C726 1.385 . S
C726 H712 0.931 . S
C726 C725 1.385 . S
C726 C727 1.389 . S
C727 C726 1.389 . S
C727 C728 1.387 . S
C728 H713 0.930 . S
C728 C723 1.390 . S
C728 C727 1.387 . S
H729 C741 0.930 . S
H730 C743 0.930 . S
H731 C744 0.930 . S
H732 C748 0.959 . S
H733 C748 0.959 . S
H734 C748 0.961 . S
H735 C749 0.960 . S
H736 C749 0.961 . S
H737 C749 0.959 . S
H738 C752 0.929 . S
H739 C753 0.931 . S
H740 C755 0.930 . S
C741 H729 0.930 . S
C741 C742 1.399 . S
C741 C746 1.399 . S
C742 C741 1.399 . S
C742 C743 1.376 . S
C743 H730 0.930 . S
C743 C742 1.376 . S
C743 C744 1.388 . S
C744 H731 0.930 . S
C744 C743 1.388 . S
C744 C745 1.390 . S
C745 C744 1.390 . S
C745 C746 1.394 . S
C745 C751 1.465 . S
C746 C741 1.399 . S
C746 C745 1.394 . S
C746 C747 1.516 . S
C747 C746 1.516 . S
C747 C748 1.502 . S
C747 C749 1.561 . S
C747 C750 1.526 . S
C748 H732 0.959 . S
C748 H733 0.959 . S
C748 H734 0.961 . S
C748 C747 1.502 . S
C749 H735 0.960 . S
C749 H736 0.961 . S
C749 H737 0.959 . S
C749 C747 1.561 . S
C750 C747 1.526 . S
C750 C751 1.396 . S
C750 C755 1.390 . S
C751 C745 1.465 . S
C751 C750 1.396 . S
C751 C752 1.399 . S
C752 H738 0.929 . S
C752 C751 1.399 . S
C752 C753 1.385 . S
C753 H739 0.931 . S
C753 C752 1.385 . S
C753 C754 1.389 . S
C754 C753 1.389 . S
C754 C755 1.387 . S
C755 H740 0.930 . S
C755 C750 1.390 . S
C755 C754 1.387 . S
H756 C768 0.930 1_556 S
H757 C770 0.930 . S
H758 C771 0.930 . S
H759 C775 0.959 . S
H760 C775 0.959 . S
H761 C775 0.961 . S
H762 C776 0.960 . S
H763 C776 0.961 . S
H764 C776 0.959 . S
H765 C779 0.929 . S
H766 C780 0.931 . S
H767 C782 0.930 1_556 S
C768 H756 0.930 1_554 S
C768 C769 1.399 . S
C768 C773 1.399 . S
C769 C768 1.399 . S
C769 C770 1.376 . S
C770 H757 0.930 . S
C770 C769 1.376 . S
C770 C771 1.388 . S
C771 H758 0.930 . S
C771 C770 1.388 . S
C771 C772 1.390 . S
C772 C771 1.390 . S
C772 C773 1.394 . S
C772 C778 1.465 . S
C773 C768 1.399 . S
C773 C772 1.394 . S
C773 C774 1.516 1_554 S
C774 C773 1.516 1_556 S
C774 C775 1.502 . S
C774 C776 1.561 . S
C774 C777 1.526 1_556 S
C775 H759 0.959 . S
C775 H760 0.959 . S
C775 H761 0.961 . S
C775 C774 1.502 . S
C776 H762 0.960 . S
C776 H763 0.961 . S
C776 H764 0.959 . S
C776 C774 1.561 . S
C777 C774 1.526 1_554 S
C777 C778 1.396 . S
C777 C782 1.390 . S
C778 C772 1.465 . S
C778 C777 1.396 . S
C778 C779 1.399 . S
C779 H765 0.929 . S
C779 C778 1.399 . S
C779 C780 1.385 . S
C780 H766 0.931 . S
C780 C779 1.385 . S
C780 C781 1.389 . S
C781 C780 1.389 . S
C781 C782 1.387 . S
C782 H767 0.930 1_554 S
C782 C777 1.390 . S
C782 C781 1.387 . S
H783 C795 0.930 . S
H784 C797 0.930 . S
H785 C798 0.930 . S
H786 C802 0.959 . S
H787 C802 0.959 . S
H788 C802 0.961 . S
H789 C803 0.960 . S
H790 C803 0.961 . S
H791 C803 0.959 . S
H792 C806 0.929 . S
H793 C807 0.931 . S
H794 C809 0.930 . S
C795 H783 0.930 . S
C795 C796 1.399 . S
C795 C800 1.399 . S
C796 C795 1.399 . S
C796 C797 1.376 . S
C797 H784 0.930 . S
C797 C796 1.376 . S
C797 C798 1.388 1_655 S
C798 H785 0.930 . S
C798 C797 1.388 1_455 S
C798 C799 1.390 . S
C799 C798 1.390 . S
C799 C800 1.394 1_455 S
C799 C805 1.465 . S
C800 C795 1.399 . S
C800 C799 1.394 1_655 S
C800 C801 1.516 . S
C801 C800 1.516 . S
C801 C802 1.502 . S
C801 C803 1.561 1_655 S
C801 C804 1.526 1_655 S
C802 H786 0.959 . S
C802 H787 0.959 . S
C802 H788 0.961 . S
C802 C801 1.502 . S
C803 H789 0.960 . S
C803 H790 0.961 . S
C803 H791 0.959 . S
C803 C801 1.561 1_455 S
C804 C801 1.526 1_455 S
C804 C805 1.396 . S
C804 C809 1.390 . S
C805 C799 1.465 . S
C805 C804 1.396 . S
C805 C806 1.399 . S
C806 H792 0.929 . S
C806 C805 1.399 . S
C806 C807 1.385 . S
C807 H793 0.931 . S
C807 C806 1.385 . S
C807 C808 1.389 . S
C808 C807 1.389 . S
C808 C809 1.387 . S
C809 H794 0.930 . S
C809 C804 1.390 . S
C809 C808 1.387 . S
H810 C822 0.930 . S
H811 C824 0.930 . S
H812 C825 0.930 . S
H813 C829 0.959 . S
H814 C829 0.959 1_565 S
H815 C829 0.961 . S
H816 C830 0.960 1_545 S
H817 C830 0.961 . S
H818 C830 0.959 . S
H819 C833 0.929 . S
H820 C834 0.931 . S
H821 C836 0.930 . S
C822 H810 0.930 . S
C822 C823 1.399 . S
C822 C827 1.399 . S
C823 C822 1.399 . S
C823 C824 1.376 . S
C824 H811 0.930 . S
C824 C823 1.376 . S
C824 C825 1.388 . S
C825 H812 0.930 . S
C825 C824 1.388 . S
C825 C826 1.390 . S
C826 C825 1.390 . S
C826 C827 1.394 . S
C826 C832 1.465 1_545 S
C827 C822 1.399 . S
C827 C826 1.394 . S
C827 C828 1.516 . S
C828 C827 1.516 . S
C828 C829 1.502 . S
C828 C830 1.561 1_545 S
C828 C831 1.526 1_545 S
C829 H813 0.959 . S
C829 H814 0.959 1_545 S
C829 H815 0.961 . S
C829 C828 1.502 . S
C830 H816 0.960 1_565 S
C830 H817 0.961 . S
C830 H818 0.959 . S
C830 C828 1.561 1_565 S
C831 C828 1.526 1_565 S
C831 C832 1.396 . S
C831 C836 1.390 . S
C832 C826 1.465 1_565 S
C832 C831 1.396 . S
C832 C833 1.399 . S
C833 H819 0.929 . S
C833 C832 1.399 . S
C833 C834 1.385 . S
C834 H820 0.931 . S
C834 C833 1.385 . S
C834 C835 1.389 . S
C835 C834 1.389 . S
C835 C836 1.387 . S
C836 H821 0.930 . S
C836 C831 1.390 . S
C836 C835 1.387 . S
H837 C849 0.930 . S
H838 C851 0.930 . S
H839 C852 0.930 . S
H840 C856 0.959 . S
H841 C856 0.959 . S
H842 C856 0.961 . S
H843 C857 0.960 . S
H844 C857 0.961 . S
H845 C857 0.959 . S
H846 C860 0.929 . S
H847 C861 0.931 . S
H848 C863 0.930 . S
C849 H837 0.930 . S
C849 C850 1.399 . S
C849 C854 1.399 . S
C850 C849 1.399 . S
C850 C851 1.376 . S
C851 H838 0.930 . S
C851 C850 1.376 . S
C851 C852 1.388 . S
C852 H839 0.930 . S
C852 C851 1.388 . S
C852 C853 1.390 . S
C853 C852 1.390 . S
C853 C854 1.394 . S
C853 C859 1.465 . S
C854 C849 1.399 . S
C854 C853 1.394 . S
C854 C855 1.516 . S
C855 C854 1.516 . S
C855 C856 1.502 . S
C855 C857 1.561 . S
C855 C858 1.526 . S
C856 H840 0.959 . S
C856 H841 0.959 . S
C856 H842 0.961 . S
C856 C855 1.502 . S
C857 H843 0.960 . S
C857 H844 0.961 . S
C857 H845 0.959 . S
C857 C855 1.561 . S
C858 C855 1.526 . S
C858 C859 1.396 . S
C858 C863 1.390 . S
C859 C853 1.465 . S
C859 C858 1.396 . S
C859 C860 1.399 . S
C860 H846 0.929 . S
C860 C859 1.399 . S
C860 C861 1.385 . S
C861 H847 0.931 . S
C861 C860 1.385 . S
C861 C862 1.389 . S
C862 C861 1.389 . S
C862 C863 1.387 . S
C863 H848 0.930 . S
C863 C858 1.390 . S
C863 C862 1.387 . S
H864 C876 0.930 1_554 S
H865 C878 0.930 . S
H866 C879 0.930 . S
H867 C883 0.959 1_556 S
H868 C883 0.943 1_655 S
H869 C883 0.961 . S
H870 C884 0.960 1_455 S
H871 C884 0.961 . S
H872 C884 0.959 . S
H873 C887 0.929 . S
H874 C888 0.931 . S
H875 C890 0.930 1_554 S
C876 H864 0.930 1_556 S
C876 C877 1.399 . S
C876 C881 1.399 . S
C877 C876 1.399 . S
C877 C878 1.376 . S
C878 H865 0.930 . S
C878 C877 1.376 . S
C878 C879 1.388 . S
C879 H866 0.930 . S
C879 C878 1.388 . S
C879 C880 1.390 . S
C880 C879 1.390 . S
C880 C881 1.394 . S
C880 C886 1.465 1_455 S
C881 C876 1.399 . S
C881 C880 1.394 . S
C881 C882 1.516 . S
C882 C881 1.516 . S
C882 C883 1.502 1_556 S
C882 C884 1.561 1_456 S
C882 C885 1.526 1_455 S
C883 H867 0.959 1_554 S
C883 H868 0.943 1_455 S
C883 H869 0.961 . S
C883 C882 1.502 1_554 S
C884 H870 0.960 1_655 S
C884 H871 0.961 . S
C884 H872 0.959 . S
C884 C882 1.561 1_654 S
C885 C882 1.526 1_655 S
C885 C886 1.396 . S
C885 C890 1.390 . S
C886 C880 1.465 1_655 S
C886 C885 1.396 . S
C886 C887 1.399 . S
C887 H873 0.929 . S
C887 C886 1.399 . S
C887 C888 1.385 . S
C888 H874 0.931 . S
C888 C887 1.385 . S
C888 C889 1.389 . S
C889 C888 1.389 . S
C889 C890 1.387 . S
C890 H875 0.930 1_556 S
C890 C885 1.390 . S
C890 C889 1.387 . S
H891 C903 0.930 . S
H892 C905 0.930 . S
H893 C906 0.930 . S
H894 C910 0.959 . S
H895 C910 0.955 1_545 S
H896 C910 0.961 . S
H897 C911 0.960 . S
H898 C911 0.961 . S
H899 C911 0.959 . S
H900 C914 0.929 . S
H901 C915 0.931 . S
H902 C917 0.930 . S
C903 H891 0.930 . S
C903 C904 1.399 . S
C903 C908 1.399 . S
C904 C903 1.399 . S
C904 C905 1.376 . S
C905 H892 0.930 . S
C905 C904 1.376 . S
C905 C906 1.388 . S
C906 H893 0.930 . S
C906 C905 1.388 . S
C906 C907 1.390 . S
C907 C906 1.390 . S
C907 C908 1.394 . S
C907 C913 1.465 1_565 S
C908 C903 1.399 . S
C908 C907 1.394 . S
C908 C909 1.516 . S
C909 C908 1.516 . S
C909 C910 1.502 . S
C909 C911 1.561 . S
C909 C912 1.526 1_565 S
C910 H894 0.959 . S
C910 H895 0.955 1_565 S
C910 H896 0.961 . S
C910 C909 1.502 . S
C911 H897 0.960 . S
C911 H898 0.961 . S
C911 H899 0.959 . S
C911 C909 1.561 . S
C912 C909 1.526 1_545 S
C912 C913 1.396 . S
C912 C917 1.390 . S
C913 C907 1.465 1_545 S
C913 C912 1.396 . S
C913 C914 1.399 . S
C914 H900 0.929 . S
C914 C913 1.399 . S
C914 C915 1.385 . S
C915 H901 0.931 . S
C915 C914 1.385 . S
C915 C916 1.389 . S
C916 C915 1.389 . S
C916 C917 1.387 . S
C917 H902 0.930 . S
C917 C912 1.390 . S
C917 C916 1.387 . S
H918 C930 0.930 . S
H919 C932 0.930 . S
H920 C933 0.930 . S
H921 C937 0.959 . S
H922 C937 0.959 . S
H923 C937 0.961 . S
H924 C938 0.960 . S
H925 C938 0.961 . S
H926 C938 0.959 . S
H927 C941 0.929 . S
H928 C942 0.931 . S
H929 C944 0.930 . S
C930 H918 0.930 . S
C930 C931 1.399 . S
C930 C935 1.399 . S
C931 C930 1.399 . S
C931 C932 1.376 . S
C932 H919 0.930 . S
C932 C931 1.376 . S
C932 C933 1.388 . S
C933 H920 0.930 . S
C933 C932 1.388 . S
C933 C934 1.390 . S
C934 C933 1.390 . S
C934 C935 1.394 . S
C934 C940 1.465 . S
C935 C930 1.399 . S
C935 C934 1.394 . S
C935 C936 1.516 . S
C936 C935 1.516 . S
C936 C937 1.502 . S
C936 C938 1.561 . S
C936 C939 1.526 . S
C937 H921 0.959 . S
C937 H922 0.959 . S
C937 H923 0.961 . S
C937 C936 1.502 . S
C938 H924 0.960 . S
C938 H925 0.961 . S
C938 H926 0.959 . S
C938 C936 1.561 . S
C939 C936 1.526 . S
C939 C940 1.396 . S
C939 C944 1.390 . S
C940 C934 1.465 . S
C940 C939 1.396 . S
C940 C941 1.399 . S
C941 H927 0.929 . S
C941 C940 1.399 . S
C941 C942 1.385 . S
C942 H928 0.931 . S
C942 C941 1.385 . S
C942 C943 1.389 . S
C943 C942 1.389 . S
C943 C944 1.387 . S
C944 H929 0.930 . S
C944 C939 1.390 . S
C944 C943 1.387 . S
H945 C957 0.930 . S
H946 C959 0.930 . S
H947 C960 0.930 . S
H948 C964 0.959 . S
H949 C964 0.959 . S
H950 C964 0.961 . S
H951 C965 0.960 . S
H952 C965 0.961 . S
H953 C965 0.959 . S
H954 C968 0.929 . S
H955 C969 0.931 . S
H956 C971 0.930 . S
C957 H945 0.930 . S
C957 C958 1.399 . S
C957 C962 1.399 . S
C958 C957 1.399 . S
C958 C959 1.376 . S
C959 H946 0.930 . S
C959 C958 1.376 . S
C959 C960 1.388 . S
C960 H947 0.930 . S
C960 C959 1.388 . S
C960 C961 1.390 . S
C961 C960 1.390 . S
C961 C962 1.394 . S
C961 C967 1.465 . S
C962 C957 1.399 . S
C962 C961 1.394 . S
C962 C963 1.516 . S
C963 C962 1.516 . S
C963 C964 1.502 . S
C963 C965 1.561 . S
C963 C966 1.526 . S
C964 H948 0.959 . S
C964 H949 0.959 . S
C964 H950 0.961 . S
C964 C963 1.502 . S
C965 H951 0.960 . S
C965 H952 0.961 . S
C965 H953 0.959 . S
C965 C963 1.561 . S
C966 C963 1.526 . S
C966 C967 1.396 . S
C966 C971 1.390 . S
C967 C961 1.465 . S
C967 C966 1.396 . S
C967 C968 1.399 . S
C968 H954 0.929 . S
C968 C967 1.399 . S
C968 C969 1.385 . S
C969 H955 0.931 . S
C969 C968 1.385 . S
C969 C970 1.389 . S
C970 C969 1.389 . S
C970 C971 1.387 . S
C971 H956 0.930 . S
C971 C966 1.390 . S
C971 C970 1.387 . S
H972 C984 0.930 . S
H973 C986 0.930 . S
H974 C987 0.930 . S
H975 C991 0.959 . S
H976 C991 0.959 . S
H977 C991 0.961 . S
H978 C992 0.960 . S
H979 C992 0.961 . S
H980 C992 0.959 . S
H981 C995 0.929 . S
H982 C996 0.931 . S
H983 C998 0.930 . S
C984 H972 0.930 . S
C984 C985 1.399 . S
C984 C989 1.399 . S
C985 C984 1.399 . S
C985 C986 1.376 . S
C986 H973 0.930 . S
C986 C985 1.376 . S
C986 C987 1.388 . S
C987 H974 0.930 . S
C987 C986 1.388 . S
C987 C988 1.390 . S
C988 C987 1.390 . S
C988 C989 1.394 . S
C988 C994 1.465 . S
C989 C984 1.399 . S
C989 C988 1.394 . S
C989 C990 1.516 . S
C990 C989 1.516 . S
C990 C991 1.502 . S
C990 C992 1.561 . S
C990 C993 1.526 . S
C991 H975 0.959 . S
C991 H976 0.959 . S
C991 H977 0.961 . S
C991 C990 1.502 . S
C992 H978 0.960 . S
C992 H979 0.961 . S
C992 H980 0.959 . S
C992 C990 1.561 . S
C993 C990 1.526 . S
C993 C994 1.396 . S
C993 C998 1.390 . S
C994 C988 1.465 . S
C994 C993 1.396 . S
C994 C995 1.399 . S
C995 H981 0.929 . S
C995 C994 1.399 . S
C995 C996 1.385 . S
C996 H982 0.931 . S
C996 C995 1.385 . S
C996 C997 1.389 . S
C997 C996 1.389 . S
C997 C998 1.387 . S
C998 H983 0.930 . S
C998 C993 1.390 . S
C998 C997 1.387 . S
H999 C1011 0.930 . S
H1000 C1013 0.930 . S
H1001 C1014 0.930 . S
H1002 C1018 0.959 . S
H1003 C1018 0.959 . S
H1004 C1018 0.961 . S
H1005 C1019 0.960 . S
H1006 C1019 0.961 . S
H1007 C1019 0.959 . S
H1008 C1022 0.929 . S
H1009 C1023 0.931 . S
H1010 C1025 0.930 . S
C1011 H999 0.930 . S
C1011 C1012 1.399 . S
C1011 C1016 1.399 . S
C1012 C1011 1.399 . S
C1012 C1013 1.376 . S
C1013 H1000 0.930 . S
C1013 C1012 1.376 . S
C1013 C1014 1.388 . S
C1014 H1001 0.930 . S
C1014 C1013 1.388 . S
C1014 C1015 1.390 . S
C1015 C1014 1.390 . S
C1015 C1016 1.394 . S
C1015 C1021 1.465 . S
C1016 C1011 1.399 . S
C1016 C1015 1.394 . S
C1016 C1017 1.516 . S
C1017 C1016 1.516 . S
C1017 C1018 1.502 . S
C1017 C1019 1.561 . S
C1017 C1020 1.526 . S
C1018 H1002 0.959 . S
C1018 H1003 0.959 . S
C1018 H1004 0.961 . S
C1018 C1017 1.502 . S
C1019 H1005 0.960 . S
C1019 H1006 0.961 . S
C1019 H1007 0.959 . S
C1019 C1017 1.561 . S
C1020 C1017 1.526 . S
C1020 C1021 1.396 . S
C1020 C1025 1.390 . S
C1021 C1015 1.465 . S
C1021 C1020 1.396 . S
C1021 C1022 1.399 . S
C1022 H1008 0.929 . S
C1022 C1021 1.399 . S
C1022 C1023 1.385 . S
C1023 H1009 0.931 . S
C1023 C1022 1.385 . S
C1023 C1024 1.389 . S
C1024 C1023 1.389 . S
C1024 C1025 1.387 . S
C1025 H1010 0.930 . S
C1025 C1020 1.390 . S
C1025 C1024 1.387 . S
H1026 C1038 0.930 . S
H1027 C1040 0.930 . S
H1028 C1041 0.930 . S
H1029 C1045 0.959 . S
H1030 C1045 0.959 . S
H1031 C1045 0.961 . S
H1032 C1046 0.960 . S
H1033 C1046 0.961 . S
H1034 C1046 0.959 . S
H1035 C1049 0.929 . S
H1036 C1050 0.931 . S
H1037 C1052 0.930 . S
C1038 H1026 0.930 . S
C1038 C1039 1.399 . S
C1038 C1043 1.399 . S
C1039 C1038 1.399 . S
C1039 C1040 1.376 . S
C1040 H1027 0.930 . S
C1040 C1039 1.376 . S
C1040 C1041 1.388 . S
C1041 H1028 0.930 . S
C1041 C1040 1.388 . S
C1041 C1042 1.390 . S
C1042 C1041 1.390 . S
C1042 C1043 1.394 . S
C1042 C1048 1.465 . S
C1043 C1038 1.399 . S
C1043 C1042 1.394 . S
C1043 C1044 1.516 . S
C1044 C1043 1.516 . S
C1044 C1045 1.502 . S
C1044 C1046 1.561 . S
C1044 C1047 1.526 . S
C1045 H1029 0.959 . S
C1045 H1030 0.959 . S
C1045 H1031 0.961 . S
C1045 C1044 1.502 . S
C1046 H1032 0.960 . S
C1046 H1033 0.961 . S
C1046 H1034 0.959 . S
C1046 C1044 1.561 . S
C1047 C1044 1.526 . S
C1047 C1048 1.396 . S
C1047 C1052 1.390 . S
C1048 C1042 1.465 . S
C1048 C1047 1.396 . S
C1048 C1049 1.399 . S
C1049 H1035 0.929 . S
C1049 C1048 1.399 . S
C1049 C1050 1.385 . S
C1050 H1036 0.931 . S
C1050 C1049 1.385 . S
C1050 C1051 1.389 . S
C1051 C1050 1.389 . S
C1051 C1052 1.387 . S
C1052 H1037 0.930 . S
C1052 C1047 1.390 . S
C1052 C1051 1.387 . S
H1053 C1065 0.930 . S
H1054 C1067 0.930 . S
H1055 C1068 0.930 . S
H1056 C1072 0.959 . S
H1057 C1072 0.959 . S
H1058 C1072 0.961 . S
H1059 C1073 0.960 . S
H1060 C1073 0.961 . S
H1061 C1073 0.959 . S
H1062 C1076 0.929 . S
H1063 C1077 0.931 . S
H1064 C1079 0.930 . S
C1065 H1053 0.930 . S
C1065 C1066 1.399 . S
C1065 C1070 1.399 . S
C1066 C1065 1.399 . S
C1066 C1067 1.376 . S
C1067 H1054 0.930 . S
C1067 C1066 1.376 . S
C1067 C1068 1.388 . S
C1068 H1055 0.930 . S
C1068 C1067 1.388 . S
C1068 C1069 1.390 . S
C1069 C1068 1.390 . S
C1069 C1070 1.394 . S
C1069 C1075 1.465 . S
C1070 C1065 1.399 . S
C1070 C1069 1.394 . S
C1070 C1071 1.516 . S
C1071 C1070 1.516 . S
C1071 C1072 1.502 . S
C1071 C1073 1.561 . S
C1071 C1074 1.526 . S
C1072 H1056 0.959 . S
C1072 H1057 0.959 . S
C1072 H1058 0.961 . S
C1072 C1071 1.502 . S
C1073 H1059 0.960 . S
C1073 H1060 0.961 . S
C1073 H1061 0.959 . S
C1073 C1071 1.561 . S
C1074 C1071 1.526 . S
C1074 C1075 1.396 . S
C1074 C1079 1.390 . S
C1075 C1069 1.465 . S
C1075 C1074 1.396 . S
C1075 C1076 1.399 . S
C1076 H1062 0.929 . S
C1076 C1075 1.399 . S
C1076 C1077 1.385 . S
C1077 H1063 0.931 . S
C1077 C1076 1.385 . S
C1077 C1078 1.389 . S
C1078 C1077 1.389 . S
C1078 C1079 1.387 . S
C1079 H1064 0.930 . S
C1079 C1074 1.390 . S
C1079 C1078 1.387 . S
C445 C14 1.422 . S
C457 C230 1.473 . S
C472 C50 1.491 . S
C484 C266 1.463 . S
C499 C86 1.371 . S
C511 C302 1.360 . S
C526 C122 1.421 . S
C538 C338 1.473 . S
C553 C158 1.425 . S
C565 C374 1.391 . S
C580 C410 1.418 . S
C592 C194 1.431 . S
C607 C3 1.604 . S
C619 C363 1.595 . S
C634 C39 1.480 . S
C646 C399 1.680 . S
C661 C75 1.664 . S
C673 C219 1.574 . S
C688 C111 1.601 . S
C700 C255 1.601 . S
C715 C147 1.583 . S
C727 C291 1.655 . S
C742 C183 1.669 . S
C754 C327 1.501 . S
C769 C4 1.186 . S
C781 C112 1.207 . S
C796 C40 2.244 . S
C808 C148 2.191 . S
C823 C184 1.392 . S
C835 C76 1.351 . S
C850 C220 2.187 . S
C862 C328 2.235 . S
C877 C364 1.174 . S
C889 C256 1.217 . S
C904 C292 1.395 . S
C916 C400 1.346 . S
C931 C218 0.657 . S
C943 C2 0.849 . S
C958 C38 0.846 . S
C970 C254 0.653 . S
C985 C74 0.717 . S
C997 C290 0.830 . S
C1012 C326 0.657 . S
C1024 C110 0.848 . S
C1039 C362 0.711 . S
C1051 C146 0.818 . S
C1066 C182 0.813 . S
C1078 C398 0.663 . S
