# Generated by pormake.
# Topology sra, (4)-cn, num edge types: 1
# Building blocks:
#     Node 0, Type 0, BuildingBlock: AZAVOO_clean_sbu_0, # of connection points: 4
#     Node 1, Type 0, BuildingBlock: AZAVOO_clean_sbu_0, # of connection points: 4
#     Node 2, Type 0, BuildingBlock: AZAVOO_clean_sbu_0, # of connection points: 4
#     Node 3, Type 0, BuildingBlock: AZAVOO_clean_sbu_0, # of connection points: 4
#     Node 4, Type 0, BuildingBlock: AZAVOO_clean_sbu_0, # of connection points: 4
#     Node 5, Type 0, BuildingBlock: AZAVOO_clean_sbu_0, # of connection points: 4
#     Node 6, Type 0, BuildingBlock: AZAVOO_clean_sbu_0, # of connection points: 4
#     Node 7, Type 0, BuildingBlock: AZAVOO_clean_sbu_0, # of connection points: 4
#     Edge 8, Type (0, 0), BuildingBlock: FUNLAD_clean_linker_1, # of connection points: 2
#     Edge 9, Type (0, 0), BuildingBlock: FUNLAD_clean_linker_1, # of connection points: 2
#     Edge 10, Type (0, 0), BuildingBlock: FUNLAD_clean_linker_1, # of connection points: 2
#     Edge 11, Type (0, 0), BuildingBlock: FUNLAD_clean_linker_1, # of connection points: 2
#     Edge 12, Type (0, 0), BuildingBlock: FUNLAD_clean_linker_1, # of connection points: 2
#     Edge 13, Type (0, 0), BuildingBlock: FUNLAD_clean_linker_1, # of connection points: 2
#     Edge 14, Type (0, 0), BuildingBlock: FUNLAD_clean_linker_1, # of connection points: 2
#     Edge 15, Type (0, 0), BuildingBlock: FUNLAD_clean_linker_1, # of connection points: 2
#     Edge 16, Type (0, 0), BuildingBlock: FUNLAD_clean_linker_1, # of connection points: 2
#     Edge 17, Type (0, 0), BuildingBlock: FUNLAD_clean_linker_1, # of connection points: 2
#     Edge 18, Type (0, 0), BuildingBlock: FUNLAD_clean_linker_1, # of connection points: 2
#     Edge 19, Type (0, 0), BuildingBlock: FUNLAD_clean_linker_1, # of connection points: 2
#     Edge 20, Type (0, 0), BuildingBlock: FUNLAD_clean_linker_1, # of connection points: 2
#     Edge 21, Type (0, 0), BuildingBlock: FUNLAD_clean_linker_1, # of connection points: 2
#     Edge 22, Type (0, 0), BuildingBlock: FUNLAD_clean_linker_1, # of connection points: 2
#     Edge 23, Type (0, 0), BuildingBlock: FUNLAD_clean_linker_1, # of connection points: 2
# Relax obj value: 0.077
# Max RMSD: 0.074
# Mean RMSD: 0.074
data_MOF--net-sra--node1-AZAVOO_clean_sbu_0--edge1-FUNLAD_clean_linker_1
_symmetry_space_group_name_H-M    P1
_symmetry_Int_Tables_number       1
_symmetry_cell_setting            triclinic
loop_
_symmetry_equiv_pos_as_xyz
'x, y, z'
_cell_length_a     28.02162
_cell_length_b     40.699913
_cell_length_c     45.981838
_cell_angle_alpha  89.906306
_cell_angle_beta   89.981312
_cell_angle_gamma 89.764057
loop_
_atom_site_label
_atom_site_type_symbol
_atom_site_fract_x
_atom_site_fract_y
_atom_site_fract_z
_atom_type_partial_charge
Mg0 Mg 0.02802 0.04192 0.16749 0.0
O1 O 0.02538 0.09771 0.16131 0.0
O2 O 0.09722 0.11486 0.14668 0.0
Mg3 Mg 0.14542 0.06943 0.14322 0.0
C4 C 0.05382 0.1205 0.15362 0.0
C5 C 0.93031 0.03048 0.19434 0.0
O6 O 0.95943 0.01938 0.2145 0.0
O7 O 0.02559 0.03505 0.11858 0.0
O8 O 0.09899 0.05053 0.10526 0.0
O9 O 0.05173 0.04891 0.21309 0.0
O10 O 0.10104 0.04392 0.1757 0.0
C11 C 0.05751 0.03954 0.09921 0.0
C12 C 0.09483 0.04925 0.20308 0.0
O13 O 0.94739 0.04127 0.17065 0.0
Mg14 Mg 0.02889 0.44859 0.17018 0.0
O15 O 0.02682 0.39339 0.16166 0.0
O16 O 0.95852 0.38076 0.1393 0.0
Mg17 Mg 0.91699 0.42902 0.13344 0.0
C18 C -0.00131 0.37254 0.15028 0.0
C19 C 0.12044 0.4487 0.2068 0.0
O20 O 0.08864 0.45766 0.22626 0.0
O21 O 0.04511 0.45825 0.12264 0.0
O22 O 0.97451 0.4484 0.10175 0.0
O23 O 0.99255 0.4408 0.21242 0.0
O24 O 0.95452 0.45046 0.17104 0.0
C25 C 0.01817 0.45738 0.10034 0.0
C26 C 0.95276 0.44348 0.19838 0.0
O27 O 0.10746 0.44374 0.18076 0.0
Mg28 Mg 0.02766 0.95536 0.82002 0.0
O29 O 0.03189 0.89974 0.82905 0.0
O30 O 0.09872 0.89019 0.85451 0.0
Mg31 Mg 0.13624 0.939 0.86271 0.0
C32 C 0.06083 0.88022 0.84199 0.0
C33 C 0.92168 0.97424 0.80903 0.0
O34 O 0.93605 0.99937 0.82453 0.0
O35 O 0.00392 0.96416 0.86705 0.0
O36 O 0.07275 0.95556 0.89062 0.0
O37 O 0.07305 0.94911 0.78011 0.0
O38 O 0.1013 0.95884 0.82408 0.0
C39 C 0.02849 0.96332 0.89043 0.0
C40 C 0.10939 0.95231 0.79726 0.0
O41 O 0.95067 0.95084 0.80386 0.0
Mg42 Mg 0.97291 0.56555 0.83565 0.0
O43 O 0.96525 0.62139 0.8415 0.0
O44 O 0.89712 0.63154 0.86533 0.0
Mg45 Mg 0.86164 0.58239 0.87552 0.0
C46 C 0.9351 0.64129 0.85276 0.0
C47 C 0.06488 0.56298 0.7969 0.0
O48 O 0.0342 0.54992 0.77871 0.0
O49 O -0.006 0.55954 0.88336 0.0
O50 O 0.92395 0.56856 0.90556 0.0
O51 O 0.92896 0.56792 0.7947 0.0
O52 O 0.89946 0.56027 0.83873 0.0
C53 C 0.9683 0.56128 0.90628 0.0
C54 C 0.89216 0.56448 0.81147 0.0
O55 O 0.05074 0.57212 0.82187 0.0
Mg56 Mg 0.50013 0.53712 0.67026 0.0
O57 O 0.49848 0.59289 0.6631 0.0
O58 O 0.56682 0.60785 0.64172 0.0
Mg59 Mg 0.61191 0.56165 0.63441 0.0
C60 C 0.52598 0.61476 0.65248 0.0
C61 C 0.40536 0.55047 0.70472 0.0
O62 O 0.43599 0.56343 0.723 0.0
O63 O 0.48515 0.5288 0.62191 0.0
O64 O 0.55572 0.54243 0.6026 0.0
O65 O 0.53878 0.54426 0.7127 0.0
O66 O 0.57423 0.53771 0.67019 0.0
C67 C 0.51296 0.53199 0.60008 0.0
C68 C 0.57765 0.54365 0.69746 0.0
O69 O 0.42043 0.53796 0.68113 0.0
Mg70 Mg 0.50784 0.94615 0.65985 0.0
O71 O 0.50598 0.89004 0.65581 0.0
O72 O 0.43771 0.87513 0.6345 0.0
Mg73 Mg 0.39585 0.922 0.62405 0.0
C74 C 0.47781 0.86808 0.64615 0.0
C75 C 0.60204 0.95966 0.6938 0.0
O76 O 0.57287 0.9801 0.70704 0.0
O77 O 0.52484 0.9512 0.61122 0.0
O78 O 0.45417 0.93738 0.59199 0.0
O79 O 0.46696 0.94348 0.70198 0.0
O80 O 0.43378 0.94807 0.65858 0.0
C81 C 0.4973 0.94692 0.58936 0.0
C82 C 0.42879 0.94469 0.68612 0.0
O83 O 0.58658 0.94254 0.67276 0.0
Mg84 Mg 0.54871 0.45049 0.3243 0.0
O85 O 0.55834 0.3951 0.33156 0.0
O86 O 0.63347 0.38584 0.34598 0.0
Mg87 Mg 0.67095 0.43558 0.34859 0.0
C88 C 0.59185 0.37566 0.33941 0.0
C89 C 0.4518 0.4262 0.30199 0.0
O90 O 0.48106 0.41052 0.28445 0.0
O91 O 0.54531 0.45825 0.37287 0.0
O92 O 0.62117 0.45059 0.38655 0.0
O93 O 0.57275 0.44509 0.27864 0.0
O94 O 0.62111 0.45507 0.31567 0.0
C95 C 0.57767 0.45752 0.39234 0.0
C96 C 0.61568 0.44857 0.28843 0.0
O97 O 0.46867 0.4442 0.32195 0.0
Mg98 Mg 0.50598 0.0617 0.32213 0.0
O99 O 0.49978 0.11649 0.33311 0.0
O100 O 0.43164 0.12388 0.35772 0.0
Mg101 Mg 0.39519 0.07387 0.36232 0.0
C102 C 0.46983 0.13497 0.34628 0.0
C103 C 0.5949 0.05282 0.28625 0.0
O104 O 0.56206 0.0367 0.27178 0.0
O105 O 0.52631 0.05033 0.3687 0.0
O106 O 0.45672 0.05568 0.39206 0.0
O107 O 0.46728 0.07052 0.28101 0.0
O108 O 0.43205 0.05733 0.32257 0.0
C109 C 0.50134 0.04882 0.3918 0.0
C110 C 0.42843 0.06578 0.29559 0.0
O111 O 0.58346 0.06749 0.30957 0.0
H112 H 0.04819 0.33186 0.16008 0.0
C113 C 0.01362 0.33777 0.15062 0.0
H114 H 0.95212 0.31861 0.13018 0.0
H115 H 0.05995 0.18887 0.08977 0.0
H116 H 0.04772 0.21652 0.04357 0.0
H117 H 0.01534 0.27295 0.0417 0.0
H118 H -0.00531 0.302 0.08602 0.0
C119 C 0.98622 0.31335 0.14046 0.0
C120 C 0.0032 0.27867 0.14165 0.0
C121 C 0.01512 0.26208 0.11556 0.0
C122 C 0.03432 0.2297 0.11666 0.0
C123 C 0.04569 0.21361 0.09023 0.0
C124 C 0.03879 0.22918 0.06355 0.0
C125 C 0.02052 0.26094 0.06249 0.0
C126 C 0.0088 0.27733 0.08811 0.0
H127 H -0.00166 0.15852 0.15951 0.0
C128 C 0.03519 0.15443 0.15296 0.0
H129 H 0.09825 0.17654 0.13717 0.0
H130 H 0.97773 0.30167 0.19549 0.0
H131 H 0.99179 0.27467 0.24176 0.0
H132 H 0.03056 0.22019 0.24391 0.0
H133 H 0.05462 0.19215 0.19979 0.0
C134 C 0.06189 0.18017 0.14475 0.0
C135 C 0.04158 0.21399 0.14385 0.0
C136 C 0.02943 0.23054 0.16998 0.0
C137 C 0.00917 0.26261 0.16883 0.0
C138 C -0.00495 0.27788 0.19515 0.0
C139 C 0.00261 0.26256 0.22187 0.0
C140 C 0.02426 0.23184 0.22307 0.0
C141 C 0.03763 0.21591 0.19752 0.0
H142 H 0.07729 0.8288 0.85318 0.0
C143 C 0.05071 0.84473 0.84313 0.0
H144 H 0.98341 0.84682 0.82243 0.0
H145 H 0.9851 0.69725 0.78497 0.0
H146 H 0.99059 0.72467 0.73824 0.0
H147 H 0.0017 0.78467 0.73526 0.0
H148 H 0.007 0.81768 0.77899 0.0
C149 C 0.01002 0.83155 0.83316 0.0
C150 C 0.00159 0.7955 0.83515 0.0
C151 C -0.00112 0.77654 0.80937 0.0
C152 C 0.99322 0.74186 0.81111 0.0
C153 C 0.99 0.7236 0.78497 0.0
C154 C 0.99302 0.73904 0.75798 0.0
C155 C -0.00077 0.77282 0.7563 0.0
C156 C 0.00217 0.79148 0.7816 0.0
H157 H 0.91637 0.69328 0.86006 0.0
C158 C 0.9437 0.67698 0.85136 0.0
H159 H 0.01091 0.67413 0.83063 0.0
H160 H -0.00196 0.82492 0.88876 0.0
H161 H -0.00369 0.79738 0.93551 0.0
H162 H -0.00536 0.73688 0.93857 0.0
H163 H 0.99344 0.70366 0.89491 0.0
C164 C 0.98375 0.68993 0.84016 0.0
C165 C 0.99061 0.72617 0.83862 0.0
C166 C 0.99388 0.74511 0.86444 0.0
C167 C -0.0022 0.77989 0.86268 0.0
C168 C -0.00247 0.79835 0.88879 0.0
C169 C -0.00384 0.78287 0.9158 0.0
C170 C -0.00501 0.74883 0.91752 0.0
C171 C -0.00609 0.73005 0.89224 0.0
H172 H 0.47384 0.65436 0.66115 0.0
C173 C 0.50939 0.6492 0.65279 0.0
H174 H 0.57171 0.66932 0.63407 0.0
H175 H 0.47197 0.79693 0.58521 0.0
H176 H 0.48808 0.76698 0.54071 0.0
H177 H 0.51765 0.70983 0.54227 0.0
H178 H 0.53161 0.68236 0.58833 0.0
C179 C 0.53662 0.67409 0.64324 0.0
C180 C 0.51832 0.70844 0.64264 0.0
C181 C 0.50998 0.72403 0.61551 0.0
C182 C 0.49226 0.75681 0.61462 0.0
C183 C 0.48487 0.77193 0.5872 0.0
C184 C 0.49404 0.75504 0.56146 0.0
C185 C 0.51073 0.72288 0.56233 0.0
C186 C 0.51866 0.70743 0.58896 0.0
H187 H 0.52785 0.82818 0.65777 0.0
C188 C 0.49292 0.83343 0.64853 0.0
H189 H 0.43098 0.81322 0.6295 0.0
H190 H 0.5352 0.6871 0.69833 0.0
H191 H 0.51614 0.71621 0.74281 0.0
H192 H 0.47969 0.77147 0.74123 0.0
H193 H 0.46301 0.79816 0.69515 0.0
C194 C 0.46538 0.80845 0.6396 0.0
C195 C 0.48277 0.77388 0.64085 0.0
C196 C 0.49038 0.7581 0.66801 0.0
C197 C 0.50925 0.72562 0.66891 0.0
C198 C 0.5191 0.71118 0.69633 0.0
C199 C 0.50862 0.72772 0.72206 0.0
C200 C 0.48827 0.75887 0.72117 0.0
C201 C 0.47916 0.774 0.69454 0.0
H202 H 0.61251 0.32394 0.34666 0.0
C203 C 0.58287 0.34002 0.34093 0.0
H204 H 0.51008 0.34247 0.32898 0.0
H205 H 0.50198 0.19694 0.28184 0.0
H206 H 0.49394 0.22833 0.23722 0.0
H207 H 0.50391 0.28852 0.23717 0.0
H208 H 0.52173 0.31772 0.28176 0.0
C209 C 0.53983 0.32692 0.33554 0.0
C210 C 0.53266 0.29071 0.33598 0.0
C211 C 0.52249 0.27402 0.30969 0.0
C212 C 0.51734 0.23928 0.30965 0.0
C213 C 0.50677 0.22327 0.28309 0.0
C214 C 0.50198 0.24099 0.25731 0.0
C215 C 0.50755 0.27488 0.25729 0.0
C216 C 0.51773 0.29133 0.28307 0.0
H217 H 0.45255 0.18577 0.35943 0.0
C218 C 0.47858 0.17063 0.34803 0.0
H219 H 0.54202 0.17046 0.32314 0.0
H220 H 0.54577 0.31544 0.39083 0.0
H221 H 0.55582 0.28398 0.43524 0.0
H222 H 0.55258 0.22342 0.43458 0.0
H223 H 0.5384 0.19403 0.38961 0.0
C224 C 0.51657 0.18496 0.33558 0.0
C225 C 0.52241 0.22128 0.3359 0.0
C226 C 0.5326 0.23797 0.36223 0.0
C227 C 0.53668 0.27279 0.36238 0.0
C228 C 0.54429 0.28896 0.38923 0.0
C229 C 0.54979 0.2712 0.41494 0.0
C230 C 0.54779 0.23712 0.41459 0.0
C231 C 0.53934 0.22056 0.38862 0.0
H232 H 0.38207 0.07837 0.2587 0.0
C233 C 0.38206 0.06971 0.28109 0.0
H234 H 0.34049 0.04976 0.31509 0.0
H235 H 0.18485 0.11551 0.22062 0.0
H236 H 0.21142 0.16808 0.23937 0.0
H237 H 0.27677 0.17102 0.27523 0.0
H238 H 0.31617 0.12136 0.29242 0.0
C239 C 0.34095 0.06018 0.29332 0.0
C240 C 0.29703 0.05845 0.27534 0.0
C241 C 0.27369 0.08761 0.26609 0.0
C242 C 0.23532 0.08585 0.24594 0.0
C243 C 0.21356 0.1154 0.23635 0.0
C244 C 0.22857 0.14574 0.24686 0.0
C245 C 0.26544 0.1474 0.26701 0.0
C246 C 0.28788 0.11875 0.27659 0.0
H247 H 0.12712 0.06204 0.24523 0.0
C248 C 0.13501 0.05596 0.22271 0.0
H249 H 0.18902 0.04497 0.19214 0.0
H250 H 0.33244 0.99779 0.29006 0.0
H251 H 0.30441 0.94518 0.27242 0.0
H252 H 0.23726 0.94208 0.23785 0.0
H253 H 0.19786 0.99161 0.22065 0.0
C254 C 0.1805 0.05267 0.21416 0.0
C255 C 0.22001 0.05489 0.23553 0.0
C256 C 0.24238 0.02568 0.24548 0.0
C257 C 0.28083 0.02745 0.26553 0.0
C258 C 0.30291 0.9979 0.27492 0.0
C259 C 0.28717 0.96751 0.26497 0.0
C260 C 0.24939 0.96576 0.2455 0.0
C261 C 0.22712 0.99441 0.23579 0.0
H262 H 0.64964 0.43742 0.24635 0.0
C263 C 0.65662 0.44406 0.26885 0.0
H264 H 0.70947 0.45639 0.29977 0.0
H265 H 0.85615 0.38088 0.21291 0.0
H266 H 0.82967 0.33258 0.23936 0.0
H267 H 0.76285 0.33612 0.27422 0.0
H268 H 0.72186 0.38796 0.28265 0.0
C269 C 0.70158 0.44911 0.27758 0.0
C270 C 0.74161 0.44684 0.25663 0.0
C271 C 0.76553 0.41653 0.25236 0.0
C272 C 0.80468 0.41466 0.23278 0.0
C273 C 0.82712 0.38386 0.2282 0.0
C274 C 0.81205 0.35592 0.24309 0.0
C275 C 0.77437 0.3579 0.26267 0.0
C276 C 0.75118 0.38778 0.26732 0.0
H277 H 0.90861 0.43356 0.23688 0.0
C278 C 0.90728 0.43873 0.21368 0.0
H279 H 0.86298 0.44926 0.17768 0.0
H280 H 0.70161 0.50826 0.259 0.0
H281 H 0.72725 0.55642 0.23211 0.0
H282 H 0.79585 0.55346 0.19856 0.0
H283 H 0.83912 0.50238 0.19163 0.0
C284 C 0.8649 0.44276 0.20057 0.0
C285 C 0.82036 0.44333 0.21808 0.0
C286 C 0.79523 0.47337 0.22156 0.0
C287 C 0.75585 0.47514 0.24096 0.0
C288 C 0.73175 0.50555 0.24447 0.0
C289 C 0.74612 0.53339 0.2292 0.0
C290 C 0.78473 0.53172 0.21031 0.0
C291 C 0.80923 0.50219 0.20652 0.0
H292 H 0.18692 0.94908 0.80371 0.0
C293 C 0.15884 0.94735 0.78746 0.0
H294 H 0.1435 0.94205 0.74273 0.0
H295 H 0.3495 0.00212 0.71564 0.0
H296 H 0.29935 0.04955 0.7059 0.0
H297 H 0.21302 0.04817 0.71632 0.0
H298 H 0.17644 0.9994 0.73678 0.0
C299 C 0.17067 0.94245 0.75958 0.0
C300 C 0.22176 0.94184 0.75093 0.0
C301 C 0.24226 0.97018 0.7382 0.0
C302 C 0.29178 0.97069 0.73157 0.0
C303 C 0.31177 0.99993 0.72016 0.0
C304 C 0.28345 0.02746 0.71469 0.0
C305 C 0.23488 0.02671 0.72061 0.0
C306 C 0.21434 0.99853 0.73233 0.0
H307 H 0.35096 0.94178 0.6828 0.0
C308 C 0.38044 0.94178 0.69819 0.0
H309 H 0.39943 0.94116 0.74272 0.0
H310 H 0.19334 0.88342 0.7747 0.0
H311 H 0.24357 0.83594 0.78456 0.0
H312 H 0.32942 0.83664 0.77263 0.0
H313 H 0.36565 0.8849 0.75083 0.0
C314 C 0.37088 0.94163 0.72675 0.0
C315 C 0.32038 0.94241 0.73677 0.0
C316 C 0.30001 0.91423 0.74986 0.0
C317 C 0.25056 0.91389 0.75687 0.0
C318 C 0.23084 0.88516 0.76934 0.0
C319 C 0.25922 0.85769 0.77499 0.0
C320 C 0.30756 0.85808 0.76824 0.0
C321 C 0.3279 0.88591 0.75574 0.0
H322 H 0.65479 0.55176 0.69473 0.0
C323 C 0.62474 0.55118 0.70972 0.0
H324 H 0.60371 0.55396 0.7538 0.0
H325 H 0.81588 0.50491 0.78443 0.0
H326 H 0.77084 0.45534 0.79385 0.0
H327 H 0.68467 0.45288 0.78314 0.0
H328 H 0.64318 0.49997 0.76271 0.0
C329 C 0.63261 0.55582 0.73814 0.0
C330 C 0.68244 0.55938 0.74869 0.0
C331 C 0.70571 0.53209 0.76163 0.0
C332 C 0.75509 0.53382 0.76847 0.0
C333 C 0.77805 0.50547 0.77981 0.0
C334 C 0.7527 0.4767 0.78509 0.0
C335 C 0.70422 0.47529 0.779 0.0
C336 C 0.68085 0.50252 0.76728 0.0
H337 H 0.81441 0.56411 0.81677 0.0
C338 C 0.84282 0.56568 0.8007 0.0
H339 H 0.85898 0.56795 0.75582 0.0
H340 H 0.64765 0.61668 0.7257 0.0
H341 H 0.69246 0.6666 0.71657 0.0
H342 H 0.77804 0.66984 0.72885 0.0
H343 H 0.81939 0.62316 0.75027 0.0
C344 C 0.8315 0.56596 0.77239 0.0
C345 C 0.78067 0.56333 0.76334 0.0
C346 C 0.75726 0.59071 0.75061 0.0
C347 C 0.70801 0.58878 0.74338 0.0
C348 C 0.68522 0.61667 0.73115 0.0
C349 C 0.71045 0.64552 0.72595 0.0
C350 C 0.75863 0.64735 0.73289 0.0
C351 C 0.78193 0.62038 0.74516 0.0
H352 H 0.67314 0.93588 0.69417 0.0
C353 C 0.65154 0.95502 0.70416 0.0
H354 H 0.64798 0.9916 0.73654 0.0
H355 H 0.80403 0.9339 0.82005 0.0
H356 H 0.73187 0.92556 0.84818 0.0
H357 H 0.65264 0.93545 0.82643 0.0
H358 H 0.64507 0.95365 0.77644 0.0
C359 C 0.66988 0.97308 0.72591 0.0
C360 C 0.71809 0.96629 0.7384 0.0
C361 C 0.72194 0.95581 0.76777 0.0
C362 C 0.76764 0.95034 0.78043 0.0
C363 C 0.77029 0.93916 0.80957 0.0
C364 C 0.72913 0.93405 0.82592 0.0
C365 C 0.68453 0.9396 0.81366 0.0
C366 C 0.68074 0.9502 0.78494 0.0
H367 H 0.84924 0.99446 0.80332 0.0
C368 C 0.8729 0.9745 0.79691 0.0
H369 H 0.88139 0.93305 0.76975 0.0
H370 H 0.72422 0.98877 0.6822 0.0
H371 H 0.79639 0.996 0.65399 0.0
H372 H 0.87537 0.98452 0.67547 0.0
H373 H 0.88259 0.96603 0.72543 0.0
C374 C 0.85759 0.95228 0.77747 0.0
C375 C 0.80954 0.95561 0.7638 0.0
C376 C 0.80576 0.96529 0.73424 0.0
C377 C 0.76007 0.97115 0.72163 0.0
C378 C 0.7577 0.98273 0.6926 0.0
C379 C 0.79896 0.98729 0.6762 0.0
C380 C 0.84343 0.98088 0.6883 0.0
C381 C 0.84704 0.97021 0.71701 0.0
H382 H 0.32986 0.539 0.69558 0.0
C383 C 0.3539 0.54957 0.71156 0.0
H384 H 0.35966 0.57203 0.7528 0.0
H385 H 0.14462 0.61933 0.75773 0.0
H386 H 0.18566 0.67115 0.7514 0.0
H387 H 0.27214 0.67256 0.74146 0.0
H388 H 0.31804 0.62212 0.73762 0.0
C389 C 0.33625 0.56063 0.73694 0.0
C390 C 0.28419 0.55947 0.74357 0.0
C391 C 0.25799 0.5892 0.74626 0.0
C392 C 0.2082 0.5884 0.7524 0.0
C393 C 0.18268 0.61847 0.75389 0.0
C394 C 0.20575 0.64842 0.7501 0.0
C395 C 0.25442 0.64921 0.74447 0.0
C396 C 0.28037 0.62005 0.74241 0.0
H397 H 0.13996 0.57652 0.80505 0.0
C398 C 0.11572 0.5663 0.78901 0.0
H399 H 0.10932 0.54535 0.7472 0.0
H400 H 0.32455 0.49792 0.74299 0.0
H401 H 0.28348 0.44616 0.74929 0.0
H402 H 0.19686 0.44477 0.7587 0.0
H403 H 0.15088 0.49519 0.7621 0.0
C404 C 0.13284 0.55661 0.76307 0.0
C405 C 0.18483 0.55785 0.7563 0.0
C406 C 0.21103 0.52812 0.75363 0.0
C407 C 0.26085 0.52891 0.74763 0.0
C408 C 0.28642 0.49883 0.74651 0.0
C409 C 0.26335 0.46889 0.75033 0.0
C410 C 0.2146 0.4681 0.75567 0.0
C411 C 0.18861 0.49727 0.75747 0.0
H412 H 0.67137 0.06461 0.29 0.0
C413 C 0.64481 0.05266 0.27646 0.0
H414 H 0.63227 0.0246 0.2386 0.0
H415 H 0.8503 0.08939 0.22304 0.0
H416 H 0.80998 0.14206 0.22029 0.0
H417 H 0.72278 0.14614 0.2269 0.0
H418 H 0.67564 0.09759 0.23693 0.0
C419 C 0.65825 0.03746 0.25187 0.0
C420 C 0.70938 0.03472 0.24381 0.0
C421 C 0.73593 0.06315 0.23653 0.0
C422 C 0.78575 0.06055 0.23123 0.0
C423 C 0.81202 0.08964 0.22596 0.0
C424 C 0.78936 0.12013 0.22453 0.0
C425 C 0.74031 0.12245 0.22836 0.0
C426 C 0.71373 0.09439 0.2343 0.0
H427 H 0.85551 0.04051 0.1821 0.0
C428 C 0.87868 0.03243 0.19969 0.0
H429 H 0.88283 0.01752 0.24368 0.0
H430 H 0.66844 0.97528 0.25648 0.0
H431 H 0.70807 0.92223 0.25701 0.0
H432 H 0.79383 0.9174 0.24559 0.0
H433 H 0.84054 0.96566 0.23378 0.0
C434 C 0.8602 0.02613 0.22603 0.0
C435 C 0.80828 0.02926 0.23172 0.0
C436 C 0.78144 0.00074 0.23818 0.0
C437 C 0.73191 0.00348 0.24432 0.0
C438 C 0.70608 0.97464 0.25128 0.0
C439 C 0.7284 0.944 0.25171 0.0
C440 C 0.77668 0.94128 0.24531 0.0
C441 C 0.80308 0.96921 0.23861 0.0
H442 H 0.19534 0.43524 0.19825 0.0
C443 C 0.17046 0.44313 0.21503 0.0
H444 H 0.16099 0.45366 0.25966 0.0
H445 H 0.33846 0.36937 0.3004 0.0
H446 H 0.27263 0.33807 0.32058 0.0
H447 H 0.18927 0.35253 0.30872 0.0
H448 H 0.17117 0.39838 0.27675 0.0
C449 C 0.18575 0.44691 0.24246 0.0
C450 C 0.23586 0.43923 0.25049 0.0
C451 C 0.24561 0.41241 0.26933 0.0
C452 C 0.29359 0.40399 0.27613 0.0
C453 C 0.30256 0.37692 0.29474 0.0
C454 C 0.26515 0.3587 0.30638 0.0
C455 C 0.21821 0.36684 0.2997 0.0
C456 C 0.20833 0.39328 0.28135 0.0
H457 H 0.37737 0.43983 0.31172 0.0
C458 C 0.40018 0.42669 0.2965 0.0
H459 H 0.40406 0.40304 0.25563 0.0
H460 H 0.22942 0.49496 0.21692 0.0
H461 H 0.29531 0.52581 0.19662 0.0
H462 H 0.37861 0.50943 0.20649 0.0
H463 H 0.39641 0.4623 0.23703 0.0
C464 C 0.38154 0.41473 0.27187 0.0
C465 C 0.33148 0.4224 0.26404 0.0
C466 C 0.3218 0.44928 0.24531 0.0
C467 C 0.27387 0.45813 0.23895 0.0
C468 C 0.26515 0.48629 0.22155 0.0
C469 C 0.30268 0.50444 0.20996 0.0
C470 C 0.34956 0.49526 0.21556 0.0
C471 C 0.35925 0.46813 0.23312 0.0
H472 H 0.07604 0.0346 0.05295 0.0
C473 C 0.04745 0.03116 0.06866 0.0
H474 H 0.97711 0.01381 0.07513 0.0
H475 H 0.02198 0.03586 0.93223 0.0
H476 H 0.01846 0.09408 0.94314 0.0
H477 H 0.00455 0.11337 0.9933 0.0
H478 H -0.00521 0.07435 0.03295 0.0
C479 C 0.0057 0.01851 0.05972 0.0
C480 C 0.00021 0.00748 0.02907 0.0
C481 C 0.00338 0.0305 0.00598 0.0
C482 C 0.00989 0.01934 0.97697 0.0
C483 C 0.01599 0.04289 0.95459 0.0
C484 C 0.01408 0.07643 0.96056 0.0
C485 C 0.00635 0.08729 0.98881 0.0
C486 C 0.00109 0.06469 0.01136 0.0
H487 H 0.96907 0.9817 0.91806 0.0
C488 C 0.00585 0.97312 0.91815 0.0
H489 H 0.06743 0.96384 0.94345 0.0
H490 H 0.98613 0.95714 0.06771 0.0
H491 H 0.98345 0.89894 0.05633 0.0
H492 H 0.99287 0.87964 0.00579 0.0
H493 H 0.00517 0.91852 0.96629 0.0
C494 C 0.03102 0.97313 0.94305 0.0
C495 C 0.01176 0.98516 0.97115 0.0
C496 C 0.00317 0.96232 0.99379 0.0
C497 C -0.00269 0.97348 0.02284 0.0
C498 C 0.99053 0.95001 0.04522 0.0
C499 C 0.9889 0.91654 0.03898 0.0
C500 C -0.00575 0.90567 0.01052 0.0
C501 C 0.00144 0.92818 0.9881 0.0
H502 H 0.96485 0.55533 0.95351 0.0
C503 C 0.98804 0.5519 0.93476 0.0
H504 H 0.0518 0.53001 0.91953 0.0
H505 H 0.02756 0.53333 0.06641 0.0
H506 H 0.04151 0.59184 0.06235 0.0
H507 H 0.05657 0.61752 0.01458 0.0
H508 H 0.05687 0.58458 0.97042 0.0
C509 C 0.02928 0.53538 0.93817 0.0
C510 C 0.03891 0.51902 0.96659 0.0
C511 C 0.0418 0.53805 0.99229 0.0
C512 C 0.03491 0.52298 0.01986 0.0
C513 C 0.03409 0.54314 0.04495 0.0
C514 C 0.04188 0.57687 0.04292 0.0
C515 C 0.05023 0.59135 0.01602 0.0
C516 C 0.05008 0.57228 0.9909 0.0
H517 H 0.07479 0.47673 0.0715 0.0
C518 C 0.03762 0.46925 0.07241 0.0
H519 H 0.97265 0.46561 0.04941 0.0
H520 H 0.04165 0.47463 0.92186 0.0
H521 H 0.0347 0.4154 0.92602 0.0
H522 H 0.02524 0.38896 0.974 0.0
H523 H 0.02239 0.42171 0.01814 0.0
C524 C 0.00967 0.47345 0.04899 0.0
C525 C 0.02719 0.48859 0.02159 0.0
C526 C 0.0303 0.46911 -0.00383 0.0
C527 C 0.03625 0.48433 0.96857 0.0
C528 C 0.03736 0.46436 0.94339 0.0
C529 C 0.0335 0.43031 0.94548 0.0
C530 C 0.02814 0.41542 0.97249 0.0
C531 C 0.02642 0.43447 -0.00238 0.0
H532 H 0.5937 0.46501 0.43873 0.0
C533 C 0.56528 0.46569 0.42262 0.0
H534 H 0.49254 0.477 0.41487 0.0
H535 H 0.52756 0.46045 0.55893 0.0
H536 H 0.53541 0.40226 0.54873 0.0
H537 H 0.53078 0.38157 0.4984 0.0
H538 H 0.51895 0.41917 0.4579 0.0
C539 C 0.52114 0.475 0.43074 0.0
C540 C 0.51206 0.48607 0.46103 0.0
C541 C 0.51672 0.46368 0.4845 0.0
C542 C 0.5179 0.47553 0.51355 0.0
C543 C 0.52541 0.45281 0.53647 0.0
C544 C 0.53003 0.4193 0.53092 0.0
C545 C 0.52752 0.40765 0.50258 0.0
C546 C 0.52099 0.42947 0.47955 0.0
H547 H 0.46137 0.51033 0.56895 0.0
C548 C 0.49645 0.52136 0.57109 0.0
H549 H 0.56027 0.53475 0.54965 0.0
H550 H 0.49467 0.53475 0.42115 0.0
H551 H 0.48136 0.59254 0.43152 0.0
H552 H 0.48171 0.61293 0.48204 0.0
H553 H 0.49546 0.57557 0.52252 0.0
C554 C 0.52552 0.52318 0.54788 0.0
C555 C 0.51305 0.50967 0.51895 0.0
C556 C 0.5037 0.53157 0.49568 0.0
C557 C 0.50312 0.51976 0.46662 0.0
C558 C 0.49523 0.54238 0.44367 0.0
C559 C 0.48753 0.57561 0.44932 0.0
C560 C 0.48777 0.5871 0.47776 0.0
C561 C 0.49585 0.56546 0.50076 0.0
H562 H 0.48862 0.94914 0.54222 0.0
C563 C 0.51258 0.95595 0.55982 0.0
H564 H 0.57136 0.98532 0.57156 0.0
H565 H 0.52788 0.97347 0.42647 0.0
H566 H 0.55613 0.91735 0.4307 0.0
H567 H 0.58417 0.89546 0.4778 0.0
H568 H 0.58319 0.92973 0.52117 0.0
C569 C 0.54873 0.97653 0.55408 0.0
C570 C 0.55047 0.99265 0.52494 0.0
C571 C 0.55409 0.97321 0.49949 0.0
C572 C 0.53973 0.98631 0.47216 0.0
C573 C 0.53992 0.96534 0.4476 0.0
C574 C 0.55586 0.93294 0.44976 0.0
C575 C 0.57152 0.92058 0.47629 0.0
C576 C 0.57057 0.94035 0.50097 0.0
H577 H 0.56322 0.03283 0.41819 0.0
C578 C 0.52505 0.0377 0.41877 0.0
H579 H 0.46264 0.03743 0.44447 0.0
H580 H 0.54875 0.03847 0.56858 0.0
H581 H 0.52729 0.096 0.56382 0.0
H582 H 0.50509 0.11934 0.51613 0.0
H583 H 0.50389 0.08512 0.4729 0.0
C584 C 0.50059 0.03196 0.44334 0.0
C585 C 0.5239 0.01943 0.47025 0.0
C586 C 0.52588 0.03991 0.4951 0.0
C587 C 0.53923 0.02653 0.52252 0.0
C588 C 0.53908 0.04731 0.54719 0.0
C589 C 0.52693 0.08043 0.54475 0.0
C590 C 0.5144 0.09357 0.51791 0.0
C591 C 0.51372 0.07366 0.4933 0.0
loop_
_geom_bond_atom_site_label_1
_geom_bond_atom_site_label_2
_geom_bond_distance
_geom_bond_site_symmetry_2
_ccdc_geom_bond_type
Mg0 O1 2.028 . S
Mg0 O7 1.986 . S
Mg0 O9 2.114 . S
Mg0 O10 2.251 . S
Mg0 O13 2.010 1_455 S
O1 Mg0 2.028 . S
O1 C4 1.250 . S
O2 Mg3 2.028 . S
O2 C4 1.248 . S
Mg3 O2 2.028 . S
Mg3 O8 2.032 . S
Mg3 O10 2.079 . S
C4 O1 1.250 . S
C4 O2 1.248 . S
C5 O6 1.264 . S
C5 O13 1.249 . S
O6 C5 1.264 . S
O7 Mg0 1.986 . S
O7 C11 1.246 . S
O8 Mg3 2.032 . S
O8 C11 1.259 . S
O9 Mg0 2.114 . S
O9 C12 1.252 . S
O10 Mg0 2.251 . S
O10 Mg3 2.079 . S
O10 C12 1.273 . S
C11 O7 1.246 . S
C11 O8 1.259 . S
C12 O9 1.252 . S
C12 O10 1.273 . S
O13 Mg0 2.010 1_655 S
O13 C5 1.249 . S
Mg14 O15 2.028 . S
Mg14 O21 1.986 . S
Mg14 O23 2.114 1_455 S
Mg14 O24 2.251 1_455 S
Mg14 O27 2.010 . S
O15 Mg14 2.028 . S
O15 C18 1.250 . S
O16 Mg17 2.028 . S
O16 C18 1.248 1_655 S
Mg17 O16 2.028 . S
Mg17 O22 2.032 . S
Mg17 O24 2.079 . S
C18 O15 1.250 . S
C18 O16 1.248 1_455 S
C19 O20 1.264 . S
C19 O27 1.249 . S
O20 C19 1.264 . S
O21 Mg14 1.986 . S
O21 C25 1.246 . S
O22 Mg17 2.032 . S
O22 C25 1.259 1_655 S
O23 Mg14 2.114 1_655 S
O23 C26 1.252 . S
O24 Mg14 2.251 1_655 S
O24 Mg17 2.079 . S
O24 C26 1.273 . S
C25 O21 1.246 . S
C25 O22 1.259 1_455 S
C26 O23 1.252 . S
C26 O24 1.273 . S
O27 Mg14 2.010 . S
O27 C19 1.249 . S
Mg28 O29 2.028 . S
Mg28 O35 1.986 . S
Mg28 O37 2.114 . S
Mg28 O38 2.251 . S
Mg28 O41 2.010 1_455 S
O29 Mg28 2.028 . S
O29 C32 1.250 . S
O30 Mg31 2.028 . S
O30 C32 1.248 . S
Mg31 O30 2.028 . S
Mg31 O36 2.032 . S
Mg31 O38 2.079 . S
C32 O29 1.250 . S
C32 O30 1.248 . S
C33 O34 1.264 . S
C33 O41 1.249 . S
O34 C33 1.264 . S
O35 Mg28 1.986 . S
O35 C39 1.246 . S
O36 Mg31 2.032 . S
O36 C39 1.259 . S
O37 Mg28 2.114 . S
O37 C40 1.252 . S
O38 Mg28 2.251 . S
O38 Mg31 2.079 . S
O38 C40 1.273 . S
C39 O35 1.246 . S
C39 O36 1.259 . S
C40 O37 1.252 . S
C40 O38 1.273 . S
O41 Mg28 2.010 1_655 S
O41 C33 1.249 . S
Mg42 O43 2.028 . S
Mg42 O49 1.986 . S
Mg42 O51 2.114 1_455 S
Mg42 O52 2.251 1_455 S
Mg42 O55 2.010 . S
O43 Mg42 2.028 . S
O43 C46 1.250 . S
O44 Mg45 2.028 . S
O44 C46 1.248 1_655 S
Mg45 O44 2.028 . S
Mg45 O50 2.032 . S
Mg45 O52 2.079 . S
C46 O43 1.250 . S
C46 O44 1.248 1_455 S
C47 O48 1.264 . S
C47 O55 1.249 . S
O48 C47 1.264 . S
O49 Mg42 1.986 . S
O49 C53 1.246 . S
O50 Mg45 2.032 . S
O50 C53 1.259 1_655 S
O51 Mg42 2.114 1_655 S
O51 C54 1.252 . S
O52 Mg42 2.251 1_655 S
O52 Mg45 2.079 . S
O52 C54 1.273 . S
C53 O49 1.246 . S
C53 O50 1.259 1_455 S
C54 O51 1.252 . S
C54 O52 1.273 . S
O55 Mg42 2.010 . S
O55 C47 1.249 . S
Mg56 O57 2.028 . S
Mg56 O63 1.986 . S
Mg56 O65 2.114 . S
Mg56 O66 2.251 . S
Mg56 O69 2.010 . S
O57 Mg56 2.028 . S
O57 C60 1.250 . S
O58 Mg59 2.028 . S
O58 C60 1.248 . S
Mg59 O58 2.028 . S
Mg59 O64 2.032 . S
Mg59 O66 2.079 . S
C60 O57 1.250 . S
C60 O58 1.248 . S
C61 O62 1.264 . S
C61 O69 1.249 . S
O62 C61 1.264 . S
O63 Mg56 1.986 . S
O63 C67 1.246 . S
O64 Mg59 2.032 . S
O64 C67 1.259 . S
O65 Mg56 2.114 . S
O65 C68 1.252 . S
O66 Mg56 2.251 . S
O66 Mg59 2.079 . S
O66 C68 1.273 . S
C67 O63 1.246 . S
C67 O64 1.259 . S
C68 O65 1.252 . S
C68 O66 1.273 . S
O69 Mg56 2.010 . S
O69 C61 1.249 . S
Mg70 O71 2.028 . S
Mg70 O77 1.986 . S
Mg70 O79 2.114 . S
Mg70 O80 2.251 . S
Mg70 O83 2.010 . S
O71 Mg70 2.028 . S
O71 C74 1.250 . S
O72 Mg73 2.028 . S
O72 C74 1.248 . S
Mg73 O72 2.028 . S
Mg73 O78 2.032 . S
Mg73 O80 2.079 . S
C74 O71 1.250 . S
C74 O72 1.248 . S
C75 O76 1.264 . S
C75 O83 1.249 . S
O76 C75 1.264 . S
O77 Mg70 1.986 . S
O77 C81 1.246 . S
O78 Mg73 2.032 . S
O78 C81 1.259 . S
O79 Mg70 2.114 . S
O79 C82 1.252 . S
O80 Mg70 2.251 . S
O80 Mg73 2.079 . S
O80 C82 1.273 . S
C81 O77 1.246 . S
C81 O78 1.259 . S
C82 O79 1.252 . S
C82 O80 1.273 . S
O83 Mg70 2.010 . S
O83 C75 1.249 . S
Mg84 O85 2.028 . S
Mg84 O91 1.986 . S
Mg84 O93 2.114 . S
Mg84 O94 2.251 . S
Mg84 O97 2.010 . S
O85 Mg84 2.028 . S
O85 C88 1.250 . S
O86 Mg87 2.028 . S
O86 C88 1.248 . S
Mg87 O86 2.028 . S
Mg87 O92 2.032 . S
Mg87 O94 2.079 . S
C88 O85 1.250 . S
C88 O86 1.248 . S
C89 O90 1.264 . S
C89 O97 1.249 . S
O90 C89 1.264 . S
O91 Mg84 1.986 . S
O91 C95 1.246 . S
O92 Mg87 2.032 . S
O92 C95 1.259 . S
O93 Mg84 2.114 . S
O93 C96 1.252 . S
O94 Mg84 2.251 . S
O94 Mg87 2.079 . S
O94 C96 1.273 . S
C95 O91 1.246 . S
C95 O92 1.259 . S
C96 O93 1.252 . S
C96 O94 1.273 . S
O97 Mg84 2.010 . S
O97 C89 1.249 . S
Mg98 O99 2.028 . S
Mg98 O105 1.986 . S
Mg98 O107 2.114 . S
Mg98 O108 2.251 . S
Mg98 O111 2.010 . S
O99 Mg98 2.028 . S
O99 C102 1.250 . S
O100 Mg101 2.028 . S
O100 C102 1.248 . S
Mg101 O100 2.028 . S
Mg101 O106 2.032 . S
Mg101 O108 2.079 . S
C102 O99 1.250 . S
C102 O100 1.248 . S
C103 O104 1.264 . S
C103 O111 1.249 . S
O104 C103 1.264 . S
O105 Mg98 1.986 . S
O105 C109 1.246 . S
O106 Mg101 2.032 . S
O106 C109 1.259 . S
O107 Mg98 2.114 . S
O107 C110 1.252 . S
O108 Mg98 2.251 . S
O108 Mg101 2.079 . S
O108 C110 1.273 . S
C109 O105 1.246 . S
C109 O106 1.259 . S
C110 O107 1.252 . S
C110 O108 1.273 . S
O111 Mg98 2.010 . S
O111 C103 1.249 . S
H112 C113 0.951 . S
C113 H112 0.951 . S
C113 C119 1.265 1_455 S
H114 C119 0.950 . S
H115 C123 0.949 . S
H116 C124 0.950 . S
H117 C125 0.951 . S
H118 C126 0.951 . S
C119 C113 1.265 1_655 S
C119 H114 0.950 . S
C119 C120 1.478 1_655 S
C120 C119 1.478 1_455 S
C120 C121 1.397 . S
C120 C137 1.394 . S
C121 C120 1.397 . S
C121 C122 1.438 . S
C121 C126 1.429 1_455 S
C122 C121 1.438 . S
C122 C123 1.428 . S
C122 C135 1.394 . S
C123 H115 0.949 . S
C123 C122 1.428 . S
C123 C124 1.345 . S
C124 H116 0.950 . S
C124 C123 1.345 . S
C124 C125 1.424 1_455 S
C125 H117 0.951 . S
C125 C124 1.424 1_655 S
C125 C126 1.347 . S
C126 H118 0.951 . S
C126 C121 1.429 1_655 S
C126 C125 1.347 . S
H127 C128 0.951 1_655 S
C128 H127 0.951 1_455 S
C128 C134 1.265 . S
H129 C134 0.950 . S
H130 C138 0.949 . S
H131 C139 0.950 . S
H132 C140 0.951 . S
H133 C141 0.951 . S
C134 C128 1.265 . S
C134 H129 0.950 . S
C134 C135 1.478 . S
C135 C122 1.394 . S
C135 C134 1.478 . S
C135 C136 1.397 . S
C136 C135 1.397 . S
C136 C137 1.438 . S
C136 C141 1.429 . S
C137 C120 1.394 . S
C137 C136 1.438 . S
C137 C138 1.428 . S
C138 H130 0.949 . S
C138 C137 1.428 . S
C138 C139 1.345 . S
C139 H131 0.950 . S
C139 C138 1.345 . S
C139 C140 1.424 . S
C140 H132 0.951 . S
C140 C139 1.424 . S
C140 C141 1.347 . S
C141 H133 0.951 . S
C141 C136 1.429 . S
C141 C140 1.347 . S
H142 C143 0.951 . S
C143 H142 0.951 . S
C143 C149 1.264 . S
H144 C149 0.951 1_655 S
H145 C153 0.945 1_455 S
H146 C154 0.950 . S
H147 C155 0.951 . S
H148 C156 0.951 . S
C149 C143 1.264 . S
C149 H144 0.951 1_455 S
C149 C150 1.478 . S
C150 C149 1.478 . S
C150 C151 1.397 1_455 S
C150 C167 1.394 . S
C151 C150 1.397 1_655 S
C151 C152 1.438 1_655 S
C151 C156 1.429 . S
C152 C151 1.438 1_455 S
C152 C153 1.428 1_455 S
C152 C165 1.394 . S
C153 H145 0.945 1_655 S
C153 C152 1.428 1_655 S
C153 C154 1.345 . S
C154 H146 0.950 . S
C154 C153 1.345 . S
C154 C155 1.424 . S
C155 H147 0.951 . S
C155 C154 1.424 . S
C155 C156 1.347 . S
C156 H148 0.951 . S
C156 C151 1.429 . S
C156 C155 1.347 . S
H157 C158 0.951 1_655 S
C158 H157 0.951 1_455 S
C158 C164 1.265 . S
H159 C164 0.950 . S
H160 C168 0.949 . S
H161 C169 0.950 . S
H162 C170 0.951 . S
H163 C171 0.951 . S
C164 C158 1.265 . S
C164 H159 0.950 . S
C164 C165 1.478 . S
C165 C152 1.394 . S
C165 C164 1.478 . S
C165 C166 1.397 . S
C166 C165 1.397 . S
C166 C167 1.438 . S
C166 C171 1.429 . S
C167 C150 1.394 . S
C167 C166 1.438 . S
C167 C168 1.428 . S
C168 H160 0.949 . S
C168 C167 1.428 . S
C168 C169 1.345 . S
C169 H161 0.950 . S
C169 C168 1.345 . S
C169 C170 1.424 . S
C170 H162 0.951 . S
C170 C169 1.424 . S
C170 C171 1.347 . S
C171 H163 0.951 . S
C171 C166 1.429 . S
C171 C170 1.347 . S
H172 C173 0.951 . S
C173 H172 0.951 . S
C173 C179 1.265 . S
H174 C179 0.950 . S
H175 C183 0.949 . S
H176 C184 0.950 . S
H177 C185 0.951 . S
H178 C186 0.951 . S
C179 C173 1.265 . S
C179 H174 0.950 . S
C179 C180 1.478 . S
C180 C179 1.478 . S
C180 C181 1.397 . S
C180 C197 1.394 . S
C181 C180 1.397 . S
C181 C182 1.438 . S
C181 C186 1.429 . S
C182 C181 1.438 . S
C182 C183 1.428 . S
C182 C195 1.394 . S
C183 H175 0.949 . S
C183 C182 1.428 . S
C183 C184 1.345 . S
C184 H176 0.950 . S
C184 C183 1.345 . S
C184 C185 1.424 . S
C185 H177 0.951 . S
C185 C184 1.424 . S
C185 C186 1.347 . S
C186 H178 0.951 . S
C186 C181 1.429 . S
C186 C185 1.347 . S
H187 C188 0.951 . S
C188 H187 0.951 . S
C188 C194 1.265 . S
H189 C194 0.950 . S
H190 C198 0.949 . S
H191 C199 0.950 . S
H192 C200 0.951 . S
H193 C201 0.951 . S
C194 C188 1.265 . S
C194 H189 0.950 . S
C194 C195 1.478 . S
C195 C182 1.394 . S
C195 C194 1.478 . S
C195 C196 1.397 . S
C196 C195 1.397 . S
C196 C197 1.438 . S
C196 C201 1.429 . S
C197 C180 1.394 . S
C197 C196 1.438 . S
C197 C198 1.428 . S
C198 H190 0.949 . S
C198 C197 1.428 . S
C198 C199 1.345 . S
C199 H191 0.950 . S
C199 C198 1.345 . S
C199 C200 1.424 . S
C200 H192 0.951 . S
C200 C199 1.424 . S
C200 C201 1.347 . S
C201 H193 0.951 . S
C201 C196 1.429 . S
C201 C200 1.347 . S
H202 C203 0.951 . S
C203 H202 0.951 . S
C203 C209 1.265 . S
H204 C209 0.950 . S
H205 C213 0.949 . S
H206 C214 0.950 . S
H207 C215 0.951 . S
H208 C216 0.951 . S
C209 C203 1.265 . S
C209 H204 0.950 . S
C209 C210 1.478 . S
C210 C209 1.478 . S
C210 C211 1.397 . S
C210 C227 1.394 . S
C211 C210 1.397 . S
C211 C212 1.438 . S
C211 C216 1.429 . S
C212 C211 1.438 . S
C212 C213 1.428 . S
C212 C225 1.394 . S
C213 H205 0.949 . S
C213 C212 1.428 . S
C213 C214 1.345 . S
C214 H206 0.950 . S
C214 C213 1.345 . S
C214 C215 1.424 . S
C215 H207 0.951 . S
C215 C214 1.424 . S
C215 C216 1.347 . S
C216 H208 0.951 . S
C216 C211 1.429 . S
C216 C215 1.347 . S
H217 C218 0.951 . S
C218 H217 0.951 . S
C218 C224 1.265 . S
H219 C224 0.950 . S
H220 C228 0.949 . S
H221 C229 0.950 . S
H222 C230 0.951 . S
H223 C231 0.951 . S
C224 C218 1.265 . S
C224 H219 0.950 . S
C224 C225 1.478 . S
C225 C212 1.394 . S
C225 C224 1.478 . S
C225 C226 1.397 . S
C226 C225 1.397 . S
C226 C227 1.438 . S
C226 C231 1.429 . S
C227 C210 1.394 . S
C227 C226 1.438 . S
C227 C228 1.428 . S
C228 H220 0.949 . S
C228 C227 1.428 . S
C228 C229 1.345 . S
C229 H221 0.950 . S
C229 C228 1.345 . S
C229 C230 1.424 . S
C230 H222 0.951 . S
C230 C229 1.424 . S
C230 C231 1.347 . S
C231 H223 0.951 . S
C231 C226 1.429 . S
C231 C230 1.347 . S
H232 C233 0.951 . S
C233 H232 0.951 . S
C233 C239 1.265 . S
H234 C239 0.950 . S
H235 C243 0.949 . S
H236 C244 0.950 . S
H237 C245 0.951 . S
H238 C246 0.951 . S
C239 C233 1.265 . S
C239 H234 0.950 . S
C239 C240 1.478 . S
C240 C239 1.478 . S
C240 C241 1.397 . S
C240 C257 1.394 . S
C241 C240 1.397 . S
C241 C242 1.438 . S
C241 C246 1.429 . S
C242 C241 1.438 . S
C242 C243 1.428 . S
C242 C255 1.394 . S
C243 H235 0.949 . S
C243 C242 1.428 . S
C243 C244 1.345 . S
C244 H236 0.950 . S
C244 C243 1.345 . S
C244 C245 1.424 . S
C245 H237 0.951 . S
C245 C244 1.424 . S
C245 C246 1.347 . S
C246 H238 0.951 . S
C246 C241 1.429 . S
C246 C245 1.347 . S
H247 C248 0.951 . S
C248 H247 0.951 . S
C248 C254 1.265 . S
H249 C254 0.950 . S
H250 C258 0.949 . S
H251 C259 0.950 . S
H252 C260 0.951 . S
H253 C261 0.951 . S
C254 C248 1.265 . S
C254 H249 0.950 . S
C254 C255 1.478 . S
C255 C242 1.394 . S
C255 C254 1.478 . S
C255 C256 1.397 . S
C256 C255 1.397 . S
C256 C257 1.438 . S
C256 C261 1.429 1_545 S
C257 C240 1.394 . S
C257 C256 1.438 . S
C257 C258 1.428 1_545 S
C258 H250 0.949 . S
C258 C257 1.428 1_565 S
C258 C259 1.345 . S
C259 H251 0.950 . S
C259 C258 1.345 . S
C259 C260 1.424 . S
C260 H252 0.951 . S
C260 C259 1.424 . S
C260 C261 1.347 . S
C261 H253 0.951 . S
C261 C256 1.429 1_565 S
C261 C260 1.347 . S
H262 C263 0.951 . S
C263 H262 0.951 . S
C263 C269 1.265 . S
H264 C269 0.950 . S
H265 C273 0.949 . S
H266 C274 0.950 . S
H267 C275 0.951 . S
H268 C276 0.951 . S
C269 C263 1.265 . S
C269 H264 0.950 . S
C269 C270 1.478 . S
C270 C269 1.478 . S
C270 C271 1.397 . S
C270 C287 1.394 . S
C271 C270 1.397 . S
C271 C272 1.438 . S
C271 C276 1.429 . S
C272 C271 1.438 . S
C272 C273 1.428 . S
C272 C285 1.394 . S
C273 H265 0.949 . S
C273 C272 1.428 . S
C273 C274 1.345 . S
C274 H266 0.950 . S
C274 C273 1.345 . S
C274 C275 1.424 . S
C275 H267 0.951 . S
C275 C274 1.424 . S
C275 C276 1.347 . S
C276 H268 0.951 . S
C276 C271 1.429 . S
C276 C275 1.347 . S
H277 C278 0.951 . S
C278 H277 0.951 . S
C278 C284 1.265 . S
H279 C284 0.950 . S
H280 C288 0.949 . S
H281 C289 0.950 . S
H282 C290 0.951 . S
H283 C291 0.951 . S
C284 C278 1.265 . S
C284 H279 0.950 . S
C284 C285 1.478 . S
C285 C272 1.394 . S
C285 C284 1.478 . S
C285 C286 1.397 . S
C286 C285 1.397 . S
C286 C287 1.438 . S
C286 C291 1.429 . S
C287 C270 1.394 . S
C287 C286 1.438 . S
C287 C288 1.428 . S
C288 H280 0.949 . S
C288 C287 1.428 . S
C288 C289 1.345 . S
C289 H281 0.950 . S
C289 C288 1.345 . S
C289 C290 1.424 . S
C290 H282 0.951 . S
C290 C289 1.424 . S
C290 C291 1.347 . S
C291 H283 0.951 . S
C291 C286 1.429 . S
C291 C290 1.347 . S
H292 C293 0.951 . S
C293 H292 0.951 . S
C293 C299 1.265 . S
H294 C299 0.950 . S
H295 C303 0.949 . S
H296 C304 0.950 . S
H297 C305 0.951 . S
H298 C306 0.951 . S
C299 C293 1.265 . S
C299 H294 0.950 . S
C299 C300 1.478 . S
C300 C299 1.478 . S
C300 C301 1.397 . S
C300 C317 1.394 . S
C301 C300 1.397 . S
C301 C302 1.438 . S
C301 C306 1.429 1_565 S
C302 C301 1.438 . S
C302 C303 1.428 1_565 S
C302 C315 1.394 . S
C303 H295 0.949 . S
C303 C302 1.428 1_545 S
C303 C304 1.345 . S
C304 H296 0.950 . S
C304 C303 1.345 . S
C304 C305 1.424 . S
C305 H297 0.951 . S
C305 C304 1.424 . S
C305 C306 1.347 . S
C306 H298 0.951 . S
C306 C301 1.429 1_545 S
C306 C305 1.347 . S
H307 C308 0.951 . S
C308 H307 0.951 . S
C308 C314 1.265 . S
H309 C314 0.950 . S
H310 C318 0.949 . S
H311 C319 0.950 . S
H312 C320 0.951 . S
H313 C321 0.951 . S
C314 C308 1.265 . S
C314 H309 0.950 . S
C314 C315 1.478 . S
C315 C302 1.394 . S
C315 C314 1.478 . S
C315 C316 1.397 . S
C316 C315 1.397 . S
C316 C317 1.438 . S
C316 C321 1.429 . S
C317 C300 1.394 . S
C317 C316 1.438 . S
C317 C318 1.428 . S
C318 H310 0.949 . S
C318 C317 1.428 . S
C318 C319 1.345 . S
C319 H311 0.950 . S
C319 C318 1.345 . S
C319 C320 1.424 . S
C320 H312 0.951 . S
C320 C319 1.424 . S
C320 C321 1.347 . S
C321 H313 0.951 . S
C321 C316 1.429 . S
C321 C320 1.347 . S
H322 C323 0.951 . S
C323 H322 0.951 . S
C323 C329 1.265 . S
H324 C329 0.950 . S
H325 C333 0.949 . S
H326 C334 0.950 . S
H327 C335 0.951 . S
H328 C336 0.951 . S
C329 C323 1.265 . S
C329 H324 0.950 . S
C329 C330 1.478 . S
C330 C329 1.478 . S
C330 C331 1.397 . S
C330 C347 1.394 . S
C331 C330 1.397 . S
C331 C332 1.438 . S
C331 C336 1.429 . S
C332 C331 1.438 . S
C332 C333 1.428 . S
C332 C345 1.394 . S
C333 H325 0.949 . S
C333 C332 1.428 . S
C333 C334 1.345 . S
C334 H326 0.950 . S
C334 C333 1.345 . S
C334 C335 1.424 . S
C335 H327 0.951 . S
C335 C334 1.424 . S
C335 C336 1.347 . S
C336 H328 0.951 . S
C336 C331 1.429 . S
C336 C335 1.347 . S
H337 C338 0.951 . S
C338 H337 0.951 . S
C338 C344 1.265 . S
H339 C344 0.950 . S
H340 C348 0.949 . S
H341 C349 0.950 . S
H342 C350 0.951 . S
H343 C351 0.951 . S
C344 C338 1.265 . S
C344 H339 0.950 . S
C344 C345 1.478 . S
C345 C332 1.394 . S
C345 C344 1.478 . S
C345 C346 1.397 . S
C346 C345 1.397 . S
C346 C347 1.438 . S
C346 C351 1.429 . S
C347 C330 1.394 . S
C347 C346 1.438 . S
C347 C348 1.428 . S
C348 H340 0.949 . S
C348 C347 1.428 . S
C348 C349 1.345 . S
C349 H341 0.950 . S
C349 C348 1.345 . S
C349 C350 1.424 . S
C350 H342 0.951 . S
C350 C349 1.424 . S
C350 C351 1.347 . S
C351 H343 0.951 . S
C351 C346 1.429 . S
C351 C350 1.347 . S
H352 C353 0.951 . S
C353 H352 0.951 . S
C353 C359 1.265 . S
H354 C359 0.950 . S
H355 C363 0.949 . S
H356 C364 0.950 . S
H357 C365 0.951 1_545 S
H358 C366 0.951 . S
C359 C353 1.265 . S
C359 H354 0.950 . S
C359 C360 1.478 . S
C360 C359 1.478 . S
C360 C361 1.397 . S
C360 C377 1.394 . S
C361 C360 1.397 . S
C361 C362 1.438 . S
C361 C366 1.429 . S
C362 C361 1.438 . S
C362 C363 1.428 . S
C362 C375 1.394 . S
C363 H355 0.949 . S
C363 C362 1.428 . S
C363 C364 1.345 . S
C364 H356 0.950 . S
C364 C363 1.345 . S
C364 C365 1.424 . S
C365 H357 0.951 1_565 S
C365 C364 1.424 . S
C365 C366 1.347 . S
C366 H358 0.951 . S
C366 C361 1.429 . S
C366 C365 1.347 . S
H367 C368 0.951 . S
C368 H367 0.951 . S
C368 C374 1.265 . S
H369 C374 0.950 . S
H370 C378 0.949 . S
H371 C379 0.950 . S
H372 C380 0.951 . S
H373 C381 0.951 . S
C374 C368 1.265 . S
C374 H369 0.950 . S
C374 C375 1.478 . S
C375 C362 1.394 . S
C375 C374 1.478 . S
C375 C376 1.397 . S
C376 C375 1.397 . S
C376 C377 1.438 . S
C376 C381 1.429 . S
C377 C360 1.394 . S
C377 C376 1.438 . S
C377 C378 1.428 . S
C378 H370 0.949 . S
C378 C377 1.428 . S
C378 C379 1.345 . S
C379 H371 0.950 . S
C379 C378 1.345 . S
C379 C380 1.424 . S
C380 H372 0.951 . S
C380 C379 1.424 . S
C380 C381 1.347 . S
C381 H373 0.951 . S
C381 C376 1.429 . S
C381 C380 1.347 . S
H382 C383 0.951 . S
C383 H382 0.951 . S
C383 C389 1.265 . S
H384 C389 0.950 . S
H385 C393 0.949 . S
H386 C394 0.950 . S
H387 C395 0.951 . S
H388 C396 0.951 . S
C389 C383 1.265 . S
C389 H384 0.950 . S
C389 C390 1.478 . S
C390 C389 1.478 . S
C390 C391 1.397 . S
C390 C407 1.394 . S
C391 C390 1.397 . S
C391 C392 1.438 . S
C391 C396 1.429 . S
C392 C391 1.438 . S
C392 C393 1.428 . S
C392 C405 1.394 . S
C393 H385 0.949 . S
C393 C392 1.428 . S
C393 C394 1.345 . S
C394 H386 0.950 . S
C394 C393 1.345 . S
C394 C395 1.424 . S
C395 H387 0.951 . S
C395 C394 1.424 . S
C395 C396 1.347 . S
C396 H388 0.951 . S
C396 C391 1.429 . S
C396 C395 1.347 . S
H397 C398 0.951 . S
C398 H397 0.951 . S
C398 C404 1.265 . S
H399 C404 0.950 . S
H400 C408 0.949 . S
H401 C409 0.950 . S
H402 C410 0.951 . S
H403 C411 0.951 . S
C404 C398 1.265 . S
C404 H399 0.950 . S
C404 C405 1.478 . S
C405 C392 1.394 . S
C405 C404 1.478 . S
C405 C406 1.397 . S
C406 C405 1.397 . S
C406 C407 1.438 . S
C406 C411 1.429 . S
C407 C390 1.394 . S
C407 C406 1.438 . S
C407 C408 1.428 . S
C408 H400 0.949 . S
C408 C407 1.428 . S
C408 C409 1.345 . S
C409 H401 0.950 . S
C409 C408 1.345 . S
C409 C410 1.424 . S
C410 H402 0.951 . S
C410 C409 1.424 . S
C410 C411 1.347 . S
C411 H403 0.951 . S
C411 C406 1.429 . S
C411 C410 1.347 . S
H412 C413 0.951 . S
C413 H412 0.951 . S
C413 C419 1.265 . S
H414 C419 0.950 . S
H415 C423 0.949 . S
H416 C424 0.950 . S
H417 C425 0.951 . S
H418 C426 0.951 . S
C419 C413 1.265 . S
C419 H414 0.950 . S
C419 C420 1.478 . S
C420 C419 1.478 . S
C420 C421 1.397 . S
C420 C437 1.394 . S
C421 C420 1.397 . S
C421 C422 1.438 . S
C421 C426 1.429 . S
C422 C421 1.438 . S
C422 C423 1.428 . S
C422 C435 1.394 . S
C423 H415 0.949 . S
C423 C422 1.428 . S
C423 C424 1.345 . S
C424 H416 0.950 . S
C424 C423 1.345 . S
C424 C425 1.424 . S
C425 H417 0.951 . S
C425 C424 1.424 . S
C425 C426 1.347 . S
C426 H418 0.951 . S
C426 C421 1.429 . S
C426 C425 1.347 . S
H427 C428 0.951 . S
C428 H427 0.951 . S
C428 C434 1.265 . S
H429 C434 0.950 . S
H430 C438 0.949 . S
H431 C439 0.950 . S
H432 C440 0.951 . S
H433 C441 0.951 . S
C434 C428 1.265 . S
C434 H429 0.950 . S
C434 C435 1.478 . S
C435 C422 1.394 . S
C435 C434 1.478 . S
C435 C436 1.397 . S
C436 C435 1.397 . S
C436 C437 1.438 . S
C436 C441 1.429 1_545 S
C437 C420 1.394 . S
C437 C436 1.438 . S
C437 C438 1.428 1_545 S
C438 H430 0.949 . S
C438 C437 1.428 1_565 S
C438 C439 1.345 . S
C439 H431 0.950 . S
C439 C438 1.345 . S
C439 C440 1.424 . S
C440 H432 0.951 . S
C440 C439 1.424 . S
C440 C441 1.347 . S
C441 H433 0.951 . S
C441 C436 1.429 1_565 S
C441 C440 1.347 . S
H442 C443 0.951 . S
C443 H442 0.951 . S
C443 C449 1.265 . S
H444 C449 0.950 . S
H445 C453 0.949 . S
H446 C454 0.950 . S
H447 C455 0.951 . S
H448 C456 0.951 . S
C449 C443 1.265 . S
C449 H444 0.950 . S
C449 C450 1.478 . S
C450 C449 1.478 . S
C450 C451 1.397 . S
C450 C467 1.394 . S
C451 C450 1.397 . S
C451 C452 1.438 . S
C451 C456 1.429 . S
C452 C451 1.438 . S
C452 C453 1.428 . S
C452 C465 1.394 . S
C453 H445 0.949 . S
C453 C452 1.428 . S
C453 C454 1.345 . S
C454 H446 0.950 . S
C454 C453 1.345 . S
C454 C455 1.424 . S
C455 H447 0.951 . S
C455 C454 1.424 . S
C455 C456 1.347 . S
C456 H448 0.951 . S
C456 C451 1.429 . S
C456 C455 1.347 . S
H457 C458 0.951 . S
C458 H457 0.951 . S
C458 C464 1.265 . S
H459 C464 0.950 . S
H460 C468 0.949 . S
H461 C469 0.950 . S
H462 C470 0.951 . S
H463 C471 0.951 . S
C464 C458 1.265 . S
C464 H459 0.950 . S
C464 C465 1.478 . S
C465 C452 1.394 . S
C465 C464 1.478 . S
C465 C466 1.397 . S
C466 C465 1.397 . S
C466 C467 1.438 . S
C466 C471 1.429 . S
C467 C450 1.394 . S
C467 C466 1.438 . S
C467 C468 1.428 . S
C468 H460 0.949 . S
C468 C467 1.428 . S
C468 C469 1.345 . S
C469 H461 0.950 . S
C469 C468 1.345 . S
C469 C470 1.424 . S
C470 H462 0.951 . S
C470 C469 1.424 . S
C470 C471 1.347 . S
C471 H463 0.951 . S
C471 C466 1.429 . S
C471 C470 1.347 . S
H472 C473 0.951 . S
C473 H472 0.951 . S
C473 C479 1.265 . S
H474 C479 0.950 1_655 S
H475 C483 0.949 . S
H476 C484 0.950 . S
H477 C485 0.951 . S
H478 C486 0.951 1_655 S
C479 C473 1.265 . S
C479 H474 0.950 1_455 S
C479 C480 1.478 . S
C480 C479 1.478 . S
C480 C481 1.397 . S
C480 C497 1.394 1_545 S
C481 C480 1.397 . S
C481 C482 1.438 1_554 S
C481 C486 1.429 . S
C482 C481 1.438 1_556 S
C482 C483 1.428 . S
C482 C495 1.394 1_545 S
C483 H475 0.949 . S
C483 C482 1.428 . S
C483 C484 1.345 . S
C484 H476 0.950 . S
C484 C483 1.345 . S
C484 C485 1.424 1_455 S
C485 H477 0.951 . S
C485 C484 1.424 1_655 S
C485 C486 1.347 1_656 S
C486 H478 0.951 1_455 S
C486 C481 1.429 . S
C486 C485 1.347 1_454 S
H487 C488 0.951 1_655 S
C488 H487 0.951 1_455 S
C488 C494 1.265 . S
H489 C494 0.950 . S
H490 C498 0.949 . S
H491 C499 0.950 . S
H492 C500 0.951 . S
H493 C501 0.951 . S
C494 C488 1.265 . S
C494 H489 0.950 . S
C494 C495 1.478 . S
C495 C482 1.394 1_565 S
C495 C494 1.478 . S
C495 C496 1.397 . S
C496 C495 1.397 . S
C496 C497 1.438 1_556 S
C496 C501 1.429 . S
C497 C480 1.394 1_565 S
C497 C496 1.438 1_554 S
C497 C498 1.428 . S
C498 H490 0.949 . S
C498 C497 1.428 . S
C498 C499 1.345 . S
C499 H491 0.950 . S
C499 C498 1.345 . S
C499 C500 1.424 . S
C500 H492 0.951 . S
C500 C499 1.424 . S
C500 C501 1.347 1_554 S
C501 H493 0.951 . S
C501 C496 1.429 . S
C501 C500 1.347 1_556 S
H502 C503 0.951 1_655 S
C503 H502 0.951 1_455 S
C503 C509 1.265 . S
H504 C509 0.950 . S
H505 C513 0.949 . S
H506 C514 0.950 . S
H507 C515 0.951 . S
H508 C516 0.951 . S
C509 C503 1.265 . S
C509 H504 0.950 . S
C509 C510 1.478 . S
C510 C509 1.478 . S
C510 C511 1.397 . S
C510 C527 1.394 . S
C511 C510 1.397 . S
C511 C512 1.438 1_556 S
C511 C516 1.429 . S
C512 C511 1.438 1_554 S
C512 C513 1.428 . S
C512 C525 1.392 1_455 S
C513 H505 0.949 . S
C513 C512 1.428 . S
C513 C514 1.345 . S
C514 H506 0.950 . S
C514 C513 1.345 . S
C514 C515 1.424 . S
C515 H507 0.951 . S
C515 C514 1.424 . S
C515 C516 1.347 1_554 S
C516 H508 0.951 . S
C516 C511 1.429 . S
C516 C515 1.347 1_556 S
H517 C518 0.951 . S
C518 H517 0.951 . S
C518 C524 1.265 1_455 S
H519 C524 0.950 . S
H520 C528 0.949 . S
H521 C529 0.950 . S
H522 C530 0.951 . S
H523 C531 0.951 . S
C524 C518 1.265 1_655 S
C524 H519 0.950 . S
C524 C525 1.480 . S
C525 C512 1.392 1_655 S
C525 C524 1.480 . S
C525 C526 1.397 . S
C526 C525 1.397 . S
C526 C527 1.438 1_654 S
C526 C531 1.429 . S
C527 C510 1.394 . S
C527 C526 1.438 1_456 S
C527 C528 1.428 . S
C528 H520 0.949 . S
C528 C527 1.428 . S
C528 C529 1.345 1_455 S
C529 H521 0.950 . S
C529 C528 1.345 1_655 S
C529 C530 1.424 . S
C530 H522 0.951 . S
C530 C529 1.424 . S
C530 C531 1.347 1_556 S
C531 H523 0.951 . S
C531 C526 1.429 . S
C531 C530 1.347 1_554 S
H532 C533 0.951 . S
C533 H532 0.951 . S
C533 C539 1.265 . S
H534 C539 0.950 . S
H535 C543 0.949 . S
H536 C544 0.950 . S
H537 C545 0.951 . S
H538 C546 0.951 . S
C539 C533 1.265 . S
C539 H534 0.950 . S
C539 C540 1.478 . S
C540 C539 1.478 . S
C540 C541 1.397 . S
C540 C557 1.394 . S
C541 C540 1.397 . S
C541 C542 1.438 . S
C541 C546 1.429 . S
C542 C541 1.438 . S
C542 C543 1.428 . S
C542 C555 1.394 . S
C543 H535 0.949 . S
C543 C542 1.428 . S
C543 C544 1.345 . S
C544 H536 0.950 . S
C544 C543 1.345 . S
C544 C545 1.424 . S
C545 H537 0.951 . S
C545 C544 1.424 . S
C545 C546 1.347 . S
C546 H538 0.951 . S
C546 C541 1.429 . S
C546 C545 1.347 . S
H547 C548 0.951 . S
C548 H547 0.951 . S
C548 C554 1.265 . S
H549 C554 0.950 . S
H550 C558 0.949 . S
H551 C559 0.950 . S
H552 C560 0.951 . S
H553 C561 0.951 . S
C554 C548 1.265 . S
C554 H549 0.950 . S
C554 C555 1.478 . S
C555 C542 1.394 . S
C555 C554 1.478 . S
C555 C556 1.397 . S
C556 C555 1.397 . S
C556 C557 1.438 . S
C556 C561 1.429 . S
C557 C540 1.394 . S
C557 C556 1.438 . S
C557 C558 1.428 . S
C558 H550 0.949 . S
C558 C557 1.428 . S
C558 C559 1.345 . S
C559 H551 0.950 . S
C559 C558 1.345 . S
C559 C560 1.424 . S
C560 H552 0.951 . S
C560 C559 1.424 . S
C560 C561 1.347 . S
C561 H553 0.951 . S
C561 C556 1.429 . S
C561 C560 1.347 . S
H562 C563 0.951 . S
C563 H562 0.951 . S
C563 C569 1.265 . S
H564 C569 0.950 . S
H565 C573 0.949 . S
H566 C574 0.950 . S
H567 C575 0.951 . S
H568 C576 0.951 . S
C569 C563 1.265 . S
C569 H564 0.950 . S
C569 C570 1.478 . S
C570 C569 1.478 . S
C570 C571 1.397 . S
C570 C587 1.394 1_565 S
C571 C570 1.397 . S
C571 C572 1.438 . S
C571 C576 1.429 . S
C572 C571 1.438 . S
C572 C573 1.428 . S
C572 C585 1.394 1_565 S
C573 H565 0.949 . S
C573 C572 1.428 . S
C573 C574 1.345 . S
C574 H566 0.950 . S
C574 C573 1.345 . S
C574 C575 1.424 . S
C575 H567 0.951 . S
C575 C574 1.424 . S
C575 C576 1.347 . S
C576 H568 0.951 . S
C576 C571 1.429 . S
C576 C575 1.347 . S
H577 C578 0.951 . S
C578 H577 0.951 . S
C578 C584 1.265 . S
H579 C584 0.950 . S
H580 C588 0.949 . S
H581 C589 0.950 . S
H582 C590 0.951 . S
H583 C591 0.951 . S
C584 C578 1.265 . S
C584 H579 0.950 . S
C584 C585 1.478 . S
C585 C572 1.394 1_545 S
C585 C584 1.478 . S
C585 C586 1.397 . S
C586 C585 1.397 . S
C586 C587 1.438 . S
C586 C591 1.429 . S
C587 C570 1.394 1_545 S
C587 C586 1.438 . S
C587 C588 1.428 . S
C588 H580 0.949 . S
C588 C587 1.428 . S
C588 C589 1.345 . S
C589 H581 0.950 . S
C589 C588 1.345 . S
C589 C590 1.424 . S
C590 H582 0.951 . S
C590 C589 1.424 . S
C590 C591 1.347 . S
C591 H583 0.951 . S
C591 C586 1.429 . S
C591 C590 1.347 . S
C113 C18 1.494 . S
C128 C4 1.489 . S
C143 C32 1.428 . S
C158 C46 1.429 . S
C173 C60 1.493 . S
C188 C74 1.492 . S
C203 C88 1.428 . S
C218 C102 1.429 . S
C233 C110 1.468 . S
C248 C12 1.468 . S
C263 C96 1.469 . S
C278 C26 1.467 . S
C293 C40 1.473 . S
C308 C82 1.471 . S
C323 C68 1.472 . S
C338 C54 1.472 . S
C353 C75 1.309 . S
C368 C33 1.136 . S
C383 C61 1.236 . S
C398 C47 1.237 . S
C413 C103 1.235 . S
C428 C5 1.239 . S
C443 C19 1.259 . S
C458 C89 1.213 . S
C473 C11 1.301 . S
C488 C39 1.353 . S
C503 C53 1.300 . S
C518 C25 1.352 . S
C533 C95 1.293 . S
C548 C67 1.347 . S
C563 C81 1.299 . S
C578 C109 1.351 . S
