# Generated by pormake.
# Topology mon, (4)-cn, num edge types: 1
# Building blocks:
#     Node 0, Type 0, BuildingBlock: NAHDIM_clean_sbu_0, # of connection points: 4
#     Node 1, Type 0, BuildingBlock: NAHDIM_clean_sbu_0, # of connection points: 4
#     Node 2, Type 0, BuildingBlock: NAHDIM_clean_sbu_0, # of connection points: 4
#     Node 3, Type 0, BuildingBlock: NAHDIM_clean_sbu_0, # of connection points: 4
#     Node 4, Type 0, BuildingBlock: NAHDIM_clean_sbu_0, # of connection points: 4
#     Node 5, Type 0, BuildingBlock: NAHDIM_clean_sbu_0, # of connection points: 4
#     Node 6, Type 0, BuildingBlock: NAHDIM_clean_sbu_0, # of connection points: 4
#     Node 7, Type 0, BuildingBlock: NAHDIM_clean_sbu_0, # of connection points: 4
#     Node 8, Type 0, BuildingBlock: NAHDIM_clean_sbu_0, # of connection points: 4
#     Node 9, Type 0, BuildingBlock: NAHDIM_clean_sbu_0, # of connection points: 4
#     Node 10, Type 0, BuildingBlock: NAHDIM_clean_sbu_0, # of connection points: 4
#     Node 11, Type 0, BuildingBlock: NAHDIM_clean_sbu_0, # of connection points: 4
#     Node 12, Type 0, BuildingBlock: NAHDIM_clean_sbu_0, # of connection points: 4
#     Node 13, Type 0, BuildingBlock: NAHDIM_clean_sbu_0, # of connection points: 4
#     Node 14, Type 0, BuildingBlock: NAHDIM_clean_sbu_0, # of connection points: 4
#     Node 15, Type 0, BuildingBlock: NAHDIM_clean_sbu_0, # of connection points: 4
#     Edge 16, Type (0, 0), BuildingBlock: MIFKUJ_clean_linker_0, # of connection points: 2
#     Edge 17, Type (0, 0), BuildingBlock: MIFKUJ_clean_linker_0, # of connection points: 2
#     Edge 18, Type (0, 0), BuildingBlock: MIFKUJ_clean_linker_0, # of connection points: 2
#     Edge 19, Type (0, 0), BuildingBlock: MIFKUJ_clean_linker_0, # of connection points: 2
#     Edge 20, Type (0, 0), BuildingBlock: MIFKUJ_clean_linker_0, # of connection points: 2
#     Edge 21, Type (0, 0), BuildingBlock: MIFKUJ_clean_linker_0, # of connection points: 2
#     Edge 22, Type (0, 0), BuildingBlock: MIFKUJ_clean_linker_0, # of connection points: 2
#     Edge 23, Type (0, 0), BuildingBlock: MIFKUJ_clean_linker_0, # of connection points: 2
#     Edge 24, Type (0, 0), BuildingBlock: MIFKUJ_clean_linker_0, # of connection points: 2
#     Edge 25, Type (0, 0), BuildingBlock: MIFKUJ_clean_linker_0, # of connection points: 2
#     Edge 26, Type (0, 0), BuildingBlock: MIFKUJ_clean_linker_0, # of connection points: 2
#     Edge 27, Type (0, 0), BuildingBlock: MIFKUJ_clean_linker_0, # of connection points: 2
#     Edge 28, Type (0, 0), BuildingBlock: MIFKUJ_clean_linker_0, # of connection points: 2
#     Edge 29, Type (0, 0), BuildingBlock: MIFKUJ_clean_linker_0, # of connection points: 2
#     Edge 30, Type (0, 0), BuildingBlock: MIFKUJ_clean_linker_0, # of connection points: 2
#     Edge 31, Type (0, 0), BuildingBlock: MIFKUJ_clean_linker_0, # of connection points: 2
#     Edge 32, Type (0, 0), BuildingBlock: MIFKUJ_clean_linker_0, # of connection points: 2
#     Edge 33, Type (0, 0), BuildingBlock: MIFKUJ_clean_linker_0, # of connection points: 2
#     Edge 34, Type (0, 0), BuildingBlock: MIFKUJ_clean_linker_0, # of connection points: 2
#     Edge 35, Type (0, 0), BuildingBlock: MIFKUJ_clean_linker_0, # of connection points: 2
#     Edge 36, Type (0, 0), BuildingBlock: MIFKUJ_clean_linker_0, # of connection points: 2
#     Edge 37, Type (0, 0), BuildingBlock: MIFKUJ_clean_linker_0, # of connection points: 2
#     Edge 38, Type (0, 0), BuildingBlock: MIFKUJ_clean_linker_0, # of connection points: 2
#     Edge 39, Type (0, 0), BuildingBlock: MIFKUJ_clean_linker_0, # of connection points: 2
#     Edge 40, Type (0, 0), BuildingBlock: MIFKUJ_clean_linker_0, # of connection points: 2
#     Edge 41, Type (0, 0), BuildingBlock: MIFKUJ_clean_linker_0, # of connection points: 2
#     Edge 42, Type (0, 0), BuildingBlock: MIFKUJ_clean_linker_0, # of connection points: 2
#     Edge 43, Type (0, 0), BuildingBlock: MIFKUJ_clean_linker_0, # of connection points: 2
#     Edge 44, Type (0, 0), BuildingBlock: MIFKUJ_clean_linker_0, # of connection points: 2
#     Edge 45, Type (0, 0), BuildingBlock: MIFKUJ_clean_linker_0, # of connection points: 2
#     Edge 46, Type (0, 0), BuildingBlock: MIFKUJ_clean_linker_0, # of connection points: 2
#     Edge 47, Type (0, 0), BuildingBlock: MIFKUJ_clean_linker_0, # of connection points: 2
# Relax obj value: 0.123
# Max RMSD: 0.119
# Mean RMSD: 0.119
data_MOF--net-mon--node1-NAHDIM_clean_sbu_0--edge1-MIFKUJ_clean_linker_0
_symmetry_space_group_name_H-M    P1
_symmetry_Int_Tables_number       1
_symmetry_cell_setting            triclinic
loop_
_symmetry_equiv_pos_as_xyz
'x, y, z'
_cell_length_a     44.553836
_cell_length_b     44.559065
_cell_length_c     105.58378
_cell_angle_alpha  90.015797
_cell_angle_beta   90.135196
_cell_angle_gamma 89.986222
loop_
_atom_site_label
_atom_site_type_symbol
_atom_site_fract_x
_atom_site_fract_y
_atom_site_fract_z
_atom_type_partial_charge
C0 C 0.97895 0.08732 0.5893 0.0
O1 O 0.96255 0.07786 0.57975 0.0
O2 O 0.95226 0.00714 0.5993 0.0
Zn3 Zn 0.98918 0.02473 0.59146 0.0
O4 O 0.98725 0.02093 0.57251 0.0
C5 C 0.03079 0.97666 0.59244 0.0
O6 O 0.01294 0.96683 0.58343 0.0
O7 O 0.9928 0.06825 0.59608 0.0
C8 C 0.01043 0.02746 0.5661 0.0
O9 O 0.03469 0.03667 0.57204 0.0
C10 C 0.92638 0.00953 0.59432 0.0
O11 O 0.92329 0.02432 0.58364 0.0
O12 O 0.02511 0.00172 0.59767 0.0
C13 C 0.16402 0.72295 0.84972 0.0
O14 O 0.17764 0.7046 0.8576 0.0
O15 O 0.23381 0.68521 0.8436 0.0
Zn16 Zn 0.22128 0.72527 0.8365 0.0
O17 O 0.22567 0.72683 0.81751 0.0
C18 C 0.27329 0.75359 0.84764 0.0
O19 O 0.28577 0.72734 0.84554 0.0
O20 O 0.17833 0.73365 0.84038 0.0
C21 C 0.24958 0.73512 0.81197 0.0
O22 O 0.27316 0.74247 0.81878 0.0
C23 C 0.24944 0.6667 0.83727 0.0
O24 O 0.2565 0.67313 0.82551 0.0
O25 O 0.24602 0.75775 0.84456 0.0
C26 C 0.51472 0.91016 0.10018 0.0
O27 O 0.53116 0.92502 0.1084 0.0
O28 O 0.55152 0.97788 0.096 0.0
Zn29 Zn 0.51307 0.96699 0.08727 0.0
O30 O 0.51589 0.97314 0.06846 0.0
C31 C 0.48617 0.01792 0.09915 0.0
O32 O 0.51419 0.02708 0.09921 0.0
O33 O 0.50425 0.92372 0.09055 0.0
C34 C 0.51563 -0.00099 0.0634 0.0
O35 O 0.51421 0.02289 0.07066 0.0
C36 C 0.5772 0.9806 0.09095 0.0
O37 O 0.58032 0.97591 0.07874 0.0
O38 O 0.47989 0.99248 0.09438 0.0
C39 C 0.35645 0.25762 0.34336 0.0
O40 O 0.34671 0.27967 0.33619 0.0
O41 O 0.28185 0.28297 0.3449 0.0
Zn42 Zn 0.2959 0.24132 0.34056 0.0
O43 O 0.29373 0.23539 0.32174 0.0
C44 C 0.25347 0.21885 0.35867 0.0
O45 O 0.25591 0.24622 0.36318 0.0
O46 O 0.33829 0.23703 0.34657 0.0
C47 C 0.26826 0.23147 0.31656 0.0
O48 O 0.24419 0.23063 0.32372 0.0
C49 C 0.27631 0.30365 0.33694 0.0
O50 O 0.27993 0.29851 0.32479 0.0
O51 O 0.26914 0.21125 0.34915 0.0
C52 C 0.97565 0.90752 0.40497 0.0
O53 O 0.9493 0.9169 0.40891 0.0
O54 O 0.94816 0.9802 0.39848 0.0
Zn55 Zn 0.98736 0.96959 0.40672 0.0
O56 O 0.98582 0.97578 0.42555 0.0
C57 C 0.01893 0.02369 0.40209 0.0
O58 O -0.00302 0.03418 0.40911 0.0
O59 O -0.00355 0.92653 0.40324 0.0
C60 C 0.01036 0.97789 0.43164 0.0
O61 O 0.03582 0.97556 0.42546 0.0
C62 C 0.92753 0.99436 0.40422 0.0
O63 O 0.93161 0.00239 0.41607 0.0
O64 O 0.01961 0.99584 0.39953 0.0
C65 C 0.35251 0.73298 0.63912 0.0
O66 O 0.33705 0.71293 0.63273 0.0
O67 O 0.28063 0.70411 0.64553 0.0
Zn68 Zn 0.29621 0.74356 0.6521 0.0
O69 O 0.29237 0.74534 0.67101 0.0
C70 C 0.26254 0.77599 0.63331 0.0
O71 O 0.26944 0.75272 0.62624 0.0
O72 O 0.3395 0.74854 0.64757 0.0
C73 C 0.26667 0.74593 0.67619 0.0
O74 O 0.24256 0.74524 0.669 0.0
C75 C 0.27659 0.68113 0.65245 0.0
O76 O 0.28288 0.68249 0.66459 0.0
O77 O 0.27201 0.77709 0.64465 0.0
C78 C 0.50956 0.09741 0.90015 0.0
O79 O 0.52969 0.08735 0.90821 0.0
O80 O 0.5297 0.01936 0.89726 0.0
Zn81 Zn 0.49096 0.03785 0.90302 0.0
O82 O 0.48978 0.03816 0.92202 0.0
C83 C 0.46143 -0.00222 0.88615 0.0
O84 O 0.48702 0.00072 0.88012 0.0
O85 O 0.48904 0.07979 0.89635 0.0
C86 C 0.49066 0.01334 0.92791 0.0
O87 O 0.49149 0.98823 0.92139 0.0
C88 C 0.55341 0.01615 0.90383 0.0
O89 O 0.55411 0.02591 0.91557 0.0
O90 O 0.45707 0.01271 0.89623 0.0
C91 C 0.16412 0.26267 0.14134 0.0
O92 O 0.18062 0.28312 0.13572 0.0
O93 O 0.2315 0.29452 0.15067 0.0
Zn94 Zn 0.21717 0.25419 0.15656 0.0
O95 O 0.21862 0.25143 0.17557 0.0
C96 C 0.27072 0.22827 0.14622 0.0
O97 O 0.28071 0.2558 0.14766 0.0
O98 O 0.17513 0.24758 0.15045 0.0
C99 C 0.24372 0.25325 0.18126 0.0
O100 O 0.26819 0.25747 0.17459 0.0
C101 C 0.23304 0.31806 0.15743 0.0
O102 O 0.22471 0.31709 0.16934 0.0
O103 O 0.24383 0.2222 0.14927 0.0
C104 C 0.8537 0.22142 0.1486 0.0
O105 O 0.84655 0.19571 0.15389 0.0
O106 O 0.78162 0.19224 0.14981 0.0
Zn107 Zn 0.79369 0.23361 0.15535 0.0
O108 O 0.7955 0.23649 0.17444 0.0
C109 C 0.73665 0.25578 0.14664 0.0
O110 O 0.72821 0.22825 0.14931 0.0
O111 O 0.83424 0.24221 0.14815 0.0
C112 C 0.77314 0.24585 0.18077 0.0
O113 O 0.74856 0.25377 0.17477 0.0
C114 C 0.77242 0.1719 0.15728 0.0
O115 O 0.77076 0.17748 0.16947 0.0
O116 O 0.76387 0.26332 0.14839 0.0
C117 C 0.66616 0.7493 0.65882 0.0
O118 O 0.67408 0.77062 0.66676 0.0
O119 O 0.74257 0.77852 0.65439 0.0
Zn120 Zn 0.72833 0.73824 0.66055 0.0
O121 O 0.72997 0.73675 0.67959 0.0
C122 C 0.78376 0.71127 0.65426 0.0
O123 O 0.79339 0.73633 0.65942 0.0
O124 O 0.68608 0.73139 0.65473 0.0
C125 C 0.74698 0.75421 0.68586 0.0
O126 O 0.76357 0.77384 0.67979 0.0
C127 C 0.73103 0.79249 0.64509 0.0
O128 O 0.70816 0.78065 0.63902 0.0
O129 O 0.75568 0.70655 0.65358 0.0
C130 C 0.67205 0.24612 0.35442 0.0
O131 O 0.68881 0.22883 0.36162 0.0
O132 O 0.73751 0.20896 0.34599 0.0
Zn133 Zn 0.72625 0.25018 0.34003 0.0
O134 O 0.73142 0.25284 0.32121 0.0
C135 C 0.76789 0.27424 0.35831 0.0
O136 O 0.76472 0.24767 0.36352 0.0
O137 O 0.68347 0.2582 0.34465 0.0
C138 C 0.75694 0.24734 0.31638 0.0
O139 O 0.77936 0.24002 0.32388 0.0
C140 C 0.73565 0.185 0.33952 0.0
O141 O 0.72586 0.18614 0.32778 0.0
O142 O 0.75321 0.2805 0.34832 0.0
C143 C 0.84741 0.771 0.84725 0.0
O144 O 0.83592 0.79284 0.84042 0.0
O145 O 0.76941 0.78991 0.85339 0.0
Zn146 Zn 0.78707 0.75202 0.84646 0.0
O147 O 0.7836 0.75146 0.82746 0.0
C148 C 0.77082 0.70897 0.8654 0.0
O149 O 0.79173 0.72289 0.87193 0.0
O150 O 0.83034 0.75019 0.85115 0.0
C151 C 0.76529 0.73462 0.82156 0.0
O152 O 0.74781 0.71648 0.82801 0.0
C153 C 0.74889 0.80387 0.84746 0.0
O154 O 0.73948 0.79348 0.83651 0.0
O155 O 0.76528 0.71733 0.85413 0.0
C156 C 0.48761 0.59047 0.09505 0.0
O157 O 0.46629 0.57956 0.08776 0.0
O158 O 0.45627 0.52002 0.10357 0.0
Zn159 Zn 0.49723 0.52926 0.09676 0.0
O160 O 0.49814 0.52379 0.07787 0.0
C161 C 0.51948 0.47789 0.11021 0.0
O162 O 0.49079 0.47113 0.11043 0.0
O163 O 0.50555 0.5724 0.10047 0.0
C164 C 0.50402 0.49894 0.07252 0.0
O165 O 0.50992 0.47528 0.07952 0.0
C166 C 0.43438 0.511 0.09685 0.0
O167 O 0.43788 0.50774 0.08458 0.0
O168 O 0.52781 0.50219 0.10497 0.0
C169 C 0.02306 0.40489 0.59821 0.0
O170 O 0.03536 0.41876 0.6079 0.0
O171 O 0.06671 0.47149 0.59474 0.0
Zn172 Zn 0.02691 0.46317 0.58651 0.0
O173 O 0.0267 0.47372 0.56802 0.0
C174 C 0.00232 0.513 0.60001 0.0
O175 O 0.03007 0.52267 0.59904 0.0
O176 O 0.01729 0.41957 0.58818 0.0
C177 C 0.03797 0.49737 0.56327 0.0
O178 O 0.0515 0.51686 0.57067 0.0
C179 C 0.09207 0.4723 0.58929 0.0
O180 O 0.09395 0.46662 0.57711 0.0
O181 O 0.99542 0.48765 0.59531 0.0
C182 C 0.50528 0.41083 0.89476 0.0
O183 O 0.49084 0.4299 0.88748 0.0
O184 O 0.47045 0.47759 0.90344 0.0
Zn185 Zn 0.50732 0.46108 0.91179 0.0
O186 O 0.5032 0.46107 0.9307 0.0
C187 C 0.56484 0.49126 0.91373 0.0
O188 O 0.56692 0.47718 0.92463 0.0
O189 O 0.5146 0.41931 0.90557 0.0
C190 C 0.49788 0.48543 0.93653 0.0
O191 O 0.49428 0.51024 0.92997 0.0
C192 C 0.44392 0.47716 0.90781 0.0
O193 O 0.43881 0.46534 0.91899 0.0
O194 O 0.54181 0.4873 0.90682 0.0
C195 C 0.04063 0.59374 0.39686 0.0
O196 O 0.06879 0.58512 0.39751 0.0
O197 O 0.0679 0.5201 0.39292 0.0
Zn198 Zn 0.03059 0.53198 0.40226 0.0
O199 O 0.03625 0.52883 0.42111 0.0
C200 C -0.00149 0.47708 0.3996 0.0
O201 O 0.02142 0.46717 0.40625 0.0
O202 O 0.01996 0.57444 0.39831 0.0
C203 C 0.0138 0.52397 0.42822 0.0
O204 O 0.98709 0.52074 0.4231 0.0
C205 C 0.09149 0.51086 0.39844 0.0
O206 O 0.09214 0.50943 0.41087 0.0
O207 O -0.00264 0.5047 0.39666 0.0
H208 H 0.959 0.13336 0.57454 0.0
H209 H 0.96694 0.18699 0.57778 0.0
H210 H 0.01448 0.16865 0.61256 0.0
H211 H 0.00671 0.1147 0.60939 0.0
H212 H 0.97308 0.21736 0.61413 0.0
H213 H 0.05478 0.18385 0.5883 0.0
H214 H 0.0781 0.15762 0.57027 0.0
H215 H 0.03062 0.21466 0.54428 0.0
H216 H 0.00665 0.24095 0.56217 0.0
H217 H 0.03643 0.36547 0.61733 0.0
H218 H 0.02873 0.31107 0.61737 0.0
H219 H 0.98839 0.31645 0.58025 0.0
H220 H -0.00366 0.37055 0.58004 0.0
H221 H 0.02955 0.27311 0.58121 0.0
H222 H 0.94599 0.30506 0.60671 0.0
H223 H 0.92133 0.33082 0.62455 0.0
H224 H 0.97117 0.27695 0.65095 0.0
H225 H -0.00356 0.25112 0.63326 0.0
C226 C 0.97099 0.14066 0.58293 0.0
C227 C 0.98241 0.11979 0.59167 0.0
C228 C 0.97554 0.17131 0.58475 0.0
C229 C 0.99153 0.18164 0.59534 0.0
C230 C 0.00214 0.16101 0.60431 0.0
C231 C -0.00222 0.13025 0.60246 0.0
C232 C -0.00207 0.214 0.59672 0.0
C233 C 0.98583 0.22956 0.60706 0.0
C234 C 0.01416 0.22979 0.58736 0.0
C235 C 0.02872 0.2142 0.57658 0.0
C236 C 0.04913 0.19065 0.57874 0.0
C237 C 0.0625 0.17579 0.56854 0.0
C238 C 0.0558 0.18442 0.55613 0.0
C239 C 0.03577 0.20798 0.5539 0.0
C240 C 0.02231 0.22289 0.56406 0.0
C241 C 0.02575 0.35507 0.60921 0.0
C242 C 0.01709 0.3723 0.59866 0.0
C243 C 0.02128 0.32402 0.60928 0.0
C244 C 0.00788 0.30977 0.59884 0.0
C245 C -0.00115 0.327 0.58839 0.0
C246 C 0.00337 0.35795 0.5883 0.0
C247 C 0.00418 0.27677 0.5985 0.0
C248 C 0.01694 0.26099 0.58835 0.0
C249 C 0.98848 0.26088 0.60801 0.0
C250 C 0.97337 0.27641 0.61866 0.0
C251 C 0.9519 0.2989 0.61632 0.0
C252 C 0.93777 0.31347 0.6264 0.0
C253 C 0.94475 0.30559 0.63887 0.0
C254 C 0.96583 0.28307 0.64129 0.0
C255 C 0.98005 0.26844 0.63123 0.0
H256 H 0.93377 0.31689 0.64667 0.0
H257 H 0.06617 0.17289 0.54825 0.0
H258 H 0.89108 0.80665 0.83719 0.0
H259 H 0.94536 0.80101 0.83962 0.0
H260 H 0.93176 0.72643 0.86499 0.0
H261 H 0.87739 0.73185 0.86264 0.0
H262 H 0.97848 0.76603 0.87262 0.0
H263 H 0.94565 0.71062 0.8359 0.0
H264 H 0.91931 0.70434 0.8155 0.0
H265 H 0.97471 0.77248 0.79883 0.0
H266 H 0.0011 0.77948 0.8192 0.0
H267 H 0.12355 0.69809 0.86619 0.0
H268 H 0.0698 0.70908 0.86765 0.0
H269 H 0.07888 0.77647 0.83856 0.0
H270 H 0.13221 0.76529 0.83688 0.0
H271 H 0.03386 0.74022 0.83337 0.0
H272 H 0.06767 0.7954 0.86971 0.0
H273 H 0.09357 0.80297 0.89012 0.0
H274 H 0.03689 0.73693 0.90751 0.0
H275 H 0.01089 0.72865 0.88715 0.0
C276 C 0.8996 0.78927 0.84341 0.0
C277 C 0.88 0.76946 0.84961 0.0
C278 C 0.93058 0.78609 0.84477 0.0
C279 C 0.94241 0.76313 0.85238 0.0
C280 C 0.92295 0.74426 0.85908 0.0
C281 C 0.89195 0.74729 0.85766 0.0
C282 C 0.97503 0.75747 0.8526 0.0
C283 C 0.99065 0.76008 0.86409 0.0
C284 C 0.99075 0.75019 0.8414 0.0
C285 C 0.97514 0.74578 0.82911 0.0
C286 C 0.95206 0.72443 0.82791 0.0
C287 C 0.93714 0.72071 0.81635 0.0
C288 C 0.94527 0.73806 0.80588 0.0
C289 C 0.96841 0.75909 0.80695 0.0
C290 C 0.98336 0.76292 0.81849 0.0
C291 C 0.1141 0.71541 0.86019 0.0
C292 C 0.13205 0.73066 0.85136 0.0
C293 C 0.08344 0.72176 0.86107 0.0
C294 C 0.07041 0.74368 0.85324 0.0
C295 C 0.08847 0.7594 0.84466 0.0
C296 C 0.11897 0.75296 0.84371 0.0
C297 C 0.03765 0.74914 0.85339 0.0
C298 C 0.02187 0.74629 0.84193 0.0
C299 C 0.02191 0.7563 0.86462 0.0
C300 C 0.03755 0.76117 0.87687 0.0
C301 C 0.0609 0.78228 0.87786 0.0
C302 C 0.07557 0.78675 0.88943 0.0
C303 C 0.06694 0.77037 0.9001 0.0
C304 C 0.04358 0.74955 0.89923 0.0
C305 C 0.02886 0.74499 0.88768 0.0
H306 H 0.07831 0.77387 0.90905 0.0
H307 H 0.93369 0.73517 0.79694 0.0
H308 H 0.52591 0.62056 0.11093 0.0
H309 H 0.53099 0.67502 0.11334 0.0
H310 H 0.46131 0.68851 0.08548 0.0
H311 H 0.45611 0.63434 0.08298 0.0
H312 H 0.51151 0.72274 0.08104 0.0
H313 H 0.44623 0.6984 0.11606 0.0
H314 H 0.43207 0.67182 0.13563 0.0
H315 H 0.50949 0.70771 0.15461 0.0
H316 H 0.52434 0.73419 0.13508 0.0
H317 H 0.47671 0.87451 0.08665 0.0
H318 H 0.47266 0.81998 0.08745 0.0
H319 H 0.53917 0.81717 0.1172 0.0
H320 H 0.5429 0.87198 0.11666 0.0
H321 H 0.49466 0.77714 0.12144 0.0
H322 H 0.55949 0.8027 0.08712 0.0
H323 H 0.5748 0.82928 0.0677 0.0
H324 H 0.50053 0.79054 0.04752 0.0
H325 H 0.48451 0.76407 0.06687 0.0
C326 C 0.51164 0.63515 0.10534 0.0
C327 C 0.49063 0.62319 0.09675 0.0
C328 C 0.51448 0.66619 0.10677 0.0
C329 C 0.4964 0.68567 0.09963 0.0
C330 C 0.47545 0.67378 0.09107 0.0
C331 C 0.47249 0.64283 0.08968 0.0
C332 C 0.49974 0.71853 0.10073 0.0
C333 C 0.50753 0.73469 0.08984 0.0
C334 C 0.49552 0.73387 0.11232 0.0
C335 C 0.48658 0.718 0.12407 0.0
C336 C 0.46038 0.70041 0.12437 0.0
C337 C 0.4522 0.6854 0.13546 0.0
C338 C 0.46991 0.68799 0.14635 0.0
C339 C 0.49581 0.70567 0.14617 0.0
C340 C 0.50411 0.7207 0.13509 0.0
C341 C 0.49031 0.86235 0.09344 0.0
C342 C 0.51038 0.87749 0.10149 0.0
C343 C 0.48803 0.83119 0.09386 0.0
C344 C 0.50608 0.81455 0.1022 0.0
C345 C 0.52517 0.82964 0.11065 0.0
C346 C 0.5273 0.86092 0.11031 0.0
C347 C 0.50579 0.78139 0.10167 0.0
C348 C 0.49878 0.76518 0.11266 0.0
C349 C 0.51097 0.76589 0.09018 0.0
C350 C 0.52066 0.7816 0.07848 0.0
C351 C 0.5463 0.80001 0.07857 0.0
C352 C 0.55512 0.81504 0.06757 0.0
C353 C 0.53861 0.81165 0.05639 0.0
C354 C 0.51328 0.79317 0.05618 0.0
C355 C 0.50434 0.77812 0.06716 0.0
H356 H 0.54547 0.82331 0.04788 0.0
H357 H 0.46354 0.67637 0.15493 0.0
H358 H 0.63767 0.21368 0.37089 0.0
H359 H 0.5831 0.21615 0.37345 0.0
H360 H 0.57895 0.28857 0.34641 0.0
H361 H 0.63334 0.28624 0.34375 0.0
H362 H 0.54069 0.29651 0.36753 0.0
H363 H 0.56719 0.22028 0.33632 0.0
H364 H 0.59311 0.17425 0.32935 0.0
H365 H 0.54863 0.12381 0.35844 0.0
H366 H 0.52274 0.16969 0.36568 0.0
H367 H 0.40094 0.29698 0.33729 0.0
H368 H 0.45346 0.2951 0.34369 0.0
H369 H 0.43613 0.21519 0.36557 0.0
H370 H 0.38343 0.21658 0.35898 0.0
H371 H 0.48442 0.20812 0.35153 0.0
H372 H 0.45084 0.28204 0.38038 0.0
H373 H 0.4247 0.32763 0.38764 0.0
H374 H 0.4816 0.38196 0.36423 0.0
H375 H 0.50781 0.33665 0.35666 0.0
C376 C 0.62518 0.23042 0.36563 0.0
C377 C 0.63972 0.24957 0.35702 0.0
C378 C 0.59406 0.23176 0.3671 0.0
C379 C 0.57711 0.25239 0.36005 0.0
C380 C 0.59172 0.27254 0.35194 0.0
C381 C 0.62275 0.27104 0.35038 0.0
C382 C 0.54398 0.25155 0.36023 0.0
C383 C 0.52828 0.27727 0.36403 0.0
C384 C 0.52794 0.22601 0.35604 0.0
C385 C 0.54335 0.19845 0.35164 0.0
C386 C 0.56314 0.19941 0.34129 0.0
C387 C 0.57778 0.17335 0.33728 0.0
C388 C 0.5726 0.14614 0.34348 0.0
C389 C 0.55268 0.14492 0.35367 0.0
C390 C 0.53801 0.17093 0.35773 0.0
C391 C 0.4082 0.27908 0.34352 0.0
C392 C 0.38804 0.25688 0.3476 0.0
C393 C 0.43821 0.27818 0.34727 0.0
C394 C 0.44861 0.25527 0.35527 0.0
C395 C 0.42851 0.23315 0.35944 0.0
C396 C 0.39844 0.23398 0.35566 0.0
C397 C 0.48092 0.25347 0.35851 0.0
C398 C 0.49658 0.22722 0.35533 0.0
C399 C 0.49685 0.27847 0.36336 0.0
C400 C 0.48119 0.30587 0.36789 0.0
C401 C 0.45765 0.30368 0.3767 0.0
C402 C 0.44283 0.32949 0.38088 0.0
C403 C 0.45145 0.35767 0.37638 0.0
C404 C 0.47494 0.36011 0.3677 0.0
C405 C 0.48982 0.33436 0.36347 0.0
H406 H 0.43995 0.37762 0.37964 0.0
H407 H 0.58395 0.12598 0.34036 0.0
H408 H 0.02828 0.88064 0.39811 0.0
H409 H 0.03768 0.82711 0.3952 0.0
H410 H 0.94508 0.80793 0.40392 0.0
H411 H 0.93557 0.86143 0.40707 0.0
H412 H 0.98205 0.77152 0.4166 0.0
H413 H 0.97082 0.80364 0.37358 0.0
H414 H 0.98072 0.83484 0.35476 0.0
H415 H 0.07301 0.80708 0.35504 0.0
H416 H 0.06377 0.77602 0.37397 0.0
H417 H 0.98508 0.6194 0.39813 0.0
H418 H 0.97304 0.67286 0.39795 0.0
H419 H 0.06661 0.69414 0.39267 0.0
H420 H 0.07895 0.64062 0.3928 0.0
H421 H 0.02792 0.72902 0.37773 0.0
H422 H 0.03935 0.69863 0.42123 0.0
H423 H 0.02936 0.66719 0.43998 0.0
H424 H 0.93622 0.69176 0.43865 0.0
H425 H 0.94558 0.72304 0.41977 0.0
C426 C 0.00986 0.86506 0.39935 0.0
C427 C 0.98117 0.87526 0.40283 0.0
C428 C 0.01525 0.83449 0.39762 0.0
C429 C 0.99199 0.81361 0.39921 0.0
C430 C 0.96331 0.82372 0.40264 0.0
C431 C 0.95792 0.85429 0.40441 0.0
C432 C -0.00212 0.78112 0.39776 0.0
C433 C 0.99161 0.76216 0.40802 0.0
C434 C 0.01102 0.76909 0.38667 0.0
C435 C 0.01665 0.78772 0.37527 0.0
C436 C 0.99329 0.80437 0.36969 0.0
C437 C -0.00123 0.822 0.35899 0.0
C438 C 0.02749 0.823 0.35373 0.0
C439 C 0.05078 0.80631 0.35913 0.0
C440 C 0.04542 0.78867 0.36984 0.0
C441 C 0.00309 0.63541 0.3968 0.0
C442 C 0.03303 0.62582 0.39559 0.0
C443 C 0.99616 0.66592 0.39673 0.0
C444 C 0.019 0.68732 0.39546 0.0
C445 C 0.04872 0.67786 0.3937 0.0
C446 C 0.05572 0.64732 0.39382 0.0
C447 C 0.01204 0.7196 0.39655 0.0
C448 C 0.01819 0.73846 0.38626 0.0
C449 C -0.00124 0.73157 0.40761 0.0
C450 C 0.99311 0.71292 0.41901 0.0
C451 C 0.01669 0.69713 0.42487 0.0
C452 C 0.01116 0.67938 0.43554 0.0
C453 C 0.98216 0.67741 0.44048 0.0
C454 C 0.95866 0.69327 0.43479 0.0
C455 C 0.96407 0.71103 0.42412 0.0
H456 H 0.97793 0.66366 0.44873 0.0
H457 H 0.03169 0.83665 0.34544 0.0
H458 H 0.38958 0.77507 0.64941 0.0
H459 H 0.44409 0.7772 0.64821 0.0
H460 H 0.44435 0.69985 0.62362 0.0
H461 H 0.38949 0.69735 0.62487 0.0
H462 H 0.48275 0.69329 0.64319 0.0
H463 H 0.46452 0.7673 0.61191 0.0
H464 H 0.4413 0.81207 0.60229 0.0
H465 H 0.47843 0.86736 0.63172 0.0
H466 H 0.50152 0.82286 0.64164 0.0
H467 H 0.64265 0.70882 0.642 0.0
H468 H 0.59064 0.70541 0.63463 0.0
H469 H 0.56699 0.78098 0.65813 0.0
H470 H 0.61886 0.78479 0.66542 0.0
H471 H 0.54215 0.78521 0.63462 0.0
H472 H 0.55236 0.70962 0.66752 0.0
H473 H 0.57476 0.66471 0.6774 0.0
H474 H 0.55204 0.61238 0.64459 0.0
H475 H 0.52983 0.65712 0.63445 0.0
C476 C 0.40113 0.7587 0.64361 0.0
C477 C 0.38523 0.73593 0.63729 0.0
C478 C 0.43231 0.76009 0.64286 0.0
C479 C 0.44824 0.73885 0.63573 0.0
C480 C 0.43243 0.71652 0.62913 0.0
C481 C 0.40112 0.71517 0.62984 0.0
C482 C 0.48144 0.73869 0.63617 0.0
C483 C 0.49586 0.71314 0.641 0.0
C484 C 0.49841 0.76474 0.6335 0.0
C485 C 0.48464 0.79166 0.62756 0.0
C486 C 0.46757 0.78897 0.61639 0.0
C487 C 0.45445 0.81431 0.61087 0.0
C488 C 0.45835 0.84253 0.6164 0.0
C489 C 0.47543 0.84548 0.62745 0.0
C490 C 0.48858 0.8202 0.63301 0.0
C491 C 0.62637 0.72472 0.64559 0.0
C492 C 0.63482 0.74698 0.65435 0.0
C493 C 0.59669 0.72273 0.64137 0.0
C494 C 0.57498 0.74284 0.64589 0.0
C495 C 0.58345 0.76531 0.65449 0.0
C496 C 0.61307 0.76733 0.65871 0.0
C497 C 0.54317 0.74018 0.64201 0.0
C498 C 0.52907 0.76519 0.63653 0.0
C499 C 0.52648 0.71363 0.64407 0.0
C500 C 0.5398 0.68677 0.65017 0.0
C501 C 0.55238 0.68859 0.66237 0.0
C502 C 0.56499 0.66316 0.66802 0.0
C503 C 0.56492 0.63573 0.66161 0.0
C504 C 0.55215 0.63366 0.64954 0.0
C505 C 0.53954 0.65903 0.64383 0.0
H506 H 0.57468 0.61607 0.666 0.0
H507 H 0.44818 0.86213 0.61212 0.0
H508 H 0.54177 0.36879 0.90543 0.0
H509 H 0.54438 0.31547 0.90037 0.0
H510 H 0.47963 0.32784 0.87038 0.0
H511 H 0.47691 0.3815 0.87537 0.0
H512 H 0.46412 0.28312 0.88707 0.0
H513 H 0.54874 0.30886 0.86231 0.0
H514 H 0.59677 0.33347 0.85724 0.0
H515 H 0.64026 0.28478 0.88719 0.0
H516 H 0.5924 0.26019 0.89258 0.0
H517 H 0.47546 0.12401 0.88167 0.0
H518 H 0.47639 0.17672 0.87514 0.0
H519 H 0.54644 0.19442 0.90244 0.0
H520 H 0.54621 0.14185 0.90876 0.0
H521 H 0.55722 0.22376 0.88104 0.0
H522 H 0.47107 0.20847 0.90869 0.0
H523 H 0.42301 0.18514 0.91479 0.0
H524 H 0.38281 0.21546 0.88007 0.0
H525 H 0.43077 0.23868 0.87371 0.0
C526 C 0.52837 0.36028 0.89764 0.0
C527 C 0.50898 0.37926 0.89085 0.0
C528 C 0.53006 0.32985 0.8947 0.0
C529 C 0.51238 0.31782 0.88493 0.0
C530 C 0.49357 0.33681 0.8779 0.0
C531 C 0.49207 0.3674 0.88076 0.0
C532 C 0.51149 0.28496 0.88309 0.0
C533 C 0.48431 0.27009 0.88539 0.0
C534 C 0.53794 0.2681 0.88109 0.0
C535 C 0.56688 0.28276 0.87788 0.0
C536 C 0.56848 0.30355 0.86788 0.0
C537 C 0.5957 0.31747 0.86494 0.0
C538 C 0.62154 0.31072 0.87189 0.0
C539 C 0.62023 0.28998 0.8818 0.0
C540 C 0.59306 0.276 0.88479 0.0
C541 C 0.49117 0.13913 0.88622 0.0
C542 C 0.51058 0.12887 0.89581 0.0
C543 C 0.49167 0.16921 0.88248 0.0
C544 C 0.51126 0.18954 0.8884 0.0
C545 C 0.5312 0.1791 0.89772 0.0
C546 C 0.53091 0.14906 0.90137 0.0
C547 C 0.51012 0.22204 0.88554 0.0
C548 C 0.53689 0.23679 0.88235 0.0
C549 C 0.48335 0.23886 0.88682 0.0
C550 C 0.45456 0.22494 0.89065 0.0
C551 C 0.45203 0.20995 0.90232 0.0
C552 C 0.42481 0.19679 0.90583 0.0
C553 C 0.39991 0.19873 0.8978 0.0
C554 C 0.40214 0.21391 0.88626 0.0
C555 C 0.42933 0.22708 0.8827 0.0
H556 H 0.37885 0.18853 0.90054 0.0
H557 H 0.64259 0.32153 0.8696 0.0
H558 H 0.1291 0.29976 0.12691 0.0
H559 H 0.07525 0.2947 0.12264 0.0
H560 H 0.07408 0.21091 0.14308 0.0
H561 H 0.12769 0.21584 0.14746 0.0
H562 H 0.03865 0.21085 0.12048 0.0
H563 H 0.05659 0.2715 0.15843 0.0
H564 H 0.07819 0.31491 0.16973 0.0
H565 H 0.03216 0.37506 0.14453 0.0
H566 H 0.01061 0.33193 0.13298 0.0
H567 H 0.90127 0.18305 0.14973 0.0
H568 H 0.95256 0.19238 0.14287 0.0
H569 H 0.92663 0.27988 0.12914 0.0
H570 H 0.87519 0.27095 0.13627 0.0
H571 H 0.97456 0.28417 0.14325 0.0
H572 H 0.94739 0.22387 0.10834 0.0
H573 H 0.92548 0.18101 0.09682 0.0
H574 H 0.98772 0.12124 0.11498 0.0
H575 H 0.00973 0.16366 0.12677 0.0
C576 C 0.11745 0.28006 0.13033 0.0
C577 C 0.13248 0.25835 0.13764 0.0
C578 C 0.08675 0.27721 0.12788 0.0
C579 C 0.07082 0.2525 0.1326 0.0
C580 C 0.08609 0.23007 0.13933 0.0
C581 C 0.11664 0.23305 0.1419 0.0
C582 C 0.0378 0.25116 0.13169 0.0
C583 C 0.02449 0.22682 0.12542 0.0
C584 C 0.0195 0.27267 0.13778 0.0
C585 C 0.03233 0.29854 0.14475 0.0
C586 C 0.0513 0.29399 0.15524 0.0
C587 C 0.06348 0.31853 0.1617 0.0
C588 C 0.05664 0.34773 0.15782 0.0
C589 C 0.0375 0.35244 0.1475 0.0
C590 C 0.02529 0.32795 0.141 0.0
C591 C 0.90636 0.20417 0.14514 0.0
C592 C 0.88423 0.22634 0.14362 0.0
C593 C 0.93566 0.20937 0.1411 0.0
C594 C 0.94335 0.23668 0.13533 0.0
C595 C 0.92114 0.25861 0.13353 0.0
C596 C 0.8918 0.25348 0.13762 0.0
C597 C 0.97516 0.24318 0.13237 0.0
C598 C 0.98838 0.26854 0.13795 0.0
C599 C 0.99327 0.2227 0.12555 0.0
C600 C 0.98013 0.19699 0.1185 0.0
C601 C 0.95627 0.20157 0.10995 0.0
C602 C 0.94385 0.17734 0.10336 0.0
C603 C 0.95517 0.14842 0.10518 0.0
C604 C 0.97897 0.14366 0.11358 0.0
C605 C 0.99147 0.16781 0.12021 0.0
H606 H 0.94553 0.12969 0.10006 0.0
H607 H 0.06608 0.36671 0.16284 0.0
H608 H 0.05853 0.98954 0.44689 0.0
H609 H 0.05847 -0.00116 0.46967 0.0
H610 H 0.96232 0.98744 0.47046 0.0
H611 H 0.96209 0.9788 0.44759 0.0
H612 H 0.97842 0.03454 0.48428 0.0
H613 H 0.01016 0.93196 0.48091 0.0
H614 H 0.04127 0.88994 0.47326 0.0
H615 H 0.11976 0.93089 0.4894 0.0
H616 H 0.08917 0.97338 0.497 0.0
H617 H 0.96282 0.01389 0.55077 0.0
H618 H 0.96317 0.00677 0.52781 0.0
H619 H 0.05813 0.02549 0.52702 0.0
H620 H 0.05804 0.03259 0.54999 0.0
H621 H 0.04296 0.97511 0.51329 0.0
H622 H 0.01041 0.0774 0.51696 0.0
H623 H 0.9787 0.11873 0.52481 0.0
H624 H 0.90088 0.07732 0.50831 0.0
H625 H 0.93207 0.03548 0.5005 0.0
C626 C 0.03736 0.98895 0.4519 0.0
C627 C 0.01032 0.98329 0.44545 0.0
C628 C 0.03738 0.99417 0.46494 0.0
C629 C 0.01043 0.99342 0.4718 0.0
C630 C 0.98337 0.98807 0.46535 0.0
C631 C 0.9833 0.98305 0.45229 0.0
C632 C 0.01045 -0.00157 0.48568 0.0
C633 C 0.99222 0.02127 0.49064 0.0
C634 C 0.02898 0.98156 0.49394 0.0
C635 C 0.04741 0.95599 0.48941 0.0
C636 C 0.03409 0.93212 0.48274 0.0
C637 C 0.05162 0.9082 0.47843 0.0
C638 C 0.08248 0.90779 0.48081 0.0
C639 C 0.09586 0.93126 0.48754 0.0
C640 C 0.07843 0.95525 0.49187 0.0
C641 C 0.98377 0.01659 0.54571 0.0
C642 C 0.01041 0.02384 0.55219 0.0
C643 C 0.9839 0.01261 0.53259 0.0
C644 C 0.01064 0.01581 0.52573 0.0
C645 C 0.03727 0.02296 0.53217 0.0
C646 C 0.03714 0.0271 0.54528 0.0
C647 C 0.01091 0.01113 0.51186 0.0
C648 C 0.02918 0.98836 0.50691 0.0
C649 C 0.99233 0.02795 0.50362 0.0
C650 C 0.97354 0.05316 0.50825 0.0
C651 C 0.98649 0.07697 0.51509 0.0
C652 C 0.96862 0.10052 0.51952 0.0
C653 C 0.93778 0.10061 0.51709 0.0
C654 C 0.92476 0.0772 0.5102 0.0
C655 C 0.94253 0.05357 0.50576 0.0
H656 H 0.92398 0.11886 0.52052 0.0
H657 H 0.09602 0.88925 0.47747 0.0
H658 H 0.29842 0.74624 0.7971 0.0
H659 H 0.30013 0.7491 0.77401 0.0
H660 H 0.20508 0.731 0.77217 0.0
H661 H 0.20331 0.72737 0.79524 0.0
H662 H 0.2338 0.69918 0.75494 0.0
H663 H 0.2332 0.80226 0.76771 0.0
H664 H 0.25025 0.84685 0.77954 0.0
H665 H 0.33692 0.84048 0.76204 0.0
H666 H 0.32051 0.79558 0.75023 0.0
H667 H 0.21561 0.74148 0.6904 0.0
H668 H 0.21174 0.74085 0.71351 0.0
H669 H 0.30778 0.75073 0.71661 0.0
H670 H 0.31189 0.75149 0.69354 0.0
H671 H 0.27707 0.78768 0.73308 0.0
H672 H 0.27714 0.68354 0.72071 0.0
H673 H 0.25924 0.63936 0.70883 0.0
H674 H 0.17201 0.64871 0.72559 0.0
H675 H 0.18929 0.69324 0.73744 0.0
C676 C 0.27787 0.74287 0.79178 0.0
C677 C 0.25071 0.73667 0.798 0.0
C678 C 0.27886 0.74466 0.77859 0.0
C679 C 0.25264 0.7407 0.77137 0.0
C680 C 0.22556 0.73419 0.77755 0.0
C681 C 0.22459 0.73218 0.79074 0.0
C682 C 0.25353 0.74298 0.75737 0.0
C683 C 0.24284 0.71874 0.75017 0.0
C684 C 0.26582 0.76827 0.75114 0.0
C685 C 0.2757 0.79538 0.75817 0.0
C686 C 0.25597 0.81024 0.76645 0.0
C687 C 0.2655 0.83559 0.77314 0.0
C688 C 0.29467 0.84645 0.77157 0.0
C689 C 0.31434 0.83202 0.76326 0.0
C690 C 0.30492 0.80664 0.75656 0.0
C691 C 0.2359 0.74361 0.69599 0.0
C692 C 0.26407 0.74639 0.69014 0.0
C693 C 0.23365 0.74317 0.70919 0.0
C694 C 0.25951 0.74548 0.71674 0.0
C695 C 0.28757 0.7489 0.71093 0.0
C696 C 0.28987 0.74921 0.69775 0.0
C697 C 0.25744 0.74388 0.73071 0.0
C698 C 0.26791 0.76822 0.73789 0.0
C699 C 0.24479 0.71878 0.73692 0.0
C700 C 0.23442 0.69191 0.72986 0.0
C701 C 0.25408 0.67632 0.72178 0.0
C702 C 0.24405 0.65119 0.71507 0.0
C703 C 0.21448 0.64128 0.71643 0.0
C704 C 0.1949 0.65644 0.72453 0.0
C705 C 0.2048 0.68161 0.73126 0.0
H706 H 0.20677 0.62182 0.71122 0.0
H707 H 0.30202 0.86608 0.77676 0.0
H708 H 0.51914 0.95415 0.04583 0.0
H709 H 0.51656 0.95879 0.02283 0.0
H710 H 0.50931 0.05498 0.02631 0.0
H711 H 0.51152 0.05054 0.04939 0.0
H712 H 0.46818 0.0328 0.00999 0.0
H713 H 0.57402 0.02351 0.01622 0.0
H714 H 0.62074 0.00103 0.02443 0.0
H715 H 0.60188 0.91947 0.00426 0.0
H716 H 0.5548 0.94131 0.99607 0.0
H717 H 0.48976 0.06112 0.94418 0.0
H718 H 0.49495 0.06015 0.96723 0.0
H719 H 0.50133 0.96357 0.96632 0.0
H720 H 0.49643 0.96432 0.94327 0.0
H721 H 0.54429 0.98838 0.98133 0.0
H722 H 0.43744 -0.00278 0.97584 0.0
H723 H 0.39071 0.01981 0.96768 0.0
H724 H 0.41183 0.10263 0.9865 0.0
H725 H 0.45892 0.08064 0.99463 0.0
C726 C 0.51718 0.97634 0.04172 0.0
C727 C 0.51554 0.00199 0.04945 0.0
C728 C 0.51583 0.97895 0.02856 0.0
C729 C 0.51302 0.00725 0.02286 0.0
C730 C 0.51152 0.03293 0.03053 0.0
C731 C 0.51289 0.03035 0.04371 0.0
C732 C 0.51065 0.00983 0.0089 0.0
C733 C 0.48507 0.02354 0.00372 0.0
C734 C 0.53239 -0.00283 0.00074 0.0
C735 C 0.56073 0.98397 0.00562 0.0
C736 C 0.57971 0.00069 0.01362 0.0
C737 C 0.60628 0.98808 0.01825 0.0
C738 C 0.61424 0.95881 0.01489 0.0
C739 C 0.59567 0.94213 0.00687 0.0
C740 C 0.56905 0.95462 0.00222 0.0
C741 C 0.49212 0.03965 0.94888 0.0
C742 C 0.49262 0.01278 0.94189 0.0
C743 C 0.49501 0.03914 0.96206 0.0
C744 C 0.49832 0.01177 0.96848 0.0
C745 C 0.49882 0.98493 0.96154 0.0
C746 C 0.49589 0.9854 0.94837 0.0
C747 C 0.50171 0.0111 0.98244 0.0
C748 C 0.5275 -0.00224 0.98761 0.0
C749 C 0.48018 0.02414 0.99059 0.0
C750 C 0.45186 0.03739 0.98573 0.0
C751 C 0.43225 0.02033 0.97815 0.0
C752 C 0.40567 0.03301 0.97355 0.0
C753 C 0.39835 0.06267 0.97654 0.0
C754 C 0.41756 0.07968 0.98417 0.0
C755 C 0.44418 0.06711 0.98879 0.0
H756 H 0.37776 0.07244 0.97297 0.0
H757 H 0.63483 0.94909 0.01849 0.0
H758 H 0.29397 0.25491 0.19609 0.0
H759 H 0.29706 0.24925 0.21905 0.0
H760 H 0.2009 0.23899 0.22093 0.0
H761 H 0.19752 0.24498 0.19794 0.0
H762 H 0.22192 0.2767 0.23915 0.0
H763 H 0.24586 0.17842 0.22352 0.0
H764 H 0.27309 0.14183 0.21031 0.0
H765 H 0.3562 0.16717 0.22798 0.0
H766 H 0.32952 0.20423 0.24118 0.0
H767 H 0.21704 0.22541 0.3025 0.0
H768 H 0.21226 0.22685 0.27945 0.0
H769 H 0.30819 0.23691 0.27601 0.0
H770 H 0.31326 0.23513 0.29906 0.0
H771 H 0.28612 0.19802 0.25855 0.0
H772 H 0.26319 0.29709 0.27357 0.0
H773 H 0.23681 0.3346 0.28662 0.0
H774 H 0.15272 0.30868 0.26996 0.0
H775 H 0.17856 0.27066 0.25694 0.0
C776 C 0.27345 0.25147 0.20137 0.0
C777 C 0.2455 0.25027 0.19518 0.0
C778 C 0.27528 0.24811 0.21449 0.0
C779 C 0.24925 0.24331 0.22166 0.0
C780 C 0.22126 0.24258 0.21555 0.0
C781 C 0.21939 0.24594 0.20242 0.0
C782 C 0.25127 0.23925 0.23556 0.0
C783 C 0.23557 0.2592 0.2434 0.0
C784 C 0.26966 0.21685 0.24107 0.0
C785 C 0.28571 0.19429 0.23326 0.0
C786 C 0.26997 0.17633 0.22453 0.0
C787 C 0.2853 0.15549 0.21705 0.0
C788 C 0.31636 0.15223 0.21828 0.0
C789 C 0.33214 0.16974 0.22703 0.0
C790 C 0.31692 0.19064 0.23452 0.0
C791 C 0.23716 0.22771 0.29685 0.0
C792 C 0.26551 0.23036 0.30261 0.0
C793 C 0.23437 0.22863 0.28368 0.0
C794 C 0.25984 0.23239 0.27605 0.0
C795 C 0.28826 0.23405 0.28175 0.0
C796 C 0.29109 0.23312 0.29492 0.0
C797 C 0.25678 0.23548 0.26214 0.0
C798 C 0.27233 0.2154 0.2543 0.0
C799 C 0.23834 0.25783 0.25662 0.0
C800 C 0.22277 0.28081 0.26438 0.0
C801 C 0.23904 0.29922 0.27276 0.0
C802 C 0.22419 0.3206 0.28014 0.0
C803 C 0.1931 0.32397 0.27915 0.0
C804 C 0.1768 0.30601 0.27074 0.0
C805 C 0.19153 0.28455 0.26335 0.0
H806 H 0.18164 0.34053 0.28487 0.0
H807 H 0.3282 0.13611 0.21247 0.0
H808 H 0.72938 0.26531 0.19681 0.0
H809 H 0.7309 0.26713 0.21988 0.0
H810 H 0.82111 0.23193 0.21955 0.0
H811 H 0.81966 0.22964 0.19638 0.0
H812 H 0.78676 0.20382 0.2369 0.0
H813 H 0.80916 0.30526 0.22604 0.0
H814 H 0.80222 0.35369 0.21514 0.0
H815 H 0.71652 0.36479 0.23306 0.0
H816 H 0.72275 0.31619 0.24394 0.0
H817 H 0.80717 0.23262 0.30289 0.0
H818 H 0.81357 0.23383 0.27988 0.0
H819 H 0.72276 0.26586 0.27553 0.0
H820 H 0.71619 0.2649 0.29849 0.0
H821 H 0.76239 0.29679 0.26065 0.0
H822 H 0.73878 0.19358 0.2702 0.0
H823 H 0.7457 0.14501 0.281 0.0
H824 H 0.83436 0.13753 0.26545 0.0
H825 H 0.82811 0.18631 0.2547 0.0
C826 C 0.74961 0.25802 0.20161 0.0
C827 C 0.77443 0.24739 0.19475 0.0
C828 C 0.75049 0.25922 0.21481 0.0
C829 C 0.77626 0.25003 0.22142 0.0
C830 C 0.80105 0.23924 0.21462 0.0
C831 C 0.80019 0.23801 0.20139 0.0
C832 C 0.77685 0.25102 0.23544 0.0
C833 C 0.782 0.22427 0.24211 0.0
C834 C 0.7701 0.27761 0.24221 0.0
C835 C 0.76633 0.30695 0.23573 0.0
C836 C 0.78873 0.31791 0.22759 0.0
C837 C 0.78494 0.34542 0.22142 0.0
C838 C 0.75892 0.36227 0.22338 0.0
C839 C 0.73666 0.35169 0.23154 0.0
C840 C 0.74032 0.32418 0.23772 0.0
C841 C 0.78858 0.24 0.29704 0.0
C842 C 0.76113 0.24856 0.30251 0.0
C843 C 0.79226 0.24059 0.2839 0.0
C844 C 0.76855 0.24971 0.27602 0.0
C845 C 0.74133 0.25876 0.28146 0.0
C846 C 0.73759 0.25808 0.29458 0.0
C847 C 0.77188 0.24952 0.26207 0.0
C848 C 0.76746 0.27643 0.25543 0.0
C849 C 0.77936 0.22311 0.25533 0.0
C850 C 0.78311 0.19375 0.26176 0.0
C851 C 0.75985 0.1817 0.26917 0.0
C852 C 0.76363 0.15411 0.27527 0.0
C853 C 0.79049 0.13824 0.27395 0.0
C854 C 0.81359 0.14988 0.26649 0.0
C855 C 0.80993 0.17749 0.26039 0.0
H856 H 0.79337 0.11687 0.27867 0.0
H857 H 0.75602 0.38356 0.21859 0.0
H858 H 0.71616 0.7158 0.7013 0.0
H859 H 0.71919 0.71207 0.72436 0.0
H860 H 0.78381 0.78414 0.72509 0.0
H861 H 0.78125 0.78777 0.70202 0.0
H862 H 0.80094 0.73847 0.74018 0.0
H863 H 0.71145 0.79646 0.73353 0.0
H864 H 0.66158 0.80756 0.72451 0.0
H865 H 0.62578 0.72814 0.74185 0.0
H866 H 0.67557 0.71634 0.75084 0.0
H867 H 0.79583 0.77196 0.80563 0.0
H868 H 0.79238 0.77442 0.78259 0.0
H869 H 0.72741 0.70264 0.78277 0.0
H870 H 0.7303 0.70037 0.80589 0.0
H871 H 0.71038 0.74721 0.7672 0.0
H872 H 0.80006 0.68974 0.77414 0.0
H873 H 0.84988 0.67935 0.78338 0.0
H874 H 0.88538 0.75831 0.76558 0.0
H875 H 0.83565 0.7694 0.75637 0.0
C876 C 0.73099 0.7309 0.70636 0.0
C877 C 0.74842 0.75214 0.69983 0.0
C878 C 0.73261 0.7288 0.71954 0.0
C879 C 0.75151 0.74802 0.72644 0.0
C880 C 0.76907 0.7691 0.71994 0.0
C881 C 0.7675 0.7712 0.70676 0.0
C882 C 0.75318 0.74598 0.74043 0.0
C883 C 0.78121 0.74075 0.7461 0.0
C884 C 0.7273 0.74827 0.74812 0.0
C885 C 0.69732 0.75536 0.74275 0.0
C886 C 0.693 0.78123 0.73534 0.0
C887 C 0.66474 0.78767 0.73024 0.0
C888 C 0.64054 0.76853 0.73257 0.0
C889 C 0.64455 0.74293 0.74004 0.0
C890 C 0.67278 0.73637 0.74514 0.0
C891 C 0.78083 0.75663 0.80078 0.0
C892 C 0.76341 0.73588 0.80759 0.0
C893 C 0.77898 0.758 0.7876 0.0
C894 C 0.75993 0.73845 0.78096 0.0
C895 C 0.74231 0.71788 0.78772 0.0
C896 C 0.74406 0.71656 0.80092 0.0
C897 C 0.75815 0.73974 0.76695 0.0
C898 C 0.7301 0.74484 0.76127 0.0
C899 C 0.78402 0.73736 0.75926 0.0
C900 C 0.81405 0.73054 0.76466 0.0
C901 C 0.81844 0.70499 0.77226 0.0
C902 C 0.84667 0.69897 0.77749 0.0
C903 C 0.87076 0.7182 0.7751 0.0
C904 C 0.86669 0.74345 0.76744 0.0
C905 C 0.8385 0.7496 0.7622 0.0
H906 H 0.89259 0.71351 0.77916 0.0
H907 H 0.61868 0.77356 0.72862 0.0
H908 H 0.50977 0.43929 0.95283 0.0
H909 H 0.51051 0.44087 0.97595 0.0
H910 H 0.48486 0.53423 0.97503 0.0
H911 H 0.48464 0.533 0.95188 0.0
H912 H 0.52986 0.52532 0.99127 0.0
H913 H 0.43445 0.47891 0.983 0.0
H914 H 0.40011 0.44154 0.97364 0.0
H915 H 0.44695 0.37078 0.99296 0.0
H916 H 0.48183 0.4077 0.0023 0.0
H917 H 0.49014 0.54305 0.05555 0.0
H918 H 0.48937 0.53958 0.0325 0.0
H919 H 0.51667 0.44683 0.03472 0.0
H920 H 0.51706 0.44994 0.05787 0.0
H921 H 0.47174 0.45444 0.01788 0.0
H922 H 0.56668 0.50088 0.02638 0.0
H923 H 0.60105 0.53821 0.03574 0.0
H924 H 0.55516 0.60888 0.01596 0.0
H925 H 0.52024 0.57201 0.00661 0.0
C926 C 0.50411 0.46013 0.95754 0.0
C927 C 0.4971 0.48603 0.95052 0.0
C928 C 0.50445 0.46096 0.97076 0.0
C929 C 0.49744 0.48758 0.97721 0.0
C930 C 0.49033 0.51344 0.97023 0.0
C931 C 0.49013 0.51268 0.957 0.0
C932 C 0.4983 0.48871 0.99124 0.0
C933 C 0.51682 0.5101 0.99709 0.0
C934 C 0.48195 0.46827 -0.00118 0.0
C935 C 0.46093 0.44604 0.99325 0.0
C936 C 0.43757 0.45536 0.98517 0.0
C937 C 0.41798 0.43426 0.97989 0.0
C938 C 0.42139 0.4038 0.98268 0.0
C939 C 0.44436 0.39438 0.99079 0.0
C940 C 0.46402 0.41538 0.99609 0.0
C941 C 0.49605 0.52189 0.05116 0.0
C942 C 0.50377 0.49678 0.05855 0.0
C943 C 0.49571 0.52 0.03797 0.0
C944 C 0.50334 0.49306 0.0319 0.0
C945 C 0.51078 0.46785 0.03923 0.0
C946 C 0.51106 0.4697 0.05245 0.0
C947 C 0.50314 0.49119 0.01788 0.0
C948 C 0.48479 0.46963 0.01205 0.0
C949 C 0.51965 0.51148 0.0103 0.0
C950 C 0.54067 0.5337 0.01589 0.0
C951 C 0.56377 0.52441 0.0241 0.0
C952 C 0.58337 0.54548 0.02939 0.0
C953 C 0.58024 0.57591 0.02647 0.0
C954 C 0.55754 0.58531 0.01823 0.0
C955 C 0.53785 0.56433 0.01292 0.0
H956 H 0.59545 0.59219 0.03057 0.0
H957 H 0.4062 0.3875 0.97858 0.0
H958 H -0.00022 0.47072 0.54658 0.0
H959 H -0.00244 0.47739 0.5237 0.0
H960 H 0.07037 0.5411 0.5257 0.0
H961 H 0.0719 0.53536 0.54879 0.0
H962 H 0.03062 0.55985 0.50923 0.0
H963 H 0.0817 0.46738 0.51595 0.0
H964 H 0.09033 0.41686 0.52476 0.0
H965 H 0.01013 0.38492 0.5066 0.0
H966 H 0.00078 0.43537 0.49782 0.0
H967 H 0.06092 0.54436 0.44242 0.0
H968 H 0.06665 0.54168 0.46549 0.0
H969 H 0.98145 0.49632 0.4683 0.0
H970 H 0.97525 0.49935 0.44529 0.0
H971 H 0.0317 0.46908 0.48197 0.0
H972 H 0.98142 0.56451 0.47586 0.0
H973 H 0.97653 0.61487 0.4664 0.0
H974 H 0.06077 0.64088 0.4829 0.0
H975 H 0.0664 0.59047 0.4923 0.0
C976 C 0.01531 0.4862 0.54217 0.0
C977 C 0.03621 0.50232 0.54946 0.0
C978 C 0.0141 0.4899 0.52907 0.0
C979 C 0.03427 0.50921 0.52293 0.0
C980 C 0.05469 0.52595 0.53022 0.0
C981 C 0.05559 0.52261 0.5434 0.0
C982 C 0.03404 0.51156 0.5089 0.0
C983 C 0.03133 0.54001 0.50328 0.0
C984 C 0.03482 0.48568 0.5011 0.0
C985 C 0.04042 0.45524 0.50631 0.0
C986 C 0.06579 0.44964 0.51391 0.0
C987 C 0.07083 0.421 0.51889 0.0
C988 C 0.05076 0.39771 0.51627 0.0
C989 C 0.02565 0.40299 0.50863 0.0
C990 C 0.02048 0.4316 0.50364 0.0
C991 C 0.04342 0.5338 0.44796 0.0
C992 C 0.01761 0.5221 0.44208 0.0
C993 C 0.0467 0.53239 0.46111 0.0
C994 C 0.02441 0.5189 0.46853 0.0
C995 C -0.00116 0.50683 0.46268 0.0
C996 C 0.99531 0.50867 0.44957 0.0
C997 C 0.02775 0.51716 0.48243 0.0
C998 C 0.03116 0.48883 0.48798 0.0
C999 C 0.02814 0.54313 0.49012 0.0
C1000 C 0.02449 0.57361 0.48467 0.0
C1001 C -0.00097 0.58088 0.47739 0.0
C1002 C 0.9961 0.60945 0.47205 0.0
C1003 C 0.01837 0.63103 0.47401 0.0
C1004 C 0.04356 0.62412 0.48137 0.0
C1005 C 0.04662 0.59557 0.48671 0.0
H1006 H 0.01608 0.65312 0.46985 0.0
H1007 H 0.0547 0.37556 0.52013 0.0
H1008 H 0.24627 0.82804 0.64511 0.0
H1009 H 0.2101 0.86538 0.63778 0.0
H1010 H 0.1964 0.81475 0.60342 0.0
H1011 H 0.23303 0.77751 0.61057 0.0
H1012 H 0.19819 0.87411 0.59862 0.0
H1013 H 0.14738 0.80902 0.62781 0.0
H1014 H 0.13988 0.78255 0.64807 0.0
H1015 H 0.13543 0.8669 0.66765 0.0
H1016 H 0.14333 0.89388 0.64752 0.0
H1017 H 0.05381 0.92717 0.58079 0.0
H1018 H 0.09662 0.89679 0.58751 0.0
H1019 H 0.11 0.9549 0.61971 0.0
H1020 H 0.06715 0.98555 0.61304 0.0
H1021 H 0.10993 0.89436 0.62592 0.0
H1022 H 0.15747 0.95931 0.59595 0.0
H1023 H 0.1639 0.9847 0.57539 0.0
H1024 H 0.17309 0.89938 0.55689 0.0
H1025 H 0.16625 0.87343 0.57732 0.0
C1026 C 0.23575 0.82493 0.63595 0.0
C1027 C 0.24231 0.79966 0.62847 0.0
C1028 C 0.21502 0.84627 0.63179 0.0
C1029 C 0.20021 0.84256 0.62015 0.0
C1030 C 0.20753 0.81797 0.61245 0.0
C1031 C 0.2284 0.79667 0.61657 0.0
C1032 C 0.17625 0.86369 0.61624 0.0
C1033 C 0.17874 0.87833 0.60453 0.0
C1034 C 0.15119 0.86961 0.62407 0.0
C1035 C 0.14627 0.85345 0.63618 0.0
C1036 C 0.14504 0.82192 0.63645 0.0
C1037 C 0.14068 0.80682 0.64791 0.0
C1038 C 0.13727 0.82303 0.65914 0.0
C1039 C 0.13812 0.85438 0.65894 0.0
C1040 C 0.14253 0.86958 0.64751 0.0
C1041 C 0.06589 0.93357 0.58928 0.0
C1042 C 0.05708 0.95873 0.5964 0.0
C1043 C 0.09044 0.91628 0.59306 0.0
C1044 C 0.10656 0.92378 0.60404 0.0
C1045 C 0.09785 0.94884 0.61118 0.0
C1046 C 0.07343 0.96633 0.60735 0.0
C1047 C 0.13181 0.90468 0.60829 0.0
C1048 C 0.1295 0.89034 0.62006 0.0
C1049 C 0.15688 0.89889 0.60046 0.0
C1050 C 0.16107 0.91442 0.58816 0.0
C1051 C 0.1606 0.94594 0.58748 0.0
C1052 C 0.16437 0.96044 0.57586 0.0
C1053 C 0.16883 0.94366 0.56484 0.0
C1054 C 0.1696 0.91234 0.56543 0.0
C1055 C 0.16581 0.89773 0.57704 0.0
H1056 H 0.17175 0.95493 0.55585 0.0
H1057 H 0.13389 0.81131 0.668 0.0
H1058 H 0.25279 0.80566 0.85811 0.0
H1059 H 0.28255 0.8481 0.86569 0.0
H1060 H 0.36391 0.80113 0.85573 0.0
H1061 H 0.33428 0.75816 0.84863 0.0
H1062 H 0.37199 0.82798 0.87708 0.0
H1063 H 0.33241 0.85792 0.83676 0.0
H1064 H 0.2931 0.86727 0.82076 0.0
H1065 H 0.25175 0.93199 0.84529 0.0
H1066 H 0.29061 0.92273 0.86152 0.0
H1067 H 0.47105 0.95125 0.86998 0.0
H1068 H 0.43619 0.91101 0.8644 0.0
H1069 H 0.36741 0.95242 0.88713 0.0
H1070 H 0.40243 0.99265 0.89303 0.0
H1071 H 0.3511 0.93015 0.86052 0.0
H1072 H 0.39518 0.89992 0.90046 0.0
H1073 H 0.43766 0.89076 0.91496 0.0
H1074 H 0.47408 0.8262 0.88899 0.0
H1075 H 0.43203 0.83536 0.87423 0.0
C1076 C 0.27703 0.80435 0.8576 0.0
C1077 C 0.29124 0.77869 0.85271 0.0
C1078 C 0.29401 0.82867 0.86187 0.0
C1079 C 0.32546 0.82806 0.86105 0.0
C1080 C 0.33968 0.80215 0.85644 0.0
C1081 C 0.32273 0.77762 0.85236 0.0
C1082 C 0.34361 0.85449 0.86486 0.0
C1083 C 0.3675 0.85023 0.87336 0.0
C1084 C 0.33756 0.88369 0.86016 0.0
C1085 C 0.31423 0.8894 0.85041 0.0
C1086 C 0.31481 0.87399 0.83878 0.0
C1087 C 0.29263 0.87929 0.82966 0.0
C1088 C 0.26989 0.90015 0.83202 0.0
C1089 C 0.26934 0.91581 0.84349 0.0
C1090 C 0.29145 0.91056 0.85265 0.0
C1091 C 0.44843 0.95201 0.87371 0.0
C1092 C 0.43946 0.97504 0.88197 0.0
C1093 C 0.42862 0.92898 0.87054 0.0
C1094 C 0.39942 0.92881 0.87543 0.0
C1095 C 0.38994 0.95229 0.8833 0.0
C1096 C 0.40995 0.97513 0.88667 0.0
C1097 C 0.37931 0.90339 0.87261 0.0
C1098 C 0.35522 0.90787 0.86429 0.0
C1099 C 0.38548 0.87432 0.87727 0.0
C1100 C 0.41061 0.86855 0.88619 0.0
C1101 C 0.41239 0.88398 0.89779 0.0
C1102 C 0.43636 0.87874 0.90607 0.0
C1103 C 0.45859 0.85796 0.90289 0.0
C1104 C 0.45685 0.84231 0.89144 0.0
C1105 C 0.43294 0.8475 0.88312 0.0
H1106 H 0.47713 0.85394 0.90931 0.0
H1107 H 0.25274 0.90423 0.82495 0.0
H1108 H 0.42608 0.00567 0.10097 0.0
H1109 H 0.38688 0.03808 0.10968 0.0
H1110 H 0.45309 0.10606 0.11788 0.0
H1111 H 0.49239 0.07373 0.1094 0.0
H1112 H 0.41524 0.09878 0.13739 0.0
H1113 H 0.40727 0.11141 0.09207 0.0
H1114 H 0.40086 0.0942 0.07003 0.0
H1115 H 0.31484 0.05693 0.07936 0.0
H1116 H 0.32093 0.07358 0.10151 0.0
H1117 H 0.33115 0.23184 0.14261 0.0
H1118 H 0.36488 0.19223 0.13538 0.0
H1119 H 0.29005 0.13132 0.13206 0.0
H1120 H 0.25599 0.17089 0.13934 0.0
H1121 H 0.32847 0.13056 0.11106 0.0
H1122 H 0.3347 0.12221 0.15604 0.0
H1123 H 0.34105 0.14039 0.17794 0.0
H1124 H 0.4303 0.17017 0.16924 0.0
H1125 H 0.42433 0.15257 0.14722 0.0
C1126 C 0.43229 0.02751 0.10464 0.0
C1127 C 0.46233 0.03719 0.10445 0.0
C1128 C 0.40986 0.04601 0.10958 0.0
C1129 C 0.41707 0.07456 0.11432 0.0
C1130 C 0.44707 0.08408 0.11428 0.0
C1131 C 0.46948 0.06561 0.10938 0.0
C1132 C 0.39346 0.09479 0.11923 0.0
C1133 C 0.3964 0.10592 0.13161 0.0
C1134 C 0.36842 0.10338 0.11179 0.0
C1135 C 0.36471 0.09343 0.09847 0.0
C1136 C 0.3871 0.09932 0.08944 0.0
C1137 C 0.38351 0.08971 0.07693 0.0
C1138 C 0.3575 0.0744 0.0733 0.0
C1139 C 0.335 0.06874 0.08218 0.0
C1140 C 0.3385 0.07827 0.09472 0.0
C1141 C 0.32181 0.21005 0.14032 0.0
C1142 C 0.29092 0.20445 0.14157 0.0
C1143 C 0.34113 0.18743 0.13625 0.0
C1144 C 0.32993 0.15884 0.13332 0.0
C1145 C 0.29906 0.15326 0.13433 0.0
C1146 C 0.2797 0.17584 0.13851 0.0
C1147 C 0.35065 0.13497 0.12911 0.0
C1148 C 0.34714 0.12315 0.11689 0.0
C1149 C 0.3752 0.12578 0.13668 0.0
C1150 C 0.37896 0.13628 0.14994 0.0
C1151 C 0.35559 0.13286 0.15876 0.0
C1152 C 0.35914 0.14302 0.1712 0.0
C1153 C 0.38603 0.15648 0.17497 0.0
C1154 C 0.40947 0.15975 0.1663 0.0
C1155 C 0.40602 0.14965 0.15384 0.0
H1156 H 0.38873 0.16433 0.18461 0.0
H1157 H 0.35476 0.06698 0.06361 0.0
H1158 H 0.06678 0.00937 0.38709 0.0
H1159 H 0.10724 0.04248 0.38017 0.0
H1160 H 0.06657 0.1163 0.40026 0.0
H1161 H 0.02571 0.08348 0.40704 0.0
H1162 H 0.08483 0.13355 0.37737 0.0
H1163 H 0.12759 0.08011 0.41231 0.0
H1164 H 0.1418 0.03556 0.4248 0.0
H1165 H 0.19755 0.00471 0.39433 0.0
H1166 H 0.1833 0.04889 0.38158 0.0
H1167 H 0.21045 0.23101 0.37631 0.0
H1168 H 0.17134 0.1973 0.38407 0.0
H1169 H 0.20658 0.12582 0.36091 0.0
H1170 H 0.24581 0.15941 0.35305 0.0
H1171 H 0.19147 0.10767 0.38559 0.0
H1172 H 0.14761 0.16184 0.3507 0.0
H1173 H 0.13354 0.20719 0.3387 0.0
H1174 H 0.07994 0.2376 0.36992 0.0
H1175 H 0.09406 0.1926 0.38218 0.0
C1176 C 0.0664 0.03266 0.39002 0.0
C1177 C 0.04309 0.04379 0.39765 0.0
C1178 C 0.08962 0.05151 0.38611 0.0
C1179 C 0.09012 0.08174 0.38985 0.0
C1180 C 0.06664 0.09302 0.3973 0.0
C1181 C 0.04335 0.07421 0.40118 0.0
C1182 C 0.11504 0.10165 0.38593 0.0
C1183 C 0.10812 0.12809 0.37932 0.0
C1184 C 0.14546 0.09423 0.38828 0.0
C1185 C 0.15413 0.06767 0.39594 0.0
C1186 C 0.14268 0.06371 0.40823 0.0
C1187 C 0.15078 0.03854 0.41536 0.0
C1188 C 0.1705 0.01727 0.41035 0.0
C1189 C 0.18223 0.02118 0.3982 0.0
C1190 C 0.17417 0.04629 0.39101 0.0
C1191 C 0.21005 0.20806 0.37293 0.0
C1192 C 0.23113 0.1979 0.36401 0.0
C1193 C 0.18764 0.18888 0.37735 0.0
C1194 C 0.18596 0.15922 0.37295 0.0
C1195 C 0.20752 0.14869 0.36438 0.0
C1196 C 0.22983 0.16792 0.35988 0.0
C1197 C 0.16118 0.13944 0.37705 0.0
C1198 C 0.16815 0.11307 0.38367 0.0
C1199 C 0.1308 0.14701 0.37479 0.0
C1200 C 0.12215 0.174 0.36741 0.0
C1201 C 0.13303 0.17832 0.35505 0.0
C1202 C 0.12501 0.20394 0.34819 0.0
C1203 C 0.10592 0.22531 0.35356 0.0
C1204 C 0.09476 0.22105 0.36578 0.0
C1205 C 0.10275 0.19548 0.37269 0.0
H1206 H 0.09973 0.24513 0.34823 0.0
H1207 H 0.17675 -0.00219 0.41589 0.0
H1208 H 0.90941 0.97662 0.38063 0.0
H1209 H 0.86779 -0.00313 0.36816 0.0
H1210 H 0.84327 0.05433 0.39937 0.0
H1211 H 0.88433 0.03369 0.412 0.0
H1212 H 0.79402 0.03429 0.38712 0.0
H1213 H 0.88998 0.07886 0.37573 0.0
H1214 H 0.94234 0.07723 0.36821 0.0
H1215 H 0.91339 0.03614 0.33348 0.0
H1216 H 0.86087 0.03719 0.34087 0.0
H1217 H 0.74586 0.17323 0.3644 0.0
H1218 H 0.76878 0.1286 0.37353 0.0
H1219 H 0.77279 0.08772 0.33653 0.0
H1220 H 0.74973 0.13266 0.32723 0.0
H1221 H 0.82687 0.08835 0.34849 0.0
H1222 H 0.72853 0.05654 0.35858 0.0
H1223 H 0.67666 0.06102 0.36642 0.0
H1224 H 0.70963 0.08044 0.40378 0.0
H1225 H 0.76173 0.07653 0.39614 0.0
C1226 C 0.89489 0.99327 0.3849 0.0
C1227 C 0.90042 0.00393 0.39723 0.0
C1228 C 0.87112 0.00478 0.37776 0.0
C1229 C 0.85278 0.02746 0.38277 0.0
C1230 C 0.85718 0.03685 0.39532 0.0
C1231 C 0.88077 0.02515 0.40251 0.0
C1232 C 0.83099 0.0436 0.37464 0.0
C1233 C 0.8011 0.04611 0.37866 0.0
C1234 C 0.84009 0.05824 0.36338 0.0
C1235 C 0.8716 0.05775 0.35891 0.0
C1236 C 0.89483 0.06928 0.36653 0.0
C1237 C 0.92452 0.06849 0.36229 0.0
C1238 C 0.9312 0.05649 0.35039 0.0
C1239 C 0.90819 0.04535 0.3427 0.0
C1240 C 0.87847 0.04604 0.34691 0.0
C1241 C 0.75118 0.15459 0.3582 0.0
C1242 C 0.74625 0.15653 0.34508 0.0
C1243 C 0.76402 0.12896 0.36346 0.0
C1244 C 0.77221 0.10474 0.35572 0.0
C1245 C 0.76641 0.10613 0.34266 0.0
C1246 C 0.75326 0.13177 0.33738 0.0
C1247 C 0.79008 0.07992 0.3612 0.0
C1248 C 0.81937 0.07581 0.3567 0.0
C1249 C 0.78044 0.06408 0.37206 0.0
C1250 C 0.7491 0.06634 0.37676 0.0
C1251 C 0.72475 0.06196 0.36845 0.0
C1252 C 0.69529 0.06437 0.37287 0.0
C1253 C 0.68985 0.07103 0.38558 0.0
C1254 C 0.71388 0.07525 0.39393 0.0
C1255 C 0.74339 0.07288 0.38956 0.0
H1256 H 0.66703 0.0729 0.38898 0.0
H1257 H 0.9542 0.0559 0.34712 0.0
H1258 H 0.63263 -0.0006 0.08297 0.0
H1259 H 0.6717 0.02323 0.09585 0.0
H1260 H 0.61804 0.01004 0.12935 0.0
H1261 H 0.57887 0.98665 0.11659 0.0
H1262 H 0.63433 0.067 0.12691 0.0
H1263 H 0.6834 0.9717 0.12516 0.0
H1264 H 0.70464 0.92663 0.11502 0.0
H1265 H 0.76753 0.98138 0.09471 0.0
H1266 H 0.74638 0.02686 0.10459 0.0
H1267 H 0.73722 0.13045 0.16919 0.0
H1268 H 0.71019 0.08877 0.1593 0.0
H1269 H 0.75277 0.10823 0.1236 0.0
H1270 H 0.77981 0.14999 0.13337 0.0
H1271 H 0.7435 0.04502 0.12838 0.0
H1272 H 0.69054 0.13975 0.12804 0.0
H1273 H 0.66991 0.18533 0.13802 0.0
H1274 H 0.61402 0.13107 0.16191 0.0
H1275 H 0.63479 0.08513 0.15222 0.0
C1276 C 0.6294 0.00114 0.09311 0.0
C1277 C 0.60253 0.99148 0.09874 0.0
C1278 C 0.6518 0.01462 0.10047 0.0
C1279 C 0.64775 0.01836 0.11356 0.0
C1280 C 0.62155 0.00745 0.11926 0.0
C1281 C 0.59918 0.99412 0.11194 0.0
C1282 C 0.66921 0.03637 0.12112 0.0
C1283 C 0.65809 0.06176 0.12743 0.0
C1284 C 0.70033 0.03003 0.12151 0.0
C1285 C 0.7131 0.00273 0.11553 0.0
C1286 C 0.70158 0.97417 0.11844 0.0
C1287 C 0.71364 0.94854 0.11276 0.0
C1288 C 0.73737 0.95114 0.10421 0.0
C1289 C 0.74913 0.9794 0.10133 0.0
C1290 C 0.73713 0.00511 0.10698 0.0
C1291 C 0.74137 0.12544 0.15931 0.0
C1292 C 0.76021 0.14379 0.15199 0.0
C1293 C 0.72596 0.10161 0.15369 0.0
C1294 C 0.72934 0.09572 0.14071 0.0
C1295 C 0.74994 0.11246 0.13363 0.0
C1296 C 0.76515 0.13645 0.13921 0.0
C1297 C 0.70841 0.07523 0.13417 0.0
C1298 C 0.71963 0.04974 0.12798 0.0
C1299 C 0.67731 0.08143 0.13381 0.0
C1300 C 0.66448 0.10902 0.13952 0.0
C1301 C 0.67404 0.13754 0.1355 0.0
C1302 C 0.66231 0.16344 0.14109 0.0
C1303 C 0.64073 0.16109 0.15062 0.0
C1304 C 0.63079 0.13285 0.15455 0.0
C1305 C 0.64253 0.10687 0.14901 0.0
H1306 H 0.63166 0.18117 0.15494 0.0
H1307 H 0.74669 0.93127 0.09982 0.0
H1308 H 0.76103 0.82916 0.8705 0.0
H1309 H 0.73449 0.87064 0.88067 0.0
H1310 H 0.67754 0.87974 0.8478 0.0
H1311 H 0.7041 0.83848 0.83749 0.0
H1312 H 0.69475 0.93435 0.85739 0.0
H1313 H 0.65322 0.84116 0.87278 0.0
H1314 H 0.65553 0.79109 0.8827 0.0
H1315 H 0.69172 0.83001 0.91667 0.0
H1316 H 0.68997 0.88028 0.90688 0.0
H1317 H 0.55995 -0.00311 0.87951 0.0
H1318 H 0.60043 0.96663 0.87081 0.0
H1319 H 0.6458 0.96801 0.90695 0.0
H1320 H 0.605 -0.00174 0.91584 0.0
H1321 H 0.64085 0.91162 0.89734 0.0
H1322 H 0.67481 0.00664 0.88239 0.0
H1323 H 0.6705 0.05611 0.8721 0.0
H1324 H 0.64681 0.01365 0.83696 0.0
H1325 H 0.65054 0.96391 0.84708 0.0
C1326 C 0.74304 0.84015 0.86538 0.0
C1327 C 0.73445 0.83036 0.85324 0.0
C1328 C 0.7279 0.86381 0.87122 0.0
C1329 C 0.70388 0.87797 0.86503 0.0
C1330 C 0.69604 0.86906 0.85272 0.0
C1331 C 0.71115 0.84539 0.84687 0.0
C1332 C 0.68577 0.90094 0.87162 0.0
C1333 C 0.68284 0.92942 0.8661 0.0
C1334 C 0.67088 0.8946 0.88313 0.0
C1335 C 0.67181 0.86442 0.88905 0.0
C1336 C 0.6619 0.839 0.88233 0.0
C1337 C 0.66306 0.81059 0.88794 0.0
C1338 C 0.67386 0.80736 0.9003 0.0
C1339 C 0.68342 0.83254 0.90709 0.0
C1340 C 0.68233 0.861 0.90152 0.0
C1341 C 0.57865 0.99107 0.88561 0.0
C1342 C 0.57922 -0.00011 0.89839 0.0
C1343 C 0.60189 0.97391 0.88058 0.0
C1344 C 0.62625 0.96536 0.8882 0.0
C1345 C 0.62722 0.97454 0.90091 0.0
C1346 C 0.60395 0.99183 0.90596 0.0
C1347 C 0.64939 0.94499 0.88302 0.0
C1348 C 0.65321 0.91687 0.88878 0.0
C1349 C 0.66491 0.95163 0.87169 0.0
C1350 C 0.66279 0.98152 0.86553 0.0
C1351 C 0.66848 0.00784 0.87249 0.0
C1352 C 0.66617 0.03594 0.86668 0.0
C1353 C 0.65834 0.03803 0.85389 0.0
C1354 C 0.65287 0.012 0.84687 0.0
C1355 C 0.65512 0.98384 0.85264 0.0
H1356 H 0.65656 0.0598 0.84941 0.0
H1357 H 0.67474 0.78536 0.90462 0.0
H1358 H 0.7098 0.83081 0.62687 0.0
H1359 H 0.73432 0.87598 0.61871 0.0
H1360 H 0.80746 0.863 0.64501 0.0
H1361 H 0.78282 0.81848 0.65342 0.0
H1362 H 0.79407 0.92095 0.64317 0.0
H1363 H 0.81045 0.83831 0.6137 0.0
H1364 H 0.7939 0.79839 0.59907 0.0
H1365 H 0.74709 0.8635 0.57646 0.0
H1366 H 0.7631 0.90376 0.59106 0.0
H1367 H 0.92582 0.97678 0.61613 0.0
H1368 H 0.88414 0.94857 0.62504 0.0
H1369 H 0.82635 0.97955 0.59491 0.0
H1370 H 0.86829 0.00763 0.58576 0.0
H1371 H 0.82248 0.92028 0.59776 0.0
H1372 H 0.81569 0.00428 0.62526 0.0
H1373 H 0.83393 0.04367 0.63976 0.0
H1374 H 0.86371 0.97643 0.66606 0.0
H1375 H 0.84605 0.93659 0.65164 0.0
C1376 C 0.73098 0.83775 0.63098 0.0
C1377 C 0.74453 0.82091 0.6407 0.0
C1378 C 0.74496 0.86354 0.6263 0.0
C1379 C 0.77292 0.87261 0.63113 0.0
C1380 C 0.78588 0.85644 0.64115 0.0
C1381 C 0.77182 0.83088 0.6459 0.0
C1382 C 0.78981 0.89775 0.62536 0.0
C1383 C 0.80035 0.92083 0.63324 0.0
C1384 C 0.79714 0.89812 0.61232 0.0
C1385 C 0.78765 0.87395 0.60354 0.0
C1386 C 0.79646 0.84406 0.60565 0.0
C1387 C 0.78721 0.82139 0.59737 0.0
C1388 C 0.76937 0.82839 0.58687 0.0
C1389 C 0.76084 0.8581 0.58461 0.0
C1390 C 0.77 0.88085 0.59288 0.0
C1391 C 0.9042 0.97791 0.61144 0.0
C1392 C 0.90041 0.99436 0.6002 0.0
C1393 C 0.88029 0.96193 0.61662 0.0
C1394 C 0.85202 0.96227 0.61073 0.0
C1395 C 0.84796 0.97913 0.59963 0.0
C1396 C 0.87194 0.99514 0.59442 0.0
C1397 C 0.82767 0.94294 0.61567 0.0
C1398 C 0.81567 0.92092 0.60762 0.0
C1399 C 0.81912 0.94352 0.62857 0.0
C1400 C 0.82964 0.96742 0.63733 0.0
C1401 C 0.8263 -0.00213 0.6341 0.0
C1402 C 0.83651 0.02029 0.64231 0.0
C1403 C 0.84999 0.01256 0.65382 0.0
C1404 C 0.85324 0.98238 0.65715 0.0
C1405 C 0.84308 0.95987 0.64897 0.0
H1406 H 0.8579 0.02995 0.66016 0.0
H1407 H 0.76223 0.8108 0.58046 0.0
H1408 H 0.74711 0.31249 0.13787 0.0
H1409 H 0.70996 0.35041 0.13206 0.0
H1410 H 0.63861 0.28843 0.1409 0.0
H1411 H 0.67563 0.25007 0.14636 0.0
H1412 H 0.62593 0.31729 0.11995 0.0
H1413 H 0.65921 0.34581 0.16141 0.0
H1414 H 0.69631 0.35852 0.17793 0.0
H1415 H 0.72615 0.43384 0.15595 0.0
H1416 H 0.6895 0.42132 0.13921 0.0
H1417 H 0.50885 0.42428 0.12188 0.0
H1418 H 0.54577 0.38713 0.12873 0.0
H1419 H 0.61748 0.44533 0.11657 0.0
H1420 H 0.5807 0.48282 0.10977 0.0
H1421 H 0.6294 0.41852 0.13953 0.0
H1422 H 0.59553 0.3886 0.09795 0.0
H1423 H 0.55737 0.37557 0.08191 0.0
H1424 H 0.52728 0.30222 0.105 0.0
H1425 H 0.56501 0.31509 0.12126 0.0
C1426 C 0.72351 0.3069 0.13854 0.0
C1427 C 0.71429 0.27836 0.14264 0.0
C1428 C 0.7023 0.32865 0.13528 0.0
C1429 C 0.6715 0.32244 0.13628 0.0
C1430 C 0.66226 0.29374 0.14011 0.0
C1431 C 0.68345 0.27186 0.14324 0.0
C1432 C 0.6489 0.34585 0.1333 0.0
C1433 C 0.62646 0.33927 0.12438 0.0
C1434 C 0.64988 0.37472 0.1389 0.0
C1435 C 0.67179 0.38246 0.149 0.0
C1436 C 0.67382 0.36496 0.16006 0.0
C1437 C 0.69475 0.37215 0.16947 0.0
C1438 C 0.71362 0.39693 0.16797 0.0
C1439 C 0.71154 0.41463 0.15708 0.0
C1440 C 0.69067 0.40751 0.14764 0.0
C1441 C 0.53247 0.4293 0.12072 0.0
C1442 C 0.54185 0.45639 0.11517 0.0
C1443 C 0.55352 0.408 0.12462 0.0
C1444 C 0.5843 0.41334 0.12298 0.0
C1445 C 0.5938 0.44079 0.11787 0.0
C1446 C 0.57275 0.46213 0.11397 0.0
C1447 C 0.60656 0.38988 0.12621 0.0
C1448 C 0.6289 0.39648 0.13516 0.0
C1449 C 0.60536 0.36094 0.12071 0.0
C1450 C 0.5829 0.35298 0.11087 0.0
C1451 C 0.58064 0.36982 0.09965 0.0
C1452 C 0.55911 0.36244 0.09051 0.0
C1453 C 0.53987 0.33812 0.09245 0.0
C1454 C 0.54218 0.32107 0.10351 0.0
C1455 C 0.56365 0.32838 0.11269 0.0
H1456 H 0.5232 0.33246 0.08537 0.0
H1457 H 0.72982 0.40245 0.17527 0.0
H1458 H 0.77576 0.33279 0.35142 0.0
H1459 H 0.81377 0.36774 0.3592 0.0
H1460 H 0.84785 0.29967 0.38449 0.0
H1461 H 0.80937 0.26479 0.37699 0.0
H1462 H 0.8469 0.35259 0.39601 0.0
H1463 H 0.88271 0.31508 0.35629 0.0
H1464 H 0.87999 0.30324 0.3335 0.0
H1465 H 0.86865 0.39673 0.32487 0.0
H1466 H 0.87088 0.40909 0.34764 0.0
H1467 H 0.99068 0.41855 0.4066 0.0
H1468 H 0.95021 0.38466 0.4002 0.0
H1469 H 0.9109 0.45504 0.37755 0.0
H1470 H 0.95126 0.48909 0.38387 0.0
H1471 H 0.91472 0.40092 0.36487 0.0
H1472 H 0.88005 0.43775 0.40512 0.0
H1473 H 0.88401 0.44839 0.42798 0.0
H1474 H 0.89512 0.35441 0.43565 0.0
H1475 H 0.89167 0.34324 0.4128 0.0
C1476 C 0.79123 0.3253 0.35869 0.0
C1477 C 0.78972 0.29595 0.36353 0.0
C1478 C 0.81301 0.34527 0.36309 0.0
C1479 C 0.83399 0.33612 0.37225 0.0
C1480 C 0.83195 0.30715 0.37738 0.0
C1481 C 0.80998 0.28723 0.37307 0.0
C1482 C 0.85846 0.35656 0.37627 0.0
C1483 C 0.86196 0.36287 0.38922 0.0
C1484 C 0.87783 0.3703 0.36738 0.0
C1485 C 0.87667 0.36297 0.35368 0.0
C1486 C 0.87942 0.33309 0.34954 0.0
C1487 C 0.878 0.32629 0.33663 0.0
C1488 C 0.87407 0.34921 0.32775 0.0
C1489 C 0.87165 0.37899 0.33176 0.0
C1490 C 0.87301 0.38591 0.34467 0.0
C1491 C 0.97343 0.42683 0.40026 0.0
C1492 C 0.97414 0.45651 0.39575 0.0
C1493 C 0.95027 0.40748 0.39666 0.0
C1494 C 0.92749 0.41747 0.38849 0.0
C1495 C 0.92828 0.44696 0.38388 0.0
C1496 C 0.95131 0.46638 0.38753 0.0
C1497 C 0.90303 0.39701 0.38457 0.0
C1498 C 0.8996 0.39065 0.37165 0.0
C1499 C 0.88395 0.38303 0.39349 0.0
C1500 C 0.8859 0.38969 0.40723 0.0
C1501 C 0.88359 0.41937 0.41167 0.0
C1502 C 0.8857 0.4255 0.42462 0.0
C1503 C 0.8899 0.4021 0.43326 0.0
C1504 C 0.89192 0.37251 0.42895 0.0
C1505 C 0.88986 0.36627 0.416 0.0
H1506 H 0.89152 0.40688 0.44329 0.0
H1507 H 0.87297 0.3439 0.31775 0.0
H1508 H 0.94242 0.50103 0.60258 0.0
H1509 H 0.90431 0.53263 0.61253 0.0
H1510 H 0.9719 0.59861 0.62155 0.0
H1511 H 0.01019 0.56713 0.61168 0.0
H1512 H 0.93383 0.58819 0.64144 0.0
H1513 H 0.92619 0.6094 0.59678 0.0
H1514 H 0.91997 0.59649 0.57421 0.0
H1515 H 0.83362 0.55806 0.58206 0.0
H1516 H 0.83952 0.57039 0.60472 0.0
H1517 H 0.84478 0.71597 0.65352 0.0
H1518 H 0.88055 0.67974 0.64507 0.0
H1519 H 0.80778 0.62005 0.6354 0.0
H1520 H 0.77168 0.65648 0.64367 0.0
H1521 H 0.84684 0.62459 0.61633 0.0
H1522 H 0.85294 0.6055 0.66077 0.0
H1523 H 0.85892 0.61808 0.68338 0.0
H1524 H 0.94755 0.65172 0.67619 0.0
H1525 H 0.94196 0.63973 0.65349 0.0
C1526 C 0.94921 0.52223 0.6067 0.0
C1527 C 0.97931 0.53165 0.60629 0.0
C1528 C 0.92739 0.54027 0.61236 0.0
C1529 C 0.93527 0.56806 0.61766 0.0
C1530 C 0.96538 0.57724 0.6175 0.0
C1531 C 0.9872 0.55926 0.61182 0.0
C1532 C 0.91208 0.58783 0.62321 0.0
C1533 C 0.91496 0.59642 0.63593 0.0
C1534 C 0.88707 0.59784 0.61609 0.0
C1535 C 0.88344 0.59052 0.60246 0.0
C1536 C 0.90598 0.59797 0.59371 0.0
C1537 C 0.9025 0.5908 0.5809 0.0
C1538 C 0.87645 0.57639 0.57671 0.0
C1539 C 0.8538 0.56918 0.58532 0.0
C1540 C 0.8572 0.57627 0.59815 0.0
C1541 C 0.83633 0.69511 0.64964 0.0
C1542 C 0.80538 0.68907 0.64929 0.0
C1543 C 0.85685 0.67435 0.64486 0.0
C1544 C 0.84685 0.64703 0.63976 0.0
C1545 C 0.81596 0.64097 0.63934 0.0
C1546 C 0.79538 0.66178 0.64408 0.0
C1547 C 0.86868 0.62521 0.63456 0.0
C1548 C 0.86557 0.61622 0.62189 0.0
C1549 C 0.89343 0.61476 0.64175 0.0
C1550 C 0.89692 0.62195 0.6554 0.0
C1551 C 0.87362 0.6158 0.66399 0.0
C1552 C 0.87695 0.62279 0.67682 0.0
C1553 C 0.90357 0.63576 0.68121 0.0
C1554 C 0.92694 0.6417 0.67277 0.0
C1555 C 0.92371 0.63478 0.65992 0.0
H1556 H 0.90611 0.64115 0.69115 0.0
H1557 H 0.87379 0.57086 0.56679 0.0
H1558 H 0.72325 0.67936 0.85499 0.0
H1559 H 0.69112 0.64213 0.86506 0.0
H1560 H 0.74455 0.64714 0.89911 0.0
H1561 H 0.77707 0.68457 0.88907 0.0
H1562 H 0.72882 0.58805 0.89213 0.0
H1563 H 0.68137 0.68251 0.89924 0.0
H1564 H 0.66169 0.73228 0.89329 0.0
H1565 H 0.5983 0.69092 0.86805 0.0
H1566 H 0.61794 0.6409 0.8737 0.0
H1567 H 0.61482 0.50911 0.92692 0.0
H1568 H 0.65248 0.54593 0.92033 0.0
H1569 H 0.60583 0.55792 0.88484 0.0
H1570 H 0.568 0.52165 0.89138 0.0
H1571 H 0.62004 0.61079 0.89527 0.0
H1572 H 0.67068 0.51671 0.88693 0.0
H1573 H 0.69125 0.46708 0.89257 0.0
H1574 H 0.74887 0.50799 0.92028 0.0
H1575 H 0.72834 0.55785 0.91491 0.0
C1576 C 0.72835 0.67247 0.86459 0.0
C1577 C 0.75258 0.68508 0.87127 0.0
C1578 C 0.7099 0.65125 0.87034 0.0
C1579 C 0.71529 0.64225 0.88286 0.0
C1580 C 0.74003 0.65395 0.88944 0.0
C1581 C 0.75849 0.67535 0.88371 0.0
C1582 C 0.69439 0.62121 0.88909 0.0
C1583 C 0.70511 0.59314 0.89305 0.0
C1584 C 0.66347 0.6279 0.89014 0.0
C1585 C 0.65129 0.65794 0.88683 0.0
C1586 C 0.66338 0.68403 0.89235 0.0
C1587 C 0.65221 0.71229 0.88905 0.0
C1588 C 0.6288 0.71477 0.88028 0.0
C1589 C 0.61645 0.68897 0.87484 0.0
C1590 C 0.62757 0.66065 0.8781 0.0
C1591 C 0.61268 0.51949 0.91769 0.0
C1592 C 0.58842 0.51248 0.90968 0.0
C1593 C 0.63425 0.54046 0.91393 0.0
C1594 C 0.632 0.55454 0.90207 0.0
C1595 C 0.60792 0.54738 0.89405 0.0
C1596 C 0.58637 0.52657 0.89779 0.0
C1597 C 0.65426 0.5772 0.898 0.0
C1598 C 0.64379 0.60573 0.8945 0.0
C1599 C 0.68537 0.5709 0.89741 0.0
C1600 C 0.69773 0.54095 0.90062 0.0
C1601 C 0.68755 0.51509 0.8943 0.0
C1602 C 0.69924 0.48692 0.89743 0.0
C1603 C 0.72128 0.48437 0.90681 0.0
C1604 C 0.73175 0.50999 0.91304 0.0
C1605 C 0.72011 0.53821 0.90995 0.0
H1606 H 0.7303 0.46255 0.90922 0.0
H1607 H 0.6202 0.73667 0.87773 0.0
H1608 H 0.4454 0.4938 0.88306 0.0
H1609 H 0.4071 0.5208 0.87116 0.0
H1610 H 0.3489 0.51966 0.90375 0.0
H1611 H 0.38717 0.49194 0.91576 0.0
H1612 H 0.31757 0.5111 0.88137 0.0
H1613 H 0.38841 0.58081 0.89816 0.0
H1614 H 0.43858 0.6014 0.90285 0.0
H1615 H 0.45615 0.61023 0.86306 0.0
H1616 H 0.40622 0.58924 0.85812 0.0
H1617 H 0.23579 0.64366 0.86058 0.0
H1618 H 0.26367 0.60516 0.87227 0.0
H1619 H 0.32241 0.59298 0.84029 0.0
H1620 H 0.29458 0.63107 0.82848 0.0
H1621 H 0.35116 0.60846 0.86351 0.0
H1622 H 0.27829 0.5386 0.84716 0.0
H1623 H 0.22733 0.51909 0.84326 0.0
H1624 H 0.21214 0.51299 0.88332 0.0
H1625 H 0.2629 0.53291 0.88746 0.0
C1626 C 0.42439 0.49905 0.8877 0.0
C1627 C 0.41947 0.49115 0.90041 0.0
C1628 C 0.40251 0.51447 0.88088 0.0
C1629 C 0.37543 0.5227 0.88666 0.0
C1630 C 0.36975 0.5136 0.89915 0.0
C1631 C 0.39164 0.49788 0.906 0.0
C1632 C 0.35418 0.54246 0.87982 0.0
C1633 C 0.32472 0.53258 0.8776 0.0
C1634 C 0.36366 0.57039 0.87486 0.0
C1635 C 0.39367 0.58319 0.87778 0.0
C1636 C 0.40305 0.58692 0.89041 0.0
C1637 C 0.43144 0.5987 0.89311 0.0
C1638 C 0.45057 0.60705 0.88326 0.0
C1639 C 0.44132 0.60371 0.87068 0.0
C1640 C 0.41297 0.5919 0.86792 0.0
C1641 C 0.25429 0.63237 0.85595 0.0
C1642 C 0.26318 0.64059 0.84366 0.0
C1643 C 0.27009 0.61033 0.86263 0.0
C1644 C 0.29507 0.59637 0.85712 0.0
C1645 C 0.30314 0.60356 0.84466 0.0
C1646 C 0.28719 0.6253 0.83794 0.0
C1647 C 0.31478 0.57682 0.86478 0.0
C1648 C 0.34397 0.58696 0.86726 0.0
C1649 C 0.30484 0.54946 0.87009 0.0
C1650 C 0.27428 0.53759 0.86762 0.0
C1651 C 0.26398 0.53341 0.85514 0.0
C1652 C 0.23515 0.5222 0.85289 0.0
C1653 C 0.21647 0.5149 0.86304 0.0
C1654 C 0.22662 0.51872 0.87547 0.0
C1655 C 0.25542 0.52994 0.87777 0.0
H1656 H 0.19417 0.5062 0.86128 0.0
H1657 H 0.47253 0.61617 0.88537 0.0
H1658 H 0.10113 0.47059 0.61474 0.0
H1659 H 0.13926 0.49778 0.6268 0.0
H1660 H 0.17885 0.52906 0.59195 0.0
H1661 H 0.14137 0.5009 0.57982 0.0
H1662 H 0.22138 0.52067 0.60952 0.0
H1663 H 0.12562 0.57045 0.60739 0.0
H1664 H 0.07075 0.57439 0.60995 0.0
H1665 H 0.07989 0.55932 0.64994 0.0
H1666 H 0.13482 0.55483 0.64758 0.0
H1667 H 0.27291 0.6661 0.62746 0.0
H1668 H 0.24783 0.62249 0.6182 0.0
H1669 H 0.22485 0.59092 0.65554 0.0
H1670 H 0.25024 0.63437 0.66493 0.0
H1671 H 0.17592 0.59567 0.63848 0.0
H1672 H 0.2742 0.55259 0.64012 0.0
H1673 H 0.32885 0.55088 0.6366 0.0
H1674 H 0.3148 0.5568 0.59643 0.0
H1675 H 0.26005 0.559 0.59972 0.0
C1676 C 0.11838 0.48273 0.60965 0.0
C1677 C 0.11809 0.48404 0.59636 0.0
C1678 C 0.14009 0.49829 0.61655 0.0
C1679 C 0.16137 0.51608 0.61028 0.0
C1680 C 0.16251 0.5156 0.59698 0.0
C1681 C 0.14108 0.49955 0.59006 0.0
C1682 C 0.18023 0.53753 0.61749 0.0
C1683 C 0.21147 0.53716 0.6158 0.0
C1684 C 0.16727 0.55883 0.62582 0.0
C1685 C 0.13428 0.56198 0.62729 0.0
C1686 C 0.1159 0.56779 0.61672 0.0
C1687 C 0.08479 0.57013 0.61813 0.0
C1688 C 0.07183 0.56702 0.63009 0.0
C1689 C 0.08996 0.56167 0.64067 0.0
C1690 C 0.12108 0.55923 0.63931 0.0
C1691 C 0.2628 0.64971 0.63372 0.0
C1692 C 0.26341 0.65369 0.64692 0.0
C1693 C 0.24865 0.62474 0.62841 0.0
C1694 C 0.23468 0.60348 0.6362 0.0
C1695 C 0.23566 0.60708 0.6494 0.0
C1696 C 0.25019 0.63186 0.65473 0.0
C1697 C 0.21702 0.57888 0.63047 0.0
C1698 C 0.18591 0.57883 0.63237 0.0
C1699 C 0.23008 0.55761 0.62221 0.0
C1700 C 0.263 0.55621 0.62018 0.0
C1701 C 0.28276 0.55379 0.63054 0.0
C1702 C 0.31376 0.55268 0.62859 0.0
C1703 C 0.32529 0.5538 0.6163 0.0
C1704 C 0.30584 0.55596 0.60595 0.0
C1705 C 0.27481 0.5571 0.60785 0.0
H1706 H 0.3493 0.55293 0.61481 0.0
H1707 H 0.04774 0.56883 0.63118 0.0
H1708 H 0.09925 0.51484 0.37285 0.0
H1709 H 0.13726 0.48954 0.36007 0.0
H1710 H 0.17809 0.45413 0.39402 0.0
H1711 H 0.14056 0.47988 0.40689 0.0
H1712 H 0.22022 0.46827 0.37648 0.0
H1713 H 0.12638 0.41363 0.37788 0.0
H1714 H 0.07176 0.40752 0.375 0.0
H1715 H 0.08061 0.42705 0.33536 0.0
H1716 H 0.13527 0.4337 0.33805 0.0
H1717 H 0.27518 0.32464 0.36116 0.0
H1718 H 0.25059 0.3699 0.36893 0.0
H1719 H 0.22496 0.39326 0.33076 0.0
H1720 H 0.24964 0.34782 0.32285 0.0
H1721 H 0.17752 0.39222 0.3472 0.0
H1722 H 0.27429 0.43674 0.34577 0.0
H1723 H 0.32886 0.44047 0.34934 0.0
H1724 H 0.31505 0.43752 0.38955 0.0
H1725 H 0.26041 0.43332 0.38624 0.0
C1726 C 0.11659 0.50205 0.37761 0.0
C1727 C 0.11663 0.49893 0.39087 0.0
C1728 C 0.13829 0.48763 0.37029 0.0
C1729 C 0.16013 0.46955 0.37609 0.0
C1730 C 0.16137 0.46795 0.38936 0.0
C1731 C 0.13981 0.48255 0.3967 0.0
C1732 C 0.17976 0.44995 0.3684 0.0
C1733 C 0.21097 0.4516 0.37008 0.0
C1734 C 0.16762 0.42869 0.35984 0.0
C1735 C 0.13482 0.42454 0.35819 0.0
C1736 C 0.11663 0.41685 0.36857 0.0
C1737 C 0.08568 0.41326 0.36697 0.0
C1738 C 0.07271 0.417 0.35501 0.0
C1739 C 0.09068 0.42424 0.34462 0.0
C1740 C 0.12164 0.42792 0.34617 0.0
C1741 C 0.26468 0.33959 0.35438 0.0
C1742 C 0.26414 0.33258 0.3414 0.0
C1743 C 0.25085 0.36558 0.35883 0.0
C1744 C 0.23618 0.38502 0.3504 0.0
C1745 C 0.23634 0.37858 0.33739 0.0
C1746 C 0.25044 0.35266 0.3329 0.0
C1747 C 0.21802 0.41009 0.35544 0.0
C1748 C 0.18696 0.40938 0.35332 0.0
C1749 C 0.23033 0.43193 0.36368 0.0
C1750 C 0.26321 0.43454 0.36574 0.0
C1751 C 0.28288 0.43666 0.35538 0.0
C1752 C 0.31384 0.43889 0.35736 0.0
C1753 C 0.32542 0.43919 0.36966 0.0
C1754 C 0.30605 0.4373 0.38002 0.0
C1755 C 0.27507 0.43503 0.3781 0.0
H1756 H 0.34939 0.44092 0.37118 0.0
H1757 H 0.04875 0.4142 0.35379 0.0
H1758 H 0.41682 0.5221 0.12112 0.0
H1759 H 0.37483 0.49928 0.13239 0.0
H1760 H 0.34769 0.45368 0.09817 0.0
H1761 H 0.38923 0.47703 0.08674 0.0
H1762 H 0.29934 0.47007 0.11215 0.0
H1763 H 0.39367 0.41952 0.1189 0.0
H1764 H 0.44711 0.41674 0.12494 0.0
H1765 H 0.42543 0.44623 0.16254 0.0
H1766 H 0.37187 0.44966 0.15665 0.0
H1767 H 0.24229 0.33042 0.13251 0.0
H1768 H 0.26883 0.37322 0.12353 0.0
H1769 H 0.28052 0.41056 0.16092 0.0
H1770 H 0.25381 0.3676 0.17004 0.0
H1771 H 0.33346 0.405 0.14752 0.0
H1772 H 0.23586 0.44612 0.1406 0.0
H1773 H 0.1831 0.44602 0.13351 0.0
H1774 H 0.21126 0.43032 0.09522 0.0
H1775 H 0.26419 0.42988 0.10209 0.0
C1776 C 0.4016 0.50763 0.11593 0.0
C1777 C 0.40659 0.50091 0.1031 0.0
C1778 C 0.37762 0.49465 0.12239 0.0
C1779 C 0.35856 0.47435 0.11617 0.0
C1780 C 0.36223 0.46924 0.10315 0.0
C1781 C 0.38605 0.48249 0.09664 0.0
C1782 C 0.33705 0.45597 0.12347 0.0
C1783 C 0.30672 0.45579 0.11987 0.0
C1784 C 0.34673 0.43771 0.13366 0.0
C1785 C 0.37883 0.43519 0.13729 0.0
C1786 C 0.40033 0.4256 0.12843 0.0
C1787 C 0.43063 0.4239 0.13182 0.0
C1788 C 0.43967 0.43139 0.1441 0.0
C1789 C 0.4184 0.4405 0.15303 0.0
C1790 C 0.38807 0.44232 0.14967 0.0
C1791 C 0.25012 0.34792 0.13883 0.0
C1792 C 0.24617 0.34557 0.15199 0.0
C1793 C 0.26508 0.37248 0.13367 0.0
C1794 C 0.27641 0.39512 0.14156 0.0
C1795 C 0.27176 0.39334 0.15468 0.0
C1796 C 0.2565 0.36884 0.15986 0.0
C1797 C 0.29571 0.41882 0.13614 0.0
C1798 C 0.3258 0.41982 0.14002 0.0
C1799 C 0.28586 0.43738 0.12609 0.0
C1800 C 0.25403 0.43781 0.12189 0.0
C1801 C 0.23081 0.44243 0.13068 0.0
C1802 C 0.20086 0.44251 0.1267 0.0
C1803 C 0.19383 0.43813 0.11393 0.0
C1804 C 0.21674 0.43372 0.10511 0.0
C1805 C 0.24673 0.4336 0.10904 0.0
H1806 H 0.17063 0.43818 0.11086 0.0
H1807 H 0.46314 0.43008 0.14671 0.0
loop_
_geom_bond_atom_site_label_1
_geom_bond_atom_site_label_2
_geom_bond_distance
_geom_bond_site_symmetry_2
_ccdc_geom_bond_type
C0 O1 1.136 1_455 S
C0 O7 1.204 . S
O1 C0 1.136 1_655 S
O2 Zn3 1.899 1_655 S
O2 C10 1.284 . S
Zn3 O2 1.899 1_455 S
Zn3 O4 2.032 . S
Zn3 O7 2.086 . S
Zn3 O12 1.977 . S
O4 Zn3 2.032 . S
O4 C8 1.278 . S
C5 O6 1.203 . S
C5 O12 1.267 1_565 S
O6 C5 1.203 . S
O7 C0 1.204 . S
O7 Zn3 2.086 . S
C8 O4 1.278 . S
C8 O9 1.211 1_545 S
O9 C8 1.211 1_565 S
C10 O2 1.284 . S
C10 O11 1.273 1_545 S
O11 C10 1.273 1_565 S
O12 Zn3 1.977 . S
O12 C5 1.267 1_545 S
C13 O14 1.160 . S
C13 O20 1.185 . S
O14 C13 1.160 . S
O15 Zn16 1.899 . S
O15 C23 1.284 . S
Zn16 O15 1.899 . S
Zn16 O17 2.032 . S
Zn16 O20 2.086 . S
Zn16 O25 1.977 . S
O17 Zn16 2.032 . S
O17 C21 1.278 . S
C18 O19 1.203 . S
C18 O25 1.267 . S
O19 C18 1.203 . S
O20 C13 1.185 . S
O20 Zn16 2.086 . S
C21 O17 1.278 . S
C21 O22 1.211 . S
O22 C21 1.211 . S
C23 O15 1.284 . S
C23 O24 1.273 . S
O24 C23 1.273 . S
O25 Zn16 1.977 . S
O25 C18 1.267 . S
C26 O27 1.160 . S
C26 O33 1.185 . S
O27 C26 1.160 . S
O28 Zn29 1.899 . S
O28 C36 1.284 . S
Zn29 O28 1.899 . S
Zn29 O30 2.032 . S
Zn29 O33 2.086 . S
Zn29 O38 1.977 . S
O30 Zn29 2.032 . S
O30 C34 1.278 . S
C31 O32 1.203 . S
C31 O38 1.267 1_545 S
O32 C31 1.203 . S
O33 C26 1.185 . S
O33 Zn29 2.086 . S
C34 O30 1.278 . S
C34 O35 1.211 1_565 S
O35 C34 1.211 1_545 S
C36 O28 1.284 . S
C36 O37 1.273 1_565 S
O37 C36 1.273 1_545 S
O38 Zn29 1.977 . S
O38 C31 1.267 1_565 S
C39 O40 1.160 . S
C39 O46 1.185 . S
O40 C39 1.160 . S
O41 Zn42 1.899 . S
O41 C49 1.284 . S
Zn42 O41 1.899 . S
Zn42 O43 2.032 . S
Zn42 O46 2.086 . S
Zn42 O51 1.977 . S
O43 Zn42 2.032 . S
O43 C47 1.278 . S
C44 O45 1.203 . S
C44 O51 1.267 . S
O45 C44 1.203 . S
O46 C39 1.185 . S
O46 Zn42 2.086 . S
C47 O43 1.278 . S
C47 O48 1.211 . S
O48 C47 1.211 . S
C49 O41 1.284 . S
C49 O50 1.273 . S
O50 C49 1.273 . S
O51 Zn42 1.977 . S
O51 C44 1.267 . S
C52 O53 1.136 1_455 S
C52 O59 1.204 . S
O53 C52 1.136 1_655 S
O54 Zn55 1.899 1_655 S
O54 C62 1.284 . S
Zn55 O54 1.899 1_455 S
Zn55 O56 2.032 . S
Zn55 O59 2.086 . S
Zn55 O64 1.977 . S
O56 Zn55 2.032 . S
O56 C60 1.278 . S
C57 O58 1.203 . S
C57 O64 1.267 1_545 S
O58 C57 1.203 . S
O59 C52 1.204 . S
O59 Zn55 2.086 . S
C60 O56 1.278 . S
C60 O61 1.211 1_565 S
O61 C60 1.211 1_545 S
C62 O54 1.284 . S
C62 O63 1.273 1_565 S
O63 C62 1.273 1_545 S
O64 Zn55 1.977 . S
O64 C57 1.267 1_565 S
C65 O66 1.160 . S
C65 O72 1.185 . S
O66 C65 1.160 . S
O67 Zn68 1.899 . S
O67 C75 1.284 . S
Zn68 O67 1.899 . S
Zn68 O69 2.032 . S
Zn68 O72 2.086 . S
Zn68 O77 1.977 . S
O69 Zn68 2.032 . S
O69 C73 1.278 . S
C70 O71 1.203 . S
C70 O77 1.267 . S
O71 C70 1.203 . S
O72 C65 1.185 . S
O72 Zn68 2.086 . S
C73 O69 1.278 . S
C73 O74 1.211 . S
O74 C73 1.211 . S
C75 O67 1.284 . S
C75 O76 1.273 . S
O76 C75 1.273 . S
O77 Zn68 1.977 . S
O77 C70 1.267 . S
C78 O79 1.160 . S
C78 O85 1.185 . S
O79 C78 1.160 . S
O80 Zn81 1.899 . S
O80 C88 1.284 . S
Zn81 O80 1.899 . S
Zn81 O82 2.032 . S
Zn81 O85 2.086 . S
Zn81 O90 1.977 . S
O82 Zn81 2.032 . S
O82 C86 1.278 . S
C83 O84 1.203 . S
C83 O90 1.267 1_565 S
O84 C83 1.203 . S
O85 C78 1.185 . S
O85 Zn81 2.086 . S
C86 O82 1.278 . S
C86 O87 1.211 1_545 S
O87 C86 1.211 1_565 S
C88 O80 1.284 . S
C88 O89 1.273 1_545 S
O89 C88 1.273 1_565 S
O90 Zn81 1.977 . S
O90 C83 1.267 1_545 S
C91 O92 1.160 . S
C91 O98 1.185 . S
O92 C91 1.160 . S
O93 Zn94 1.899 . S
O93 C101 1.284 . S
Zn94 O93 1.899 . S
Zn94 O95 2.032 . S
Zn94 O98 2.086 . S
Zn94 O103 1.977 . S
O95 Zn94 2.032 . S
O95 C99 1.278 . S
C96 O97 1.203 . S
C96 O103 1.267 . S
O97 C96 1.203 . S
O98 C91 1.185 . S
O98 Zn94 2.086 . S
C99 O95 1.278 . S
C99 O100 1.211 . S
O100 C99 1.211 . S
C101 O93 1.284 . S
C101 O102 1.273 . S
O102 C101 1.273 . S
O103 Zn94 1.977 . S
O103 C96 1.267 . S
C104 O105 1.160 . S
C104 O111 1.185 . S
O105 C104 1.160 . S
O106 Zn107 1.899 . S
O106 C114 1.284 . S
Zn107 O106 1.899 . S
Zn107 O108 2.032 . S
Zn107 O111 2.086 . S
Zn107 O116 1.977 . S
O108 Zn107 2.032 . S
O108 C112 1.278 . S
C109 O110 1.203 . S
C109 O116 1.267 . S
O110 C109 1.203 . S
O111 C104 1.185 . S
O111 Zn107 2.086 . S
C112 O108 1.278 . S
C112 O113 1.211 . S
O113 C112 1.211 . S
C114 O106 1.284 . S
C114 O115 1.273 . S
O115 C114 1.273 . S
O116 Zn107 1.977 . S
O116 C109 1.267 . S
C117 O118 1.160 . S
C117 O124 1.185 . S
O118 C117 1.160 . S
O119 Zn120 1.899 . S
O119 C127 1.284 . S
Zn120 O119 1.899 . S
Zn120 O121 2.032 . S
Zn120 O124 2.086 . S
Zn120 O129 1.977 . S
O121 Zn120 2.032 . S
O121 C125 1.278 . S
C122 O123 1.203 . S
C122 O129 1.267 . S
O123 C122 1.203 . S
O124 C117 1.185 . S
O124 Zn120 2.086 . S
C125 O121 1.278 . S
C125 O126 1.211 . S
O126 C125 1.211 . S
C127 O119 1.284 . S
C127 O128 1.273 . S
O128 C127 1.273 . S
O129 Zn120 1.977 . S
O129 C122 1.267 . S
C130 O131 1.160 . S
C130 O137 1.185 . S
O131 C130 1.160 . S
O132 Zn133 1.899 . S
O132 C140 1.284 . S
Zn133 O132 1.899 . S
Zn133 O134 2.032 . S
Zn133 O137 2.086 . S
Zn133 O142 1.977 . S
O134 Zn133 2.032 . S
O134 C138 1.278 . S
C135 O136 1.203 . S
C135 O142 1.267 . S
O136 C135 1.203 . S
O137 C130 1.185 . S
O137 Zn133 2.086 . S
C138 O134 1.278 . S
C138 O139 1.211 . S
O139 C138 1.211 . S
C140 O132 1.284 . S
C140 O141 1.273 . S
O141 C140 1.273 . S
O142 Zn133 1.977 . S
O142 C135 1.267 . S
C143 O144 1.160 . S
C143 O150 1.185 . S
O144 C143 1.160 . S
O145 Zn146 1.899 . S
O145 C153 1.284 . S
Zn146 O145 1.899 . S
Zn146 O147 2.032 . S
Zn146 O150 2.086 . S
Zn146 O155 1.977 . S
O147 Zn146 2.032 . S
O147 C151 1.278 . S
C148 O149 1.203 . S
C148 O155 1.267 . S
O149 C148 1.203 . S
O150 C143 1.185 . S
O150 Zn146 2.086 . S
C151 O147 1.278 . S
C151 O152 1.211 . S
O152 C151 1.211 . S
C153 O145 1.284 . S
C153 O154 1.273 . S
O154 C153 1.273 . S
O155 Zn146 1.977 . S
O155 C148 1.267 . S
C156 O157 1.160 . S
C156 O163 1.185 . S
O157 C156 1.160 . S
O158 Zn159 1.899 . S
O158 C166 1.284 . S
Zn159 O158 1.899 . S
Zn159 O160 2.032 . S
Zn159 O163 2.086 . S
Zn159 O168 1.977 . S
O160 Zn159 2.032 . S
O160 C164 1.278 . S
C161 O162 1.203 . S
C161 O168 1.267 . S
O162 C161 1.203 . S
O163 C156 1.185 . S
O163 Zn159 2.086 . S
C164 O160 1.278 . S
C164 O165 1.211 . S
O165 C164 1.211 . S
C166 O158 1.284 . S
C166 O167 1.273 . S
O167 C166 1.273 . S
O168 Zn159 1.977 . S
O168 C161 1.267 . S
C169 O170 1.160 . S
C169 O176 1.185 . S
O170 C169 1.160 . S
O171 Zn172 1.899 . S
O171 C179 1.284 . S
Zn172 O171 1.899 . S
Zn172 O173 2.032 . S
Zn172 O176 2.086 . S
Zn172 O181 1.977 1_455 S
O173 Zn172 2.032 . S
O173 C177 1.278 . S
C174 O175 1.203 . S
C174 O181 1.267 . S
O175 C174 1.203 . S
O176 C169 1.185 . S
O176 Zn172 2.086 . S
C177 O173 1.278 . S
C177 O178 1.208 1_455 S
O178 C177 1.208 1_655 S
C179 O171 1.284 . S
C179 O180 1.273 . S
O180 C179 1.273 . S
O181 Zn172 1.977 1_655 S
O181 C174 1.267 . S
C182 O183 1.160 . S
C182 O189 1.185 . S
O183 C182 1.160 . S
O184 Zn185 1.899 . S
O184 C192 1.284 . S
Zn185 O184 1.899 . S
Zn185 O186 2.032 . S
Zn185 O189 2.086 . S
Zn185 O194 1.977 . S
O186 Zn185 2.032 . S
O186 C190 1.278 . S
C187 O188 1.203 . S
C187 O194 1.267 . S
O188 C187 1.203 . S
O189 C182 1.185 . S
O189 Zn185 2.086 . S
C190 O186 1.278 . S
C190 O191 1.211 . S
O191 C190 1.211 . S
C192 O184 1.284 . S
C192 O193 1.273 . S
O193 C192 1.273 . S
O194 Zn185 1.977 . S
O194 C187 1.267 . S
C195 O196 1.160 . S
C195 O202 1.185 . S
O196 C195 1.160 . S
O197 Zn198 1.899 . S
O197 C205 1.284 . S
Zn198 O197 1.899 . S
Zn198 O199 2.032 . S
Zn198 O202 2.086 . S
Zn198 O207 1.977 1_455 S
O199 Zn198 2.032 . S
O199 C203 1.278 . S
C200 O201 1.203 . S
C200 O207 1.267 . S
O201 C200 1.203 . S
O202 C195 1.185 . S
O202 Zn198 2.086 . S
C203 O199 1.278 . S
C203 O204 1.208 1_455 S
O204 C203 1.208 1_655 S
C205 O197 1.284 . S
C205 O206 1.273 . S
O206 C205 1.273 . S
O207 Zn198 1.977 1_655 S
O207 C200 1.267 . S
H208 C226 0.951 1_655 S
H209 C228 0.954 . S
H210 C230 0.950 . S
H211 C231 0.950 . S
H212 C233 0.950 . S
H213 C236 0.950 . S
H214 C237 0.950 . S
H215 C239 0.950 . S
H216 C240 0.950 . S
H217 C241 0.951 . S
H218 C243 0.951 . S
H219 C245 0.950 . S
H220 C246 0.950 . S
H221 C248 0.950 . S
H222 C251 0.950 . S
H223 C252 0.950 . S
H224 C254 0.950 . S
H225 C255 0.950 . S
C226 H208 0.951 1_455 S
C226 C227 1.366 . S
C226 C228 1.388 . S
C227 C226 1.366 . S
C227 C231 1.385 . S
C228 H209 0.954 . S
C228 C226 1.388 . S
C228 C229 1.366 . S
C229 C228 1.366 . S
C229 C230 1.414 . S
C229 C232 1.499 . S
C230 H210 0.950 . S
C230 C229 1.414 . S
C230 C231 1.374 . S
C231 H211 0.950 . S
C231 C227 1.385 . S
C231 C230 1.374 . S
C232 C229 1.499 . S
C232 C233 1.373 1_455 S
C232 C234 1.389 . S
C233 H212 0.950 . S
C233 C232 1.373 1_655 S
C233 C249 1.377 . S
C234 C232 1.389 . S
C234 C235 1.524 . S
C234 C248 1.377 . S
C235 C234 1.524 . S
C235 C236 1.397 . S
C235 C240 1.363 . S
C236 H213 0.950 . S
C236 C235 1.397 . S
C236 C237 1.334 . S
C237 H214 0.950 . S
C237 C236 1.334 . S
C237 C238 1.287 . S
C238 C237 1.287 . S
C238 C239 1.524 . S
C238 H257 0.913 . S
C239 H215 0.950 . S
C239 C238 1.524 . S
C239 C240 1.415 . S
C240 H216 0.950 . S
C240 C235 1.363 . S
C240 C239 1.415 . S
C241 H217 0.951 . S
C241 C242 1.366 . S
C241 C243 1.388 . S
C242 C241 1.366 . S
C242 C246 1.385 . S
C243 H218 0.951 . S
C243 C241 1.388 . S
C243 C244 1.366 . S
C244 C243 1.366 . S
C244 C245 1.414 . S
C244 C247 1.499 . S
C245 H219 0.950 . S
C245 C244 1.414 . S
C245 C246 1.374 . S
C246 H220 0.950 . S
C246 C242 1.385 . S
C246 C245 1.374 . S
C247 C244 1.499 . S
C247 C248 1.373 . S
C247 C249 1.389 1_455 S
C248 H221 0.950 . S
C248 C234 1.377 . S
C248 C247 1.373 . S
C249 C233 1.377 . S
C249 C247 1.389 1_655 S
C249 C250 1.524 . S
C250 C249 1.524 . S
C250 C251 1.397 . S
C250 C255 1.363 . S
C251 H222 0.950 . S
C251 C250 1.397 . S
C251 C252 1.334 . S
C252 H223 0.950 . S
C252 C251 1.334 . S
C252 C253 1.287 . S
C253 C252 1.287 . S
C253 C254 1.524 . S
C253 H256 0.999 . S
C254 H224 0.950 . S
C254 C253 1.524 . S
C254 C255 1.415 . S
C255 H225 0.950 . S
C255 C250 1.363 . S
C255 C254 1.415 . S
H256 C253 0.999 . S
H257 C238 0.913 . S
H258 C276 0.951 . S
H259 C278 0.951 . S
H260 C280 0.950 . S
H261 C281 0.950 . S
H262 C283 0.950 . S
H263 C286 0.950 . S
H264 C287 0.950 . S
H265 C289 0.950 . S
H266 C290 0.950 1_455 S
H267 C291 0.951 . S
H268 C293 0.951 . S
H269 C295 0.950 . S
H270 C296 0.950 . S
H271 C298 0.950 . S
H272 C301 0.950 . S
H273 C302 0.950 . S
H274 C304 0.950 . S
H275 C305 0.950 . S
C276 H258 0.951 . S
C276 C277 1.366 . S
C276 C278 1.388 . S
C277 C276 1.366 . S
C277 C281 1.385 . S
C278 H259 0.951 . S
C278 C276 1.388 . S
C278 C279 1.366 . S
C279 C278 1.366 . S
C279 C280 1.414 . S
C279 C282 1.499 . S
C280 H260 0.950 . S
C280 C279 1.414 . S
C280 C281 1.374 . S
C281 H261 0.950 . S
C281 C277 1.385 . S
C281 C280 1.374 . S
C282 C279 1.499 . S
C282 C283 1.373 . S
C282 C284 1.389 . S
C283 H262 0.950 . S
C283 C282 1.373 . S
C283 C299 1.377 1_655 S
C284 C282 1.389 . S
C284 C285 1.524 . S
C284 C298 1.377 1_655 S
C285 C284 1.524 . S
C285 C286 1.397 . S
C285 C290 1.363 . S
C286 H263 0.950 . S
C286 C285 1.397 . S
C286 C287 1.334 . S
C287 H264 0.950 . S
C287 C286 1.334 . S
C287 C288 1.287 . S
C288 C287 1.287 . S
C288 C289 1.524 . S
C288 H307 0.913 . S
C289 H265 0.950 . S
C289 C288 1.524 . S
C289 C290 1.415 . S
C290 H266 0.950 1_655 S
C290 C285 1.363 . S
C290 C289 1.415 . S
C291 H267 0.951 . S
C291 C292 1.366 . S
C291 C293 1.388 . S
C292 C291 1.366 . S
C292 C296 1.385 . S
C293 H268 0.951 . S
C293 C291 1.388 . S
C293 C294 1.366 . S
C294 C293 1.366 . S
C294 C295 1.414 . S
C294 C297 1.499 . S
C295 H269 0.950 . S
C295 C294 1.414 . S
C295 C296 1.374 . S
C296 H270 0.950 . S
C296 C292 1.385 . S
C296 C295 1.374 . S
C297 C294 1.499 . S
C297 C298 1.373 . S
C297 C299 1.389 . S
C298 H271 0.950 . S
C298 C284 1.377 1_455 S
C298 C297 1.373 . S
C299 C283 1.377 1_455 S
C299 C297 1.389 . S
C299 C300 1.524 . S
C300 C299 1.524 . S
C300 C301 1.397 . S
C300 C305 1.363 . S
C301 H272 0.950 . S
C301 C300 1.397 . S
C301 C302 1.334 . S
C302 H273 0.950 . S
C302 C301 1.334 . S
C302 C303 1.287 . S
C303 C302 1.287 . S
C303 C304 1.524 . S
C303 H306 0.999 . S
C304 H274 0.950 . S
C304 C303 1.524 . S
C304 C305 1.415 . S
C305 H275 0.950 . S
C305 C300 1.363 . S
C305 C304 1.415 . S
H306 C303 0.999 . S
H307 C288 0.913 . S
H308 C326 0.951 . S
H309 C328 0.951 . S
H310 C330 0.950 . S
H311 C331 0.950 . S
H312 C333 0.950 . S
H313 C336 0.950 . S
H314 C337 0.950 . S
H315 C339 0.950 . S
H316 C340 0.950 . S
H317 C341 0.951 . S
H318 C343 0.951 . S
H319 C345 0.950 . S
H320 C346 0.950 . S
H321 C348 0.950 . S
H322 C351 0.950 . S
H323 C352 0.950 . S
H324 C354 0.950 . S
H325 C355 0.950 . S
C326 H308 0.951 . S
C326 C327 1.366 . S
C326 C328 1.388 . S
C327 C326 1.366 . S
C327 C331 1.385 . S
C328 H309 0.951 . S
C328 C326 1.388 . S
C328 C329 1.366 . S
C329 C328 1.366 . S
C329 C330 1.414 . S
C329 C332 1.499 . S
C330 H310 0.950 . S
C330 C329 1.414 . S
C330 C331 1.374 . S
C331 H311 0.950 . S
C331 C327 1.385 . S
C331 C330 1.374 . S
C332 C329 1.499 . S
C332 C333 1.373 . S
C332 C334 1.389 . S
C333 H312 0.950 . S
C333 C332 1.373 . S
C333 C349 1.377 . S
C334 C332 1.389 . S
C334 C335 1.524 . S
C334 C348 1.377 . S
C335 C334 1.524 . S
C335 C336 1.397 . S
C335 C340 1.363 . S
C336 H313 0.950 . S
C336 C335 1.397 . S
C336 C337 1.334 . S
C337 H314 0.950 . S
C337 C336 1.334 . S
C337 C338 1.287 . S
C338 C337 1.287 . S
C338 C339 1.524 . S
C338 H357 0.913 . S
C339 H315 0.950 . S
C339 C338 1.524 . S
C339 C340 1.415 . S
C340 H316 0.950 . S
C340 C335 1.363 . S
C340 C339 1.415 . S
C341 H317 0.951 . S
C341 C342 1.366 . S
C341 C343 1.388 . S
C342 C341 1.366 . S
C342 C346 1.385 . S
C343 H318 0.951 . S
C343 C341 1.388 . S
C343 C344 1.366 . S
C344 C343 1.366 . S
C344 C345 1.414 . S
C344 C347 1.499 . S
C345 H319 0.950 . S
C345 C344 1.414 . S
C345 C346 1.374 . S
C346 H320 0.950 . S
C346 C342 1.385 . S
C346 C345 1.374 . S
C347 C344 1.499 . S
C347 C348 1.373 . S
C347 C349 1.389 . S
C348 H321 0.950 . S
C348 C334 1.377 . S
C348 C347 1.373 . S
C349 C333 1.377 . S
C349 C347 1.389 . S
C349 C350 1.524 . S
C350 C349 1.524 . S
C350 C351 1.397 . S
C350 C355 1.363 . S
C351 H322 0.950 . S
C351 C350 1.397 . S
C351 C352 1.334 . S
C352 H323 0.950 . S
C352 C351 1.334 . S
C352 C353 1.287 . S
C353 C352 1.287 . S
C353 C354 1.524 . S
C353 H356 0.999 . S
C354 H324 0.950 . S
C354 C353 1.524 . S
C354 C355 1.415 . S
C355 H325 0.950 . S
C355 C350 1.363 . S
C355 C354 1.415 . S
H356 C353 0.999 . S
H357 C338 0.913 . S
H358 C376 0.951 . S
H359 C378 0.951 . S
H360 C380 0.950 . S
H361 C381 0.950 . S
H362 C383 0.950 . S
H363 C386 0.950 . S
H364 C387 0.950 . S
H365 C389 0.950 . S
H366 C390 0.950 . S
H367 C391 0.951 . S
H368 C393 0.951 . S
H369 C395 0.950 . S
H370 C396 0.950 . S
H371 C398 0.950 . S
H372 C401 0.950 . S
H373 C402 0.950 . S
H374 C404 0.950 . S
H375 C405 0.950 . S
C376 H358 0.951 . S
C376 C377 1.366 . S
C376 C378 1.388 . S
C377 C376 1.366 . S
C377 C381 1.385 . S
C378 H359 0.951 . S
C378 C376 1.388 . S
C378 C379 1.366 . S
C379 C378 1.366 . S
C379 C380 1.414 . S
C379 C382 1.499 . S
C380 H360 0.950 . S
C380 C379 1.414 . S
C380 C381 1.374 . S
C381 H361 0.950 . S
C381 C377 1.385 . S
C381 C380 1.374 . S
C382 C379 1.499 . S
C382 C383 1.373 . S
C382 C384 1.389 . S
C383 H362 0.950 . S
C383 C382 1.373 . S
C383 C399 1.377 . S
C384 C382 1.389 . S
C384 C385 1.524 . S
C384 C398 1.377 . S
C385 C384 1.524 . S
C385 C386 1.397 . S
C385 C390 1.363 . S
C386 H363 0.950 . S
C386 C385 1.397 . S
C386 C387 1.334 . S
C387 H364 0.950 . S
C387 C386 1.334 . S
C387 C388 1.287 . S
C388 C387 1.287 . S
C388 C389 1.524 . S
C388 H407 0.913 . S
C389 H365 0.950 . S
C389 C388 1.524 . S
C389 C390 1.415 . S
C390 H366 0.950 . S
C390 C385 1.363 . S
C390 C389 1.415 . S
C391 H367 0.951 . S
C391 C392 1.366 . S
C391 C393 1.388 . S
C392 C391 1.366 . S
C392 C396 1.385 . S
C393 H368 0.951 . S
C393 C391 1.388 . S
C393 C394 1.366 . S
C394 C393 1.366 . S
C394 C395 1.414 . S
C394 C397 1.499 . S
C395 H369 0.950 . S
C395 C394 1.414 . S
C395 C396 1.374 . S
C396 H370 0.950 . S
C396 C392 1.385 . S
C396 C395 1.374 . S
C397 C394 1.499 . S
C397 C398 1.373 . S
C397 C399 1.389 . S
C398 H371 0.950 . S
C398 C384 1.377 . S
C398 C397 1.373 . S
C399 C383 1.377 . S
C399 C397 1.389 . S
C399 C400 1.524 . S
C400 C399 1.524 . S
C400 C401 1.397 . S
C400 C405 1.363 . S
C401 H372 0.950 . S
C401 C400 1.397 . S
C401 C402 1.334 . S
C402 H373 0.950 . S
C402 C401 1.334 . S
C402 C403 1.287 . S
C403 C402 1.287 . S
C403 C404 1.524 . S
C403 H406 0.999 . S
C404 H374 0.950 . S
C404 C403 1.524 . S
C404 C405 1.415 . S
C405 H375 0.950 . S
C405 C400 1.363 . S
C405 C404 1.415 . S
H406 C403 0.999 . S
H407 C388 0.913 . S
H408 C426 0.951 . S
H409 C428 0.951 . S
H410 C430 0.950 . S
H411 C431 0.950 . S
H412 C433 0.952 . S
H413 C436 0.950 1_655 S
H414 C437 0.950 1_655 S
H415 C439 0.950 . S
H416 C440 0.950 . S
H417 C441 0.951 . S
H418 C443 0.951 . S
H419 C445 0.950 . S
H420 C446 0.950 . S
H421 C448 0.950 . S
H422 C451 0.950 . S
H423 C452 0.950 . S
H424 C454 0.950 . S
H425 C455 0.950 . S
C426 H408 0.951 . S
C426 C427 1.366 . S
C426 C428 1.388 . S
C427 C426 1.366 . S
C427 C431 1.385 1_455 S
C428 H409 0.951 . S
C428 C426 1.388 . S
C428 C429 1.366 . S
C429 C428 1.366 . S
C429 C430 1.414 1_455 S
C429 C432 1.499 . S
C430 H410 0.950 . S
C430 C429 1.414 1_655 S
C430 C431 1.374 . S
C431 H411 0.950 . S
C431 C427 1.385 1_655 S
C431 C430 1.374 . S
C432 C429 1.499 . S
C432 C433 1.372 1_455 S
C432 C434 1.389 . S
C433 H412 0.952 . S
C433 C432 1.372 1_655 S
C433 C449 1.376 1_655 S
C434 C432 1.389 . S
C434 C435 1.524 . S
C434 C448 1.377 . S
C435 C434 1.524 . S
C435 C436 1.397 . S
C435 C440 1.363 . S
C436 H413 0.950 1_455 S
C436 C435 1.397 . S
C436 C437 1.334 . S
C437 H414 0.950 1_455 S
C437 C436 1.334 . S
C437 C438 1.287 . S
C438 C437 1.287 . S
C438 C439 1.524 . S
C438 H457 0.913 . S
C439 H415 0.950 . S
C439 C438 1.524 . S
C439 C440 1.415 . S
C440 H416 0.950 . S
C440 C435 1.363 . S
C440 C439 1.415 . S
C441 H417 0.951 . S
C441 C442 1.366 1_655 S
C441 C443 1.388 . S
C442 C441 1.366 1_455 S
C442 C446 1.385 . S
C443 H418 0.951 . S
C443 C441 1.388 . S
C443 C444 1.366 1_655 S
C444 C443 1.366 1_455 S
C444 C445 1.414 . S
C444 C447 1.499 . S
C445 H419 0.950 . S
C445 C444 1.414 . S
C445 C446 1.374 . S
C446 H420 0.950 . S
C446 C442 1.385 . S
C446 C445 1.374 . S
C447 C444 1.499 . S
C447 C448 1.373 . S
C447 C449 1.389 . S
C448 H421 0.950 . S
C448 C434 1.377 . S
C448 C447 1.373 . S
C449 C433 1.376 1_455 S
C449 C447 1.389 . S
C449 C450 1.524 1_455 S
C450 C449 1.524 1_655 S
C450 C451 1.397 1_655 S
C450 C455 1.363 . S
C451 H422 0.950 . S
C451 C450 1.397 1_455 S
C451 C452 1.334 . S
C452 H423 0.950 . S
C452 C451 1.334 . S
C452 C453 1.287 1_455 S
C453 C452 1.287 1_655 S
C453 C454 1.524 . S
C453 H456 0.999 . S
C454 H424 0.950 . S
C454 C453 1.524 . S
C454 C455 1.415 . S
C455 H425 0.950 . S
C455 C450 1.363 . S
C455 C454 1.415 . S
H456 C453 0.999 . S
H457 C438 0.913 . S
H458 C476 0.951 . S
H459 C478 0.951 . S
H460 C480 0.950 . S
H461 C481 0.950 . S
H462 C483 0.950 . S
H463 C486 0.950 . S
H464 C487 0.950 . S
H465 C489 0.950 . S
H466 C490 0.950 . S
H467 C491 0.951 . S
H468 C493 0.951 . S
H469 C495 0.950 . S
H470 C496 0.950 . S
H471 C498 0.950 . S
H472 C501 0.950 . S
H473 C502 0.950 . S
H474 C504 0.950 . S
H475 C505 0.950 . S
C476 H458 0.951 . S
C476 C477 1.366 . S
C476 C478 1.388 . S
C477 C476 1.366 . S
C477 C481 1.385 . S
C478 H459 0.951 . S
C478 C476 1.388 . S
C478 C479 1.366 . S
C479 C478 1.366 . S
C479 C480 1.414 . S
C479 C482 1.499 . S
C480 H460 0.950 . S
C480 C479 1.414 . S
C480 C481 1.374 . S
C481 H461 0.950 . S
C481 C477 1.385 . S
C481 C480 1.374 . S
C482 C479 1.499 . S
C482 C483 1.373 . S
C482 C484 1.389 . S
C483 H462 0.950 . S
C483 C482 1.373 . S
C483 C499 1.377 . S
C484 C482 1.389 . S
C484 C485 1.524 . S
C484 C498 1.377 . S
C485 C484 1.524 . S
C485 C486 1.397 . S
C485 C490 1.363 . S
C486 H463 0.950 . S
C486 C485 1.397 . S
C486 C487 1.334 . S
C487 H464 0.950 . S
C487 C486 1.334 . S
C487 C488 1.287 . S
C488 C487 1.287 . S
C488 C489 1.524 . S
C488 H507 0.913 . S
C489 H465 0.950 . S
C489 C488 1.524 . S
C489 C490 1.415 . S
C490 H466 0.950 . S
C490 C485 1.363 . S
C490 C489 1.415 . S
C491 H467 0.951 . S
C491 C492 1.366 . S
C491 C493 1.388 . S
C492 C491 1.366 . S
C492 C496 1.385 . S
C493 H468 0.951 . S
C493 C491 1.388 . S
C493 C494 1.366 . S
C494 C493 1.366 . S
C494 C495 1.414 . S
C494 C497 1.499 . S
C495 H469 0.950 . S
C495 C494 1.414 . S
C495 C496 1.374 . S
C496 H470 0.950 . S
C496 C492 1.385 . S
C496 C495 1.374 . S
C497 C494 1.499 . S
C497 C498 1.373 . S
C497 C499 1.389 . S
C498 H471 0.950 . S
C498 C484 1.377 . S
C498 C497 1.373 . S
C499 C483 1.377 . S
C499 C497 1.389 . S
C499 C500 1.524 . S
C500 C499 1.524 . S
C500 C501 1.397 . S
C500 C505 1.363 . S
C501 H472 0.950 . S
C501 C500 1.397 . S
C501 C502 1.334 . S
C502 H473 0.950 . S
C502 C501 1.334 . S
C502 C503 1.287 . S
C503 C502 1.287 . S
C503 C504 1.524 . S
C503 H506 0.999 . S
C504 H474 0.950 . S
C504 C503 1.524 . S
C504 C505 1.415 . S
C505 H475 0.950 . S
C505 C500 1.363 . S
C505 C504 1.415 . S
H506 C503 0.999 . S
H507 C488 0.913 . S
H508 C526 0.951 . S
H509 C528 0.951 . S
H510 C530 0.950 . S
H511 C531 0.950 . S
H512 C533 0.950 . S
H513 C536 0.950 . S
H514 C537 0.950 . S
H515 C539 0.950 . S
H516 C540 0.950 . S
H517 C541 0.951 . S
H518 C543 0.951 . S
H519 C545 0.950 . S
H520 C546 0.950 . S
H521 C548 0.950 . S
H522 C551 0.950 . S
H523 C552 0.950 . S
H524 C554 0.950 . S
H525 C555 0.950 . S
C526 H508 0.951 . S
C526 C527 1.366 . S
C526 C528 1.388 . S
C527 C526 1.366 . S
C527 C531 1.385 . S
C528 H509 0.951 . S
C528 C526 1.388 . S
C528 C529 1.366 . S
C529 C528 1.366 . S
C529 C530 1.414 . S
C529 C532 1.499 . S
C530 H510 0.950 . S
C530 C529 1.414 . S
C530 C531 1.374 . S
C531 H511 0.950 . S
C531 C527 1.385 . S
C531 C530 1.374 . S
C532 C529 1.499 . S
C532 C533 1.373 . S
C532 C534 1.389 . S
C533 H512 0.950 . S
C533 C532 1.373 . S
C533 C549 1.377 . S
C534 C532 1.389 . S
C534 C535 1.524 . S
C534 C548 1.377 . S
C535 C534 1.524 . S
C535 C536 1.397 . S
C535 C540 1.363 . S
C536 H513 0.950 . S
C536 C535 1.397 . S
C536 C537 1.334 . S
C537 H514 0.950 . S
C537 C536 1.334 . S
C537 C538 1.287 . S
C538 C537 1.287 . S
C538 C539 1.524 . S
C538 H557 0.913 . S
C539 H515 0.950 . S
C539 C538 1.524 . S
C539 C540 1.415 . S
C540 H516 0.950 . S
C540 C535 1.363 . S
C540 C539 1.415 . S
C541 H517 0.951 . S
C541 C542 1.366 . S
C541 C543 1.388 . S
C542 C541 1.366 . S
C542 C546 1.385 . S
C543 H518 0.951 . S
C543 C541 1.388 . S
C543 C544 1.366 . S
C544 C543 1.366 . S
C544 C545 1.414 . S
C544 C547 1.499 . S
C545 H519 0.950 . S
C545 C544 1.414 . S
C545 C546 1.374 . S
C546 H520 0.950 . S
C546 C542 1.385 . S
C546 C545 1.374 . S
C547 C544 1.499 . S
C547 C548 1.373 . S
C547 C549 1.389 . S
C548 H521 0.950 . S
C548 C534 1.377 . S
C548 C547 1.373 . S
C549 C533 1.377 . S
C549 C547 1.389 . S
C549 C550 1.524 . S
C550 C549 1.524 . S
C550 C551 1.397 . S
C550 C555 1.363 . S
C551 H522 0.950 . S
C551 C550 1.397 . S
C551 C552 1.334 . S
C552 H523 0.950 . S
C552 C551 1.334 . S
C552 C553 1.287 . S
C553 C552 1.287 . S
C553 C554 1.524 . S
C553 H556 0.999 . S
C554 H524 0.950 . S
C554 C553 1.524 . S
C554 C555 1.415 . S
C555 H525 0.950 . S
C555 C550 1.363 . S
C555 C554 1.415 . S
H556 C553 0.999 . S
H557 C538 0.913 . S
H558 C576 0.951 . S
H559 C578 0.951 . S
H560 C580 0.950 . S
H561 C581 0.950 . S
H562 C583 0.950 . S
H563 C586 0.950 . S
H564 C587 0.950 . S
H565 C589 0.950 . S
H566 C590 0.950 . S
H567 C591 0.951 . S
H568 C593 0.951 . S
H569 C595 0.950 . S
H570 C596 0.950 . S
H571 C598 0.950 . S
H572 C601 0.950 . S
H573 C602 0.950 . S
H574 C604 0.950 . S
H575 C605 0.950 1_455 S
C576 H558 0.951 . S
C576 C577 1.366 . S
C576 C578 1.388 . S
C577 C576 1.366 . S
C577 C581 1.385 . S
C578 H559 0.951 . S
C578 C576 1.388 . S
C578 C579 1.366 . S
C579 C578 1.366 . S
C579 C580 1.414 . S
C579 C582 1.499 . S
C580 H560 0.950 . S
C580 C579 1.414 . S
C580 C581 1.374 . S
C581 H561 0.950 . S
C581 C577 1.385 . S
C581 C580 1.374 . S
C582 C579 1.499 . S
C582 C583 1.373 . S
C582 C584 1.389 . S
C583 H562 0.950 . S
C583 C582 1.373 . S
C583 C599 1.377 1_455 S
C584 C582 1.389 . S
C584 C585 1.524 . S
C584 C598 1.377 1_455 S
C585 C584 1.524 . S
C585 C586 1.397 . S
C585 C590 1.363 . S
C586 H563 0.950 . S
C586 C585 1.397 . S
C586 C587 1.334 . S
C587 H564 0.950 . S
C587 C586 1.334 . S
C587 C588 1.287 . S
C588 C587 1.287 . S
C588 C589 1.524 . S
C588 H607 0.913 . S
C589 H565 0.950 . S
C589 C588 1.524 . S
C589 C590 1.415 . S
C590 H566 0.950 . S
C590 C585 1.363 . S
C590 C589 1.415 . S
C591 H567 0.951 . S
C591 C592 1.366 . S
C591 C593 1.388 . S
C592 C591 1.366 . S
C592 C596 1.385 . S
C593 H568 0.951 . S
C593 C591 1.388 . S
C593 C594 1.366 . S
C594 C593 1.366 . S
C594 C595 1.414 . S
C594 C597 1.499 . S
C595 H569 0.950 . S
C595 C594 1.414 . S
C595 C596 1.374 . S
C596 H570 0.950 . S
C596 C592 1.385 . S
C596 C595 1.374 . S
C597 C594 1.499 . S
C597 C598 1.373 . S
C597 C599 1.389 . S
C598 H571 0.950 . S
C598 C584 1.377 1_655 S
C598 C597 1.373 . S
C599 C583 1.377 1_655 S
C599 C597 1.389 . S
C599 C600 1.524 . S
C600 C599 1.524 . S
C600 C601 1.397 . S
C600 C605 1.363 . S
C601 H572 0.950 . S
C601 C600 1.397 . S
C601 C602 1.334 . S
C602 H573 0.950 . S
C602 C601 1.334 . S
C602 C603 1.287 . S
C603 C602 1.287 . S
C603 C604 1.524 . S
C603 H606 0.999 . S
C604 H574 0.950 . S
C604 C603 1.524 . S
C604 C605 1.415 . S
C605 H575 0.950 1_655 S
C605 C600 1.363 . S
C605 C604 1.415 . S
H606 C603 0.999 . S
H607 C588 0.913 . S
H608 C626 0.951 . S
H609 C628 0.951 . S
H610 C630 0.950 . S
H611 C631 0.950 . S
H612 C633 0.950 . S
H613 C636 0.950 . S
H614 C637 0.950 . S
H615 C639 0.950 . S
H616 C640 0.950 . S
H617 C641 0.951 . S
H618 C643 0.951 . S
H619 C645 0.950 . S
H620 C646 0.950 . S
H621 C648 0.950 . S
H622 C651 0.950 1_455 S
H623 C652 0.950 . S
H624 C654 0.950 . S
H625 C655 0.950 . S
C626 H608 0.951 . S
C626 C627 1.366 . S
C626 C628 1.388 . S
C627 C626 1.366 . S
C627 C631 1.385 1_455 S
C628 H609 0.951 . S
C628 C626 1.388 . S
C628 C629 1.366 . S
C629 C628 1.366 . S
C629 C630 1.414 1_455 S
C629 C632 1.499 . S
C630 H610 0.950 . S
C630 C629 1.414 1_655 S
C630 C631 1.374 . S
C631 H611 0.950 . S
C631 C627 1.385 1_655 S
C631 C630 1.374 . S
C632 C629 1.499 . S
C632 C633 1.373 1_465 S
C632 C634 1.389 . S
C633 H612 0.950 . S
C633 C632 1.373 1_645 S
C633 C649 1.377 . S
C634 C632 1.389 . S
C634 C635 1.524 . S
C634 C648 1.377 . S
C635 C634 1.524 . S
C635 C636 1.397 . S
C635 C640 1.363 . S
C636 H613 0.950 . S
C636 C635 1.397 . S
C636 C637 1.334 . S
C637 H614 0.950 . S
C637 C636 1.334 . S
C637 C638 1.287 . S
C638 C637 1.287 . S
C638 C639 1.524 . S
C638 H657 0.913 . S
C639 H615 0.950 . S
C639 C638 1.524 . S
C639 C640 1.415 . S
C640 H616 0.950 . S
C640 C635 1.363 . S
C640 C639 1.415 . S
C641 H617 0.951 . S
C641 C642 1.366 1_655 S
C641 C643 1.388 . S
C642 C641 1.366 1_455 S
C642 C646 1.385 . S
C643 H618 0.951 . S
C643 C641 1.388 . S
C643 C644 1.366 1_655 S
C644 C643 1.366 1_455 S
C644 C645 1.414 . S
C644 C647 1.499 . S
C645 H619 0.950 . S
C645 C644 1.414 . S
C645 C646 1.374 . S
C646 H620 0.950 . S
C646 C642 1.385 . S
C646 C645 1.374 . S
C647 C644 1.499 . S
C647 C648 1.373 1_545 S
C647 C649 1.389 1_455 S
C648 H621 0.950 . S
C648 C634 1.377 . S
C648 C647 1.373 1_565 S
C649 C633 1.377 . S
C649 C647 1.389 1_655 S
C649 C650 1.524 . S
C650 C649 1.524 . S
C650 C651 1.397 . S
C650 C655 1.363 . S
C651 H622 0.950 1_655 S
C651 C650 1.397 . S
C651 C652 1.334 . S
C652 H623 0.950 . S
C652 C651 1.334 . S
C652 C653 1.287 . S
C653 C652 1.287 . S
C653 C654 1.524 . S
C653 H656 0.999 . S
C654 H624 0.950 . S
C654 C653 1.524 . S
C654 C655 1.415 . S
C655 H625 0.950 . S
C655 C650 1.363 . S
C655 C654 1.415 . S
H656 C653 0.999 . S
H657 C638 0.913 . S
H658 C676 0.951 . S
H659 C678 0.951 . S
H660 C680 0.950 . S
H661 C681 0.950 . S
H662 C683 0.950 . S
H663 C686 0.950 . S
H664 C687 0.950 . S
H665 C689 0.950 . S
H666 C690 0.950 . S
H667 C691 0.951 . S
H668 C693 0.951 . S
H669 C695 0.950 . S
H670 C696 0.950 . S
H671 C698 0.950 . S
H672 C701 0.950 . S
H673 C702 0.950 . S
H674 C704 0.950 . S
H675 C705 0.950 . S
C676 H658 0.951 . S
C676 C677 1.366 . S
C676 C678 1.388 . S
C677 C676 1.366 . S
C677 C681 1.385 . S
C678 H659 0.951 . S
C678 C676 1.388 . S
C678 C679 1.366 . S
C679 C678 1.366 . S
C679 C680 1.414 . S
C679 C682 1.499 . S
C680 H660 0.950 . S
C680 C679 1.414 . S
C680 C681 1.374 . S
C681 H661 0.950 . S
C681 C677 1.385 . S
C681 C680 1.374 . S
C682 C679 1.499 . S
C682 C683 1.373 . S
C682 C684 1.389 . S
C683 H662 0.950 . S
C683 C682 1.373 . S
C683 C699 1.377 . S
C684 C682 1.389 . S
C684 C685 1.524 . S
C684 C698 1.377 . S
C685 C684 1.524 . S
C685 C686 1.397 . S
C685 C690 1.363 . S
C686 H663 0.950 . S
C686 C685 1.397 . S
C686 C687 1.334 . S
C687 H664 0.950 . S
C687 C686 1.334 . S
C687 C688 1.287 . S
C688 C687 1.287 . S
C688 C689 1.524 . S
C688 H707 0.913 . S
C689 H665 0.950 . S
C689 C688 1.524 . S
C689 C690 1.415 . S
C690 H666 0.950 . S
C690 C685 1.363 . S
C690 C689 1.415 . S
C691 H667 0.951 . S
C691 C692 1.366 . S
C691 C693 1.388 . S
C692 C691 1.366 . S
C692 C696 1.385 . S
C693 H668 0.951 . S
C693 C691 1.388 . S
C693 C694 1.366 . S
C694 C693 1.366 . S
C694 C695 1.414 . S
C694 C697 1.499 . S
C695 H669 0.950 . S
C695 C694 1.414 . S
C695 C696 1.374 . S
C696 H670 0.950 . S
C696 C692 1.385 . S
C696 C695 1.374 . S
C697 C694 1.499 . S
C697 C698 1.373 . S
C697 C699 1.389 . S
C698 H671 0.950 . S
C698 C684 1.377 . S
C698 C697 1.373 . S
C699 C683 1.377 . S
C699 C697 1.389 . S
C699 C700 1.524 . S
C700 C699 1.524 . S
C700 C701 1.397 . S
C700 C705 1.363 . S
C701 H672 0.950 . S
C701 C700 1.397 . S
C701 C702 1.334 . S
C702 H673 0.950 . S
C702 C701 1.334 . S
C702 C703 1.287 . S
C703 C702 1.287 . S
C703 C704 1.524 . S
C703 H706 0.999 . S
C704 H674 0.950 . S
C704 C703 1.524 . S
C704 C705 1.415 . S
C705 H675 0.950 . S
C705 C700 1.363 . S
C705 C704 1.415 . S
H706 C703 0.999 . S
H707 C688 0.913 . S
H708 C726 0.951 . S
H709 C728 0.951 . S
H710 C730 0.950 . S
H711 C731 0.950 . S
H712 C733 0.950 . S
H713 C736 0.950 . S
H714 C737 0.950 . S
H715 C739 0.950 . S
H716 C740 0.961 . S
H717 C741 0.951 . S
H718 C743 0.951 . S
H719 C745 0.950 . S
H720 C746 0.950 . S
H721 C748 0.950 . S
H722 C751 0.950 . S
H723 C752 0.950 . S
H724 C754 0.950 . S
H725 C755 0.961 . S
C726 H708 0.951 . S
C726 C727 1.366 . S
C726 C728 1.388 . S
C727 C726 1.366 . S
C727 C731 1.385 1_565 S
C728 H709 0.951 . S
C728 C726 1.388 . S
C728 C729 1.366 . S
C729 C728 1.366 . S
C729 C730 1.414 1_565 S
C729 C732 1.499 . S
C730 H710 0.950 . S
C730 C729 1.414 1_545 S
C730 C731 1.374 . S
C731 H711 0.950 . S
C731 C727 1.385 1_545 S
C731 C730 1.374 . S
C732 C729 1.499 . S
C732 C733 1.373 1_565 S
C732 C734 1.389 . S
C733 H712 0.950 . S
C733 C732 1.373 1_545 S
C733 C749 1.377 1_554 S
C734 C732 1.389 . S
C734 C735 1.524 . S
C734 C748 1.377 1_554 S
C735 C734 1.524 . S
C735 C736 1.397 1_565 S
C735 C740 1.363 . S
C736 H713 0.950 . S
C736 C735 1.397 1_545 S
C736 C737 1.334 . S
C737 H714 0.950 . S
C737 C736 1.334 . S
C737 C738 1.287 1_545 S
C738 C737 1.287 1_565 S
C738 C739 1.524 . S
C738 H757 0.913 . S
C739 H715 0.950 . S
C739 C738 1.524 . S
C739 C740 1.415 . S
C740 H716 0.961 . S
C740 C735 1.363 . S
C740 C739 1.415 . S
C741 H717 0.951 . S
C741 C742 1.366 . S
C741 C743 1.388 . S
C742 C741 1.366 . S
C742 C746 1.385 1_545 S
C743 H718 0.951 . S
C743 C741 1.388 . S
C743 C744 1.366 . S
C744 C743 1.366 . S
C744 C745 1.414 1_545 S
C744 C747 1.499 . S
C745 H719 0.950 . S
C745 C744 1.414 1_565 S
C745 C746 1.374 . S
C746 H720 0.950 . S
C746 C742 1.385 1_565 S
C746 C745 1.374 . S
C747 C744 1.499 . S
C747 C748 1.373 1_545 S
C747 C749 1.389 . S
C748 H721 0.950 . S
C748 C734 1.377 1_556 S
C748 C747 1.373 1_565 S
C749 C733 1.377 1_556 S
C749 C747 1.389 . S
C749 C750 1.524 . S
C750 C749 1.524 . S
C750 C751 1.397 1_545 S
C750 C755 1.363 . S
C751 H722 0.950 . S
C751 C750 1.397 1_565 S
C751 C752 1.334 . S
C752 H723 0.950 . S
C752 C751 1.334 . S
C752 C753 1.287 1_565 S
C753 C752 1.287 1_545 S
C753 C754 1.524 . S
C753 H756 0.999 . S
C754 H724 0.950 . S
C754 C753 1.524 . S
C754 C755 1.415 . S
C755 H725 0.961 . S
C755 C750 1.363 . S
C755 C754 1.415 . S
H756 C753 0.999 . S
H757 C738 0.913 . S
H758 C776 0.951 . S
H759 C778 0.951 . S
H760 C780 0.950 . S
H761 C781 0.950 . S
H762 C783 0.950 . S
H763 C786 0.950 . S
H764 C787 0.950 . S
H765 C789 0.950 . S
H766 C790 0.950 . S
H767 C791 0.951 . S
H768 C793 0.951 . S
H769 C795 0.950 . S
H770 C796 0.950 . S
H771 C798 0.950 . S
H772 C801 0.950 . S
H773 C802 0.950 . S
H774 C804 0.950 . S
H775 C805 0.950 . S
C776 H758 0.951 . S
C776 C777 1.366 . S
C776 C778 1.388 . S
C777 C776 1.366 . S
C777 C781 1.385 . S
C778 H759 0.951 . S
C778 C776 1.388 . S
C778 C779 1.366 . S
C779 C778 1.366 . S
C779 C780 1.414 . S
C779 C782 1.499 . S
C780 H760 0.950 . S
C780 C779 1.414 . S
C780 C781 1.374 . S
C781 H761 0.950 . S
C781 C777 1.385 . S
C781 C780 1.374 . S
C782 C779 1.499 . S
C782 C783 1.373 . S
C782 C784 1.389 . S
C783 H762 0.950 . S
C783 C782 1.373 . S
C783 C799 1.377 . S
C784 C782 1.389 . S
C784 C785 1.524 . S
C784 C798 1.377 . S
C785 C784 1.524 . S
C785 C786 1.397 . S
C785 C790 1.363 . S
C786 H763 0.950 . S
C786 C785 1.397 . S
C786 C787 1.334 . S
C787 H764 0.950 . S
C787 C786 1.334 . S
C787 C788 1.287 . S
C788 C787 1.287 . S
C788 C789 1.524 . S
C788 H807 0.913 . S
C789 H765 0.950 . S
C789 C788 1.524 . S
C789 C790 1.415 . S
C790 H766 0.950 . S
C790 C785 1.363 . S
C790 C789 1.415 . S
C791 H767 0.951 . S
C791 C792 1.366 . S
C791 C793 1.388 . S
C792 C791 1.366 . S
C792 C796 1.385 . S
C793 H768 0.951 . S
C793 C791 1.388 . S
C793 C794 1.366 . S
C794 C793 1.366 . S
C794 C795 1.414 . S
C794 C797 1.499 . S
C795 H769 0.950 . S
C795 C794 1.414 . S
C795 C796 1.374 . S
C796 H770 0.950 . S
C796 C792 1.385 . S
C796 C795 1.374 . S
C797 C794 1.499 . S
C797 C798 1.373 . S
C797 C799 1.389 . S
C798 H771 0.950 . S
C798 C784 1.377 . S
C798 C797 1.373 . S
C799 C783 1.377 . S
C799 C797 1.389 . S
C799 C800 1.524 . S
C800 C799 1.524 . S
C800 C801 1.397 . S
C800 C805 1.363 . S
C801 H772 0.950 . S
C801 C800 1.397 . S
C801 C802 1.334 . S
C802 H773 0.950 . S
C802 C801 1.334 . S
C802 C803 1.287 . S
C803 C802 1.287 . S
C803 C804 1.524 . S
C803 H806 0.999 . S
C804 H774 0.950 . S
C804 C803 1.524 . S
C804 C805 1.415 . S
C805 H775 0.950 . S
C805 C800 1.363 . S
C805 C804 1.415 . S
H806 C803 0.999 . S
H807 C788 0.913 . S
H808 C826 0.951 . S
H809 C828 0.951 . S
H810 C830 0.950 . S
H811 C831 0.950 . S
H812 C833 0.950 . S
H813 C836 0.950 . S
H814 C837 0.950 . S
H815 C839 0.950 . S
H816 C840 0.950 . S
H817 C841 0.951 . S
H818 C843 0.951 . S
H819 C845 0.950 . S
H820 C846 0.950 . S
H821 C848 0.950 . S
H822 C851 0.950 . S
H823 C852 0.950 . S
H824 C854 0.950 . S
H825 C855 0.950 . S
C826 H808 0.951 . S
C826 C827 1.366 . S
C826 C828 1.388 . S
C827 C826 1.366 . S
C827 C831 1.385 . S
C828 H809 0.951 . S
C828 C826 1.388 . S
C828 C829 1.366 . S
C829 C828 1.366 . S
C829 C830 1.414 . S
C829 C832 1.499 . S
C830 H810 0.950 . S
C830 C829 1.414 . S
C830 C831 1.374 . S
C831 H811 0.950 . S
C831 C827 1.385 . S
C831 C830 1.374 . S
C832 C829 1.499 . S
C832 C833 1.373 . S
C832 C834 1.389 . S
C833 H812 0.950 . S
C833 C832 1.373 . S
C833 C849 1.377 . S
C834 C832 1.389 . S
C834 C835 1.524 . S
C834 C848 1.377 . S
C835 C834 1.524 . S
C835 C836 1.397 . S
C835 C840 1.363 . S
C836 H813 0.950 . S
C836 C835 1.397 . S
C836 C837 1.334 . S
C837 H814 0.950 . S
C837 C836 1.334 . S
C837 C838 1.287 . S
C838 C837 1.287 . S
C838 C839 1.524 . S
C838 H857 0.913 . S
C839 H815 0.950 . S
C839 C838 1.524 . S
C839 C840 1.415 . S
C840 H816 0.950 . S
C840 C835 1.363 . S
C840 C839 1.415 . S
C841 H817 0.951 . S
C841 C842 1.366 . S
C841 C843 1.388 . S
C842 C841 1.366 . S
C842 C846 1.385 . S
C843 H818 0.951 . S
C843 C841 1.388 . S
C843 C844 1.366 . S
C844 C843 1.366 . S
C844 C845 1.414 . S
C844 C847 1.499 . S
C845 H819 0.950 . S
C845 C844 1.414 . S
C845 C846 1.374 . S
C846 H820 0.950 . S
C846 C842 1.385 . S
C846 C845 1.374 . S
C847 C844 1.499 . S
C847 C848 1.373 . S
C847 C849 1.389 . S
C848 H821 0.950 . S
C848 C834 1.377 . S
C848 C847 1.373 . S
C849 C833 1.377 . S
C849 C847 1.389 . S
C849 C850 1.524 . S
C850 C849 1.524 . S
C850 C851 1.397 . S
C850 C855 1.363 . S
C851 H822 0.950 . S
C851 C850 1.397 . S
C851 C852 1.334 . S
C852 H823 0.950 . S
C852 C851 1.334 . S
C852 C853 1.287 . S
C853 C852 1.287 . S
C853 C854 1.524 . S
C853 H856 0.999 . S
C854 H824 0.950 . S
C854 C853 1.524 . S
C854 C855 1.415 . S
C855 H825 0.950 . S
C855 C850 1.363 . S
C855 C854 1.415 . S
H856 C853 0.999 . S
H857 C838 0.913 . S
H858 C876 0.951 . S
H859 C878 0.951 . S
H860 C880 0.950 . S
H861 C881 0.950 . S
H862 C883 0.950 . S
H863 C886 0.950 . S
H864 C887 0.950 . S
H865 C889 0.950 . S
H866 C890 0.950 . S
H867 C891 0.951 . S
H868 C893 0.951 . S
H869 C895 0.950 . S
H870 C896 0.950 . S
H871 C898 0.950 . S
H872 C901 0.950 . S
H873 C902 0.950 . S
H874 C904 0.950 . S
H875 C905 0.950 . S
C876 H858 0.951 . S
C876 C877 1.366 . S
C876 C878 1.388 . S
C877 C876 1.366 . S
C877 C881 1.385 . S
C878 H859 0.951 . S
C878 C876 1.388 . S
C878 C879 1.366 . S
C879 C878 1.366 . S
C879 C880 1.414 . S
C879 C882 1.499 . S
C880 H860 0.950 . S
C880 C879 1.414 . S
C880 C881 1.374 . S
C881 H861 0.950 . S
C881 C877 1.385 . S
C881 C880 1.374 . S
C882 C879 1.499 . S
C882 C883 1.373 . S
C882 C884 1.389 . S
C883 H862 0.950 . S
C883 C882 1.373 . S
C883 C899 1.377 . S
C884 C882 1.389 . S
C884 C885 1.524 . S
C884 C898 1.377 . S
C885 C884 1.524 . S
C885 C886 1.397 . S
C885 C890 1.363 . S
C886 H863 0.950 . S
C886 C885 1.397 . S
C886 C887 1.334 . S
C887 H864 0.950 . S
C887 C886 1.334 . S
C887 C888 1.287 . S
C888 C887 1.287 . S
C888 C889 1.524 . S
C888 H907 0.913 . S
C889 H865 0.950 . S
C889 C888 1.524 . S
C889 C890 1.415 . S
C890 H866 0.950 . S
C890 C885 1.363 . S
C890 C889 1.415 . S
C891 H867 0.951 . S
C891 C892 1.366 . S
C891 C893 1.388 . S
C892 C891 1.366 . S
C892 C896 1.385 . S
C893 H868 0.951 . S
C893 C891 1.388 . S
C893 C894 1.366 . S
C894 C893 1.366 . S
C894 C895 1.414 . S
C894 C897 1.499 . S
C895 H869 0.950 . S
C895 C894 1.414 . S
C895 C896 1.374 . S
C896 H870 0.950 . S
C896 C892 1.385 . S
C896 C895 1.374 . S
C897 C894 1.499 . S
C897 C898 1.373 . S
C897 C899 1.389 . S
C898 H871 0.950 . S
C898 C884 1.377 . S
C898 C897 1.373 . S
C899 C883 1.377 . S
C899 C897 1.389 . S
C899 C900 1.524 . S
C900 C899 1.524 . S
C900 C901 1.397 . S
C900 C905 1.363 . S
C901 H872 0.950 . S
C901 C900 1.397 . S
C901 C902 1.334 . S
C902 H873 0.950 . S
C902 C901 1.334 . S
C902 C903 1.287 . S
C903 C902 1.287 . S
C903 C904 1.524 . S
C903 H906 0.999 . S
C904 H874 0.950 . S
C904 C903 1.524 . S
C904 C905 1.415 . S
C905 H875 0.950 . S
C905 C900 1.363 . S
C905 C904 1.415 . S
H906 C903 0.999 . S
H907 C888 0.913 . S
H908 C926 0.951 . S
H909 C928 0.951 . S
H910 C930 0.950 . S
H911 C931 0.950 . S
H912 C933 0.950 . S
H913 C936 0.950 . S
H914 C937 0.950 . S
H915 C939 0.950 . S
H916 C940 0.950 1_554 S
H917 C941 0.951 . S
H918 C943 0.951 . S
H919 C945 0.950 . S
H920 C946 0.950 . S
H921 C948 0.950 . S
H922 C951 0.950 . S
H923 C952 0.950 . S
H924 C954 0.950 . S
H925 C955 0.950 1_556 S
C926 H908 0.951 . S
C926 C927 1.366 . S
C926 C928 1.388 . S
C927 C926 1.366 . S
C927 C931 1.385 . S
C928 H909 0.951 . S
C928 C926 1.388 . S
C928 C929 1.366 . S
C929 C928 1.366 . S
C929 C930 1.414 . S
C929 C932 1.499 . S
C930 H910 0.950 . S
C930 C929 1.414 . S
C930 C931 1.374 . S
C931 H911 0.950 . S
C931 C927 1.385 . S
C931 C930 1.374 . S
C932 C929 1.499 . S
C932 C933 1.373 . S
C932 C934 1.389 . S
C933 H912 0.950 . S
C933 C932 1.373 . S
C933 C949 1.377 1_556 S
C934 C932 1.389 . S
C934 C935 1.524 . S
C934 C948 1.377 1_556 S
C935 C934 1.524 . S
C935 C936 1.397 . S
C935 C940 1.363 . S
C936 H913 0.950 . S
C936 C935 1.397 . S
C936 C937 1.334 . S
C937 H914 0.950 . S
C937 C936 1.334 . S
C937 C938 1.287 . S
C938 C937 1.287 . S
C938 C939 1.524 . S
C938 H957 0.913 . S
C939 H915 0.950 . S
C939 C938 1.524 . S
C939 C940 1.415 . S
C940 H916 0.950 1_556 S
C940 C935 1.363 . S
C940 C939 1.415 . S
C941 H917 0.951 . S
C941 C942 1.366 . S
C941 C943 1.388 . S
C942 C941 1.366 . S
C942 C946 1.385 . S
C943 H918 0.951 . S
C943 C941 1.388 . S
C943 C944 1.366 . S
C944 C943 1.366 . S
C944 C945 1.414 . S
C944 C947 1.499 . S
C945 H919 0.950 . S
C945 C944 1.414 . S
C945 C946 1.374 . S
C946 H920 0.950 . S
C946 C942 1.385 . S
C946 C945 1.374 . S
C947 C944 1.499 . S
C947 C948 1.373 . S
C947 C949 1.389 . S
C948 H921 0.950 . S
C948 C934 1.377 1_554 S
C948 C947 1.373 . S
C949 C933 1.377 1_554 S
C949 C947 1.389 . S
C949 C950 1.524 . S
C950 C949 1.524 . S
C950 C951 1.397 . S
C950 C955 1.363 . S
C951 H922 0.950 . S
C951 C950 1.397 . S
C951 C952 1.334 . S
C952 H923 0.950 . S
C952 C951 1.334 . S
C952 C953 1.287 . S
C953 C952 1.287 . S
C953 C954 1.524 . S
C953 H956 0.999 . S
C954 H924 0.950 . S
C954 C953 1.524 . S
C954 C955 1.415 . S
C955 H925 0.950 1_554 S
C955 C950 1.363 . S
C955 C954 1.415 . S
H956 C953 0.999 . S
H957 C938 0.913 . S
H958 C976 0.951 1_655 S
H959 C978 0.937 1_655 S
H960 C980 0.950 . S
H961 C981 0.950 . S
H962 C983 0.950 . S
H963 C986 0.950 . S
H964 C987 0.950 . S
H965 C989 0.950 . S
H966 C990 0.950 . S
H967 C991 0.951 . S
H968 C993 0.951 . S
H969 C995 0.950 . S
H970 C996 0.965 . S
H971 C998 0.950 . S
H972 C1001 0.950 . S
H973 C1002 0.950 . S
H974 C1004 0.950 . S
H975 C1005 0.950 . S
C976 H958 0.951 1_455 S
C976 C977 1.365 . S
C976 C978 1.387 . S
C977 C976 1.365 . S
C977 C981 1.385 . S
C978 H959 0.937 1_455 S
C978 C976 1.387 . S
C978 C979 1.380 . S
C979 C978 1.380 . S
C979 C980 1.414 . S
C979 C982 1.499 . S
C980 H960 0.950 . S
C980 C979 1.414 . S
C980 C981 1.374 . S
C981 H961 0.950 . S
C981 C977 1.385 . S
C981 C980 1.374 . S
C982 C979 1.499 . S
C982 C983 1.373 . S
C982 C984 1.389 . S
C983 H962 0.950 . S
C983 C982 1.373 . S
C983 C999 1.377 . S
C984 C982 1.389 . S
C984 C985 1.524 . S
C984 C998 1.377 . S
C985 C984 1.524 . S
C985 C986 1.397 . S
C985 C990 1.363 . S
C986 H963 0.950 . S
C986 C985 1.397 . S
C986 C987 1.334 . S
C987 H964 0.950 . S
C987 C986 1.334 . S
C987 C988 1.287 . S
C988 C987 1.287 . S
C988 C989 1.524 . S
C988 H1007 0.913 . S
C989 H965 0.950 . S
C989 C988 1.524 . S
C989 C990 1.415 . S
C990 H966 0.950 . S
C990 C985 1.363 . S
C990 C989 1.415 . S
C991 H967 0.951 . S
C991 C992 1.366 . S
C991 C993 1.388 . S
C992 C991 1.366 . S
C992 C996 1.369 1_455 S
C993 H968 0.951 . S
C993 C991 1.388 . S
C993 C994 1.366 . S
C994 C993 1.366 . S
C994 C995 1.414 1_455 S
C994 C997 1.499 . S
C995 H969 0.950 . S
C995 C994 1.414 1_655 S
C995 C996 1.375 . S
C996 H970 0.965 . S
C996 C992 1.369 1_655 S
C996 C995 1.375 . S
C997 C994 1.499 . S
C997 C998 1.373 . S
C997 C999 1.389 . S
C998 H971 0.950 . S
C998 C984 1.377 . S
C998 C997 1.373 . S
C999 C983 1.377 . S
C999 C997 1.389 . S
C999 C1000 1.524 1_455 S
C1000 C999 1.524 1_655 S
C1000 C1001 1.397 . S
C1000 C1005 1.363 1_655 S
C1001 H972 0.950 . S
C1001 C1000 1.397 . S
C1001 C1002 1.334 . S
C1002 H973 0.950 . S
C1002 C1001 1.334 . S
C1002 C1003 1.287 . S
C1003 C1002 1.287 . S
C1003 C1004 1.524 1_655 S
C1003 H1006 0.999 . S
C1004 H974 0.950 . S
C1004 C1003 1.524 1_455 S
C1004 C1005 1.415 . S
C1005 H975 0.950 . S
C1005 C1000 1.363 1_455 S
C1005 C1004 1.415 . S
H1006 C1003 0.999 . S
H1007 C988 0.913 . S
H1008 C1026 0.951 . S
H1009 C1028 0.951 . S
H1010 C1030 0.950 . S
H1011 C1031 0.950 . S
H1012 C1033 0.950 . S
H1013 C1036 0.950 . S
H1014 C1037 0.950 . S
H1015 C1039 0.950 . S
H1016 C1040 0.950 . S
H1017 C1041 0.951 . S
H1018 C1043 0.951 . S
H1019 C1045 0.950 . S
H1020 C1046 0.950 . S
H1021 C1048 0.950 . S
H1022 C1051 0.950 . S
H1023 C1052 0.950 . S
H1024 C1054 0.950 . S
H1025 C1055 0.950 . S
C1026 H1008 0.951 . S
C1026 C1027 1.366 . S
C1026 C1028 1.388 . S
C1027 C1026 1.366 . S
C1027 C1031 1.385 . S
C1028 H1009 0.951 . S
C1028 C1026 1.388 . S
C1028 C1029 1.366 . S
C1029 C1028 1.366 . S
C1029 C1030 1.414 . S
C1029 C1032 1.499 . S
C1030 H1010 0.950 . S
C1030 C1029 1.414 . S
C1030 C1031 1.374 . S
C1031 H1011 0.950 . S
C1031 C1027 1.385 . S
C1031 C1030 1.374 . S
C1032 C1029 1.499 . S
C1032 C1033 1.373 . S
C1032 C1034 1.389 . S
C1033 H1012 0.950 . S
C1033 C1032 1.373 . S
C1033 C1049 1.377 . S
C1034 C1032 1.389 . S
C1034 C1035 1.524 . S
C1034 C1048 1.377 . S
C1035 C1034 1.524 . S
C1035 C1036 1.397 . S
C1035 C1040 1.363 . S
C1036 H1013 0.950 . S
C1036 C1035 1.397 . S
C1036 C1037 1.334 . S
C1037 H1014 0.950 . S
C1037 C1036 1.334 . S
C1037 C1038 1.287 . S
C1038 C1037 1.287 . S
C1038 C1039 1.524 . S
C1038 H1057 0.913 . S
C1039 H1015 0.950 . S
C1039 C1038 1.524 . S
C1039 C1040 1.415 . S
C1040 H1016 0.950 . S
C1040 C1035 1.363 . S
C1040 C1039 1.415 . S
C1041 H1017 0.951 . S
C1041 C1042 1.366 . S
C1041 C1043 1.388 . S
C1042 C1041 1.366 . S
C1042 C1046 1.385 . S
C1043 H1018 0.951 . S
C1043 C1041 1.388 . S
C1043 C1044 1.366 . S
C1044 C1043 1.366 . S
C1044 C1045 1.414 . S
C1044 C1047 1.499 . S
C1045 H1019 0.950 . S
C1045 C1044 1.414 . S
C1045 C1046 1.374 . S
C1046 H1020 0.950 . S
C1046 C1042 1.385 . S
C1046 C1045 1.374 . S
C1047 C1044 1.499 . S
C1047 C1048 1.373 . S
C1047 C1049 1.389 . S
C1048 H1021 0.950 . S
C1048 C1034 1.377 . S
C1048 C1047 1.373 . S
C1049 C1033 1.377 . S
C1049 C1047 1.389 . S
C1049 C1050 1.524 . S
C1050 C1049 1.524 . S
C1050 C1051 1.397 . S
C1050 C1055 1.363 . S
C1051 H1022 0.950 . S
C1051 C1050 1.397 . S
C1051 C1052 1.334 1_565 S
C1052 H1023 0.950 . S
C1052 C1051 1.334 1_545 S
C1052 C1053 1.287 1_545 S
C1053 C1052 1.287 1_565 S
C1053 C1054 1.524 . S
C1053 H1056 0.999 1_565 S
C1054 H1024 0.950 . S
C1054 C1053 1.524 . S
C1054 C1055 1.415 . S
C1055 H1025 0.950 . S
C1055 C1050 1.363 . S
C1055 C1054 1.415 . S
H1056 C1053 0.999 1_545 S
H1057 C1038 0.913 . S
H1058 C1076 0.951 . S
H1059 C1078 0.951 . S
H1060 C1080 0.950 . S
H1061 C1081 0.950 . S
H1062 C1083 0.950 . S
H1063 C1086 0.950 . S
H1064 C1087 0.950 . S
H1065 C1089 0.950 . S
H1066 C1090 0.950 . S
H1067 C1091 0.951 . S
H1068 C1093 0.951 . S
H1069 C1095 0.950 . S
H1070 C1096 0.950 1_545 S
H1071 C1098 0.950 . S
H1072 C1101 0.950 . S
H1073 C1102 0.950 . S
H1074 C1104 0.950 . S
H1075 C1105 0.950 . S
C1076 H1058 0.951 . S
C1076 C1077 1.366 . S
C1076 C1078 1.388 . S
C1077 C1076 1.366 . S
C1077 C1081 1.385 . S
C1078 H1059 0.951 . S
C1078 C1076 1.388 . S
C1078 C1079 1.366 . S
C1079 C1078 1.366 . S
C1079 C1080 1.414 . S
C1079 C1082 1.499 . S
C1080 H1060 0.950 . S
C1080 C1079 1.414 . S
C1080 C1081 1.374 . S
C1081 H1061 0.950 . S
C1081 C1077 1.385 . S
C1081 C1080 1.374 . S
C1082 C1079 1.499 . S
C1082 C1083 1.373 . S
C1082 C1084 1.389 . S
C1083 H1062 0.950 . S
C1083 C1082 1.373 . S
C1083 C1099 1.377 . S
C1084 C1082 1.389 . S
C1084 C1085 1.524 . S
C1084 C1098 1.377 . S
C1085 C1084 1.524 . S
C1085 C1086 1.397 . S
C1085 C1090 1.363 . S
C1086 H1063 0.950 . S
C1086 C1085 1.397 . S
C1086 C1087 1.334 . S
C1087 H1064 0.950 . S
C1087 C1086 1.334 . S
C1087 C1088 1.287 . S
C1088 C1087 1.287 . S
C1088 C1089 1.524 . S
C1088 H1107 0.913 . S
C1089 H1065 0.950 . S
C1089 C1088 1.524 . S
C1089 C1090 1.415 . S
C1090 H1066 0.950 . S
C1090 C1085 1.363 . S
C1090 C1089 1.415 . S
C1091 H1067 0.951 . S
C1091 C1092 1.366 . S
C1091 C1093 1.388 . S
C1092 C1091 1.366 . S
C1092 C1096 1.385 . S
C1093 H1068 0.951 . S
C1093 C1091 1.388 . S
C1093 C1094 1.366 . S
C1094 C1093 1.366 . S
C1094 C1095 1.414 . S
C1094 C1097 1.499 . S
C1095 H1069 0.950 . S
C1095 C1094 1.414 . S
C1095 C1096 1.374 . S
C1096 H1070 0.950 1_565 S
C1096 C1092 1.385 . S
C1096 C1095 1.374 . S
C1097 C1094 1.499 . S
C1097 C1098 1.373 . S
C1097 C1099 1.389 . S
C1098 H1071 0.950 . S
C1098 C1084 1.377 . S
C1098 C1097 1.373 . S
C1099 C1083 1.377 . S
C1099 C1097 1.389 . S
C1099 C1100 1.524 . S
C1100 C1099 1.524 . S
C1100 C1101 1.397 . S
C1100 C1105 1.363 . S
C1101 H1072 0.950 . S
C1101 C1100 1.397 . S
C1101 C1102 1.334 . S
C1102 H1073 0.950 . S
C1102 C1101 1.334 . S
C1102 C1103 1.287 . S
C1103 C1102 1.287 . S
C1103 C1104 1.524 . S
C1103 H1106 0.999 . S
C1104 H1074 0.950 . S
C1104 C1103 1.524 . S
C1104 C1105 1.415 . S
C1105 H1075 0.950 . S
C1105 C1100 1.363 . S
C1105 C1104 1.415 . S
H1106 C1103 0.999 . S
H1107 C1088 0.913 . S
H1108 C1126 0.951 1_565 S
H1109 C1128 0.951 . S
H1110 C1130 0.950 . S
H1111 C1131 0.950 . S
H1112 C1133 0.950 . S
H1113 C1136 0.950 . S
H1114 C1137 0.950 . S
H1115 C1139 0.950 . S
H1116 C1140 0.950 . S
H1117 C1141 0.951 . S
H1118 C1143 0.951 . S
H1119 C1145 0.950 . S
H1120 C1146 0.950 . S
H1121 C1148 0.950 . S
H1122 C1151 0.950 . S
H1123 C1152 0.950 . S
H1124 C1154 0.950 . S
H1125 C1155 0.950 . S
C1126 H1108 0.951 1_545 S
C1126 C1127 1.366 . S
C1126 C1128 1.388 . S
C1127 C1126 1.366 . S
C1127 C1131 1.385 . S
C1128 H1109 0.951 . S
C1128 C1126 1.388 . S
C1128 C1129 1.366 . S
C1129 C1128 1.366 . S
C1129 C1130 1.414 . S
C1129 C1132 1.499 . S
C1130 H1110 0.950 . S
C1130 C1129 1.414 . S
C1130 C1131 1.374 . S
C1131 H1111 0.950 . S
C1131 C1127 1.385 . S
C1131 C1130 1.374 . S
C1132 C1129 1.499 . S
C1132 C1133 1.373 . S
C1132 C1134 1.389 . S
C1133 H1112 0.950 . S
C1133 C1132 1.373 . S
C1133 C1149 1.377 . S
C1134 C1132 1.389 . S
C1134 C1135 1.524 . S
C1134 C1148 1.377 . S
C1135 C1134 1.524 . S
C1135 C1136 1.397 . S
C1135 C1140 1.363 . S
C1136 H1113 0.950 . S
C1136 C1135 1.397 . S
C1136 C1137 1.334 . S
C1137 H1114 0.950 . S
C1137 C1136 1.334 . S
C1137 C1138 1.287 . S
C1138 C1137 1.287 . S
C1138 C1139 1.524 . S
C1138 H1157 0.913 . S
C1139 H1115 0.950 . S
C1139 C1138 1.524 . S
C1139 C1140 1.415 . S
C1140 H1116 0.950 . S
C1140 C1135 1.363 . S
C1140 C1139 1.415 . S
C1141 H1117 0.951 . S
C1141 C1142 1.366 . S
C1141 C1143 1.388 . S
C1142 C1141 1.366 . S
C1142 C1146 1.385 . S
C1143 H1118 0.951 . S
C1143 C1141 1.388 . S
C1143 C1144 1.366 . S
C1144 C1143 1.366 . S
C1144 C1145 1.414 . S
C1144 C1147 1.499 . S
C1145 H1119 0.950 . S
C1145 C1144 1.414 . S
C1145 C1146 1.374 . S
C1146 H1120 0.950 . S
C1146 C1142 1.385 . S
C1146 C1145 1.374 . S
C1147 C1144 1.499 . S
C1147 C1148 1.373 . S
C1147 C1149 1.389 . S
C1148 H1121 0.950 . S
C1148 C1134 1.377 . S
C1148 C1147 1.373 . S
C1149 C1133 1.377 . S
C1149 C1147 1.389 . S
C1149 C1150 1.524 . S
C1150 C1149 1.524 . S
C1150 C1151 1.397 . S
C1150 C1155 1.363 . S
C1151 H1122 0.950 . S
C1151 C1150 1.397 . S
C1151 C1152 1.334 . S
C1152 H1123 0.950 . S
C1152 C1151 1.334 . S
C1152 C1153 1.287 . S
C1153 C1152 1.287 . S
C1153 C1154 1.524 . S
C1153 H1156 0.999 . S
C1154 H1124 0.950 . S
C1154 C1153 1.524 . S
C1154 C1155 1.415 . S
C1155 H1125 0.950 . S
C1155 C1150 1.363 . S
C1155 C1154 1.415 . S
H1156 C1153 0.999 . S
H1157 C1138 0.913 . S
H1158 C1176 0.951 1_565 S
H1159 C1178 0.951 . S
H1160 C1180 0.950 . S
H1161 C1181 0.950 . S
H1162 C1183 0.950 . S
H1163 C1186 0.950 . S
H1164 C1187 0.950 . S
H1165 C1189 0.950 . S
H1166 C1190 0.950 . S
H1167 C1191 0.951 . S
H1168 C1193 0.951 . S
H1169 C1195 0.950 . S
H1170 C1196 0.950 . S
H1171 C1198 0.950 . S
H1172 C1201 0.950 . S
H1173 C1202 0.950 . S
H1174 C1204 0.950 . S
H1175 C1205 0.950 . S
C1176 H1158 0.951 1_545 S
C1176 C1177 1.366 . S
C1176 C1178 1.388 . S
C1177 C1176 1.366 . S
C1177 C1181 1.385 . S
C1178 H1159 0.951 . S
C1178 C1176 1.388 . S
C1178 C1179 1.366 . S
C1179 C1178 1.366 . S
C1179 C1180 1.414 . S
C1179 C1182 1.499 . S
C1180 H1160 0.950 . S
C1180 C1179 1.414 . S
C1180 C1181 1.374 . S
C1181 H1161 0.950 . S
C1181 C1177 1.385 . S
C1181 C1180 1.374 . S
C1182 C1179 1.499 . S
C1182 C1183 1.373 . S
C1182 C1184 1.389 . S
C1183 H1162 0.950 . S
C1183 C1182 1.373 . S
C1183 C1199 1.377 . S
C1184 C1182 1.389 . S
C1184 C1185 1.524 . S
C1184 C1198 1.377 . S
C1185 C1184 1.524 . S
C1185 C1186 1.397 . S
C1185 C1190 1.363 . S
C1186 H1163 0.950 . S
C1186 C1185 1.397 . S
C1186 C1187 1.334 . S
C1187 H1164 0.950 . S
C1187 C1186 1.334 . S
C1187 C1188 1.287 . S
C1188 C1187 1.287 . S
C1188 C1189 1.524 . S
C1188 H1207 0.913 . S
C1189 H1165 0.950 . S
C1189 C1188 1.524 . S
C1189 C1190 1.415 . S
C1190 H1166 0.950 . S
C1190 C1185 1.363 . S
C1190 C1189 1.415 . S
C1191 H1167 0.951 . S
C1191 C1192 1.366 . S
C1191 C1193 1.388 . S
C1192 C1191 1.366 . S
C1192 C1196 1.385 . S
C1193 H1168 0.951 . S
C1193 C1191 1.388 . S
C1193 C1194 1.366 . S
C1194 C1193 1.366 . S
C1194 C1195 1.414 . S
C1194 C1197 1.499 . S
C1195 H1169 0.950 . S
C1195 C1194 1.414 . S
C1195 C1196 1.374 . S
C1196 H1170 0.950 . S
C1196 C1192 1.385 . S
C1196 C1195 1.374 . S
C1197 C1194 1.499 . S
C1197 C1198 1.373 . S
C1197 C1199 1.389 . S
C1198 H1171 0.950 . S
C1198 C1184 1.377 . S
C1198 C1197 1.373 . S
C1199 C1183 1.377 . S
C1199 C1197 1.389 . S
C1199 C1200 1.524 . S
C1200 C1199 1.524 . S
C1200 C1201 1.397 . S
C1200 C1205 1.363 . S
C1201 H1172 0.950 . S
C1201 C1200 1.397 . S
C1201 C1202 1.334 . S
C1202 H1173 0.950 . S
C1202 C1201 1.334 . S
C1202 C1203 1.287 . S
C1203 C1202 1.287 . S
C1203 C1204 1.524 . S
C1203 H1206 0.999 . S
C1204 H1174 0.950 . S
C1204 C1203 1.524 . S
C1204 C1205 1.415 . S
C1205 H1175 0.950 . S
C1205 C1200 1.363 . S
C1205 C1204 1.415 . S
H1206 C1203 0.999 . S
H1207 C1188 0.913 . S
H1208 C1226 0.951 1_565 S
H1209 C1228 0.951 . S
H1210 C1230 0.950 . S
H1211 C1231 0.950 . S
H1212 C1233 0.950 . S
H1213 C1236 0.950 . S
H1214 C1237 0.950 . S
H1215 C1239 0.950 . S
H1216 C1240 0.950 . S
H1217 C1241 0.951 . S
H1218 C1243 0.951 . S
H1219 C1245 0.950 . S
H1220 C1246 0.950 . S
H1221 C1248 0.950 . S
H1222 C1251 0.950 . S
H1223 C1252 0.950 . S
H1224 C1254 0.950 . S
H1225 C1255 0.950 . S
C1226 H1208 0.951 1_545 S
C1226 C1227 1.366 . S
C1226 C1228 1.388 . S
C1227 C1226 1.366 . S
C1227 C1231 1.385 . S
C1228 H1209 0.951 . S
C1228 C1226 1.388 . S
C1228 C1229 1.366 . S
C1229 C1228 1.366 . S
C1229 C1230 1.414 . S
C1229 C1232 1.499 . S
C1230 H1210 0.950 . S
C1230 C1229 1.414 . S
C1230 C1231 1.374 . S
C1231 H1211 0.950 . S
C1231 C1227 1.385 . S
C1231 C1230 1.374 . S
C1232 C1229 1.499 . S
C1232 C1233 1.373 . S
C1232 C1234 1.389 . S
C1233 H1212 0.950 . S
C1233 C1232 1.373 . S
C1233 C1249 1.377 . S
C1234 C1232 1.389 . S
C1234 C1235 1.524 . S
C1234 C1248 1.377 . S
C1235 C1234 1.524 . S
C1235 C1236 1.397 . S
C1235 C1240 1.363 . S
C1236 H1213 0.950 . S
C1236 C1235 1.397 . S
C1236 C1237 1.334 . S
C1237 H1214 0.950 . S
C1237 C1236 1.334 . S
C1237 C1238 1.287 . S
C1238 C1237 1.287 . S
C1238 C1239 1.524 . S
C1238 H1257 0.913 . S
C1239 H1215 0.950 . S
C1239 C1238 1.524 . S
C1239 C1240 1.415 . S
C1240 H1216 0.950 . S
C1240 C1235 1.363 . S
C1240 C1239 1.415 . S
C1241 H1217 0.951 . S
C1241 C1242 1.366 . S
C1241 C1243 1.388 . S
C1242 C1241 1.366 . S
C1242 C1246 1.385 . S
C1243 H1218 0.951 . S
C1243 C1241 1.388 . S
C1243 C1244 1.366 . S
C1244 C1243 1.366 . S
C1244 C1245 1.414 . S
C1244 C1247 1.499 . S
C1245 H1219 0.950 . S
C1245 C1244 1.414 . S
C1245 C1246 1.374 . S
C1246 H1220 0.950 . S
C1246 C1242 1.385 . S
C1246 C1245 1.374 . S
C1247 C1244 1.499 . S
C1247 C1248 1.373 . S
C1247 C1249 1.389 . S
C1248 H1221 0.950 . S
C1248 C1234 1.377 . S
C1248 C1247 1.373 . S
C1249 C1233 1.377 . S
C1249 C1247 1.389 . S
C1249 C1250 1.524 . S
C1250 C1249 1.524 . S
C1250 C1251 1.397 . S
C1250 C1255 1.363 . S
C1251 H1222 0.950 . S
C1251 C1250 1.397 . S
C1251 C1252 1.334 . S
C1252 H1223 0.950 . S
C1252 C1251 1.334 . S
C1252 C1253 1.287 . S
C1253 C1252 1.287 . S
C1253 C1254 1.524 . S
C1253 H1256 0.999 . S
C1254 H1224 0.950 . S
C1254 C1253 1.524 . S
C1254 C1255 1.415 . S
C1255 H1225 0.950 . S
C1255 C1250 1.363 . S
C1255 C1254 1.415 . S
H1256 C1253 0.999 . S
H1257 C1238 0.913 . S
H1258 C1276 0.951 1_565 S
H1259 C1278 0.951 . S
H1260 C1280 0.950 . S
H1261 C1281 0.950 . S
H1262 C1283 0.950 . S
H1263 C1286 0.950 . S
H1264 C1287 0.950 . S
H1265 C1289 0.950 . S
H1266 C1290 0.950 . S
H1267 C1291 0.951 . S
H1268 C1293 0.951 . S
H1269 C1295 0.950 . S
H1270 C1296 0.950 . S
H1271 C1298 0.950 . S
H1272 C1301 0.950 . S
H1273 C1302 0.950 . S
H1274 C1304 0.950 . S
H1275 C1305 0.950 . S
C1276 H1258 0.951 1_545 S
C1276 C1277 1.366 . S
C1276 C1278 1.388 . S
C1277 C1276 1.366 . S
C1277 C1281 1.385 . S
C1278 H1259 0.951 . S
C1278 C1276 1.388 . S
C1278 C1279 1.366 . S
C1279 C1278 1.366 . S
C1279 C1280 1.414 . S
C1279 C1282 1.499 . S
C1280 H1260 0.950 . S
C1280 C1279 1.414 . S
C1280 C1281 1.374 . S
C1281 H1261 0.950 . S
C1281 C1277 1.385 . S
C1281 C1280 1.374 . S
C1282 C1279 1.499 . S
C1282 C1283 1.373 . S
C1282 C1284 1.389 . S
C1283 H1262 0.950 . S
C1283 C1282 1.373 . S
C1283 C1299 1.377 . S
C1284 C1282 1.389 . S
C1284 C1285 1.524 . S
C1284 C1298 1.377 . S
C1285 C1284 1.524 . S
C1285 C1286 1.397 . S
C1285 C1290 1.363 . S
C1286 H1263 0.950 . S
C1286 C1285 1.397 . S
C1286 C1287 1.334 1_545 S
C1287 H1264 0.950 . S
C1287 C1286 1.334 1_565 S
C1287 C1288 1.287 . S
C1288 C1287 1.287 . S
C1288 C1289 1.524 . S
C1288 H1307 0.913 . S
C1289 H1265 0.950 . S
C1289 C1288 1.524 . S
C1289 C1290 1.415 1_565 S
C1290 H1266 0.950 . S
C1290 C1285 1.363 . S
C1290 C1289 1.415 1_545 S
C1291 H1267 0.951 . S
C1291 C1292 1.366 . S
C1291 C1293 1.388 . S
C1292 C1291 1.366 . S
C1292 C1296 1.385 . S
C1293 H1268 0.951 . S
C1293 C1291 1.388 . S
C1293 C1294 1.366 . S
C1294 C1293 1.366 . S
C1294 C1295 1.414 . S
C1294 C1297 1.499 . S
C1295 H1269 0.950 . S
C1295 C1294 1.414 . S
C1295 C1296 1.374 . S
C1296 H1270 0.950 . S
C1296 C1292 1.385 . S
C1296 C1295 1.374 . S
C1297 C1294 1.499 . S
C1297 C1298 1.373 . S
C1297 C1299 1.389 . S
C1298 H1271 0.950 . S
C1298 C1284 1.377 . S
C1298 C1297 1.373 . S
C1299 C1283 1.377 . S
C1299 C1297 1.389 . S
C1299 C1300 1.524 . S
C1300 C1299 1.524 . S
C1300 C1301 1.397 . S
C1300 C1305 1.363 . S
C1301 H1272 0.950 . S
C1301 C1300 1.397 . S
C1301 C1302 1.334 . S
C1302 H1273 0.950 . S
C1302 C1301 1.334 . S
C1302 C1303 1.287 . S
C1303 C1302 1.287 . S
C1303 C1304 1.524 . S
C1303 H1306 0.999 . S
C1304 H1274 0.950 . S
C1304 C1303 1.524 . S
C1304 C1305 1.415 . S
C1305 H1275 0.950 . S
C1305 C1300 1.363 . S
C1305 C1304 1.415 . S
H1306 C1303 0.999 . S
H1307 C1288 0.913 . S
H1308 C1326 0.951 . S
H1309 C1328 0.951 . S
H1310 C1330 0.950 . S
H1311 C1331 0.950 . S
H1312 C1333 0.950 . S
H1313 C1336 0.950 . S
H1314 C1337 0.950 . S
H1315 C1339 0.950 . S
H1316 C1340 0.950 . S
H1317 C1341 0.951 . S
H1318 C1343 0.951 . S
H1319 C1345 0.950 . S
H1320 C1346 0.950 . S
H1321 C1348 0.950 . S
H1322 C1351 0.950 . S
H1323 C1352 0.950 . S
H1324 C1354 0.950 . S
H1325 C1355 0.950 . S
C1326 H1308 0.951 . S
C1326 C1327 1.366 . S
C1326 C1328 1.388 . S
C1327 C1326 1.366 . S
C1327 C1331 1.385 . S
C1328 H1309 0.951 . S
C1328 C1326 1.388 . S
C1328 C1329 1.366 . S
C1329 C1328 1.366 . S
C1329 C1330 1.414 . S
C1329 C1332 1.499 . S
C1330 H1310 0.950 . S
C1330 C1329 1.414 . S
C1330 C1331 1.374 . S
C1331 H1311 0.950 . S
C1331 C1327 1.385 . S
C1331 C1330 1.374 . S
C1332 C1329 1.499 . S
C1332 C1333 1.373 . S
C1332 C1334 1.389 . S
C1333 H1312 0.950 . S
C1333 C1332 1.373 . S
C1333 C1349 1.377 . S
C1334 C1332 1.389 . S
C1334 C1335 1.524 . S
C1334 C1348 1.377 . S
C1335 C1334 1.524 . S
C1335 C1336 1.397 . S
C1335 C1340 1.363 . S
C1336 H1313 0.950 . S
C1336 C1335 1.397 . S
C1336 C1337 1.334 . S
C1337 H1314 0.950 . S
C1337 C1336 1.334 . S
C1337 C1338 1.287 . S
C1338 C1337 1.287 . S
C1338 C1339 1.524 . S
C1338 H1357 0.913 . S
C1339 H1315 0.950 . S
C1339 C1338 1.524 . S
C1339 C1340 1.415 . S
C1340 H1316 0.950 . S
C1340 C1335 1.363 . S
C1340 C1339 1.415 . S
C1341 H1317 0.951 . S
C1341 C1342 1.366 . S
C1341 C1343 1.388 . S
C1342 C1341 1.366 . S
C1342 C1346 1.385 . S
C1343 H1318 0.951 . S
C1343 C1341 1.388 . S
C1343 C1344 1.366 . S
C1344 C1343 1.366 . S
C1344 C1345 1.414 . S
C1344 C1347 1.499 . S
C1345 H1319 0.950 . S
C1345 C1344 1.414 . S
C1345 C1346 1.374 . S
C1346 H1320 0.950 . S
C1346 C1342 1.385 . S
C1346 C1345 1.374 . S
C1347 C1344 1.499 . S
C1347 C1348 1.373 . S
C1347 C1349 1.389 . S
C1348 H1321 0.950 . S
C1348 C1334 1.377 . S
C1348 C1347 1.373 . S
C1349 C1333 1.377 . S
C1349 C1347 1.389 . S
C1349 C1350 1.524 . S
C1350 C1349 1.524 . S
C1350 C1351 1.397 . S
C1350 C1355 1.363 . S
C1351 H1322 0.950 . S
C1351 C1350 1.397 . S
C1351 C1352 1.334 1_565 S
C1352 H1323 0.950 . S
C1352 C1351 1.334 1_545 S
C1352 C1353 1.287 1_545 S
C1353 C1352 1.287 1_565 S
C1353 C1354 1.524 . S
C1353 H1356 0.999 1_565 S
C1354 H1324 0.950 . S
C1354 C1353 1.524 . S
C1354 C1355 1.415 . S
C1355 H1325 0.950 . S
C1355 C1350 1.363 . S
C1355 C1354 1.415 . S
H1356 C1353 0.999 1_545 S
H1357 C1338 0.913 . S
H1358 C1376 0.951 . S
H1359 C1378 0.951 . S
H1360 C1380 0.950 . S
H1361 C1381 0.950 . S
H1362 C1383 0.950 . S
H1363 C1386 0.950 . S
H1364 C1387 0.950 . S
H1365 C1389 0.950 . S
H1366 C1390 0.950 . S
H1367 C1391 0.951 . S
H1368 C1393 0.951 . S
H1369 C1395 0.950 . S
H1370 C1396 0.950 1_545 S
H1371 C1398 0.950 . S
H1372 C1401 0.950 . S
H1373 C1402 0.950 . S
H1374 C1404 0.950 . S
H1375 C1405 0.950 . S
C1376 H1358 0.951 . S
C1376 C1377 1.366 . S
C1376 C1378 1.388 . S
C1377 C1376 1.366 . S
C1377 C1381 1.385 . S
C1378 H1359 0.951 . S
C1378 C1376 1.388 . S
C1378 C1379 1.366 . S
C1379 C1378 1.366 . S
C1379 C1380 1.414 . S
C1379 C1382 1.499 . S
C1380 H1360 0.950 . S
C1380 C1379 1.414 . S
C1380 C1381 1.374 . S
C1381 H1361 0.950 . S
C1381 C1377 1.385 . S
C1381 C1380 1.374 . S
C1382 C1379 1.499 . S
C1382 C1383 1.373 . S
C1382 C1384 1.389 . S
C1383 H1362 0.950 . S
C1383 C1382 1.373 . S
C1383 C1399 1.377 . S
C1384 C1382 1.389 . S
C1384 C1385 1.524 . S
C1384 C1398 1.377 . S
C1385 C1384 1.524 . S
C1385 C1386 1.397 . S
C1385 C1390 1.363 . S
C1386 H1363 0.950 . S
C1386 C1385 1.397 . S
C1386 C1387 1.334 . S
C1387 H1364 0.950 . S
C1387 C1386 1.334 . S
C1387 C1388 1.287 . S
C1388 C1387 1.287 . S
C1388 C1389 1.524 . S
C1388 H1407 0.913 . S
C1389 H1365 0.950 . S
C1389 C1388 1.524 . S
C1389 C1390 1.415 . S
C1390 H1366 0.950 . S
C1390 C1385 1.363 . S
C1390 C1389 1.415 . S
C1391 H1367 0.951 . S
C1391 C1392 1.366 . S
C1391 C1393 1.388 . S
C1392 C1391 1.366 . S
C1392 C1396 1.385 . S
C1393 H1368 0.951 . S
C1393 C1391 1.388 . S
C1393 C1394 1.366 . S
C1394 C1393 1.366 . S
C1394 C1395 1.414 . S
C1394 C1397 1.499 . S
C1395 H1369 0.950 . S
C1395 C1394 1.414 . S
C1395 C1396 1.374 . S
C1396 H1370 0.950 1_565 S
C1396 C1392 1.385 . S
C1396 C1395 1.374 . S
C1397 C1394 1.499 . S
C1397 C1398 1.373 . S
C1397 C1399 1.389 . S
C1398 H1371 0.950 . S
C1398 C1384 1.377 . S
C1398 C1397 1.373 . S
C1399 C1383 1.377 . S
C1399 C1397 1.389 . S
C1399 C1400 1.524 . S
C1400 C1399 1.524 . S
C1400 C1401 1.397 . S
C1400 C1405 1.363 . S
C1401 H1372 0.950 . S
C1401 C1400 1.397 . S
C1401 C1402 1.334 . S
C1402 H1373 0.950 . S
C1402 C1401 1.334 . S
C1402 C1403 1.287 . S
C1403 C1402 1.287 . S
C1403 C1404 1.524 . S
C1403 H1406 0.999 . S
C1404 H1374 0.950 . S
C1404 C1403 1.524 . S
C1404 C1405 1.415 . S
C1405 H1375 0.950 . S
C1405 C1400 1.363 . S
C1405 C1404 1.415 . S
H1406 C1403 0.999 . S
H1407 C1388 0.913 . S
H1408 C1426 0.951 . S
H1409 C1428 0.951 . S
H1410 C1430 0.950 . S
H1411 C1431 0.950 . S
H1412 C1433 0.950 . S
H1413 C1436 0.950 . S
H1414 C1437 0.950 . S
H1415 C1439 0.950 . S
H1416 C1440 0.950 . S
H1417 C1441 0.951 . S
H1418 C1443 0.951 . S
H1419 C1445 0.950 . S
H1420 C1446 0.950 . S
H1421 C1448 0.950 . S
H1422 C1451 0.950 . S
H1423 C1452 0.950 . S
H1424 C1454 0.950 . S
H1425 C1455 0.950 . S
C1426 H1408 0.951 . S
C1426 C1427 1.366 . S
C1426 C1428 1.388 . S
C1427 C1426 1.366 . S
C1427 C1431 1.385 . S
C1428 H1409 0.951 . S
C1428 C1426 1.388 . S
C1428 C1429 1.366 . S
C1429 C1428 1.366 . S
C1429 C1430 1.414 . S
C1429 C1432 1.499 . S
C1430 H1410 0.950 . S
C1430 C1429 1.414 . S
C1430 C1431 1.374 . S
C1431 H1411 0.950 . S
C1431 C1427 1.385 . S
C1431 C1430 1.374 . S
C1432 C1429 1.499 . S
C1432 C1433 1.373 . S
C1432 C1434 1.389 . S
C1433 H1412 0.950 . S
C1433 C1432 1.373 . S
C1433 C1449 1.377 . S
C1434 C1432 1.389 . S
C1434 C1435 1.524 . S
C1434 C1448 1.377 . S
C1435 C1434 1.524 . S
C1435 C1436 1.397 . S
C1435 C1440 1.363 . S
C1436 H1413 0.950 . S
C1436 C1435 1.397 . S
C1436 C1437 1.334 . S
C1437 H1414 0.950 . S
C1437 C1436 1.334 . S
C1437 C1438 1.287 . S
C1438 C1437 1.287 . S
C1438 C1439 1.524 . S
C1438 H1457 0.913 . S
C1439 H1415 0.950 . S
C1439 C1438 1.524 . S
C1439 C1440 1.415 . S
C1440 H1416 0.950 . S
C1440 C1435 1.363 . S
C1440 C1439 1.415 . S
C1441 H1417 0.951 . S
C1441 C1442 1.366 . S
C1441 C1443 1.388 . S
C1442 C1441 1.366 . S
C1442 C1446 1.385 . S
C1443 H1418 0.951 . S
C1443 C1441 1.388 . S
C1443 C1444 1.366 . S
C1444 C1443 1.366 . S
C1444 C1445 1.414 . S
C1444 C1447 1.499 . S
C1445 H1419 0.950 . S
C1445 C1444 1.414 . S
C1445 C1446 1.374 . S
C1446 H1420 0.950 . S
C1446 C1442 1.385 . S
C1446 C1445 1.374 . S
C1447 C1444 1.499 . S
C1447 C1448 1.373 . S
C1447 C1449 1.389 . S
C1448 H1421 0.950 . S
C1448 C1434 1.377 . S
C1448 C1447 1.373 . S
C1449 C1433 1.377 . S
C1449 C1447 1.389 . S
C1449 C1450 1.524 . S
C1450 C1449 1.524 . S
C1450 C1451 1.397 . S
C1450 C1455 1.363 . S
C1451 H1422 0.950 . S
C1451 C1450 1.397 . S
C1451 C1452 1.334 . S
C1452 H1423 0.950 . S
C1452 C1451 1.334 . S
C1452 C1453 1.287 . S
C1453 C1452 1.287 . S
C1453 C1454 1.524 . S
C1453 H1456 0.999 . S
C1454 H1424 0.950 . S
C1454 C1453 1.524 . S
C1454 C1455 1.415 . S
C1455 H1425 0.950 . S
C1455 C1450 1.363 . S
C1455 C1454 1.415 . S
H1456 C1453 0.999 . S
H1457 C1438 0.913 . S
H1458 C1476 0.951 . S
H1459 C1478 0.951 . S
H1460 C1480 0.950 . S
H1461 C1481 0.950 . S
H1462 C1483 0.950 . S
H1463 C1486 0.950 . S
H1464 C1487 0.950 . S
H1465 C1489 0.950 . S
H1466 C1490 0.950 . S
H1467 C1491 0.951 . S
H1468 C1493 0.951 . S
H1469 C1495 0.950 . S
H1470 C1496 0.950 . S
H1471 C1498 0.950 . S
H1472 C1501 0.950 . S
H1473 C1502 0.950 . S
H1474 C1504 0.950 . S
H1475 C1505 0.950 . S
C1476 H1458 0.951 . S
C1476 C1477 1.366 . S
C1476 C1478 1.388 . S
C1477 C1476 1.366 . S
C1477 C1481 1.385 . S
C1478 H1459 0.951 . S
C1478 C1476 1.388 . S
C1478 C1479 1.366 . S
C1479 C1478 1.366 . S
C1479 C1480 1.414 . S
C1479 C1482 1.499 . S
C1480 H1460 0.950 . S
C1480 C1479 1.414 . S
C1480 C1481 1.374 . S
C1481 H1461 0.950 . S
C1481 C1477 1.385 . S
C1481 C1480 1.374 . S
C1482 C1479 1.499 . S
C1482 C1483 1.373 . S
C1482 C1484 1.389 . S
C1483 H1462 0.950 . S
C1483 C1482 1.373 . S
C1483 C1499 1.377 . S
C1484 C1482 1.389 . S
C1484 C1485 1.524 . S
C1484 C1498 1.377 . S
C1485 C1484 1.524 . S
C1485 C1486 1.397 . S
C1485 C1490 1.363 . S
C1486 H1463 0.950 . S
C1486 C1485 1.397 . S
C1486 C1487 1.334 . S
C1487 H1464 0.950 . S
C1487 C1486 1.334 . S
C1487 C1488 1.287 . S
C1488 C1487 1.287 . S
C1488 C1489 1.524 . S
C1488 H1507 0.913 . S
C1489 H1465 0.950 . S
C1489 C1488 1.524 . S
C1489 C1490 1.415 . S
C1490 H1466 0.950 . S
C1490 C1485 1.363 . S
C1490 C1489 1.415 . S
C1491 H1467 0.951 . S
C1491 C1492 1.366 . S
C1491 C1493 1.388 . S
C1492 C1491 1.366 . S
C1492 C1496 1.385 . S
C1493 H1468 0.951 . S
C1493 C1491 1.388 . S
C1493 C1494 1.366 . S
C1494 C1493 1.366 . S
C1494 C1495 1.414 . S
C1494 C1497 1.499 . S
C1495 H1469 0.950 . S
C1495 C1494 1.414 . S
C1495 C1496 1.374 . S
C1496 H1470 0.950 . S
C1496 C1492 1.385 . S
C1496 C1495 1.374 . S
C1497 C1494 1.499 . S
C1497 C1498 1.373 . S
C1497 C1499 1.389 . S
C1498 H1471 0.950 . S
C1498 C1484 1.377 . S
C1498 C1497 1.373 . S
C1499 C1483 1.377 . S
C1499 C1497 1.389 . S
C1499 C1500 1.524 . S
C1500 C1499 1.524 . S
C1500 C1501 1.397 . S
C1500 C1505 1.363 . S
C1501 H1472 0.950 . S
C1501 C1500 1.397 . S
C1501 C1502 1.334 . S
C1502 H1473 0.950 . S
C1502 C1501 1.334 . S
C1502 C1503 1.287 . S
C1503 C1502 1.287 . S
C1503 C1504 1.524 . S
C1503 H1506 0.999 . S
C1504 H1474 0.950 . S
C1504 C1503 1.524 . S
C1504 C1505 1.415 . S
C1505 H1475 0.950 . S
C1505 C1500 1.363 . S
C1505 C1504 1.415 . S
H1506 C1503 0.999 . S
H1507 C1488 0.913 . S
H1508 C1526 0.951 . S
H1509 C1528 0.951 . S
H1510 C1530 0.950 . S
H1511 C1531 0.950 . S
H1512 C1533 0.950 . S
H1513 C1536 0.950 . S
H1514 C1537 0.950 . S
H1515 C1539 0.950 . S
H1516 C1540 0.950 . S
H1517 C1541 0.951 . S
H1518 C1543 0.951 . S
H1519 C1545 0.950 . S
H1520 C1546 0.950 . S
H1521 C1548 0.950 . S
H1522 C1551 0.950 . S
H1523 C1552 0.950 . S
H1524 C1554 0.950 . S
H1525 C1555 0.950 . S
C1526 H1508 0.951 . S
C1526 C1527 1.366 . S
C1526 C1528 1.388 . S
C1527 C1526 1.366 . S
C1527 C1531 1.385 . S
C1528 H1509 0.951 . S
C1528 C1526 1.388 . S
C1528 C1529 1.366 . S
C1529 C1528 1.366 . S
C1529 C1530 1.414 . S
C1529 C1532 1.499 . S
C1530 H1510 0.950 . S
C1530 C1529 1.414 . S
C1530 C1531 1.374 . S
C1531 H1511 0.950 . S
C1531 C1527 1.385 . S
C1531 C1530 1.374 . S
C1532 C1529 1.499 . S
C1532 C1533 1.373 . S
C1532 C1534 1.389 . S
C1533 H1512 0.950 . S
C1533 C1532 1.373 . S
C1533 C1549 1.377 . S
C1534 C1532 1.389 . S
C1534 C1535 1.524 . S
C1534 C1548 1.377 . S
C1535 C1534 1.524 . S
C1535 C1536 1.397 . S
C1535 C1540 1.363 . S
C1536 H1513 0.950 . S
C1536 C1535 1.397 . S
C1536 C1537 1.334 . S
C1537 H1514 0.950 . S
C1537 C1536 1.334 . S
C1537 C1538 1.287 . S
C1538 C1537 1.287 . S
C1538 C1539 1.524 . S
C1538 H1557 0.913 . S
C1539 H1515 0.950 . S
C1539 C1538 1.524 . S
C1539 C1540 1.415 . S
C1540 H1516 0.950 . S
C1540 C1535 1.363 . S
C1540 C1539 1.415 . S
C1541 H1517 0.951 . S
C1541 C1542 1.366 . S
C1541 C1543 1.388 . S
C1542 C1541 1.366 . S
C1542 C1546 1.385 . S
C1543 H1518 0.951 . S
C1543 C1541 1.388 . S
C1543 C1544 1.366 . S
C1544 C1543 1.366 . S
C1544 C1545 1.414 . S
C1544 C1547 1.499 . S
C1545 H1519 0.950 . S
C1545 C1544 1.414 . S
C1545 C1546 1.374 . S
C1546 H1520 0.950 . S
C1546 C1542 1.385 . S
C1546 C1545 1.374 . S
C1547 C1544 1.499 . S
C1547 C1548 1.373 . S
C1547 C1549 1.389 . S
C1548 H1521 0.950 . S
C1548 C1534 1.377 . S
C1548 C1547 1.373 . S
C1549 C1533 1.377 . S
C1549 C1547 1.389 . S
C1549 C1550 1.524 . S
C1550 C1549 1.524 . S
C1550 C1551 1.397 . S
C1550 C1555 1.363 . S
C1551 H1522 0.950 . S
C1551 C1550 1.397 . S
C1551 C1552 1.334 . S
C1552 H1523 0.950 . S
C1552 C1551 1.334 . S
C1552 C1553 1.287 . S
C1553 C1552 1.287 . S
C1553 C1554 1.524 . S
C1553 H1556 0.999 . S
C1554 H1524 0.950 . S
C1554 C1553 1.524 . S
C1554 C1555 1.415 . S
C1555 H1525 0.950 . S
C1555 C1550 1.363 . S
C1555 C1554 1.415 . S
H1556 C1553 0.999 . S
H1557 C1538 0.913 . S
H1558 C1576 0.951 . S
H1559 C1578 0.951 . S
H1560 C1580 0.950 . S
H1561 C1581 0.950 . S
H1562 C1583 0.950 . S
H1563 C1586 0.950 . S
H1564 C1587 0.950 . S
H1565 C1589 0.950 . S
H1566 C1590 0.950 . S
H1567 C1591 0.951 . S
H1568 C1593 0.951 . S
H1569 C1595 0.950 . S
H1570 C1596 0.950 . S
H1571 C1598 0.950 . S
H1572 C1601 0.950 . S
H1573 C1602 0.950 . S
H1574 C1604 0.950 . S
H1575 C1605 0.950 . S
C1576 H1558 0.951 . S
C1576 C1577 1.366 . S
C1576 C1578 1.388 . S
C1577 C1576 1.366 . S
C1577 C1581 1.385 . S
C1578 H1559 0.951 . S
C1578 C1576 1.388 . S
C1578 C1579 1.366 . S
C1579 C1578 1.366 . S
C1579 C1580 1.414 . S
C1579 C1582 1.499 . S
C1580 H1560 0.950 . S
C1580 C1579 1.414 . S
C1580 C1581 1.374 . S
C1581 H1561 0.950 . S
C1581 C1577 1.385 . S
C1581 C1580 1.374 . S
C1582 C1579 1.499 . S
C1582 C1583 1.373 . S
C1582 C1584 1.389 . S
C1583 H1562 0.950 . S
C1583 C1582 1.373 . S
C1583 C1599 1.377 . S
C1584 C1582 1.389 . S
C1584 C1585 1.524 . S
C1584 C1598 1.377 . S
C1585 C1584 1.524 . S
C1585 C1586 1.397 . S
C1585 C1590 1.363 . S
C1586 H1563 0.950 . S
C1586 C1585 1.397 . S
C1586 C1587 1.334 . S
C1587 H1564 0.950 . S
C1587 C1586 1.334 . S
C1587 C1588 1.287 . S
C1588 C1587 1.287 . S
C1588 C1589 1.524 . S
C1588 H1607 0.913 . S
C1589 H1565 0.950 . S
C1589 C1588 1.524 . S
C1589 C1590 1.415 . S
C1590 H1566 0.950 . S
C1590 C1585 1.363 . S
C1590 C1589 1.415 . S
C1591 H1567 0.951 . S
C1591 C1592 1.366 . S
C1591 C1593 1.388 . S
C1592 C1591 1.366 . S
C1592 C1596 1.385 . S
C1593 H1568 0.951 . S
C1593 C1591 1.388 . S
C1593 C1594 1.366 . S
C1594 C1593 1.366 . S
C1594 C1595 1.414 . S
C1594 C1597 1.499 . S
C1595 H1569 0.950 . S
C1595 C1594 1.414 . S
C1595 C1596 1.374 . S
C1596 H1570 0.950 . S
C1596 C1592 1.385 . S
C1596 C1595 1.374 . S
C1597 C1594 1.499 . S
C1597 C1598 1.373 . S
C1597 C1599 1.389 . S
C1598 H1571 0.950 . S
C1598 C1584 1.377 . S
C1598 C1597 1.373 . S
C1599 C1583 1.377 . S
C1599 C1597 1.389 . S
C1599 C1600 1.524 . S
C1600 C1599 1.524 . S
C1600 C1601 1.397 . S
C1600 C1605 1.363 . S
C1601 H1572 0.950 . S
C1601 C1600 1.397 . S
C1601 C1602 1.334 . S
C1602 H1573 0.950 . S
C1602 C1601 1.334 . S
C1602 C1603 1.287 . S
C1603 C1602 1.287 . S
C1603 C1604 1.524 . S
C1603 H1606 0.999 . S
C1604 H1574 0.950 . S
C1604 C1603 1.524 . S
C1604 C1605 1.415 . S
C1605 H1575 0.950 . S
C1605 C1600 1.363 . S
C1605 C1604 1.415 . S
H1606 C1603 0.999 . S
H1607 C1588 0.913 . S
H1608 C1626 0.951 . S
H1609 C1628 0.951 . S
H1610 C1630 0.950 . S
H1611 C1631 0.950 . S
H1612 C1633 0.950 . S
H1613 C1636 0.950 . S
H1614 C1637 0.950 . S
H1615 C1639 0.950 . S
H1616 C1640 0.950 . S
H1617 C1641 0.951 . S
H1618 C1643 0.951 . S
H1619 C1645 0.950 . S
H1620 C1646 0.950 . S
H1621 C1648 0.950 . S
H1622 C1651 0.950 . S
H1623 C1652 0.950 . S
H1624 C1654 0.950 . S
H1625 C1655 0.950 . S
C1626 H1608 0.951 . S
C1626 C1627 1.366 . S
C1626 C1628 1.388 . S
C1627 C1626 1.366 . S
C1627 C1631 1.385 . S
C1628 H1609 0.951 . S
C1628 C1626 1.388 . S
C1628 C1629 1.366 . S
C1629 C1628 1.366 . S
C1629 C1630 1.414 . S
C1629 C1632 1.499 . S
C1630 H1610 0.950 . S
C1630 C1629 1.414 . S
C1630 C1631 1.374 . S
C1631 H1611 0.950 . S
C1631 C1627 1.385 . S
C1631 C1630 1.374 . S
C1632 C1629 1.499 . S
C1632 C1633 1.373 . S
C1632 C1634 1.389 . S
C1633 H1612 0.950 . S
C1633 C1632 1.373 . S
C1633 C1649 1.377 . S
C1634 C1632 1.389 . S
C1634 C1635 1.524 . S
C1634 C1648 1.377 . S
C1635 C1634 1.524 . S
C1635 C1636 1.397 . S
C1635 C1640 1.363 . S
C1636 H1613 0.950 . S
C1636 C1635 1.397 . S
C1636 C1637 1.334 . S
C1637 H1614 0.950 . S
C1637 C1636 1.334 . S
C1637 C1638 1.287 . S
C1638 C1637 1.287 . S
C1638 C1639 1.524 . S
C1638 H1657 0.913 . S
C1639 H1615 0.950 . S
C1639 C1638 1.524 . S
C1639 C1640 1.415 . S
C1640 H1616 0.950 . S
C1640 C1635 1.363 . S
C1640 C1639 1.415 . S
C1641 H1617 0.951 . S
C1641 C1642 1.366 . S
C1641 C1643 1.388 . S
C1642 C1641 1.366 . S
C1642 C1646 1.385 . S
C1643 H1618 0.951 . S
C1643 C1641 1.388 . S
C1643 C1644 1.366 . S
C1644 C1643 1.366 . S
C1644 C1645 1.414 . S
C1644 C1647 1.499 . S
C1645 H1619 0.950 . S
C1645 C1644 1.414 . S
C1645 C1646 1.374 . S
C1646 H1620 0.950 . S
C1646 C1642 1.385 . S
C1646 C1645 1.374 . S
C1647 C1644 1.499 . S
C1647 C1648 1.373 . S
C1647 C1649 1.389 . S
C1648 H1621 0.950 . S
C1648 C1634 1.377 . S
C1648 C1647 1.373 . S
C1649 C1633 1.377 . S
C1649 C1647 1.389 . S
C1649 C1650 1.524 . S
C1650 C1649 1.524 . S
C1650 C1651 1.397 . S
C1650 C1655 1.363 . S
C1651 H1622 0.950 . S
C1651 C1650 1.397 . S
C1651 C1652 1.334 . S
C1652 H1623 0.950 . S
C1652 C1651 1.334 . S
C1652 C1653 1.287 . S
C1653 C1652 1.287 . S
C1653 C1654 1.524 . S
C1653 H1656 0.999 . S
C1654 H1624 0.950 . S
C1654 C1653 1.524 . S
C1654 C1655 1.415 . S
C1655 H1625 0.950 . S
C1655 C1650 1.363 . S
C1655 C1654 1.415 . S
H1656 C1653 0.999 . S
H1657 C1638 0.913 . S
H1658 C1676 0.951 . S
H1659 C1678 0.951 . S
H1660 C1680 0.950 . S
H1661 C1681 0.950 . S
H1662 C1683 0.950 . S
H1663 C1686 0.950 . S
H1664 C1687 0.950 . S
H1665 C1689 0.950 . S
H1666 C1690 0.950 . S
H1667 C1691 0.951 . S
H1668 C1693 0.951 . S
H1669 C1695 0.950 . S
H1670 C1696 0.950 . S
H1671 C1698 0.950 . S
H1672 C1701 0.950 . S
H1673 C1702 0.950 . S
H1674 C1704 0.950 . S
H1675 C1705 0.950 . S
C1676 H1658 0.951 . S
C1676 C1677 1.366 . S
C1676 C1678 1.388 . S
C1677 C1676 1.366 . S
C1677 C1681 1.385 . S
C1678 H1659 0.951 . S
C1678 C1676 1.388 . S
C1678 C1679 1.366 . S
C1679 C1678 1.366 . S
C1679 C1680 1.414 . S
C1679 C1682 1.499 . S
C1680 H1660 0.950 . S
C1680 C1679 1.414 . S
C1680 C1681 1.374 . S
C1681 H1661 0.950 . S
C1681 C1677 1.385 . S
C1681 C1680 1.374 . S
C1682 C1679 1.499 . S
C1682 C1683 1.373 . S
C1682 C1684 1.389 . S
C1683 H1662 0.950 . S
C1683 C1682 1.373 . S
C1683 C1699 1.377 . S
C1684 C1682 1.389 . S
C1684 C1685 1.524 . S
C1684 C1698 1.377 . S
C1685 C1684 1.524 . S
C1685 C1686 1.397 . S
C1685 C1690 1.363 . S
C1686 H1663 0.950 . S
C1686 C1685 1.397 . S
C1686 C1687 1.334 . S
C1687 H1664 0.950 . S
C1687 C1686 1.334 . S
C1687 C1688 1.287 . S
C1688 C1687 1.287 . S
C1688 C1689 1.524 . S
C1688 H1707 0.913 . S
C1689 H1665 0.950 . S
C1689 C1688 1.524 . S
C1689 C1690 1.415 . S
C1690 H1666 0.950 . S
C1690 C1685 1.363 . S
C1690 C1689 1.415 . S
C1691 H1667 0.951 . S
C1691 C1692 1.366 . S
C1691 C1693 1.388 . S
C1692 C1691 1.366 . S
C1692 C1696 1.385 . S
C1693 H1668 0.951 . S
C1693 C1691 1.388 . S
C1693 C1694 1.366 . S
C1694 C1693 1.366 . S
C1694 C1695 1.414 . S
C1694 C1697 1.499 . S
C1695 H1669 0.950 . S
C1695 C1694 1.414 . S
C1695 C1696 1.374 . S
C1696 H1670 0.950 . S
C1696 C1692 1.385 . S
C1696 C1695 1.374 . S
C1697 C1694 1.499 . S
C1697 C1698 1.373 . S
C1697 C1699 1.389 . S
C1698 H1671 0.950 . S
C1698 C1684 1.377 . S
C1698 C1697 1.373 . S
C1699 C1683 1.377 . S
C1699 C1697 1.389 . S
C1699 C1700 1.524 . S
C1700 C1699 1.524 . S
C1700 C1701 1.397 . S
C1700 C1705 1.363 . S
C1701 H1672 0.950 . S
C1701 C1700 1.397 . S
C1701 C1702 1.334 . S
C1702 H1673 0.950 . S
C1702 C1701 1.334 . S
C1702 C1703 1.287 . S
C1703 C1702 1.287 . S
C1703 C1704 1.524 . S
C1703 H1706 0.999 . S
C1704 H1674 0.950 . S
C1704 C1703 1.524 . S
C1704 C1705 1.415 . S
C1705 H1675 0.950 . S
C1705 C1700 1.363 . S
C1705 C1704 1.415 . S
H1706 C1703 0.999 . S
H1707 C1688 0.913 . S
H1708 C1726 0.951 . S
H1709 C1728 0.951 . S
H1710 C1730 0.950 . S
H1711 C1731 0.950 . S
H1712 C1733 0.950 . S
H1713 C1736 0.950 . S
H1714 C1737 0.950 . S
H1715 C1739 0.950 . S
H1716 C1740 0.950 . S
H1717 C1741 0.951 . S
H1718 C1743 0.951 . S
H1719 C1745 0.950 . S
H1720 C1746 0.950 . S
H1721 C1748 0.950 . S
H1722 C1751 0.950 . S
H1723 C1752 0.950 . S
H1724 C1754 0.950 . S
H1725 C1755 0.950 . S
C1726 H1708 0.951 . S
C1726 C1727 1.366 . S
C1726 C1728 1.388 . S
C1727 C1726 1.366 . S
C1727 C1731 1.385 . S
C1728 H1709 0.951 . S
C1728 C1726 1.388 . S
C1728 C1729 1.366 . S
C1729 C1728 1.366 . S
C1729 C1730 1.414 . S
C1729 C1732 1.499 . S
C1730 H1710 0.950 . S
C1730 C1729 1.414 . S
C1730 C1731 1.374 . S
C1731 H1711 0.950 . S
C1731 C1727 1.385 . S
C1731 C1730 1.374 . S
C1732 C1729 1.499 . S
C1732 C1733 1.373 . S
C1732 C1734 1.389 . S
C1733 H1712 0.950 . S
C1733 C1732 1.373 . S
C1733 C1749 1.377 . S
C1734 C1732 1.389 . S
C1734 C1735 1.524 . S
C1734 C1748 1.377 . S
C1735 C1734 1.524 . S
C1735 C1736 1.397 . S
C1735 C1740 1.363 . S
C1736 H1713 0.950 . S
C1736 C1735 1.397 . S
C1736 C1737 1.334 . S
C1737 H1714 0.950 . S
C1737 C1736 1.334 . S
C1737 C1738 1.287 . S
C1738 C1737 1.287 . S
C1738 C1739 1.524 . S
C1738 H1757 0.913 . S
C1739 H1715 0.950 . S
C1739 C1738 1.524 . S
C1739 C1740 1.415 . S
C1740 H1716 0.950 . S
C1740 C1735 1.363 . S
C1740 C1739 1.415 . S
C1741 H1717 0.951 . S
C1741 C1742 1.366 . S
C1741 C1743 1.388 . S
C1742 C1741 1.366 . S
C1742 C1746 1.385 . S
C1743 H1718 0.951 . S
C1743 C1741 1.388 . S
C1743 C1744 1.366 . S
C1744 C1743 1.366 . S
C1744 C1745 1.414 . S
C1744 C1747 1.499 . S
C1745 H1719 0.950 . S
C1745 C1744 1.414 . S
C1745 C1746 1.374 . S
C1746 H1720 0.950 . S
C1746 C1742 1.385 . S
C1746 C1745 1.374 . S
C1747 C1744 1.499 . S
C1747 C1748 1.373 . S
C1747 C1749 1.389 . S
C1748 H1721 0.950 . S
C1748 C1734 1.377 . S
C1748 C1747 1.373 . S
C1749 C1733 1.377 . S
C1749 C1747 1.389 . S
C1749 C1750 1.524 . S
C1750 C1749 1.524 . S
C1750 C1751 1.397 . S
C1750 C1755 1.363 . S
C1751 H1722 0.950 . S
C1751 C1750 1.397 . S
C1751 C1752 1.334 . S
C1752 H1723 0.950 . S
C1752 C1751 1.334 . S
C1752 C1753 1.287 . S
C1753 C1752 1.287 . S
C1753 C1754 1.524 . S
C1753 H1756 0.999 . S
C1754 H1724 0.950 . S
C1754 C1753 1.524 . S
C1754 C1755 1.415 . S
C1755 H1725 0.950 . S
C1755 C1750 1.363 . S
C1755 C1754 1.415 . S
H1756 C1753 0.999 . S
H1757 C1738 0.913 . S
H1758 C1776 0.951 . S
H1759 C1778 0.951 . S
H1760 C1780 0.950 . S
H1761 C1781 0.950 . S
H1762 C1783 0.950 . S
H1763 C1786 0.950 . S
H1764 C1787 0.950 . S
H1765 C1789 0.950 . S
H1766 C1790 0.950 . S
H1767 C1791 0.951 . S
H1768 C1793 0.951 . S
H1769 C1795 0.950 . S
H1770 C1796 0.950 . S
H1771 C1798 0.950 . S
H1772 C1801 0.950 . S
H1773 C1802 0.950 . S
H1774 C1804 0.950 . S
H1775 C1805 0.950 . S
C1776 H1758 0.951 . S
C1776 C1777 1.366 . S
C1776 C1778 1.388 . S
C1777 C1776 1.366 . S
C1777 C1781 1.385 . S
C1778 H1759 0.951 . S
C1778 C1776 1.388 . S
C1778 C1779 1.366 . S
C1779 C1778 1.366 . S
C1779 C1780 1.414 . S
C1779 C1782 1.499 . S
C1780 H1760 0.950 . S
C1780 C1779 1.414 . S
C1780 C1781 1.374 . S
C1781 H1761 0.950 . S
C1781 C1777 1.385 . S
C1781 C1780 1.374 . S
C1782 C1779 1.499 . S
C1782 C1783 1.373 . S
C1782 C1784 1.389 . S
C1783 H1762 0.950 . S
C1783 C1782 1.373 . S
C1783 C1799 1.377 . S
C1784 C1782 1.389 . S
C1784 C1785 1.524 . S
C1784 C1798 1.377 . S
C1785 C1784 1.524 . S
C1785 C1786 1.397 . S
C1785 C1790 1.363 . S
C1786 H1763 0.950 . S
C1786 C1785 1.397 . S
C1786 C1787 1.334 . S
C1787 H1764 0.950 . S
C1787 C1786 1.334 . S
C1787 C1788 1.287 . S
C1788 C1787 1.287 . S
C1788 C1789 1.524 . S
C1788 H1807 0.913 . S
C1789 H1765 0.950 . S
C1789 C1788 1.524 . S
C1789 C1790 1.415 . S
C1790 H1766 0.950 . S
C1790 C1785 1.363 . S
C1790 C1789 1.415 . S
C1791 H1767 0.951 . S
C1791 C1792 1.366 . S
C1791 C1793 1.388 . S
C1792 C1791 1.366 . S
C1792 C1796 1.385 . S
C1793 H1768 0.951 . S
C1793 C1791 1.388 . S
C1793 C1794 1.366 . S
C1794 C1793 1.366 . S
C1794 C1795 1.414 . S
C1794 C1797 1.499 . S
C1795 H1769 0.950 . S
C1795 C1794 1.414 . S
C1795 C1796 1.374 . S
C1796 H1770 0.950 . S
C1796 C1792 1.385 . S
C1796 C1795 1.374 . S
C1797 C1794 1.499 . S
C1797 C1798 1.373 . S
C1797 C1799 1.389 . S
C1798 H1771 0.950 . S
C1798 C1784 1.377 . S
C1798 C1797 1.373 . S
C1799 C1783 1.377 . S
C1799 C1797 1.389 . S
C1799 C1800 1.524 . S
C1800 C1799 1.524 . S
C1800 C1801 1.397 . S
C1800 C1805 1.363 . S
C1801 H1772 0.950 . S
C1801 C1800 1.397 . S
C1801 C1802 1.334 . S
C1802 H1773 0.950 . S
C1802 C1801 1.334 . S
C1802 C1803 1.287 . S
C1803 C1802 1.287 . S
C1803 C1804 1.524 . S
C1803 H1806 0.999 . S
C1804 H1774 0.950 . S
C1804 C1803 1.524 . S
C1804 C1805 1.415 . S
C1805 H1775 0.950 . S
C1805 C1800 1.363 . S
C1805 C1804 1.415 . S
H1806 C1803 0.999 . S
H1807 C1788 0.913 . S
C227 C0 0.989 . S
C242 C169 0.983 . S
C277 C143 0.983 . S
C292 C13 0.983 . S
C327 C156 0.983 . S
C342 C26 0.983 . S
C377 C130 0.983 . S
C392 C39 0.983 . S
C427 C52 0.989 . S
C442 C195 0.983 . S
C477 C65 0.983 . S
C492 C117 0.983 . S
C527 C182 0.983 . S
C542 C78 0.983 . S
C577 C91 0.983 . S
C592 C104 0.983 . S
C627 C60 1.598 . S
C642 C8 1.598 . S
C677 C21 1.599 . S
C692 C73 1.598 . S
C727 C34 1.598 . S
C742 C86 1.598 . S
C777 C99 1.598 . S
C792 C47 1.598 . S
C827 C112 1.599 . S
C842 C138 1.598 . S
C877 C125 1.598 . S
C892 C151 1.598 . S
C927 C190 1.598 . S
C942 C164 1.598 . S
C977 C177 1.598 . S
C992 C203 1.598 . S
C1027 C70 1.151 . S
C1042 C5 1.150 . S
C1077 C18 1.150 . S
C1092 C83 1.151 . S
C1127 C31 1.150 . S
C1142 C96 1.151 . S
C1177 C57 1.150 . S
C1192 C44 1.151 . S
C1227 C62 1.223 1_545 S
C1242 C140 1.223 . S
C1277 C36 1.223 1_545 S
C1292 C114 1.223 . S
C1327 C153 1.223 . S
C1342 C88 1.223 1_565 S
C1377 C127 1.223 . S
C1392 C10 1.223 1_565 S
C1427 C109 1.150 . S
C1442 C161 1.151 . S
C1477 C135 1.151 . S
C1492 C200 1.150 . S
C1527 C174 1.150 . S
C1542 C122 1.150 . S
C1577 C148 1.151 . S
C1592 C187 1.150 . S
C1627 C192 1.224 . S
C1642 C23 1.224 . S
C1677 C179 1.224 . S
C1692 C75 1.223 . S
C1727 C205 1.224 . S
C1742 C49 1.223 . S
C1777 C166 1.223 . S
C1792 C101 1.223 . S
