# Generated by pormake.
# Topology wnd, (6)-cn, num edge types: 1
# Building blocks:
#     Node 0, Type 0, BuildingBlock: CUWYAW_clean_sbu_0, # of connection points: 6
#     Node 1, Type 0, BuildingBlock: CUWYAW_clean_sbu_0, # of connection points: 6
#     Node 2, Type 0, BuildingBlock: CUWYAW_clean_sbu_0, # of connection points: 6
#     Node 3, Type 0, BuildingBlock: CUWYAW_clean_sbu_0, # of connection points: 6
#     Node 4, Type 0, BuildingBlock: CUWYAW_clean_sbu_0, # of connection points: 6
#     Node 5, Type 0, BuildingBlock: CUWYAW_clean_sbu_0, # of connection points: 6
#     Node 6, Type 0, BuildingBlock: CUWYAW_clean_sbu_0, # of connection points: 6
#     Node 7, Type 0, BuildingBlock: CUWYAW_clean_sbu_0, # of connection points: 6
#     Node 8, Type 0, BuildingBlock: CUWYAW_clean_sbu_0, # of connection points: 6
#     Node 9, Type 0, BuildingBlock: CUWYAW_clean_sbu_0, # of connection points: 6
#     Node 10, Type 0, BuildingBlock: CUWYAW_clean_sbu_0, # of connection points: 6
#     Node 11, Type 0, BuildingBlock: CUWYAW_clean_sbu_0, # of connection points: 6
#     Node 12, Type 0, BuildingBlock: CUWYAW_clean_sbu_0, # of connection points: 6
#     Node 13, Type 0, BuildingBlock: CUWYAW_clean_sbu_0, # of connection points: 6
#     Node 14, Type 0, BuildingBlock: CUWYAW_clean_sbu_0, # of connection points: 6
#     Node 15, Type 0, BuildingBlock: CUWYAW_clean_sbu_0, # of connection points: 6
#     Node 16, Type 0, BuildingBlock: CUWYAW_clean_sbu_0, # of connection points: 6
#     Node 17, Type 0, BuildingBlock: CUWYAW_clean_sbu_0, # of connection points: 6
#     Node 18, Type 0, BuildingBlock: CUWYAW_clean_sbu_0, # of connection points: 6
#     Node 19, Type 0, BuildingBlock: CUWYAW_clean_sbu_0, # of connection points: 6
#     Node 20, Type 0, BuildingBlock: CUWYAW_clean_sbu_0, # of connection points: 6
#     Node 21, Type 0, BuildingBlock: CUWYAW_clean_sbu_0, # of connection points: 6
#     Node 22, Type 0, BuildingBlock: CUWYAW_clean_sbu_0, # of connection points: 6
#     Node 23, Type 0, BuildingBlock: CUWYAW_clean_sbu_0, # of connection points: 6
#     Node 24, Type 0, BuildingBlock: CUWYAW_clean_sbu_0, # of connection points: 6
#     Node 25, Type 0, BuildingBlock: CUWYAW_clean_sbu_0, # of connection points: 6
#     Node 26, Type 0, BuildingBlock: CUWYAW_clean_sbu_0, # of connection points: 6
#     Node 27, Type 0, BuildingBlock: CUWYAW_clean_sbu_0, # of connection points: 6
#     Node 28, Type 0, BuildingBlock: CUWYAW_clean_sbu_0, # of connection points: 6
#     Node 29, Type 0, BuildingBlock: CUWYAW_clean_sbu_0, # of connection points: 6
#     Node 30, Type 0, BuildingBlock: CUWYAW_clean_sbu_0, # of connection points: 6
#     Node 31, Type 0, BuildingBlock: CUWYAW_clean_sbu_0, # of connection points: 6
#     Node 32, Type 0, BuildingBlock: CUWYAW_clean_sbu_0, # of connection points: 6
#     Node 33, Type 0, BuildingBlock: CUWYAW_clean_sbu_0, # of connection points: 6
#     Node 34, Type 0, BuildingBlock: CUWYAW_clean_sbu_0, # of connection points: 6
#     Node 35, Type 0, BuildingBlock: CUWYAW_clean_sbu_0, # of connection points: 6
#     Edge 36, Type (0, 0), BuildingBlock: OJICUG_clean_linker_0, # of connection points: 2
#     Edge 37, Type (0, 0), BuildingBlock: OJICUG_clean_linker_0, # of connection points: 2
#     Edge 38, Type (0, 0), BuildingBlock: OJICUG_clean_linker_0, # of connection points: 2
#     Edge 39, Type (0, 0), BuildingBlock: OJICUG_clean_linker_0, # of connection points: 2
#     Edge 40, Type (0, 0), BuildingBlock: OJICUG_clean_linker_0, # of connection points: 2
#     Edge 41, Type (0, 0), BuildingBlock: OJICUG_clean_linker_0, # of connection points: 2
#     Edge 42, Type (0, 0), BuildingBlock: OJICUG_clean_linker_0, # of connection points: 2
#     Edge 43, Type (0, 0), BuildingBlock: OJICUG_clean_linker_0, # of connection points: 2
#     Edge 44, Type (0, 0), BuildingBlock: OJICUG_clean_linker_0, # of connection points: 2
#     Edge 45, Type (0, 0), BuildingBlock: OJICUG_clean_linker_0, # of connection points: 2
#     Edge 46, Type (0, 0), BuildingBlock: OJICUG_clean_linker_0, # of connection points: 2
#     Edge 47, Type (0, 0), BuildingBlock: OJICUG_clean_linker_0, # of connection points: 2
#     Edge 48, Type (0, 0), BuildingBlock: OJICUG_clean_linker_0, # of connection points: 2
#     Edge 49, Type (0, 0), BuildingBlock: OJICUG_clean_linker_0, # of connection points: 2
#     Edge 50, Type (0, 0), BuildingBlock: OJICUG_clean_linker_0, # of connection points: 2
#     Edge 51, Type (0, 0), BuildingBlock: OJICUG_clean_linker_0, # of connection points: 2
#     Edge 52, Type (0, 0), BuildingBlock: OJICUG_clean_linker_0, # of connection points: 2
#     Edge 53, Type (0, 0), BuildingBlock: OJICUG_clean_linker_0, # of connection points: 2
#     Edge 54, Type (0, 0), BuildingBlock: OJICUG_clean_linker_0, # of connection points: 2
#     Edge 55, Type (0, 0), BuildingBlock: OJICUG_clean_linker_0, # of connection points: 2
#     Edge 56, Type (0, 0), BuildingBlock: OJICUG_clean_linker_0, # of connection points: 2
#     Edge 57, Type (0, 0), BuildingBlock: OJICUG_clean_linker_0, # of connection points: 2
#     Edge 58, Type (0, 0), BuildingBlock: OJICUG_clean_linker_0, # of connection points: 2
#     Edge 59, Type (0, 0), BuildingBlock: OJICUG_clean_linker_0, # of connection points: 2
#     Edge 60, Type (0, 0), BuildingBlock: OJICUG_clean_linker_0, # of connection points: 2
#     Edge 61, Type (0, 0), BuildingBlock: OJICUG_clean_linker_0, # of connection points: 2
#     Edge 62, Type (0, 0), BuildingBlock: OJICUG_clean_linker_0, # of connection points: 2
#     Edge 63, Type (0, 0), BuildingBlock: OJICUG_clean_linker_0, # of connection points: 2
#     Edge 64, Type (0, 0), BuildingBlock: OJICUG_clean_linker_0, # of connection points: 2
#     Edge 65, Type (0, 0), BuildingBlock: OJICUG_clean_linker_0, # of connection points: 2
#     Edge 66, Type (0, 0), BuildingBlock: OJICUG_clean_linker_0, # of connection points: 2
#     Edge 67, Type (0, 0), BuildingBlock: OJICUG_clean_linker_0, # of connection points: 2
#     Edge 68, Type (0, 0), BuildingBlock: OJICUG_clean_linker_0, # of connection points: 2
#     Edge 69, Type (0, 0), BuildingBlock: OJICUG_clean_linker_0, # of connection points: 2
#     Edge 70, Type (0, 0), BuildingBlock: OJICUG_clean_linker_0, # of connection points: 2
#     Edge 71, Type (0, 0), BuildingBlock: OJICUG_clean_linker_0, # of connection points: 2
#     Edge 72, Type (0, 0), BuildingBlock: OJICUG_clean_linker_0, # of connection points: 2
#     Edge 73, Type (0, 0), BuildingBlock: OJICUG_clean_linker_0, # of connection points: 2
#     Edge 74, Type (0, 0), BuildingBlock: OJICUG_clean_linker_0, # of connection points: 2
#     Edge 75, Type (0, 0), BuildingBlock: OJICUG_clean_linker_0, # of connection points: 2
#     Edge 76, Type (0, 0), BuildingBlock: OJICUG_clean_linker_0, # of connection points: 2
#     Edge 77, Type (0, 0), BuildingBlock: OJICUG_clean_linker_0, # of connection points: 2
#     Edge 78, Type (0, 0), BuildingBlock: OJICUG_clean_linker_0, # of connection points: 2
#     Edge 79, Type (0, 0), BuildingBlock: OJICUG_clean_linker_0, # of connection points: 2
#     Edge 80, Type (0, 0), BuildingBlock: OJICUG_clean_linker_0, # of connection points: 2
#     Edge 81, Type (0, 0), BuildingBlock: OJICUG_clean_linker_0, # of connection points: 2
#     Edge 82, Type (0, 0), BuildingBlock: OJICUG_clean_linker_0, # of connection points: 2
#     Edge 83, Type (0, 0), BuildingBlock: OJICUG_clean_linker_0, # of connection points: 2
#     Edge 84, Type (0, 0), BuildingBlock: OJICUG_clean_linker_0, # of connection points: 2
#     Edge 85, Type (0, 0), BuildingBlock: OJICUG_clean_linker_0, # of connection points: 2
#     Edge 86, Type (0, 0), BuildingBlock: OJICUG_clean_linker_0, # of connection points: 2
#     Edge 87, Type (0, 0), BuildingBlock: OJICUG_clean_linker_0, # of connection points: 2
#     Edge 88, Type (0, 0), BuildingBlock: OJICUG_clean_linker_0, # of connection points: 2
#     Edge 89, Type (0, 0), BuildingBlock: OJICUG_clean_linker_0, # of connection points: 2
#     Edge 90, Type (0, 0), BuildingBlock: OJICUG_clean_linker_0, # of connection points: 2
#     Edge 91, Type (0, 0), BuildingBlock: OJICUG_clean_linker_0, # of connection points: 2
#     Edge 92, Type (0, 0), BuildingBlock: OJICUG_clean_linker_0, # of connection points: 2
#     Edge 93, Type (0, 0), BuildingBlock: OJICUG_clean_linker_0, # of connection points: 2
#     Edge 94, Type (0, 0), BuildingBlock: OJICUG_clean_linker_0, # of connection points: 2
#     Edge 95, Type (0, 0), BuildingBlock: OJICUG_clean_linker_0, # of connection points: 2
#     Edge 96, Type (0, 0), BuildingBlock: OJICUG_clean_linker_0, # of connection points: 2
#     Edge 97, Type (0, 0), BuildingBlock: OJICUG_clean_linker_0, # of connection points: 2
#     Edge 98, Type (0, 0), BuildingBlock: OJICUG_clean_linker_0, # of connection points: 2
#     Edge 99, Type (0, 0), BuildingBlock: OJICUG_clean_linker_0, # of connection points: 2
#     Edge 100, Type (0, 0), BuildingBlock: OJICUG_clean_linker_0, # of connection points: 2
#     Edge 101, Type (0, 0), BuildingBlock: OJICUG_clean_linker_0, # of connection points: 2
#     Edge 102, Type (0, 0), BuildingBlock: OJICUG_clean_linker_0, # of connection points: 2
#     Edge 103, Type (0, 0), BuildingBlock: OJICUG_clean_linker_0, # of connection points: 2
#     Edge 104, Type (0, 0), BuildingBlock: OJICUG_clean_linker_0, # of connection points: 2
#     Edge 105, Type (0, 0), BuildingBlock: OJICUG_clean_linker_0, # of connection points: 2
#     Edge 106, Type (0, 0), BuildingBlock: OJICUG_clean_linker_0, # of connection points: 2
#     Edge 107, Type (0, 0), BuildingBlock: OJICUG_clean_linker_0, # of connection points: 2
#     Edge 108, Type (0, 0), BuildingBlock: OJICUG_clean_linker_0, # of connection points: 2
#     Edge 109, Type (0, 0), BuildingBlock: OJICUG_clean_linker_0, # of connection points: 2
#     Edge 110, Type (0, 0), BuildingBlock: OJICUG_clean_linker_0, # of connection points: 2
#     Edge 111, Type (0, 0), BuildingBlock: OJICUG_clean_linker_0, # of connection points: 2
#     Edge 112, Type (0, 0), BuildingBlock: OJICUG_clean_linker_0, # of connection points: 2
#     Edge 113, Type (0, 0), BuildingBlock: OJICUG_clean_linker_0, # of connection points: 2
#     Edge 114, Type (0, 0), BuildingBlock: OJICUG_clean_linker_0, # of connection points: 2
#     Edge 115, Type (0, 0), BuildingBlock: OJICUG_clean_linker_0, # of connection points: 2
#     Edge 116, Type (0, 0), BuildingBlock: OJICUG_clean_linker_0, # of connection points: 2
#     Edge 117, Type (0, 0), BuildingBlock: OJICUG_clean_linker_0, # of connection points: 2
#     Edge 118, Type (0, 0), BuildingBlock: OJICUG_clean_linker_0, # of connection points: 2
#     Edge 119, Type (0, 0), BuildingBlock: OJICUG_clean_linker_0, # of connection points: 2
#     Edge 120, Type (0, 0), BuildingBlock: OJICUG_clean_linker_0, # of connection points: 2
#     Edge 121, Type (0, 0), BuildingBlock: OJICUG_clean_linker_0, # of connection points: 2
#     Edge 122, Type (0, 0), BuildingBlock: OJICUG_clean_linker_0, # of connection points: 2
#     Edge 123, Type (0, 0), BuildingBlock: OJICUG_clean_linker_0, # of connection points: 2
#     Edge 124, Type (0, 0), BuildingBlock: OJICUG_clean_linker_0, # of connection points: 2
#     Edge 125, Type (0, 0), BuildingBlock: OJICUG_clean_linker_0, # of connection points: 2
#     Edge 126, Type (0, 0), BuildingBlock: OJICUG_clean_linker_0, # of connection points: 2
#     Edge 127, Type (0, 0), BuildingBlock: OJICUG_clean_linker_0, # of connection points: 2
#     Edge 128, Type (0, 0), BuildingBlock: OJICUG_clean_linker_0, # of connection points: 2
#     Edge 129, Type (0, 0), BuildingBlock: OJICUG_clean_linker_0, # of connection points: 2
#     Edge 130, Type (0, 0), BuildingBlock: OJICUG_clean_linker_0, # of connection points: 2
#     Edge 131, Type (0, 0), BuildingBlock: OJICUG_clean_linker_0, # of connection points: 2
#     Edge 132, Type (0, 0), BuildingBlock: OJICUG_clean_linker_0, # of connection points: 2
#     Edge 133, Type (0, 0), BuildingBlock: OJICUG_clean_linker_0, # of connection points: 2
#     Edge 134, Type (0, 0), BuildingBlock: OJICUG_clean_linker_0, # of connection points: 2
#     Edge 135, Type (0, 0), BuildingBlock: OJICUG_clean_linker_0, # of connection points: 2
#     Edge 136, Type (0, 0), BuildingBlock: OJICUG_clean_linker_0, # of connection points: 2
#     Edge 137, Type (0, 0), BuildingBlock: OJICUG_clean_linker_0, # of connection points: 2
#     Edge 138, Type (0, 0), BuildingBlock: OJICUG_clean_linker_0, # of connection points: 2
#     Edge 139, Type (0, 0), BuildingBlock: OJICUG_clean_linker_0, # of connection points: 2
#     Edge 140, Type (0, 0), BuildingBlock: OJICUG_clean_linker_0, # of connection points: 2
#     Edge 141, Type (0, 0), BuildingBlock: OJICUG_clean_linker_0, # of connection points: 2
#     Edge 142, Type (0, 0), BuildingBlock: OJICUG_clean_linker_0, # of connection points: 2
#     Edge 143, Type (0, 0), BuildingBlock: OJICUG_clean_linker_0, # of connection points: 2
# Relax obj value: 0.095
# Max RMSD: 0.211
# Mean RMSD: 0.211
data_MOF--net-wnd--node1-CUWYAW_clean_sbu_0--edge1-OJICUG_clean_linker_0
_symmetry_space_group_name_H-M    P1
_symmetry_Int_Tables_number       1
_symmetry_cell_setting            triclinic
loop_
_symmetry_equiv_pos_as_xyz
'x, y, z'
_cell_length_a     32.201052
_cell_length_b     32.210205
_cell_length_c     110.93241
_cell_angle_alpha  89.99899
_cell_angle_beta   89.973822
_cell_angle_gamma 120.07076
loop_
_atom_site_label
_atom_site_type_symbol
_atom_site_fract_x
_atom_site_fract_y
_atom_site_fract_z
_atom_type_partial_charge
C0 C 0.55766 0.96716 0.06013 0.0
Eu1 Eu 0.53321 0.02969 0.05273 0.0
C2 C 0.57171 0.93102 0.05687 0.0
C3 C 0.56331 0.89524 0.06531 0.0
C4 C 0.57579 0.86027 0.06282 0.0
C5 C 0.59722 0.85991 0.05178 0.0
C6 C 0.60676 0.8965 0.04337 0.0
C7 C 0.59398 0.93169 0.04588 0.0
C8 C 0.50041 0.07326 0.06879 0.0
C9 C 0.42657 0.97464 0.0431 0.0
C10 C 0.48056 0.15965 0.03746 0.0
Eu11 Eu 0.49701 0.08899 0.0416 0.0
C12 C 0.50664 0.21235 0.03977 0.0
C13 C 0.5161 0.24464 0.03023 0.0
C14 C 0.53892 0.29428 0.03235 0.0
C15 C 0.55243 0.31287 0.04409 0.0
C16 C 0.54366 0.28054 0.0536 0.0
C17 C 0.5213 0.231 0.05147 0.0
C18 C 0.52059 0.04543 0.02437 0.0
C19 C 0.61194 0.13439 0.04707 0.0
O20 O 0.58822 1.01248 0.05823 0.0
O21 O 0.51341 0.95658 0.05822 0.0
O22 O 0.53771 0.06888 0.07066 0.0
O23 O 0.48205 0.05315 0.05904 0.0
O24 O 0.46752 0.97488 0.04307 0.0
O25 O 0.42659 1.01606 0.0435 0.0
O26 O 0.46447 0.13151 0.04683 0.0
O27 O 0.49862 0.14359 0.0294 0.0
O28 O 0.48281 0.05019 0.0241 0.0
O29 O 0.54414 0.06272 0.03411 0.0
O30 O 0.57564 0.14294 0.04722 0.0
O31 O 0.60314 0.09008 0.04696 0.0
H32 H 0.54676 0.89417 0.0739 0.0
H33 H 0.56833 0.8331 0.06957 0.0
H34 H 0.62283 0.89709 0.03475 0.0
H35 H 0.60108 0.95905 0.03921 0.0
H36 H 0.50517 0.23138 0.02114 0.0
H37 H 0.54454 0.318 0.02483 0.0
H38 H 0.5539 0.29358 0.06273 0.0
H39 H 0.51499 0.20732 0.05904 0.0
C40 C 0.14363 0.6401 0.05887 0.0
Eu41 Eu 0.08794 0.54859 0.05385 0.0
C42 C 0.18579 0.68742 0.05549 0.0
C43 C 0.22191 0.71276 0.06405 0.0
C44 C 0.25897 0.75971 0.06175 0.0
C45 C 0.26092 0.78304 0.05083 0.0
C46 C 0.22477 0.75773 0.04223 0.0
C47 C 0.18772 0.71047 0.04451 0.0
C48 C 0.04922 0.47509 0.07072 0.0
C49 C 0.1491 0.49998 0.04527 0.0
C50 C 0.96904 0.36026 0.04256 0.0
Eu51 Eu 1.03485 0.45036 0.04412 0.0
C52 C 0.91586 0.33393 0.04208 0.0
C53 C 0.89206 0.29691 0.03369 0.0
C54 C 0.84195 0.26904 0.03374 0.0
C55 C 0.81437 0.27729 0.04226 0.0
C56 C 0.83811 0.316 0.05028 0.0
C57 C 0.88836 0.34405 0.05019 0.0
C58 C 0.07095 0.5145 0.02598 0.0
C59 C 0.97784 0.51036 0.05007 0.0
O60 O 0.10571 0.62289 0.05199 0.0
O61 O 0.15024 0.60634 0.06344 0.0
O62 O 0.04733 0.51422 0.07171 0.0
O63 O 0.07164 0.47762 0.06128 0.0
O64 O 0.14726 0.54004 0.04531 0.0
O65 O 0.109 0.45782 0.04627 0.0
O66 O 0.98846 0.38172 0.05273 0.0
O67 O 0.99205 0.3861 0.03314 0.0
O68 O 0.06986 0.47354 0.0261 0.0
O69 O 0.05315 0.52047 0.03569 0.0
O70 O 0.97498 0.46938 0.0468 0.0
O71 O 1.01894 0.54786 0.05292 0.0
H72 H 0.22095 0.69658 0.07269 0.0
H73 H 0.28589 0.77813 0.06864 0.0
H74 H 0.22543 0.77427 0.03368 0.0
H75 H 0.16021 0.6923 0.03774 0.0
H76 H 0.9123 0.28872 0.02726 0.0
H77 H 0.82478 0.24004 0.02729 0.0
H78 H 0.81807 0.32321 0.05698 0.0
H79 H 0.9057 0.37277 0.05672 0.0
C80 C 0.48542 0.55683 0.05998 0.0
Eu81 Eu 0.5754 0.58774 0.05392 0.0
C82 C 0.43748 0.55015 0.05682 0.0
C83 C 0.39995 0.52727 0.06519 0.0
C84 C 0.3533 0.51723 0.06243 0.0
C85 C 0.34266 0.52996 0.05118 0.0
C86 C 0.38058 0.55346 0.04281 0.0
C87 C 0.42742 0.56318 0.04557 0.0
C88 C 0.65125 0.62368 0.07007 0.0
C89 C 0.6257 0.69583 0.04438 0.0
C90 C 0.76077 0.64754 0.03818 0.0
Eu91 Eu 0.67332 0.62895 0.04274 0.0
C92 C 0.78624 0.62021 0.04016 0.0
C93 C 0.80907 0.61133 0.03052 0.0
C94 C 0.83426 0.58671 0.03239 0.0
C95 C 0.83753 0.57071 0.04398 0.0
C96 C 0.81368 0.57867 0.05356 0.0
C97 C 0.78825 0.60289 0.05168 0.0
C98 C 0.60501 0.60199 0.02585 0.0
C99 C 0.61096 0.51357 0.05034 0.0
O100 O 0.49999 0.53146 0.05406 0.0
O101 O 0.52072 0.59973 0.06259 0.0
O102 O 0.60949 0.58652 0.07219 0.0
O103 O 0.64946 0.64098 0.06013 0.0
O104 O 0.58547 0.6541 0.04458 0.0
O105 O 0.66796 0.69752 0.04462 0.0
O106 O 0.74863 0.66229 0.04777 0.0
O107 O 0.72686 0.63102 0.03006 0.0
O108 O 0.64634 0.6414 0.02549 0.0
O109 O 0.6005 0.5787 0.03554 0.0
O110 O 0.6532 0.5513 0.04763 0.0
O111 O 0.57337 0.518 0.05249 0.0
H112 H 0.40665 0.51666 0.07392 0.0
H113 H 0.32558 0.49994 0.0692 0.0
H114 H 0.37389 0.56365 0.03403 0.0
H115 H 0.45557 0.58042 0.0389 0.0
H116 H 0.808 0.62407 0.02156 0.0
H117 H 0.85259 0.58169 0.02484 0.0
H118 H 0.81499 0.56645 0.06258 0.0
H119 H 0.7706 0.60846 0.05931 0.0
C120 C 0.97194 0.54362 0.44561 0.0
Eu121 Eu 0.03602 0.51946 0.45197 0.0
C122 C 0.93891 0.56059 0.44985 0.0
C123 C 0.92868 0.58893 0.44213 0.0
C124 C 0.8944 0.60192 0.44527 0.0
C125 C 0.86905 0.58684 0.45625 0.0
C126 C 0.88027 0.55932 0.46412 0.0
C127 C 0.91471 0.54638 0.46096 0.0
C128 C 0.07695 0.48392 0.43584 0.0
C129 C 0.98145 0.41196 0.4617 0.0
C130 C 0.16667 0.46818 0.46823 0.0
Eu131 Eu 0.0956 0.48316 0.46326 0.0
C132 C 0.21909 0.49354 0.46542 0.0
C133 C 0.25312 0.51639 0.47463 0.0
C134 C 0.30252 0.53901 0.47218 0.0
C135 C 0.31923 0.53899 0.46045 0.0
C136 C 0.28514 0.51689 0.45119 0.0
C137 C 0.23582 0.49456 0.45363 0.0
C138 C 0.0537 0.50985 0.48024 0.0
C139 C 0.14325 0.59663 0.45566 0.0
O140 O 1.0181 0.5736 0.44578 0.0
O141 O 0.96165 0.50016 0.44843 0.0
O142 O 0.07027 0.51956 0.43354 0.0
O143 O 0.0588 0.46737 0.4459 0.0
O144 O 0.98135 0.4528 0.46156 0.0
O145 O 1.02306 0.41234 0.4615 0.0
O146 O 0.13698 0.44802 0.4593 0.0
O147 O 0.15162 0.48929 0.47565 0.0
O148 O 0.05671 0.47113 0.48065 0.0
O149 O 0.07109 0.5324 0.47037 0.0
O150 O 0.14995 0.5593 0.45641 0.0
O151 O 0.0998 0.59039 0.45591 0.0
H152 H 0.94636 0.60002 0.43345 0.0
H153 H 0.88651 0.62234 0.43885 0.0
H154 H 0.86209 0.54734 0.4727 0.0
H155 H 0.92174 0.52451 0.46712 0.0
H156 H 0.24149 0.51615 0.48381 0.0
H157 H 0.32761 0.55505 0.47956 0.0
H158 H 0.29661 0.51648 0.44203 0.0
H159 H 0.21087 0.47762 0.44626 0.0
C160 C 0.55933 0.46998 0.4466 0.0
Eu161 Eu 0.59293 0.56084 0.45189 0.0
C162 C 0.5561 0.42307 0.44942 0.0
C163 C 0.56717 0.39953 0.44041 0.0
C164 C 0.55879 0.3528 0.44218 0.0
C165 C 0.53864 0.32786 0.45302 0.0
C166 C 0.5278 0.35151 0.4621 0.0
C167 C 0.5365 0.39853 0.46034 0.0
C168 C 0.62098 0.63235 0.43451 0.0
C169 C 0.70307 0.61288 0.46105 0.0
C170 C 0.6678 0.7532 0.46125 0.0
Eu171 Eu 0.63477 0.66126 0.46064 0.0
C172 C 0.64265 0.78152 0.46162 0.0
C173 C 0.62845 0.79272 0.47257 0.0
C174 C 0.60289 0.81752 0.47265 0.0
C175 C 0.59066 0.83153 0.46179 0.0
C176 C 0.6048 0.82022 0.45087 0.0
C177 C 0.63065 0.7959 0.45078 0.0
C178 C 0.58591 0.59721 0.47854 0.0
C179 C 0.52038 0.59739 0.45551 0.0
O180 O 0.53831 0.48565 0.45391 0.0
O181 O 0.59867 0.50485 0.44185 0.0
O182 O 0.58038 0.59244 0.43419 0.0
O183 O 0.64287 0.63187 0.44372 0.0
O184 O 0.66385 0.57194 0.45852 0.0
O185 O 0.70231 0.6538 0.46202 0.0
O186 O 0.66177 0.72906 0.45129 0.0
O187 O 0.66641 0.7287 0.47087 0.0
O188 O 0.58642 0.63718 0.47679 0.0
O189 O 0.61201 0.59221 0.47069 0.0
O190 O 0.55844 0.64092 0.45454 0.0
O191 O 0.5256 0.55989 0.45684 0.0
H192 H 0.58126 0.41688 0.4318 0.0
H193 H 0.56713 0.33571 0.43492 0.0
H194 H 0.5128 0.33375 0.4706 0.0
H195 H 0.52704 0.41528 0.46747 0.0
H196 H 0.63688 0.7822 0.48108 0.0
H197 H 0.59255 0.8256 0.48123 0.0
H198 H 0.59699 0.83128 0.44235 0.0
H199 H 0.64119 0.78829 0.44216 0.0
C200 C 0.64759 0.12931 0.44397 0.0
Eu201 Eu 0.55764 0.07188 0.45049 0.0
C202 C 0.69586 0.16948 0.4476 0.0
C203 C 0.72367 0.20437 0.43898 0.0
C204 C 0.77032 0.24123 0.44166 0.0
C205 C 0.79097 0.24453 0.45308 0.0
C206 C 0.76328 0.20928 0.46173 0.0
C207 C 0.71622 0.17222 0.45904 0.0
C208 C 0.48291 0.0268 0.43406 0.0
C209 C 0.50941 0.13407 0.45831 0.0
C210 C 0.36858 0.9533 0.4625 0.0
Eu211 Eu 0.45866 1.01968 0.46043 0.0
C212 C 0.34113 0.90014 0.46083 0.0
C213 C 0.33005 0.86894 0.47073 0.0
C214 C 0.30305 0.81898 0.46919 0.0
C215 C 0.28606 0.79889 0.45772 0.0
C216 C 0.29795 0.83012 0.4478 0.0
C217 C 0.32497 0.87996 0.44933 0.0
C218 C 0.52278 0.06086 0.47843 0.0
C219 C 0.52302 0.96627 0.45772 0.0
O220 O 0.63185 0.08743 0.449 0.0
O221 O 0.61309 0.13861 0.44197 0.0
O222 O 0.52205 0.02469 0.43344 0.0
O223 O 0.48613 0.05209 0.4429 0.0
O224 O 0.54917 0.13171 0.45838 0.0
O225 O 0.46671 0.09418 0.45803 0.0
O226 O 0.38668 0.97948 0.45281 0.0
O227 O 0.39794 0.97016 0.47167 0.0
O228 O 0.48104 0.05806 0.4781 0.0
O229 O 0.52927 0.04205 0.46903 0.0
O230 O 0.4794 0.96096 0.45707 0.0
O231 O 0.56112 1.00905 0.4573 0.0
H232 H 0.70941 0.20286 0.43004 0.0
H233 H 0.79048 0.26717 0.43469 0.0
H234 H 0.77766 0.21086 0.47065 0.0
H235 H 0.69585 0.14571 0.46588 0.0
H236 H 0.34164 0.88314 0.47972 0.0
H237 H 0.29406 0.79614 0.47705 0.0
H238 H 0.28589 0.81602 0.43882 0.0
H239 H 0.33264 0.90266 0.44148 0.0
C240 C 0.6641 0.95565 0.96142 0.0
Eu241 Eu 0.64029 1.02196 0.96029 0.0
C242 C 0.63703 0.90234 0.96007 0.0
C243 C 0.62032 0.87195 0.97021 0.0
C244 C 0.5958 0.82182 0.96885 0.0
C245 C 0.58763 0.80078 0.95733 0.0
C246 C 0.60352 0.83128 0.94721 0.0
C247 C 0.62794 0.8812 0.94855 0.0
C248 C 0.61236 0.05767 0.97847 0.0
C249 C 0.52308 0.96573 0.9543 0.0
C250 C 0.55829 0.13179 0.94615 0.0
Eu251 Eu 0.59427 0.07615 0.95086 0.0
C252 C 0.55428 0.17455 0.94953 0.0
C253 C 0.56823 0.21217 0.94122 0.0
C254 C 0.55944 0.24992 0.94351 0.0
C255 C 0.53594 0.25101 0.95413 0.0
C256 C 0.52197 0.2134 0.96247 0.0
C257 C 0.53111 0.17572 0.96022 0.0
C258 C 0.62782 0.03682 0.93397 0.0
C259 C 0.70494 0.13677 0.95926 0.0
O260 O 0.66877 0.98067 0.95171 0.0
O261 O 0.65561 0.97399 0.971 0.0
O262 O 0.6521 0.05625 0.97839 0.0
O263 O 0.5888 0.04036 0.96874 0.0
O264 O 0.56156 0.96246 0.95695 0.0
O265 O 0.52617 1.00711 0.95215 0.0
O266 O 0.53846 0.09457 0.9533 0.0
O267 O 0.59772 0.13758 0.94114 0.0
O268 O 0.58698 0.03538 0.93296 0.0
O269 O 0.6479 0.05925 0.94335 0.0
O270 O 0.66309 0.13518 0.95916 0.0
O271 O 0.70694 0.09658 0.95841 0.0
H272 H 0.62677 0.88692 0.97921 0.0
H273 H 0.5847 0.79959 0.97686 0.0
H274 H 0.59746 0.81654 0.93818 0.0
H275 H 0.64009 0.90321 0.94051 0.0
H276 H 0.58506 0.21186 0.93279 0.0
H277 H 0.5703 0.27796 0.93682 0.0
H278 H 0.50432 0.21331 0.97079 0.0
H279 H 0.51924 0.14709 0.96678 0.0
C280 C 0.16734 0.74982 0.96431 0.0
Eu281 Eu 0.10079 0.66014 0.96186 0.0
C282 C 0.22045 0.77569 0.96267 0.0
C283 C 0.25125 0.79911 0.97244 0.0
C284 C 0.30131 0.82407 0.97088 0.0
C285 C 0.32174 0.82652 0.95949 0.0
C286 C 0.29085 0.80226 0.94979 0.0
C287 C 0.241 0.77714 0.95136 0.0
C288 C 0.06227 0.59408 0.97955 0.0
C289 C 0.15764 0.60034 0.95545 0.0
C290 C 0.99159 0.47122 0.9456 0.0
Eu291 Eu 0.04823 0.56194 0.95147 0.0
C292 C 0.94757 0.42432 0.94817 0.0
C293 C 0.93277 0.3871 0.93971 0.0
C294 C 0.89475 0.34076 0.94222 0.0
C295 C 0.87004 0.33013 0.9533 0.0
C296 C 0.88427 0.36788 0.9617 0.0
C297 C 0.9228 0.41433 0.9592 0.0
C298 C 0.09036 0.63739 0.93516 0.0
C299 C 0.98663 0.61012 0.95995 0.0
O300 O 0.14118 0.73261 0.9546 0.0
O301 O 0.14991 0.7201 0.97341 0.0
O302 O 0.06342 0.63507 0.97955 0.0
O303 O 0.081 0.58893 0.9699 0.0
O304 O 0.16063 0.64197 0.95806 0.0
O305 O 0.11637 0.56187 0.95329 0.0
O306 O 1.02674 0.4864 0.95334 0.0
O307 O 0.98771 0.50644 0.94092 0.0
O308 O 0.09166 0.59796 0.93402 0.0
O309 O 0.06647 0.6339 0.94438 0.0
O310 O 0.98889 0.57037 0.95965 0.0
O311 O 1.0265 0.65277 0.95989 0.0
H312 H 0.23658 0.79857 0.98126 0.0
H313 H 0.32395 0.84279 0.97852 0.0
H314 H 0.30526 0.80294 0.94092 0.0
H315 H 0.21861 0.7592 0.94364 0.0
H316 H 0.95138 0.39364 0.93117 0.0
H317 H 0.88455 0.31319 0.93543 0.0
H318 H 0.86639 0.36124 0.97034 0.0
H319 H 0.93375 0.44216 0.96596 0.0
C320 C 0.37461 0.46427 0.96696 0.0
Eu321 Eu 0.46237 0.48342 0.96283 0.0
C322 C 0.34936 0.49168 0.96488 0.0
C323 C 0.32854 0.50284 0.97457 0.0
C324 C 0.30381 0.52783 0.97264 0.0
C325 C 0.29905 0.54192 0.96095 0.0
C326 C 0.32094 0.53173 0.95131 0.0
C327 C 0.34586 0.50709 0.95324 0.0
C328 C 0.52942 0.51036 0.98002 0.0
C329 C 0.52521 0.59819 0.95476 0.0
C330 C 0.65049 0.55494 0.94629 0.0
Eu331 Eu 0.56051 0.52387 0.95207 0.0
C332 C 0.6979 0.56022 0.94937 0.0
C333 C 0.72432 0.55381 0.94024 0.0
C334 C 0.77126 0.56355 0.94233 0.0
C335 C 0.79339 0.58024 0.95363 0.0
C336 C 0.76693 0.58667 0.96282 0.0
C337 C 0.71964 0.57668 0.96072 0.0
C338 C 0.48526 0.48788 0.93579 0.0
C339 C 0.50966 0.41619 0.96149 0.0
O340 O 0.38749 0.44996 0.95741 0.0
O341 O 0.40785 0.48049 0.97526 0.0
O342 O 0.48803 0.47104 0.98029 0.0
O343 O 0.53476 0.53358 0.97027 0.0
O344 O 0.48259 0.56079 0.95739 0.0
O345 O 0.56282 0.5934 0.95317 0.0
O346 O 0.6358 0.57937 0.95259 0.0
O347 O 0.61518 0.51314 0.94289 0.0
O348 O 0.52675 0.52558 0.93378 0.0
O349 O 0.48704 0.47057 0.9457 0.0
O350 O 0.55003 0.45772 0.96153 0.0
O351 O 0.4676 0.41483 0.96098 0.0
H352 H 0.33084 0.49162 0.98364 0.0
H353 H 0.28694 0.53458 0.98025 0.0
H354 H 0.31841 0.54245 0.9422 0.0
H355 H 0.36195 0.49973 0.94556 0.0
H356 H 0.70894 0.54219 0.93134 0.0
H357 H 0.79062 0.55872 0.93498 0.0
H358 H 0.78261 0.59896 0.97165 0.0
H359 H 0.70039 0.58245 0.96793 0.0
C360 C 0.96581 0.65072 0.54295 0.0
Eu361 Eu 0.03531 0.63128 0.54432 0.0
C362 C 0.91274 0.62316 0.54473 0.0
C363 C 0.88128 0.60141 0.53496 0.0
C364 C 0.83133 0.57712 0.53665 0.0
C365 C 0.81155 0.5743 0.54815 0.0
C366 C 0.84309 0.59519 0.55795 0.0
C367 C 0.89288 0.61933 0.55627 0.0
C368 C 0.07216 0.60509 0.52595 0.0
C369 C 0.98896 0.51601 0.55006 0.0
C370 C 0.1594 0.56851 0.5601 0.0
Eu371 Eu 0.09599 0.59372 0.55385 0.0
C372 C 0.19567 0.55553 0.5561 0.0
C373 C 0.21011 0.53187 0.56427 0.0
C374 C 0.24446 0.51919 0.56105 0.0
C375 C 0.26568 0.52992 0.54952 0.0
C376 C 0.25103 0.55362 0.5413 0.0
C377 C 0.21628 0.56611 0.54453 0.0
C378 C 0.05548 0.62683 0.57074 0.0
C379 C 0.14857 0.69991 0.54347 0.0
O380 O 0.99226 0.65851 0.55254 0.0
O381 O 0.98347 0.64049 0.53352 0.0
O382 O 0.06745 0.64293 0.52594 0.0
O383 O 0.05791 0.58245 0.53593 0.0
O384 O 0.98109 0.55256 0.54922 0.0
O385 O 1.0326 0.52288 0.55013 0.0
O386 O 0.11434 0.53818 0.55788 0.0
O387 O 0.16933 0.61298 0.55907 0.0
O388 O 0.05719 0.58779 0.57203 0.0
O389 O 0.07568 0.64571 0.56104 0.0
O390 O 0.14872 0.65907 0.54341 0.0
O391 O 0.10801 0.70028 0.54532 0.0
H392 H 0.89524 0.60384 0.52594 0.0
H393 H 0.80822 0.56209 0.52887 0.0
H394 H 0.82924 0.59341 0.56695 0.0
H395 H 0.9158 0.63557 0.56404 0.0
H396 H 0.195 0.52346 0.57327 0.0
H397 H 0.25526 0.50195 0.56773 0.0
H398 H 0.2663 0.56235 0.53232 0.0
H399 H 0.20569 0.58415 0.53803 0.0
C400 C 0.45914 0.35762 0.54355 0.0
Eu401 Eu 0.49568 0.45031 0.54463 0.0
C402 C 0.48052 0.32577 0.54376 0.0
C403 C 0.48627 0.3052 0.53315 0.0
C404 C 0.50604 0.27491 0.53357 0.0
C405 C 0.51997 0.2641 0.54463 0.0
C406 C 0.51465 0.28509 0.55518 0.0
C407 C 0.49525 0.31536 0.55477 0.0
C408 C 0.5456 0.51488 0.52689 0.0
C409 C 0.60934 0.51259 0.5503 0.0
C410 C 0.57374 0.64207 0.55894 0.0
Eu411 Eu 0.53807 0.5508 0.55358 0.0
C412 C 0.57939 0.68971 0.55581 0.0
C413 C 0.59438 0.72514 0.56478 0.0
C414 C 0.60566 0.77222 0.56197 0.0
C415 C 0.60213 0.78538 0.55006 0.0
C416 C 0.58612 0.74943 0.5411 0.0
C417 C 0.57518 0.70231 0.54391 0.0
C418 C 0.50887 0.47825 0.57083 0.0
C419 C 0.42876 0.50043 0.54408 0.0
O420 O 0.46356 0.38116 0.55352 0.0
O421 O 0.4654 0.38388 0.53393 0.0
O422 O 0.5449 0.47479 0.52863 0.0
O423 O 0.5194 0.51986 0.53471 0.0
O424 O 0.57097 0.46924 0.55126 0.0
O425 O 0.60466 0.55028 0.54867 0.0
O426 O 0.59461 0.62544 0.5519 0.0
O427 O 0.53285 0.60797 0.56324 0.0
O428 O 0.54945 0.51819 0.5713 0.0
O429 O 0.48754 0.47956 0.5616 0.0
O430 O 0.46799 0.54108 0.54677 0.0
O431 O 0.42911 0.45933 0.54306 0.0
H432 H 0.47518 0.31221 0.52453 0.0
H433 H 0.50928 0.25896 0.52529 0.0
H434 H 0.52549 0.27802 0.56383 0.0
H435 H 0.49157 0.33036 0.56316 0.0
H436 H 0.59837 0.71663 0.57401 0.0
H437 H 0.61689 0.7983 0.56918 0.0
H438 H 0.58306 0.75796 0.53182 0.0
H439 H 0.5643 0.67597 0.53677 0.0
C440 C 0.74345 0.16854 0.54181 0.0
Eu441 Eu 0.66329 0.08824 0.54241 0.0
C442 C 0.78831 0.2149 0.54298 0.0
C443 C 0.80982 0.24351 0.53277 0.0
C444 C 0.84264 0.29272 0.53408 0.0
C445 C 0.85478 0.31375 0.54562 0.0
C446 C 0.83544 0.28424 0.55579 0.0
C447 C 0.80249 0.23552 0.55448 0.0
C448 C 0.59988 0.04762 0.52451 0.0
C449 C 0.58549 0.12575 0.54764 0.0
C450 C 0.48823 0.95429 0.56043 0.0
Eu451 Eu 0.57206 0.02448 0.5533 0.0
C452 C 0.43796 0.92343 0.55642 0.0
C453 C 0.40084 0.90817 0.56491 0.0
C454 C 0.35313 0.87653 0.56163 0.0
C455 C 0.34137 0.85921 0.54974 0.0
C456 C 0.37865 0.87538 0.54117 0.0
C457 C 0.42643 0.90727 0.54446 0.0
C458 C 0.64893 0.06728 0.5693 0.0
C459 C 0.62991 0.97714 0.54309 0.0
O460 O 0.71001 0.1574 0.54991 0.0
O461 O 0.735 0.1345 0.53397 0.0
O462 O 0.64444 0.05794 0.52409 0.0
O463 O 0.58963 0.05941 0.53466 0.0
O464 O 0.62955 0.13635 0.54476 0.0
O465 O 0.55312 0.08155 0.55028 0.0
O466 O 0.50288 0.99954 0.56227 0.0
O467 O 0.52117 0.94787 0.55535 0.0
O468 O 0.6065 0.05991 0.57166 0.0
O469 O 0.64737 0.04937 0.55927 0.0
O470 O 0.58762 0.97395 0.54285 0.0
O471 O 0.66875 1.0199 0.54492 0.0
H472 H 0.79875 0.22868 0.52381 0.0
H473 H 0.85761 0.3145 0.52608 0.0
H474 H 0.84384 0.29927 0.56479 0.0
H475 H 0.78587 0.21461 0.56251 0.0
H476 H 0.40889 0.91996 0.5742 0.0
H477 H 0.32566 0.86433 0.56852 0.0
H478 H 0.37092 0.86311 0.53192 0.0
H479 H 0.45439 0.91867 0.53772 0.0
C480 C 0.22923 0.30258 0.39368 0.0
Eu481 Eu 0.19646 0.3596 0.38776 0.0
C482 C 0.23762 0.26252 0.3908 0.0
C483 C 0.25662 0.24664 0.39986 0.0
C484 C 0.26976 0.21221 0.39742 0.0
C485 C 0.26385 0.19214 0.38582 0.0
C486 C 0.24506 0.20844 0.37666 0.0
C487 C 0.23219 0.24347 0.37913 0.0
C488 C 0.16031 0.40002 0.4037 0.0
C489 C 0.08791 0.30458 0.37841 0.0
C490 C 0.16192 0.49667 0.37598 0.0
Eu491 Eu 0.16129 0.41656 0.37628 0.0
C492 C 0.16535 0.5438 0.37704 0.0
C493 C 0.16477 0.56804 0.36662 0.0
C494 C 0.18337 0.61769 0.36691 0.0
C495 C 0.20238 0.64382 0.37766 0.0
C496 C 0.19968 0.61876 0.38825 0.0
C497 C 0.18147 0.56932 0.38793 0.0
C498 C 0.18556 0.37623 0.3588 0.0
C499 C 0.27622 0.46489 0.3824 0.0
O500 O 0.25325 0.34192 0.38743 0.0
O501 O 0.18617 0.29385 0.39662 0.0
O502 O 0.19594 0.39347 0.40617 0.0
O503 O 0.14363 0.38109 0.39371 0.0
O504 O 0.12803 0.30295 0.37895 0.0
O505 O 0.08958 0.3467 0.37904 0.0
O506 O 0.18545 0.48578 0.38377 0.0
O507 O 0.1345 0.46228 0.36837 0.0
O508 O 0.14859 0.38261 0.35839 0.0
O509 O 0.20857 0.39114 0.3688 0.0
O510 O 0.24334 0.46379 0.37512 0.0
O511 O 0.26535 0.42903 0.38967 0.0
H512 H 0.26223 0.26163 0.40886 0.0
H513 H 0.28502 0.20161 0.40466 0.0
H514 H 0.23962 0.19364 0.36766 0.0
H515 H 0.21836 0.25587 0.37193 0.0
H516 H 0.15353 0.54939 0.35807 0.0
H517 H 0.18495 0.63585 0.35856 0.0
H518 H 0.2126 0.63745 0.39674 0.0
H519 H 0.18252 0.55153 0.39612 0.0
C520 C 0.81474 0.96814 0.39517 0.0
Eu521 Eu 0.7539 0.88034 0.38769 0.0
C522 C 0.85023 1.01783 0.39125 0.0
C523 C 0.86424 0.05585 0.39943 0.0
C524 C 0.89911 0.10295 0.39631 0.0
C525 C 0.92121 0.11354 0.38489 0.0
C526 C 0.90649 0.07528 0.37661 0.0
C527 C 0.87142 0.02805 0.37975 0.0
C528 C 0.71029 0.80407 0.40387 0.0
C529 C 0.81317 0.83247 0.37802 0.0
C530 C 0.63405 0.69435 0.37431 0.0
Eu531 Eu 0.69903 0.78483 0.37706 0.0
C532 C 0.58104 0.66363 0.37541 0.0
C533 C 0.5494 0.66675 0.36721 0.0
C534 C 0.49957 0.63684 0.36841 0.0
C535 C 0.48002 0.60279 0.3778 0.0
C536 C 0.51201 0.5999 0.38596 0.0
C537 C 0.56168 0.6299 0.38479 0.0
C538 C 0.73855 0.85104 0.3593 0.0
C539 C 0.64804 0.8501 0.38215 0.0
O540 O 0.76947 0.95245 0.39299 0.0
O541 O 0.8258 0.93462 0.39371 0.0
O542 O 0.70953 0.84365 0.40499 0.0
O543 O 0.73388 0.80744 0.39461 0.0
O544 O 0.81173 0.8726 0.37824 0.0
O545 O 0.77273 0.79063 0.37895 0.0
O546 O 0.65755 0.71235 0.38433 0.0
O547 O 0.65136 0.72491 0.36538 0.0
O548 O 0.73584 0.80936 0.35925 0.0
O549 O 0.72121 0.85705 0.36906 0.0
O550 O 0.64147 0.80599 0.38151 0.0
O551 O 0.69146 0.88736 0.38244 0.0
H552 H 0.84868 0.04897 0.40838 0.0
H553 H 0.90978 0.13086 0.40303 0.0
H554 H 0.92215 0.08179 0.36769 0.0
H555 H 0.86123 0.99948 0.37324 0.0
H556 H 0.56302 0.69233 0.35987 0.0
H557 H 0.47643 0.64084 0.36202 0.0
H558 H 0.4989 0.57372 0.39317 0.0
H559 H 0.58509 0.62639 0.39122 0.0
C560 C 0.14815 0.88651 0.39289 0.0
Eu561 Eu 0.23844 0.91936 0.38692 0.0
C562 C 0.10055 0.88077 0.38985 0.0
C563 C 0.06216 0.85508 0.39784 0.0
C564 C 1.01571 0.84554 0.39503 0.0
C565 C 1.00618 0.86157 0.38413 0.0
C566 C 0.045 0.88796 0.37617 0.0
C567 C 0.09162 0.89722 0.37897 0.0
C568 C 0.30989 0.94409 0.40413 0.0
C569 C 0.2924 0.02964 0.3784 0.0
C570 C 0.43117 0.99208 0.37816 0.0
Eu571 Eu 0.33936 0.9605 0.37817 0.0
C572 C 0.45946 0.96693 0.37859 0.0
C573 C 0.47033 0.94925 0.36816 0.0
C574 C 0.49608 0.92464 0.36899 0.0
C575 C 0.5115 0.91718 0.38026 0.0
C576 C 0.49964 0.9341 0.39065 0.0
C577 C 0.47453 0.95891 0.38982 0.0
C578 C 0.27652 0.91289 0.36019 0.0
C579 C 0.27125 0.84636 0.38142 0.0
O580 O 0.1632 0.86305 0.38631 0.0
O581 O 0.18318 0.92854 0.39625 0.0
O582 O 0.26981 0.90366 0.40426 0.0
O583 O 0.3095 0.967 0.39515 0.0
O584 O 0.25104 0.99079 0.38076 0.0
O585 O 0.33286 0.02838 0.37695 0.0
O586 O 0.40625 0.98746 0.38789 0.0
O587 O 0.40757 0.9896 0.36828 0.0
O588 O 0.31712 0.91452 0.36176 0.0
O589 O 0.27049 0.93843 0.36806 0.0
O590 O 0.31498 0.88248 0.38374 0.0
O591 O 0.23536 0.85398 0.3801 0.0
H592 H 0.06801 0.8418 0.40627 0.0
H593 H 0.98729 0.82598 0.40151 0.0
H594 H 0.0392 0.90075 0.36766 0.0
H595 H 0.12048 0.9167 0.37259 0.0
H596 H 0.45921 0.95463 0.35937 0.0
H597 H 0.50501 0.91262 0.36079 0.0
H598 H 0.5101 0.92847 0.39951 0.0
H599 H 0.46683 0.97179 0.39807 0.0
C600 C 0.63443 0.86773 0.77883 0.0
Eu601 Eu 0.70224 0.84907 0.78522 0.0
C602 C 0.60335 0.88737 0.7828 0.0
C603 C 0.59355 0.91497 0.77471 0.0
C604 C 0.56003 0.92928 0.77758 0.0
C605 C 0.53504 0.91618 0.78862 0.0
C606 C 0.54609 0.88976 0.79688 0.0
C607 C 0.57977 0.87557 0.79402 0.0
C608 C 0.74476 0.81478 0.76915 0.0
C609 C 0.65353 0.74364 0.79553 0.0
C610 C 0.83918 0.80815 0.80259 0.0
Eu611 Eu 0.76621 0.81902 0.79674 0.0
C612 C 0.8915 0.83433 0.79989 0.0
C613 C 0.92467 0.84706 0.80935 0.0
C614 C 0.97414 0.87069 0.80702 0.0
C615 C 0.99173 0.88195 0.79514 0.0
C616 C 0.95843 0.86991 0.78568 0.0
C617 C 0.90895 0.84656 0.78802 0.0
C618 C 0.72233 0.84412 0.81352 0.0
C619 C 0.80712 0.93055 0.78885 0.0
O620 O 0.68015 0.89744 0.77711 0.0
O621 O 0.6264 0.82709 0.78346 0.0
O622 O 0.73469 0.84798 0.76663 0.0
O623 O 0.72847 0.79912 0.77943 0.0
O624 O 0.65086 0.78298 0.79536 0.0
O625 O 0.69612 0.74635 0.79501 0.0
O626 O 0.81 0.7858 0.79373 0.0
O627 O 0.82315 0.82992 0.80945 0.0
O628 O 0.72652 0.8061 0.81401 0.0
O629 O 0.73853 0.86607 0.80353 0.0
O630 O 0.81686 0.89519 0.78944 0.0
O631 O 0.76273 0.9215 0.78932 0.0
H632 H 0.61078 0.92423 0.76596 0.0
H633 H 0.55228 0.94896 0.77089 0.0
H634 H 0.52822 0.87947 0.80555 0.0
H635 H 0.58648 0.85438 0.80048 0.0
H636 H 0.91223 0.8381 0.81857 0.0
H637 H 0.99855 0.87871 0.81451 0.0
H638 H 0.97062 0.87833 0.77643 0.0
H639 H 0.88442 0.83773 0.78052 0.0
C640 C 0.22612 0.80799 0.78026 0.0
Eu641 Eu 0.2626 0.89956 0.7854 0.0
C642 C 0.2213 0.76021 0.78293 0.0
C643 C 0.22995 0.73555 0.77373 0.0
C644 C 0.21996 0.68821 0.77541 0.0
C645 C 0.20068 0.66371 0.78636 0.0
C646 C 0.19206 0.68842 0.79561 0.0
C647 C 0.20227 0.73603 0.79393 0.0
C648 C 0.29675 0.97319 0.76855 0.0
C649 C 0.37255 0.9481 0.79395 0.0
C650 C 0.33727 0.09022 0.79661 0.0
Eu651 Eu 0.30886 0.9989 0.79514 0.0
C652 C 0.3141 0.11995 0.79628 0.0
C653 C 0.27016 0.10582 0.80209 0.0
C654 C 0.24791 0.13364 0.80103 0.0
C655 C 0.26893 0.17588 0.79404 0.0
C656 C 0.31314 0.18985 0.78834 0.0
C657 C 0.3353 0.16219 0.78943 0.0
C658 C 0.28028 0.93443 0.81327 0.0
C659 C 0.19185 0.93936 0.78908 0.0
O660 O 0.20717 0.8249 0.78782 0.0
O661 O 0.26524 0.84199 0.7752 0.0
O662 O 0.25565 0.93394 0.76765 0.0
O663 O 0.31706 0.97076 0.77793 0.0
O664 O 0.33054 0.90809 0.7938 0.0
O665 O 0.37498 0.9904 0.79306 0.0
O666 O 0.33578 0.06858 0.78652 0.0
O667 O 0.3297 0.06293 0.80605 0.0
O668 O 0.31967 0.97589 0.81331 0.0
O669 O 0.25682 0.92846 0.80351 0.0
O670 O 0.23042 0.98079 0.79197 0.0
O671 O 0.19481 0.90112 0.7867 0.0
H672 H 0.24343 0.75255 0.76506 0.0
H673 H 0.22657 0.67041 0.768 0.0
H674 H 0.17782 0.67112 0.8042 0.0
H675 H 0.19452 0.75357 0.8012 0.0
H676 H 0.25267 0.07299 0.80731 0.0
H677 H 0.21375 0.12148 0.80546 0.0
H678 H 0.33097 0.22249 0.78306 0.0
H679 H 0.369 0.17365 0.78481 0.0
C680 C 0.31685 0.47086 0.77908 0.0
Eu681 Eu 0.22609 0.41425 0.7843 0.0
C682 C 0.3648 0.512 0.78207 0.0
C683 C 0.3962 0.537 0.77258 0.0
C684 C 0.44387 0.57199 0.77485 0.0
C685 C 0.46162 0.58336 0.78673 0.0
C686 C 0.4299 0.5584 0.79629 0.0
C687 C 0.38198 0.52299 0.79398 0.0
C688 C 0.15057 0.37488 0.76816 0.0
C689 C 0.17346 0.47086 0.7927 0.0
C690 C 0.04937 0.27892 0.79586 0.0
Eu691 Eu 0.13084 0.35764 0.79544 0.0
C692 C 1.00368 0.23329 0.79484 0.0
C693 C 0.98311 0.20502 0.80515 0.0
C694 C 0.95051 0.15571 0.80402 0.0
C695 C 0.93745 0.13421 0.79256 0.0
C696 C 0.95551 0.16336 0.78228 0.0
C697 C 0.98851 0.21223 0.78341 0.0
C698 C 0.19552 0.39742 0.8129 0.0
C699 C 0.19684 0.30781 0.78923 0.0
O700 O 0.30056 0.43262 0.78584 0.0
O701 O 0.28286 0.47838 0.7751 0.0
O702 O 0.19274 0.38106 0.7658 0.0
O703 O 0.15235 0.39365 0.77813 0.0
O704 O 0.2145 0.47104 0.79276 0.0
O705 O 0.13207 0.42922 0.79236 0.0
O706 O 0.08286 0.28876 0.78785 0.0
O707 O 0.05829 0.31376 0.80351 0.0
O708 O 0.15244 0.39168 0.81332 0.0
O709 O 0.20298 0.38151 0.803 0.0
O710 O 0.16356 0.30822 0.79614 0.0
O711 O 0.22417 0.34466 0.78245 0.0
H712 H 0.38419 0.52851 0.76331 0.0
H713 H 0.46711 0.58956 0.76722 0.0
H714 H 0.44194 0.56647 0.80554 0.0
H715 H 0.35862 0.50376 0.80147 0.0
H716 H 0.99508 0.22014 0.81405 0.0
H717 H 0.93658 0.13415 0.81209 0.0
H718 H 0.94623 0.14788 0.77334 0.0
H719 H 1.00454 0.23286 0.77531 0.0
C720 C 0.31156 0.285 0.30017 0.0
Eu721 Eu 0.30272 0.35945 0.29473 0.0
C722 C 0.30401 0.23761 0.29657 0.0
C723 C 0.31652 0.21307 0.3049 0.0
C724 C 0.30269 0.16496 0.3031 0.0
C725 C 0.27638 0.14021 0.2928 0.0
C726 C 0.26583 0.16559 0.28414 0.0
C727 C 0.2789 0.2137 0.28609 0.0
C728 C 0.2819 0.40258 0.31284 0.0
C729 C 0.19134 0.32306 0.2884 0.0
C730 C 0.25873 0.49505 0.27868 0.0
Eu731 Eu 0.27532 0.42553 0.28455 0.0
C732 C 0.23542 0.5231 0.28246 0.0
C733 C 0.19947 0.52274 0.27519 0.0
C734 C 0.18104 0.5532 0.27768 0.0
C735 C 0.19839 0.58555 0.28746 0.0
C736 C 0.23368 0.58492 0.2949 0.0
C737 C 0.25184 0.55419 0.29245 0.0
C738 C 0.30367 0.37992 0.2678 0.0
C739 C 0.38315 0.47103 0.29366 0.0
O740 O 0.27317 0.28774 0.30212 0.0
O741 O 0.34597 0.32385 0.29522 0.0
O742 O 0.31789 0.39524 0.31272 0.0
O743 O 0.25922 0.38913 0.3029 0.0
O744 O 0.22625 0.31299 0.2868 0.0
O745 O 0.20298 0.36778 0.29026 0.0
O746 O 0.23148 0.45048 0.27529 0.0
O747 O 0.29657 0.50143 0.2846 0.0
O748 O 0.27025 0.3902 0.26584 0.0
O749 O 0.32213 0.39733 0.2777 0.0
O750 O 0.34555 0.47672 0.29331 0.0
O751 O 0.37739 0.42729 0.2927 0.0
H752 H 0.33498 0.23049 0.31316 0.0
H753 H 0.31083 0.14665 0.31008 0.0
H754 H 0.24635 0.1479 0.27601 0.0
H755 H 0.26751 0.23124 0.27967 0.0
H756 H 0.18636 0.49962 0.26736 0.0
H757 H 0.15345 0.55159 0.27181 0.0
H758 H 0.24891 0.60954 0.30239 0.0
H759 H 0.27986 0.55593 0.29819 0.0
C760 C 0.83492 0.08456 0.2966 0.0
Eu761 Eu 0.76702 0.99456 0.29466 0.0
C762 C 0.88809 0.11456 0.29597 0.0
C763 C 0.91209 0.15318 0.30396 0.0
C764 C 0.9616 0.1848 0.30288 0.0
C765 C 0.98856 0.17874 0.29374 0.0
C766 C 0.96466 0.13901 0.28597 0.0
C767 C 0.915 0.10733 0.28706 0.0
C768 C 0.72725 0.93092 0.31306 0.0
C769 C 0.81297 0.92462 0.29127 0.0
C770 C 0.64607 0.81014 0.27799 0.0
Eu771 Eu 0.7091 0.8981 0.2849 0.0
C772 C 0.61654 0.75887 0.28174 0.0
C773 C 0.60072 0.72266 0.27294 0.0
C774 C 0.56844 0.67443 0.27586 0.0
C775 C 0.55086 0.66087 0.2877 0.0
C776 C 0.56831 0.69721 0.2966 0.0
C777 C 0.60057 0.7455 0.29365 0.0
C778 C 0.75141 0.97217 0.26814 0.0
C779 C 0.65349 0.95104 0.29415 0.0
O780 O 0.81242 0.06481 0.28658 0.0
O781 O 0.81621 0.05599 0.30586 0.0
O782 O 0.73214 0.97353 0.31285 0.0
O783 O 0.74305 0.92293 0.30331 0.0
O784 O 0.82154 0.96933 0.29025 0.0
O785 O 0.76853 0.88916 0.29188 0.0
O786 O 0.69243 0.82881 0.27689 0.0
O787 O 0.63482 0.84072 0.28246 0.0
O788 O 0.75228 0.93258 0.26732 0.0
O789 O 0.72902 0.97027 0.2775 0.0
O790 O 0.65282 0.90988 0.29369 0.0
O791 O 0.69476 0.99203 0.29313 0.0
H792 H 0.89229 0.15954 0.31091 0.0
H793 H 0.97872 0.21437 0.30917 0.0
H794 H 0.98401 0.13328 0.27878 0.0
H795 H 0.89751 0.07783 0.28075 0.0
H796 H 0.61214 0.73191 0.26366 0.0
H797 H 0.5557 0.64813 0.26868 0.0
H798 H 0.55649 0.68851 0.30586 0.0
H799 H 0.61214 0.77254 0.30064 0.0
C800 C 0.03955 0.79526 0.29591 0.0
Eu801 Eu 0.13081 0.82479 0.29361 0.0
C802 C 1.01093 0.81968 0.29577 0.0
C803 C 0.98224 0.81534 0.30574 0.0
C804 C 0.95446 0.83757 0.30574 0.0
C805 C 0.95439 0.8644 0.29571 0.0
C806 C 0.98416 0.86983 0.28586 0.0
C807 C 1.01216 0.84776 0.2859 0.0
C808 C 0.19144 0.86205 0.31249 0.0
C809 C 0.20534 0.93535 0.28992 0.0
C810 C 0.31594 0.88413 0.27979 0.0
Eu811 Eu 0.22553 0.84925 0.28604 0.0
C812 C 0.36559 0.89906 0.28369 0.0
C813 C 0.40382 0.92791 0.27594 0.0
C814 C 0.45109 0.9406 0.27887 0.0
C815 C 0.46153 0.92476 0.28968 0.0
C816 C 0.42304 0.89662 0.29758 0.0
C817 C 0.3756 0.88389 0.29462 0.0
C818 C 0.15659 0.81985 0.26785 0.0
C819 C 0.16556 0.74515 0.29418 0.0
O820 O 0.05932 0.7937 0.28577 0.0
O821 O 0.06819 0.80442 0.30509 0.0
O822 O 0.15706 0.87027 0.30995 0.0
O823 O 0.19333 0.83315 0.30487 0.0
O824 O 0.15947 0.90302 0.2885 0.0
O825 O 0.23721 0.92162 0.29124 0.0
O826 O 0.29772 0.9106 0.28302 0.0
O827 O 0.28408 0.83847 0.27989 0.0
O828 O 0.1863 0.80428 0.26913 0.0
O829 O 0.16475 0.84932 0.2761 0.0
O830 O 0.20857 0.78209 0.29573 0.0
O831 O 0.12966 0.75248 0.29134 0.0
H832 H 0.98102 0.79439 0.31351 0.0
H833 H 0.9325 0.83322 0.31356 0.0
H834 H 0.98461 0.88976 0.27795 0.0
H835 H 1.03422 0.85228 0.27811 0.0
H836 H 0.39698 0.93989 0.26742 0.0
H837 H 0.47922 0.9615 0.27243 0.0
H838 H 0.42948 0.88412 0.30605 0.0
H839 H 0.34675 0.86172 0.30077 0.0
C840 C 0.63313 0.98065 0.8748 0.0
Eu841 Eu 0.70338 0.96261 0.87727 0.0
C842 C 0.57981 0.95343 0.87616 0.0
C843 C 0.54952 0.93227 0.86614 0.0
C844 C 0.49938 0.90936 0.86738 0.0
C845 C 0.4783 0.90745 0.87863 0.0
C846 C 0.50861 0.92739 0.88869 0.0
C847 C 0.55854 0.95014 0.88747 0.0
C848 C 0.74557 0.94087 0.8592 0.0
C849 C 0.65876 0.84657 0.88019 0.0
C850 C 0.82379 0.89915 0.8945 0.0
Eu851 Eu 0.76065 0.92341 0.88745 0.0
C852 C 0.85707 0.88254 0.89031 0.0
C853 C 0.86712 0.854 0.89799 0.0
C854 C 0.90191 0.84167 0.89491 0.0
C855 C 0.92789 0.85772 0.88404 0.0
C856 C 0.91674 0.88531 0.87619 0.0
C857 C 0.88179 0.89754 0.87929 0.0
C858 C 0.71455 0.95181 0.90384 0.0
C859 C 0.8163 0.03197 0.87899 0.0
O860 O 0.65856 0.98951 0.88463 0.0
O861 O 0.65185 0.96956 0.86577 0.0
O862 O 0.74088 0.97872 0.85942 0.0
O863 O 0.72903 0.91656 0.86884 0.0
O864 O 0.64966 0.88228 0.88142 0.0
O865 O 0.7032 0.85584 0.87982 0.0
O866 O 0.77765 0.86914 0.89406 0.0
O867 O 0.83437 0.94271 0.8917 0.0
O868 O 0.71498 0.91199 0.90471 0.0
O869 O 0.73828 0.97366 0.89478 0.0
O870 O 0.81613 0.9911 0.8786 0.0
O871 O 0.77528 0.03227 0.87965 0.0
H872 H 0.56459 0.93435 0.85728 0.0
H873 H 0.47721 0.89492 0.85942 0.0
H874 H 0.49369 0.92621 0.89752 0.0
H875 H 0.58049 0.96603 0.89539 0.0
H876 H 0.84896 0.84229 0.9066 0.0
H877 H 0.90971 0.82106 0.90129 0.0
H878 H 0.9354 0.89791 0.86768 0.0
H879 H 0.87484 0.91956 0.87317 0.0
C880 C 0.13083 0.69048 0.8799 0.0
Eu881 Eu 0.15898 0.78171 0.87823 0.0
C882 C 0.15381 0.6603 0.87972 0.0
C883 C 0.16486 0.64503 0.86891 0.0
C884 C 0.18571 0.61571 0.86915 0.0
C885 C 0.19569 0.60094 0.8802 0.0
C886 C 0.18538 0.61709 0.89095 0.0
C887 C 0.16447 0.64596 0.89071 0.0
C888 C 0.19309 0.83769 0.85843 0.0
C889 C 0.27604 0.84953 0.88084 0.0
C890 C 0.23454 0.97223 0.89468 0.0
Eu891 Eu 0.20371 0.88308 0.88787 0.0
C892 C 0.2468 1.02134 0.89083 0.0
C893 C 0.27033 0.05944 0.89901 0.0
C894 C 0.28255 0.10639 0.89582 0.0
C895 C 0.27155 0.11673 0.88431 0.0
C896 C 0.24822 0.07832 0.87607 0.0
C897 C 0.23607 0.03121 0.87928 0.0
C898 C 0.17298 0.80927 0.90456 0.0
C899 C 0.09389 0.83184 0.87854 0.0
O900 O 0.1421 0.71938 0.88909 0.0
O901 O 0.1278 0.71033 0.86987 0.0
O902 O 0.16753 0.79127 0.85832 0.0
O903 O 0.19706 0.85437 0.86911 0.0
O904 O 0.23879 0.80522 0.88141 0.0
O905 O 0.2699 0.88677 0.88088 0.0
O906 O 0.26253 0.95626 0.89105 0.0
O907 O 0.18943 0.93853 0.89483 0.0
O908 O 0.21411 0.8484 0.90518 0.0
O909 O 0.15193 0.81161 0.89534 0.0
O910 O 0.13499 0.87269 0.87956 0.0
O911 O 0.09233 0.78978 0.87885 0.0
H912 H 0.15697 0.65523 0.86028 0.0
H913 H 0.19274 0.60354 0.8607 0.0
H914 H 0.19321 0.60713 0.89962 0.0
H915 H 0.15633 0.65683 0.89922 0.0
H916 H 0.279 0.0528 0.90798 0.0
H917 H 0.29957 0.1344 0.90252 0.0
H918 H 0.23945 0.08465 0.86709 0.0
H919 H 0.21821 1.00254 0.87277 0.0
C920 C 0.4128 0.4983 0.87522 0.0
Eu921 Eu 0.3326 0.41869 0.87627 0.0
C922 C 0.45664 0.54551 0.87606 0.0
C923 C 0.4842 0.56772 0.86577 0.0
C924 C 0.51703 0.61711 0.86585 0.0
C925 C 0.52251 0.64476 0.8762 0.0
C926 C 0.49714 0.62174 0.88668 0.0
C927 C 0.4647 0.57268 0.88663 0.0
C928 C 0.26821 0.37719 0.85877 0.0
C929 C 0.26089 0.46227 0.88231 0.0
C930 C 0.15557 0.29656 0.89516 0.0
Eu931 Eu 0.24219 0.35881 0.88778 0.0
C932 C 0.10668 0.25842 0.89194 0.0
C933 C 0.07654 0.22976 0.90123 0.0
C934 C 1.02848 0.19645 0.89895 0.0
C935 C 1.00922 0.19057 0.88727 0.0
C936 C 0.03938 0.21973 0.87793 0.0
C937 C 0.0878 0.2535 0.88025 0.0
C938 C 0.31934 0.40295 0.90356 0.0
C939 C 0.29626 0.30731 0.87766 0.0
O940 O 0.3781 0.48917 0.88276 0.0
O941 O 0.40536 0.46262 0.86804 0.0
O942 O 0.31219 0.38565 0.85829 0.0
O943 O 0.25909 0.39078 0.86882 0.0
O944 O 0.29987 0.46802 0.87686 0.0
O945 O 0.23164 0.42172 0.88754 0.0
O946 O 0.16848 0.33959 0.89134 0.0
O947 O 0.19086 0.28746 0.89505 0.0
O948 O 0.27686 0.39539 0.90595 0.0
O949 O 0.31746 0.38349 0.89371 0.0
O950 O 0.25434 0.30516 0.87772 0.0
O951 O 0.33604 0.34965 0.87902 0.0
H952 H 0.4781 0.54772 0.85748 0.0
H953 H 0.53652 0.63402 0.85766 0.0
H954 H 0.5017 0.64185 0.89489 0.0
H955 H 0.44402 0.55654 0.89472 0.0
H956 H 0.09002 0.23377 0.91036 0.0
H957 H 1.00623 0.17525 0.90641 0.0
H958 H 1.02582 0.21585 0.86882 0.0
H959 H 0.11033 0.27594 0.87298 0.0
C960 C 0.90176 0.64228 0.72526 0.0
Eu961 Eu 0.86805 0.69897 0.71973 0.0
C962 C 0.91142 0.60343 0.72174 0.0
C963 C 0.89782 0.56464 0.72961 0.0
C964 C 0.91045 0.52975 0.7272 0.0
C965 C 0.9375 0.53302 0.7169 0.0
C966 C 0.9517 0.57211 0.70907 0.0
C967 C 0.93869 0.60696 0.71144 0.0
C968 C 0.82652 0.73235 0.73608 0.0
C969 C 0.76136 0.64287 0.70954 0.0
C970 C 0.81436 0.82907 0.7104 0.0
Eu971 Eu 0.83037 0.75753 0.70913 0.0
C972 C 0.8383 0.88212 0.70944 0.0
C973 C 0.83231 0.90462 0.69929 0.0
C974 C 0.85119 0.95448 0.69919 0.0
C975 C 0.8764 0.98269 0.70923 0.0
C976 C 0.88281 0.96018 0.71928 0.0
C977 C 0.86389 0.91067 0.71942 0.0
C978 C 0.8605 0.72324 0.69131 0.0
C979 C 0.94564 0.80824 0.7162 0.0
O980 O 0.92645 0.68368 0.71988 0.0
O981 O 0.85791 0.63199 0.72783 0.0
O982 O 0.86368 0.72823 0.73846 0.0
O983 O 0.81228 0.71607 0.72573 0.0
O984 O 0.80243 0.64301 0.70979 0.0
O985 O 0.76121 0.684 0.71071 0.0
O986 O 0.83017 0.81382 0.7192 0.0
O987 O 0.80366 0.80204 0.7007 0.0
O988 O 0.82335 0.72929 0.69057 0.0
O989 O 0.88138 0.73664 0.7016 0.0
O990 O 0.91158 0.81132 0.7103 0.0
O991 O 0.93664 0.76836 0.72153 0.0
H992 H 0.87783 0.56158 0.73775 0.0
H993 H 0.89902 0.50001 0.73341 0.0
H994 H 0.97193 0.57514 0.70099 0.0
H995 H 0.95028 0.63679 0.70526 0.0
H996 H 0.81219 0.88365 0.69156 0.0
H997 H 0.8456 0.97092 0.69131 0.0
H998 H 0.90092 0.98062 0.72727 0.0
H999 H 0.86832 0.89473 0.72756 0.0
C1000 C 0.47899 0.3085 0.72595 0.0
Eu1001 Eu 0.42223 0.21735 0.7204 0.0
C1002 C 0.52156 0.35587 0.72286 0.0
C1003 C 0.53803 0.39336 0.73131 0.0
C1004 C 0.57488 0.4399 0.7284 0.0
C1005 C 0.59668 0.45047 0.71693 0.0
C1006 C 0.58053 0.41252 0.70852 0.0
C1007 C 0.54325 0.3659 0.71142 0.0
C1008 C 0.38202 0.14365 0.73726 0.0
C1009 C 0.48253 0.1683 0.71159 0.0
C1010 C 0.30476 0.02712 0.70899 0.0
Eu1011 Eu 0.36816 0.11843 0.71066 0.0
C1012 C 0.25178 0.997 0.70936 0.0
C1013 C 0.22166 1.01179 0.70405 0.0
C1014 C 0.17155 0.98346 0.70512 0.0
C1015 C 0.1505 0.93993 0.7116 0.0
C1016 C 0.18106 0.92528 0.71678 0.0
C1017 C 0.23096 0.9535 0.71569 0.0
C1018 C 0.40507 0.18292 0.6925 0.0
C1019 C 0.31199 0.17924 0.71651 0.0
O1020 O 0.44167 0.29249 0.7189 0.0
O1021 O 0.48511 0.27388 0.73009 0.0
O1022 O 0.38059 0.18306 0.73815 0.0
O1023 O 0.40467 0.14593 0.72787 0.0
O1024 O 0.48079 0.20838 0.71166 0.0
O1025 O 0.44248 0.12619 0.71265 0.0
O1026 O 0.32516 0.04832 0.7191 0.0
O1027 O 0.32421 0.05496 0.69962 0.0
O1028 O 0.40333 0.14166 0.69263 0.0
O1029 O 0.38741 0.18901 0.70222 0.0
O1030 O 0.30836 0.13724 0.71394 0.0
O1031 O 0.35371 0.21733 0.71865 0.0
H1032 H 0.52173 0.38682 0.74016 0.0
H1033 H 0.58657 0.4676 0.73521 0.0
H1034 H 0.59604 0.41907 0.69957 0.0
H1035 H 0.5309 0.33791 0.70466 0.0
H1036 H 0.23681 0.04552 0.69923 0.0
H1037 H 0.1494 0.99625 0.7011 0.0
H1038 H 0.16648 0.89169 0.72164 0.0
H1039 H 0.25343 0.94145 0.71991 0.0
C1040 C 0.82301 0.24233 0.7264 0.0
Eu1041 Eu 0.90939 0.26284 0.71941 0.0
C1042 C 0.77271 0.22451 0.72234 0.0
C1043 C 0.73451 0.19425 0.72995 0.0
C1044 C 0.68695 0.1809 0.72705 0.0
C1045 C 0.67616 0.19763 0.71643 0.0
C1046 C 0.71448 0.22677 0.70861 0.0
C1047 C 0.7621 0.24005 0.71152 0.0
C1048 C 0.98587 0.295 0.73542 0.0
C1049 C 0.9631 0.36869 0.70916 0.0
C1050 C 0.08804 0.30747 0.70244 0.0
Eu1051 Eu 1.00382 0.29636 0.70797 0.0
C1052 C 0.11426 0.28148 0.7053 0.0
C1053 C 0.13051 0.26389 0.69591 0.0
C1054 C 0.15674 0.24079 0.69839 0.0
C1055 C 0.16768 0.23493 0.71033 0.0
C1056 C 0.15029 0.25151 0.71974 0.0
C1057 C 0.12386 0.27436 0.71727 0.0
C1058 C 0.93595 0.2729 0.69098 0.0
C1059 C 0.93263 0.18311 0.71389 0.0
O1060 O 0.83857 0.21189 0.72694 0.0
O1061 O 0.85618 0.28466 0.72271 0.0
O1062 O 0.94331 0.25935 0.73752 0.0
O1063 O 0.98499 0.31306 0.72553 0.0
O1064 O 0.92206 0.32818 0.70945 0.0
O1065 O 1.00414 0.36804 0.70961 0.0
O1066 O 0.08092 0.33015 0.71119 0.0
O1067 O 0.05046 0.28543 0.6955 0.0
O1068 O 0.97835 0.31083 0.69066 0.0
O1069 O 0.92985 0.24993 0.70079 0.0
O1070 O 0.97754 0.21901 0.7147 0.0
O1071 O 0.89753 0.19242 0.71329 0.0
H1072 H 0.74161 0.18202 0.73839 0.0
H1073 H 0.65885 0.15903 0.73341 0.0
H1074 H 0.70778 0.23987 0.70027 0.0
H1075 H 0.79068 0.26335 0.70544 0.0
H1076 H 0.12359 0.26873 0.68661 0.0
H1077 H 0.16993 0.22908 0.6909 0.0
H1078 H 0.15747 0.24719 0.72905 0.0
H1079 H 0.11146 0.28691 0.72475 0.0
C1080 C 0.29479 0.19117 0.11076 0.0
Eu1081 Eu 0.36611 0.17953 0.11775 0.0
C1082 C 0.26682 0.21378 0.11476 0.0
C1083 C 0.25248 0.2363 0.10623 0.0
C1084 C 0.22281 0.25466 0.10957 0.0
C1085 C 0.20659 0.25072 0.12153 0.0
C1086 C 0.22243 0.22956 0.13014 0.0
C1087 C 0.25229 0.21139 0.12681 0.0
C1088 C 0.41471 0.15228 0.10164 0.0
C1089 C 0.32303 0.07294 0.12651 0.0
C1090 C 0.51345 0.15814 0.13002 0.0
Eu1091 Eu 0.4318 0.15472 0.1288 0.0
C1092 C 0.56172 0.1638 0.12923 0.0
C1093 C 0.58255 0.15374 0.13907 0.0
C1094 C 0.63163 0.16867 0.13892 0.0
C1095 C 0.66039 0.19409 0.12896 0.0
C1096 C 0.63882 0.20192 0.11893 0.0
C1097 C 0.59008 0.18678 0.11904 0.0
C1098 C 0.38722 0.17365 0.14658 0.0
C1099 C 0.46374 0.26905 0.12434 0.0
O1100 O 0.33935 0.21978 0.10764 0.0
O1101 O 0.28932 0.15392 0.11679 0.0
O1102 O 0.40443 0.18554 0.09953 0.0
O1103 O 0.39608 0.13343 0.11147 0.0
O1104 O 0.3167 0.11005 0.12702 0.0
O1105 O 0.36708 0.08002 0.12504 0.0
O1106 O 0.50331 0.18334 0.12265 0.0
O1107 O 0.47799 0.12861 0.13708 0.0
O1108 O 0.39875 0.14032 0.14697 0.0
O1109 O 0.39955 0.1961 0.13653 0.0
O1110 O 0.47702 0.23684 0.12625 0.0
O1111 O 0.41866 0.25525 0.12235 0.0
H1112 H 0.26321 0.23856 0.09689 0.0
H1113 H 0.21092 0.27008 0.10265 0.0
H1114 H 0.2111 0.22636 0.13946 0.0
H1115 H 0.26316 0.19458 0.1336 0.0
H1116 H 0.56158 0.1365 0.14706 0.0
H1117 H 0.64742 0.16187 0.14675 0.0
H1118 H 0.65974 0.22015 0.11101 0.0
H1119 H 0.57502 0.19475 0.11124 0.0
C1120 C 0.91565 0.14212 0.11131 0.0
Eu1121 Eu 0.93961 0.22968 0.11826 0.0
C1122 C 0.89655 0.09169 0.11553 0.0
C1123 C 0.86766 0.05339 0.10778 0.0
C1124 C 0.85344 1.00574 0.11091 0.0
C1125 C 0.86781 0.9949 0.12191 0.0
C1126 C 0.89535 0.03337 0.12986 0.0
C1127 C 0.90957 0.08103 0.12671 0.0
C1128 C 0.96946 0.30467 0.1018 0.0
C1129 C 0.0476 0.28371 0.12776 0.0
C1130 C 0.99633 0.41393 0.13132 0.0
Eu1131 Eu 0.97669 0.32521 0.12856 0.0
C1132 C 0.97106 0.44171 0.12998 0.0
C1133 C 0.9641 0.4639 0.14008 0.0
C1134 C 0.94296 0.4926 0.13885 0.0
C1135 C 0.92869 0.50021 0.12746 0.0
C1136 C 0.93482 0.47722 0.1174 0.0
C1137 C 0.95562 0.44827 0.11863 0.0
C1138 C 0.95364 0.26021 0.14657 0.0
C1139 C 0.8614 0.25402 0.12491 0.0
O1140 O 0.88648 0.15921 0.11091 0.0
O1141 O 0.95862 0.17442 0.11481 0.0
O1142 O 0.92979 0.26421 0.10084 0.0
O1143 O 0.99046 0.30301 0.11108 0.0
O1144 O 1.00747 0.24218 0.12725 0.0
O1145 O 0.04691 0.32437 0.12683 0.0
O1146 O 1.00531 0.39756 0.12148 0.0
O1147 O 0.98307 0.38317 0.1402 0.0
O1148 O 0.99127 0.30297 0.1465 0.0
O1149 O 0.92995 0.2528 0.13683 0.0
O1150 O 0.89711 0.29896 0.12386 0.0
O1151 O 0.87097 0.21906 0.12543 0.0
H1152 H 0.85727 0.06047 0.09907 0.0
H1153 H 0.83283 0.97765 0.10445 0.0
H1154 H 0.90658 0.0268 0.1385 0.0
H1155 H 0.93168 0.10965 0.13292 0.0
H1156 H 0.97586 0.45976 0.14892 0.0
H1157 H 0.93929 0.51017 0.14677 0.0
H1158 H 0.92379 0.48186 0.10851 0.0
H1159 H 0.96021 0.43167 0.11064 0.0
C1160 C 0.98285 0.80808 0.11146 0.0
Eu1161 Eu 0.8943 0.74868 0.11821 0.0
C1162 C 1.03206 0.84777 0.11397 0.0
C1163 C 0.06512 0.86477 0.10445 0.0
C1164 C 0.11351 0.8981 0.1065 0.0
C1165 C 0.13041 0.91603 0.11816 0.0
C1166 C 0.09688 0.89909 0.12773 0.0
C1167 C 0.04824 0.86508 0.12566 0.0
C1168 C 0.81711 0.7068 0.10245 0.0
C1169 C 0.84113 0.80257 0.12794 0.0
C1170 C 0.7173 0.6133 0.13155 0.0
Eu1171 Eu 0.80057 0.68987 0.12987 0.0
C1172 C 0.67016 0.56895 0.13105 0.0
C1173 C 0.64822 0.54349 0.14164 0.0
C1174 C 0.61142 0.49536 0.14101 0.0
C1175 C 0.59552 0.47248 0.12977 0.0
C1176 C 0.61543 0.4991 0.11921 0.0
C1177 C 0.65263 0.54659 0.11985 0.0
C1178 C 0.86749 0.73103 0.14699 0.0
C1179 C 0.86827 0.64205 0.12316 0.0
O1180 O 0.96909 0.76753 0.117 0.0
O1181 O 0.94774 0.81689 0.1098 0.0
O1182 O 0.85954 0.7143 0.09989 0.0
O1183 O 0.81915 0.72551 0.11245 0.0
O1184 O 0.88263 0.80366 0.12782 0.0
O1185 O 0.8005 0.76066 0.12686 0.0
O1186 O 0.74986 0.61939 0.12361 0.0
O1187 O 0.72882 0.65021 0.13867 0.0
O1188 O 0.82397 0.72375 0.14776 0.0
O1189 O 0.87429 0.71551 0.13697 0.0
O1190 O 0.83086 0.63861 0.12898 0.0
O1191 O 0.89839 0.68173 0.11763 0.0
H1192 H 0.05371 0.85117 0.0954 0.0
H1193 H 0.13784 0.90901 0.0989 0.0
H1194 H 0.10804 0.91228 0.13681 0.0
H1195 H 1.02347 0.85192 0.13319 0.0
H1196 H 0.66177 0.55961 0.15038 0.0
H1197 H 0.5964 0.4756 0.14929 0.0
H1198 H 0.60423 0.48233 0.11044 0.0
H1199 H 0.66953 0.5648 0.11155 0.0
C1200 C 1.00343 0.61902 0.62843 0.0
Eu1201 Eu 0.97657 0.68306 0.62794 0.0
C1202 C 0.97819 0.56612 0.62634 0.0
C1203 C 0.95277 0.53375 0.63573 0.0
C1204 C 0.92876 0.48406 0.63379 0.0
C1205 C 0.92924 0.46514 0.62239 0.0
C1206 C 0.95447 0.49765 0.61299 0.0
C1207 C 0.97914 0.5473 0.615 0.0
C1208 C 0.95764 0.72193 0.64744 0.0
C1209 C 0.85901 0.63265 0.62609 0.0
C1210 C 0.8809 0.78784 0.61541 0.0
Eu1211 Eu 0.92983 0.7436 0.61878 0.0
C1212 C 0.8769 0.83143 0.61759 0.0
C1213 C 0.87018 0.85476 0.60773 0.0
C1214 C 0.86142 0.89284 0.60945 0.0
C1215 C 0.85882 0.90869 0.62112 0.0
C1216 C 0.86563 0.88537 0.63103 0.0
C1217 C 0.87462 0.84725 0.62929 0.0
C1218 C 0.96181 0.70361 0.60168 0.0
C1219 C 0.04191 0.79995 0.62382 0.0
O1220 O 1.01112 0.6472 0.61912 0.0
O1221 O 0.99022 0.63322 0.63798 0.0
O1222 O 0.9801 0.69805 0.64792 0.0
O1223 O 0.95028 0.72768 0.6365 0.0
O1224 O 0.89635 0.62652 0.62795 0.0
O1225 O 0.86341 0.67368 0.62255 0.0
O1226 O 0.8744 0.75939 0.62451 0.0
O1227 O 0.91335 0.79046 0.60784 0.0
O1228 O 0.96507 0.74528 0.60055 0.0
O1229 O 0.94022 0.68504 0.61138 0.0
O1230 O 1.00187 0.80159 0.62484 0.0
O1231 O 0.0417 0.75822 0.6235 0.0
H1232 H 0.95177 0.54672 0.64468 0.0
H1233 H 0.91093 0.46051 0.64136 0.0
H1234 H 0.95557 0.48484 0.60404 0.0
H1235 H 0.9994 0.57101 0.6077 0.0
H1236 H 0.87076 0.84287 0.59862 0.0
H1237 H 0.85584 0.9094 0.60159 0.0
H1238 H 0.86452 0.89691 0.64013 0.0
H1239 H 0.87921 0.82985 0.63712 0.0
C1240 C 0.50049 0.41833 0.62966 0.0
Eu1241 Eu 0.43424 0.3282 0.6279 0.0
C1242 C 0.554 0.44472 0.62974 0.0
C1243 C 0.57937 0.46194 0.64061 0.0
C1244 C 0.62968 0.48775 0.6407 0.0
C1245 C 0.65602 0.49716 0.62991 0.0
C1246 C 0.63066 0.4793 0.61906 0.0
C1247 C 0.58035 0.45358 0.61896 0.0
C1248 C 0.39772 0.26358 0.64599 0.0
C1249 C 0.49041 0.26761 0.62174 0.0
C1250 C 0.32448 0.13951 0.61214 0.0
Eu1251 Eu 0.38077 0.23038 0.61791 0.0
C1252 C 0.28132 0.09138 0.6145 0.0
C1253 C 0.251 0.06571 0.60485 0.0
C1254 C 0.21394 1.01797 0.6063 0.0
C1255 C 0.20594 0.99405 0.61745 0.0
C1256 C 0.23614 1.01993 0.62716 0.0
C1257 C 0.27328 0.0679 0.62571 0.0
C1258 C 0.42174 0.30542 0.60134 0.0
C1259 C 0.32 0.27874 0.62683 0.0
O1260 O 0.47964 0.39779 0.61953 0.0
O1261 O 0.47827 0.39161 0.63903 0.0
O1262 O 0.39923 0.30474 0.64591 0.0
O1263 O 0.4152 0.25748 0.63623 0.0
O1264 O 0.49383 0.30913 0.6247 0.0
O1265 O 0.44894 0.22985 0.61929 0.0
O1266 O 0.36035 0.15518 0.61968 0.0
O1267 O 0.31978 0.17434 0.6075 0.0
O1268 O 0.42396 0.26643 0.6004 0.0
O1269 O 0.39813 0.30192 0.61063 0.0
O1270 O 0.32179 0.23869 0.62666 0.0
O1271 O 0.36008 0.32092 0.62585 0.0
H1272 H 0.56031 0.45583 0.64907 0.0
H1273 H 0.64801 0.50066 0.64924 0.0
H1274 H 0.64965 0.48651 0.61056 0.0
H1275 H 0.56219 0.44118 0.61038 0.0
H1276 H 0.2568 0.08222 0.59604 0.0
H1277 H 0.19214 0.99941 0.59853 0.0
H1278 H 0.2309 1.00322 0.63593 0.0
H1279 H 0.29622 0.08629 0.63333 0.0
C1280 C 0.70989 0.13389 0.63382 0.0
Eu1281 Eu 0.79562 0.14889 0.62859 0.0
C1282 C 0.68407 0.16057 0.63149 0.0
C1283 C 0.66528 0.17424 0.64115 0.0
C1284 C 0.63988 0.19845 0.63907 0.0
C1285 C 0.63236 0.20926 0.62725 0.0
C1286 C 0.65217 0.19648 0.61761 0.0
C1287 C 0.67778 0.17258 0.61969 0.0
C1288 C 0.86409 0.17516 0.64552 0.0
C1289 C 0.86169 0.26148 0.62001 0.0
C1290 C 0.98091 0.20994 0.61099 0.0
Eu1291 Eu 0.89212 0.18348 0.61737 0.0
C1292 C 1.02984 0.22076 0.61464 0.0
C1293 C 0.06744 0.24357 0.60629 0.0
C1294 C 0.1145 0.25567 0.6093 0.0
C1295 C 0.1255 0.24518 0.62078 0.0
C1296 C 0.08759 0.22205 0.62917 0.0
C1297 C 0.04031 0.2102 0.62616 0.0
C1298 C 0.81591 0.14944 0.60129 0.0
C1299 C 0.83695 0.0766 0.62743 0.0
O1300 O 0.7193 0.1152 0.62453 0.0
O1301 O 0.74586 0.15339 0.64134 0.0
O1302 O 0.82219 0.13661 0.64596 0.0
O1303 O 0.8696 0.19731 0.63559 0.0
O1304 O 0.8177 0.22503 0.62182 0.0
O1305 O 0.89854 0.25479 0.61957 0.0
O1306 O 0.96676 0.23953 0.61447 0.0
O1307 O 0.94581 0.16545 0.61094 0.0
O1308 O 0.85866 0.18451 0.59894 0.0
O1309 O 0.81706 0.13271 0.61135 0.0
O1310 O 0.87886 0.11652 0.62701 0.0
O1311 O 0.79631 0.07799 0.62707 0.0
H1312 H 0.66969 0.16559 0.65032 0.0
H1313 H 0.62467 0.20718 0.6467 0.0
H1314 H 0.64753 0.20463 0.60841 0.0
H1315 H 0.69221 0.16312 0.61202 0.0
H1316 H 0.06038 0.25211 0.59735 0.0
H1317 H 0.1422 0.27252 0.6025 0.0
H1318 H 0.09457 0.21355 0.63812 0.0
H1319 H 1.01206 0.19294 0.63281 0.0
C1320 C 0.29991 0.31481 0.20527 0.0
Eu1321 Eu 0.36947 0.29711 0.20941 0.0
C1322 C 0.24723 0.2878 0.20751 0.0
C1323 C 0.21482 0.27274 0.19781 0.0
C1324 C 0.1651 0.24851 0.19985 0.0
C1325 C 0.14666 0.23912 0.21167 0.0
C1326 C 0.17916 0.25314 0.22136 0.0
C1327 C 0.22872 0.27707 0.21931 0.0
C1328 C 0.40998 0.27002 0.19222 0.0
C1329 C 0.31987 0.18298 0.21731 0.0
C1330 C 0.49007 0.23156 0.22682 0.0
Eu1331 Eu 0.42897 0.25964 0.22046 0.0
C1332 C 0.52927 0.22206 0.22331 0.0
C1333 C 0.54345 0.19853 0.23159 0.0
C1334 C 0.579 0.18714 0.22865 0.0
C1335 C 0.60174 0.19906 0.2173 0.0
C1336 C 0.5876 0.22296 0.209 0.0
C1337 C 0.55159 0.23411 0.21194 0.0
C1338 C 0.38721 0.29427 0.23655 0.0
C1339 C 0.4835 0.3674 0.21069 0.0
O1340 O 0.32769 0.33027 0.21472 0.0
O1341 O 0.3165 0.29776 0.19708 0.0
O1342 O 0.40735 0.30898 0.1919 0.0
O1343 O 0.39325 0.24766 0.20215 0.0
O1344 O 0.31356 0.21999 0.21522 0.0
O1345 O 0.36295 0.18878 0.21841 0.0
O1346 O 0.44731 0.20313 0.22251 0.0
O1347 O 0.49919 0.27582 0.2277 0.0
O1348 O 0.39242 0.25757 0.23872 0.0
O1349 O 0.4066 0.31145 0.22664 0.0
O1350 O 0.48433 0.32688 0.21107 0.0
O1351 O 0.44197 0.367 0.21101 0.0
H1352 H 0.22797 0.28039 0.18862 0.0
H1353 H 0.14117 0.23873 0.19219 0.0
H1354 H 0.16625 0.24607 0.23057 0.0
H1355 H 0.25246 0.28761 0.22703 0.0
H1356 H 0.52684 0.18876 0.24041 0.0
H1357 H 0.58923 0.16963 0.23539 0.0
H1358 H 0.60394 0.23256 0.20015 0.0
H1359 H 0.5411 0.25191 0.20534 0.0
C1360 C 0.80653 0.02815 0.20966 0.0
Eu1361 Eu 0.82945 0.11815 0.21089 0.0
C1362 C 0.83342 1.00155 0.2098 0.0
C1363 C 0.83352 0.97594 0.19957 0.0
C1364 C 0.85589 0.94816 0.19983 0.0
C1365 C 0.87864 0.94498 0.21036 0.0
C1366 C 0.88003 0.972 0.22048 0.0
C1367 C 0.85765 0.99983 0.22021 0.0
C1368 C 0.85923 0.18199 0.19259 0.0
C1369 C 0.94605 0.18032 0.21714 0.0
C1370 C 0.9056 0.3067 0.22644 0.0
Eu1371 Eu 0.87248 0.21637 0.2205 0.0
C1372 C 0.9111 0.35415 0.22341 0.0
C1373 C 0.93203 0.39114 0.23197 0.0
C1374 C 0.943 0.43798 0.2291 0.0
C1375 C 0.93321 0.44924 0.21757 0.0
C1376 C 0.91122 0.41173 0.20905 0.0
C1377 C 0.90056 0.36476 0.21191 0.0
C1378 C 0.8381 0.14285 0.23734 0.0
C1379 C 0.76395 0.16696 0.21121 0.0
O1380 O 0.80634 0.04952 0.21966 0.0
O1381 O 0.81078 0.05394 0.20012 0.0
O1382 O 0.8196 0.1407 0.19257 0.0
O1383 O 0.88169 0.18862 0.20253 0.0
O1384 O 0.90814 0.13818 0.21447 0.0
O1385 O 0.94181 0.21804 0.21915 0.0
O1386 O 0.92832 0.29154 0.21964 0.0
O1387 O 0.86397 0.27174 0.23005 0.0
O1388 O 0.87916 0.18199 0.23828 0.0
O1389 O 0.81827 0.14523 0.22789 0.0
O1390 O 0.80583 0.2071 0.21115 0.0
O1391 O 0.7621 0.12502 0.21253 0.0
H1392 H 0.81543 0.97663 0.1914 0.0
H1393 H 0.85465 0.92842 0.19181 0.0
H1394 H 0.89673 0.97011 0.22877 0.0
H1395 H 0.85848 1.01913 0.22829 0.0
H1396 H 0.94084 0.38398 0.24087 0.0
H1397 H 0.95893 0.46538 0.23599 0.0
H1398 H 0.90323 0.41888 0.20007 0.0
H1399 H 0.88493 0.33701 0.2051 0.0
C1400 C 0.09716 0.82603 0.21017 0.0
Eu1401 Eu 1.00811 0.75602 0.21141 0.0
C1402 C 0.12319 0.87925 0.21169 0.0
C1403 C 0.13747 0.90997 0.20162 0.0
C1404 C 0.16416 0.96001 0.20306 0.0
C1405 C 0.17766 0.98063 0.21461 0.0
C1406 C 0.16251 0.94987 0.22468 0.0
C1407 C 0.13575 0.89999 0.22325 0.0
C1408 C 0.9465 0.71812 0.19279 0.0
C1409 C 0.93724 0.80143 0.21507 0.0
C1410 C 0.823 0.63174 0.22698 0.0
Eu1411 Eu 0.91079 0.69669 0.22064 0.0
C1412 C 0.7715 0.60196 0.22358 0.0
C1413 C 0.73704 0.58378 0.2328 0.0
C1414 C 0.68902 0.55005 0.23031 0.0
C1415 C 0.67385 0.53361 0.21848 0.0
C1416 C 0.70793 0.55359 0.20911 0.0
C1417 C 0.75639 0.5872 0.21164 0.0
C1418 C 0.9842 0.73477 0.23764 0.0
C1419 C 0.96452 0.64226 0.21125 0.0
O1420 O 0.07786 0.80023 0.21983 0.0
O1421 O 0.06969 0.80786 0.20069 0.0
O1422 O 0.98913 0.72303 0.19307 0.0
O1423 O 0.93747 0.73297 0.20255 0.0
O1424 O 0.98185 0.80965 0.2162 0.0
O1425 O 0.90169 0.75707 0.21426 0.0
O1426 O 0.84113 0.67768 0.22885 0.0
O1427 O 0.85365 0.62193 0.22191 0.0
O1428 O 0.9449 0.73616 0.23872 0.0
O1429 O 0.98219 0.71448 0.22795 0.0
O1430 O 0.92338 0.64169 0.21139 0.0
O1431 O 1.00544 0.68347 0.21266 0.0
H1432 H 0.12879 0.8953 0.19258 0.0
H1433 H 0.17573 0.98248 0.1951 0.0
H1434 H 0.17182 0.96439 0.23372 0.0
H1435 H 0.12557 0.87768 0.23124 0.0
H1436 H 0.74764 0.59433 0.24208 0.0
H1437 H 0.66382 0.5358 0.23773 0.0
H1438 H 0.69763 0.5415 0.19992 0.0
H1439 H 0.78226 0.60041 0.20435 0.0
C1440 C 0.42109 0.12109 0.08118 0.0
C1441 C 0.43708 0.13289 0.09312 0.0
H1442 H 0.42435 0.08792 0.06474 0.0
C1443 C 0.47272 0.12287 0.0971 0.0
H1444 H 0.39234 0.12631 0.0779 0.0
C1445 C 0.49438 0.1051 0.08921 0.0
C1446 C 0.47853 0.0934 0.07725 0.0
H1447 H 0.48412 0.12863 0.10634 0.0
H1448 H 0.52263 0.09927 0.09257 0.0
C1449 C 0.44023 0.09989 0.07353 0.0
C1450 C 0.03692 0.37115 0.09001 0.0
C1451 C 0.98841 0.34742 0.09355 0.0
H1452 H 0.09335 0.42871 0.07985 0.0
C1453 C 0.96 0.36703 0.08979 0.0
H1454 H 0.05995 0.35736 0.09281 0.0
C1455 C 0.97994 0.40963 0.08282 0.0
C1456 C 1.02831 0.43265 0.07909 0.0
H1457 H 0.9227 0.35012 0.09249 0.0
H1458 H 0.9572 0.42383 0.08009 0.0
C1459 C 0.05619 0.41232 0.08266 0.0
C1460 C 0.68812 0.63447 0.09081 0.0
C1461 C 0.69316 0.64662 0.07854 0.0
H1462 H 0.72186 0.649 0.10806 0.0
C1463 C 0.73883 0.68231 0.07451 0.0
H1464 H 0.65319 0.60925 0.09446 0.0
C1465 C 0.77944 0.70028 0.08202 0.0
C1466 C 0.77457 0.68703 0.09421 0.0
H1467 H 0.74323 0.69709 0.0656 0.0
H1468 H 0.81428 0.72613 0.07844 0.0
C1469 C 0.7279 0.65631 0.0986 0.0
C1470 C 0.1091 0.4277 0.43172 0.0
C1471 C 0.09666 0.46128 0.42744 0.0
H1472 H 0.14218 0.38513 0.42799 0.0
C1473 C 0.10215 0.47162 0.41506 0.0
H1474 H 0.10094 0.41486 0.44084 0.0
C1475 C 0.12026 0.44964 0.40734 0.0
C1476 C 0.1378 0.42042 0.41189 0.0
H1477 H 0.0911 0.49554 0.41126 0.0
H1478 H 0.12044 0.4558 0.39782 0.0
C1479 C 0.13156 0.40944 0.42423 0.0
C1480 C 0.68591 0.69014 0.42059 0.0
C1481 C 0.64047 0.6737 0.42581 0.0
H1482 H 0.74249 0.74281 0.40945 0.0
C1483 C 0.61787 0.70098 0.42385 0.0
H1484 H 0.70478 0.67064 0.42208 0.0
C1485 C 0.64068 0.74397 0.41702 0.0
C1486 C 0.68602 0.75997 0.41169 0.0
H1487 H 0.58339 0.69004 0.42797 0.0
H1488 H 0.62262 0.76439 0.4158 0.0
C1489 C 0.70777 0.73186 0.41343 0.0
C1490 C 0.37592 1.01091 0.41581 0.0
C1491 C 0.35217 0.96224 0.41247 0.0
H1492 H 0.43467 0.06856 0.42524 0.0
C1493 C 0.37292 0.93452 0.41596 0.0
H1494 H 0.36149 0.03354 0.41313 0.0
C1495 C 0.41663 0.95545 0.42253 0.0
C1496 C 0.43977 1.00418 0.42597 0.0
H1497 H 0.35616 0.89718 0.41333 0.0
H1498 H 0.43168 0.93333 0.42514 0.0
C1499 C 0.41828 0.03119 0.42264 0.0
C1500 C 0.6984 0.03766 0.92419 0.0
C1501 C 0.64843 1.01423 0.92596 0.0
H1502 H 0.75791 0.03667 0.9157 0.0
C1503 C 0.6201 0.96851 0.92077 0.0
H1504 H 0.72133 0.07268 0.92813 0.0
C1505 C 0.64153 0.9468 0.91406 0.0
C1506 C 0.69153 0.97097 0.91213 0.0
H1507 H 0.58159 0.94922 0.92209 0.0
H1508 H 0.61893 0.9118 0.91009 0.0
C1509 C 0.71946 1.01685 0.91717 0.0
C1510 C 0.1048 0.74291 0.91619 0.0
C1511 C 0.15348 0.76644 0.91281 0.0
H1512 H 0.04752 0.68507 0.92608 0.0
C1513 C 0.18136 0.74627 0.91661 0.0
H1514 H 0.08213 0.75707 0.91335 0.0
C1515 C 0.16068 0.70324 0.92341 0.0
C1516 C 0.11215 0.68043 0.92699 0.0
H1517 H 0.21877 0.763 0.91403 0.0
H1518 H 0.18297 0.68851 0.92614 0.0
C1519 C 0.08482 0.70135 0.92341 0.0
C1520 C 0.44755 0.47957 0.91532 0.0
C1521 C 0.44332 0.46506 0.92738 0.0
H1522 H 0.41354 0.46739 0.89821 0.0
C1523 C 0.39848 0.42729 0.93128 0.0
H1524 H 0.48184 0.50692 0.91179 0.0
C1525 C 0.35774 0.40859 0.9238 0.0
C1526 C 0.36184 0.42381 0.9118 0.0
H1527 H 0.39485 0.41159 0.94007 0.0
H1528 H 0.32351 0.3808 0.92725 0.0
C1529 C 0.40783 0.45761 0.90754 0.0
C1530 C 0.97127 0.6344 0.59403 0.0
C1531 C 0.98469 0.68334 0.59356 0.0
H1532 H 0.9825 0.57804 0.58716 0.0
C1533 C 1.02076 0.71288 0.58533 0.0
H1534 H 0.94304 0.61033 0.60009 0.0
C1535 C 0.04358 0.69441 0.57804 0.0
C1536 C 1.03106 0.64579 0.57872 0.0
H1537 H 1.03191 0.75058 0.58463 0.0
H1538 H 0.07145 0.71844 0.57189 0.0
C1539 C 0.99413 0.6159 0.5867 0.0
C1540 C 0.51396 0.4112 0.5819 0.0
C1541 C 0.48925 0.43603 0.57932 0.0
H1542 H 0.51173 0.34967 0.59043 0.0
C1543 C 0.44238 0.41685 0.5839 0.0
H1544 H 0.54971 0.42429 0.57833 0.0
C1545 C 0.4212 0.37503 0.59104 0.0
C1546 C 0.44514 0.34938 0.5934 0.0
H1547 H 0.42197 0.43447 0.58197 0.0
H1548 H 0.3854 0.36214 0.59456 0.0
C1549 C 0.4919 0.36802 0.58869 0.0
C1550 C 0.77853 0.13824 0.58059 0.0
C1551 C 0.77359 0.12745 0.59294 0.0
H1552 H 0.74413 0.12324 0.56337 0.0
C1553 C 0.72749 0.09399 0.59724 0.0
H1554 H 0.8136 0.16206 0.57679 0.0
C1555 C 0.68675 0.07625 0.58979 0.0
C1556 C 0.6916 0.08772 0.57749 0.0
H1557 H 0.72283 0.08076 0.60632 0.0
H1558 H 0.65173 0.05185 0.59354 0.0
C1559 C 0.73835 0.11681 0.57291 0.0
C1560 C 0.77245 0.76767 0.74023 0.0
C1561 C 0.80206 0.75002 0.74449 0.0
H1562 H 0.7355 0.80637 0.74434 0.0
C1563 C 0.80774 0.74921 0.757 0.0
H1564 H 0.7622 0.76398 0.73087 0.0
C1565 C 0.78646 0.76743 0.76484 0.0
C1566 C 0.76288 0.7913 0.76054 0.0
H1567 H 0.82764 0.73335 0.76075 0.0
H1568 H 0.78895 0.763 0.77428 0.0
C1569 C 0.75563 0.79067 0.74804 0.0
C1570 C 0.36565 0.03806 0.75666 0.0
C1571 C 0.31725 1.016 0.76026 0.0
H1572 H 0.42318 0.09418 0.7464 0.0
C1573 C 0.29031 0.03719 0.75645 0.0
H1574 H 0.38762 1.02307 0.75948 0.0
C1575 C 0.31153 0.07963 0.7494 0.0
C1576 C 0.35975 0.10098 0.7456 0.0
H1577 H 0.25314 1.0216 0.75917 0.0
H1578 H 0.28988 0.09507 0.74667 0.0
C1579 C 0.38617 0.07908 0.74921 0.0
C1580 C 1.02126 0.30873 0.75645 0.0
C1581 C 1.02761 0.31644 0.74396 0.0
H1582 H 0.05433 0.32612 0.77386 0.0
C1583 C 0.07464 0.34651 0.7397 0.0
H1584 H 0.98554 0.28769 0.76019 0.0
C1585 C 0.11459 0.36377 0.74739 0.0
C1586 C 0.10835 0.35542 0.75983 0.0
H1587 H 0.08078 0.35726 0.73044 0.0
H1588 H 0.15027 0.3853 0.74366 0.0
C1589 C 0.06097 0.32993 0.7643 0.0
C1590 C 0.33882 0.37454 0.24785 0.0
C1591 C 0.3224 0.35661 0.25946 0.0
H1592 H 0.37656 0.37236 0.23215 0.0
C1593 C 0.32899 0.31909 0.26367 0.0
H1594 H 0.33622 0.40475 0.24451 0.0
C1595 C 0.34899 0.29803 0.25626 0.0
C1596 C 0.36541 0.31581 0.24461 0.0
H1597 H 0.31851 0.30608 0.27275 0.0
H1598 H 0.35245 0.26851 0.25976 0.0
C1599 C 0.36142 0.35542 0.2407 0.0
C1600 C 0.82328 0.03763 0.25684 0.0
C1601 C 0.77415 1.01464 0.25986 0.0
H1602 H 0.88266 0.09729 0.24779 0.0
C1603 C 0.74712 0.03499 0.25564 0.0
H1604 H 0.84528 1.02331 0.2601 0.0
C1605 C 0.76808 0.07629 0.24834 0.0
C1606 C 0.81732 0.10001 0.24552 0.0
H1607 H 0.70939 1.01853 0.25789 0.0
H1608 H 0.74577 0.09018 0.24503 0.0
C1609 C 0.84481 0.08033 0.24993 0.0
C1610 C 0.03952 0.7968 0.2529 0.0
C1611 C 1.02749 0.75652 0.24565 0.0
H1612 H 0.09103 0.84985 0.265 0.0
C1613 C 0.05929 0.73836 0.24546 0.0
H1614 H 1.01653 0.81239 0.25308 0.0
C1615 C 0.10122 0.75898 0.25253 0.0
C1616 C 0.11321 0.79907 0.25983 0.0
H1617 H 0.05146 0.70769 0.23987 0.0
H1618 H 0.12414 0.74332 0.25231 0.0
C1619 C 0.08226 0.81827 0.25971 0.0
C1620 C 0.51722 0.03397 1.00198 0.0
C1621 C 0.54372 0.04538 0.01279 0.0
H1622 H 0.5181 0.02989 0.98268 0.0
C1623 C 0.59313 0.0619 0.01215 0.0
H1624 H 0.4791 1.02145 1.00215 0.0
C1625 C 0.61553 0.06726 1.00096 0.0
C1626 C 0.58906 0.05612 0.99015 0.0
H1627 H 0.61469 0.07161 0.02027 0.0
H1628 H 0.65369 0.07995 1.00078 0.0
C1629 C 0.53962 0.03936 0.9908 0.0
C1630 C 0.07907 0.53904 0.99221 0.0
C1631 C 0.06221 0.57154 0.9913 0.0
H1632 H 0.0961 0.4966 0.00388 0.0
C1633 C 0.04936 0.58615 1.00198 0.0
H1634 H 0.08978 0.52745 0.98422 0.0
C1635 C 0.0535 0.56896 0.01328 0.0
C1636 C 0.07046 0.53654 0.0142 0.0
H1637 H 0.03646 0.61139 1.00162 0.0
H1638 H 0.04287 0.58062 0.02128 0.0
C1639 C 0.08317 0.52181 0.00352 0.0
C1640 C 0.59599 0.60587 0.00361 0.0
C1641 C 0.5828 0.57855 0.0143 0.0
H1642 H 0.59074 0.60576 0.98433 0.0
C1643 C 0.55357 0.52858 0.01353 0.0
H1644 H 0.61886 0.64451 0.00391 0.0
C1645 C 0.53809 0.50643 1.00229 0.0
C1646 C 0.55136 0.53376 0.9916 0.0
H1647 H 0.54347 0.50653 0.02157 0.0
H1648 H 0.51523 0.46779 1.00198 0.0
C1649 C 0.58057 0.58372 0.99237 0.0
C1650 C 0.05209 0.53151 0.51382 0.0
C1651 C 0.06956 0.58108 0.51431 0.0
H1652 H 1.0318 0.47009 0.50266 0.0
C1653 C 0.07983 0.6069 0.50341 0.0
H1654 H 0.04313 0.51044 0.52201 0.0
C1655 C 0.07296 0.58373 0.49227 0.0
C1656 C 0.05555 0.53415 0.49178 0.0
H1657 H 0.093 0.64514 0.50349 0.0
H1658 H 0.08205 0.60476 0.48407 0.0
C1659 C 0.045 0.50834 0.50269 0.0
C1660 C 0.55117 0.5884 0.49933 0.0
C1661 C 0.5744 0.5746 0.49075 0.0
H1662 H 0.5245 0.5813 0.51745 0.0
C1663 C 0.58905 0.54211 0.49431 0.0
H1664 H 0.53952 0.61355 0.49692 0.0
C1665 C 0.58072 0.52397 0.50613 0.0
C1666 C 0.55741 0.5377 0.51471 0.0
H1667 H 0.60739 0.53108 0.48801 0.0
H1668 H 0.59234 0.4988 0.50854 0.0
C1669 C 0.54285 0.57027 0.51115 0.0
C1670 C 0.5944 0.03934 0.50214 0.0
C1671 C 0.57672 0.04762 0.51295 0.0
H1672 H 0.59291 0.03903 0.48285 0.0
C1673 C 0.54203 0.06177 0.5123 0.0
H1674 H 0.62146 0.02875 0.50232 0.0
C1675 C 0.52568 0.06774 0.50106 0.0
C1676 C 0.54374 0.05974 0.49026 0.0
H1677 H 0.52832 0.06923 0.52044 0.0
H1678 H 0.49864 0.07834 0.50083 0.0
C1679 C 0.5784 0.04564 0.49096 0.0
C1680 C 0.2829 0.40532 0.33548 0.0
C1681 C 0.25758 0.39805 0.32458 0.0
H1682 H 0.28011 0.40309 0.35484 0.0
C1683 C 0.20803 0.38077 0.32512 0.0
H1684 H 0.32105 0.41801 0.33538 0.0
C1685 C 0.18449 0.37127 0.33626 0.0
C1686 C 0.20986 0.37913 0.34717 0.0
H1687 H 0.18724 0.37385 0.31693 0.0
H1688 H 0.14631 0.3585 0.33632 0.0
C1689 C 0.25936 0.39602 0.34664 0.0
C1690 C 0.72301 0.90779 0.3469 0.0
C1691 C 0.73771 0.87348 0.34758 0.0
H1692 H 0.70721 0.95197 0.33549 0.0
C1693 C 0.74749 0.85716 0.33673 0.0
H1694 H 0.71463 0.92076 0.35503 0.0
C1695 C 0.74254 0.87444 0.32553 0.0
C1696 C 0.72795 0.90882 0.32483 0.0
H1697 H 0.75861 0.83051 0.33688 0.0
H1698 H 0.75083 0.86133 0.31741 0.0
C1699 C 0.71824 0.92525 0.33568 0.0
C1700 C 0.24291 0.85685 0.32898 0.0
C1701 C 0.21319 0.87382 0.32473 0.0
H1702 H 0.28533 0.8553 0.34368 0.0
C1703 C 0.20238 0.90185 0.33253 0.0
H1704 H 0.25158 0.83494 0.32328 0.0
C1705 C 0.22113 0.91311 0.34423 0.0
C1706 C 0.25159 0.89699 0.3484 0.0
H1707 H 0.17945 0.91552 0.32956 0.0
H1708 H 0.21282 0.93544 0.34987 0.0
C1709 C 0.26192 0.86837 0.34069 0.0
C1710 C 0.71722 0.8441 0.83597 0.0
C1711 C 0.72552 0.86917 0.82502 0.0
H1712 H 0.71895 0.84723 0.85523 0.0
C1713 C 0.74243 0.91872 0.82541 0.0
H1714 H 0.7046 0.80597 0.83603 0.0
C1715 C 0.75071 0.94249 0.83653 0.0
C1716 C 0.74257 0.91727 0.84747 0.0
H1717 H 0.74994 0.93922 0.81715 0.0
H1718 H 0.76314 0.98058 0.83656 0.0
C1719 C 0.72598 0.86786 0.84702 0.0
C1720 C 0.19359 0.84338 0.83593 0.0
C1721 C 0.21383 0.86521 0.84709 0.0
H1722 H 0.19823 0.84787 0.81659 0.0
C1723 C 0.25589 0.91016 0.84702 0.0
H1724 H 0.16124 0.80855 0.83566 0.0
C1725 C 0.27774 0.93213 0.83604 0.0
C1726 C 0.25756 0.91007 0.82487 0.0
H1727 H 0.27271 0.92758 0.85543 0.0
H1728 H 0.31051 0.96659 0.83631 0.0
C1729 C 0.21486 0.86569 0.82498 0.0
C1730 C 0.20291 0.40804 0.83525 0.0
C1731 C 0.21706 0.39523 0.8245 0.0
H1732 H 0.20658 0.41106 0.85457 0.0
C1733 C 0.24597 0.37416 0.82523 0.0
H1734 H 0.18024 0.42399 0.83498 0.0
C1735 C 0.26027 0.366 0.83647 0.0
C1736 C 0.24614 0.37882 0.84722 0.0
H1737 H 0.25668 0.36303 0.81716 0.0
H1738 H 0.28307 0.35019 0.83675 0.0
C1739 C 0.21718 0.39982 0.84649 0.0
C1740 C 0.93185 0.7288 0.68043 0.0
C1741 C 0.886 0.72376 0.68005 0.0
H1742 H 0.99076 0.7334 0.67032 0.0
C1743 C 0.86556 0.72221 0.66867 0.0
H1744 H 0.94883 0.73054 0.68899 0.0
C1745 C 0.89013 0.72517 0.65795 0.0
C1746 C 0.93547 0.72913 0.65837 0.0
H1747 H 0.83027 0.71844 0.66802 0.0
H1748 H 0.87277 0.72217 0.64937 0.0
C1749 C 0.95609 0.73112 0.66972 0.0
C1750 C 0.41323 0.2075 0.65868 0.0
C1751 C 0.39786 0.24121 0.65778 0.0
H1752 H 0.42857 0.16369 0.67031 0.0
C1753 C 0.38622 0.25673 0.6685 0.0
H1754 H 0.42298 0.19514 0.65066 0.0
C1755 C 0.38987 0.23913 0.67981 0.0
C1756 C 0.40517 0.20537 0.68071 0.0
H1757 H 0.3745 0.28291 0.66818 0.0
H1758 H 0.38012 0.25151 0.68782 0.0
C1759 C 0.41687 0.18988 0.66999 0.0
C1760 C 0.87027 0.1746 0.66796 0.0
C1761 C 0.88529 0.20022 0.65702 0.0
H1762 H 0.87302 0.17746 0.68725 0.0
C1763 C 0.91519 0.25022 0.65742 0.0
H1764 H 0.84681 0.13602 0.66796 0.0
C1765 C 0.92967 0.27401 0.66851 0.0
C1766 C 0.91464 0.24834 0.67944 0.0
H1767 H 0.92668 0.27105 0.64918 0.0
H1768 H 0.95323 0.31257 0.66853 0.0
C1769 C 0.88461 0.19837 0.67903 0.0
C1770 C 0.41612 0.27091 0.16972 0.0
C1771 C 0.406 0.2452 0.18064 0.0
H1772 H 0.41665 0.26851 0.1504 0.0
C1773 C 0.38683 0.19533 0.18016 0.0
H1774 H 0.43055 0.30937 0.16976 0.0
C1775 C 0.37835 0.17186 0.16903 0.0
C1776 C 0.3887 0.19765 0.15812 0.0
H1777 H 0.37787 0.17437 0.18838 0.0
H1778 H 0.36437 0.13348 0.16895 0.0
C1779 C 0.40739 0.24743 0.1586 0.0
C1780 C 0.95588 0.2542 0.16919 0.0
C1781 C 0.9302 0.23801 0.15828 0.0
H1782 H 0.9538 0.25005 0.18856 0.0
C1783 C 0.88094 0.20421 0.15885 0.0
H1784 H 0.99383 0.28049 0.16911 0.0
C1785 C 0.85793 0.18737 0.16999 0.0
C1786 C 0.88353 0.20361 0.18091 0.0
H1787 H 0.85987 0.19133 0.15067 0.0
H1788 H 0.81993 0.16127 0.17005 0.0
C1789 C 0.93286 0.23721 0.18036 0.0
C1790 C 0.87688 0.74324 0.16922 0.0
C1791 C 0.89171 0.7316 0.15841 0.0
H1792 H 0.88111 0.74664 0.18848 0.0
C1793 C 0.92433 0.71478 0.15902 0.0
H1794 H 0.85162 0.75615 0.16908 0.0
C1795 C 0.94116 0.70917 0.17023 0.0
C1796 C 0.92553 0.72004 0.18104 0.0
H1797 H 0.93589 0.70486 0.15089 0.0
H1798 H 0.96641 0.69626 0.17045 0.0
C1799 C 0.8933 0.73724 0.18038 0.0
C1800 C 0.56915 0.77208 0.05137 0.0
C1801 C 0.6058 0.81915 0.049 0.0
H1802 H 0.54663 0.69784 0.05174 0.0
C1803 C 0.64991 0.82599 0.04451 0.0
H1804 H 0.53463 0.76518 0.0547 0.0
C1805 C 0.65736 0.78654 0.04288 0.0
C1806 C 0.62039 0.73945 0.04541 0.0
H1807 H 0.67899 0.86187 0.0426 0.0
H1808 H 0.69182 0.79288 0.03967 0.0
C1809 C 0.57617 0.73317 0.04956 0.0
C1810 C 0.34878 0.84294 0.05112 0.0
C1811 C 0.3021 0.83252 0.04835 0.0
H1812 H 0.42301 0.89431 0.0516 0.0
C1813 C 0.29589 0.86964 0.04347 0.0
H1814 H 0.35524 0.81545 0.05475 0.0
C1815 C 0.33564 0.91633 0.04172 0.0
C1816 C 0.38239 0.92632 0.04453 0.0
H1817 H 0.26028 0.86283 0.04125 0.0
H1818 H 0.32984 0.94427 0.03812 0.0
C1819 C 0.38798 0.88863 0.0492 0.0
C1820 C 0.23815 0.54676 0.04126 0.0
C1821 C 0.19762 0.50417 0.04527 0.0
H1822 H 0.31491 0.58813 0.03985 0.0
C1823 C 0.20508 0.4686 0.05047 0.0
H1824 H 0.23397 0.57506 0.03721 0.0
C1825 C 0.25186 0.47641 0.05211 0.0
C1826 C 0.29254 0.51974 0.04846 0.0
H1827 H 0.17491 0.43555 0.05375 0.0
H1828 H 0.25619 0.44864 0.05642 0.0
C1829 C 0.28478 0.55427 0.04273 0.0
C1830 C 0.78619 0.56163 0.46439 0.0
C1831 C 0.82907 0.59704 0.45903 0.0
H1832 H 0.71367 0.53928 0.46938 0.0
C1833 C 0.83178 0.64069 0.45568 0.0
H1834 H 0.78213 0.5274 0.46702 0.0
C1835 C 0.79219 0.64775 0.45717 0.0
C1836 C 0.7486 0.61111 0.46191 0.0
H1837 H 0.86424 0.66914 0.45164 0.0
H1838 H 0.79487 0.68079 0.45398 0.0
C1839 C 0.74666 0.56844 0.46573 0.0
C1840 C 0.55807 0.22054 0.45246 0.0
C1841 C 0.51519 0.18311 0.45737 0.0
H1842 H 0.59883 0.29433 0.44727 0.0
C1843 C 0.47968 0.19374 0.46103 0.0
H1844 H 0.58624 0.21398 0.44941 0.0
C1845 C 0.48736 0.24081 0.45988 0.0
C1846 C 0.5302 0.27793 0.45479 0.0
H1847 H 0.44629 0.16592 0.46485 0.0
H1848 H 0.45939 0.24793 0.46276 0.0
C1849 C 0.56529 0.26688 0.45112 0.0
C1850 C 0.89693 0.37201 0.45425 0.0
C1851 C 0.9334 0.3674 0.46005 0.0
H1852 H 0.82502 0.33827 0.44766 0.0
C1853 C 0.92241 0.32124 0.46384 0.0
H1854 H 0.90351 0.40651 0.45105 0.0
C1855 C 0.87594 0.28116 0.46193 0.0
C1856 C 0.84001 0.28629 0.45591 0.0
H1857 H 0.94937 0.31618 0.46835 0.0
H1858 H 0.86845 0.24608 0.46492 0.0
C1859 C 0.85149 0.33246 0.45218 0.0
C1860 C 0.55875 0.37843 0.95626 0.0
C1861 C 0.51452 0.37247 0.96031 0.0
H1862 H 0.59983 0.34578 0.95121 0.0
C1863 C 0.47688 0.32553 0.96256 0.0
H1864 H 0.58873 0.41373 0.95427 0.0
C1865 C 0.48374 0.28585 0.96085 0.0
C1866 C 0.52796 0.29231 0.95657 0.0
H1867 H 0.44237 0.3195 0.96564 0.0
H1868 H 0.45416 0.25009 0.9626 0.0
C1869 C 0.56522 0.33921 0.95437 0.0
C1870 C 0.83192 0.2392 0.95243 0.0
C1871 C 0.8294 0.2801 0.95589 0.0
H1872 H 0.79557 0.16218 0.95101 0.0
C1873 C 0.78685 0.27264 0.96142 0.0
H1874 H 0.8642 0.24326 0.94828 0.0
C1875 C 0.74747 0.22611 0.96294 0.0
C1876 C 0.74947 0.18531 0.95917 0.0
H1877 H 0.78318 0.30292 0.96416 0.0
H1878 H 0.71486 0.2222 0.96685 0.0
C1879 C 0.79268 0.19251 0.95412 0.0
C1880 C 0.87885 0.63038 0.96166 0.0
C1881 C 0.84313 0.58892 0.95575 0.0
H1882 H 0.95279 0.67063 0.96749 0.0
C1883 C 0.8554 0.5554 0.95153 0.0
H1884 H 0.87064 0.65707 0.96498 0.0
C1885 C 0.90164 0.56282 0.95309 0.0
C1886 C 0.93775 0.60434 0.95881 0.0
H1887 H 0.82898 0.52293 0.94705 0.0
H1888 H 0.90922 0.53592 0.94958 0.0
C1889 C 0.92594 0.63833 0.96304 0.0
C1890 C 0.34073 0.4674 0.54865 0.0
C1891 C 0.3835 0.50253 0.54323 0.0
H1892 H 0.27019 0.44837 0.55494 0.0
C1893 C 0.38527 0.54451 0.53889 0.0
H1894 H 0.33834 0.43505 0.55228 0.0
C1895 C 0.3463 0.55218 0.54036 0.0
C1896 C 0.30451 0.5185 0.54645 0.0
H1897 H 0.41778 0.57253 0.53474 0.0
H1898 H 0.35005 0.58583 0.53731 0.0
C1899 C 0.3019 0.47544 0.55032 0.0
C1900 C 0.65249 0.87628 0.55271 0.0
C1901 C 0.6138 0.8359 0.54714 0.0
H1902 H 0.68922 0.95285 0.55554 0.0
C1903 C 0.58485 0.84414 0.53913 0.0
H1904 H 0.67601 0.87164 0.55883 0.0
C1905 C 0.59265 0.89061 0.53722 0.0
C1906 C 0.63003 0.9307 0.54313 0.0
H1907 H 0.55455 0.81437 0.53473 0.0
H1908 H 0.56794 0.89492 0.53144 0.0
C1909 C 0.66067 0.92309 0.55067 0.0
C1910 C 0.28226 0.78209 0.53955 0.0
C1911 C 0.29101 0.82196 0.54659 0.0
H1912 H 0.23041 0.71279 0.53291 0.0
C1913 C 0.25129 0.82388 0.55129 0.0
H1914 H 0.31177 0.77902 0.53587 0.0
C1915 C 0.20426 0.78582 0.54949 0.0
C1916 C 0.19599 0.74477 0.54307 0.0
H1917 H 0.25665 0.85428 0.55666 0.0
H1918 H 0.17473 0.78734 0.55372 0.0
C1919 C 0.23548 0.74397 0.53787 0.0
C1920 C 0.27228 0.08005 0.39097 0.0
C1921 C 0.29245 0.07529 0.3802 0.0
H1922 H 0.24649 0.11883 0.401 0.0
C1923 C 0.30495 0.11025 0.37118 0.0
H1924 H 0.26172 0.05332 0.39803 0.0
C1925 C 0.29611 0.14863 0.37291 0.0
C1926 C 0.27495 0.15268 0.3837 0.0
H1927 H 0.31974 0.10696 0.36271 0.0
H1928 H 0.30557 0.17491 0.3658 0.0
C1929 C 0.26363 0.11788 0.39269 0.0
C1930 C 0.04151 0.21648 0.37381 0.0
C1931 C 0.04187 0.25752 0.37836 0.0
H1932 H 1.00418 0.13994 0.37225 0.0
C1933 C 1.00044 0.25121 0.38427 0.0
H1934 H 0.07279 0.2198 0.36925 0.0
C1935 C 0.96076 0.20482 0.3861 0.0
C1936 C 0.96122 0.16353 0.38194 0.0
H1937 H 0.99959 0.28183 0.38801 0.0
H1938 H 0.93 0.20126 0.39097 0.0
C1939 C 1.00187 0.1704 0.37551 0.0
C1940 C 0.86864 0.79986 0.38263 0.0
C1941 C 0.86156 0.83646 0.37797 0.0
H1942 H 0.91935 0.77882 0.3882 0.0
C1943 C 0.90241 0.88 0.37457 0.0
H1944 H 0.83822 0.76606 0.38543 0.0
C1945 C 0.9489 0.88742 0.37616 0.0
C1946 C 0.95625 0.85174 0.38134 0.0
H1947 H 0.89857 0.90917 0.37098 0.0
H1948 H 0.97919 0.92202 0.3738 0.0
C1949 C 0.91532 0.80748 0.38434 0.0
C1950 C 0.41379 0.90072 0.79803 0.0
C1951 C 0.41667 0.94363 0.79405 0.0
H1952 H 0.44799 0.85853 0.79948 0.0
C1953 C 0.46023 0.97909 0.78899 0.0
H1954 H 0.38088 0.87247 0.80195 0.0
C1955 C 0.49902 0.97088 0.78748 0.0
C1956 C 0.49555 0.92723 0.79113 0.0
H1957 H 0.4637 1.01238 0.78573 0.0
H1958 H 0.53158 0.99855 0.7833 0.0
C1959 C 0.45257 0.89276 0.79666 0.0
C1960 C 0.15021 0.57715 0.79396 0.0
C1961 C 0.19169 0.61347 0.78812 0.0
H1962 H 0.11073 0.5031 0.79983 0.0
C1963 C 0.22535 0.60151 0.78382 0.0
H1964 H 0.12328 0.58491 0.79734 0.0
C1965 C 0.21834 0.55538 0.78532 0.0
C1966 C 0.17718 0.51887 0.79112 0.0
H1967 H 0.2579 0.62821 0.77941 0.0
H1968 H 0.24565 0.54835 0.78183 0.0
C1969 C 0.14275 0.53014 0.79532 0.0
C1970 C 0.58859 0.65762 0.80014 0.0
C1971 C 0.60766 0.69896 0.79291 0.0
H1972 H 0.52712 0.58832 0.80394 0.0
C1973 C 0.57915 0.70097 0.78359 0.0
H1974 H 0.60945 0.65538 0.8075 0.0
C1975 C 0.53245 0.66366 0.78167 0.0
C1976 C 0.51239 0.62244 0.78896 0.0
H1977 H 0.59269 0.7324 0.77787 0.0
H1978 H 0.51161 0.66793 0.77463 0.0
C1979 C 0.54121 0.61967 0.79819 0.0
C1980 C 0.16962 0.64126 0.2797 0.0
C1981 C 0.18203 0.62155 0.28949 0.0
H1982 H 0.15304 0.69472 0.27363 0.0
C1983 C 0.18163 0.63908 0.30114 0.0
H1984 H 0.17028 0.62993 0.27056 0.0
C1985 C 0.17256 0.67708 0.30282 0.0
C1986 C 0.16196 0.69758 0.29298 0.0
H1987 H 0.18976 0.62448 0.30899 0.0
H1988 H 0.17563 0.6917 0.31178 0.0
C1989 C 0.15948 0.67851 0.28144 0.0
C1990 C 0.46907 0.52325 0.28642 0.0
C1991 C 0.43097 0.51607 0.29399 0.0
H1992 H 0.53681 0.57415 0.27848 0.0
C1993 C 0.43504 0.55601 0.30023 0.0
H1994 H 0.46677 0.49356 0.28128 0.0
C1995 C 0.47465 0.60205 0.29858 0.0
C1996 C 0.51177 0.61017 0.29052 0.0
H1997 H 0.40617 0.55201 0.30603 0.0
H1998 H 0.47464 0.63172 0.30316 0.0
C1999 C 0.50888 0.56975 0.28466 0.0
C2000 C 0.55251 0.97852 0.28881 0.0
C2001 C 0.51166 0.93484 0.29223 0.0
H2002 H 0.62948 1.01862 0.28692 0.0
C2003 C 0.51909 0.89927 0.29743 0.0
H2004 H 0.54845 1.0071 0.28491 0.0
C2005 C 0.56538 0.9061 0.29865 0.0
C2006 C 0.60603 0.94878 0.29475 0.0
H2007 H 0.48895 0.86499 0.30006 0.0
H2008 H 0.56912 0.87693 0.30229 0.0
C2009 C 0.59913 0.98547 0.29009 0.0
C2010 C 1.00524 0.7977 0.8828 0.0
C2011 C 0.04896 0.83484 0.87825 0.0
H2012 H 0.93291 0.77547 0.8882 0.0
C2013 C 0.05111 0.87798 0.8748 0.0
H2014 H 1.0023 0.76419 0.88567 0.0
C2015 C 1.01147 0.88453 0.87625 0.0
C2016 C 0.96833 0.84833 0.88132 0.0
H2017 H 0.08413 0.90753 0.87129 0.0
H2018 H 1.01549 0.91896 0.87387 0.0
C2019 C 0.96557 0.80445 0.88439 0.0
C2020 C 0.33041 0.25431 0.88367 0.0
C2021 C 0.29568 0.26058 0.87756 0.0
H2022 H 0.3504 0.20438 0.89056 0.0
C2023 C 0.25538 0.21958 0.87283 0.0
H2024 H 0.36158 0.2849 0.88754 0.0
C2025 C 0.24872 0.17353 0.8746 0.0
C2026 C 0.28198 0.16668 0.88125 0.0
H2027 H 0.22773 0.22287 0.8681 0.0
H2028 H 0.21611 0.14309 0.87123 0.0
C2029 C 0.32354 0.20794 0.88553 0.0
C2030 C 0.87919 0.1201 0.87581 0.0
C2031 C 0.86386 0.07516 0.88117 0.0
H2032 H 0.93803 0.19237 0.87335 0.0
C2033 C 0.89618 0.06944 0.88852 0.0
H2034 H 0.85513 0.12548 0.87006 0.0
C2035 C 0.94272 0.10676 0.89034 0.0
C2036 C 0.95889 0.1516 0.88494 0.0
H2037 H 0.88559 0.03562 0.89294 0.0
H2038 H 0.96641 0.10004 0.8959 0.0
C2039 C 0.92666 0.15805 0.8776 0.0
C2040 C 0.99914 0.46001 0.70992 0.0
C2041 C 0.95938 0.41312 0.70982 0.0
H2042 H 1.02356 0.53554 0.71203 0.0
C2043 C 0.91325 0.40743 0.7114 0.0
H2044 H 0.03507 0.46586 0.70875 0.0
C2045 C 0.90694 0.44642 0.71353 0.0
C2046 C 0.94627 0.49296 0.71392 0.0
H2047 H 0.88124 0.37235 0.71138 0.0
H2048 H 0.8709 0.44001 0.71497 0.0
C2049 C 0.99254 0.49977 0.71181 0.0
C2050 C 0.6357 0.54165 0.71794 0.0
C2051 C 0.63667 0.50047 0.71395 0.0
H2052 H 0.6733 0.61873 0.71944 0.0
C2053 C 0.67731 0.50756 0.70746 0.0
H2054 H 0.60494 0.53791 0.72285 0.0
C2055 C 0.71643 0.55389 0.70552 0.0
C2056 C 0.71612 0.59494 0.70982 0.0
H2057 H 0.67987 0.47711 0.7043 0.0
H2058 H 0.74774 0.55747 0.70092 0.0
C2059 C 0.6747 0.5882 0.71584 0.0
C2060 C 0.57155 0.21623 0.70799 0.0
C2061 C 0.531 0.17249 0.71136 0.0
H2062 H 0.6481 0.25842 0.70694 0.0
C2063 C 0.53841 0.13557 0.71564 0.0
H2064 H 0.5675 0.24563 0.70466 0.0
C2065 C 0.58521 0.14305 0.71699 0.0
C2066 C 0.62588 0.1875 0.71399 0.0
H2067 H 0.50818 0.10154 0.71839 0.0
H2068 H 0.58954 0.11414 0.72055 0.0
C2069 C 0.61809 0.22355 0.70924 0.0
C2070 C 0.13046 0.23384 0.13194 0.0
C2071 C 0.16993 0.26447 0.12471 0.0
H2072 H 0.06148 0.21661 0.13872 0.0
C2073 C 0.17161 0.30573 0.11981 0.0
H2074 H 0.1275 0.20151 0.13575 0.0
C2075 C 0.13355 0.31468 0.12163 0.0
C2076 C 0.09286 0.28219 0.12823 0.0
H2077 H 0.20168 0.33033 0.11428 0.0
H2078 H 0.13463 0.34524 0.11723 0.0
C2079 C 0.09244 0.24247 0.13363 0.0
C2080 C 0.81426 0.90343 0.12101 0.0
C2081 C 0.85734 0.94458 0.12466 0.0
H2082 H 0.77447 0.82626 0.11938 0.0
C2083 C 0.89209 0.93728 0.13043 0.0
H2084 H 0.78628 0.90725 0.11666 0.0
C2085 C 0.88509 0.89105 0.13205 0.0
C2086 C 0.84302 0.85007 0.12801 0.0
H2087 H 0.92599 0.96749 0.13324 0.0
H2088 H 0.91374 0.88759 0.13615 0.0
C2089 C 0.80711 0.85679 0.12271 0.0
C2090 C 0.25543 0.02359 0.11296 0.0
C2091 C 0.27924 0.02675 0.12381 0.0
H2092 H 0.19053 0.98835 0.10286 0.0
C2093 C 0.25473 0.99201 0.13274 0.0
H2094 H 0.27286 0.05097 0.10609 0.0
C2095 C 0.20689 0.95526 0.13087 0.0
C2096 C 0.18238 0.95303 0.1201 0.0
H2097 H 0.27169 0.99456 0.14135 0.0
H2098 H 0.18891 0.92919 0.13796 0.0
C2099 C 0.20787 0.98756 0.11114 0.0
C2100 C 0.87468 0.9908 0.61528 0.0
C2101 C 0.85079 0.95045 0.62279 0.0
H2102 H 0.88843 0.06119 0.6109 0.0
C2103 C 0.8198 0.95088 0.63177 0.0
H2104 H 0.89913 0.99226 0.60836 0.0
C2105 C 0.81312 0.99078 0.63315 0.0
C2106 C 0.83809 0.03131 0.62573 0.0
H2107 H 0.80059 0.92031 0.63769 0.0
H2108 H 0.78971 0.99052 0.6402 0.0
C2109 C 0.86866 0.03054 0.61678 0.0
C2110 C 0.16982 0.90856 0.62583 0.0
C2111 C 0.16534 0.94304 0.6189 0.0
H2112 H 0.13514 0.8358 0.63265 0.0
C2113 C 0.121 0.92844 0.61328 0.0
H2114 H 0.20346 0.9182 0.63023 0.0
C2115 C 0.08236 0.88176 0.61469 0.0
C2116 C 0.08634 0.84741 0.62169 0.0
H2117 H 0.11555 0.95356 0.60799 0.0
H2118 H 0.04872 0.87264 0.61034 0.0
C2119 C 0.13088 0.86112 0.62712 0.0
C2120 C 0.23145 0.23205 0.63132 0.0
C2121 C 0.27143 0.27431 0.62694 0.0
H2122 H 0.15483 0.18995 0.63294 0.0
C2123 C 0.26318 0.30876 0.62139 0.0
H2124 H 0.2363 0.20462 0.63564 0.0
C2125 C 0.21608 0.30001 0.61971 0.0
C2126 C 0.17594 0.25686 0.62368 0.0
H2127 H 0.29293 0.34148 0.61782 0.0
H2128 H 0.21107 0.32678 0.61508 0.0
C2129 C 0.18453 0.22363 0.6298 0.0
C2130 C 0.68302 0.22155 0.20842 0.0
C2131 C 0.64099 0.18792 0.21445 0.0
H2132 H 0.75409 0.24121 0.20262 0.0
C2133 C 0.63813 0.14474 0.21831 0.0
H2134 H 0.68697 0.25528 0.20537 0.0
C2135 C 0.67672 0.13635 0.21661 0.0
C2136 C 0.71958 0.17114 0.21113 0.0
H2137 H 0.60623 0.1176 0.22285 0.0
H2138 H 0.67376 0.10356 0.22009 0.0
C2139 C 0.72173 0.21345 0.20687 0.0
C2140 C 0.92066 0.55447 0.20633 0.0
C2141 C 0.96193 0.59463 0.21102 0.0
H2142 H 0.87923 0.47797 0.20469 0.0
C2143 C 0.99578 0.58684 0.21707 0.0
H2144 H 0.89361 0.55897 0.20167 0.0
C2145 C 0.98721 0.53989 0.2189 0.0
C2146 C 0.94482 0.49956 0.21464 0.0
H2147 H 1.02761 0.61674 0.22093 0.0
H2148 H 1.01345 0.53513 0.22388 0.0
C2149 C 0.91235 0.50778 0.20805 0.0
C2150 C 0.5604 0.41219 0.22182 0.0
C2151 C 0.53042 0.41219 0.2126 0.0
H2152 H 0.628 0.44979 0.23086 0.0
C2153 C 0.5475 0.45316 0.20526 0.0
H2154 H 0.5484 0.38122 0.22764 0.0
C2155 C 0.59422 0.49275 0.20699 0.0
C2156 C 0.62403 0.49248 0.2163 0.0
H2157 H 0.52543 0.45404 0.19801 0.0
H2158 H 0.60692 0.52364 0.20113 0.0
C2159 C 0.60612 0.45168 0.2237 0.0
C2160 C 0.56907 0.42875 0.05767 0.0
C2161 C 0.60313 0.46399 0.04994 0.0
H2162 H 0.52693 0.35404 0.06197 0.0
C2163 C 0.6234 0.4496 0.04078 0.0
H2164 H 0.55256 0.43865 0.06477 0.0
C2165 C 0.60789 0.40069 0.039 0.0
C2166 C 0.57255 0.36527 0.04651 0.0
H2167 H 0.64919 0.47581 0.03457 0.0
H2168 H 0.62289 0.39048 0.0316 0.0
C2169 C 0.55437 0.38018 0.05606 0.0
C2170 C 0.74629 0.19316 0.04303 0.0
C2171 C 0.76198 0.24231 0.04351 0.0
H2172 H 0.68809 0.12176 0.04379 0.0
C2173 C 0.72763 0.25664 0.04546 0.0
H2174 H 0.77161 0.18065 0.04184 0.0
C2175 C 0.67848 0.22216 0.04663 0.0
C2176 C 0.66316 0.1729 0.04605 0.0
H2177 H 0.73866 0.29436 0.04591 0.0
H2178 H 0.65271 0.23398 0.04799 0.0
C2179 C 0.69796 0.15919 0.04428 0.0
C2180 C 0.90265 0.49948 0.04006 0.0
C2181 C 0.93574 0.51748 0.04961 0.0
H2182 H 0.84575 0.50251 0.03067 0.0
C2183 C 0.93329 0.54955 0.05778 0.0
H2184 H 0.90411 0.47523 0.03353 0.0
C2185 C 0.90009 0.56498 0.0562 0.0
C2186 C 0.86871 0.54933 0.04628 0.0
H2187 H 0.95849 0.56428 0.06519 0.0
H2188 H 0.90075 0.59118 0.06243 0.0
C2189 C 0.86971 0.51561 0.03835 0.0
C2190 C 0.43478 0.54642 0.44964 0.0
C2191 C 0.47044 0.58844 0.45522 0.0
H2192 H 0.35991 0.49825 0.44686 0.0
C2193 C 0.45639 0.61662 0.46182 0.0
H2194 H 0.44447 0.52382 0.44454 0.0
C2195 C 0.40735 0.60145 0.46331 0.0
C2196 C 0.37157 0.55832 0.45805 0.0
H2197 H 0.48305 0.64883 0.46634 0.0
H2198 H 0.39738 0.62297 0.46877 0.0
C2199 C 0.38617 0.53178 0.45095 0.0
C2200 C 0.58227 0.89972 0.46986 0.0
C2201 C 0.56668 0.86109 0.46182 0.0
H2202 H 0.57995 0.96257 0.47487 0.0
C2203 C 0.53106 0.85371 0.45328 0.0
H2204 H 0.60989 0.90694 0.47645 0.0
C2205 C 0.51327 0.88564 0.45247 0.0
C2206 C 0.53135 0.92578 0.46008 0.0
H2207 H 0.51794 0.82403 0.447 0.0
H2208 H 0.48776 0.8806 0.44546 0.0
C2209 C 0.56511 0.93173 0.46894 0.0
C2210 C 0.25996 0.71193 0.46246 0.0
C2211 C 0.25282 0.74607 0.45623 0.0
H2212 H 0.23151 0.63732 0.46691 0.0
C2213 C 0.21174 0.7295 0.44898 0.0
H2214 H 0.2914 0.7234 0.46805 0.0
C2215 C 0.17767 0.68068 0.44841 0.0
C2216 C 0.18386 0.64673 0.45492 0.0
H2217 H 0.20467 0.75453 0.44414 0.0
H2218 H 0.14556 0.66955 0.44309 0.0
C2219 C 0.22599 0.66262 0.46171 0.0
C2220 C 0.51166 0.66477 0.96219 0.0
C2221 C 0.53365 0.64793 0.95415 0.0
H2222 H 0.51154 0.72648 0.9696 0.0
C2223 C 0.5704 0.68117 0.9466 0.0
H2224 H 0.48366 0.64011 0.96822 0.0
C2225 C 0.58641 0.73015 0.9474 0.0
C2226 C 0.56639 0.74771 0.95583 0.0
H2227 H 0.58825 0.66943 0.94033 0.0
H2228 H 0.61621 0.7545 0.94176 0.0
C2229 C 0.52812 0.71429 0.96308 0.0
C2230 C 0.39152 0.88785 0.94739 0.0
C2231 C 0.37461 0.85726 0.95746 0.0
H2232 H 0.45184 0.94546 0.93848 0.0
C2233 C 0.40843 0.8586 0.96576 0.0
H2234 H 0.36669 0.88826 0.94088 0.0
C2235 C 0.45778 0.89114 0.96425 0.0
C2236 C 0.474 0.92343 0.95452 0.0
H2237 H 0.39663 0.83527 0.97357 0.0
H2238 H 0.48279 0.89307 0.97106 0.0
C2239 C 0.44042 0.92066 0.946 0.0
C2240 C 0.20154 0.56097 0.94758 0.0
C2241 C 0.2002 0.59412 0.95557 0.0
H2242 H 0.2334 0.51872 0.94301 0.0
C2243 C 0.23483 0.61389 0.96475 0.0
H2244 H 0.17513 0.54495 0.94046 0.0
C2245 C 0.26818 0.59825 0.96633 0.0
C2246 C 0.26791 0.56323 0.95864 0.0
H2247 H 0.23423 0.63905 0.97112 0.0
H2248 H 0.29335 0.61261 0.97375 0.0
C2249 C 0.23505 0.54595 0.94904 0.0
C2250 C 0.6928 0.56236 0.55765 0.0
C2251 C 0.65905 0.52152 0.55131 0.0
H2252 H 0.76657 0.61076 0.56162 0.0
C2253 C 0.67524 0.4954 0.5446 0.0
H2254 H 0.68139 0.58343 0.56283 0.0
C2255 C 0.72471 0.51156 0.54376 0.0
C2256 C 0.75865 0.55364 0.54979 0.0
H2257 H 0.65005 0.46423 0.53948 0.0
H2258 H 0.73648 0.49173 0.53821 0.0
C2259 C 0.74176 0.57802 0.55697 0.0
C2260 C 0.53566 0.16016 0.55497 0.0
C2261 C 0.57088 0.16273 0.54704 0.0
H2262 H 0.4925 0.19017 0.56049 0.0
C2263 C 0.58993 0.19932 0.53831 0.0
H2264 H 0.52037 0.13242 0.56181 0.0
C2265 C 0.5732 0.23203 0.53738 0.0
C2266 C 0.53799 0.22949 0.54537 0.0
H2267 H 0.61682 0.2019 0.53201 0.0
H2268 H 0.5881 0.25956 0.5305 0.0
C2269 C 0.51981 0.19337 0.55424 0.0
C2270 C 0.91224 0.44908 0.54164 0.0
C2271 C 0.94959 0.46581 0.55009 0.0
H2272 H 0.85317 0.38731 0.5334 0.0
C2273 C 0.95415 0.43264 0.55736 0.0
H2274 H 0.90857 0.47401 0.5358 0.0
C2275 C 0.923 0.38353 0.55599 0.0
C2276 C 0.88684 0.3663 0.54719 0.0
H2277 H 0.98296 0.44473 0.56389 0.0
H2278 H 0.92831 0.35895 0.56156 0.0
C2279 C 0.88124 0.39958 0.54013 0.0
C2280 C 0.26511 0.72631 0.38496 0.0
C2281 C 0.22427 0.69688 0.37787 0.0
H2282 H 0.31315 0.79767 0.39159 0.0
C2283 C 0.2033 0.71838 0.37115 0.0
H2284 H 0.2827 0.71086 0.39007 0.0
C2285 C 0.22117 0.76748 0.37186 0.0
C2286 C 0.26021 0.79661 0.37941 0.0
H2287 H 0.17175 0.69709 0.36569 0.0
H2288 H 0.20306 0.78244 0.36675 0.0
C2289 C 0.28306 0.77599 0.38571 0.0
C2290 C 0.397 0.55271 0.36873 0.0
C2291 C 0.4268 0.56983 0.37899 0.0
H2292 H 0.326 0.50676 0.36179 0.0
C2293 C 0.40539 0.55387 0.39041 0.0
H2294 H 0.41187 0.56321 0.35976 0.0
C2295 C 0.35637 0.52045 0.39151 0.0
C2296 C 0.32709 0.50313 0.38126 0.0
H2297 H 0.42648 0.56693 0.39857 0.0
H2298 H 0.34129 0.50809 0.40041 0.0
C2299 C 0.34767 0.52016 0.36987 0.0
C2300 C 0.58191 0.91562 0.38935 0.0
C2301 C 0.54305 0.8955 0.38128 0.0
H2302 H 0.64424 0.91607 0.39605 0.0
C2303 C 0.53616 0.8562 0.37415 0.0
H2304 H 0.58904 0.94623 0.39487 0.0
C2305 C 0.56825 0.83849 0.37491 0.0
C2306 C 0.60801 0.86029 0.38268 0.0
H2307 H 0.5064 0.83959 0.3679 0.0
H2308 H 0.56333 0.80952 0.36903 0.0
C2309 C 0.61379 0.89836 0.39002 0.0
C2310 C 0.10756 0.89863 0.78162 0.0
C2311 C 0.14278 0.93279 0.78933 0.0
H2312 H 1.03298 0.85611 0.77736 0.0
C2313 C 0.12854 0.95386 0.79831 0.0
H2314 H 0.11737 0.88163 0.77463 0.0
C2315 C 0.07962 0.93867 0.79999 0.0
C2316 C 0.04415 0.90271 0.7926 0.0
H2317 H 0.15476 0.97988 0.80447 0.0
H2318 H 0.06945 0.95419 0.80726 0.0
C2319 C 0.05905 0.88403 0.78317 0.0
C2320 C 0.22196 0.21351 0.80232 0.0
C2321 C 0.24536 0.20555 0.7926 0.0
H2322 H 0.1877 0.25181 0.80887 0.0
C2323 C 0.24795 0.22798 0.78152 0.0
H2324 H 0.21952 0.19717 0.81102 0.0
C2325 C 0.23028 0.25953 0.78036 0.0
C2326 C 0.20873 0.269 0.79018 0.0
H2327 H 0.26441 0.2218 0.77373 0.0
H2328 H 0.23433 0.27732 0.77179 0.0
C2329 C 0.20364 0.24478 0.8011 0.0
C2330 C 0.9145 0.04913 0.79783 0.0
C2331 C 0.90607 0.08148 0.79119 0.0
H2332 H 0.89047 0.97516 0.80198 0.0
C2333 C 0.86779 0.06317 0.78298 0.0
H2334 H 0.94419 0.06231 0.80411 0.0
C2335 C 0.83741 1.01379 0.78179 0.0
C2336 C 0.84504 0.98146 0.7886 0.0
H2337 H 0.86039 0.08712 0.77774 0.0
H2338 H 0.80698 1.0008 0.77574 0.0
C2339 C 0.88441 0.9994 0.79647 0.0
C2340 C 0.19397 1.00659 0.28663 0.0
C2341 C 0.22239 0.98745 0.29053 0.0
H2342 H 0.18876 0.06989 0.28419 0.0
C2343 C 0.26876 1.01892 0.29494 0.0
H2344 H 0.15816 0.98329 0.28317 0.0
C2345 C 0.28641 0.06824 0.29544 0.0
C2346 C 0.25821 0.08771 0.29156 0.0
H2347 H 0.29167 1.0055 0.2981 0.0
H2348 H 0.32239 0.09115 0.29884 0.0
C2349 C 0.21178 0.05627 0.28709 0.0
C2350 C 0.1238 0.23618 0.28769 0.0
C2351 C 0.13958 0.28525 0.28917 0.0
H2352 H 0.06401 0.16397 0.28801 0.0
C2353 C 0.10515 0.29862 0.29195 0.0
H2354 H 0.14924 0.22454 0.2856 0.0
C2355 C 0.0567 0.2642 0.29337 0.0
C2356 C 0.04071 0.21505 0.29204 0.0
H2357 H 0.11559 0.33597 0.29315 0.0
H2358 H 1.03159 0.27631 0.29542 0.0
C2359 C 0.07489 0.20149 0.28906 0.0
C2360 C 0.87299 0.85346 0.29923 0.0
C2361 C 0.92017 0.88276 0.29515 0.0
H2362 H 0.80316 0.84394 0.30131 0.0
C2363 C 0.933 0.92793 0.29014 0.0
H2364 H 0.86148 0.81822 0.30294 0.0
C2365 C 0.89895 0.94298 0.28915 0.0
C2366 C 0.85148 0.91273 0.29298 0.0
H2367 H 0.96922 0.95147 0.28697 0.0
H2368 H 0.90936 0.97747 0.28511 0.0
C2369 C 0.83928 0.86817 0.29816 0.0
C2370 C 0.36111 0.90133 0.88698 0.0
C2371 C 0.32648 0.85979 0.88101 0.0
H2372 H 0.43516 0.94855 0.89091 0.0
C2373 C 0.34169 0.83198 0.87467 0.0
H2374 H 0.35064 0.92352 0.89199 0.0
C2375 C 0.39094 0.84683 0.87394 0.0
C2376 C 0.42559 0.8891 0.87976 0.0
H2377 H 0.31586 0.79997 0.86993 0.0
H2378 H 0.40196 0.82547 0.86877 0.0
C2379 C 0.40973 0.9156 0.88642 0.0
C2380 C 0.25014 0.57038 0.87279 0.0
C2381 C 0.21413 0.56666 0.88069 0.0
H2382 H 0.29402 0.54082 0.86718 0.0
C2383 C 0.19517 0.52935 0.88921 0.0
H2384 H 0.26574 0.59889 0.86616 0.0
C2385 C 0.21132 0.49652 0.8898 0.0
C2386 C 0.24702 0.49984 0.8819 0.0
H2387 H 0.16695 0.5248 0.89532 0.0
H2388 H 0.19534 0.46811 0.89645 0.0
C2389 C 0.26666 0.53743 0.87344 0.0
C2390 C 0.54144 0.72846 0.88158 0.0
C2391 C 0.55515 0.69736 0.87624 0.0
H2392 H 0.5634 0.80091 0.88688 0.0
C2393 C 0.60132 0.71655 0.87144 0.0
H2394 H 0.50566 0.71449 0.88523 0.0
C2395 C 0.63388 0.76535 0.87242 0.0
C2396 C 0.62106 0.79636 0.87814 0.0
H2397 H 0.61299 0.69356 0.86735 0.0
H2398 H 0.66972 0.77853 0.8689 0.0
C2399 C 0.57415 0.7778 0.88245 0.0
C2400 C 0.86217 0.05133 0.70604 0.0
C2401 C 0.89301 0.03483 0.7097 0.0
H2402 H 0.85048 0.11061 0.70456 0.0
C2403 C 0.93822 0.06796 0.71454 0.0
H2404 H 0.8269 0.02674 0.70246 0.0
C2405 C 0.95205 0.11658 0.71575 0.0
C2406 C 0.92051 0.13262 0.71234 0.0
H2407 H 0.9628 0.0562 0.71742 0.0
H2408 H 0.98681 0.14128 0.71957 0.0
C2409 C 0.87563 0.09948 0.70739 0.0
C2410 C 1.01571 0.87363 0.70486 0.0
C2411 C 0.99656 0.84715 0.71551 0.0
H2412 H 0.07922 0.92261 0.6951 0.0
C2413 C 1.02791 0.85359 0.72505 0.0
H2414 H 0.99255 0.86864 0.69726 0.0
C2415 C 0.07735 0.88481 0.7239 0.0
C2416 C 0.09712 0.90984 0.71307 0.0
H2417 H 1.01422 0.83369 0.73337 0.0
H2418 H 0.10017 0.88878 0.7315 0.0
C2419 C 0.06547 0.90446 0.70363 0.0
C2420 C 0.27105 0.22366 0.72316 0.0
C2421 C 0.26982 0.18647 0.71623 0.0
H2422 H 0.24048 0.2679 0.72674 0.0
C2423 C 0.23189 0.16202 0.70803 0.0
H2424 H 0.29976 0.24328 0.72957 0.0
C2425 C 0.19767 0.17656 0.70632 0.0
C2426 C 0.20032 0.21533 0.71291 0.0
H2427 H 0.23012 0.13347 0.70249 0.0
H2428 H 0.16974 0.15812 0.69966 0.0
C2429 C 0.2368 0.23772 0.72157 0.0
C2430 C 0.79451 0.27297 0.12356 0.0
C2431 C 0.81094 0.24146 0.12665 0.0
H2432 H 0.73342 0.28256 0.12192 0.0
C2433 C 0.77797 0.19565 0.13117 0.0
H2434 H 0.81909 0.30847 0.12011 0.0
C2435 C 0.7295 0.18101 0.13227 0.0
C2436 C 0.7126 0.21163 0.12879 0.0
H2437 H 0.78942 0.17051 0.13377 0.0
H2438 H 0.70498 0.14505 0.13547 0.0
C2439 C 0.74558 0.25803 0.12456 0.0
C2440 C 0.87701 0.53469 0.13419 0.0
C2441 C 0.91009 0.5341 0.12598 0.0
H2442 H 0.83702 0.56855 0.13965 0.0
C2443 C 0.92689 0.56758 0.11649 0.0
H2444 H 0.86309 0.50917 0.14155 0.0
C2445 C 0.9122 0.6016 0.11544 0.0
C2446 C 0.87986 0.60282 0.12377 0.0
H2447 H 0.95271 0.56855 0.11007 0.0
H2448 H 0.92684 0.62749 0.10818 0.0
C2449 C 0.86177 0.56844 0.13305 0.0
C2450 C 0.56823 0.38689 0.13523 0.0
C2451 C 0.56065 0.42034 0.12889 0.0
H2452 H 0.54407 0.31247 0.13854 0.0
C2453 C 0.52147 0.40353 0.12098 0.0
H2454 H 0.59855 0.39893 0.14127 0.0
C2455 C 0.49028 0.35435 0.11949 0.0
C2456 C 0.49818 0.32087 0.12568 0.0
H2457 H 0.51492 0.42852 0.11594 0.0
H2458 H 0.46018 0.34249 0.11339 0.0
C2459 C 0.53751 0.33753 0.13355 0.0
C2460 C 0.84752 0.32912 0.62599 0.0
C2461 C 0.87215 0.3118 0.61907 0.0
H2462 H 0.84585 0.39114 0.63245 0.0
C2463 C 0.91242 0.34472 0.61239 0.0
H2464 H 0.81657 0.30464 0.63129 0.0
C2465 C 0.92949 0.39393 0.61311 0.0
C2466 C 0.90686 0.412 0.62056 0.0
H2467 H 0.93213 0.3325 0.60693 0.0
H2468 H 0.96207 0.41785 0.60828 0.0
C2469 C 0.86481 0.37877 0.62676 0.0
C2470 C 0.78874 0.5505 0.62185 0.0
C2471 C 0.80946 0.59358 0.62839 0.0
H2472 H 0.72357 0.486 0.61712 0.0
C2473 C 0.78022 0.60299 0.63597 0.0
H2474 H 0.81046 0.54291 0.61578 0.0
C2475 C 0.73098 0.57075 0.63679 0.0
C2476 C 0.70941 0.52849 0.62989 0.0
H2477 H 0.79533 0.6363 0.64099 0.0
H2478 H 0.70946 0.58017 0.64243 0.0
C2479 C 0.739 0.51834 0.62253 0.0
C2480 C 0.56612 0.21072 0.61573 0.0
C2481 C 0.60068 0.23 0.62493 0.0
H2482 H 0.50501 0.20823 0.60745 0.0
C2483 C 0.60225 0.26662 0.63223 0.0
H2484 H 0.56341 0.18224 0.61 0.0
C2485 C 0.56866 0.282 0.63068 0.0
C2486 C 0.5325 0.26046 0.62191 0.0
H2487 H 0.62873 0.28257 0.63933 0.0
H2488 H 0.56932 0.30864 0.63676 0.0
C2489 C 0.53246 0.22557 0.61428 0.0
C2490 C 1.01001 0.16534 0.20855 0.0
C2491 C 0.99552 0.18813 0.21699 0.0
H2492 H 0.06945 0.16378 0.20014 0.0
C2493 C 1.03059 0.22456 0.22427 0.0
H2494 H 0.98383 0.13751 0.20274 0.0
C2495 C 0.07914 0.23948 0.22282 0.0
C2496 C 0.09423 0.21873 0.21396 0.0
H2497 H 1.0206 0.24293 0.23083 0.0
H2498 H 0.10506 0.26903 0.22827 0.0
C2499 C 0.05902 0.1808 0.20698 0.0
C2500 C 0.86903 0.86418 0.20617 0.0
C2501 C 0.89671 0.91028 0.21108 0.0
H2502 H 0.86016 0.79467 0.20357 0.0
C2503 C 0.93987 0.92145 0.21703 0.0
H2504 H 0.83535 0.85385 0.20169 0.0
C2505 C 0.95455 0.88702 0.21808 0.0
C2506 C 0.9258 0.84054 0.21341 0.0
H2507 H 0.9622 0.95672 0.22089 0.0
H2508 H 0.98751 0.8963 0.2228 0.0
C2509 C 0.8832 0.82995 0.20735 0.0
C2510 C 0.20548 0.06741 0.2092 0.0
C2511 C 0.21053 0.0335 0.21615 0.0
H2512 H 0.23535 0.14183 0.20436 0.0
C2513 C 0.24915 0.05034 0.22426 0.0
H2514 H 0.17594 0.05573 0.20293 0.0
C2515 C 0.28293 0.09922 0.22503 0.0
C2516 C 0.27892 0.13295 0.21782 0.0
H2517 H 0.25462 0.02549 0.22967 0.0
H2518 H 0.31323 0.11052 0.23104 0.0
C2519 C 0.23913 0.11675 0.21011 0.0
loop_
_geom_bond_atom_site_label_1
_geom_bond_atom_site_label_2
_geom_bond_distance
_geom_bond_site_symmetry_2
_ccdc_geom_bond_type
C0 Eu1 2.835 1_565 S
C0 C2 1.500 . S
C0 O20 1.257 . S
C0 O21 1.260 . S
Eu1 C0 2.835 1_545 S
Eu1 O20 2.473 1_545 S
Eu1 O21 2.480 1_545 S
Eu1 O22 2.430 . S
Eu1 O23 2.670 . S
Eu1 O24 2.394 1_545 S
Eu1 O29 2.355 . S
Eu1 O31 2.374 . S
C2 C0 1.500 . S
C2 C3 1.377 . S
C2 C7 1.377 . S
C3 C2 1.377 . S
C3 C4 1.395 . S
C3 H32 0.931 . S
C4 C3 1.395 . S
C4 C5 1.383 . S
C4 H33 0.931 . S
C5 C4 1.383 . S
C5 C6 1.394 . S
C6 C5 1.394 . S
C6 C7 1.378 . S
C6 H34 0.931 . S
C7 C2 1.377 . S
C7 C6 1.378 . S
C7 H35 0.931 . S
C8 O22 1.259 . S
C8 O23 1.270 . S
C9 O24 1.251 . S
C9 O25 1.251 . S
C10 Eu11 2.835 . S
C10 C12 1.500 . S
C10 O26 1.257 . S
C10 O27 1.260 . S
Eu11 C10 2.835 . S
Eu11 O23 2.355 . S
Eu11 O25 2.374 1_545 S
Eu11 O26 2.473 . S
Eu11 O27 2.480 . S
Eu11 O28 2.430 . S
Eu11 O29 2.670 . S
Eu11 O30 2.394 . S
C12 C10 1.500 . S
C12 C13 1.377 . S
C12 C17 1.377 . S
C13 C12 1.377 . S
C13 C14 1.395 . S
C13 H36 0.931 . S
C14 C13 1.395 . S
C14 C15 1.383 . S
C14 H37 0.931 . S
C15 C14 1.383 . S
C15 C16 1.394 . S
C16 C15 1.394 . S
C16 C17 1.378 . S
C16 H38 0.931 . S
C17 C12 1.377 . S
C17 C16 1.378 . S
C17 H39 0.931 . S
C18 O28 1.259 . S
C18 O29 1.270 . S
C19 O30 1.251 . S
C19 O31 1.251 . S
O20 C0 1.257 . S
O20 Eu1 2.473 1_565 S
O21 C0 1.260 . S
O21 Eu1 2.480 1_565 S
O22 Eu1 2.430 . S
O22 C8 1.259 . S
O23 Eu1 2.670 . S
O23 C8 1.270 . S
O23 Eu11 2.355 . S
O24 Eu1 2.394 1_565 S
O24 C9 1.251 . S
O25 C9 1.251 . S
O25 Eu11 2.374 1_565 S
O26 C10 1.257 . S
O26 Eu11 2.473 . S
O27 C10 1.260 . S
O27 Eu11 2.480 . S
O28 Eu11 2.430 . S
O28 C18 1.259 . S
O29 Eu1 2.355 . S
O29 Eu11 2.670 . S
O29 C18 1.270 . S
O30 Eu11 2.394 . S
O30 C19 1.251 . S
O31 Eu1 2.374 . S
O31 C19 1.251 . S
H32 C3 0.931 . S
H33 C4 0.931 . S
H34 C6 0.931 . S
H35 C7 0.931 . S
H36 C13 0.931 . S
H37 C14 0.931 . S
H38 C16 0.931 . S
H39 C17 0.931 . S
C40 Eu41 2.835 . S
C40 C42 1.500 . S
C40 O60 1.257 . S
C40 O61 1.260 . S
Eu41 C40 2.835 . S
Eu41 O60 2.473 . S
Eu41 O61 2.480 . S
Eu41 O62 2.430 . S
Eu41 O63 2.670 . S
Eu41 O64 2.394 . S
Eu41 O69 2.355 . S
Eu41 O71 2.374 1_455 S
C42 C40 1.500 . S
C42 C43 1.377 . S
C42 C47 1.377 . S
C43 C42 1.377 . S
C43 C44 1.395 . S
C43 H72 0.931 . S
C44 C43 1.395 . S
C44 C45 1.383 . S
C44 H73 0.931 . S
C45 C44 1.383 . S
C45 C46 1.394 . S
C46 C45 1.394 . S
C46 C47 1.378 . S
C46 H74 0.931 . S
C47 C42 1.377 . S
C47 C46 1.378 . S
C47 H75 0.931 . S
C48 O62 1.259 . S
C48 O63 1.270 . S
C49 O64 1.251 . S
C49 O65 1.251 . S
C50 Eu51 2.835 . S
C50 C52 1.500 . S
C50 O66 1.257 . S
C50 O67 1.260 . S
Eu51 C50 2.835 . S
Eu51 O63 2.355 1_655 S
Eu51 O65 2.374 1_655 S
Eu51 O66 2.473 . S
Eu51 O67 2.480 . S
Eu51 O68 2.430 1_655 S
Eu51 O69 2.670 1_655 S
Eu51 O70 2.394 . S
C52 C50 1.500 . S
C52 C53 1.377 . S
C52 C57 1.377 . S
C53 C52 1.377 . S
C53 C54 1.395 . S
C53 H76 0.931 . S
C54 C53 1.395 . S
C54 C55 1.383 . S
C54 H77 0.931 . S
C55 C54 1.383 . S
C55 C56 1.394 . S
C56 C55 1.394 . S
C56 C57 1.378 . S
C56 H78 0.931 . S
C57 C52 1.377 . S
C57 C56 1.378 . S
C57 H79 0.931 . S
C58 O68 1.259 . S
C58 O69 1.270 . S
C59 O70 1.251 . S
C59 O71 1.251 . S
O60 C40 1.257 . S
O60 Eu41 2.473 . S
O61 C40 1.260 . S
O61 Eu41 2.480 . S
O62 Eu41 2.430 . S
O62 C48 1.259 . S
O63 Eu41 2.670 . S
O63 C48 1.270 . S
O63 Eu51 2.355 1_455 S
O64 Eu41 2.394 . S
O64 C49 1.251 . S
O65 C49 1.251 . S
O65 Eu51 2.374 1_455 S
O66 C50 1.257 . S
O66 Eu51 2.473 . S
O67 C50 1.260 . S
O67 Eu51 2.480 . S
O68 Eu51 2.430 1_455 S
O68 C58 1.259 . S
O69 Eu41 2.355 . S
O69 Eu51 2.670 1_455 S
O69 C58 1.270 . S
O70 Eu51 2.394 . S
O70 C59 1.251 . S
O71 Eu41 2.374 1_655 S
O71 C59 1.251 . S
H72 C43 0.931 . S
H73 C44 0.931 . S
H74 C46 0.931 . S
H75 C47 0.931 . S
H76 C53 0.931 . S
H77 C54 0.931 . S
H78 C56 0.931 . S
H79 C57 0.931 . S
C80 Eu81 2.835 . S
C80 C82 1.500 . S
C80 O100 1.257 . S
C80 O101 1.260 . S
Eu81 C80 2.835 . S
Eu81 O100 2.473 . S
Eu81 O101 2.480 . S
Eu81 O102 2.430 . S
Eu81 O103 2.670 . S
Eu81 O104 2.394 . S
Eu81 O109 2.355 . S
Eu81 O111 2.374 . S
C82 C80 1.500 . S
C82 C83 1.377 . S
C82 C87 1.377 . S
C83 C82 1.377 . S
C83 C84 1.395 . S
C83 H112 0.931 . S
C84 C83 1.395 . S
C84 C85 1.383 . S
C84 H113 0.931 . S
C85 C84 1.383 . S
C85 C86 1.394 . S
C86 C85 1.394 . S
C86 C87 1.378 . S
C86 H114 0.931 . S
C87 C82 1.377 . S
C87 C86 1.378 . S
C87 H115 0.931 . S
C88 O102 1.259 . S
C88 O103 1.270 . S
C89 O104 1.251 . S
C89 O105 1.251 . S
C90 Eu91 2.835 . S
C90 C92 1.500 . S
C90 O106 1.257 . S
C90 O107 1.260 . S
Eu91 C90 2.835 . S
Eu91 O103 2.355 . S
Eu91 O105 2.374 . S
Eu91 O106 2.473 . S
Eu91 O107 2.480 . S
Eu91 O108 2.430 . S
Eu91 O109 2.670 . S
Eu91 O110 2.394 . S
C92 C90 1.500 . S
C92 C93 1.377 . S
C92 C97 1.377 . S
C93 C92 1.377 . S
C93 C94 1.395 . S
C93 H116 0.931 . S
C94 C93 1.395 . S
C94 C95 1.383 . S
C94 H117 0.931 . S
C95 C94 1.383 . S
C95 C96 1.394 . S
C96 C95 1.394 . S
C96 C97 1.378 . S
C96 H118 0.931 . S
C97 C92 1.377 . S
C97 C96 1.378 . S
C97 H119 0.931 . S
C98 O108 1.259 . S
C98 O109 1.270 . S
C99 O110 1.251 . S
C99 O111 1.251 . S
O100 C80 1.257 . S
O100 Eu81 2.473 . S
O101 C80 1.260 . S
O101 Eu81 2.480 . S
O102 Eu81 2.430 . S
O102 C88 1.259 . S
O103 Eu81 2.670 . S
O103 C88 1.270 . S
O103 Eu91 2.355 . S
O104 Eu81 2.394 . S
O104 C89 1.251 . S
O105 C89 1.251 . S
O105 Eu91 2.374 . S
O106 C90 1.257 . S
O106 Eu91 2.473 . S
O107 C90 1.260 . S
O107 Eu91 2.480 . S
O108 Eu91 2.430 . S
O108 C98 1.259 . S
O109 Eu81 2.355 . S
O109 Eu91 2.670 . S
O109 C98 1.270 . S
O110 Eu91 2.394 . S
O110 C99 1.251 . S
O111 Eu81 2.374 . S
O111 C99 1.251 . S
H112 C83 0.931 . S
H113 C84 0.931 . S
H114 C86 0.931 . S
H115 C87 0.931 . S
H116 C93 0.931 . S
H117 C94 0.931 . S
H118 C96 0.931 . S
H119 C97 0.931 . S
C120 Eu121 2.835 1_655 S
C120 C122 1.500 . S
C120 O140 1.257 . S
C120 O141 1.260 . S
Eu121 C120 2.835 1_455 S
Eu121 O140 2.473 1_455 S
Eu121 O141 2.480 1_455 S
Eu121 O142 2.430 . S
Eu121 O143 2.670 . S
Eu121 O144 2.394 1_455 S
Eu121 O149 2.355 . S
Eu121 O151 2.374 . S
C122 C120 1.500 . S
C122 C123 1.377 . S
C122 C127 1.377 . S
C123 C122 1.377 . S
C123 C124 1.395 . S
C123 H152 0.931 . S
C124 C123 1.395 . S
C124 C125 1.383 . S
C124 H153 0.931 . S
C125 C124 1.383 . S
C125 C126 1.394 . S
C126 C125 1.394 . S
C126 C127 1.378 . S
C126 H154 0.931 . S
C127 C122 1.377 . S
C127 C126 1.378 . S
C127 H155 0.931 . S
C128 O142 1.259 . S
C128 O143 1.270 . S
C129 O144 1.251 . S
C129 O145 1.251 . S
C130 Eu131 2.835 . S
C130 C132 1.500 . S
C130 O146 1.257 . S
C130 O147 1.260 . S
Eu131 C130 2.835 . S
Eu131 O143 2.355 . S
Eu131 O145 2.374 1_455 S
Eu131 O146 2.473 . S
Eu131 O147 2.480 . S
Eu131 O148 2.430 . S
Eu131 O149 2.670 . S
Eu131 O150 2.394 . S
C132 C130 1.500 . S
C132 C133 1.377 . S
C132 C137 1.377 . S
C133 C132 1.377 . S
C133 C134 1.395 . S
C133 H156 0.931 . S
C134 C133 1.395 . S
C134 C135 1.383 . S
C134 H157 0.931 . S
C135 C134 1.383 . S
C135 C136 1.394 . S
C136 C135 1.394 . S
C136 C137 1.378 . S
C136 H158 0.931 . S
C137 C132 1.377 . S
C137 C136 1.378 . S
C137 H159 0.931 . S
C138 O148 1.259 . S
C138 O149 1.270 . S
C139 O150 1.251 . S
C139 O151 1.251 . S
O140 C120 1.257 . S
O140 Eu121 2.473 1_655 S
O141 C120 1.260 . S
O141 Eu121 2.480 1_655 S
O142 Eu121 2.430 . S
O142 C128 1.259 . S
O143 Eu121 2.670 . S
O143 C128 1.270 . S
O143 Eu131 2.355 . S
O144 Eu121 2.394 1_655 S
O144 C129 1.251 . S
O145 C129 1.251 . S
O145 Eu131 2.374 1_655 S
O146 C130 1.257 . S
O146 Eu131 2.473 . S
O147 C130 1.260 . S
O147 Eu131 2.480 . S
O148 Eu131 2.430 . S
O148 C138 1.259 . S
O149 Eu121 2.355 . S
O149 Eu131 2.670 . S
O149 C138 1.270 . S
O150 Eu131 2.394 . S
O150 C139 1.251 . S
O151 Eu121 2.374 . S
O151 C139 1.251 . S
H152 C123 0.931 . S
H153 C124 0.931 . S
H154 C126 0.931 . S
H155 C127 0.931 . S
H156 C133 0.931 . S
H157 C134 0.931 . S
H158 C136 0.931 . S
H159 C137 0.931 . S
C160 Eu161 2.835 . S
C160 C162 1.500 . S
C160 O180 1.257 . S
C160 O181 1.260 . S
Eu161 C160 2.835 . S
Eu161 O180 2.473 . S
Eu161 O181 2.480 . S
Eu161 O182 2.430 . S
Eu161 O183 2.670 . S
Eu161 O184 2.394 . S
Eu161 O189 2.355 . S
Eu161 O191 2.374 . S
C162 C160 1.500 . S
C162 C163 1.377 . S
C162 C167 1.377 . S
C163 C162 1.377 . S
C163 C164 1.395 . S
C163 H192 0.931 . S
C164 C163 1.395 . S
C164 C165 1.383 . S
C164 H193 0.931 . S
C165 C164 1.383 . S
C165 C166 1.394 . S
C166 C165 1.394 . S
C166 C167 1.378 . S
C166 H194 0.931 . S
C167 C162 1.377 . S
C167 C166 1.378 . S
C167 H195 0.931 . S
C168 O182 1.259 . S
C168 O183 1.270 . S
C169 O184 1.251 . S
C169 O185 1.251 . S
C170 Eu171 2.835 . S
C170 C172 1.500 . S
C170 O186 1.257 . S
C170 O187 1.260 . S
Eu171 C170 2.835 . S
Eu171 O183 2.355 . S
Eu171 O185 2.374 . S
Eu171 O186 2.473 . S
Eu171 O187 2.480 . S
Eu171 O188 2.430 . S
Eu171 O189 2.670 . S
Eu171 O190 2.394 . S
C172 C170 1.500 . S
C172 C173 1.377 . S
C172 C177 1.377 . S
C173 C172 1.377 . S
C173 C174 1.395 . S
C173 H196 0.931 . S
C174 C173 1.395 . S
C174 C175 1.383 . S
C174 H197 0.931 . S
C175 C174 1.383 . S
C175 C176 1.394 . S
C176 C175 1.394 . S
C176 C177 1.378 . S
C176 H198 0.931 . S
C177 C172 1.377 . S
C177 C176 1.378 . S
C177 H199 0.931 . S
C178 O188 1.259 . S
C178 O189 1.270 . S
C179 O190 1.251 . S
C179 O191 1.251 . S
O180 C160 1.257 . S
O180 Eu161 2.473 . S
O181 C160 1.260 . S
O181 Eu161 2.480 . S
O182 Eu161 2.430 . S
O182 C168 1.259 . S
O183 Eu161 2.670 . S
O183 C168 1.270 . S
O183 Eu171 2.355 . S
O184 Eu161 2.394 . S
O184 C169 1.251 . S
O185 C169 1.251 . S
O185 Eu171 2.374 . S
O186 C170 1.257 . S
O186 Eu171 2.473 . S
O187 C170 1.260 . S
O187 Eu171 2.480 . S
O188 Eu171 2.430 . S
O188 C178 1.259 . S
O189 Eu161 2.355 . S
O189 Eu171 2.670 . S
O189 C178 1.270 . S
O190 Eu171 2.394 . S
O190 C179 1.251 . S
O191 Eu161 2.374 . S
O191 C179 1.251 . S
H192 C163 0.931 . S
H193 C164 0.931 . S
H194 C166 0.931 . S
H195 C167 0.931 . S
H196 C173 0.931 . S
H197 C174 0.931 . S
H198 C176 0.931 . S
H199 C177 0.931 . S
C200 Eu201 2.835 . S
C200 C202 1.500 . S
C200 O220 1.257 . S
C200 O221 1.260 . S
Eu201 C200 2.835 . S
Eu201 O220 2.473 . S
Eu201 O221 2.480 . S
Eu201 O222 2.430 . S
Eu201 O223 2.670 . S
Eu201 O224 2.394 . S
Eu201 O229 2.355 . S
Eu201 O231 2.374 1_545 S
C202 C200 1.500 . S
C202 C203 1.377 . S
C202 C207 1.377 . S
C203 C202 1.377 . S
C203 C204 1.395 . S
C203 H232 0.931 . S
C204 C203 1.395 . S
C204 C205 1.383 . S
C204 H233 0.931 . S
C205 C204 1.383 . S
C205 C206 1.394 . S
C206 C205 1.394 . S
C206 C207 1.378 . S
C206 H234 0.931 . S
C207 C202 1.377 . S
C207 C206 1.378 . S
C207 H235 0.931 . S
C208 O222 1.259 . S
C208 O223 1.270 . S
C209 O224 1.251 . S
C209 O225 1.251 . S
C210 Eu211 2.835 . S
C210 C212 1.500 . S
C210 O226 1.257 . S
C210 O227 1.260 . S
Eu211 C210 2.835 . S
Eu211 O223 2.355 1_565 S
Eu211 O225 2.374 1_565 S
Eu211 O226 2.473 . S
Eu211 O227 2.480 . S
Eu211 O228 2.430 1_565 S
Eu211 O229 2.670 1_565 S
Eu211 O230 2.394 . S
C212 C210 1.500 . S
C212 C213 1.377 . S
C212 C217 1.377 . S
C213 C212 1.377 . S
C213 C214 1.395 . S
C213 H236 0.931 . S
C214 C213 1.395 . S
C214 C215 1.383 . S
C214 H237 0.931 . S
C215 C214 1.383 . S
C215 C216 1.394 . S
C216 C215 1.394 . S
C216 C217 1.378 . S
C216 H238 0.931 . S
C217 C212 1.377 . S
C217 C216 1.378 . S
C217 H239 0.931 . S
C218 O228 1.259 . S
C218 O229 1.270 . S
C219 O230 1.251 . S
C219 O231 1.251 . S
O220 C200 1.257 . S
O220 Eu201 2.473 . S
O221 C200 1.260 . S
O221 Eu201 2.480 . S
O222 Eu201 2.430 . S
O222 C208 1.259 . S
O223 Eu201 2.670 . S
O223 C208 1.270 . S
O223 Eu211 2.355 1_545 S
O224 Eu201 2.394 . S
O224 C209 1.251 . S
O225 C209 1.251 . S
O225 Eu211 2.374 1_545 S
O226 C210 1.257 . S
O226 Eu211 2.473 . S
O227 C210 1.260 . S
O227 Eu211 2.480 . S
O228 Eu211 2.430 1_545 S
O228 C218 1.259 . S
O229 Eu201 2.355 . S
O229 Eu211 2.670 1_545 S
O229 C218 1.270 . S
O230 Eu211 2.394 . S
O230 C219 1.251 . S
O231 Eu201 2.374 1_565 S
O231 C219 1.251 . S
H232 C203 0.931 . S
H233 C204 0.931 . S
H234 C206 0.931 . S
H235 C207 0.931 . S
H236 C213 0.931 . S
H237 C214 0.931 . S
H238 C216 0.931 . S
H239 C217 0.931 . S
C240 Eu241 2.835 . S
C240 C242 1.500 . S
C240 O260 1.257 . S
C240 O261 1.260 . S
Eu241 C240 2.835 . S
Eu241 O260 2.473 . S
Eu241 O261 2.480 . S
Eu241 O262 2.430 1_565 S
Eu241 O263 2.670 1_565 S
Eu241 O264 2.394 . S
Eu241 O269 2.355 1_565 S
Eu241 O271 2.374 1_565 S
C242 C240 1.500 . S
C242 C243 1.377 . S
C242 C247 1.377 . S
C243 C242 1.377 . S
C243 C244 1.395 . S
C243 H272 0.931 . S
C244 C243 1.395 . S
C244 C245 1.383 . S
C244 H273 0.931 . S
C245 C244 1.383 . S
C245 C246 1.394 . S
C246 C245 1.394 . S
C246 C247 1.378 . S
C246 H274 0.931 . S
C247 C242 1.377 . S
C247 C246 1.378 . S
C247 H275 0.931 . S
C248 O262 1.259 . S
C248 O263 1.270 . S
C249 O264 1.251 . S
C249 O265 1.251 . S
C250 Eu251 2.835 . S
C250 C252 1.500 . S
C250 O266 1.257 . S
C250 O267 1.260 . S
Eu251 C250 2.835 . S
Eu251 O263 2.355 . S
Eu251 O265 2.374 1_545 S
Eu251 O266 2.473 . S
Eu251 O267 2.480 . S
Eu251 O268 2.430 . S
Eu251 O269 2.670 . S
Eu251 O270 2.394 . S
C252 C250 1.500 . S
C252 C253 1.377 . S
C252 C257 1.377 . S
C253 C252 1.377 . S
C253 C254 1.395 . S
C253 H276 0.931 . S
C254 C253 1.395 . S
C254 C255 1.383 . S
C254 H277 0.931 . S
C255 C254 1.383 . S
C255 C256 1.394 . S
C256 C255 1.394 . S
C256 C257 1.378 . S
C256 H278 0.931 . S
C257 C252 1.377 . S
C257 C256 1.378 . S
C257 H279 0.931 . S
C258 O268 1.259 . S
C258 O269 1.270 . S
C259 O270 1.251 . S
C259 O271 1.251 . S
O260 C240 1.257 . S
O260 Eu241 2.473 . S
O261 C240 1.260 . S
O261 Eu241 2.480 . S
O262 Eu241 2.430 1_545 S
O262 C248 1.259 . S
O263 Eu241 2.670 1_545 S
O263 C248 1.270 . S
O263 Eu251 2.355 . S
O264 Eu241 2.394 . S
O264 C249 1.251 . S
O265 C249 1.251 . S
O265 Eu251 2.374 1_565 S
O266 C250 1.257 . S
O266 Eu251 2.473 . S
O267 C250 1.260 . S
O267 Eu251 2.480 . S
O268 Eu251 2.430 . S
O268 C258 1.259 . S
O269 Eu241 2.355 1_545 S
O269 Eu251 2.670 . S
O269 C258 1.270 . S
O270 Eu251 2.394 . S
O270 C259 1.251 . S
O271 Eu241 2.374 1_545 S
O271 C259 1.251 . S
H272 C243 0.931 . S
H273 C244 0.931 . S
H274 C246 0.931 . S
H275 C247 0.931 . S
H276 C253 0.931 . S
H277 C254 0.931 . S
H278 C256 0.931 . S
H279 C257 0.931 . S
C280 Eu281 2.835 . S
C280 C282 1.500 . S
C280 O300 1.257 . S
C280 O301 1.260 . S
Eu281 C280 2.835 . S
Eu281 O300 2.473 . S
Eu281 O301 2.480 . S
Eu281 O302 2.430 . S
Eu281 O303 2.670 . S
Eu281 O304 2.394 . S
Eu281 O309 2.355 . S
Eu281 O311 2.374 1_455 S
C282 C280 1.500 . S
C282 C283 1.377 . S
C282 C287 1.377 . S
C283 C282 1.377 . S
C283 C284 1.395 . S
C283 H312 0.931 . S
C284 C283 1.395 . S
C284 C285 1.383 . S
C284 H313 0.931 . S
C285 C284 1.383 . S
C285 C286 1.394 . S
C286 C285 1.394 . S
C286 C287 1.378 . S
C286 H314 0.931 . S
C287 C282 1.377 . S
C287 C286 1.378 . S
C287 H315 0.931 . S
C288 O302 1.259 . S
C288 O303 1.270 . S
C289 O304 1.251 . S
C289 O305 1.251 . S
C290 Eu291 2.835 1_655 S
C290 C292 1.500 . S
C290 O306 1.257 . S
C290 O307 1.260 . S
Eu291 C290 2.835 1_455 S
Eu291 O303 2.355 . S
Eu291 O305 2.374 . S
Eu291 O306 2.473 1_455 S
Eu291 O307 2.480 1_455 S
Eu291 O308 2.430 . S
Eu291 O309 2.670 . S
Eu291 O310 2.394 1_455 S
C292 C290 1.500 . S
C292 C293 1.377 . S
C292 C297 1.377 . S
C293 C292 1.377 . S
C293 C294 1.395 . S
C293 H316 0.931 . S
C294 C293 1.395 . S
C294 C295 1.383 . S
C294 H317 0.931 . S
C295 C294 1.383 . S
C295 C296 1.394 . S
C296 C295 1.394 . S
C296 C297 1.378 . S
C296 H318 0.931 . S
C297 C292 1.377 . S
C297 C296 1.378 . S
C297 H319 0.931 . S
C298 O308 1.259 . S
C298 O309 1.270 . S
C299 O310 1.251 . S
C299 O311 1.251 . S
O300 C280 1.257 . S
O300 Eu281 2.473 . S
O301 C280 1.260 . S
O301 Eu281 2.480 . S
O302 Eu281 2.430 . S
O302 C288 1.259 . S
O303 Eu281 2.670 . S
O303 C288 1.270 . S
O303 Eu291 2.355 . S
O304 Eu281 2.394 . S
O304 C289 1.251 . S
O305 C289 1.251 . S
O305 Eu291 2.374 . S
O306 C290 1.257 . S
O306 Eu291 2.473 1_655 S
O307 C290 1.260 . S
O307 Eu291 2.480 1_655 S
O308 Eu291 2.430 . S
O308 C298 1.259 . S
O309 Eu281 2.355 . S
O309 Eu291 2.670 . S
O309 C298 1.270 . S
O310 Eu291 2.394 1_655 S
O310 C299 1.251 . S
O311 Eu281 2.374 1_655 S
O311 C299 1.251 . S
H312 C283 0.931 . S
H313 C284 0.931 . S
H314 C286 0.931 . S
H315 C287 0.931 . S
H316 C293 0.931 . S
H317 C294 0.931 . S
H318 C296 0.931 . S
H319 C297 0.931 . S
C320 Eu321 2.835 . S
C320 C322 1.500 . S
C320 O340 1.257 . S
C320 O341 1.260 . S
Eu321 C320 2.835 . S
Eu321 O340 2.473 . S
Eu321 O341 2.480 . S
Eu321 O342 2.430 . S
Eu321 O343 2.670 . S
Eu321 O344 2.394 . S
Eu321 O349 2.355 . S
Eu321 O351 2.374 . S
C322 C320 1.500 . S
C322 C323 1.377 . S
C322 C327 1.377 . S
C323 C322 1.377 . S
C323 C324 1.395 . S
C323 H352 0.931 . S
C324 C323 1.395 . S
C324 C325 1.383 . S
C324 H353 0.931 . S
C325 C324 1.383 . S
C325 C326 1.394 . S
C326 C325 1.394 . S
C326 C327 1.378 . S
C326 H354 0.931 . S
C327 C322 1.377 . S
C327 C326 1.378 . S
C327 H355 0.931 . S
C328 O342 1.259 . S
C328 O343 1.270 . S
C329 O344 1.251 . S
C329 O345 1.251 . S
C330 Eu331 2.835 . S
C330 C332 1.500 . S
C330 O346 1.257 . S
C330 O347 1.260 . S
Eu331 C330 2.835 . S
Eu331 O343 2.355 . S
Eu331 O345 2.374 . S
Eu331 O346 2.473 . S
Eu331 O347 2.480 . S
Eu331 O348 2.430 . S
Eu331 O349 2.670 . S
Eu331 O350 2.394 . S
C332 C330 1.500 . S
C332 C333 1.377 . S
C332 C337 1.377 . S
C333 C332 1.377 . S
C333 C334 1.395 . S
C333 H356 0.931 . S
C334 C333 1.395 . S
C334 C335 1.383 . S
C334 H357 0.931 . S
C335 C334 1.383 . S
C335 C336 1.394 . S
C336 C335 1.394 . S
C336 C337 1.378 . S
C336 H358 0.931 . S
C337 C332 1.377 . S
C337 C336 1.378 . S
C337 H359 0.931 . S
C338 O348 1.259 . S
C338 O349 1.270 . S
C339 O350 1.251 . S
C339 O351 1.251 . S
O340 C320 1.257 . S
O340 Eu321 2.473 . S
O341 C320 1.260 . S
O341 Eu321 2.480 . S
O342 Eu321 2.430 . S
O342 C328 1.259 . S
O343 Eu321 2.670 . S
O343 C328 1.270 . S
O343 Eu331 2.355 . S
O344 Eu321 2.394 . S
O344 C329 1.251 . S
O345 C329 1.251 . S
O345 Eu331 2.374 . S
O346 C330 1.257 . S
O346 Eu331 2.473 . S
O347 C330 1.260 . S
O347 Eu331 2.480 . S
O348 Eu331 2.430 . S
O348 C338 1.259 . S
O349 Eu321 2.355 . S
O349 Eu331 2.670 . S
O349 C338 1.270 . S
O350 Eu331 2.394 . S
O350 C339 1.251 . S
O351 Eu321 2.374 . S
O351 C339 1.251 . S
H352 C323 0.931 . S
H353 C324 0.931 . S
H354 C326 0.931 . S
H355 C327 0.931 . S
H356 C333 0.931 . S
H357 C334 0.931 . S
H358 C336 0.931 . S
H359 C337 0.931 . S
C360 Eu361 2.835 . S
C360 C362 1.500 . S
C360 O380 1.257 . S
C360 O381 1.260 . S
Eu361 C360 2.835 . S
Eu361 O380 2.473 . S
Eu361 O381 2.480 . S
Eu361 O382 2.430 1_655 S
Eu361 O383 2.670 1_655 S
Eu361 O384 2.394 . S
Eu361 O389 2.355 1_655 S
Eu361 O391 2.374 1_655 S
C362 C360 1.500 . S
C362 C363 1.377 . S
C362 C367 1.377 . S
C363 C362 1.377 . S
C363 C364 1.395 . S
C363 H392 0.931 . S
C364 C363 1.395 . S
C364 C365 1.383 . S
C364 H393 0.931 . S
C365 C364 1.383 . S
C365 C366 1.394 . S
C366 C365 1.394 . S
C366 C367 1.378 . S
C366 H394 0.931 . S
C367 C362 1.377 . S
C367 C366 1.378 . S
C367 H395 0.931 . S
C368 O382 1.259 . S
C368 O383 1.270 . S
C369 O384 1.251 . S
C369 O385 1.251 . S
C370 Eu371 2.835 . S
C370 C372 1.500 . S
C370 O386 1.257 . S
C370 O387 1.260 . S
Eu371 C370 2.835 . S
Eu371 O383 2.355 . S
Eu371 O385 2.374 1_455 S
Eu371 O386 2.473 . S
Eu371 O387 2.480 . S
Eu371 O388 2.430 . S
Eu371 O389 2.670 . S
Eu371 O390 2.394 . S
C372 C370 1.500 . S
C372 C373 1.377 . S
C372 C377 1.377 . S
C373 C372 1.377 . S
C373 C374 1.395 . S
C373 H396 0.931 . S
C374 C373 1.395 . S
C374 C375 1.383 . S
C374 H397 0.931 . S
C375 C374 1.383 . S
C375 C376 1.394 . S
C376 C375 1.394 . S
C376 C377 1.378 . S
C376 H398 0.931 . S
C377 C372 1.377 . S
C377 C376 1.378 . S
C377 H399 0.931 . S
C378 O388 1.259 . S
C378 O389 1.270 . S
C379 O390 1.251 . S
C379 O391 1.251 . S
O380 C360 1.257 . S
O380 Eu361 2.473 . S
O381 C360 1.260 . S
O381 Eu361 2.480 . S
O382 Eu361 2.430 1_455 S
O382 C368 1.259 . S
O383 Eu361 2.670 1_455 S
O383 C368 1.270 . S
O383 Eu371 2.355 . S
O384 Eu361 2.394 . S
O384 C369 1.251 . S
O385 C369 1.251 . S
O385 Eu371 2.374 1_655 S
O386 C370 1.257 . S
O386 Eu371 2.473 . S
O387 C370 1.260 . S
O387 Eu371 2.480 . S
O388 Eu371 2.430 . S
O388 C378 1.259 . S
O389 Eu361 2.355 1_455 S
O389 Eu371 2.670 . S
O389 C378 1.270 . S
O390 Eu371 2.394 . S
O390 C379 1.251 . S
O391 Eu361 2.374 1_455 S
O391 C379 1.251 . S
H392 C363 0.931 . S
H393 C364 0.931 . S
H394 C366 0.931 . S
H395 C367 0.931 . S
H396 C373 0.931 . S
H397 C374 0.931 . S
H398 C376 0.931 . S
H399 C377 0.931 . S
C400 Eu401 2.835 . S
C400 C402 1.500 . S
C400 O420 1.257 . S
C400 O421 1.260 . S
Eu401 C400 2.835 . S
Eu401 O420 2.473 . S
Eu401 O421 2.480 . S
Eu401 O422 2.430 . S
Eu401 O423 2.670 . S
Eu401 O424 2.394 . S
Eu401 O429 2.355 . S
Eu401 O431 2.374 . S
C402 C400 1.500 . S
C402 C403 1.377 . S
C402 C407 1.377 . S
C403 C402 1.377 . S
C403 C404 1.395 . S
C403 H432 0.931 . S
C404 C403 1.395 . S
C404 C405 1.383 . S
C404 H433 0.931 . S
C405 C404 1.383 . S
C405 C406 1.394 . S
C406 C405 1.394 . S
C406 C407 1.378 . S
C406 H434 0.931 . S
C407 C402 1.377 . S
C407 C406 1.378 . S
C407 H435 0.931 . S
C408 O422 1.259 . S
C408 O423 1.270 . S
C409 O424 1.251 . S
C409 O425 1.251 . S
C410 Eu411 2.835 . S
C410 C412 1.500 . S
C410 O426 1.257 . S
C410 O427 1.260 . S
Eu411 C410 2.835 . S
Eu411 O423 2.355 . S
Eu411 O425 2.374 . S
Eu411 O426 2.473 . S
Eu411 O427 2.480 . S
Eu411 O428 2.430 . S
Eu411 O429 2.670 . S
Eu411 O430 2.394 . S
C412 C410 1.500 . S
C412 C413 1.377 . S
C412 C417 1.377 . S
C413 C412 1.377 . S
C413 C414 1.395 . S
C413 H436 0.931 . S
C414 C413 1.395 . S
C414 C415 1.383 . S
C414 H437 0.931 . S
C415 C414 1.383 . S
C415 C416 1.394 . S
C416 C415 1.394 . S
C416 C417 1.378 . S
C416 H438 0.931 . S
C417 C412 1.377 . S
C417 C416 1.378 . S
C417 H439 0.931 . S
C418 O428 1.259 . S
C418 O429 1.270 . S
C419 O430 1.251 . S
C419 O431 1.251 . S
O420 C400 1.257 . S
O420 Eu401 2.473 . S
O421 C400 1.260 . S
O421 Eu401 2.480 . S
O422 Eu401 2.430 . S
O422 C408 1.259 . S
O423 Eu401 2.670 . S
O423 C408 1.270 . S
O423 Eu411 2.355 . S
O424 Eu401 2.394 . S
O424 C409 1.251 . S
O425 C409 1.251 . S
O425 Eu411 2.374 . S
O426 C410 1.257 . S
O426 Eu411 2.473 . S
O427 C410 1.260 . S
O427 Eu411 2.480 . S
O428 Eu411 2.430 . S
O428 C418 1.259 . S
O429 Eu401 2.355 . S
O429 Eu411 2.670 . S
O429 C418 1.270 . S
O430 Eu411 2.394 . S
O430 C419 1.251 . S
O431 Eu401 2.374 . S
O431 C419 1.251 . S
H432 C403 0.931 . S
H433 C404 0.931 . S
H434 C406 0.931 . S
H435 C407 0.931 . S
H436 C413 0.931 . S
H437 C414 0.931 . S
H438 C416 0.931 . S
H439 C417 0.931 . S
C440 Eu441 2.835 . S
C440 C442 1.500 . S
C440 O460 1.257 . S
C440 O461 1.260 . S
Eu441 C440 2.835 . S
Eu441 O460 2.473 . S
Eu441 O461 2.480 . S
Eu441 O462 2.430 . S
Eu441 O463 2.670 . S
Eu441 O464 2.394 . S
Eu441 O469 2.355 . S
Eu441 O471 2.374 1_545 S
C442 C440 1.500 . S
C442 C443 1.377 . S
C442 C447 1.377 . S
C443 C442 1.377 . S
C443 C444 1.395 . S
C443 H472 0.931 . S
C444 C443 1.395 . S
C444 C445 1.383 . S
C444 H473 0.931 . S
C445 C444 1.383 . S
C445 C446 1.394 . S
C446 C445 1.394 . S
C446 C447 1.378 . S
C446 H474 0.931 . S
C447 C442 1.377 . S
C447 C446 1.378 . S
C447 H475 0.931 . S
C448 O462 1.259 . S
C448 O463 1.270 . S
C449 O464 1.251 . S
C449 O465 1.251 . S
C450 Eu451 2.835 1_565 S
C450 C452 1.500 . S
C450 O466 1.257 . S
C450 O467 1.260 . S
Eu451 C450 2.835 1_545 S
Eu451 O463 2.355 . S
Eu451 O465 2.374 . S
Eu451 O466 2.473 1_545 S
Eu451 O467 2.480 1_545 S
Eu451 O468 2.430 . S
Eu451 O469 2.670 . S
Eu451 O470 2.394 1_545 S
C452 C450 1.500 . S
C452 C453 1.377 . S
C452 C457 1.377 . S
C453 C452 1.377 . S
C453 C454 1.395 . S
C453 H476 0.931 . S
C454 C453 1.395 . S
C454 C455 1.383 . S
C454 H477 0.931 . S
C455 C454 1.383 . S
C455 C456 1.394 . S
C456 C455 1.394 . S
C456 C457 1.378 . S
C456 H478 0.931 . S
C457 C452 1.377 . S
C457 C456 1.378 . S
C457 H479 0.931 . S
C458 O468 1.259 . S
C458 O469 1.270 . S
C459 O470 1.251 . S
C459 O471 1.251 . S
O460 C440 1.257 . S
O460 Eu441 2.473 . S
O461 C440 1.260 . S
O461 Eu441 2.480 . S
O462 Eu441 2.430 . S
O462 C448 1.259 . S
O463 Eu441 2.670 . S
O463 C448 1.270 . S
O463 Eu451 2.355 . S
O464 Eu441 2.394 . S
O464 C449 1.251 . S
O465 C449 1.251 . S
O465 Eu451 2.374 . S
O466 C450 1.257 . S
O466 Eu451 2.473 1_565 S
O467 C450 1.260 . S
O467 Eu451 2.480 1_565 S
O468 Eu451 2.430 . S
O468 C458 1.259 . S
O469 Eu441 2.355 . S
O469 Eu451 2.670 . S
O469 C458 1.270 . S
O470 Eu451 2.394 1_565 S
O470 C459 1.251 . S
O471 Eu441 2.374 1_565 S
O471 C459 1.251 . S
H472 C443 0.931 . S
H473 C444 0.931 . S
H474 C446 0.931 . S
H475 C447 0.931 . S
H476 C453 0.931 . S
H477 C454 0.931 . S
H478 C456 0.931 . S
H479 C457 0.931 . S
C480 Eu481 2.835 . S
C480 C482 1.500 . S
C480 O500 1.257 . S
C480 O501 1.260 . S
Eu481 C480 2.835 . S
Eu481 O500 2.473 . S
Eu481 O501 2.480 . S
Eu481 O502 2.430 . S
Eu481 O503 2.670 . S
Eu481 O504 2.394 . S
Eu481 O509 2.355 . S
Eu481 O511 2.374 . S
C482 C480 1.500 . S
C482 C483 1.377 . S
C482 C487 1.377 . S
C483 C482 1.377 . S
C483 C484 1.395 . S
C483 H512 0.931 . S
C484 C483 1.395 . S
C484 C485 1.383 . S
C484 H513 0.931 . S
C485 C484 1.383 . S
C485 C486 1.394 . S
C486 C485 1.394 . S
C486 C487 1.378 . S
C486 H514 0.931 . S
C487 C482 1.377 . S
C487 C486 1.378 . S
C487 H515 0.931 . S
C488 O502 1.259 . S
C488 O503 1.270 . S
C489 O504 1.251 . S
C489 O505 1.251 . S
C490 Eu491 2.835 . S
C490 C492 1.500 . S
C490 O506 1.257 . S
C490 O507 1.260 . S
Eu491 C490 2.835 . S
Eu491 O503 2.355 . S
Eu491 O505 2.374 . S
Eu491 O506 2.473 . S
Eu491 O507 2.480 . S
Eu491 O508 2.430 . S
Eu491 O509 2.670 . S
Eu491 O510 2.394 . S
C492 C490 1.500 . S
C492 C493 1.377 . S
C492 C497 1.377 . S
C493 C492 1.377 . S
C493 C494 1.395 . S
C493 H516 0.931 . S
C494 C493 1.395 . S
C494 C495 1.383 . S
C494 H517 0.931 . S
C495 C494 1.383 . S
C495 C496 1.394 . S
C496 C495 1.394 . S
C496 C497 1.378 . S
C496 H518 0.931 . S
C497 C492 1.377 . S
C497 C496 1.378 . S
C497 H519 0.931 . S
C498 O508 1.259 . S
C498 O509 1.270 . S
C499 O510 1.251 . S
C499 O511 1.251 . S
O500 C480 1.257 . S
O500 Eu481 2.473 . S
O501 C480 1.260 . S
O501 Eu481 2.480 . S
O502 Eu481 2.430 . S
O502 C488 1.259 . S
O503 Eu481 2.670 . S
O503 C488 1.270 . S
O503 Eu491 2.355 . S
O504 Eu481 2.394 . S
O504 C489 1.251 . S
O505 C489 1.251 . S
O505 Eu491 2.374 . S
O506 C490 1.257 . S
O506 Eu491 2.473 . S
O507 C490 1.260 . S
O507 Eu491 2.480 . S
O508 Eu491 2.430 . S
O508 C498 1.259 . S
O509 Eu481 2.355 . S
O509 Eu491 2.670 . S
O509 C498 1.270 . S
O510 Eu491 2.394 . S
O510 C499 1.251 . S
O511 Eu481 2.374 . S
O511 C499 1.251 . S
H512 C483 0.931 . S
H513 C484 0.931 . S
H514 C486 0.931 . S
H515 C487 0.931 . S
H516 C493 0.931 . S
H517 C494 0.931 . S
H518 C496 0.931 . S
H519 C497 0.931 . S
C520 Eu521 2.835 . S
C520 C522 1.500 1_565 S
C520 O540 1.257 . S
C520 O541 1.260 . S
Eu521 C520 2.835 . S
Eu521 O540 2.473 . S
Eu521 O541 2.480 . S
Eu521 O542 2.430 . S
Eu521 O543 2.670 . S
Eu521 O544 2.394 . S
Eu521 O549 2.355 . S
Eu521 O551 2.374 . S
C522 C520 1.500 1_545 S
C522 C523 1.377 . S
C522 C527 1.377 . S
C523 C522 1.377 . S
C523 C524 1.395 . S
C523 H552 0.931 . S
C524 C523 1.395 . S
C524 C525 1.383 . S
C524 H553 0.931 . S
C525 C524 1.383 . S
C525 C526 1.394 . S
C526 C525 1.394 . S
C526 C527 1.378 . S
C526 H554 0.931 . S
C527 C522 1.377 . S
C527 C526 1.378 . S
C527 H555 0.931 . S
C528 O542 1.259 . S
C528 O543 1.270 . S
C529 O544 1.251 . S
C529 O545 1.251 . S
C530 Eu531 2.835 . S
C530 C532 1.500 . S
C530 O546 1.257 . S
C530 O547 1.260 . S
Eu531 C530 2.835 . S
Eu531 O543 2.355 . S
Eu531 O545 2.374 . S
Eu531 O546 2.473 . S
Eu531 O547 2.480 . S
Eu531 O548 2.430 . S
Eu531 O549 2.670 . S
Eu531 O550 2.394 . S
C532 C530 1.500 . S
C532 C533 1.377 . S
C532 C537 1.377 . S
C533 C532 1.377 . S
C533 C534 1.395 . S
C533 H556 0.931 . S
C534 C533 1.395 . S
C534 C535 1.383 . S
C534 H557 0.931 . S
C535 C534 1.383 . S
C535 C536 1.394 . S
C536 C535 1.394 . S
C536 C537 1.378 . S
C536 H558 0.931 . S
C537 C532 1.377 . S
C537 C536 1.378 . S
C537 H559 0.931 . S
C538 O548 1.259 . S
C538 O549 1.270 . S
C539 O550 1.251 . S
C539 O551 1.251 . S
O540 C520 1.257 . S
O540 Eu521 2.473 . S
O541 C520 1.260 . S
O541 Eu521 2.480 . S
O542 Eu521 2.430 . S
O542 C528 1.259 . S
O543 Eu521 2.670 . S
O543 C528 1.270 . S
O543 Eu531 2.355 . S
O544 Eu521 2.394 . S
O544 C529 1.251 . S
O545 C529 1.251 . S
O545 Eu531 2.374 . S
O546 C530 1.257 . S
O546 Eu531 2.473 . S
O547 C530 1.260 . S
O547 Eu531 2.480 . S
O548 Eu531 2.430 . S
O548 C538 1.259 . S
O549 Eu521 2.355 . S
O549 Eu531 2.670 . S
O549 C538 1.270 . S
O550 Eu531 2.394 . S
O550 C539 1.251 . S
O551 Eu521 2.374 . S
O551 C539 1.251 . S
H552 C523 0.931 . S
H553 C524 0.931 . S
H554 C526 0.931 . S
H555 C527 0.931 . S
H556 C533 0.931 . S
H557 C534 0.931 . S
H558 C536 0.931 . S
H559 C537 0.931 . S
C560 Eu561 2.835 . S
C560 C562 1.500 . S
C560 O580 1.257 . S
C560 O581 1.260 . S
Eu561 C560 2.835 . S
Eu561 O580 2.473 . S
Eu561 O581 2.480 . S
Eu561 O582 2.430 . S
Eu561 O583 2.670 . S
Eu561 O584 2.394 . S
Eu561 O589 2.355 . S
Eu561 O591 2.374 . S
C562 C560 1.500 . S
C562 C563 1.377 . S
C562 C567 1.377 . S
C563 C562 1.377 . S
C563 C564 1.395 . S
C563 H592 0.931 . S
C564 C563 1.395 . S
C564 C565 1.383 1_455 S
C564 H593 0.931 1_455 S
C565 C564 1.383 1_655 S
C565 C566 1.394 1_655 S
C566 C565 1.394 1_455 S
C566 C567 1.378 . S
C566 H594 0.931 1_455 S
C567 C562 1.377 . S
C567 C566 1.378 . S
C567 H595 0.931 . S
C568 O582 1.259 . S
C568 O583 1.270 . S
C569 O584 1.251 . S
C569 O585 1.251 . S
C570 Eu571 2.835 . S
C570 C572 1.500 . S
C570 O586 1.257 . S
C570 O587 1.260 . S
Eu571 C570 2.835 . S
Eu571 O583 2.355 . S
Eu571 O585 2.374 . S
Eu571 O586 2.473 . S
Eu571 O587 2.480 . S
Eu571 O588 2.430 . S
Eu571 O589 2.670 . S
Eu571 O590 2.394 . S
C572 C570 1.500 . S
C572 C573 1.377 . S
C572 C577 1.377 . S
C573 C572 1.377 . S
C573 C574 1.395 . S
C573 H596 0.931 . S
C574 C573 1.395 . S
C574 C575 1.383 . S
C574 H597 0.931 . S
C575 C574 1.383 . S
C575 C576 1.394 . S
C576 C575 1.394 . S
C576 C577 1.378 . S
C576 H598 0.931 . S
C577 C572 1.377 . S
C577 C576 1.378 . S
C577 H599 0.931 . S
C578 O588 1.259 . S
C578 O589 1.270 . S
C579 O590 1.251 . S
C579 O591 1.251 . S
O580 C560 1.257 . S
O580 Eu561 2.473 . S
O581 C560 1.260 . S
O581 Eu561 2.480 . S
O582 Eu561 2.430 . S
O582 C568 1.259 . S
O583 Eu561 2.670 . S
O583 C568 1.270 . S
O583 Eu571 2.355 . S
O584 Eu561 2.394 . S
O584 C569 1.251 . S
O585 C569 1.251 . S
O585 Eu571 2.374 . S
O586 C570 1.257 . S
O586 Eu571 2.473 . S
O587 C570 1.260 . S
O587 Eu571 2.480 . S
O588 Eu571 2.430 . S
O588 C578 1.259 . S
O589 Eu561 2.355 . S
O589 Eu571 2.670 . S
O589 C578 1.270 . S
O590 Eu571 2.394 . S
O590 C579 1.251 . S
O591 Eu561 2.374 . S
O591 C579 1.251 . S
H592 C563 0.931 . S
H593 C564 0.931 1_655 S
H594 C566 0.931 1_655 S
H595 C567 0.931 . S
H596 C573 0.931 . S
H597 C574 0.931 . S
H598 C576 0.931 . S
H599 C577 0.931 . S
C600 Eu601 2.835 . S
C600 C602 1.500 . S
C600 O620 1.257 . S
C600 O621 1.260 . S
Eu601 C600 2.835 . S
Eu601 O620 2.473 . S
Eu601 O621 2.480 . S
Eu601 O622 2.430 . S
Eu601 O623 2.670 . S
Eu601 O624 2.394 . S
Eu601 O629 2.355 . S
Eu601 O631 2.374 . S
C602 C600 1.500 . S
C602 C603 1.377 . S
C602 C607 1.377 . S
C603 C602 1.377 . S
C603 C604 1.395 . S
C603 H632 0.931 . S
C604 C603 1.395 . S
C604 C605 1.383 . S
C604 H633 0.931 . S
C605 C604 1.383 . S
C605 C606 1.394 . S
C606 C605 1.394 . S
C606 C607 1.378 . S
C606 H634 0.931 . S
C607 C602 1.377 . S
C607 C606 1.378 . S
C607 H635 0.931 . S
C608 O622 1.259 . S
C608 O623 1.270 . S
C609 O624 1.251 . S
C609 O625 1.251 . S
C610 Eu611 2.835 . S
C610 C612 1.500 . S
C610 O626 1.257 . S
C610 O627 1.260 . S
Eu611 C610 2.835 . S
Eu611 O623 2.355 . S
Eu611 O625 2.374 . S
Eu611 O626 2.473 . S
Eu611 O627 2.480 . S
Eu611 O628 2.430 . S
Eu611 O629 2.670 . S
Eu611 O630 2.394 . S
C612 C610 1.500 . S
C612 C613 1.377 . S
C612 C617 1.377 . S
C613 C612 1.377 . S
C613 C614 1.395 . S
C613 H636 0.931 . S
C614 C613 1.395 . S
C614 C615 1.383 . S
C614 H637 0.931 . S
C615 C614 1.383 . S
C615 C616 1.394 . S
C616 C615 1.394 . S
C616 C617 1.378 . S
C616 H638 0.931 . S
C617 C612 1.377 . S
C617 C616 1.378 . S
C617 H639 0.931 . S
C618 O628 1.259 . S
C618 O629 1.270 . S
C619 O630 1.251 . S
C619 O631 1.251 . S
O620 C600 1.257 . S
O620 Eu601 2.473 . S
O621 C600 1.260 . S
O621 Eu601 2.480 . S
O622 Eu601 2.430 . S
O622 C608 1.259 . S
O623 Eu601 2.670 . S
O623 C608 1.270 . S
O623 Eu611 2.355 . S
O624 Eu601 2.394 . S
O624 C609 1.251 . S
O625 C609 1.251 . S
O625 Eu611 2.374 . S
O626 C610 1.257 . S
O626 Eu611 2.473 . S
O627 C610 1.260 . S
O627 Eu611 2.480 . S
O628 Eu611 2.430 . S
O628 C618 1.259 . S
O629 Eu601 2.355 . S
O629 Eu611 2.670 . S
O629 C618 1.270 . S
O630 Eu611 2.394 . S
O630 C619 1.251 . S
O631 Eu601 2.374 . S
O631 C619 1.251 . S
H632 C603 0.931 . S
H633 C604 0.931 . S
H634 C606 0.931 . S
H635 C607 0.931 . S
H636 C613 0.931 . S
H637 C614 0.931 . S
H638 C616 0.931 . S
H639 C617 0.931 . S
C640 Eu641 2.835 . S
C640 C642 1.500 . S
C640 O660 1.257 . S
C640 O661 1.260 . S
Eu641 C640 2.835 . S
Eu641 O660 2.473 . S
Eu641 O661 2.480 . S
Eu641 O662 2.430 . S
Eu641 O663 2.670 . S
Eu641 O664 2.394 . S
Eu641 O669 2.355 . S
Eu641 O671 2.374 . S
C642 C640 1.500 . S
C642 C643 1.377 . S
C642 C647 1.377 . S
C643 C642 1.377 . S
C643 C644 1.395 . S
C643 H672 0.931 . S
C644 C643 1.395 . S
C644 C645 1.383 . S
C644 H673 0.931 . S
C645 C644 1.383 . S
C645 C646 1.394 . S
C646 C645 1.394 . S
C646 C647 1.378 . S
C646 H674 0.931 . S
C647 C642 1.377 . S
C647 C646 1.378 . S
C647 H675 0.931 . S
C648 O662 1.259 . S
C648 O663 1.270 . S
C649 O664 1.251 . S
C649 O665 1.251 . S
C650 Eu651 2.835 1_545 S
C650 C652 1.500 . S
C650 O666 1.257 . S
C650 O667 1.260 . S
Eu651 C650 2.835 1_565 S
Eu651 O663 2.355 . S
Eu651 O665 2.374 . S
Eu651 O666 2.473 1_565 S
Eu651 O667 2.480 1_565 S
Eu651 O668 2.430 . S
Eu651 O669 2.670 . S
Eu651 O670 2.394 . S
C652 C650 1.500 . S
C652 C653 1.377 . S
C652 C657 1.377 . S
C653 C652 1.377 . S
C653 C654 1.395 . S
C653 H676 0.931 . S
C654 C653 1.395 . S
C654 C655 1.383 . S
C654 H677 0.931 . S
C655 C654 1.383 . S
C655 C656 1.394 . S
C656 C655 1.394 . S
C656 C657 1.378 . S
C656 H678 0.931 . S
C657 C652 1.377 . S
C657 C656 1.378 . S
C657 H679 0.931 . S
C658 O668 1.259 . S
C658 O669 1.270 . S
C659 O670 1.251 . S
C659 O671 1.251 . S
O660 C640 1.257 . S
O660 Eu641 2.473 . S
O661 C640 1.260 . S
O661 Eu641 2.480 . S
O662 Eu641 2.430 . S
O662 C648 1.259 . S
O663 Eu641 2.670 . S
O663 C648 1.270 . S
O663 Eu651 2.355 . S
O664 Eu641 2.394 . S
O664 C649 1.251 . S
O665 C649 1.251 . S
O665 Eu651 2.374 . S
O666 C650 1.257 . S
O666 Eu651 2.473 1_545 S
O667 C650 1.260 . S
O667 Eu651 2.480 1_545 S
O668 Eu651 2.430 . S
O668 C658 1.259 . S
O669 Eu641 2.355 . S
O669 Eu651 2.670 . S
O669 C658 1.270 . S
O670 Eu651 2.394 . S
O670 C659 1.251 . S
O671 Eu641 2.374 . S
O671 C659 1.251 . S
H672 C643 0.931 . S
H673 C644 0.931 . S
H674 C646 0.931 . S
H675 C647 0.931 . S
H676 C653 0.931 . S
H677 C654 0.931 . S
H678 C656 0.931 . S
H679 C657 0.931 . S
C680 Eu681 2.835 . S
C680 C682 1.500 . S
C680 O700 1.257 . S
C680 O701 1.260 . S
Eu681 C680 2.835 . S
Eu681 O700 2.473 . S
Eu681 O701 2.480 . S
Eu681 O702 2.430 . S
Eu681 O703 2.670 . S
Eu681 O704 2.394 . S
Eu681 O709 2.355 . S
Eu681 O711 2.374 . S
C682 C680 1.500 . S
C682 C683 1.377 . S
C682 C687 1.377 . S
C683 C682 1.377 . S
C683 C684 1.395 . S
C683 H712 0.931 . S
C684 C683 1.395 . S
C684 C685 1.383 . S
C684 H713 0.931 . S
C685 C684 1.383 . S
C685 C686 1.394 . S
C686 C685 1.394 . S
C686 C687 1.378 . S
C686 H714 0.931 . S
C687 C682 1.377 . S
C687 C686 1.378 . S
C687 H715 0.931 . S
C688 O702 1.259 . S
C688 O703 1.270 . S
C689 O704 1.251 . S
C689 O705 1.251 . S
C690 Eu691 2.835 . S
C690 C692 1.500 1_455 S
C690 O706 1.257 . S
C690 O707 1.260 . S
Eu691 C690 2.835 . S
Eu691 O703 2.355 . S
Eu691 O705 2.374 . S
Eu691 O706 2.473 . S
Eu691 O707 2.480 . S
Eu691 O708 2.430 . S
Eu691 O709 2.670 . S
Eu691 O710 2.394 . S
C692 C690 1.500 1_655 S
C692 C693 1.377 . S
C692 C697 1.377 . S
C693 C692 1.377 . S
C693 C694 1.395 . S
C693 H716 0.931 . S
C694 C693 1.395 . S
C694 C695 1.383 . S
C694 H717 0.931 . S
C695 C694 1.383 . S
C695 C696 1.394 . S
C696 C695 1.394 . S
C696 C697 1.378 . S
C696 H718 0.931 . S
C697 C692 1.377 . S
C697 C696 1.378 . S
C697 H719 0.931 . S
C698 O708 1.259 . S
C698 O709 1.270 . S
C699 O710 1.251 . S
C699 O711 1.251 . S
O700 C680 1.257 . S
O700 Eu681 2.473 . S
O701 C680 1.260 . S
O701 Eu681 2.480 . S
O702 Eu681 2.430 . S
O702 C688 1.259 . S
O703 Eu681 2.670 . S
O703 C688 1.270 . S
O703 Eu691 2.355 . S
O704 Eu681 2.394 . S
O704 C689 1.251 . S
O705 C689 1.251 . S
O705 Eu691 2.374 . S
O706 C690 1.257 . S
O706 Eu691 2.473 . S
O707 C690 1.260 . S
O707 Eu691 2.480 . S
O708 Eu691 2.430 . S
O708 C698 1.259 . S
O709 Eu681 2.355 . S
O709 Eu691 2.670 . S
O709 C698 1.270 . S
O710 Eu691 2.394 . S
O710 C699 1.251 . S
O711 Eu681 2.374 . S
O711 C699 1.251 . S
H712 C683 0.931 . S
H713 C684 0.931 . S
H714 C686 0.931 . S
H715 C687 0.931 . S
H716 C693 0.931 . S
H717 C694 0.931 . S
H718 C696 0.931 . S
H719 C697 0.931 . S
C720 Eu721 2.835 . S
C720 C722 1.500 . S
C720 O740 1.257 . S
C720 O741 1.260 . S
Eu721 C720 2.835 . S
Eu721 O740 2.473 . S
Eu721 O741 2.480 . S
Eu721 O742 2.430 . S
Eu721 O743 2.670 . S
Eu721 O744 2.394 . S
Eu721 O749 2.355 . S
Eu721 O751 2.374 . S
C722 C720 1.500 . S
C722 C723 1.377 . S
C722 C727 1.377 . S
C723 C722 1.377 . S
C723 C724 1.395 . S
C723 H752 0.931 . S
C724 C723 1.395 . S
C724 C725 1.383 . S
C724 H753 0.931 . S
C725 C724 1.383 . S
C725 C726 1.394 . S
C726 C725 1.394 . S
C726 C727 1.378 . S
C726 H754 0.931 . S
C727 C722 1.377 . S
C727 C726 1.378 . S
C727 H755 0.931 . S
C728 O742 1.259 . S
C728 O743 1.270 . S
C729 O744 1.251 . S
C729 O745 1.251 . S
C730 Eu731 2.835 . S
C730 C732 1.500 . S
C730 O746 1.257 . S
C730 O747 1.260 . S
Eu731 C730 2.835 . S
Eu731 O743 2.355 . S
Eu731 O745 2.374 . S
Eu731 O746 2.473 . S
Eu731 O747 2.480 . S
Eu731 O748 2.430 . S
Eu731 O749 2.670 . S
Eu731 O750 2.394 . S
C732 C730 1.500 . S
C732 C733 1.377 . S
C732 C737 1.377 . S
C733 C732 1.377 . S
C733 C734 1.395 . S
C733 H756 0.931 . S
C734 C733 1.395 . S
C734 C735 1.383 . S
C734 H757 0.931 . S
C735 C734 1.383 . S
C735 C736 1.394 . S
C736 C735 1.394 . S
C736 C737 1.378 . S
C736 H758 0.931 . S
C737 C732 1.377 . S
C737 C736 1.378 . S
C737 H759 0.931 . S
C738 O748 1.259 . S
C738 O749 1.270 . S
C739 O750 1.251 . S
C739 O751 1.251 . S
O740 C720 1.257 . S
O740 Eu721 2.473 . S
O741 C720 1.260 . S
O741 Eu721 2.480 . S
O742 Eu721 2.430 . S
O742 C728 1.259 . S
O743 Eu721 2.670 . S
O743 C728 1.270 . S
O743 Eu731 2.355 . S
O744 Eu721 2.394 . S
O744 C729 1.251 . S
O745 C729 1.251 . S
O745 Eu731 2.374 . S
O746 C730 1.257 . S
O746 Eu731 2.473 . S
O747 C730 1.260 . S
O747 Eu731 2.480 . S
O748 Eu731 2.430 . S
O748 C738 1.259 . S
O749 Eu721 2.355 . S
O749 Eu731 2.670 . S
O749 C738 1.270 . S
O750 Eu731 2.394 . S
O750 C739 1.251 . S
O751 Eu721 2.374 . S
O751 C739 1.251 . S
H752 C723 0.931 . S
H753 C724 0.931 . S
H754 C726 0.931 . S
H755 C727 0.931 . S
H756 C733 0.931 . S
H757 C734 0.931 . S
H758 C736 0.931 . S
H759 C737 0.931 . S
C760 Eu761 2.835 1_545 S
C760 C762 1.500 . S
C760 O780 1.257 . S
C760 O781 1.260 . S
Eu761 C760 2.835 1_565 S
Eu761 O780 2.473 1_565 S
Eu761 O781 2.480 1_565 S
Eu761 O782 2.430 . S
Eu761 O783 2.670 . S
Eu761 O784 2.394 . S
Eu761 O789 2.355 . S
Eu761 O791 2.374 . S
C762 C760 1.500 . S
C762 C763 1.377 . S
C762 C767 1.377 . S
C763 C762 1.377 . S
C763 C764 1.395 . S
C763 H792 0.931 . S
C764 C763 1.395 . S
C764 C765 1.383 . S
C764 H793 0.931 . S
C765 C764 1.383 . S
C765 C766 1.394 . S
C766 C765 1.394 . S
C766 C767 1.378 . S
C766 H794 0.931 . S
C767 C762 1.377 . S
C767 C766 1.378 . S
C767 H795 0.931 . S
C768 O782 1.259 . S
C768 O783 1.270 . S
C769 O784 1.251 . S
C769 O785 1.251 . S
C770 Eu771 2.835 . S
C770 C772 1.500 . S
C770 O786 1.257 . S
C770 O787 1.260 . S
Eu771 C770 2.835 . S
Eu771 O783 2.355 . S
Eu771 O785 2.374 . S
Eu771 O786 2.473 . S
Eu771 O787 2.480 . S
Eu771 O788 2.430 . S
Eu771 O789 2.670 . S
Eu771 O790 2.394 . S
C772 C770 1.500 . S
C772 C773 1.377 . S
C772 C777 1.377 . S
C773 C772 1.377 . S
C773 C774 1.395 . S
C773 H796 0.931 . S
C774 C773 1.395 . S
C774 C775 1.383 . S
C774 H797 0.931 . S
C775 C774 1.383 . S
C775 C776 1.394 . S
C776 C775 1.394 . S
C776 C777 1.378 . S
C776 H798 0.931 . S
C777 C772 1.377 . S
C777 C776 1.378 . S
C777 H799 0.931 . S
C778 O788 1.259 . S
C778 O789 1.270 . S
C779 O790 1.251 . S
C779 O791 1.251 . S
O780 C760 1.257 . S
O780 Eu761 2.473 1_545 S
O781 C760 1.260 . S
O781 Eu761 2.480 1_545 S
O782 Eu761 2.430 . S
O782 C768 1.259 . S
O783 Eu761 2.670 . S
O783 C768 1.270 . S
O783 Eu771 2.355 . S
O784 Eu761 2.394 . S
O784 C769 1.251 . S
O785 C769 1.251 . S
O785 Eu771 2.374 . S
O786 C770 1.257 . S
O786 Eu771 2.473 . S
O787 C770 1.260 . S
O787 Eu771 2.480 . S
O788 Eu771 2.430 . S
O788 C778 1.259 . S
O789 Eu761 2.355 . S
O789 Eu771 2.670 . S
O789 C778 1.270 . S
O790 Eu771 2.394 . S
O790 C779 1.251 . S
O791 Eu761 2.374 . S
O791 C779 1.251 . S
H792 C763 0.931 . S
H793 C764 0.931 . S
H794 C766 0.931 . S
H795 C767 0.931 . S
H796 C773 0.931 . S
H797 C774 0.931 . S
H798 C776 0.931 . S
H799 C777 0.931 . S
C800 Eu801 2.835 . S
C800 C802 1.500 1_455 S
C800 O820 1.257 . S
C800 O821 1.260 . S
Eu801 C800 2.835 . S
Eu801 O820 2.473 . S
Eu801 O821 2.480 . S
Eu801 O822 2.430 . S
Eu801 O823 2.670 . S
Eu801 O824 2.394 . S
Eu801 O829 2.355 . S
Eu801 O831 2.374 . S
C802 C800 1.500 1_655 S
C802 C803 1.377 . S
C802 C807 1.377 . S
C803 C802 1.377 . S
C803 C804 1.395 . S
C803 H832 0.931 . S
C804 C803 1.395 . S
C804 C805 1.383 . S
C804 H833 0.931 . S
C805 C804 1.383 . S
C805 C806 1.394 . S
C806 C805 1.394 . S
C806 C807 1.378 . S
C806 H834 0.931 . S
C807 C802 1.377 . S
C807 C806 1.378 . S
C807 H835 0.931 . S
C808 O822 1.259 . S
C808 O823 1.270 . S
C809 O824 1.251 . S
C809 O825 1.251 . S
C810 Eu811 2.835 . S
C810 C812 1.500 . S
C810 O826 1.257 . S
C810 O827 1.260 . S
Eu811 C810 2.835 . S
Eu811 O823 2.355 . S
Eu811 O825 2.374 . S
Eu811 O826 2.473 . S
Eu811 O827 2.480 . S
Eu811 O828 2.430 . S
Eu811 O829 2.670 . S
Eu811 O830 2.394 . S
C812 C810 1.500 . S
C812 C813 1.377 . S
C812 C817 1.377 . S
C813 C812 1.377 . S
C813 C814 1.395 . S
C813 H836 0.931 . S
C814 C813 1.395 . S
C814 C815 1.383 . S
C814 H837 0.931 . S
C815 C814 1.383 . S
C815 C816 1.394 . S
C816 C815 1.394 . S
C816 C817 1.378 . S
C816 H838 0.931 . S
C817 C812 1.377 . S
C817 C816 1.378 . S
C817 H839 0.931 . S
C818 O828 1.259 . S
C818 O829 1.270 . S
C819 O830 1.251 . S
C819 O831 1.251 . S
O820 C800 1.257 . S
O820 Eu801 2.473 . S
O821 C800 1.260 . S
O821 Eu801 2.480 . S
O822 Eu801 2.430 . S
O822 C808 1.259 . S
O823 Eu801 2.670 . S
O823 C808 1.270 . S
O823 Eu811 2.355 . S
O824 Eu801 2.394 . S
O824 C809 1.251 . S
O825 C809 1.251 . S
O825 Eu811 2.374 . S
O826 C810 1.257 . S
O826 Eu811 2.473 . S
O827 C810 1.260 . S
O827 Eu811 2.480 . S
O828 Eu811 2.430 . S
O828 C818 1.259 . S
O829 Eu801 2.355 . S
O829 Eu811 2.670 . S
O829 C818 1.270 . S
O830 Eu811 2.394 . S
O830 C819 1.251 . S
O831 Eu801 2.374 . S
O831 C819 1.251 . S
H832 C803 0.931 . S
H833 C804 0.931 . S
H834 C806 0.931 . S
H835 C807 0.931 . S
H836 C813 0.931 . S
H837 C814 0.931 . S
H838 C816 0.931 . S
H839 C817 0.931 . S
C840 Eu841 2.835 . S
C840 C842 1.500 . S
C840 O860 1.257 . S
C840 O861 1.260 . S
Eu841 C840 2.835 . S
Eu841 O860 2.473 . S
Eu841 O861 2.480 . S
Eu841 O862 2.430 . S
Eu841 O863 2.670 . S
Eu841 O864 2.394 . S
Eu841 O869 2.355 . S
Eu841 O871 2.374 . S
C842 C840 1.500 . S
C842 C843 1.377 . S
C842 C847 1.377 . S
C843 C842 1.377 . S
C843 C844 1.395 . S
C843 H872 0.931 . S
C844 C843 1.395 . S
C844 C845 1.383 . S
C844 H873 0.931 . S
C845 C844 1.383 . S
C845 C846 1.394 . S
C846 C845 1.394 . S
C846 C847 1.378 . S
C846 H874 0.931 . S
C847 C842 1.377 . S
C847 C846 1.378 . S
C847 H875 0.931 . S
C848 O862 1.259 . S
C848 O863 1.270 . S
C849 O864 1.251 . S
C849 O865 1.251 . S
C850 Eu851 2.835 . S
C850 C852 1.500 . S
C850 O866 1.257 . S
C850 O867 1.260 . S
Eu851 C850 2.835 . S
Eu851 O863 2.355 . S
Eu851 O865 2.374 . S
Eu851 O866 2.473 . S
Eu851 O867 2.480 . S
Eu851 O868 2.430 . S
Eu851 O869 2.670 . S
Eu851 O870 2.394 . S
C852 C850 1.500 . S
C852 C853 1.377 . S
C852 C857 1.377 . S
C853 C852 1.377 . S
C853 C854 1.395 . S
C853 H876 0.931 . S
C854 C853 1.395 . S
C854 C855 1.383 . S
C854 H877 0.931 . S
C855 C854 1.383 . S
C855 C856 1.394 . S
C856 C855 1.394 . S
C856 C857 1.378 . S
C856 H878 0.931 . S
C857 C852 1.377 . S
C857 C856 1.378 . S
C857 H879 0.931 . S
C858 O868 1.259 . S
C858 O869 1.270 . S
C859 O870 1.251 . S
C859 O871 1.251 . S
O860 C840 1.257 . S
O860 Eu841 2.473 . S
O861 C840 1.260 . S
O861 Eu841 2.480 . S
O862 Eu841 2.430 . S
O862 C848 1.259 . S
O863 Eu841 2.670 . S
O863 C848 1.270 . S
O863 Eu851 2.355 . S
O864 Eu841 2.394 . S
O864 C849 1.251 . S
O865 C849 1.251 . S
O865 Eu851 2.374 . S
O866 C850 1.257 . S
O866 Eu851 2.473 . S
O867 C850 1.260 . S
O867 Eu851 2.480 . S
O868 Eu851 2.430 . S
O868 C858 1.259 . S
O869 Eu841 2.355 . S
O869 Eu851 2.670 . S
O869 C858 1.270 . S
O870 Eu851 2.394 . S
O870 C859 1.251 . S
O871 Eu841 2.374 . S
O871 C859 1.251 . S
H872 C843 0.931 . S
H873 C844 0.931 . S
H874 C846 0.931 . S
H875 C847 0.931 . S
H876 C853 0.931 . S
H877 C854 0.931 . S
H878 C856 0.931 . S
H879 C857 0.931 . S
C880 Eu881 2.835 . S
C880 C882 1.500 . S
C880 O900 1.257 . S
C880 O901 1.260 . S
Eu881 C880 2.835 . S
Eu881 O900 2.473 . S
Eu881 O901 2.480 . S
Eu881 O902 2.430 . S
Eu881 O903 2.670 . S
Eu881 O904 2.394 . S
Eu881 O909 2.355 . S
Eu881 O911 2.374 . S
C882 C880 1.500 . S
C882 C883 1.377 . S
C882 C887 1.377 . S
C883 C882 1.377 . S
C883 C884 1.395 . S
C883 H912 0.931 . S
C884 C883 1.395 . S
C884 C885 1.383 . S
C884 H913 0.931 . S
C885 C884 1.383 . S
C885 C886 1.394 . S
C886 C885 1.394 . S
C886 C887 1.378 . S
C886 H914 0.931 . S
C887 C882 1.377 . S
C887 C886 1.378 . S
C887 H915 0.931 . S
C888 O902 1.259 . S
C888 O903 1.270 . S
C889 O904 1.251 . S
C889 O905 1.251 . S
C890 Eu891 2.835 . S
C890 C892 1.500 1_565 S
C890 O906 1.257 . S
C890 O907 1.260 . S
Eu891 C890 2.835 . S
Eu891 O903 2.355 . S
Eu891 O905 2.374 . S
Eu891 O906 2.473 . S
Eu891 O907 2.480 . S
Eu891 O908 2.430 . S
Eu891 O909 2.670 . S
Eu891 O910 2.394 . S
C892 C890 1.500 1_545 S
C892 C893 1.377 . S
C892 C897 1.377 . S
C893 C892 1.377 . S
C893 C894 1.395 . S
C893 H916 0.931 . S
C894 C893 1.395 . S
C894 C895 1.383 . S
C894 H917 0.931 . S
C895 C894 1.383 . S
C895 C896 1.394 . S
C896 C895 1.394 . S
C896 C897 1.378 . S
C896 H918 0.931 . S
C897 C892 1.377 . S
C897 C896 1.378 . S
C897 H919 0.931 . S
C898 O908 1.259 . S
C898 O909 1.270 . S
C899 O910 1.251 . S
C899 O911 1.251 . S
O900 C880 1.257 . S
O900 Eu881 2.473 . S
O901 C880 1.260 . S
O901 Eu881 2.480 . S
O902 Eu881 2.430 . S
O902 C888 1.259 . S
O903 Eu881 2.670 . S
O903 C888 1.270 . S
O903 Eu891 2.355 . S
O904 Eu881 2.394 . S
O904 C889 1.251 . S
O905 C889 1.251 . S
O905 Eu891 2.374 . S
O906 C890 1.257 . S
O906 Eu891 2.473 . S
O907 C890 1.260 . S
O907 Eu891 2.480 . S
O908 Eu891 2.430 . S
O908 C898 1.259 . S
O909 Eu881 2.355 . S
O909 Eu891 2.670 . S
O909 C898 1.270 . S
O910 Eu891 2.394 . S
O910 C899 1.251 . S
O911 Eu881 2.374 . S
O911 C899 1.251 . S
H912 C883 0.931 . S
H913 C884 0.931 . S
H914 C886 0.931 . S
H915 C887 0.931 . S
H916 C893 0.931 . S
H917 C894 0.931 . S
H918 C896 0.931 . S
H919 C897 0.931 . S
C920 Eu921 2.835 . S
C920 C922 1.500 . S
C920 O940 1.257 . S
C920 O941 1.260 . S
Eu921 C920 2.835 . S
Eu921 O940 2.473 . S
Eu921 O941 2.480 . S
Eu921 O942 2.430 . S
Eu921 O943 2.670 . S
Eu921 O944 2.394 . S
Eu921 O949 2.355 . S
Eu921 O951 2.374 . S
C922 C920 1.500 . S
C922 C923 1.377 . S
C922 C927 1.377 . S
C923 C922 1.377 . S
C923 C924 1.395 . S
C923 H952 0.931 . S
C924 C923 1.395 . S
C924 C925 1.383 . S
C924 H953 0.931 . S
C925 C924 1.383 . S
C925 C926 1.394 . S
C926 C925 1.394 . S
C926 C927 1.378 . S
C926 H954 0.931 . S
C927 C922 1.377 . S
C927 C926 1.378 . S
C927 H955 0.931 . S
C928 O942 1.259 . S
C928 O943 1.270 . S
C929 O944 1.251 . S
C929 O945 1.251 . S
C930 Eu931 2.835 . S
C930 C932 1.500 . S
C930 O946 1.257 . S
C930 O947 1.260 . S
Eu931 C930 2.835 . S
Eu931 O943 2.355 . S
Eu931 O945 2.374 . S
Eu931 O946 2.473 . S
Eu931 O947 2.480 . S
Eu931 O948 2.430 . S
Eu931 O949 2.670 . S
Eu931 O950 2.394 . S
C932 C930 1.500 . S
C932 C933 1.377 . S
C932 C937 1.377 . S
C933 C932 1.377 . S
C933 C934 1.395 . S
C933 H956 0.931 . S
C934 C933 1.395 . S
C934 C935 1.383 1_455 S
C934 H957 0.931 1_455 S
C935 C934 1.383 1_655 S
C935 C936 1.394 1_655 S
C936 C935 1.394 1_455 S
C936 C937 1.378 . S
C936 H958 0.931 1_455 S
C937 C932 1.377 . S
C937 C936 1.378 . S
C937 H959 0.931 . S
C938 O948 1.259 . S
C938 O949 1.270 . S
C939 O950 1.251 . S
C939 O951 1.251 . S
O940 C920 1.257 . S
O940 Eu921 2.473 . S
O941 C920 1.260 . S
O941 Eu921 2.480 . S
O942 Eu921 2.430 . S
O942 C928 1.259 . S
O943 Eu921 2.670 . S
O943 C928 1.270 . S
O943 Eu931 2.355 . S
O944 Eu921 2.394 . S
O944 C929 1.251 . S
O945 C929 1.251 . S
O945 Eu931 2.374 . S
O946 C930 1.257 . S
O946 Eu931 2.473 . S
O947 C930 1.260 . S
O947 Eu931 2.480 . S
O948 Eu931 2.430 . S
O948 C938 1.259 . S
O949 Eu921 2.355 . S
O949 Eu931 2.670 . S
O949 C938 1.270 . S
O950 Eu931 2.394 . S
O950 C939 1.251 . S
O951 Eu921 2.374 . S
O951 C939 1.251 . S
H952 C923 0.931 . S
H953 C924 0.931 . S
H954 C926 0.931 . S
H955 C927 0.931 . S
H956 C933 0.931 . S
H957 C934 0.931 1_655 S
H958 C936 0.931 1_655 S
H959 C937 0.931 . S
C960 Eu961 2.835 . S
C960 C962 1.500 . S
C960 O980 1.257 . S
C960 O981 1.260 . S
Eu961 C960 2.835 . S
Eu961 O980 2.473 . S
Eu961 O981 2.480 . S
Eu961 O982 2.430 . S
Eu961 O983 2.670 . S
Eu961 O984 2.394 . S
Eu961 O989 2.355 . S
Eu961 O991 2.374 . S
C962 C960 1.500 . S
C962 C963 1.377 . S
C962 C967 1.377 . S
C963 C962 1.377 . S
C963 C964 1.395 . S
C963 H992 0.931 . S
C964 C963 1.395 . S
C964 C965 1.383 . S
C964 H993 0.931 . S
C965 C964 1.383 . S
C965 C966 1.394 . S
C966 C965 1.394 . S
C966 C967 1.378 . S
C966 H994 0.931 . S
C967 C962 1.377 . S
C967 C966 1.378 . S
C967 H995 0.931 . S
C968 O982 1.259 . S
C968 O983 1.270 . S
C969 O984 1.251 . S
C969 O985 1.251 . S
C970 Eu971 2.835 . S
C970 C972 1.500 . S
C970 O986 1.257 . S
C970 O987 1.260 . S
Eu971 C970 2.835 . S
Eu971 O983 2.355 . S
Eu971 O985 2.374 . S
Eu971 O986 2.473 . S
Eu971 O987 2.480 . S
Eu971 O988 2.430 . S
Eu971 O989 2.670 . S
Eu971 O990 2.394 . S
C972 C970 1.500 . S
C972 C973 1.377 . S
C972 C977 1.377 . S
C973 C972 1.377 . S
C973 C974 1.395 . S
C973 H996 0.931 . S
C974 C973 1.395 . S
C974 C975 1.383 . S
C974 H997 0.931 . S
C975 C974 1.383 . S
C975 C976 1.394 . S
C976 C975 1.394 . S
C976 C977 1.378 . S
C976 H998 0.931 . S
C977 C972 1.377 . S
C977 C976 1.378 . S
C977 H999 0.931 . S
C978 O988 1.259 . S
C978 O989 1.270 . S
C979 O990 1.251 . S
C979 O991 1.251 . S
O980 C960 1.257 . S
O980 Eu961 2.473 . S
O981 C960 1.260 . S
O981 Eu961 2.480 . S
O982 Eu961 2.430 . S
O982 C968 1.259 . S
O983 Eu961 2.670 . S
O983 C968 1.270 . S
O983 Eu971 2.355 . S
O984 Eu961 2.394 . S
O984 C969 1.251 . S
O985 C969 1.251 . S
O985 Eu971 2.374 . S
O986 C970 1.257 . S
O986 Eu971 2.473 . S
O987 C970 1.260 . S
O987 Eu971 2.480 . S
O988 Eu971 2.430 . S
O988 C978 1.259 . S
O989 Eu961 2.355 . S
O989 Eu971 2.670 . S
O989 C978 1.270 . S
O990 Eu971 2.394 . S
O990 C979 1.251 . S
O991 Eu961 2.374 . S
O991 C979 1.251 . S
H992 C963 0.931 . S
H993 C964 0.931 . S
H994 C966 0.931 . S
H995 C967 0.931 . S
H996 C973 0.931 . S
H997 C974 0.931 . S
H998 C976 0.931 . S
H999 C977 0.931 . S
C1000 Eu1001 2.835 . S
C1000 C1002 1.500 . S
C1000 O1020 1.257 . S
C1000 O1021 1.260 . S
Eu1001 C1000 2.835 . S
Eu1001 O1020 2.473 . S
Eu1001 O1021 2.480 . S
Eu1001 O1022 2.430 . S
Eu1001 O1023 2.670 . S
Eu1001 O1024 2.394 . S
Eu1001 O1029 2.355 . S
Eu1001 O1031 2.374 . S
C1002 C1000 1.500 . S
C1002 C1003 1.377 . S
C1002 C1007 1.377 . S
C1003 C1002 1.377 . S
C1003 C1004 1.395 . S
C1003 H1032 0.931 . S
C1004 C1003 1.395 . S
C1004 C1005 1.383 . S
C1004 H1033 0.931 . S
C1005 C1004 1.383 . S
C1005 C1006 1.394 . S
C1006 C1005 1.394 . S
C1006 C1007 1.378 . S
C1006 H1034 0.931 . S
C1007 C1002 1.377 . S
C1007 C1006 1.378 . S
C1007 H1035 0.931 . S
C1008 O1022 1.259 . S
C1008 O1023 1.270 . S
C1009 O1024 1.251 . S
C1009 O1025 1.251 . S
C1010 Eu1011 2.835 . S
C1010 C1012 1.500 1_545 S
C1010 O1026 1.257 . S
C1010 O1027 1.260 . S
Eu1011 C1010 2.835 . S
Eu1011 O1023 2.355 . S
Eu1011 O1025 2.374 . S
Eu1011 O1026 2.473 . S
Eu1011 O1027 2.480 . S
Eu1011 O1028 2.430 . S
Eu1011 O1029 2.670 . S
Eu1011 O1030 2.394 . S
C1012 C1010 1.500 1_565 S
C1012 C1013 1.377 . S
C1012 C1017 1.377 . S
C1013 C1012 1.377 . S
C1013 C1014 1.395 . S
C1013 H1036 0.931 . S
C1014 C1013 1.395 . S
C1014 C1015 1.383 . S
C1014 H1037 0.931 . S
C1015 C1014 1.383 . S
C1015 C1016 1.394 . S
C1016 C1015 1.394 . S
C1016 C1017 1.378 . S
C1016 H1038 0.931 . S
C1017 C1012 1.377 . S
C1017 C1016 1.378 . S
C1017 H1039 0.931 . S
C1018 O1028 1.259 . S
C1018 O1029 1.270 . S
C1019 O1030 1.251 . S
C1019 O1031 1.251 . S
O1020 C1000 1.257 . S
O1020 Eu1001 2.473 . S
O1021 C1000 1.260 . S
O1021 Eu1001 2.480 . S
O1022 Eu1001 2.430 . S
O1022 C1008 1.259 . S
O1023 Eu1001 2.670 . S
O1023 C1008 1.270 . S
O1023 Eu1011 2.355 . S
O1024 Eu1001 2.394 . S
O1024 C1009 1.251 . S
O1025 C1009 1.251 . S
O1025 Eu1011 2.374 . S
O1026 C1010 1.257 . S
O1026 Eu1011 2.473 . S
O1027 C1010 1.260 . S
O1027 Eu1011 2.480 . S
O1028 Eu1011 2.430 . S
O1028 C1018 1.259 . S
O1029 Eu1001 2.355 . S
O1029 Eu1011 2.670 . S
O1029 C1018 1.270 . S
O1030 Eu1011 2.394 . S
O1030 C1019 1.251 . S
O1031 Eu1001 2.374 . S
O1031 C1019 1.251 . S
H1032 C1003 0.931 . S
H1033 C1004 0.931 . S
H1034 C1006 0.931 . S
H1035 C1007 0.931 . S
H1036 C1013 0.931 . S
H1037 C1014 0.931 . S
H1038 C1016 0.931 . S
H1039 C1017 0.931 . S
C1040 Eu1041 2.835 . S
C1040 C1042 1.500 . S
C1040 O1060 1.257 . S
C1040 O1061 1.260 . S
Eu1041 C1040 2.835 . S
Eu1041 O1060 2.473 . S
Eu1041 O1061 2.480 . S
Eu1041 O1062 2.430 . S
Eu1041 O1063 2.670 . S
Eu1041 O1064 2.394 . S
Eu1041 O1069 2.355 . S
Eu1041 O1071 2.374 . S
C1042 C1040 1.500 . S
C1042 C1043 1.377 . S
C1042 C1047 1.377 . S
C1043 C1042 1.377 . S
C1043 C1044 1.395 . S
C1043 H1072 0.931 . S
C1044 C1043 1.395 . S
C1044 C1045 1.383 . S
C1044 H1073 0.931 . S
C1045 C1044 1.383 . S
C1045 C1046 1.394 . S
C1046 C1045 1.394 . S
C1046 C1047 1.378 . S
C1046 H1074 0.931 . S
C1047 C1042 1.377 . S
C1047 C1046 1.378 . S
C1047 H1075 0.931 . S
C1048 O1062 1.259 . S
C1048 O1063 1.270 . S
C1049 O1064 1.251 . S
C1049 O1065 1.251 . S
C1050 Eu1051 2.835 1_455 S
C1050 C1052 1.500 . S
C1050 O1066 1.257 . S
C1050 O1067 1.260 . S
Eu1051 C1050 2.835 1_655 S
Eu1051 O1063 2.355 . S
Eu1051 O1065 2.374 . S
Eu1051 O1066 2.473 1_655 S
Eu1051 O1067 2.480 1_655 S
Eu1051 O1068 2.430 . S
Eu1051 O1069 2.670 . S
Eu1051 O1070 2.394 . S
C1052 C1050 1.500 . S
C1052 C1053 1.377 . S
C1052 C1057 1.377 . S
C1053 C1052 1.377 . S
C1053 C1054 1.395 . S
C1053 H1076 0.931 . S
C1054 C1053 1.395 . S
C1054 C1055 1.383 . S
C1054 H1077 0.931 . S
C1055 C1054 1.383 . S
C1055 C1056 1.394 . S
C1056 C1055 1.394 . S
C1056 C1057 1.378 . S
C1056 H1078 0.931 . S
C1057 C1052 1.377 . S
C1057 C1056 1.378 . S
C1057 H1079 0.931 . S
C1058 O1068 1.259 . S
C1058 O1069 1.270 . S
C1059 O1070 1.251 . S
C1059 O1071 1.251 . S
O1060 C1040 1.257 . S
O1060 Eu1041 2.473 . S
O1061 C1040 1.260 . S
O1061 Eu1041 2.480 . S
O1062 Eu1041 2.430 . S
O1062 C1048 1.259 . S
O1063 Eu1041 2.670 . S
O1063 C1048 1.270 . S
O1063 Eu1051 2.355 . S
O1064 Eu1041 2.394 . S
O1064 C1049 1.251 . S
O1065 C1049 1.251 . S
O1065 Eu1051 2.374 . S
O1066 C1050 1.257 . S
O1066 Eu1051 2.473 1_455 S
O1067 C1050 1.260 . S
O1067 Eu1051 2.480 1_455 S
O1068 Eu1051 2.430 . S
O1068 C1058 1.259 . S
O1069 Eu1041 2.355 . S
O1069 Eu1051 2.670 . S
O1069 C1058 1.270 . S
O1070 Eu1051 2.394 . S
O1070 C1059 1.251 . S
O1071 Eu1041 2.374 . S
O1071 C1059 1.251 . S
H1072 C1043 0.931 . S
H1073 C1044 0.931 . S
H1074 C1046 0.931 . S
H1075 C1047 0.931 . S
H1076 C1053 0.931 . S
H1077 C1054 0.931 . S
H1078 C1056 0.931 . S
H1079 C1057 0.931 . S
C1080 Eu1081 2.835 . S
C1080 C1082 1.500 . S
C1080 O1100 1.257 . S
C1080 O1101 1.260 . S
Eu1081 C1080 2.835 . S
Eu1081 O1100 2.473 . S
Eu1081 O1101 2.480 . S
Eu1081 O1102 2.430 . S
Eu1081 O1103 2.670 . S
Eu1081 O1104 2.394 . S
Eu1081 O1109 2.355 . S
Eu1081 O1111 2.374 . S
C1082 C1080 1.500 . S
C1082 C1083 1.377 . S
C1082 C1087 1.377 . S
C1083 C1082 1.377 . S
C1083 C1084 1.395 . S
C1083 H1112 0.931 . S
C1084 C1083 1.395 . S
C1084 C1085 1.383 . S
C1084 H1113 0.931 . S
C1085 C1084 1.383 . S
C1085 C1086 1.394 . S
C1086 C1085 1.394 . S
C1086 C1087 1.378 . S
C1086 H1114 0.931 . S
C1087 C1082 1.377 . S
C1087 C1086 1.378 . S
C1087 H1115 0.931 . S
C1088 O1102 1.259 . S
C1088 O1103 1.270 . S
C1089 O1104 1.251 . S
C1089 O1105 1.251 . S
C1090 Eu1091 2.835 . S
C1090 C1092 1.500 . S
C1090 O1106 1.257 . S
C1090 O1107 1.260 . S
Eu1091 C1090 2.835 . S
Eu1091 O1103 2.355 . S
Eu1091 O1105 2.374 . S
Eu1091 O1106 2.473 . S
Eu1091 O1107 2.480 . S
Eu1091 O1108 2.430 . S
Eu1091 O1109 2.670 . S
Eu1091 O1110 2.394 . S
C1092 C1090 1.500 . S
C1092 C1093 1.377 . S
C1092 C1097 1.377 . S
C1093 C1092 1.377 . S
C1093 C1094 1.395 . S
C1093 H1116 0.931 . S
C1094 C1093 1.395 . S
C1094 C1095 1.383 . S
C1094 H1117 0.931 . S
C1095 C1094 1.383 . S
C1095 C1096 1.394 . S
C1096 C1095 1.394 . S
C1096 C1097 1.378 . S
C1096 H1118 0.931 . S
C1097 C1092 1.377 . S
C1097 C1096 1.378 . S
C1097 H1119 0.931 . S
C1098 O1108 1.259 . S
C1098 O1109 1.270 . S
C1099 O1110 1.251 . S
C1099 O1111 1.251 . S
O1100 C1080 1.257 . S
O1100 Eu1081 2.473 . S
O1101 C1080 1.260 . S
O1101 Eu1081 2.480 . S
O1102 Eu1081 2.430 . S
O1102 C1088 1.259 . S
O1103 Eu1081 2.670 . S
O1103 C1088 1.270 . S
O1103 Eu1091 2.355 . S
O1104 Eu1081 2.394 . S
O1104 C1089 1.251 . S
O1105 C1089 1.251 . S
O1105 Eu1091 2.374 . S
O1106 C1090 1.257 . S
O1106 Eu1091 2.473 . S
O1107 C1090 1.260 . S
O1107 Eu1091 2.480 . S
O1108 Eu1091 2.430 . S
O1108 C1098 1.259 . S
O1109 Eu1081 2.355 . S
O1109 Eu1091 2.670 . S
O1109 C1098 1.270 . S
O1110 Eu1091 2.394 . S
O1110 C1099 1.251 . S
O1111 Eu1081 2.374 . S
O1111 C1099 1.251 . S
H1112 C1083 0.931 . S
H1113 C1084 0.931 . S
H1114 C1086 0.931 . S
H1115 C1087 0.931 . S
H1116 C1093 0.931 . S
H1117 C1094 0.931 . S
H1118 C1096 0.931 . S
H1119 C1097 0.931 . S
C1120 Eu1121 2.835 . S
C1120 C1122 1.500 . S
C1120 O1140 1.257 . S
C1120 O1141 1.260 . S
Eu1121 C1120 2.835 . S
Eu1121 O1140 2.473 . S
Eu1121 O1141 2.480 . S
Eu1121 O1142 2.430 . S
Eu1121 O1143 2.670 . S
Eu1121 O1144 2.394 . S
Eu1121 O1149 2.355 . S
Eu1121 O1151 2.374 . S
C1122 C1120 1.500 . S
C1122 C1123 1.377 . S
C1122 C1127 1.377 . S
C1123 C1122 1.377 . S
C1123 C1124 1.395 . S
C1123 H1152 0.931 . S
C1124 C1123 1.395 . S
C1124 C1125 1.383 1_545 S
C1124 H1153 0.931 1_545 S
C1125 C1124 1.383 1_565 S
C1125 C1126 1.394 1_565 S
C1126 C1125 1.394 1_545 S
C1126 C1127 1.378 . S
C1126 H1154 0.931 1_545 S
C1127 C1122 1.377 . S
C1127 C1126 1.378 . S
C1127 H1155 0.931 . S
C1128 O1142 1.259 . S
C1128 O1143 1.270 . S
C1129 O1144 1.251 . S
C1129 O1145 1.251 . S
C1130 Eu1131 2.835 . S
C1130 C1132 1.500 . S
C1130 O1146 1.257 . S
C1130 O1147 1.260 . S
Eu1131 C1130 2.835 . S
Eu1131 O1143 2.355 . S
Eu1131 O1145 2.374 . S
Eu1131 O1146 2.473 . S
Eu1131 O1147 2.480 . S
Eu1131 O1148 2.430 . S
Eu1131 O1149 2.670 . S
Eu1131 O1150 2.394 . S
C1132 C1130 1.500 . S
C1132 C1133 1.377 . S
C1132 C1137 1.377 . S
C1133 C1132 1.377 . S
C1133 C1134 1.395 . S
C1133 H1156 0.931 . S
C1134 C1133 1.395 . S
C1134 C1135 1.383 . S
C1134 H1157 0.931 . S
C1135 C1134 1.383 . S
C1135 C1136 1.394 . S
C1136 C1135 1.394 . S
C1136 C1137 1.378 . S
C1136 H1158 0.931 . S
C1137 C1132 1.377 . S
C1137 C1136 1.378 . S
C1137 H1159 0.931 . S
C1138 O1148 1.259 . S
C1138 O1149 1.270 . S
C1139 O1150 1.251 . S
C1139 O1151 1.251 . S
O1140 C1120 1.257 . S
O1140 Eu1121 2.473 . S
O1141 C1120 1.260 . S
O1141 Eu1121 2.480 . S
O1142 Eu1121 2.430 . S
O1142 C1128 1.259 . S
O1143 Eu1121 2.670 . S
O1143 C1128 1.270 . S
O1143 Eu1131 2.355 . S
O1144 Eu1121 2.394 . S
O1144 C1129 1.251 . S
O1145 C1129 1.251 . S
O1145 Eu1131 2.374 . S
O1146 C1130 1.257 . S
O1146 Eu1131 2.473 . S
O1147 C1130 1.260 . S
O1147 Eu1131 2.480 . S
O1148 Eu1131 2.430 . S
O1148 C1138 1.259 . S
O1149 Eu1121 2.355 . S
O1149 Eu1131 2.670 . S
O1149 C1138 1.270 . S
O1150 Eu1131 2.394 . S
O1150 C1139 1.251 . S
O1151 Eu1121 2.374 . S
O1151 C1139 1.251 . S
H1152 C1123 0.931 . S
H1153 C1124 0.931 1_565 S
H1154 C1126 0.931 1_565 S
H1155 C1127 0.931 . S
H1156 C1133 0.931 . S
H1157 C1134 0.931 . S
H1158 C1136 0.931 . S
H1159 C1137 0.931 . S
C1160 Eu1161 2.835 . S
C1160 C1162 1.500 1_655 S
C1160 O1180 1.257 . S
C1160 O1181 1.260 . S
Eu1161 C1160 2.835 . S
Eu1161 O1180 2.473 . S
Eu1161 O1181 2.480 . S
Eu1161 O1182 2.430 . S
Eu1161 O1183 2.670 . S
Eu1161 O1184 2.394 . S
Eu1161 O1189 2.355 . S
Eu1161 O1191 2.374 . S
C1162 C1160 1.500 1_455 S
C1162 C1163 1.377 . S
C1162 C1167 1.377 . S
C1163 C1162 1.377 . S
C1163 C1164 1.395 . S
C1163 H1192 0.931 . S
C1164 C1163 1.395 . S
C1164 C1165 1.383 . S
C1164 H1193 0.931 . S
C1165 C1164 1.383 . S
C1165 C1166 1.394 . S
C1166 C1165 1.394 . S
C1166 C1167 1.378 . S
C1166 H1194 0.931 . S
C1167 C1162 1.377 . S
C1167 C1166 1.378 . S
C1167 H1195 0.931 . S
C1168 O1182 1.259 . S
C1168 O1183 1.270 . S
C1169 O1184 1.251 . S
C1169 O1185 1.251 . S
C1170 Eu1171 2.835 . S
C1170 C1172 1.500 . S
C1170 O1186 1.257 . S
C1170 O1187 1.260 . S
Eu1171 C1170 2.835 . S
Eu1171 O1183 2.355 . S
Eu1171 O1185 2.374 . S
Eu1171 O1186 2.473 . S
Eu1171 O1187 2.480 . S
Eu1171 O1188 2.430 . S
Eu1171 O1189 2.670 . S
Eu1171 O1190 2.394 . S
C1172 C1170 1.500 . S
C1172 C1173 1.377 . S
C1172 C1177 1.377 . S
C1173 C1172 1.377 . S
C1173 C1174 1.395 . S
C1173 H1196 0.931 . S
C1174 C1173 1.395 . S
C1174 C1175 1.383 . S
C1174 H1197 0.931 . S
C1175 C1174 1.383 . S
C1175 C1176 1.394 . S
C1176 C1175 1.394 . S
C1176 C1177 1.378 . S
C1176 H1198 0.931 . S
C1177 C1172 1.377 . S
C1177 C1176 1.378 . S
C1177 H1199 0.931 . S
C1178 O1188 1.259 . S
C1178 O1189 1.270 . S
C1179 O1190 1.251 . S
C1179 O1191 1.251 . S
O1180 C1160 1.257 . S
O1180 Eu1161 2.473 . S
O1181 C1160 1.260 . S
O1181 Eu1161 2.480 . S
O1182 Eu1161 2.430 . S
O1182 C1168 1.259 . S
O1183 Eu1161 2.670 . S
O1183 C1168 1.270 . S
O1183 Eu1171 2.355 . S
O1184 Eu1161 2.394 . S
O1184 C1169 1.251 . S
O1185 C1169 1.251 . S
O1185 Eu1171 2.374 . S
O1186 C1170 1.257 . S
O1186 Eu1171 2.473 . S
O1187 C1170 1.260 . S
O1187 Eu1171 2.480 . S
O1188 Eu1171 2.430 . S
O1188 C1178 1.259 . S
O1189 Eu1161 2.355 . S
O1189 Eu1171 2.670 . S
O1189 C1178 1.270 . S
O1190 Eu1171 2.394 . S
O1190 C1179 1.251 . S
O1191 Eu1161 2.374 . S
O1191 C1179 1.251 . S
H1192 C1163 0.931 . S
H1193 C1164 0.931 . S
H1194 C1166 0.931 . S
H1195 C1167 0.931 . S
H1196 C1173 0.931 . S
H1197 C1174 0.931 . S
H1198 C1176 0.931 . S
H1199 C1177 0.931 . S
C1200 Eu1201 2.835 . S
C1200 C1202 1.500 . S
C1200 O1220 1.257 . S
C1200 O1221 1.260 . S
Eu1201 C1200 2.835 . S
Eu1201 O1220 2.473 . S
Eu1201 O1221 2.480 . S
Eu1201 O1222 2.430 . S
Eu1201 O1223 2.670 . S
Eu1201 O1224 2.394 . S
Eu1201 O1229 2.355 . S
Eu1201 O1231 2.374 . S
C1202 C1200 1.500 . S
C1202 C1203 1.377 . S
C1202 C1207 1.377 . S
C1203 C1202 1.377 . S
C1203 C1204 1.395 . S
C1203 H1232 0.931 . S
C1204 C1203 1.395 . S
C1204 C1205 1.383 . S
C1204 H1233 0.931 . S
C1205 C1204 1.383 . S
C1205 C1206 1.394 . S
C1206 C1205 1.394 . S
C1206 C1207 1.378 . S
C1206 H1234 0.931 . S
C1207 C1202 1.377 . S
C1207 C1206 1.378 . S
C1207 H1235 0.931 . S
C1208 O1222 1.259 . S
C1208 O1223 1.270 . S
C1209 O1224 1.251 . S
C1209 O1225 1.251 . S
C1210 Eu1211 2.835 . S
C1210 C1212 1.500 . S
C1210 O1226 1.257 . S
C1210 O1227 1.260 . S
Eu1211 C1210 2.835 . S
Eu1211 O1223 2.355 . S
Eu1211 O1225 2.374 . S
Eu1211 O1226 2.473 . S
Eu1211 O1227 2.480 . S
Eu1211 O1228 2.430 . S
Eu1211 O1229 2.670 . S
Eu1211 O1230 2.394 . S
C1212 C1210 1.500 . S
C1212 C1213 1.377 . S
C1212 C1217 1.377 . S
C1213 C1212 1.377 . S
C1213 C1214 1.395 . S
C1213 H1236 0.931 . S
C1214 C1213 1.395 . S
C1214 C1215 1.383 . S
C1214 H1237 0.931 . S
C1215 C1214 1.383 . S
C1215 C1216 1.394 . S
C1216 C1215 1.394 . S
C1216 C1217 1.378 . S
C1216 H1238 0.931 . S
C1217 C1212 1.377 . S
C1217 C1216 1.378 . S
C1217 H1239 0.931 . S
C1218 O1228 1.259 . S
C1218 O1229 1.270 . S
C1219 O1230 1.251 . S
C1219 O1231 1.251 . S
O1220 C1200 1.257 . S
O1220 Eu1201 2.473 . S
O1221 C1200 1.260 . S
O1221 Eu1201 2.480 . S
O1222 Eu1201 2.430 . S
O1222 C1208 1.259 . S
O1223 Eu1201 2.670 . S
O1223 C1208 1.270 . S
O1223 Eu1211 2.355 . S
O1224 Eu1201 2.394 . S
O1224 C1209 1.251 . S
O1225 C1209 1.251 . S
O1225 Eu1211 2.374 . S
O1226 C1210 1.257 . S
O1226 Eu1211 2.473 . S
O1227 C1210 1.260 . S
O1227 Eu1211 2.480 . S
O1228 Eu1211 2.430 . S
O1228 C1218 1.259 . S
O1229 Eu1201 2.355 . S
O1229 Eu1211 2.670 . S
O1229 C1218 1.270 . S
O1230 Eu1211 2.394 . S
O1230 C1219 1.251 . S
O1231 Eu1201 2.374 . S
O1231 C1219 1.251 . S
H1232 C1203 0.931 . S
H1233 C1204 0.931 . S
H1234 C1206 0.931 . S
H1235 C1207 0.931 . S
H1236 C1213 0.931 . S
H1237 C1214 0.931 . S
H1238 C1216 0.931 . S
H1239 C1217 0.931 . S
C1240 Eu1241 2.835 . S
C1240 C1242 1.500 . S
C1240 O1260 1.257 . S
C1240 O1261 1.260 . S
Eu1241 C1240 2.835 . S
Eu1241 O1260 2.473 . S
Eu1241 O1261 2.480 . S
Eu1241 O1262 2.430 . S
Eu1241 O1263 2.670 . S
Eu1241 O1264 2.394 . S
Eu1241 O1269 2.355 . S
Eu1241 O1271 2.374 . S
C1242 C1240 1.500 . S
C1242 C1243 1.377 . S
C1242 C1247 1.377 . S
C1243 C1242 1.377 . S
C1243 C1244 1.395 . S
C1243 H1272 0.931 . S
C1244 C1243 1.395 . S
C1244 C1245 1.383 . S
C1244 H1273 0.931 . S
C1245 C1244 1.383 . S
C1245 C1246 1.394 . S
C1246 C1245 1.394 . S
C1246 C1247 1.378 . S
C1246 H1274 0.931 . S
C1247 C1242 1.377 . S
C1247 C1246 1.378 . S
C1247 H1275 0.931 . S
C1248 O1262 1.259 . S
C1248 O1263 1.270 . S
C1249 O1264 1.251 . S
C1249 O1265 1.251 . S
C1250 Eu1251 2.835 . S
C1250 C1252 1.500 . S
C1250 O1266 1.257 . S
C1250 O1267 1.260 . S
Eu1251 C1250 2.835 . S
Eu1251 O1263 2.355 . S
Eu1251 O1265 2.374 . S
Eu1251 O1266 2.473 . S
Eu1251 O1267 2.480 . S
Eu1251 O1268 2.430 . S
Eu1251 O1269 2.670 . S
Eu1251 O1270 2.394 . S
C1252 C1250 1.500 . S
C1252 C1253 1.377 . S
C1252 C1257 1.377 . S
C1253 C1252 1.377 . S
C1253 C1254 1.395 . S
C1253 H1276 0.931 . S
C1254 C1253 1.395 . S
C1254 C1255 1.383 1_545 S
C1254 H1277 0.931 1_545 S
C1255 C1254 1.383 1_565 S
C1255 C1256 1.394 1_565 S
C1256 C1255 1.394 1_545 S
C1256 C1257 1.378 . S
C1256 H1278 0.931 1_545 S
C1257 C1252 1.377 . S
C1257 C1256 1.378 . S
C1257 H1279 0.931 . S
C1258 O1268 1.259 . S
C1258 O1269 1.270 . S
C1259 O1270 1.251 . S
C1259 O1271 1.251 . S
O1260 C1240 1.257 . S
O1260 Eu1241 2.473 . S
O1261 C1240 1.260 . S
O1261 Eu1241 2.480 . S
O1262 Eu1241 2.430 . S
O1262 C1248 1.259 . S
O1263 Eu1241 2.670 . S
O1263 C1248 1.270 . S
O1263 Eu1251 2.355 . S
O1264 Eu1241 2.394 . S
O1264 C1249 1.251 . S
O1265 C1249 1.251 . S
O1265 Eu1251 2.374 . S
O1266 C1250 1.257 . S
O1266 Eu1251 2.473 . S
O1267 C1250 1.260 . S
O1267 Eu1251 2.480 . S
O1268 Eu1251 2.430 . S
O1268 C1258 1.259 . S
O1269 Eu1241 2.355 . S
O1269 Eu1251 2.670 . S
O1269 C1258 1.270 . S
O1270 Eu1251 2.394 . S
O1270 C1259 1.251 . S
O1271 Eu1241 2.374 . S
O1271 C1259 1.251 . S
H1272 C1243 0.931 . S
H1273 C1244 0.931 . S
H1274 C1246 0.931 . S
H1275 C1247 0.931 . S
H1276 C1253 0.931 . S
H1277 C1254 0.931 1_565 S
H1278 C1256 0.931 1_565 S
H1279 C1257 0.931 . S
C1280 Eu1281 2.835 . S
C1280 C1282 1.500 . S
C1280 O1300 1.257 . S
C1280 O1301 1.260 . S
Eu1281 C1280 2.835 . S
Eu1281 O1300 2.473 . S
Eu1281 O1301 2.480 . S
Eu1281 O1302 2.430 . S
Eu1281 O1303 2.670 . S
Eu1281 O1304 2.394 . S
Eu1281 O1309 2.355 . S
Eu1281 O1311 2.374 . S
C1282 C1280 1.500 . S
C1282 C1283 1.377 . S
C1282 C1287 1.377 . S
C1283 C1282 1.377 . S
C1283 C1284 1.395 . S
C1283 H1312 0.931 . S
C1284 C1283 1.395 . S
C1284 C1285 1.383 . S
C1284 H1313 0.931 . S
C1285 C1284 1.383 . S
C1285 C1286 1.394 . S
C1286 C1285 1.394 . S
C1286 C1287 1.378 . S
C1286 H1314 0.931 . S
C1287 C1282 1.377 . S
C1287 C1286 1.378 . S
C1287 H1315 0.931 . S
C1288 O1302 1.259 . S
C1288 O1303 1.270 . S
C1289 O1304 1.251 . S
C1289 O1305 1.251 . S
C1290 Eu1291 2.835 . S
C1290 C1292 1.500 1_655 S
C1290 O1306 1.257 . S
C1290 O1307 1.260 . S
Eu1291 C1290 2.835 . S
Eu1291 O1303 2.355 . S
Eu1291 O1305 2.374 . S
Eu1291 O1306 2.473 . S
Eu1291 O1307 2.480 . S
Eu1291 O1308 2.430 . S
Eu1291 O1309 2.670 . S
Eu1291 O1310 2.394 . S
C1292 C1290 1.500 1_455 S
C1292 C1293 1.377 . S
C1292 C1297 1.377 . S
C1293 C1292 1.377 . S
C1293 C1294 1.395 . S
C1293 H1316 0.931 . S
C1294 C1293 1.395 . S
C1294 C1295 1.383 . S
C1294 H1317 0.931 . S
C1295 C1294 1.383 . S
C1295 C1296 1.394 . S
C1296 C1295 1.394 . S
C1296 C1297 1.378 . S
C1296 H1318 0.931 . S
C1297 C1292 1.377 . S
C1297 C1296 1.378 . S
C1297 H1319 0.931 . S
C1298 O1308 1.259 . S
C1298 O1309 1.270 . S
C1299 O1310 1.251 . S
C1299 O1311 1.251 . S
O1300 C1280 1.257 . S
O1300 Eu1281 2.473 . S
O1301 C1280 1.260 . S
O1301 Eu1281 2.480 . S
O1302 Eu1281 2.430 . S
O1302 C1288 1.259 . S
O1303 Eu1281 2.670 . S
O1303 C1288 1.270 . S
O1303 Eu1291 2.355 . S
O1304 Eu1281 2.394 . S
O1304 C1289 1.251 . S
O1305 C1289 1.251 . S
O1305 Eu1291 2.374 . S
O1306 C1290 1.257 . S
O1306 Eu1291 2.473 . S
O1307 C1290 1.260 . S
O1307 Eu1291 2.480 . S
O1308 Eu1291 2.430 . S
O1308 C1298 1.259 . S
O1309 Eu1281 2.355 . S
O1309 Eu1291 2.670 . S
O1309 C1298 1.270 . S
O1310 Eu1291 2.394 . S
O1310 C1299 1.251 . S
O1311 Eu1281 2.374 . S
O1311 C1299 1.251 . S
H1312 C1283 0.931 . S
H1313 C1284 0.931 . S
H1314 C1286 0.931 . S
H1315 C1287 0.931 . S
H1316 C1293 0.931 . S
H1317 C1294 0.931 . S
H1318 C1296 0.931 . S
H1319 C1297 0.931 . S
C1320 Eu1321 2.835 . S
C1320 C1322 1.500 . S
C1320 O1340 1.257 . S
C1320 O1341 1.260 . S
Eu1321 C1320 2.835 . S
Eu1321 O1340 2.473 . S
Eu1321 O1341 2.480 . S
Eu1321 O1342 2.430 . S
Eu1321 O1343 2.670 . S
Eu1321 O1344 2.394 . S
Eu1321 O1349 2.355 . S
Eu1321 O1351 2.374 . S
C1322 C1320 1.500 . S
C1322 C1323 1.377 . S
C1322 C1327 1.377 . S
C1323 C1322 1.377 . S
C1323 C1324 1.395 . S
C1323 H1352 0.931 . S
C1324 C1323 1.395 . S
C1324 C1325 1.383 . S
C1324 H1353 0.931 . S
C1325 C1324 1.383 . S
C1325 C1326 1.394 . S
C1326 C1325 1.394 . S
C1326 C1327 1.378 . S
C1326 H1354 0.931 . S
C1327 C1322 1.377 . S
C1327 C1326 1.378 . S
C1327 H1355 0.931 . S
C1328 O1342 1.259 . S
C1328 O1343 1.270 . S
C1329 O1344 1.251 . S
C1329 O1345 1.251 . S
C1330 Eu1331 2.835 . S
C1330 C1332 1.500 . S
C1330 O1346 1.257 . S
C1330 O1347 1.260 . S
Eu1331 C1330 2.835 . S
Eu1331 O1343 2.355 . S
Eu1331 O1345 2.374 . S
Eu1331 O1346 2.473 . S
Eu1331 O1347 2.480 . S
Eu1331 O1348 2.430 . S
Eu1331 O1349 2.670 . S
Eu1331 O1350 2.394 . S
C1332 C1330 1.500 . S
C1332 C1333 1.377 . S
C1332 C1337 1.377 . S
C1333 C1332 1.377 . S
C1333 C1334 1.395 . S
C1333 H1356 0.931 . S
C1334 C1333 1.395 . S
C1334 C1335 1.383 . S
C1334 H1357 0.931 . S
C1335 C1334 1.383 . S
C1335 C1336 1.394 . S
C1336 C1335 1.394 . S
C1336 C1337 1.378 . S
C1336 H1358 0.931 . S
C1337 C1332 1.377 . S
C1337 C1336 1.378 . S
C1337 H1359 0.931 . S
C1338 O1348 1.259 . S
C1338 O1349 1.270 . S
C1339 O1350 1.251 . S
C1339 O1351 1.251 . S
O1340 C1320 1.257 . S
O1340 Eu1321 2.473 . S
O1341 C1320 1.260 . S
O1341 Eu1321 2.480 . S
O1342 Eu1321 2.430 . S
O1342 C1328 1.259 . S
O1343 Eu1321 2.670 . S
O1343 C1328 1.270 . S
O1343 Eu1331 2.355 . S
O1344 Eu1321 2.394 . S
O1344 C1329 1.251 . S
O1345 C1329 1.251 . S
O1345 Eu1331 2.374 . S
O1346 C1330 1.257 . S
O1346 Eu1331 2.473 . S
O1347 C1330 1.260 . S
O1347 Eu1331 2.480 . S
O1348 Eu1331 2.430 . S
O1348 C1338 1.259 . S
O1349 Eu1321 2.355 . S
O1349 Eu1331 2.670 . S
O1349 C1338 1.270 . S
O1350 Eu1331 2.394 . S
O1350 C1339 1.251 . S
O1351 Eu1321 2.374 . S
O1351 C1339 1.251 . S
H1352 C1323 0.931 . S
H1353 C1324 0.931 . S
H1354 C1326 0.931 . S
H1355 C1327 0.931 . S
H1356 C1333 0.931 . S
H1357 C1334 0.931 . S
H1358 C1336 0.931 . S
H1359 C1337 0.931 . S
C1360 Eu1361 2.835 . S
C1360 C1362 1.500 1_545 S
C1360 O1380 1.257 . S
C1360 O1381 1.260 . S
Eu1361 C1360 2.835 . S
Eu1361 O1380 2.473 . S
Eu1361 O1381 2.480 . S
Eu1361 O1382 2.430 . S
Eu1361 O1383 2.670 . S
Eu1361 O1384 2.394 . S
Eu1361 O1389 2.355 . S
Eu1361 O1391 2.374 . S
C1362 C1360 1.500 1_565 S
C1362 C1363 1.377 . S
C1362 C1367 1.377 . S
C1363 C1362 1.377 . S
C1363 C1364 1.395 . S
C1363 H1392 0.931 . S
C1364 C1363 1.395 . S
C1364 C1365 1.383 . S
C1364 H1393 0.931 . S
C1365 C1364 1.383 . S
C1365 C1366 1.394 . S
C1366 C1365 1.394 . S
C1366 C1367 1.378 . S
C1366 H1394 0.931 . S
C1367 C1362 1.377 . S
C1367 C1366 1.378 . S
C1367 H1395 0.931 . S
C1368 O1382 1.259 . S
C1368 O1383 1.270 . S
C1369 O1384 1.251 . S
C1369 O1385 1.251 . S
C1370 Eu1371 2.835 . S
C1370 C1372 1.500 . S
C1370 O1386 1.257 . S
C1370 O1387 1.260 . S
Eu1371 C1370 2.835 . S
Eu1371 O1383 2.355 . S
Eu1371 O1385 2.374 . S
Eu1371 O1386 2.473 . S
Eu1371 O1387 2.480 . S
Eu1371 O1388 2.430 . S
Eu1371 O1389 2.670 . S
Eu1371 O1390 2.394 . S
C1372 C1370 1.500 . S
C1372 C1373 1.377 . S
C1372 C1377 1.377 . S
C1373 C1372 1.377 . S
C1373 C1374 1.395 . S
C1373 H1396 0.931 . S
C1374 C1373 1.395 . S
C1374 C1375 1.383 . S
C1374 H1397 0.931 . S
C1375 C1374 1.383 . S
C1375 C1376 1.394 . S
C1376 C1375 1.394 . S
C1376 C1377 1.378 . S
C1376 H1398 0.931 . S
C1377 C1372 1.377 . S
C1377 C1376 1.378 . S
C1377 H1399 0.931 . S
C1378 O1388 1.259 . S
C1378 O1389 1.270 . S
C1379 O1390 1.251 . S
C1379 O1391 1.251 . S
O1380 C1360 1.257 . S
O1380 Eu1361 2.473 . S
O1381 C1360 1.260 . S
O1381 Eu1361 2.480 . S
O1382 Eu1361 2.430 . S
O1382 C1368 1.259 . S
O1383 Eu1361 2.670 . S
O1383 C1368 1.270 . S
O1383 Eu1371 2.355 . S
O1384 Eu1361 2.394 . S
O1384 C1369 1.251 . S
O1385 C1369 1.251 . S
O1385 Eu1371 2.374 . S
O1386 C1370 1.257 . S
O1386 Eu1371 2.473 . S
O1387 C1370 1.260 . S
O1387 Eu1371 2.480 . S
O1388 Eu1371 2.430 . S
O1388 C1378 1.259 . S
O1389 Eu1361 2.355 . S
O1389 Eu1371 2.670 . S
O1389 C1378 1.270 . S
O1390 Eu1371 2.394 . S
O1390 C1379 1.251 . S
O1391 Eu1361 2.374 . S
O1391 C1379 1.251 . S
H1392 C1363 0.931 . S
H1393 C1364 0.931 . S
H1394 C1366 0.931 . S
H1395 C1367 0.931 . S
H1396 C1373 0.931 . S
H1397 C1374 0.931 . S
H1398 C1376 0.931 . S
H1399 C1377 0.931 . S
C1400 Eu1401 2.835 1_455 S
C1400 C1402 1.500 . S
C1400 O1420 1.257 . S
C1400 O1421 1.260 . S
Eu1401 C1400 2.835 1_655 S
Eu1401 O1420 2.473 1_655 S
Eu1401 O1421 2.480 1_655 S
Eu1401 O1422 2.430 . S
Eu1401 O1423 2.670 . S
Eu1401 O1424 2.394 . S
Eu1401 O1429 2.355 . S
Eu1401 O1431 2.374 . S
C1402 C1400 1.500 . S
C1402 C1403 1.377 . S
C1402 C1407 1.377 . S
C1403 C1402 1.377 . S
C1403 C1404 1.395 . S
C1403 H1432 0.931 . S
C1404 C1403 1.395 . S
C1404 C1405 1.383 . S
C1404 H1433 0.931 . S
C1405 C1404 1.383 . S
C1405 C1406 1.394 . S
C1406 C1405 1.394 . S
C1406 C1407 1.378 . S
C1406 H1434 0.931 . S
C1407 C1402 1.377 . S
C1407 C1406 1.378 . S
C1407 H1435 0.931 . S
C1408 O1422 1.259 . S
C1408 O1423 1.270 . S
C1409 O1424 1.251 . S
C1409 O1425 1.251 . S
C1410 Eu1411 2.835 . S
C1410 C1412 1.500 . S
C1410 O1426 1.257 . S
C1410 O1427 1.260 . S
Eu1411 C1410 2.835 . S
Eu1411 O1423 2.355 . S
Eu1411 O1425 2.374 . S
Eu1411 O1426 2.473 . S
Eu1411 O1427 2.480 . S
Eu1411 O1428 2.430 . S
Eu1411 O1429 2.670 . S
Eu1411 O1430 2.394 . S
C1412 C1410 1.500 . S
C1412 C1413 1.377 . S
C1412 C1417 1.377 . S
C1413 C1412 1.377 . S
C1413 C1414 1.395 . S
C1413 H1436 0.931 . S
C1414 C1413 1.395 . S
C1414 C1415 1.383 . S
C1414 H1437 0.931 . S
C1415 C1414 1.383 . S
C1415 C1416 1.394 . S
C1416 C1415 1.394 . S
C1416 C1417 1.378 . S
C1416 H1438 0.931 . S
C1417 C1412 1.377 . S
C1417 C1416 1.378 . S
C1417 H1439 0.931 . S
C1418 O1428 1.259 . S
C1418 O1429 1.270 . S
C1419 O1430 1.251 . S
C1419 O1431 1.251 . S
O1420 C1400 1.257 . S
O1420 Eu1401 2.473 1_455 S
O1421 C1400 1.260 . S
O1421 Eu1401 2.480 1_455 S
O1422 Eu1401 2.430 . S
O1422 C1408 1.259 . S
O1423 Eu1401 2.670 . S
O1423 C1408 1.270 . S
O1423 Eu1411 2.355 . S
O1424 Eu1401 2.394 . S
O1424 C1409 1.251 . S
O1425 C1409 1.251 . S
O1425 Eu1411 2.374 . S
O1426 C1410 1.257 . S
O1426 Eu1411 2.473 . S
O1427 C1410 1.260 . S
O1427 Eu1411 2.480 . S
O1428 Eu1411 2.430 . S
O1428 C1418 1.259 . S
O1429 Eu1401 2.355 . S
O1429 Eu1411 2.670 . S
O1429 C1418 1.270 . S
O1430 Eu1411 2.394 . S
O1430 C1419 1.251 . S
O1431 Eu1401 2.374 . S
O1431 C1419 1.251 . S
H1432 C1403 0.931 . S
H1433 C1404 0.931 . S
H1434 C1406 0.931 . S
H1435 C1407 0.931 . S
H1436 C1413 0.931 . S
H1437 C1414 0.931 . S
H1438 C1416 0.931 . S
H1439 C1417 0.931 . S
C1440 C1441 1.387 . S
C1440 H1444 0.950 . S
C1440 C1449 1.390 . S
C1441 C1440 1.387 . S
C1441 C1443 1.387 . S
H1442 C1449 0.950 . S
C1443 C1441 1.387 . S
C1443 C1445 1.390 . S
C1443 H1447 0.950 . S
H1444 C1440 0.950 . S
C1445 C1443 1.390 . S
C1445 C1446 1.387 . S
C1445 H1448 0.950 . S
C1446 C1445 1.387 . S
C1446 C1449 1.387 . S
H1447 C1443 0.950 . S
H1448 C1445 0.950 . S
C1449 C1440 1.390 . S
C1449 H1442 0.950 . S
C1449 C1446 1.387 . S
C1450 C1451 1.387 . S
C1450 H1454 0.950 1_655 S
C1450 C1459 1.390 1_655 S
C1451 C1450 1.387 . S
C1451 C1453 1.387 . S
H1452 C1459 0.950 . S
C1453 C1451 1.387 . S
C1453 C1455 1.390 . S
C1453 H1457 0.950 . S
H1454 C1450 0.950 1_455 S
C1455 C1453 1.390 . S
C1455 C1456 1.387 . S
C1455 H1458 0.950 . S
C1456 C1455 1.387 . S
C1456 C1459 1.387 1_655 S
H1457 C1453 0.950 . S
H1458 C1455 0.950 . S
C1459 C1450 1.390 1_455 S
C1459 H1452 0.950 . S
C1459 C1456 1.387 1_455 S
C1460 C1461 1.387 . S
C1460 H1464 0.950 . S
C1460 C1469 1.390 . S
C1461 C1460 1.387 . S
C1461 C1463 1.387 . S
H1462 C1469 0.950 . S
C1463 C1461 1.387 . S
C1463 C1465 1.390 . S
C1463 H1467 0.950 . S
H1464 C1460 0.950 . S
C1465 C1463 1.390 . S
C1465 C1466 1.387 . S
C1465 H1468 0.950 . S
C1466 C1465 1.387 . S
C1466 C1469 1.387 . S
H1467 C1463 0.950 . S
H1468 C1465 0.950 . S
C1469 C1460 1.390 . S
C1469 H1462 0.950 . S
C1469 C1466 1.387 . S
C1470 C1471 1.387 . S
C1470 H1474 0.950 . S
C1470 C1479 1.390 . S
C1471 C1470 1.387 . S
C1471 C1473 1.387 . S
H1472 C1479 0.950 . S
C1473 C1471 1.387 . S
C1473 C1475 1.390 . S
C1473 H1477 0.950 . S
H1474 C1470 0.950 . S
C1475 C1473 1.390 . S
C1475 C1476 1.387 . S
C1475 H1478 0.950 . S
C1476 C1475 1.387 . S
C1476 C1479 1.387 . S
H1477 C1473 0.950 . S
H1478 C1475 0.950 . S
C1479 C1470 1.390 . S
C1479 H1472 0.950 . S
C1479 C1476 1.387 . S
C1480 C1481 1.387 . S
C1480 H1484 0.950 . S
C1480 C1489 1.390 . S
C1481 C1480 1.387 . S
C1481 C1483 1.387 . S
H1482 C1489 0.950 . S
C1483 C1481 1.387 . S
C1483 C1485 1.390 . S
C1483 H1487 0.950 . S
H1484 C1480 0.950 . S
C1485 C1483 1.390 . S
C1485 C1486 1.387 . S
C1485 H1488 0.950 . S
C1486 C1485 1.387 . S
C1486 C1489 1.387 . S
H1487 C1483 0.950 . S
H1488 C1485 0.950 . S
C1489 C1480 1.390 . S
C1489 H1482 0.950 . S
C1489 C1486 1.387 . S
C1490 C1491 1.387 . S
C1490 H1494 0.950 . S
C1490 C1499 1.390 1_565 S
C1491 C1490 1.387 . S
C1491 C1493 1.387 . S
H1492 C1499 0.950 . S
C1493 C1491 1.387 . S
C1493 C1495 1.390 . S
C1493 H1497 0.950 . S
H1494 C1490 0.950 . S
C1495 C1493 1.390 . S
C1495 C1496 1.387 . S
C1495 H1498 0.950 . S
C1496 C1495 1.387 . S
C1496 C1499 1.387 1_565 S
H1497 C1493 0.950 . S
H1498 C1495 0.950 . S
C1499 C1490 1.390 1_545 S
C1499 H1492 0.950 . S
C1499 C1496 1.387 1_545 S
C1500 C1501 1.387 1_545 S
C1500 H1504 0.950 . S
C1500 C1509 1.390 1_545 S
C1501 C1500 1.387 1_565 S
C1501 C1503 1.387 . S
H1502 C1509 0.950 . S
C1503 C1501 1.387 . S
C1503 C1505 1.390 . S
C1503 H1507 0.950 . S
H1504 C1500 0.950 . S
C1505 C1503 1.390 . S
C1505 C1506 1.387 . S
C1505 H1508 0.950 . S
C1506 C1505 1.387 . S
C1506 C1509 1.387 . S
H1507 C1503 0.950 . S
H1508 C1505 0.950 . S
C1509 C1500 1.390 1_565 S
C1509 H1502 0.950 . S
C1509 C1506 1.387 . S
C1510 C1511 1.387 . S
C1510 H1514 0.950 . S
C1510 C1519 1.390 . S
C1511 C1510 1.387 . S
C1511 C1513 1.387 . S
H1512 C1519 0.950 . S
C1513 C1511 1.387 . S
C1513 C1515 1.390 . S
C1513 H1517 0.950 . S
H1514 C1510 0.950 . S
C1515 C1513 1.390 . S
C1515 C1516 1.387 . S
C1515 H1518 0.950 . S
C1516 C1515 1.387 . S
C1516 C1519 1.387 . S
H1517 C1513 0.950 . S
H1518 C1515 0.950 . S
C1519 C1510 1.390 . S
C1519 H1512 0.950 . S
C1519 C1516 1.387 . S
C1520 C1521 1.387 . S
C1520 H1524 0.950 . S
C1520 C1529 1.390 . S
C1521 C1520 1.387 . S
C1521 C1523 1.387 . S
H1522 C1529 0.950 . S
C1523 C1521 1.387 . S
C1523 C1525 1.390 . S
C1523 H1527 0.950 . S
H1524 C1520 0.950 . S
C1525 C1523 1.390 . S
C1525 C1526 1.387 . S
C1525 H1528 0.950 . S
C1526 C1525 1.387 . S
C1526 C1529 1.387 . S
H1527 C1523 0.950 . S
H1528 C1525 0.950 . S
C1529 C1520 1.390 . S
C1529 H1522 0.950 . S
C1529 C1526 1.387 . S
C1530 C1531 1.387 . S
C1530 H1534 0.950 . S
C1530 C1539 1.390 . S
C1531 C1530 1.387 . S
C1531 C1533 1.387 . S
H1532 C1539 0.950 . S
C1533 C1531 1.387 . S
C1533 C1535 1.390 . S
C1533 H1537 0.950 . S
H1534 C1530 0.950 . S
C1535 C1533 1.390 . S
C1535 C1536 1.387 . S
C1535 H1538 0.950 1_655 S
C1536 C1535 1.387 . S
C1536 C1539 1.387 . S
H1537 C1533 0.950 . S
H1538 C1535 0.950 1_455 S
C1539 C1530 1.390 . S
C1539 H1532 0.950 . S
C1539 C1536 1.387 . S
C1540 C1541 1.387 . S
C1540 H1544 0.950 . S
C1540 C1549 1.390 . S
C1541 C1540 1.387 . S
C1541 C1543 1.387 . S
H1542 C1549 0.950 . S
C1543 C1541 1.387 . S
C1543 C1545 1.390 . S
C1543 H1547 0.950 . S
H1544 C1540 0.950 . S
C1545 C1543 1.390 . S
C1545 C1546 1.387 . S
C1545 H1548 0.950 . S
C1546 C1545 1.387 . S
C1546 C1549 1.387 . S
H1547 C1543 0.950 . S
H1548 C1545 0.950 . S
C1549 C1540 1.390 . S
C1549 H1542 0.950 . S
C1549 C1546 1.387 . S
C1550 C1551 1.387 . S
C1550 H1554 0.950 . S
C1550 C1559 1.390 . S
C1551 C1550 1.387 . S
C1551 C1553 1.387 . S
H1552 C1559 0.950 . S
C1553 C1551 1.387 . S
C1553 C1555 1.390 . S
C1553 H1557 0.950 . S
H1554 C1550 0.950 . S
C1555 C1553 1.390 . S
C1555 C1556 1.387 . S
C1555 H1558 0.950 . S
C1556 C1555 1.387 . S
C1556 C1559 1.387 . S
H1557 C1553 0.950 . S
H1558 C1555 0.950 . S
C1559 C1550 1.390 . S
C1559 H1552 0.950 . S
C1559 C1556 1.387 . S
C1560 C1561 1.387 . S
C1560 H1564 0.950 . S
C1560 C1569 1.390 . S
C1561 C1560 1.387 . S
C1561 C1563 1.387 . S
H1562 C1569 0.950 . S
C1563 C1561 1.387 . S
C1563 C1565 1.390 . S
C1563 H1567 0.950 . S
H1564 C1560 0.950 . S
C1565 C1563 1.390 . S
C1565 C1566 1.387 . S
C1565 H1568 0.950 . S
C1566 C1565 1.387 . S
C1566 C1569 1.387 . S
H1567 C1563 0.950 . S
H1568 C1565 0.950 . S
C1569 C1560 1.390 . S
C1569 H1562 0.950 . S
C1569 C1566 1.387 . S
C1570 C1571 1.387 1_545 S
C1570 H1574 0.950 1_545 S
C1570 C1579 1.390 . S
C1571 C1570 1.387 1_565 S
C1571 C1573 1.387 1_565 S
H1572 C1579 0.950 . S
C1573 C1571 1.387 1_545 S
C1573 C1575 1.390 . S
C1573 H1577 0.950 1_545 S
H1574 C1570 0.950 1_565 S
C1575 C1573 1.390 . S
C1575 C1576 1.387 . S
C1575 H1578 0.950 . S
C1576 C1575 1.387 . S
C1576 C1579 1.387 . S
H1577 C1573 0.950 1_565 S
H1578 C1575 0.950 . S
C1579 C1570 1.390 . S
C1579 H1572 0.950 . S
C1579 C1576 1.387 . S
C1580 C1581 1.387 . S
C1580 H1584 0.950 . S
C1580 C1589 1.390 1_655 S
C1581 C1580 1.387 . S
C1581 C1583 1.387 1_655 S
H1582 C1589 0.950 . S
C1583 C1581 1.387 1_455 S
C1583 C1585 1.390 . S
C1583 H1587 0.950 . S
H1584 C1580 0.950 . S
C1585 C1583 1.390 . S
C1585 C1586 1.387 . S
C1585 H1588 0.950 . S
C1586 C1585 1.387 . S
C1586 C1589 1.387 . S
H1587 C1583 0.950 . S
H1588 C1585 0.950 . S
C1589 C1580 1.390 1_455 S
C1589 H1582 0.950 . S
C1589 C1586 1.387 . S
C1590 C1591 1.387 . S
C1590 H1594 0.950 . S
C1590 C1599 1.390 . S
C1591 C1590 1.387 . S
C1591 C1593 1.387 . S
H1592 C1599 0.950 . S
C1593 C1591 1.387 . S
C1593 C1595 1.390 . S
C1593 H1597 0.950 . S
H1594 C1590 0.950 . S
C1595 C1593 1.390 . S
C1595 C1596 1.387 . S
C1595 H1598 0.950 . S
C1596 C1595 1.387 . S
C1596 C1599 1.387 . S
H1597 C1593 0.950 . S
H1598 C1595 0.950 . S
C1599 C1590 1.390 . S
C1599 H1592 0.950 . S
C1599 C1596 1.387 . S
C1600 C1601 1.387 1_545 S
C1600 H1604 0.950 1_545 S
C1600 C1609 1.390 . S
C1601 C1600 1.387 1_565 S
C1601 C1603 1.387 1_565 S
H1602 C1609 0.950 . S
C1603 C1601 1.387 1_545 S
C1603 C1605 1.390 . S
C1603 H1607 0.950 1_545 S
H1604 C1600 0.950 1_565 S
C1605 C1603 1.390 . S
C1605 C1606 1.387 . S
C1605 H1608 0.950 . S
C1606 C1605 1.387 . S
C1606 C1609 1.387 . S
H1607 C1603 0.950 1_565 S
H1608 C1605 0.950 . S
C1609 C1600 1.390 . S
C1609 H1602 0.950 . S
C1609 C1606 1.387 . S
C1610 C1611 1.387 1_455 S
C1610 H1614 0.950 1_455 S
C1610 C1619 1.390 . S
C1611 C1610 1.387 1_655 S
C1611 C1613 1.387 1_655 S
H1612 C1619 0.950 . S
C1613 C1611 1.387 1_455 S
C1613 C1615 1.390 . S
C1613 H1617 0.950 1_455 S
H1614 C1610 0.950 1_655 S
C1615 C1613 1.390 . S
C1615 C1616 1.387 . S
C1615 H1618 0.950 . S
C1616 C1615 1.387 . S
C1616 C1619 1.387 . S
H1617 C1613 0.950 1_655 S
H1618 C1615 0.950 . S
C1619 C1610 1.390 . S
C1619 H1612 0.950 . S
C1619 C1616 1.387 . S
C1620 C1621 1.384 1_565 S
C1620 H1624 0.955 . S
C1620 C1629 1.389 1_564 S
C1621 C1620 1.384 1_545 S
C1621 C1623 1.387 . S
H1622 C1629 0.950 1_565 S
C1623 C1621 1.387 . S
C1623 C1625 1.390 1_554 S
C1623 H1627 0.950 . S
H1624 C1620 0.955 . S
C1625 C1623 1.390 1_556 S
C1625 C1626 1.387 . S
C1625 H1628 0.950 . S
C1626 C1625 1.387 . S
C1626 C1629 1.387 . S
H1627 C1623 0.950 . S
H1628 C1625 0.950 . S
C1629 C1620 1.389 1_546 S
C1629 H1622 0.950 1_545 S
C1629 C1626 1.387 . S
C1630 C1631 1.387 . S
C1630 H1634 0.950 1_455 S
C1630 C1639 1.390 1_556 S
C1631 C1630 1.387 . S
C1631 C1633 1.387 . S
H1632 C1639 0.950 . S
C1633 C1631 1.387 . S
C1633 C1635 1.390 1_556 S
C1633 H1637 0.950 . S
H1634 C1630 0.950 1_655 S
C1635 C1633 1.390 1_554 S
C1635 C1636 1.387 . S
C1635 H1638 0.950 . S
C1636 C1635 1.387 . S
C1636 C1639 1.387 . S
H1637 C1633 0.950 . S
H1638 C1635 0.950 . S
C1639 C1630 1.390 1_554 S
C1639 H1632 0.950 . S
C1639 C1636 1.387 . S
C1640 C1641 1.387 . S
C1640 H1644 0.950 . S
C1640 C1649 1.390 1_554 S
C1641 C1640 1.387 . S
C1641 C1643 1.387 . S
H1642 C1649 0.950 . S
C1643 C1641 1.387 . S
C1643 C1645 1.390 1_554 S
C1643 H1647 0.950 . S
H1644 C1640 0.950 . S
C1645 C1643 1.390 1_556 S
C1645 C1646 1.387 . S
C1645 H1648 0.950 . S
C1646 C1645 1.387 . S
C1646 C1649 1.387 . S
H1647 C1643 0.950 . S
H1648 C1645 0.950 . S
C1649 C1640 1.390 1_556 S
C1649 H1642 0.950 . S
C1649 C1646 1.387 . S
C1650 C1651 1.387 . S
C1650 H1654 0.950 1_455 S
C1650 C1659 1.390 . S
C1651 C1650 1.387 . S
C1651 C1653 1.387 . S
H1652 C1659 0.950 1_655 S
C1653 C1651 1.387 . S
C1653 C1655 1.390 . S
C1653 H1657 0.950 . S
H1654 C1650 0.950 1_655 S
C1655 C1653 1.390 . S
C1655 C1656 1.387 . S
C1655 H1658 0.950 . S
C1656 C1655 1.387 . S
C1656 C1659 1.387 . S
H1657 C1653 0.950 . S
H1658 C1655 0.950 . S
C1659 C1650 1.390 . S
C1659 H1652 0.950 1_455 S
C1659 C1656 1.387 . S
C1660 C1661 1.387 . S
C1660 H1664 0.950 . S
C1660 C1669 1.390 . S
C1661 C1660 1.387 . S
C1661 C1663 1.387 . S
H1662 C1669 0.950 . S
C1663 C1661 1.387 . S
C1663 C1665 1.390 . S
C1663 H1667 0.950 . S
H1664 C1660 0.950 . S
C1665 C1663 1.390 . S
C1665 C1666 1.387 . S
C1665 H1668 0.950 . S
C1666 C1665 1.387 . S
C1666 C1669 1.387 . S
H1667 C1663 0.950 . S
H1668 C1665 0.950 . S
C1669 C1660 1.390 . S
C1669 H1662 0.950 . S
C1669 C1666 1.387 . S
C1670 C1671 1.387 1_565 S
C1670 H1674 0.950 . S
C1670 C1679 1.390 . S
C1671 C1670 1.387 1_545 S
C1671 C1673 1.387 . S
H1672 C1679 0.950 . S
C1673 C1671 1.387 . S
C1673 C1675 1.390 . S
C1673 H1677 0.950 . S
H1674 C1670 0.950 . S
C1675 C1673 1.390 . S
C1675 C1676 1.387 . S
C1675 H1678 0.950 . S
C1676 C1675 1.387 . S
C1676 C1679 1.387 1_545 S
H1677 C1673 0.950 . S
H1678 C1675 0.950 . S
C1679 C1670 1.390 . S
C1679 H1672 0.950 . S
C1679 C1676 1.387 1_565 S
C1680 C1681 1.387 . S
C1680 H1684 0.950 . S
C1680 C1689 1.390 . S
C1681 C1680 1.387 . S
C1681 C1683 1.387 . S
H1682 C1689 0.950 . S
C1683 C1681 1.387 . S
C1683 C1685 1.390 . S
C1683 H1687 0.950 . S
H1684 C1680 0.950 . S
C1685 C1683 1.390 . S
C1685 C1686 1.387 . S
C1685 H1688 0.950 . S
C1686 C1685 1.387 . S
C1686 C1689 1.387 . S
H1687 C1683 0.950 . S
H1688 C1685 0.950 . S
C1689 C1680 1.390 . S
C1689 H1682 0.950 . S
C1689 C1686 1.387 . S
C1690 C1691 1.387 . S
C1690 H1694 0.950 . S
C1690 C1699 1.390 . S
C1691 C1690 1.387 . S
C1691 C1693 1.387 . S
H1692 C1699 0.950 . S
C1693 C1691 1.387 . S
C1693 C1695 1.390 . S
C1693 H1697 0.950 . S
H1694 C1690 0.950 . S
C1695 C1693 1.390 . S
C1695 C1696 1.387 . S
C1695 H1698 0.950 . S
C1696 C1695 1.387 . S
C1696 C1699 1.387 . S
H1697 C1693 0.950 . S
H1698 C1695 0.950 . S
C1699 C1690 1.390 . S
C1699 H1692 0.950 . S
C1699 C1696 1.387 . S
C1700 C1701 1.387 . S
C1700 H1704 0.950 . S
C1700 C1709 1.390 . S
C1701 C1700 1.387 . S
C1701 C1703 1.387 . S
H1702 C1709 0.950 . S
C1703 C1701 1.387 . S
C1703 C1705 1.390 . S
C1703 H1707 0.950 . S
H1704 C1700 0.950 . S
C1705 C1703 1.390 . S
C1705 C1706 1.387 . S
C1705 H1708 0.950 . S
C1706 C1705 1.387 . S
C1706 C1709 1.387 . S
H1707 C1703 0.950 . S
H1708 C1705 0.950 . S
C1709 C1700 1.390 . S
C1709 H1702 0.950 . S
C1709 C1706 1.387 . S
C1710 C1711 1.387 . S
C1710 H1714 0.950 . S
C1710 C1719 1.390 . S
C1711 C1710 1.387 . S
C1711 C1713 1.387 . S
H1712 C1719 0.950 . S
C1713 C1711 1.387 . S
C1713 C1715 1.390 . S
C1713 H1717 0.950 . S
H1714 C1710 0.950 . S
C1715 C1713 1.390 . S
C1715 C1716 1.387 . S
C1715 H1718 0.950 . S
C1716 C1715 1.387 . S
C1716 C1719 1.387 . S
H1717 C1713 0.950 . S
H1718 C1715 0.950 . S
C1719 C1710 1.390 . S
C1719 H1712 0.950 . S
C1719 C1716 1.387 . S
C1720 C1721 1.387 . S
C1720 H1724 0.950 . S
C1720 C1729 1.390 . S
C1721 C1720 1.387 . S
C1721 C1723 1.387 . S
H1722 C1729 0.950 . S
C1723 C1721 1.387 . S
C1723 C1725 1.390 . S
C1723 H1727 0.950 . S
H1724 C1720 0.950 . S
C1725 C1723 1.390 . S
C1725 C1726 1.387 . S
C1725 H1728 0.950 . S
C1726 C1725 1.387 . S
C1726 C1729 1.387 . S
H1727 C1723 0.950 . S
H1728 C1725 0.950 . S
C1729 C1720 1.390 . S
C1729 H1722 0.950 . S
C1729 C1726 1.387 . S
C1730 C1731 1.387 . S
C1730 H1734 0.950 . S
C1730 C1739 1.390 . S
C1731 C1730 1.387 . S
C1731 C1733 1.387 . S
H1732 C1739 0.950 . S
C1733 C1731 1.387 . S
C1733 C1735 1.390 . S
C1733 H1737 0.950 . S
H1734 C1730 0.950 . S
C1735 C1733 1.390 . S
C1735 C1736 1.387 . S
C1735 H1738 0.950 . S
C1736 C1735 1.387 . S
C1736 C1739 1.387 . S
H1737 C1733 0.950 . S
H1738 C1735 0.950 . S
C1739 C1730 1.390 . S
C1739 H1732 0.950 . S
C1739 C1736 1.387 . S
C1740 C1741 1.387 . S
C1740 H1744 0.950 . S
C1740 C1749 1.390 . S
C1741 C1740 1.387 . S
C1741 C1743 1.387 . S
H1742 C1749 0.950 . S
C1743 C1741 1.387 . S
C1743 C1745 1.390 . S
C1743 H1747 0.950 . S
H1744 C1740 0.950 . S
C1745 C1743 1.390 . S
C1745 C1746 1.387 . S
C1745 H1748 0.950 . S
C1746 C1745 1.387 . S
C1746 C1749 1.387 . S
H1747 C1743 0.950 . S
H1748 C1745 0.950 . S
C1749 C1740 1.390 . S
C1749 H1742 0.950 . S
C1749 C1746 1.387 . S
C1750 C1751 1.387 . S
C1750 H1754 0.950 . S
C1750 C1759 1.390 . S
C1751 C1750 1.387 . S
C1751 C1753 1.387 . S
H1752 C1759 0.950 . S
C1753 C1751 1.387 . S
C1753 C1755 1.390 . S
C1753 H1757 0.950 . S
H1754 C1750 0.950 . S
C1755 C1753 1.390 . S
C1755 C1756 1.387 . S
C1755 H1758 0.950 . S
C1756 C1755 1.387 . S
C1756 C1759 1.387 . S
H1757 C1753 0.950 . S
H1758 C1755 0.950 . S
C1759 C1750 1.390 . S
C1759 H1752 0.950 . S
C1759 C1756 1.387 . S
C1760 C1761 1.387 . S
C1760 H1764 0.950 . S
C1760 C1769 1.390 . S
C1761 C1760 1.387 . S
C1761 C1763 1.387 . S
H1762 C1769 0.950 . S
C1763 C1761 1.387 . S
C1763 C1765 1.390 . S
C1763 H1767 0.950 . S
H1764 C1760 0.950 . S
C1765 C1763 1.390 . S
C1765 C1766 1.387 . S
C1765 H1768 0.950 . S
C1766 C1765 1.387 . S
C1766 C1769 1.387 . S
H1767 C1763 0.950 . S
H1768 C1765 0.950 . S
C1769 C1760 1.390 . S
C1769 H1762 0.950 . S
C1769 C1766 1.387 . S
C1770 C1771 1.387 . S
C1770 H1774 0.950 . S
C1770 C1779 1.390 . S
C1771 C1770 1.387 . S
C1771 C1773 1.387 . S
H1772 C1779 0.950 . S
C1773 C1771 1.387 . S
C1773 C1775 1.390 . S
C1773 H1777 0.950 . S
H1774 C1770 0.950 . S
C1775 C1773 1.390 . S
C1775 C1776 1.387 . S
C1775 H1778 0.950 . S
C1776 C1775 1.387 . S
C1776 C1779 1.387 . S
H1777 C1773 0.950 . S
H1778 C1775 0.950 . S
C1779 C1770 1.390 . S
C1779 H1772 0.950 . S
C1779 C1776 1.387 . S
C1780 C1781 1.387 . S
C1780 H1784 0.950 . S
C1780 C1789 1.390 . S
C1781 C1780 1.387 . S
C1781 C1783 1.387 . S
H1782 C1789 0.950 . S
C1783 C1781 1.387 . S
C1783 C1785 1.390 . S
C1783 H1787 0.950 . S
H1784 C1780 0.950 . S
C1785 C1783 1.390 . S
C1785 C1786 1.387 . S
C1785 H1788 0.950 . S
C1786 C1785 1.387 . S
C1786 C1789 1.387 . S
H1787 C1783 0.950 . S
H1788 C1785 0.950 . S
C1789 C1780 1.390 . S
C1789 H1782 0.950 . S
C1789 C1786 1.387 . S
C1790 C1791 1.387 . S
C1790 H1794 0.950 . S
C1790 C1799 1.390 . S
C1791 C1790 1.387 . S
C1791 C1793 1.387 . S
H1792 C1799 0.950 . S
C1793 C1791 1.387 . S
C1793 C1795 1.390 . S
C1793 H1797 0.950 . S
H1794 C1790 0.950 . S
C1795 C1793 1.390 . S
C1795 C1796 1.387 . S
C1795 H1798 0.950 . S
C1796 C1795 1.387 . S
C1796 C1799 1.387 . S
H1797 C1793 0.950 . S
H1798 C1795 0.950 . S
C1799 C1790 1.390 . S
C1799 H1792 0.950 . S
C1799 C1796 1.387 . S
C1800 C1801 1.387 . S
C1800 H1804 0.950 . S
C1800 C1809 1.390 . S
C1801 C1800 1.387 . S
C1801 C1803 1.387 . S
H1802 C1809 0.950 . S
C1803 C1801 1.387 . S
C1803 C1805 1.390 . S
C1803 H1807 0.950 . S
H1804 C1800 0.950 . S
C1805 C1803 1.390 . S
C1805 C1806 1.387 . S
C1805 H1808 0.950 . S
C1806 C1805 1.387 . S
C1806 C1809 1.387 . S
H1807 C1803 0.950 . S
H1808 C1805 0.950 . S
C1809 C1800 1.390 . S
C1809 H1802 0.950 . S
C1809 C1806 1.387 . S
C1810 C1811 1.387 . S
C1810 H1814 0.950 . S
C1810 C1819 1.390 . S
C1811 C1810 1.387 . S
C1811 C1813 1.387 . S
H1812 C1819 0.950 . S
C1813 C1811 1.387 . S
C1813 C1815 1.390 . S
C1813 H1817 0.950 . S
H1814 C1810 0.950 . S
C1815 C1813 1.390 . S
C1815 C1816 1.387 . S
C1815 H1818 0.950 . S
C1816 C1815 1.387 . S
C1816 C1819 1.387 . S
H1817 C1813 0.950 . S
H1818 C1815 0.950 . S
C1819 C1810 1.390 . S
C1819 H1812 0.950 . S
C1819 C1816 1.387 . S
C1820 C1821 1.387 . S
C1820 H1824 0.950 . S
C1820 C1829 1.390 . S
C1821 C1820 1.387 . S
C1821 C1823 1.387 . S
H1822 C1829 0.950 . S
C1823 C1821 1.387 . S
C1823 C1825 1.390 . S
C1823 H1827 0.950 . S
H1824 C1820 0.950 . S
C1825 C1823 1.390 . S
C1825 C1826 1.387 . S
C1825 H1828 0.950 . S
C1826 C1825 1.387 . S
C1826 C1829 1.387 . S
H1827 C1823 0.950 . S
H1828 C1825 0.950 . S
C1829 C1820 1.390 . S
C1829 H1822 0.950 . S
C1829 C1826 1.387 . S
C1830 C1831 1.387 . S
C1830 H1834 0.950 . S
C1830 C1839 1.390 . S
C1831 C1830 1.387 . S
C1831 C1833 1.387 . S
H1832 C1839 0.950 . S
C1833 C1831 1.387 . S
C1833 C1835 1.390 . S
C1833 H1837 0.950 . S
H1834 C1830 0.950 . S
C1835 C1833 1.390 . S
C1835 C1836 1.387 . S
C1835 H1838 0.950 . S
C1836 C1835 1.387 . S
C1836 C1839 1.387 . S
H1837 C1833 0.950 . S
H1838 C1835 0.950 . S
C1839 C1830 1.390 . S
C1839 H1832 0.950 . S
C1839 C1836 1.387 . S
C1840 C1841 1.387 . S
C1840 H1844 0.950 . S
C1840 C1849 1.390 . S
C1841 C1840 1.387 . S
C1841 C1843 1.387 . S
H1842 C1849 0.950 . S
C1843 C1841 1.387 . S
C1843 C1845 1.390 . S
C1843 H1847 0.950 . S
H1844 C1840 0.950 . S
C1845 C1843 1.390 . S
C1845 C1846 1.387 . S
C1845 H1848 0.950 . S
C1846 C1845 1.387 . S
C1846 C1849 1.387 . S
H1847 C1843 0.950 . S
H1848 C1845 0.950 . S
C1849 C1840 1.390 . S
C1849 H1842 0.950 . S
C1849 C1846 1.387 . S
C1850 C1851 1.387 . S
C1850 H1854 0.950 . S
C1850 C1859 1.390 . S
C1851 C1850 1.387 . S
C1851 C1853 1.387 . S
H1852 C1859 0.950 . S
C1853 C1851 1.387 . S
C1853 C1855 1.390 . S
C1853 H1857 0.950 . S
H1854 C1850 0.950 . S
C1855 C1853 1.390 . S
C1855 C1856 1.387 . S
C1855 H1858 0.950 . S
C1856 C1855 1.387 . S
C1856 C1859 1.387 . S
H1857 C1853 0.950 . S
H1858 C1855 0.950 . S
C1859 C1850 1.390 . S
C1859 H1852 0.950 . S
C1859 C1856 1.387 . S
C1860 C1861 1.387 . S
C1860 H1864 0.950 . S
C1860 C1869 1.390 . S
C1861 C1860 1.387 . S
C1861 C1863 1.387 . S
H1862 C1869 0.950 . S
C1863 C1861 1.387 . S
C1863 C1865 1.390 . S
C1863 H1867 0.950 . S
H1864 C1860 0.950 . S
C1865 C1863 1.390 . S
C1865 C1866 1.387 . S
C1865 H1868 0.950 . S
C1866 C1865 1.387 . S
C1866 C1869 1.387 . S
H1867 C1863 0.950 . S
H1868 C1865 0.950 . S
C1869 C1860 1.390 . S
C1869 H1862 0.950 . S
C1869 C1866 1.387 . S
C1870 C1871 1.387 . S
C1870 H1874 0.950 . S
C1870 C1879 1.390 . S
C1871 C1870 1.387 . S
C1871 C1873 1.387 . S
H1872 C1879 0.950 . S
C1873 C1871 1.387 . S
C1873 C1875 1.390 . S
C1873 H1877 0.950 . S
H1874 C1870 0.950 . S
C1875 C1873 1.390 . S
C1875 C1876 1.387 . S
C1875 H1878 0.950 . S
C1876 C1875 1.387 . S
C1876 C1879 1.387 . S
H1877 C1873 0.950 . S
H1878 C1875 0.950 . S
C1879 C1870 1.390 . S
C1879 H1872 0.950 . S
C1879 C1876 1.387 . S
C1880 C1881 1.387 . S
C1880 H1884 0.950 . S
C1880 C1889 1.390 . S
C1881 C1880 1.387 . S
C1881 C1883 1.387 . S
H1882 C1889 0.950 . S
C1883 C1881 1.387 . S
C1883 C1885 1.390 . S
C1883 H1887 0.950 . S
H1884 C1880 0.950 . S
C1885 C1883 1.390 . S
C1885 C1886 1.387 . S
C1885 H1888 0.950 . S
C1886 C1885 1.387 . S
C1886 C1889 1.387 . S
H1887 C1883 0.950 . S
H1888 C1885 0.950 . S
C1889 C1880 1.390 . S
C1889 H1882 0.950 . S
C1889 C1886 1.387 . S
C1890 C1891 1.387 . S
C1890 H1894 0.950 . S
C1890 C1899 1.390 . S
C1891 C1890 1.387 . S
C1891 C1893 1.387 . S
H1892 C1899 0.950 . S
C1893 C1891 1.387 . S
C1893 C1895 1.390 . S
C1893 H1897 0.950 . S
H1894 C1890 0.950 . S
C1895 C1893 1.390 . S
C1895 C1896 1.387 . S
C1895 H1898 0.950 . S
C1896 C1895 1.387 . S
C1896 C1899 1.387 . S
H1897 C1893 0.950 . S
H1898 C1895 0.950 . S
C1899 C1890 1.390 . S
C1899 H1892 0.950 . S
C1899 C1896 1.387 . S
C1900 C1901 1.387 . S
C1900 H1904 0.950 . S
C1900 C1909 1.390 . S
C1901 C1900 1.387 . S
C1901 C1903 1.387 . S
H1902 C1909 0.950 . S
C1903 C1901 1.387 . S
C1903 C1905 1.390 . S
C1903 H1907 0.950 . S
H1904 C1900 0.950 . S
C1905 C1903 1.390 . S
C1905 C1906 1.387 . S
C1905 H1908 0.950 . S
C1906 C1905 1.387 . S
C1906 C1909 1.387 . S
H1907 C1903 0.950 . S
H1908 C1905 0.950 . S
C1909 C1900 1.390 . S
C1909 H1902 0.950 . S
C1909 C1906 1.387 . S
C1910 C1911 1.387 . S
C1910 H1914 0.950 . S
C1910 C1919 1.390 . S
C1911 C1910 1.387 . S
C1911 C1913 1.387 . S
H1912 C1919 0.950 . S
C1913 C1911 1.387 . S
C1913 C1915 1.390 . S
C1913 H1917 0.950 . S
H1914 C1910 0.950 . S
C1915 C1913 1.390 . S
C1915 C1916 1.387 . S
C1915 H1918 0.950 . S
C1916 C1915 1.387 . S
C1916 C1919 1.387 . S
H1917 C1913 0.950 . S
H1918 C1915 0.950 . S
C1919 C1910 1.390 . S
C1919 H1912 0.950 . S
C1919 C1916 1.387 . S
C1920 C1921 1.387 . S
C1920 H1924 0.950 1_545 S
C1920 C1929 1.390 . S
C1921 C1920 1.387 . S
C1921 C1923 1.387 . S
H1922 C1929 0.950 . S
C1923 C1921 1.387 . S
C1923 C1925 1.390 . S
C1923 H1927 0.950 . S
H1924 C1920 0.950 1_565 S
C1925 C1923 1.390 . S
C1925 C1926 1.387 . S
C1925 H1928 0.950 . S
C1926 C1925 1.387 . S
C1926 C1929 1.387 . S
H1927 C1923 0.950 . S
H1928 C1925 0.950 . S
C1929 C1920 1.390 . S
C1929 H1922 0.950 . S
C1929 C1926 1.387 . S
C1930 C1931 1.387 . S
C1930 H1934 0.950 . S
C1930 C1939 1.390 . S
C1931 C1930 1.387 . S
C1931 C1933 1.387 . S
H1932 C1939 0.950 . S
C1933 C1931 1.387 . S
C1933 C1935 1.390 1_455 S
C1933 H1937 0.950 . S
H1934 C1930 0.950 . S
C1935 C1933 1.390 1_655 S
C1935 C1936 1.387 . S
C1935 H1938 0.950 . S
C1936 C1935 1.387 . S
C1936 C1939 1.387 1_655 S
H1937 C1933 0.950 . S
H1938 C1935 0.950 . S
C1939 C1930 1.390 . S
C1939 H1932 0.950 . S
C1939 C1936 1.387 1_455 S
C1940 C1941 1.387 . S
C1940 H1944 0.950 . S
C1940 C1949 1.390 . S
C1941 C1940 1.387 . S
C1941 C1943 1.387 . S
H1942 C1949 0.950 . S
C1943 C1941 1.387 . S
C1943 C1945 1.390 . S
C1943 H1947 0.950 . S
H1944 C1940 0.950 . S
C1945 C1943 1.390 . S
C1945 C1946 1.387 . S
C1945 H1948 0.950 . S
C1946 C1945 1.387 . S
C1946 C1949 1.387 . S
H1947 C1943 0.950 . S
H1948 C1945 0.950 . S
C1949 C1940 1.390 . S
C1949 H1942 0.950 . S
C1949 C1946 1.387 . S
C1950 C1951 1.387 . S
C1950 H1954 0.950 . S
C1950 C1959 1.390 . S
C1951 C1950 1.387 . S
C1951 C1953 1.387 . S
H1952 C1959 0.950 . S
C1953 C1951 1.387 . S
C1953 C1955 1.390 . S
C1953 H1957 0.950 . S
H1954 C1950 0.950 . S
C1955 C1953 1.390 . S
C1955 C1956 1.387 . S
C1955 H1958 0.950 . S
C1956 C1955 1.387 . S
C1956 C1959 1.387 . S
H1957 C1953 0.950 . S
H1958 C1955 0.950 . S
C1959 C1950 1.390 . S
C1959 H1952 0.950 . S
C1959 C1956 1.387 . S
C1960 C1961 1.387 . S
C1960 H1964 0.950 . S
C1960 C1969 1.390 . S
C1961 C1960 1.387 . S
C1961 C1963 1.387 . S
H1962 C1969 0.950 . S
C1963 C1961 1.387 . S
C1963 C1965 1.390 . S
C1963 H1967 0.950 . S
H1964 C1960 0.950 . S
C1965 C1963 1.390 . S
C1965 C1966 1.387 . S
C1965 H1968 0.950 . S
C1966 C1965 1.387 . S
C1966 C1969 1.387 . S
H1967 C1963 0.950 . S
H1968 C1965 0.950 . S
C1969 C1960 1.390 . S
C1969 H1962 0.950 . S
C1969 C1966 1.387 . S
C1970 C1971 1.387 . S
C1970 H1974 0.950 . S
C1970 C1979 1.390 . S
C1971 C1970 1.387 . S
C1971 C1973 1.387 . S
H1972 C1979 0.950 . S
C1973 C1971 1.387 . S
C1973 C1975 1.390 . S
C1973 H1977 0.950 . S
H1974 C1970 0.950 . S
C1975 C1973 1.390 . S
C1975 C1976 1.387 . S
C1975 H1978 0.950 . S
C1976 C1975 1.387 . S
C1976 C1979 1.387 . S
H1977 C1973 0.950 . S
H1978 C1975 0.950 . S
C1979 C1970 1.390 . S
C1979 H1972 0.950 . S
C1979 C1976 1.387 . S
C1980 C1981 1.387 . S
C1980 H1984 0.950 . S
C1980 C1989 1.390 . S
C1981 C1980 1.387 . S
C1981 C1983 1.387 . S
H1982 C1989 0.950 . S
C1983 C1981 1.387 . S
C1983 C1985 1.390 . S
C1983 H1987 0.950 . S
H1984 C1980 0.950 . S
C1985 C1983 1.390 . S
C1985 C1986 1.387 . S
C1985 H1988 0.950 . S
C1986 C1985 1.387 . S
C1986 C1989 1.387 . S
H1987 C1983 0.950 . S
H1988 C1985 0.950 . S
C1989 C1980 1.390 . S
C1989 H1982 0.950 . S
C1989 C1986 1.387 . S
C1990 C1991 1.387 . S
C1990 H1994 0.950 . S
C1990 C1999 1.390 . S
C1991 C1990 1.387 . S
C1991 C1993 1.387 . S
H1992 C1999 0.950 . S
C1993 C1991 1.387 . S
C1993 C1995 1.390 . S
C1993 H1997 0.950 . S
H1994 C1990 0.950 . S
C1995 C1993 1.390 . S
C1995 C1996 1.387 . S
C1995 H1998 0.950 . S
C1996 C1995 1.387 . S
C1996 C1999 1.387 . S
H1997 C1993 0.950 . S
H1998 C1995 0.950 . S
C1999 C1990 1.390 . S
C1999 H1992 0.950 . S
C1999 C1996 1.387 . S
C2000 C2001 1.387 . S
C2000 H2004 0.950 . S
C2000 C2009 1.390 . S
C2001 C2000 1.387 . S
C2001 C2003 1.387 . S
H2002 C2009 0.950 . S
C2003 C2001 1.387 . S
C2003 C2005 1.390 . S
C2003 H2007 0.950 . S
H2004 C2000 0.950 . S
C2005 C2003 1.390 . S
C2005 C2006 1.387 . S
C2005 H2008 0.950 . S
C2006 C2005 1.387 . S
C2006 C2009 1.387 . S
H2007 C2003 0.950 . S
H2008 C2005 0.950 . S
C2009 C2000 1.390 . S
C2009 H2002 0.950 . S
C2009 C2006 1.387 . S
C2010 C2011 1.387 . S
C2010 H2014 0.950 . S
C2010 C2019 1.390 . S
C2011 C2010 1.387 . S
C2011 C2013 1.387 . S
H2012 C2019 0.950 . S
C2013 C2011 1.387 . S
C2013 C2015 1.390 . S
C2013 H2017 0.950 . S
H2014 C2010 0.950 . S
C2015 C2013 1.390 . S
C2015 C2016 1.387 1_455 S
C2015 H2018 0.950 . S
C2016 C2015 1.387 1_655 S
C2016 C2019 1.387 1_655 S
H2017 C2013 0.950 . S
H2018 C2015 0.950 . S
C2019 C2010 1.390 . S
C2019 H2012 0.950 . S
C2019 C2016 1.387 1_455 S
C2020 C2021 1.387 . S
C2020 H2024 0.950 . S
C2020 C2029 1.390 . S
C2021 C2020 1.387 . S
C2021 C2023 1.387 . S
H2022 C2029 0.950 . S
C2023 C2021 1.387 . S
C2023 C2025 1.390 . S
C2023 H2027 0.950 . S
H2024 C2020 0.950 . S
C2025 C2023 1.390 . S
C2025 C2026 1.387 . S
C2025 H2028 0.950 . S
C2026 C2025 1.387 . S
C2026 C2029 1.387 . S
H2027 C2023 0.950 . S
H2028 C2025 0.950 . S
C2029 C2020 1.390 . S
C2029 H2022 0.950 . S
C2029 C2026 1.387 . S
C2030 C2031 1.387 . S
C2030 H2034 0.950 . S
C2030 C2039 1.390 . S
C2031 C2030 1.387 . S
C2031 C2033 1.387 . S
H2032 C2039 0.950 . S
C2033 C2031 1.387 . S
C2033 C2035 1.390 . S
C2033 H2037 0.950 1_545 S
H2034 C2030 0.950 . S
C2035 C2033 1.390 . S
C2035 C2036 1.387 . S
C2035 H2038 0.950 . S
C2036 C2035 1.387 . S
C2036 C2039 1.387 . S
H2037 C2033 0.950 1_565 S
H2038 C2035 0.950 . S
C2039 C2030 1.390 . S
C2039 H2032 0.950 . S
C2039 C2036 1.387 . S
C2040 C2041 1.387 . S
C2040 H2044 0.950 . S
C2040 C2049 1.390 . S
C2041 C2040 1.387 . S
C2041 C2043 1.387 . S
H2042 C2049 0.950 . S
C2043 C2041 1.387 . S
C2043 C2045 1.390 . S
C2043 H2047 0.950 . S
H2044 C2040 0.950 . S
C2045 C2043 1.390 . S
C2045 C2046 1.387 . S
C2045 H2048 0.950 . S
C2046 C2045 1.387 . S
C2046 C2049 1.387 . S
H2047 C2043 0.950 . S
H2048 C2045 0.950 . S
C2049 C2040 1.390 . S
C2049 H2042 0.950 . S
C2049 C2046 1.387 . S
C2050 C2051 1.387 . S
C2050 H2054 0.950 . S
C2050 C2059 1.390 . S
C2051 C2050 1.387 . S
C2051 C2053 1.387 . S
H2052 C2059 0.950 . S
C2053 C2051 1.387 . S
C2053 C2055 1.390 . S
C2053 H2057 0.950 . S
H2054 C2050 0.950 . S
C2055 C2053 1.390 . S
C2055 C2056 1.387 . S
C2055 H2058 0.950 . S
C2056 C2055 1.387 . S
C2056 C2059 1.387 . S
H2057 C2053 0.950 . S
H2058 C2055 0.950 . S
C2059 C2050 1.390 . S
C2059 H2052 0.950 . S
C2059 C2056 1.387 . S
C2060 C2061 1.387 . S
C2060 H2064 0.950 . S
C2060 C2069 1.390 . S
C2061 C2060 1.387 . S
C2061 C2063 1.387 . S
H2062 C2069 0.950 . S
C2063 C2061 1.387 . S
C2063 C2065 1.390 . S
C2063 H2067 0.950 . S
H2064 C2060 0.950 . S
C2065 C2063 1.390 . S
C2065 C2066 1.387 . S
C2065 H2068 0.950 . S
C2066 C2065 1.387 . S
C2066 C2069 1.387 . S
H2067 C2063 0.950 . S
H2068 C2065 0.950 . S
C2069 C2060 1.390 . S
C2069 H2062 0.950 . S
C2069 C2066 1.387 . S
C2070 C2071 1.387 . S
C2070 H2074 0.950 . S
C2070 C2079 1.390 . S
C2071 C2070 1.387 . S
C2071 C2073 1.387 . S
H2072 C2079 0.950 1_655 S
C2073 C2071 1.387 . S
C2073 C2075 1.390 . S
C2073 H2077 0.950 . S
H2074 C2070 0.950 . S
C2075 C2073 1.390 . S
C2075 C2076 1.387 . S
C2075 H2078 0.950 . S
C2076 C2075 1.387 . S
C2076 C2079 1.387 . S
H2077 C2073 0.950 . S
H2078 C2075 0.950 . S
C2079 C2070 1.390 . S
C2079 H2072 0.950 1_455 S
C2079 C2076 1.387 . S
C2080 C2081 1.387 . S
C2080 H2084 0.950 . S
C2080 C2089 1.390 . S
C2081 C2080 1.387 . S
C2081 C2083 1.387 . S
H2082 C2089 0.950 . S
C2083 C2081 1.387 . S
C2083 C2085 1.390 . S
C2083 H2087 0.950 . S
H2084 C2080 0.950 . S
C2085 C2083 1.390 . S
C2085 C2086 1.387 . S
C2085 H2088 0.950 . S
C2086 C2085 1.387 . S
C2086 C2089 1.387 . S
H2087 C2083 0.950 . S
H2088 C2085 0.950 . S
C2089 C2080 1.390 . S
C2089 H2082 0.950 . S
C2089 C2086 1.387 . S
C2090 C2091 1.387 . S
C2090 H2094 0.950 . S
C2090 C2099 1.390 . S
C2091 C2090 1.387 . S
C2091 C2093 1.387 . S
H2092 C2099 0.950 . S
C2093 C2091 1.387 . S
C2093 C2095 1.390 1_545 S
C2093 H2097 0.950 . S
H2094 C2090 0.950 . S
C2095 C2093 1.390 1_565 S
C2095 C2096 1.387 . S
C2095 H2098 0.950 . S
C2096 C2095 1.387 . S
C2096 C2099 1.387 1_565 S
H2097 C2093 0.950 . S
H2098 C2095 0.950 . S
C2099 C2090 1.390 . S
C2099 H2092 0.950 . S
C2099 C2096 1.387 1_545 S
C2100 C2101 1.387 1_545 S
C2100 H2104 0.950 . S
C2100 C2109 1.390 . S
C2101 C2100 1.387 1_565 S
C2101 C2103 1.387 1_565 S
H2102 C2109 0.950 . S
C2103 C2101 1.387 1_545 S
C2103 C2105 1.390 . S
C2103 H2107 0.950 1_545 S
H2104 C2100 0.950 . S
C2105 C2103 1.390 . S
C2105 C2106 1.387 . S
C2105 H2108 0.950 . S
C2106 C2105 1.387 . S
C2106 C2109 1.387 . S
H2107 C2103 0.950 1_565 S
H2108 C2105 0.950 . S
C2109 C2100 1.390 . S
C2109 H2102 0.950 . S
C2109 C2106 1.387 . S
C2110 C2111 1.387 . S
C2110 H2114 0.950 . S
C2110 C2119 1.390 . S
C2111 C2110 1.387 . S
C2111 C2113 1.387 . S
H2112 C2119 0.950 . S
C2113 C2111 1.387 . S
C2113 C2115 1.390 . S
C2113 H2117 0.950 . S
H2114 C2110 0.950 . S
C2115 C2113 1.390 . S
C2115 C2116 1.387 . S
C2115 H2118 0.950 1_455 S
C2116 C2115 1.387 . S
C2116 C2119 1.387 . S
H2117 C2113 0.950 . S
H2118 C2115 0.950 1_655 S
C2119 C2110 1.390 . S
C2119 H2112 0.950 . S
C2119 C2116 1.387 . S
C2120 C2121 1.387 . S
C2120 H2124 0.950 . S
C2120 C2129 1.390 . S
C2121 C2120 1.387 . S
C2121 C2123 1.387 . S
H2122 C2129 0.950 . S
C2123 C2121 1.387 . S
C2123 C2125 1.390 . S
C2123 H2127 0.950 . S
H2124 C2120 0.950 . S
C2125 C2123 1.390 . S
C2125 C2126 1.387 . S
C2125 H2128 0.950 . S
C2126 C2125 1.387 . S
C2126 C2129 1.387 . S
H2127 C2123 0.950 . S
H2128 C2125 0.950 . S
C2129 C2120 1.390 . S
C2129 H2122 0.950 . S
C2129 C2126 1.387 . S
C2130 C2131 1.387 . S
C2130 H2134 0.950 . S
C2130 C2139 1.390 . S
C2131 C2130 1.387 . S
C2131 C2133 1.387 . S
H2132 C2139 0.950 . S
C2133 C2131 1.387 . S
C2133 C2135 1.390 . S
C2133 H2137 0.950 . S
H2134 C2130 0.950 . S
C2135 C2133 1.390 . S
C2135 C2136 1.387 . S
C2135 H2138 0.950 . S
C2136 C2135 1.387 . S
C2136 C2139 1.387 . S
H2137 C2133 0.950 . S
H2138 C2135 0.950 . S
C2139 C2130 1.390 . S
C2139 H2132 0.950 . S
C2139 C2136 1.387 . S
C2140 C2141 1.387 . S
C2140 H2144 0.950 . S
C2140 C2149 1.390 . S
C2141 C2140 1.387 . S
C2141 C2143 1.387 . S
H2142 C2149 0.950 . S
C2143 C2141 1.387 . S
C2143 C2145 1.390 . S
C2143 H2147 0.950 . S
H2144 C2140 0.950 . S
C2145 C2143 1.390 . S
C2145 C2146 1.387 . S
C2145 H2148 0.950 . S
C2146 C2145 1.387 . S
C2146 C2149 1.387 . S
H2147 C2143 0.950 . S
H2148 C2145 0.950 . S
C2149 C2140 1.390 . S
C2149 H2142 0.950 . S
C2149 C2146 1.387 . S
C2150 C2151 1.387 . S
C2150 H2154 0.950 . S
C2150 C2159 1.390 . S
C2151 C2150 1.387 . S
C2151 C2153 1.387 . S
H2152 C2159 0.950 . S
C2153 C2151 1.387 . S
C2153 C2155 1.390 . S
C2153 H2157 0.950 . S
H2154 C2150 0.950 . S
C2155 C2153 1.390 . S
C2155 C2156 1.387 . S
C2155 H2158 0.950 . S
C2156 C2155 1.387 . S
C2156 C2159 1.387 . S
H2157 C2153 0.950 . S
H2158 C2155 0.950 . S
C2159 C2150 1.390 . S
C2159 H2152 0.950 . S
C2159 C2156 1.387 . S
C2160 C2161 1.387 . S
C2160 H2164 0.950 . S
C2160 C2169 1.390 . S
C2161 C2160 1.387 . S
C2161 C2163 1.387 . S
H2162 C2169 0.950 . S
C2163 C2161 1.387 . S
C2163 C2165 1.390 . S
C2163 H2167 0.950 . S
H2164 C2160 0.950 . S
C2165 C2163 1.390 . S
C2165 C2166 1.387 . S
C2165 H2168 0.950 . S
C2166 C2165 1.387 . S
C2166 C2169 1.387 . S
H2167 C2163 0.950 . S
H2168 C2165 0.950 . S
C2169 C2160 1.390 . S
C2169 H2162 0.950 . S
C2169 C2166 1.387 . S
C2170 C2171 1.387 . S
C2170 H2174 0.950 . S
C2170 C2179 1.390 . S
C2171 C2170 1.387 . S
C2171 C2173 1.387 . S
H2172 C2179 0.950 . S
C2173 C2171 1.387 . S
C2173 C2175 1.390 . S
C2173 H2177 0.950 . S
H2174 C2170 0.950 . S
C2175 C2173 1.390 . S
C2175 C2176 1.387 . S
C2175 H2178 0.950 . S
C2176 C2175 1.387 . S
C2176 C2179 1.387 . S
H2177 C2173 0.950 . S
H2178 C2175 0.950 . S
C2179 C2170 1.390 . S
C2179 H2172 0.950 . S
C2179 C2176 1.387 . S
C2180 C2181 1.387 . S
C2180 H2184 0.950 . S
C2180 C2189 1.390 . S
C2181 C2180 1.387 . S
C2181 C2183 1.387 . S
H2182 C2189 0.950 . S
C2183 C2181 1.387 . S
C2183 C2185 1.390 . S
C2183 H2187 0.950 . S
H2184 C2180 0.950 . S
C2185 C2183 1.390 . S
C2185 C2186 1.387 . S
C2185 H2188 0.950 . S
C2186 C2185 1.387 . S
C2186 C2189 1.387 . S
H2187 C2183 0.950 . S
H2188 C2185 0.950 . S
C2189 C2180 1.390 . S
C2189 H2182 0.950 . S
C2189 C2186 1.387 . S
C2190 C2191 1.387 . S
C2190 H2194 0.950 . S
C2190 C2199 1.390 . S
C2191 C2190 1.387 . S
C2191 C2193 1.387 . S
H2192 C2199 0.950 . S
C2193 C2191 1.387 . S
C2193 C2195 1.390 . S
C2193 H2197 0.950 . S
H2194 C2190 0.950 . S
C2195 C2193 1.390 . S
C2195 C2196 1.387 . S
C2195 H2198 0.950 . S
C2196 C2195 1.387 . S
C2196 C2199 1.387 . S
H2197 C2193 0.950 . S
H2198 C2195 0.950 . S
C2199 C2190 1.390 . S
C2199 H2192 0.950 . S
C2199 C2196 1.387 . S
C2200 C2201 1.387 . S
C2200 H2204 0.950 . S
C2200 C2209 1.390 . S
C2201 C2200 1.387 . S
C2201 C2203 1.387 . S
H2202 C2209 0.950 . S
C2203 C2201 1.387 . S
C2203 C2205 1.390 . S
C2203 H2207 0.950 . S
H2204 C2200 0.950 . S
C2205 C2203 1.390 . S
C2205 C2206 1.387 . S
C2205 H2208 0.950 . S
C2206 C2205 1.387 . S
C2206 C2209 1.387 . S
H2207 C2203 0.950 . S
H2208 C2205 0.950 . S
C2209 C2200 1.390 . S
C2209 H2202 0.950 . S
C2209 C2206 1.387 . S
C2210 C2211 1.387 . S
C2210 H2214 0.950 . S
C2210 C2219 1.390 . S
C2211 C2210 1.387 . S
C2211 C2213 1.387 . S
H2212 C2219 0.950 . S
C2213 C2211 1.387 . S
C2213 C2215 1.390 . S
C2213 H2217 0.950 . S
H2214 C2210 0.950 . S
C2215 C2213 1.390 . S
C2215 C2216 1.387 . S
C2215 H2218 0.950 . S
C2216 C2215 1.387 . S
C2216 C2219 1.387 . S
H2217 C2213 0.950 . S
H2218 C2215 0.950 . S
C2219 C2210 1.390 . S
C2219 H2212 0.950 . S
C2219 C2216 1.387 . S
C2220 C2221 1.387 . S
C2220 H2224 0.950 . S
C2220 C2229 1.390 . S
C2221 C2220 1.387 . S
C2221 C2223 1.387 . S
H2222 C2229 0.950 . S
C2223 C2221 1.387 . S
C2223 C2225 1.390 . S
C2223 H2227 0.950 . S
H2224 C2220 0.950 . S
C2225 C2223 1.390 . S
C2225 C2226 1.387 . S
C2225 H2228 0.950 . S
C2226 C2225 1.387 . S
C2226 C2229 1.387 . S
H2227 C2223 0.950 . S
H2228 C2225 0.950 . S
C2229 C2220 1.390 . S
C2229 H2222 0.950 . S
C2229 C2226 1.387 . S
C2230 C2231 1.387 . S
C2230 H2234 0.950 . S
C2230 C2239 1.390 . S
C2231 C2230 1.387 . S
C2231 C2233 1.387 . S
H2232 C2239 0.950 . S
C2233 C2231 1.387 . S
C2233 C2235 1.390 . S
C2233 H2237 0.950 . S
H2234 C2230 0.950 . S
C2235 C2233 1.390 . S
C2235 C2236 1.387 . S
C2235 H2238 0.950 . S
C2236 C2235 1.387 . S
C2236 C2239 1.387 . S
H2237 C2233 0.950 . S
H2238 C2235 0.950 . S
C2239 C2230 1.390 . S
C2239 H2232 0.950 . S
C2239 C2236 1.387 . S
C2240 C2241 1.387 . S
C2240 H2244 0.950 . S
C2240 C2249 1.390 . S
C2241 C2240 1.387 . S
C2241 C2243 1.387 . S
H2242 C2249 0.950 . S
C2243 C2241 1.387 . S
C2243 C2245 1.390 . S
C2243 H2247 0.950 . S
H2244 C2240 0.950 . S
C2245 C2243 1.390 . S
C2245 C2246 1.387 . S
C2245 H2248 0.950 . S
C2246 C2245 1.387 . S
C2246 C2249 1.387 . S
H2247 C2243 0.950 . S
H2248 C2245 0.950 . S
C2249 C2240 1.390 . S
C2249 H2242 0.950 . S
C2249 C2246 1.387 . S
C2250 C2251 1.387 . S
C2250 H2254 0.950 . S
C2250 C2259 1.390 . S
C2251 C2250 1.387 . S
C2251 C2253 1.387 . S
H2252 C2259 0.950 . S
C2253 C2251 1.387 . S
C2253 C2255 1.390 . S
C2253 H2257 0.950 . S
H2254 C2250 0.950 . S
C2255 C2253 1.390 . S
C2255 C2256 1.387 . S
C2255 H2258 0.950 . S
C2256 C2255 1.387 . S
C2256 C2259 1.387 . S
H2257 C2253 0.950 . S
H2258 C2255 0.950 . S
C2259 C2250 1.390 . S
C2259 H2252 0.950 . S
C2259 C2256 1.387 . S
C2260 C2261 1.387 . S
C2260 H2264 0.950 . S
C2260 C2269 1.390 . S
C2261 C2260 1.387 . S
C2261 C2263 1.387 . S
H2262 C2269 0.950 . S
C2263 C2261 1.387 . S
C2263 C2265 1.390 . S
C2263 H2267 0.950 . S
H2264 C2260 0.950 . S
C2265 C2263 1.390 . S
C2265 C2266 1.387 . S
C2265 H2268 0.950 . S
C2266 C2265 1.387 . S
C2266 C2269 1.387 . S
H2267 C2263 0.950 . S
H2268 C2265 0.950 . S
C2269 C2260 1.390 . S
C2269 H2262 0.950 . S
C2269 C2266 1.387 . S
C2270 C2271 1.387 . S
C2270 H2274 0.950 . S
C2270 C2279 1.390 . S
C2271 C2270 1.387 . S
C2271 C2273 1.387 . S
H2272 C2279 0.950 . S
C2273 C2271 1.387 . S
C2273 C2275 1.390 . S
C2273 H2277 0.950 . S
H2274 C2270 0.950 . S
C2275 C2273 1.390 . S
C2275 C2276 1.387 . S
C2275 H2278 0.950 . S
C2276 C2275 1.387 . S
C2276 C2279 1.387 . S
H2277 C2273 0.950 . S
H2278 C2275 0.950 . S
C2279 C2270 1.390 . S
C2279 H2272 0.950 . S
C2279 C2276 1.387 . S
C2280 C2281 1.387 . S
C2280 H2284 0.950 . S
C2280 C2289 1.390 . S
C2281 C2280 1.387 . S
C2281 C2283 1.387 . S
H2282 C2289 0.950 . S
C2283 C2281 1.387 . S
C2283 C2285 1.390 . S
C2283 H2287 0.950 . S
H2284 C2280 0.950 . S
C2285 C2283 1.390 . S
C2285 C2286 1.387 . S
C2285 H2288 0.950 . S
C2286 C2285 1.387 . S
C2286 C2289 1.387 . S
H2287 C2283 0.950 . S
H2288 C2285 0.950 . S
C2289 C2280 1.390 . S
C2289 H2282 0.950 . S
C2289 C2286 1.387 . S
C2290 C2291 1.387 . S
C2290 H2294 0.950 . S
C2290 C2299 1.390 . S
C2291 C2290 1.387 . S
C2291 C2293 1.387 . S
H2292 C2299 0.950 . S
C2293 C2291 1.387 . S
C2293 C2295 1.390 . S
C2293 H2297 0.950 . S
H2294 C2290 0.950 . S
C2295 C2293 1.390 . S
C2295 C2296 1.387 . S
C2295 H2298 0.950 . S
C2296 C2295 1.387 . S
C2296 C2299 1.387 . S
H2297 C2293 0.950 . S
H2298 C2295 0.950 . S
C2299 C2290 1.390 . S
C2299 H2292 0.950 . S
C2299 C2296 1.387 . S
C2300 C2301 1.387 . S
C2300 H2304 0.950 . S
C2300 C2309 1.390 . S
C2301 C2300 1.387 . S
C2301 C2303 1.387 . S
H2302 C2309 0.950 . S
C2303 C2301 1.387 . S
C2303 C2305 1.390 . S
C2303 H2307 0.950 . S
H2304 C2300 0.950 . S
C2305 C2303 1.390 . S
C2305 C2306 1.387 . S
C2305 H2308 0.950 . S
C2306 C2305 1.387 . S
C2306 C2309 1.387 . S
H2307 C2303 0.950 . S
H2308 C2305 0.950 . S
C2309 C2300 1.390 . S
C2309 H2302 0.950 . S
C2309 C2306 1.387 . S
C2310 C2311 1.387 . S
C2310 H2314 0.950 . S
C2310 C2319 1.390 . S
C2311 C2310 1.387 . S
C2311 C2313 1.387 . S
H2312 C2319 0.950 1_655 S
C2313 C2311 1.387 . S
C2313 C2315 1.390 . S
C2313 H2317 0.950 . S
H2314 C2310 0.950 . S
C2315 C2313 1.390 . S
C2315 C2316 1.387 . S
C2315 H2318 0.950 . S
C2316 C2315 1.387 . S
C2316 C2319 1.387 . S
H2317 C2313 0.950 . S
H2318 C2315 0.950 . S
C2319 C2310 1.390 . S
C2319 H2312 0.950 1_455 S
C2319 C2316 1.387 . S
C2320 C2321 1.387 . S
C2320 H2324 0.950 . S
C2320 C2329 1.390 . S
C2321 C2320 1.387 . S
C2321 C2323 1.387 . S
H2322 C2329 0.950 . S
C2323 C2321 1.387 . S
C2323 C2325 1.390 . S
C2323 H2327 0.950 . S
H2324 C2320 0.950 . S
C2325 C2323 1.390 . S
C2325 C2326 1.387 . S
C2325 H2328 0.950 . S
C2326 C2325 1.387 . S
C2326 C2329 1.387 . S
H2327 C2323 0.950 . S
H2328 C2325 0.950 . S
C2329 C2320 1.390 . S
C2329 H2322 0.950 . S
C2329 C2326 1.387 . S
C2330 C2331 1.387 . S
C2330 H2334 0.950 . S
C2330 C2339 1.390 1_545 S
C2331 C2330 1.387 . S
C2331 C2333 1.387 . S
H2332 C2339 0.950 . S
C2333 C2331 1.387 . S
C2333 C2335 1.390 . S
C2333 H2337 0.950 . S
H2334 C2330 0.950 . S
C2335 C2333 1.390 . S
C2335 C2336 1.387 1_545 S
C2335 H2338 0.950 1_545 S
C2336 C2335 1.387 1_565 S
C2336 C2339 1.387 . S
H2337 C2333 0.950 . S
H2338 C2335 0.950 1_565 S
C2339 C2330 1.390 1_565 S
C2339 H2332 0.950 . S
C2339 C2336 1.387 . S
C2340 C2341 1.387 . S
C2340 H2344 0.950 . S
C2340 C2349 1.390 1_565 S
C2341 C2340 1.387 . S
C2341 C2343 1.387 . S
H2342 C2349 0.950 . S
C2343 C2341 1.387 . S
C2343 C2345 1.390 1_565 S
C2343 H2347 0.950 . S
H2344 C2340 0.950 . S
C2345 C2343 1.390 1_545 S
C2345 C2346 1.387 . S
C2345 H2348 0.950 . S
C2346 C2345 1.387 . S
C2346 C2349 1.387 . S
H2347 C2343 0.950 . S
H2348 C2345 0.950 . S
C2349 C2340 1.390 1_545 S
C2349 H2342 0.950 . S
C2349 C2346 1.387 . S
C2350 C2351 1.387 . S
C2350 H2354 0.950 . S
C2350 C2359 1.390 . S
C2351 C2350 1.387 . S
C2351 C2353 1.387 . S
H2352 C2359 0.950 . S
C2353 C2351 1.387 . S
C2353 C2355 1.390 . S
C2353 H2357 0.950 . S
H2354 C2350 0.950 . S
C2355 C2353 1.390 . S
C2355 C2356 1.387 . S
C2355 H2358 0.950 . S
C2356 C2355 1.387 . S
C2356 C2359 1.387 . S
H2357 C2353 0.950 . S
H2358 C2355 0.950 . S
C2359 C2350 1.390 . S
C2359 H2352 0.950 . S
C2359 C2356 1.387 . S
C2360 C2361 1.387 . S
C2360 H2364 0.950 . S
C2360 C2369 1.390 . S
C2361 C2360 1.387 . S
C2361 C2363 1.387 . S
H2362 C2369 0.950 . S
C2363 C2361 1.387 . S
C2363 C2365 1.390 . S
C2363 H2367 0.950 . S
H2364 C2360 0.950 . S
C2365 C2363 1.390 . S
C2365 C2366 1.387 . S
C2365 H2368 0.950 . S
C2366 C2365 1.387 . S
C2366 C2369 1.387 . S
H2367 C2363 0.950 . S
H2368 C2365 0.950 . S
C2369 C2360 1.390 . S
C2369 H2362 0.950 . S
C2369 C2366 1.387 . S
C2370 C2371 1.387 . S
C2370 H2374 0.950 . S
C2370 C2379 1.390 . S
C2371 C2370 1.387 . S
C2371 C2373 1.387 . S
H2372 C2379 0.950 . S
C2373 C2371 1.387 . S
C2373 C2375 1.390 . S
C2373 H2377 0.950 . S
H2374 C2370 0.950 . S
C2375 C2373 1.390 . S
C2375 C2376 1.387 . S
C2375 H2378 0.950 . S
C2376 C2375 1.387 . S
C2376 C2379 1.387 . S
H2377 C2373 0.950 . S
H2378 C2375 0.950 . S
C2379 C2370 1.390 . S
C2379 H2372 0.950 . S
C2379 C2376 1.387 . S
C2380 C2381 1.387 . S
C2380 H2384 0.950 . S
C2380 C2389 1.390 . S
C2381 C2380 1.387 . S
C2381 C2383 1.387 . S
H2382 C2389 0.950 . S
C2383 C2381 1.387 . S
C2383 C2385 1.390 . S
C2383 H2387 0.950 . S
H2384 C2380 0.950 . S
C2385 C2383 1.390 . S
C2385 C2386 1.387 . S
C2385 H2388 0.950 . S
C2386 C2385 1.387 . S
C2386 C2389 1.387 . S
H2387 C2383 0.950 . S
H2388 C2385 0.950 . S
C2389 C2380 1.390 . S
C2389 H2382 0.950 . S
C2389 C2386 1.387 . S
C2390 C2391 1.387 . S
C2390 H2394 0.950 . S
C2390 C2399 1.390 . S
C2391 C2390 1.387 . S
C2391 C2393 1.387 . S
H2392 C2399 0.950 . S
C2393 C2391 1.387 . S
C2393 C2395 1.390 . S
C2393 H2397 0.950 . S
H2394 C2390 0.950 . S
C2395 C2393 1.390 . S
C2395 C2396 1.387 . S
C2395 H2398 0.950 . S
C2396 C2395 1.387 . S
C2396 C2399 1.387 . S
H2397 C2393 0.950 . S
H2398 C2395 0.950 . S
C2399 C2390 1.390 . S
C2399 H2392 0.950 . S
C2399 C2396 1.387 . S
C2400 C2401 1.387 . S
C2400 H2404 0.950 . S
C2400 C2409 1.390 . S
C2401 C2400 1.387 . S
C2401 C2403 1.387 . S
H2402 C2409 0.950 . S
C2403 C2401 1.387 . S
C2403 C2405 1.390 . S
C2403 H2407 0.950 . S
H2404 C2400 0.950 . S
C2405 C2403 1.390 . S
C2405 C2406 1.387 . S
C2405 H2408 0.950 . S
C2406 C2405 1.387 . S
C2406 C2409 1.387 . S
H2407 C2403 0.950 . S
H2408 C2405 0.950 . S
C2409 C2400 1.390 . S
C2409 H2402 0.950 . S
C2409 C2406 1.387 . S
C2410 C2411 1.387 . S
C2410 H2414 0.950 . S
C2410 C2419 1.390 1_655 S
C2411 C2410 1.387 . S
C2411 C2413 1.387 . S
H2412 C2419 0.950 . S
C2413 C2411 1.387 . S
C2413 C2415 1.390 1_655 S
C2413 H2417 0.950 . S
H2414 C2410 0.950 . S
C2415 C2413 1.390 1_455 S
C2415 C2416 1.387 . S
C2415 H2418 0.950 . S
C2416 C2415 1.387 . S
C2416 C2419 1.387 . S
H2417 C2413 0.950 . S
H2418 C2415 0.950 . S
C2419 C2410 1.390 1_455 S
C2419 H2412 0.950 . S
C2419 C2416 1.387 . S
C2420 C2421 1.387 . S
C2420 H2424 0.950 . S
C2420 C2429 1.390 . S
C2421 C2420 1.387 . S
C2421 C2423 1.387 . S
H2422 C2429 0.950 . S
C2423 C2421 1.387 . S
C2423 C2425 1.390 . S
C2423 H2427 0.950 . S
H2424 C2420 0.950 . S
C2425 C2423 1.390 . S
C2425 C2426 1.387 . S
C2425 H2428 0.950 . S
C2426 C2425 1.387 . S
C2426 C2429 1.387 . S
H2427 C2423 0.950 . S
H2428 C2425 0.950 . S
C2429 C2420 1.390 . S
C2429 H2422 0.950 . S
C2429 C2426 1.387 . S
C2430 C2431 1.387 . S
C2430 H2434 0.950 . S
C2430 C2439 1.390 . S
C2431 C2430 1.387 . S
C2431 C2433 1.387 . S
H2432 C2439 0.950 . S
C2433 C2431 1.387 . S
C2433 C2435 1.390 . S
C2433 H2437 0.950 . S
H2434 C2430 0.950 . S
C2435 C2433 1.390 . S
C2435 C2436 1.387 . S
C2435 H2438 0.950 . S
C2436 C2435 1.387 . S
C2436 C2439 1.387 . S
H2437 C2433 0.950 . S
H2438 C2435 0.950 . S
C2439 C2430 1.390 . S
C2439 H2432 0.950 . S
C2439 C2436 1.387 . S
C2440 C2441 1.387 . S
C2440 H2444 0.950 . S
C2440 C2449 1.390 . S
C2441 C2440 1.387 . S
C2441 C2443 1.387 . S
H2442 C2449 0.950 . S
C2443 C2441 1.387 . S
C2443 C2445 1.390 . S
C2443 H2447 0.950 . S
H2444 C2440 0.950 . S
C2445 C2443 1.390 . S
C2445 C2446 1.387 . S
C2445 H2448 0.950 . S
C2446 C2445 1.387 . S
C2446 C2449 1.387 . S
H2447 C2443 0.950 . S
H2448 C2445 0.950 . S
C2449 C2440 1.390 . S
C2449 H2442 0.950 . S
C2449 C2446 1.387 . S
C2450 C2451 1.387 . S
C2450 H2454 0.950 . S
C2450 C2459 1.390 . S
C2451 C2450 1.387 . S
C2451 C2453 1.387 . S
H2452 C2459 0.950 . S
C2453 C2451 1.387 . S
C2453 C2455 1.390 . S
C2453 H2457 0.950 . S
H2454 C2450 0.950 . S
C2455 C2453 1.390 . S
C2455 C2456 1.387 . S
C2455 H2458 0.950 . S
C2456 C2455 1.387 . S
C2456 C2459 1.387 . S
H2457 C2453 0.950 . S
H2458 C2455 0.950 . S
C2459 C2450 1.390 . S
C2459 H2452 0.950 . S
C2459 C2456 1.387 . S
C2460 C2461 1.387 . S
C2460 H2464 0.950 . S
C2460 C2469 1.390 . S
C2461 C2460 1.387 . S
C2461 C2463 1.387 . S
H2462 C2469 0.950 . S
C2463 C2461 1.387 . S
C2463 C2465 1.390 . S
C2463 H2467 0.950 . S
H2464 C2460 0.950 . S
C2465 C2463 1.390 . S
C2465 C2466 1.387 . S
C2465 H2468 0.950 . S
C2466 C2465 1.387 . S
C2466 C2469 1.387 . S
H2467 C2463 0.950 . S
H2468 C2465 0.950 . S
C2469 C2460 1.390 . S
C2469 H2462 0.950 . S
C2469 C2466 1.387 . S
C2470 C2471 1.387 . S
C2470 H2474 0.950 . S
C2470 C2479 1.390 . S
C2471 C2470 1.387 . S
C2471 C2473 1.387 . S
H2472 C2479 0.950 . S
C2473 C2471 1.387 . S
C2473 C2475 1.390 . S
C2473 H2477 0.950 . S
H2474 C2470 0.950 . S
C2475 C2473 1.390 . S
C2475 C2476 1.387 . S
C2475 H2478 0.950 . S
C2476 C2475 1.387 . S
C2476 C2479 1.387 . S
H2477 C2473 0.950 . S
H2478 C2475 0.950 . S
C2479 C2470 1.390 . S
C2479 H2472 0.950 . S
C2479 C2476 1.387 . S
C2480 C2481 1.387 . S
C2480 H2484 0.950 . S
C2480 C2489 1.390 . S
C2481 C2480 1.387 . S
C2481 C2483 1.387 . S
H2482 C2489 0.950 . S
C2483 C2481 1.387 . S
C2483 C2485 1.390 . S
C2483 H2487 0.950 . S
H2484 C2480 0.950 . S
C2485 C2483 1.390 . S
C2485 C2486 1.387 . S
C2485 H2488 0.950 . S
C2486 C2485 1.387 . S
C2486 C2489 1.387 . S
H2487 C2483 0.950 . S
H2488 C2485 0.950 . S
C2489 C2480 1.390 . S
C2489 H2482 0.950 . S
C2489 C2486 1.387 . S
C2490 C2491 1.387 . S
C2490 H2494 0.950 . S
C2490 C2499 1.390 1_655 S
C2491 C2490 1.387 . S
C2491 C2493 1.382 1_655 S
H2492 C2499 0.950 . S
C2493 C2491 1.382 1_455 S
C2493 C2495 1.404 . S
C2493 H2497 0.941 1_455 S
H2494 C2490 0.950 . S
C2495 C2493 1.404 . S
C2495 C2496 1.387 . S
C2495 H2498 0.950 . S
C2496 C2495 1.387 . S
C2496 C2499 1.387 . S
H2497 C2493 0.941 1_655 S
H2498 C2495 0.950 . S
C2499 C2490 1.390 1_455 S
C2499 H2492 0.950 . S
C2499 C2496 1.387 . S
C2500 C2501 1.387 . S
C2500 H2504 0.950 . S
C2500 C2509 1.390 . S
C2501 C2500 1.387 . S
C2501 C2503 1.387 . S
H2502 C2509 0.950 . S
C2503 C2501 1.387 . S
C2503 C2505 1.390 . S
C2503 H2507 0.950 . S
H2504 C2500 0.950 . S
C2505 C2503 1.390 . S
C2505 C2506 1.387 . S
C2505 H2508 0.950 . S
C2506 C2505 1.387 . S
C2506 C2509 1.387 . S
H2507 C2503 0.950 . S
H2508 C2505 0.950 . S
C2509 C2500 1.390 . S
C2509 H2502 0.950 . S
C2509 C2506 1.387 . S
C2510 C2511 1.387 . S
C2510 H2514 0.950 . S
C2510 C2519 1.390 . S
C2511 C2510 1.387 . S
C2511 C2513 1.387 . S
H2512 C2519 0.950 . S
C2513 C2511 1.387 . S
C2513 C2515 1.390 . S
C2513 H2517 0.950 1_545 S
H2514 C2510 0.950 . S
C2515 C2513 1.390 . S
C2515 C2516 1.387 . S
C2515 H2518 0.950 . S
C2516 C2515 1.387 . S
C2516 C2519 1.387 . S
H2517 C2513 0.950 1_565 S
H2518 C2515 0.950 . S
C2519 C2510 1.390 . S
C2519 H2512 0.950 . S
C2519 C2516 1.387 . S
C1441 C1088 2.333 . S
C1446 C8 2.333 . S
C1451 C1128 2.332 . S
C1456 C48 2.332 1_655 S
C1461 C88 2.333 . S
C1466 C1168 2.332 . S
C1471 C128 2.332 . S
C1476 C488 2.333 . S
C1481 C168 2.332 . S
C1486 C528 2.332 . S
C1491 C568 2.332 . S
C1496 C208 2.332 1_565 S
C1501 C258 2.333 1_565 S
C1506 C858 2.333 . S
C1511 C898 2.333 . S
C1516 C298 2.333 . S
C1521 C338 2.333 . S
C1526 C938 2.333 . S
C1531 C1218 2.332 . S
C1536 C378 2.332 1_655 S
C1541 C418 2.332 . S
C1546 C1258 2.332 . S
C1551 C1298 2.332 . S
C1556 C458 2.332 . S
C1561 C968 2.332 . S
C1566 C608 2.333 . S
C1571 C648 2.332 . S
C1576 C1008 2.332 . S
C1581 C1048 2.333 . S
C1586 C688 2.333 . S
C1591 C738 2.333 . S
C1596 C1338 2.333 . S
C1601 C778 2.332 . S
C1606 C1378 2.332 . S
C1611 C1418 2.332 . S
C1616 C818 2.332 . S
C1621 C18 1.578 . S
C1626 C248 1.578 . S
C1631 C288 1.575 . S
C1636 C58 1.575 . S
C1641 C98 1.577 . S
C1646 C328 1.577 . S
C1651 C368 1.577 . S
C1656 C138 1.577 . S
C1661 C178 1.574 . S
C1666 C408 1.574 . S
C1671 C448 1.573 . S
C1676 C218 1.573 . S
C1681 C728 1.576 . S
C1686 C498 1.576 . S
C1691 C538 1.573 . S
C1696 C768 1.573 . S
C1701 C808 1.574 . S
C1706 C578 1.574 . S
C1711 C618 1.577 . S
C1716 C848 1.577 . S
C1721 C888 1.573 . S
C1726 C658 1.573 . S
C1731 C698 1.577 . S
C1736 C928 1.577 . S
C1741 C978 1.574 . S
C1746 C1208 1.574 . S
C1751 C1248 1.574 . S
C1756 C1018 1.574 . S
C1761 C1288 1.574 . S
C1766 C1058 1.574 . S
C1771 C1328 1.574 . S
C1776 C1098 1.574 . S
C1781 C1138 1.577 . S
C1786 C1368 1.577 . S
C1791 C1178 1.577 . S
C1796 C1408 1.577 . S
C1801 C5 1.806 . S
C1806 C89 1.813 . S
C1811 C45 1.806 . S
C1816 C9 1.813 . S
C1821 C49 1.814 . S
C1826 C85 1.807 . S
C1831 C125 1.807 . S
C1836 C169 1.814 . S
C1841 C209 1.812 . S
C1846 C165 1.805 . S
C1851 C129 1.813 . S
C1856 C205 1.805 . S
C1861 C339 1.812 . S
C1866 C255 1.806 . S
C1871 C295 1.807 . S
C1876 C259 1.814 . S
C1881 C335 1.805 . S
C1886 C299 1.812 . S
C1891 C419 1.814 . S
C1896 C375 1.807 . S
C1901 C415 1.807 . S
C1906 C459 1.813 . S
C1911 C455 1.805 . S
C1916 C379 1.812 . S
C1921 C569 1.812 1_545 S
C1926 C485 1.805 . S
C1931 C489 1.814 . S
C1936 C525 1.807 . S
C1941 C529 1.811 . S
C1946 C565 1.805 . S
C1951 C649 1.814 . S
C1956 C605 1.807 . S
C1961 C645 1.807 . S
C1966 C689 1.812 . S
C1971 C609 1.813 . S
C1976 C685 1.807 . S
C1981 C735 1.807 . S
C1986 C819 1.813 . S
C1991 C739 1.813 . S
C1996 C775 1.807 . S
C2001 C815 1.807 . S
C2006 C779 1.814 . S
C2011 C899 1.813 . S
C2016 C855 1.807 . S
C2021 C939 1.814 . S
C2026 C895 1.807 . S
C2031 C859 1.813 1_545 S
C2036 C935 1.805 . S
C2041 C1049 1.812 . S
C2046 C965 1.806 . S
C2051 C1005 1.805 . S
C2056 C969 1.812 . S
C2061 C1009 1.814 . S
C2066 C1045 1.807 . S
C2071 C1085 1.808 . S
C2076 C1129 1.814 1_455 S
C2081 C1125 1.805 . S
C2086 C1169 1.811 . S
C2091 C1089 1.812 . S
C2096 C1165 1.805 . S
C2101 C1215 1.807 . S
C2106 C1299 1.813 . S
C2111 C1255 1.805 . S
C2116 C1219 1.813 1_455 S
C2121 C1259 1.811 . S
C2126 C1295 1.805 . S
C2131 C1335 1.805 . S
C2136 C1379 1.812 . S
C2141 C1419 1.811 . S
C2146 C1375 1.805 . S
C2151 C1339 1.813 . S
C2156 C1415 1.807 . S
C2161 C99 1.323 . S
C2166 C15 1.378 . S
C2171 C55 1.378 . S
C2176 C19 1.323 . S
C2181 C59 1.320 . S
C2186 C95 1.376 . S
C2191 C179 1.324 . S
C2196 C135 1.379 . S
C2201 C175 1.377 . S
C2206 C219 1.321 . S
C2211 C215 1.376 . S
C2216 C139 1.320 . S
C2221 C329 1.324 . S
C2226 C245 1.378 . S
C2231 C285 1.376 . S
C2236 C249 1.321 . S
C2241 C289 1.320 . S
C2246 C325 1.376 . S
C2251 C409 1.320 . S
C2256 C365 1.376 . S
C2261 C449 1.321 . S
C2266 C405 1.377 . S
C2271 C369 1.324 . S
C2276 C445 1.378 . S
C2281 C495 1.377 . S
C2286 C579 1.323 . S
C2291 C535 1.377 . S
C2296 C499 1.321 . S
C2301 C575 1.379 . S
C2306 C539 1.324 . S
C2311 C659 1.324 . S
C2316 C615 1.378 1_455 S
C2321 C655 1.377 . S
C2326 C699 1.321 . S
C2331 C695 1.376 . S
C2336 C619 1.320 . S
C2341 C809 1.321 . S
C2346 C725 1.377 . S
C2351 C729 1.322 . S
C2356 C765 1.377 1_455 S
C2361 C805 1.377 . S
C2366 C769 1.322 . S
C2371 C889 1.320 . S
C2376 C845 1.376 . S
C2381 C885 1.378 . S
C2386 C929 1.324 . S
C2391 C925 1.377 . S
C2396 C849 1.322 . S
C2401 C975 1.377 1_545 S
C2406 C1059 1.322 . S
C2411 C979 1.321 . S
C2416 C1015 1.377 . S
C2421 C1019 1.324 . S
C2426 C1055 1.379 . S
C2431 C1139 1.321 . S
C2436 C1095 1.376 . S
C2441 C1135 1.376 . S
C2446 C1179 1.321 . S
C2451 C1175 1.376 . S
C2456 C1099 1.320 . S
C2461 C1289 1.323 . S
C2466 C1205 1.378 . S
C2471 C1209 1.321 . S
C2476 C1245 1.377 . S
C2481 C1285 1.376 . S
C2486 C1249 1.320 . S
C2491 C1369 1.324 . S
C2496 C1325 1.379 . S
C2501 C1365 1.378 . S
C2506 C1409 1.323 . S
C2511 C1405 1.378 1_545 S
C2516 C1329 1.324 . S
