# Generated by pormake.
# Topology qtz-e, (6)-cn, num edge types: 1
# Building blocks:
#     Node 0, Type 0, BuildingBlock: KUMJIN_clean_sbu_0, # of connection points: 6
#     Node 1, Type 0, BuildingBlock: KUMJIN_clean_sbu_0, # of connection points: 6
#     Node 2, Type 0, BuildingBlock: KUMJIN_clean_sbu_0, # of connection points: 6
#     Node 3, Type 0, BuildingBlock: KUMJIN_clean_sbu_0, # of connection points: 6
#     Node 4, Type 0, BuildingBlock: KUMJIN_clean_sbu_0, # of connection points: 6
#     Node 5, Type 0, BuildingBlock: KUMJIN_clean_sbu_0, # of connection points: 6
#     Edge 6, Type (0, 0), None
#     Edge 7, Type (0, 0), None
#     Edge 8, Type (0, 0), None
#     Edge 9, Type (0, 0), None
#     Edge 10, Type (0, 0), None
#     Edge 11, Type (0, 0), None
#     Edge 12, Type (0, 0), None
#     Edge 13, Type (0, 0), None
#     Edge 14, Type (0, 0), None
#     Edge 15, Type (0, 0), None
#     Edge 16, Type (0, 0), None
#     Edge 17, Type (0, 0), None
#     Edge 18, Type (0, 0), None
#     Edge 19, Type (0, 0), None
#     Edge 20, Type (0, 0), None
#     Edge 21, Type (0, 0), None
#     Edge 22, Type (0, 0), None
#     Edge 23, Type (0, 0), None
# Relax obj value: 0.082
# Max RMSD: 0.177
# Mean RMSD: 0.177
data_MOF--net-qtz-e--node1-KUMJIN_clean_sbu_0--edge1-none
_symmetry_space_group_name_H-M    P1
_symmetry_Int_Tables_number       1
_symmetry_cell_setting            triclinic
loop_
_symmetry_equiv_pos_as_xyz
'x, y, z'
_cell_length_a     14.168707
_cell_length_b     14.168263
_cell_length_c     29.563977
_cell_angle_alpha  89.992121
_cell_angle_beta   89.987535
_cell_angle_gamma 119.99941
loop_
_atom_site_label
_atom_site_type_symbol
_atom_site_fract_x
_atom_site_fract_y
_atom_site_fract_z
_atom_type_partial_charge
Eu0 Eu 0.2927 0.57252 0.05704 0.0
C1 C 0.95973 0.08802 0.9835 0.0
C2 C 0.94368 0.94415 0.08958 0.0
C3 C 0.74543 0.86107 0.0143 0.0
C4 C 0.03426 0.09929 0.02728 0.0
C5 C 0.82459 0.97872 0.97519 0.0
C6 C 0.79811 0.84177 0.06985 0.0
C7 C 0.82312 0.12065 0.92986 0.0
N8 N 1.00158 0.18792 0.96581 0.0
C9 C 0.93187 0.20574 0.94008 0.0
C10 C 0.77526 1.01022 0.94371 0.0
Eu11 Eu 0.19634 0.31729 -0.00625 0.0
N12 N 0.14148 0.11426 0.01821 0.0
C13 C 0.1995 0.02172 0.05253 0.0
C14 C 1.02203 0.9022 0.10793 0.0
C15 C 0.13801 0.93638 0.09116 0.0
H16 H 0.95974 0.28607 0.9262 0.0
H17 H 0.17506 0.89009 0.10325 0.0
H18 H 0.73962 0.77234 0.08765 0.0
H19 H 0.7735 0.13818 0.9082 0.0
H20 H 0.26632 1.01253 0.04532 0.0
H21 H 0.39351 0.814 0.90209 0.0
H22 H 0.99641 0.82102 0.11174 0.0
H23 H 0.42621 0.63404 0.15668 0.0
H24 H 0.26831 0.67409 0.95408 0.0
H25 H 0.57242 0.79813 0.19315 0.0
H26 H 0.66194 0.80424 0.00562 0.0
H27 H 0.56088 0.96511 0.93022 0.0
H28 H 0.66799 0.07002 0.00098 0.0
H29 H 0.70031 0.94883 0.92947 0.0
H30 H 0.69081 0.07088 0.08218 0.0
N31 N 0.38417 0.72335 0.00796 0.0
C32 C 0.34796 0.73171 0.96609 0.0
C33 C 0.51171 0.89938 0.95296 0.0
C34 C 0.53782 0.90178 -0.00142 0.0
C35 C 0.41596 0.814 0.9367 0.0
C36 C 0.47482 0.80881 0.02493 0.0
H37 H 0.68014 0.96498 0.15076 0.0
N38 N 0.45011 0.71047 0.09217 0.0
C39 C 0.5569 0.79815 0.15793 0.0
C40 C 0.5037 0.80507 0.0691 0.0
C41 C 0.47465 0.70575 0.13653 0.0
C42 C 0.61404 0.89487 0.13435 0.0
C43 C 0.58369 0.9001 0.09019 0.0
O44 O 0.20851 0.54526 0.12276 0.0
O45 O 0.20155 0.38613 0.06804 0.0
O46 O 0.07312 0.40461 -0.00292 0.0
O47 O 0.16861 0.58791 0.01834 0.0
O48 O 0.34196 0.48691 0.10658 0.0
O49 O 0.22595 0.67404 0.081 0.0
O50 O 0.16304 0.2836 0.92021 0.0
O51 O 0.24801 0.49132 0.98729 0.0
O52 O 0.45485 0.58919 0.0379 0.0
O53 O 0.38547 0.4025 0.02346 0.0
O54 O 0.34424 0.43953 0.95617 0.0
O55 O 0.31212 0.3053 0.94764 0.0
C56 C 0.25753 0.39199 0.10456 0.0
C57 C 0.25223 0.70941 0.16022 0.0
C58 C 0.28101 0.75603 0.2415 0.0
C59 C 0.22539 0.679 0.20625 0.0
C60 C 0.36199 0.86162 0.22943 0.0
C61 C 0.33383 0.81561 0.15068 0.0
C62 C 0.38723 0.89038 0.18464 0.0
C63 C 0.0797 0.50719 0.00292 0.0
C64 C 0.2024 0.63263 0.12146 0.0
C65 C 0.63015 0.99741 0.06651 0.0
C66 C 0.61803 0.996 0.0197 0.0
C67 C 0.31845 0.51417 0.95563 0.0
C68 C 0.25973 0.21007 0.87769 0.0
C69 C 0.34486 0.23735 0.8448 0.0
C70 C 0.34777 0.15254 0.81822 0.0
C71 C 0.27766 0.04566 0.83313 0.0
C72 C 0.1762 0.1028 0.88011 0.0
C73 C 0.18369 1.02085 0.85748 0.0
C74 C 0.47183 0.5072 0.03006 0.0
C75 C 0.2562 0.28885 0.91082 0.0
H76 H 0.16044 0.59765 0.21453 0.0
H77 H 0.40354 0.92449 0.25412 0.0
H78 H 0.36033 0.83909 0.11661 0.0
H79 H 0.44797 0.97155 0.17604 0.0
H80 H 0.40111 0.32234 0.83815 0.0
H81 H 0.28917 0.97916 0.82318 0.0
H82 H 0.11229 0.08254 0.90409 0.0
H83 H 0.12063 0.93678 0.86193 0.0
Eu84 Eu 0.74139 0.28196 0.39031 0.0
C85 C 0.89207 0.94849 0.3173 0.0
C86 C 1.02204 0.93301 0.42285 0.0
C87 C 0.90542 0.73442 0.34776 0.0
C88 C 0.95617 0.02329 0.36093 0.0
C89 C 0.86619 0.81339 0.30893 0.0
C90 C 0.97839 0.78729 0.40308 0.0
C91 C 0.72316 0.81214 0.26348 0.0
N92 N 0.83433 0.99052 0.29949 0.0
C93 C 0.74694 0.92094 0.27367 0.0
C94 C 0.78558 0.7642 0.27737 0.0
Eu95 Eu 0.90021 0.18551 0.32709 0.0
N96 N 0.04827 0.1305 0.35159 0.0
C97 C 0.19953 0.18868 0.38537 0.0
C98 C 0.14277 1.01152 0.44079 0.0
C99 C 0.22418 0.12739 0.42381 0.0
H100 H 0.69474 0.94898 0.25967 0.0
H101 H 0.30776 0.16451 0.43559 0.0
H102 H 0.9891 0.72857 0.42082 0.0
H103 H 0.65622 0.76265 0.24172 0.0
H104 H 0.27553 0.25522 0.37784 0.0
H105 H 0.60076 0.3832 0.23547 0.0
H106 H 0.19857 0.98613 0.44467 0.0
H107 H 0.81352 0.41539 0.48998 0.0
H108 H 0.61584 0.25797 0.2873 0.0
H109 H 0.79573 0.56164 0.52654 0.0
H110 H 0.8787 0.65093 0.33904 0.0
H111 H 0.61653 0.5502 0.26377 0.0
H112 H 0.61871 0.65712 0.33461 0.0
H113 H 0.77232 0.68946 0.26301 0.0
H114 H 0.64083 0.67981 0.41578 0.0
N115 N 0.68207 0.37356 0.3413 0.0
C116 C 0.63767 0.33751 0.29939 0.0
C117 C 0.63322 0.50104 0.28645 0.0
C118 C 0.65693 0.52704 0.33208 0.0
C119 C 0.62314 0.4055 0.27009 0.0
C120 C 0.68702 0.46404 0.35836 0.0
H121 H 0.73617 0.66911 0.48428 0.0
N122 N 0.76074 0.43925 0.42554 0.0
C123 C 0.77995 0.54599 0.49134 0.0
C124 C 0.7196 0.49279 0.40254 0.0
C125 C 0.79009 0.46377 0.46989 0.0
C126 C 0.74018 0.60304 0.46783 0.0
C127 C 0.70447 0.57268 0.42369 0.0
O128 O 0.68443 0.19774 0.45603 0.0
O129 O 0.83652 0.19068 0.40135 0.0
O130 O 0.68967 0.06241 0.33044 0.0
O131 O 0.60195 0.15808 0.35153 0.0
O132 O 0.87645 0.33134 0.43975 0.0
O133 O 0.5731 0.21513 0.41428 0.0
O134 O 0.90054 0.15186 0.25359 0.0
O135 O 0.77794 0.23727 0.32057 0.0
O136 O 0.88691 0.44407 0.37116 0.0
O137 O 1.00421 0.37458 0.35687 0.0
O138 O 0.92603 0.33344 0.28949 0.0
O139 O 1.02791 0.30111 0.28087 0.0
C140 C 0.88677 0.24679 0.43781 0.0
C141 C 0.56387 0.24128 0.49351 0.0
C142 C 0.54599 0.26995 0.5748 0.0
C143 C 0.56746 0.21441 0.53953 0.0
C144 C 0.52131 0.35089 0.56276 0.0
C145 C 0.53909 0.32277 0.48399 0.0
C146 C 0.51769 0.37611 0.51798 0.0
C147 C 0.59369 0.06907 0.3362 0.0
C148 C 0.59093 0.19155 0.45473 0.0
C149 C 0.6535 0.6191 0.40007 0.0
C150 C 0.64284 0.60715 0.35326 0.0
C151 C 0.82563 0.30773 0.28893 0.0
C152 C 0.07064 0.24842 0.21093 0.0
C153 C 0.12901 0.33389 0.17823 0.0
C154 C 0.21655 0.33661 0.15159 0.0
C155 C 0.25282 0.26596 0.16634 0.0
C156 C 0.09379 0.16445 0.21311 0.0
C157 C 0.18327 0.17186 0.19054 0.0
C158 C 0.98589 0.461 0.36338 0.0
C159 C 0.98841 0.24498 0.24411 0.0
H160 H 0.58397 0.14952 0.54778 0.0
H161 H 0.49998 0.39241 0.58747 0.0
H162 H 0.54189 0.34919 0.44992 0.0
H163 H 0.49714 0.43678 0.50941 0.0
H164 H 0.10082 0.39066 0.17177 0.0
H165 H 0.33071 0.27714 0.15638 0.0
H166 H 0.04966 0.10023 0.23689 0.0
H167 H 0.20398 0.10856 0.19493 0.0
Eu168 Eu 0.48061 0.7303 0.72367 0.0
C169 C 0.96556 0.88273 0.64977 0.0
C170 C 0.10767 1.00864 0.75632 0.0
C171 C 0.19199 0.89477 0.68095 0.0
C172 C 0.95364 0.94524 0.69367 0.0
C173 C 0.07498 0.85693 0.64158 0.0
C174 C 0.21039 0.96585 0.73667 0.0
C175 C 0.933 0.71296 0.5965 0.0
N176 N 0.86558 0.82432 0.63222 0.0
C177 C 0.84781 0.73655 0.60668 0.0
C178 C 0.04347 0.77579 0.61024 0.0
Eu179 Eu 0.73589 0.88934 0.66036 0.0
N180 N 0.93879 0.0376 0.6848 0.0
C181 C 1.03067 0.18751 0.71957 0.0
C182 C 0.14923 0.12851 0.77503 0.0
C183 C 0.11537 0.21067 0.75839 0.0
H184 H 0.76741 0.68376 0.59294 0.0
H185 H 0.16135 0.29375 0.77079 0.0
H186 H 0.27981 0.97702 0.75452 0.0
H187 H 0.91548 0.64556 0.575 0.0
H188 H 0.03942 0.26345 0.71269 0.0
H189 H 0.23875 0.58986 0.56885 0.0
H190 H 0.2302 0.18367 0.77926 0.0
H191 H 0.41916 0.80175 0.8235 0.0
H192 H 0.3789 0.60469 0.62069 0.0
H193 H 0.25531 0.78438 0.86005 0.0
H194 H 0.2489 0.86815 0.67233 0.0
H195 H 0.08777 0.60615 0.59716 0.0
H196 H 0.98315 0.60848 0.66794 0.0
H197 H 0.10489 0.76218 0.59606 0.0
H198 H 0.98266 0.63121 0.74915 0.0
N199 N 0.32974 0.67116 0.67469 0.0
C200 C 0.3213 0.62668 0.63278 0.0
C201 C 0.15359 0.62275 0.61983 0.0
C202 C 0.15136 0.64653 0.66545 0.0
C203 C 0.2389 0.61236 0.60348 0.0
C204 C 0.24436 0.67643 0.69174 0.0
H205 H 0.08867 0.72609 0.81768 0.0
N206 N 0.34279 0.74979 0.75897 0.0
C207 C 0.25529 0.769 0.8248 0.0
C208 C 0.24822 0.70906 0.73593 0.0
C209 C 0.34755 0.77886 0.80336 0.0
C210 C 0.15867 0.72989 0.80123 0.0
C211 C 0.15333 0.69435 0.75706 0.0
O212 O 0.50822 0.67281 0.7892 0.0
O213 O 0.66694 0.82565 0.73468 0.0
O214 O 0.64869 0.67882 0.66373 0.0
O215 O 0.46525 0.59106 0.68479 0.0
O216 O 0.56599 0.86491 0.77334 0.0
O217 O 0.37881 0.56204 0.74757 0.0
O218 O 0.76959 0.8899 0.58679 0.0
O219 O 0.56186 0.76694 0.65391 0.0
O220 O 0.46386 0.87578 0.70462 0.0
O221 O 0.65046 0.99312 0.69001 0.0
O222 O 0.61364 0.915 0.62282 0.0
O223 O 0.74788 1.01721 0.61431 0.0
C224 C 0.66094 0.87552 0.77127 0.0
C225 C 0.34399 0.55291 0.82684 0.0
C226 C 0.29785 0.53552 0.90817 0.0
C227 C 0.37467 0.55669 0.87283 0.0
C228 C 0.19222 0.51093 0.89621 0.0
C229 C 0.23774 0.52833 0.81743 0.0
C230 C 0.16318 0.50716 0.85147 0.0
C231 C 0.54606 0.58282 0.66951 0.0
C232 C 0.42049 0.57961 0.78796 0.0
C233 C 0.056 0.64374 0.73342 0.0
C234 C 0.05721 0.63257 0.68662 0.0
C235 C 0.539 0.81458 0.62228 0.0
C236 C 0.84319 0.0603 0.54436 0.0
C237 C 0.81597 0.11819 0.51147 0.0
C238 C 0.90082 0.20597 0.4849 0.0
C239 C 1.00768 0.2427 0.4998 0.0
C240 C 0.95049 0.08416 0.54683 0.0
C241 C 0.03244 0.17354 0.52416 0.0
C242 C 0.54578 0.97474 0.69671 0.0
C243 C 0.76436 0.97786 0.57746 0.0
H244 H 0.45605 0.57309 0.88102 0.0
H245 H 0.12951 0.48981 0.92097 0.0
H246 H 0.21406 0.53127 0.7834 0.0
H247 H 0.08196 0.48673 0.84299 0.0
H248 H 0.731 0.08948 0.50482 0.0
H249 H 0.07424 0.32067 0.48981 0.0
H250 H 0.97074 0.04061 0.57086 0.0
H251 H 0.1165 0.19454 0.52861 0.0
Eu252 Eu 0.77208 0.47014 0.05696 0.0
C253 C 0.10551 0.95439 0.98384 0.0
C254 C 0.12082 0.09913 0.08957 0.0
C255 C 0.31956 0.1816 0.01448 0.0
C256 C 1.03066 0.94345 0.02749 0.0
C257 C 0.24066 0.06365 0.97555 0.0
C258 C 0.26656 0.20134 0.06987 0.0
C259 C 0.24215 0.92185 0.93016 0.0
N260 N 0.06357 0.85461 0.96606 0.0
C261 C 0.13331 0.8368 0.94033 0.0
C262 C 0.29001 0.03223 0.94404 0.0
Eu263 Eu 0.86852 0.7254 -0.0063 0.0
N264 N 0.92348 0.92841 0.01821 0.0
C265 C 0.86524 1.02125 0.05214 0.0
C266 C 0.0423 0.14121 0.10763 0.0
C267 C 0.92646 0.10691 0.09067 0.0
H268 H 0.10536 0.75655 0.92636 0.0
H269 H 0.88932 0.15327 0.10256 0.0
H270 H 0.32513 0.27078 0.08763 0.0
H271 H 0.29173 0.90443 0.90842 0.0
H272 H 0.79864 0.03064 0.04469 0.0
H273 H 0.67066 0.22795 0.90221 0.0
H274 H 0.06777 0.22232 0.11167 0.0
H275 H 0.63903 0.40895 0.15675 0.0
H276 H 0.79588 0.36843 0.95395 0.0
H277 H 0.49276 0.24504 0.1934 0.0
H278 H 0.40307 0.23842 0.0058 0.0
H279 H 0.50373 0.07676 0.93064 0.0
H280 H 0.39685 0.97221 0.00151 0.0
H281 H 0.36477 0.09374 0.92968 0.0
H282 H 0.37394 0.9719 0.0827 0.0
N283 N 0.68039 0.31915 0.00802 0.0
C284 C 0.71638 0.31072 0.96609 0.0
C285 C 0.55288 0.14268 0.95328 0.0
C286 C 0.52692 0.14052 -0.00109 0.0
C287 C 0.64839 0.22812 0.93685 0.0
C288 C 0.58993 0.23366 0.02514 0.0
H289 H 0.38491 0.07807 0.15118 0.0
N290 N 0.61487 0.33228 0.0923 0.0
C291 C 0.50823 0.24489 0.15817 0.0
C292 C 0.56122 0.23758 0.06933 0.0
C293 C 0.59049 0.33717 0.13667 0.0
C294 C 0.451 0.1481 0.13468 0.0
C295 C 0.48126 0.14265 0.09053 0.0
O296 O 0.85665 0.49763 0.12258 0.0
O297 O 0.86321 0.65653 0.06799 0.0
O298 O 0.99165 0.63797 -0.00295 0.0
O299 O 0.89588 0.45455 0.0181 0.0
O300 O 0.72261 0.55571 0.10644 0.0
O301 O 0.83883 0.36863 0.0809 0.0
O302 O 0.90213 0.75952 0.92018 0.0
O303 O 0.81679 0.55136 0.98719 0.0
O304 O 0.60996 0.45349 0.03783 0.0
O305 O 0.6794 0.64024 0.02348 0.0
O306 O 0.72064 0.60328 0.95612 0.0
O307 O 0.75283 0.7374 0.94753 0.0
C308 C 0.80709 0.65061 0.10447 0.0
C309 C 0.81278 0.33348 0.16014 0.0
C310 C 0.78376 0.28717 0.24145 0.0
C311 C 0.83943 0.3641 0.20616 0.0
C312 C 0.70289 0.18151 0.22945 0.0
C313 C 0.7314 0.22714 0.15067 0.0
C314 C 0.67794 0.1525 0.18468 0.0
C315 C 0.98496 0.53533 0.00282 0.0
C316 C 0.86257 0.41016 0.12132 0.0
C317 C 0.43472 0.04522 0.06695 0.0
C318 C 0.44681 0.04636 0.02014 0.0
C319 C 0.74631 0.52856 0.95557 0.0
C320 C 0.80525 0.8328 0.87754 0.0
C321 C 0.71956 0.80558 0.84495 0.0
C322 C 0.71671 0.89027 0.81825 0.0
C323 C 0.78744 0.99725 0.83289 0.0
C324 C 0.88922 0.93994 0.87958 0.0
C325 C 0.88166 0.02191 0.85701 0.0
C326 C 0.593 0.53551 0.03003 0.0
C327 C 0.80894 0.75413 0.91074 0.0
H328 H 0.90424 0.44553 0.21439 0.0
H329 H 0.66126 0.11874 0.25419 0.0
H330 H 0.70511 0.20341 0.11661 0.0
H331 H 0.61736 0.07123 0.17615 0.0
H332 H 0.66265 0.7206 0.83861 0.0
H333 H 0.77628 0.06394 0.82288 0.0
H334 H 0.95361 0.96016 0.90326 0.0
H335 H 0.94496 0.10594 0.86131 0.0
Eu336 Eu 0.32314 0.76134 0.39034 0.0
C337 C 0.17146 0.09429 0.3167 0.0
C338 C 0.04418 0.11014 0.42296 0.0
C339 C 0.15898 0.30856 0.34768 0.0
C340 C 0.10841 1.0197 0.3605 0.0
C341 C 0.19731 0.22949 0.30847 0.0
C342 C 0.08724 0.25574 0.40329 0.0
C343 C 0.34098 0.23123 0.26322 0.0
N344 N 0.22965 0.05255 0.29905 0.0
C345 C 0.31732 0.12243 0.27341 0.0
C346 C 0.27829 0.27898 0.27704 0.0
Eu347 Eu 0.1643 0.8577 0.32702 0.0
N348 N 1.01614 0.91251 0.35149 0.0
C349 C 0.86577 0.8544 0.38596 0.0
C350 C 0.92403 0.03177 0.44144 0.0
C351 C 0.84212 0.91582 0.42468 0.0
H352 H 0.36991 0.09467 0.25957 0.0
H353 H 0.75886 0.87872 0.43688 0.0
H354 H 0.07615 0.31409 0.42112 0.0
H355 H 0.4082 0.28095 0.24158 0.0
H356 H 0.78978 0.78748 0.37885 0.0
H357 H 0.46391 0.66034 0.2355 0.0
H358 H 0.86864 0.05745 0.44547 0.0
H359 H 0.2514 0.62817 0.49011 0.0
H360 H 0.44899 0.78552 0.28739 0.0
H361 H 0.26912 0.48192 0.52667 0.0
H362 H 0.18561 0.39208 0.33903 0.0
H363 H 0.44773 0.49305 0.26375 0.0
H364 H 0.44539 0.38599 0.33454 0.0
H365 H 0.29182 0.35394 0.2628 0.0
H366 H 0.42295 0.36294 0.41575 0.0
N367 N 0.38245 0.66976 0.34134 0.0
C368 C 0.427 0.70591 0.29945 0.0
C369 C 0.43108 0.54222 0.28644 0.0
C370 C 0.40728 0.51613 0.33207 0.0
C371 C 0.44141 0.63791 0.27012 0.0
C372 C 0.37727 0.57914 0.35837 0.0
H373 H 0.32785 0.37385 0.48431 0.0
N374 N 0.30369 0.604 0.42559 0.0
C375 C 0.28453 0.49729 0.49142 0.0
C376 C 0.34461 0.55031 0.40256 0.0
C377 C 0.2745 0.57958 0.46998 0.0
C378 C 0.32392 0.43998 0.46786 0.0
C379 C 0.3595 0.47024 0.42369 0.0
O380 O 0.38019 0.84588 0.45598 0.0
O381 O 0.22778 0.85234 0.40133 0.0
O382 O 0.37484 0.98094 0.33036 0.0
O383 O 0.46259 0.88535 0.35157 0.0
O384 O 0.1883 0.71198 0.43993 0.0
O385 O 0.49138 0.82803 0.41428 0.0
O386 O 0.16381 0.89099 0.25346 0.0
O387 O 0.28674 0.8061 0.32057 0.0
O388 O 0.17771 0.59917 0.37124 0.0
O389 O 0.06041 0.66851 0.35673 0.0
O390 O 0.13852 0.70975 0.28946 0.0
O391 O 0.03655 0.74186 0.28093 0.0
C392 C 0.17772 0.79635 0.43789 0.0
C393 C 0.50035 0.80184 0.49352 0.0
C394 C 0.51764 0.77273 0.57481 0.0
C395 C 0.49643 0.82847 0.53954 0.0
C396 C 0.54235 0.69181 0.56277 0.0
C397 C 0.52513 0.72035 0.48401 0.0
C398 C 0.54629 0.66683 0.51799 0.0
C399 C 0.47082 0.97433 0.33621 0.0
C400 C 0.47356 0.85173 0.45471 0.0
C401 C 0.41029 0.42368 0.40004 0.0
C402 C 0.42128 0.43594 0.35323 0.0
C403 C 0.23896 0.73563 0.28896 0.0
C404 C 0.99355 0.79405 0.21094 0.0
C405 C 0.93562 0.70875 0.17814 0.0
C406 C 0.84787 0.70571 0.15154 0.0
C407 C 0.81111 0.77588 0.16637 0.0
C408 C 0.96977 0.87756 0.21327 0.0
C409 C 0.88028 0.86994 0.19064 0.0
C410 C 0.07876 0.58217 0.36338 0.0
C411 C 0.07594 0.79778 0.2441 0.0
H412 H 0.47991 0.89334 0.5478 0.0
H413 H 0.5635 0.65016 0.58749 0.0
H414 H 0.52234 0.69397 0.44995 0.0
H415 H 0.56685 0.60617 0.50942 0.0
H416 H 0.96425 0.65237 0.17158 0.0
H417 H 0.73314 0.7644 0.15637 0.0
H418 H 1.01344 0.94158 0.23717 0.0
H419 H 0.85926 0.93301 0.19503 0.0
Eu420 Eu 0.58296 0.31205 0.72364 0.0
C421 C 0.09915 0.16213 0.65091 0.0
C422 C 0.95267 0.03077 0.75616 0.0
C423 C 0.8714 0.14831 0.68116 0.0
C424 C 0.10946 0.09748 0.69444 0.0
C425 C 0.98999 0.18804 0.6425 0.0
C426 C 0.85078 0.07468 0.73637 0.0
C427 C 0.13171 0.33077 0.59687 0.0
N428 N 0.19884 0.21963 0.63299 0.0
C429 C 0.21667 0.30692 0.60708 0.0
C430 C 1.02138 0.26849 0.61084 0.0
Eu431 Eu 0.32776 0.15342 0.66042 0.0
N432 N 0.12465 1.00548 0.68496 0.0
C433 C 1.03121 0.85376 0.71844 0.0
C434 C 0.91029 0.90979 0.77387 0.0
C435 C 0.94491 0.82862 0.75677 0.0
H436 H 0.29686 0.35892 0.59298 0.0
H437 H 0.89829 0.74486 0.76837 0.0
H438 H 0.78129 0.06395 0.75408 0.0
H439 H 0.14915 0.39754 0.57499 0.0
H440 H 1.02149 0.77774 0.71069 0.0
H441 H 0.82473 0.453 0.56876 0.0
H442 H 0.82909 0.85384 0.77774 0.0
H443 H 0.64426 0.23972 0.82326 0.0
H444 H 0.68447 0.43783 0.62065 0.0
H445 H 0.80841 0.25789 0.85984 0.0
H446 H 0.81465 0.17503 0.67242 0.0
H447 H 0.97608 0.43735 0.59701 0.0
H448 H 0.08091 0.43516 0.66787 0.0
H449 H 0.9599 0.28168 0.59642 0.0
H450 H 0.08159 0.41332 0.74903 0.0
N451 N 0.73388 0.37152 0.6746 0.0
C452 C 0.7422 0.416 0.6327 0.0
C453 C 0.91024 0.4206 0.61972 0.0
C454 C 0.91257 0.39686 0.66535 0.0
C455 C 0.82471 0.43061 0.60338 0.0
C456 C 0.81947 0.36667 0.69164 0.0
H457 H 0.97555 0.31779 0.81757 0.0
N458 N 0.72096 0.29275 0.75882 0.0
C459 C 0.80856 0.27365 0.82463 0.0
C460 C 0.81567 0.33407 0.73582 0.0
C461 C 0.71613 0.26333 0.80317 0.0
C462 C 0.90542 0.31364 0.80112 0.0
C463 C 0.91074 0.34937 0.75697 0.0
O464 O 0.55584 0.3687 0.78944 0.0
O465 O 0.39651 0.21695 0.73469 0.0
O466 O 0.41533 0.36399 0.66373 0.0
O467 O 0.59862 0.45169 0.68496 0.0
O468 O 0.49724 0.17668 0.77298 0.0
O469 O 0.68429 0.48032 0.74763 0.0
O470 O 0.29366 0.15315 0.58693 0.0
O471 O 0.5018 0.27572 0.65389 0.0
O472 O 0.59956 0.16659 0.70442 0.0
O473 O 0.41273 0.04932 0.69024 0.0
O474 O 0.44978 0.12747 0.62279 0.0
O475 O 0.31575 0.02585 0.61416 0.0
C476 C 0.40248 0.16661 0.7711 0.0
C477 C 0.71994 0.48941 0.82683 0.0
C478 C 0.7667 0.50709 0.90809 0.0
C479 C 0.68957 0.48561 0.87288 0.0
C480 C 0.87232 0.5319 0.89598 0.0
C481 C 0.82625 0.51442 0.81723 0.0
C482 C 0.90108 0.53577 0.85116 0.0
C483 C 0.51793 0.45995 0.66956 0.0
C484 C 0.64301 0.46231 0.78811 0.0
C485 C 1.00814 0.40051 0.73334 0.0
C486 C 1.0068 0.41099 0.68652 0.0
C487 C 0.5244 0.2279 0.62227 0.0
C488 C 0.22045 0.98319 0.54418 0.0
C489 C 0.24771 0.92477 0.51158 0.0
C490 C 0.16303 0.83727 0.48488 0.0
C491 C 0.05606 0.80095 0.49957 0.0
C492 C 0.11334 0.96011 0.5462 0.0
C493 C 1.03136 0.87051 0.52368 0.0
C494 C 0.51748 0.06761 0.69669 0.0
C495 C 0.29906 0.06538 0.57741 0.0
H496 H 0.60816 0.46896 0.8812 0.0
H497 H 0.93522 0.5532 0.92067 0.0
H498 H 0.8498 0.51181 0.78313 0.0
H499 H 0.9823 0.55646 0.84252 0.0
H500 H 0.3327 0.95288 0.50522 0.0
H501 H 0.98943 0.72306 0.4896 0.0
H502 H 0.09314 1.00436 0.56985 0.0
H503 H 0.94733 0.84977 0.528 0.0
loop_
_geom_bond_atom_site_label_1
_geom_bond_atom_site_label_2
_geom_bond_distance
_geom_bond_site_symmetry_2
_ccdc_geom_bond_type
Eu0 N31 2.657 . S
Eu0 N38 2.609 . S
Eu0 O44 2.558 . S
Eu0 O45 2.612 . S
Eu0 O47 2.339 . S
Eu0 O48 2.563 . S
Eu0 O49 2.419 . S
Eu0 O51 2.380 1_554 S
Eu0 O52 2.432 . S
Eu0 C64 2.848 . S
C1 C4 1.429 1_655 S
C1 C5 1.411 1_545 S
C1 N8 1.377 . S
C2 C4 1.420 1_665 S
C2 C6 1.423 . S
C2 C14 1.392 1_655 S
C3 C5 1.420 . S
C3 C6 1.351 . S
C3 H26 0.931 . S
C4 C1 1.429 1_455 S
C4 C2 1.420 1_445 S
C4 N12 1.362 . S
C5 C1 1.411 1_565 S
C5 C3 1.420 . S
C5 C10 1.395 . S
C6 C2 1.423 . S
C6 C3 1.351 . S
C6 H18 0.930 . S
C7 C9 1.400 . S
C7 C10 1.386 1_546 S
C7 H19 0.930 . S
N8 C1 1.377 . S
N8 C9 1.321 1_554 S
N8 Eu11 2.609 1_654 S
C9 C7 1.400 . S
C9 N8 1.321 1_556 S
C9 H16 0.930 . S
C10 C5 1.395 . S
C10 C7 1.386 1_564 S
C10 H29 0.931 . S
Eu11 N8 2.609 1_456 S
Eu11 N12 2.657 1_556 S
Eu11 O45 2.380 1_556 S
Eu11 O46 2.432 1_556 S
Eu11 O50 2.558 . S
Eu11 O51 2.612 . S
Eu11 O53 2.339 1_556 S
Eu11 O54 2.563 . S
Eu11 O55 2.419 . S
Eu11 C75 2.848 . S
N12 C4 1.362 . S
N12 Eu11 2.657 1_554 S
N12 C13 1.334 . S
C13 N12 1.334 . S
C13 C15 1.413 . S
C13 H20 0.929 . S
C14 C2 1.392 1_455 S
C14 C15 1.367 1_565 S
C14 H22 0.930 . S
C15 C13 1.413 . S
C15 C14 1.367 1_545 S
C15 H17 0.930 . S
H16 C9 0.930 . S
H17 C15 0.930 . S
H18 C6 0.930 . S
H19 C7 0.930 . S
H20 C13 0.929 . S
H21 C35 0.930 . S
H22 C14 0.930 . S
H23 C41 0.930 . S
H24 C32 0.927 1_554 S
H25 C39 0.930 . S
H26 C3 0.931 . S
H27 C33 0.930 . S
H28 C66 0.930 1_545 S
H29 C10 0.931 . S
H30 C65 0.931 1_545 S
N31 Eu0 2.657 . S
N31 C32 1.324 1_554 S
N31 C36 1.362 . S
C32 H24 0.927 1_556 S
C32 N31 1.324 1_556 S
C32 C35 1.425 . S
C33 H27 0.930 . S
C33 C34 1.392 . S
C33 C35 1.367 . S
C34 C33 1.392 . S
C34 C36 1.420 1_556 S
C34 C66 1.423 . S
C35 H21 0.930 . S
C35 C32 1.425 . S
C35 C33 1.367 . S
C36 N31 1.362 . S
C36 C34 1.420 1_554 S
C36 C40 1.429 . S
H37 C42 0.930 . S
N38 Eu0 2.609 . S
N38 C40 1.377 . S
N38 C41 1.321 . S
C39 H25 0.930 . S
C39 C41 1.400 . S
C39 C42 1.386 . S
C40 C36 1.429 . S
C40 N38 1.377 . S
C40 C43 1.411 . S
C41 H23 0.930 . S
C41 N38 1.321 . S
C41 C39 1.400 . S
C42 H37 0.930 . S
C42 C39 1.386 . S
C42 C43 1.395 . S
C43 C40 1.411 . S
C43 C42 1.395 . S
C43 C65 1.420 . S
O44 Eu0 2.558 . S
O44 C64 1.257 . S
O45 Eu0 2.612 . S
O45 Eu11 2.380 1_554 S
O45 C56 1.276 . S
O46 Eu11 2.432 1_554 S
O46 C63 1.271 . S
O47 Eu0 2.339 . S
O47 C63 1.254 . S
O48 Eu0 2.563 . S
O48 C56 1.235 . S
O49 Eu0 2.419 . S
O49 C64 1.249 . S
O50 Eu11 2.558 . S
O50 C75 1.257 . S
O51 Eu0 2.380 1_556 S
O51 Eu11 2.612 . S
O51 C67 1.276 . S
O52 Eu0 2.432 . S
O52 C74 1.264 . S
O53 Eu11 2.339 1_554 S
O53 C74 1.254 . S
O54 Eu11 2.563 . S
O54 C67 1.235 . S
O55 Eu11 2.419 . S
O55 C75 1.249 . S
C56 O45 1.276 . S
C56 O48 1.235 . S
C57 C59 1.393 . S
C57 C61 1.395 . S
C57 C64 1.492 . S
C58 C59 1.392 . S
C58 C60 1.386 . S
C59 C57 1.393 . S
C59 C58 1.392 . S
C59 H76 0.930 . S
C60 C58 1.386 . S
C60 C62 1.395 . S
C60 H77 0.930 . S
C61 C57 1.395 . S
C61 C62 1.379 . S
C61 H78 0.930 . S
C62 C60 1.395 . S
C62 C61 1.379 . S
C62 H79 0.930 . S
C63 O46 1.271 . S
C63 O47 1.254 . S
C64 Eu0 2.848 . S
C64 O44 1.257 . S
C64 O49 1.249 . S
C64 C57 1.492 . S
C65 H30 0.931 1_565 S
C65 C43 1.420 . S
C65 C66 1.351 1_554 S
C66 H28 0.930 1_565 S
C66 C34 1.423 . S
C66 C65 1.351 1_556 S
C67 O51 1.276 . S
C67 O54 1.235 . S
C68 C69 1.393 . S
C68 C72 1.395 . S
C68 C75 1.492 . S
C69 C68 1.393 . S
C69 C70 1.392 . S
C69 H80 0.930 . S
C70 C69 1.392 . S
C70 C71 1.386 . S
C71 C70 1.386 . S
C71 C73 1.395 . S
C71 H81 0.930 1_545 S
C72 C68 1.395 . S
C72 C73 1.379 . S
C72 H82 0.930 1_455 S
C73 C71 1.395 . S
C73 C72 1.379 . S
C73 H83 0.930 1_445 S
C74 O52 1.264 . S
C74 O53 1.254 . S
C75 Eu11 2.848 . S
C75 O50 1.257 . S
C75 O55 1.249 . S
C75 C68 1.492 . S
H76 C59 0.930 . S
H77 C60 0.930 . S
H78 C61 0.930 . S
H79 C62 0.930 . S
H80 C69 0.930 . S
H81 C71 0.930 1_565 S
H82 C72 0.930 1_655 S
H83 C73 0.930 1_665 S
Eu84 N115 2.657 . S
Eu84 N122 2.609 . S
Eu84 O128 2.558 . S
Eu84 O129 2.612 . S
Eu84 O131 2.339 . S
Eu84 O132 2.563 . S
Eu84 O133 2.419 . S
Eu84 O135 2.380 . S
Eu84 O136 2.432 . S
Eu84 C148 2.848 . S
C85 C88 1.429 1_565 S
C85 C89 1.411 . S
C85 N92 1.377 . S
C86 C88 1.420 1_465 S
C86 C90 1.423 . S
C86 C98 1.392 1_565 S
C87 C89 1.420 . S
C87 C90 1.351 1_655 S
C87 H110 0.931 . S
C88 C85 1.429 1_545 S
C88 C86 1.420 1_645 S
C88 N96 1.362 . S
C89 C85 1.411 . S
C89 C87 1.420 . S
C89 C94 1.395 . S
C90 C86 1.423 . S
C90 C87 1.351 1_455 S
C90 H102 0.930 . S
C91 C93 1.400 . S
C91 C94 1.386 . S
C91 H103 0.930 . S
N92 C85 1.377 . S
N92 C93 1.321 . S
N92 Eu95 2.609 1_565 S
C93 C91 1.400 . S
C93 N92 1.321 . S
C93 H100 0.930 . S
C94 C89 1.395 . S
C94 C91 1.386 . S
C94 H113 0.930 . S
Eu95 N92 2.609 1_545 S
Eu95 N96 2.657 . S
Eu95 O129 2.380 . S
Eu95 O130 2.432 . S
Eu95 O134 2.558 . S
Eu95 O135 2.612 . S
Eu95 O137 2.339 . S
Eu95 O138 2.563 . S
Eu95 O139 2.415 1_655 S
Eu95 C159 2.848 . S
N96 C88 1.362 . S
N96 Eu95 2.657 . S
N96 C97 1.334 1_655 S
C97 N96 1.334 1_455 S
C97 C99 1.413 . S
C97 H104 0.929 . S
C98 C86 1.392 1_545 S
C98 C99 1.367 . S
C98 H106 0.930 . S
C99 C97 1.413 . S
C99 C98 1.367 . S
C99 H101 0.930 . S
H100 C93 0.930 . S
H101 C99 0.930 . S
H102 C90 0.930 . S
H103 C91 0.930 . S
H104 C97 0.929 . S
H105 C119 0.930 . S
H106 C98 0.930 . S
H107 C125 0.930 . S
H108 C116 0.929 . S
H109 C123 0.930 . S
H110 C87 0.931 . S
H111 C117 0.930 . S
H112 C150 0.930 . S
H113 C94 0.930 . S
H114 C149 0.931 . S
N115 Eu84 2.657 . S
N115 C116 1.334 . S
N115 C120 1.362 . S
C116 H108 0.929 . S
C116 N115 1.334 . S
C116 C119 1.413 . S
C117 H111 0.930 . S
C117 C118 1.392 . S
C117 C119 1.367 . S
C118 C117 1.392 . S
C118 C120 1.420 . S
C118 C150 1.423 . S
C119 H105 0.930 . S
C119 C116 1.413 . S
C119 C117 1.367 . S
C120 N115 1.362 . S
C120 C118 1.420 . S
C120 C124 1.429 . S
H121 C126 0.930 . S
N122 Eu84 2.609 . S
N122 C124 1.377 . S
N122 C125 1.321 . S
C123 H109 0.930 . S
C123 C125 1.400 . S
C123 C126 1.386 . S
C124 C120 1.429 . S
C124 N122 1.377 . S
C124 C127 1.411 . S
C125 H107 0.930 . S
C125 N122 1.321 . S
C125 C123 1.400 . S
C126 H121 0.930 . S
C126 C123 1.386 . S
C126 C127 1.395 . S
C127 C124 1.411 . S
C127 C126 1.395 . S
C127 C149 1.420 . S
O128 Eu84 2.558 . S
O128 C148 1.257 . S
O129 Eu84 2.612 . S
O129 Eu95 2.380 . S
O129 C140 1.276 . S
O130 Eu95 2.432 . S
O130 C147 1.264 . S
O131 Eu84 2.339 . S
O131 C147 1.254 . S
O132 Eu84 2.563 . S
O132 C140 1.235 . S
O133 Eu84 2.419 . S
O133 C148 1.249 . S
O134 Eu95 2.558 . S
O134 C159 1.257 . S
O135 Eu84 2.380 . S
O135 Eu95 2.612 . S
O135 C151 1.276 . S
O136 Eu84 2.432 . S
O136 C158 1.264 . S
O137 Eu95 2.339 . S
O137 C158 1.254 . S
O138 Eu95 2.563 . S
O138 C151 1.235 . S
O139 Eu95 2.415 1_455 S
O139 C159 1.248 1_455 S
C140 O129 1.276 . S
C140 O132 1.235 . S
C141 C143 1.393 . S
C141 C145 1.395 . S
C141 C148 1.492 . S
C142 C143 1.392 . S
C142 C144 1.386 . S
C143 C141 1.393 . S
C143 C142 1.392 . S
C143 H160 0.930 . S
C144 C142 1.386 . S
C144 C146 1.395 . S
C144 H161 0.930 . S
C145 C141 1.395 . S
C145 C146 1.379 . S
C145 H162 0.930 . S
C146 C144 1.395 . S
C146 C145 1.379 . S
C146 H163 0.930 . S
C147 O130 1.264 . S
C147 O131 1.254 . S
C148 Eu84 2.848 . S
C148 O128 1.257 . S
C148 O133 1.249 . S
C148 C141 1.492 . S
C149 H114 0.931 . S
C149 C127 1.420 . S
C149 C150 1.351 . S
C150 H112 0.930 . S
C150 C118 1.423 . S
C150 C149 1.351 . S
C151 O135 1.276 . S
C151 O138 1.235 . S
C152 C153 1.393 . S
C152 C156 1.395 1_455 S
C152 C159 1.492 1_455 S
C153 C152 1.393 . S
C153 C154 1.392 . S
C153 H164 0.930 . S
C154 C153 1.392 . S
C154 C155 1.386 . S
C155 C154 1.386 . S
C155 C157 1.395 . S
C155 H165 0.930 . S
C156 C152 1.395 1_655 S
C156 C157 1.379 1_655 S
C156 H166 0.930 1_545 S
C157 C155 1.395 . S
C157 C156 1.379 1_455 S
C157 H167 0.930 1_545 S
C158 O136 1.264 . S
C158 O137 1.254 . S
C159 Eu95 2.848 . S
C159 O134 1.257 . S
C159 O139 1.248 1_655 S
C159 C152 1.492 1_655 S
H160 C143 0.930 . S
H161 C144 0.930 . S
H162 C145 0.930 . S
H163 C146 0.930 . S
H164 C153 0.930 . S
H165 C155 0.930 . S
H166 C156 0.930 1_565 S
H167 C157 0.930 1_565 S
Eu168 N199 2.657 . S
Eu168 N206 2.609 . S
Eu168 O212 2.558 . S
Eu168 O213 2.612 . S
Eu168 O215 2.339 . S
Eu168 O216 2.563 . S
Eu168 O217 2.419 . S
Eu168 O219 2.380 . S
Eu168 O220 2.432 . S
Eu168 C232 2.848 . S
C169 C172 1.429 . S
C169 C173 1.411 1_655 S
C169 N176 1.377 . S
C170 C172 1.420 1_445 S
C170 C174 1.423 . S
C170 C182 1.392 . S
C171 C173 1.420 . S
C171 C174 1.351 1_565 S
C171 H194 0.931 . S
C172 C169 1.429 . S
C172 C170 1.420 1_665 S
C172 N180 1.362 . S
C173 C169 1.411 1_455 S
C173 C171 1.420 . S
C173 C178 1.395 . S
C174 C170 1.423 . S
C174 C171 1.351 1_545 S
C174 H186 0.930 . S
C175 C177 1.400 . S
C175 C178 1.386 1_655 S
C175 H187 0.930 . S
N176 C169 1.377 . S
N176 C177 1.321 . S
N176 Eu179 2.609 . S
C177 C175 1.400 . S
C177 N176 1.321 . S
C177 H184 0.930 . S
C178 C173 1.395 . S
C178 C175 1.386 1_455 S
C178 H197 0.930 . S
Eu179 N176 2.609 . S
Eu179 N180 2.657 . S
Eu179 O213 2.380 . S
Eu179 O214 2.432 . S
Eu179 O218 2.558 . S
Eu179 O219 2.612 . S
Eu179 O221 2.339 . S
Eu179 O222 2.563 . S
Eu179 O223 2.416 1_565 S
Eu179 C243 2.848 . S
N180 C172 1.362 . S
N180 Eu179 2.657 . S
N180 C181 1.334 1_565 S
C181 N180 1.334 1_545 S
C181 C183 1.413 . S
C181 H188 0.929 . S
C182 C170 1.392 . S
C182 C183 1.367 1_455 S
C182 H190 0.930 . S
C183 C181 1.413 . S
C183 C182 1.367 1_655 S
C183 H185 0.930 . S
H184 C177 0.930 . S
H185 C183 0.930 . S
H186 C174 0.930 . S
H187 C175 0.930 . S
H188 C181 0.929 . S
H189 C203 0.930 . S
H190 C182 0.930 . S
H191 C209 0.930 . S
H192 C200 0.929 . S
H193 C207 0.930 . S
H194 C171 0.931 . S
H195 C201 0.930 . S
H196 C234 0.930 1_655 S
H197 C178 0.930 . S
H198 C233 0.931 1_655 S
N199 Eu168 2.657 . S
N199 C200 1.334 . S
N199 C204 1.362 . S
C200 H192 0.929 . S
C200 N199 1.334 . S
C200 C203 1.413 . S
C201 H195 0.930 . S
C201 C202 1.392 . S
C201 C203 1.367 . S
C202 C201 1.392 . S
C202 C204 1.420 . S
C202 C234 1.423 . S
C203 H189 0.930 . S
C203 C200 1.413 . S
C203 C201 1.367 . S
C204 N199 1.362 . S
C204 C202 1.420 . S
C204 C208 1.429 . S
H205 C210 0.930 . S
N206 Eu168 2.609 . S
N206 C208 1.377 . S
N206 C209 1.321 . S
C207 H193 0.930 . S
C207 C209 1.400 . S
C207 C210 1.386 . S
C208 C204 1.429 . S
C208 N206 1.377 . S
C208 C211 1.411 . S
C209 H191 0.930 . S
C209 N206 1.321 . S
C209 C207 1.400 . S
C210 H205 0.930 . S
C210 C207 1.386 . S
C210 C211 1.395 . S
C211 C208 1.411 . S
C211 C210 1.395 . S
C211 C233 1.420 . S
O212 Eu168 2.558 . S
O212 C232 1.257 . S
O213 Eu168 2.612 . S
O213 Eu179 2.380 . S
O213 C224 1.276 . S
O214 Eu179 2.432 . S
O214 C231 1.264 . S
O215 Eu168 2.339 . S
O215 C231 1.254 . S
O216 Eu168 2.563 . S
O216 C224 1.235 . S
O217 Eu168 2.419 . S
O217 C232 1.249 . S
O218 Eu179 2.558 . S
O218 C243 1.257 . S
O219 Eu168 2.380 . S
O219 Eu179 2.612 . S
O219 C235 1.276 . S
O220 Eu168 2.432 . S
O220 C242 1.264 . S
O221 Eu179 2.339 . S
O221 C242 1.254 . S
O222 Eu179 2.563 . S
O222 C235 1.235 . S
O223 Eu179 2.416 1_545 S
O223 C243 1.245 1_545 S
C224 O213 1.276 . S
C224 O216 1.235 . S
C225 C227 1.393 . S
C225 C229 1.395 . S
C225 C232 1.492 . S
C226 C227 1.392 . S
C226 C228 1.386 . S
C227 C225 1.393 . S
C227 C226 1.392 . S
C227 H244 0.930 . S
C228 C226 1.386 . S
C228 C230 1.395 . S
C228 H245 0.930 . S
C229 C225 1.395 . S
C229 C230 1.379 . S
C229 H246 0.930 . S
C230 C228 1.395 . S
C230 C229 1.379 . S
C230 H247 0.930 . S
C231 O214 1.264 . S
C231 O215 1.254 . S
C232 Eu168 2.848 . S
C232 O212 1.257 . S
C232 O217 1.249 . S
C232 C225 1.492 . S
C233 H198 0.931 1_455 S
C233 C211 1.420 . S
C233 C234 1.351 . S
C234 H196 0.930 1_455 S
C234 C202 1.423 . S
C234 C233 1.351 . S
C235 O219 1.276 . S
C235 O222 1.235 . S
C236 C237 1.393 . S
C236 C240 1.395 1_545 S
C236 C243 1.492 1_545 S
C237 C236 1.393 . S
C237 C238 1.392 . S
C237 H248 0.930 . S
C238 C237 1.392 . S
C238 C239 1.386 . S
C239 C238 1.386 . S
C239 C241 1.395 . S
C239 H249 0.930 1_655 S
C240 C236 1.395 1_565 S
C240 C241 1.379 1_565 S
C240 H250 0.930 . S
C241 C239 1.395 . S
C241 C240 1.379 1_545 S
C241 H251 0.930 1_655 S
C242 O220 1.264 . S
C242 O221 1.254 . S
C243 Eu179 2.848 . S
C243 O218 1.257 . S
C243 O223 1.245 1_565 S
C243 C236 1.492 1_565 S
H244 C227 0.930 . S
H245 C228 0.930 . S
H246 C229 0.930 . S
H247 C230 0.930 . S
H248 C237 0.930 . S
H249 C239 0.930 1_455 S
H250 C240 0.930 . S
H251 C241 0.930 1_455 S
Eu252 N283 2.657 . S
Eu252 N290 2.609 . S
Eu252 O296 2.558 . S
Eu252 O297 2.612 . S
Eu252 O299 2.339 . S
Eu252 O300 2.563 . S
Eu252 O301 2.419 . S
Eu252 O303 2.380 1_554 S
Eu252 O304 2.432 . S
Eu252 C316 2.848 . S
C253 C256 1.429 1_455 S
C253 C257 1.411 1_565 S
C253 N260 1.377 . S
C254 C256 1.420 1_445 S
C254 C258 1.423 . S
C254 C266 1.392 1_455 S
C255 C257 1.420 . S
C255 C258 1.351 . S
C255 H278 0.931 . S
C256 C253 1.429 1_655 S
C256 C254 1.420 1_665 S
C256 N264 1.362 . S
C257 C253 1.411 1_545 S
C257 C255 1.420 . S
C257 C262 1.395 . S
C258 C254 1.423 . S
C258 C255 1.351 . S
C258 H270 0.930 . S
C259 C261 1.400 . S
C259 C262 1.386 1_566 S
C259 H271 0.930 . S
N260 C253 1.377 . S
N260 C261 1.321 1_554 S
N260 Eu263 2.609 1_454 S
C261 C259 1.400 . S
C261 N260 1.321 1_556 S
C261 H268 0.930 . S
C262 C257 1.395 . S
C262 C259 1.386 1_544 S
C262 H281 0.931 . S
Eu263 N260 2.609 1_656 S
Eu263 N264 2.657 1_556 S
Eu263 O297 2.380 1_556 S
Eu263 O298 2.432 1_556 S
Eu263 O302 2.558 . S
Eu263 O303 2.612 . S
Eu263 O305 2.339 1_556 S
Eu263 O306 2.563 . S
Eu263 O307 2.419 . S
Eu263 C327 2.848 . S
N264 C256 1.362 . S
N264 Eu263 2.657 1_554 S
N264 C265 1.334 . S
C265 N264 1.334 . S
C265 C267 1.413 . S
C265 H272 0.929 . S
C266 C254 1.392 1_655 S
C266 C267 1.367 1_545 S
C266 H274 0.930 . S
C267 C265 1.413 . S
C267 C266 1.367 1_565 S
C267 H269 0.930 . S
H268 C261 0.930 . S
H269 C267 0.930 . S
H270 C258 0.930 . S
H271 C259 0.930 . S
H272 C265 0.929 . S
H273 C287 0.930 . S
H274 C266 0.930 . S
H275 C293 0.930 . S
H276 C284 0.927 1_554 S
H277 C291 0.930 . S
H278 C255 0.931 . S
H279 C285 0.930 . S
H280 C318 0.930 1_565 S
H281 C262 0.931 . S
H282 C317 0.931 1_565 S
N283 Eu252 2.657 . S
N283 C284 1.324 1_554 S
N283 C288 1.362 . S
C284 H276 0.927 1_556 S
C284 N283 1.324 1_556 S
C284 C287 1.425 . S
C285 H279 0.930 . S
C285 C286 1.392 . S
C285 C287 1.367 . S
C286 C285 1.392 . S
C286 C288 1.420 1_556 S
C286 C318 1.423 . S
C287 H273 0.930 . S
C287 C284 1.425 . S
C287 C285 1.367 . S
C288 N283 1.362 . S
C288 C286 1.420 1_554 S
C288 C292 1.429 . S
H289 C294 0.930 . S
N290 Eu252 2.609 . S
N290 C292 1.377 . S
N290 C293 1.321 . S
C291 H277 0.930 . S
C291 C293 1.400 . S
C291 C294 1.386 . S
C292 C288 1.429 . S
C292 N290 1.377 . S
C292 C295 1.411 . S
C293 H275 0.930 . S
C293 N290 1.321 . S
C293 C291 1.400 . S
C294 H289 0.930 . S
C294 C291 1.386 . S
C294 C295 1.395 . S
C295 C292 1.411 . S
C295 C294 1.395 . S
C295 C317 1.420 . S
O296 Eu252 2.558 . S
O296 C316 1.257 . S
O297 Eu252 2.612 . S
O297 Eu263 2.380 1_554 S
O297 C308 1.276 . S
O298 Eu263 2.432 1_554 S
O298 C315 1.270 . S
O299 Eu252 2.339 . S
O299 C315 1.254 . S
O300 Eu252 2.563 . S
O300 C308 1.235 . S
O301 Eu252 2.419 . S
O301 C316 1.249 . S
O302 Eu263 2.558 . S
O302 C327 1.257 . S
O303 Eu252 2.380 1_556 S
O303 Eu263 2.612 . S
O303 C319 1.276 . S
O304 Eu252 2.432 . S
O304 C326 1.264 . S
O305 Eu263 2.339 1_554 S
O305 C326 1.254 . S
O306 Eu263 2.563 . S
O306 C319 1.235 . S
O307 Eu263 2.419 . S
O307 C327 1.249 . S
C308 O297 1.276 . S
C308 O300 1.235 . S
C309 C311 1.393 . S
C309 C313 1.395 . S
C309 C316 1.492 . S
C310 C311 1.392 . S
C310 C312 1.386 . S
C311 C309 1.393 . S
C311 C310 1.392 . S
C311 H328 0.930 . S
C312 C310 1.386 . S
C312 C314 1.395 . S
C312 H329 0.930 . S
C313 C309 1.395 . S
C313 C314 1.379 . S
C313 H330 0.930 . S
C314 C312 1.395 . S
C314 C313 1.379 . S
C314 H331 0.930 . S
C315 O298 1.270 . S
C315 O299 1.254 . S
C316 Eu252 2.848 . S
C316 O296 1.257 . S
C316 O301 1.249 . S
C316 C309 1.492 . S
C317 H282 0.931 1_545 S
C317 C295 1.420 . S
C317 C318 1.351 1_554 S
C318 H280 0.930 1_545 S
C318 C286 1.423 . S
C318 C317 1.351 1_556 S
C319 O303 1.276 . S
C319 O306 1.235 . S
C320 C321 1.393 . S
C320 C324 1.395 . S
C320 C327 1.492 . S
C321 C320 1.393 . S
C321 C322 1.392 . S
C321 H332 0.930 . S
C322 C321 1.392 . S
C322 C323 1.386 . S
C323 C322 1.386 . S
C323 C325 1.395 . S
C323 H333 0.930 1_565 S
C324 C320 1.395 . S
C324 C325 1.379 . S
C324 H334 0.930 1_655 S
C325 C323 1.395 . S
C325 C324 1.379 . S
C325 H335 0.930 1_665 S
C326 O304 1.264 . S
C326 O305 1.254 . S
C327 Eu263 2.848 . S
C327 O302 1.257 . S
C327 O307 1.249 . S
C327 C320 1.492 . S
H328 C311 0.930 . S
H329 C312 0.930 . S
H330 C313 0.930 . S
H331 C314 0.930 . S
H332 C321 0.930 . S
H333 C323 0.930 1_545 S
H334 C324 0.930 1_455 S
H335 C325 0.930 1_445 S
Eu336 N367 2.657 . S
Eu336 N374 2.609 . S
Eu336 O380 2.558 . S
Eu336 O381 2.612 . S
Eu336 O383 2.339 . S
Eu336 O384 2.563 . S
Eu336 O385 2.419 . S
Eu336 O387 2.380 . S
Eu336 O388 2.432 . S
Eu336 C400 2.848 . S
C337 C340 1.429 1_545 S
C337 C341 1.411 . S
C337 N344 1.377 . S
C338 C340 1.420 1_645 S
C338 C342 1.423 . S
C338 C350 1.392 1_545 S
C339 C341 1.420 . S
C339 C342 1.351 1_455 S
C339 H362 0.931 . S
C340 C337 1.429 1_565 S
C340 C338 1.420 1_465 S
C340 N348 1.362 . S
C341 C337 1.411 . S
C341 C339 1.420 . S
C341 C346 1.395 . S
C342 C338 1.423 . S
C342 C339 1.351 1_655 S
C342 H354 0.930 . S
C343 C345 1.400 . S
C343 C346 1.386 . S
C343 H355 0.930 . S
N344 C337 1.377 . S
N344 C345 1.321 . S
N344 Eu347 2.609 1_545 S
C345 C343 1.400 . S
C345 N344 1.321 . S
C345 H352 0.930 . S
C346 C341 1.395 . S
C346 C343 1.386 . S
C346 H365 0.930 . S
Eu347 N344 2.609 1_565 S
Eu347 N348 2.657 . S
Eu347 O381 2.380 . S
Eu347 O382 2.432 . S
Eu347 O386 2.558 . S
Eu347 O387 2.612 . S
Eu347 O389 2.339 . S
Eu347 O390 2.563 . S
Eu347 O391 2.415 1_455 S
Eu347 C411 2.848 . S
N348 C340 1.362 . S
N348 Eu347 2.657 . S
N348 C349 1.334 1_455 S
C349 N348 1.334 1_655 S
C349 C351 1.413 . S
C349 H356 0.929 . S
C350 C338 1.392 1_565 S
C350 C351 1.367 . S
C350 H358 0.930 . S
C351 C349 1.413 . S
C351 C350 1.367 . S
C351 H353 0.930 . S
H352 C345 0.930 . S
H353 C351 0.930 . S
H354 C342 0.930 . S
H355 C343 0.930 . S
H356 C349 0.929 . S
H357 C371 0.930 . S
H358 C350 0.930 . S
H359 C377 0.930 . S
H360 C368 0.929 . S
H361 C375 0.930 . S
H362 C339 0.931 . S
H363 C369 0.930 . S
H364 C402 0.930 . S
H365 C346 0.930 . S
H366 C401 0.931 . S
N367 Eu336 2.657 . S
N367 C368 1.334 . S
N367 C372 1.362 . S
C368 H360 0.929 . S
C368 N367 1.334 . S
C368 C371 1.413 . S
C369 H363 0.930 . S
C369 C370 1.392 . S
C369 C371 1.367 . S
C370 C369 1.392 . S
C370 C372 1.420 . S
C370 C402 1.423 . S
C371 H357 0.930 . S
C371 C368 1.413 . S
C371 C369 1.367 . S
C372 N367 1.362 . S
C372 C370 1.420 . S
C372 C376 1.429 . S
H373 C378 0.930 . S
N374 Eu336 2.609 . S
N374 C376 1.377 . S
N374 C377 1.321 . S
C375 H361 0.930 . S
C375 C377 1.400 . S
C375 C378 1.386 . S
C376 C372 1.429 . S
C376 N374 1.377 . S
C376 C379 1.411 . S
C377 H359 0.930 . S
C377 N374 1.321 . S
C377 C375 1.400 . S
C378 H373 0.930 . S
C378 C375 1.386 . S
C378 C379 1.395 . S
C379 C376 1.411 . S
C379 C378 1.395 . S
C379 C401 1.420 . S
O380 Eu336 2.558 . S
O380 C400 1.257 . S
O381 Eu336 2.612 . S
O381 Eu347 2.380 . S
O381 C392 1.276 . S
O382 Eu347 2.432 . S
O382 C399 1.264 . S
O383 Eu336 2.339 . S
O383 C399 1.254 . S
O384 Eu336 2.563 . S
O384 C392 1.235 . S
O385 Eu336 2.419 . S
O385 C400 1.249 . S
O386 Eu347 2.558 . S
O386 C411 1.257 . S
O387 Eu336 2.380 . S
O387 Eu347 2.612 . S
O387 C403 1.276 . S
O388 Eu336 2.432 . S
O388 C410 1.264 . S
O389 Eu347 2.339 . S
O389 C410 1.254 . S
O390 Eu347 2.563 . S
O390 C403 1.235 . S
O391 Eu347 2.415 1_655 S
O391 C411 1.248 1_655 S
C392 O381 1.276 . S
C392 O384 1.235 . S
C393 C395 1.393 . S
C393 C397 1.395 . S
C393 C400 1.492 . S
C394 C395 1.392 . S
C394 C396 1.386 . S
C395 C393 1.393 . S
C395 C394 1.392 . S
C395 H412 0.930 . S
C396 C394 1.386 . S
C396 C398 1.395 . S
C396 H413 0.930 . S
C397 C393 1.395 . S
C397 C398 1.379 . S
C397 H414 0.930 . S
C398 C396 1.395 . S
C398 C397 1.379 . S
C398 H415 0.930 . S
C399 O382 1.264 . S
C399 O383 1.254 . S
C400 Eu336 2.848 . S
C400 O380 1.257 . S
C400 O385 1.249 . S
C400 C393 1.492 . S
C401 H366 0.931 . S
C401 C379 1.420 . S
C401 C402 1.351 . S
C402 H364 0.930 . S
C402 C370 1.423 . S
C402 C401 1.351 . S
C403 O387 1.276 . S
C403 O390 1.235 . S
C404 C405 1.393 . S
C404 C408 1.395 1_655 S
C404 C411 1.492 1_655 S
C405 C404 1.393 . S
C405 C406 1.392 . S
C405 H416 0.930 . S
C406 C405 1.392 . S
C406 C407 1.386 . S
C407 C406 1.386 . S
C407 C409 1.395 . S
C407 H417 0.930 . S
C408 C404 1.395 1_455 S
C408 C409 1.379 1_455 S
C408 H418 0.930 1_565 S
C409 C407 1.395 . S
C409 C408 1.379 1_655 S
C409 H419 0.930 1_565 S
C410 O388 1.264 . S
C410 O389 1.254 . S
C411 Eu347 2.848 . S
C411 O386 1.257 . S
C411 O391 1.248 1_455 S
C411 C404 1.492 1_455 S
H412 C395 0.930 . S
H413 C396 0.930 . S
H414 C397 0.930 . S
H415 C398 0.930 . S
H416 C405 0.930 . S
H417 C407 0.930 . S
H418 C408 0.930 1_545 S
H419 C409 0.930 1_545 S
Eu420 N451 2.657 . S
Eu420 N458 2.609 . S
Eu420 O464 2.558 . S
Eu420 O465 2.612 . S
Eu420 O467 2.339 . S
Eu420 O468 2.563 . S
Eu420 O469 2.419 . S
Eu420 O471 2.380 . S
Eu420 O472 2.432 . S
Eu420 C484 2.848 . S
C421 C424 1.429 . S
C421 C425 1.411 1_455 S
C421 N428 1.377 . S
C422 C424 1.420 1_665 S
C422 C426 1.423 . S
C422 C434 1.392 . S
C423 C425 1.420 . S
C423 C426 1.351 1_545 S
C423 H446 0.931 . S
C424 C421 1.429 . S
C424 C422 1.420 1_445 S
C424 N432 1.362 . S
C425 C421 1.411 1_655 S
C425 C423 1.420 . S
C425 C430 1.395 . S
C426 C422 1.423 . S
C426 C423 1.351 1_565 S
C426 H438 0.930 . S
C427 C429 1.400 . S
C427 C430 1.386 1_455 S
C427 H439 0.930 . S
N428 C421 1.377 . S
N428 C429 1.321 . S
N428 Eu431 2.609 . S
C429 C427 1.400 . S
C429 N428 1.321 . S
C429 H436 0.930 . S
C430 C425 1.395 . S
C430 C427 1.386 1_655 S
C430 H449 0.930 . S
Eu431 N428 2.609 . S
Eu431 N432 2.657 . S
Eu431 O465 2.380 . S
Eu431 O466 2.432 . S
Eu431 O470 2.558 . S
Eu431 O471 2.612 . S
Eu431 O473 2.339 . S
Eu431 O474 2.563 . S
Eu431 O475 2.416 1_545 S
Eu431 C495 2.848 . S
N432 C424 1.362 . S
N432 Eu431 2.657 . S
N432 C433 1.334 1_545 S
C433 N432 1.334 1_565 S
C433 C435 1.413 . S
C433 H440 0.929 . S
C434 C422 1.392 . S
C434 C435 1.367 1_655 S
C434 H442 0.930 . S
C435 C433 1.413 . S
C435 C434 1.367 1_455 S
C435 H437 0.930 . S
H436 C429 0.930 . S
H437 C435 0.930 . S
H438 C426 0.930 . S
H439 C427 0.930 . S
H440 C433 0.929 . S
H441 C455 0.930 . S
H442 C434 0.930 . S
H443 C461 0.930 . S
H444 C452 0.929 . S
H445 C459 0.930 . S
H446 C423 0.931 . S
H447 C453 0.930 . S
H448 C486 0.930 1_455 S
H449 C430 0.930 . S
H450 C485 0.931 1_455 S
N451 Eu420 2.657 . S
N451 C452 1.334 . S
N451 C456 1.362 . S
C452 H444 0.929 . S
C452 N451 1.334 . S
C452 C455 1.413 . S
C453 H447 0.930 . S
C453 C454 1.392 . S
C453 C455 1.367 . S
C454 C453 1.392 . S
C454 C456 1.420 . S
C454 C486 1.423 . S
C455 H441 0.930 . S
C455 C452 1.413 . S
C455 C453 1.367 . S
C456 N451 1.362 . S
C456 C454 1.420 . S
C456 C460 1.429 . S
H457 C462 0.930 . S
N458 Eu420 2.609 . S
N458 C460 1.377 . S
N458 C461 1.321 . S
C459 H445 0.930 . S
C459 C461 1.400 . S
C459 C462 1.386 . S
C460 C456 1.429 . S
C460 N458 1.377 . S
C460 C463 1.411 . S
C461 H443 0.930 . S
C461 N458 1.321 . S
C461 C459 1.400 . S
C462 H457 0.930 . S
C462 C459 1.386 . S
C462 C463 1.395 . S
C463 C460 1.411 . S
C463 C462 1.395 . S
C463 C485 1.420 . S
O464 Eu420 2.558 . S
O464 C484 1.257 . S
O465 Eu420 2.612 . S
O465 Eu431 2.380 . S
O465 C476 1.276 . S
O466 Eu431 2.432 . S
O466 C483 1.264 . S
O467 Eu420 2.339 . S
O467 C483 1.254 . S
O468 Eu420 2.563 . S
O468 C476 1.235 . S
O469 Eu420 2.419 . S
O469 C484 1.249 . S
O470 Eu431 2.558 . S
O470 C495 1.257 . S
O471 Eu420 2.380 . S
O471 Eu431 2.612 . S
O471 C487 1.276 . S
O472 Eu420 2.432 . S
O472 C494 1.264 . S
O473 Eu431 2.339 . S
O473 C494 1.254 . S
O474 Eu431 2.563 . S
O474 C487 1.235 . S
O475 Eu431 2.416 1_565 S
O475 C495 1.245 1_565 S
C476 O465 1.276 . S
C476 O468 1.235 . S
C477 C479 1.393 . S
C477 C481 1.395 . S
C477 C484 1.492 . S
C478 C479 1.392 . S
C478 C480 1.386 . S
C479 C477 1.393 . S
C479 C478 1.392 . S
C479 H496 0.930 . S
C480 C478 1.386 . S
C480 C482 1.395 . S
C480 H497 0.930 . S
C481 C477 1.395 . S
C481 C482 1.379 . S
C481 H498 0.930 . S
C482 C480 1.395 . S
C482 C481 1.379 . S
C482 H499 0.930 . S
C483 O466 1.264 . S
C483 O467 1.254 . S
C484 Eu420 2.848 . S
C484 O464 1.257 . S
C484 O469 1.249 . S
C484 C477 1.492 . S
C485 H450 0.931 1_655 S
C485 C463 1.420 . S
C485 C486 1.351 . S
C486 H448 0.930 1_655 S
C486 C454 1.423 . S
C486 C485 1.351 . S
C487 O471 1.276 . S
C487 O474 1.235 . S
C488 C489 1.393 . S
C488 C492 1.395 1_565 S
C488 C495 1.492 1_565 S
C489 C488 1.393 . S
C489 C490 1.392 . S
C489 H500 0.930 . S
C490 C489 1.392 . S
C490 C491 1.386 . S
C491 C490 1.386 . S
C491 C493 1.395 . S
C491 H501 0.930 1_455 S
C492 C488 1.395 1_545 S
C492 C493 1.379 1_545 S
C492 H502 0.930 . S
C493 C491 1.395 . S
C493 C492 1.379 1_565 S
C493 H503 0.930 1_455 S
C494 O472 1.264 . S
C494 O473 1.254 . S
C495 Eu431 2.848 . S
C495 O470 1.257 . S
C495 O475 1.245 1_545 S
C495 C488 1.492 1_545 S
H496 C479 0.930 . S
H497 C480 0.930 . S
H498 C481 0.930 . S
H499 C482 0.930 . S
H500 C489 0.930 . S
H501 C491 0.930 1_655 S
H502 C492 0.930 . S
H503 C493 0.930 1_655 S
C403 C58 1.051 . S
C487 C142 1.052 . S
C67 C226 1.052 . S
C151 C310 1.051 . S
C235 C394 1.052 . S
C319 C478 1.051 . S
C74 C326 3.268 . S
C410 C158 3.268 1_455 S
C494 C242 3.267 1_545 S
C231 C483 2.739 . S
C63 C315 2.740 1_455 S
C399 C147 2.740 1_565 S
C476 C70 2.074 . S
C154 C56 2.073 . S
C238 C140 2.073 . S
C224 C322 2.074 . S
C406 C308 2.073 . S
C490 C392 2.074 . S
