# Generated by pormake.
# Topology vbn, (6)-cn, num edge types: 1
# Building blocks:
#     Node 0, Type 0, BuildingBlock: OJICUG_clean_sbu_0, # of connection points: 6
#     Node 1, Type 0, BuildingBlock: OJICUG_clean_sbu_0, # of connection points: 6
#     Node 2, Type 0, BuildingBlock: OJICUG_clean_sbu_0, # of connection points: 6
#     Node 3, Type 0, BuildingBlock: OJICUG_clean_sbu_0, # of connection points: 6
#     Node 4, Type 0, BuildingBlock: OJICUG_clean_sbu_0, # of connection points: 6
#     Node 5, Type 0, BuildingBlock: OJICUG_clean_sbu_0, # of connection points: 6
#     Node 6, Type 0, BuildingBlock: OJICUG_clean_sbu_0, # of connection points: 6
#     Node 7, Type 0, BuildingBlock: OJICUG_clean_sbu_0, # of connection points: 6
#     Edge 8, Type (0, 0), BuildingBlock: MIFKUJ_clean_linker_0, # of connection points: 2
#     Edge 9, Type (0, 0), BuildingBlock: MIFKUJ_clean_linker_0, # of connection points: 2
#     Edge 10, Type (0, 0), BuildingBlock: MIFKUJ_clean_linker_0, # of connection points: 2
#     Edge 11, Type (0, 0), BuildingBlock: MIFKUJ_clean_linker_0, # of connection points: 2
#     Edge 12, Type (0, 0), BuildingBlock: MIFKUJ_clean_linker_0, # of connection points: 2
#     Edge 13, Type (0, 0), BuildingBlock: MIFKUJ_clean_linker_0, # of connection points: 2
#     Edge 14, Type (0, 0), BuildingBlock: MIFKUJ_clean_linker_0, # of connection points: 2
#     Edge 15, Type (0, 0), BuildingBlock: MIFKUJ_clean_linker_0, # of connection points: 2
#     Edge 16, Type (0, 0), BuildingBlock: MIFKUJ_clean_linker_0, # of connection points: 2
#     Edge 17, Type (0, 0), BuildingBlock: MIFKUJ_clean_linker_0, # of connection points: 2
#     Edge 18, Type (0, 0), BuildingBlock: MIFKUJ_clean_linker_0, # of connection points: 2
#     Edge 19, Type (0, 0), BuildingBlock: MIFKUJ_clean_linker_0, # of connection points: 2
#     Edge 20, Type (0, 0), BuildingBlock: MIFKUJ_clean_linker_0, # of connection points: 2
#     Edge 21, Type (0, 0), BuildingBlock: MIFKUJ_clean_linker_0, # of connection points: 2
#     Edge 22, Type (0, 0), BuildingBlock: MIFKUJ_clean_linker_0, # of connection points: 2
#     Edge 23, Type (0, 0), BuildingBlock: MIFKUJ_clean_linker_0, # of connection points: 2
#     Edge 24, Type (0, 0), BuildingBlock: MIFKUJ_clean_linker_0, # of connection points: 2
#     Edge 25, Type (0, 0), BuildingBlock: MIFKUJ_clean_linker_0, # of connection points: 2
#     Edge 26, Type (0, 0), BuildingBlock: MIFKUJ_clean_linker_0, # of connection points: 2
#     Edge 27, Type (0, 0), BuildingBlock: MIFKUJ_clean_linker_0, # of connection points: 2
#     Edge 28, Type (0, 0), BuildingBlock: MIFKUJ_clean_linker_0, # of connection points: 2
#     Edge 29, Type (0, 0), BuildingBlock: MIFKUJ_clean_linker_0, # of connection points: 2
#     Edge 30, Type (0, 0), BuildingBlock: MIFKUJ_clean_linker_0, # of connection points: 2
#     Edge 31, Type (0, 0), BuildingBlock: MIFKUJ_clean_linker_0, # of connection points: 2
# Relax obj value: 0.292
# Max RMSD: 0.267
# Mean RMSD: 0.267
data_MOF--net-vbn--node1-OJICUG_clean_sbu_0--edge1-MIFKUJ_clean_linker_0
_symmetry_space_group_name_H-M    P1
_symmetry_Int_Tables_number       1
_symmetry_cell_setting            triclinic
loop_
_symmetry_equiv_pos_as_xyz
'x, y, z'
_cell_length_a     33.062643
_cell_length_b     37.266989
_cell_length_c     60.086022
_cell_angle_alpha  90.007626
_cell_angle_beta   89.950943
_cell_angle_gamma 90.038272
loop_
_atom_site_label
_atom_site_type_symbol
_atom_site_fract_x
_atom_site_fract_y
_atom_site_fract_z
_atom_type_partial_charge
Sc0 Sc 0.33645 0.28351 0.38204 0.0
Sc1 Sc 0.38611 0.26848 0.43223 0.0
Sc2 Sc 0.41745 0.33659 0.39751 0.0
O3 O 0.37985 0.29572 0.40382 0.0
C4 C 0.41611 0.29772 0.35212 0.0
C5 C 0.35972 0.20663 0.39774 0.0
C6 C 0.47497 0.28157 0.42334 0.0
C7 C 0.29225 0.27498 0.42946 0.0
C8 C 0.3354 0.36665 0.37876 0.0
C9 C 0.39991 0.35069 0.44655 0.0
O10 O 0.37812 0.29136 0.35395 0.0
O11 O 0.36913 0.21743 0.41722 0.0
O12 O 0.46717 0.31304 0.4163 0.0
O13 O 0.29181 0.27401 0.4082 0.0
O14 O 0.3738 0.36765 0.37874 0.0
O15 O 0.40302 0.31715 0.45082 0.0
O16 O 0.31593 0.33787 0.382 0.0
O17 O 0.32453 0.27743 0.44084 0.0
O18 O 0.39691 0.36269 0.42686 0.0
O19 O 0.35286 0.22808 0.38176 0.0
O20 O 0.4372 0.31057 0.36794 0.0
O21 O 0.44797 0.25752 0.42459 0.0
Sc22 Sc 0.18378 0.20868 0.89279 0.0
Sc23 Sc 0.12337 0.23772 0.93785 0.0
Sc24 Sc 0.08023 0.18542 0.8954 0.0
O25 O 0.12911 0.21064 0.9087 0.0
C26 C 0.1221 0.21972 0.85266 0.0
C27 C 0.181 0.2898 0.90956 0.0
C28 C 0.0396 0.25674 0.91441 0.0
C29 C 0.20919 0.20035 0.94379 0.0
C30 C 0.15164 0.12871 0.88686 0.0
C31 C 0.06819 0.16874 0.94675 0.0
O32 O 0.15769 0.22126 0.8606 0.0
O33 O 0.15535 0.2844 0.92506 0.0
O34 O 0.03978 0.23014 0.90112 0.0
O35 O 0.21655 0.19656 0.92313 0.0
O36 O 0.11445 0.13667 0.88932 0.0
O37 O 0.09046 0.19419 0.95383 0.0
O38 O 0.17963 0.15204 0.88717 0.0
O39 O 0.17725 0.21489 0.95119 0.0
O40 O 0.06213 0.16254 0.92629 0.0
O41 O 0.19384 0.26491 0.89699 0.0
O42 O 0.09209 0.20717 0.86324 0.0
O43 O 0.0681 0.26283 0.92805 0.0
Sc44 Sc 0.83073 0.21087 0.62553 0.0
Sc45 Sc 0.86356 0.21689 0.57076 0.0
Sc46 Sc 0.91667 0.16525 0.60849 0.0
O47 O 0.87084 0.19837 0.6017 0.0
C48 C 0.91577 0.21061 0.6515 0.0
C49 C 0.83783 0.28397 0.60195 0.0
C50 C 0.95641 0.22214 0.57448 0.0
C51 C 0.77459 0.20219 0.58258 0.0
C52 C 0.84244 0.12838 0.63228 0.0
C53 C 0.89267 0.13619 0.56218 0.0
O54 O 0.87714 0.21217 0.65153 0.0
O55 O 0.84112 0.26861 0.58298 0.0
O56 O 0.95791 0.19381 0.58641 0.0
O57 O 0.77967 0.21293 0.60253 0.0
O58 O 0.88064 0.13178 0.63037 0.0
O59 O 0.88485 0.16754 0.55481 0.0
O60 O 0.81842 0.15478 0.63017 0.0
O61 O 0.80386 0.19544 0.56962 0.0
O62 O 0.89924 0.13002 0.58257 0.0
O63 O 0.8407 0.26687 0.62022 0.0
O64 O 0.93586 0.19843 0.63518 0.0
O65 O 0.92346 0.23829 0.57027 0.0
Sc66 Sc 0.58219 0.32291 0.09635 0.0
Sc67 Sc 0.61431 0.25748 0.05821 0.0
Sc68 Sc 0.67715 0.28274 0.10288 0.0
O69 O 0.62457 0.28756 0.0858 0.0
C70 C 0.66424 0.36645 0.10452 0.0
C71 C 0.58 0.33529 0.04471 0.0
C72 C 0.70632 0.27879 0.0519 0.0
C73 C 0.52777 0.25684 0.07976 0.0
C74 C 0.61016 0.28747 0.14138 0.0
C75 C 0.65941 0.20178 0.09055 0.0
O76 O 0.62583 0.36452 0.1045 0.0
O77 O 0.58856 0.30283 0.03975 0.0
O78 O 0.71332 0.28231 0.07265 0.0
O79 O 0.5319 0.28765 0.08861 0.0
O80 O 0.6466 0.28253 0.13512 0.0
O81 O 0.63889 0.20886 0.07313 0.0
O82 O 0.58295 0.30046 0.12889 0.0
O83 O 0.55623 0.24078 0.06974 0.0
O84 O 0.67331 0.22591 0.10328 0.0
O85 O 0.57897 0.3469 0.06452 0.0
O86 O 0.68664 0.33902 0.1034 0.0
O87 O 0.67164 0.27109 0.04422 0.0
Sc88 Sc 0.5777 0.67265 0.59794 0.0
Sc89 Sc 0.62931 0.72201 0.55808 0.0
Sc90 Sc 0.67143 0.71034 0.61076 0.0
O91 O 0.62607 0.70182 0.58905 0.0
C92 C 0.59215 0.71788 0.64123 0.0
C93 C 0.53958 0.73716 0.56911 0.0
C94 C 0.66847 0.78472 0.58762 0.0
C95 C 0.5883 0.64545 0.54956 0.0
C96 C 0.6515 0.62902 0.61927 0.0
C97 C 0.71699 0.69437 0.56453 0.0
O98 O 0.56836 0.70498 0.62672 0.0
O99 O 0.57334 0.7493 0.56242 0.0
O100 O 0.6684 0.76697 0.60562 0.0
O101 O 0.58441 0.63829 0.57002 0.0
O102 O 0.67706 0.65418 0.61696 0.0
O103 O 0.68506 0.69508 0.55283 0.0
O104 O 0.61375 0.6333 0.61583 0.0
O105 O 0.5986 0.67638 0.5425 0.0
O106 O 0.71777 0.70407 0.58494 0.0
O107 O 0.53612 0.70778 0.57992 0.0
O108 O 0.63053 0.71785 0.63893 0.0
O109 O 0.66053 0.7708 0.56875 0.0
Sc110 Sc 0.83013 0.78593 0.11579 0.0
Sc111 Sc 0.87493 0.78563 0.06317 0.0
Sc112 Sc 0.92348 0.82838 0.10741 0.0
O113 O 0.87636 0.79987 0.0955 0.0
C114 C 0.84558 0.86621 0.12896 0.0
C115 C 0.78452 0.80505 0.07003 0.0
C116 C 0.91237 0.86477 0.06078 0.0
C117 C 0.83941 0.71598 0.08823 0.0
C118 C 0.90703 0.77702 0.14783 0.0
C119 C 0.96594 0.77115 0.07485 0.0
O120 O 0.82164 0.84029 0.12519 0.0
O121 O 0.81681 0.8086 0.0589 0.0
O122 O 0.91959 0.86666 0.0814 0.0
O123 O 0.83627 0.73111 0.10706 0.0
O124 O 0.93129 0.79286 0.13478 0.0
O125 O 0.93321 0.76223 0.06534 0.0
O126 O 0.86908 0.77558 0.14428 0.0
O127 O 0.84907 0.73295 0.07054 0.0
O128 O 0.96798 0.79631 0.08925 0.0
O129 O 0.78419 0.79342 0.09001 0.0
O130 O 0.8837 0.86434 0.12576 0.0
O131 O 0.90003 0.83626 0.05128 0.0
Sc132 Sc 0.08062 0.82844 0.39414 0.0
Sc133 Sc 0.13284 0.78241 0.43597 0.0
Sc134 Sc 0.17846 0.79539 0.38347 0.0
O135 O 0.13064 0.80193 0.4045 0.0
C136 C 0.10212 0.78144 0.35183 0.0
C137 C 0.04267 0.76441 0.42336 0.0
C138 C 0.17736 0.72042 0.4079 0.0
C139 C 0.08834 0.85802 0.443 0.0
C140 C 0.15259 0.87544 0.37326 0.0
C141 C 0.22098 0.81377 0.43005 0.0
O142 O 0.07716 0.79694 0.36465 0.0
O143 O 0.07568 0.75666 0.43294 0.0
O144 O 0.18361 0.73982 0.39092 0.0
O145 O 0.07973 0.86192 0.42263 0.0
O146 O 0.17868 0.85062 0.37436 0.0
O147 O 0.18994 0.80695 0.4417 0.0
O148 O 0.11565 0.87089 0.37857 0.0
O149 O 0.10498 0.82982 0.45072 0.0
O150 O 0.22257 0.80877 0.40908 0.0
O151 O 0.03928 0.79048 0.40974 0.0
O152 O 0.14008 0.78066 0.35547 0.0
O153 O 0.16076 0.73223 0.4256 0.0
Sc154 Sc 0.41981 0.67433 0.88947 0.0
Sc155 Sc 0.36955 0.71255 0.93403 0.0
Sc156 Sc 0.3258 0.71401 0.88174 0.0
O157 O 0.3721 0.70062 0.90165 0.0
C158 C 0.40283 0.72582 0.85005 0.0
C159 C 0.45932 0.7302 0.92431 0.0
C160 C 0.33097 0.78204 0.91014 0.0
C161 C 0.41018 0.63465 0.93461 0.0
C162 C 0.34364 0.6354 0.8671 0.0
C163 C 0.28146 0.69127 0.92713 0.0
O164 O 0.42789 0.71342 0.86403 0.0
O165 O 0.42559 0.74037 0.93222 0.0
O166 O 0.33272 0.76902 0.89064 0.0
O167 O 0.41429 0.63332 0.9137 0.0
O168 O 0.31799 0.65908 0.8728 0.0
O169 O 0.31434 0.68415 0.93691 0.0
O170 O 0.38185 0.6402 0.86859 0.0
O171 O 0.39995 0.66327 0.94482 0.0
O172 O 0.28052 0.70693 0.90821 0.0
O173 O 0.46239 0.70452 0.91026 0.0
O174 O 0.36464 0.72362 0.85289 0.0
O175 O 0.33773 0.7634 0.92762 0.0
H176 H 0.21919 0.89478 0.34943 0.0
H177 H 0.25523 0.95183 0.35186 0.0
H178 H 0.1589 0.99546 0.39205 0.0
H179 H 0.1222 0.93857 0.3893 0.0
H180 H 0.19083 0.04659 0.36645 0.0
H181 H 0.24003 0.95903 0.41703 0.0
H182 H 0.2657 0.90014 0.42897 0.0
H183 H 0.37044 0.91343 0.3875 0.0
H184 H 0.34508 0.97242 0.37506 0.0
H185 H 0.35118 0.15356 0.42914 0.0
H186 H 0.31824 0.09535 0.42378 0.0
H187 H 0.31133 0.11509 0.35319 0.0
H188 H 0.3443 0.17299 0.35825 0.0
H189 H 0.32905 0.03294 0.39771 0.0
H190 H 0.21165 0.0996 0.33875 0.0
H191 H 0.18335 0.15989 0.33204 0.0
H192 H 0.20973 0.18991 0.39949 0.0
H193 H 0.23691 0.12951 0.4068 0.0
C194 C 0.20509 0.91688 0.35822 0.0
C195 C 0.16804 0.91211 0.36934 0.0
C196 C 0.22587 0.94936 0.35974 0.0
C197 C 0.2103 0.97749 0.37269 0.0
C198 C 0.17162 0.97397 0.38212 0.0
C199 C 0.15054 0.9415 0.38042 0.0
C200 C 0.23585 0.00914 0.37787 0.0
C201 C 0.22106 0.04357 0.37319 0.0
C202 C 0.27482 0.0053 0.38745 0.0
C203 C 0.29042 0.96997 0.39493 0.0
C204 C 0.26839 0.94928 0.41032 0.0
C205 C 0.2829 0.91588 0.41719 0.0
C206 C 0.31957 0.9029 0.40891 0.0
C207 C 0.34193 0.92344 0.39382 0.0
C208 C 0.32754 0.95691 0.38688 0.0
C209 C 0.34379 0.14509 0.41239 0.0
C210 C 0.34974 0.16828 0.39418 0.0
C211 C 0.32491 0.11182 0.40938 0.0
C212 C 0.31163 0.10141 0.38816 0.0
C213 C 0.32082 0.12299 0.36974 0.0
C214 C 0.33974 0.15609 0.3727 0.0
C215 C 0.28457 0.07008 0.38544 0.0
C216 C 0.29894 0.03582 0.39078 0.0
C217 C 0.2447 0.07416 0.37722 0.0
C218 C 0.22683 0.11013 0.37321 0.0
C219 C 0.21111 0.11897 0.35219 0.0
C220 C 0.19521 0.15316 0.3483 0.0
C221 C 0.19483 0.17874 0.36531 0.0
C222 C 0.21009 0.1701 0.38631 0.0
C223 C 0.22569 0.13587 0.39034 0.0
H224 H 0.18266 0.20522 0.36223 0.0
H225 H 0.33079 0.87704 0.41427 0.0
H226 H 0.15396 0.35394 0.92705 0.0
H227 H 0.17688 0.41454 0.91702 0.0
H228 H 0.26523 0.36916 0.87233 0.0
H229 H 0.24265 0.30914 0.88194 0.0
H230 H 0.24891 0.44948 0.91991 0.0
H231 H 0.26964 0.41736 0.82532 0.0
H232 H 0.23811 0.37813 0.79712 0.0
H233 H 0.12764 0.3767 0.83471 0.0
H234 H 0.15819 0.41635 0.8629 0.0
H235 H 0.38214 0.57175 0.87401 0.0
H236 H 0.34993 0.51298 0.87717 0.0
H237 H 0.23744 0.55758 0.85384 0.0
H238 H 0.26924 0.61678 0.85095 0.0
H239 H 0.25465 0.48251 0.83982 0.0
H240 H 0.23948 0.55777 0.90327 0.0
H241 H 0.2644 0.60121 0.93093 0.0
H242 H 0.3477 0.52287 0.95597 0.0
H243 H 0.32386 0.47901 0.92816 0.0
C244 C 0.17843 0.35691 0.9152 0.0
C245 C 0.19613 0.32662 0.90515 0.0
C246 C 0.19148 0.39152 0.9095 0.0
C247 C 0.22224 0.39631 0.89362 0.0
C248 C 0.24086 0.36612 0.88425 0.0
C249 C 0.2279 0.33174 0.88985 0.0
C250 C 0.23504 0.43266 0.88644 0.0
C251 C 0.24992 0.45669 0.90243 0.0
C252 C 0.23533 0.44258 0.86364 0.0
C253 C 0.21638 0.41961 0.84633 0.0
C254 C 0.23854 0.40889 0.82749 0.0
C255 C 0.22084 0.38653 0.81152 0.0
C256 C 0.18095 0.37485 0.81417 0.0
C257 C 0.15857 0.38567 0.83271 0.0
C258 C 0.17608 0.40806 0.8487 0.0
C259 C 0.351 0.56886 0.8687 0.0
C260 C 0.32811 0.59897 0.86241 0.0
C261 C 0.3326 0.53527 0.87063 0.0
C262 C 0.29126 0.53117 0.86598 0.0
C263 C 0.26938 0.5603 0.85749 0.0
C264 C 0.28759 0.59407 0.8559 0.0
C265 C 0.26993 0.49829 0.87321 0.0
C266 C 0.25338 0.47514 0.85727 0.0
C267 C 0.26668 0.4897 0.89608 0.0
C268 C 0.2801 0.51522 0.91352 0.0
C269 C 0.26326 0.54983 0.91464 0.0
C270 C 0.27718 0.57452 0.93037 0.0
C271 C 0.30761 0.56477 0.94528 0.0
C272 C 0.32402 0.53025 0.94451 0.0
C273 C 0.31036 0.50547 0.92874 0.0
H274 H 0.31854 0.58394 0.95741 0.0
H275 H 0.16732 0.35744 0.80187 0.0
H276 H 0.72661 0.61009 0.63403 0.0
H277 H 0.75777 0.55089 0.63186 0.0
H278 H 0.64474 0.50572 0.60955 0.0
H279 H 0.61304 0.56489 0.61187 0.0
H280 H 0.68473 0.45967 0.63662 0.0
H281 H 0.71336 0.52951 0.57212 0.0
H282 H 0.73593 0.5834 0.55176 0.0
H283 H 0.85546 0.57113 0.57855 0.0
H284 H 0.83342 0.51754 0.59942 0.0
H285 H 0.81354 0.32766 0.56762 0.0
H286 H 0.78239 0.38706 0.57069 0.0
H287 H 0.8021 0.38596 0.64161 0.0
H288 H 0.83302 0.32681 0.63881 0.0
H289 H 0.80445 0.45381 0.58674 0.0
H290 H 0.71576 0.4146 0.66665 0.0
H291 H 0.68844 0.35996 0.68434 0.0
H292 H 0.68048 0.30863 0.6205 0.0
H293 H 0.70707 0.36313 0.60241 0.0
C294 C 0.70806 0.58747 0.62912 0.0
C295 C 0.66741 0.59233 0.62289 0.0
C296 C 0.72601 0.55367 0.62779 0.0
C297 C 0.70382 0.52413 0.62001 0.0
C298 C 0.66246 0.52825 0.61543 0.0
C299 C 0.64436 0.5621 0.61686 0.0
C300 C 0.72454 0.48971 0.61522 0.0
C301 C 0.71094 0.4584 0.62577 0.0
C302 C 0.75796 0.4879 0.60046 0.0
C303 C 0.77164 0.51964 0.5875 0.0
C304 C 0.74441 0.53841 0.57378 0.0
C305 C 0.7571 0.56891 0.56214 0.0
C306 C 0.79708 0.58073 0.56389 0.0
C307 C 0.82448 0.56197 0.57723 0.0
C308 C 0.81191 0.53151 0.58896 0.0
C309 C 0.81197 0.34032 0.58382 0.0
C310 C 0.82535 0.32218 0.603 0.0
C311 C 0.79415 0.37429 0.58553 0.0
C312 C 0.78929 0.39057 0.60642 0.0
C313 C 0.80495 0.37357 0.62537 0.0
C314 C 0.82271 0.33973 0.6237 0.0
C315 C 0.7655 0.42408 0.60879 0.0
C316 C 0.77834 0.45515 0.59766 0.0
C317 C 0.73067 0.4255 0.62252 0.0
C318 C 0.7138 0.39286 0.63322 0.0
C319 C 0.70797 0.39172 0.65639 0.0
C320 C 0.69264 0.36076 0.66648 0.0
C321 C 0.68285 0.3308 0.65356 0.0
C322 C 0.6882 0.3318 0.6305 0.0
C323 C 0.70343 0.36271 0.62033 0.0
H324 H 0.67105 0.30685 0.66142 0.0
H325 H 0.80684 0.60437 0.5549 0.0
H326 H 0.638 0.13947 0.06852 0.0
H327 H 0.65986 0.07815 0.07752 0.0
H328 H 0.72758 0.11871 0.13351 0.0
H329 H 0.70525 0.17889 0.12529 0.0
H330 H 0.7321 0.04996 0.07773 0.0
H331 H 0.73347 0.06233 0.17502 0.0
H332 H 0.69158 0.08965 0.20445 0.0
H333 H 0.5884 0.08801 0.16113 0.0
H334 H 0.62946 0.06019 0.13154 0.0
H335 H 0.87637 0.93242 0.11917 0.0
H336 H 0.83714 0.9876 0.11513 0.0
H337 H 0.73224 0.9344 0.14234 0.0
H338 H 0.77132 0.8794 0.14678 0.0
H339 H 0.73298 0.00193 0.15478 0.0
H340 H 0.74593 0.93727 0.08775 0.0
H341 H 0.77898 0.9056 0.05667 0.0
H342 H 0.83785 0.00321 0.03682 0.0
H343 H 0.80624 0.03526 0.06823 0.0
C344 C 0.65704 0.13515 0.08293 0.0
C345 C 0.66976 0.16418 0.09616 0.0
C346 C 0.66958 0.10016 0.08801 0.0
C347 C 0.69485 0.09379 0.1064 0.0
C348 C 0.70724 0.12274 0.1196 0.0
C349 C 0.69458 0.15735 0.1147 0.0
C350 C 0.71091 0.05754 0.11131 0.0
C351 C 0.73205 0.03929 0.09453 0.0
C352 C 0.70977 0.04307 0.1331 0.0
C353 C 0.68468 0.05932 0.15099 0.0
C354 C 0.70178 0.06756 0.17181 0.0
C355 C 0.67819 0.0832 0.18851 0.0
C356 C 0.63738 0.09063 0.18465 0.0
C357 C 0.62004 0.08234 0.16408 0.0
C358 C 0.64348 0.06667 0.14733 0.0
C359 C 0.84542 0.93285 0.12509 0.0
C360 C 0.82677 0.90147 0.13306 0.0
C361 C 0.82288 0.96425 0.12248 0.0
C362 C 0.78151 0.96466 0.12782 0.0
C363 C 0.76399 0.93449 0.13787 0.0
C364 C 0.78642 0.90312 0.14045 0.0
C365 C 0.75586 0.99549 0.12147 0.0
C366 C 0.73278 0.01249 0.13796 0.0
C367 C 0.75403 0.00802 0.09923 0.0
C368 C 0.77395 0.98865 0.08054 0.0
C369 C 0.76635 0.95192 0.07696 0.0
C370 C 0.7848 0.93389 0.05925 0.0
C371 C 0.8105 0.95239 0.04477 0.0
C372 C 0.81795 0.98891 0.04805 0.0
C373 C 0.79986 0.00701 0.06586 0.0
H374 H 0.82467 0.93842 0.03103 0.0
H375 H 0.61919 0.10277 0.19759 0.0
H376 H 0.87895 0.06615 0.61946 0.0
H377 H 0.84628 0.00858 0.61221 0.0
H378 H 0.73391 0.04973 0.63814 0.0
H379 H 0.76614 0.10796 0.64506 0.0
H380 H 0.75495 0.97603 0.65118 0.0
H381 H 0.74288 0.05217 0.58709 0.0
H382 H 0.76691 0.09132 0.55681 0.0
H383 H 0.83788 0.00488 0.53027 0.0
H384 H 0.81545 0.96552 0.56088 0.0
H385 H 0.63163 0.83752 0.61091 0.0
H386 H 0.65736 0.89806 0.618 0.0
H387 H 0.76108 0.87584 0.57648 0.0
H388 H 0.73358 0.81613 0.56816 0.0
H389 H 0.74254 0.94194 0.57161 0.0
H390 H 0.76053 0.86725 0.6365 0.0
H391 H 0.73739 0.82674 0.6664 0.0
H392 H 0.65763 0.90867 0.6909 0.0
H393 H 0.68002 0.94947 0.66105 0.0
C394 C 0.84756 0.06279 0.62422 0.0
C395 C 0.82513 0.09172 0.63287 0.0
C396 C 0.82888 0.02992 0.61985 0.0
C397 C 0.78763 0.02516 0.62437 0.0
C398 C 0.76578 0.05303 0.63446 0.0
C399 C 0.78426 0.08621 0.63846 0.0
C400 C 0.7669 0.99179 0.61738 0.0
C401 C 0.75178 0.96869 0.63379 0.0
C402 C 0.76362 0.98205 0.59468 0.0
C403 C 0.77785 0.00598 0.5765 0.0
C404 C 0.76414 0.04164 0.57503 0.0
C405 C 0.7774 0.06387 0.55776 0.0
C406 C 0.80391 0.0506 0.54163 0.0
C407 C 0.81735 0.01512 0.54279 0.0
C408 C 0.80449 0.99288 0.56015 0.0
C409 C 0.6594 0.84606 0.60291 0.0
C410 C 0.6807 0.82253 0.58897 0.0
C411 C 0.67438 0.88042 0.60716 0.0
C412 C 0.71191 0.89121 0.59838 0.0
C413 C 0.73221 0.86816 0.58357 0.0
C414 C 0.71654 0.83413 0.57877 0.0
C415 C 0.73086 0.92568 0.60542 0.0
C416 C 0.74569 0.9491 0.58902 0.0
C417 C 0.73439 0.93554 0.62816 0.0
C418 C 0.72172 0.91129 0.64645 0.0
C419 C 0.73799 0.87656 0.64825 0.0
C420 C 0.725 0.85354 0.66519 0.0
C421 C 0.69599 0.86506 0.68053 0.0
C422 C 0.68008 0.89971 0.67903 0.0
C423 C 0.69295 0.92282 0.66213 0.0
H424 H 0.68591 0.84715 0.69358 0.0
H425 H 0.81409 0.06783 0.52824 0.0
H426 H 0.82874 0.67045 0.12303 0.0
H427 H 0.80346 0.60952 0.12221 0.0
H428 H 0.8001 0.61243 0.05044 0.0
H429 H 0.82449 0.67467 0.05109 0.0
H430 H 0.73221 0.58493 0.06645 0.0
H431 H 0.87155 0.56189 0.07776 0.0
H432 H 0.93912 0.56924 0.09449 0.0
H433 H 0.89231 0.53672 0.15804 0.0
H434 H 0.82431 0.52963 0.14177 0.0
H435 H 0.74228 0.37968 0.09299 0.0
H436 H 0.77451 0.43713 0.08671 0.0
H437 H 0.66518 0.49155 0.10679 0.0
H438 H 0.63167 0.43345 0.11219 0.0
H439 H 0.79459 0.48807 0.11142 0.0
H440 H 0.65846 0.57306 0.0801 0.0
H441 H 0.59423 0.56448 0.05996 0.0
H442 H 0.64128 0.46899 0.02945 0.0
H443 H 0.70597 0.47735 0.04906 0.0
C444 C 0.82304 0.65823 0.10698 0.0
C445 C 0.82864 0.67753 0.08709 0.0
C446 C 0.8088 0.62317 0.10657 0.0
C447 C 0.80045 0.60623 0.08627 0.0
C448 C 0.80662 0.62502 0.06628 0.0
C449 C 0.82079 0.66044 0.06667 0.0
C450 C 0.7834 0.56952 0.0864 0.0
C451 C 0.74596 0.56356 0.07608 0.0
C452 C 0.80175 0.54155 0.09868 0.0
C453 C 0.84274 0.5454 0.10854 0.0
C454 C 0.8756 0.55649 0.09533 0.0
C455 C 0.91399 0.56059 0.10473 0.0
C456 C 0.91999 0.5535 0.12732 0.0
C457 C 0.88762 0.54219 0.14054 0.0
C458 C 0.84915 0.53806 0.13123 0.0
C459 C 0.72494 0.40376 0.09628 0.0
C460 C 0.68429 0.4019 0.10317 0.0
C461 C 0.74353 0.4367 0.09261 0.0
C462 C 0.72223 0.46873 0.096 0.0
C463 C 0.68198 0.46716 0.10358 0.0
C464 C 0.66298 0.43398 0.10689 0.0
C465 C 0.74279 0.50349 0.09184 0.0
C466 C 0.78092 0.50915 0.10151 0.0
C467 C 0.72559 0.53072 0.0784 0.0
C468 C 0.68689 0.52559 0.06631 0.0
C469 C 0.65513 0.55029 0.06904 0.0
C470 C 0.61863 0.54547 0.05771 0.0
C471 C 0.61355 0.5161 0.04355 0.0
C472 C 0.64508 0.4916 0.04055 0.0
C473 C 0.6817 0.49637 0.05176 0.0
H474 H 0.5852 0.51247 0.03486 0.0
H475 H 0.94972 0.55673 0.13457 0.0
H476 H 0.35645 0.42901 0.35778 0.0
H477 H 0.32477 0.48784 0.36263 0.0
H478 H 0.23458 0.44045 0.40556 0.0
H479 H 0.26451 0.38147 0.39957 0.0
H480 H 0.20097 0.49091 0.38394 0.0
H481 H 0.3255 0.48118 0.4244 0.0
H482 H 0.39866 0.4703 0.42881 0.0
H483 H 0.42514 0.55994 0.38649 0.0
H484 H 0.35224 0.57059 0.381 0.0
H485 H 0.1542 0.66298 0.43388 0.0
H486 H 0.17764 0.60055 0.43051 0.0
H487 H 0.25585 0.63125 0.37626 0.0
H488 H 0.23288 0.69292 0.37938 0.0
H489 H 0.29373 0.58819 0.40791 0.0
H490 H 0.16883 0.59265 0.36497 0.0
H491 H 0.09563 0.60338 0.36075 0.0
H492 H 0.07054 0.5242 0.41081 0.0
H493 H 0.14369 0.51334 0.41552 0.0
C494 C 0.32932 0.43114 0.36781 0.0
C495 C 0.31305 0.40082 0.37839 0.0
C496 C 0.31145 0.46475 0.37076 0.0
C497 C 0.27809 0.46877 0.38509 0.0
C498 C 0.26045 0.43812 0.39458 0.0
C499 C 0.27758 0.40439 0.3911 0.0
C500 C 0.26292 0.50495 0.39118 0.0
C501 C 0.22127 0.51197 0.38947 0.0
C502 C 0.28932 0.53257 0.39848 0.0
C503 C 0.33328 0.52653 0.40215 0.0
C504 C 0.34688 0.49847 0.41592 0.0
C505 C 0.38831 0.49233 0.41862 0.0
C506 C 0.41647 0.51448 0.40806 0.0
C507 C 0.40329 0.54279 0.39468 0.0
C508 C 0.36191 0.54884 0.3917 0.0
C509 C 0.1765 0.65635 0.42133 0.0
C510 C 0.19148 0.68283 0.40682 0.0
C511 C 0.18974 0.62077 0.41939 0.0
C512 C 0.21835 0.61144 0.40308 0.0
C513 C 0.23381 0.63796 0.38895 0.0
C514 C 0.22039 0.67319 0.3907 0.0
C515 C 0.23224 0.57407 0.40017 0.0
C516 C 0.27359 0.56684 0.4026 0.0
C517 C 0.20562 0.54624 0.39381 0.0
C518 C 0.1617 0.55248 0.39078 0.0
C519 C 0.14771 0.57773 0.37519 0.0
C520 C 0.10623 0.5838 0.37269 0.0
C521 C 0.07845 0.56457 0.38555 0.0
C522 C 0.09209 0.53912 0.40089 0.0
C523 C 0.13355 0.53298 0.40347 0.0
H524 H 0.04636 0.56932 0.38361 0.0
H525 H 0.44851 0.50968 0.41023 0.0
H526 H 0.22159 0.10117 0.86999 0.0
H527 H 0.24715 0.04012 0.87404 0.0
H528 H 0.13641 0.0088 0.90668 0.0
H529 H 0.1104 0.07011 0.90262 0.0
H530 H 0.20623 0.98996 0.9304 0.0
H531 H 0.15456 0.97711 0.85646 0.0
H532 H 0.14472 0.99383 0.81714 0.0
H533 H 0.27247 0.98489 0.80552 0.0
H534 H 0.28318 0.9686 0.84486 0.0
H535 H 0.26615 0.80461 0.93406 0.0
H536 H 0.23167 0.86266 0.93068 0.0
H537 H 0.32601 0.89988 0.88665 0.0
H538 H 0.359 0.84125 0.88907 0.0
H539 H 0.25782 0.91379 0.86897 0.0
H540 H 0.31145 0.93114 0.94251 0.0
H541 H 0.32371 0.918 0.98215 0.0
H542 H 0.19599 0.92126 0.995 0.0
H543 H 0.18291 0.93383 0.95535 0.0
C544 C 0.2023 0.08117 0.87766 0.0
C545 C 0.16393 0.0905 0.88596 0.0
C546 C 0.21697 0.04626 0.87995 0.0
C547 C 0.19369 0.01992 0.89066 0.0
C548 C 0.15484 0.02876 0.89836 0.0
C549 C 0.1399 0.0637 0.89585 0.0
C550 C 0.21121 0.98391 0.89488 0.0
C551 C 0.21687 0.97287 0.917 0.0
C552 C 0.22605 0.96225 0.87738 0.0
C553 C 0.21969 0.97189 0.85367 0.0
C554 C 0.1806 0.97897 0.84557 0.0
C555 C 0.17486 0.98832 0.82326 0.0
C556 C 0.20796 0.99049 0.80885 0.0
C557 C 0.24686 0.98322 0.8167 0.0
C558 C 0.25278 0.97388 0.839 0.0
C559 C 0.28002 0.8257 0.92426 0.0
C560 C 0.31547 0.8189 0.91212 0.0
C561 C 0.26032 0.85881 0.92228 0.0
C562 C 0.27637 0.88593 0.90859 0.0
C563 C 0.31289 0.87947 0.89727 0.0
C564 C 0.33197 0.84614 0.89881 0.0
C565 C 0.25386 0.91995 0.90461 0.0
C566 C 0.24707 0.93061 0.88247 0.0
C567 C 0.23841 0.94142 0.92213 0.0
C568 C 0.24618 0.93307 0.94589 0.0
C569 C 0.28594 0.92869 0.95373 0.0
C570 C 0.29305 0.92145 0.97622 0.0
C571 C 0.26066 0.91883 0.99109 0.0
C572 C 0.22107 0.92339 0.98348 0.0
C573 C 0.21379 0.93053 0.96099 0.0
H574 H 0.26622 0.91321 0.00849 0.0
H575 H 0.20345 0.99774 0.79158 0.0
H576 H 0.36597 0.41659 0.45073 0.0
H577 H 0.39539 0.46752 0.47064 0.0
H578 H 0.48332 0.39706 0.50057 0.0
H579 H 0.45401 0.34597 0.48064 0.0
H580 H 0.41788 0.49199 0.51153 0.0
H581 H 0.5733 0.43002 0.49195 0.0
H582 H 0.60205 0.3857 0.46586 0.0
H583 H 0.51129 0.41197 0.41755 0.0
H584 H 0.48187 0.45639 0.44336 0.0
H585 H 0.61108 0.576 0.55094 0.0
H586 H 0.5778 0.5257 0.53228 0.0
H587 H 0.5026 0.59985 0.49594 0.0
H588 H 0.53652 0.65051 0.5144 0.0
H589 H 0.56062 0.50481 0.48681 0.0
H590 H 0.40484 0.56515 0.50289 0.0
H591 H 0.37305 0.61172 0.52631 0.0
H592 H 0.46132 0.5932 0.57742 0.0
H593 H 0.49317 0.54617 0.55446 0.0
C594 C 0.39064 0.4118 0.46222 0.0
C595 C 0.40814 0.37754 0.46395 0.0
C596 C 0.40741 0.4409 0.47356 0.0
C597 C 0.44224 0.43619 0.48649 0.0
C598 C 0.45683 0.40129 0.4903 0.0
C599 C 0.43984 0.37206 0.47909 0.0
C600 C 0.46659 0.46792 0.49298 0.0
C601 C 0.44898 0.4949 0.50604 0.0
C602 C 0.50695 0.47203 0.48548 0.0
C603 C 0.52542 0.44641 0.46959 0.0
C604 C 0.55973 0.42653 0.47569 0.0
C605 C 0.5761 0.40137 0.46097 0.0
C606 C 0.55876 0.3962 0.44002 0.0
C607 C 0.52481 0.41608 0.43376 0.0
C608 C 0.50821 0.44118 0.44844 0.0
C609 C 0.58847 0.58155 0.53835 0.0
C610 C 0.57633 0.61697 0.53398 0.0
C611 C 0.56948 0.55285 0.52775 0.0
C612 C 0.53746 0.55912 0.513 0.0
C613 C 0.52719 0.59458 0.50738 0.0
C614 C 0.54674 0.62343 0.51774 0.0
C615 C 0.51215 0.52857 0.50569 0.0
C616 C 0.52955 0.50187 0.49235 0.0
C617 C 0.47133 0.52517 0.51254 0.0
C618 C 0.45161 0.55246 0.52685 0.0
C619 C 0.4173 0.57091 0.51918 0.0
C620 C 0.39929 0.59739 0.53236 0.0
C621 C 0.41525 0.60551 0.5533 0.0
C622 C 0.44907 0.58698 0.56117 0.0
C623 C 0.46712 0.56043 0.54807 0.0
H624 H 0.40135 0.62611 0.56345 0.0
H625 H 0.57149 0.37662 0.4287 0.0
H626 H 0.89229 0.93226 0.07261 0.0
H627 H 0.91091 0.98797 0.05396 0.0
H628 H 0.97073 0.92707 0.00235 0.0
H629 H 0.9498 0.87114 0.02044 0.0
H630 H 0.97597 0.01779 0.04783 0.0
H631 H 0.97876 0.97151 0.95484 0.0
H632 H 0.94065 0.93077 0.93019 0.0
H633 H 0.83708 0.93855 0.9731 0.0
H634 H 0.87433 0.97973 0.99781 0.0
H635 H 0.09919 0.13328 0.98276 0.0
H636 H 0.0654 0.08553 0.00395 0.0
H637 H 0.95523 0.1045 0.96719 0.0
H638 H 0.98949 0.15073 0.94546 0.0
H639 H 0.96798 0.0384 0.96646 0.0
H640 H 0.96361 0.124 0.02401 0.0
H641 H 0.98807 0.17075 0.04972 0.0
H642 H 0.07039 0.09545 0.07921 0.0
H643 H 0.04674 0.0483 0.05347 0.0
C644 C 0.90872 0.93086 0.05701 0.0
C645 C 0.9194 0.89757 0.04778 0.0
C646 C 0.9196 0.9627 0.04645 0.0
C647 C 0.94206 0.96196 0.02663 0.0
C648 C 0.95247 0.92852 0.01729 0.0
C649 C 0.9406 0.89654 0.02759 0.0
C650 C 0.956 0.99612 0.01636 0.0
C651 C 0.97398 0.02231 0.03004 0.0
C652 C 0.95236 0.00281 0.99327 0.0
C653 C 0.92951 0.97847 0.97827 0.0
C654 C 0.94779 0.96468 0.95895 0.0
C655 C 0.92634 0.94148 0.94498 0.0
C656 C 0.88651 0.932 0.95011 0.0
C657 C 0.86797 0.94582 0.96917 0.0
C658 C 0.88925 0.96907 0.98318 0.0
C659 C 0.06754 0.12764 0.97966 0.0
C660 C 0.04685 0.14535 0.96253 0.0
C661 C 0.0482 0.10043 0.99173 0.0
C662 C 0.0077 0.09129 0.98713 0.0
C663 C 0.98654 0.11068 0.97088 0.0
C664 C 0.00603 0.13721 0.95858 0.0
C665 C 0.98829 0.05979 0.9979 0.0
C666 C 0.96953 0.03402 0.98429 0.0
C667 C 0.98909 0.05448 0.02118 0.0
C668 C 0.00368 0.0827 0.03666 0.0
C669 C 0.98718 0.11748 0.03585 0.0
C670 C 0.00084 0.14403 0.05046 0.0
C671 C 0.03085 0.1361 0.06605 0.0
C672 C 0.04718 0.10156 0.0671 0.0
C673 C 0.03362 0.07489 0.05252 0.0
H674 H 0.04139 0.15669 0.07735 0.0
H675 H 0.86999 0.914 0.93929 0.0
H676 H 0.88818 0.06518 0.57167 0.0
H677 H 0.91824 0.0164 0.55042 0.0
H678 H 0.94579 0.08967 0.49696 0.0
H679 H 0.91569 0.13913 0.51829 0.0
H680 H 0.92356 0.01841 0.48289 0.0
H681 H 0.01555 0.07774 0.53296 0.0
H682 H 0.03613 0.10236 0.56931 0.0
H683 H 0.02727 0.99747 0.59851 0.0
H684 H 0.00594 0.97233 0.56237 0.0
H685 H 0.08387 0.92863 0.43307 0.0
H686 H 0.04871 0.97505 0.45405 0.0
H687 H 0.02696 0.9 0.50739 0.0
H688 H 0.06262 0.85302 0.48636 0.0
H689 H 0.04461 0.97072 0.52192 0.0
H690 H 0.95512 0.91098 0.47118 0.0
H691 H 0.93436 0.88683 0.43473 0.0
H692 H 0.93861 0.9927 0.40662 0.0
H693 H 0.96005 0.01742 0.44284 0.0
C694 C 0.89983 0.07088 0.55517 0.0
C695 C 0.90035 0.10613 0.54679 0.0
C696 C 0.91697 0.04294 0.54308 0.0
C697 C 0.93503 0.04972 0.52243 0.0
C698 C 0.93212 0.08409 0.51299 0.0
C699 C 0.91484 0.11225 0.52513 0.0
C700 C 0.96083 0.02198 0.51213 0.0
C701 C 0.95026 0.00823 0.49126 0.0
C702 C 0.99519 0.00832 0.52337 0.0
C703 C 0.00879 0.02322 0.54501 0.0
C704 C 0.01772 0.05997 0.54716 0.0
C705 C 0.02955 0.07401 0.56773 0.0
C706 C 0.03292 0.0515 0.58623 0.0
C707 C 0.0246 0.01488 0.58417 0.0
C708 C 0.01267 0.00071 0.56365 0.0
C709 C 0.0723 0.92214 0.44947 0.0
C710 C 0.07541 0.88712 0.45799 0.0
C711 C 0.05214 0.94866 0.46138 0.0
C712 C 0.03441 0.94061 0.48195 0.0
C713 C 0.04023 0.90652 0.4914 0.0
C714 C 0.0607 0.87982 0.47946 0.0
C715 C 0.00746 0.96718 0.4926 0.0
C716 C 0.01784 0.98076 0.51356 0.0
C717 C 0.97296 0.98071 0.48141 0.0
C718 C 0.95952 0.966 0.45968 0.0
C719 C 0.95191 0.92908 0.45719 0.0
C720 C 0.93998 0.91529 0.43657 0.0
C721 C 0.93525 0.9382 0.41836 0.0
C722 C 0.94232 0.97498 0.42074 0.0
C723 C 0.95433 0.9889 0.44131 0.0
H724 H 0.92603 0.92747 0.40241 0.0
H725 H 0.04206 0.06242 0.60214 0.0
H726 H 0.40132 0.56625 0.92026 0.0
H727 H 0.42795 0.51178 0.93737 0.0
H728 H 0.47037 0.57358 0.99334 0.0
H729 H 0.44299 0.62857 0.97641 0.0
H730 H 0.53025 0.52864 0.96637 0.0
H731 H 0.40497 0.522 0.00758 0.0
H732 H 0.33098 0.52032 0.01277 0.0
H733 H 0.32304 0.42837 0.96991 0.0
H734 H 0.39702 0.42962 0.9644 0.0
H735 H 0.59799 0.40568 0.04498 0.0
H736 H 0.5688 0.45226 0.02188 0.0
H737 H 0.50835 0.37218 0.98218 0.0
H738 H 0.53691 0.32469 0.00602 0.0
H739 H 0.45679 0.42306 0.99636 0.0
H740 H 0.58437 0.42366 0.9608 0.0
H741 H 0.65863 0.42388 0.9575 0.0
H742 H 0.66363 0.52739 0.98873 0.0
H743 H 0.58948 0.52761 0.99259 0.0
C744 C 0.41569 0.56821 0.93642 0.0
C745 C 0.42029 0.60167 0.947 0.0
C746 C 0.43075 0.53705 0.94616 0.0
C747 C 0.45103 0.53878 0.96654 0.0
C748 C 0.45449 0.57186 0.97761 0.0
C749 C 0.43873 0.60312 0.96802 0.0
C750 C 0.47217 0.50666 0.97494 0.0
C751 C 0.51442 0.50566 0.97325 0.0
C752 C 0.45103 0.47622 0.98274 0.0
C753 C 0.40645 0.47615 0.98538 0.0
C754 C 0.38739 0.50165 -0.00091 0.0
C755 C 0.34549 0.50063 0.00221 0.0
C756 C 0.32232 0.47421 0.99171 0.0
C757 C 0.34103 0.44875 0.97808 0.0
C758 C 0.38294 0.44959 0.97497 0.0
C759 C 0.57921 0.3978 0.03103 0.0
C760 C 0.56952 0.36158 0.02733 0.0
C761 C 0.5628 0.42454 0.01772 0.0
C762 C 0.53678 0.4158 0.00017 0.0
C763 C 0.52858 0.37947 0.99562 0.0
C764 C 0.54514 0.3524 0.00906 0.0
C765 C 0.51534 0.44518 0.98844 0.0
C766 C 0.47289 0.44574 0.98929 0.0
C767 C 0.5364 0.47523 0.97975 0.0
C768 C 0.58118 0.47545 0.97721 0.0
C769 C 0.60126 0.44635 0.96716 0.0
C770 C 0.64339 0.44643 0.96515 0.0
C771 C 0.66585 0.47559 0.97295 0.0
C772 C 0.64621 0.50483 0.98267 0.0
C773 C 0.60409 0.50486 0.98476 0.0
H774 H 0.69847 0.47556 0.97141 0.0
H775 H 0.28988 0.47353 0.99409 0.0
H776 H 0.54377 0.24952 0.15208 0.0
H777 H 0.51431 0.24143 0.18899 0.0
H778 H 0.61665 0.29557 0.21832 0.0
H779 H 0.64713 0.30251 0.18115 0.0
H780 H 0.58691 0.24173 0.24545 0.0
H781 H 0.53318 0.34268 0.20476 0.0
H782 H 0.50207 0.37202 0.17221 0.0
H783 H 0.39792 0.30381 0.17828 0.0
H784 H 0.42868 0.27372 0.21069 0.0
H785 H 0.49426 0.31369 0.34125 0.0
H786 H 0.52891 0.303 0.30623 0.0
H787 H 0.42108 0.25432 0.27934 0.0
H788 H 0.38554 0.26556 0.31446 0.0
H789 H 0.45284 0.30106 0.25088 0.0
H790 H 0.50416 0.20333 0.29374 0.0
H791 H 0.53545 0.17404 0.32623 0.0
H792 H 0.64369 0.23583 0.31654 0.0
H793 H 0.61284 0.26589 0.28416 0.0
C794 C 0.56042 0.25892 0.16648 0.0
C795 C 0.59739 0.27701 0.1639 0.0
C796 C 0.54354 0.25438 0.18751 0.0
C797 C 0.56277 0.26877 0.20629 0.0
C798 C 0.60123 0.28448 0.20398 0.0
C799 C 0.61861 0.28845 0.18282 0.0
C800 C 0.5407 0.27061 0.22774 0.0
C801 C 0.55779 0.25497 0.24674 0.0
C802 C 0.50225 0.28722 0.22925 0.0
C803 C 0.48338 0.30575 0.21002 0.0
C804 C 0.50373 0.33382 0.19908 0.0
C805 C 0.48616 0.35059 0.18066 0.0
C806 C 0.44808 0.33973 0.17315 0.0
C807 C 0.42743 0.31217 0.1841 0.0
C808 C 0.4449 0.29527 0.20251 0.0
C809 C 0.47775 0.30052 0.328 0.0
C810 C 0.43697 0.2905 0.33073 0.0
C811 C 0.49783 0.29419 0.30799 0.0
C812 C 0.47785 0.27731 0.29029 0.0
C813 C 0.43715 0.26722 0.29287 0.0
C814 C 0.41687 0.2737 0.31293 0.0
C815 C 0.49896 0.27219 0.26874 0.0
C816 C 0.48176 0.28744 0.24965 0.0
C817 C 0.53726 0.25528 0.26723 0.0
C818 C 0.55604 0.23706 0.28661 0.0
C819 C 0.53453 0.21086 0.29863 0.0
C820 C 0.5522 0.19409 0.31701 0.0
C821 C 0.5915 0.20312 0.32347 0.0
C822 C 0.61324 0.22888 0.31152 0.0
C823 C 0.59569 0.24576 0.29313 0.0
H824 H 0.60513 0.19011 0.33772 0.0
H825 H 0.43454 0.35272 0.15888 0.0
H826 H 0.1521 0.1992 0.81224 0.0
H827 H 0.12232 0.21419 0.77597 0.0
H828 H 0.04175 0.2893 0.80802 0.0
H829 H 0.07062 0.27353 0.84413 0.0
H830 H 0.00095 0.23982 0.78662 0.0
H831 H 0.11113 0.31764 0.76851 0.0
H832 H 0.18244 0.33568 0.76379 0.0
H833 H 0.19995 0.25136 0.7161 0.0
H834 H 0.12888 0.23261 0.72059 0.0
H835 H 0.89228 0.25635 0.68505 0.0
H836 H 0.93175 0.27376 0.7179 0.0
H837 H 0.03004 0.20633 0.69581 0.0
H838 H 0.9918 0.19018 0.66282 0.0
H839 H 0.06034 0.26427 0.71239 0.0
H840 H 0.95699 0.17942 0.73594 0.0
H841 H 0.88694 0.15798 0.74094 0.0
H842 H 0.85875 0.25199 0.77927 0.0
H843 H 0.92856 0.27415 0.77427 0.0
C844 C 0.12911 0.21985 0.8113 0.0
C845 C 0.11338 0.23518 0.83076 0.0
C846 C 0.11213 0.22848 0.79063 0.0
C847 C 0.07967 0.25282 0.78931 0.0
C848 C 0.06661 0.2704 0.80866 0.0
C849 C 0.08314 0.26146 0.82923 0.0
C850 C 0.05491 0.25519 0.7688 0.0
C851 C 0.01379 0.24607 0.77045 0.0
C852 C 0.07182 0.26242 0.74767 0.0
C853 C 0.11467 0.27358 0.74499 0.0
C854 C 0.13024 0.30276 0.75713 0.0
C855 C 0.17061 0.31315 0.75448 0.0
C856 C 0.19571 0.2946 0.73973 0.0
C857 C 0.18048 0.26569 0.72753 0.0
C858 C 0.14012 0.25523 0.73008 0.0
C859 C 0.92236 0.24541 0.68723 0.0
C860 C 0.9388 0.22175 0.67142 0.0
C861 C 0.9449 0.25535 0.70597 0.0
C862 C 0.98376 0.24104 0.70947 0.0
C863 C 0.0003 0.21794 0.69347 0.0
C864 C 0.97821 0.20854 0.67464 0.0
C865 C 0.00673 0.24813 0.73024 0.0
C866 C 0.04743 0.25888 0.72865 0.0
C867 C 0.98967 0.24196 0.75149 0.0
C868 C 0.94777 0.22863 0.7545 0.0
C869 C 0.93574 0.19561 0.7453 0.0
C870 C 0.89612 0.18333 0.74815 0.0
C871 C 0.86837 0.20367 0.76035 0.0
C872 C 0.88024 0.2363 0.76978 0.0
C873 C 0.91982 0.24873 0.76695 0.0
H874 H 0.83771 0.19411 0.76255 0.0
H875 H 0.22695 0.30269 0.73771 0.0
H876 H 0.3615 0.7463 0.81235 0.0
H877 H 0.39073 0.76033 0.7759 0.0
H878 H 0.51071 0.75038 0.80339 0.0
H879 H 0.48208 0.73762 0.83975 0.0
H880 H 0.5109 0.80045 0.77254 0.0
H881 H 0.46204 0.67854 0.77897 0.0
H882 H 0.41055 0.63187 0.78578 0.0
H883 H 0.33873 0.6731 0.73205 0.0
H884 H 0.3896 0.72034 0.72512 0.0
H885 H 0.62737 0.72765 0.68226 0.0
H886 H 0.59292 0.74366 0.71704 0.0
H887 H 0.48092 0.75704 0.68118 0.0
H888 H 0.51471 0.74057 0.64668 0.0
H889 H 0.47175 0.71212 0.71469 0.0
H890 H 0.53128 0.8286 0.70489 0.0
H891 H 0.58631 0.87236 0.69917 0.0
H892 H 0.64275 0.83803 0.75986 0.0
H893 H 0.58849 0.79362 0.76576 0.0
C894 C 0.39407 0.74788 0.81073 0.0
C895 C 0.41939 0.74007 0.82889 0.0
C896 C 0.41075 0.7558 0.78988 0.0
C897 C 0.45293 0.7556 0.78683 0.0
C898 C 0.47811 0.75052 0.80529 0.0
C899 C 0.46157 0.74292 0.82609 0.0
C900 C 0.47112 0.75665 0.76426 0.0
C901 C 0.50241 0.78117 0.75984 0.0
C902 C 0.45982 0.73167 0.74765 0.0
C903 C 0.42933 0.70321 0.75172 0.0
C904 C 0.43512 0.67779 0.76871 0.0
C905 C 0.40608 0.65123 0.77258 0.0
C906 C 0.37132 0.6496 0.7594 0.0
C907 C 0.36561 0.67446 0.74228 0.0
C908 C 0.39453 0.70113 0.73838 0.0
C909 C 0.59559 0.73464 0.68177 0.0
C910 C 0.57363 0.73226 0.6618 0.0
C911 C 0.57596 0.74395 0.70162 0.0
C912 C 0.53429 0.75153 0.70169 0.0
C913 C 0.513 0.75111 0.68154 0.0
C914 C 0.5324 0.74156 0.66184 0.0
C915 C 0.5118 0.75585 0.72289 0.0
C916 C 0.47979 0.73203 0.72711 0.0
C917 C 0.52302 0.78108 0.73936 0.0
C918 C 0.55589 0.80758 0.73569 0.0
C919 C 0.55561 0.83013 0.71691 0.0
C920 C 0.58664 0.85511 0.71366 0.0
C921 C 0.61797 0.85797 0.72915 0.0
C922 C 0.61843 0.83579 0.74788 0.0
C923 C 0.58754 0.81073 0.7512 0.0
H924 H 0.64187 0.87741 0.72671 0.0
H925 H 0.34888 0.62901 0.76242 0.0
H926 H 0.98645 0.76478 0.15697 0.0
H927 H 0.0162 0.74812 0.19237 0.0
H928 H 0.89714 0.7369 0.22102 0.0
H929 H 0.86678 0.75449 0.18544 0.0
H930 H 0.9422 0.78029 0.24501 0.0
H931 H 0.96096 0.66381 0.21541 0.0
H932 H 0.98023 0.61797 0.1878 0.0
H933 H 0.10404 0.65228 0.19144 0.0
H934 H 0.08546 0.69873 0.21882 0.0
H935 H 0.02906 0.74944 0.34808 0.0
H936 H 0.99489 0.73123 0.31396 0.0
H937 H 0.10176 0.75723 0.27601 0.0
H938 H 0.13669 0.77493 0.31043 0.0
H939 H 0.05705 0.69747 0.25871 0.0
H940 H 0.03441 0.82014 0.28283 0.0
H941 H 0.01513 0.86633 0.31025 0.0
H942 H 0.89709 0.81914 0.31624 0.0
H943 H 0.91593 0.77232 0.28907 0.0
C944 C 0.96639 0.75829 0.17066 0.0
C945 C 0.92417 0.76153 0.16845 0.0
C946 C 0.98355 0.74831 0.19088 0.0
C947 C 0.95895 0.74098 0.20933 0.0
C948 C 0.91668 0.74234 0.20693 0.0
C949 C 0.89938 0.75237 0.18661 0.0
C950 C 0.97775 0.7369 0.23158 0.0
C951 C 0.96654 0.76144 0.24816 0.0
C952 C 0.01028 0.71298 0.23552 0.0
C953 C 0.02174 0.68494 0.21911 0.0
C954 C 0.99226 0.66178 0.21022 0.0
C955 C 0.00307 0.63564 0.19462 0.0
C956 C 0.04332 0.63224 0.18785 0.0
C957 C 0.07287 0.65494 0.19671 0.0
C958 C 0.06222 0.68114 0.2123 0.0
C959 C 0.04562 0.75058 0.33252 0.0
C960 C 0.08523 0.76429 0.33177 0.0
C961 C 0.0261 0.74002 0.31308 0.0
C962 C 0.04554 0.74358 0.29248 0.0
C963 C 0.08626 0.75438 0.29181 0.0
C964 C 0.10612 0.76459 0.31141 0.0
C965 C 0.02161 0.74107 0.27174 0.0
C966 C 0.03206 0.7156 0.25556 0.0
C967 C 0.98826 0.7641 0.26805 0.0
C968 C 0.97672 0.79254 0.28412 0.0
C969 C 0.00444 0.81949 0.29011 0.0
C970 C 0.99359 0.84579 0.30559 0.0
C971 C 0.95495 0.84561 0.31503 0.0
C972 C 0.92704 0.8192 0.30894 0.0
C973 C 0.93777 0.79279 0.2935 0.0
H974 H 0.9466 0.86599 0.32702 0.0
H975 H 0.05162 0.612 0.17577 0.0
H976 H 0.51603 0.32927 0.44884 0.0
H977 H 0.56731 0.31535 0.47667 0.0
H978 H 0.56938 0.20523 0.45426 0.0
H979 H 0.51685 0.21896 0.42691 0.0
H980 H 0.55912 0.20555 0.49614 0.0
H981 H 0.64895 0.26674 0.44763 0.0
H982 H 0.67737 0.31487 0.42427 0.0
H983 H 0.68705 0.38342 0.48144 0.0
H984 H 0.6572 0.33624 0.50504 0.0
H985 H 0.74285 0.15638 0.55223 0.0
H986 H 0.68657 0.16918 0.52707 0.0
H987 H 0.66182 0.26703 0.56291 0.0
H988 H 0.71763 0.25389 0.58851 0.0
H989 H 0.6826 0.27389 0.51591 0.0
H990 H 0.59199 0.2086 0.56379 0.0
H991 H 0.5701 0.15635 0.5859 0.0
H992 H 0.5709 0.0907 0.52717 0.0
H993 H 0.59336 0.14245 0.50475 0.0
C994 C 0.5286 0.30244 0.44928 0.0
C995 C 0.5128 0.27522 0.43563 0.0
C996 C 0.55779 0.29443 0.4653 0.0
C997 C 0.57226 0.25918 0.46763 0.0
C998 C 0.55845 0.23255 0.45291 0.0
C999 C 0.52874 0.24043 0.43717 0.0
C1000 C 0.59848 0.24927 0.48672 0.0
C1001 C 0.58643 0.22029 0.5002 0.0
C1002 C 0.63363 0.26899 0.49245 0.0
C1003 C 0.65023 0.29799 0.47809 0.0
C1004 C 0.65643 0.29227 0.45519 0.0
C1005 C 0.67288 0.3194 0.4419 0.0
C1006 C 0.68391 0.35221 0.45135 0.0
C1007 C 0.67849 0.35798 0.47413 0.0
C1008 C 0.66157 0.33112 0.48745 0.0
C1009 C 0.72429 0.17983 0.55528 0.0
C1010 C 0.73436 0.20411 0.57228 0.0
C1011 C 0.69231 0.18717 0.54089 0.0
C1012 C 0.67037 0.21914 0.54311 0.0
C1013 C 0.6785 0.2422 0.56102 0.0
C1014 C 0.71005 0.2345 0.57573 0.0
C1015 C 0.64305 0.23049 0.52502 0.0
C1016 C 0.65502 0.25959 0.51176 0.0
C1017 C 0.60845 0.21048 0.51917 0.0
C1018 C 0.59467 0.17937 0.53262 0.0
C1019 C 0.58782 0.18296 0.55561 0.0
C1020 C 0.57524 0.15344 0.5682 0.0
C1021 C 0.56919 0.12021 0.55796 0.0
C1022 C 0.57562 0.11645 0.53509 0.0
C1023 C 0.58822 0.14589 0.52243 0.0
H1024 H 0.55946 0.09738 0.56773 0.0
H1025 H 0.69675 0.37314 0.44104 0.0
H1026 H 0.96305 0.23892 0.90066 0.0
H1027 H 0.90092 0.25822 0.91917 0.0
H1028 H 0.96786 0.33807 0.95567 0.0
H1029 H 0.0299 0.31969 0.93699 0.0
H1030 H 0.93423 0.27177 0.9792 0.0
H1031 H 0.89942 0.37085 0.93146 0.0
H1032 H 0.88387 0.39949 0.8955 0.0
H1033 H 0.7821 0.32923 0.88691 0.0
H1034 H 0.7974 0.29977 0.92267 0.0
H1035 H 0.78217 0.30663 0.05924 0.0
H1036 H 0.83644 0.3146 0.03193 0.0
H1037 H 0.76014 0.26967 0.98078 0.0
H1038 H 0.70573 0.26241 0.00765 0.0
H1039 H 0.79913 0.32405 0.96422 0.0
H1040 H 0.83422 0.22008 0.00607 0.0
H1041 H 0.84982 0.18252 0.03872 0.0
H1042 H 0.94996 0.25105 0.05498 0.0
H1043 H 0.93457 0.28938 0.02259 0.0
C1044 C 0.9643 0.26182 0.91174 0.0
C1045 C 0.00164 0.27703 0.91788 0.0
C1046 C 0.9287 0.2728 0.92232 0.0
C1047 C 0.93014 0.29913 0.93898 0.0
C1048 C 0.96632 0.3176 0.94288 0.0
C1049 C 0.00177 0.30693 0.93221 0.0
C1050 C 0.89761 0.30085 0.95574 0.0
C1051 C 0.90491 0.28394 0.97619 0.0
C1052 C 0.85905 0.31519 0.95119 0.0
C1053 C 0.84983 0.33285 0.92966 0.0
C1054 C 0.87399 0.36123 0.9218 0.0
C1055 C 0.86515 0.37769 0.90147 0.0
C1056 C 0.83209 0.36613 0.8889 0.0
C1057 C 0.80773 0.33814 0.89665 0.0
C1058 C 0.81645 0.32157 0.91697 0.0
C1059 C 0.77698 0.29845 0.04218 0.0
C1060 C 0.73966 0.2837 0.0357 0.0
C1061 C 0.80801 0.30301 0.02659 0.0
C1062 C 0.80245 0.29246 0.00433 0.0
C1063 C 0.76508 0.27818 0.9978 0.0
C1064 C 0.73404 0.27388 0.01328 0.0
C1065 C 0.83582 0.29519 0.98791 0.0
C1066 C 0.82864 0.31248 0.96747 0.0
C1067 C 0.87435 0.28017 0.99213 0.0
C1068 C 0.88285 0.25793 0.01209 0.0
C1069 C 0.85922 0.22744 0.01678 0.0
C1070 C 0.86811 0.20594 0.0352 0.0
C1071 C 0.90076 0.21447 0.04897 0.0
C1072 C 0.92459 0.24455 0.04434 0.0
C1073 C 0.91578 0.26618 0.02596 0.0
H1074 H 0.9077 0.1977 0.06316 0.0
H1075 H 0.82528 0.37892 0.87317 0.0
H1076 H 0.03099 0.19 0.57396 0.0
H1077 H 0.08704 0.20314 0.54875 0.0
H1078 H 0.02035 0.29228 0.52141 0.0
H1079 H 0.96469 0.28 0.54683 0.0
H1080 H 0.08457 0.19887 0.50482 0.0
H1081 H 0.08539 0.35448 0.50011 0.0
H1082 H 0.07301 0.40658 0.52453 0.0
H1083 H 0.10279 0.34309 0.58184 0.0
H1084 H 0.11586 0.29079 0.55776 0.0
H1085 H 0.21637 0.29956 0.41864 0.0
H1086 H 0.1546 0.29421 0.44151 0.0
H1087 H 0.22138 0.23452 0.49074 0.0
H1088 H 0.28274 0.24044 0.46854 0.0
H1089 H 0.15316 0.31584 0.49308 0.0
H1090 H 0.15525 0.16222 0.49935 0.0
H1091 H 0.17187 0.10978 0.47596 0.0
H1092 H 0.13996 0.16908 0.41729 0.0
H1093 H 0.12335 0.22185 0.4403 0.0
C1094 C 0.0286 0.21295 0.56298 0.0
C1095 C 0.99317 0.2338 0.56236 0.0
C1096 C 0.06057 0.22025 0.54846 0.0
C1097 C 0.05782 0.2486 0.53315 0.0
C1098 C 0.02335 0.2705 0.53323 0.0
C1099 C 0.99146 0.26333 0.54778 0.0
C1100 C 0.08965 0.25369 0.51606 0.0
C1101 C 0.09973 0.22441 0.50242 0.0
C1102 C 0.10867 0.28726 0.51248 0.0
C1103 C 0.10111 0.31861 0.52713 0.0
C1104 C 0.08938 0.35168 0.51792 0.0
C1105 C 0.08224 0.38123 0.5317 0.0
C1106 C 0.08695 0.3781 0.55473 0.0
C1107 C 0.09896 0.34543 0.56401 0.0
C1108 C 0.10616 0.31581 0.5503 0.0
C1109 C 0.21761 0.28522 0.4343 0.0
C1110 C 0.25425 0.27069 0.44196 0.0
C1111 C 0.18255 0.28231 0.44731 0.0
C1112 C 0.18377 0.264 0.46772 0.0
C1113 C 0.22003 0.24874 0.47502 0.0
C1114 C 0.25501 0.25226 0.46236 0.0
C1115 C 0.14782 0.2611 0.4821 0.0
C1116 C 0.13728 0.29061 0.49533 0.0
C1117 C 0.12859 0.22774 0.48547 0.0
C1118 C 0.13839 0.19605 0.47154 0.0
C1119 C 0.15178 0.16404 0.48145 0.0
C1120 C 0.16133 0.1343 0.46826 0.0
C1121 C 0.15727 0.13618 0.44513 0.0
C1122 C 0.14353 0.16777 0.43517 0.0
C1123 C 0.13419 0.19764 0.44828 0.0
H1124 H 0.16463 0.11313 0.43494 0.0
H1125 H 0.08141 0.40101 0.56537 0.0
H1126 H 0.45742 0.29236 0.07274 0.0
H1127 H 0.39558 0.26665 0.05777 0.0
H1128 H 0.44413 0.16004 0.06682 0.0
H1129 H 0.50729 0.1861 0.08053 0.0
H1130 H 0.42197 0.1639 0.02779 0.0
H1131 H 0.35315 0.19114 0.09373 0.0
H1132 H 0.33163 0.2256 0.12669 0.0
H1133 H 0.27674 0.30473 0.0845 0.0
H1134 H 0.29845 0.27109 0.05126 0.0
H1135 H 0.19466 0.17265 0.98474 0.0
H1136 H 0.24337 0.16376 0.01476 0.0
H1137 H 0.33992 0.19676 0.97081 0.0
H1138 H 0.2914 0.20398 0.94049 0.0
H1139 H 0.28247 0.21123 0.03452 0.0
H1140 H 0.42938 0.16873 0.98612 0.0
H1141 H 0.4482 0.12706 0.95597 0.0
H1142 H 0.34178 0.06423 0.96873 0.0
H1143 H 0.3226 0.10518 -0.00082 0.0
C1144 C 0.45431 0.26342 0.07232 0.0
C1145 C 0.4871 0.24119 0.07762 0.0
C1146 C 0.41877 0.24862 0.0638 0.0
C1147 C 0.41495 0.21126 0.06112 0.0
C1148 C 0.4464 0.18892 0.06851 0.0
C1149 C 0.48235 0.20378 0.07648 0.0
C1150 C 0.38141 0.19642 0.04745 0.0
C1151 C 0.39131 0.17382 0.0295 0.0
C1152 C 0.34097 0.20812 0.05002 0.0
C1153 C 0.32756 0.22855 0.06996 0.0
C1154 C 0.33669 0.21599 0.09146 0.0
C1155 C 0.32443 0.23538 0.1102 0.0
C1156 C 0.30285 0.26734 0.10769 0.0
C1157 C 0.29342 0.27994 0.08642 0.0
C1158 C 0.30562 0.26067 0.06761 0.0
C1159 C 0.22648 0.1771 0.98138 0.0
C1160 C 0.23939 0.18914 0.96037 0.0
C1161 C 0.25425 0.1721 0.99856 0.0
C1162 C 0.29538 0.17955 0.99514 0.0
C1163 C 0.30851 0.19005 0.97381 0.0
C1164 C 0.28079 0.19433 0.95647 0.0
C1165 C 0.32375 0.18047 0.01428 0.0
C1166 C 0.31283 0.20046 0.0332 0.0
C1167 C 0.36279 0.16516 0.01309 0.0
C1168 C 0.37445 0.14019 0.9949 0.0
C1169 C 0.41012 0.1459 0.98261 0.0
C1170 C 0.42082 0.12243 0.96544 0.0
C1171 C 0.39617 0.09306 0.96042 0.0
C1172 C 0.3608 0.08705 0.97259 0.0
C1173 C 0.34997 0.11042 0.98979 0.0
H1174 H 0.4045 0.07494 0.9471 0.0
H1175 H 0.29341 0.28233 0.12222 0.0
H1176 H 0.53162 0.80833 0.56007 0.0
H1177 H 0.47604 0.83732 0.54023 0.0
H1178 H 0.41123 0.73671 0.53894 0.0
H1179 H 0.46598 0.70805 0.55951 0.0
H1180 H 0.45371 0.82557 0.50034 0.0
H1181 H 0.31305 0.74694 0.53365 0.0
H1182 H 0.28751 0.72349 0.56937 0.0
H1183 H 0.35931 0.80063 0.60482 0.0
H1184 H 0.38488 0.82489 0.56932 0.0
H1185 H 0.29945 0.79513 0.42176 0.0
H1186 H 0.35552 0.79974 0.44815 0.0
H1187 H 0.28031 0.86173 0.49258 0.0
H1188 H 0.22396 0.85607 0.46662 0.0
H1189 H 0.30711 0.80749 0.51362 0.0
H1190 H 0.36905 0.89771 0.47066 0.0
H1191 H 0.39402 0.92866 0.43711 0.0
H1192 H 0.47714 0.84246 0.42472 0.0
H1193 H 0.45269 0.81094 0.45824 0.0
C1194 C 0.50497 0.79269 0.55606 0.0
C1195 C 0.50304 0.75595 0.56132 0.0
C1196 C 0.47336 0.80923 0.54462 0.0
C1197 C 0.43942 0.78928 0.53806 0.0
C1198 C 0.4367 0.75292 0.54418 0.0
C1199 C 0.46802 0.7365 0.55596 0.0
C1200 C 0.40863 0.80538 0.52315 0.0
C1201 C 0.42162 0.82198 0.50336 0.0
C1202 C 0.36674 0.80177 0.52734 0.0
C1203 C 0.35107 0.7876 0.54879 0.0
C1204 C 0.32321 0.75906 0.54905 0.0
C1205 C 0.30877 0.74558 0.56927 0.0
C1206 C 0.32184 0.76051 0.58935 0.0
C1207 C 0.3493 0.78902 0.58925 0.0
C1208 C 0.36382 0.80261 0.56909 0.0
C1209 C 0.29541 0.81073 0.43681 0.0
C1210 C 0.25738 0.8248 0.44236 0.0
C1211 C 0.32746 0.81346 0.45189 0.0
C1212 C 0.32201 0.83086 0.47247 0.0
C1213 C 0.28508 0.84785 0.47695 0.0
C1214 C 0.25296 0.84464 0.4621 0.0
C1215 C 0.35223 0.82649 0.49048 0.0
C1216 C 0.33915 0.81189 0.51081 0.0
C1217 C 0.39386 0.8331 0.48711 0.0
C1218 C 0.40887 0.85187 0.46693 0.0
C1219 C 0.39253 0.88525 0.46073 0.0
C1220 C 0.40666 0.90294 0.44175 0.0
C1221 C 0.43703 0.88747 0.42874 0.0
C1222 C 0.45358 0.85439 0.4348 0.0
C1223 C 0.43972 0.83667 0.45386 0.0
H1224 H 0.4478 0.90115 0.41399 0.0
H1225 H 0.31065 0.75002 0.60498 0.0
H1226 H 0.97052 0.71375 0.0471 0.0
H1227 H 0.02885 0.69275 0.02693 0.0
H1228 H 0.10522 0.76549 0.06388 0.0
H1229 H 0.04558 0.78868 0.08345 0.0
H1230 H 0.12225 0.773 0.02372 0.0
H1231 H 0.11356 0.66977 0.0675 0.0
H1232 H 0.08305 0.61889 0.08765 0.0
H1233 H 0.04382 0.57287 0.02582 0.0
H1234 H 0.07354 0.62374 0.00528 0.0
H1235 H 0.27047 0.64728 0.96265 0.0
H1236 H 0.21948 0.65363 0.9915 0.0
H1237 H 0.15756 0.73287 0.95177 0.0
H1238 H 0.20963 0.72752 0.92295 0.0
H1239 H 0.14447 0.6474 -0.00077 0.0
H1240 H 0.12875 0.80228 0.98411 0.0
H1241 H 0.17089 0.85239 0.97044 0.0
H1242 H 0.27847 0.7928 0.98555 0.0
H1243 H 0.23711 0.74261 -0.0004 0.0
C1244 C -0.0003 0.7251 0.05131 0.0
C1245 C 0.00318 0.75346 0.06667 0.0
C1246 C 0.03336 0.71259 0.03987 0.0
C1247 C 0.0717 0.72722 0.04392 0.0
C1248 C 0.07588 0.75383 0.06039 0.0
C1249 C 0.04184 0.76692 0.07168 0.0
C1250 C 0.10576 0.71761 0.02893 0.0
C1251 C 0.1273 0.74547 0.01857 0.0
C1252 C 0.11357 0.68161 0.02262 0.0
C1253 C 0.09567 0.65074 0.03484 0.0
C1254 C 0.09821 0.64893 0.05819 0.0
C1255 C 0.08107 0.62007 0.06969 0.0
C1256 C 0.06147 0.5927 0.05802 0.0
C1257 C 0.05903 0.5941 0.03483 0.0
C1258 C 0.0761 0.62292 0.02324 0.0
C1259 C 0.24545 0.66544 0.95974 0.0
C1260 C 0.24442 0.68736 0.94066 0.0
C1261 C 0.21627 0.66902 0.9763 0.0
C1262 C 0.18539 0.69447 0.97409 0.0
C1263 C 0.18182 0.7137 0.95404 0.0
C1264 C 0.21126 0.71028 0.93743 0.0
C1265 C 0.15922 0.70291 0.99345 0.0
C1266 C 0.13947 0.67483 0.00459 0.0
C1267 C 0.15478 0.73848 0.00135 0.0
C1268 C 0.17976 0.76854 0.9927 0.0
C1269 C 0.16139 0.79992 0.98456 0.0
C1270 C 0.18514 0.82834 0.97677 0.0
C1271 C 0.22729 0.82575 0.97718 0.0
C1272 C 0.24581 0.79473 0.98527 0.0
C1273 C 0.22223 0.76627 0.9931 0.0
H1274 H 0.24567 0.84772 0.9712 0.0
H1275 H 0.04819 0.57038 0.06696 0.0
H1276 H 0.03978 0.70357 0.44846 0.0
H1277 H 0.98247 0.68141 0.46954 0.0
H1278 H 0.90486 0.75854 0.43726 0.0
H1279 H 0.96291 0.78216 0.41664 0.0
H1280 H 0.8975 0.76494 0.47953 0.0
H1281 H 0.89354 0.66494 0.43067 0.0
H1282 H 0.92032 0.61414 0.40891 0.0
H1283 H 0.95749 0.56173 0.46914 0.0
H1284 H 0.93146 0.61246 0.49127 0.0
H1285 H 0.72526 0.65506 0.52676 0.0
H1286 H 0.78257 0.65603 0.50135 0.0
H1287 H 0.8523 0.71528 0.54966 0.0
H1288 H 0.79425 0.71542 0.57504 0.0
H1289 H 0.85948 0.63928 0.49715 0.0
H1290 H 0.8982 0.78471 0.52299 0.0
H1291 H 0.86593 0.83626 0.5417 0.0
H1292 H 0.74894 0.79864 0.52127 0.0
H1293 H 0.78056 0.74724 0.50211 0.0
C1294 C 0.0104 0.71542 0.4454 0.0
C1295 C 0.00612 0.74516 0.43115 0.0
C1296 C 0.97745 0.70242 0.4574 0.0
C1297 C 0.93929 0.71833 0.45508 0.0
C1298 C 0.93414 0.74601 0.43942 0.0
C1299 C 0.9673 0.75933 0.42752 0.0
C1300 C 0.90656 0.70928 0.47104 0.0
C1301 C 0.88906 0.73743 0.48321 0.0
C1302 C 0.89533 0.67342 0.47587 0.0
C1303 C 0.91078 0.64268 0.46263 0.0
C1304 C 0.90767 0.64271 0.43928 0.0
C1305 C 0.92268 0.6139 0.42688 0.0
C1306 C 0.94067 0.58476 0.43763 0.0
C1307 C 0.94356 0.58433 0.46083 0.0
C1308 C 0.92862 0.61308 0.47332 0.0
C1309 C 0.75308 0.66767 0.5322 0.0
C1310 C 0.75493 0.68614 0.55261 0.0
C1311 C 0.78594 0.66796 0.51769 0.0
C1312 C 0.82122 0.68665 0.52335 0.0
C1313 C 0.8249 0.70139 0.54481 0.0
C1314 C 0.79184 0.70127 0.55936 0.0
C1315 C 0.85122 0.69489 0.50575 0.0
C1316 C 0.8681 0.6667 0.49334 0.0
C1317 C 0.86107 0.73078 0.5002 0.0
C1318 C 0.84175 0.76193 0.51134 0.0
C1319 C 0.86561 0.78753 0.52242 0.0
C1320 C 0.84743 0.81672 0.53309 0.0
C1321 C 0.80541 0.82066 0.53272 0.0
C1322 C 0.78148 0.7955 0.52159 0.0
C1323 C 0.79951 0.76635 0.51082 0.0
H1324 H 0.79142 0.84327 0.54099 0.0
H1325 H 0.95231 0.5625 0.42799 0.0
H1326 H 0.70947 0.77743 0.07983 0.0
H1327 H 0.65252 0.77239 0.05394 0.0
H1328 H 0.71773 0.83596 0.00575 0.0
H1329 H 0.77349 0.84245 0.03171 0.0
H1330 H 0.64287 0.84885 0.00095 0.0
H1331 H 0.72301 0.74273 0.0069 0.0
H1332 H 0.75601 0.69221 0.02619 0.0
H1333 H 0.64003 0.65173 0.04637 0.0
H1334 H 0.60634 0.70245 0.02755 0.0
H1335 H 0.53837 0.70793 0.92005 0.0
H1336 H 0.59617 0.72812 0.94229 0.0
H1337 H 0.52032 0.80674 0.97453 0.0
H1338 H 0.46346 0.78803 0.95195 0.0
H1339 H 0.60522 0.72264 0.9847 0.0
H1340 H 0.57145 0.8759 0.99445 0.0
H1341 H 0.54686 0.92614 0.97144 0.0
H1342 H 0.58467 0.87104 0.91222 0.0
H1343 H 0.61 0.8207 0.93487 0.0
C1344 C 0.71102 0.79135 0.06403 0.0
C1345 C 0.74631 0.80967 0.05762 0.0
C1346 C 0.67868 0.78811 0.04914 0.0
C1347 C 0.68148 0.80276 0.02761 0.0
C1348 C 0.71501 0.82403 0.02212 0.0
C1349 C 0.747 0.82759 0.037 0.0
C1350 C 0.65167 0.79351 0.01007 0.0
C1351 C 0.63446 0.82128 0.99746 0.0
C1352 C 0.64205 0.75741 0.00486 0.0
C1353 C 0.66216 0.72663 0.01602 0.0
C1354 C 0.70454 0.72321 0.01558 0.0
C1355 C 0.72338 0.69453 0.02643 0.0
C1356 C 0.70014 0.66884 0.03755 0.0
C1357 C 0.65799 0.67172 0.03779 0.0
C1358 C 0.63901 0.70043 0.02704 0.0
C1359 C 0.53436 0.73021 0.93141 0.0
C1360 C 0.49616 0.74614 0.93429 0.0
C1361 C 0.56733 0.74153 0.94425 0.0
C1362 C 0.56266 0.76899 0.9601 0.0
C1363 C 0.52502 0.78595 0.96219 0.0
C1364 C 0.49233 0.77496 0.9493 0.0
C1365 C 0.59575 0.77807 0.97583 0.0
C1366 C 0.61361 0.75024 0.98813 0.0
C1367 C 0.60723 0.81402 0.98014 0.0
C1368 C 0.59231 0.84436 0.96638 0.0
C1369 C 0.57469 0.87456 0.97653 0.0
C1370 C 0.56058 0.90305 0.96354 0.0
C1371 C 0.56409 0.90174 0.94038 0.0
C1372 C 0.58183 0.87197 0.93016 0.0
C1373 C 0.596 0.84342 0.94306 0.0
H1374 H 0.55314 0.92381 0.93036 0.0
H1375 H 0.71478 0.64667 0.04594 0.0
loop_
_geom_bond_atom_site_label_1
_geom_bond_atom_site_label_2
_geom_bond_distance
_geom_bond_site_symmetry_2
_ccdc_geom_bond_type
Sc0 O3 2.025 . S
Sc0 O10 2.105 . S
Sc0 O13 2.105 . S
Sc0 O16 2.105 . S
Sc0 O19 2.105 . S
Sc1 O3 2.025 . S
Sc1 O11 2.105 . S
Sc1 O15 2.105 . S
Sc1 O17 2.105 . S
Sc1 O21 2.105 . S
Sc2 O3 2.025 . S
Sc2 O12 2.105 . S
Sc2 O14 2.105 . S
Sc2 O18 2.105 . S
Sc2 O20 2.105 . S
O3 Sc0 2.025 . S
O3 Sc1 2.025 . S
O3 Sc2 2.025 . S
C4 O10 1.268 . S
C4 O20 1.268 . S
C5 O11 1.268 . S
C5 O19 1.268 . S
C6 O12 1.268 . S
C6 O21 1.268 . S
C7 O13 1.268 . S
C7 O17 1.268 . S
C8 O14 1.268 . S
C8 O16 1.268 . S
C9 O15 1.268 . S
C9 O18 1.268 . S
O10 Sc0 2.105 . S
O10 C4 1.268 . S
O11 Sc1 2.105 . S
O11 C5 1.268 . S
O12 Sc2 2.105 . S
O12 C6 1.268 . S
O13 Sc0 2.105 . S
O13 C7 1.268 . S
O14 Sc2 2.105 . S
O14 C8 1.268 . S
O15 Sc1 2.105 . S
O15 C9 1.268 . S
O16 Sc0 2.105 . S
O16 C8 1.268 . S
O17 Sc1 2.105 . S
O17 C7 1.268 . S
O18 Sc2 2.105 . S
O18 C9 1.268 . S
O19 Sc0 2.105 . S
O19 C5 1.268 . S
O20 Sc2 2.105 . S
O20 C4 1.268 . S
O21 Sc1 2.105 . S
O21 C6 1.268 . S
Sc22 O25 2.025 . S
Sc22 O32 2.105 . S
Sc22 O35 2.105 . S
Sc22 O38 2.105 . S
Sc22 O41 2.105 . S
Sc23 O25 2.025 . S
Sc23 O33 2.105 . S
Sc23 O37 2.105 . S
Sc23 O39 2.105 . S
Sc23 O43 2.105 . S
Sc24 O25 2.025 . S
Sc24 O34 2.105 . S
Sc24 O36 2.105 . S
Sc24 O40 2.105 . S
Sc24 O42 2.105 . S
O25 Sc22 2.025 . S
O25 Sc23 2.025 . S
O25 Sc24 2.025 . S
C26 O32 1.268 . S
C26 O42 1.268 . S
C27 O33 1.268 . S
C27 O41 1.268 . S
C28 O34 1.268 . S
C28 O43 1.268 . S
C29 O35 1.268 . S
C29 O39 1.268 . S
C30 O36 1.268 . S
C30 O38 1.268 . S
C31 O37 1.268 . S
C31 O40 1.268 . S
O32 Sc22 2.105 . S
O32 C26 1.268 . S
O33 Sc23 2.105 . S
O33 C27 1.268 . S
O34 Sc24 2.105 . S
O34 C28 1.268 . S
O35 Sc22 2.105 . S
O35 C29 1.268 . S
O36 Sc24 2.105 . S
O36 C30 1.268 . S
O37 Sc23 2.105 . S
O37 C31 1.268 . S
O38 Sc22 2.105 . S
O38 C30 1.268 . S
O39 Sc23 2.105 . S
O39 C29 1.268 . S
O40 Sc24 2.105 . S
O40 C31 1.268 . S
O41 Sc22 2.105 . S
O41 C27 1.268 . S
O42 Sc24 2.105 . S
O42 C26 1.268 . S
O43 Sc23 2.105 . S
O43 C28 1.268 . S
Sc44 O47 2.025 . S
Sc44 O54 2.105 . S
Sc44 O57 2.105 . S
Sc44 O60 2.105 . S
Sc44 O63 2.105 . S
Sc45 O47 2.025 . S
Sc45 O55 2.105 . S
Sc45 O59 2.105 . S
Sc45 O61 2.105 . S
Sc45 O65 2.105 . S
Sc46 O47 2.025 . S
Sc46 O56 2.105 . S
Sc46 O58 2.105 . S
Sc46 O62 2.105 . S
Sc46 O64 2.105 . S
O47 Sc44 2.025 . S
O47 Sc45 2.025 . S
O47 Sc46 2.025 . S
C48 O54 1.268 . S
C48 O64 1.268 . S
C49 O55 1.268 . S
C49 O63 1.268 . S
C50 O56 1.268 . S
C50 O65 1.268 . S
C51 O57 1.268 . S
C51 O61 1.268 . S
C52 O58 1.268 . S
C52 O60 1.268 . S
C53 O59 1.268 . S
C53 O62 1.268 . S
O54 Sc44 2.105 . S
O54 C48 1.268 . S
O55 Sc45 2.105 . S
O55 C49 1.268 . S
O56 Sc46 2.105 . S
O56 C50 1.268 . S
O57 Sc44 2.105 . S
O57 C51 1.268 . S
O58 Sc46 2.105 . S
O58 C52 1.268 . S
O59 Sc45 2.105 . S
O59 C53 1.268 . S
O60 Sc44 2.105 . S
O60 C52 1.268 . S
O61 Sc45 2.105 . S
O61 C51 1.268 . S
O62 Sc46 2.105 . S
O62 C53 1.268 . S
O63 Sc44 2.105 . S
O63 C49 1.268 . S
O64 Sc46 2.105 . S
O64 C48 1.268 . S
O65 Sc45 2.105 . S
O65 C50 1.268 . S
Sc66 O69 2.025 . S
Sc66 O76 2.105 . S
Sc66 O79 2.105 . S
Sc66 O82 2.105 . S
Sc66 O85 2.105 . S
Sc67 O69 2.025 . S
Sc67 O77 2.105 . S
Sc67 O81 2.105 . S
Sc67 O83 2.105 . S
Sc67 O87 2.105 . S
Sc68 O69 2.025 . S
Sc68 O78 2.105 . S
Sc68 O80 2.105 . S
Sc68 O84 2.105 . S
Sc68 O86 2.105 . S
O69 Sc66 2.025 . S
O69 Sc67 2.025 . S
O69 Sc68 2.025 . S
C70 O76 1.268 . S
C70 O86 1.268 . S
C71 O77 1.268 . S
C71 O85 1.268 . S
C72 O78 1.268 . S
C72 O87 1.268 . S
C73 O79 1.268 . S
C73 O83 1.268 . S
C74 O80 1.268 . S
C74 O82 1.268 . S
C75 O81 1.268 . S
C75 O84 1.268 . S
O76 Sc66 2.105 . S
O76 C70 1.268 . S
O77 Sc67 2.105 . S
O77 C71 1.268 . S
O78 Sc68 2.105 . S
O78 C72 1.268 . S
O79 Sc66 2.105 . S
O79 C73 1.268 . S
O80 Sc68 2.105 . S
O80 C74 1.268 . S
O81 Sc67 2.105 . S
O81 C75 1.268 . S
O82 Sc66 2.105 . S
O82 C74 1.268 . S
O83 Sc67 2.105 . S
O83 C73 1.268 . S
O84 Sc68 2.105 . S
O84 C75 1.268 . S
O85 Sc66 2.105 . S
O85 C71 1.268 . S
O86 Sc68 2.105 . S
O86 C70 1.268 . S
O87 Sc67 2.105 . S
O87 C72 1.268 . S
Sc88 O91 2.025 . S
Sc88 O98 2.105 . S
Sc88 O101 2.105 . S
Sc88 O104 2.105 . S
Sc88 O107 2.105 . S
Sc89 O91 2.025 . S
Sc89 O99 2.105 . S
Sc89 O103 2.105 . S
Sc89 O105 2.105 . S
Sc89 O109 2.105 . S
Sc90 O91 2.025 . S
Sc90 O100 2.105 . S
Sc90 O102 2.105 . S
Sc90 O106 2.105 . S
Sc90 O108 2.105 . S
O91 Sc88 2.025 . S
O91 Sc89 2.025 . S
O91 Sc90 2.025 . S
C92 O98 1.268 . S
C92 O108 1.268 . S
C93 O99 1.268 . S
C93 O107 1.268 . S
C94 O100 1.268 . S
C94 O109 1.268 . S
C95 O101 1.268 . S
C95 O105 1.268 . S
C96 O102 1.268 . S
C96 O104 1.268 . S
C97 O103 1.268 . S
C97 O106 1.268 . S
O98 Sc88 2.105 . S
O98 C92 1.268 . S
O99 Sc89 2.105 . S
O99 C93 1.268 . S
O100 Sc90 2.105 . S
O100 C94 1.268 . S
O101 Sc88 2.105 . S
O101 C95 1.268 . S
O102 Sc90 2.105 . S
O102 C96 1.268 . S
O103 Sc89 2.105 . S
O103 C97 1.268 . S
O104 Sc88 2.105 . S
O104 C96 1.268 . S
O105 Sc89 2.105 . S
O105 C95 1.268 . S
O106 Sc90 2.105 . S
O106 C97 1.268 . S
O107 Sc88 2.105 . S
O107 C93 1.268 . S
O108 Sc90 2.105 . S
O108 C92 1.268 . S
O109 Sc89 2.105 . S
O109 C94 1.268 . S
Sc110 O113 2.025 . S
Sc110 O120 2.105 . S
Sc110 O123 2.105 . S
Sc110 O126 2.105 . S
Sc110 O129 2.105 . S
Sc111 O113 2.025 . S
Sc111 O121 2.105 . S
Sc111 O125 2.105 . S
Sc111 O127 2.105 . S
Sc111 O131 2.105 . S
Sc112 O113 2.025 . S
Sc112 O122 2.105 . S
Sc112 O124 2.105 . S
Sc112 O128 2.105 . S
Sc112 O130 2.105 . S
O113 Sc110 2.025 . S
O113 Sc111 2.025 . S
O113 Sc112 2.025 . S
C114 O120 1.268 . S
C114 O130 1.268 . S
C115 O121 1.268 . S
C115 O129 1.268 . S
C116 O122 1.268 . S
C116 O131 1.268 . S
C117 O123 1.268 . S
C117 O127 1.268 . S
C118 O124 1.268 . S
C118 O126 1.268 . S
C119 O125 1.268 . S
C119 O128 1.268 . S
O120 Sc110 2.105 . S
O120 C114 1.268 . S
O121 Sc111 2.105 . S
O121 C115 1.268 . S
O122 Sc112 2.105 . S
O122 C116 1.268 . S
O123 Sc110 2.105 . S
O123 C117 1.268 . S
O124 Sc112 2.105 . S
O124 C118 1.268 . S
O125 Sc111 2.105 . S
O125 C119 1.268 . S
O126 Sc110 2.105 . S
O126 C118 1.268 . S
O127 Sc111 2.105 . S
O127 C117 1.268 . S
O128 Sc112 2.105 . S
O128 C119 1.268 . S
O129 Sc110 2.105 . S
O129 C115 1.268 . S
O130 Sc112 2.105 . S
O130 C114 1.268 . S
O131 Sc111 2.105 . S
O131 C116 1.268 . S
Sc132 O135 2.025 . S
Sc132 O142 2.105 . S
Sc132 O145 2.105 . S
Sc132 O148 2.105 . S
Sc132 O151 2.105 . S
Sc133 O135 2.025 . S
Sc133 O143 2.105 . S
Sc133 O147 2.105 . S
Sc133 O149 2.105 . S
Sc133 O153 2.105 . S
Sc134 O135 2.025 . S
Sc134 O144 2.105 . S
Sc134 O146 2.105 . S
Sc134 O150 2.105 . S
Sc134 O152 2.105 . S
O135 Sc132 2.025 . S
O135 Sc133 2.025 . S
O135 Sc134 2.025 . S
C136 O142 1.268 . S
C136 O152 1.268 . S
C137 O143 1.268 . S
C137 O151 1.268 . S
C138 O144 1.268 . S
C138 O153 1.268 . S
C139 O145 1.268 . S
C139 O149 1.268 . S
C140 O146 1.268 . S
C140 O148 1.268 . S
C141 O147 1.268 . S
C141 O150 1.268 . S
O142 Sc132 2.105 . S
O142 C136 1.268 . S
O143 Sc133 2.105 . S
O143 C137 1.268 . S
O144 Sc134 2.105 . S
O144 C138 1.268 . S
O145 Sc132 2.105 . S
O145 C139 1.268 . S
O146 Sc134 2.105 . S
O146 C140 1.268 . S
O147 Sc133 2.105 . S
O147 C141 1.268 . S
O148 Sc132 2.105 . S
O148 C140 1.268 . S
O149 Sc133 2.105 . S
O149 C139 1.268 . S
O150 Sc134 2.105 . S
O150 C141 1.268 . S
O151 Sc132 2.105 . S
O151 C137 1.268 . S
O152 Sc134 2.105 . S
O152 C136 1.268 . S
O153 Sc133 2.105 . S
O153 C138 1.268 . S
Sc154 O157 2.025 . S
Sc154 O164 2.105 . S
Sc154 O167 2.105 . S
Sc154 O170 2.105 . S
Sc154 O173 2.105 . S
Sc155 O157 2.025 . S
Sc155 O165 2.105 . S
Sc155 O169 2.105 . S
Sc155 O171 2.105 . S
Sc155 O175 2.105 . S
Sc156 O157 2.025 . S
Sc156 O166 2.105 . S
Sc156 O168 2.105 . S
Sc156 O172 2.105 . S
Sc156 O174 2.105 . S
O157 Sc154 2.025 . S
O157 Sc155 2.025 . S
O157 Sc156 2.025 . S
C158 O164 1.268 . S
C158 O174 1.268 . S
C159 O165 1.268 . S
C159 O173 1.268 . S
C160 O166 1.268 . S
C160 O175 1.268 . S
C161 O167 1.268 . S
C161 O171 1.268 . S
C162 O168 1.268 . S
C162 O170 1.268 . S
C163 O169 1.268 . S
C163 O172 1.268 . S
O164 Sc154 2.105 . S
O164 C158 1.268 . S
O165 Sc155 2.105 . S
O165 C159 1.268 . S
O166 Sc156 2.105 . S
O166 C160 1.268 . S
O167 Sc154 2.105 . S
O167 C161 1.268 . S
O168 Sc156 2.105 . S
O168 C162 1.268 . S
O169 Sc155 2.105 . S
O169 C163 1.268 . S
O170 Sc154 2.105 . S
O170 C162 1.268 . S
O171 Sc155 2.105 . S
O171 C161 1.268 . S
O172 Sc156 2.105 . S
O172 C163 1.268 . S
O173 Sc154 2.105 . S
O173 C159 1.268 . S
O174 Sc156 2.105 . S
O174 C158 1.268 . S
O175 Sc155 2.105 . S
O175 C160 1.268 . S
H176 C194 0.951 . S
H177 C196 0.951 . S
H178 C198 0.950 . S
H179 C199 0.950 . S
H180 C201 0.950 . S
H181 C204 0.950 . S
H182 C205 0.950 . S
H183 C207 0.950 . S
H184 C208 0.950 . S
H185 C209 0.951 . S
H186 C211 0.951 . S
H187 C213 0.950 . S
H188 C214 0.950 . S
H189 C216 0.950 . S
H190 C219 0.950 . S
H191 C220 0.950 . S
H192 C222 0.950 . S
H193 C223 0.950 . S
C194 H176 0.951 . S
C194 C195 1.366 . S
C194 C196 1.388 . S
C195 C194 1.366 . S
C195 C199 1.385 . S
C196 H177 0.951 . S
C196 C194 1.388 . S
C196 C197 1.366 . S
C197 C196 1.366 . S
C197 C198 1.414 . S
C197 C200 1.499 1_565 S
C198 H178 0.950 . S
C198 C197 1.414 . S
C198 C199 1.374 . S
C199 H179 0.950 . S
C199 C195 1.385 . S
C199 C198 1.374 . S
C200 C197 1.499 1_545 S
C200 C201 1.373 . S
C200 C202 1.389 . S
C201 H180 0.950 . S
C201 C200 1.373 . S
C201 C217 1.377 . S
C202 C200 1.389 . S
C202 C203 1.528 . S
C202 C216 1.377 . S
C203 C202 1.528 . S
C203 C204 1.392 1_545 S
C203 C208 1.364 . S
C204 H181 0.950 . S
C204 C203 1.392 1_565 S
C204 C205 1.334 . S
C205 H182 0.950 . S
C205 C204 1.334 . S
C205 C206 1.287 . S
C206 C205 1.287 . S
C206 C207 1.524 . S
C206 H225 0.913 . S
C207 H183 0.950 . S
C207 C206 1.524 . S
C207 C208 1.415 1_565 S
C208 H184 0.950 . S
C208 C203 1.364 . S
C208 C207 1.415 1_545 S
C209 H185 0.951 . S
C209 C210 1.366 . S
C209 C211 1.388 . S
C210 C209 1.366 . S
C210 C214 1.385 . S
C211 H186 0.951 . S
C211 C209 1.388 . S
C211 C212 1.366 . S
C212 C211 1.366 . S
C212 C213 1.414 . S
C212 C215 1.499 . S
C213 H187 0.950 . S
C213 C212 1.414 . S
C213 C214 1.374 . S
C214 H188 0.950 . S
C214 C210 1.385 . S
C214 C213 1.374 . S
C215 C212 1.499 . S
C215 C216 1.373 . S
C215 C217 1.389 . S
C216 H189 0.950 . S
C216 C202 1.377 . S
C216 C215 1.373 . S
C217 C201 1.377 . S
C217 C215 1.389 . S
C217 C218 1.524 . S
C218 C217 1.524 . S
C218 C219 1.397 . S
C218 C223 1.363 . S
C219 H190 0.950 . S
C219 C218 1.397 . S
C219 C220 1.334 . S
C220 H191 0.950 . S
C220 C219 1.334 . S
C220 C221 1.287 . S
C221 C220 1.287 . S
C221 C222 1.524 . S
C221 H224 0.999 . S
C222 H192 0.950 . S
C222 C221 1.524 . S
C222 C223 1.415 . S
C223 H193 0.950 . S
C223 C218 1.363 . S
C223 C222 1.415 . S
H224 C221 0.999 . S
H225 C206 0.913 . S
H226 C244 0.951 . S
H227 C246 0.951 . S
H228 C248 0.950 . S
H229 C249 0.950 . S
H230 C251 0.950 . S
H231 C254 0.950 . S
H232 C255 0.950 . S
H233 C257 0.950 . S
H234 C258 0.950 . S
H235 C259 0.951 . S
H236 C261 0.951 . S
H237 C263 0.950 . S
H238 C264 0.950 . S
H239 C266 0.950 . S
H240 C269 0.950 . S
H241 C270 0.950 . S
H242 C272 0.950 . S
H243 C273 0.950 . S
C244 H226 0.951 . S
C244 C245 1.366 . S
C244 C246 1.388 . S
C245 C244 1.366 . S
C245 C249 1.385 . S
C246 H227 0.951 . S
C246 C244 1.388 . S
C246 C247 1.366 . S
C247 C246 1.366 . S
C247 C248 1.414 . S
C247 C250 1.499 . S
C248 H228 0.950 . S
C248 C247 1.414 . S
C248 C249 1.374 . S
C249 H229 0.950 . S
C249 C245 1.385 . S
C249 C248 1.374 . S
C250 C247 1.499 . S
C250 C251 1.373 . S
C250 C252 1.389 . S
C251 H230 0.950 . S
C251 C250 1.373 . S
C251 C267 1.377 . S
C252 C250 1.389 . S
C252 C253 1.524 . S
C252 C266 1.377 . S
C253 C252 1.524 . S
C253 C254 1.397 . S
C253 C258 1.363 . S
C254 H231 0.950 . S
C254 C253 1.397 . S
C254 C255 1.334 . S
C255 H232 0.950 . S
C255 C254 1.334 . S
C255 C256 1.287 . S
C256 C255 1.287 . S
C256 C257 1.524 . S
C256 H275 0.913 . S
C257 H233 0.950 . S
C257 C256 1.524 . S
C257 C258 1.415 . S
C258 H234 0.950 . S
C258 C253 1.363 . S
C258 C257 1.415 . S
C259 H235 0.951 . S
C259 C260 1.366 . S
C259 C261 1.388 . S
C260 C259 1.366 . S
C260 C264 1.385 . S
C261 H236 0.951 . S
C261 C259 1.388 . S
C261 C262 1.366 . S
C262 C261 1.366 . S
C262 C263 1.414 . S
C262 C265 1.499 . S
C263 H237 0.950 . S
C263 C262 1.414 . S
C263 C264 1.374 . S
C264 H238 0.950 . S
C264 C260 1.385 . S
C264 C263 1.374 . S
C265 C262 1.499 . S
C265 C266 1.373 . S
C265 C267 1.389 . S
C266 H239 0.950 . S
C266 C252 1.377 . S
C266 C265 1.373 . S
C267 C251 1.377 . S
C267 C265 1.389 . S
C267 C268 1.524 . S
C268 C267 1.524 . S
C268 C269 1.397 . S
C268 C273 1.363 . S
C269 H240 0.950 . S
C269 C268 1.397 . S
C269 C270 1.334 . S
C270 H241 0.950 . S
C270 C269 1.334 . S
C270 C271 1.287 . S
C271 C270 1.287 . S
C271 C272 1.524 . S
C271 H274 0.999 . S
C272 H242 0.950 . S
C272 C271 1.524 . S
C272 C273 1.415 . S
C273 H243 0.950 . S
C273 C268 1.363 . S
C273 C272 1.415 . S
H274 C271 0.999 . S
H275 C256 0.913 . S
H276 C294 0.951 . S
H277 C296 0.951 . S
H278 C298 0.950 . S
H279 C299 0.950 . S
H280 C301 0.950 . S
H281 C304 0.950 . S
H282 C305 0.950 . S
H283 C307 0.950 . S
H284 C308 0.950 . S
H285 C309 0.951 . S
H286 C311 0.951 . S
H287 C313 0.950 . S
H288 C314 0.950 . S
H289 C316 0.950 . S
H290 C319 0.950 . S
H291 C320 0.950 . S
H292 C322 0.950 . S
H293 C323 0.950 . S
C294 H276 0.951 . S
C294 C295 1.366 . S
C294 C296 1.388 . S
C295 C294 1.366 . S
C295 C299 1.385 . S
C296 H277 0.951 . S
C296 C294 1.388 . S
C296 C297 1.366 . S
C297 C296 1.366 . S
C297 C298 1.414 . S
C297 C300 1.499 . S
C298 H278 0.950 . S
C298 C297 1.414 . S
C298 C299 1.374 . S
C299 H279 0.950 . S
C299 C295 1.385 . S
C299 C298 1.374 . S
C300 C297 1.499 . S
C300 C301 1.373 . S
C300 C302 1.389 . S
C301 H280 0.950 . S
C301 C300 1.373 . S
C301 C317 1.377 . S
C302 C300 1.389 . S
C302 C303 1.524 . S
C302 C316 1.377 . S
C303 C302 1.524 . S
C303 C304 1.397 . S
C303 C308 1.363 . S
C304 H281 0.950 . S
C304 C303 1.397 . S
C304 C305 1.334 . S
C305 H282 0.950 . S
C305 C304 1.334 . S
C305 C306 1.287 . S
C306 C305 1.287 . S
C306 C307 1.524 . S
C306 H325 0.913 . S
C307 H283 0.950 . S
C307 C306 1.524 . S
C307 C308 1.415 . S
C308 H284 0.950 . S
C308 C303 1.363 . S
C308 C307 1.415 . S
C309 H285 0.951 . S
C309 C310 1.366 . S
C309 C311 1.388 . S
C310 C309 1.366 . S
C310 C314 1.385 . S
C311 H286 0.951 . S
C311 C309 1.388 . S
C311 C312 1.366 . S
C312 C311 1.366 . S
C312 C313 1.414 . S
C312 C315 1.499 . S
C313 H287 0.950 . S
C313 C312 1.414 . S
C313 C314 1.374 . S
C314 H288 0.950 . S
C314 C310 1.385 . S
C314 C313 1.374 . S
C315 C312 1.499 . S
C315 C316 1.373 . S
C315 C317 1.389 . S
C316 H289 0.950 . S
C316 C302 1.377 . S
C316 C315 1.373 . S
C317 C301 1.377 . S
C317 C315 1.389 . S
C317 C318 1.524 . S
C318 C317 1.524 . S
C318 C319 1.397 . S
C318 C323 1.363 . S
C319 H290 0.950 . S
C319 C318 1.397 . S
C319 C320 1.334 . S
C320 H291 0.950 . S
C320 C319 1.334 . S
C320 C321 1.287 . S
C321 C320 1.287 . S
C321 C322 1.524 . S
C321 H324 0.999 . S
C322 H292 0.950 . S
C322 C321 1.524 . S
C322 C323 1.415 . S
C323 H293 0.950 . S
C323 C318 1.363 . S
C323 C322 1.415 . S
H324 C321 0.999 . S
H325 C306 0.913 . S
H326 C344 0.951 . S
H327 C346 0.951 . S
H328 C348 0.950 . S
H329 C349 0.950 . S
H330 C351 0.950 . S
H331 C354 0.950 . S
H332 C355 0.950 . S
H333 C357 0.950 . S
H334 C358 0.950 . S
H335 C359 0.951 . S
H336 C361 0.951 1_545 S
H337 C363 0.950 . S
H338 C364 0.950 . S
H339 C366 0.950 . S
H340 C369 0.950 . S
H341 C370 0.950 . S
H342 C372 0.950 . S
H343 C373 0.950 . S
C344 H326 0.951 . S
C344 C345 1.366 . S
C344 C346 1.388 . S
C345 C344 1.366 . S
C345 C349 1.385 . S
C346 H327 0.951 . S
C346 C344 1.388 . S
C346 C347 1.366 . S
C347 C346 1.366 . S
C347 C348 1.414 . S
C347 C350 1.499 . S
C348 H328 0.950 . S
C348 C347 1.414 . S
C348 C349 1.374 . S
C349 H329 0.950 . S
C349 C345 1.385 . S
C349 C348 1.374 . S
C350 C347 1.499 . S
C350 C351 1.373 . S
C350 C352 1.389 . S
C351 H330 0.950 . S
C351 C350 1.373 . S
C351 C367 1.377 . S
C352 C350 1.389 . S
C352 C353 1.524 . S
C352 C366 1.377 . S
C353 C352 1.524 . S
C353 C354 1.397 . S
C353 C358 1.363 . S
C354 H331 0.950 . S
C354 C353 1.397 . S
C354 C355 1.334 . S
C355 H332 0.950 . S
C355 C354 1.334 . S
C355 C356 1.287 . S
C356 C355 1.287 . S
C356 C357 1.524 . S
C356 H375 0.913 . S
C357 H333 0.950 . S
C357 C356 1.524 . S
C357 C358 1.415 . S
C358 H334 0.950 . S
C358 C353 1.363 . S
C358 C357 1.415 . S
C359 H335 0.951 . S
C359 C360 1.366 . S
C359 C361 1.388 . S
C360 C359 1.366 . S
C360 C364 1.385 . S
C361 H336 0.951 1_565 S
C361 C359 1.388 . S
C361 C362 1.366 . S
C362 C361 1.366 . S
C362 C363 1.414 . S
C362 C365 1.499 1_565 S
C363 H337 0.950 . S
C363 C362 1.414 . S
C363 C364 1.374 . S
C364 H338 0.950 . S
C364 C360 1.385 . S
C364 C363 1.374 . S
C365 C362 1.499 1_545 S
C365 C366 1.373 . S
C365 C367 1.389 . S
C366 H339 0.950 . S
C366 C352 1.377 . S
C366 C365 1.373 . S
C367 C351 1.377 . S
C367 C365 1.389 . S
C367 C368 1.524 . S
C368 C367 1.524 . S
C368 C369 1.397 1_545 S
C368 C373 1.363 . S
C369 H340 0.950 . S
C369 C368 1.397 1_565 S
C369 C370 1.334 . S
C370 H341 0.950 . S
C370 C369 1.334 . S
C370 C371 1.287 1_565 S
C371 C370 1.287 1_545 S
C371 C372 1.524 . S
C371 H374 0.999 1_545 S
C372 H342 0.950 . S
C372 C371 1.524 . S
C372 C373 1.415 . S
C373 H343 0.950 . S
C373 C368 1.363 . S
C373 C372 1.415 . S
H374 C371 0.999 1_565 S
H375 C356 0.913 . S
H376 C394 0.951 . S
H377 C396 0.951 1_565 S
H378 C398 0.950 . S
H379 C399 0.950 . S
H380 C401 0.950 . S
H381 C404 0.950 1_545 S
H382 C405 0.950 . S
H383 C407 0.950 . S
H384 C408 0.950 . S
H385 C409 0.951 . S
H386 C411 0.951 . S
H387 C413 0.950 . S
H388 C414 0.950 . S
H389 C416 0.950 . S
H390 C419 0.950 . S
H391 C420 0.950 . S
H392 C422 0.950 . S
H393 C423 0.950 . S
C394 H376 0.951 . S
C394 C395 1.366 . S
C394 C396 1.388 . S
C395 C394 1.366 . S
C395 C399 1.385 . S
C396 H377 0.951 1_545 S
C396 C394 1.388 . S
C396 C397 1.366 . S
C397 C396 1.366 . S
C397 C398 1.414 . S
C397 C400 1.499 1_545 S
C398 H378 0.950 . S
C398 C397 1.414 . S
C398 C399 1.374 . S
C399 H379 0.950 . S
C399 C395 1.385 . S
C399 C398 1.374 . S
C400 C397 1.499 1_565 S
C400 C401 1.373 . S
C400 C402 1.389 . S
C401 H380 0.950 . S
C401 C400 1.373 . S
C401 C417 1.377 . S
C402 C400 1.389 . S
C402 C403 1.524 . S
C402 C416 1.377 . S
C403 C402 1.524 . S
C403 C404 1.397 . S
C403 C408 1.363 . S
C404 H381 0.950 1_565 S
C404 C403 1.397 . S
C404 C405 1.334 1_565 S
C405 H382 0.950 . S
C405 C404 1.334 1_545 S
C405 C406 1.287 1_545 S
C406 C405 1.287 1_565 S
C406 C407 1.524 . S
C406 H425 0.913 . S
C407 H383 0.950 . S
C407 C406 1.524 . S
C407 C408 1.415 . S
C408 H384 0.950 . S
C408 C403 1.363 . S
C408 C407 1.415 . S
C409 H385 0.951 . S
C409 C410 1.366 . S
C409 C411 1.388 . S
C410 C409 1.366 . S
C410 C414 1.385 . S
C411 H386 0.951 . S
C411 C409 1.388 . S
C411 C412 1.366 . S
C412 C411 1.366 . S
C412 C413 1.414 . S
C412 C415 1.499 . S
C413 H387 0.950 . S
C413 C412 1.414 . S
C413 C414 1.374 . S
C414 H388 0.950 . S
C414 C410 1.385 . S
C414 C413 1.374 . S
C415 C412 1.499 . S
C415 C416 1.373 . S
C415 C417 1.389 . S
C416 H389 0.950 . S
C416 C402 1.377 . S
C416 C415 1.373 . S
C417 C401 1.377 . S
C417 C415 1.389 . S
C417 C418 1.524 . S
C418 C417 1.524 . S
C418 C419 1.397 . S
C418 C423 1.363 . S
C419 H390 0.950 . S
C419 C418 1.397 . S
C419 C420 1.334 . S
C420 H391 0.950 . S
C420 C419 1.334 . S
C420 C421 1.287 . S
C421 C420 1.287 . S
C421 C422 1.524 . S
C421 H424 0.999 . S
C422 H392 0.950 . S
C422 C421 1.524 . S
C422 C423 1.415 . S
C423 H393 0.950 . S
C423 C418 1.363 . S
C423 C422 1.415 . S
H424 C421 0.999 . S
H425 C406 0.913 . S
H426 C444 0.951 . S
H427 C446 0.951 . S
H428 C448 0.950 . S
H429 C449 0.950 . S
H430 C451 0.950 . S
H431 C454 0.950 . S
H432 C455 0.950 . S
H433 C457 0.950 . S
H434 C458 0.950 . S
H435 C459 0.951 . S
H436 C461 0.951 . S
H437 C463 0.950 . S
H438 C464 0.950 . S
H439 C466 0.950 . S
H440 C469 0.950 . S
H441 C470 0.950 . S
H442 C472 0.950 . S
H443 C473 0.950 . S
C444 H426 0.951 . S
C444 C445 1.366 . S
C444 C446 1.388 . S
C445 C444 1.366 . S
C445 C449 1.385 . S
C446 H427 0.951 . S
C446 C444 1.388 . S
C446 C447 1.366 . S
C447 C446 1.366 . S
C447 C448 1.414 . S
C447 C450 1.499 . S
C448 H428 0.950 . S
C448 C447 1.414 . S
C448 C449 1.374 . S
C449 H429 0.950 . S
C449 C445 1.385 . S
C449 C448 1.374 . S
C450 C447 1.499 . S
C450 C451 1.373 . S
C450 C452 1.389 . S
C451 H430 0.950 . S
C451 C450 1.373 . S
C451 C467 1.377 . S
C452 C450 1.389 . S
C452 C453 1.524 . S
C452 C466 1.377 . S
C453 C452 1.524 . S
C453 C454 1.397 . S
C453 C458 1.363 . S
C454 H431 0.950 . S
C454 C453 1.397 . S
C454 C455 1.334 . S
C455 H432 0.950 . S
C455 C454 1.334 . S
C455 C456 1.287 . S
C456 C455 1.287 . S
C456 C457 1.524 . S
C456 H475 0.913 . S
C457 H433 0.950 . S
C457 C456 1.524 . S
C457 C458 1.415 . S
C458 H434 0.950 . S
C458 C453 1.363 . S
C458 C457 1.415 . S
C459 H435 0.951 . S
C459 C460 1.366 . S
C459 C461 1.388 . S
C460 C459 1.366 . S
C460 C464 1.385 . S
C461 H436 0.951 . S
C461 C459 1.388 . S
C461 C462 1.366 . S
C462 C461 1.366 . S
C462 C463 1.414 . S
C462 C465 1.499 . S
C463 H437 0.950 . S
C463 C462 1.414 . S
C463 C464 1.374 . S
C464 H438 0.950 . S
C464 C460 1.385 . S
C464 C463 1.374 . S
C465 C462 1.499 . S
C465 C466 1.373 . S
C465 C467 1.389 . S
C466 H439 0.950 . S
C466 C452 1.377 . S
C466 C465 1.373 . S
C467 C451 1.377 . S
C467 C465 1.389 . S
C467 C468 1.524 . S
C468 C467 1.524 . S
C468 C469 1.397 . S
C468 C473 1.363 . S
C469 H440 0.950 . S
C469 C468 1.397 . S
C469 C470 1.334 . S
C470 H441 0.950 . S
C470 C469 1.334 . S
C470 C471 1.287 . S
C471 C470 1.287 . S
C471 C472 1.524 . S
C471 H474 0.999 . S
C472 H442 0.950 . S
C472 C471 1.524 . S
C472 C473 1.415 . S
C473 H443 0.950 . S
C473 C468 1.363 . S
C473 C472 1.415 . S
H474 C471 0.999 . S
H475 C456 0.913 . S
H476 C494 0.951 . S
H477 C496 0.951 . S
H478 C498 0.950 . S
H479 C499 0.950 . S
H480 C501 0.950 . S
H481 C504 0.950 . S
H482 C505 0.950 . S
H483 C507 0.950 . S
H484 C508 0.950 . S
H485 C509 0.951 . S
H486 C511 0.951 . S
H487 C513 0.950 . S
H488 C514 0.950 . S
H489 C516 0.950 . S
H490 C519 0.950 . S
H491 C520 0.950 . S
H492 C522 0.950 . S
H493 C523 0.950 . S
C494 H476 0.951 . S
C494 C495 1.366 . S
C494 C496 1.388 . S
C495 C494 1.366 . S
C495 C499 1.385 . S
C496 H477 0.951 . S
C496 C494 1.388 . S
C496 C497 1.366 . S
C497 C496 1.366 . S
C497 C498 1.414 . S
C497 C500 1.499 . S
C498 H478 0.950 . S
C498 C497 1.414 . S
C498 C499 1.374 . S
C499 H479 0.950 . S
C499 C495 1.385 . S
C499 C498 1.374 . S
C500 C497 1.499 . S
C500 C501 1.373 . S
C500 C502 1.389 . S
C501 H480 0.950 . S
C501 C500 1.373 . S
C501 C517 1.377 . S
C502 C500 1.389 . S
C502 C503 1.524 . S
C502 C516 1.377 . S
C503 C502 1.524 . S
C503 C504 1.397 . S
C503 C508 1.363 . S
C504 H481 0.950 . S
C504 C503 1.397 . S
C504 C505 1.334 . S
C505 H482 0.950 . S
C505 C504 1.334 . S
C505 C506 1.287 . S
C506 C505 1.287 . S
C506 C507 1.524 . S
C506 H525 0.913 . S
C507 H483 0.950 . S
C507 C506 1.524 . S
C507 C508 1.415 . S
C508 H484 0.950 . S
C508 C503 1.363 . S
C508 C507 1.415 . S
C509 H485 0.951 . S
C509 C510 1.366 . S
C509 C511 1.388 . S
C510 C509 1.366 . S
C510 C514 1.385 . S
C511 H486 0.951 . S
C511 C509 1.388 . S
C511 C512 1.366 . S
C512 C511 1.366 . S
C512 C513 1.414 . S
C512 C515 1.499 . S
C513 H487 0.950 . S
C513 C512 1.414 . S
C513 C514 1.374 . S
C514 H488 0.950 . S
C514 C510 1.385 . S
C514 C513 1.374 . S
C515 C512 1.499 . S
C515 C516 1.373 . S
C515 C517 1.389 . S
C516 H489 0.950 . S
C516 C502 1.377 . S
C516 C515 1.373 . S
C517 C501 1.377 . S
C517 C515 1.389 . S
C517 C518 1.524 . S
C518 C517 1.524 . S
C518 C519 1.397 . S
C518 C523 1.363 . S
C519 H490 0.950 . S
C519 C518 1.397 . S
C519 C520 1.334 . S
C520 H491 0.950 . S
C520 C519 1.334 . S
C520 C521 1.287 . S
C521 C520 1.287 . S
C521 C522 1.524 . S
C521 H524 0.999 . S
C522 H492 0.950 . S
C522 C521 1.524 . S
C522 C523 1.415 . S
C523 H493 0.950 . S
C523 C518 1.363 . S
C523 C522 1.415 . S
H524 C521 0.999 . S
H525 C506 0.913 . S
H526 C544 0.951 . S
H527 C546 0.951 . S
H528 C548 0.950 1_565 S
H529 C549 0.950 . S
H530 C551 0.950 . S
H531 C554 0.950 . S
H532 C555 0.950 . S
H533 C557 0.950 . S
H534 C558 0.950 . S
H535 C559 0.951 . S
H536 C561 0.951 . S
H537 C563 0.950 . S
H538 C564 0.950 . S
H539 C566 0.950 . S
H540 C569 0.950 . S
H541 C570 0.950 . S
H542 C572 0.950 . S
H543 C573 0.950 . S
C544 H526 0.951 . S
C544 C545 1.366 . S
C544 C546 1.388 . S
C545 C544 1.366 . S
C545 C549 1.385 . S
C546 H527 0.951 . S
C546 C544 1.388 . S
C546 C547 1.366 . S
C547 C546 1.366 . S
C547 C548 1.414 . S
C547 C550 1.499 1_545 S
C548 H528 0.950 1_545 S
C548 C547 1.414 . S
C548 C549 1.374 . S
C549 H529 0.950 . S
C549 C545 1.385 . S
C549 C548 1.374 . S
C550 C547 1.499 1_565 S
C550 C551 1.373 . S
C550 C552 1.389 . S
C551 H530 0.950 . S
C551 C550 1.373 . S
C551 C567 1.377 . S
C552 C550 1.389 . S
C552 C553 1.524 . S
C552 C566 1.377 . S
C553 C552 1.524 . S
C553 C554 1.397 . S
C553 C558 1.363 . S
C554 H531 0.950 . S
C554 C553 1.397 . S
C554 C555 1.334 1_565 S
C555 H532 0.950 . S
C555 C554 1.334 1_545 S
C555 C556 1.287 . S
C556 C555 1.287 . S
C556 C557 1.524 . S
C556 H575 0.913 . S
C557 H533 0.950 . S
C557 C556 1.524 . S
C557 C558 1.415 1_545 S
C558 H534 0.950 . S
C558 C553 1.363 . S
C558 C557 1.415 1_565 S
C559 H535 0.951 . S
C559 C560 1.366 . S
C559 C561 1.388 . S
C560 C559 1.366 . S
C560 C564 1.385 . S
C561 H536 0.951 . S
C561 C559 1.388 . S
C561 C562 1.366 . S
C562 C561 1.366 . S
C562 C563 1.414 . S
C562 C565 1.499 . S
C563 H537 0.950 . S
C563 C562 1.414 . S
C563 C564 1.374 . S
C564 H538 0.950 . S
C564 C560 1.385 . S
C564 C563 1.374 . S
C565 C562 1.499 . S
C565 C566 1.373 . S
C565 C567 1.389 . S
C566 H539 0.950 . S
C566 C552 1.377 . S
C566 C565 1.373 . S
C567 C551 1.377 . S
C567 C565 1.389 . S
C567 C568 1.524 . S
C568 C567 1.524 . S
C568 C569 1.397 . S
C568 C573 1.363 . S
C569 H540 0.950 . S
C569 C568 1.397 . S
C569 C570 1.334 . S
C570 H541 0.950 . S
C570 C569 1.334 . S
C570 C571 1.287 . S
C571 C570 1.287 . S
C571 C572 1.524 . S
C571 H574 0.999 . S
C572 H542 0.950 . S
C572 C571 1.524 . S
C572 C573 1.415 . S
C573 H543 0.950 . S
C573 C568 1.363 . S
C573 C572 1.415 . S
H574 C571 0.999 . S
H575 C556 0.913 . S
H576 C594 0.951 . S
H577 C596 0.951 . S
H578 C598 0.950 . S
H579 C599 0.950 . S
H580 C601 0.950 . S
H581 C604 0.950 . S
H582 C605 0.950 . S
H583 C607 0.950 . S
H584 C608 0.950 . S
H585 C609 0.951 . S
H586 C611 0.951 . S
H587 C613 0.950 . S
H588 C614 0.950 . S
H589 C616 0.950 . S
H590 C619 0.950 . S
H591 C620 0.950 . S
H592 C622 0.950 . S
H593 C623 0.950 . S
C594 H576 0.951 . S
C594 C595 1.366 . S
C594 C596 1.388 . S
C595 C594 1.366 . S
C595 C599 1.385 . S
C596 H577 0.951 . S
C596 C594 1.388 . S
C596 C597 1.366 . S
C597 C596 1.366 . S
C597 C598 1.414 . S
C597 C600 1.499 . S
C598 H578 0.950 . S
C598 C597 1.414 . S
C598 C599 1.374 . S
C599 H579 0.950 . S
C599 C595 1.385 . S
C599 C598 1.374 . S
C600 C597 1.499 . S
C600 C601 1.373 . S
C600 C602 1.389 . S
C601 H580 0.950 . S
C601 C600 1.373 . S
C601 C617 1.377 . S
C602 C600 1.389 . S
C602 C603 1.524 . S
C602 C616 1.377 . S
C603 C602 1.524 . S
C603 C604 1.397 . S
C603 C608 1.363 . S
C604 H581 0.950 . S
C604 C603 1.397 . S
C604 C605 1.334 . S
C605 H582 0.950 . S
C605 C604 1.334 . S
C605 C606 1.287 . S
C606 C605 1.287 . S
C606 C607 1.524 . S
C606 H625 0.913 . S
C607 H583 0.950 . S
C607 C606 1.524 . S
C607 C608 1.415 . S
C608 H584 0.950 . S
C608 C603 1.363 . S
C608 C607 1.415 . S
C609 H585 0.951 . S
C609 C610 1.366 . S
C609 C611 1.388 . S
C610 C609 1.366 . S
C610 C614 1.385 . S
C611 H586 0.951 . S
C611 C609 1.388 . S
C611 C612 1.366 . S
C612 C611 1.366 . S
C612 C613 1.414 . S
C612 C615 1.499 . S
C613 H587 0.950 . S
C613 C612 1.414 . S
C613 C614 1.374 . S
C614 H588 0.950 . S
C614 C610 1.385 . S
C614 C613 1.374 . S
C615 C612 1.499 . S
C615 C616 1.373 . S
C615 C617 1.389 . S
C616 H589 0.950 . S
C616 C602 1.377 . S
C616 C615 1.373 . S
C617 C601 1.377 . S
C617 C615 1.389 . S
C617 C618 1.524 . S
C618 C617 1.524 . S
C618 C619 1.397 . S
C618 C623 1.363 . S
C619 H590 0.950 . S
C619 C618 1.397 . S
C619 C620 1.334 . S
C620 H591 0.950 . S
C620 C619 1.334 . S
C620 C621 1.287 . S
C621 C620 1.287 . S
C621 C622 1.524 . S
C621 H624 0.999 . S
C622 H592 0.950 . S
C622 C621 1.524 . S
C622 C623 1.415 . S
C623 H593 0.950 . S
C623 C618 1.363 . S
C623 C622 1.415 . S
H624 C621 0.999 . S
H625 C606 0.913 . S
H626 C644 0.951 . S
H627 C646 0.951 1_556 S
H628 C648 0.950 . S
H629 C649 0.950 . S
H630 C651 0.950 . S
H631 C654 0.958 . S
H632 C655 0.950 1_455 S
H633 C657 0.950 . S
H634 C658 0.950 . S
H635 C659 0.951 . S
H636 C661 0.951 1_554 S
H637 C663 0.950 . S
H638 C664 0.950 . S
H639 C666 0.950 . S
H640 C669 0.958 . S
H641 C670 0.950 1_655 S
H642 C672 0.950 . S
H643 C673 0.950 . S
C644 H626 0.951 . S
C644 C645 1.366 . S
C644 C646 1.388 . S
C645 C644 1.366 . S
C645 C649 1.385 . S
C646 H627 0.951 1_554 S
C646 C644 1.388 . S
C646 C647 1.366 . S
C647 C646 1.366 . S
C647 C648 1.414 . S
C647 C650 1.499 . S
C648 H628 0.950 . S
C648 C647 1.414 . S
C648 C649 1.374 . S
C649 H629 0.950 . S
C649 C645 1.385 . S
C649 C648 1.374 . S
C650 C647 1.499 . S
C650 C651 1.373 . S
C650 C652 1.389 1_554 S
C651 H630 0.950 . S
C651 C650 1.373 . S
C651 C667 1.377 1_665 S
C652 C650 1.389 1_556 S
C652 C653 1.524 . S
C652 C666 1.377 1_665 S
C653 C652 1.524 . S
C653 C654 1.390 1_655 S
C653 C658 1.363 . S
C654 H631 0.958 . S
C654 C653 1.390 1_455 S
C654 C655 1.333 1_455 S
C655 H632 0.950 1_655 S
C655 C654 1.333 1_655 S
C655 C656 1.287 . S
C656 C655 1.287 . S
C656 C657 1.524 . S
C656 H675 0.913 . S
C657 H633 0.950 . S
C657 C656 1.524 . S
C657 C658 1.415 . S
C658 H634 0.950 . S
C658 C653 1.363 . S
C658 C657 1.415 . S
C659 H635 0.951 . S
C659 C660 1.366 . S
C659 C661 1.388 . S
C660 C659 1.366 . S
C660 C664 1.385 . S
C661 H636 0.951 1_556 S
C661 C659 1.388 . S
C661 C662 1.366 . S
C662 C661 1.366 . S
C662 C663 1.414 . S
C662 C665 1.499 . S
C663 H637 0.950 . S
C663 C662 1.414 . S
C663 C664 1.374 . S
C664 H638 0.950 . S
C664 C660 1.385 . S
C664 C663 1.374 . S
C665 C662 1.499 . S
C665 C666 1.373 . S
C665 C667 1.389 1_556 S
C666 H639 0.950 . S
C666 C652 1.377 1_445 S
C666 C665 1.373 . S
C667 C651 1.377 1_445 S
C667 C665 1.389 1_554 S
C667 C668 1.524 . S
C668 C667 1.524 . S
C668 C669 1.390 1_455 S
C668 C673 1.363 . S
C669 H640 0.958 . S
C669 C668 1.390 1_655 S
C669 C670 1.333 1_655 S
C670 H641 0.950 1_455 S
C670 C669 1.333 1_455 S
C670 C671 1.287 . S
C671 C670 1.287 . S
C671 C672 1.524 . S
C671 H674 0.999 . S
C672 H642 0.950 . S
C672 C671 1.524 . S
C672 C673 1.415 . S
C673 H643 0.950 . S
C673 C668 1.363 . S
C673 C672 1.415 . S
H674 C671 0.999 . S
H675 C656 0.913 . S
H676 C694 0.951 . S
H677 C696 0.951 . S
H678 C698 0.950 . S
H679 C699 0.950 . S
H680 C701 0.950 . S
H681 C704 0.950 . S
H682 C705 0.950 . S
H683 C707 0.950 . S
H684 C708 0.950 1_565 S
H685 C709 0.951 . S
H686 C711 0.951 . S
H687 C713 0.950 . S
H688 C714 0.950 . S
H689 C716 0.950 . S
H690 C719 0.950 . S
H691 C720 0.950 . S
H692 C722 0.950 . S
H693 C723 0.950 1_545 S
C694 H676 0.951 . S
C694 C695 1.366 . S
C694 C696 1.388 . S
C695 C694 1.366 . S
C695 C699 1.385 . S
C696 H677 0.951 . S
C696 C694 1.388 . S
C696 C697 1.366 . S
C697 C696 1.366 . S
C697 C698 1.414 . S
C697 C700 1.499 . S
C698 H678 0.950 . S
C698 C697 1.414 . S
C698 C699 1.374 . S
C699 H679 0.950 . S
C699 C695 1.385 . S
C699 C698 1.374 . S
C700 C697 1.499 . S
C700 C701 1.373 . S
C700 C702 1.389 1_655 S
C701 H680 0.950 . S
C701 C700 1.373 . S
C701 C717 1.377 1_545 S
C702 C700 1.389 1_455 S
C702 C703 1.524 . S
C702 C716 1.377 1_545 S
C703 C702 1.524 . S
C703 C704 1.397 . S
C703 C708 1.363 . S
C704 H681 0.950 . S
C704 C703 1.397 . S
C704 C705 1.334 . S
C705 H682 0.950 . S
C705 C704 1.334 . S
C705 C706 1.287 . S
C706 C705 1.287 . S
C706 C707 1.524 . S
C706 H725 0.913 . S
C707 H683 0.950 . S
C707 C706 1.524 . S
C707 C708 1.415 . S
C708 H684 0.950 1_545 S
C708 C703 1.363 . S
C708 C707 1.415 . S
C709 H685 0.951 . S
C709 C710 1.366 . S
C709 C711 1.388 . S
C710 C709 1.366 . S
C710 C714 1.385 . S
C711 H686 0.951 . S
C711 C709 1.388 . S
C711 C712 1.366 . S
C712 C711 1.366 . S
C712 C713 1.414 . S
C712 C715 1.499 . S
C713 H687 0.950 . S
C713 C712 1.414 . S
C713 C714 1.374 . S
C714 H688 0.950 . S
C714 C710 1.385 . S
C714 C713 1.374 . S
C715 C712 1.499 . S
C715 C716 1.373 . S
C715 C717 1.389 1_455 S
C716 H689 0.950 . S
C716 C702 1.377 1_565 S
C716 C715 1.373 . S
C717 C701 1.377 1_565 S
C717 C715 1.389 1_655 S
C717 C718 1.524 . S
C718 C717 1.524 . S
C718 C719 1.397 . S
C718 C723 1.363 . S
C719 H690 0.950 . S
C719 C718 1.397 . S
C719 C720 1.334 . S
C720 H691 0.950 . S
C720 C719 1.334 . S
C720 C721 1.287 . S
C721 C720 1.287 . S
C721 C722 1.524 . S
C721 H724 0.999 . S
C722 H692 0.950 . S
C722 C721 1.524 . S
C722 C723 1.415 . S
C723 H693 0.950 1_565 S
C723 C718 1.363 . S
C723 C722 1.415 . S
H724 C721 0.999 . S
H725 C706 0.913 . S
H726 C744 0.951 . S
H727 C746 0.951 . S
H728 C748 0.950 . S
H729 C749 0.950 . S
H730 C751 0.950 . S
H731 C754 0.950 . S
H732 C755 0.950 . S
H733 C757 0.950 . S
H734 C758 0.950 . S
H735 C759 0.951 . S
H736 C761 0.951 . S
H737 C763 0.950 . S
H738 C764 0.950 . S
H739 C766 0.950 . S
H740 C769 0.950 . S
H741 C770 0.950 . S
H742 C772 0.950 . S
H743 C773 0.950 . S
C744 H726 0.951 . S
C744 C745 1.366 . S
C744 C746 1.388 . S
C745 C744 1.366 . S
C745 C749 1.385 . S
C746 H727 0.951 . S
C746 C744 1.388 . S
C746 C747 1.366 . S
C747 C746 1.366 . S
C747 C748 1.414 . S
C747 C750 1.499 . S
C748 H728 0.950 . S
C748 C747 1.414 . S
C748 C749 1.374 . S
C749 H729 0.950 . S
C749 C745 1.385 . S
C749 C748 1.374 . S
C750 C747 1.499 . S
C750 C751 1.373 . S
C750 C752 1.389 1_556 S
C751 H730 0.950 . S
C751 C750 1.373 . S
C751 C767 1.377 . S
C752 C750 1.389 1_554 S
C752 C753 1.524 . S
C752 C766 1.377 . S
C753 C752 1.524 . S
C753 C754 1.397 . S
C753 C758 1.363 . S
C754 H731 0.950 . S
C754 C753 1.397 . S
C754 C755 1.334 . S
C755 H732 0.950 . S
C755 C754 1.334 . S
C755 C756 1.287 . S
C756 C755 1.287 . S
C756 C757 1.524 . S
C756 H775 0.913 . S
C757 H733 0.950 . S
C757 C756 1.524 . S
C757 C758 1.415 . S
C758 H734 0.950 . S
C758 C753 1.363 . S
C758 C757 1.415 . S
C759 H735 0.951 . S
C759 C760 1.366 . S
C759 C761 1.388 . S
C760 C759 1.366 . S
C760 C764 1.385 . S
C761 H736 0.951 . S
C761 C759 1.388 . S
C761 C762 1.366 . S
C762 C761 1.366 . S
C762 C763 1.414 . S
C762 C765 1.499 . S
C763 H737 0.950 . S
C763 C762 1.414 . S
C763 C764 1.374 . S
C764 H738 0.950 . S
C764 C760 1.385 . S
C764 C763 1.374 . S
C765 C762 1.499 . S
C765 C766 1.373 . S
C765 C767 1.389 1_554 S
C766 H739 0.950 . S
C766 C752 1.377 . S
C766 C765 1.373 . S
C767 C751 1.377 . S
C767 C765 1.389 1_556 S
C767 C768 1.524 . S
C768 C767 1.524 . S
C768 C769 1.397 . S
C768 C773 1.363 . S
C769 H740 0.950 . S
C769 C768 1.397 . S
C769 C770 1.334 . S
C770 H741 0.950 . S
C770 C769 1.334 . S
C770 C771 1.287 . S
C771 C770 1.287 . S
C771 C772 1.524 . S
C771 H774 0.999 . S
C772 H742 0.950 . S
C772 C771 1.524 . S
C772 C773 1.415 . S
C773 H743 0.950 . S
C773 C768 1.363 . S
C773 C772 1.415 . S
H774 C771 0.999 . S
H775 C756 0.913 . S
H776 C794 0.951 . S
H777 C796 0.951 . S
H778 C798 0.950 . S
H779 C799 0.950 . S
H780 C801 0.950 . S
H781 C804 0.950 . S
H782 C805 0.950 . S
H783 C807 0.950 . S
H784 C808 0.950 . S
H785 C809 0.951 . S
H786 C811 0.951 . S
H787 C813 0.950 . S
H788 C814 0.950 . S
H789 C816 0.950 . S
H790 C819 0.950 . S
H791 C820 0.950 . S
H792 C822 0.950 . S
H793 C823 0.950 . S
C794 H776 0.951 . S
C794 C795 1.366 . S
C794 C796 1.388 . S
C795 C794 1.366 . S
C795 C799 1.385 . S
C796 H777 0.951 . S
C796 C794 1.388 . S
C796 C797 1.366 . S
C797 C796 1.366 . S
C797 C798 1.414 . S
C797 C800 1.499 . S
C798 H778 0.950 . S
C798 C797 1.414 . S
C798 C799 1.374 . S
C799 H779 0.950 . S
C799 C795 1.385 . S
C799 C798 1.374 . S
C800 C797 1.499 . S
C800 C801 1.373 . S
C800 C802 1.389 . S
C801 H780 0.950 . S
C801 C800 1.373 . S
C801 C817 1.377 . S
C802 C800 1.389 . S
C802 C803 1.524 . S
C802 C816 1.377 . S
C803 C802 1.524 . S
C803 C804 1.397 . S
C803 C808 1.363 . S
C804 H781 0.950 . S
C804 C803 1.397 . S
C804 C805 1.334 . S
C805 H782 0.950 . S
C805 C804 1.334 . S
C805 C806 1.287 . S
C806 C805 1.287 . S
C806 C807 1.524 . S
C806 H825 0.913 . S
C807 H783 0.950 . S
C807 C806 1.524 . S
C807 C808 1.415 . S
C808 H784 0.950 . S
C808 C803 1.363 . S
C808 C807 1.415 . S
C809 H785 0.951 . S
C809 C810 1.366 . S
C809 C811 1.388 . S
C810 C809 1.366 . S
C810 C814 1.385 . S
C811 H786 0.951 . S
C811 C809 1.388 . S
C811 C812 1.366 . S
C812 C811 1.366 . S
C812 C813 1.414 . S
C812 C815 1.499 . S
C813 H787 0.950 . S
C813 C812 1.414 . S
C813 C814 1.374 . S
C814 H788 0.950 . S
C814 C810 1.385 . S
C814 C813 1.374 . S
C815 C812 1.499 . S
C815 C816 1.373 . S
C815 C817 1.389 . S
C816 H789 0.950 . S
C816 C802 1.377 . S
C816 C815 1.373 . S
C817 C801 1.377 . S
C817 C815 1.389 . S
C817 C818 1.524 . S
C818 C817 1.524 . S
C818 C819 1.397 . S
C818 C823 1.363 . S
C819 H790 0.950 . S
C819 C818 1.397 . S
C819 C820 1.334 . S
C820 H791 0.950 . S
C820 C819 1.334 . S
C820 C821 1.287 . S
C821 C820 1.287 . S
C821 C822 1.524 . S
C821 H824 0.999 . S
C822 H792 0.950 . S
C822 C821 1.524 . S
C822 C823 1.415 . S
C823 H793 0.950 . S
C823 C818 1.363 . S
C823 C822 1.415 . S
H824 C821 0.999 . S
H825 C806 0.913 . S
H826 C844 0.951 . S
H827 C846 0.951 . S
H828 C848 0.950 . S
H829 C849 0.950 . S
H830 C851 0.950 . S
H831 C854 0.950 . S
H832 C855 0.950 . S
H833 C857 0.950 . S
H834 C858 0.950 . S
H835 C859 0.951 . S
H836 C861 0.951 . S
H837 C863 0.950 . S
H838 C864 0.950 . S
H839 C866 0.950 . S
H840 C869 0.950 . S
H841 C870 0.950 . S
H842 C872 0.950 . S
H843 C873 0.950 . S
C844 H826 0.951 . S
C844 C845 1.366 . S
C844 C846 1.388 . S
C845 C844 1.366 . S
C845 C849 1.385 . S
C846 H827 0.951 . S
C846 C844 1.388 . S
C846 C847 1.366 . S
C847 C846 1.366 . S
C847 C848 1.414 . S
C847 C850 1.499 . S
C848 H828 0.950 . S
C848 C847 1.414 . S
C848 C849 1.374 . S
C849 H829 0.950 . S
C849 C845 1.385 . S
C849 C848 1.374 . S
C850 C847 1.499 . S
C850 C851 1.373 1_455 S
C850 C852 1.389 . S
C851 H830 0.950 . S
C851 C850 1.373 1_655 S
C851 C867 1.377 . S
C852 C850 1.389 . S
C852 C853 1.524 . S
C852 C866 1.377 . S
C853 C852 1.524 . S
C853 C854 1.397 . S
C853 C858 1.363 . S
C854 H831 0.950 . S
C854 C853 1.397 . S
C854 C855 1.334 . S
C855 H832 0.950 . S
C855 C854 1.334 . S
C855 C856 1.287 . S
C856 C855 1.287 . S
C856 C857 1.524 . S
C856 H875 0.913 . S
C857 H833 0.950 . S
C857 C856 1.524 . S
C857 C858 1.415 . S
C858 H834 0.950 . S
C858 C853 1.363 . S
C858 C857 1.415 . S
C859 H835 0.951 . S
C859 C860 1.366 . S
C859 C861 1.388 . S
C860 C859 1.366 . S
C860 C864 1.385 . S
C861 H836 0.951 . S
C861 C859 1.388 . S
C861 C862 1.366 . S
C862 C861 1.366 . S
C862 C863 1.414 . S
C862 C865 1.499 . S
C863 H837 0.950 . S
C863 C862 1.414 . S
C863 C864 1.374 . S
C864 H838 0.950 . S
C864 C860 1.385 . S
C864 C863 1.374 . S
C865 C862 1.499 . S
C865 C866 1.373 1_655 S
C865 C867 1.389 . S
C866 H839 0.950 . S
C866 C852 1.377 . S
C866 C865 1.373 1_455 S
C867 C851 1.377 . S
C867 C865 1.389 . S
C867 C868 1.524 . S
C868 C867 1.524 . S
C868 C869 1.397 . S
C868 C873 1.363 . S
C869 H840 0.950 . S
C869 C868 1.397 . S
C869 C870 1.334 . S
C870 H841 0.950 . S
C870 C869 1.334 . S
C870 C871 1.287 . S
C871 C870 1.287 . S
C871 C872 1.524 . S
C871 H874 0.999 . S
C872 H842 0.950 . S
C872 C871 1.524 . S
C872 C873 1.415 . S
C873 H843 0.950 . S
C873 C868 1.363 . S
C873 C872 1.415 . S
H874 C871 0.999 . S
H875 C856 0.913 . S
H876 C894 0.951 . S
H877 C896 0.951 . S
H878 C898 0.950 . S
H879 C899 0.950 . S
H880 C901 0.950 . S
H881 C904 0.950 . S
H882 C905 0.950 . S
H883 C907 0.950 . S
H884 C908 0.950 . S
H885 C909 0.951 . S
H886 C911 0.951 . S
H887 C913 0.950 . S
H888 C914 0.950 . S
H889 C916 0.950 . S
H890 C919 0.950 . S
H891 C920 0.950 . S
H892 C922 0.950 . S
H893 C923 0.950 . S
C894 H876 0.951 . S
C894 C895 1.366 . S
C894 C896 1.388 . S
C895 C894 1.366 . S
C895 C899 1.385 . S
C896 H877 0.951 . S
C896 C894 1.388 . S
C896 C897 1.366 . S
C897 C896 1.366 . S
C897 C898 1.414 . S
C897 C900 1.499 . S
C898 H878 0.950 . S
C898 C897 1.414 . S
C898 C899 1.374 . S
C899 H879 0.950 . S
C899 C895 1.385 . S
C899 C898 1.374 . S
C900 C897 1.499 . S
C900 C901 1.373 . S
C900 C902 1.389 . S
C901 H880 0.950 . S
C901 C900 1.373 . S
C901 C917 1.377 . S
C902 C900 1.389 . S
C902 C903 1.524 . S
C902 C916 1.377 . S
C903 C902 1.524 . S
C903 C904 1.397 . S
C903 C908 1.363 . S
C904 H881 0.950 . S
C904 C903 1.397 . S
C904 C905 1.334 . S
C905 H882 0.950 . S
C905 C904 1.334 . S
C905 C906 1.287 . S
C906 C905 1.287 . S
C906 C907 1.524 . S
C906 H925 0.913 . S
C907 H883 0.950 . S
C907 C906 1.524 . S
C907 C908 1.415 . S
C908 H884 0.950 . S
C908 C903 1.363 . S
C908 C907 1.415 . S
C909 H885 0.951 . S
C909 C910 1.366 . S
C909 C911 1.388 . S
C910 C909 1.366 . S
C910 C914 1.385 . S
C911 H886 0.951 . S
C911 C909 1.388 . S
C911 C912 1.366 . S
C912 C911 1.366 . S
C912 C913 1.414 . S
C912 C915 1.499 . S
C913 H887 0.950 . S
C913 C912 1.414 . S
C913 C914 1.374 . S
C914 H888 0.950 . S
C914 C910 1.385 . S
C914 C913 1.374 . S
C915 C912 1.499 . S
C915 C916 1.373 . S
C915 C917 1.389 . S
C916 H889 0.950 . S
C916 C902 1.377 . S
C916 C915 1.373 . S
C917 C901 1.377 . S
C917 C915 1.389 . S
C917 C918 1.524 . S
C918 C917 1.524 . S
C918 C919 1.397 . S
C918 C923 1.363 . S
C919 H890 0.950 . S
C919 C918 1.397 . S
C919 C920 1.334 . S
C920 H891 0.950 . S
C920 C919 1.334 . S
C920 C921 1.287 . S
C921 C920 1.287 . S
C921 C922 1.524 . S
C921 H924 0.999 . S
C922 H892 0.950 . S
C922 C921 1.524 . S
C922 C923 1.415 . S
C923 H893 0.950 . S
C923 C918 1.363 . S
C923 C922 1.415 . S
H924 C921 0.999 . S
H925 C906 0.913 . S
H926 C944 0.951 . S
H927 C946 0.951 1_455 S
H928 C948 0.950 . S
H929 C949 0.950 . S
H930 C951 0.950 . S
H931 C954 0.950 1_655 S
H932 C955 0.950 . S
H933 C957 0.950 . S
H934 C958 0.950 . S
H935 C959 0.951 . S
H936 C961 0.951 1_655 S
H937 C963 0.950 . S
H938 C964 0.950 . S
H939 C966 0.950 . S
H940 C969 0.950 1_455 S
H941 C970 0.950 . S
H942 C972 0.950 . S
H943 C973 0.950 . S
C944 H926 0.951 . S
C944 C945 1.366 . S
C944 C946 1.388 . S
C945 C944 1.366 . S
C945 C949 1.385 . S
C946 H927 0.951 1_655 S
C946 C944 1.388 . S
C946 C947 1.366 . S
C947 C946 1.366 . S
C947 C948 1.414 . S
C947 C950 1.499 . S
C948 H928 0.950 . S
C948 C947 1.414 . S
C948 C949 1.374 . S
C949 H929 0.950 . S
C949 C945 1.385 . S
C949 C948 1.374 . S
C950 C947 1.499 . S
C950 C951 1.373 . S
C950 C952 1.389 1_655 S
C951 H930 0.950 . S
C951 C950 1.373 . S
C951 C967 1.377 . S
C952 C950 1.389 1_455 S
C952 C953 1.524 . S
C952 C966 1.377 . S
C953 C952 1.524 . S
C953 C954 1.397 . S
C953 C958 1.363 . S
C954 H931 0.950 1_455 S
C954 C953 1.397 . S
C954 C955 1.334 . S
C955 H932 0.950 . S
C955 C954 1.334 . S
C955 C956 1.287 . S
C956 C955 1.287 . S
C956 C957 1.524 . S
C956 H975 0.913 . S
C957 H933 0.950 . S
C957 C956 1.524 . S
C957 C958 1.415 . S
C958 H934 0.950 . S
C958 C953 1.363 . S
C958 C957 1.415 . S
C959 H935 0.951 . S
C959 C960 1.366 . S
C959 C961 1.388 . S
C960 C959 1.366 . S
C960 C964 1.385 . S
C961 H936 0.951 1_455 S
C961 C959 1.388 . S
C961 C962 1.366 . S
C962 C961 1.366 . S
C962 C963 1.414 . S
C962 C965 1.499 . S
C963 H937 0.950 . S
C963 C962 1.414 . S
C963 C964 1.374 . S
C964 H938 0.950 . S
C964 C960 1.385 . S
C964 C963 1.374 . S
C965 C962 1.499 . S
C965 C966 1.373 . S
C965 C967 1.389 1_455 S
C966 H939 0.950 . S
C966 C952 1.377 . S
C966 C965 1.373 . S
C967 C951 1.377 . S
C967 C965 1.389 1_655 S
C967 C968 1.524 . S
C968 C967 1.524 . S
C968 C969 1.397 . S
C968 C973 1.363 . S
C969 H940 0.950 1_655 S
C969 C968 1.397 . S
C969 C970 1.334 . S
C970 H941 0.950 . S
C970 C969 1.334 . S
C970 C971 1.287 . S
C971 C970 1.287 . S
C971 C972 1.524 . S
C971 H974 0.999 . S
C972 H942 0.950 . S
C972 C971 1.524 . S
C972 C973 1.415 . S
C973 H943 0.950 . S
C973 C968 1.363 . S
C973 C972 1.415 . S
H974 C971 0.999 . S
H975 C956 0.913 . S
H976 C994 0.951 . S
H977 C996 0.951 . S
H978 C998 0.950 . S
H979 C999 0.950 . S
H980 C1001 0.950 . S
H981 C1004 0.950 . S
H982 C1005 0.950 . S
H983 C1007 0.950 . S
H984 C1008 0.950 . S
H985 C1009 0.951 . S
H986 C1011 0.951 . S
H987 C1013 0.950 . S
H988 C1014 0.950 . S
H989 C1016 0.950 . S
H990 C1019 0.950 . S
H991 C1020 0.950 . S
H992 C1022 0.950 . S
H993 C1023 0.950 . S
C994 H976 0.951 . S
C994 C995 1.366 . S
C994 C996 1.388 . S
C995 C994 1.366 . S
C995 C999 1.385 . S
C996 H977 0.951 . S
C996 C994 1.388 . S
C996 C997 1.366 . S
C997 C996 1.366 . S
C997 C998 1.414 . S
C997 C1000 1.499 . S
C998 H978 0.950 . S
C998 C997 1.414 . S
C998 C999 1.374 . S
C999 H979 0.950 . S
C999 C995 1.385 . S
C999 C998 1.374 . S
C1000 C997 1.499 . S
C1000 C1001 1.373 . S
C1000 C1002 1.389 . S
C1001 H980 0.950 . S
C1001 C1000 1.373 . S
C1001 C1017 1.377 . S
C1002 C1000 1.389 . S
C1002 C1003 1.524 . S
C1002 C1016 1.377 . S
C1003 C1002 1.524 . S
C1003 C1004 1.397 . S
C1003 C1008 1.363 . S
C1004 H981 0.950 . S
C1004 C1003 1.397 . S
C1004 C1005 1.334 . S
C1005 H982 0.950 . S
C1005 C1004 1.334 . S
C1005 C1006 1.287 . S
C1006 C1005 1.287 . S
C1006 C1007 1.524 . S
C1006 H1025 0.913 . S
C1007 H983 0.950 . S
C1007 C1006 1.524 . S
C1007 C1008 1.415 . S
C1008 H984 0.950 . S
C1008 C1003 1.363 . S
C1008 C1007 1.415 . S
C1009 H985 0.951 . S
C1009 C1010 1.366 . S
C1009 C1011 1.388 . S
C1010 C1009 1.366 . S
C1010 C1014 1.385 . S
C1011 H986 0.951 . S
C1011 C1009 1.388 . S
C1011 C1012 1.366 . S
C1012 C1011 1.366 . S
C1012 C1013 1.414 . S
C1012 C1015 1.499 . S
C1013 H987 0.950 . S
C1013 C1012 1.414 . S
C1013 C1014 1.374 . S
C1014 H988 0.950 . S
C1014 C1010 1.385 . S
C1014 C1013 1.374 . S
C1015 C1012 1.499 . S
C1015 C1016 1.373 . S
C1015 C1017 1.389 . S
C1016 H989 0.950 . S
C1016 C1002 1.377 . S
C1016 C1015 1.373 . S
C1017 C1001 1.377 . S
C1017 C1015 1.389 . S
C1017 C1018 1.524 . S
C1018 C1017 1.524 . S
C1018 C1019 1.397 . S
C1018 C1023 1.363 . S
C1019 H990 0.950 . S
C1019 C1018 1.397 . S
C1019 C1020 1.334 . S
C1020 H991 0.950 . S
C1020 C1019 1.334 . S
C1020 C1021 1.287 . S
C1021 C1020 1.287 . S
C1021 C1022 1.524 . S
C1021 H1024 0.999 . S
C1022 H992 0.950 . S
C1022 C1021 1.524 . S
C1022 C1023 1.415 . S
C1023 H993 0.950 . S
C1023 C1018 1.363 . S
C1023 C1022 1.415 . S
H1024 C1021 0.999 . S
H1025 C1006 0.913 . S
H1026 C1044 0.951 . S
H1027 C1046 0.951 . S
H1028 C1048 0.950 . S
H1029 C1049 0.950 1_455 S
H1030 C1051 0.962 . S
H1031 C1054 0.950 . S
H1032 C1055 0.950 . S
H1033 C1057 0.950 . S
H1034 C1058 0.950 . S
H1035 C1059 0.951 . S
H1036 C1061 0.951 . S
H1037 C1063 0.950 1_556 S
H1038 C1064 0.950 . S
H1039 C1066 0.950 . S
H1040 C1069 0.950 . S
H1041 C1070 0.950 . S
H1042 C1072 0.950 . S
H1043 C1073 0.950 . S
C1044 H1026 0.951 . S
C1044 C1045 1.366 . S
C1044 C1046 1.388 . S
C1045 C1044 1.366 . S
C1045 C1049 1.385 . S
C1046 H1027 0.951 . S
C1046 C1044 1.388 . S
C1046 C1047 1.366 . S
C1047 C1046 1.366 . S
C1047 C1048 1.414 . S
C1047 C1050 1.499 . S
C1048 H1028 0.950 . S
C1048 C1047 1.414 . S
C1048 C1049 1.374 . S
C1049 H1029 0.950 1_655 S
C1049 C1045 1.385 . S
C1049 C1048 1.374 . S
C1050 C1047 1.499 . S
C1050 C1051 1.373 . S
C1050 C1052 1.389 . S
C1051 H1030 0.962 . S
C1051 C1050 1.373 . S
C1051 C1067 1.377 1_556 S
C1052 C1050 1.389 . S
C1052 C1053 1.524 . S
C1052 C1066 1.377 . S
C1053 C1052 1.524 . S
C1053 C1054 1.397 . S
C1053 C1058 1.363 . S
C1054 H1031 0.950 . S
C1054 C1053 1.397 . S
C1054 C1055 1.334 . S
C1055 H1032 0.950 . S
C1055 C1054 1.334 . S
C1055 C1056 1.287 . S
C1056 C1055 1.287 . S
C1056 C1057 1.524 . S
C1056 H1075 0.913 . S
C1057 H1033 0.950 . S
C1057 C1056 1.524 . S
C1057 C1058 1.415 . S
C1058 H1034 0.950 . S
C1058 C1053 1.363 . S
C1058 C1057 1.415 . S
C1059 H1035 0.951 . S
C1059 C1060 1.366 . S
C1059 C1061 1.388 . S
C1060 C1059 1.366 . S
C1060 C1064 1.385 . S
C1061 H1036 0.951 . S
C1061 C1059 1.388 . S
C1061 C1062 1.366 . S
C1062 C1061 1.366 . S
C1062 C1063 1.414 . S
C1062 C1065 1.499 . S
C1063 H1037 0.950 1_554 S
C1063 C1062 1.414 . S
C1063 C1064 1.374 . S
C1064 H1038 0.950 . S
C1064 C1060 1.385 . S
C1064 C1063 1.374 . S
C1065 C1062 1.499 . S
C1065 C1066 1.373 1_554 S
C1065 C1067 1.389 . S
C1066 H1039 0.950 . S
C1066 C1052 1.377 . S
C1066 C1065 1.373 1_556 S
C1067 C1051 1.377 1_554 S
C1067 C1065 1.389 . S
C1067 C1068 1.524 . S
C1068 C1067 1.524 . S
C1068 C1069 1.397 . S
C1068 C1073 1.363 . S
C1069 H1040 0.950 . S
C1069 C1068 1.397 . S
C1069 C1070 1.334 . S
C1070 H1041 0.950 . S
C1070 C1069 1.334 . S
C1070 C1071 1.287 . S
C1071 C1070 1.287 . S
C1071 C1072 1.524 . S
C1071 H1074 0.999 . S
C1072 H1042 0.950 . S
C1072 C1071 1.524 . S
C1072 C1073 1.415 . S
C1073 H1043 0.950 . S
C1073 C1068 1.363 . S
C1073 C1072 1.415 . S
H1074 C1071 0.999 . S
H1075 C1056 0.913 . S
H1076 C1094 0.951 . S
H1077 C1096 0.951 . S
H1078 C1098 0.950 . S
H1079 C1099 0.950 1_655 S
H1080 C1101 0.950 . S
H1081 C1104 0.950 . S
H1082 C1105 0.950 . S
H1083 C1107 0.950 . S
H1084 C1108 0.950 . S
H1085 C1109 0.951 . S
H1086 C1111 0.951 . S
H1087 C1113 0.950 . S
H1088 C1114 0.950 . S
H1089 C1116 0.950 . S
H1090 C1119 0.950 . S
H1091 C1120 0.950 . S
H1092 C1122 0.950 . S
H1093 C1123 0.950 . S
C1094 H1076 0.951 . S
C1094 C1095 1.366 . S
C1094 C1096 1.388 . S
C1095 C1094 1.366 . S
C1095 C1099 1.385 . S
C1096 H1077 0.951 . S
C1096 C1094 1.388 . S
C1096 C1097 1.366 . S
C1097 C1096 1.366 . S
C1097 C1098 1.414 . S
C1097 C1100 1.499 . S
C1098 H1078 0.950 . S
C1098 C1097 1.414 . S
C1098 C1099 1.374 . S
C1099 H1079 0.950 1_455 S
C1099 C1095 1.385 . S
C1099 C1098 1.374 . S
C1100 C1097 1.499 . S
C1100 C1101 1.373 . S
C1100 C1102 1.389 . S
C1101 H1080 0.950 . S
C1101 C1100 1.373 . S
C1101 C1117 1.377 . S
C1102 C1100 1.389 . S
C1102 C1103 1.524 . S
C1102 C1116 1.377 . S
C1103 C1102 1.524 . S
C1103 C1104 1.397 . S
C1103 C1108 1.363 . S
C1104 H1081 0.950 . S
C1104 C1103 1.397 . S
C1104 C1105 1.334 . S
C1105 H1082 0.950 . S
C1105 C1104 1.334 . S
C1105 C1106 1.287 . S
C1106 C1105 1.287 . S
C1106 C1107 1.524 . S
C1106 H1125 0.913 . S
C1107 H1083 0.950 . S
C1107 C1106 1.524 . S
C1107 C1108 1.415 . S
C1108 H1084 0.950 . S
C1108 C1103 1.363 . S
C1108 C1107 1.415 . S
C1109 H1085 0.951 . S
C1109 C1110 1.366 . S
C1109 C1111 1.388 . S
C1110 C1109 1.366 . S
C1110 C1114 1.385 . S
C1111 H1086 0.951 . S
C1111 C1109 1.388 . S
C1111 C1112 1.366 . S
C1112 C1111 1.366 . S
C1112 C1113 1.414 . S
C1112 C1115 1.499 . S
C1113 H1087 0.950 . S
C1113 C1112 1.414 . S
C1113 C1114 1.374 . S
C1114 H1088 0.950 . S
C1114 C1110 1.385 . S
C1114 C1113 1.374 . S
C1115 C1112 1.499 . S
C1115 C1116 1.373 . S
C1115 C1117 1.389 . S
C1116 H1089 0.950 . S
C1116 C1102 1.377 . S
C1116 C1115 1.373 . S
C1117 C1101 1.377 . S
C1117 C1115 1.389 . S
C1117 C1118 1.524 . S
C1118 C1117 1.524 . S
C1118 C1119 1.397 . S
C1118 C1123 1.363 . S
C1119 H1090 0.950 . S
C1119 C1118 1.397 . S
C1119 C1120 1.334 . S
C1120 H1091 0.950 . S
C1120 C1119 1.334 . S
C1120 C1121 1.287 . S
C1121 C1120 1.287 . S
C1121 C1122 1.524 . S
C1121 H1124 0.999 . S
C1122 H1092 0.950 . S
C1122 C1121 1.524 . S
C1122 C1123 1.415 . S
C1123 H1093 0.950 . S
C1123 C1118 1.363 . S
C1123 C1122 1.415 . S
H1124 C1121 0.999 . S
H1125 C1106 0.913 . S
H1126 C1144 0.951 . S
H1127 C1146 0.951 . S
H1128 C1148 0.950 . S
H1129 C1149 0.950 . S
H1130 C1151 0.950 . S
H1131 C1154 0.950 . S
H1132 C1155 0.950 . S
H1133 C1157 0.950 . S
H1134 C1158 0.950 1_556 S
H1135 C1159 0.951 . S
H1136 C1161 0.937 1_554 S
H1137 C1163 0.950 . S
H1138 C1164 0.950 . S
H1139 C1166 0.950 1_556 S
H1140 C1169 0.950 . S
H1141 C1170 0.950 . S
H1142 C1172 0.950 . S
H1143 C1173 0.950 . S
C1144 H1126 0.951 . S
C1144 C1145 1.366 . S
C1144 C1146 1.388 . S
C1145 C1144 1.366 . S
C1145 C1149 1.385 . S
C1146 H1127 0.951 . S
C1146 C1144 1.388 . S
C1146 C1147 1.366 . S
C1147 C1146 1.366 . S
C1147 C1148 1.414 . S
C1147 C1150 1.499 . S
C1148 H1128 0.950 . S
C1148 C1147 1.414 . S
C1148 C1149 1.374 . S
C1149 H1129 0.950 . S
C1149 C1145 1.385 . S
C1149 C1148 1.374 . S
C1150 C1147 1.499 . S
C1150 C1151 1.373 . S
C1150 C1152 1.389 . S
C1151 H1130 0.950 . S
C1151 C1150 1.373 . S
C1151 C1167 1.377 . S
C1152 C1150 1.389 . S
C1152 C1153 1.524 . S
C1152 C1166 1.377 . S
C1153 C1152 1.524 . S
C1153 C1154 1.397 . S
C1153 C1158 1.363 . S
C1154 H1131 0.950 . S
C1154 C1153 1.397 . S
C1154 C1155 1.334 . S
C1155 H1132 0.950 . S
C1155 C1154 1.334 . S
C1155 C1156 1.287 . S
C1156 C1155 1.287 . S
C1156 C1157 1.524 . S
C1156 H1175 0.913 . S
C1157 H1133 0.950 . S
C1157 C1156 1.524 . S
C1157 C1158 1.415 . S
C1158 H1134 0.950 1_554 S
C1158 C1153 1.363 . S
C1158 C1157 1.415 . S
C1159 H1135 0.951 . S
C1159 C1160 1.366 . S
C1159 C1161 1.388 . S
C1160 C1159 1.366 . S
C1160 C1164 1.385 . S
C1161 H1136 0.937 1_556 S
C1161 C1159 1.388 . S
C1161 C1162 1.366 . S
C1162 C1161 1.366 . S
C1162 C1163 1.414 . S
C1162 C1165 1.499 . S
C1163 H1137 0.950 . S
C1163 C1162 1.414 . S
C1163 C1164 1.374 . S
C1164 H1138 0.950 . S
C1164 C1160 1.385 . S
C1164 C1163 1.374 . S
C1165 C1162 1.499 . S
C1165 C1166 1.373 1_556 S
C1165 C1167 1.389 1_556 S
C1166 H1139 0.950 1_554 S
C1166 C1152 1.377 . S
C1166 C1165 1.373 1_554 S
C1167 C1151 1.377 . S
C1167 C1165 1.389 1_554 S
C1167 C1168 1.532 . S
C1168 C1167 1.532 . S
C1168 C1169 1.366 1_554 S
C1168 C1173 1.386 . S
C1169 H1140 0.950 . S
C1169 C1168 1.366 1_556 S
C1169 C1170 1.334 . S
C1170 H1141 0.950 . S
C1170 C1169 1.334 . S
C1170 C1171 1.287 . S
C1171 C1170 1.287 . S
C1171 C1172 1.524 1_556 S
C1171 H1174 0.999 . S
C1172 H1142 0.950 . S
C1172 C1171 1.524 1_554 S
C1172 C1173 1.415 . S
C1173 H1143 0.950 . S
C1173 C1168 1.386 . S
C1173 C1172 1.415 . S
H1174 C1171 0.999 . S
H1175 C1156 0.913 . S
H1176 C1194 0.951 . S
H1177 C1196 0.951 . S
H1178 C1198 0.950 . S
H1179 C1199 0.950 . S
H1180 C1201 0.950 . S
H1181 C1204 0.950 . S
H1182 C1205 0.950 . S
H1183 C1207 0.950 . S
H1184 C1208 0.950 . S
H1185 C1209 0.951 . S
H1186 C1211 0.951 . S
H1187 C1213 0.950 . S
H1188 C1214 0.950 . S
H1189 C1216 0.950 . S
H1190 C1219 0.950 . S
H1191 C1220 0.950 . S
H1192 C1222 0.950 . S
H1193 C1223 0.950 . S
C1194 H1176 0.951 . S
C1194 C1195 1.366 . S
C1194 C1196 1.388 . S
C1195 C1194 1.366 . S
C1195 C1199 1.385 . S
C1196 H1177 0.951 . S
C1196 C1194 1.388 . S
C1196 C1197 1.366 . S
C1197 C1196 1.366 . S
C1197 C1198 1.414 . S
C1197 C1200 1.499 . S
C1198 H1178 0.950 . S
C1198 C1197 1.414 . S
C1198 C1199 1.374 . S
C1199 H1179 0.950 . S
C1199 C1195 1.385 . S
C1199 C1198 1.374 . S
C1200 C1197 1.499 . S
C1200 C1201 1.373 . S
C1200 C1202 1.389 . S
C1201 H1180 0.950 . S
C1201 C1200 1.373 . S
C1201 C1217 1.377 . S
C1202 C1200 1.389 . S
C1202 C1203 1.524 . S
C1202 C1216 1.377 . S
C1203 C1202 1.524 . S
C1203 C1204 1.397 . S
C1203 C1208 1.363 . S
C1204 H1181 0.950 . S
C1204 C1203 1.397 . S
C1204 C1205 1.334 . S
C1205 H1182 0.950 . S
C1205 C1204 1.334 . S
C1205 C1206 1.287 . S
C1206 C1205 1.287 . S
C1206 C1207 1.524 . S
C1206 H1225 0.913 . S
C1207 H1183 0.950 . S
C1207 C1206 1.524 . S
C1207 C1208 1.415 . S
C1208 H1184 0.950 . S
C1208 C1203 1.363 . S
C1208 C1207 1.415 . S
C1209 H1185 0.951 . S
C1209 C1210 1.366 . S
C1209 C1211 1.388 . S
C1210 C1209 1.366 . S
C1210 C1214 1.385 . S
C1211 H1186 0.951 . S
C1211 C1209 1.388 . S
C1211 C1212 1.366 . S
C1212 C1211 1.366 . S
C1212 C1213 1.414 . S
C1212 C1215 1.499 . S
C1213 H1187 0.950 . S
C1213 C1212 1.414 . S
C1213 C1214 1.374 . S
C1214 H1188 0.950 . S
C1214 C1210 1.385 . S
C1214 C1213 1.374 . S
C1215 C1212 1.499 . S
C1215 C1216 1.373 . S
C1215 C1217 1.389 . S
C1216 H1189 0.950 . S
C1216 C1202 1.377 . S
C1216 C1215 1.373 . S
C1217 C1201 1.377 . S
C1217 C1215 1.389 . S
C1217 C1218 1.524 . S
C1218 C1217 1.524 . S
C1218 C1219 1.397 . S
C1218 C1223 1.363 . S
C1219 H1190 0.950 . S
C1219 C1218 1.397 . S
C1219 C1220 1.334 . S
C1220 H1191 0.950 . S
C1220 C1219 1.334 . S
C1220 C1221 1.287 . S
C1221 C1220 1.287 . S
C1221 C1222 1.524 . S
C1221 H1224 0.999 . S
C1222 H1192 0.950 . S
C1222 C1221 1.524 . S
C1222 C1223 1.415 . S
C1223 H1193 0.950 . S
C1223 C1218 1.363 . S
C1223 C1222 1.415 . S
H1224 C1221 0.999 . S
H1225 C1206 0.913 . S
H1226 C1244 0.951 1_655 S
H1227 C1246 0.951 . S
H1228 C1248 0.950 . S
H1229 C1249 0.950 . S
H1230 C1251 0.950 . S
H1231 C1254 0.950 . S
H1232 C1255 0.950 . S
H1233 C1257 0.950 1_556 S
H1234 C1258 0.904 1_556 S
H1235 C1259 0.951 . S
H1236 C1261 0.951 1_554 S
H1237 C1263 0.950 . S
H1238 C1264 0.950 . S
H1239 C1266 0.968 . S
H1240 C1269 0.950 . S
H1241 C1270 0.950 . S
H1242 C1272 0.950 . S
H1243 C1273 0.950 . S
C1244 H1226 0.951 1_455 S
C1244 C1245 1.366 . S
C1244 C1246 1.388 . S
C1245 C1244 1.366 . S
C1245 C1249 1.385 . S
C1246 H1227 0.951 . S
C1246 C1244 1.388 . S
C1246 C1247 1.366 . S
C1247 C1246 1.366 . S
C1247 C1248 1.414 . S
C1247 C1250 1.499 . S
C1248 H1228 0.950 . S
C1248 C1247 1.414 . S
C1248 C1249 1.374 . S
C1249 H1229 0.950 . S
C1249 C1245 1.385 . S
C1249 C1248 1.374 . S
C1250 C1247 1.499 . S
C1250 C1251 1.373 . S
C1250 C1252 1.389 . S
C1251 H1230 0.950 . S
C1251 C1250 1.373 . S
C1251 C1267 1.377 . S
C1252 C1250 1.389 . S
C1252 C1253 1.524 . S
C1252 C1266 1.355 1_554 S
C1253 C1252 1.524 . S
C1253 C1254 1.397 . S
C1253 C1258 1.402 . S
C1254 H1231 0.950 . S
C1254 C1253 1.397 . S
C1254 C1255 1.334 . S
C1255 H1232 0.950 . S
C1255 C1254 1.334 . S
C1255 C1256 1.287 . S
C1256 C1255 1.287 . S
C1256 C1257 1.524 . S
C1256 H1275 0.913 . S
C1257 H1233 0.950 1_554 S
C1257 C1256 1.524 . S
C1257 C1258 1.423 . S
C1258 H1234 0.904 1_554 S
C1258 C1253 1.402 . S
C1258 C1257 1.423 . S
C1259 H1235 0.951 . S
C1259 C1260 1.366 . S
C1259 C1261 1.388 . S
C1260 C1259 1.366 . S
C1260 C1264 1.385 . S
C1261 H1236 0.951 1_556 S
C1261 C1259 1.388 . S
C1261 C1262 1.366 . S
C1262 C1261 1.366 . S
C1262 C1263 1.414 . S
C1262 C1265 1.499 . S
C1263 H1237 0.950 . S
C1263 C1262 1.414 . S
C1263 C1264 1.374 . S
C1264 H1238 0.950 . S
C1264 C1260 1.385 . S
C1264 C1263 1.374 . S
C1265 C1262 1.499 . S
C1265 C1266 1.378 . S
C1265 C1267 1.389 1_556 S
C1266 H1239 0.968 . S
C1266 C1252 1.355 1_556 S
C1266 C1265 1.378 . S
C1267 C1251 1.377 . S
C1267 C1265 1.389 1_554 S
C1267 C1268 1.524 . S
C1268 C1267 1.524 . S
C1268 C1269 1.397 1_554 S
C1268 C1273 1.363 . S
C1269 H1240 0.950 . S
C1269 C1268 1.397 1_556 S
C1269 C1270 1.334 . S
C1270 H1241 0.950 . S
C1270 C1269 1.334 . S
C1270 C1271 1.287 . S
C1271 C1270 1.287 . S
C1271 C1272 1.524 1_556 S
C1271 H1274 0.999 . S
C1272 H1242 0.950 . S
C1272 C1271 1.524 1_554 S
C1272 C1273 1.415 . S
C1273 H1243 0.950 . S
C1273 C1268 1.363 . S
C1273 C1272 1.415 . S
H1274 C1271 0.999 . S
H1275 C1256 0.913 . S
H1276 C1294 0.951 1_455 S
H1277 C1296 0.951 . S
H1278 C1298 0.950 . S
H1279 C1299 0.950 . S
H1280 C1301 0.950 . S
H1281 C1304 0.950 . S
H1282 C1305 0.950 . S
H1283 C1307 0.950 . S
H1284 C1308 0.950 . S
H1285 C1309 0.951 . S
H1286 C1311 0.951 . S
H1287 C1313 0.950 . S
H1288 C1314 0.950 . S
H1289 C1316 0.950 . S
H1290 C1319 0.950 . S
H1291 C1320 0.950 . S
H1292 C1322 0.950 . S
H1293 C1323 0.950 . S
C1294 H1276 0.951 1_655 S
C1294 C1295 1.366 . S
C1294 C1296 1.388 . S
C1295 C1294 1.366 . S
C1295 C1299 1.385 . S
C1296 H1277 0.951 . S
C1296 C1294 1.388 . S
C1296 C1297 1.366 . S
C1297 C1296 1.366 . S
C1297 C1298 1.414 . S
C1297 C1300 1.499 . S
C1298 H1278 0.950 . S
C1298 C1297 1.414 . S
C1298 C1299 1.374 . S
C1299 H1279 0.950 . S
C1299 C1295 1.385 . S
C1299 C1298 1.374 . S
C1300 C1297 1.499 . S
C1300 C1301 1.373 . S
C1300 C1302 1.389 . S
C1301 H1280 0.950 . S
C1301 C1300 1.373 . S
C1301 C1317 1.377 . S
C1302 C1300 1.389 . S
C1302 C1303 1.524 . S
C1302 C1316 1.377 . S
C1303 C1302 1.524 . S
C1303 C1304 1.397 . S
C1303 C1308 1.363 . S
C1304 H1281 0.950 . S
C1304 C1303 1.397 . S
C1304 C1305 1.334 . S
C1305 H1282 0.950 . S
C1305 C1304 1.334 . S
C1305 C1306 1.287 . S
C1306 C1305 1.287 . S
C1306 C1307 1.524 . S
C1306 H1325 0.913 . S
C1307 H1283 0.950 . S
C1307 C1306 1.524 . S
C1307 C1308 1.415 . S
C1308 H1284 0.950 . S
C1308 C1303 1.363 . S
C1308 C1307 1.415 . S
C1309 H1285 0.951 . S
C1309 C1310 1.366 . S
C1309 C1311 1.388 . S
C1310 C1309 1.366 . S
C1310 C1314 1.385 . S
C1311 H1286 0.951 . S
C1311 C1309 1.388 . S
C1311 C1312 1.366 . S
C1312 C1311 1.366 . S
C1312 C1313 1.414 . S
C1312 C1315 1.499 . S
C1313 H1287 0.950 . S
C1313 C1312 1.414 . S
C1313 C1314 1.374 . S
C1314 H1288 0.950 . S
C1314 C1310 1.385 . S
C1314 C1313 1.374 . S
C1315 C1312 1.499 . S
C1315 C1316 1.373 . S
C1315 C1317 1.389 . S
C1316 H1289 0.950 . S
C1316 C1302 1.377 . S
C1316 C1315 1.373 . S
C1317 C1301 1.377 . S
C1317 C1315 1.389 . S
C1317 C1318 1.524 . S
C1318 C1317 1.524 . S
C1318 C1319 1.397 . S
C1318 C1323 1.363 . S
C1319 H1290 0.950 . S
C1319 C1318 1.397 . S
C1319 C1320 1.334 . S
C1320 H1291 0.950 . S
C1320 C1319 1.334 . S
C1320 C1321 1.287 . S
C1321 C1320 1.287 . S
C1321 C1322 1.524 . S
C1321 H1324 0.999 . S
C1322 H1292 0.950 . S
C1322 C1321 1.524 . S
C1322 C1323 1.415 . S
C1323 H1293 0.950 . S
C1323 C1318 1.363 . S
C1323 C1322 1.415 . S
H1324 C1321 0.999 . S
H1325 C1306 0.913 . S
H1326 C1344 0.951 . S
H1327 C1346 0.951 . S
H1328 C1348 0.950 1_556 S
H1329 C1349 0.950 . S
H1330 C1351 0.950 . S
H1331 C1354 0.950 . S
H1332 C1355 0.950 . S
H1333 C1357 0.950 . S
H1334 C1358 0.950 . S
H1335 C1359 0.951 . S
H1336 C1361 0.951 . S
H1337 C1363 0.950 . S
H1338 C1364 0.950 . S
H1339 C1366 0.950 . S
H1340 C1369 0.950 . S
H1341 C1370 0.950 . S
H1342 C1372 0.950 . S
H1343 C1373 0.950 . S
C1344 H1326 0.951 . S
C1344 C1345 1.366 . S
C1344 C1346 1.388 . S
C1345 C1344 1.366 . S
C1345 C1349 1.385 . S
C1346 H1327 0.951 . S
C1346 C1344 1.388 . S
C1346 C1347 1.366 . S
C1347 C1346 1.366 . S
C1347 C1348 1.414 . S
C1347 C1350 1.499 . S
C1348 H1328 0.950 1_554 S
C1348 C1347 1.414 . S
C1348 C1349 1.374 . S
C1349 H1329 0.950 . S
C1349 C1345 1.385 . S
C1349 C1348 1.374 . S
C1350 C1347 1.499 . S
C1350 C1351 1.373 1_554 S
C1350 C1352 1.389 . S
C1351 H1330 0.950 . S
C1351 C1350 1.373 1_556 S
C1351 C1367 1.377 . S
C1352 C1350 1.389 . S
C1352 C1353 1.524 . S
C1352 C1366 1.377 1_554 S
C1353 C1352 1.524 . S
C1353 C1354 1.397 . S
C1353 C1358 1.363 . S
C1354 H1331 0.950 . S
C1354 C1353 1.397 . S
C1354 C1355 1.334 . S
C1355 H1332 0.950 . S
C1355 C1354 1.334 . S
C1355 C1356 1.287 . S
C1356 C1355 1.287 . S
C1356 C1357 1.524 . S
C1356 H1375 0.913 . S
C1357 H1333 0.950 . S
C1357 C1356 1.524 . S
C1357 C1358 1.415 . S
C1358 H1334 0.950 . S
C1358 C1353 1.363 . S
C1358 C1357 1.415 . S
C1359 H1335 0.951 . S
C1359 C1360 1.366 . S
C1359 C1361 1.388 . S
C1360 C1359 1.366 . S
C1360 C1364 1.385 . S
C1361 H1336 0.951 . S
C1361 C1359 1.388 . S
C1361 C1362 1.366 . S
C1362 C1361 1.366 . S
C1362 C1363 1.414 . S
C1362 C1365 1.499 . S
C1363 H1337 0.950 . S
C1363 C1362 1.414 . S
C1363 C1364 1.374 . S
C1364 H1338 0.950 . S
C1364 C1360 1.385 . S
C1364 C1363 1.374 . S
C1365 C1362 1.499 . S
C1365 C1366 1.373 . S
C1365 C1367 1.389 . S
C1366 H1339 0.950 . S
C1366 C1352 1.377 1_556 S
C1366 C1365 1.373 . S
C1367 C1351 1.377 . S
C1367 C1365 1.389 . S
C1367 C1368 1.524 . S
C1368 C1367 1.524 . S
C1368 C1369 1.397 . S
C1368 C1373 1.363 . S
C1369 H1340 0.950 . S
C1369 C1368 1.397 . S
C1369 C1370 1.334 . S
C1370 H1341 0.950 . S
C1370 C1369 1.334 . S
C1370 C1371 1.287 . S
C1371 C1370 1.287 . S
C1371 C1372 1.524 . S
C1371 H1374 0.999 . S
C1372 H1342 0.950 . S
C1372 C1371 1.524 . S
C1372 C1373 1.415 . S
C1373 H1343 0.950 . S
C1373 C1368 1.363 . S
C1373 C1372 1.415 . S
H1374 C1371 0.999 . S
H1375 C1356 0.913 . S
C195 C140 1.586 . S
C210 C5 1.505 . S
C245 C27 1.504 . S
C260 C162 1.586 . S
C295 C96 1.586 . S
C310 C49 1.505 . S
C345 C75 1.504 . S
C360 C114 1.586 . S
C395 C52 1.586 . S
C410 C94 1.504 . S
C445 C117 1.504 . S
C460 C70 1.586 . S
C495 C8 1.586 . S
C510 C138 1.503 . S
C545 C30 1.586 . S
C560 C160 1.504 . S
C595 C9 0.899 . S
C610 C95 0.899 . S
C645 C116 0.898 . S
C660 C31 0.898 . S
C695 C53 0.899 . S
C710 C139 0.899 . S
C745 C161 0.897 . S
C760 C71 0.897 . S
C795 C74 1.527 . S
C810 C4 1.526 . S
C845 C26 1.527 . S
C860 C48 1.527 . S
C895 C158 1.527 . S
C910 C92 1.526 . S
C945 C118 1.526 . S
C960 C136 1.527 . S
C995 C6 1.237 . S
C1010 C51 1.294 . S
C1045 C28 1.236 1_655 S
C1060 C72 1.296 . S
C1095 C50 1.236 1_455 S
C1110 C7 1.296 . S
C1145 C73 1.237 . S
C1160 C29 1.294 . S
C1195 C93 1.236 . S
C1210 C141 1.295 . S
C1245 C119 1.236 1_455 S
C1260 C163 1.296 . S
C1295 C137 1.236 1_655 S
C1310 C97 1.295 . S
C1345 C115 1.296 . S
C1360 C159 1.236 . S
