# Generated by pormake.
# Topology uoz, (4)-cn, num edge types: 1
# Building blocks:
#     Node 0, Type 0, BuildingBlock: QUQFOY_clean_sbu_1, # of connection points: 4
#     Node 1, Type 0, BuildingBlock: QUQFOY_clean_sbu_1, # of connection points: 4
#     Node 2, Type 0, BuildingBlock: QUQFOY_clean_sbu_1, # of connection points: 4
#     Node 3, Type 0, BuildingBlock: QUQFOY_clean_sbu_1, # of connection points: 4
#     Node 4, Type 0, BuildingBlock: QUQFOY_clean_sbu_1, # of connection points: 4
#     Node 5, Type 0, BuildingBlock: QUQFOY_clean_sbu_1, # of connection points: 4
#     Node 6, Type 0, BuildingBlock: QUQFOY_clean_sbu_1, # of connection points: 4
#     Node 7, Type 0, BuildingBlock: QUQFOY_clean_sbu_1, # of connection points: 4
#     Node 8, Type 0, BuildingBlock: QUQFOY_clean_sbu_1, # of connection points: 4
#     Node 9, Type 0, BuildingBlock: QUQFOY_clean_sbu_1, # of connection points: 4
#     Node 10, Type 0, BuildingBlock: QUQFOY_clean_sbu_1, # of connection points: 4
#     Node 11, Type 0, BuildingBlock: QUQFOY_clean_sbu_1, # of connection points: 4
#     Node 12, Type 0, BuildingBlock: QUQFOY_clean_sbu_1, # of connection points: 4
#     Node 13, Type 0, BuildingBlock: QUQFOY_clean_sbu_1, # of connection points: 4
#     Node 14, Type 0, BuildingBlock: QUQFOY_clean_sbu_1, # of connection points: 4
#     Node 15, Type 0, BuildingBlock: QUQFOY_clean_sbu_1, # of connection points: 4
#     Edge 16, Type (0, 0), BuildingBlock: AJUNOK_clean_linker_0, # of connection points: 2
#     Edge 17, Type (0, 0), BuildingBlock: AJUNOK_clean_linker_0, # of connection points: 2
#     Edge 18, Type (0, 0), BuildingBlock: AJUNOK_clean_linker_0, # of connection points: 2
#     Edge 19, Type (0, 0), BuildingBlock: AJUNOK_clean_linker_0, # of connection points: 2
#     Edge 20, Type (0, 0), BuildingBlock: AJUNOK_clean_linker_0, # of connection points: 2
#     Edge 21, Type (0, 0), BuildingBlock: AJUNOK_clean_linker_0, # of connection points: 2
#     Edge 22, Type (0, 0), BuildingBlock: AJUNOK_clean_linker_0, # of connection points: 2
#     Edge 23, Type (0, 0), BuildingBlock: AJUNOK_clean_linker_0, # of connection points: 2
#     Edge 24, Type (0, 0), BuildingBlock: AJUNOK_clean_linker_0, # of connection points: 2
#     Edge 25, Type (0, 0), BuildingBlock: AJUNOK_clean_linker_0, # of connection points: 2
#     Edge 26, Type (0, 0), BuildingBlock: AJUNOK_clean_linker_0, # of connection points: 2
#     Edge 27, Type (0, 0), BuildingBlock: AJUNOK_clean_linker_0, # of connection points: 2
#     Edge 28, Type (0, 0), BuildingBlock: AJUNOK_clean_linker_0, # of connection points: 2
#     Edge 29, Type (0, 0), BuildingBlock: AJUNOK_clean_linker_0, # of connection points: 2
#     Edge 30, Type (0, 0), BuildingBlock: AJUNOK_clean_linker_0, # of connection points: 2
#     Edge 31, Type (0, 0), BuildingBlock: AJUNOK_clean_linker_0, # of connection points: 2
#     Edge 32, Type (0, 0), BuildingBlock: AJUNOK_clean_linker_0, # of connection points: 2
#     Edge 33, Type (0, 0), BuildingBlock: AJUNOK_clean_linker_0, # of connection points: 2
#     Edge 34, Type (0, 0), BuildingBlock: AJUNOK_clean_linker_0, # of connection points: 2
#     Edge 35, Type (0, 0), BuildingBlock: AJUNOK_clean_linker_0, # of connection points: 2
#     Edge 36, Type (0, 0), BuildingBlock: AJUNOK_clean_linker_0, # of connection points: 2
#     Edge 37, Type (0, 0), BuildingBlock: AJUNOK_clean_linker_0, # of connection points: 2
#     Edge 38, Type (0, 0), BuildingBlock: AJUNOK_clean_linker_0, # of connection points: 2
#     Edge 39, Type (0, 0), BuildingBlock: AJUNOK_clean_linker_0, # of connection points: 2
#     Edge 40, Type (0, 0), BuildingBlock: AJUNOK_clean_linker_0, # of connection points: 2
#     Edge 41, Type (0, 0), BuildingBlock: AJUNOK_clean_linker_0, # of connection points: 2
#     Edge 42, Type (0, 0), BuildingBlock: AJUNOK_clean_linker_0, # of connection points: 2
#     Edge 43, Type (0, 0), BuildingBlock: AJUNOK_clean_linker_0, # of connection points: 2
#     Edge 44, Type (0, 0), BuildingBlock: AJUNOK_clean_linker_0, # of connection points: 2
#     Edge 45, Type (0, 0), BuildingBlock: AJUNOK_clean_linker_0, # of connection points: 2
#     Edge 46, Type (0, 0), BuildingBlock: AJUNOK_clean_linker_0, # of connection points: 2
#     Edge 47, Type (0, 0), BuildingBlock: AJUNOK_clean_linker_0, # of connection points: 2
# Relax obj value: 0.155
# Max RMSD: 0.204
# Mean RMSD: 0.204
data_MOF--net-uoz--node1-QUQFOY_clean_sbu_1--edge1-AJUNOK_clean_linker_0
_symmetry_space_group_name_H-M    P1
_symmetry_Int_Tables_number       1
_symmetry_cell_setting            triclinic
loop_
_symmetry_equiv_pos_as_xyz
'x, y, z'
_cell_length_a     48.661327
_cell_length_b     48.684524
_cell_length_c     17.053465
_cell_angle_alpha  89.992334
_cell_angle_beta   90.023637
_cell_angle_gamma 89.888019
loop_
_atom_site_label
_atom_site_type_symbol
_atom_site_fract_x
_atom_site_fract_y
_atom_site_fract_z
_atom_type_partial_charge
O0 O 0.07292 0.53442 0.23975 0.0
Cd1 Cd 0.07945 0.55815 0.33603 0.0
Cd2 Cd 0.03479 0.58868 0.25627 0.0
O3 O 0.03253 0.55093 0.20396 0.0
O4 O 0.10201 0.53383 0.40498 0.0
O5 O 0.05986 0.54702 0.43523 0.0
C6 C 0.08121 0.53224 0.45153 0.0
C7 C -0.00476 0.61551 0.23506 0.0
C8 C 0.05152 0.53322 0.19753 0.0
C9 C 0.09401 0.61166 0.26697 0.0
O10 O 0.0697 0.61179 0.23991 0.0
O11 O 0.10206 0.59296 0.31377 0.0
O12 O 0.01139 0.60857 0.17906 0.0
O13 O 0.00118 0.60675 0.30441 0.0
O14 O 0.74684 0.77781 0.47048 0.0
Cd15 Cd 0.72387 0.77906 0.57088 0.0
Cd16 Cd 0.69885 0.73694 0.48219 0.0
O17 O 0.73812 0.73471 0.44129 0.0
O18 O 0.74691 0.80238 0.64117 0.0
O19 O 0.73871 0.75861 0.665 0.0
C20 C 0.75149 0.78094 0.68355 0.0
C21 C 0.67265 0.6971 0.46281 0.0
C22 C 0.75198 0.75639 0.43089 0.0
C23 C 0.67273 0.79373 0.4956 0.0
O24 O 0.67697 0.77202 0.45615 0.0
O25 O 0.68647 0.79856 0.55754 0.0
O26 O 0.68112 0.7118 0.4053 0.0
O27 O 0.67952 0.7047 0.5326 0.0
O28 O 0.50989 0.4483 0.74081 0.0
Cd29 Cd 0.50637 0.4233 0.83677 0.0
Cd30 Cd 0.54885 0.39854 0.74946 0.0
O31 O 0.55332 0.43873 0.71872 0.0
O32 O 0.48305 0.44546 0.90947 0.0
O33 O 0.52648 0.43543 0.93425 0.0
C34 C 0.50434 0.44848 0.95362 0.0
C35 C 0.58823 0.37155 0.73048 0.0
C36 C 0.53247 0.45378 0.70731 0.0
C37 C 0.49143 0.37408 0.75168 0.0
O38 O 0.51357 0.37855 0.71452 0.0
O39 O 0.48636 0.3867 0.81541 0.0
O40 O 0.57492 0.38202 0.67278 0.0
O41 O 0.57945 0.37677 0.80031 0.0
O42 O 0.8378 0.20616 -0.00112 0.0
Cd43 Cd 0.86334 0.20483 0.09406 0.0
Cd44 Cd 0.88636 0.24619 0.00253 0.0
O45 O 0.84565 0.24979 0.97561 0.0
O46 O 0.84197 0.18307 0.17196 0.0
O47 O 0.85126 0.2272 0.18711 0.0
C48 C 0.83851 0.20548 0.21107 0.0
C49 C 0.91231 0.28592 0.98068 0.0
C50 C 0.83106 0.22855 0.96618 0.0
C51 C 0.91282 0.18989 0.01051 0.0
O52 O 0.90709 0.21095 0.96965 0.0
O53 O 0.90058 0.18565 0.07527 0.0
O54 O 0.9019 0.27207 0.92396 0.0
O55 O 0.90756 0.27746 0.05112 0.0
O56 O 0.07156 0.44786 0.91252 0.0
Cd57 Cd 0.07524 0.42361 0.81507 0.0
Cd58 Cd 0.03348 0.39712 0.90447 0.0
O59 O 0.0291 0.43655 0.94249 0.0
O60 O 0.09927 0.44649 0.7463 0.0
O61 O 0.05614 0.43697 0.717 0.0
C62 C 0.0785 0.45005 0.70056 0.0
C63 C -0.0056 0.36968 0.9215 0.0
C64 C 0.04959 0.45227 0.95047 0.0
C65 C 0.0912 0.37314 0.89455 0.0
O66 O 0.06919 0.3766 0.93321 0.0
O67 O 0.09582 0.38704 0.83279 0.0
O68 O 0.00837 0.37868 0.97991 0.0
O69 O 0.00232 0.37671 0.85216 0.0
O70 O 0.83734 0.77818 0.14138 0.0
Cd71 Cd 0.8618 0.77948 0.0439 0.0
Cd72 Cd 0.88753 0.73854 0.13964 0.0
O73 O 0.84777 0.73596 0.17598 0.0
O74 O 0.83941 0.80262 0.97119 0.0
O75 O 0.84821 0.75887 0.94857 0.0
C76 C 0.83548 0.78112 0.92866 0.0
C77 C 0.91355 0.69896 0.16609 0.0
C78 C 0.83254 0.75697 0.18211 0.0
C79 C 0.91257 0.79556 0.12201 0.0
O80 O 0.90864 0.77427 0.16351 0.0
O81 O 0.89871 0.79959 0.05976 0.0
O82 O 0.90447 0.71452 0.22103 0.0
O83 O 0.90767 0.70572 0.09484 0.0
O84 O 0.51145 0.53578 0.41492 0.0
Cd85 Cd 0.50697 0.55862 0.31486 0.0
Cd86 Cd 0.54906 0.58744 0.39873 0.0
O87 O 0.55319 0.54928 0.44596 0.0
O88 O 0.48377 0.53419 0.24797 0.0
O89 O 0.52649 0.54497 0.21772 0.0
C90 C 0.5046 0.53097 0.20228 0.0
C91 C 0.58848 0.61479 0.41205 0.0
C92 C 0.53315 0.53308 0.45541 0.0
C93 C 0.49061 0.61031 0.38778 0.0
O94 O 0.51337 0.60846 0.42381 0.0
O95 O 0.4853 0.59476 0.32979 0.0
O96 O 0.57407 0.60739 0.47137 0.0
O97 O 0.58067 0.60639 0.34386 0.0
O98 O 0.75064 0.20902 0.67183 0.0
Cd99 Cd 0.72841 0.20403 0.57187 0.0
Cd100 Cd 0.69503 0.24595 0.65397 0.0
O101 O 0.7307 0.24653 0.71739 0.0
O102 O 0.75421 0.18314 0.50299 0.0
O103 O 0.74051 0.22542 0.47668 0.0
C104 C 0.75602 0.20471 0.45945 0.0
C105 C 0.66865 0.28591 0.67267 0.0
C106 C 0.7495 0.22853 0.7209 0.0
C107 C 0.67341 0.18706 0.62849 0.0
O108 O 0.67149 0.21092 0.65809 0.0
O109 O 0.69377 0.18035 0.58579 0.0
O110 O 0.67275 0.26847 0.72782 0.0
O111 O 0.67974 0.28084 0.60552 0.0
O112 O 0.33781 0.28022 0.64638 0.0
Cd113 Cd 0.36202 0.28082 0.54829 0.0
Cd114 Cd 0.38688 0.23961 0.63854 0.0
O115 O 0.3476 0.23767 0.67934 0.0
O116 O 0.33925 0.30189 0.47156 0.0
O117 O 0.3491 0.25787 0.45707 0.0
C118 C 0.33573 0.2793 0.43339 0.0
C119 C 0.41271 0.19933 0.65581 0.0
C120 C 0.33286 0.25898 0.68686 0.0
C121 C 0.41316 0.29606 0.62414 0.0
O122 O 0.40901 0.27449 0.66424 0.0
O123 O 0.39908 0.30082 0.56269 0.0
O124 O 0.40472 0.21399 0.7141 0.0
O125 O 0.40554 0.20726 0.58655 0.0
O126 O 0.24825 0.7093 0.15779 0.0
Cd127 Cd 0.22459 0.7032 0.06111 0.0
Cd128 Cd 0.19376 0.74741 0.14189 0.0
O129 O 0.2308 0.7487 0.19846 0.0
O130 O 0.24891 0.68032 0.99308 0.0
O131 O 0.2362 0.72247 0.9617 0.0
C132 C 0.2508 0.70095 0.9461 0.0
C133 C 0.16772 0.78765 0.16006 0.0
C134 C 0.24883 0.72995 0.20297 0.0
C135 C 0.17052 0.68852 0.12791 0.0
O136 O 0.17004 0.71278 0.15519 0.0
O137 O 0.18969 0.68059 0.08252 0.0
O138 O 0.17323 0.77121 0.21668 0.0
O139 O 0.17734 0.7815 0.09181 0.0
O140 O 0.24676 0.27896 0.97553 0.0
Cd141 Cd 0.22388 0.27878 0.07624 0.0
Cd142 Cd 0.19802 0.23787 0.98347 0.0
O143 O 0.23715 0.23651 0.94126 0.0
O144 O 0.24714 0.3004 0.15036 0.0
O145 O 0.23857 0.25624 0.16641 0.0
C146 C 0.25162 0.278 0.18863 0.0
C147 C 0.17232 0.19797 0.9598 0.0
C148 C 0.2515 0.25801 0.93355 0.0
C149 C 0.17165 0.29414 0.0063 0.0
O150 O 0.17557 0.27313 0.96365 0.0
O151 O 0.18633 0.29829 0.06688 0.0
O152 O 0.18019 0.21378 0.90402 0.0
O153 O 0.17941 0.20455 0.03026 0.0
O154 O 0.33518 0.70743 0.4849 0.0
Cd155 Cd 0.35947 0.70444 0.58253 0.0
Cd156 Cd 0.38582 0.74563 0.49038 0.0
O157 O 0.34578 0.75025 0.45777 0.0
O158 O 0.33678 0.6809 0.65301 0.0
O159 O 0.34605 0.72431 0.67915 0.0
C160 C 0.33311 0.70204 0.69723 0.0
C161 C 0.41303 0.78444 0.46705 0.0
C162 C 0.33021 0.7297 0.44901 0.0
C163 C 0.41008 0.6883 0.50408 0.0
O164 O 0.40599 0.70958 0.46263 0.0
O165 O 0.39639 0.68433 0.56657 0.0
O166 O 0.40309 0.77002 0.41085 0.0
O167 O 0.4072 0.77703 0.53779 0.0
O168 O 0.57064 0.03297 0.72988 0.0
Cd169 Cd 0.57676 0.05756 0.82454 0.0
Cd170 Cd 0.53432 0.08873 0.73701 0.0
O171 O 0.53178 0.05076 0.68619 0.0
O172 O 0.59957 0.03364 0.8939 0.0
O173 O 0.55751 0.04682 0.92483 0.0
C174 C 0.57899 0.03224 0.94115 0.0
C175 C 0.49486 0.1155 0.71472 0.0
C176 C 0.55007 0.03221 0.68437 0.0
C177 C 0.59383 0.11001 0.7516 0.0
O178 O 0.56994 0.11096 0.72166 0.0
O179 O 0.6003 0.0916 0.80122 0.0
O180 O 0.51113 0.10853 0.65905 0.0
O181 O 0.50084 0.10718 0.78452 0.0
O182 O 0.0086 0.95021 0.22561 0.0
Cd183 Cd 0.00458 0.92625 0.32365 0.0
Cd184 Cd 0.04755 0.8999 0.23856 0.0
O185 O 0.05183 0.93965 0.20342 0.0
O186 O 0.98142 0.94941 0.39437 0.0
O187 O 0.02465 0.93903 0.42058 0.0
C188 C 0.00264 0.95252 0.43872 0.0
C189 C 0.08692 0.8729 0.21836 0.0
C190 C 0.03118 0.95489 0.19107 0.0
C191 C 0.98979 0.87572 0.24377 0.0
O192 O 0.01221 0.87935 0.20723 0.0
O193 O 0.98433 0.88955 0.30517 0.0
O194 O 0.07292 0.88273 0.16109 0.0
O195 O 0.07883 0.87873 0.28847 0.0
O196 O 0.57217 0.94639 0.40219 0.0
Cd197 Cd 0.57574 0.92291 0.30328 0.0
Cd198 Cd 0.53468 0.89536 0.39149 0.0
O199 O 0.52973 0.93461 0.43066 0.0
O200 O 0.59917 0.94655 0.23512 0.0
O201 O 0.55608 0.93661 0.20659 0.0
C202 C 0.57819 0.9501 0.19017 0.0
C203 C 0.49589 0.8675 0.40768 0.0
C204 C 0.55006 0.95046 0.43971 0.0
C205 C 0.59244 0.8719 0.37853 0.0
O206 O 0.57069 0.87503 0.41865 0.0
O207 O 0.59668 0.88643 0.31777 0.0
O208 O 0.50983 0.87635 0.46636 0.0
O209 O 0.50373 0.87487 0.33855 0.0
O210 O 0.01064 0.03787 0.90012 0.0
Cd211 Cd 0.00634 0.06167 0.80187 0.0
Cd212 Cd 0.04966 0.08832 0.88548 0.0
O213 O 0.05326 0.04935 0.92774 0.0
O214 O 0.98272 0.03835 0.73293 0.0
O215 O 0.0257 0.04857 0.70395 0.0
C216 C 0.00359 0.0351 0.68735 0.0
C217 C 0.08943 0.11505 0.90114 0.0
C218 C 0.03269 0.03389 0.93816 0.0
C219 C 0.99166 0.11269 0.88038 0.0
O220 O 0.01459 0.10969 0.91489 0.0
O221 O 0.98561 0.09816 0.8208 0.0
O222 O 0.07529 0.10666 0.95988 0.0
O223 O 0.08128 0.10785 0.83218 0.0
C224 C 0.15857 0.64195 0.17844 0.0
C225 C 0.15023 0.66872 0.15827 0.0
C226 C 0.14063 0.62396 0.21717 0.0
C227 C 0.11361 0.63197 0.23558 0.0
H228 H 0.17932 0.63511 0.16615 0.0
H229 H 0.14776 0.60343 0.23106 0.0
S230 S 0.0817 0.69971 0.19422 0.0
N231 N 0.11329 0.70239 0.15972 0.0
N232 N 0.07932 0.66832 0.23026 0.0
C233 C 0.10496 0.65858 0.21495 0.0
C234 C 0.12334 0.67701 0.17688 0.0
C235 C 0.61631 0.84742 0.48766 0.0
C236 C 0.61339 0.85221 0.40652 0.0
C237 C 0.63596 0.82891 0.51655 0.0
C238 C 0.65285 0.81402 0.46516 0.0
H239 H 0.60348 0.85828 0.52934 0.0
H240 H 0.63755 0.82582 0.57931 0.0
S241 S 0.65372 0.81931 0.24788 0.0
N242 N 0.6295 0.84104 0.27556 0.0
N243 N 0.66593 0.80566 0.32944 0.0
C244 C 0.6502 0.81865 0.38393 0.0
C245 C 0.63061 0.83792 0.35469 0.0
C246 C 0.45518 0.33823 0.76722 0.0
C247 C 0.47124 0.35477 0.71797 0.0
C248 C 0.43666 0.31915 0.73589 0.0
C249 C 0.43301 0.31643 0.65423 0.0
H250 H 0.45732 0.33964 0.83033 0.0
H251 H 0.42487 0.30663 0.77614 0.0
S252 S 0.46928 0.35589 0.5002 0.0
N253 N 0.48199 0.36766 0.58345 0.0
N254 N 0.44653 0.3323 0.52494 0.0
C255 C 0.44849 0.33327 0.60437 0.0
C256 C 0.4678 0.35229 0.63617 0.0
C257 C 0.93493 0.1659 0.89754 0.0
C258 C 0.93279 0.1698 0.97924 0.0
C259 C 0.95367 0.14704 0.86565 0.0
C260 C 0.97143 0.13198 0.91428 0.0
H261 H 0.92179 0.17731 0.85784 0.0
H262 H 0.95459 0.1446 0.80255 0.0
S263 S 0.97391 0.13447 0.13195 0.0
N264 N 0.94965 0.1567 0.10795 0.0
N265 N 0.98542 0.1218 0.04834 0.0
C266 C 0.96951 0.13571 0.99609 0.0
C267 C 0.95003 0.15445 0.02852 0.0
C268 C 0.1278 0.33802 0.87183 0.0
C269 C 0.11187 0.35348 0.92432 0.0
C270 C 0.14688 0.3187 0.89933 0.0
C271 C 0.15123 0.31468 0.98026 0.0
H272 H 0.12515 0.34048 0.80914 0.0
H273 H 0.15857 0.30703 0.8567 0.0
S274 S 0.11551 0.35095 0.14178 0.0
N275 N 0.10193 0.36393 0.06106 0.0
N276 N 0.13846 0.32814 0.11241 0.0
C277 C 0.13586 0.33043 0.03334 0.0
C278 C 0.11597 0.34967 0.00542 0.0
C279 C 0.95344 0.84008 0.26214 0.0
C280 C 0.96973 0.85594 0.21168 0.0
C281 C 0.9352 0.82043 0.23224 0.0
C282 C 0.93209 0.81647 0.15082 0.0
H283 H 0.9552 0.84244 0.32511 0.0
H284 H 0.92323 0.80842 0.27334 0.0
S285 S 0.96914 0.85375 0.99392 0.0
N286 N 0.98126 0.86684 0.07627 0.0
N287 N 0.94634 0.83044 0.02041 0.0
C288 C 0.94778 0.83264 0.09974 0.0
C289 C 0.9668 0.85222 0.13012 0.0
C290 C 0.43373 0.66355 0.39513 0.0
C291 C 0.43018 0.66773 0.47632 0.0
C292 C 0.45289 0.64448 0.36652 0.0
C293 C 0.46969 0.62954 0.41811 0.0
H294 H 0.42143 0.67496 0.3533 0.0
H295 H 0.455 0.64186 0.30371 0.0
S296 S 0.46821 0.63257 0.63569 0.0
N297 N 0.44454 0.65487 0.60767 0.0
N298 N 0.48117 0.61962 0.55417 0.0
C299 C 0.46629 0.63346 0.49939 0.0
C300 C 0.44635 0.65238 0.52846 0.0
C301 C 0.62576 0.17429 0.66675 0.0
C302 C 0.65313 0.16631 0.65314 0.0
C303 C 0.60678 0.15601 0.69948 0.0
C304 C 0.61471 0.12936 0.72207 0.0
H305 H 0.61899 0.1949 0.65234 0.0
H306 H 0.58581 0.1629 0.70805 0.0
S307 S 0.68397 0.09845 0.69899 0.0
N308 N 0.6872 0.1299 0.6639 0.0
N309 N 0.65163 0.09569 0.72728 0.0
C310 C 0.64202 0.12111 0.70891 0.0
C311 C 0.66119 0.13953 0.67378 0.0
C312 C 0.96569 0.34135 0.01167 0.0
C313 C 0.97118 0.35061 0.93496 0.0
C314 C 0.94585 0.32123 0.02627 0.0
C315 C 0.93064 0.30954 0.96478 0.0
H316 H 0.97739 0.34906 0.06101 0.0
H317 H 0.9431 0.3142 0.08601 0.0
S318 S 0.93469 0.32896 0.75424 0.0
N319 N 0.95809 0.34823 0.79751 0.0
N320 N 0.92065 0.31047 0.82473 0.0
C321 C 0.93488 0.3196 0.88817 0.0
C322 C 0.95517 0.34011 0.87331 0.0
C323 C 0.45909 0.1486 0.76079 0.0
C324 C 0.47132 0.13399 0.69897 0.0
C325 C 0.43935 0.16893 0.74617 0.0
C326 C 0.43099 0.17539 0.66916 0.0
H327 H 0.46557 0.14514 0.82077 0.0
H328 H 0.43128 0.18025 0.79578 0.0
S329 S 0.45396 0.14028 0.48748 0.0
N330 N 0.47162 0.12532 0.5583 0.0
N331 N 0.43453 0.16356 0.53098 0.0
C332 C 0.44186 0.15979 0.60715 0.0
C333 C 0.46203 0.1391 0.62202 0.0
C334 C 0.61894 0.64244 0.49929 0.0
C335 C 0.61223 0.6334 0.42314 0.0
C336 C 0.63938 0.66213 0.51192 0.0
C337 C 0.65392 0.67365 0.44892 0.0
H338 H 0.6078 0.63486 0.5498 0.0
H339 H 0.64306 0.66906 0.57137 0.0
S340 S 0.64663 0.65466 0.23881 0.0
N341 N 0.62348 0.63576 0.28438 0.0
N342 N 0.66198 0.67276 0.30791 0.0
C343 C 0.64845 0.66378 0.37275 0.0
C344 C 0.62761 0.64366 0.35991 0.0
C345 C 0.13971 0.81682 0.25007 0.0
C346 C 0.1497 0.81175 0.17384 0.0
C347 C 0.12036 0.8375 0.26459 0.0
C348 C 0.11013 0.85391 0.20344 0.0
H349 H 0.14624 0.8042 0.29899 0.0
H350 H 0.11262 0.83989 0.32375 0.0
S351 S 0.1321 0.85136 0.99482 0.0
N352 N 0.14973 0.82654 0.03764 0.0
N353 N 0.11336 0.86549 0.06474 0.0
C354 C 0.12102 0.85008 0.12758 0.0
C355 C 0.14081 0.829 0.11282 0.0
C356 C 0.96664 0.6427 0.14154 0.0
C357 C 0.97187 0.63426 0.21922 0.0
C358 C 0.9469 0.66277 0.12454 0.0
C359 C 0.93162 0.67531 0.18454 0.0
H360 H 0.97844 0.63434 0.09325 0.0
H361 H 0.94436 0.66917 0.06413 0.0
S362 S 0.93499 0.65829 0.39684 0.0
N363 N 0.9584 0.63832 0.35603 0.0
N364 N 0.92122 0.67606 0.32429 0.0
C365 C 0.93557 0.66606 0.26213 0.0
C366 C 0.95569 0.64553 0.27941 0.0
C367 C 0.12003 0.14154 0.99091 0.0
C368 C 0.11308 0.13367 0.91387 0.0
C369 C 0.14012 0.16144 0.00541 0.0
C370 C 0.15404 0.17435 0.94347 0.0
H371 H 0.1093 0.13291 0.04075 0.0
H372 H 0.14395 0.16746 0.06558 0.0
S373 S 0.14611 0.15867 0.73134 0.0
N374 N 0.1236 0.13854 0.77518 0.0
N375 N 0.16142 0.17593 0.80222 0.0
C376 C 0.14842 0.1656 0.86628 0.0
C377 C 0.12794 0.14527 0.85153 0.0
C378 C 0.63984 0.31442 0.76231 0.0
C379 C 0.65071 0.31004 0.68672 0.0
C380 C 0.62062 0.33522 0.77676 0.0
C381 C 0.61139 0.35243 0.71615 0.0
H382 H 0.6456 0.30119 0.81069 0.0
H383 H 0.61219 0.33706 0.83531 0.0
S384 S 0.63586 0.35183 0.50972 0.0
N385 N 0.65263 0.32631 0.552 0.0
N386 N 0.61646 0.36547 0.57897 0.0
C387 C 0.62315 0.34928 0.64111 0.0
C388 C 0.64282 0.32809 0.62644 0.0
C389 C 0.44626 0.8201 0.51226 0.0
C390 C 0.43183 0.80763 0.45051 0.0
C391 C 0.46627 0.84005 0.49763 0.0
C392 C 0.47268 0.84838 0.42064 0.0
H393 H 0.44271 0.81387 0.57238 0.0
H394 H 0.47728 0.84845 0.54733 0.0
S395 S 0.43872 0.82417 0.23856 0.0
N396 N 0.42376 0.80662 0.30945 0.0
N397 N 0.46148 0.84408 0.28221 0.0
C398 C 0.45754 0.83701 0.35849 0.0
C399 C 0.4371 0.81665 0.37336 0.0
C400 C 0.07449 0.50146 0.105 0.0
C401 C 0.04998 0.51242 0.13538 0.0
C402 C 0.07407 0.48264 0.0435 0.0
C403 C 0.04911 0.47377 0.01087 0.0
H404 H 0.09425 0.5077 0.12812 0.0
H405 H 0.0935 0.4746 0.02257 0.0
S406 S 0.97918 0.4963 0.06939 0.0
N407 N 3e-05 0.51333 0.12819 0.0
N408 N -0.00079 0.47743 0.01268 0.0
C409 C 0.02439 0.48453 0.04057 0.0
C410 C 0.02483 0.50402 0.1028 0.0
C411 C 0.80331 0.73274 0.27956 0.0
C412 C 0.81089 0.75739 0.24239 0.0
C413 C 0.78436 0.73265 0.34094 0.0
C414 C 0.77256 0.75722 0.36797 0.0
H415 H 0.81217 0.71332 0.26151 0.0
H416 H 0.77913 0.71319 0.36786 0.0
S417 S 0.7846 0.8272 0.28878 0.0
N418 N 0.80448 0.80699 0.23563 0.0
N419 N 0.76889 0.80677 0.35152 0.0
C420 C 0.77968 0.78201 0.33096 0.0
C421 C 0.79879 0.78209 0.26786 0.0
C422 C 0.50917 0.50169 0.54716 0.0
C423 C 0.53396 0.51271 0.5191 0.0
C424 C 0.50889 0.48342 0.61008 0.0
C425 C 0.53343 0.47521 0.6467 0.0
H426 H 0.48969 0.50739 0.52094 0.0
H427 H 0.48928 0.47522 0.62882 0.0
S428 S 0.60385 0.49843 0.59663 0.0
N429 N 0.58373 0.51449 0.5335 0.0
N430 N 0.58319 0.47979 0.65183 0.0
C431 C 0.55841 0.48616 0.61976 0.0
C432 C 0.55868 0.505 0.55592 0.0
C433 C 0.80176 0.20469 0.86916 0.0
C434 C 0.8086 0.22901 0.9088 0.0
C435 C 0.78271 0.20487 0.80813 0.0
C436 C 0.7695 0.22931 0.78538 0.0
H437 H 0.8118 0.18546 0.88361 0.0
H438 H 0.77829 0.18565 0.7787 0.0
S439 S 0.77902 0.29823 0.87412 0.0
N440 N 0.80005 0.27799 0.92362 0.0
N441 N 0.76375 0.2783 0.80908 0.0
C442 C 0.77552 0.25367 0.82612 0.0
C443 C 0.79522 0.25353 0.88779 0.0
C444 C 0.28302 0.23441 0.84091 0.0
C445 C 0.2725 0.25904 0.87172 0.0
C446 C 0.3022 0.23463 0.78019 0.0
C447 C 0.31134 0.25949 0.74743 0.0
H448 H 0.27652 0.21475 0.86416 0.0
H449 H 0.30992 0.21513 0.75888 0.0
S450 S 0.28949 0.32968 0.80592 0.0
N451 N 0.27216 0.30899 0.86434 0.0
N452 N 0.30824 0.30944 0.74964 0.0
C453 C 0.30075 0.28431 0.77704 0.0
C454 C 0.28138 0.28408 0.83952 0.0
C455 C 0.29996 0.706 0.35403 0.0
C456 C 0.30838 0.73059 0.38966 0.0
C457 C 0.28102 0.70617 0.29277 0.0
C458 C 0.26948 0.7309 0.2657 0.0
H459 H 0.30853 0.68645 0.37224 0.0
H460 H 0.2752 0.68668 0.26703 0.0
S461 S 0.28401 0.80083 0.3412 0.0
N462 N 0.30348 0.78033 0.39483 0.0
N463 N 0.26735 0.7806 0.2798 0.0
C464 C 0.27731 0.75564 0.30165 0.0
C465 C 0.29692 0.7555 0.3636 0.0
C466 C 0.57374 0.98013 0.53603 0.0
C467 C 0.54912 0.97184 0.50026 0.0
C468 C 0.57364 -0.00082 0.59695 0.0
C469 C 0.54896 0.01096 0.62346 0.0
H470 H 0.59327 0.97152 0.51784 0.0
H471 H 0.59317 0.00503 0.62248 0.0
S472 S 0.47892 -0.00363 0.54859 0.0
N473 N 0.49936 0.97673 0.4953 0.0
N474 N 0.49923 0.01313 0.6096 0.0
C475 C 0.52416 0.00304 0.58794 0.0
C476 C 0.52422 0.98329 0.5264 0.0
C477 C 0.00835 0.00313 0.03094 0.0
C478 C 0.03329 0.0132 0.00104 0.0
C479 C 0.00793 0.98496 0.09409 0.0
C480 C 0.03244 0.97589 0.12918 0.0
H481 H 0.98887 0.00961 0.00621 0.0
H482 H 0.98818 0.97761 0.11448 0.0
S483 S 0.10327 -0.0039 0.07311 0.0
N484 N 0.08321 0.01289 0.01138 0.0
N485 N 0.0824 0.97841 0.1302 0.0
C486 C 0.05758 0.98574 0.10001 0.0
C487 C 0.05801 0.00446 0.03588 0.0
C488 C 0.05537 0.48165 0.60469 0.0
C489 C 0.07974 0.47028 0.63533 0.0
C490 C 0.05604 0.50235 0.54727 0.0
C491 C 0.08111 0.51224 0.51736 0.0
H492 H 0.03556 0.47485 0.62605 0.0
H493 H 0.03672 0.51026 0.52513 0.0
S494 S 0.15081 0.48933 0.57777 0.0
N495 N 0.12972 0.47065 0.63153 0.0
N496 N 0.13096 0.50913 0.52317 0.0
C497 C 0.10563 0.501 0.54735 0.0
C498 C 0.10495 0.48015 0.60636 0.0
C499 C 0.8038 0.75684 0.83534 0.0
C500 C 0.81511 0.78155 0.86352 0.0
C501 C 0.78277 0.75684 0.77877 0.0
C502 C 0.77236 0.78154 0.74744 0.0
H503 H 0.81086 0.7373 0.85814 0.0
H504 H 0.77485 0.73727 0.75886 0.0
S505 S 0.79536 0.85189 0.80029 0.0
N506 N 0.81449 0.83142 0.85493 0.0
N507 N 0.77529 0.83144 0.74869 0.0
C508 C 0.78368 0.80639 0.77469 0.0
C509 C 0.80494 0.80639 0.83259 0.0
C510 C 0.52863 0.50053 0.10501 0.0
C511 C 0.50395 0.51035 0.13787 0.0
C512 C 0.52863 0.47981 0.0476 0.0
C513 C 0.50393 0.46831 0.01995 0.0
H514 H 0.54819 0.50866 0.12437 0.0
H515 H 0.54816 0.4732 0.02355 0.0
S516 S 0.43365 0.48654 0.08717 0.0
N517 N 0.45408 0.50662 0.13886 0.0
N518 N 0.4541 0.46807 0.03068 0.0
C519 C 0.47911 0.47788 0.05242 0.0
C520 C 0.47911 0.49877 0.11135 0.0
C521 C 0.80966 0.18163 0.31139 0.0
C522 C 0.81863 0.20635 0.27721 0.0
C523 C 0.78924 0.18138 0.36935 0.0
C524 C 0.77658 0.2058 0.39499 0.0
H525 H 0.81841 0.16218 0.29308 0.0
H526 H 0.78327 0.16176 0.39394 0.0
S527 S 0.79249 0.27614 0.32423 0.0
N528 N 0.81327 0.25603 0.27352 0.0
N529 N 0.77472 0.25554 0.38196 0.0
C530 C 0.78531 0.23072 0.36135 0.0
C531 C 0.8064 0.231 0.30281 0.0
C532 C 0.3041 0.30247 0.33825 0.0
C533 C 0.31527 0.27797 0.36853 0.0
C534 C 0.28332 0.30215 0.2813 0.0
C535 C 0.27251 0.27732 0.25247 0.0
H536 H 0.31138 0.3222 0.35884 0.0
H537 H 0.27566 0.32166 0.25984 0.0
S538 S 0.29454 0.20729 0.31217 0.0
N539 N 0.31393 0.22802 0.36503 0.0
N540 N 0.27478 0.22743 0.25828 0.0
C541 C 0.28343 0.2526 0.28216 0.0
C542 C 0.30485 0.25292 0.33987 0.0
C543 C 0.30144 0.7258 0.79161 0.0
C544 C 0.31289 0.70124 0.76255 0.0
C545 C 0.28073 0.7255 0.84903 0.0
C546 C 0.2709 0.70064 0.88047 0.0
H547 H 0.30818 0.74545 0.76899 0.0
H548 H 0.27274 0.74495 0.86989 0.0
S549 S 0.29408 0.63061 0.8246 0.0
N550 N 0.31271 0.65133 0.76959 0.0
N551 N 0.27418 0.65079 0.87782 0.0
C552 C 0.28223 0.67595 0.85207 0.0
C553 C 0.3031 0.67624 0.79312 0.0
C554 C 0.55431 0.98101 0.09388 0.0
C555 C 0.57896 0.97062 0.1256 0.0
C556 C 0.55446 0.0017 0.03644 0.0
C557 C 0.57927 0.01256 0.00764 0.0
H558 H 0.53468 0.97334 0.11417 0.0
H559 H 0.53497 0.00877 0.01318 0.0
S560 S 0.64948 -0.00717 0.07187 0.0
N561 N 0.62891 0.97323 0.12452 0.0
N562 N 0.62914 0.01171 0.01613 0.0
C563 C 0.60405 0.00244 0.03898 0.0
C564 C 0.60391 0.9816 0.09799 0.0
C565 C 0.02737 0.00416 0.5909 0.0
C566 C 0.00276 0.0148 0.62211 0.0
C567 C 0.02715 0.98343 0.53351 0.0
C568 C 0.00232 0.97273 0.50421 0.0
H569 H 0.04703 0.01157 0.61178 0.0
H570 H 0.04664 0.97609 0.51104 0.0
S571 S 0.93214 -0.00637 0.56599 0.0
N572 N 0.95281 0.01295 0.61924 0.0
N573 N 0.95241 0.97439 0.51109 0.0
C574 C 0.97756 0.98326 0.5347 0.0
C575 C 0.97778 0.00417 0.59362 0.0
loop_
_geom_bond_atom_site_label_1
_geom_bond_atom_site_label_2
_geom_bond_distance
_geom_bond_site_symmetry_2
_ccdc_geom_bond_type
O0 Cd1 2.223 . S
O0 C8 1.315 . S
Cd1 O0 2.223 . S
Cd1 O4 2.297 . S
Cd1 O5 2.439 . S
Cd1 O11 2.240 . S
Cd2 O3 2.240 . S
Cd2 O10 2.223 . S
Cd2 O12 2.297 . S
Cd2 O13 2.439 . S
O3 Cd2 2.240 . S
O3 C8 1.279 . S
O4 Cd1 2.297 . S
O4 C6 1.247 . S
O5 Cd1 2.439 . S
O5 C6 1.208 . S
C6 O4 1.247 . S
C6 O5 1.208 . S
C7 O12 1.247 . S
C7 O13 1.208 . S
C8 O0 1.315 . S
C8 O3 1.279 . S
C9 O10 1.315 . S
C9 O11 1.279 . S
O10 Cd2 2.223 . S
O10 C9 1.315 . S
O11 Cd1 2.240 . S
O11 C9 1.279 . S
O12 Cd2 2.297 . S
O12 C7 1.247 . S
O13 Cd2 2.439 . S
O13 C7 1.208 . S
O14 Cd15 2.223 . S
O14 C22 1.315 . S
Cd15 O14 2.223 . S
Cd15 O18 2.297 . S
Cd15 O19 2.439 . S
Cd15 O25 2.240 . S
Cd16 O17 2.240 . S
Cd16 O24 2.223 . S
Cd16 O26 2.297 . S
Cd16 O27 2.439 . S
O17 Cd16 2.240 . S
O17 C22 1.279 . S
O18 Cd15 2.297 . S
O18 C20 1.247 . S
O19 Cd15 2.439 . S
O19 C20 1.208 . S
C20 O18 1.247 . S
C20 O19 1.208 . S
C21 O26 1.247 . S
C21 O27 1.208 . S
C22 O14 1.315 . S
C22 O17 1.279 . S
C23 O24 1.315 . S
C23 O25 1.279 . S
O24 Cd16 2.223 . S
O24 C23 1.315 . S
O25 Cd15 2.240 . S
O25 C23 1.279 . S
O26 Cd16 2.297 . S
O26 C21 1.247 . S
O27 Cd16 2.439 . S
O27 C21 1.208 . S
O28 Cd29 2.223 . S
O28 C36 1.315 . S
Cd29 O28 2.223 . S
Cd29 O32 2.297 . S
Cd29 O33 2.439 . S
Cd29 O39 2.240 . S
Cd30 O31 2.240 . S
Cd30 O38 2.223 . S
Cd30 O40 2.297 . S
Cd30 O41 2.439 . S
O31 Cd30 2.240 . S
O31 C36 1.279 . S
O32 Cd29 2.297 . S
O32 C34 1.247 . S
O33 Cd29 2.439 . S
O33 C34 1.208 . S
C34 O32 1.247 . S
C34 O33 1.208 . S
C35 O40 1.247 . S
C35 O41 1.208 . S
C36 O28 1.315 . S
C36 O31 1.279 . S
C37 O38 1.315 . S
C37 O39 1.279 . S
O38 Cd30 2.223 . S
O38 C37 1.315 . S
O39 Cd29 2.240 . S
O39 C37 1.279 . S
O40 Cd30 2.297 . S
O40 C35 1.247 . S
O41 Cd30 2.439 . S
O41 C35 1.208 . S
O42 Cd43 2.223 1_556 S
O42 C50 1.315 . S
Cd43 O42 2.223 1_554 S
Cd43 O46 2.297 . S
Cd43 O47 2.439 . S
Cd43 O53 2.240 . S
Cd44 O45 2.240 . S
Cd44 O52 2.223 . S
Cd44 O54 2.297 . S
Cd44 O55 2.439 1_556 S
O45 Cd44 2.240 . S
O45 C50 1.279 . S
O46 Cd43 2.297 . S
O46 C48 1.247 . S
O47 Cd43 2.439 . S
O47 C48 1.208 . S
C48 O46 1.247 . S
C48 O47 1.208 . S
C49 O54 1.247 1_554 S
C49 O55 1.208 . S
C50 O42 1.315 . S
C50 O45 1.279 . S
C51 O52 1.315 . S
C51 O53 1.279 1_556 S
O52 Cd44 2.223 . S
O52 C51 1.315 . S
O53 Cd43 2.240 . S
O53 C51 1.279 1_554 S
O54 Cd44 2.297 . S
O54 C49 1.247 1_556 S
O55 Cd44 2.439 1_554 S
O55 C49 1.208 . S
O56 Cd57 2.223 . S
O56 C64 1.315 . S
Cd57 O56 2.223 . S
Cd57 O60 2.297 . S
Cd57 O61 2.439 . S
Cd57 O67 2.240 . S
Cd58 O59 2.240 . S
Cd58 O66 2.223 1_556 S
Cd58 O68 2.297 . S
Cd58 O69 2.439 . S
O59 Cd58 2.240 . S
O59 C64 1.279 . S
O60 Cd57 2.297 . S
O60 C62 1.247 . S
O61 Cd57 2.439 . S
O61 C62 1.208 . S
C62 O60 1.247 . S
C62 O61 1.208 . S
C63 O68 1.247 . S
C63 O69 1.208 . S
C64 O56 1.315 . S
C64 O59 1.279 . S
C65 O66 1.315 1_556 S
C65 O67 1.279 . S
O66 Cd58 2.223 1_554 S
O66 C65 1.315 1_554 S
O67 Cd57 2.240 . S
O67 C65 1.279 . S
O68 Cd58 2.297 . S
O68 C63 1.247 . S
O69 Cd58 2.439 . S
O69 C63 1.208 . S
O70 Cd71 2.223 . S
O70 C78 1.315 . S
Cd71 O70 2.223 . S
Cd71 O74 2.297 1_554 S
Cd71 O75 2.439 1_554 S
Cd71 O81 2.240 . S
Cd72 O73 2.240 . S
Cd72 O80 2.223 . S
Cd72 O82 2.297 . S
Cd72 O83 2.439 . S
O73 Cd72 2.240 . S
O73 C78 1.279 . S
O74 Cd71 2.297 1_556 S
O74 C76 1.247 . S
O75 Cd71 2.439 1_556 S
O75 C76 1.208 . S
C76 O74 1.247 . S
C76 O75 1.208 . S
C77 O82 1.247 . S
C77 O83 1.208 . S
C78 O70 1.315 . S
C78 O73 1.279 . S
C79 O80 1.315 . S
C79 O81 1.279 . S
O80 Cd72 2.223 . S
O80 C79 1.315 . S
O81 Cd71 2.240 . S
O81 C79 1.279 . S
O82 Cd72 2.297 . S
O82 C77 1.247 . S
O83 Cd72 2.439 . S
O83 C77 1.208 . S
O84 Cd85 2.223 . S
O84 C92 1.315 . S
Cd85 O84 2.223 . S
Cd85 O88 2.297 . S
Cd85 O89 2.439 . S
Cd85 O95 2.240 . S
Cd86 O87 2.240 . S
Cd86 O94 2.223 . S
Cd86 O96 2.297 . S
Cd86 O97 2.439 . S
O87 Cd86 2.240 . S
O87 C92 1.279 . S
O88 Cd85 2.297 . S
O88 C90 1.247 . S
O89 Cd85 2.439 . S
O89 C90 1.208 . S
C90 O88 1.247 . S
C90 O89 1.208 . S
C91 O96 1.247 . S
C91 O97 1.208 . S
C92 O84 1.315 . S
C92 O87 1.279 . S
C93 O94 1.315 . S
C93 O95 1.279 . S
O94 Cd86 2.223 . S
O94 C93 1.315 . S
O95 Cd85 2.240 . S
O95 C93 1.279 . S
O96 Cd86 2.297 . S
O96 C91 1.247 . S
O97 Cd86 2.439 . S
O97 C91 1.208 . S
O98 Cd99 2.223 . S
O98 C106 1.315 . S
Cd99 O98 2.223 . S
Cd99 O102 2.297 . S
Cd99 O103 2.439 . S
Cd99 O109 2.240 . S
Cd100 O101 2.240 . S
Cd100 O108 2.223 . S
Cd100 O110 2.297 . S
Cd100 O111 2.439 . S
O101 Cd100 2.240 . S
O101 C106 1.279 . S
O102 Cd99 2.297 . S
O102 C104 1.247 . S
O103 Cd99 2.439 . S
O103 C104 1.208 . S
C104 O102 1.247 . S
C104 O103 1.208 . S
C105 O110 1.247 . S
C105 O111 1.208 . S
C106 O98 1.315 . S
C106 O101 1.279 . S
C107 O108 1.315 . S
C107 O109 1.279 . S
O108 Cd100 2.223 . S
O108 C107 1.315 . S
O109 Cd99 2.240 . S
O109 C107 1.279 . S
O110 Cd100 2.297 . S
O110 C105 1.247 . S
O111 Cd100 2.439 . S
O111 C105 1.208 . S
O112 Cd113 2.223 . S
O112 C120 1.315 . S
Cd113 O112 2.223 . S
Cd113 O116 2.297 . S
Cd113 O117 2.439 . S
Cd113 O123 2.240 . S
Cd114 O115 2.240 . S
Cd114 O122 2.223 . S
Cd114 O124 2.297 . S
Cd114 O125 2.439 . S
O115 Cd114 2.240 . S
O115 C120 1.279 . S
O116 Cd113 2.297 . S
O116 C118 1.247 . S
O117 Cd113 2.439 . S
O117 C118 1.208 . S
C118 O116 1.247 . S
C118 O117 1.208 . S
C119 O124 1.247 . S
C119 O125 1.208 . S
C120 O112 1.315 . S
C120 O115 1.279 . S
C121 O122 1.315 . S
C121 O123 1.279 . S
O122 Cd114 2.223 . S
O122 C121 1.315 . S
O123 Cd113 2.240 . S
O123 C121 1.279 . S
O124 Cd114 2.297 . S
O124 C119 1.247 . S
O125 Cd114 2.439 . S
O125 C119 1.208 . S
O126 Cd127 2.223 . S
O126 C134 1.315 . S
Cd127 O126 2.223 . S
Cd127 O130 2.297 1_554 S
Cd127 O131 2.439 1_554 S
Cd127 O137 2.240 . S
Cd128 O129 2.240 . S
Cd128 O136 2.223 . S
Cd128 O138 2.297 . S
Cd128 O139 2.439 . S
O129 Cd128 2.240 . S
O129 C134 1.279 . S
O130 Cd127 2.297 1_556 S
O130 C132 1.247 . S
O131 Cd127 2.439 1_556 S
O131 C132 1.208 . S
C132 O130 1.247 . S
C132 O131 1.208 . S
C133 O138 1.247 . S
C133 O139 1.208 . S
C134 O126 1.315 . S
C134 O129 1.279 . S
C135 O136 1.315 . S
C135 O137 1.279 . S
O136 Cd128 2.223 . S
O136 C135 1.315 . S
O137 Cd127 2.240 . S
O137 C135 1.279 . S
O138 Cd128 2.297 . S
O138 C133 1.247 . S
O139 Cd128 2.439 . S
O139 C133 1.208 . S
O140 Cd141 2.223 1_556 S
O140 C148 1.315 . S
Cd141 O140 2.223 1_554 S
Cd141 O144 2.297 . S
Cd141 O145 2.439 . S
Cd141 O151 2.240 . S
Cd142 O143 2.240 . S
Cd142 O150 2.223 . S
Cd142 O152 2.297 . S
Cd142 O153 2.439 1_556 S
O143 Cd142 2.240 . S
O143 C148 1.279 . S
O144 Cd141 2.297 . S
O144 C146 1.247 . S
O145 Cd141 2.439 . S
O145 C146 1.208 . S
C146 O144 1.247 . S
C146 O145 1.208 . S
C147 O152 1.247 1_554 S
C147 O153 1.208 . S
C148 O140 1.315 . S
C148 O143 1.279 . S
C149 O150 1.315 . S
C149 O151 1.279 1_556 S
O150 Cd142 2.223 . S
O150 C149 1.315 . S
O151 Cd141 2.240 . S
O151 C149 1.279 1_554 S
O152 Cd142 2.297 . S
O152 C147 1.247 1_556 S
O153 Cd142 2.439 1_554 S
O153 C147 1.208 . S
O154 Cd155 2.223 . S
O154 C162 1.315 . S
Cd155 O154 2.223 . S
Cd155 O158 2.297 . S
Cd155 O159 2.439 . S
Cd155 O165 2.240 . S
Cd156 O157 2.240 . S
Cd156 O164 2.223 . S
Cd156 O166 2.297 . S
Cd156 O167 2.439 . S
O157 Cd156 2.240 . S
O157 C162 1.279 . S
O158 Cd155 2.297 . S
O158 C160 1.247 . S
O159 Cd155 2.439 . S
O159 C160 1.208 . S
C160 O158 1.247 . S
C160 O159 1.208 . S
C161 O166 1.247 . S
C161 O167 1.208 . S
C162 O154 1.315 . S
C162 O157 1.279 . S
C163 O164 1.315 . S
C163 O165 1.279 . S
O164 Cd156 2.223 . S
O164 C163 1.315 . S
O165 Cd155 2.240 . S
O165 C163 1.279 . S
O166 Cd156 2.297 . S
O166 C161 1.247 . S
O167 Cd156 2.439 . S
O167 C161 1.208 . S
O168 Cd169 2.223 . S
O168 C176 1.315 . S
Cd169 O168 2.223 . S
Cd169 O172 2.297 . S
Cd169 O173 2.439 . S
Cd169 O179 2.240 . S
Cd170 O171 2.240 . S
Cd170 O178 2.223 . S
Cd170 O180 2.297 . S
Cd170 O181 2.439 . S
O171 Cd170 2.240 . S
O171 C176 1.279 . S
O172 Cd169 2.297 . S
O172 C174 1.247 . S
O173 Cd169 2.439 . S
O173 C174 1.208 . S
C174 O172 1.247 . S
C174 O173 1.208 . S
C175 O180 1.247 . S
C175 O181 1.208 . S
C176 O168 1.315 . S
C176 O171 1.279 . S
C177 O178 1.315 . S
C177 O179 1.279 . S
O178 Cd170 2.223 . S
O178 C177 1.315 . S
O179 Cd169 2.240 . S
O179 C177 1.279 . S
O180 Cd170 2.297 . S
O180 C175 1.247 . S
O181 Cd170 2.439 . S
O181 C175 1.208 . S
O182 Cd183 2.219 1_655 S
O182 C190 1.315 1_655 S
Cd183 O182 2.219 1_455 S
Cd183 O186 2.301 . S
Cd183 O187 2.457 . S
Cd183 O193 2.242 . S
Cd184 O185 2.240 . S
Cd184 O192 2.223 . S
Cd184 O194 2.297 . S
Cd184 O195 2.439 . S
O185 Cd184 2.240 . S
O185 C190 1.279 . S
O186 Cd183 2.301 . S
O186 C188 1.247 . S
O187 Cd183 2.457 . S
O187 C188 1.208 . S
C188 O186 1.247 . S
C188 O187 1.208 . S
C189 O194 1.247 . S
C189 O195 1.208 . S
C190 O182 1.315 1_455 S
C190 O185 1.279 . S
C191 O192 1.315 1_655 S
C191 O193 1.279 1_655 S
O192 Cd184 2.223 . S
O192 C191 1.315 1_455 S
O193 Cd183 2.242 . S
O193 C191 1.279 1_455 S
O194 Cd184 2.297 . S
O194 C189 1.247 . S
O195 Cd184 2.439 . S
O195 C189 1.208 . S
O196 Cd197 2.223 . S
O196 C204 1.315 . S
Cd197 O196 2.223 . S
Cd197 O200 2.297 . S
Cd197 O201 2.439 . S
Cd197 O207 2.240 . S
Cd198 O199 2.240 . S
Cd198 O206 2.223 . S
Cd198 O208 2.297 . S
Cd198 O209 2.439 . S
O199 Cd198 2.240 . S
O199 C204 1.279 . S
O200 Cd197 2.297 . S
O200 C202 1.247 . S
O201 Cd197 2.439 . S
O201 C202 1.208 . S
C202 O200 1.247 . S
C202 O201 1.208 . S
C203 O208 1.247 . S
C203 O209 1.208 . S
C204 O196 1.315 . S
C204 O199 1.279 . S
C205 O206 1.315 . S
C205 O207 1.279 . S
O206 Cd198 2.223 . S
O206 C205 1.315 . S
O207 Cd197 2.240 . S
O207 C205 1.279 . S
O208 Cd198 2.297 . S
O208 C203 1.247 . S
O209 Cd198 2.439 . S
O209 C203 1.208 . S
O210 Cd211 2.219 1_655 S
O210 C218 1.315 1_655 S
Cd211 O210 2.219 1_455 S
Cd211 O214 2.301 . S
Cd211 O215 2.456 . S
Cd211 O221 2.242 . S
Cd212 O213 2.240 . S
Cd212 O220 2.223 1_556 S
Cd212 O222 2.297 . S
Cd212 O223 2.439 . S
O213 Cd212 2.240 . S
O213 C218 1.279 . S
O214 Cd211 2.301 . S
O214 C216 1.247 . S
O215 Cd211 2.456 . S
O215 C216 1.208 . S
C216 O214 1.247 . S
C216 O215 1.208 . S
C217 O222 1.247 . S
C217 O223 1.208 . S
C218 O210 1.315 1_455 S
C218 O213 1.279 . S
C219 O220 1.315 1_656 S
C219 O221 1.279 1_655 S
O220 Cd212 2.223 1_554 S
O220 C219 1.315 1_454 S
O221 Cd211 2.242 . S
O221 C219 1.279 1_455 S
O222 Cd212 2.297 . S
O222 C217 1.247 . S
O223 Cd212 2.439 . S
O223 C217 1.208 . S
C224 C225 1.369 . S
C224 C226 1.419 . S
C224 H228 0.930 . S
C225 C224 1.369 . S
C225 C234 1.429 . S
C226 C224 1.419 . S
C226 C227 1.363 . S
C226 H229 0.929 . S
C227 C226 1.363 . S
C227 C233 1.428 . S
H228 C224 0.930 . S
H229 C226 0.929 . S
S230 N231 1.613 . S
S230 N232 1.610 . S
N231 S230 1.613 . S
N231 C234 1.350 . S
N232 S230 1.610 . S
N232 C233 1.351 . S
C233 C227 1.428 . S
C233 N232 1.351 . S
C233 C234 1.434 . S
C234 C225 1.429 . S
C234 N231 1.350 . S
C234 C233 1.434 . S
C235 C236 1.369 . S
C235 C237 1.419 . S
C235 H239 0.930 . S
C236 C235 1.369 . S
C236 C245 1.429 . S
C237 C235 1.419 . S
C237 C238 1.363 . S
C237 H240 0.929 . S
C238 C237 1.363 . S
C238 C244 1.428 . S
H239 C235 0.930 . S
H240 C237 0.929 . S
S241 N242 1.613 . S
S241 N243 1.610 . S
N242 S241 1.613 . S
N242 C245 1.350 . S
N243 S241 1.610 . S
N243 C244 1.351 . S
C244 C238 1.428 . S
C244 N243 1.351 . S
C244 C245 1.434 . S
C245 C236 1.429 . S
C245 N242 1.350 . S
C245 C244 1.434 . S
C246 C247 1.369 . S
C246 C248 1.419 . S
C246 H250 0.930 . S
C247 C246 1.369 . S
C247 C256 1.429 . S
C248 C246 1.419 . S
C248 C249 1.363 . S
C248 H251 0.929 . S
C249 C248 1.363 . S
C249 C255 1.428 . S
H250 C246 0.930 . S
H251 C248 0.929 . S
S252 N253 1.613 . S
S252 N254 1.610 . S
N253 S252 1.613 . S
N253 C256 1.350 . S
N254 S252 1.610 . S
N254 C255 1.351 . S
C255 C249 1.428 . S
C255 N254 1.351 . S
C255 C256 1.434 . S
C256 C247 1.429 . S
C256 N253 1.350 . S
C256 C255 1.434 . S
C257 C258 1.369 . S
C257 C259 1.419 . S
C257 H261 0.930 . S
C258 C257 1.369 . S
C258 C267 1.429 1_556 S
C259 C257 1.419 . S
C259 C260 1.363 . S
C259 H262 0.929 . S
C260 C259 1.363 . S
C260 C266 1.428 1_556 S
H261 C257 0.930 . S
H262 C259 0.929 . S
S263 N264 1.613 . S
S263 N265 1.610 . S
N264 S263 1.613 . S
N264 C267 1.350 . S
N265 S263 1.610 . S
N265 C266 1.351 . S
C266 C260 1.428 1_554 S
C266 N265 1.351 . S
C266 C267 1.434 . S
C267 C258 1.429 1_554 S
C267 N264 1.350 . S
C267 C266 1.434 . S
C268 C269 1.369 . S
C268 C270 1.419 . S
C268 H272 0.930 . S
C269 C268 1.369 . S
C269 C278 1.429 1_556 S
C270 C268 1.419 . S
C270 C271 1.363 . S
C270 H273 0.929 . S
C271 C270 1.363 . S
C271 C277 1.428 1_556 S
H272 C268 0.930 . S
H273 C270 0.929 . S
S274 N275 1.613 . S
S274 N276 1.610 . S
N275 S274 1.613 . S
N275 C278 1.350 . S
N276 S274 1.610 . S
N276 C277 1.351 . S
C277 C271 1.428 1_554 S
C277 N276 1.351 . S
C277 C278 1.434 . S
C278 C269 1.429 1_554 S
C278 N275 1.350 . S
C278 C277 1.434 . S
C279 C280 1.369 . S
C279 C281 1.419 . S
C279 H283 0.930 . S
C280 C279 1.369 . S
C280 C289 1.429 . S
C281 C279 1.419 . S
C281 C282 1.363 . S
C281 H284 0.929 . S
C282 C281 1.363 . S
C282 C288 1.428 . S
H283 C279 0.930 . S
H284 C281 0.929 . S
S285 N286 1.613 . S
S285 N287 1.610 . S
N286 S285 1.613 . S
N286 C289 1.350 . S
N287 S285 1.610 . S
N287 C288 1.351 . S
C288 C282 1.428 . S
C288 N287 1.351 . S
C288 C289 1.434 . S
C289 C280 1.429 . S
C289 N286 1.350 . S
C289 C288 1.434 . S
C290 C291 1.369 . S
C290 C292 1.419 . S
C290 H294 0.930 . S
C291 C290 1.369 . S
C291 C300 1.429 . S
C292 C290 1.419 . S
C292 C293 1.363 . S
C292 H295 0.929 . S
C293 C292 1.363 . S
C293 C299 1.428 . S
H294 C290 0.930 . S
H295 C292 0.929 . S
S296 N297 1.613 . S
S296 N298 1.610 . S
N297 S296 1.613 . S
N297 C300 1.350 . S
N298 S296 1.610 . S
N298 C299 1.351 . S
C299 C293 1.428 . S
C299 N298 1.351 . S
C299 C300 1.434 . S
C300 C291 1.429 . S
C300 N297 1.350 . S
C300 C299 1.434 . S
C301 C302 1.369 . S
C301 C303 1.419 . S
C301 H305 0.930 . S
C302 C301 1.369 . S
C302 C311 1.429 . S
C303 C301 1.419 . S
C303 C304 1.363 . S
C303 H306 0.929 . S
C304 C303 1.363 . S
C304 C310 1.428 . S
H305 C301 0.930 . S
H306 C303 0.929 . S
S307 N308 1.613 . S
S307 N309 1.610 . S
N308 S307 1.613 . S
N308 C311 1.350 . S
N309 S307 1.610 . S
N309 C310 1.351 . S
C310 C304 1.428 . S
C310 N309 1.351 . S
C310 C311 1.434 . S
C311 C302 1.429 . S
C311 N308 1.350 . S
C311 C310 1.434 . S
C312 C313 1.369 1_455 S
C312 C314 1.419 1_455 S
C312 H316 0.930 . S
C313 C312 1.369 1_655 S
C313 C322 1.429 . S
C314 C312 1.419 1_655 S
C314 C315 1.363 . S
C314 H317 0.929 . S
C315 C314 1.363 . S
C315 C321 1.428 . S
H316 C312 0.930 . S
H317 C314 0.929 . S
S318 N319 1.613 . S
S318 N320 1.610 . S
N319 S318 1.613 . S
N319 C322 1.350 . S
N320 S318 1.610 . S
N320 C321 1.351 . S
C321 C315 1.428 . S
C321 N320 1.351 . S
C321 C322 1.434 . S
C322 C313 1.429 . S
C322 N319 1.350 . S
C322 C321 1.434 . S
C323 C324 1.369 . S
C323 C325 1.419 . S
C323 H327 0.930 . S
C324 C323 1.369 . S
C324 C333 1.429 . S
C325 C323 1.419 . S
C325 C326 1.363 . S
C325 H328 0.929 . S
C326 C325 1.363 . S
C326 C332 1.428 . S
H327 C323 0.930 . S
H328 C325 0.929 . S
S329 N330 1.613 . S
S329 N331 1.610 . S
N330 S329 1.613 . S
N330 C333 1.350 . S
N331 S329 1.610 . S
N331 C332 1.351 . S
C332 C326 1.428 . S
C332 N331 1.351 . S
C332 C333 1.434 . S
C333 C324 1.429 . S
C333 N330 1.350 . S
C333 C332 1.434 . S
C334 C335 1.369 . S
C334 C336 1.419 . S
C334 H338 0.930 . S
C335 C334 1.369 . S
C335 C344 1.429 . S
C336 C334 1.419 . S
C336 C337 1.363 . S
C336 H339 0.929 . S
C337 C336 1.363 . S
C337 C343 1.428 . S
H338 C334 0.930 . S
H339 C336 0.929 . S
S340 N341 1.613 . S
S340 N342 1.610 . S
N341 S340 1.613 . S
N341 C344 1.350 . S
N342 S340 1.610 . S
N342 C343 1.351 . S
C343 C337 1.428 . S
C343 N342 1.351 . S
C343 C344 1.434 . S
C344 C335 1.429 . S
C344 N341 1.350 . S
C344 C343 1.434 . S
C345 C346 1.369 . S
C345 C347 1.419 . S
C345 H349 0.930 . S
C346 C345 1.369 . S
C346 C355 1.429 . S
C347 C345 1.419 . S
C347 C348 1.363 . S
C347 H350 0.929 . S
C348 C347 1.363 . S
C348 C354 1.428 . S
H349 C345 0.930 . S
H350 C347 0.929 . S
S351 N352 1.613 . S
S351 N353 1.610 . S
N352 S351 1.613 . S
N352 C355 1.350 . S
N353 S351 1.610 . S
N353 C354 1.351 . S
C354 C348 1.428 . S
C354 N353 1.351 . S
C354 C355 1.434 . S
C355 C346 1.429 . S
C355 N352 1.350 . S
C355 C354 1.434 . S
C356 C357 1.369 1_455 S
C356 C358 1.419 1_455 S
C356 H360 0.930 . S
C357 C356 1.369 1_655 S
C357 C366 1.429 . S
C358 C356 1.419 1_655 S
C358 C359 1.363 . S
C358 H361 0.929 . S
C359 C358 1.363 . S
C359 C365 1.428 . S
H360 C356 0.930 . S
H361 C358 0.929 . S
S362 N363 1.613 . S
S362 N364 1.610 . S
N363 S362 1.613 . S
N363 C366 1.350 . S
N364 S362 1.610 . S
N364 C365 1.351 . S
C365 C359 1.428 . S
C365 N364 1.351 . S
C365 C366 1.434 . S
C366 C357 1.429 . S
C366 N363 1.350 . S
C366 C365 1.434 . S
C367 C368 1.369 . S
C367 C369 1.419 1_556 S
C367 H371 0.930 . S
C368 C367 1.369 . S
C368 C377 1.429 . S
C369 C367 1.419 1_554 S
C369 C370 1.363 1_554 S
C369 H372 0.929 . S
C370 C369 1.363 1_556 S
C370 C376 1.428 . S
H371 C367 0.930 . S
H372 C369 0.929 . S
S373 N374 1.613 . S
S373 N375 1.610 . S
N374 S373 1.613 . S
N374 C377 1.350 . S
N375 S373 1.610 . S
N375 C376 1.351 . S
C376 C370 1.428 . S
C376 N375 1.351 . S
C376 C377 1.434 . S
C377 C368 1.429 . S
C377 N374 1.350 . S
C377 C376 1.434 . S
C378 C379 1.369 . S
C378 C380 1.419 . S
C378 H382 0.930 . S
C379 C378 1.369 . S
C379 C388 1.429 . S
C380 C378 1.419 . S
C380 C381 1.363 . S
C380 H383 0.929 . S
C381 C380 1.363 . S
C381 C387 1.428 . S
H382 C378 0.930 . S
H383 C380 0.929 . S
S384 N385 1.613 . S
S384 N386 1.610 . S
N385 S384 1.613 . S
N385 C388 1.350 . S
N386 S384 1.610 . S
N386 C387 1.351 . S
C387 C381 1.428 . S
C387 N386 1.351 . S
C387 C388 1.434 . S
C388 C379 1.429 . S
C388 N385 1.350 . S
C388 C387 1.434 . S
C389 C390 1.369 . S
C389 C391 1.419 . S
C389 H393 0.930 . S
C390 C389 1.369 . S
C390 C399 1.429 . S
C391 C389 1.419 . S
C391 C392 1.363 . S
C391 H394 0.929 . S
C392 C391 1.363 . S
C392 C398 1.428 . S
H393 C389 0.930 . S
H394 C391 0.929 . S
S395 N396 1.613 . S
S395 N397 1.610 . S
N396 S395 1.613 . S
N396 C399 1.350 . S
N397 S395 1.610 . S
N397 C398 1.351 . S
C398 C392 1.428 . S
C398 N397 1.351 . S
C398 C399 1.434 . S
C399 C390 1.429 . S
C399 N396 1.350 . S
C399 C398 1.434 . S
C400 C401 1.369 . S
C400 C402 1.419 . S
C400 H404 0.930 . S
C401 C400 1.369 . S
C401 C410 1.429 . S
C402 C400 1.419 . S
C402 C403 1.363 . S
C402 H405 0.929 1_554 S
C403 C402 1.363 . S
C403 C409 1.428 . S
H404 C400 0.930 . S
H405 C402 0.929 1_556 S
S406 N407 1.613 . S
S406 N408 1.610 . S
N407 S406 1.613 . S
N407 C410 1.350 . S
N408 S406 1.610 . S
N408 C409 1.351 . S
C409 C403 1.428 . S
C409 N408 1.351 . S
C409 C410 1.434 . S
C410 C401 1.429 . S
C410 N407 1.350 . S
C410 C409 1.434 . S
C411 C412 1.369 . S
C411 C413 1.419 . S
C411 H415 0.930 . S
C412 C411 1.369 . S
C412 C421 1.429 . S
C413 C411 1.419 . S
C413 C414 1.363 . S
C413 H416 0.929 . S
C414 C413 1.363 . S
C414 C420 1.428 . S
H415 C411 0.930 . S
H416 C413 0.929 . S
S417 N418 1.613 . S
S417 N419 1.610 . S
N418 S417 1.613 . S
N418 C421 1.350 . S
N419 S417 1.610 . S
N419 C420 1.351 . S
C420 C414 1.428 . S
C420 N419 1.351 . S
C420 C421 1.434 . S
C421 C412 1.429 . S
C421 N418 1.350 . S
C421 C420 1.434 . S
C422 C423 1.369 . S
C422 C424 1.419 . S
C422 H426 0.930 . S
C423 C422 1.369 . S
C423 C432 1.429 . S
C424 C422 1.419 . S
C424 C425 1.363 . S
C424 H427 0.929 . S
C425 C424 1.363 . S
C425 C431 1.428 . S
H426 C422 0.930 . S
H427 C424 0.929 . S
S428 N429 1.613 . S
S428 N430 1.610 . S
N429 S428 1.613 . S
N429 C432 1.350 . S
N430 S428 1.610 . S
N430 C431 1.351 . S
C431 C425 1.428 . S
C431 N430 1.351 . S
C431 C432 1.434 . S
C432 C423 1.429 . S
C432 N429 1.350 . S
C432 C431 1.434 . S
C433 C434 1.369 . S
C433 C435 1.419 . S
C433 H437 0.930 . S
C434 C433 1.369 . S
C434 C443 1.429 . S
C435 C433 1.419 . S
C435 C436 1.363 . S
C435 H438 0.929 . S
C436 C435 1.363 . S
C436 C442 1.428 . S
H437 C433 0.930 . S
H438 C435 0.929 . S
S439 N440 1.613 . S
S439 N441 1.610 . S
N440 S439 1.613 . S
N440 C443 1.350 . S
N441 S439 1.610 . S
N441 C442 1.351 . S
C442 C436 1.428 . S
C442 N441 1.351 . S
C442 C443 1.434 . S
C443 C434 1.429 . S
C443 N440 1.350 . S
C443 C442 1.434 . S
C444 C445 1.369 . S
C444 C446 1.419 . S
C444 H448 0.930 . S
C445 C444 1.369 . S
C445 C454 1.429 . S
C446 C444 1.419 . S
C446 C447 1.363 . S
C446 H449 0.929 . S
C447 C446 1.363 . S
C447 C453 1.428 . S
H448 C444 0.930 . S
H449 C446 0.929 . S
S450 N451 1.613 . S
S450 N452 1.610 . S
N451 S450 1.613 . S
N451 C454 1.350 . S
N452 S450 1.610 . S
N452 C453 1.351 . S
C453 C447 1.428 . S
C453 N452 1.351 . S
C453 C454 1.434 . S
C454 C445 1.429 . S
C454 N451 1.350 . S
C454 C453 1.434 . S
C455 C456 1.369 . S
C455 C457 1.419 . S
C455 H459 0.930 . S
C456 C455 1.369 . S
C456 C465 1.429 . S
C457 C455 1.419 . S
C457 C458 1.363 . S
C457 H460 0.929 . S
C458 C457 1.363 . S
C458 C464 1.428 . S
H459 C455 0.930 . S
H460 C457 0.929 . S
S461 N462 1.613 . S
S461 N463 1.610 . S
N462 S461 1.613 . S
N462 C465 1.350 . S
N463 S461 1.610 . S
N463 C464 1.351 . S
C464 C458 1.428 . S
C464 N463 1.351 . S
C464 C465 1.434 . S
C465 C456 1.429 . S
C465 N462 1.350 . S
C465 C464 1.434 . S
C466 C467 1.369 . S
C466 C468 1.419 1_565 S
C466 H470 0.930 . S
C467 C466 1.369 . S
C467 C476 1.429 . S
C468 C466 1.419 1_545 S
C468 C469 1.363 . S
C468 H471 0.929 . S
C469 C468 1.363 . S
C469 C475 1.428 . S
H470 C466 0.930 . S
H471 C468 0.929 . S
S472 N473 1.613 . S
S472 N474 1.610 1_565 S
N473 S472 1.613 . S
N473 C476 1.350 . S
N474 S472 1.610 1_545 S
N474 C475 1.351 . S
C475 C469 1.428 . S
C475 N474 1.351 . S
C475 C476 1.434 1_545 S
C476 C467 1.429 . S
C476 N473 1.350 . S
C476 C475 1.434 1_565 S
C477 C478 1.369 1_655 S
C477 C479 1.419 1_545 S
C477 H481 0.930 1_554 S
C478 C477 1.369 1_455 S
C478 C487 1.429 . S
C479 C477 1.419 1_565 S
C479 C480 1.363 1_655 S
C479 H482 0.929 . S
C480 C479 1.363 1_455 S
C480 C486 1.428 . S
H481 C477 0.930 1_556 S
H482 C479 0.929 . S
S483 N484 1.613 . S
S483 N485 1.610 1_545 S
N484 S483 1.613 . S
N484 C487 1.350 . S
N485 S483 1.610 1_565 S
N485 C486 1.351 . S
C486 C480 1.428 . S
C486 N485 1.351 . S
C486 C487 1.434 1_565 S
C487 C478 1.429 . S
C487 N484 1.350 . S
C487 C486 1.434 1_545 S
C488 C489 1.369 . S
C488 C490 1.419 . S
C488 H492 0.930 . S
C489 C488 1.369 . S
C489 C498 1.429 . S
C490 C488 1.419 . S
C490 C491 1.363 . S
C490 H493 0.929 . S
C491 C490 1.363 . S
C491 C497 1.428 . S
H492 C488 0.930 . S
H493 C490 0.929 . S
S494 N495 1.613 . S
S494 N496 1.610 . S
N495 S494 1.613 . S
N495 C498 1.350 . S
N496 S494 1.610 . S
N496 C497 1.351 . S
C497 C491 1.428 . S
C497 N496 1.351 . S
C497 C498 1.434 . S
C498 C489 1.429 . S
C498 N495 1.350 . S
C498 C497 1.434 . S
C499 C500 1.369 . S
C499 C501 1.419 . S
C499 H503 0.930 . S
C500 C499 1.369 . S
C500 C509 1.429 . S
C501 C499 1.419 . S
C501 C502 1.363 . S
C501 H504 0.929 . S
C502 C501 1.363 . S
C502 C508 1.428 . S
H503 C499 0.930 . S
H504 C501 0.929 . S
S505 N506 1.613 . S
S505 N507 1.610 . S
N506 S505 1.613 . S
N506 C509 1.350 . S
N507 S505 1.610 . S
N507 C508 1.351 . S
C508 C502 1.428 . S
C508 N507 1.351 . S
C508 C509 1.434 . S
C509 C500 1.429 . S
C509 N506 1.350 . S
C509 C508 1.434 . S
C510 C511 1.369 . S
C510 C512 1.419 . S
C510 H514 0.930 . S
C511 C510 1.369 . S
C511 C520 1.429 . S
C512 C510 1.419 . S
C512 C513 1.363 . S
C512 H515 0.929 1_554 S
C513 C512 1.363 . S
C513 C519 1.428 . S
H514 C510 0.930 . S
H515 C512 0.929 1_556 S
S516 N517 1.613 . S
S516 N518 1.610 . S
N517 S516 1.613 . S
N517 C520 1.350 . S
N518 S516 1.610 . S
N518 C519 1.351 . S
C519 C513 1.428 . S
C519 N518 1.351 . S
C519 C520 1.434 . S
C520 C511 1.429 . S
C520 N517 1.350 . S
C520 C519 1.434 . S
C521 C522 1.369 . S
C521 C523 1.419 . S
C521 H525 0.930 . S
C522 C521 1.369 . S
C522 C531 1.429 . S
C523 C521 1.419 . S
C523 C524 1.363 . S
C523 H526 0.929 . S
C524 C523 1.363 . S
C524 C530 1.428 . S
H525 C521 0.930 . S
H526 C523 0.929 . S
S527 N528 1.613 . S
S527 N529 1.610 . S
N528 S527 1.613 . S
N528 C531 1.350 . S
N529 S527 1.610 . S
N529 C530 1.351 . S
C530 C524 1.428 . S
C530 N529 1.351 . S
C530 C531 1.434 . S
C531 C522 1.429 . S
C531 N528 1.350 . S
C531 C530 1.434 . S
C532 C533 1.369 . S
C532 C534 1.419 . S
C532 H536 0.930 . S
C533 C532 1.369 . S
C533 C542 1.429 . S
C534 C532 1.419 . S
C534 C535 1.363 . S
C534 H537 0.929 . S
C535 C534 1.363 . S
C535 C541 1.428 . S
H536 C532 0.930 . S
H537 C534 0.929 . S
S538 N539 1.613 . S
S538 N540 1.610 . S
N539 S538 1.613 . S
N539 C542 1.350 . S
N540 S538 1.610 . S
N540 C541 1.351 . S
C541 C535 1.428 . S
C541 N540 1.351 . S
C541 C542 1.434 . S
C542 C533 1.429 . S
C542 N539 1.350 . S
C542 C541 1.434 . S
C543 C544 1.369 . S
C543 C545 1.419 . S
C543 H547 0.930 . S
C544 C543 1.369 . S
C544 C553 1.429 . S
C545 C543 1.419 . S
C545 C546 1.363 . S
C545 H548 0.929 . S
C546 C545 1.363 . S
C546 C552 1.428 . S
H547 C543 0.930 . S
H548 C545 0.929 . S
S549 N550 1.613 . S
S549 N551 1.610 . S
N550 S549 1.613 . S
N550 C553 1.350 . S
N551 S549 1.610 . S
N551 C552 1.351 . S
C552 C546 1.428 . S
C552 N551 1.351 . S
C552 C553 1.434 . S
C553 C544 1.429 . S
C553 N550 1.350 . S
C553 C552 1.434 . S
C554 C555 1.369 . S
C554 C556 1.419 1_554 S
C554 H558 0.930 . S
C555 C554 1.369 . S
C555 C564 1.429 1_565 S
C556 C554 1.419 1_556 S
C556 C557 1.363 1_566 S
C556 H559 0.929 . S
C557 C556 1.363 1_544 S
C557 C563 1.428 . S
H558 C554 0.930 . S
H559 C556 0.929 . S
S560 N561 1.613 . S
S560 N562 1.610 . S
N561 S560 1.613 . S
N561 C564 1.350 . S
N562 S560 1.610 . S
N562 C563 1.351 . S
C563 C557 1.428 . S
C563 N562 1.351 . S
C563 C564 1.434 . S
C564 C555 1.429 1_545 S
C564 N561 1.350 . S
C564 C563 1.434 . S
C565 C566 1.369 . S
C565 C567 1.419 1_545 S
C565 H569 0.930 . S
C566 C565 1.369 . S
C566 C575 1.429 . S
C567 C565 1.419 1_565 S
C567 C568 1.363 . S
C567 H570 0.929 . S
C568 C567 1.363 . S
C568 C574 1.428 . S
H569 C565 0.930 . S
H570 C567 0.929 . S
S571 N572 1.613 . S
S571 N573 1.610 1_545 S
N572 S571 1.613 . S
N572 C575 1.350 1_655 S
N573 S571 1.610 1_565 S
N573 C574 1.351 1_655 S
C574 C568 1.428 . S
C574 N573 1.351 1_455 S
C574 C575 1.434 1_565 S
C575 C566 1.429 . S
C575 N572 1.350 1_455 S
C575 C574 1.434 1_545 S
C225 C135 1.444 . S
C227 C9 1.445 . S
C236 C205 1.443 . S
C238 C23 1.445 . S
C247 C37 1.450 . S
C249 C121 1.447 . S
C258 C51 1.443 . S
C260 C219 1.446 . S
C269 C65 1.450 . S
C271 C149 1.447 . S
C280 C191 1.447 . S
C282 C79 1.445 . S
C291 C163 1.446 . S
C293 C93 1.449 . S
C302 C107 1.448 . S
C304 C177 1.450 . S
C313 C63 1.598 1_655 S
C315 C49 1.601 1_556 S
C324 C175 1.594 . S
C326 C119 1.605 . S
C335 C91 1.606 . S
C337 C21 1.595 . S
C346 C133 1.598 . S
C348 C189 1.601 . S
C357 C7 1.601 1_655 S
C359 C77 1.599 . S
C368 C217 1.607 . S
C370 C147 1.596 1_556 S
C379 C105 1.600 . S
C381 C35 1.599 . S
C390 C161 1.596 . S
C392 C203 1.604 . S
C401 C8 1.390 . S
C403 C64 1.393 1_554 S
C412 C78 1.390 . S
C414 C22 1.394 . S
C423 C92 1.393 . S
C425 C36 1.391 . S
C434 C50 1.390 . S
C436 C106 1.394 . S
C445 C148 1.395 . S
C447 C120 1.390 . S
C456 C162 1.391 . S
C458 C134 1.392 . S
C467 C204 1.391 . S
C469 C176 1.392 . S
C478 C218 1.392 1_554 S
C480 C190 1.392 . S
C489 C62 1.517 . S
C491 C6 1.516 . S
C500 C76 1.514 . S
C502 C20 1.515 . S
C511 C90 1.516 . S
C513 C34 1.516 1_554 S
C522 C48 1.518 . S
C524 C104 1.518 . S
C533 C118 1.519 . S
C535 C146 1.518 . S
C544 C160 1.515 . S
C546 C132 1.515 . S
C555 C202 1.517 . S
C557 C174 1.517 1_554 S
C566 C216 1.512 . S
C568 C188 1.513 . S
