# Generated by pormake.
# Topology ukk, (4)-cn, num edge types: 1
# Building blocks:
#     Node 0, Type 0, BuildingBlock: QUQFOY_clean_sbu_3, # of connection points: 4
#     Node 1, Type 0, BuildingBlock: QUQFOY_clean_sbu_3, # of connection points: 4
#     Node 2, Type 0, BuildingBlock: QUQFOY_clean_sbu_3, # of connection points: 4
#     Node 3, Type 0, BuildingBlock: QUQFOY_clean_sbu_3, # of connection points: 4
#     Node 4, Type 0, BuildingBlock: QUQFOY_clean_sbu_3, # of connection points: 4
#     Node 5, Type 0, BuildingBlock: QUQFOY_clean_sbu_3, # of connection points: 4
#     Node 6, Type 0, BuildingBlock: QUQFOY_clean_sbu_3, # of connection points: 4
#     Node 7, Type 0, BuildingBlock: QUQFOY_clean_sbu_3, # of connection points: 4
#     Node 8, Type 0, BuildingBlock: QUQFOY_clean_sbu_3, # of connection points: 4
#     Node 9, Type 0, BuildingBlock: QUQFOY_clean_sbu_3, # of connection points: 4
#     Node 10, Type 0, BuildingBlock: QUQFOY_clean_sbu_3, # of connection points: 4
#     Node 11, Type 0, BuildingBlock: QUQFOY_clean_sbu_3, # of connection points: 4
#     Node 12, Type 0, BuildingBlock: QUQFOY_clean_sbu_3, # of connection points: 4
#     Node 13, Type 0, BuildingBlock: QUQFOY_clean_sbu_3, # of connection points: 4
#     Node 14, Type 0, BuildingBlock: QUQFOY_clean_sbu_3, # of connection points: 4
#     Node 15, Type 0, BuildingBlock: QUQFOY_clean_sbu_3, # of connection points: 4
#     Edge 16, Type (0, 0), BuildingBlock: CIFDUS_clean_linker_0, # of connection points: 2
#     Edge 17, Type (0, 0), BuildingBlock: CIFDUS_clean_linker_0, # of connection points: 2
#     Edge 18, Type (0, 0), BuildingBlock: CIFDUS_clean_linker_0, # of connection points: 2
#     Edge 19, Type (0, 0), BuildingBlock: CIFDUS_clean_linker_0, # of connection points: 2
#     Edge 20, Type (0, 0), BuildingBlock: CIFDUS_clean_linker_0, # of connection points: 2
#     Edge 21, Type (0, 0), BuildingBlock: CIFDUS_clean_linker_0, # of connection points: 2
#     Edge 22, Type (0, 0), BuildingBlock: CIFDUS_clean_linker_0, # of connection points: 2
#     Edge 23, Type (0, 0), BuildingBlock: CIFDUS_clean_linker_0, # of connection points: 2
#     Edge 24, Type (0, 0), BuildingBlock: CIFDUS_clean_linker_0, # of connection points: 2
#     Edge 25, Type (0, 0), BuildingBlock: CIFDUS_clean_linker_0, # of connection points: 2
#     Edge 26, Type (0, 0), BuildingBlock: CIFDUS_clean_linker_0, # of connection points: 2
#     Edge 27, Type (0, 0), BuildingBlock: CIFDUS_clean_linker_0, # of connection points: 2
#     Edge 28, Type (0, 0), BuildingBlock: CIFDUS_clean_linker_0, # of connection points: 2
#     Edge 29, Type (0, 0), BuildingBlock: CIFDUS_clean_linker_0, # of connection points: 2
#     Edge 30, Type (0, 0), BuildingBlock: CIFDUS_clean_linker_0, # of connection points: 2
#     Edge 31, Type (0, 0), BuildingBlock: CIFDUS_clean_linker_0, # of connection points: 2
#     Edge 32, Type (0, 0), BuildingBlock: CIFDUS_clean_linker_0, # of connection points: 2
#     Edge 33, Type (0, 0), BuildingBlock: CIFDUS_clean_linker_0, # of connection points: 2
#     Edge 34, Type (0, 0), BuildingBlock: CIFDUS_clean_linker_0, # of connection points: 2
#     Edge 35, Type (0, 0), BuildingBlock: CIFDUS_clean_linker_0, # of connection points: 2
#     Edge 36, Type (0, 0), BuildingBlock: CIFDUS_clean_linker_0, # of connection points: 2
#     Edge 37, Type (0, 0), BuildingBlock: CIFDUS_clean_linker_0, # of connection points: 2
#     Edge 38, Type (0, 0), BuildingBlock: CIFDUS_clean_linker_0, # of connection points: 2
#     Edge 39, Type (0, 0), BuildingBlock: CIFDUS_clean_linker_0, # of connection points: 2
#     Edge 40, Type (0, 0), BuildingBlock: CIFDUS_clean_linker_0, # of connection points: 2
#     Edge 41, Type (0, 0), BuildingBlock: CIFDUS_clean_linker_0, # of connection points: 2
#     Edge 42, Type (0, 0), BuildingBlock: CIFDUS_clean_linker_0, # of connection points: 2
#     Edge 43, Type (0, 0), BuildingBlock: CIFDUS_clean_linker_0, # of connection points: 2
#     Edge 44, Type (0, 0), BuildingBlock: CIFDUS_clean_linker_0, # of connection points: 2
#     Edge 45, Type (0, 0), BuildingBlock: CIFDUS_clean_linker_0, # of connection points: 2
#     Edge 46, Type (0, 0), BuildingBlock: CIFDUS_clean_linker_0, # of connection points: 2
#     Edge 47, Type (0, 0), BuildingBlock: CIFDUS_clean_linker_0, # of connection points: 2
# Relax obj value: 0.124
# Max RMSD: 0.293
# Mean RMSD: 0.293
data_MOF--net-ukk--node1-QUQFOY_clean_sbu_3--edge1-CIFDUS_clean_linker_0
_symmetry_space_group_name_H-M    P1
_symmetry_Int_Tables_number       1
_symmetry_cell_setting            triclinic
loop_
_symmetry_equiv_pos_as_xyz
'x, y, z'
_cell_length_a     48.69574
_cell_length_b     48.755468
_cell_length_c     15.60451
_cell_angle_alpha  90.181706
_cell_angle_beta   90.217916
_cell_angle_gamma 89.905478
loop_
_atom_site_label
_atom_site_type_symbol
_atom_site_fract_x
_atom_site_fract_y
_atom_site_fract_z
_atom_type_partial_charge
C0 C 0.34835 0.06667 0.36162 0.0
O1 O 0.35584 0.08758 0.40421 0.0
Cd2 Cd 0.35607 0.13265 0.33714 0.0
O3 O 0.34074 0.06874 0.28398 0.0
Cd4 Cd 0.33336 0.10069 0.16646 0.0
C5 C 0.40004 0.11956 0.16699 0.0
O6 O 0.31653 0.1401 0.2491 0.0
O7 O 0.32581 0.14616 0.11475 0.0
O8 O 0.28928 0.07876 0.15262 0.0
C9 C 0.31732 0.15613 0.18491 0.0
O10 O 0.39356 0.13165 0.23652 0.0
C11 C 0.29055 0.07415 0.07273 0.0
O12 O 0.3831 0.10375 0.12819 0.0
O13 O 0.31289 0.08048 0.03551 0.0
C14 C 0.05853 0.62099 0.62906 0.0
O15 O 0.07804 0.60992 0.58782 0.0
Cd16 Cd 0.12239 0.60438 0.65929 0.0
O17 O 0.06178 0.62835 0.7065 0.0
Cd18 Cd 0.09494 0.6297 0.82327 0.0
C19 C 0.1048 0.56166 0.82505 0.0
O20 O 0.13628 0.64352 0.74328 0.0
O21 O 0.14129 0.63067 0.87525 0.0
O22 O 0.07701 0.67523 0.84897 0.0
C23 C 0.15199 0.64028 0.80788 0.0
O24 O 0.11854 0.56626 0.75738 0.0
C25 C 0.07247 0.67196 0.92823 0.0
O26 O 0.09066 0.58055 0.86055 0.0
O27 O 0.07741 0.64831 0.95897 0.0
C28 C 0.62018 0.90363 0.29825 0.0
O29 O 0.61158 0.8826 0.33757 0.0
Cd30 Cd 0.60965 0.83835 0.26534 0.0
O31 O 0.62771 0.90207 0.22044 0.0
Cd32 Cd 0.63281 0.87086 0.09862 0.0
C33 C 0.56485 0.85771 0.1038 0.0
O34 O 0.64854 0.83023 0.17578 0.0
O35 O 0.63622 0.82472 0.04346 0.0
O36 O 0.67729 0.89157 0.07463 0.0
C37 C 0.64569 0.81426 0.11173 0.0
O38 O 0.57087 0.84331 0.16924 0.0
C39 C 0.67351 0.89677 0.99584 0.0
O40 O 0.58281 0.87274 0.06746 0.0
O41 O 0.65 0.891 0.96481 0.0
C42 C 0.91326 0.36206 0.69499 0.0
O43 O 0.89314 0.35817 0.64456 0.0
Cd44 Cd 0.84716 0.35511 0.70392 0.0
O45 O 0.91042 0.3599 0.77561 0.0
Cd46 Cd 0.87685 0.34656 0.88442 0.0
C47 C 0.85005 0.40871 0.85245 0.0
O48 O 0.84247 0.31939 0.80632 0.0
O49 O 0.83082 0.33682 0.92891 0.0
O50 O 0.90439 0.30715 0.92098 0.0
C51 C 0.82454 0.32191 0.86508 0.0
O52 O 0.8409 0.39761 0.78397 0.0
C53 C 0.90597 0.31238 0.00057 0.0
O54 O 0.8662 0.39571 0.90262 0.0
O55 O 0.89571 0.33504 0.02589 0.0
C56 C 0.33486 0.40417 0.91325 0.0
O57 O 0.33263 0.38287 0.86693 0.0
Cd58 Cd 0.34251 0.33902 0.93229 0.0
O59 O 0.33879 0.40243 0.9936 0.0
Cd60 Cd 0.34254 0.37073 0.11463 0.0
C61 C 0.40423 0.3565 0.03489 0.0
O62 O 0.31588 0.33205 0.05877 0.0
O63 O 0.34131 0.32502 0.17098 0.0
O64 O 0.30371 0.3962 0.16442 0.0
C65 C 0.32393 0.31584 0.11751 0.0
O66 O 0.38988 0.34513 0.97636 0.0
C67 C 0.31168 0.39896 0.24138 0.0
O68 O 0.39288 0.36893 0.09759 0.0
O69 O 0.33565 0.39012 0.25946 0.0
C70 C 0.40252 0.62246 0.06938 0.0
O71 O 0.38179 0.61381 0.11014 0.0
Cd72 Cd 0.33786 0.60901 0.03535 0.0
O73 O 0.40086 0.62798 0.99009 0.0
Cd74 Cd 0.36992 0.62855 0.86734 0.0
C75 C 0.35595 0.56119 0.88287 0.0
O76 O 0.32871 0.64628 0.93891 0.0
O77 O 0.32438 0.63178 0.80825 0.0
O78 O 0.39179 0.67159 0.83394 0.0
C79 C 0.31338 0.64258 0.87365 0.0
O80 O 0.34149 0.56819 0.94717 0.0
C81 C 0.39734 0.66576 0.75666 0.0
O82 O 0.37137 0.57841 0.84491 0.0
O83 O 0.39089 0.64185 0.73067 0.0
C84 C 0.61648 0.55666 0.90929 0.0
O85 O 0.60593 0.57601 0.866 0.0
Cd86 Cd 0.60132 0.62124 0.93137 0.0
O87 O 0.6242 0.56073 0.98614 0.0
Cd88 Cd 0.62708 0.59565 0.09792 0.0
C89 C 0.55893 0.60544 0.09994 0.0
O90 O 0.64109 0.63546 0.01149 0.0
O91 O 0.62819 0.64282 0.14231 0.0
O92 O 0.67263 0.5777 0.12418 0.0
C93 C 0.63807 0.65223 0.07343 0.0
O94 O 0.56338 0.61847 0.03081 0.0
C95 C 0.6699 0.57483 0.20443 0.0
O96 O 0.57797 0.59181 0.13672 0.0
O97 O 0.64648 0.58056 0.23569 0.0
C98 C 0.56737 0.34162 0.02941 0.0
O99 O 0.58586 0.34198 0.08699 0.0
Cd100 Cd 0.63369 0.34277 0.03853 0.0
O101 O 0.57405 0.33886 0.95132 0.0
Cd102 Cd 0.61027 0.33199 0.84799 0.0
C103 C 0.62915 0.39654 0.893 0.0
O104 O 0.64557 0.30855 0.93377 0.0
O105 O 0.65721 0.32585 0.81108 0.0
O106 O 0.58656 0.29112 0.80275 0.0
C107 C 0.66408 0.31262 0.87763 0.0
O108 O 0.63767 0.386 0.9629 0.0
C109 C 0.58485 0.29744 0.7241 0.0
O110 O 0.61582 0.38229 0.83809 0.0
O111 O 0.59403 0.32088 0.70267 0.0
C112 C 0.84942 0.5687 0.83526 0.0
O113 O 0.86097 0.58876 0.87281 0.0
Cd114 Cd 0.8643 0.63313 0.80221 0.0
O115 O 0.83952 0.57148 0.76029 0.0
Cd116 Cd 0.83322 0.60442 0.64435 0.0
C117 C 0.90155 0.61241 0.62584 0.0
O118 O 0.82323 0.64598 0.72742 0.0
O119 O 0.83215 0.65091 0.59256 0.0
O120 O 0.78648 0.58806 0.62919 0.0
C121 C 0.82535 0.66184 0.66318 0.0
O122 O 0.89926 0.62682 0.69368 0.0
C123 C 0.7882 0.58228 0.55006 0.0
O124 O 0.88125 0.5989 0.59576 0.0
O125 O 0.81141 0.58593 0.51476 0.0
C126 C 0.55924 0.11518 0.13576 0.0
O127 O 0.57931 0.109 0.08787 0.0
Cd128 Cd 0.62606 0.11068 0.14544 0.0
O129 O 0.5632 0.12191 0.21346 0.0
Cd130 Cd 0.6 0.12739 0.31864 0.0
C131 C 0.62127 0.06216 0.3027 0.0
O132 O 0.63802 0.14879 0.23688 0.0
O133 O 0.64642 0.13208 0.3632 0.0
O134 O 0.57981 0.17071 0.35953 0.0
C135 C 0.65485 0.14537 0.29886 0.0
O136 O 0.63181 0.07058 0.23313 0.0
C137 C 0.57664 0.16492 0.43804 0.0
O138 O 0.60517 0.07744 0.34625 0.0
O139 O 0.58298 0.14069 0.46103 0.0
C140 C 0.12834 0.40544 0.82008 0.0
O141 O 0.11841 0.38564 0.86245 0.0
Cd142 Cd 0.11408 0.3406 0.7952 0.0
O143 O 0.13565 0.40224 0.74266 0.0
Cd144 Cd 0.13876 0.36945 0.6251 0.0
C145 C 0.0702 0.35858 0.63106 0.0
O146 O 0.15307 0.32945 0.70754 0.0
O147 O 0.14201 0.32278 0.57455 0.0
O148 O 0.18373 0.38835 0.59576 0.0
C149 C 0.1505 0.31287 0.64486 0.0
O150 O 0.07494 0.34547 0.69995 0.0
C151 C 0.17872 0.3946 0.51839 0.0
O152 O 0.0891 0.37165 0.59229 0.0
O153 O 0.15463 0.38966 0.49055 0.0
C154 C 0.40999 0.847 0.18444 0.0
O155 O 0.3888 0.85721 0.14932 0.0
Cd156 Cd 0.34747 0.864 0.23441 0.0
O157 O 0.41009 0.84106 0.26362 0.0
Cd158 Cd 0.3814 0.84227 0.39149 0.0
C159 C 0.37121 0.91011 0.3841 0.0
O160 O 0.33741 0.82667 0.32952 0.0
O161 O 0.33716 0.84288 0.45895 0.0
O162 O 0.40009 0.79739 0.42129 0.0
C163 C 0.32416 0.83146 0.39815 0.0
O164 O 0.35486 0.90406 0.32312 0.0
C165 C 0.40698 0.80237 0.4982 0.0
O166 O 0.38687 0.89204 0.41748 0.0
O167 O 0.4033 0.82677 0.52503 0.0
C168 C 0.86867 0.91619 0.45667 0.0
O169 O 0.87735 0.89566 0.4145 0.0
Cd170 Cd 0.87777 0.85027 0.47909 0.0
O171 O 0.86065 0.91351 0.53361 0.0
Cd172 Cd 0.85569 0.87912 0.64664 0.0
C173 C 0.92272 0.86258 0.645 0.0
O174 O 0.83787 0.84004 0.56272 0.0
O175 O 0.85174 0.83234 0.69248 0.0
O176 O 0.81129 0.89934 0.67648 0.0
C177 C 0.84041 0.82334 0.62481 0.0
O178 O 0.91637 0.84978 0.57654 0.0
C179 C 0.81509 0.90258 0.75631 0.0
O180 O 0.90547 0.87828 0.68236 0.0
O181 O 0.83872 0.89629 0.78541 0.0
C182 C 0.90221 0.14064 0.58306 0.0
O183 O 0.88083 0.13568 0.62653 0.0
Cd184 Cd 0.83694 0.13 0.55227 0.0
O185 O 0.90093 0.14277 0.50207 0.0
Cd186 Cd 0.87061 0.14146 0.3775 0.0
C187 C 0.85383 0.07578 0.41785 0.0
O188 O 0.82947 0.16261 0.4397 0.0
O189 O 0.82575 0.14421 0.31358 0.0
O190 O 0.89336 0.18368 0.34316 0.0
C191 C 0.81448 0.15707 0.37482 0.0
O192 O 0.84042 0.08638 0.47959 0.0
C193 C 0.89962 0.17748 0.26673 0.0
O194 O 0.86967 0.09035 0.37137 0.0
O195 O 0.89336 0.15341 0.24132 0.0
C196 C 0.10075 0.05543 0.47968 0.0
O197 O 0.10117 0.07438 0.42422 0.0
Cd198 Cd 0.10265 0.12121 0.47954 0.0
O199 O 0.1065 0.06055 0.55754 0.0
Cd200 Cd 0.1228 0.09644 0.65404 0.0
C201 C 0.05702 0.11468 0.64971 0.0
O202 O 0.14181 0.13322 0.5642 0.0
O203 O 0.1276 0.14355 0.69216 0.0
O204 O 0.16658 0.07361 0.66793 0.0
C205 C 0.13921 0.15108 0.62352 0.0
O206 O 0.06374 0.12408 0.57659 0.0
C207 C 0.16623 0.07174 0.74902 0.0
O208 O 0.07401 0.10086 0.69482 0.0
O209 O 0.14453 0.07991 0.78682 0.0
C210 C 0.07639 0.8364 0.58578 0.0
O211 O 0.09761 0.84627 0.62166 0.0
Cd212 Cd 0.13768 0.85559 0.53404 0.0
O213 O 0.07632 0.83079 0.5062 0.0
Cd214 Cd 0.10384 0.83037 0.37549 0.0
C215 C 0.10604 0.89904 0.38884 0.0
O216 O 0.14895 0.81903 0.4359 0.0
O217 O 0.14738 0.83303 0.30422 0.0
O218 O 0.08707 0.78415 0.35662 0.0
C219 C 0.16157 0.82401 0.36633 0.0
O220 O 0.1221 0.89473 0.45194 0.0
C221 C 0.07877 0.78726 0.28011 0.0
O222 O 0.09444 0.87935 0.34881 0.0
O223 O 0.08123 0.8111 0.24799 0.0
H224 H 0.32771 0.94277 0.4054 0.0
H225 H 0.41594 0.94176 0.4254 0.0
H226 H 0.41639 -0.00798 0.43797 0.0
H227 H 0.39176 0.03618 0.41547 0.0
H228 H 0.30373 0.03572 0.38666 0.0
H229 H 0.30286 -0.01387 0.40737 0.0
C230 C 0.34698 0.95357 0.41456 0.0
C231 C 0.37177 0.93888 0.41308 0.0
C232 C 0.34701 0.9822 0.4198 0.0
C233 C 0.39663 0.95282 0.4262 0.0
C234 C 0.39686 0.98151 0.43269 0.0
C235 C 0.37241 0.02521 0.4172 0.0
C236 C 0.3478 0.0393 0.40009 0.0
C237 C 0.37223 -0.00353 0.42576 0.0
C238 C 0.3228 0.02509 0.40042 0.0
C239 C 0.32235 -0.00322 0.41147 0.0
H240 H 0.02402 0.58198 0.56675 0.0
H241 H 0.03174 0.66881 0.61285 0.0
H242 H 0.98221 0.67463 0.59718 0.0
H243 H 0.93685 0.65366 0.6025 0.0
H244 H 0.92791 0.56652 0.5664 0.0
H245 H 0.9776 0.56202 0.54427 0.0
C246 C 0.01484 0.60224 0.56961 0.0
C247 C 0.03125 0.62498 0.59081 0.0
C248 C 0.98611 0.60522 0.56423 0.0
C249 C 0.01932 0.65113 0.5962 0.0
C250 C -0.00897 0.6544 0.58804 0.0
C251 C 0.94575 0.63382 0.58717 0.0
C252 C 0.92904 0.6104 0.58729 0.0
C253 C 0.97418 0.6314 0.57697 0.0
C254 C 0.94051 0.58481 0.56659 0.0
C255 C 0.96893 0.58224 0.5548 0.0
H256 H 0.6601 0.94112 0.29524 0.0
H257 H 0.57791 0.92746 0.38595 0.0
H258 H 0.57201 0.97688 0.41067 0.0
H259 H 0.58762 0.02436 0.37886 0.0
H260 H 0.66973 0.03652 0.28332 0.0
H261 H 0.67857 -0.01253 0.28996 0.0
C262 C 0.64124 0.94896 0.32309 0.0
C263 C 0.6194 0.93099 0.33809 0.0
C264 C 0.6379 0.97721 0.33511 0.0
C265 C 0.59504 0.94109 0.37438 0.0
C266 C 0.59158 0.96934 0.38754 0.0
C267 C 0.60766 0.01625 0.36217 0.0
C268 C 0.62781 0.03386 0.32896 0.0
C269 C 0.61244 -0.01227 0.36414 0.0
C270 C 0.65374 0.02322 0.30754 0.0
C271 C 0.65883 -0.00482 0.31117 0.0
H272 H 0.03502 0.39905 0.66651 0.0
H273 H 0.04144 0.32067 0.54076 0.0
H274 H -0.00875 0.31701 0.53461 0.0
H275 H 0.94622 0.33238 0.58993 0.0
H276 H 0.94113 0.40815 0.73166 0.0
H277 H -0.01022 0.41704 0.70584 0.0
C278 C 0.02527 0.38176 0.63471 0.0
C279 C 0.04155 0.36038 0.60278 0.0
C280 C -0.00341 0.37921 0.63584 0.0
C281 C 0.02904 0.33756 0.56415 0.0
C282 C 0.00042 0.33535 0.56162 0.0
C283 C 0.95572 0.35117 0.61256 0.0
C284 C 0.9404 0.36967 0.66226 0.0
C285 C 0.98402 0.35547 0.60082 0.0
C286 C 0.95276 0.39374 0.69309 0.0
C287 C 0.98053 0.39875 0.67867 0.0
H288 H 0.37541 0.43498 0.84721 0.0
H289 H 0.28903 0.43491 0.90527 0.0
H290 H 0.28716 0.48471 0.88736 0.0
H291 H 0.31184 0.5283 0.88088 0.0
H292 H 0.39859 0.52918 0.8274 0.0
H293 H 0.39872 0.47897 0.8161 0.0
C294 C 0.35605 0.4459 0.85248 0.0
C295 C 0.3323 0.43162 0.87655 0.0
C296 C 0.3554 0.47459 0.8445 0.0
C297 C 0.30737 0.44569 0.88544 0.0
C298 C 0.3064 0.47412 0.87612 0.0
C299 C 0.33064 0.51748 0.86489 0.0
C300 C 0.35526 0.53217 0.85642 0.0
C301 C 0.33053 0.48882 0.85962 0.0
C302 C 0.37943 0.51817 0.83439 0.0
C303 C 0.37951 0.4895 0.82853 0.0
H304 H 0.43397 0.58285 0.14269 0.0
H305 H 0.43171 0.66892 0.08127 0.0
H306 H 0.48121 0.67227 0.10342 0.0
H307 H 0.5254 0.64879 0.10929 0.0
H308 H 0.52906 0.56217 0.16122 0.0
H309 H 0.47886 0.56082 0.17547 0.0
C310 C 0.44429 0.60248 0.13785 0.0
C311 C 0.42946 0.62566 0.11067 0.0
C312 C 0.47303 0.60395 0.1471 0.0
C313 C 0.44288 0.65094 0.10264 0.0
C314 C 0.47117 0.65278 0.1145 0.0
C315 C 0.51521 0.62979 0.12617 0.0
C316 C 0.53062 0.60555 0.13292 0.0
C317 C 0.48655 0.62914 0.13198 0.0
C318 C 0.51746 0.58107 0.1557 0.0
C319 C 0.48878 0.58028 0.16304 0.0
H320 H 0.59753 0.43374 0.80499 0.0
H321 H 0.67208 0.42565 0.95347 0.0
H322 H 0.67678 0.47522 0.96011 0.0
H323 H 0.65632 0.52037 0.94314 0.0
H324 H 0.58127 0.53004 0.79923 0.0
H325 H 0.58035 0.48051 0.76982 0.0
C326 C 0.6151 0.4429 0.83686 0.0
C327 C 0.63416 0.4261 0.88001 0.0
C328 C 0.61742 0.47168 0.84209 0.0
C329 C 0.65688 0.43818 0.92108 0.0
C330 C 0.6596 0.46653 0.92498 0.0
C331 C 0.64003 0.51169 0.9039 0.0
C332 C 0.6187 0.52859 0.87445 0.0
C333 C 0.63944 0.48341 0.88884 0.0
C334 C 0.59792 0.51731 0.82262 0.0
C335 C 0.59729 0.48899 0.80647 0.0
H336 H 0.44465 0.357 0.15954 0.0
H337 H 0.43135 0.35477 0.88566 0.0
H338 H 0.48023 0.35014 0.86163 0.0
H339 H 0.52608 0.34518 0.91579 0.0
H340 H 0.54215 0.34661 0.18794 0.0
H341 H 0.49282 0.35297 0.21527 0.0
C342 C 0.45261 0.35576 0.09485 0.0
C343 C 0.43436 0.35602 0.02452 0.0
C344 C 0.4811 0.35269 0.08106 0.0
C345 C 0.44488 0.35428 0.94094 0.0
C346 C 0.47286 0.35165 0.92696 0.0
C347 C 0.51902 0.34681 0.98148 0.0
C348 C 0.53785 0.34523 0.04971 0.0
C349 C 0.49103 0.35047 0.99633 0.0
C350 C 0.52808 0.34763 0.13413 0.0
C351 C 0.49989 0.35132 0.1497 0.0
H352 H 0.8801 0.4483 0.93537 0.0
H353 H 0.80318 0.43402 0.80437 0.0
H354 H 0.79403 0.48305 0.80111 0.0
H355 H 0.81119 0.52974 0.81346 0.0
H356 H 0.8886 0.54538 0.93885 0.0
H357 H 0.89402 0.49625 0.96816 0.0
C358 C 0.86105 0.45596 0.90823 0.0
C359 C 0.84259 0.43764 0.86871 0.0
C360 C 0.85615 0.48444 0.90469 0.0
C361 C 0.81795 0.44778 0.83379 0.0
C362 C 0.81267 0.47582 0.83183 0.0
C363 C 0.82896 0.52244 0.84895 0.0
C364 C 0.84965 0.54096 0.87281 0.0
C365 C 0.83216 0.49432 0.8636 0.0
C366 C 0.87239 0.53142 0.9198 0.0
C367 C 0.8756 0.50331 0.9358 0.0
H368 H 0.52204 0.15537 0.14249 0.0
H369 H 0.5326 0.07125 0.06512 0.0
H370 H 0.48255 0.06567 0.05403 0.0
H371 H 0.4359 0.08307 0.09182 0.0
H372 H 0.42707 0.16744 0.17161 0.0
H373 H 0.47608 0.17483 0.15432 0.0
C374 C 0.51332 0.1361 0.12052 0.0
C375 C 0.53069 0.11374 0.1049 0.0
C376 C 0.48477 0.13304 0.11573 0.0
C377 C 0.51943 0.08879 0.07673 0.0
C378 C 0.49084 0.08555 0.07131 0.0
C379 C 0.44468 0.10322 0.10271 0.0
C380 C 0.42803 0.12455 0.13441 0.0
C381 C 0.47325 0.10725 0.09427 0.0
C382 C 0.4396 0.15059 0.1485 0.0
C383 C 0.46763 0.15485 0.13883 0.0
H384 H 0.14919 0.52982 0.84033 0.0
H385 H 0.06197 0.5307 0.88476 0.0
H386 H 0.0625 0.48078 0.90626 0.0
H387 H 0.08676 0.43643 0.88377 0.0
H388 H 0.17347 0.43684 0.82976 0.0
H389 H 0.17451 0.4867 0.84306 0.0
C390 C 0.13043 0.51912 0.85689 0.0
C391 C 0.10553 0.5336 0.85968 0.0
C392 C 0.13089 0.49063 0.86714 0.0
C393 C 0.08135 0.5198 0.8822 0.0
C394 C 0.08166 0.49128 0.8938 0.0
C395 C 0.10599 0.44749 0.87855 0.0
C396 C 0.13005 0.43323 0.85607 0.0
C397 C 0.10614 0.47635 0.88254 0.0
C398 C 0.15482 0.44757 0.8475 0.0
C399 C 0.15534 0.47604 0.85428 0.0
H400 H 0.44015 0.88496 0.09948 0.0
H401 H 0.43735 0.79945 0.16789 0.0
H402 H 0.48546 0.79393 0.12821 0.0
H403 H 0.52983 0.81547 0.10448 0.0
H404 H 0.53456 0.90178 0.04843 0.0
H405 H 0.48426 0.90501 0.05047 0.0
C406 C 0.44993 0.86497 0.10232 0.0
C407 C 0.43548 0.84259 0.13636 0.0
C408 C 0.47804 0.86228 0.08308 0.0
C409 C 0.44824 0.81685 0.14158 0.0
C410 C 0.47575 0.81376 0.11951 0.0
C411 C 0.51977 0.83482 0.09023 0.0
C412 C 0.53571 0.85843 0.07777 0.0
C413 C 0.49114 0.83663 0.09476 0.0
C414 C 0.52262 0.88333 0.05827 0.0
C415 C 0.49389 0.88522 0.06041 0.0
H416 H 0.82695 0.95172 0.46139 0.0
H417 H 0.90983 0.94252 0.37073 0.0
H418 H 0.91187 -0.00818 0.33863 0.0
H419 H 0.8918 0.03858 0.35719 0.0
H420 H 0.80857 0.04598 0.44892 0.0
H421 H 0.80471 -0.00357 0.45793 0.0
C422 C 0.84522 0.96047 0.43273 0.0
C423 C 0.86826 0.94384 0.41909 0.0
C424 C 0.84622 -0.01142 0.4153 0.0
C425 C 0.89181 0.95511 0.38141 0.0
C426 C 0.89302 0.98329 0.36377 0.0
C427 C 0.87267 0.02924 0.37702 0.0
C428 C 0.85071 0.04593 0.40413 0.0
C429 C 0.87064 0.00043 0.38337 0.0
C430 C 0.82596 0.03358 0.42943 0.0
C431 C 0.82369 0.00523 0.43468 0.0
H432 H 0.92993 0.10363 0.68108 0.0
H433 H 0.93539 0.18424 0.56999 0.0
H434 H 0.98467 0.18535 0.59836 0.0
H435 H 0.02673 0.15993 0.62747 0.0
H436 H 0.02288 0.07798 0.72884 0.0
H437 H 0.97255 0.08086 0.7336 0.0
C438 C 0.94186 0.12176 0.66632 0.0
C439 C 0.92928 0.14387 0.62373 0.0
C440 C 0.97051 0.12175 0.67966 0.0
C441 C 0.94481 0.1671 0.6031 0.0
C442 C 0.97297 0.16765 0.61872 0.0
C443 C 0.01486 0.14299 0.65284 0.0
C444 C 0.02828 0.11867 0.67663 0.0
C445 C 0.98617 0.14456 0.65283 0.0
C446 C 0.01288 0.09693 0.71026 0.0
C447 C 0.98412 0.0985 0.7121 0.0
H448 H 0.07427 0.93056 0.48512 0.0
H449 H 0.12393 0.93139 0.25781 0.0
H450 H 0.1233 0.98183 0.25758 0.0
H451 H 0.11511 0.02524 0.33812 0.0
H452 H 0.06856 0.02243 0.5726 0.0
H453 H 0.06104 0.97344 0.55379 0.0
C454 C 0.08406 0.9419 0.43386 0.0
C455 C 0.09885 0.92765 0.37117 0.0
C456 C 0.08456 0.97057 0.43662 0.0
C457 C 0.11203 0.9422 0.30579 0.0
C458 C 0.11195 0.97096 0.30645 0.0
C459 C 0.1028 0.0139 0.38364 0.0
C460 C 0.09271 0.02719 0.45721 0.0
C461 C 0.09928 0.98537 0.37384 0.0
C462 C 0.07687 0.01243 0.5162 0.0
C463 C 0.07253 0.98445 0.5055 0.0
H464 H 0.9532 0.81688 0.64447 0.0
H465 H 0.95641 0.90271 0.70998 0.0
H466 H 0.00674 0.90046 0.71711 0.0
H467 H 0.04928 0.87618 0.67296 0.0
H468 H 0.04453 0.79146 0.59489 0.0
H469 H -0.00451 0.79078 0.62642 0.0
C470 C 0.96493 0.8349 0.66274 0.0
C471 C 0.95134 0.86001 0.67522 0.0
C472 C -0.00636 0.83359 0.66371 0.0
C473 C 0.96654 0.88317 0.69997 0.0
C474 C -0.0047 0.88191 0.70317 0.0
C475 C 0.03762 0.85734 0.66652 0.0
C476 C 0.05027 0.83386 0.63187 0.0
C477 C 0.00908 0.85756 0.68071 0.0
C478 C 0.03507 0.80966 0.62184 0.0
C479 C 0.00703 0.80937 0.6391 0.0
H480 H 0.32493 0.28231 0.25489 0.0
H481 H 0.30436 0.28451 0.9858 0.0
H482 H 0.29729 0.23484 0.98583 0.0
H483 H 0.30241 0.19056 0.05849 0.0
H484 H 0.32261 0.18824 0.32774 0.0
H485 H 0.32391 0.23843 0.33215 0.0
C486 C 0.31857 0.27191 0.19653 0.0
C487 C 0.31562 0.28684 0.12006 0.0
C488 C 0.31458 0.24346 0.19714 0.0
C489 C 0.30688 0.27335 0.04525 0.0
C490 C 0.30295 0.24499 0.0452 0.0
C491 C 0.30665 0.2011 0.11843 0.0
C492 C 0.31281 0.18588 0.19242 0.0
C493 C 0.30756 0.2298 0.12015 0.0
C494 C 0.31785 0.19961 0.27003 0.0
C495 C 0.31879 0.22826 0.27235 0.0
H496 H 0.18643 0.64734 0.94217 0.0
H497 H 0.18441 0.64436 0.66582 0.0
H498 H 0.23459 0.647 0.66201 0.0
H499 H 0.27888 0.64607 0.73788 0.0
H500 H 0.28079 0.64945 0.01425 0.0
H501 H 0.2306 0.65105 0.01748 0.0
C502 C 0.19697 0.64751 0.88105 0.0
C503 C 0.18184 0.64529 0.80436 0.0
C504 C 0.2257 0.649 0.87948 0.0
C505 C 0.19566 0.64597 0.72564 0.0
C506 C 0.22432 0.64737 0.7235 0.0
C507 C 0.26831 0.64744 0.79881 0.0
C508 C 0.28345 0.64729 0.8758 0.0
C509 C 0.23953 0.64826 0.80009 0.0
C510 C 0.26956 0.64947 0.95419 0.0
C511 C 0.24089 0.65025 0.95605 0.0
H512 H 0.64836 0.77735 0.98202 0.0
H513 H 0.65028 0.78394 0.25789 0.0
H514 H 0.64988 0.73396 0.26977 0.0
H515 H 0.64514 0.68877 0.20199 0.0
H516 H 0.64364 0.68196 0.92624 0.0
H517 H 0.64794 0.73182 0.91394 0.0
C518 C 0.64895 0.76783 0.04474 0.0
C519 C 0.64901 0.78427 0.11903 0.0
C520 C 0.64863 0.73914 0.05102 0.0
C521 C 0.65015 0.77171 0.1998 0.0
C522 C 0.64981 0.74316 0.20662 0.0
C523 C 0.64595 0.69819 0.13915 0.0
C524 C 0.64371 0.68182 0.06508 0.0
C525 C 0.64843 0.72674 0.13271 0.0
C526 C 0.64524 0.69419 0.98413 0.0
C527 C 0.6476 0.72266 0.97712 0.0
H528 H 0.70231 0.30293 0.75723 0.0
H529 H 0.6912 0.30854 0.03078 0.0
H530 H 0.74109 0.30843 0.0517 0.0
H531 H 0.78724 0.31371 0.99017 0.0
H532 H 0.79809 0.30846 0.71629 0.0
H533 H 0.74879 0.30105 0.69731 0.0
C534 C 0.71085 0.30357 0.82153 0.0
C535 C 0.69327 0.30618 0.89237 0.0
C536 C 0.7394 0.30386 0.83274 0.0
C537 C 0.70441 0.30657 0.9754 0.0
C538 C 0.73289 0.30673 0.98723 0.0
C539 C 0.77883 0.31048 0.92645 0.0
C540 C 0.7961 0.31212 0.85453 0.0
C541 C 0.75051 0.30647 0.91612 0.0
C542 C 0.78515 0.30742 0.77249 0.0
C543 C 0.75697 0.30334 0.76163 0.0
H544 H 0.82181 0.69888 0.53468 0.0
H545 H 0.82566 0.6924 0.81028 0.0
H546 H 0.82878 0.74231 0.82245 0.0
H547 H 0.83421 0.78722 0.75425 0.0
H548 H 0.83016 0.79385 0.47878 0.0
H549 H 0.82308 0.74429 0.46702 0.0
C550 C 0.82309 0.70841 0.59748 0.0
C551 C 0.82384 0.69199 0.67147 0.0
C552 C 0.82498 0.73704 0.6039 0.0
C553 C 0.82512 0.7046 0.7524 0.0
C554 C 0.82702 0.73311 0.75935 0.0
C555 C 0.83157 0.77785 0.69162 0.0
C556 C 0.83306 0.79407 0.61737 0.0
C557 C 0.82758 0.74944 0.68546 0.0
C558 C 0.82919 0.78176 0.5368 0.0
C559 C 0.82524 0.75344 0.53008 0.0
H560 H 0.78113 0.15909 0.23581 0.0
H561 H 0.78072 0.16539 0.51171 0.0
H562 H 0.73049 0.16538 0.51104 0.0
H563 H 0.68724 0.15796 0.43331 0.0
H564 H 0.68729 0.1519 0.15755 0.0
H565 H 0.73729 0.15787 0.15651 0.0
C566 C 0.77001 0.16085 0.29569 0.0
C567 C 0.78454 0.16181 0.37386 0.0
C568 C 0.74119 0.16072 0.29473 0.0
C569 C 0.76997 0.16454 0.45085 0.0
C570 C 0.74128 0.16439 0.45048 0.0
C571 C 0.69818 0.15837 0.37287 0.0
C572 C 0.6838 0.15411 0.29563 0.0
C573 C 0.72676 0.16164 0.37303 0.0
C574 C 0.69801 0.15512 0.2177 0.0
C575 C 0.72656 0.15834 0.21724 0.0
H576 H 0.15339 0.27457 0.5189 0.0
H577 H 0.15449 0.28406 0.79404 0.0
H578 H 0.15356 0.23427 0.81103 0.0
H579 H 0.14797 0.18856 0.74793 0.0
H580 H 0.1469 0.17872 0.47308 0.0
H581 H 0.15264 0.22829 0.45556 0.0
C582 C 0.15371 0.26573 0.58259 0.0
C583 C 0.15362 0.28295 0.65518 0.0
C584 C 0.15305 0.23712 0.59182 0.0
C585 C 0.15444 0.27124 0.73723 0.0
C586 C 0.1538 0.24279 0.74697 0.0
C587 C 0.14927 0.19724 0.68414 0.0
C588 C 0.14664 0.18014 0.61184 0.0
C589 C 0.15241 0.22562 0.67475 0.0
C590 C 0.14881 0.19152 0.52964 0.0
C591 C 0.15194 0.21985 0.51967 0.0
H592 H 0.19924 0.8212 0.4949 0.0
H593 H 0.19123 0.82118 0.21946 0.0
H594 H 0.2411 0.8209 0.20454 0.0
H595 H 0.287 0.82416 0.26969 0.0
H596 H 0.29484 0.82708 0.54504 0.0
H597 H 0.2452 0.82251 0.56007 0.0
C598 C 0.20845 0.82079 0.43172 0.0
C599 C 0.19163 0.82133 0.3585 0.0
C600 C 0.23715 0.8213 0.42354 0.0
C601 C 0.2038 0.82097 0.2769 0.0
C602 C 0.2323 0.82081 0.26824 0.0
C603 C 0.27783 0.82343 0.33289 0.0
C604 C 0.29449 0.82606 0.40604 0.0
C605 C 0.24919 0.8215 0.34109 0.0
C606 C 0.28237 0.82528 0.48765 0.0
C607 C 0.254 0.82267 0.49637 0.0
H608 H 0.17184 0.06349 0.92088 0.0
H609 H 0.21744 0.06328 0.68425 0.0
H610 H 0.26049 0.06041 0.76383 0.0
H611 H 0.28533 0.06474 0.90082 0.0
H612 H 0.23961 0.06462 0.1373 0.0
H613 H 0.19673 0.06037 0.05773 0.0
C614 C 0.19117 0.06225 0.88672 0.0
C615 C 0.1914 0.06411 0.79691 0.0
C616 C 0.21596 0.06081 0.9329 0.0
C617 C 0.21662 0.06213 0.75351 0.0
C618 C 0.24133 0.06062 0.79897 0.0
C619 C 0.26604 0.06319 0.93496 0.0
C620 C 0.2657 0.06554 0.02474 0.0
C621 C 0.24129 0.06098 0.88875 0.0
C622 C 0.24051 0.06319 0.06808 0.0
C623 C 0.21589 0.06086 0.02263 0.0
H624 H 0.0656 0.78619 0.11056 0.0
H625 H 0.07232 0.73456 0.33389 0.0
H626 H 0.06684 0.6938 0.24466 0.0
H627 H 0.06711 0.67277 0.10163 0.0
H628 H 0.06186 0.72441 0.87796 0.0
H629 H 0.05934 0.76507 0.96888 0.0
C630 C 0.06531 0.76606 0.13989 0.0
C631 C 0.06987 0.76341 0.22843 0.0
C632 C 0.0627 0.74262 0.08801 0.0
C633 C 0.06919 0.73717 0.26563 0.0
C634 C 0.06614 0.71381 0.21465 0.0
C635 C 0.06484 0.69287 0.07284 0.0
C636 C 0.06519 0.69558 0.98325 0.0
C637 C 0.06396 0.71626 0.12545 0.0
C638 C 0.06198 0.72176 0.94686 0.0
C639 C 0.06063 0.74507 -0.00122 0.0
H640 H 0.7262 0.90624 0.04493 0.0
H641 H 0.67268 0.90728 0.82376 0.0
H642 H 0.71228 0.91361 0.73023 0.0
H643 H 0.76216 0.91209 0.71022 0.0
H644 H 0.81576 0.90822 0.93085 0.0
H645 H 0.776 0.91024 0.02578 0.0
C646 C 0.72311 0.90835 0.97639 0.0
C647 C 0.69654 0.90587 0.94125 0.0
C648 C 0.74602 0.91124 0.92286 0.0
C649 C 0.69291 0.90888 0.85241 0.0
C650 C 0.71557 0.9124 0.79885 0.0
C651 C 0.76522 0.91222 0.77911 0.0
C652 C 0.79189 0.9096 0.8134 0.0
C653 C 0.74225 0.91257 0.83316 0.0
C654 C 0.79546 0.91001 0.90277 0.0
C655 C 0.77272 0.91103 0.95709 0.0
H656 H 0.91111 0.2304 0.30556 0.0
H657 H 0.9114 0.17248 0.09576 0.0
H658 H 0.91906 0.20988 0.99463 0.0
H659 H 0.91759 0.25919 0.96466 0.0
H660 H 0.913 0.3171 0.174 0.0
H661 H 0.91569 0.27948 0.27677 0.0
C662 C 0.91338 0.22584 0.23788 0.0
C663 C 0.91019 0.19873 0.20802 0.0
C664 C 0.91677 0.2475 0.18002 0.0
C665 C 0.91351 0.19318 0.1203 0.0
C666 C 0.91776 0.21458 0.06243 0.0
C667 C 0.91786 0.26368 0.03278 0.0
C668 C 0.91467 0.2909 0.06169 0.0
C669 C 0.91822 0.24189 0.09131 0.0
C670 C 0.91519 0.29633 0.15012 0.0
C671 C 0.91656 0.2748 0.20887 0.0
H672 H 0.23308 0.39895 0.55546 0.0
H673 H 0.17385 0.41217 0.35312 0.0
H674 H 0.21097 0.42048 0.25185 0.0
H675 H 0.25961 0.41654 0.21663 0.0
H676 H 0.31887 0.39938 0.41584 0.0
H677 H 0.28241 0.40092 0.52315 0.0
C678 C 0.22827 0.40415 0.48956 0.0
C679 C 0.20075 0.40446 0.46142 0.0
C680 C 0.24974 0.40809 0.43114 0.0
C681 C 0.19485 0.41145 0.37608 0.0
C682 C 0.21608 0.41618 0.31814 0.0
C683 C 0.26471 0.41373 0.28377 0.0
C684 C 0.29184 0.40734 0.30805 0.0
C685 C 0.24354 0.41343 0.34427 0.0
C686 C 0.29812 0.40413 0.39538 0.0
C687 C 0.27723 0.40477 0.45665 0.0
H688 H 0.4137 0.74873 0.45719 0.0
H689 H 0.41725 0.80526 0.67043 0.0
H690 H 0.41913 0.76683 0.77033 0.0
H691 H 0.41191 0.71787 0.79707 0.0
H692 H 0.40552 0.66158 0.58384 0.0
H693 H 0.41301 0.69925 0.48384 0.0
C694 C 0.41547 0.75268 0.52543 0.0
C695 C 0.4148 0.77981 0.55646 0.0
C696 C 0.41567 0.73053 0.5825 0.0
C697 C 0.41747 0.78457 0.64494 0.0
C698 C 0.41838 0.7626 0.70213 0.0
C699 C 0.41267 0.71373 0.72878 0.0
C700 C 0.40762 0.68706 0.6978 0.0
C701 C 0.41625 0.73557 0.67169 0.0
C702 C 0.40906 0.68197 0.60928 0.0
C703 C 0.41323 0.70352 0.55205 0.0
H704 H 0.67189 0.57237 0.37864 0.0
H705 H 0.72204 0.56333 0.15274 0.0
H706 H 0.7633 0.5616 0.24142 0.0
H707 H 0.78548 0.56873 0.38109 0.0
H708 H 0.73546 0.5786 0.60688 0.0
H709 H 0.69393 0.57357 0.52047 0.0
C710 C 0.69179 0.56949 0.34895 0.0
C711 C 0.6939 0.56843 0.25921 0.0
C712 C 0.71555 0.56895 0.40024 0.0
C713 C 0.71984 0.56449 0.22171 0.0
C714 C 0.7435 0.56359 0.27233 0.0
C715 C 0.76551 0.56933 0.41158 0.0
C716 C 0.76358 0.57448 0.49998 0.0
C717 C 0.74167 0.56677 0.36138 0.0
C718 C 0.73754 0.5749 0.53873 0.0
C719 C 0.71374 0.57211 0.48934 0.0
H720 H 0.57114 0.21934 0.40767 0.0
H721 H 0.56721 0.15923 0.60979 0.0
H722 H 0.56504 0.19592 0.71665 0.0
H723 H 0.57111 0.24445 0.75288 0.0
H724 H 0.57873 0.30429 0.55105 0.0
H725 H 0.57222 0.26828 0.44358 0.0
C726 C 0.56925 0.21422 0.47498 0.0
C727 C 0.56969 0.18658 0.50087 0.0
C728 C 0.56899 0.23538 0.53607 0.0
C729 C 0.56713 0.18033 0.58827 0.0
C730 C 0.56601 0.20131 0.64939 0.0
C731 C 0.57084 0.24974 0.68542 0.0
C732 C 0.57578 0.27697 0.65992 0.0
C733 C 0.56799 0.22884 0.62412 0.0
C734 C 0.57521 0.28347 0.57232 0.0
C735 C 0.57159 0.26286 0.51086 0.0
loop_
_geom_bond_atom_site_label_1
_geom_bond_atom_site_label_2
_geom_bond_distance
_geom_bond_site_symmetry_2
_ccdc_geom_bond_type
C0 O1 1.306 . S
C0 O3 1.160 . S
O1 C0 1.306 . S
O1 Cd2 2.228 . S
Cd2 O1 2.228 . S
Cd2 O6 2.273 . S
Cd2 O10 2.277 . S
O3 C0 1.160 . S
O3 Cd4 2.203 . S
Cd4 O3 2.203 . S
Cd4 O6 2.411 . S
Cd4 O7 2.333 . S
Cd4 O8 2.352 . S
Cd4 O12 2.277 . S
Cd4 O13 2.356 1_554 S
C5 O10 1.209 . S
C5 O12 1.226 . S
O6 Cd2 2.273 . S
O6 Cd4 2.411 . S
O6 C9 1.320 . S
O7 Cd4 2.333 . S
O7 C9 1.214 . S
O8 Cd4 2.352 . S
O8 C11 1.258 1_554 S
C9 O6 1.320 . S
C9 O7 1.214 . S
O10 Cd2 2.277 . S
O10 C5 1.209 . S
C11 O8 1.258 1_556 S
C11 O13 1.282 . S
O12 Cd4 2.277 . S
O12 C5 1.226 . S
O13 Cd4 2.356 1_556 S
O13 C11 1.282 . S
C14 O15 1.306 . S
C14 O17 1.160 . S
O15 C14 1.306 . S
O15 Cd16 2.228 . S
Cd16 O15 2.228 . S
Cd16 O20 2.273 . S
Cd16 O24 2.277 . S
O17 C14 1.160 . S
O17 Cd18 2.203 . S
Cd18 O17 2.203 . S
Cd18 O20 2.411 . S
Cd18 O21 2.333 . S
Cd18 O22 2.352 . S
Cd18 O26 2.277 . S
Cd18 O27 2.356 1_556 S
C19 O24 1.209 . S
C19 O26 1.226 . S
O20 Cd16 2.273 . S
O20 Cd18 2.411 . S
O20 C23 1.320 . S
O21 Cd18 2.333 . S
O21 C23 1.214 . S
O22 Cd18 2.352 . S
O22 C25 1.258 1_556 S
C23 O20 1.320 . S
C23 O21 1.214 . S
O24 Cd16 2.277 . S
O24 C19 1.209 . S
C25 O22 1.258 1_554 S
C25 O27 1.282 . S
O26 Cd18 2.277 . S
O26 C19 1.226 . S
O27 Cd18 2.356 1_554 S
O27 C25 1.282 . S
C28 O29 1.306 . S
C28 O31 1.160 . S
O29 C28 1.306 . S
O29 Cd30 2.228 . S
Cd30 O29 2.228 . S
Cd30 O34 2.273 . S
Cd30 O38 2.277 . S
O31 C28 1.160 . S
O31 Cd32 2.203 . S
Cd32 O31 2.203 . S
Cd32 O34 2.411 . S
Cd32 O35 2.333 . S
Cd32 O36 2.352 . S
Cd32 O40 2.277 . S
Cd32 O41 2.356 1_554 S
C33 O38 1.209 . S
C33 O40 1.226 . S
O34 Cd30 2.273 . S
O34 Cd32 2.411 . S
O34 C37 1.320 . S
O35 Cd32 2.333 . S
O35 C37 1.214 . S
O36 Cd32 2.352 . S
O36 C39 1.258 1_554 S
C37 O34 1.320 . S
C37 O35 1.214 . S
O38 Cd30 2.277 . S
O38 C33 1.209 . S
C39 O36 1.258 1_556 S
C39 O41 1.282 . S
O40 Cd32 2.277 . S
O40 C33 1.226 . S
O41 Cd32 2.356 1_556 S
O41 C39 1.282 . S
C42 O43 1.306 . S
C42 O45 1.160 . S
O43 C42 1.306 . S
O43 Cd44 2.228 . S
Cd44 O43 2.228 . S
Cd44 O48 2.273 . S
Cd44 O52 2.277 . S
O45 C42 1.160 . S
O45 Cd46 2.203 . S
Cd46 O45 2.203 . S
Cd46 O48 2.411 . S
Cd46 O49 2.333 . S
Cd46 O50 2.352 . S
Cd46 O54 2.277 . S
Cd46 O55 2.356 1_556 S
C47 O52 1.209 . S
C47 O54 1.226 . S
O48 Cd44 2.273 . S
O48 Cd46 2.411 . S
O48 C51 1.320 . S
O49 Cd46 2.333 . S
O49 C51 1.214 . S
O50 Cd46 2.352 . S
O50 C53 1.258 1_556 S
C51 O48 1.320 . S
C51 O49 1.214 . S
O52 Cd44 2.277 . S
O52 C47 1.209 . S
C53 O50 1.258 1_554 S
C53 O55 1.282 . S
O54 Cd46 2.277 . S
O54 C47 1.226 . S
O55 Cd46 2.356 1_554 S
O55 C53 1.282 . S
C56 O57 1.306 1_554 S
C56 O59 1.160 . S
O57 C56 1.306 1_556 S
O57 Cd58 2.228 . S
Cd58 O57 2.228 . S
Cd58 O62 2.273 1_556 S
Cd58 O66 2.277 1_556 S
O59 C56 1.160 . S
O59 Cd60 2.203 . S
Cd60 O59 2.203 . S
Cd60 O62 2.411 . S
Cd60 O63 2.333 . S
Cd60 O64 2.352 . S
Cd60 O68 2.277 . S
Cd60 O69 2.356 . S
C61 O66 1.209 . S
C61 O68 1.226 . S
O62 Cd58 2.273 1_554 S
O62 Cd60 2.411 . S
O62 C65 1.320 . S
O63 Cd60 2.333 . S
O63 C65 1.214 . S
O64 Cd60 2.352 . S
O64 C67 1.258 . S
C65 O62 1.320 . S
C65 O63 1.214 . S
O66 Cd58 2.277 1_554 S
O66 C61 1.209 . S
C67 O64 1.258 . S
C67 O69 1.282 . S
O68 Cd60 2.277 . S
O68 C61 1.226 . S
O69 Cd60 2.356 . S
O69 C67 1.282 . S
C70 O71 1.306 1_556 S
C70 O73 1.160 . S
O71 C70 1.306 1_554 S
O71 Cd72 2.228 . S
Cd72 O71 2.228 . S
Cd72 O76 2.273 1_554 S
Cd72 O80 2.277 1_554 S
O73 C70 1.160 . S
O73 Cd74 2.203 . S
Cd74 O73 2.203 . S
Cd74 O76 2.411 . S
Cd74 O77 2.333 . S
Cd74 O78 2.352 . S
Cd74 O82 2.277 . S
Cd74 O83 2.356 . S
C75 O80 1.209 . S
C75 O82 1.226 . S
O76 Cd72 2.273 1_556 S
O76 Cd74 2.411 . S
O76 C79 1.320 . S
O77 Cd74 2.333 . S
O77 C79 1.214 . S
O78 Cd74 2.352 . S
O78 C81 1.258 . S
C79 O76 1.320 . S
C79 O77 1.214 . S
O80 Cd72 2.277 1_556 S
O80 C75 1.209 . S
C81 O78 1.258 . S
C81 O83 1.282 . S
O82 Cd74 2.277 . S
O82 C75 1.226 . S
O83 Cd74 2.356 . S
O83 C81 1.282 . S
C84 O85 1.306 1_554 S
C84 O87 1.160 . S
O85 C84 1.306 1_556 S
O85 Cd86 2.228 . S
Cd86 O85 2.228 . S
Cd86 O90 2.273 1_556 S
Cd86 O94 2.277 1_556 S
O87 C84 1.160 . S
O87 Cd88 2.203 . S
Cd88 O87 2.203 . S
Cd88 O90 2.411 . S
Cd88 O91 2.333 . S
Cd88 O92 2.352 . S
Cd88 O96 2.277 . S
Cd88 O97 2.356 . S
C89 O94 1.209 . S
C89 O96 1.226 . S
O90 Cd86 2.273 1_554 S
O90 Cd88 2.411 . S
O90 C93 1.320 . S
O91 Cd88 2.333 . S
O91 C93 1.214 . S
O92 Cd88 2.352 . S
O92 C95 1.258 . S
C93 O90 1.320 . S
C93 O91 1.214 . S
O94 Cd86 2.277 1_554 S
O94 C89 1.209 . S
C95 O92 1.258 . S
C95 O97 1.282 . S
O96 Cd88 2.277 . S
O96 C89 1.226 . S
O97 Cd88 2.356 . S
O97 C95 1.282 . S
C98 O99 1.306 1_556 S
C98 O101 1.160 . S
O99 C98 1.306 1_554 S
O99 Cd100 2.228 . S
Cd100 O99 2.228 . S
Cd100 O104 2.273 1_554 S
Cd100 O108 2.277 1_554 S
O101 C98 1.160 . S
O101 Cd102 2.203 . S
Cd102 O101 2.203 . S
Cd102 O104 2.411 . S
Cd102 O105 2.333 . S
Cd102 O106 2.352 . S
Cd102 O110 2.277 . S
Cd102 O111 2.356 . S
C103 O108 1.209 . S
C103 O110 1.226 . S
O104 Cd100 2.273 1_556 S
O104 Cd102 2.411 . S
O104 C107 1.320 . S
O105 Cd102 2.333 . S
O105 C107 1.214 . S
O106 Cd102 2.352 . S
O106 C109 1.258 . S
C107 O104 1.320 . S
C107 O105 1.214 . S
O108 Cd100 2.277 1_556 S
O108 C103 1.209 . S
C109 O106 1.258 . S
C109 O111 1.282 . S
O110 Cd102 2.277 . S
O110 C103 1.226 . S
O111 Cd102 2.356 . S
O111 C109 1.282 . S
C112 O113 1.306 . S
C112 O115 1.160 . S
O113 C112 1.306 . S
O113 Cd114 2.228 . S
Cd114 O113 2.228 . S
Cd114 O118 2.273 . S
Cd114 O122 2.277 . S
O115 C112 1.160 . S
O115 Cd116 2.203 . S
Cd116 O115 2.203 . S
Cd116 O118 2.411 . S
Cd116 O119 2.333 . S
Cd116 O120 2.352 . S
Cd116 O124 2.277 . S
Cd116 O125 2.356 . S
C117 O122 1.209 . S
C117 O124 1.226 . S
O118 Cd114 2.273 . S
O118 Cd116 2.411 . S
O118 C121 1.320 . S
O119 Cd116 2.333 . S
O119 C121 1.214 . S
O120 Cd116 2.352 . S
O120 C123 1.258 . S
C121 O118 1.320 . S
C121 O119 1.214 . S
O122 Cd114 2.277 . S
O122 C117 1.209 . S
C123 O120 1.258 . S
C123 O125 1.282 . S
O124 Cd116 2.277 . S
O124 C117 1.226 . S
O125 Cd116 2.356 . S
O125 C123 1.282 . S
C126 O127 1.306 . S
C126 O129 1.160 . S
O127 C126 1.306 . S
O127 Cd128 2.228 . S
Cd128 O127 2.228 . S
Cd128 O132 2.273 . S
Cd128 O136 2.277 . S
O129 C126 1.160 . S
O129 Cd130 2.203 . S
Cd130 O129 2.203 . S
Cd130 O132 2.411 . S
Cd130 O133 2.333 . S
Cd130 O134 2.352 . S
Cd130 O138 2.277 . S
Cd130 O139 2.356 . S
C131 O136 1.209 . S
C131 O138 1.226 . S
O132 Cd128 2.273 . S
O132 Cd130 2.411 . S
O132 C135 1.320 . S
O133 Cd130 2.333 . S
O133 C135 1.214 . S
O134 Cd130 2.352 . S
O134 C137 1.258 . S
C135 O132 1.320 . S
C135 O133 1.214 . S
O136 Cd128 2.277 . S
O136 C131 1.209 . S
C137 O134 1.258 . S
C137 O139 1.282 . S
O138 Cd130 2.277 . S
O138 C131 1.226 . S
O139 Cd130 2.356 . S
O139 C137 1.282 . S
C140 O141 1.306 . S
C140 O143 1.160 . S
O141 C140 1.306 . S
O141 Cd142 2.228 . S
Cd142 O141 2.228 . S
Cd142 O146 2.273 . S
Cd142 O150 2.277 . S
O143 C140 1.160 . S
O143 Cd144 2.203 . S
Cd144 O143 2.203 . S
Cd144 O146 2.411 . S
Cd144 O147 2.333 . S
Cd144 O148 2.352 . S
Cd144 O152 2.277 . S
Cd144 O153 2.356 . S
C145 O150 1.209 . S
C145 O152 1.226 . S
O146 Cd142 2.273 . S
O146 Cd144 2.411 . S
O146 C149 1.320 . S
O147 Cd144 2.333 . S
O147 C149 1.214 . S
O148 Cd144 2.352 . S
O148 C151 1.258 . S
C149 O146 1.320 . S
C149 O147 1.214 . S
O150 Cd142 2.277 . S
O150 C145 1.209 . S
C151 O148 1.258 . S
C151 O153 1.282 . S
O152 Cd144 2.277 . S
O152 C145 1.226 . S
O153 Cd144 2.356 . S
O153 C151 1.282 . S
C154 O155 1.306 . S
C154 O157 1.160 . S
O155 C154 1.306 . S
O155 Cd156 2.228 . S
Cd156 O155 2.228 . S
Cd156 O160 2.273 . S
Cd156 O164 2.277 . S
O157 C154 1.160 . S
O157 Cd158 2.203 . S
Cd158 O157 2.203 . S
Cd158 O160 2.411 . S
Cd158 O161 2.333 . S
Cd158 O162 2.352 . S
Cd158 O166 2.277 . S
Cd158 O167 2.356 . S
C159 O164 1.209 . S
C159 O166 1.226 . S
O160 Cd156 2.273 . S
O160 Cd158 2.411 . S
O160 C163 1.320 . S
O161 Cd158 2.333 . S
O161 C163 1.214 . S
O162 Cd158 2.352 . S
O162 C165 1.258 . S
C163 O160 1.320 . S
C163 O161 1.214 . S
O164 Cd156 2.277 . S
O164 C159 1.209 . S
C165 O162 1.258 . S
C165 O167 1.282 . S
O166 Cd158 2.277 . S
O166 C159 1.226 . S
O167 Cd158 2.356 . S
O167 C165 1.282 . S
C168 O169 1.306 . S
C168 O171 1.160 . S
O169 C168 1.306 . S
O169 Cd170 2.228 . S
Cd170 O169 2.228 . S
Cd170 O174 2.273 . S
Cd170 O178 2.277 . S
O171 C168 1.160 . S
O171 Cd172 2.203 . S
Cd172 O171 2.203 . S
Cd172 O174 2.411 . S
Cd172 O175 2.333 . S
Cd172 O176 2.352 . S
Cd172 O180 2.277 . S
Cd172 O181 2.356 . S
C173 O178 1.209 . S
C173 O180 1.226 . S
O174 Cd170 2.273 . S
O174 Cd172 2.411 . S
O174 C177 1.320 . S
O175 Cd172 2.333 . S
O175 C177 1.214 . S
O176 Cd172 2.352 . S
O176 C179 1.258 . S
C177 O174 1.320 . S
C177 O175 1.214 . S
O178 Cd170 2.277 . S
O178 C173 1.209 . S
C179 O176 1.258 . S
C179 O181 1.282 . S
O180 Cd172 2.277 . S
O180 C173 1.226 . S
O181 Cd172 2.356 . S
O181 C179 1.282 . S
C182 O183 1.306 . S
C182 O185 1.160 . S
O183 C182 1.306 . S
O183 Cd184 2.228 . S
Cd184 O183 2.228 . S
Cd184 O188 2.273 . S
Cd184 O192 2.277 . S
O185 C182 1.160 . S
O185 Cd186 2.203 . S
Cd186 O185 2.203 . S
Cd186 O188 2.411 . S
Cd186 O189 2.333 . S
Cd186 O190 2.352 . S
Cd186 O194 2.277 . S
Cd186 O195 2.356 . S
C187 O192 1.209 . S
C187 O194 1.226 . S
O188 Cd184 2.273 . S
O188 Cd186 2.411 . S
O188 C191 1.320 . S
O189 Cd186 2.333 . S
O189 C191 1.214 . S
O190 Cd186 2.352 . S
O190 C193 1.258 . S
C191 O188 1.320 . S
C191 O189 1.214 . S
O192 Cd184 2.277 . S
O192 C187 1.209 . S
C193 O190 1.258 . S
C193 O195 1.282 . S
O194 Cd186 2.277 . S
O194 C187 1.226 . S
O195 Cd186 2.356 . S
O195 C193 1.282 . S
C196 O197 1.306 . S
C196 O199 1.160 . S
O197 C196 1.306 . S
O197 Cd198 2.228 . S
Cd198 O197 2.228 . S
Cd198 O202 2.273 . S
Cd198 O206 2.277 . S
O199 C196 1.160 . S
O199 Cd200 2.203 . S
Cd200 O199 2.203 . S
Cd200 O202 2.411 . S
Cd200 O203 2.333 . S
Cd200 O204 2.352 . S
Cd200 O208 2.277 . S
Cd200 O209 2.356 . S
C201 O206 1.209 . S
C201 O208 1.226 . S
O202 Cd198 2.273 . S
O202 Cd200 2.411 . S
O202 C205 1.320 . S
O203 Cd200 2.333 . S
O203 C205 1.214 . S
O204 Cd200 2.352 . S
O204 C207 1.258 . S
C205 O202 1.320 . S
C205 O203 1.214 . S
O206 Cd198 2.277 . S
O206 C201 1.209 . S
C207 O204 1.258 . S
C207 O209 1.282 . S
O208 Cd200 2.277 . S
O208 C201 1.226 . S
O209 Cd200 2.356 . S
O209 C207 1.282 . S
C210 O211 1.306 . S
C210 O213 1.160 . S
O211 C210 1.306 . S
O211 Cd212 2.228 . S
Cd212 O211 2.228 . S
Cd212 O216 2.273 . S
Cd212 O220 2.277 . S
O213 C210 1.160 . S
O213 Cd214 2.203 . S
Cd214 O213 2.203 . S
Cd214 O216 2.411 . S
Cd214 O217 2.333 . S
Cd214 O218 2.352 . S
Cd214 O222 2.277 . S
Cd214 O223 2.356 . S
C215 O220 1.209 . S
C215 O222 1.226 . S
O216 Cd212 2.273 . S
O216 Cd214 2.411 . S
O216 C219 1.320 . S
O217 Cd214 2.333 . S
O217 C219 1.214 . S
O218 Cd214 2.352 . S
O218 C221 1.258 . S
C219 O216 1.320 . S
C219 O217 1.214 . S
O220 Cd212 2.277 . S
O220 C215 1.209 . S
C221 O218 1.258 . S
C221 O223 1.282 . S
O222 Cd214 2.277 . S
O222 C215 1.226 . S
O223 Cd214 2.356 . S
O223 C221 1.282 . S
H224 C230 0.930 . S
H225 C233 0.930 . S
H226 C234 0.930 1_545 S
H227 C235 0.930 . S
H228 C238 0.930 . S
H229 C239 0.930 1_565 S
C230 H224 0.930 . S
C230 C231 1.355 . S
C230 C232 1.415 . S
C231 C230 1.355 . S
C231 C233 1.419 . S
C232 C230 1.415 . S
C232 C237 1.425 1_565 S
C232 C239 1.409 1_565 S
C233 H225 0.930 . S
C233 C231 1.419 . S
C233 C234 1.362 . S
C234 H226 0.930 1_565 S
C234 C233 1.362 . S
C234 C237 1.409 1_565 S
C235 H227 0.930 . S
C235 C236 1.355 . S
C235 C237 1.415 . S
C236 C235 1.355 . S
C236 C238 1.419 . S
C237 C232 1.425 1_545 S
C237 C234 1.409 1_545 S
C237 C235 1.415 . S
C238 H228 0.930 . S
C238 C236 1.419 . S
C238 C239 1.362 . S
C239 H229 0.930 1_545 S
C239 C232 1.409 1_545 S
C239 C238 1.362 . S
H240 C246 0.930 . S
H241 C249 0.930 . S
H242 C250 0.930 1_655 S
H243 C251 0.930 . S
H244 C254 0.930 . S
H245 C255 0.930 1_455 S
C246 H240 0.930 . S
C246 C247 1.355 . S
C246 C248 1.415 . S
C247 C246 1.355 . S
C247 C249 1.419 . S
C248 C246 1.415 . S
C248 C253 1.425 1_455 S
C248 C255 1.409 1_455 S
C249 H241 0.930 . S
C249 C247 1.419 . S
C249 C250 1.362 . S
C250 H242 0.930 1_455 S
C250 C249 1.362 . S
C250 C253 1.409 1_455 S
C251 H243 0.930 . S
C251 C252 1.355 . S
C251 C253 1.415 . S
C252 C251 1.355 . S
C252 C254 1.419 . S
C253 C248 1.425 1_655 S
C253 C250 1.409 1_655 S
C253 C251 1.415 . S
C254 H244 0.930 . S
C254 C252 1.419 . S
C254 C255 1.362 . S
C255 H245 0.930 1_655 S
C255 C248 1.409 1_655 S
C255 C254 1.362 . S
H256 C262 0.930 . S
H257 C265 0.930 . S
H258 C266 0.930 . S
H259 C267 0.930 . S
H260 C270 0.930 . S
H261 C271 0.930 . S
C262 H256 0.930 . S
C262 C263 1.355 . S
C262 C264 1.415 . S
C263 C262 1.355 . S
C263 C265 1.419 . S
C264 C262 1.415 . S
C264 C269 1.425 1_565 S
C264 C271 1.409 1_565 S
C265 H257 0.930 . S
C265 C263 1.419 . S
C265 C266 1.362 . S
C266 H258 0.930 . S
C266 C265 1.362 . S
C266 C269 1.409 1_565 S
C267 H259 0.930 . S
C267 C268 1.355 . S
C267 C269 1.415 . S
C268 C267 1.355 . S
C268 C270 1.419 . S
C269 C264 1.425 1_545 S
C269 C266 1.409 1_545 S
C269 C267 1.415 . S
C270 H260 0.930 . S
C270 C268 1.419 . S
C270 C271 1.362 . S
C271 H261 0.930 . S
C271 C264 1.409 1_545 S
C271 C270 1.362 . S
H272 C278 0.930 . S
H273 C281 0.930 . S
H274 C282 0.930 . S
H275 C283 0.930 . S
H276 C286 0.930 . S
H277 C287 0.930 . S
C278 H272 0.930 . S
C278 C279 1.355 . S
C278 C280 1.415 . S
C279 C278 1.355 . S
C279 C281 1.419 . S
C280 C278 1.415 . S
C280 C285 1.425 1_455 S
C280 C287 1.409 1_455 S
C281 H273 0.930 . S
C281 C279 1.419 . S
C281 C282 1.362 . S
C282 H274 0.930 . S
C282 C281 1.362 . S
C282 C285 1.409 1_455 S
C283 H275 0.930 . S
C283 C284 1.355 . S
C283 C285 1.415 . S
C284 C283 1.355 . S
C284 C286 1.419 . S
C285 C280 1.425 1_655 S
C285 C282 1.409 1_655 S
C285 C283 1.415 . S
C286 H276 0.930 . S
C286 C284 1.419 . S
C286 C287 1.362 . S
C287 H277 0.930 . S
C287 C280 1.409 1_655 S
C287 C286 1.362 . S
H288 C294 0.930 1_554 S
H289 C297 0.930 . S
H290 C298 0.930 . S
H291 C299 0.930 . S
H292 C302 0.930 . S
H293 C303 0.930 1_554 S
C294 H288 0.930 1_556 S
C294 C295 1.355 . S
C294 C296 1.415 . S
C295 C294 1.355 . S
C295 C297 1.419 . S
C296 C294 1.415 . S
C296 C301 1.425 . S
C296 C303 1.409 . S
C297 H289 0.930 . S
C297 C295 1.419 . S
C297 C298 1.362 . S
C298 H290 0.930 . S
C298 C297 1.362 . S
C298 C301 1.409 . S
C299 H291 0.930 . S
C299 C300 1.355 . S
C299 C301 1.415 . S
C300 C299 1.355 . S
C300 C302 1.419 . S
C301 C296 1.425 . S
C301 C298 1.409 . S
C301 C299 1.415 . S
C302 H292 0.930 . S
C302 C300 1.419 . S
C302 C303 1.362 . S
C303 H293 0.930 1_556 S
C303 C296 1.409 . S
C303 C302 1.362 . S
H304 C310 0.930 1_556 S
H305 C313 0.930 . S
H306 C314 0.930 . S
H307 C315 0.930 . S
H308 C318 0.930 . S
H309 C319 0.930 1_556 S
C310 H304 0.930 1_554 S
C310 C311 1.355 . S
C310 C312 1.415 . S
C311 C310 1.355 . S
C311 C313 1.419 . S
C312 C310 1.415 . S
C312 C317 1.425 . S
C312 C319 1.409 . S
C313 H305 0.930 . S
C313 C311 1.419 . S
C313 C314 1.362 . S
C314 H306 0.930 . S
C314 C313 1.362 . S
C314 C317 1.409 . S
C315 H307 0.930 . S
C315 C316 1.355 . S
C315 C317 1.415 . S
C316 C315 1.355 . S
C316 C318 1.419 . S
C317 C312 1.425 . S
C317 C314 1.409 . S
C317 C315 1.415 . S
C318 H308 0.930 . S
C318 C316 1.419 . S
C318 C319 1.362 . S
C319 H309 0.930 1_554 S
C319 C312 1.409 . S
C319 C318 1.362 . S
H320 C326 0.930 . S
H321 C329 0.930 . S
H322 C330 0.930 . S
H323 C331 0.930 . S
H324 C334 0.930 . S
H325 C335 0.930 . S
C326 H320 0.930 . S
C326 C327 1.355 . S
C326 C328 1.415 . S
C327 C326 1.355 . S
C327 C329 1.419 1_556 S
C328 C326 1.415 . S
C328 C333 1.425 . S
C328 C335 1.409 . S
C329 H321 0.930 . S
C329 C327 1.419 1_554 S
C329 C330 1.362 . S
C330 H322 0.930 . S
C330 C329 1.362 . S
C330 C333 1.409 1_554 S
C331 H323 0.930 . S
C331 C332 1.355 1_554 S
C331 C333 1.415 1_554 S
C332 C331 1.355 1_556 S
C332 C334 1.419 . S
C333 C328 1.425 . S
C333 C330 1.409 1_556 S
C333 C331 1.415 1_556 S
C334 H324 0.930 . S
C334 C332 1.419 . S
C334 C335 1.362 . S
C335 H325 0.930 . S
C335 C328 1.409 . S
C335 C334 1.362 . S
H336 C342 0.930 . S
H337 C345 0.930 1_556 S
H338 C346 0.930 . S
H339 C347 0.930 . S
H340 C350 0.930 . S
H341 C351 0.930 . S
C342 H336 0.930 . S
C342 C343 1.355 . S
C342 C344 1.415 . S
C343 C342 1.355 . S
C343 C345 1.419 . S
C344 C342 1.415 . S
C344 C349 1.425 . S
C344 C351 1.409 . S
C345 H337 0.930 1_554 S
C345 C343 1.419 . S
C345 C346 1.362 1_554 S
C346 H338 0.930 . S
C346 C345 1.362 1_556 S
C346 C349 1.409 1_556 S
C347 H339 0.930 . S
C347 C348 1.355 1_556 S
C347 C349 1.415 1_556 S
C348 C347 1.355 1_554 S
C348 C350 1.419 . S
C349 C344 1.425 . S
C349 C346 1.409 1_554 S
C349 C347 1.415 1_554 S
C350 H340 0.930 . S
C350 C348 1.419 . S
C350 C351 1.362 . S
C351 H341 0.930 . S
C351 C344 1.409 . S
C351 C350 1.362 . S
H352 C358 0.930 . S
H353 C361 0.930 . S
H354 C362 0.930 . S
H355 C363 0.930 . S
H356 C366 0.930 . S
H357 C367 0.930 . S
C358 H352 0.930 . S
C358 C359 1.355 . S
C358 C360 1.415 . S
C359 C358 1.355 . S
C359 C361 1.419 . S
C360 C358 1.415 . S
C360 C365 1.425 . S
C360 C367 1.409 . S
C361 H353 0.930 . S
C361 C359 1.419 . S
C361 C362 1.362 . S
C362 H354 0.930 . S
C362 C361 1.362 . S
C362 C365 1.409 . S
C363 H355 0.930 . S
C363 C364 1.355 . S
C363 C365 1.415 . S
C364 C363 1.355 . S
C364 C366 1.419 . S
C365 C360 1.425 . S
C365 C362 1.409 . S
C365 C363 1.415 . S
C366 H356 0.930 . S
C366 C364 1.419 . S
C366 C367 1.362 . S
C367 H357 0.930 . S
C367 C360 1.409 . S
C367 C366 1.362 . S
H368 C374 0.930 . S
H369 C377 0.930 . S
H370 C378 0.930 . S
H371 C379 0.930 . S
H372 C382 0.930 . S
H373 C383 0.930 . S
C374 H368 0.930 . S
C374 C375 1.355 . S
C374 C376 1.415 . S
C375 C374 1.355 . S
C375 C377 1.419 . S
C376 C374 1.415 . S
C376 C381 1.425 . S
C376 C383 1.409 . S
C377 H369 0.930 . S
C377 C375 1.419 . S
C377 C378 1.362 . S
C378 H370 0.930 . S
C378 C377 1.362 . S
C378 C381 1.409 . S
C379 H371 0.930 . S
C379 C380 1.355 . S
C379 C381 1.415 . S
C380 C379 1.355 . S
C380 C382 1.419 . S
C381 C376 1.425 . S
C381 C378 1.409 . S
C381 C379 1.415 . S
C382 H372 0.930 . S
C382 C380 1.419 . S
C382 C383 1.362 . S
C383 H373 0.930 . S
C383 C376 1.409 . S
C383 C382 1.362 . S
H384 C390 0.930 . S
H385 C393 0.930 . S
H386 C394 0.930 . S
H387 C395 0.930 . S
H388 C398 0.930 . S
H389 C399 0.930 . S
C390 H384 0.930 . S
C390 C391 1.355 . S
C390 C392 1.415 . S
C391 C390 1.355 . S
C391 C393 1.419 . S
C392 C390 1.415 . S
C392 C397 1.425 . S
C392 C399 1.409 . S
C393 H385 0.930 . S
C393 C391 1.419 . S
C393 C394 1.362 . S
C394 H386 0.930 . S
C394 C393 1.362 . S
C394 C397 1.409 . S
C395 H387 0.930 . S
C395 C396 1.355 . S
C395 C397 1.415 . S
C396 C395 1.355 . S
C396 C398 1.419 . S
C397 C392 1.425 . S
C397 C394 1.409 . S
C397 C395 1.415 . S
C398 H388 0.930 . S
C398 C396 1.419 . S
C398 C399 1.362 . S
C399 H389 0.930 . S
C399 C392 1.409 . S
C399 C398 1.362 . S
H400 C406 0.930 . S
H401 C409 0.930 . S
H402 C410 0.930 . S
H403 C411 0.930 . S
H404 C414 0.930 . S
H405 C415 0.930 . S
C406 H400 0.930 . S
C406 C407 1.355 . S
C406 C408 1.415 . S
C407 C406 1.355 . S
C407 C409 1.419 . S
C408 C406 1.415 . S
C408 C413 1.425 . S
C408 C415 1.409 . S
C409 H401 0.930 . S
C409 C407 1.419 . S
C409 C410 1.362 . S
C410 H402 0.930 . S
C410 C409 1.362 . S
C410 C413 1.409 . S
C411 H403 0.930 . S
C411 C412 1.355 . S
C411 C413 1.415 . S
C412 C411 1.355 . S
C412 C414 1.419 . S
C413 C408 1.425 . S
C413 C410 1.409 . S
C413 C411 1.415 . S
C414 H404 0.930 . S
C414 C412 1.419 . S
C414 C415 1.362 . S
C415 H405 0.930 . S
C415 C408 1.409 . S
C415 C414 1.362 . S
H416 C422 0.930 . S
H417 C425 0.930 . S
H418 C426 0.930 . S
H419 C427 0.930 . S
H420 C430 0.930 . S
H421 C431 0.930 . S
C422 H416 0.930 . S
C422 C423 1.355 . S
C422 C424 1.415 . S
C423 C422 1.355 . S
C423 C425 1.419 . S
C424 C422 1.415 . S
C424 C429 1.425 1_565 S
C424 C431 1.409 1_565 S
C425 H417 0.930 . S
C425 C423 1.419 . S
C425 C426 1.362 . S
C426 H418 0.930 . S
C426 C425 1.362 . S
C426 C429 1.409 1_565 S
C427 H419 0.930 . S
C427 C428 1.355 . S
C427 C429 1.415 . S
C428 C427 1.355 . S
C428 C430 1.419 . S
C429 C424 1.425 1_545 S
C429 C426 1.409 1_545 S
C429 C427 1.415 . S
C430 H420 0.930 . S
C430 C428 1.419 . S
C430 C431 1.362 . S
C431 H421 0.930 . S
C431 C424 1.409 1_545 S
C431 C430 1.362 . S
H432 C438 0.930 . S
H433 C441 0.930 . S
H434 C442 0.930 1_455 S
H435 C443 0.930 . S
H436 C446 0.930 . S
H437 C447 0.930 1_655 S
C438 H432 0.930 . S
C438 C439 1.355 . S
C438 C440 1.415 . S
C439 C438 1.355 . S
C439 C441 1.419 . S
C440 C438 1.415 . S
C440 C445 1.425 1_655 S
C440 C447 1.409 1_655 S
C441 H433 0.930 . S
C441 C439 1.419 . S
C441 C442 1.362 . S
C442 H434 0.930 1_655 S
C442 C441 1.362 . S
C442 C445 1.409 1_655 S
C443 H435 0.930 . S
C443 C444 1.355 . S
C443 C445 1.415 . S
C444 C443 1.355 . S
C444 C446 1.419 . S
C445 C440 1.425 1_455 S
C445 C442 1.409 1_455 S
C445 C443 1.415 . S
C446 H436 0.930 . S
C446 C444 1.419 . S
C446 C447 1.362 . S
C447 H437 0.930 1_455 S
C447 C440 1.409 1_455 S
C447 C446 1.362 . S
H448 C454 0.930 . S
H449 C457 0.930 . S
H450 C458 0.930 . S
H451 C459 0.930 . S
H452 C462 0.930 . S
H453 C463 0.930 . S
C454 H448 0.930 . S
C454 C455 1.355 . S
C454 C456 1.415 . S
C455 C454 1.355 . S
C455 C457 1.419 . S
C456 C454 1.415 . S
C456 C461 1.425 1_565 S
C456 C463 1.409 1_565 S
C457 H449 0.930 . S
C457 C455 1.419 . S
C457 C458 1.362 . S
C458 H450 0.930 . S
C458 C457 1.362 . S
C458 C461 1.409 1_565 S
C459 H451 0.930 . S
C459 C460 1.355 . S
C459 C461 1.415 . S
C460 C459 1.355 . S
C460 C462 1.419 . S
C461 C456 1.425 1_545 S
C461 C458 1.409 1_545 S
C461 C459 1.415 . S
C462 H452 0.930 . S
C462 C460 1.419 . S
C462 C463 1.362 . S
C463 H453 0.930 . S
C463 C456 1.409 1_545 S
C463 C462 1.362 . S
H464 C470 0.930 . S
H465 C473 0.930 . S
H466 C474 0.930 1_455 S
H467 C475 0.930 . S
H468 C478 0.930 . S
H469 C479 0.930 1_655 S
C470 H464 0.930 . S
C470 C471 1.355 . S
C470 C472 1.415 . S
C471 C470 1.355 . S
C471 C473 1.419 . S
C472 C470 1.415 . S
C472 C477 1.425 1_655 S
C472 C479 1.409 1_655 S
C473 H465 0.930 . S
C473 C471 1.419 . S
C473 C474 1.362 . S
C474 H466 0.930 1_655 S
C474 C473 1.362 . S
C474 C477 1.409 1_655 S
C475 H467 0.930 . S
C475 C476 1.355 . S
C475 C477 1.415 . S
C476 C475 1.355 . S
C476 C478 1.419 . S
C477 C472 1.425 1_455 S
C477 C474 1.409 1_455 S
C477 C475 1.415 . S
C478 H468 0.930 . S
C478 C476 1.419 . S
C478 C479 1.362 . S
C479 H469 0.930 1_455 S
C479 C472 1.409 1_455 S
C479 C478 1.362 . S
H480 C486 0.930 . S
H481 C489 0.930 . S
H482 C490 0.930 1_556 S
H483 C491 0.930 . S
H484 C494 0.930 . S
H485 C495 0.930 . S
C486 H480 0.930 . S
C486 C487 1.355 . S
C486 C488 1.415 . S
C487 C486 1.355 . S
C487 C489 1.419 1_554 S
C488 C486 1.415 . S
C488 C493 1.425 . S
C488 C495 1.409 . S
C489 H481 0.930 . S
C489 C487 1.419 1_556 S
C489 C490 1.362 1_556 S
C490 H482 0.930 1_554 S
C490 C489 1.362 1_554 S
C490 C493 1.409 . S
C491 H483 0.930 . S
C491 C492 1.355 . S
C491 C493 1.415 . S
C492 C491 1.355 . S
C492 C494 1.419 . S
C493 C488 1.425 . S
C493 C490 1.409 . S
C493 C491 1.415 . S
C494 H484 0.930 . S
C494 C492 1.419 . S
C494 C495 1.362 . S
C495 H485 0.930 . S
C495 C488 1.409 . S
C495 C494 1.362 . S
H496 C502 0.930 . S
H497 C505 0.930 . S
H498 C506 0.930 . S
H499 C507 0.930 . S
H500 C510 0.930 1_554 S
H501 C511 0.930 . S
C502 H496 0.930 . S
C502 C503 1.355 . S
C502 C504 1.415 . S
C503 C502 1.355 . S
C503 C505 1.419 . S
C504 C502 1.415 . S
C504 C509 1.425 . S
C504 C511 1.409 . S
C505 H497 0.930 . S
C505 C503 1.419 . S
C505 C506 1.362 . S
C506 H498 0.930 . S
C506 C505 1.362 . S
C506 C509 1.409 . S
C507 H499 0.930 . S
C507 C508 1.355 . S
C507 C509 1.415 . S
C508 C507 1.355 . S
C508 C510 1.419 . S
C509 C504 1.425 . S
C509 C506 1.409 . S
C509 C507 1.415 . S
C510 H500 0.930 1_556 S
C510 C508 1.419 . S
C510 C511 1.362 . S
C511 H501 0.930 . S
C511 C504 1.409 . S
C511 C510 1.362 . S
H512 C518 0.930 . S
H513 C521 0.930 . S
H514 C522 0.930 . S
H515 C523 0.930 . S
H516 C526 0.930 . S
H517 C527 0.930 . S
C518 H512 0.930 . S
C518 C519 1.355 . S
C518 C520 1.415 . S
C519 C518 1.355 . S
C519 C521 1.419 . S
C520 C518 1.415 . S
C520 C525 1.425 . S
C520 C527 1.409 . S
C521 H513 0.930 . S
C521 C519 1.419 . S
C521 C522 1.362 . S
C522 H514 0.930 . S
C522 C521 1.362 . S
C522 C525 1.409 . S
C523 H515 0.930 . S
C523 C524 1.355 . S
C523 C525 1.415 . S
C524 C523 1.355 . S
C524 C526 1.419 . S
C525 C520 1.425 . S
C525 C522 1.409 . S
C525 C523 1.415 . S
C526 H516 0.930 . S
C526 C524 1.419 . S
C526 C527 1.362 . S
C527 H517 0.930 . S
C527 C520 1.409 . S
C527 C526 1.362 . S
H528 C534 0.930 . S
H529 C537 0.930 . S
H530 C538 0.930 1_554 S
H531 C539 0.930 . S
H532 C542 0.930 . S
H533 C543 0.930 . S
C534 H528 0.930 . S
C534 C535 1.355 . S
C534 C536 1.415 . S
C535 C534 1.355 . S
C535 C537 1.419 1_556 S
C536 C534 1.415 . S
C536 C541 1.425 . S
C536 C543 1.409 . S
C537 H529 0.930 . S
C537 C535 1.419 1_554 S
C537 C538 1.362 1_554 S
C538 H530 0.930 1_556 S
C538 C537 1.362 1_556 S
C538 C541 1.409 . S
C539 H531 0.930 . S
C539 C540 1.355 . S
C539 C541 1.415 . S
C540 C539 1.355 . S
C540 C542 1.419 . S
C541 C536 1.425 . S
C541 C538 1.409 . S
C541 C539 1.415 . S
C542 H532 0.930 . S
C542 C540 1.419 . S
C542 C543 1.362 . S
C543 H533 0.930 . S
C543 C536 1.409 . S
C543 C542 1.362 . S
H544 C550 0.930 . S
H545 C553 0.930 . S
H546 C554 0.930 . S
H547 C555 0.930 . S
H548 C558 0.930 . S
H549 C559 0.930 . S
C550 H544 0.930 . S
C550 C551 1.355 . S
C550 C552 1.415 . S
C551 C550 1.355 . S
C551 C553 1.419 . S
C552 C550 1.415 . S
C552 C557 1.425 . S
C552 C559 1.409 . S
C553 H545 0.930 . S
C553 C551 1.419 . S
C553 C554 1.362 . S
C554 H546 0.930 . S
C554 C553 1.362 . S
C554 C557 1.409 . S
C555 H547 0.930 . S
C555 C556 1.355 . S
C555 C557 1.415 . S
C556 C555 1.355 . S
C556 C558 1.419 . S
C557 C552 1.425 . S
C557 C554 1.409 . S
C557 C555 1.415 . S
C558 H548 0.930 . S
C558 C556 1.419 . S
C558 C559 1.362 . S
C559 H549 0.930 . S
C559 C552 1.409 . S
C559 C558 1.362 . S
H560 C566 0.930 . S
H561 C569 0.930 . S
H562 C570 0.930 . S
H563 C571 0.930 . S
H564 C574 0.930 . S
H565 C575 0.930 . S
C566 H560 0.930 . S
C566 C567 1.355 . S
C566 C568 1.415 . S
C567 C566 1.355 . S
C567 C569 1.419 . S
C568 C566 1.415 . S
C568 C573 1.425 . S
C568 C575 1.409 . S
C569 H561 0.930 . S
C569 C567 1.419 . S
C569 C570 1.362 . S
C570 H562 0.930 . S
C570 C569 1.362 . S
C570 C573 1.409 . S
C571 H563 0.930 . S
C571 C572 1.355 . S
C571 C573 1.415 . S
C572 C571 1.355 . S
C572 C574 1.419 . S
C573 C568 1.425 . S
C573 C570 1.409 . S
C573 C571 1.415 . S
C574 H564 0.930 . S
C574 C572 1.419 . S
C574 C575 1.362 . S
C575 H565 0.930 . S
C575 C568 1.409 . S
C575 C574 1.362 . S
H576 C582 0.930 . S
H577 C585 0.930 . S
H578 C586 0.930 . S
H579 C587 0.930 . S
H580 C590 0.930 . S
H581 C591 0.930 . S
C582 H576 0.930 . S
C582 C583 1.355 . S
C582 C584 1.415 . S
C583 C582 1.355 . S
C583 C585 1.419 . S
C584 C582 1.415 . S
C584 C589 1.425 . S
C584 C591 1.409 . S
C585 H577 0.930 . S
C585 C583 1.419 . S
C585 C586 1.362 . S
C586 H578 0.930 . S
C586 C585 1.362 . S
C586 C589 1.409 . S
C587 H579 0.930 . S
C587 C588 1.355 . S
C587 C589 1.415 . S
C588 C587 1.355 . S
C588 C590 1.419 . S
C589 C584 1.425 . S
C589 C586 1.409 . S
C589 C587 1.415 . S
C590 H580 0.930 . S
C590 C588 1.419 . S
C590 C591 1.362 . S
C591 H581 0.930 . S
C591 C584 1.409 . S
C591 C590 1.362 . S
H592 C598 0.930 . S
H593 C601 0.930 . S
H594 C602 0.930 . S
H595 C603 0.930 . S
H596 C606 0.930 . S
H597 C607 0.930 . S
C598 H592 0.930 . S
C598 C599 1.355 . S
C598 C600 1.415 . S
C599 C598 1.355 . S
C599 C601 1.419 . S
C600 C598 1.415 . S
C600 C605 1.425 . S
C600 C607 1.409 . S
C601 H593 0.930 . S
C601 C599 1.419 . S
C601 C602 1.362 . S
C602 H594 0.930 . S
C602 C601 1.362 . S
C602 C605 1.409 . S
C603 H595 0.930 . S
C603 C604 1.355 . S
C603 C605 1.415 . S
C604 C603 1.355 . S
C604 C606 1.419 . S
C605 C600 1.425 . S
C605 C602 1.409 . S
C605 C603 1.415 . S
C606 H596 0.930 . S
C606 C604 1.419 . S
C606 C607 1.362 . S
C607 H597 0.930 . S
C607 C600 1.409 . S
C607 C606 1.362 . S
H608 C614 0.930 . S
H609 C617 0.930 . S
H610 C618 0.930 . S
H611 C619 0.930 . S
H612 C622 0.930 . S
H613 C623 0.930 1_554 S
C614 H608 0.930 . S
C614 C615 1.355 . S
C614 C616 1.415 . S
C615 C614 1.355 . S
C615 C617 1.419 . S
C616 C614 1.415 . S
C616 C621 1.425 . S
C616 C623 1.409 . S
C617 H609 0.930 . S
C617 C615 1.419 . S
C617 C618 1.362 . S
C618 H610 0.930 . S
C618 C617 1.362 . S
C618 C621 1.409 . S
C619 H611 0.930 . S
C619 C620 1.355 . S
C619 C621 1.415 . S
C620 C619 1.355 . S
C620 C622 1.419 1_556 S
C621 C616 1.425 . S
C621 C618 1.409 . S
C621 C619 1.415 . S
C622 H612 0.930 . S
C622 C620 1.419 1_554 S
C622 C623 1.362 1_554 S
C623 H613 0.930 1_556 S
C623 C616 1.409 . S
C623 C622 1.362 1_556 S
H624 C630 0.930 . S
H625 C633 0.930 . S
H626 C634 0.930 . S
H627 C635 0.930 . S
H628 C638 0.930 1_556 S
H629 C639 0.930 . S
C630 H624 0.930 . S
C630 C631 1.355 . S
C630 C632 1.415 . S
C631 C630 1.355 . S
C631 C633 1.419 . S
C632 C630 1.415 . S
C632 C637 1.425 . S
C632 C639 1.409 . S
C633 H625 0.930 . S
C633 C631 1.419 . S
C633 C634 1.362 . S
C634 H626 0.930 . S
C634 C633 1.362 . S
C634 C637 1.409 . S
C635 H627 0.930 . S
C635 C636 1.355 . S
C635 C637 1.415 . S
C636 C635 1.355 . S
C636 C638 1.419 . S
C637 C632 1.425 . S
C637 C634 1.409 . S
C637 C635 1.415 . S
C638 H628 0.930 1_554 S
C638 C636 1.419 . S
C638 C639 1.362 . S
C639 H629 0.930 . S
C639 C632 1.409 . S
C639 C638 1.362 . S
H640 C646 0.930 1_554 S
H641 C649 0.930 . S
H642 C650 0.930 . S
H643 C651 0.930 . S
H644 C654 0.930 . S
H645 C655 0.930 1_554 S
C646 H640 0.930 1_556 S
C646 C647 1.355 . S
C646 C648 1.415 . S
C647 C646 1.355 . S
C647 C649 1.419 . S
C648 C646 1.415 . S
C648 C653 1.425 . S
C648 C655 1.409 . S
C649 H641 0.930 . S
C649 C647 1.419 . S
C649 C650 1.362 . S
C650 H642 0.930 . S
C650 C649 1.362 . S
C650 C653 1.409 . S
C651 H643 0.930 . S
C651 C652 1.355 . S
C651 C653 1.415 . S
C652 C651 1.355 . S
C652 C654 1.419 . S
C653 C648 1.425 . S
C653 C650 1.409 . S
C653 C651 1.415 . S
C654 H644 0.930 . S
C654 C652 1.419 . S
C654 C655 1.362 . S
C655 H645 0.930 1_556 S
C655 C648 1.409 . S
C655 C654 1.362 . S
H656 C662 0.930 . S
H657 C665 0.930 . S
H658 C666 0.930 . S
H659 C667 0.930 . S
H660 C670 0.930 . S
H661 C671 0.930 . S
C662 H656 0.930 . S
C662 C663 1.355 . S
C662 C664 1.415 . S
C663 C662 1.355 . S
C663 C665 1.419 . S
C664 C662 1.415 . S
C664 C669 1.425 . S
C664 C671 1.409 . S
C665 H657 0.930 . S
C665 C663 1.419 . S
C665 C666 1.362 . S
C666 H658 0.930 . S
C666 C665 1.362 . S
C666 C669 1.409 . S
C667 H659 0.930 . S
C667 C668 1.355 . S
C667 C669 1.415 . S
C668 C667 1.355 . S
C668 C670 1.419 . S
C669 C664 1.425 . S
C669 C666 1.409 . S
C669 C667 1.415 . S
C670 H660 0.930 . S
C670 C668 1.419 . S
C670 C671 1.362 . S
C671 H661 0.930 . S
C671 C664 1.409 . S
C671 C670 1.362 . S
H672 C678 0.930 . S
H673 C681 0.930 . S
H674 C682 0.930 . S
H675 C683 0.930 . S
H676 C686 0.930 . S
H677 C687 0.930 . S
C678 H672 0.930 . S
C678 C679 1.355 . S
C678 C680 1.415 . S
C679 C678 1.355 . S
C679 C681 1.419 . S
C680 C678 1.415 . S
C680 C685 1.425 . S
C680 C687 1.409 . S
C681 H673 0.930 . S
C681 C679 1.419 . S
C681 C682 1.362 . S
C682 H674 0.930 . S
C682 C681 1.362 . S
C682 C685 1.409 . S
C683 H675 0.930 . S
C683 C684 1.355 . S
C683 C685 1.415 . S
C684 C683 1.355 . S
C684 C686 1.419 . S
C685 C680 1.425 . S
C685 C682 1.409 . S
C685 C683 1.415 . S
C686 H676 0.930 . S
C686 C684 1.419 . S
C686 C687 1.362 . S
C687 H677 0.930 . S
C687 C680 1.409 . S
C687 C686 1.362 . S
H688 C694 0.930 . S
H689 C697 0.930 . S
H690 C698 0.930 . S
H691 C699 0.930 . S
H692 C702 0.930 . S
H693 C703 0.930 . S
C694 H688 0.930 . S
C694 C695 1.355 . S
C694 C696 1.415 . S
C695 C694 1.355 . S
C695 C697 1.419 . S
C696 C694 1.415 . S
C696 C701 1.425 . S
C696 C703 1.409 . S
C697 H689 0.930 . S
C697 C695 1.419 . S
C697 C698 1.362 . S
C698 H690 0.930 . S
C698 C697 1.362 . S
C698 C701 1.409 . S
C699 H691 0.930 . S
C699 C700 1.355 . S
C699 C701 1.415 . S
C700 C699 1.355 . S
C700 C702 1.419 . S
C701 C696 1.425 . S
C701 C698 1.409 . S
C701 C699 1.415 . S
C702 H692 0.930 . S
C702 C700 1.419 . S
C702 C703 1.362 . S
C703 H693 0.930 . S
C703 C696 1.409 . S
C703 C702 1.362 . S
H704 C710 0.930 . S
H705 C713 0.930 . S
H706 C714 0.930 . S
H707 C715 0.930 . S
H708 C718 0.930 . S
H709 C719 0.930 . S
C710 H704 0.930 . S
C710 C711 1.355 . S
C710 C712 1.415 . S
C711 C710 1.355 . S
C711 C713 1.419 . S
C712 C710 1.415 . S
C712 C717 1.425 . S
C712 C719 1.409 . S
C713 H705 0.930 . S
C713 C711 1.419 . S
C713 C714 1.362 . S
C714 H706 0.930 . S
C714 C713 1.362 . S
C714 C717 1.409 . S
C715 H707 0.930 . S
C715 C716 1.355 . S
C715 C717 1.415 . S
C716 C715 1.355 . S
C716 C718 1.419 . S
C717 C712 1.425 . S
C717 C714 1.409 . S
C717 C715 1.415 . S
C718 H708 0.930 . S
C718 C716 1.419 . S
C718 C719 1.362 . S
C719 H709 0.930 . S
C719 C712 1.409 . S
C719 C718 1.362 . S
H720 C726 0.930 . S
H721 C729 0.930 . S
H722 C730 0.930 . S
H723 C731 0.930 . S
H724 C734 0.930 . S
H725 C735 0.930 . S
C726 H720 0.930 . S
C726 C727 1.355 . S
C726 C728 1.415 . S
C727 C726 1.355 . S
C727 C729 1.419 . S
C728 C726 1.415 . S
C728 C733 1.425 . S
C728 C735 1.409 . S
C729 H721 0.930 . S
C729 C727 1.419 . S
C729 C730 1.362 . S
C730 H722 0.930 . S
C730 C729 1.362 . S
C730 C733 1.409 . S
C731 H723 0.930 . S
C731 C732 1.355 . S
C731 C733 1.415 . S
C732 C731 1.355 . S
C732 C734 1.419 . S
C733 C728 1.425 . S
C733 C730 1.409 . S
C733 C731 1.415 . S
C734 H724 0.930 . S
C734 C732 1.419 . S
C734 C735 1.362 . S
C735 H725 0.930 . S
C735 C728 1.409 . S
C735 C734 1.362 . S
C231 C159 1.353 . S
C236 C0 1.344 . S
C247 C14 1.345 . S
C252 C117 1.352 . S
C263 C28 1.284 . S
C268 C131 1.318 . S
C279 C145 1.326 . S
C284 C42 1.279 . S
C295 C56 1.347 1_556 S
C300 C75 1.349 . S
C311 C70 1.346 1_554 S
C316 C89 1.332 . S
C327 C103 1.315 . S
C332 C84 1.324 1_556 S
C343 C61 1.333 . S
C348 C98 1.347 1_554 S
C359 C47 1.326 . S
C364 C112 1.279 . S
C375 C126 1.300 . S
C380 C5 1.312 . S
C391 C19 1.334 . S
C396 C140 1.347 . S
C407 C154 1.343 . S
C412 C33 1.328 . S
C423 C168 1.279 . S
C428 C187 1.326 . S
C439 C182 1.341 . S
C444 C201 1.355 . S
C455 C215 1.338 . S
C460 C196 1.281 . S
C471 C173 1.355 . S
C476 C210 1.341 . S
C487 C65 1.330 . S
C492 C9 1.331 . S
C503 C23 1.305 . S
C508 C79 1.285 . S
C519 C37 1.237 . S
C524 C93 1.258 . S
C535 C107 1.329 . S
C540 C51 1.318 . S
C551 C121 1.332 . S
C556 C177 1.328 . S
C567 C191 1.330 . S
C572 C135 1.322 . S
C583 C149 1.210 . S
C588 C205 1.211 . S
C599 C219 1.210 . S
C604 C163 1.216 . S
C615 C207 1.390 . S
C620 C11 1.397 . S
C631 C221 1.417 . S
C636 C25 1.399 . S
C647 C39 1.438 . S
C652 C179 1.426 . S
C663 C193 1.434 . S
C668 C53 1.417 . S
C679 C151 1.438 . S
C684 C67 1.426 . S
C695 C165 1.413 . S
C700 C81 1.431 . S
C711 C95 1.389 . S
C716 C123 1.396 . S
C727 C137 1.437 . S
C732 C109 1.438 . S
