# Generated by pormake.
# Topology wkf, (6)-cn, num edge types: 1
# Building blocks:
#     Node 0, Type 0, BuildingBlock: KUMBUR_clean_sbu_1, # of connection points: 6
#     Node 1, Type 0, BuildingBlock: KUMBUR_clean_sbu_1, # of connection points: 6
#     Node 2, Type 0, BuildingBlock: KUMBUR_clean_sbu_1, # of connection points: 6
#     Node 3, Type 0, BuildingBlock: KUMBUR_clean_sbu_1, # of connection points: 6
#     Node 4, Type 0, BuildingBlock: KUMBUR_clean_sbu_1, # of connection points: 6
#     Node 5, Type 0, BuildingBlock: KUMBUR_clean_sbu_1, # of connection points: 6
#     Node 6, Type 0, BuildingBlock: KUMBUR_clean_sbu_1, # of connection points: 6
#     Node 7, Type 0, BuildingBlock: KUMBUR_clean_sbu_1, # of connection points: 6
#     Node 8, Type 0, BuildingBlock: KUMBUR_clean_sbu_1, # of connection points: 6
#     Node 9, Type 0, BuildingBlock: KUMBUR_clean_sbu_1, # of connection points: 6
#     Node 10, Type 0, BuildingBlock: KUMBUR_clean_sbu_1, # of connection points: 6
#     Node 11, Type 0, BuildingBlock: KUMBUR_clean_sbu_1, # of connection points: 6
#     Edge 12, Type (0, 0), BuildingBlock: OJICUG_clean_linker_0, # of connection points: 2
#     Edge 13, Type (0, 0), BuildingBlock: OJICUG_clean_linker_0, # of connection points: 2
#     Edge 14, Type (0, 0), BuildingBlock: OJICUG_clean_linker_0, # of connection points: 2
#     Edge 15, Type (0, 0), BuildingBlock: OJICUG_clean_linker_0, # of connection points: 2
#     Edge 16, Type (0, 0), BuildingBlock: OJICUG_clean_linker_0, # of connection points: 2
#     Edge 17, Type (0, 0), BuildingBlock: OJICUG_clean_linker_0, # of connection points: 2
#     Edge 18, Type (0, 0), BuildingBlock: OJICUG_clean_linker_0, # of connection points: 2
#     Edge 19, Type (0, 0), BuildingBlock: OJICUG_clean_linker_0, # of connection points: 2
#     Edge 20, Type (0, 0), BuildingBlock: OJICUG_clean_linker_0, # of connection points: 2
#     Edge 21, Type (0, 0), BuildingBlock: OJICUG_clean_linker_0, # of connection points: 2
#     Edge 22, Type (0, 0), BuildingBlock: OJICUG_clean_linker_0, # of connection points: 2
#     Edge 23, Type (0, 0), BuildingBlock: OJICUG_clean_linker_0, # of connection points: 2
#     Edge 24, Type (0, 0), BuildingBlock: OJICUG_clean_linker_0, # of connection points: 2
#     Edge 25, Type (0, 0), BuildingBlock: OJICUG_clean_linker_0, # of connection points: 2
#     Edge 26, Type (0, 0), BuildingBlock: OJICUG_clean_linker_0, # of connection points: 2
#     Edge 27, Type (0, 0), BuildingBlock: OJICUG_clean_linker_0, # of connection points: 2
#     Edge 28, Type (0, 0), BuildingBlock: OJICUG_clean_linker_0, # of connection points: 2
#     Edge 29, Type (0, 0), BuildingBlock: OJICUG_clean_linker_0, # of connection points: 2
#     Edge 30, Type (0, 0), BuildingBlock: OJICUG_clean_linker_0, # of connection points: 2
#     Edge 31, Type (0, 0), BuildingBlock: OJICUG_clean_linker_0, # of connection points: 2
#     Edge 32, Type (0, 0), BuildingBlock: OJICUG_clean_linker_0, # of connection points: 2
#     Edge 33, Type (0, 0), BuildingBlock: OJICUG_clean_linker_0, # of connection points: 2
#     Edge 34, Type (0, 0), BuildingBlock: OJICUG_clean_linker_0, # of connection points: 2
#     Edge 35, Type (0, 0), BuildingBlock: OJICUG_clean_linker_0, # of connection points: 2
#     Edge 36, Type (0, 0), BuildingBlock: OJICUG_clean_linker_0, # of connection points: 2
#     Edge 37, Type (0, 0), BuildingBlock: OJICUG_clean_linker_0, # of connection points: 2
#     Edge 38, Type (0, 0), BuildingBlock: OJICUG_clean_linker_0, # of connection points: 2
#     Edge 39, Type (0, 0), BuildingBlock: OJICUG_clean_linker_0, # of connection points: 2
#     Edge 40, Type (0, 0), BuildingBlock: OJICUG_clean_linker_0, # of connection points: 2
#     Edge 41, Type (0, 0), BuildingBlock: OJICUG_clean_linker_0, # of connection points: 2
#     Edge 42, Type (0, 0), BuildingBlock: OJICUG_clean_linker_0, # of connection points: 2
#     Edge 43, Type (0, 0), BuildingBlock: OJICUG_clean_linker_0, # of connection points: 2
#     Edge 44, Type (0, 0), BuildingBlock: OJICUG_clean_linker_0, # of connection points: 2
#     Edge 45, Type (0, 0), BuildingBlock: OJICUG_clean_linker_0, # of connection points: 2
#     Edge 46, Type (0, 0), BuildingBlock: OJICUG_clean_linker_0, # of connection points: 2
#     Edge 47, Type (0, 0), BuildingBlock: OJICUG_clean_linker_0, # of connection points: 2
# Relax obj value: 0.330
# Max RMSD: 0.291
# Mean RMSD: 0.279
data_MOF--net-wkf--node1-KUMBUR_clean_sbu_1--edge1-OJICUG_clean_linker_0
_symmetry_space_group_name_H-M    P1
_symmetry_Int_Tables_number       1
_symmetry_cell_setting            triclinic
loop_
_symmetry_equiv_pos_as_xyz
'x, y, z'
_cell_length_a     22.498381
_cell_length_b     22.548554
_cell_length_c     69.041684
_cell_angle_alpha  89.800805
_cell_angle_beta   90.10077
_cell_angle_gamma 119.23663
loop_
_atom_site_label
_atom_site_type_symbol
_atom_site_fract_x
_atom_site_fract_y
_atom_site_fract_z
_atom_type_partial_charge
Tb0 Tb 0.4405 0.91905 0.36203 0.0
C1 C 0.73456 0.97854 0.37444 0.0
N2 N 0.69541 0.96159 0.39051 0.0
C3 C 0.76944 0.92774 0.40626 0.0
C4 C 0.79412 0.97275 0.37371 0.0
C5 C 0.71026 0.93351 0.40609 0.0
C6 C 0.81242 0.94893 0.39015 0.0
C7 C 0.74569 1.00667 0.34043 0.0
C8 C 0.71103 0.99573 0.35823 0.0
C9 C 0.80736 1.00514 0.33975 0.0
C10 C 0.83171 0.98837 0.35642 0.0
Tb11 Tb 0.60606 0.98328 0.39037 0.0
N12 N 0.65019 0.99432 0.35953 0.0
C13 C 0.71545 1.01511 0.32373 0.0
C14 C 0.6181 0.99598 0.34299 0.0
C15 C 0.65051 1.00814 0.32496 0.0
H16 H 0.67708 0.91632 0.41856 0.0
H17 H 0.62494 1.01076 0.31197 0.0
H18 H 0.50497 0.96727 0.31746 0.0
H19 H 0.2375 0.93745 0.39935 0.0
H20 H 0.56679 0.98547 0.34368 0.0
H21 H 0.74006 1.02333 0.30974 0.0
H22 H 0.31824 0.89467 0.39441 0.0
H23 H 0.78182 0.90695 0.4188 0.0
H24 H 0.83515 1.01424 0.32628 0.0
H25 H 0.87813 0.98517 0.35559 0.0
H26 H 0.49558 1.03488 0.29077 0.0
H27 H 0.85831 0.9447 0.39034 0.0
H28 H 0.22984 1.01467 0.37526 0.0
N29 N 0.44212 0.98589 0.33674 0.0
C30 C 0.39647 1.00911 0.33832 0.0
C31 C 0.46844 1.02909 0.30418 0.0
C32 C 0.3871 1.04531 0.323 0.0
C33 C 0.47528 0.99244 0.31957 0.0
C34 C 0.4247 1.0562 0.30596 0.0
N35 N 0.36273 0.95417 0.36893 0.0
C36 C 0.31804 0.93127 0.38426 0.0
C37 C 0.30911 1.01719 0.35696 0.0
C38 C 0.35756 0.99482 0.35515 0.0
C39 C 0.26735 0.9982 0.37337 0.0
C40 C 0.27145 0.95458 0.387 0.0
H41 H 0.4189 0.08384 0.2939 0.0
H42 H 0.33103 0.09508 0.3132 0.0
H43 H 0.26335 0.0711 0.34297 0.0
O44 O 0.33876 0.83888 0.36074 0.0
O45 O 0.44203 0.96059 0.39186 0.0
O46 O 0.55334 1.03904 0.39685 0.0
O47 O 0.40001 0.86294 0.33565 0.0
O48 O 0.42031 0.85274 0.388 0.0
O49 O 0.51822 0.9015 0.407 0.0
O50 O 0.69517 0.05832 0.40399 0.0
O51 O 0.57276 0.87653 0.38138 0.0
O52 O 0.50381 0.86364 0.35507 0.0
O53 O 0.61354 0.97992 0.42053 0.0
O54 O 0.61226 0.07712 0.37477 0.0
O55 O 0.51079 1.03685 0.35751 0.0
C56 C 0.48943 1.01442 0.40111 0.0
C57 C 0.27808 0.82195 0.33054 0.0
C58 C 0.19408 0.78013 0.30299 0.0
C59 C 0.16376 0.81593 0.31121 0.0
C60 C 0.23924 0.84897 0.33866 0.0
C61 C 0.18516 0.84851 0.32888 0.0
C62 C 0.25399 0.78572 0.31248 0.0
C63 C 0.45297 0.85586 0.40436 0.0
C64 C 0.3383 0.82729 0.34229 0.0
C65 C 0.33955 0.06815 0.32494 0.0
C66 C 0.30104 1.05453 0.34189 0.0
C67 C 0.54291 0.84346 0.36525 0.0
C68 C 0.66614 0.08857 0.43429 0.0
C69 C 0.69275 0.20542 0.44107 0.0
C70 C 0.65426 0.183 0.45819 0.0
C71 C 0.6275 0.06725 0.45143 0.0
C72 C 0.69901 0.15766 0.42937 0.0
C73 C 0.62168 0.11426 0.46326 0.0
C74 C 0.57151 0.08984 0.36302 0.0
C75 C 0.66916 1.03816 0.42123 0.0
H76 H 0.12159 0.81773 0.3042 0.0
H77 H 0.24926 0.8698 0.35295 0.0
H78 H 0.15837 0.87242 0.33534 0.0
H79 H 0.27993 0.76046 0.30635 0.0
H80 H 0.64904 0.2184 0.46761 0.0
H81 H 0.60134 1.01414 0.45561 0.0
H82 H 0.73062 0.17433 0.41653 0.0
H83 H 0.59158 0.09733 0.47638 0.0
Tb84 Tb 0.56563 0.39615 0.52345 0.0
C85 C 0.79953 0.68472 0.53688 0.0
N86 N 0.77277 0.64336 0.55241 0.0
C87 C 0.87914 0.70412 0.56931 0.0
C88 C 0.86732 0.7385 0.53703 0.0
C89 C 0.81203 0.65091 0.56834 0.0
C90 C 0.90663 0.74874 0.55367 0.0
C91 C 0.78712 0.71055 0.50365 0.0
C92 C 0.75974 0.67071 0.52053 0.0
C93 C 0.85397 0.76537 0.50381 0.0
C94 C 0.89402 0.77935 0.52049 0.0
Tb95 Tb 0.6604 0.56352 0.5509 0.0
N96 N 0.69563 0.61628 0.52089 0.0
C97 C 0.74713 0.69341 0.48696 0.0
C98 C 0.65813 0.59836 0.50422 0.0
C99 C 0.68252 0.63673 0.48724 0.0
H100 H 0.79177 0.616 0.5804 0.0
H101 H 0.6516 0.62177 0.47425 0.0
H102 H 0.68693 0.49321 0.48948 0.0
H103 H 0.29149 0.2701 0.52161 0.0
H104 H 0.60997 0.55384 0.50343 0.0
H105 H 0.76617 0.72257 0.47372 0.0
H106 H 0.40378 0.31863 0.53764 0.0
H107 H 0.90957 0.71055 0.5821 0.0
H108 H 0.87555 0.79652 0.49101 0.0
H109 H 0.9459 0.82103 0.52033 0.0
H110 H 0.68669 0.51343 0.45491 0.0
H111 H 0.9585 0.79014 0.55445 0.0
H112 H 0.28489 0.2811 0.48613 0.0
N113 N 0.57818 0.43569 0.49215 0.0
C114 C 0.51789 0.40807 0.4822 0.0
C115 C 0.63885 0.48384 0.46244 0.0
C116 C 0.51625 0.41846 0.46208 0.0
C117 C 0.63841 0.47176 0.48234 0.0
C118 C 0.57766 0.45725 0.45228 0.0
N119 N 0.45952 0.36058 0.51161 0.0
C120 C 0.40125 0.32618 0.52228 0.0
C121 C 0.39401 0.34015 0.48241 0.0
C122 C 0.45699 0.36858 0.49215 0.0
C123 C 0.33407 0.30399 0.49316 0.0
C124 C 0.33764 0.29788 0.51321 0.0
H125 H 0.57844 0.46636 0.43683 0.0
H126 H 0.45119 0.39642 0.43692 0.0
H127 H 0.34505 0.32731 0.45455 0.0
O128 O 0.51009 0.28941 0.52708 0.0
O129 O 0.51736 0.39224 0.5525 0.0
O130 O 0.55458 0.50529 0.55926 0.0
O131 O 0.57812 0.33082 0.50348 0.0
O132 O 0.60939 0.37862 0.55053 0.0
O133 O 0.65971 0.47919 0.56815 0.0
O134 O 0.67253 0.65525 0.5625 0.0
O135 O 0.7373 0.53464 0.54111 0.0
O136 O 0.68238 0.44682 0.51926 0.0
O137 O 0.67014 0.57711 0.58088 0.0
O138 O 0.56946 0.56463 0.53607 0.0
O139 O 0.51051 0.46029 0.52058 0.0
C140 C 0.51398 0.44091 0.56258 0.0
C141 C 0.47781 0.222 0.49785 0.0
C142 C 0.4425 0.14389 0.46931 0.0
C143 C 0.37435 0.11952 0.47493 0.0
C144 C 0.40887 0.19164 0.50321 0.0
C145 C 0.35802 0.14267 0.49166 0.0
C146 C 0.49451 0.19728 0.48072 0.0
C147 C 0.64021 0.41359 0.56636 0.0
C148 C 0.53078 0.27521 0.51108 0.0
C149 C 0.45351 0.38905 0.4523 0.0
C150 C 0.39274 0.34971 0.46239 0.0
C151 C 0.74034 0.49539 0.52735 0.0
C152 C 0.61199 0.63217 0.5923 0.0
C153 C 0.53301 0.67472 0.59886 0.0
C154 C 0.50547 0.62867 0.61435 0.0
C155 C 0.58406 0.58672 0.60799 0.0
C156 C 0.58646 0.6761 0.58798 0.0
C157 C 0.53125 0.58526 0.61893 0.0
C158 C 0.51536 0.52034 0.52558 0.0
C159 C 0.66638 0.63267 0.58021 0.0
H160 H 0.33276 0.08162 0.46642 0.0
H161 H 0.39356 0.20512 0.51656 0.0
H162 H 0.3052 0.12159 0.4959 0.0
H163 H 0.54736 0.21803 0.47669 0.0
H164 H 0.46513 0.62733 0.62315 0.0
H165 H 0.6028 0.55217 0.61181 0.0
H166 H 0.61011 0.71314 0.57647 0.0
H167 H 0.5104 0.5505 0.63104 0.0
Tb168 Tb 0.22795 0.54314 0.69333 0.0
C169 C 0.16494 0.76652 0.68666 0.0
N170 N 0.18074 0.75899 0.70508 0.0
C171 C 0.20506 0.87288 0.71234 0.0
C172 C 0.16691 0.82709 0.68039 0.0
C173 C 0.20358 0.81234 0.71774 0.0
C174 C 0.18569 0.87998 0.69365 0.0
C175 C 0.14334 0.72427 0.65389 0.0
C176 C 0.153 0.71571 0.67374 0.0
C177 C 0.14071 0.78236 0.64771 0.0
C178 C 0.15253 0.83381 0.66096 0.0
Tb179 Tb 0.16248 0.65313 0.71384 0.0
N180 N 0.15874 0.66177 0.68027 0.0
C181 C 0.14086 0.67641 0.6407 0.0
C182 C 0.16445 0.62014 0.66698 0.0
C183 C 0.15372 0.62534 0.64722 0.0
H184 H 0.22007 0.80834 0.73213 0.0
H185 H 0.15721 0.59109 0.63693 0.0
H186 H 0.14897 0.4886 0.65011 0.0
H187 H 0.28824 0.40816 0.74849 0.0
H188 H 0.18053 0.58503 0.67122 0.0
H189 H 0.13346 0.6809 0.62537 0.0
H190 H 0.30574 0.50969 0.7305 0.0
H191 H 0.221 0.91394 0.72262 0.0
H192 H 0.13265 0.78934 0.63258 0.0
H193 H 0.15304 0.8796 0.65591 0.0
H194 H 1.08036 0.37811 0.63414 0.0
H195 H 0.1873 0.92704 0.68942 0.0
H196 H 0.19971 0.29429 0.73797 0.0
N197 N 0.1565 0.4455 0.67697 0.0
C198 C 0.14359 0.38736 0.68656 0.0
C199 C 0.09713 0.38004 0.64894 0.0
C200 C 0.10302 0.32308 0.67801 0.0
C201 C 0.13604 0.4426 0.65806 0.0
C202 C 1.07953 0.32006 0.65906 0.0
N203 N 0.22425 0.4547 0.71066 0.0
C204 C 0.26598 0.46065 0.72592 0.0
C205 C 0.16714 0.33259 0.71371 0.0
C206 C 0.17687 0.39212 0.70413 0.0
C207 C 0.20609 0.33887 0.7302 0.0
C208 C 0.25637 0.40305 0.73614 0.0
H209 H 1.04956 0.27177 0.65188 0.0
H210 H 1.0585 0.21424 0.68192 0.0
H211 H 0.11316 0.22251 0.71329 0.0
O212 O 0.30978 0.52415 0.68868 0.0
O213 O 0.17433 0.50272 0.72217 0.0
O214 O 0.10861 0.55401 0.72735 0.0
O215 O 0.2665 0.54814 0.66449 0.0
O216 O 0.29861 0.6053 0.71638 0.0
O217 O 0.23692 0.64405 0.73387 0.0
O218 O 0.08597 0.67541 0.72259 0.0
O219 O 0.27037 0.72473 0.70722 0.0
O220 O 0.29218 0.66124 0.68515 0.0
O221 O 0.16636 0.68857 0.74208 0.0
O222 O 1.06746 0.56247 0.70124 0.0
O223 O 0.1095 0.49488 0.68876 0.0
C224 C 0.12555 0.50783 0.73173 0.0
C225 C 0.31281 0.47089 0.65877 0.0
C226 C 0.35224 0.42455 0.63162 0.0
C227 C 0.3212 0.36145 0.64125 0.0
C228 C 0.28944 0.40798 0.66814 0.0
C229 C 0.2911 0.35366 0.65927 0.0
C230 C 0.34537 0.47919 0.64021 0.0
C231 C 0.28766 0.62985 0.73247 0.0
C232 C 0.30936 0.52773 0.66983 0.0
C233 C 0.09037 0.26396 0.68813 0.0
C234 C 0.12171 0.26868 0.70601 0.0
C235 C 0.30898 0.72311 0.69311 0.0
C236 C 1.05888 0.64898 0.75589 0.0
C237 C 0.94336 0.56766 0.76612 0.0
C238 C 0.96407 0.5855 0.78558 0.0
C239 C 1.0779 0.66652 0.77525 0.0
C240 C 0.99326 0.59658 0.75156 0.0
C241 C 1.03113 0.63339 0.79003 0.0
C242 C 1.05577 0.50458 0.69249 0.0
C243 C 0.10784 0.68635 0.74042 0.0
H244 H 0.32171 0.31761 0.63507 0.0
H245 H 0.27155 0.40057 0.68278 0.0
H246 H 0.27069 0.30537 0.66677 0.0
H247 H 0.36719 0.52795 0.63302 0.0
H248 H 0.9284 0.56592 0.79747 0.0
H249 H 0.12886 0.70599 0.77891 0.0
H250 H 0.9807 0.5808 0.73666 0.0
H251 H 1.04599 0.64723 0.80497 0.0
Tb252 Tb 0.72919 0.19763 0.85894 0.0
C253 C 0.43957 0.1363 0.86884 0.0
N254 N 0.47425 0.15174 0.88575 0.0
C255 C 0.39291 0.17869 0.89991 0.0
C256 C 0.37864 0.13922 0.86689 0.0
C257 C 0.45363 0.17597 0.90097 0.0
C258 C 0.35436 0.15867 0.88293 0.0
C259 C 0.4391 0.11557 0.83457 0.0
C260 C 0.46909 0.12412 0.85307 0.0
C261 C 0.37611 0.11392 0.83266 0.0
C262 C 0.34575 0.12552 0.84885 0.0
Tb263 Tb 0.56688 0.13539 0.88732 0.0
N264 N 0.53099 0.12842 0.85555 0.0
C265 C 0.47517 0.11304 0.81846 0.0
C266 C 0.56837 0.13208 0.83964 0.0
C267 C 0.54093 0.12317 0.82097 0.0
H268 H 0.48341 0.19253 0.91409 0.0
H269 H 0.57101 0.12567 0.80847 0.0
H270 H 0.66542 0.11041 0.81734 0.0
H271 H 0.96382 0.26395 0.89729 0.0
H272 H 0.62014 0.14458 0.84119 0.0
H273 H 0.45437 0.10716 0.80398 0.0
H274 H 0.86379 0.27557 0.889 0.0
H275 H 0.37598 0.19636 0.91216 0.0
H276 H 0.35191 0.10653 0.81862 0.0
H277 H 0.29841 0.12654 0.84708 0.0
H278 H 0.69221 1.04061 0.79557 0.0
H279 H 0.30735 0.16074 0.88216 0.0
H280 H 0.98675 0.18203 0.87975 0.0
N281 N 0.74113 0.12471 0.8382 0.0
C282 C 0.79609 0.11643 0.84218 0.0
C283 C 0.72129 0.06093 0.80873 0.0
C284 C 0.81258 0.07599 0.83014 0.0
C285 C 0.70636 0.1008 0.8211 0.0
C286 C 0.77378 1.04739 0.81345 0.0
N287 N 0.82738 0.19792 0.86745 0.0
C288 C 0.87206 0.2386 0.88137 0.0
C289 C 0.89744 0.14618 0.8615 0.0
C290 C 0.83933 0.15269 0.85748 0.0
C291 C 0.94178 0.18583 0.87622 0.0
C292 C 0.92921 0.23244 0.8861 0.0
H293 H 0.78519 1.01643 0.80382 0.0
H294 H 0.88202 1.0366 0.82556 0.0
H295 H 0.95513 0.09642 0.85327 0.0
O296 O 0.82467 0.26612 0.84546 0.0
O297 O 0.73406 0.1578 0.88873 0.0
O298 O 0.62163 0.08169 0.89441 0.0
O299 O 0.73012 0.2502 0.83353 0.0
O300 O 0.75381 0.26618 0.88459 0.0
O301 O 0.65556 0.21772 0.90346 0.0
O302 O 0.47859 0.05965 0.90109 0.0
O303 O 0.59516 0.24116 0.87922 0.0
O304 O 0.67282 0.2617 0.85478 0.0
O305 O 0.55819 0.14102 0.91734 0.0
O306 O 0.55657 1.04005 0.87223 0.0
O307 O 0.65905 0.07956 0.85586 0.0
C308 C 0.68573 0.10511 0.89839 0.0
C309 C 0.82066 0.27876 0.81016 0.0
C310 C 0.90734 0.32119 0.78326 0.0
C311 C 0.85584 0.2757 0.77079 0.0
C312 C 0.77177 0.23808 0.79633 0.0
C313 C 0.78938 0.23538 0.7772 0.0
C314 C 0.88917 0.32247 0.80327 0.0
C315 C 0.72102 0.2632 0.90094 0.0
C316 C 0.79617 0.27912 0.8308 0.0
C317 C 0.86905 0.06781 0.83458 0.0
C318 C 0.91091 0.10222 0.85031 0.0
C319 C 0.62993 0.27834 0.86419 0.0
C320 C 0.50867 1.033 0.93176 0.0
C321 C 0.47554 0.9161 0.94079 0.0
C322 C 0.51936 0.94025 0.95684 0.0
C323 C 0.55272 1.05618 0.94783 0.0
C324 C 0.47028 0.96305 0.92844 0.0
C325 C 0.55789 1.00994 0.96026 0.0
C326 C 0.59785 1.02695 0.86106 0.0
C327 C 0.50402 0.08163 0.91827 0.0
H328 H 0.86607 0.27335 0.75557 0.0
H329 H 0.71853 0.20878 0.80008 0.0
H330 H 0.75043 0.20281 0.76703 0.0
H331 H 0.9274 0.35733 0.81323 0.0
H332 H 0.5232 0.90534 0.96686 0.0
H333 H 0.58322 0.11 0.9508 0.0
H334 H 0.43452 0.94511 0.91648 0.0
H335 H 0.59172 1.02817 0.97263 0.0
Tb336 Tb 0.59877 0.71519 0.02606 0.0
C337 C 0.36938 0.42795 0.03703 0.0
N338 N 0.38715 0.46778 0.05298 0.0
C339 C 0.27731 0.3954 0.06701 0.0
C340 C 0.30526 0.36891 0.03562 0.0
C341 C 0.34094 0.45419 0.06754 0.0
C342 C 0.26006 0.35169 0.05118 0.0
C343 C 0.39262 0.41564 1.00355 0.0
C344 C 0.41294 0.45066 1.02134 0.0
C345 C 0.33089 0.35422 1.00241 0.0
C346 C 0.28728 0.33078 1.01846 0.0
Tb347 Tb 0.49893 0.55062 0.05419 0.0
N348 N 0.47112 0.51139 0.02289 0.0
C349 C 0.43276 0.4456 0.98718 0.0
C350 C 0.50497 0.54397 1.00651 0.0
C351 C 0.48801 0.51111 0.98855 0.0
H352 H 0.35321 0.48806 0.07976 0.0
H353 H 0.51635 0.53688 0.97568 0.0
H354 H 0.59417 0.65613 0.98072 0.0
H355 H 0.80227 0.91064 0.06856 0.0
H356 H 0.54221 0.59607 1.00705 0.0
H357 H 0.41893 0.42067 0.97322 0.0
H358 H 0.68238 0.82638 0.06163 0.0
H359 H 0.2417 0.38386 0.07881 0.0
H360 H 0.31499 0.32617 0.98895 0.0
H361 H 0.23851 0.28485 1.01717 0.0
H362 H 0.67826 0.67457 0.95531 0.0
H363 H 0.21091 0.30612 0.05081 0.0
H364 H 0.89259 0.92875 0.04513 0.0
N365 N 0.66832 0.72158 1.00111 0.0
C366 C 0.73516 0.76846 1.00415 0.0
C367 C 0.6949 0.70056 0.96905 0.0
C368 C 0.78443 0.78167 0.98971 0.0
C369 C 0.64749 0.68913 0.98363 0.0
C370 C 0.76363 0.74665 0.97213 0.0
N371 N 0.70554 0.79499 0.03492 0.0
C372 C 0.72169 0.83347 0.05142 0.0
C373 C 0.82306 0.8536 0.02488 0.0
C374 C 0.75434 0.80476 1.02161 0.0
C375 C 0.8403 0.89099 0.04212 0.0
C376 C 0.78941 0.88109 0.05538 0.0
H377 H 0.80012 0.7556 0.96072 0.0
H378 H 0.89071 0.84144 0.98197 0.0
H379 H 0.92501 0.90297 1.01286 0.0
O380 O 0.61468 0.81552 0.02515 0.0
O381 O 0.66085 0.69912 0.04923 0.0
O382 O 0.58239 0.626 0.07093 0.0
O383 O 0.58806 0.75741 0.99919 0.0
O384 O 0.55977 0.73773 0.05318 0.0
O385 O 0.5006 0.63695 0.07077 0.0
O386 O 0.50695 0.46518 0.06315 0.0
O387 O 0.42232 0.57956 0.04457 0.0
O388 O 0.48048 0.65482 1.01962 0.0
O389 O 0.46915 0.51293 0.08234 0.0
O390 O 0.59136 0.54937 0.04056 0.0
O391 O 0.64559 0.64488 1.02087 0.0
C392 C 0.64522 0.66655 0.06607 0.0
C393 C 0.66343 0.88044 0.99583 0.0
C394 C 0.7072 0.96611 0.96872 0.0
C395 C 0.76914 1.00056 0.9789 0.0
C396 C 0.72422 0.92252 1.00578 0.0
C397 C 0.77699 0.97966 0.99719 0.0
C398 C 0.65485 0.9033 0.97701 0.0
C399 C 0.52518 0.70384 0.06878 0.0
C400 C 0.60876 0.81778 1.00638 0.0
C401 C 0.85268 0.83013 0.99306 0.0
C402 C 0.87208 0.8654 1.01063 0.0
C403 C 0.42095 0.61384 0.02911 0.0
C404 C 0.54109 0.47628 0.09607 0.0
C405 C 0.62939 0.45085 0.10729 0.0
C406 C 0.63852 0.49033 0.12389 0.0
C407 C 0.55005 0.51431 0.11301 0.0
C408 C 0.5804 0.44435 0.09347 0.0
C409 C 0.59842 0.52107 0.12679 0.0
C410 C 0.64194 0.58769 0.02822 0.0
C411 C 0.49161 0.47024 0.081 0.0
H412 H 0.81211 1.04547 0.97294 0.0
H413 H 0.73153 0.91233 1.02054 0.0
H414 H 0.82413 1.00924 1.00504 0.0
H415 H 0.60751 0.87381 0.96931 0.0
H416 H 0.67537 0.49615 0.13486 0.0
H417 H 0.52012 0.53925 0.1156 0.0
H418 H 0.57055 0.41212 0.08093 0.0
H419 H 0.60499 0.55047 0.13977 0.0
Tb420 Tb 0.95367 0.57747 0.19523 0.0
C421 C 1.03303 0.36043 0.19531 0.0
N422 N 1.01661 0.371 0.21331 0.0
C423 C 0.99855 0.26096 0.2232 0.0
C424 C 1.03568 0.30083 0.19067 0.0
C425 C 0.99627 0.32071 0.22701 0.0
C426 C 1.01976 0.25156 0.20506 0.0
C427 C 1.04943 0.39349 0.16162 0.0
C428 C 1.03953 0.40591 0.18108 0.0
C429 C 1.05756 0.33718 0.15709 0.0
C430 C 1.05052 0.29073 0.17162 0.0
Tb431 Tb 1.0219 0.47382 0.21904 0.0
N432 N 1.02805 0.45772 0.18602 0.0
C433 C 1.04661 0.43546 0.14716 0.0
C434 C 1.0185 0.49388 0.17162 0.0
C435 C 1.02927 0.4848 0.15217 0.0
H436 H 0.97803 0.32593 0.24098 0.0
H437 H 1.02265 0.51489 0.141 0.0
H438 H 1.02939 0.62751 0.1517 0.0
H439 H 0.89092 0.71884 0.24723 0.0
H440 H 1.00036 0.52825 0.17481 0.0
H441 H 1.05376 0.42762 0.13206 0.0
H442 H 0.8722 0.61558 0.23014 0.0
H443 H 0.98344 0.22197 0.23422 0.0
H444 H 1.06595 0.32733 0.14228 0.0
H445 H 1.05366 0.24575 0.16782 0.0
H446 H 0.09825 0.73664 0.13474 0.0
H447 H 1.0209 0.20499 0.20206 0.0
H448 H 0.98364 0.83113 0.23692 0.0
N449 N 1.02673 0.67355 0.17843 0.0
C450 C 1.0415 0.73271 0.18761 0.0
C451 C 1.08344 0.7362 0.14967 0.0
C452 C 1.08262 0.79614 0.17856 0.0
C453 C 1.04436 0.67448 0.15933 0.0
C454 C 0.10408 0.79726 0.15947 0.0
N455 N 0.95717 0.66804 0.21115 0.0
C456 C 0.91364 0.66399 0.22566 0.0
C457 C 1.01727 0.79021 0.2137 0.0
C458 C 1.00685 0.72972 0.20472 0.0
C459 C 0.97673 0.78576 0.22959 0.0
C460 C 0.92402 0.72251 0.23538 0.0
H461 H 0.13442 0.8449 0.15192 0.0
H462 H 0.12875 0.90534 0.18166 0.0
H463 H 1.07373 0.90022 0.21266 0.0
O464 O 0.87519 0.60006 0.18855 0.0
O465 O 0.99859 0.61434 0.2251 0.0
O466 O 1.07712 0.57845 0.22831 0.0
O467 O 0.9131 0.56212 0.16637 0.0
O468 O 0.88085 0.51784 0.2184 0.0
O469 O 0.94185 0.48069 0.237 0.0
O470 O 0.10093 0.46508 0.23311 0.0
O471 O 0.91701 0.39722 0.21058 0.0
O472 O 0.88929 0.45867 0.18898 0.0
O473 O 1.00785 0.44213 0.2479 0.0
O474 O 0.11634 0.56238 0.20506 0.0
O475 O 1.07225 0.62481 0.19012 0.0
C476 C 1.05349 0.61822 0.23354 0.0
C477 C 0.872 0.6401 0.1564 0.0
C478 C 0.83108 0.67616 0.12729 0.0
C479 C 0.87216 0.74392 0.1329 0.0
C480 C 0.90652 0.70874 0.16192 0.0
C481 C 0.90887 0.75987 0.15008 0.0
C482 C 0.83204 0.62364 0.13896 0.0
C483 C 0.89019 0.4932 0.23482 0.0
C484 C 0.87299 0.5874 0.1701 0.0
C485 C 0.09639 0.85625 0.18819 0.0
C486 C 1.06461 0.8533 0.20584 0.0
C487 C 0.87597 0.39769 0.19691 0.0
C488 C 0.10826 0.50478 0.26566 0.0
C489 C 0.21491 0.58851 0.28045 0.0
C490 C 0.17865 0.59712 0.29566 0.0
C491 C 1.07263 0.51442 0.28101 0.0
C492 C 0.17946 0.54277 0.26542 0.0
C493 C 0.10766 0.56086 0.29574 0.0
C494 C 0.12696 0.61716 0.19454 0.0
C495 C 1.07085 0.45618 0.2499 0.0
H496 H 0.87253 0.78481 0.1245 0.0
H497 H 0.92984 0.72343 0.17586 0.0
H498 H 0.93716 0.81233 0.15471 0.0
H499 H 0.80053 0.57095 0.13492 0.0
H500 H 0.2053 0.63068 0.30761 0.0
H501 H 1.01764 0.4858 0.28174 0.0
H502 H 0.2076 0.53445 0.254 0.0
H503 H 1.07972 0.56767 0.30748 0.0
Tb504 Tb 0.20653 0.68414 0.51434 0.0
C505 C 0.1636 0.40279 0.47916 0.0
N506 N 0.18751 0.46216 0.46936 0.0
C507 C 0.25257 0.43082 0.44852 0.0
C508 C 0.18339 0.35455 0.47402 0.0
C509 C 0.23114 0.47694 0.45414 0.0
C510 C 0.22809 0.36906 0.45841 0.0
C511 C 0.09571 0.33082 0.5055 0.0
C512 C 0.11997 0.39121 0.49454 0.0
C513 C 0.11438 0.28194 0.50033 0.0
C514 C 0.15766 0.29354 0.48452 0.0
Tb515 Tb 0.14051 0.52787 0.47677 0.0
N516 N 0.10229 0.43948 0.49888 0.0
C517 C 1.05337 0.32121 0.52133 0.0
C518 C 1.06162 0.43018 0.51461 0.0
C519 C 1.03673 0.37136 0.52597 0.0
H520 H 0.24858 0.52394 0.44619 0.0
H521 H 1.00495 0.36502 0.53842 0.0
H522 H 0.19609 0.5324 0.52879 0.0
H523 H 1.07056 0.81032 0.53943 0.0
H524 H 1.04919 0.46801 0.51922 0.0
H525 H 1.03386 0.27569 0.53015 0.0
H526 H 0.13814 0.78496 0.51604 0.0
H527 H 0.28705 0.44243 0.43642 0.0
H528 H 0.09559 0.23497 0.50845 0.0
H529 H 0.17092 0.25504 0.48056 0.0
H530 H 0.15489 0.45906 0.55691 0.0
H531 H 0.24358 0.33281 0.45383 0.0
H532 H 1.02832 0.74229 0.56954 0.0
N533 N 0.15819 0.59846 0.53735 0.0
C534 C 0.12077 0.60925 0.55113 0.0
C535 C 0.14536 0.50154 0.55555 0.0
C536 C 0.09473 0.56672 0.56755 0.0
C537 C 0.17007 0.54485 0.53948 0.0
C538 C 0.10775 0.51255 0.56966 0.0
N539 N 0.13304 0.70298 0.53264 0.0
C540 C 0.11861 0.75414 0.52894 0.0
C541 C 1.06918 0.67597 0.56243 0.0
C542 C 0.10794 0.66333 0.54872 0.0
C543 C 1.05672 0.7302 0.55915 0.0
C544 C 1.08065 0.76879 0.5422 0.0
H545 H 0.08868 0.47872 0.58204 0.0
H546 H 1.03705 0.54785 0.59415 0.0
H547 H 1.01469 0.6434 0.58964 0.0
O548 O 0.25396 0.7897 0.52227 0.0
O549 O 0.1643 0.71669 0.48906 0.0
O550 O 0.1483 0.6193 0.4845 0.0
O551 O 0.28255 0.7243 0.53611 0.0
O552 O 0.27087 0.714 0.48647 0.0
O553 O 0.23267 0.6196 0.46531 0.0
O554 O 1.06345 0.4549 0.45929 0.0
O555 O 0.23618 0.54087 0.49133 0.0
O556 O 0.27622 0.63472 0.51227 0.0
O557 O 0.14154 0.54725 0.44685 0.0
O558 O 1.04693 0.52613 0.49117 0.0
O559 O 0.087 0.6168 0.51348 0.0
C560 C 0.13518 0.66519 0.47735 0.0
C561 C 0.28897 0.81411 0.55621 0.0
C562 C 0.33218 0.90381 0.58193 0.0
C563 C 0.27676 0.86005 0.59351 0.0
C564 C 0.24259 0.77032 0.57003 0.0
C565 C 0.23357 0.79358 0.58781 0.0
C566 C 0.33729 0.88125 0.56278 0.0
C567 C 0.27471 0.68491 0.46973 0.0
C568 C 0.29014 0.78515 0.5363 0.0
C569 C 1.0569 0.57977 0.58141 0.0
C570 C 1.04422 0.63424 0.57887 0.0
C571 C 0.28307 0.58399 0.50378 0.0
C572 C 1.03533 0.495 0.43077 0.0
C573 C 0.91629 0.4535 0.42192 0.0
C574 C 0.93777 0.48428 0.40362 0.0
C575 C 1.05568 0.52637 0.41258 0.0
C576 C 0.96598 0.46003 0.43544 0.0
C577 C 1.00706 0.52162 0.39917 0.0
C578 C 1.03467 0.56239 0.50474 0.0
C579 C 0.08567 0.49125 0.44362 0.0
H580 H 0.27122 0.87498 0.60802 0.0
H581 H 0.2155 0.71677 0.56759 0.0
H582 H 0.1953 0.75853 0.59776 0.0
H583 H 0.37977 0.91402 0.55358 0.0
H584 H 0.90121 0.47931 0.39265 0.0
H585 H 0.10905 0.5532 0.40858 0.0
H586 H 0.95065 0.43348 0.44917 0.0
H587 H 1.02301 0.54552 0.3851 0.0
Tb588 Tb 0.5791 0.19039 0.67649 0.0
C589 C 0.80742 0.12585 0.66988 0.0
N590 N 0.79259 0.14364 0.65256 0.0
C591 C 0.90281 0.16875 0.64057 0.0
C592 C 0.86977 0.12664 0.67312 0.0
C593 C 0.8409 0.16843 0.63825 0.0
C594 C 0.91666 0.14619 0.65794 0.0
C595 C 0.77996 0.10362 0.70382 0.0
C596 C 0.76296 0.11395 0.68486 0.0
C597 C 0.83971 0.09981 0.70698 0.0
C598 C 0.88457 0.11115 0.69161 0.0
Tb599 Tb 0.68515 0.13036 0.64892 0.0
N600 N 0.7071 0.12046 0.6812 0.0
C601 C 0.73877 0.10177 0.71916 0.0
C602 C 0.67059 0.12424 0.69637 0.0
C603 C 0.68489 0.11406 0.71546 0.0
H604 H 0.83225 0.18786 0.62487 0.0
H605 H 0.65534 0.11711 0.72737 0.0
H606 H 0.54592 0.08873 0.71605 0.0
H607 H 0.42023 0.26591 0.63598 0.0
H608 H 0.63213 0.13749 0.69387 0.0
H609 H 0.75035 0.09478 0.73395 0.0
H610 H 0.52867 0.27327 0.64541 0.0
H611 H 0.94 0.18686 0.629 0.0
H612 H 0.85312 0.09111 0.72139 0.0
H613 H 0.93188 0.11088 0.69435 0.0
H614 H 0.44657 1.01846 0.73646 0.0
H615 H 0.96473 0.14671 0.65974 0.0
H616 H 0.31423 0.18765 0.65307 0.0
N617 N 0.49095 0.11483 0.69573 0.0
C618 C 0.42992 0.11109 0.69148 0.0
C619 C 0.44102 1.04359 0.72376 0.0
C620 C 0.37153 0.07063 0.70282 0.0
C621 C 0.49736 0.08362 0.71212 0.0
C622 C 0.37776 1.03658 0.71901 0.0
N623 N 0.48445 0.19528 0.66693 0.0
C624 C 0.48295 0.2374 0.65281 0.0
C625 C 0.36355 0.14783 0.67192 0.0
C626 C 0.42628 0.15097 0.67643 0.0
C627 C 0.36156 0.18916 0.65706 0.0
C628 C 0.42143 0.23392 0.64748 0.0
H629 H 0.33442 1.00605 0.72821 0.0
H630 H 0.26407 1.0364 0.7067 0.0
H631 H 0.25656 0.10202 0.67932 0.0
O632 O 0.55341 0.2614 0.68935 0.0
O633 O 0.53014 0.14525 0.64748 0.0
O634 O 0.58075 0.08091 0.63952 0.0
O635 O 0.61806 0.23116 0.70416 0.0
O636 O 0.6261 0.26128 0.65167 0.0
O637 O 0.67186 0.20906 0.63252 0.0
O638 O 0.69684 1.05419 0.63449 0.0
O639 O 0.75991 0.23501 0.65752 0.0
O640 O 0.69895 0.25684 0.68064 0.0
O641 O 0.71281 0.14489 0.61971 0.0
O642 O 0.59888 1.0328 0.6626 0.0
O643 O 0.5331 0.07199 0.67795 0.0
C644 C 0.53288 0.09708 0.63697 0.0
C645 C 0.55083 0.26294 0.72487 0.0
C646 C 0.50342 0.30838 0.75008 0.0
C647 C 0.48723 0.2506 0.76135 0.0
C648 C 0.54123 0.21186 0.73825 0.0
C649 C 0.50702 0.20377 0.75566 0.0
C650 C 0.53427 0.31384 0.73139 0.0
C651 C 0.65214 0.25529 0.63504 0.0
C652 C 0.58535 0.26578 0.70554 0.0
C653 C 0.30921 0.06718 0.69814 0.0
C654 C 0.30503 0.10491 0.68261 0.0
C655 C 0.75963 0.27285 0.67202 0.0
C656 C 0.65579 1.04395 0.60204 0.0
C657 C 0.56965 0.93477 0.58924 0.0
C658 C 0.55751 0.9682 0.57382 0.0
C659 C 0.64323 0.07671 0.58642 0.0
C660 C 0.6197 0.97307 0.60307 0.0
C661 C 0.5943 1.03894 0.57246 0.0
C662 C 0.54256 1.01928 0.67283 0.0
C663 C 0.70353 0.08371 0.6177 0.0
H664 H 0.46434 0.24472 0.77553 0.0
H665 H 0.56247 0.17897 0.73571 0.0
H666 H 0.49878 0.16253 0.76533 0.0
H667 H 0.54785 0.35827 0.7225 0.0
H668 H 0.51925 0.93977 0.56299 0.0
H669 H 0.67068 0.13154 0.58508 0.0
H670 H 0.63075 0.94757 0.61471 0.0
H671 H 0.58463 0.06464 0.56061 0.0
Tb672 Tb 0.42969 0.54953 0.84105 0.0
C673 C 0.72238 0.76756 0.84241 0.0
N674 N 0.69542 0.75797 0.82442 0.0
C675 C 0.78547 0.86816 0.81485 0.0
C676 C 0.78365 0.82669 0.84718 0.0
C677 C 0.72444 0.80879 0.81089 0.0
C678 C 0.81607 0.87649 0.83296 0.0
C679 C 0.70693 0.73263 0.87593 0.0
C680 C 0.68453 0.72131 0.85647 0.0
C681 C 0.77039 0.78852 0.88058 0.0
C682 C 0.80871 0.83567 0.8662 0.0
Tb683 Tb 0.60125 0.6547 0.81826 0.0
N684 N 0.62229 0.66975 0.8514 0.0
C685 C 0.66321 0.68997 0.89028 0.0
C686 C 0.57744 0.63297 0.86576 0.0
C687 C 0.59743 0.64108 0.8852 0.0
H688 H 0.70109 0.80419 0.79692 0.0
H689 H 0.56152 0.61056 0.89632 0.0
H690 H 0.4575 0.50507 0.88552 0.0
H691 H 0.23459 0.40147 0.78802 0.0
H692 H 0.52541 0.59879 0.8626 0.0
H693 H 0.67826 0.69698 0.90538 0.0
H694 H 0.31637 0.50713 0.80436 0.0
H695 H 0.80869 0.90755 0.80395 0.0
H696 H 0.78873 0.79747 0.89538 0.0
H697 H 0.85612 0.88026 0.87009 0.0
H698 H 0.41867 0.39827 0.90377 0.0
H699 H 0.86317 0.92256 0.83605 0.0
H700 H 0.21503 0.29056 0.80049 0.0
N701 N 0.40764 0.45582 0.85929 0.0
C702 C 0.36409 0.39555 0.85065 0.0
C703 C 0.40366 0.39684 0.8888 0.0
C704 C 0.34247 0.33336 0.8605 0.0
C705 C 0.42552 0.45724 0.8784 0.0
C706 C 0.36318 0.33465 0.87971 0.0
N707 N 0.34716 0.45702 0.8251 0.0
C708 C 0.30917 0.4592 0.8098 0.0
C709 C 0.2865 0.33454 0.82419 0.0
C710 C 0.33491 0.39621 0.83277 0.0
C711 C 0.2522 0.33688 0.80752 0.0
C712 C 0.26272 0.39938 0.8005 0.0
H713 H 0.34654 0.28804 0.88784 0.0
H714 H 0.28089 0.2239 0.85865 0.0
H715 H 0.23367 0.22478 0.82672 0.0
O716 O 0.32934 0.53151 0.84524 0.0
O717 O 0.44114 0.50698 0.81211 0.0
O718 O 0.55633 0.55162 0.80863 0.0
O719 O 0.39602 0.55909 0.86944 0.0
O720 O 0.41726 0.60917 0.8177 0.0
O721 O 0.51466 0.64432 0.79945 0.0
O722 O 0.69038 0.664 0.80514 0.0
O723 O 0.56818 0.72905 0.82561 0.0
O724 O 0.48474 0.66818 0.84829 0.0
O725 O 0.62169 0.6877 0.78954 0.0
O726 O 0.60693 0.5653 0.83247 0.0
O727 O 0.50103 0.50239 0.84702 0.0
C728 C 0.49458 0.50693 0.80384 0.0
C729 C 0.27432 0.48207 0.87553 0.0
C730 C 0.18967 0.4384 0.90285 0.0
C731 C 0.16072 0.37375 0.89422 0.0
C732 C 0.23709 0.41772 0.86699 0.0
C733 C 0.18338 0.36399 0.87648 0.0
C734 C 0.24937 0.49252 0.8937 0.0
C735 C 0.45074 0.6319 0.8013 0.0
C736 C 0.33315 0.53771 0.86401 0.0
C737 C 0.29747 0.27204 0.85139 0.0
C738 C 0.27031 0.27258 0.83319 0.0
C739 C 0.5298 0.72909 0.84001 0.0
C740 C 0.66188 0.62454 0.77254 0.0
C741 C 0.6904 0.54309 0.75817 0.0
C742 C 0.64178 0.52872 0.74361 0.0
C743 C 0.61311 0.60942 0.75779 0.0
C744 C 0.70005 0.59076 0.77262 0.0
C745 C 0.60274 0.56134 0.74359 0.0
C746 C 0.56332 0.51039 0.84283 0.0
C747 C 0.67086 0.67335 0.78811 0.0
H748 H 0.11871 0.32993 0.90095 0.0
H749 H 0.24778 0.40856 0.85256 0.0
H750 H 0.15765 0.31445 0.8697 0.0
H751 H 0.27463 0.54241 0.9002 0.0
H752 H 0.63478 0.49305 0.73219 0.0
H753 H 0.58289 0.63471 0.75717 0.0
H754 H 0.73894 0.60315 0.78358 0.0
H755 H 0.5651 0.55016 0.73237 0.0
Tb756 Tb 0.95187 0.41842 1.01052 0.0
C757 C 1.01452 0.70675 1.00313 0.0
N758 N 0.99799 0.67409 0.98593 0.0
C759 C 0.97188 0.75787 0.97306 0.0
C760 C 1.01255 0.7677 1.00588 0.0
C761 C 0.97377 0.69704 0.97118 0.0
C762 C 0.993 0.79426 0.99036 0.0
C763 C 1.03775 0.70371 0.03714 0.0
C764 C 1.02745 0.6755 1.01839 0.0
C765 C 1.04 0.76652 0.03983 0.0
C766 C 1.02752 0.7986 0.02418 0.0
Tb767 Tb 1.01457 0.58205 0.98296 0.0
N768 N 1.02268 0.61394 1.01517 0.0
C769 C 1.04165 0.66623 0.05275 0.0
C770 C 1.0203 0.57523 0.03065 0.0
C771 C 1.03107 0.60085 0.04953 0.0
H772 H 0.95659 0.66911 0.9578 0.0
H773 H 1.02985 0.56963 0.06163 0.0
H774 H 1.05197 0.47791 0.05038 0.0
H775 H 0.86966 0.18786 0.96885 0.0
H776 H 1.0078 0.52392 0.02866 0.0
H777 H 1.04909 0.68573 0.06739 0.0
H778 H 0.86473 0.28897 0.9792 0.0
H779 H 0.95418 0.77664 0.96118 0.0
H780 H 1.04864 0.7893 0.05408 0.0
H781 H 1.02688 0.84577 0.02655 0.0
H782 H 0.1167 0.44053 0.07103 0.0
H783 H 0.99213 0.84161 0.9918 0.0
H784 H 0.94682 0.15497 0.98517 0.0
N785 N 1.02522 0.39961 0.02945 0.0
C786 C 1.02757 0.34206 0.0247 0.0
C787 C 0.0925 0.41284 0.05796 0.0
C788 C 1.06584 0.32019 0.03595 0.0
C789 C 1.05518 0.4335 0.04628 0.0
C790 C 0.09836 0.35637 0.05268 0.0
N791 N 0.94377 0.31846 1.00032 0.0
C792 C 0.90047 0.27725 0.98623 0.0
C793 C 0.98876 0.24158 1.00445 0.0
C794 C 0.98741 0.30164 1.00942 0.0
C795 C 0.94663 0.20102 0.98951 0.0
C796 C 0.90245 0.21902 0.98038 0.0
H797 H 0.12645 0.33998 0.06194 0.0
H798 H 0.09715 0.24376 0.03915 0.0
H799 H 1.03192 0.17662 1.01125 0.0
O800 O 0.88275 0.32394 0.02432 0.0
O801 O 0.99334 0.41481 0.98096 0.0
O802 O 1.06724 0.52766 0.97456 0.0
O803 O 0.90719 0.41915 0.03732 0.0
O804 O 0.88017 0.39784 0.98578 0.0
O805 O 0.93471 0.49362 0.96618 0.0
O806 O 0.09123 0.67132 0.96985 0.0
O807 O 0.90821 0.55277 0.99076 0.0
O808 O 0.88881 0.47577 1.0153 0.0
O809 O 1.00799 0.59581 0.9532 0.0
O810 O 0.11041 0.59112 0.99757 0.0
O811 O 1.07059 0.48668 1.01272 0.0
C812 C 1.04529 0.46352 0.97113 0.0
C813 C 0.8819 0.32717 0.05988 0.0
C814 C 0.84443 0.2416 0.08693 0.0
C815 C 0.90091 0.28893 0.09761 0.0
C816 C 0.93034 0.37412 0.07278 0.0
C817 C 0.94217 0.35447 0.09081 0.0
C818 C 0.83654 0.26008 0.06743 0.0
C819 C 0.88656 0.42942 0.96896 0.0
C820 C 0.87605 0.35305 0.03983 0.0
C821 C 1.06795 0.26114 0.03073 0.0
C822 C 1.03037 0.22256 1.01488 0.0
C823 C 0.87173 0.51861 1.00595 0.0
C824 C 0.11601 0.64351 0.93874 0.0
C825 C 0.23248 0.67543 0.92942 0.0
C826 C 0.20733 0.63045 0.9137 0.0
C827 C 0.09171 0.59804 0.92304 0.0
C828 C 0.18631 0.68207 0.9417 0.0
C829 C 0.13724 0.59169 0.91063 0.0
C830 C 0.12342 0.54815 1.00799 0.0
C831 C 1.06843 0.64859 0.95252 0.0
H832 H 0.90992 0.27687 0.11217 0.0
H833 H 0.95929 0.42735 0.06916 0.0
H834 H 0.98195 0.39146 0.1 0.0
H835 H 0.79418 0.22446 0.05869 0.0
H836 H 0.24175 0.62557 0.90376 0.0
H837 H 1.03759 0.56718 0.92038 0.0
H838 H 0.20514 0.71864 0.9534 0.0
H839 H 0.11815 0.55667 0.89859 0.0
Tb840 Tb 0.60268 0.9307 0.1787 0.0
C841 C 0.37557 0.99692 0.17221 0.0
N842 N 0.39225 0.98153 0.15486 0.0
C843 C 0.28355 0.95806 0.14204 0.0
C844 C 0.31288 0.99561 0.17508 0.0
C845 C 0.34587 0.95906 0.14005 0.0
C846 C 0.26763 0.97796 0.1595 0.0
C847 C 0.40054 1.01681 0.20633 0.0
C848 C 0.41894 1.00779 0.18747 0.0
C849 C 0.34019 1.01974 0.20917 0.0
C850 C 0.29639 1.00924 0.19353 0.0
Tb851 Tb 0.49981 0.99561 0.15191 0.0
N852 N 0.47556 1.00236 0.1841 0.0
C853 C 0.44136 1.01887 0.22186 0.0
C854 C 0.51153 0.99835 0.19945 0.0
C855 C 0.49621 1.00788 0.21843 0.0
H856 H 0.35669 0.9423 0.12655 0.0
H857 H 0.52595 1.00547 0.23044 0.0
H858 H 0.63924 1.02366 0.21968 0.0
H859 H 0.75145 0.84379 0.13793 0.0
H860 H 0.55063 0.98585 0.19721 0.0
H861 H 0.42896 1.02535 0.23658 0.0
H862 H 0.64567 0.84056 0.14813 0.0
H863 H 0.24778 0.94178 0.13011 0.0
H864 H 0.32565 1.0274 0.22351 0.0
H865 H 0.24878 1.00911 0.19601 0.0
H866 H 0.74123 0.09168 0.23958 0.0
H867 H 0.21945 0.97736 0.16096 0.0
H868 H 0.86085 0.9244 0.15314 0.0
N869 N 0.69253 1.00144 0.19796 0.0
C870 C 0.75284 1.00545 0.19273 0.0
C871 C 0.74531 0.06825 0.22637 0.0
C872 C 0.81271 1.04527 0.20352 0.0
C873 C 0.68747 1.02913 0.21514 0.0
C874 C 0.80844 0.07754 0.22033 0.0
N875 N 0.69422 0.9213 0.16859 0.0
C876 C 0.69272 0.8771 0.15478 0.0
C877 C 0.81558 0.96755 0.17217 0.0
C878 C 0.75397 0.9655 0.1774 0.0
C879 C 0.81454 0.92419 0.15755 0.0
C880 C 0.75283 0.87845 0.14896 0.0
H881 H 0.85324 0.10817 0.22903 0.0
H882 H 0.92092 0.08043 0.20573 0.0
H883 H 0.92369 1.01352 0.17812 0.0
O884 O 0.62863 0.86099 0.19266 0.0
O885 O 0.65216 0.97818 0.1498 0.0
O886 O 0.60471 1.04633 0.14312 0.0
O887 O 0.55626 0.88544 0.20525 0.0
O888 O 0.55457 0.86182 0.15367 0.0
O889 O 0.51012 0.91662 0.13491 0.0
O890 O 0.48886 0.07438 0.13874 0.0
O891 O 0.4235 0.89003 0.15969 0.0
O892 O 0.48299 0.86537 0.18268 0.0
O893 O 0.47819 0.98894 0.12227 0.0
O894 O 0.58592 0.09039 0.16662 0.0
O895 O 0.6505 1.04888 0.18161 0.0
C896 C 0.65079 1.02845 0.13984 0.0
C897 C 0.61854 0.85483 0.22823 0.0
C898 C 0.66357 0.81134 0.25497 0.0
C899 C 0.66047 0.85928 0.26731 0.0
C900 C 0.61346 0.89813 0.24196 0.0
C901 C 0.6356 0.90148 0.26093 0.0
C902 C 0.64227 0.80944 0.23511 0.0
C903 C 0.52828 0.86909 0.1372 0.0
C904 C 0.59104 0.85331 0.20785 0.0
C905 C 0.87439 1.04933 0.19776 0.0
C906 C 0.87591 1.01101 0.18206 0.0
C907 C 0.42279 0.8506 0.174 0.0
C908 C 0.54137 0.09585 0.10762 0.0
C909 C 0.63045 0.2096 0.09844 0.0
C910 C 0.64929 0.18162 0.08307 0.0
C911 C 0.56138 0.06878 0.0922 0.0
C912 C 0.57585 0.16619 0.11048 0.0
C913 C 0.61509 0.11152 0.08007 0.0
C914 C 0.64164 0.10236 0.17695 0.0
C915 C 0.48802 1.05067 0.12145 0.0
H916 H 0.67417 0.86218 0.28246 0.0
H917 H 0.59053 0.92903 0.23828 0.0
H918 H 0.6315 0.93597 0.27102 0.0
H919 H 0.64318 0.77267 0.22525 0.0
H920 H 0.69032 0.21386 0.07341 0.0
H921 H 0.53602 1.01456 0.08959 0.0
H922 H 0.55908 0.18722 0.12196 0.0
H923 H 0.63026 0.09022 0.06829 0.0
Tb924 Tb 0.74385 0.569 0.3444 0.0
C925 C 0.45802 0.34761 0.34268 0.0
N926 N 0.48773 0.36067 0.32504 0.0
C927 C 0.40295 0.25069 0.31396 0.0
C928 C 0.39823 0.286 0.34662 0.0
C929 C 0.46295 0.31201 0.31093 0.0
C930 C 0.36961 0.23822 0.33177 0.0
C931 C 0.46612 0.37925 0.3763 0.0
C932 C 0.49107 0.39403 0.35714 0.0
C933 C 0.4044 0.3199 0.3802 0.0
C934 C 0.37033 0.27333 0.36534 0.0
Tb935 Tb 0.57509 0.46835 0.31991 0.0
N936 N 0.55151 0.44978 0.35278 0.0
C937 C 0.50591 0.42236 0.3911 0.0
C938 C 0.59313 0.48714 0.36758 0.0
C939 C 0.57061 0.47534 0.3868 0.0
H940 H 0.48856 0.32085 0.29714 0.0
H941 H 0.60379 0.50589 0.39838 0.0
H942 H 0.7044 0.60609 0.38839 0.0
H943 H 0.95072 0.72373 0.29515 0.0
H944 H 0.64488 0.52339 0.36494 0.0
H945 H 0.48907 0.41263 0.40597 0.0
H946 H 0.8622 0.61595 0.309 0.0
H947 H 0.38241 0.21337 0.30251 0.0
H948 H 0.38409 0.30828 0.39479 0.0
H949 H 0.32402 0.22658 0.36862 0.0
H950 H 0.73986 0.70911 0.4079 0.0
H951 H 0.32287 0.19104 0.33407 0.0
H952 H 0.97397 0.83283 0.30972 0.0
N953 N 0.76367 0.65951 0.36371 0.0
C954 C 0.81177 0.72084 0.35651 0.0
C955 C 0.75975 0.71313 0.3934 0.0
C956 C 0.83256 0.78108 0.36721 0.0
C957 C 0.7395 0.65484 0.38224 0.0
C958 C 0.80558 0.77656 0.38575 0.0
N959 N 0.83128 0.6634 0.33045 0.0
C960 C 0.87075 0.66311 0.31533 0.0
C961 C 0.89699 0.78563 0.33198 0.0
C962 C 0.8448 0.72296 0.33914 0.0
C963 C 0.93381 0.78568 0.31565 0.0
C964 C 0.92118 0.72417 0.30745 0.0
H965 H 0.82125 0.82148 0.39452 0.0
H966 H 0.89837 0.89021 0.36753 0.0
H967 H 0.95328 0.89444 0.33656 0.0
O968 O 0.84158 0.58052 0.34925 0.0
O969 O 0.73799 0.61688 0.31587 0.0
O970 O 0.62371 0.57073 0.30882 0.0
O971 O 0.77484 0.55831 0.3732 0.0
O972 O 0.75809 0.51433 0.31981 0.0
O973 O 0.66073 0.47742 0.30113 0.0
O974 O 0.4788 0.44962 0.31015 0.0
O975 O 0.60995 0.39393 0.32648 0.0
O976 O 0.68516 0.44998 0.35126 0.0
O977 O 0.55066 0.4447 0.29059 0.0
O978 O 0.5698 0.55794 0.33377 0.0
O979 O 0.67502 0.61999 0.34867 0.0
C980 C 0.68713 0.6155 0.30555 0.0
C981 C 0.89827 0.6287 0.37956 0.0
C982 C 0.98431 0.66644 0.40668 0.0
C983 C 1.02128 0.72876 0.39687 0.0
C984 C 0.94207 0.69021 0.37018 0.0
C985 C 1.00065 0.74018 0.37896 0.0
C986 C 0.91969 0.61743 0.39836 0.0
C987 C 0.72522 0.49178 0.30322 0.0
C988 C 0.83704 0.57547 0.36806 0.0
C989 C 0.88213 0.84356 0.35957 0.0
C990 C 0.91364 0.84592 0.34192 0.0
C991 C 0.64353 0.39062 0.34179 0.0
C992 C 0.48359 0.48862 0.27786 0.0
C993 C 0.44756 0.57222 0.27014 0.0
C994 C 0.45377 0.56131 0.25026 0.0
C995 C 0.48818 0.47796 0.25808 0.0
C996 C 0.46796 0.53889 0.28374 0.0
C997 C 0.47534 0.51573 0.24438 0.0
C998 C 0.61349 0.61307 0.3439 0.0
C999 C 0.49373 0.44584 0.29214 0.0
H1000 H 1.06821 0.76901 0.40285 0.0
H1001 H 0.93293 0.69968 0.35555 0.0
H1002 H 1.03204 0.78757 0.3714 0.0
H1003 H 0.88791 0.57047 0.40597 0.0
H1004 H 0.43864 0.58456 0.239 0.0
H1005 H 0.50147 0.44025 0.25325 0.0
H1006 H 0.46885 0.54931 0.29902 0.0
H1007 H 0.47886 0.50723 0.2291 0.0
C1008 C 1.05354 0.67251 0.26573 0.0
C1009 C 0.08971 0.66448 0.2504 0.0
H1010 H 1.0561 0.70892 0.29438 0.0
C1011 C 0.16112 0.69268 0.25274 0.0
H1012 H 0.99859 0.64951 0.26493 0.0
C1013 C 0.19536 0.72914 0.26961 0.0
C1014 C 0.1592 0.73737 0.28504 0.0
H1015 H 0.1908 0.6862 0.24145 0.0
H1016 H 0.25012 0.75093 0.27051 0.0
C1017 C 0.0873 0.707 0.28276 0.0
C1018 C 0.41321 1.04099 0.44777 0.0
C1019 C 0.45591 0.11113 0.45179 0.0
H1020 H 0.38828 0.95628 0.42876 0.0
C1021 C 0.5079 0.14884 0.43834 0.0
H1022 H 0.3733 1.00901 0.45779 0.0
C1023 C 0.51708 0.11763 0.42174 0.0
C1024 C 0.47377 1.04786 0.41772 0.0
H1025 H 0.54141 0.20268 0.44054 0.0
H1026 H 0.55861 0.14844 0.41199 0.0
C1027 C 0.42144 1.01021 0.43098 0.0
C1028 C 0.43107 0.39465 0.61251 0.0
C1029 C 0.393 0.42961 0.6134 0.0
H1030 H 0.49514 0.36727 0.59592 0.0
C1031 C 0.39206 0.46445 0.59654 0.0
H1032 H 0.43615 0.36966 0.62527 0.0
C1033 C 0.42764 0.46404 0.57964 0.0
C1034 C 0.46393 0.42737 0.57875 0.0
H1035 H 0.36417 0.49228 0.5964 0.0
H1036 H 0.42802 0.49389 0.56726 0.0
C1037 C 0.46491 0.39273 0.59553 0.0
C1038 C 1.05622 0.38868 0.74665 0.0
C1039 C 1.08334 0.45947 0.74785 0.0
H1040 H 0.98182 0.29004 0.75715 0.0
C1041 C 1.0598 0.48386 0.7633 0.0
H1042 H 1.07188 0.36729 0.73502 0.0
C1043 C 1.0074 0.43957 0.77603 0.0
C1044 C 0.97613 0.36863 0.77386 0.0
H1045 H 1.07999 0.53797 0.76501 0.0
H1046 H 0.98816 0.4611 0.78667 0.0
C1047 C 1.00378 0.34423 0.7594 0.0
C1048 C 0.73536 0.10625 0.9314 0.0
C1049 C 0.69931 0.06983 0.91504 0.0
H1050 H 0.76039 0.10323 0.96109 0.0
C1051 C 0.66292 0.99791 0.91659 0.0
H1052 H 0.76078 0.16128 0.93127 0.0
C1053 C 0.6644 0.96363 0.93371 0.0
C1054 C 0.7008 1.00014 0.95017 0.0
H1055 H 0.63216 0.96792 0.90453 0.0
H1056 H 0.63681 0.90863 0.93404 0.0
C1057 C 0.73496 0.07225 0.94864 0.0
C1058 C 0.79968 0.66897 0.09136 0.0
C1059 C 0.78144 0.66485 0.11112 0.0
H1060 H 0.77235 0.67401 0.0615 0.0
C1061 C 0.72204 0.6679 0.1155 0.0
H1062 H 0.84684 0.67022 0.08742 0.0
C1063 C 0.6806 0.6717 0.10084 0.0
C1064 C 0.69744 0.67432 0.08107 0.0
H1065 H 0.70819 0.66872 0.13048 0.0
H1066 H 0.63456 0.67235 0.10506 0.0
C1067 C 0.75799 0.67316 0.07651 0.0
C1068 C 0.43519 0.068 0.61195 0.0
C1069 C 0.47937 1.05152 0.62233 0.0
H1070 H 0.35454 1.03536 0.59051 0.0
C1071 C 0.47628 0.9889 0.61771 0.0
H1072 H 0.43513 0.11506 0.61497 0.0
C1073 C 0.433 0.94557 0.60336 0.0
C1074 C 0.38966 0.96155 0.59277 0.0
H1075 H 0.50701 0.97184 0.62551 0.0
H1076 H 0.43069 0.89693 0.60124 0.0
C1077 C 0.39017 1.02301 0.59755 0.0
C1078 C 0.4414 0.3718 0.76262 0.0
C1079 C 0.50111 0.36581 0.7608 0.0
H1080 H 0.39095 0.42031 0.77731 0.0
C1081 C 0.55422 0.40324 0.7738 0.0
H1082 H 0.39771 0.34106 0.75358 0.0
C1083 C 0.54951 0.44599 0.78767 0.0
C1084 C 0.4912 0.45416 0.78946 0.0
H1085 H 0.5992 0.39735 0.77372 0.0
H1086 H 0.59265 0.47259 0.79727 0.0
C1087 C 0.43677 0.41604 0.7766 0.0
C1088 C 0.15384 0.4922 0.9529 0.0
C1089 C 1.08245 0.45016 0.95505 0.0
H1090 H 0.24362 0.52183 0.93544 0.0
C1091 C 1.04722 0.40621 0.93976 0.0
H1092 H 0.18273 0.52839 0.96413 0.0
C1093 C 1.08189 0.40475 0.92291 0.0
C1094 C 0.15374 0.44554 0.92077 0.0
H1095 H 0.99226 0.37544 0.94037 0.0
H1096 H 1.05139 0.37208 0.91126 0.0
C1097 C 0.18895 0.48941 0.93621 0.0
C1098 C 0.73052 0.06161 0.10967 0.0
C1099 C 0.70739 0.07874 0.12673 0.0
H1100 H 0.79086 0.0983 0.0833 0.0
C1101 C 0.72716 0.14802 0.12922 0.0
H1102 H 0.71477 1.00887 0.1067 0.0
C1103 C 0.76734 0.19781 0.11568 0.0
C1104 C 0.79119 0.18204 0.09871 0.0
H1105 H 0.70953 0.16426 0.1416 0.0
H1106 H 0.78049 0.24998 0.11866 0.0
C1107 C 0.77254 0.11279 0.09592 0.0
C1108 C 0.73962 0.73684 0.29184 0.0
C1109 C 0.69664 0.6665 0.28977 0.0
H1110 H 0.76521 0.83726 0.28213 0.0
C1111 C 0.65154 0.64493 0.27373 0.0
H1112 H 0.77476 0.75604 0.30391 0.0
C1113 C 0.64487 0.6914 0.26131 0.0
C1114 C 0.68341 0.76185 0.26436 0.0
H1115 H 0.61844 0.59124 0.27133 0.0
H1116 H 0.606 0.6718 0.25019 0.0
C1117 C 0.7333 0.78353 0.27932 0.0
C1118 C 1.0228 0.6321 0.45939 0.0
C1119 C 0.0946 0.65993 0.45916 0.0
H1120 H 0.93116 0.61048 0.44348 0.0
C1121 C 0.12739 0.6839 0.4413 0.0
H1122 H 0.9952 0.61327 0.47282 0.0
C1123 C 0.09062 0.68174 0.42447 0.0
C1124 C 1.01904 0.65643 0.42462 0.0
H1125 H 0.18204 0.70533 0.44033 0.0
H1126 H 0.11912 0.7013 0.41116 0.0
C1127 C 0.98561 0.63012 0.44243 0.0
C1128 C 0.63475 0.7287 0.36105 0.0
C1129 C 0.59402 0.67164 0.34903 0.0
H1130 H 0.65256 0.82152 0.37537 0.0
C1131 C 0.5353 0.67406 0.34168 0.0
H1132 H 0.6809 0.73313 0.367 0.0
C1133 C 0.5191 0.72808 0.34613 0.0
C1134 C 0.55956 0.78425 0.35864 0.0
H1135 H 0.50104 0.63367 0.33217 0.0
H1136 H 0.47344 0.72479 0.33987 0.0
C1137 C 0.61799 0.78148 0.36583 0.0
C1138 C 0.8746 0.56544 0.52879 0.0
C1139 C 0.81455 0.50949 0.52106 0.0
H1140 H 0.98418 0.62597 0.52992 0.0
C1141 C 0.8292 0.47072 0.50742 0.0
H1142 H 0.86936 0.59842 0.53914 0.0
C1143 C 0.89822 0.4866 0.50227 0.0
C1144 C 0.95811 0.54281 0.5102 0.0
H1145 H 0.78705 0.42741 0.5006 0.0
H1146 H 0.90444 0.4543 0.49185 0.0
C1147 C 0.9428 0.58154 0.5235 0.0
C1148 C 0.48733 0.88118 0.67268 0.0
C1149 C 0.48406 0.9418 0.67734 0.0
H1150 H 0.44076 0.7698 0.67299 0.0
C1151 C 0.4206 0.9259 0.68608 0.0
H1152 H 0.53286 0.88702 0.66566 0.0
C1153 C 0.36734 0.85762 0.69058 0.0
C1154 C 0.37008 0.7968 0.68633 0.0
H1155 H 0.4109 0.96705 0.68942 0.0
H1156 H 0.32229 0.85291 0.6975 0.0
C1157 C 0.43275 0.81182 0.67689 0.0
C1158 C 0.64178 0.45011 0.84115 0.0
C1159 C 0.58261 0.45208 0.84815 0.0
H1160 H 0.70317 0.39892 0.83968 0.0
C1161 C 0.54064 0.39446 0.85983 0.0
H1162 H 0.6768 0.49101 0.83185 0.0
C1163 C 0.55639 0.34113 0.86463 0.0
C1164 C 0.61528 0.3388 0.85783 0.0
H1165 H 0.49424 0.38992 0.86546 0.0
H1166 H 0.52065 0.30029 0.87381 0.0
C1167 C 0.65723 0.39566 0.84567 0.0
C1168 C 0.26044 0.62907 1.00746 0.0
C1169 C 0.20079 0.56675 1.01284 0.0
H1170 H 0.37161 0.69305 1.0073 0.0
C1171 C 0.21772 0.52111 0.02254 0.0
H1172 H 0.25349 0.66705 0.99971 0.0
C1173 C 0.28654 0.53685 0.02729 0.0
C1174 C 0.34635 0.59892 1.02221 0.0
H1175 H 0.17716 0.47148 0.02648 0.0
H1176 H 0.29252 0.49846 0.03502 0.0
C1177 C 0.33018 0.64433 1.01182 0.0
C1178 C 0.81726 0.26291 0.1951 0.0
C1179 C 0.81472 0.32379 0.19061 0.0
H1180 H 0.77274 0.15324 0.19414 0.0
C1181 C 0.75223 0.30916 0.18113 0.0
H1182 H 0.8625 0.26765 0.20208 0.0
C1183 C 0.69746 0.24009 0.17702 0.0
C1184 C 0.7003 0.17931 0.18181 0.0
H1185 H 0.74465 0.35137 0.17703 0.0
H1186 H 0.65219 0.23458 0.16987 0.0
C1187 C 0.76356 0.1947 0.19069 0.0
C1188 C 0.39878 0.61052 0.52231 0.0
C1189 C 0.34397 0.56965 0.50949 0.0
H1190 H 0.49214 0.62938 0.53712 0.0
C1191 C 0.34822 0.51259 0.50215 0.0
H1192 H 0.40016 0.65492 0.52871 0.0
C1193 C 0.40188 0.49748 0.50715 0.0
C1194 C 0.45679 0.53812 0.51987 0.0
H1195 H 0.30913 0.47821 0.49235 0.0
H1196 H 0.40001 0.45303 0.50081 0.0
C1197 C 0.45295 0.5955 0.52722 0.0
C1198 C 0.84857 0.39502 0.68832 0.0
C1199 C 0.83366 0.33324 0.67855 0.0
H1200 H 0.92369 0.49409 0.69987 0.0
C1201 C 0.89444 0.33065 0.67394 0.0
H1202 H 0.80641 0.4026 0.6925 0.0
C1203 C 0.96284 0.38365 0.67851 0.0
C1204 C 0.97861 0.44617 0.68768 0.0
H1205 H 0.88949 0.28597 0.6667 0.0
H1206 H 1.00415 0.37477 0.67482 0.0
C1207 C 0.91791 0.44918 0.69256 0.0
C1208 C 0.62219 0.93219 0.84572 0.0
C1209 C 0.57804 0.94946 0.85605 0.0
H1210 H 0.64353 0.85704 0.83298 0.0
C1211 C 0.51627 0.89001 0.86197 0.0
H1212 H 0.6711 0.97264 0.84117 0.0
C1213 C 0.50017 0.82017 0.85759 0.0
C1214 C 0.54428 0.80361 0.84671 0.0
H1215 H 0.47939 0.8972 0.8702 0.0
H1216 H 0.45202 0.779 0.8626 0.0
C1217 C 0.60589 0.86327 0.8411 0.0
C1218 C 0.75014 0.60264 1.00835 0.0
C1219 C 0.69932 0.56737 0.02271 0.0
H1220 H 0.8386 0.61677 0.99217 0.0
C1221 C 0.70719 0.51427 0.03187 0.0
H1222 H 0.74929 0.64387 1.00061 0.0
C1223 C 0.76099 0.49821 0.027 0.0
C1224 C 0.81141 0.53356 1.0124 0.0
H1225 H 0.67155 0.48467 0.04316 0.0
H1226 H 0.7626 0.45729 0.0348 0.0
C1227 C 0.80308 0.58641 1.00339 0.0
C1228 C 0.28746 0.78921 0.17425 0.0
C1229 C 0.34863 0.78949 0.18022 0.0
H1230 H 0.1776 0.74229 0.17399 0.0
C1231 C 0.33422 0.73013 0.19137 0.0
H1232 H 0.29192 0.83191 0.16591 0.0
C1233 C 0.26506 0.67562 0.19568 0.0
C1234 C 0.20395 0.67572 0.18947 0.0
H1235 H 0.3767 0.72491 0.1967 0.0
H1236 H 0.25975 0.63286 0.20417 0.0
C1237 C 0.21922 0.73576 0.17883 0.0
C1238 C 0.56981 0.25524 0.34063 0.0
C1239 C 0.62761 0.31483 0.34819 0.0
H1240 H 0.50725 0.1455 0.33877 0.0
C1241 C 0.6674 0.29722 0.3608 0.0
H1242 H 0.53607 0.26191 0.33084 0.0
C1243 C 0.65074 0.22698 0.36509 0.0
C1244 C 0.59212 0.16768 0.35761 0.0
H1245 H 0.71281 0.33797 0.36726 0.0
H1246 H 0.68482 0.21914 0.37445 0.0
C1247 C 0.55261 0.18575 0.34523 0.0
C1248 C 0.3112 0.70662 0.43392 0.0
C1249 C 0.3238 0.72879 0.45346 0.0
H1250 H 0.33911 0.72759 0.40376 0.0
C1251 C 0.38181 0.79316 0.4566 0.0
H1252 H 0.26741 0.65817 0.43042 0.0
C1253 C 0.42487 0.83276 0.441 0.0
C1254 C 0.41099 0.81082 0.42145 0.0
H1255 H 0.39415 0.81318 0.47116 0.0
H1256 H 0.46814 0.8819 0.44425 0.0
C1257 C 0.35281 0.7469 0.41837 0.0
C1258 C 0.65079 0.39844 0.60316 0.0
C1259 C 0.64766 0.37527 0.58392 0.0
H1260 H 0.65354 0.38026 0.63387 0.0
C1261 C 0.64804 0.313 0.58192 0.0
H1262 H 0.64971 0.44528 0.60568 0.0
C1263 C 0.65182 0.27615 0.59825 0.0
C1264 C 0.65365 0.29858 0.61751 0.0
H1265 H 0.64528 0.29232 0.56761 0.0
H1266 H 0.65132 0.22856 0.59573 0.0
C1267 C 0.65281 0.36065 0.61953 0.0
C1268 C 0.43506 0.64027 0.76453 0.0
C1269 C 0.41221 0.63832 0.7837 0.0
H1270 H 0.4155 0.63906 0.73388 0.0
C1271 C 0.34909 0.63753 0.78567 0.0
H1272 H 0.4825 0.64034 0.76205 0.0
C1273 C 0.31046 0.63766 0.76932 0.0
C1274 C 0.33247 0.63753 0.75015 0.0
H1275 H 0.32864 0.63569 0.79998 0.0
H1276 H 0.26192 0.63553 0.77176 0.0
C1277 C 0.39603 0.63938 0.74819 0.0
C1278 C 0.73924 0.28988 0.93768 0.0
C1279 C 0.76166 0.30823 0.91828 0.0
H1280 H 0.75918 0.31091 0.9683 0.0
C1281 C 0.82523 0.36816 0.91599 0.0
H1282 H 0.69156 0.24406 0.9405 0.0
C1283 C 0.86378 0.40775 0.93214 0.0
C1284 C 0.84187 0.38882 0.95155 0.0
H1285 H 0.84564 0.38474 0.90157 0.0
H1286 H 0.91222 0.45272 0.92935 0.0
C1287 C 0.7786 0.32857 0.95386 0.0
C1288 C 0.51816 0.75985 0.1218 0.0
C1289 C 0.52334 0.82469 0.11969 0.0
H1290 H 0.51266 0.67129 0.10808 0.0
C1291 C 0.52718 0.84813 0.10041 0.0
H1292 H 0.51552 0.73932 0.13617 0.0
C1293 C 0.52726 0.80948 0.08413 0.0
C1294 C 0.52144 0.74437 0.08622 0.0
H1295 H 0.53215 0.89776 0.09785 0.0
H1296 H 0.53202 0.83094 0.06979 0.0
C1297 C 0.51626 0.72034 0.10549 0.0
C1298 C 0.74208 0.48432 0.26641 0.0
C1299 C 0.76453 0.48622 0.28569 0.0
H1300 H 0.76233 0.48532 0.23577 0.0
C1301 C 0.82773 0.48734 0.28783 0.0
H1302 H 0.69456 0.48421 0.26378 0.0
C1303 C 0.86654 0.48701 0.27159 0.0
C1304 C 0.84488 0.48665 0.25231 0.0
H1305 H 0.84801 0.4893 0.30219 0.0
H1306 H 0.91497 0.48923 0.27422 0.0
C1307 C 0.78148 0.48511 0.25016 0.0
C1308 C 0.80187 0.36059 0.41151 0.0
C1309 C 0.8435 0.4047 0.42609 0.0
H1310 H 0.71742 0.26354 0.40505 0.0
C1311 C 0.82016 0.39111 0.44538 0.0
H1312 H 0.81631 0.36967 0.3964 0.0
C1313 C 0.76579 0.32779 0.45039 0.0
C1314 C 0.73194 0.27875 0.436 0.0
H1315 H 0.84855 0.42612 0.4569 0.0
H1316 H 0.75535 0.31543 0.46561 0.0
C1317 C 0.74566 0.2987 0.41648 0.0
C1318 C 0.52848 0.82057 0.57442 0.0
C1319 C 0.53398 0.85991 0.59071 0.0
H1320 H 0.51957 0.72725 0.56422 0.0
C1321 C 0.51717 0.82872 0.60905 0.0
H1322 H 0.53956 0.84275 0.56005 0.0
C1323 C 0.5082 0.76362 0.61153 0.0
C1324 C 0.51436 0.72846 0.5956 0.0
H1325 H 0.51805 0.85719 0.62176 0.0
H1326 H 0.50425 0.7446 0.62616 0.0
C1327 C 0.51777 0.75468 0.57685 0.0
C1328 C 0.78357 0.53889 0.741 0.0
C1329 C 0.73948 0.51811 0.75686 0.0
H1330 H 0.8832 0.57169 0.73122 0.0
C1331 C 0.75503 0.49155 0.77329 0.0
H1332 H 0.772 0.5587 0.72807 0.0
C1333 C 0.81913 0.49654 0.77503 0.0
C1334 C 0.86939 0.53179 0.76086 0.0
H1335 H 0.72056 0.47358 0.78554 0.0
H1336 H 0.83103 0.47938 0.78839 0.0
C1337 C 0.84832 0.54633 0.74299 0.0
C1338 C 0.40851 0.81652 0.91913 0.0
C1339 C 0.42851 0.84258 0.93795 0.0
H1340 H 0.32897 0.74254 0.90152 0.0
C1341 C 0.39324 0.8015 0.95385 0.0
H1342 H 0.43654 0.84578 0.90659 0.0
C1343 C 0.33294 0.74083 0.95093 0.0
C1344 C 0.30634 0.72155 0.93214 0.0
H1345 H 0.40782 0.8192 0.96856 0.0
H1346 H 0.30367 0.7128 0.96347 0.0
C1347 C 0.34725 0.75677 0.91621 0.0
C1348 C 0.66638 0.31104 0.11959 0.0
C1349 C 0.66143 0.28404 0.10096 0.0
H1350 H 0.65884 0.38595 0.13641 0.0
C1351 C 0.67145 0.32587 0.0848 0.0
H1352 H 0.66261 0.28131 0.13236 0.0
C1353 C 0.67277 0.38788 0.08716 0.0
C1354 C 0.66154 0.40719 0.10557 0.0
H1355 H 0.6701 0.30767 0.07023 0.0
H1356 H 0.67408 0.41632 0.07434 0.0
C1357 C 0.66528 0.37182 0.12191 0.0
C1358 C 0.39054 0.64308 0.26332 0.0
C1359 C 0.4071 0.60543 0.27653 0.0
H1360 H 0.31335 0.66668 0.25405 0.0
C1361 C 0.37149 0.58649 0.29433 0.0
H1362 H 0.4194 0.66392 0.25017 0.0
C1363 C 0.3132 0.59209 0.29697 0.0
C1364 C 0.28885 0.61548 0.28181 0.0
H1365 H 0.38216 0.55942 0.3055 0.0
H1366 H 0.2822 0.56894 0.3097 0.0
C1367 C 0.33059 0.64641 0.2657 0.0
loop_
_geom_bond_atom_site_label_1
_geom_bond_atom_site_label_2
_geom_bond_distance
_geom_bond_site_symmetry_2
_ccdc_geom_bond_type
Tb0 N29 2.617 1_565 S
Tb0 N35 2.572 . S
Tb0 O44 2.465 . S
Tb0 O45 2.387 1_565 S
Tb0 O47 2.428 . S
Tb0 O48 2.308 . S
Tb0 O52 2.349 . S
Tb0 O55 2.393 1_565 S
Tb0 C64 2.802 . S
C1 N2 1.379 . S
C1 C4 1.416 . S
C1 C8 1.424 . S
N2 C1 1.379 . S
N2 C5 1.334 . S
N2 Tb11 2.617 1_565 S
C3 C5 1.390 . S
C3 C6 1.339 . S
C3 H23 0.930 . S
C4 C1 1.416 . S
C4 C6 1.416 . S
C4 C10 1.448 . S
C5 N2 1.334 . S
C5 C3 1.390 . S
C5 H16 0.930 . S
C6 C3 1.339 . S
C6 C4 1.416 . S
C6 H27 0.930 . S
C7 C8 1.413 . S
C7 C9 1.427 . S
C7 C13 1.416 1_565 S
C8 C1 1.424 . S
C8 C7 1.413 . S
C8 N12 1.361 1_565 S
C9 C7 1.427 . S
C9 C10 1.328 . S
C9 H24 0.929 . S
C10 C4 1.448 . S
C10 C9 1.328 . S
C10 H25 0.930 . S
Tb11 N2 2.617 1_545 S
Tb11 N12 2.572 . S
Tb11 O46 2.349 . S
Tb11 O49 2.393 1_545 S
Tb11 O50 2.465 . S
Tb11 O51 2.387 1_545 S
Tb11 O53 2.428 . S
Tb11 O54 2.308 . S
Tb11 C75 2.802 . S
N12 C8 1.361 1_545 S
N12 Tb11 2.572 . S
N12 C14 1.340 . S
C13 C7 1.416 1_545 S
C13 C15 1.332 . S
C13 H21 0.931 . S
C14 N12 1.340 . S
C14 C15 1.407 . S
C14 H20 0.930 . S
C15 C13 1.332 . S
C15 C14 1.407 . S
C15 H17 0.929 . S
H16 C5 0.930 . S
H17 C15 0.929 . S
H18 C33 0.930 . S
H19 C40 0.929 . S
H20 C14 0.930 . S
H21 C13 0.931 . S
H22 C36 0.930 . S
H23 C3 0.930 . S
H24 C9 0.929 . S
H25 C10 0.930 . S
H26 C31 0.930 . S
H27 C6 0.930 . S
H28 C39 0.931 . S
N29 Tb0 2.617 1_545 S
N29 C30 1.379 . S
N29 C33 1.334 . S
C30 N29 1.379 . S
C30 C32 1.416 . S
C30 C38 1.424 . S
C31 H26 0.930 . S
C31 C33 1.390 . S
C31 C34 1.339 . S
C32 C30 1.416 . S
C32 C34 1.416 . S
C32 C65 1.448 . S
C33 H18 0.930 . S
C33 N29 1.334 . S
C33 C31 1.390 . S
C34 C31 1.339 . S
C34 C32 1.416 . S
C34 H41 0.930 . S
N35 Tb0 2.572 . S
N35 C36 1.340 . S
N35 C38 1.361 1_565 S
C36 H22 0.930 . S
C36 N35 1.340 . S
C36 C40 1.407 . S
C37 C38 1.413 . S
C37 C39 1.416 1_545 S
C37 C66 1.427 . S
C38 C30 1.424 . S
C38 N35 1.361 1_545 S
C38 C37 1.413 . S
C39 H28 0.931 . S
C39 C37 1.416 1_565 S
C39 C40 1.332 . S
C40 H19 0.929 . S
C40 C36 1.407 . S
C40 C39 1.332 . S
H41 C34 0.930 . S
H42 C65 0.930 . S
H43 C66 0.929 . S
O44 Tb0 2.465 . S
O44 C64 1.264 . S
O45 Tb0 2.387 1_545 S
O45 C56 1.264 . S
O46 Tb11 2.349 . S
O46 C56 1.243 . S
O47 Tb0 2.428 . S
O47 C64 1.256 . S
O48 Tb0 2.308 . S
O48 C63 1.266 . S
O49 Tb11 2.393 1_565 S
O49 C63 1.248 . S
O50 Tb11 2.465 . S
O50 C75 1.264 . S
O51 Tb11 2.387 1_565 S
O51 C67 1.264 . S
O52 Tb0 2.349 . S
O52 C67 1.243 . S
O53 Tb11 2.428 . S
O53 C75 1.256 . S
O54 Tb11 2.308 . S
O54 C74 1.266 . S
O55 Tb0 2.393 1_545 S
O55 C74 1.248 . S
C56 O45 1.264 . S
C56 O46 1.243 . S
C57 C60 1.399 . S
C57 C62 1.383 . S
C57 C64 1.496 . S
C58 C59 1.399 . S
C58 C62 1.389 . S
C59 C58 1.399 . S
C59 C61 1.380 . S
C59 H76 0.929 . S
C60 C57 1.399 . S
C60 C61 1.392 . S
C60 H77 0.929 . S
C61 C59 1.380 . S
C61 C60 1.392 . S
C61 H78 0.929 . S
C62 C57 1.383 . S
C62 C58 1.389 . S
C62 H79 0.931 . S
C63 O48 1.266 . S
C63 O49 1.248 . S
C64 Tb0 2.802 . S
C64 O44 1.264 . S
C64 O47 1.256 . S
C64 C57 1.496 . S
C65 C32 1.448 . S
C65 H42 0.930 . S
C65 C66 1.328 . S
C66 C37 1.427 . S
C66 H43 0.929 . S
C66 C65 1.328 . S
C67 O51 1.264 . S
C67 O52 1.243 . S
C68 C71 1.399 . S
C68 C72 1.383 . S
C68 C75 1.496 . S
C69 C70 1.399 . S
C69 C72 1.389 . S
C70 C69 1.399 . S
C70 C73 1.380 . S
C70 H80 0.929 . S
C71 C68 1.399 . S
C71 C73 1.392 . S
C71 H81 0.929 . S
C72 C68 1.383 . S
C72 C69 1.389 . S
C72 H82 0.931 . S
C73 C70 1.380 . S
C73 C71 1.392 . S
C73 H83 0.929 . S
C74 O54 1.266 . S
C74 O55 1.248 . S
C75 Tb11 2.802 . S
C75 O50 1.264 . S
C75 O53 1.256 . S
C75 C68 1.496 . S
H76 C59 0.929 . S
H77 C60 0.929 . S
H78 C61 0.929 . S
H79 C62 0.931 . S
H80 C70 0.929 . S
H81 C71 0.929 . S
H82 C72 0.931 . S
H83 C73 0.929 . S
Tb84 N113 2.617 . S
Tb84 N119 2.572 . S
Tb84 O128 2.465 . S
Tb84 O129 2.387 . S
Tb84 O131 2.428 . S
Tb84 O132 2.308 . S
Tb84 O136 2.349 . S
Tb84 O139 2.393 . S
Tb84 C148 2.802 . S
C85 N86 1.379 . S
C85 C88 1.416 . S
C85 C92 1.424 . S
N86 C85 1.379 . S
N86 C89 1.334 . S
N86 Tb95 2.617 . S
C87 C89 1.390 . S
C87 C90 1.339 . S
C87 H107 0.930 . S
C88 C85 1.416 . S
C88 C90 1.416 . S
C88 C94 1.448 . S
C89 N86 1.334 . S
C89 C87 1.390 . S
C89 H100 0.930 . S
C90 C87 1.339 . S
C90 C88 1.416 . S
C90 H111 0.930 . S
C91 C92 1.413 . S
C91 C93 1.427 . S
C91 C97 1.416 . S
C92 C85 1.424 . S
C92 C91 1.413 . S
C92 N96 1.361 . S
C93 C91 1.427 . S
C93 C94 1.328 . S
C93 H108 0.929 . S
C94 C88 1.448 . S
C94 C93 1.328 . S
C94 H109 0.930 . S
Tb95 N86 2.617 . S
Tb95 N96 2.572 . S
Tb95 O130 2.349 . S
Tb95 O133 2.393 . S
Tb95 O134 2.465 . S
Tb95 O135 2.387 . S
Tb95 O137 2.428 . S
Tb95 O138 2.308 . S
Tb95 C159 2.802 . S
N96 C92 1.361 . S
N96 Tb95 2.572 . S
N96 C98 1.340 . S
C97 C91 1.416 . S
C97 C99 1.332 . S
C97 H105 0.931 . S
C98 N96 1.340 . S
C98 C99 1.407 . S
C98 H104 0.930 . S
C99 C97 1.332 . S
C99 C98 1.407 . S
C99 H101 0.929 . S
H100 C89 0.930 . S
H101 C99 0.929 . S
H102 C117 0.930 . S
H103 C124 0.929 . S
H104 C98 0.930 . S
H105 C97 0.931 . S
H106 C120 0.930 . S
H107 C87 0.930 . S
H108 C93 0.929 . S
H109 C94 0.930 . S
H110 C115 0.930 . S
H111 C90 0.930 . S
H112 C123 0.931 . S
N113 Tb84 2.617 . S
N113 C114 1.379 . S
N113 C117 1.334 . S
C114 N113 1.379 . S
C114 C116 1.416 . S
C114 C122 1.424 . S
C115 H110 0.930 . S
C115 C117 1.390 . S
C115 C118 1.339 . S
C116 C114 1.416 . S
C116 C118 1.416 . S
C116 C149 1.448 . S
C117 H102 0.930 . S
C117 N113 1.334 . S
C117 C115 1.390 . S
C118 C115 1.339 . S
C118 C116 1.416 . S
C118 H125 0.930 . S
N119 Tb84 2.572 . S
N119 C120 1.340 . S
N119 C122 1.361 . S
C120 H106 0.930 . S
C120 N119 1.340 . S
C120 C124 1.407 . S
C121 C122 1.413 . S
C121 C123 1.416 . S
C121 C150 1.427 . S
C122 C114 1.424 . S
C122 N119 1.361 . S
C122 C121 1.413 . S
C123 H112 0.931 . S
C123 C121 1.416 . S
C123 C124 1.332 . S
C124 H103 0.929 . S
C124 C120 1.407 . S
C124 C123 1.332 . S
H125 C118 0.930 . S
H126 C149 0.930 . S
H127 C150 0.929 . S
O128 Tb84 2.465 . S
O128 C148 1.264 . S
O129 Tb84 2.387 . S
O129 C140 1.264 . S
O130 Tb95 2.349 . S
O130 C140 1.243 . S
O131 Tb84 2.428 . S
O131 C148 1.256 . S
O132 Tb84 2.308 . S
O132 C147 1.266 . S
O133 Tb95 2.393 . S
O133 C147 1.248 . S
O134 Tb95 2.465 . S
O134 C159 1.264 . S
O135 Tb95 2.387 . S
O135 C151 1.264 . S
O136 Tb84 2.349 . S
O136 C151 1.243 . S
O137 Tb95 2.428 . S
O137 C159 1.256 . S
O138 Tb95 2.308 . S
O138 C158 1.266 . S
O139 Tb84 2.393 . S
O139 C158 1.248 . S
C140 O129 1.264 . S
C140 O130 1.243 . S
C141 C144 1.399 . S
C141 C146 1.383 . S
C141 C148 1.496 . S
C142 C143 1.399 . S
C142 C146 1.389 . S
C143 C142 1.399 . S
C143 C145 1.380 . S
C143 H160 0.929 . S
C144 C141 1.399 . S
C144 C145 1.392 . S
C144 H161 0.929 . S
C145 C143 1.380 . S
C145 C144 1.392 . S
C145 H162 0.929 . S
C146 C141 1.383 . S
C146 C142 1.389 . S
C146 H163 0.931 . S
C147 O132 1.266 . S
C147 O133 1.248 . S
C148 Tb84 2.802 . S
C148 O128 1.264 . S
C148 O131 1.256 . S
C148 C141 1.496 . S
C149 C116 1.448 . S
C149 H126 0.930 . S
C149 C150 1.328 . S
C150 C121 1.427 . S
C150 H127 0.929 . S
C150 C149 1.328 . S
C151 O135 1.264 . S
C151 O136 1.243 . S
C152 C155 1.399 . S
C152 C156 1.383 . S
C152 C159 1.496 . S
C153 C154 1.399 . S
C153 C156 1.389 . S
C154 C153 1.399 . S
C154 C157 1.380 . S
C154 H164 0.929 . S
C155 C152 1.399 . S
C155 C157 1.392 . S
C155 H165 0.929 . S
C156 C152 1.383 . S
C156 C153 1.389 . S
C156 H166 0.931 . S
C157 C154 1.380 . S
C157 C155 1.392 . S
C157 H167 0.929 . S
C158 O138 1.266 . S
C158 O139 1.248 . S
C159 Tb95 2.802 . S
C159 O134 1.264 . S
C159 O137 1.256 . S
C159 C152 1.496 . S
H160 C143 0.929 . S
H161 C144 0.929 . S
H162 C145 0.929 . S
H163 C146 0.931 . S
H164 C154 0.929 . S
H165 C155 0.929 . S
H166 C156 0.931 . S
H167 C157 0.929 . S
Tb168 N197 2.617 1_455 S
Tb168 N203 2.572 . S
Tb168 O212 2.465 . S
Tb168 O213 2.387 1_455 S
Tb168 O215 2.428 . S
Tb168 O216 2.308 . S
Tb168 O220 2.349 . S
Tb168 O223 2.393 1_455 S
Tb168 C232 2.802 . S
C169 N170 1.379 . S
C169 C172 1.416 . S
C169 C176 1.424 . S
N170 C169 1.379 . S
N170 C173 1.334 . S
N170 Tb179 2.617 1_455 S
C171 C173 1.390 . S
C171 C174 1.339 . S
C171 H191 0.930 . S
C172 C169 1.416 . S
C172 C174 1.416 . S
C172 C178 1.448 . S
C173 N170 1.334 . S
C173 C171 1.390 . S
C173 H184 0.930 . S
C174 C171 1.339 . S
C174 C172 1.416 . S
C174 H195 0.930 . S
C175 C176 1.413 . S
C175 C177 1.427 . S
C175 C181 1.416 1_455 S
C176 C169 1.424 . S
C176 C175 1.413 . S
C176 N180 1.361 1_455 S
C177 C175 1.427 . S
C177 C178 1.328 . S
C177 H192 0.929 . S
C178 C172 1.448 . S
C178 C177 1.328 . S
C178 H193 0.930 . S
Tb179 N170 2.617 1_655 S
Tb179 N180 2.572 . S
Tb179 O214 2.349 . S
Tb179 O217 2.393 1_655 S
Tb179 O218 2.465 . S
Tb179 O219 2.387 1_655 S
Tb179 O221 2.428 . S
Tb179 O222 2.308 . S
Tb179 C243 2.802 . S
N180 C176 1.361 1_655 S
N180 Tb179 2.572 . S
N180 C182 1.340 . S
C181 C175 1.416 1_655 S
C181 C183 1.332 . S
C181 H189 0.931 . S
C182 N180 1.340 . S
C182 C183 1.407 . S
C182 H188 0.930 . S
C183 C181 1.332 . S
C183 C182 1.407 . S
C183 H185 0.929 . S
H184 C173 0.930 . S
H185 C183 0.929 . S
H186 C201 0.930 . S
H187 C208 0.929 . S
H188 C182 0.930 . S
H189 C181 0.931 . S
H190 C204 0.930 . S
H191 C171 0.930 . S
H192 C177 0.929 . S
H193 C178 0.930 . S
H194 C199 0.930 . S
H195 C174 0.930 . S
H196 C207 0.931 . S
N197 Tb168 2.617 1_655 S
N197 C198 1.379 . S
N197 C201 1.334 . S
C198 N197 1.379 . S
C198 C200 1.416 . S
C198 C206 1.424 . S
C199 H194 0.930 . S
C199 C201 1.390 . S
C199 C202 1.339 . S
C200 C198 1.416 . S
C200 C202 1.416 . S
C200 C233 1.448 . S
C201 H186 0.930 . S
C201 N197 1.334 . S
C201 C199 1.390 . S
C202 C199 1.339 . S
C202 C200 1.416 . S
C202 H209 0.930 . S
N203 Tb168 2.572 . S
N203 C204 1.340 . S
N203 C206 1.361 1_455 S
C204 H190 0.930 . S
C204 N203 1.340 . S
C204 C208 1.407 . S
C205 C206 1.413 . S
C205 C207 1.416 1_655 S
C205 C234 1.427 . S
C206 C198 1.424 . S
C206 N203 1.361 1_655 S
C206 C205 1.413 . S
C207 H196 0.931 . S
C207 C205 1.416 1_455 S
C207 C208 1.332 . S
C208 H187 0.929 . S
C208 C204 1.407 . S
C208 C207 1.332 . S
H209 C202 0.930 . S
H210 C233 0.930 . S
H211 C234 0.929 . S
O212 Tb168 2.465 . S
O212 C232 1.264 . S
O213 Tb168 2.387 1_655 S
O213 C224 1.264 . S
O214 Tb179 2.349 . S
O214 C224 1.243 . S
O215 Tb168 2.428 . S
O215 C232 1.256 . S
O216 Tb168 2.308 . S
O216 C231 1.266 . S
O217 Tb179 2.393 1_455 S
O217 C231 1.248 . S
O218 Tb179 2.465 . S
O218 C243 1.264 . S
O219 Tb179 2.387 1_455 S
O219 C235 1.264 . S
O220 Tb168 2.349 . S
O220 C235 1.243 . S
O221 Tb179 2.428 . S
O221 C243 1.256 . S
O222 Tb179 2.308 . S
O222 C242 1.266 . S
O223 Tb168 2.393 1_655 S
O223 C242 1.248 . S
C224 O213 1.264 . S
C224 O214 1.243 . S
C225 C228 1.399 . S
C225 C230 1.383 . S
C225 C232 1.496 . S
C226 C227 1.399 . S
C226 C230 1.389 . S
C227 C226 1.399 . S
C227 C229 1.380 . S
C227 H244 0.929 . S
C228 C225 1.399 . S
C228 C229 1.392 . S
C228 H245 0.929 . S
C229 C227 1.380 . S
C229 C228 1.392 . S
C229 H246 0.929 . S
C230 C225 1.383 . S
C230 C226 1.389 . S
C230 H247 0.931 . S
C231 O216 1.266 . S
C231 O217 1.248 . S
C232 Tb168 2.802 . S
C232 O212 1.264 . S
C232 O215 1.256 . S
C232 C225 1.496 . S
C233 C200 1.448 . S
C233 H210 0.930 . S
C233 C234 1.328 . S
C234 C205 1.427 . S
C234 H211 0.929 . S
C234 C233 1.328 . S
C235 O219 1.264 . S
C235 O220 1.243 . S
C236 C239 1.399 . S
C236 C240 1.383 . S
C236 C243 1.496 . S
C237 C238 1.399 . S
C237 C240 1.389 . S
C238 C237 1.399 . S
C238 C241 1.380 . S
C238 H248 0.929 . S
C239 C236 1.399 . S
C239 C241 1.392 . S
C239 H249 0.929 . S
C240 C236 1.383 . S
C240 C237 1.389 . S
C240 H250 0.931 . S
C241 C238 1.380 . S
C241 C239 1.392 . S
C241 H251 0.929 . S
C242 O222 1.266 . S
C242 O223 1.248 . S
C243 Tb179 2.802 . S
C243 O218 1.264 . S
C243 O221 1.256 . S
C243 C236 1.496 . S
H244 C227 0.929 . S
H245 C228 0.929 . S
H246 C229 0.929 . S
H247 C230 0.931 . S
H248 C238 0.929 . S
H249 C239 0.929 . S
H250 C240 0.931 . S
H251 C241 0.929 . S
Tb252 N281 2.617 1_545 S
Tb252 N287 2.572 . S
Tb252 O296 2.465 . S
Tb252 O297 2.387 1_545 S
Tb252 O299 2.428 . S
Tb252 O300 2.308 . S
Tb252 O304 2.349 . S
Tb252 O307 2.393 1_545 S
Tb252 C316 2.802 . S
C253 N254 1.379 . S
C253 C256 1.416 . S
C253 C260 1.424 . S
N254 C253 1.379 . S
N254 C257 1.334 . S
N254 Tb263 2.617 1_545 S
C255 C257 1.390 . S
C255 C258 1.339 . S
C255 H275 0.930 . S
C256 C253 1.416 . S
C256 C258 1.416 . S
C256 C262 1.448 . S
C257 N254 1.334 . S
C257 C255 1.390 . S
C257 H268 0.930 . S
C258 C255 1.339 . S
C258 C256 1.416 . S
C258 H279 0.930 . S
C259 C260 1.413 . S
C259 C261 1.427 . S
C259 C265 1.416 1_545 S
C260 C253 1.424 . S
C260 C259 1.413 . S
C260 N264 1.361 1_545 S
C261 C259 1.427 . S
C261 C262 1.328 . S
C261 H276 0.929 . S
C262 C256 1.448 . S
C262 C261 1.328 . S
C262 H277 0.930 . S
Tb263 N254 2.617 1_565 S
Tb263 N264 2.572 . S
Tb263 O298 2.349 . S
Tb263 O301 2.393 1_565 S
Tb263 O302 2.465 . S
Tb263 O303 2.387 1_565 S
Tb263 O305 2.428 . S
Tb263 O306 2.308 . S
Tb263 C327 2.802 . S
N264 C260 1.361 1_565 S
N264 Tb263 2.572 . S
N264 C266 1.340 . S
C265 C259 1.416 1_565 S
C265 C267 1.332 . S
C265 H273 0.931 . S
C266 N264 1.340 . S
C266 C267 1.407 . S
C266 H272 0.930 . S
C267 C265 1.332 . S
C267 C266 1.407 . S
C267 H269 0.929 . S
H268 C257 0.930 . S
H269 C267 0.929 . S
H270 C285 0.930 . S
H271 C292 0.929 . S
H272 C266 0.930 . S
H273 C265 0.931 . S
H274 C288 0.930 . S
H275 C255 0.930 . S
H276 C261 0.929 . S
H277 C262 0.930 . S
H278 C283 0.930 . S
H279 C258 0.930 . S
H280 C291 0.931 . S
N281 Tb252 2.617 1_565 S
N281 C282 1.379 . S
N281 C285 1.334 . S
C282 N281 1.379 . S
C282 C284 1.416 . S
C282 C290 1.424 . S
C283 H278 0.930 . S
C283 C285 1.390 . S
C283 C286 1.339 . S
C284 C282 1.416 . S
C284 C286 1.416 . S
C284 C317 1.448 . S
C285 H270 0.930 . S
C285 N281 1.334 . S
C285 C283 1.390 . S
C286 C283 1.339 . S
C286 C284 1.416 . S
C286 H293 0.930 . S
N287 Tb252 2.572 . S
N287 C288 1.340 . S
N287 C290 1.361 1_545 S
C288 H274 0.930 . S
C288 N287 1.340 . S
C288 C292 1.407 . S
C289 C290 1.413 . S
C289 C291 1.416 1_565 S
C289 C318 1.427 . S
C290 C282 1.424 . S
C290 N287 1.361 1_565 S
C290 C289 1.413 . S
C291 H280 0.931 . S
C291 C289 1.416 1_545 S
C291 C292 1.332 . S
C292 H271 0.929 . S
C292 C288 1.407 . S
C292 C291 1.332 . S
H293 C286 0.930 . S
H294 C317 0.930 . S
H295 C318 0.929 . S
O296 Tb252 2.465 . S
O296 C316 1.264 . S
O297 Tb252 2.387 1_565 S
O297 C308 1.264 . S
O298 Tb263 2.349 . S
O298 C308 1.243 . S
O299 Tb252 2.428 . S
O299 C316 1.256 . S
O300 Tb252 2.308 . S
O300 C315 1.266 . S
O301 Tb263 2.393 1_545 S
O301 C315 1.248 . S
O302 Tb263 2.465 . S
O302 C327 1.264 . S
O303 Tb263 2.387 1_545 S
O303 C319 1.264 . S
O304 Tb252 2.349 . S
O304 C319 1.243 . S
O305 Tb263 2.428 . S
O305 C327 1.256 . S
O306 Tb263 2.308 . S
O306 C326 1.266 . S
O307 Tb252 2.393 1_565 S
O307 C326 1.248 . S
C308 O297 1.264 . S
C308 O298 1.243 . S
C309 C312 1.399 . S
C309 C314 1.383 . S
C309 C316 1.496 . S
C310 C311 1.399 . S
C310 C314 1.389 . S
C311 C310 1.399 . S
C311 C313 1.380 . S
C311 H328 0.929 . S
C312 C309 1.399 . S
C312 C313 1.392 . S
C312 H329 0.929 . S
C313 C311 1.380 . S
C313 C312 1.392 . S
C313 H330 0.929 . S
C314 C309 1.383 . S
C314 C310 1.389 . S
C314 H331 0.931 . S
C315 O300 1.266 . S
C315 O301 1.248 . S
C316 Tb252 2.802 . S
C316 O296 1.264 . S
C316 O299 1.256 . S
C316 C309 1.496 . S
C317 C284 1.448 . S
C317 H294 0.930 . S
C317 C318 1.328 . S
C318 C289 1.427 . S
C318 H295 0.929 . S
C318 C317 1.328 . S
C319 O303 1.264 . S
C319 O304 1.243 . S
C320 C323 1.399 . S
C320 C324 1.383 . S
C320 C327 1.496 . S
C321 C322 1.399 . S
C321 C324 1.389 . S
C322 C321 1.399 . S
C322 C325 1.380 . S
C322 H332 0.929 . S
C323 C320 1.399 . S
C323 C325 1.392 . S
C323 H333 0.929 . S
C324 C320 1.383 . S
C324 C321 1.389 . S
C324 H334 0.931 . S
C325 C322 1.380 . S
C325 C323 1.392 . S
C325 H335 0.929 . S
C326 O306 1.266 . S
C326 O307 1.248 . S
C327 Tb263 2.802 . S
C327 O302 1.264 . S
C327 O305 1.256 . S
C327 C320 1.496 . S
H328 C311 0.929 . S
H329 C312 0.929 . S
H330 C313 0.929 . S
H331 C314 0.931 . S
H332 C322 0.929 . S
H333 C323 0.929 . S
H334 C324 0.931 . S
H335 C325 0.929 . S
Tb336 N365 2.617 1_554 S
Tb336 N371 2.572 . S
Tb336 O380 2.472 . S
Tb336 O381 2.387 . S
Tb336 O383 2.428 1_554 S
Tb336 O384 2.308 . S
Tb336 O388 2.349 . S
Tb336 O391 2.393 1_554 S
Tb336 C400 2.802 1_554 S
C337 N338 1.379 . S
C337 C340 1.416 . S
C337 C344 1.424 . S
N338 C337 1.379 . S
N338 C341 1.334 . S
N338 Tb347 2.617 . S
C339 C341 1.390 . S
C339 C342 1.339 . S
C339 H359 0.930 . S
C340 C337 1.416 . S
C340 C342 1.416 . S
C340 C346 1.448 . S
C341 N338 1.334 . S
C341 C339 1.390 . S
C341 H352 0.930 . S
C342 C339 1.339 . S
C342 C340 1.416 . S
C342 H363 0.930 . S
C343 C344 1.413 . S
C343 C345 1.427 . S
C343 C349 1.416 . S
C344 C337 1.424 . S
C344 C343 1.413 . S
C344 N348 1.361 . S
C345 C343 1.427 . S
C345 C346 1.328 . S
C345 H360 0.929 . S
C346 C340 1.448 . S
C346 C345 1.328 . S
C346 H361 0.930 . S
Tb347 N338 2.617 . S
Tb347 N348 2.572 . S
Tb347 O382 2.349 . S
Tb347 O385 2.393 . S
Tb347 O386 2.465 . S
Tb347 O387 2.387 . S
Tb347 O389 2.428 . S
Tb347 O390 2.308 . S
Tb347 C411 2.802 . S
N348 C344 1.361 . S
N348 Tb347 2.572 . S
N348 C350 1.340 . S
C349 C343 1.416 . S
C349 C351 1.332 . S
C349 H357 0.931 . S
C350 N348 1.340 . S
C350 C351 1.407 . S
C350 H356 0.930 . S
C351 C349 1.332 . S
C351 C350 1.407 . S
C351 H353 0.929 . S
H352 C341 0.930 . S
H353 C351 0.929 . S
H354 C369 0.930 . S
H355 C376 0.929 . S
H356 C350 0.930 . S
H357 C349 0.931 . S
H358 C372 0.930 . S
H359 C339 0.930 . S
H360 C345 0.929 . S
H361 C346 0.930 . S
H362 C367 0.930 . S
H363 C342 0.930 . S
H364 C375 0.931 . S
N365 Tb336 2.617 1_556 S
N365 C366 1.379 1_556 S
N365 C369 1.334 . S
C366 N365 1.379 1_554 S
C366 C368 1.418 . S
C366 C374 1.424 . S
C367 H362 0.930 . S
C367 C369 1.390 . S
C367 C370 1.339 . S
C368 C366 1.418 . S
C368 C370 1.411 1_554 S
C368 C401 1.452 . S
C369 H354 0.930 . S
C369 N365 1.334 . S
C369 C367 1.390 . S
C370 C367 1.339 . S
C370 C368 1.411 1_556 S
C370 H377 0.930 . S
N371 Tb336 2.572 . S
N371 C372 1.340 . S
N371 C374 1.361 . S
C372 H358 0.930 . S
C372 N371 1.340 . S
C372 C376 1.407 . S
C373 C374 1.413 . S
C373 C375 1.416 . S
C373 C402 1.427 . S
C374 C366 1.424 . S
C374 N371 1.361 . S
C374 C373 1.413 . S
C375 H364 0.931 . S
C375 C373 1.416 . S
C375 C376 1.332 . S
C376 H355 0.929 . S
C376 C372 1.407 . S
C376 C375 1.332 . S
H377 C370 0.930 . S
H378 C401 0.930 . S
H379 C402 0.929 . S
O380 Tb336 2.472 . S
O380 C400 1.239 1_554 S
O381 Tb336 2.387 . S
O381 C392 1.264 . S
O382 Tb347 2.349 . S
O382 C392 1.243 . S
O383 Tb336 2.428 1_556 S
O383 C400 1.256 . S
O384 Tb336 2.308 . S
O384 C399 1.266 . S
O385 Tb347 2.393 . S
O385 C399 1.248 . S
O386 Tb347 2.465 . S
O386 C411 1.264 . S
O387 Tb347 2.387 . S
O387 C403 1.264 . S
O388 Tb336 2.349 . S
O388 C403 1.243 . S
O389 Tb347 2.428 . S
O389 C411 1.256 . S
O390 Tb347 2.308 . S
O390 C410 1.266 . S
O391 Tb336 2.393 1_556 S
O391 C410 1.248 1_556 S
C392 O381 1.264 . S
C392 O382 1.243 . S
C393 C396 1.399 . S
C393 C398 1.383 . S
C393 C400 1.496 . S
C394 C395 1.399 . S
C394 C398 1.389 . S
C395 C394 1.399 . S
C395 C397 1.380 . S
C395 H412 0.929 . S
C396 C393 1.399 . S
C396 C397 1.392 . S
C396 H413 0.929 . S
C397 C395 1.380 . S
C397 C396 1.392 . S
C397 H414 0.929 . S
C398 C393 1.383 . S
C398 C394 1.389 . S
C398 H415 0.931 . S
C399 O384 1.266 . S
C399 O385 1.248 . S
C400 Tb336 2.802 1_556 S
C400 O380 1.239 1_556 S
C400 O383 1.256 . S
C400 C393 1.496 . S
C401 C368 1.452 . S
C401 H378 0.930 . S
C401 C402 1.328 . S
C402 C373 1.427 . S
C402 H379 0.929 . S
C402 C401 1.328 . S
C403 O387 1.264 . S
C403 O388 1.243 . S
C404 C407 1.399 . S
C404 C408 1.383 . S
C404 C411 1.496 . S
C405 C406 1.399 . S
C405 C408 1.389 . S
C406 C405 1.399 . S
C406 C409 1.380 . S
C406 H416 0.929 . S
C407 C404 1.399 . S
C407 C409 1.392 . S
C407 H417 0.929 . S
C408 C404 1.383 . S
C408 C405 1.389 . S
C408 H418 0.931 . S
C409 C406 1.380 . S
C409 C407 1.392 . S
C409 H419 0.929 . S
C410 O390 1.266 . S
C410 O391 1.248 1_554 S
C411 Tb347 2.802 . S
C411 O386 1.264 . S
C411 O389 1.256 . S
C411 C404 1.496 . S
H412 C395 0.929 . S
H413 C396 0.929 . S
H414 C397 0.929 . S
H415 C398 0.931 . S
H416 C406 0.929 . S
H417 C407 0.929 . S
H418 C408 0.931 . S
H419 C409 0.929 . S
Tb420 N449 2.617 1_655 S
Tb420 N455 2.572 . S
Tb420 O464 2.465 . S
Tb420 O465 2.387 1_655 S
Tb420 O467 2.428 . S
Tb420 O468 2.308 . S
Tb420 O472 2.349 . S
Tb420 O475 2.393 1_655 S
Tb420 C484 2.802 . S
C421 N422 1.379 . S
C421 C424 1.416 . S
C421 C428 1.424 . S
N422 C421 1.379 . S
N422 C425 1.334 . S
N422 Tb431 2.617 1_655 S
C423 C425 1.390 . S
C423 C426 1.339 . S
C423 H443 0.930 . S
C424 C421 1.416 . S
C424 C426 1.416 . S
C424 C430 1.448 . S
C425 N422 1.334 . S
C425 C423 1.390 . S
C425 H436 0.930 . S
C426 C423 1.339 . S
C426 C424 1.416 . S
C426 H447 0.930 . S
C427 C428 1.413 . S
C427 C429 1.427 . S
C427 C433 1.416 1_655 S
C428 C421 1.424 . S
C428 C427 1.413 . S
C428 N432 1.361 1_655 S
C429 C427 1.427 . S
C429 C430 1.328 . S
C429 H444 0.929 . S
C430 C424 1.448 . S
C430 C429 1.328 . S
C430 H445 0.930 . S
Tb431 N422 2.617 1_455 S
Tb431 N432 2.572 . S
Tb431 O466 2.349 . S
Tb431 O469 2.393 1_455 S
Tb431 O470 2.465 . S
Tb431 O471 2.387 1_455 S
Tb431 O473 2.428 . S
Tb431 O474 2.308 . S
Tb431 C495 2.802 . S
N432 C428 1.361 1_455 S
N432 Tb431 2.572 . S
N432 C434 1.340 . S
C433 C427 1.416 1_455 S
C433 C435 1.332 . S
C433 H441 0.931 . S
C434 N432 1.340 . S
C434 C435 1.407 . S
C434 H440 0.930 . S
C435 C433 1.332 . S
C435 C434 1.407 . S
C435 H437 0.929 . S
H436 C425 0.930 . S
H437 C435 0.929 . S
H438 C453 0.930 . S
H439 C460 0.929 . S
H440 C434 0.930 . S
H441 C433 0.931 . S
H442 C456 0.930 . S
H443 C423 0.930 . S
H444 C429 0.929 . S
H445 C430 0.930 . S
H446 C451 0.930 . S
H447 C426 0.930 . S
H448 C459 0.931 . S
N449 Tb420 2.617 1_455 S
N449 C450 1.379 . S
N449 C453 1.334 . S
C450 N449 1.379 . S
C450 C452 1.416 . S
C450 C458 1.424 . S
C451 H446 0.930 . S
C451 C453 1.390 . S
C451 C454 1.339 . S
C452 C450 1.416 . S
C452 C454 1.416 . S
C452 C485 1.448 . S
C453 H438 0.930 . S
C453 N449 1.334 . S
C453 C451 1.390 . S
C454 C451 1.339 . S
C454 C452 1.416 . S
C454 H461 0.930 . S
N455 Tb420 2.572 . S
N455 C456 1.340 . S
N455 C458 1.361 1_655 S
C456 H442 0.930 . S
C456 N455 1.340 . S
C456 C460 1.407 . S
C457 C458 1.413 . S
C457 C459 1.416 1_455 S
C457 C486 1.427 . S
C458 C450 1.424 . S
C458 N455 1.361 1_455 S
C458 C457 1.413 . S
C459 H448 0.931 . S
C459 C457 1.416 1_655 S
C459 C460 1.332 . S
C460 H439 0.929 . S
C460 C456 1.407 . S
C460 C459 1.332 . S
H461 C454 0.930 . S
H462 C485 0.930 . S
H463 C486 0.929 . S
O464 Tb420 2.465 . S
O464 C484 1.264 . S
O465 Tb420 2.387 1_455 S
O465 C476 1.264 . S
O466 Tb431 2.349 . S
O466 C476 1.243 . S
O467 Tb420 2.428 . S
O467 C484 1.256 . S
O468 Tb420 2.308 . S
O468 C483 1.266 . S
O469 Tb431 2.393 1_655 S
O469 C483 1.248 . S
O470 Tb431 2.465 . S
O470 C495 1.264 . S
O471 Tb431 2.387 1_655 S
O471 C487 1.264 . S
O472 Tb420 2.349 . S
O472 C487 1.243 . S
O473 Tb431 2.428 . S
O473 C495 1.256 . S
O474 Tb431 2.308 . S
O474 C494 1.266 . S
O475 Tb420 2.393 1_455 S
O475 C494 1.248 . S
C476 O465 1.264 . S
C476 O466 1.243 . S
C477 C480 1.399 . S
C477 C482 1.383 . S
C477 C484 1.496 . S
C478 C479 1.399 . S
C478 C482 1.389 . S
C479 C478 1.399 . S
C479 C481 1.380 . S
C479 H496 0.929 . S
C480 C477 1.399 . S
C480 C481 1.392 . S
C480 H497 0.929 . S
C481 C479 1.380 . S
C481 C480 1.392 . S
C481 H498 0.929 . S
C482 C477 1.383 . S
C482 C478 1.389 . S
C482 H499 0.931 . S
C483 O468 1.266 . S
C483 O469 1.248 . S
C484 Tb420 2.802 . S
C484 O464 1.264 . S
C484 O467 1.256 . S
C484 C477 1.496 . S
C485 C452 1.448 . S
C485 H462 0.930 . S
C485 C486 1.328 . S
C486 C457 1.427 . S
C486 H463 0.929 . S
C486 C485 1.328 . S
C487 O471 1.264 . S
C487 O472 1.243 . S
C488 C491 1.399 . S
C488 C492 1.383 . S
C488 C495 1.496 . S
C489 C490 1.399 . S
C489 C492 1.389 . S
C490 C489 1.399 . S
C490 C493 1.380 . S
C490 H500 0.929 . S
C491 C488 1.399 . S
C491 C493 1.392 . S
C491 H501 0.929 . S
C492 C488 1.383 . S
C492 C489 1.389 . S
C492 H502 0.931 . S
C493 C490 1.380 . S
C493 C491 1.392 . S
C493 H503 0.929 . S
C494 O474 1.266 . S
C494 O475 1.248 . S
C495 Tb431 2.802 . S
C495 O470 1.264 . S
C495 O473 1.256 . S
C495 C488 1.496 . S
H496 C479 0.929 . S
H497 C480 0.929 . S
H498 C481 0.929 . S
H499 C482 0.931 . S
H500 C490 0.929 . S
H501 C491 0.929 . S
H502 C492 0.931 . S
H503 C493 0.929 . S
Tb504 N533 2.617 1_455 S
Tb504 N539 2.572 . S
Tb504 O548 2.465 . S
Tb504 O549 2.387 1_455 S
Tb504 O551 2.428 . S
Tb504 O552 2.308 . S
Tb504 O556 2.349 . S
Tb504 O559 2.393 1_455 S
Tb504 C568 2.802 . S
C505 N506 1.379 . S
C505 C508 1.416 . S
C505 C512 1.424 . S
N506 C505 1.379 . S
N506 C509 1.334 . S
N506 Tb515 2.617 1_455 S
C507 C509 1.390 . S
C507 C510 1.339 . S
C507 H527 0.930 . S
C508 C505 1.416 . S
C508 C510 1.416 . S
C508 C514 1.448 . S
C509 N506 1.334 . S
C509 C507 1.390 . S
C509 H520 0.930 . S
C510 C507 1.339 . S
C510 C508 1.416 . S
C510 H531 0.930 . S
C511 C512 1.413 . S
C511 C513 1.427 . S
C511 C517 1.416 1_455 S
C512 C505 1.424 . S
C512 C511 1.413 . S
C512 N516 1.361 1_455 S
C513 C511 1.427 . S
C513 C514 1.328 . S
C513 H528 0.929 . S
C514 C508 1.448 . S
C514 C513 1.328 . S
C514 H529 0.930 . S
Tb515 N506 2.617 1_655 S
Tb515 N516 2.572 . S
Tb515 O550 2.349 . S
Tb515 O553 2.393 1_655 S
Tb515 O554 2.465 . S
Tb515 O555 2.387 1_655 S
Tb515 O557 2.428 . S
Tb515 O558 2.308 . S
Tb515 C579 2.802 . S
N516 C512 1.361 1_655 S
N516 Tb515 2.572 . S
N516 C518 1.340 . S
C517 C511 1.416 1_655 S
C517 C519 1.332 . S
C517 H525 0.931 . S
C518 N516 1.340 . S
C518 C519 1.407 . S
C518 H524 0.930 . S
C519 C517 1.332 . S
C519 C518 1.407 . S
C519 H521 0.929 . S
H520 C509 0.930 . S
H521 C519 0.929 . S
H522 C537 0.930 . S
H523 C544 0.929 . S
H524 C518 0.930 . S
H525 C517 0.931 . S
H526 C540 0.930 . S
H527 C507 0.930 . S
H528 C513 0.929 . S
H529 C514 0.930 . S
H530 C535 0.930 . S
H531 C510 0.930 . S
H532 C543 0.931 . S
N533 Tb504 2.617 1_655 S
N533 C534 1.379 . S
N533 C537 1.334 . S
C534 N533 1.379 . S
C534 C536 1.416 . S
C534 C542 1.424 . S
C535 H530 0.930 . S
C535 C537 1.390 . S
C535 C538 1.339 . S
C536 C534 1.416 . S
C536 C538 1.416 . S
C536 C569 1.448 . S
C537 H522 0.930 . S
C537 N533 1.334 . S
C537 C535 1.390 . S
C538 C535 1.339 . S
C538 C536 1.416 . S
C538 H545 0.930 . S
N539 Tb504 2.572 . S
N539 C540 1.340 . S
N539 C542 1.361 1_455 S
C540 H526 0.930 . S
C540 N539 1.340 . S
C540 C544 1.407 . S
C541 C542 1.413 . S
C541 C543 1.416 1_655 S
C541 C570 1.427 . S
C542 C534 1.424 . S
C542 N539 1.361 1_655 S
C542 C541 1.413 . S
C543 H532 0.931 . S
C543 C541 1.416 1_455 S
C543 C544 1.332 . S
C544 H523 0.929 . S
C544 C540 1.407 . S
C544 C543 1.332 . S
H545 C538 0.930 . S
H546 C569 0.930 . S
H547 C570 0.929 . S
O548 Tb504 2.465 . S
O548 C568 1.264 . S
O549 Tb504 2.387 1_655 S
O549 C560 1.264 . S
O550 Tb515 2.349 . S
O550 C560 1.243 . S
O551 Tb504 2.428 . S
O551 C568 1.256 . S
O552 Tb504 2.308 . S
O552 C567 1.266 . S
O553 Tb515 2.393 1_455 S
O553 C567 1.248 . S
O554 Tb515 2.465 . S
O554 C579 1.264 . S
O555 Tb515 2.387 1_455 S
O555 C571 1.264 . S
O556 Tb504 2.349 . S
O556 C571 1.243 . S
O557 Tb515 2.428 . S
O557 C579 1.256 . S
O558 Tb515 2.308 . S
O558 C578 1.266 . S
O559 Tb504 2.393 1_655 S
O559 C578 1.248 . S
C560 O549 1.264 . S
C560 O550 1.243 . S
C561 C564 1.399 . S
C561 C566 1.383 . S
C561 C568 1.496 . S
C562 C563 1.399 . S
C562 C566 1.389 . S
C563 C562 1.399 . S
C563 C565 1.380 . S
C563 H580 0.929 . S
C564 C561 1.399 . S
C564 C565 1.392 . S
C564 H581 0.929 . S
C565 C563 1.380 . S
C565 C564 1.392 . S
C565 H582 0.929 . S
C566 C561 1.383 . S
C566 C562 1.389 . S
C566 H583 0.931 . S
C567 O552 1.266 . S
C567 O553 1.248 . S
C568 Tb504 2.802 . S
C568 O548 1.264 . S
C568 O551 1.256 . S
C568 C561 1.496 . S
C569 C536 1.448 . S
C569 H546 0.930 . S
C569 C570 1.328 . S
C570 C541 1.427 . S
C570 H547 0.929 . S
C570 C569 1.328 . S
C571 O555 1.264 . S
C571 O556 1.243 . S
C572 C575 1.399 . S
C572 C576 1.383 . S
C572 C579 1.496 . S
C573 C574 1.399 . S
C573 C576 1.389 . S
C574 C573 1.399 . S
C574 C577 1.380 . S
C574 H584 0.929 . S
C575 C572 1.399 . S
C575 C577 1.392 . S
C575 H585 0.929 . S
C576 C572 1.383 . S
C576 C573 1.389 . S
C576 H586 0.931 . S
C577 C574 1.380 . S
C577 C575 1.392 . S
C577 H587 0.929 . S
C578 O558 1.266 . S
C578 O559 1.248 . S
C579 Tb515 2.802 . S
C579 O554 1.264 . S
C579 O557 1.256 . S
C579 C572 1.496 . S
H580 C563 0.929 . S
H581 C564 0.929 . S
H582 C565 0.929 . S
H583 C566 0.931 . S
H584 C574 0.929 . S
H585 C575 0.929 . S
H586 C576 0.931 . S
H587 C577 0.929 . S
Tb588 N617 2.617 1_545 S
Tb588 N623 2.572 . S
Tb588 O632 2.465 . S
Tb588 O633 2.387 1_545 S
Tb588 O635 2.428 . S
Tb588 O636 2.308 . S
Tb588 O640 2.349 . S
Tb588 O643 2.393 1_545 S
Tb588 C652 2.802 . S
C589 N590 1.379 . S
C589 C592 1.416 . S
C589 C596 1.424 . S
N590 C589 1.379 . S
N590 C593 1.334 . S
N590 Tb599 2.617 1_545 S
C591 C593 1.390 . S
C591 C594 1.339 . S
C591 H611 0.930 . S
C592 C589 1.416 . S
C592 C594 1.416 . S
C592 C598 1.448 . S
C593 N590 1.334 . S
C593 C591 1.390 . S
C593 H604 0.930 . S
C594 C591 1.339 . S
C594 C592 1.416 . S
C594 H615 0.930 . S
C595 C596 1.413 . S
C595 C597 1.427 . S
C595 C601 1.416 1_545 S
C596 C589 1.424 . S
C596 C595 1.413 . S
C596 N600 1.361 1_545 S
C597 C595 1.427 . S
C597 C598 1.328 . S
C597 H612 0.929 . S
C598 C592 1.448 . S
C598 C597 1.328 . S
C598 H613 0.930 . S
Tb599 N590 2.617 1_565 S
Tb599 N600 2.572 . S
Tb599 O634 2.349 . S
Tb599 O637 2.393 1_565 S
Tb599 O638 2.465 . S
Tb599 O639 2.387 1_565 S
Tb599 O641 2.428 . S
Tb599 O642 2.308 . S
Tb599 C663 2.802 . S
N600 C596 1.361 1_565 S
N600 Tb599 2.572 . S
N600 C602 1.340 . S
C601 C595 1.416 1_565 S
C601 C603 1.332 . S
C601 H609 0.931 . S
C602 N600 1.340 . S
C602 C603 1.407 . S
C602 H608 0.930 . S
C603 C601 1.332 . S
C603 C602 1.407 . S
C603 H605 0.929 . S
H604 C593 0.930 . S
H605 C603 0.929 . S
H606 C621 0.930 . S
H607 C628 0.929 . S
H608 C602 0.930 . S
H609 C601 0.931 . S
H610 C624 0.930 . S
H611 C591 0.930 . S
H612 C597 0.929 . S
H613 C598 0.930 . S
H614 C619 0.930 . S
H615 C594 0.930 . S
H616 C627 0.931 . S
N617 Tb588 2.617 1_565 S
N617 C618 1.379 . S
N617 C621 1.334 . S
C618 N617 1.379 . S
C618 C620 1.416 . S
C618 C626 1.424 . S
C619 H614 0.930 . S
C619 C621 1.390 . S
C619 C622 1.339 . S
C620 C618 1.416 . S
C620 C622 1.416 . S
C620 C653 1.448 . S
C621 H606 0.930 . S
C621 N617 1.334 . S
C621 C619 1.390 . S
C622 C619 1.339 . S
C622 C620 1.416 . S
C622 H629 0.930 . S
N623 Tb588 2.572 . S
N623 C624 1.340 . S
N623 C626 1.361 1_545 S
C624 H610 0.930 . S
C624 N623 1.340 . S
C624 C628 1.407 . S
C625 C626 1.413 . S
C625 C627 1.416 1_565 S
C625 C654 1.427 . S
C626 C618 1.424 . S
C626 N623 1.361 1_565 S
C626 C625 1.413 . S
C627 H616 0.931 . S
C627 C625 1.416 1_545 S
C627 C628 1.332 . S
C628 H607 0.929 . S
C628 C624 1.407 . S
C628 C627 1.332 . S
H629 C622 0.930 . S
H630 C653 0.930 . S
H631 C654 0.929 . S
O632 Tb588 2.465 . S
O632 C652 1.264 . S
O633 Tb588 2.387 1_565 S
O633 C644 1.264 . S
O634 Tb599 2.349 . S
O634 C644 1.243 . S
O635 Tb588 2.428 . S
O635 C652 1.256 . S
O636 Tb588 2.308 . S
O636 C651 1.266 . S
O637 Tb599 2.393 1_545 S
O637 C651 1.248 . S
O638 Tb599 2.465 . S
O638 C663 1.264 . S
O639 Tb599 2.387 1_545 S
O639 C655 1.264 . S
O640 Tb588 2.349 . S
O640 C655 1.243 . S
O641 Tb599 2.428 . S
O641 C663 1.256 . S
O642 Tb599 2.308 . S
O642 C662 1.266 . S
O643 Tb588 2.393 1_565 S
O643 C662 1.248 . S
C644 O633 1.264 . S
C644 O634 1.243 . S
C645 C648 1.399 . S
C645 C650 1.383 . S
C645 C652 1.496 . S
C646 C647 1.399 . S
C646 C650 1.389 . S
C647 C646 1.399 . S
C647 C649 1.380 . S
C647 H664 0.929 . S
C648 C645 1.399 . S
C648 C649 1.392 . S
C648 H665 0.929 . S
C649 C647 1.380 . S
C649 C648 1.392 . S
C649 H666 0.929 . S
C650 C645 1.383 . S
C650 C646 1.389 . S
C650 H667 0.931 . S
C651 O636 1.266 . S
C651 O637 1.248 . S
C652 Tb588 2.802 . S
C652 O632 1.264 . S
C652 O635 1.256 . S
C652 C645 1.496 . S
C653 C620 1.448 . S
C653 H630 0.930 . S
C653 C654 1.328 . S
C654 C625 1.427 . S
C654 H631 0.929 . S
C654 C653 1.328 . S
C655 O639 1.264 . S
C655 O640 1.243 . S
C656 C659 1.399 . S
C656 C660 1.383 . S
C656 C663 1.496 . S
C657 C658 1.399 . S
C657 C660 1.389 . S
C658 C657 1.399 . S
C658 C661 1.380 . S
C658 H668 0.929 . S
C659 C656 1.399 . S
C659 C661 1.392 . S
C659 H669 0.929 . S
C660 C656 1.383 . S
C660 C657 1.389 . S
C660 H670 0.931 . S
C661 C658 1.380 . S
C661 C659 1.392 . S
C661 H671 0.929 . S
C662 O642 1.266 . S
C662 O643 1.248 . S
C663 Tb599 2.802 . S
C663 O638 1.264 . S
C663 O641 1.256 . S
C663 C656 1.496 . S
H664 C647 0.929 . S
H665 C648 0.929 . S
H666 C649 0.929 . S
H667 C650 0.931 . S
H668 C658 0.929 . S
H669 C659 0.929 . S
H670 C660 0.931 . S
H671 C661 0.929 . S
Tb672 N701 2.617 . S
Tb672 N707 2.572 . S
Tb672 O716 2.465 . S
Tb672 O717 2.387 . S
Tb672 O719 2.428 . S
Tb672 O720 2.308 . S
Tb672 O724 2.349 . S
Tb672 O727 2.393 . S
Tb672 C736 2.802 . S
C673 N674 1.379 . S
C673 C676 1.416 . S
C673 C680 1.424 . S
N674 C673 1.379 . S
N674 C677 1.334 . S
N674 Tb683 2.617 . S
C675 C677 1.390 . S
C675 C678 1.339 . S
C675 H695 0.930 . S
C676 C673 1.416 . S
C676 C678 1.416 . S
C676 C682 1.448 . S
C677 N674 1.334 . S
C677 C675 1.390 . S
C677 H688 0.930 . S
C678 C675 1.339 . S
C678 C676 1.416 . S
C678 H699 0.930 . S
C679 C680 1.413 . S
C679 C681 1.427 . S
C679 C685 1.416 . S
C680 C673 1.424 . S
C680 C679 1.413 . S
C680 N684 1.361 . S
C681 C679 1.427 . S
C681 C682 1.328 . S
C681 H696 0.929 . S
C682 C676 1.448 . S
C682 C681 1.328 . S
C682 H697 0.930 . S
Tb683 N674 2.617 . S
Tb683 N684 2.572 . S
Tb683 O718 2.349 . S
Tb683 O721 2.393 . S
Tb683 O722 2.465 . S
Tb683 O723 2.387 . S
Tb683 O725 2.428 . S
Tb683 O726 2.308 . S
Tb683 C747 2.802 . S
N684 C680 1.361 . S
N684 Tb683 2.572 . S
N684 C686 1.340 . S
C685 C679 1.416 . S
C685 C687 1.332 . S
C685 H693 0.931 . S
C686 N684 1.340 . S
C686 C687 1.407 . S
C686 H692 0.930 . S
C687 C685 1.332 . S
C687 C686 1.407 . S
C687 H689 0.929 . S
H688 C677 0.930 . S
H689 C687 0.929 . S
H690 C705 0.930 . S
H691 C712 0.929 . S
H692 C686 0.930 . S
H693 C685 0.931 . S
H694 C708 0.930 . S
H695 C675 0.930 . S
H696 C681 0.929 . S
H697 C682 0.930 . S
H698 C703 0.930 . S
H699 C678 0.930 . S
H700 C711 0.931 . S
N701 Tb672 2.617 . S
N701 C702 1.379 . S
N701 C705 1.334 . S
C702 N701 1.379 . S
C702 C704 1.416 . S
C702 C710 1.424 . S
C703 H698 0.930 . S
C703 C705 1.390 . S
C703 C706 1.339 . S
C704 C702 1.416 . S
C704 C706 1.416 . S
C704 C737 1.448 . S
C705 H690 0.930 . S
C705 N701 1.334 . S
C705 C703 1.390 . S
C706 C703 1.339 . S
C706 C704 1.416 . S
C706 H713 0.930 . S
N707 Tb672 2.572 . S
N707 C708 1.340 . S
N707 C710 1.361 . S
C708 H694 0.930 . S
C708 N707 1.340 . S
C708 C712 1.407 . S
C709 C710 1.413 . S
C709 C711 1.416 . S
C709 C738 1.427 . S
C710 C702 1.424 . S
C710 N707 1.361 . S
C710 C709 1.413 . S
C711 H700 0.931 . S
C711 C709 1.416 . S
C711 C712 1.332 . S
C712 H691 0.929 . S
C712 C708 1.407 . S
C712 C711 1.332 . S
H713 C706 0.930 . S
H714 C737 0.930 . S
H715 C738 0.929 . S
O716 Tb672 2.465 . S
O716 C736 1.264 . S
O717 Tb672 2.387 . S
O717 C728 1.264 . S
O718 Tb683 2.349 . S
O718 C728 1.243 . S
O719 Tb672 2.428 . S
O719 C736 1.256 . S
O720 Tb672 2.308 . S
O720 C735 1.266 . S
O721 Tb683 2.393 . S
O721 C735 1.248 . S
O722 Tb683 2.465 . S
O722 C747 1.264 . S
O723 Tb683 2.387 . S
O723 C739 1.264 . S
O724 Tb672 2.349 . S
O724 C739 1.243 . S
O725 Tb683 2.428 . S
O725 C747 1.256 . S
O726 Tb683 2.308 . S
O726 C746 1.266 . S
O727 Tb672 2.393 . S
O727 C746 1.248 . S
C728 O717 1.264 . S
C728 O718 1.243 . S
C729 C732 1.399 . S
C729 C734 1.383 . S
C729 C736 1.496 . S
C730 C731 1.399 . S
C730 C734 1.389 . S
C731 C730 1.399 . S
C731 C733 1.380 . S
C731 H748 0.929 . S
C732 C729 1.399 . S
C732 C733 1.392 . S
C732 H749 0.929 . S
C733 C731 1.380 . S
C733 C732 1.392 . S
C733 H750 0.929 . S
C734 C729 1.383 . S
C734 C730 1.389 . S
C734 H751 0.931 . S
C735 O720 1.266 . S
C735 O721 1.248 . S
C736 Tb672 2.802 . S
C736 O716 1.264 . S
C736 O719 1.256 . S
C736 C729 1.496 . S
C737 C704 1.448 . S
C737 H714 0.930 . S
C737 C738 1.328 . S
C738 C709 1.427 . S
C738 H715 0.929 . S
C738 C737 1.328 . S
C739 O723 1.264 . S
C739 O724 1.243 . S
C740 C743 1.399 . S
C740 C744 1.383 . S
C740 C747 1.496 . S
C741 C742 1.399 . S
C741 C744 1.389 . S
C742 C741 1.399 . S
C742 C745 1.380 . S
C742 H752 0.929 . S
C743 C740 1.399 . S
C743 C745 1.392 . S
C743 H753 0.929 . S
C744 C740 1.383 . S
C744 C741 1.389 . S
C744 H754 0.931 . S
C745 C742 1.380 . S
C745 C743 1.392 . S
C745 H755 0.929 . S
C746 O726 1.266 . S
C746 O727 1.248 . S
C747 Tb683 2.802 . S
C747 O722 1.264 . S
C747 O725 1.256 . S
C747 C740 1.496 . S
H748 C731 0.929 . S
H749 C732 0.929 . S
H750 C733 0.929 . S
H751 C734 0.931 . S
H752 C742 0.929 . S
H753 C743 0.929 . S
H754 C744 0.931 . S
H755 C745 0.929 . S
Tb756 N785 2.617 1_656 S
Tb756 N791 2.572 . S
Tb756 O800 2.460 1_556 S
Tb756 O801 2.387 1_655 S
Tb756 O803 2.428 1_556 S
Tb756 O804 2.308 . S
Tb756 O808 2.362 . S
Tb756 O811 2.393 1_656 S
Tb756 C820 2.802 1_556 S
C757 N758 1.379 . S
C757 C760 1.416 . S
C757 C764 1.424 . S
N758 C757 1.379 . S
N758 C761 1.334 . S
N758 Tb767 2.617 1_655 S
C759 C761 1.390 . S
C759 C762 1.339 . S
C759 H779 0.930 . S
C760 C757 1.416 . S
C760 C762 1.416 . S
C760 C766 1.448 . S
C761 N758 1.334 . S
C761 C759 1.390 . S
C761 H772 0.930 . S
C762 C759 1.339 . S
C762 C760 1.416 . S
C762 H783 0.930 . S
C763 C764 1.413 . S
C763 C765 1.427 . S
C763 C769 1.416 1_655 S
C764 C757 1.424 . S
C764 C763 1.413 . S
C764 N768 1.361 1_655 S
C765 C763 1.427 . S
C765 C766 1.328 . S
C765 H780 0.929 . S
C766 C760 1.448 . S
C766 C765 1.328 . S
C766 H781 0.930 . S
Tb767 N758 2.617 1_455 S
Tb767 N768 2.572 . S
Tb767 O802 2.349 . S
Tb767 O805 2.393 1_455 S
Tb767 O806 2.465 . S
Tb767 O807 2.387 1_455 S
Tb767 O809 2.428 . S
Tb767 O810 2.308 . S
Tb767 C831 2.802 . S
N768 C764 1.361 1_455 S
N768 Tb767 2.572 . S
N768 C770 1.340 . S
C769 C763 1.416 1_455 S
C769 C771 1.332 . S
C769 H777 0.931 . S
C770 N768 1.340 . S
C770 C771 1.407 . S
C770 H776 0.930 . S
C771 C769 1.332 . S
C771 C770 1.407 . S
C771 H773 0.929 . S
H772 C761 0.930 . S
H773 C771 0.929 . S
H774 C789 0.930 . S
H775 C796 0.929 . S
H776 C770 0.930 . S
H777 C769 0.931 . S
H778 C792 0.930 . S
H779 C759 0.930 . S
H780 C765 0.929 . S
H781 C766 0.930 . S
H782 C787 0.930 . S
H783 C762 0.930 . S
H784 C795 0.931 . S
N785 Tb756 2.617 1_454 S
N785 C786 1.379 1_554 S
N785 C789 1.334 . S
C786 N785 1.379 1_556 S
C786 C788 1.421 . S
C786 C794 1.424 . S
C787 H782 0.930 . S
C787 C789 1.390 . S
C787 C790 1.339 . S
C788 C786 1.421 . S
C788 C790 1.402 1_556 S
C788 C821 1.459 . S
C789 H774 0.930 . S
C789 N785 1.334 . S
C789 C787 1.390 . S
C790 C787 1.339 . S
C790 C788 1.402 1_554 S
C790 H797 0.930 . S
N791 Tb756 2.572 . S
N791 C792 1.340 . S
N791 C794 1.361 1_655 S
C792 H778 0.930 . S
C792 N791 1.340 . S
C792 C796 1.407 . S
C793 C794 1.413 . S
C793 C795 1.416 1_455 S
C793 C822 1.427 . S
C794 C786 1.424 . S
C794 N791 1.361 1_455 S
C794 C793 1.413 . S
C795 H784 0.931 . S
C795 C793 1.416 1_655 S
C795 C796 1.332 . S
C796 H775 0.929 . S
C796 C792 1.407 . S
C796 C795 1.332 . S
H797 C790 0.930 . S
H798 C821 0.930 . S
H799 C822 0.929 . S
O800 Tb756 2.460 1_554 S
O800 C820 1.279 . S
O801 Tb756 2.387 1_455 S
O801 C812 1.264 . S
O802 Tb767 2.349 . S
O802 C812 1.243 . S
O803 Tb756 2.428 1_554 S
O803 C820 1.256 . S
O804 Tb756 2.308 . S
O804 C819 1.266 . S
O805 Tb767 2.393 1_655 S
O805 C819 1.248 . S
O806 Tb767 2.465 . S
O806 C831 1.264 . S
O807 Tb767 2.387 1_655 S
O807 C823 1.264 . S
O808 Tb756 2.362 . S
O808 C823 1.257 . S
O809 Tb767 2.428 . S
O809 C831 1.256 . S
O810 Tb767 2.308 . S
O810 C830 1.266 . S
O811 Tb756 2.393 1_454 S
O811 C830 1.248 1_554 S
C812 O801 1.264 . S
C812 O802 1.243 . S
C813 C816 1.399 . S
C813 C818 1.383 . S
C813 C820 1.496 . S
C814 C815 1.399 . S
C814 C818 1.389 . S
C815 C814 1.399 . S
C815 C817 1.380 . S
C815 H832 0.929 . S
C816 C813 1.399 . S
C816 C817 1.392 . S
C816 H833 0.929 . S
C817 C815 1.380 . S
C817 C816 1.392 . S
C817 H834 0.929 . S
C818 C813 1.383 . S
C818 C814 1.389 . S
C818 H835 0.931 . S
C819 O804 1.266 . S
C819 O805 1.248 . S
C820 Tb756 2.802 1_554 S
C820 O800 1.279 . S
C820 O803 1.256 . S
C820 C813 1.496 . S
C821 C788 1.459 . S
C821 H798 0.930 . S
C821 C822 1.328 . S
C822 C793 1.427 . S
C822 H799 0.929 . S
C822 C821 1.328 . S
C823 O807 1.264 . S
C823 O808 1.257 . S
C824 C827 1.399 . S
C824 C828 1.383 . S
C824 C831 1.496 . S
C825 C826 1.399 . S
C825 C828 1.389 . S
C826 C825 1.399 . S
C826 C829 1.380 . S
C826 H836 0.929 . S
C827 C824 1.399 . S
C827 C829 1.392 . S
C827 H837 0.929 . S
C828 C824 1.383 . S
C828 C825 1.389 . S
C828 H838 0.931 . S
C829 C826 1.380 . S
C829 C827 1.392 . S
C829 H839 0.929 . S
C830 O810 1.266 . S
C830 O811 1.248 1_556 S
C831 Tb767 2.802 . S
C831 O806 1.264 . S
C831 O809 1.256 . S
C831 C824 1.496 . S
H832 C815 0.929 . S
H833 C816 0.929 . S
H834 C817 0.929 . S
H835 C818 0.931 . S
H836 C826 0.929 . S
H837 C827 0.929 . S
H838 C828 0.931 . S
H839 C829 0.929 . S
Tb840 N869 2.617 1_565 S
Tb840 N875 2.572 . S
Tb840 O884 2.465 . S
Tb840 O885 2.387 1_565 S
Tb840 O887 2.428 . S
Tb840 O888 2.308 . S
Tb840 O892 2.349 . S
Tb840 O895 2.393 1_565 S
Tb840 C904 2.802 . S
C841 N842 1.379 . S
C841 C844 1.416 . S
C841 C848 1.424 . S
N842 C841 1.379 . S
N842 C845 1.334 . S
N842 Tb851 2.617 1_565 S
C843 C845 1.390 . S
C843 C846 1.339 . S
C843 H863 0.930 . S
C844 C841 1.416 . S
C844 C846 1.416 . S
C844 C850 1.448 . S
C845 N842 1.334 . S
C845 C843 1.390 . S
C845 H856 0.930 . S
C846 C843 1.339 . S
C846 C844 1.416 . S
C846 H867 0.930 . S
C847 C848 1.413 . S
C847 C849 1.427 . S
C847 C853 1.416 1_565 S
C848 C841 1.424 . S
C848 C847 1.413 . S
C848 N852 1.361 1_565 S
C849 C847 1.427 . S
C849 C850 1.328 . S
C849 H864 0.929 . S
C850 C844 1.448 . S
C850 C849 1.328 . S
C850 H865 0.930 . S
Tb851 N842 2.617 1_545 S
Tb851 N852 2.572 . S
Tb851 O886 2.349 . S
Tb851 O889 2.393 1_545 S
Tb851 O890 2.465 . S
Tb851 O891 2.387 1_545 S
Tb851 O893 2.428 . S
Tb851 O894 2.308 . S
Tb851 C915 2.802 . S
N852 C848 1.361 1_545 S
N852 Tb851 2.572 . S
N852 C854 1.340 . S
C853 C847 1.416 1_545 S
C853 C855 1.332 . S
C853 H861 0.931 . S
C854 N852 1.340 . S
C854 C855 1.407 . S
C854 H860 0.930 . S
C855 C853 1.332 . S
C855 C854 1.407 . S
C855 H857 0.929 . S
H856 C845 0.930 . S
H857 C855 0.929 . S
H858 C873 0.930 . S
H859 C880 0.929 . S
H860 C854 0.930 . S
H861 C853 0.931 . S
H862 C876 0.930 . S
H863 C843 0.930 . S
H864 C849 0.929 . S
H865 C850 0.930 . S
H866 C871 0.930 . S
H867 C846 0.930 . S
H868 C879 0.931 . S
N869 Tb840 2.617 1_545 S
N869 C870 1.379 . S
N869 C873 1.334 . S
C870 N869 1.379 . S
C870 C872 1.416 . S
C870 C878 1.424 . S
C871 H866 0.930 . S
C871 C873 1.390 . S
C871 C874 1.339 . S
C872 C870 1.416 . S
C872 C874 1.416 . S
C872 C905 1.448 . S
C873 H858 0.930 . S
C873 N869 1.334 . S
C873 C871 1.390 . S
C874 C871 1.339 . S
C874 C872 1.416 . S
C874 H881 0.930 . S
N875 Tb840 2.572 . S
N875 C876 1.340 . S
N875 C878 1.361 1_565 S
C876 H862 0.930 . S
C876 N875 1.340 . S
C876 C880 1.407 . S
C877 C878 1.413 . S
C877 C879 1.416 1_545 S
C877 C906 1.427 . S
C878 C870 1.424 . S
C878 N875 1.361 1_545 S
C878 C877 1.413 . S
C879 H868 0.931 . S
C879 C877 1.416 1_565 S
C879 C880 1.332 . S
C880 H859 0.929 . S
C880 C876 1.407 . S
C880 C879 1.332 . S
H881 C874 0.930 . S
H882 C905 0.930 . S
H883 C906 0.929 . S
O884 Tb840 2.465 . S
O884 C904 1.264 . S
O885 Tb840 2.387 1_545 S
O885 C896 1.264 . S
O886 Tb851 2.349 . S
O886 C896 1.243 . S
O887 Tb840 2.428 . S
O887 C904 1.256 . S
O888 Tb840 2.308 . S
O888 C903 1.266 . S
O889 Tb851 2.393 1_565 S
O889 C903 1.248 . S
O890 Tb851 2.465 . S
O890 C915 1.264 . S
O891 Tb851 2.387 1_565 S
O891 C907 1.264 . S
O892 Tb840 2.349 . S
O892 C907 1.243 . S
O893 Tb851 2.428 . S
O893 C915 1.256 . S
O894 Tb851 2.308 . S
O894 C914 1.266 . S
O895 Tb840 2.393 1_545 S
O895 C914 1.248 . S
C896 O885 1.264 . S
C896 O886 1.243 . S
C897 C900 1.399 . S
C897 C902 1.383 . S
C897 C904 1.496 . S
C898 C899 1.399 . S
C898 C902 1.389 . S
C899 C898 1.399 . S
C899 C901 1.380 . S
C899 H916 0.929 . S
C900 C897 1.399 . S
C900 C901 1.392 . S
C900 H917 0.929 . S
C901 C899 1.380 . S
C901 C900 1.392 . S
C901 H918 0.929 . S
C902 C897 1.383 . S
C902 C898 1.389 . S
C902 H919 0.931 . S
C903 O888 1.266 . S
C903 O889 1.248 . S
C904 Tb840 2.802 . S
C904 O884 1.264 . S
C904 O887 1.256 . S
C904 C897 1.496 . S
C905 C872 1.448 . S
C905 H882 0.930 . S
C905 C906 1.328 . S
C906 C877 1.427 . S
C906 H883 0.929 . S
C906 C905 1.328 . S
C907 O891 1.264 . S
C907 O892 1.243 . S
C908 C911 1.399 . S
C908 C912 1.383 . S
C908 C915 1.496 . S
C909 C910 1.399 . S
C909 C912 1.389 . S
C910 C909 1.399 . S
C910 C913 1.380 . S
C910 H920 0.929 . S
C911 C908 1.399 . S
C911 C913 1.392 . S
C911 H921 0.929 . S
C912 C908 1.383 . S
C912 C909 1.389 . S
C912 H922 0.931 . S
C913 C910 1.380 . S
C913 C911 1.392 . S
C913 H923 0.929 . S
C914 O894 1.266 . S
C914 O895 1.248 . S
C915 Tb851 2.802 . S
C915 O890 1.264 . S
C915 O893 1.256 . S
C915 C908 1.496 . S
H916 C899 0.929 . S
H917 C900 0.929 . S
H918 C901 0.929 . S
H919 C902 0.931 . S
H920 C910 0.929 . S
H921 C911 0.929 . S
H922 C912 0.931 . S
H923 C913 0.929 . S
Tb924 N953 2.617 . S
Tb924 N959 2.572 . S
Tb924 O968 2.465 . S
Tb924 O969 2.387 . S
Tb924 O971 2.428 . S
Tb924 O972 2.308 . S
Tb924 O976 2.349 . S
Tb924 O979 2.393 . S
Tb924 C988 2.802 . S
C925 N926 1.379 . S
C925 C928 1.416 . S
C925 C932 1.424 . S
N926 C925 1.379 . S
N926 C929 1.334 . S
N926 Tb935 2.617 . S
C927 C929 1.390 . S
C927 C930 1.339 . S
C927 H947 0.930 . S
C928 C925 1.416 . S
C928 C930 1.416 . S
C928 C934 1.448 . S
C929 N926 1.334 . S
C929 C927 1.390 . S
C929 H940 0.930 . S
C930 C927 1.339 . S
C930 C928 1.416 . S
C930 H951 0.930 . S
C931 C932 1.413 . S
C931 C933 1.427 . S
C931 C937 1.416 . S
C932 C925 1.424 . S
C932 C931 1.413 . S
C932 N936 1.361 . S
C933 C931 1.427 . S
C933 C934 1.328 . S
C933 H948 0.929 . S
C934 C928 1.448 . S
C934 C933 1.328 . S
C934 H949 0.930 . S
Tb935 N926 2.617 . S
Tb935 N936 2.572 . S
Tb935 O970 2.349 . S
Tb935 O973 2.393 . S
Tb935 O974 2.465 . S
Tb935 O975 2.387 . S
Tb935 O977 2.428 . S
Tb935 O978 2.308 . S
Tb935 C999 2.802 . S
N936 C932 1.361 . S
N936 Tb935 2.572 . S
N936 C938 1.340 . S
C937 C931 1.416 . S
C937 C939 1.332 . S
C937 H945 0.931 . S
C938 N936 1.340 . S
C938 C939 1.407 . S
C938 H944 0.930 . S
C939 C937 1.332 . S
C939 C938 1.407 . S
C939 H941 0.929 . S
H940 C929 0.930 . S
H941 C939 0.929 . S
H942 C957 0.930 . S
H943 C964 0.929 . S
H944 C938 0.930 . S
H945 C937 0.931 . S
H946 C960 0.930 . S
H947 C927 0.930 . S
H948 C933 0.929 . S
H949 C934 0.930 . S
H950 C955 0.930 . S
H951 C930 0.930 . S
H952 C963 0.931 . S
N953 Tb924 2.617 . S
N953 C954 1.379 . S
N953 C957 1.334 . S
C954 N953 1.379 . S
C954 C956 1.416 . S
C954 C962 1.424 . S
C955 H950 0.930 . S
C955 C957 1.390 . S
C955 C958 1.339 . S
C956 C954 1.416 . S
C956 C958 1.416 . S
C956 C989 1.448 . S
C957 H942 0.930 . S
C957 N953 1.334 . S
C957 C955 1.390 . S
C958 C955 1.339 . S
C958 C956 1.416 . S
C958 H965 0.930 . S
N959 Tb924 2.572 . S
N959 C960 1.340 . S
N959 C962 1.361 . S
C960 H946 0.930 . S
C960 N959 1.340 . S
C960 C964 1.407 . S
C961 C962 1.413 . S
C961 C963 1.416 . S
C961 C990 1.427 . S
C962 C954 1.424 . S
C962 N959 1.361 . S
C962 C961 1.413 . S
C963 H952 0.931 . S
C963 C961 1.416 . S
C963 C964 1.332 . S
C964 H943 0.929 . S
C964 C960 1.407 . S
C964 C963 1.332 . S
H965 C958 0.930 . S
H966 C989 0.930 . S
H967 C990 0.929 . S
O968 Tb924 2.465 . S
O968 C988 1.264 . S
O969 Tb924 2.387 . S
O969 C980 1.264 . S
O970 Tb935 2.349 . S
O970 C980 1.243 . S
O971 Tb924 2.428 . S
O971 C988 1.256 . S
O972 Tb924 2.308 . S
O972 C987 1.266 . S
O973 Tb935 2.393 . S
O973 C987 1.248 . S
O974 Tb935 2.465 . S
O974 C999 1.264 . S
O975 Tb935 2.387 . S
O975 C991 1.264 . S
O976 Tb924 2.349 . S
O976 C991 1.243 . S
O977 Tb935 2.428 . S
O977 C999 1.256 . S
O978 Tb935 2.308 . S
O978 C998 1.266 . S
O979 Tb924 2.393 . S
O979 C998 1.248 . S
C980 O969 1.264 . S
C980 O970 1.243 . S
C981 C984 1.399 . S
C981 C986 1.383 . S
C981 C988 1.496 . S
C982 C983 1.399 . S
C982 C986 1.389 . S
C983 C982 1.399 . S
C983 C985 1.380 . S
C983 H1000 0.929 . S
C984 C981 1.399 . S
C984 C985 1.392 . S
C984 H1001 0.929 . S
C985 C983 1.380 . S
C985 C984 1.392 . S
C985 H1002 0.929 . S
C986 C981 1.383 . S
C986 C982 1.389 . S
C986 H1003 0.931 . S
C987 O972 1.266 . S
C987 O973 1.248 . S
C988 Tb924 2.802 . S
C988 O968 1.264 . S
C988 O971 1.256 . S
C988 C981 1.496 . S
C989 C956 1.448 . S
C989 H966 0.930 . S
C989 C990 1.328 . S
C990 C961 1.427 . S
C990 H967 0.929 . S
C990 C989 1.328 . S
C991 O975 1.264 . S
C991 O976 1.243 . S
C992 C995 1.399 . S
C992 C996 1.383 . S
C992 C999 1.496 . S
C993 C994 1.399 . S
C993 C996 1.389 . S
C994 C993 1.399 . S
C994 C997 1.380 . S
C994 H1004 0.929 . S
C995 C992 1.399 . S
C995 C997 1.392 . S
C995 H1005 0.929 . S
C996 C992 1.383 . S
C996 C993 1.389 . S
C996 H1006 0.931 . S
C997 C994 1.380 . S
C997 C995 1.392 . S
C997 H1007 0.929 . S
C998 O978 1.266 . S
C998 O979 1.248 . S
C999 Tb935 2.802 . S
C999 O974 1.264 . S
C999 O977 1.256 . S
C999 C992 1.496 . S
H1000 C983 0.929 . S
H1001 C984 0.929 . S
H1002 C985 0.929 . S
H1003 C986 0.931 . S
H1004 C994 0.929 . S
H1005 C995 0.929 . S
H1006 C996 0.931 . S
H1007 C997 0.929 . S
C1008 C1009 1.387 . S
C1008 H1012 0.950 . S
C1008 C1017 1.390 . S
C1009 C1008 1.387 . S
C1009 C1011 1.387 . S
H1010 C1017 0.950 . S
C1011 C1009 1.387 . S
C1011 C1013 1.390 . S
C1011 H1015 0.950 . S
H1012 C1008 0.950 . S
C1013 C1011 1.390 . S
C1013 C1014 1.387 . S
C1013 H1016 0.950 . S
C1014 C1013 1.387 . S
C1014 C1017 1.387 . S
H1015 C1011 0.950 . S
H1016 C1013 0.950 . S
C1017 C1008 1.390 . S
C1017 H1010 0.950 . S
C1017 C1014 1.387 . S
C1018 C1019 1.387 . S
C1018 H1022 0.950 1_545 S
C1018 C1027 1.390 . S
C1019 C1018 1.387 . S
C1019 C1021 1.387 . S
H1020 C1027 0.950 1_565 S
C1021 C1019 1.387 . S
C1021 C1023 1.390 . S
C1021 H1025 0.950 . S
H1022 C1018 0.950 1_565 S
C1023 C1021 1.390 . S
C1023 C1024 1.387 . S
C1023 H1026 0.950 . S
C1024 C1023 1.387 . S
C1024 C1027 1.387 . S
H1025 C1021 0.950 . S
H1026 C1023 0.950 . S
C1027 C1018 1.390 . S
C1027 H1020 0.950 1_545 S
C1027 C1024 1.387 . S
C1028 C1029 1.387 . S
C1028 H1032 0.950 . S
C1028 C1037 1.390 . S
C1029 C1028 1.387 . S
C1029 C1031 1.387 . S
H1030 C1037 0.950 . S
C1031 C1029 1.387 . S
C1031 C1033 1.390 . S
C1031 H1035 0.950 . S
H1032 C1028 0.950 . S
C1033 C1031 1.390 . S
C1033 C1034 1.387 . S
C1033 H1036 0.950 . S
C1034 C1033 1.387 . S
C1034 C1037 1.387 . S
H1035 C1031 0.950 . S
H1036 C1033 0.950 . S
C1037 C1028 1.390 . S
C1037 H1030 0.950 . S
C1037 C1034 1.387 . S
C1038 C1039 1.387 . S
C1038 H1042 0.950 . S
C1038 C1047 1.390 . S
C1039 C1038 1.387 . S
C1039 C1041 1.387 . S
H1040 C1047 0.950 . S
C1041 C1039 1.387 . S
C1041 C1043 1.390 . S
C1041 H1045 0.950 . S
H1042 C1038 0.950 . S
C1043 C1041 1.390 . S
C1043 C1044 1.387 . S
C1043 H1046 0.950 . S
C1044 C1043 1.387 . S
C1044 C1047 1.387 . S
H1045 C1041 0.950 . S
H1046 C1043 0.950 . S
C1047 C1038 1.390 . S
C1047 H1040 0.950 . S
C1047 C1044 1.387 . S
C1048 C1049 1.387 . S
C1048 H1052 0.950 1_565 S
C1048 C1057 1.390 . S
C1049 C1048 1.387 . S
C1049 C1051 1.387 . S
H1050 C1057 0.950 1_545 S
C1051 C1049 1.387 . S
C1051 C1053 1.390 . S
C1051 H1055 0.950 . S
H1052 C1048 0.950 1_545 S
C1053 C1051 1.390 . S
C1053 C1054 1.387 . S
C1053 H1056 0.950 . S
C1054 C1053 1.387 . S
C1054 C1057 1.387 . S
H1055 C1051 0.950 . S
H1056 C1053 0.950 . S
C1057 C1048 1.390 . S
C1057 H1050 0.950 1_565 S
C1057 C1054 1.387 . S
C1058 C1059 1.387 . S
C1058 H1062 0.950 . S
C1058 C1067 1.390 . S
C1059 C1058 1.387 . S
C1059 C1061 1.387 . S
H1060 C1067 0.950 . S
C1061 C1059 1.387 . S
C1061 C1063 1.390 . S
C1061 H1065 0.950 . S
H1062 C1058 0.950 . S
C1063 C1061 1.390 . S
C1063 C1064 1.387 . S
C1063 H1066 0.950 . S
C1064 C1063 1.387 . S
C1064 C1067 1.387 . S
H1065 C1061 0.950 . S
H1066 C1063 0.950 . S
C1067 C1058 1.390 . S
C1067 H1060 0.950 . S
C1067 C1064 1.387 . S
C1068 C1069 1.387 . S
C1068 H1072 0.950 . S
C1068 C1077 1.390 . S
C1069 C1068 1.387 . S
C1069 C1071 1.387 . S
H1070 C1077 0.950 . S
C1071 C1069 1.387 . S
C1071 C1073 1.390 . S
C1071 H1075 0.950 . S
H1072 C1068 0.950 . S
C1073 C1071 1.390 . S
C1073 C1074 1.387 . S
C1073 H1076 0.950 . S
C1074 C1073 1.387 . S
C1074 C1077 1.387 . S
H1075 C1071 0.950 . S
H1076 C1073 0.950 . S
C1077 C1068 1.390 . S
C1077 H1070 0.950 . S
C1077 C1074 1.387 . S
C1078 C1079 1.387 . S
C1078 H1082 0.950 . S
C1078 C1087 1.390 . S
C1079 C1078 1.387 . S
C1079 C1081 1.387 . S
H1080 C1087 0.950 . S
C1081 C1079 1.387 . S
C1081 C1083 1.390 . S
C1081 H1085 0.950 . S
H1082 C1078 0.950 . S
C1083 C1081 1.390 . S
C1083 C1084 1.387 . S
C1083 H1086 0.950 . S
C1084 C1083 1.387 . S
C1084 C1087 1.387 . S
H1085 C1081 0.950 . S
H1086 C1083 0.950 . S
C1087 C1078 1.390 . S
C1087 H1080 0.950 . S
C1087 C1084 1.387 . S
C1088 C1089 1.387 . S
C1088 H1092 0.950 . S
C1088 C1097 1.390 . S
C1089 C1088 1.387 . S
C1089 C1091 1.387 . S
H1090 C1097 0.950 . S
C1091 C1089 1.387 . S
C1091 C1093 1.390 . S
C1091 H1095 0.950 . S
H1092 C1088 0.950 . S
C1093 C1091 1.390 . S
C1093 C1094 1.387 . S
C1093 H1096 0.950 . S
C1094 C1093 1.387 . S
C1094 C1097 1.387 . S
H1095 C1091 0.950 . S
H1096 C1093 0.950 . S
C1097 C1088 1.390 . S
C1097 H1090 0.950 . S
C1097 C1094 1.387 . S
C1098 C1099 1.387 . S
C1098 H1102 0.950 . S
C1098 C1107 1.390 . S
C1099 C1098 1.387 . S
C1099 C1101 1.387 . S
H1100 C1107 0.950 . S
C1101 C1099 1.387 . S
C1101 C1103 1.390 . S
C1101 H1105 0.950 . S
H1102 C1098 0.950 . S
C1103 C1101 1.390 . S
C1103 C1104 1.387 . S
C1103 H1106 0.950 . S
C1104 C1103 1.387 . S
C1104 C1107 1.387 . S
H1105 C1101 0.950 . S
H1106 C1103 0.950 . S
C1107 C1098 1.390 . S
C1107 H1100 0.950 . S
C1107 C1104 1.387 . S
C1108 C1109 1.387 . S
C1108 H1112 0.950 . S
C1108 C1117 1.390 . S
C1109 C1108 1.387 . S
C1109 C1111 1.387 . S
H1110 C1117 0.950 . S
C1111 C1109 1.387 . S
C1111 C1113 1.390 . S
C1111 H1115 0.950 . S
H1112 C1108 0.950 . S
C1113 C1111 1.390 . S
C1113 C1114 1.387 . S
C1113 H1116 0.950 . S
C1114 C1113 1.387 . S
C1114 C1117 1.387 . S
H1115 C1111 0.950 . S
H1116 C1113 0.950 . S
C1117 C1108 1.390 . S
C1117 H1110 0.950 . S
C1117 C1114 1.387 . S
C1118 C1119 1.387 . S
C1118 H1122 0.950 . S
C1118 C1127 1.390 . S
C1119 C1118 1.387 . S
C1119 C1121 1.387 . S
H1120 C1127 0.950 . S
C1121 C1119 1.387 . S
C1121 C1123 1.390 . S
C1121 H1125 0.950 . S
H1122 C1118 0.950 . S
C1123 C1121 1.390 . S
C1123 C1124 1.387 . S
C1123 H1126 0.950 . S
C1124 C1123 1.387 . S
C1124 C1127 1.387 . S
H1125 C1121 0.950 . S
H1126 C1123 0.950 . S
C1127 C1118 1.390 . S
C1127 H1120 0.950 . S
C1127 C1124 1.387 . S
C1128 C1129 1.387 . S
C1128 H1132 0.950 . S
C1128 C1137 1.390 . S
C1129 C1128 1.387 . S
C1129 C1131 1.387 . S
H1130 C1137 0.950 . S
C1131 C1129 1.387 . S
C1131 C1133 1.390 . S
C1131 H1135 0.950 . S
H1132 C1128 0.950 . S
C1133 C1131 1.390 . S
C1133 C1134 1.387 . S
C1133 H1136 0.950 . S
C1134 C1133 1.387 . S
C1134 C1137 1.387 . S
H1135 C1131 0.950 . S
H1136 C1133 0.950 . S
C1137 C1128 1.390 . S
C1137 H1130 0.950 . S
C1137 C1134 1.387 . S
C1138 C1139 1.387 . S
C1138 H1142 0.950 . S
C1138 C1147 1.390 . S
C1139 C1138 1.387 . S
C1139 C1141 1.387 . S
H1140 C1147 0.950 . S
C1141 C1139 1.387 . S
C1141 C1143 1.390 . S
C1141 H1145 0.950 . S
H1142 C1138 0.950 . S
C1143 C1141 1.390 . S
C1143 C1144 1.387 . S
C1143 H1146 0.950 . S
C1144 C1143 1.387 . S
C1144 C1147 1.387 . S
H1145 C1141 0.950 . S
H1146 C1143 0.950 . S
C1147 C1138 1.390 . S
C1147 H1140 0.950 . S
C1147 C1144 1.387 . S
C1148 C1149 1.387 . S
C1148 H1152 0.950 . S
C1148 C1157 1.390 . S
C1149 C1148 1.387 . S
C1149 C1151 1.387 . S
H1150 C1157 0.950 . S
C1151 C1149 1.387 . S
C1151 C1153 1.390 . S
C1151 H1155 0.950 . S
H1152 C1148 0.950 . S
C1153 C1151 1.390 . S
C1153 C1154 1.387 . S
C1153 H1156 0.950 . S
C1154 C1153 1.387 . S
C1154 C1157 1.387 . S
H1155 C1151 0.950 . S
H1156 C1153 0.950 . S
C1157 C1148 1.390 . S
C1157 H1150 0.950 . S
C1157 C1154 1.387 . S
C1158 C1159 1.387 . S
C1158 H1162 0.950 . S
C1158 C1167 1.390 . S
C1159 C1158 1.387 . S
C1159 C1161 1.387 . S
H1160 C1167 0.950 . S
C1161 C1159 1.387 . S
C1161 C1163 1.390 . S
C1161 H1165 0.950 . S
H1162 C1158 0.950 . S
C1163 C1161 1.390 . S
C1163 C1164 1.387 . S
C1163 H1166 0.950 . S
C1164 C1163 1.387 . S
C1164 C1167 1.387 . S
H1165 C1161 0.950 . S
H1166 C1163 0.950 . S
C1167 C1158 1.390 . S
C1167 H1160 0.950 . S
C1167 C1164 1.387 . S
C1168 C1169 1.387 . S
C1168 H1172 0.950 . S
C1168 C1177 1.390 . S
C1169 C1168 1.387 . S
C1169 C1171 1.387 1_556 S
H1170 C1177 0.950 . S
C1171 C1169 1.387 1_554 S
C1171 C1173 1.390 . S
C1171 H1175 0.950 . S
H1172 C1168 0.950 . S
C1173 C1171 1.390 . S
C1173 C1174 1.387 1_554 S
C1173 H1176 0.950 . S
C1174 C1173 1.387 1_556 S
C1174 C1177 1.387 . S
H1175 C1171 0.950 . S
H1176 C1173 0.950 . S
C1177 C1168 1.390 . S
C1177 H1170 0.950 . S
C1177 C1174 1.387 . S
C1178 C1179 1.387 . S
C1178 H1182 0.950 . S
C1178 C1187 1.390 . S
C1179 C1178 1.387 . S
C1179 C1181 1.387 . S
H1180 C1187 0.950 . S
C1181 C1179 1.387 . S
C1181 C1183 1.390 . S
C1181 H1185 0.950 . S
H1182 C1178 0.950 . S
C1183 C1181 1.390 . S
C1183 C1184 1.387 . S
C1183 H1186 0.950 . S
C1184 C1183 1.387 . S
C1184 C1187 1.387 . S
H1185 C1181 0.950 . S
H1186 C1183 0.950 . S
C1187 C1178 1.390 . S
C1187 H1180 0.950 . S
C1187 C1184 1.387 . S
C1188 C1189 1.387 . S
C1188 H1192 0.950 . S
C1188 C1197 1.390 . S
C1189 C1188 1.387 . S
C1189 C1191 1.387 . S
H1190 C1197 0.950 . S
C1191 C1189 1.387 . S
C1191 C1193 1.390 . S
C1191 H1195 0.950 . S
H1192 C1188 0.950 . S
C1193 C1191 1.390 . S
C1193 C1194 1.387 . S
C1193 H1196 0.950 . S
C1194 C1193 1.387 . S
C1194 C1197 1.387 . S
H1195 C1191 0.950 . S
H1196 C1193 0.950 . S
C1197 C1188 1.390 . S
C1197 H1190 0.950 . S
C1197 C1194 1.387 . S
C1198 C1199 1.387 . S
C1198 H1202 0.950 . S
C1198 C1207 1.390 . S
C1199 C1198 1.387 . S
C1199 C1201 1.387 . S
H1200 C1207 0.950 . S
C1201 C1199 1.387 . S
C1201 C1203 1.390 . S
C1201 H1205 0.950 . S
H1202 C1198 0.950 . S
C1203 C1201 1.390 . S
C1203 C1204 1.387 . S
C1203 H1206 0.950 . S
C1204 C1203 1.387 . S
C1204 C1207 1.387 . S
H1205 C1201 0.950 . S
H1206 C1203 0.950 . S
C1207 C1198 1.390 . S
C1207 H1200 0.950 . S
C1207 C1204 1.387 . S
C1208 C1209 1.387 . S
C1208 H1212 0.950 . S
C1208 C1217 1.390 . S
C1209 C1208 1.387 . S
C1209 C1211 1.387 . S
H1210 C1217 0.950 . S
C1211 C1209 1.387 . S
C1211 C1213 1.390 . S
C1211 H1215 0.950 . S
H1212 C1208 0.950 . S
C1213 C1211 1.390 . S
C1213 C1214 1.387 . S
C1213 H1216 0.950 . S
C1214 C1213 1.387 . S
C1214 C1217 1.387 . S
H1215 C1211 0.950 . S
H1216 C1213 0.950 . S
C1217 C1208 1.390 . S
C1217 H1210 0.950 . S
C1217 C1214 1.387 . S
C1218 C1219 1.387 1_556 S
C1218 H1222 0.950 . S
C1218 C1227 1.390 . S
C1219 C1218 1.387 1_554 S
C1219 C1221 1.387 . S
H1220 C1227 0.950 . S
C1221 C1219 1.387 . S
C1221 C1223 1.390 . S
C1221 H1225 0.950 . S
H1222 C1218 0.950 . S
C1223 C1221 1.390 . S
C1223 C1224 1.387 . S
C1223 H1226 0.950 . S
C1224 C1223 1.387 . S
C1224 C1227 1.387 1_554 S
H1225 C1221 0.950 . S
H1226 C1223 0.950 . S
C1227 C1218 1.390 . S
C1227 H1220 0.950 . S
C1227 C1224 1.387 1_556 S
C1228 C1229 1.387 . S
C1228 H1232 0.950 . S
C1228 C1237 1.390 . S
C1229 C1228 1.387 . S
C1229 C1231 1.387 . S
H1230 C1237 0.950 . S
C1231 C1229 1.387 . S
C1231 C1233 1.390 . S
C1231 H1235 0.950 . S
H1232 C1228 0.950 . S
C1233 C1231 1.390 . S
C1233 C1234 1.387 . S
C1233 H1236 0.950 . S
C1234 C1233 1.387 . S
C1234 C1237 1.387 . S
H1235 C1231 0.950 . S
H1236 C1233 0.950 . S
C1237 C1228 1.390 . S
C1237 H1230 0.950 . S
C1237 C1234 1.387 . S
C1238 C1239 1.387 . S
C1238 H1242 0.950 . S
C1238 C1247 1.390 . S
C1239 C1238 1.387 . S
C1239 C1241 1.387 . S
H1240 C1247 0.950 . S
C1241 C1239 1.387 . S
C1241 C1243 1.390 . S
C1241 H1245 0.950 . S
H1242 C1238 0.950 . S
C1243 C1241 1.390 . S
C1243 C1244 1.387 . S
C1243 H1246 0.950 . S
C1244 C1243 1.387 . S
C1244 C1247 1.387 . S
H1245 C1241 0.950 . S
H1246 C1243 0.950 . S
C1247 C1238 1.390 . S
C1247 H1240 0.950 . S
C1247 C1244 1.387 . S
C1248 C1249 1.387 . S
C1248 H1252 0.950 . S
C1248 C1257 1.390 . S
C1249 C1248 1.387 . S
C1249 C1251 1.387 . S
H1250 C1257 0.950 . S
C1251 C1249 1.387 . S
C1251 C1253 1.390 . S
C1251 H1255 0.950 . S
H1252 C1248 0.950 . S
C1253 C1251 1.390 . S
C1253 C1254 1.387 . S
C1253 H1256 0.950 . S
C1254 C1253 1.387 . S
C1254 C1257 1.387 . S
H1255 C1251 0.950 . S
H1256 C1253 0.950 . S
C1257 C1248 1.390 . S
C1257 H1250 0.950 . S
C1257 C1254 1.387 . S
C1258 C1259 1.387 . S
C1258 H1262 0.950 . S
C1258 C1267 1.390 . S
C1259 C1258 1.387 . S
C1259 C1261 1.387 . S
H1260 C1267 0.950 . S
C1261 C1259 1.387 . S
C1261 C1263 1.390 . S
C1261 H1265 0.950 . S
H1262 C1258 0.950 . S
C1263 C1261 1.390 . S
C1263 C1264 1.387 . S
C1263 H1266 0.950 . S
C1264 C1263 1.387 . S
C1264 C1267 1.387 . S
H1265 C1261 0.950 . S
H1266 C1263 0.950 . S
C1267 C1258 1.390 . S
C1267 H1260 0.950 . S
C1267 C1264 1.387 . S
C1268 C1269 1.387 . S
C1268 H1272 0.950 . S
C1268 C1277 1.390 . S
C1269 C1268 1.387 . S
C1269 C1271 1.387 . S
H1270 C1277 0.950 . S
C1271 C1269 1.387 . S
C1271 C1273 1.390 . S
C1271 H1275 0.950 . S
H1272 C1268 0.950 . S
C1273 C1271 1.390 . S
C1273 C1274 1.387 . S
C1273 H1276 0.950 . S
C1274 C1273 1.387 . S
C1274 C1277 1.387 . S
H1275 C1271 0.950 . S
H1276 C1273 0.950 . S
C1277 C1268 1.390 . S
C1277 H1270 0.950 . S
C1277 C1274 1.387 . S
C1278 C1279 1.387 . S
C1278 H1282 0.950 . S
C1278 C1287 1.390 . S
C1279 C1278 1.387 . S
C1279 C1281 1.387 . S
H1280 C1287 0.950 . S
C1281 C1279 1.387 . S
C1281 C1283 1.390 . S
C1281 H1285 0.950 . S
H1282 C1278 0.950 . S
C1283 C1281 1.390 . S
C1283 C1284 1.387 . S
C1283 H1286 0.950 . S
C1284 C1283 1.387 . S
C1284 C1287 1.387 . S
H1285 C1281 0.950 . S
H1286 C1283 0.950 . S
C1287 C1278 1.390 . S
C1287 H1280 0.950 . S
C1287 C1284 1.387 . S
C1288 C1289 1.387 . S
C1288 H1292 0.950 . S
C1288 C1297 1.390 . S
C1289 C1288 1.387 . S
C1289 C1291 1.387 . S
H1290 C1297 0.950 . S
C1291 C1289 1.387 . S
C1291 C1293 1.390 . S
C1291 H1295 0.950 . S
H1292 C1288 0.950 . S
C1293 C1291 1.390 . S
C1293 C1294 1.387 . S
C1293 H1296 0.950 . S
C1294 C1293 1.387 . S
C1294 C1297 1.387 . S
H1295 C1291 0.950 . S
H1296 C1293 0.950 . S
C1297 C1288 1.390 . S
C1297 H1290 0.950 . S
C1297 C1294 1.387 . S
C1298 C1299 1.387 . S
C1298 H1302 0.950 . S
C1298 C1307 1.390 . S
C1299 C1298 1.387 . S
C1299 C1301 1.387 . S
H1300 C1307 0.950 . S
C1301 C1299 1.387 . S
C1301 C1303 1.390 . S
C1301 H1305 0.950 . S
H1302 C1298 0.950 . S
C1303 C1301 1.390 . S
C1303 C1304 1.387 . S
C1303 H1306 0.950 . S
C1304 C1303 1.387 . S
C1304 C1307 1.387 . S
H1305 C1301 0.950 . S
H1306 C1303 0.950 . S
C1307 C1298 1.390 . S
C1307 H1300 0.950 . S
C1307 C1304 1.387 . S
C1308 C1309 1.387 . S
C1308 H1312 0.950 . S
C1308 C1317 1.390 . S
C1309 C1308 1.387 . S
C1309 C1311 1.387 . S
H1310 C1317 0.950 . S
C1311 C1309 1.387 . S
C1311 C1313 1.390 . S
C1311 H1315 0.950 . S
H1312 C1308 0.950 . S
C1313 C1311 1.390 . S
C1313 C1314 1.387 . S
C1313 H1316 0.950 . S
C1314 C1313 1.387 . S
C1314 C1317 1.387 . S
H1315 C1311 0.950 . S
H1316 C1313 0.950 . S
C1317 C1308 1.390 . S
C1317 H1310 0.950 . S
C1317 C1314 1.387 . S
C1318 C1319 1.387 . S
C1318 H1322 0.950 . S
C1318 C1327 1.390 . S
C1319 C1318 1.387 . S
C1319 C1321 1.387 . S
H1320 C1327 0.950 . S
C1321 C1319 1.387 . S
C1321 C1323 1.390 . S
C1321 H1325 0.950 . S
H1322 C1318 0.950 . S
C1323 C1321 1.390 . S
C1323 C1324 1.387 . S
C1323 H1326 0.950 . S
C1324 C1323 1.387 . S
C1324 C1327 1.387 . S
H1325 C1321 0.950 . S
H1326 C1323 0.950 . S
C1327 C1318 1.390 . S
C1327 H1320 0.950 . S
C1327 C1324 1.387 . S
C1328 C1329 1.387 . S
C1328 H1332 0.950 . S
C1328 C1337 1.390 . S
C1329 C1328 1.387 . S
C1329 C1331 1.387 . S
H1330 C1337 0.950 . S
C1331 C1329 1.387 . S
C1331 C1333 1.390 . S
C1331 H1335 0.950 . S
H1332 C1328 0.950 . S
C1333 C1331 1.390 . S
C1333 C1334 1.387 . S
C1333 H1336 0.950 . S
C1334 C1333 1.387 . S
C1334 C1337 1.387 . S
H1335 C1331 0.950 . S
H1336 C1333 0.950 . S
C1337 C1328 1.390 . S
C1337 H1330 0.950 . S
C1337 C1334 1.387 . S
C1338 C1339 1.387 . S
C1338 H1342 0.950 . S
C1338 C1347 1.390 . S
C1339 C1338 1.387 . S
C1339 C1341 1.387 . S
H1340 C1347 0.950 . S
C1341 C1339 1.387 . S
C1341 C1343 1.390 . S
C1341 H1345 0.950 . S
H1342 C1338 0.950 . S
C1343 C1341 1.390 . S
C1343 C1344 1.387 . S
C1343 H1346 0.950 . S
C1344 C1343 1.387 . S
C1344 C1347 1.387 . S
H1345 C1341 0.950 . S
H1346 C1343 0.950 . S
C1347 C1338 1.390 . S
C1347 H1340 0.950 . S
C1347 C1344 1.387 . S
C1348 C1349 1.387 . S
C1348 H1352 0.950 . S
C1348 C1357 1.390 . S
C1349 C1348 1.387 . S
C1349 C1351 1.387 . S
H1350 C1357 0.950 . S
C1351 C1349 1.387 . S
C1351 C1353 1.390 . S
C1351 H1355 0.950 . S
H1352 C1348 0.950 . S
C1353 C1351 1.390 . S
C1353 C1354 1.387 . S
C1353 H1356 0.950 . S
C1354 C1353 1.387 . S
C1354 C1357 1.387 . S
H1355 C1351 0.950 . S
H1356 C1353 0.950 . S
C1357 C1348 1.390 . S
C1357 H1350 0.950 . S
C1357 C1354 1.387 . S
C1358 C1359 1.387 . S
C1358 H1362 0.950 . S
C1358 C1367 1.390 . S
C1359 C1358 1.387 . S
C1359 C1361 1.387 . S
H1360 C1367 0.950 . S
C1361 C1359 1.387 . S
C1361 C1363 1.390 . S
C1361 H1365 0.950 . S
H1362 C1358 0.950 . S
C1363 C1361 1.390 . S
C1363 C1364 1.387 . S
C1363 H1366 0.950 . S
C1364 C1363 1.387 . S
C1364 C1367 1.387 . S
H1365 C1361 0.950 . S
H1366 C1363 0.950 . S
C1367 C1358 1.390 . S
C1367 H1360 0.950 . S
C1367 C1364 1.387 . S
C1009 C476 1.735 . S
C1014 C58 1.253 . S
C1019 C142 1.430 . S
C1024 C56 2.049 . S
C1029 C226 1.375 . S
C1034 C140 1.868 . S
C1039 C224 1.734 . S
C1044 C310 1.255 . S
C1049 C308 2.049 . S
C1054 C394 1.430 . S
C1059 C478 1.369 . S
C1064 C392 1.865 . S
C1069 C644 1.736 . S
C1074 C562 1.257 . S
C1079 C646 1.372 . S
C1084 C728 1.866 . S
C1089 C812 2.047 . S
C1094 C730 1.425 . S
C1099 C896 1.735 . S
C1104 C814 1.256 . S
C1109 C980 1.865 . S
C1114 C898 1.374 . S
C1119 C560 2.048 . S
C1124 C982 1.428 . S
C1129 C998 3.695 . S
C1134 C67 3.608 . S
C1139 C151 3.016 . S
C1144 C578 3.099 . S
C1149 C662 3.419 . S
C1154 C235 3.318 . S
C1159 C746 3.693 . S
C1164 C319 3.607 . S
C1169 C830 3.100 . S
C1174 C403 3.013 1_556 S
C1179 C487 3.320 . S
C1184 C914 3.419 . S
C1189 C571 3.605 . S
C1194 C158 3.696 . S
C1199 C655 3.320 . S
C1204 C242 3.418 . S
C1209 C326 3.101 . S
C1214 C739 3.014 . S
C1219 C410 3.695 . S
C1224 C823 3.608 1_554 S
C1229 C907 3.320 . S
C1234 C494 3.419 . S
C1239 C991 3.015 . S
C1244 C74 3.099 . S
C1249 C567 2.833 . S
C1254 C63 2.834 . S
C1259 C147 1.957 . S
C1264 C651 1.988 . S
C1269 C735 1.954 . S
C1274 C231 1.986 . S
C1279 C315 2.833 . S
C1284 C819 2.835 . S
C1289 C903 1.984 . S
C1294 C399 1.958 . S
C1299 C987 1.954 . S
C1304 C483 1.986 . S
C1309 C573 0.560 . S
C1314 C69 0.560 . S
C1319 C657 0.557 . S
C1324 C153 0.542 . S
C1329 C741 0.549 . S
C1334 C237 0.555 . S
C1339 C321 0.568 . S
C1344 C825 0.570 . S
C1349 C909 0.550 . S
C1354 C405 0.543 . S
C1359 C993 0.543 . S
C1364 C489 0.549 . S
