# Generated by pormake.
# Topology qtz-x, (6)-cn, num edge types: 1
# Building blocks:
#     Node 0, Type 0, BuildingBlock: BETFAJ_clean_sbu_0, # of connection points: 6
#     Node 1, Type 0, BuildingBlock: BETFAJ_clean_sbu_0, # of connection points: 6
#     Node 2, Type 0, BuildingBlock: BETFAJ_clean_sbu_0, # of connection points: 6
#     Edge 3, Type (0, 0), BuildingBlock: TEMPAE_clean_linker_10, # of connection points: 2
#     Edge 4, Type (0, 0), BuildingBlock: TEMPAE_clean_linker_10, # of connection points: 2
#     Edge 5, Type (0, 0), BuildingBlock: TEMPAE_clean_linker_10, # of connection points: 2
#     Edge 6, Type (0, 0), BuildingBlock: TEMPAE_clean_linker_10, # of connection points: 2
#     Edge 7, Type (0, 0), BuildingBlock: TEMPAE_clean_linker_10, # of connection points: 2
#     Edge 8, Type (0, 0), BuildingBlock: TEMPAE_clean_linker_10, # of connection points: 2
#     Edge 9, Type (0, 0), BuildingBlock: TEMPAE_clean_linker_10, # of connection points: 2
#     Edge 10, Type (0, 0), BuildingBlock: TEMPAE_clean_linker_10, # of connection points: 2
#     Edge 11, Type (0, 0), BuildingBlock: TEMPAE_clean_linker_10, # of connection points: 2
# Relax obj value: 0.230
# Max RMSD: 0.262
# Mean RMSD: 0.238
data_MOF--net-qtz-x--node1-BETFAJ_clean_sbu_0--edge1-TEMPAE_clean_linker_10
_symmetry_space_group_name_H-M    P1
_symmetry_Int_Tables_number       1
_symmetry_cell_setting            triclinic
loop_
_symmetry_equiv_pos_as_xyz
'x, y, z'
_cell_length_a     14.934262
_cell_length_b     14.960594
_cell_length_c     53.960823
_cell_angle_alpha  68.921502
_cell_angle_beta   113.8463
_cell_angle_gamma 121.28991
loop_
_atom_site_label
_atom_site_type_symbol
_atom_site_fract_x
_atom_site_fract_y
_atom_site_fract_z
_atom_type_partial_charge
Sm0 Sm 1.02784 0.63259 0.19357 0.0
Sm1 Sm 0.25731 0.78739 0.18328 0.0
C2 C 0.86514 0.48092 0.21472 0.0
C3 C 0.84942 0.44586 0.24266 0.0
C4 C 0.92885 0.42651 0.26617 0.0
C5 C 0.91574 0.39896 0.29256 0.0
C6 C 0.82348 0.39116 0.29619 0.0
C7 C 0.74397 0.41035 0.27255 0.0
C8 C 0.75675 0.43709 0.24611 0.0
C9 C 0.08129 0.8464 0.18245 0.0
C10 C 0.24969 0.70465 0.24701 0.0
C11 C 0.41291 0.95401 0.16285 0.0
C12 C 0.44547 0.96911 0.1385 0.0
C13 C 0.42582 0.04256 0.11449 0.0
C14 C 0.43767 0.04443 0.08982 0.0
C15 C 0.47015 0.9733 0.08868 0.0
C16 C 0.49423 0.90297 0.11302 0.0
C17 C 0.48186 0.90071 0.1376 0.0
C18 C 0.20875 0.58219 0.18212 0.0
C19 C 1.03979 0.7088 0.13111 0.0
O20 O 0.93702 0.46329 0.21169 0.0
O21 O 0.86955 0.57491 0.20155 0.0
O22 O 0.14532 0.80451 0.19793 0.0
O23 O 0.98557 0.77475 0.17229 0.0
O24 O 0.14421 0.64437 0.23779 0.0
O25 O 0.31222 0.77149 0.23029 0.0
O26 O 0.3163 0.94846 0.1572 0.0
O27 O 0.43264 0.8837 0.18463 0.0
O28 O 0.15039 0.61057 0.18605 0.0
O29 O 0.29854 0.66497 0.1788 0.0
O30 O 0.1334 0.78719 0.14057 0.0
O31 O 0.98604 0.62628 0.14799 0.0
H32 H 1.00174 0.43338 0.26426 0.0
H33 H 0.97793 0.38308 0.31012 0.0
H34 H 0.67265 0.40676 0.27444 0.0
H35 H 0.6949 0.45262 0.22832 0.0
H36 H 0.39714 0.0958 0.11452 0.0
H37 H 0.41981 0.10052 0.07153 0.0
H38 H 0.51827 0.8463 0.11283 0.0
H39 H 0.49662 0.84216 0.15557 0.0
Sm40 Sm 0.86382 0.18519 0.55418 0.0
Sm41 Sm 0.75886 0.94586 0.54859 0.0
C42 C 0.93182 0.36666 0.56823 0.0
C43 C 0.9465 0.39757 0.59304 0.0
C44 C 0.87106 0.33561 0.6088 0.0
C45 C 0.89218 0.36053 0.63379 0.0
C46 C 0.98967 0.44651 0.64353 0.0
C47 C 0.06426 0.509 0.62758 0.0
C48 C 1.04252 0.48497 0.60245 0.0
C49 C 0.9982 0.12425 0.54827 0.0
C50 C 0.82772 -0.01083 0.60994 0.0
C51 C 0.72833 0.77921 0.53409 0.0
C52 C 0.68466 0.75259 0.50622 0.0
C53 C 0.74184 0.81716 0.48607 0.0
C54 C 0.69436 0.80165 0.45882 0.0
C55 C 0.58881 0.72123 0.45094 0.0
C56 C 0.5336 0.65282 0.47127 0.0
C57 C 0.581 0.66856 0.49865 0.0
C58 C 0.59509 -0.00379 0.54277 0.0
C59 C 0.77324 0.1415 0.49294 0.0
O60 O 0.83162 0.31443 0.55415 0.0
O61 O 0.99748 0.32838 0.5711 0.0
O62 O 0.93265 0.06856 0.56325 0.0
O63 O 0.99492 0.21526 0.5363 0.0
O64 O 0.84847 0.08983 0.59798 0.0
O65 O 0.79955 0.91703 0.59602 0.0
O66 O 0.82314 0.86189 0.53881 0.0
O67 O 0.6592 0.77573 0.54391 0.0
O68 O 0.69566 0.05638 0.54669 0.0
O69 O 0.57722 0.90361 0.54115 0.0
O70 O 0.76925 0.04559 0.50475 0.0
O71 O 0.79137 0.20707 0.50735 0.0
H72 H 0.79721 0.26663 0.60216 0.0
H73 H 0.83404 0.31077 0.64592 0.0
H74 H 0.13961 0.57607 0.63466 0.0
H75 H 0.10199 0.53304 0.59067 0.0
H76 H 0.82218 0.88218 0.49105 0.0
H77 H 0.73969 0.85367 0.44372 0.0
H78 H 0.45211 0.58995 0.46578 0.0
H79 H 0.53508 0.61735 0.5137 0.0
Sm80 Sm 0.78803 0.84456 0.86048 0.0
Sm81 Sm 0.95812 0.76743 0.87865 0.0
C82 C 0.61609 0.86432 0.85635 0.0
C83 C 0.57518 0.86765 0.87658 0.0
C84 C 0.56849 0.79251 0.90139 0.0
C85 C 0.54087 0.80325 0.92165 0.0
C86 C 0.51991 0.88967 0.91767 0.0
C87 C 0.52389 0.963 0.89246 0.0
C88 C 0.55081 0.95183 0.87211 0.0
C89 C 0.99477 0.00714 0.86363 0.0
C90 C 0.90571 0.78682 0.92729 0.0
C91 C 0.11824 0.72763 0.88375 0.0
C92 C 0.12588 0.67765 0.86618 0.0
C93 C 0.22247 0.72089 0.85882 0.0
C94 C 0.22326 0.68712 0.83789 0.0
C95 C 0.1274 0.60952 0.82416 0.0
C96 C 1.03255 0.56261 0.83264 0.0
C97 C 1.03159 0.59676 0.85333 0.0
C98 C 0.74984 0.60857 0.87599 0.0
C99 C 0.84788 0.83145 0.81129 0.0
O100 O 0.61257 0.77339 0.8578 0.0
O101 O 0.70694 0.9459 0.85222 0.0
O102 O 0.9702 0.92054 0.88089 0.0
O103 O 0.90881 0.0131 0.84482 0.0
O104 O 0.81639 0.78908 0.90819 0.0
O105 O 0.98625 0.79742 0.92033 0.0
O106 O 0.117 0.8202 0.87186 0.0
O107 O 1.04557 0.66575 0.89764 0.0
O108 O 0.77699 0.69216 0.85805 0.0
O109 O 0.83382 0.60458 0.89594 0.0
O110 O 0.92979 0.81598 0.83107 0.0
O111 O 0.77223 0.83495 0.8172 0.0
H112 H 0.58779 0.7271 0.90555 0.0
H113 H 0.54018 0.74588 0.94087 0.0
H114 H 0.50785 0.03011 0.8885 0.0
H115 H 0.55561 0.01078 0.85315 0.0
H116 H 0.29565 0.78412 0.86832 0.0
H117 H 0.29769 0.72395 0.83183 0.0
H118 H 0.9572 0.50381 0.82219 0.0
H119 H 0.95541 0.56359 0.85825 0.0
C120 C 0.18405 0.01311 0.20215 0.0
C121 C 0.10151 0.9556 0.18163 0.0
C122 C 0.19786 0.11318 0.20263 0.0
C123 C 0.12927 0.15825 0.18168 0.0
C124 C 1.04722 0.10116 0.16059 0.0
C125 C 1.03358 0.00019 0.16102 0.0
C126 C 0.28518 0.17021 0.22574 0.0
C127 C 0.97423 0.14704 0.13743 0.0
C128 C 0.10541 0.38201 0.19349 0.0
C129 C 0.18275 0.47297 0.18119 0.0
C130 C 0.08729 0.27897 0.19395 0.0
C131 C 0.14605 0.26672 0.18123 0.0
C132 C 0.222 0.3587 0.16816 0.0
C133 C 0.24027 0.46029 0.16861 0.0
C134 C 1.00703 0.18329 0.20855 0.0
C135 C 0.28445 0.34995 0.15372 0.0
H136 H 0.23615 -0.02138 0.21828 0.0
H137 H 0.96976 0.95613 0.14508 0.0
H138 H 0.34591 0.24713 0.21724 0.0
H139 H 0.24869 0.18866 0.23644 0.0
H140 H 0.32827 0.12241 0.24115 0.0
H141 H 0.91524 0.09324 0.12243 0.0
H142 H 0.92814 0.16231 0.14592 0.0
H143 H 1.02429 0.22468 0.12623 0.0
H144 H 0.06141 0.39143 0.20342 0.0
H145 H 0.29978 0.53036 0.15892 0.0
H146 H 1.049 0.13713 0.22536 0.0
H147 H 0.94224 0.12971 0.19397 0.0
H148 H 0.96832 0.20603 0.21753 0.0
H149 H 0.33691 0.31115 0.16881 0.0
H150 H 0.33671 0.4289 0.14342 0.0
H151 H 0.22706 0.29918 0.13799 0.0
C152 C 0.39956 0.95487 0.53159 0.0
C153 C 0.50966 0.02001 0.54267 0.0
C154 C 0.31563 0.97027 0.53246 0.0
C155 C 0.34168 0.05139 0.54538 0.0
C156 C 0.45304 0.11743 0.55671 0.0
C157 C 0.53568 0.10175 0.55495 0.0
C158 C 0.19881 0.8997 0.51944 0.0
C159 C 0.48487 0.20368 0.57108 0.0
C160 C 0.13234 0.15658 0.52586 0.0
C161 C 0.08126 0.0996 0.54726 0.0
C162 C 0.21623 0.14124 0.52495 0.0
C163 C 0.25226 0.06841 0.54629 0.0
C164 C 0.20054 0.01007 0.56795 0.0
C165 C 0.11491 0.02548 0.56802 0.0
C166 C 0.2662 0.20307 0.50103 0.0
C167 C 0.23685 0.93252 0.59129 0.0
H168 H 0.37881 0.89149 0.52206 0.0
H169 H 0.62048 0.15145 0.56386 0.0
H170 H 0.15309 0.85449 0.53527 0.0
H171 H 0.15867 0.94924 0.50357 0.0
H172 H 0.19216 0.84207 0.50959 0.0
H173 H 0.5745 0.24591 0.57959 0.0
H174 H 0.45489 0.26283 0.55644 0.0
H175 H 0.44612 0.16862 0.5882 0.0
H176 H 0.10643 0.21364 0.50965 0.0
H177 H 0.07637 -0.0183 0.58472 0.0
H178 H 0.25866 0.14729 0.49042 0.0
H179 H 0.35434 0.25415 0.5087 0.0
H180 H 0.22711 0.25448 0.48571 0.0
H181 H 0.22583 0.86819 0.58312 0.0
H182 H 0.19087 0.8957 0.60699 0.0
H183 H 0.32493 0.97395 0.60154 0.0
C184 C 0.1966 0.07875 0.87799 0.0
C185 C 0.10438 0.09761 0.86732 0.0
C186 C 0.30138 0.16348 0.87989 0.0
C187 C 0.31463 0.26976 0.87246 0.0
C188 C 0.22191 0.28894 0.86356 0.0
C189 C 0.11741 0.20274 0.86012 0.0
C190 C 0.39706 0.1389 0.88873 0.0
C191 C 0.233 0.40023 0.85775 0.0
C192 C 0.6027 0.47616 0.89883 0.0
C193 C 0.63733 0.52574 0.87472 0.0
C194 C 0.49638 0.3956 0.89821 0.0
C195 C 0.42502 0.3605 0.87312 0.0
C196 C 0.4601 0.41068 0.8487 0.0
C197 C 0.56524 0.49454 0.8497 0.0
C198 C 0.46004 0.34897 0.9243 0.0
C199 C 0.38769 0.37405 0.82167 0.0
H200 H 0.18659 -0.00239 0.88397 0.0
H201 H 1.04608 0.21749 0.85237 0.0
H202 H 0.43162 0.16797 0.87105 0.0
H203 H 0.46247 0.18051 0.9056 0.0
H204 H 0.37332 0.05208 0.89587 0.0
H205 H 0.1581 0.39925 0.85772 0.0
H206 H 0.30255 0.44632 0.87338 0.0
H207 H 0.24903 0.44292 0.83733 0.0
H208 H 0.65837 0.50186 0.91809 0.0
H209 H 0.59255 0.53311 0.8311 0.0
H210 H 0.43819 0.26255 0.93042 0.0
H211 H 0.38589 0.35754 0.92058 0.0
H212 H 0.52396 0.38824 0.94179 0.0
H213 H 0.35966 0.28719 0.82439 0.0
H214 H 0.42981 0.41659 0.80505 0.0
H215 H 0.31424 0.38752 0.81485 0.0
C216 C 0.54569 0.00845 0.94564 0.0
C217 C 0.49991 0.90583 0.94034 0.0
C218 C 0.53445 0.0241 0.96819 0.0
C219 C 0.47831 0.93485 0.98632 0.0
C220 C 0.42928 0.83141 0.98067 0.0
C221 C 0.4398 0.81828 0.95765 0.0
C222 C 0.58629 0.13592 0.97316 0.0
C223 C 0.36841 0.73414 0.99943 0.0
C224 C 0.56002 0.95623 0.06119 0.0
C225 C 0.47467 0.96885 0.06207 0.0
C226 C 0.56241 0.94601 0.03662 0.0
C227 C 0.47747 0.94869 1.01224 0.0
C228 C 0.39159 0.96258 1.01286 0.0
C229 C 0.39139 0.97277 0.03775 0.0
C230 C 0.65529 0.93094 0.03687 0.0
C231 C 0.29967 0.96609 0.98731 0.0
H232 H 0.5934 0.07669 0.93267 0.0
H233 H 0.40205 0.73893 0.95344 0.0
H234 H 0.5271 0.15051 0.97667 0.0
H235 H 0.65583 0.14588 0.99204 0.0
H236 H 0.61655 0.19725 0.9556 0.0
H237 H 0.33158 0.65968 0.99163 0.0
H238 H 0.42465 0.72626 1.02032 0.0
H239 H 0.30287 0.74286 1.00165 0.0
H240 H 0.6253 0.95439 0.07978 0.0
H241 H 0.32449 -0.01878 0.03832 0.0
H242 H 0.69831 -0.00466 1.02164 0.0
H243 H 0.62317 0.85426 1.03068 0.0
H244 H 0.71521 0.93108 0.0575 0.0
H245 H 0.33212 0.03642 0.97146 0.0
H246 H 0.23558 0.97065 0.99163 0.0
H247 H 0.26165 0.89436 0.97829 0.0
C248 C 0.75912 0.27431 0.44844 0.0
C249 C 0.76918 0.17972 0.46315 0.0
C250 C 0.76305 0.31403 0.42075 0.0
C251 C 0.77928 0.25886 0.40764 0.0
C252 C 0.78872 0.16311 0.42233 0.0
C253 C 0.78234 0.12421 0.4497 0.0
C254 C 0.75136 0.41571 0.40566 0.0
C255 C 0.80641 0.10191 0.40917 0.0
C256 C 0.70779 0.2971 0.32954 0.0
C257 C 0.8106 0.3629 0.3245 0.0
C258 C 0.6957 0.26617 0.35632 0.0
C259 C 0.7886 0.30121 0.37872 0.0
C260 C 0.89212 0.3697 0.37372 0.0
C261 C 0.9017 0.40008 0.34673 0.0
C262 C 0.5834 0.19558 0.36061 0.0
C263 C 0.99355 0.40795 0.39704 0.0
H264 H 0.74879 0.31771 0.4586 0.0
H265 H 0.79083 0.05144 0.46081 0.0
H266 H 0.82645 0.47725 0.39938 0.0
H267 H 0.68317 0.40156 0.38653 0.0
H268 H 0.73608 0.44751 0.41848 0.0
H269 H 0.82531 0.03649 0.4243 0.0
H270 H 0.7321 0.06743 0.39262 0.0
H271 H 0.87447 0.1557 0.39949 0.0
H272 H 0.63674 0.26723 0.31267 0.0
H273 H 0.98115 0.45268 0.34312 0.0
H274 H 0.55746 0.2424 0.36581 0.0
H275 H 0.58383 0.12814 0.37818 0.0
H276 H 0.52209 0.16317 0.34193 0.0
H277 H 0.9828 0.44608 0.40919 0.0
H278 H 0.0669 0.46583 0.38954 0.0
H279 H 1.00813 0.33889 0.41126 0.0
C280 C 0.75428 0.85667 0.76021 0.0
C281 C 0.84205 0.84486 0.78192 0.0
C282 C 0.75001 0.87236 0.73245 0.0
C283 C 0.83601 0.87745 0.72604 0.0
C284 C 0.92372 0.86335 0.74788 0.0
C285 C 0.92547 0.84692 0.77544 0.0
C286 C 0.65413 0.88539 0.70991 0.0
C287 C 1.01723 0.86807 0.74214 0.0
C288 C 0.79123 0.85124 0.65332 0.0
C289 C 0.83445 0.95839 0.64004 0.0
C290 C 0.79186 0.8234 0.68132 0.0
C291 C 0.83757 0.9045 0.69654 0.0
C292 C 0.88355 0.01264 0.68339 0.0
C293 C 0.88099 0.03806 0.65544 0.0
C294 C 0.74102 0.70717 0.69441 0.0
C295 C 0.93479 0.10205 0.69876 0.0
H296 H 0.68894 0.85445 0.76486 0.0
H297 H 0.99352 0.83724 0.79193 0.0
H298 H 0.68193 0.96711 0.69734 0.0
H299 H 0.61749 0.82895 0.69587 0.0
H300 H 0.59017 0.87164 0.71825 0.0
H301 H 0.07843 0.8539 0.76139 0.0
H302 H 0.98648 0.80768 0.72974 0.0
H303 H 0.05835 0.94735 0.72984 0.0
H304 H 0.75465 0.78898 0.64169 0.0
H305 H 0.91541 0.12123 0.64562 0.0
H306 H 0.66933 0.68956 0.70019 0.0
H307 H 0.79953 0.68856 0.71364 0.0
H308 H 0.71433 0.65368 0.68036 0.0
H309 H 0.87289 0.0991 0.7058 0.0
H310 H 0.97031 0.18188 0.68585 0.0
H311 H 1.0 0.09246 0.71743 0.0
C312 C 1.00059 0.75091 0.97754 0.0
C313 C 0.91503 0.77096 0.95691 0.0
C314 C 1.01061 0.73513 1.00565 0.0
C315 C 0.93372 0.74028 1.01345 0.0
C316 C 0.84696 0.76028 0.99276 0.0
C317 C 0.83816 0.77453 0.96476 0.0
C318 C 0.10477 0.71472 1.02701 0.0
C319 C 0.76419 0.76793 1.00017 0.0
C320 C 0.92845 0.625 0.08884 0.0
C321 C 0.99931 0.71601 0.10071 0.0
C322 C 0.9032 0.63182 0.06024 0.0
C323 C 0.94922 0.73201 0.0432 0.0
C324 C 1.01671 0.82452 0.05497 0.0
C325 C 1.04091 0.81536 0.08346 0.0
C326 C 0.83145 0.53129 0.04848 0.0
C327 C 0.06655 0.93308 0.03759 0.0
H328 H 0.05999 0.74719 0.97176 0.0
H329 H 0.77173 0.78989 0.94902 0.0
H330 H 0.15939 0.7815 0.03839 0.0
H331 H 0.07441 0.64111 0.04232 0.0
H332 H 0.15334 0.70629 1.01768 0.0
H333 H 0.70607 0.79109 0.98167 0.0
H334 H 0.71747 0.68996 1.01193 0.0
H335 H 0.80569 0.82727 1.01367 0.0
H336 H 0.89656 0.54798 0.10203 0.0
H337 H 0.09492 0.88647 0.09235 0.0
H338 H 0.87987 0.51515 0.041 0.0
H339 H 0.76445 0.5412 1.0305 0.0
H340 H 0.79568 0.46102 0.06396 0.0
H341 H 0.12103 0.93405 1.02825 0.0
H342 H 0.11449 -0.00238 0.04976 0.0
H343 H 1.00171 0.95073 1.02039 0.0
C344 C 0.23231 0.67348 0.29396 0.0
C345 C 0.29737 0.69999 0.27721 0.0
C346 C 0.27681 0.67308 0.32244 0.0
C347 C 0.38837 0.69626 0.33469 0.0
C348 C 0.45358 0.71968 0.31799 0.0
C349 C 0.40773 0.72299 0.28939 0.0
C350 C 0.20496 0.65042 0.33928 0.0
C351 C 0.57211 0.74219 0.33033 0.0
C352 C 0.53699 0.8047 0.40128 0.0
C353 C 0.53544 0.71311 0.42131 0.0
C354 C 0.48848 0.79991 0.37313 0.0
C355 C 0.43822 0.7013 0.36467 0.0
C356 C 0.4363 0.60839 0.38481 0.0
C357 C 0.48401 0.61522 0.41294 0.0
C358 C 0.49015 0.90034 0.35246 0.0
C359 C 0.3855 0.50221 0.3766 0.0
H360 H 0.14697 0.65602 0.28464 0.0
H361 H 0.45805 0.74243 0.27658 0.0
H362 H 0.20048 0.57847 0.35559 0.0
H363 H 0.24036 0.71786 0.34976 0.0
H364 H 0.12095 0.63767 0.32644 0.0
H365 H 0.60955 0.75135 0.31494 0.0
H366 H 0.6184 0.81639 0.33878 0.0
H367 H 0.58076 0.67661 0.34773 0.0
H368 H 0.57518 0.88025 0.40772 0.0
H369 H 0.4832 0.54442 0.42835 0.0
H370 H 0.4055 0.89007 0.34144 0.0
H371 H 0.5295 0.91655 0.33675 0.0
H372 H 0.53446 0.97081 0.36236 0.0
H373 H 0.29817 0.47912 0.36542 0.0
H374 H 0.39213 0.43789 0.39469 0.0
H375 H 0.42574 0.50849 0.36228 0.0
C376 C 0.16253 0.66688 0.77818 0.0
C377 C 0.12212 0.58424 0.79934 0.0
C378 C 0.14592 0.64533 0.75304 0.0
C379 C 0.08952 0.53843 0.74928 0.0
C380 C 0.05258 0.45439 0.77101 0.0
C381 C 0.06763 0.47849 0.79561 0.0
C382 C 0.18465 0.73714 0.73014 0.0
C383 C 0.99406 0.33924 0.76799 0.0
C384 C 0.94089 0.48408 0.67654 0.0
C385 C 1.01497 0.46964 0.6706 0.0
C386 C 0.96477 0.50771 0.70203 0.0
C387 C 0.06411 0.51478 0.72213 0.0
C388 C 0.13864 0.49899 0.71632 0.0
C389 C 0.11349 0.47745 0.69046 0.0
C390 C 0.88413 0.52581 0.70738 0.0
C391 C 0.24451 0.50438 0.73744 0.0
H392 H 0.20267 0.74884 0.78079 0.0
H393 H 1.03555 0.41445 0.81185 0.0
H394 H 0.23614 0.72604 0.72246 0.0
H395 H 0.11351 0.73955 0.71253 0.0
H396 H 0.23203 0.81513 0.73688 0.0
H397 H 0.98033 0.28335 0.78774 0.0
H398 H 0.91396 0.32389 0.75241 0.0
H399 H 1.04141 0.32169 0.76051 0.0
H400 H 0.86507 0.47864 0.66104 0.0
H401 H 0.17015 0.46519 0.68585 0.0
H402 H 0.92376 0.60605 0.71241 0.0
H403 H 0.85643 0.46668 0.72545 0.0
H404 H 0.81163 0.5194 0.68937 0.0
H405 H 0.29448 0.58425 0.74311 0.0
H406 H 0.29285 0.48868 0.72978 0.0
H407 H 0.22795 0.44525 0.75657 0.0
loop_
_geom_bond_atom_site_label_1
_geom_bond_atom_site_label_2
_geom_bond_distance
_geom_bond_site_symmetry_2
_ccdc_geom_bond_type
Sm0 C2 2.846 . S
Sm0 O20 2.543 . S
Sm0 O21 2.450 . S
Sm0 O22 2.681 1_655 S
Sm0 O23 2.464 . S
Sm0 O24 2.396 1_655 S
Sm0 O28 2.386 . S
Sm0 O31 2.408 . S
Sm1 C11 2.846 . S
Sm1 O22 2.386 . S
Sm1 O25 2.408 . S
Sm1 O26 2.543 . S
Sm1 O27 2.450 . S
Sm1 O28 2.681 1_455 S
Sm1 O29 2.464 . S
Sm1 O30 2.396 1_455 S
C2 Sm0 2.846 . S
C2 C3 1.506 . S
C2 O20 1.261 . S
C2 O21 1.242 . S
C3 C2 1.506 . S
C3 C4 1.358 . S
C3 C8 1.382 . S
C4 C3 1.358 . S
C4 C5 1.385 . S
C4 H32 0.930 . S
C5 C4 1.385 . S
C5 C6 1.395 . S
C5 H33 0.929 . S
C6 C5 1.395 . S
C6 C7 1.335 . S
C7 C6 1.335 . S
C7 C8 1.398 . S
C7 H34 0.930 . S
C8 C3 1.382 . S
C8 C7 1.398 . S
C8 H35 0.929 . S
C9 O22 1.271 1_655 S
C9 O23 1.251 . S
C10 O24 1.252 . S
C10 O25 1.272 . S
C11 Sm1 2.846 . S
C11 C12 1.506 . S
C11 O26 1.261 . S
C11 O27 1.242 . S
C12 C11 1.506 . S
C12 C13 1.358 . S
C12 C17 1.382 . S
C13 C12 1.358 . S
C13 C14 1.385 1_565 S
C13 H36 0.930 1_565 S
C14 C13 1.385 1_545 S
C14 C15 1.395 1_545 S
C14 H37 0.929 . S
C15 C14 1.395 1_565 S
C15 C16 1.335 . S
C16 C15 1.335 . S
C16 C17 1.398 . S
C16 H38 0.930 . S
C17 C12 1.382 . S
C17 C16 1.398 . S
C17 H39 0.929 . S
C18 O28 1.271 1_455 S
C18 O29 1.251 . S
C19 O30 1.252 . S
C19 O31 1.272 . S
O20 Sm0 2.543 . S
O20 C2 1.261 . S
O21 Sm0 2.450 . S
O21 C2 1.242 . S
O22 Sm0 2.681 1_455 S
O22 Sm1 2.386 . S
O22 C9 1.271 1_455 S
O23 Sm0 2.464 . S
O23 C9 1.251 . S
O24 Sm0 2.396 1_455 S
O24 C10 1.252 . S
O25 Sm1 2.408 . S
O25 C10 1.272 . S
O26 Sm1 2.543 . S
O26 C11 1.261 . S
O27 Sm1 2.450 . S
O27 C11 1.242 . S
O28 Sm0 2.386 . S
O28 Sm1 2.681 1_655 S
O28 C18 1.271 1_655 S
O29 Sm1 2.464 . S
O29 C18 1.251 . S
O30 Sm1 2.396 1_655 S
O30 C19 1.252 . S
O31 Sm0 2.408 . S
O31 C19 1.272 . S
H32 C4 0.930 . S
H33 C5 0.929 . S
H34 C7 0.930 . S
H35 C8 0.929 . S
H36 C13 0.930 1_545 S
H37 C14 0.929 . S
H38 C16 0.930 . S
H39 C17 0.929 . S
Sm40 C42 2.846 . S
Sm40 O60 2.543 . S
Sm40 O61 2.450 . S
Sm40 O62 2.681 1_545 S
Sm40 O63 2.464 . S
Sm40 O64 2.396 . S
Sm40 O68 2.386 . S
Sm40 O71 2.408 . S
Sm41 C51 2.846 . S
Sm41 O62 2.386 . S
Sm41 O65 2.408 . S
Sm41 O66 2.543 . S
Sm41 O67 2.450 . S
Sm41 O68 2.681 1_565 S
Sm41 O69 2.464 . S
Sm41 O70 2.396 1_565 S
C42 Sm40 2.846 . S
C42 C43 1.506 . S
C42 O60 1.261 . S
C42 O61 1.242 . S
C43 C42 1.506 . S
C43 C44 1.358 . S
C43 C48 1.382 1_655 S
C44 C43 1.358 . S
C44 C45 1.385 . S
C44 H72 0.930 . S
C45 C44 1.385 . S
C45 C46 1.395 . S
C45 H73 0.929 . S
C46 C45 1.395 . S
C46 C47 1.335 1_655 S
C47 C46 1.335 1_455 S
C47 C48 1.398 . S
C47 H74 0.930 . S
C48 C43 1.382 1_455 S
C48 C47 1.398 . S
C48 H75 0.929 . S
C49 O62 1.271 1_545 S
C49 O63 1.251 . S
C50 O64 1.252 1_565 S
C50 O65 1.272 . S
C51 Sm41 2.846 . S
C51 C52 1.506 . S
C51 O66 1.261 . S
C51 O67 1.242 . S
C52 C51 1.506 . S
C52 C53 1.358 . S
C52 C57 1.382 . S
C53 C52 1.358 . S
C53 C54 1.385 . S
C53 H76 0.930 . S
C54 C53 1.385 . S
C54 C55 1.395 . S
C54 H77 0.929 . S
C55 C54 1.395 . S
C55 C56 1.335 . S
C56 C55 1.335 . S
C56 C57 1.398 . S
C56 H78 0.930 . S
C57 C52 1.382 . S
C57 C56 1.398 . S
C57 H79 0.929 . S
C58 O68 1.271 1_565 S
C58 O69 1.251 . S
C59 O70 1.252 . S
C59 O71 1.272 . S
O60 Sm40 2.543 . S
O60 C42 1.261 . S
O61 Sm40 2.450 . S
O61 C42 1.242 . S
O62 Sm40 2.681 1_565 S
O62 Sm41 2.386 . S
O62 C49 1.271 1_565 S
O63 Sm40 2.464 . S
O63 C49 1.251 . S
O64 Sm40 2.396 . S
O64 C50 1.252 1_545 S
O65 Sm41 2.408 . S
O65 C50 1.272 . S
O66 Sm41 2.543 . S
O66 C51 1.261 . S
O67 Sm41 2.450 . S
O67 C51 1.242 . S
O68 Sm40 2.386 . S
O68 Sm41 2.681 1_545 S
O68 C58 1.271 1_545 S
O69 Sm41 2.464 . S
O69 C58 1.251 . S
O70 Sm41 2.396 1_545 S
O70 C59 1.252 . S
O71 Sm40 2.408 . S
O71 C59 1.272 . S
H72 C44 0.930 . S
H73 C45 0.929 . S
H74 C47 0.930 . S
H75 C48 0.929 . S
H76 C53 0.930 . S
H77 C54 0.929 . S
H78 C56 0.930 . S
H79 C57 0.929 . S
Sm80 C82 2.846 . S
Sm80 O100 2.543 1_545 S
Sm80 O101 2.450 . S
Sm80 O102 2.681 . S
Sm80 O103 2.464 1_655 S
Sm80 O104 2.396 1_545 S
Sm80 O108 2.386 1_545 S
Sm80 O111 2.408 . S
Sm81 C91 2.846 1_655 S
Sm81 O102 2.386 1_565 S
Sm81 O105 2.408 . S
Sm81 O106 2.543 1_655 S
Sm81 O107 2.450 . S
Sm81 O108 2.681 . S
Sm81 O109 2.464 . S
Sm81 O110 2.396 . S
C82 Sm80 2.846 . S
C82 C83 1.506 . S
C82 O100 1.261 1_545 S
C82 O101 1.242 . S
C83 C82 1.506 . S
C83 C84 1.358 1_545 S
C83 C88 1.382 . S
C84 C83 1.358 1_565 S
C84 C85 1.385 . S
C84 H112 0.930 . S
C85 C84 1.385 . S
C85 C86 1.395 1_565 S
C85 H113 0.929 . S
C86 C85 1.395 1_545 S
C86 C87 1.335 . S
C87 C86 1.335 . S
C87 C88 1.398 . S
C87 H114 0.930 . S
C88 C83 1.382 . S
C88 C87 1.398 . S
C88 H115 0.929 . S
C89 O102 1.271 1_455 S
C89 O103 1.251 . S
C90 O104 1.252 . S
C90 O105 1.272 . S
C91 Sm81 2.846 1_455 S
C91 C92 1.506 . S
C91 O106 1.261 . S
C91 O107 1.242 1_455 S
C92 C91 1.506 . S
C92 C93 1.358 . S
C92 C97 1.382 1_455 S
C93 C92 1.358 . S
C93 C94 1.385 . S
C93 H116 0.930 . S
C94 C93 1.385 . S
C94 C95 1.395 . S
C94 H117 0.929 . S
C95 C94 1.395 . S
C95 C96 1.335 . S
C96 C95 1.335 . S
C96 C97 1.398 1_455 S
C96 H118 0.930 1_455 S
C97 C92 1.382 1_655 S
C97 C96 1.398 1_655 S
C97 H119 0.929 . S
C98 O108 1.271 . S
C98 O109 1.251 . S
C99 O110 1.252 . S
C99 O111 1.272 1_565 S
O100 Sm80 2.543 1_565 S
O100 C82 1.261 1_565 S
O101 Sm80 2.450 . S
O101 C82 1.242 . S
O102 Sm80 2.681 . S
O102 Sm81 2.386 1_545 S
O102 C89 1.271 1_655 S
O103 Sm80 2.464 1_455 S
O103 C89 1.251 . S
O104 Sm80 2.396 1_565 S
O104 C90 1.252 . S
O105 Sm81 2.408 . S
O105 C90 1.272 . S
O106 Sm81 2.543 1_455 S
O106 C91 1.261 . S
O107 Sm81 2.450 . S
O107 C91 1.242 1_655 S
O108 Sm80 2.386 1_565 S
O108 Sm81 2.681 . S
O108 C98 1.271 . S
O109 Sm81 2.464 . S
O109 C98 1.251 . S
O110 Sm81 2.396 . S
O110 C99 1.252 . S
O111 Sm80 2.408 . S
O111 C99 1.272 1_545 S
H112 C84 0.930 . S
H113 C85 0.929 . S
H114 C87 0.930 . S
H115 C88 0.929 . S
H116 C93 0.930 . S
H117 C94 0.929 . S
H118 C96 0.930 1_655 S
H119 C97 0.929 . S
C120 C121 1.391 . S
C120 C122 1.394 1_565 S
C120 H136 0.931 . S
C121 C120 1.391 . S
C121 C125 1.376 1_565 S
C122 C120 1.394 1_545 S
C122 C123 1.369 . S
C122 C126 1.531 . S
C123 C122 1.369 . S
C123 C124 1.410 . S
C123 C131 1.503 . S
C124 C123 1.410 . S
C124 C125 1.392 . S
C124 C127 1.511 . S
C125 C121 1.376 1_545 S
C125 C124 1.392 . S
C125 H137 0.929 . S
C126 C122 1.531 . S
C126 H138 0.960 . S
C126 H139 0.962 1_455 S
C126 H140 0.960 . S
C127 C124 1.511 . S
C127 H141 0.961 1_455 S
C127 H142 0.961 1_455 S
C127 H143 0.961 . S
C128 C129 1.370 1_655 S
C128 C130 1.363 . S
C128 H144 0.931 . S
C129 C128 1.370 1_455 S
C129 C133 1.408 . S
C130 C128 1.363 . S
C130 C131 1.370 1_655 S
C130 C134 1.524 . S
C131 C123 1.503 . S
C131 C130 1.370 1_455 S
C131 C132 1.403 . S
C132 C131 1.403 . S
C132 C133 1.404 . S
C132 C135 1.539 . S
C133 C129 1.408 . S
C133 C132 1.404 . S
C133 H145 0.930 . S
C134 C130 1.524 . S
C134 H146 0.956 . S
C134 H147 0.961 . S
C134 H148 0.961 . S
C135 C132 1.539 . S
C135 H149 0.958 . S
C135 H150 0.961 . S
C135 H151 0.960 . S
H136 C120 0.931 . S
H137 C125 0.929 . S
H138 C126 0.960 . S
H139 C126 0.962 1_655 S
H140 C126 0.960 . S
H141 C127 0.961 1_655 S
H142 C127 0.961 1_655 S
H143 C127 0.961 . S
H144 C128 0.931 . S
H145 C133 0.930 . S
H146 C134 0.956 . S
H147 C134 0.961 . S
H148 C134 0.961 . S
H149 C135 0.958 . S
H150 C135 0.961 . S
H151 C135 0.960 . S
C152 C153 1.391 . S
C152 C154 1.394 . S
C152 H168 0.931 . S
C153 C152 1.391 . S
C153 C157 1.378 . S
C154 C152 1.394 . S
C154 C155 1.369 . S
C154 C158 1.531 . S
C155 C154 1.369 . S
C155 C156 1.410 . S
C155 C163 1.503 . S
C156 C155 1.410 . S
C156 C157 1.389 . S
C156 C159 1.511 . S
C157 C153 1.378 . S
C157 C156 1.389 . S
C157 H169 0.930 1_565 S
C158 C154 1.531 . S
C158 H170 0.960 . S
C158 H171 0.962 1_565 S
C158 H172 0.960 . S
C159 C156 1.511 . S
C159 H173 0.961 1_565 S
C159 H174 0.961 1_565 S
C159 H175 0.961 . S
C160 C161 1.370 . S
C160 C162 1.363 . S
C160 H176 0.931 . S
C161 C160 1.370 . S
C161 C165 1.408 1_545 S
C162 C160 1.363 . S
C162 C163 1.370 1_545 S
C162 C166 1.524 . S
C163 C155 1.503 . S
C163 C162 1.370 1_565 S
C163 C164 1.403 . S
C164 C163 1.403 . S
C164 C165 1.404 . S
C164 C167 1.539 . S
C165 C161 1.408 1_565 S
C165 C164 1.404 . S
C165 H177 0.930 1_455 S
C166 C162 1.524 . S
C166 H178 0.956 . S
C166 H179 0.961 . S
C166 H180 0.961 . S
C167 C164 1.539 . S
C167 H181 0.958 . S
C167 H182 0.961 . S
C167 H183 0.960 . S
H168 C152 0.931 . S
H169 C157 0.930 1_545 S
H170 C158 0.960 . S
H171 C158 0.962 1_545 S
H172 C158 0.960 . S
H173 C159 0.961 1_545 S
H174 C159 0.961 1_545 S
H175 C159 0.961 . S
H176 C160 0.931 . S
H177 C165 0.930 1_655 S
H178 C166 0.956 . S
H179 C166 0.961 . S
H180 C166 0.961 . S
H181 C167 0.958 . S
H182 C167 0.961 . S
H183 C167 0.960 . S
C184 C185 1.391 . S
C184 C186 1.394 . S
C184 H200 0.931 . S
C185 C184 1.391 . S
C185 C189 1.376 . S
C186 C184 1.394 . S
C186 C187 1.369 . S
C186 C190 1.531 . S
C187 C186 1.369 . S
C187 C188 1.410 . S
C187 C195 1.503 . S
C188 C187 1.410 . S
C188 C189 1.392 . S
C188 C191 1.511 . S
C189 C185 1.376 . S
C189 C188 1.392 . S
C189 H201 0.929 . S
C190 C186 1.531 . S
C190 H202 0.960 . S
C190 H203 0.962 . S
C190 H204 0.960 . S
C191 C188 1.511 . S
C191 H205 0.961 . S
C191 H206 0.961 . S
C191 H207 0.961 . S
C192 C193 1.370 . S
C192 C194 1.363 . S
C192 H208 0.931 . S
C193 C192 1.370 . S
C193 C197 1.408 . S
C194 C192 1.363 . S
C194 C195 1.370 . S
C194 C198 1.524 . S
C195 C187 1.503 . S
C195 C194 1.370 . S
C195 C196 1.403 . S
C196 C195 1.403 . S
C196 C197 1.404 . S
C196 C199 1.539 . S
C197 C193 1.408 . S
C197 C196 1.404 . S
C197 H209 0.930 . S
C198 C194 1.524 . S
C198 H210 0.956 . S
C198 H211 0.961 . S
C198 H212 0.961 . S
C199 C196 1.539 . S
C199 H213 0.958 . S
C199 H214 0.961 . S
C199 H215 0.960 . S
H200 C184 0.931 . S
H201 C189 0.929 . S
H202 C190 0.960 . S
H203 C190 0.962 . S
H204 C190 0.960 . S
H205 C191 0.961 . S
H206 C191 0.961 . S
H207 C191 0.961 . S
H208 C192 0.931 . S
H209 C197 0.930 . S
H210 C198 0.956 . S
H211 C198 0.961 . S
H212 C198 0.961 . S
H213 C199 0.958 . S
H214 C199 0.961 . S
H215 C199 0.960 . S
C216 C217 1.391 . S
C216 C218 1.394 . S
C216 H232 0.931 . S
C217 C216 1.391 . S
C217 C221 1.376 . S
C218 C216 1.394 . S
C218 C219 1.369 . S
C218 C222 1.531 . S
C219 C218 1.369 . S
C219 C220 1.410 1_545 S
C219 C227 1.503 . S
C220 C219 1.410 1_565 S
C220 C221 1.392 1_565 S
C220 C223 1.511 . S
C221 C217 1.376 . S
C221 C220 1.392 1_545 S
C221 H233 0.929 1_545 S
C222 C218 1.531 . S
C222 H234 0.960 . S
C222 H235 0.962 . S
C222 H236 0.960 . S
C223 C220 1.511 . S
C223 H237 0.961 . S
C223 H238 0.961 . S
C223 H239 0.961 . S
C224 C225 1.370 . S
C224 C226 1.364 . S
C224 H240 0.931 1_545 S
C225 C224 1.370 . S
C225 C229 1.408 1_554 S
C226 C224 1.364 . S
C226 C227 1.370 1_554 S
C226 C230 1.524 . S
C227 C219 1.503 . S
C227 C226 1.370 1_556 S
C227 C228 1.403 . S
C228 C227 1.403 . S
C228 C229 1.404 . S
C228 C231 1.539 . S
C229 C225 1.408 1_556 S
C229 C228 1.404 . S
C229 H241 0.930 . S
C230 C226 1.524 . S
C230 H242 0.956 . S
C230 H243 0.961 1_545 S
C230 H244 0.961 1_545 S
C231 C228 1.539 . S
C231 H245 0.958 . S
C231 H246 0.961 . S
C231 H247 0.960 . S
H232 C216 0.931 . S
H233 C221 0.929 1_565 S
H234 C222 0.960 . S
H235 C222 0.962 . S
H236 C222 0.960 . S
H237 C223 0.961 . S
H238 C223 0.961 . S
H239 C223 0.961 . S
H240 C224 0.931 1_565 S
H241 C229 0.930 . S
H242 C230 0.956 . S
H243 C230 0.961 1_565 S
H244 C230 0.961 1_565 S
H245 C231 0.958 . S
H246 C231 0.961 . S
H247 C231 0.960 . S
C248 C249 1.391 . S
C248 C250 1.394 . S
C248 H264 0.931 . S
C249 C248 1.391 . S
C249 C253 1.376 . S
C250 C248 1.394 . S
C250 C251 1.369 . S
C250 C254 1.531 . S
C251 C250 1.369 . S
C251 C252 1.410 . S
C251 C259 1.503 . S
C252 C251 1.410 . S
C252 C253 1.392 . S
C252 C255 1.511 . S
C253 C249 1.376 . S
C253 C252 1.392 . S
C253 H265 0.929 . S
C254 C250 1.531 . S
C254 H266 0.960 . S
C254 H267 0.962 . S
C254 H268 0.960 . S
C255 C252 1.511 . S
C255 H269 0.961 . S
C255 H270 0.961 . S
C255 H271 0.961 . S
C256 C257 1.370 . S
C256 C258 1.363 . S
C256 H272 0.931 . S
C257 C256 1.370 . S
C257 C261 1.408 . S
C258 C256 1.363 . S
C258 C259 1.370 . S
C258 C262 1.524 . S
C259 C251 1.503 . S
C259 C258 1.370 . S
C259 C260 1.403 . S
C260 C259 1.403 . S
C260 C261 1.404 . S
C260 C263 1.539 . S
C261 C257 1.408 . S
C261 C260 1.404 . S
C261 H273 0.930 . S
C262 C258 1.524 . S
C262 H274 0.956 . S
C262 H275 0.961 . S
C262 H276 0.961 . S
C263 C260 1.539 . S
C263 H277 0.958 . S
C263 H278 0.961 . S
C263 H279 0.960 . S
H264 C248 0.931 . S
H265 C253 0.929 . S
H266 C254 0.960 . S
H267 C254 0.962 . S
H268 C254 0.960 . S
H269 C255 0.961 . S
H270 C255 0.961 . S
H271 C255 0.961 . S
H272 C256 0.931 . S
H273 C261 0.930 . S
H274 C262 0.956 . S
H275 C262 0.961 . S
H276 C262 0.961 . S
H277 C263 0.958 . S
H278 C263 0.961 . S
H279 C263 0.960 . S
C280 C281 1.391 1_545 S
C280 C282 1.394 . S
C280 H296 0.931 . S
C281 C280 1.391 1_565 S
C281 C285 1.376 . S
C282 C280 1.394 . S
C282 C283 1.369 1_545 S
C282 C286 1.531 . S
C283 C282 1.369 1_565 S
C283 C284 1.410 . S
C283 C291 1.503 . S
C284 C283 1.410 . S
C284 C285 1.392 . S
C284 C287 1.511 . S
C285 C281 1.376 . S
C285 C284 1.392 . S
C285 H297 0.929 . S
C286 C282 1.531 . S
C286 H298 0.960 . S
C286 H299 0.962 . S
C286 H300 0.960 . S
C287 C284 1.511 . S
C287 H301 0.961 . S
C287 H302 0.961 . S
C287 H303 0.961 . S
C288 C289 1.370 . S
C288 C290 1.363 . S
C288 H304 0.931 . S
C289 C288 1.370 . S
C289 C293 1.407 1_565 S
C290 C288 1.363 . S
C290 C291 1.370 . S
C290 C294 1.524 . S
C291 C283 1.503 . S
C291 C290 1.370 . S
C291 C292 1.403 1_565 S
C292 C291 1.403 1_545 S
C292 C293 1.405 . S
C292 C295 1.539 . S
C293 C289 1.407 1_545 S
C293 C292 1.405 . S
C293 H305 0.930 . S
C294 C290 1.524 . S
C294 H306 0.956 . S
C294 H307 0.961 . S
C294 H308 0.961 . S
C295 C292 1.539 . S
C295 H309 0.958 . S
C295 H310 0.961 1_655 S
C295 H311 0.960 . S
H296 C280 0.931 . S
H297 C285 0.929 . S
H298 C286 0.960 . S
H299 C286 0.962 . S
H300 C286 0.960 . S
H301 C287 0.961 . S
H302 C287 0.961 . S
H303 C287 0.961 . S
H304 C288 0.931 . S
H305 C293 0.930 . S
H306 C294 0.956 . S
H307 C294 0.961 . S
H308 C294 0.961 . S
H309 C295 0.958 . S
H310 C295 0.961 1_455 S
H311 C295 0.960 . S
C312 C313 1.391 1_455 S
C312 C314 1.394 . S
C312 H328 0.931 . S
C313 C312 1.391 1_655 S
C313 C317 1.376 . S
C314 C312 1.394 . S
C314 C315 1.369 1_455 S
C314 C318 1.531 . S
C315 C314 1.369 1_655 S
C315 C316 1.410 . S
C315 C323 1.503 1_556 S
C316 C315 1.410 . S
C316 C317 1.392 . S
C316 C319 1.511 . S
C317 C313 1.376 . S
C317 C316 1.392 . S
C317 H329 0.929 . S
C318 C314 1.531 . S
C318 H330 0.960 1_556 S
C318 H331 0.962 1_556 S
C318 H332 0.960 . S
C319 C316 1.511 . S
C319 H333 0.961 . S
C319 H334 0.961 . S
C319 H335 0.961 . S
C320 C321 1.370 . S
C320 C322 1.363 . S
C320 H336 0.931 . S
C321 C320 1.370 . S
C321 C325 1.408 . S
C322 C320 1.363 . S
C322 C323 1.370 . S
C322 C326 1.524 1_554 S
C323 C315 1.503 1_554 S
C323 C322 1.370 . S
C323 C324 1.403 . S
C324 C323 1.403 . S
C324 C325 1.404 . S
C324 C327 1.539 1_655 S
C325 C321 1.408 . S
C325 C324 1.404 . S
C325 H337 0.930 . S
C326 C322 1.524 1_556 S
C326 H338 0.956 . S
C326 H339 0.961 . S
C326 H340 0.961 1_556 S
C327 C324 1.539 1_455 S
C327 H341 0.958 . S
C327 H342 0.961 1_565 S
C327 H343 0.959 1_454 S
H328 C312 0.931 . S
H329 C317 0.929 . S
H330 C318 0.960 1_554 S
H331 C318 0.962 1_554 S
H332 C318 0.960 . S
H333 C319 0.961 . S
H334 C319 0.961 . S
H335 C319 0.961 . S
H336 C320 0.931 . S
H337 C325 0.930 . S
H338 C326 0.956 . S
H339 C326 0.961 . S
H340 C326 0.961 1_554 S
H341 C327 0.958 . S
H342 C327 0.961 1_545 S
H343 C327 0.959 1_656 S
C344 C345 1.391 . S
C344 C346 1.394 . S
C344 H360 0.931 . S
C345 C344 1.391 . S
C345 C349 1.376 . S
C346 C344 1.394 . S
C346 C347 1.369 . S
C346 C350 1.531 . S
C347 C346 1.369 . S
C347 C348 1.410 . S
C347 C355 1.503 . S
C348 C347 1.410 . S
C348 C349 1.392 . S
C348 C351 1.511 . S
C349 C345 1.376 . S
C349 C348 1.392 . S
C349 H361 0.929 . S
C350 C346 1.531 . S
C350 H362 0.960 . S
C350 H363 0.962 . S
C350 H364 0.960 . S
C351 C348 1.511 . S
C351 H365 0.961 . S
C351 H366 0.961 . S
C351 H367 0.961 . S
C352 C353 1.370 . S
C352 C354 1.363 . S
C352 H368 0.931 . S
C353 C352 1.370 . S
C353 C357 1.408 . S
C354 C352 1.363 . S
C354 C355 1.370 . S
C354 C358 1.524 . S
C355 C347 1.503 . S
C355 C354 1.370 . S
C355 C356 1.403 . S
C356 C355 1.403 . S
C356 C357 1.404 . S
C356 C359 1.539 . S
C357 C353 1.408 . S
C357 C356 1.404 . S
C357 H369 0.930 . S
C358 C354 1.524 . S
C358 H370 0.956 . S
C358 H371 0.961 . S
C358 H372 0.961 . S
C359 C356 1.539 . S
C359 H373 0.958 . S
C359 H374 0.961 . S
C359 H375 0.960 . S
H360 C344 0.931 . S
H361 C349 0.929 . S
H362 C350 0.960 . S
H363 C350 0.962 . S
H364 C350 0.960 . S
H365 C351 0.961 . S
H366 C351 0.961 . S
H367 C351 0.961 . S
H368 C352 0.931 . S
H369 C357 0.930 . S
H370 C358 0.956 . S
H371 C358 0.961 . S
H372 C358 0.961 . S
H373 C359 0.958 . S
H374 C359 0.961 . S
H375 C359 0.960 . S
C376 C377 1.391 . S
C376 C378 1.394 . S
C376 H392 0.931 . S
C377 C376 1.391 . S
C377 C381 1.376 . S
C378 C376 1.394 . S
C378 C379 1.369 . S
C378 C382 1.531 . S
C379 C378 1.369 . S
C379 C380 1.410 . S
C379 C387 1.503 . S
C380 C379 1.410 . S
C380 C381 1.392 . S
C380 C383 1.511 . S
C381 C377 1.376 . S
C381 C380 1.392 . S
C381 H393 0.929 . S
C382 C378 1.531 . S
C382 H394 0.960 . S
C382 H395 0.962 . S
C382 H396 0.960 . S
C383 C380 1.511 . S
C383 H397 0.961 . S
C383 H398 0.961 . S
C383 H399 0.961 . S
C384 C385 1.370 1_655 S
C384 C386 1.363 . S
C384 H400 0.931 . S
C385 C384 1.370 1_455 S
C385 C389 1.408 . S
C386 C384 1.363 . S
C386 C387 1.370 1_655 S
C386 C390 1.524 . S
C387 C379 1.503 . S
C387 C386 1.370 1_455 S
C387 C388 1.403 . S
C388 C387 1.403 . S
C388 C389 1.404 . S
C388 C391 1.539 . S
C389 C385 1.408 . S
C389 C388 1.404 . S
C389 H401 0.930 . S
C390 C386 1.524 . S
C390 H402 0.956 . S
C390 H403 0.961 . S
C390 H404 0.961 . S
C391 C388 1.539 . S
C391 H405 0.958 . S
C391 H406 0.961 . S
C391 H407 0.960 . S
H392 C376 0.931 . S
H393 C381 0.929 . S
H394 C382 0.960 . S
H395 C382 0.962 . S
H396 C382 0.960 . S
H397 C383 0.961 . S
H398 C383 0.961 . S
H399 C383 0.961 . S
H400 C384 0.931 . S
H401 C389 0.930 . S
H402 C390 0.956 . S
H403 C390 0.961 . S
H404 C390 0.961 . S
H405 C391 0.958 . S
H406 C391 0.961 . S
H407 C391 0.960 . S
C121 C9 1.570 1_455 S
C129 C18 1.536 . S
C153 C58 1.604 . S
C161 C49 1.641 1_455 S
C185 C89 1.355 . S
C193 C98 1.330 . S
C217 C86 0.980 . S
C225 C15 0.989 1_545 S
C249 C59 1.945 . S
C257 C6 1.882 . S
C281 C99 2.438 . S
C289 C50 2.429 . S
C313 C90 2.359 . S
C321 C19 2.311 . S
C345 C10 1.755 . S
C353 C55 1.656 . S
C377 C95 0.998 . S
C385 C46 0.991 1_455 S
