# Generated by pormake.
# Topology tfs, (6)-cn, num edge types: 1
# Building blocks:
#     Node 0, Type 0, BuildingBlock: HISSIN_clean_sbu_0, # of connection points: 6
#     Node 1, Type 0, BuildingBlock: HISSIN_clean_sbu_0, # of connection points: 6
#     Node 2, Type 0, BuildingBlock: HISSIN_clean_sbu_0, # of connection points: 6
#     Node 3, Type 0, BuildingBlock: HISSIN_clean_sbu_0, # of connection points: 6
#     Node 4, Type 0, BuildingBlock: HISSIN_clean_sbu_0, # of connection points: 6
#     Node 5, Type 0, BuildingBlock: HISSIN_clean_sbu_0, # of connection points: 6
#     Edge 6, Type (0, 0), BuildingBlock: FUNLAD_clean_linker_0, # of connection points: 2
#     Edge 7, Type (0, 0), BuildingBlock: FUNLAD_clean_linker_0, # of connection points: 2
#     Edge 8, Type (0, 0), BuildingBlock: FUNLAD_clean_linker_0, # of connection points: 2
#     Edge 9, Type (0, 0), BuildingBlock: FUNLAD_clean_linker_0, # of connection points: 2
#     Edge 10, Type (0, 0), BuildingBlock: FUNLAD_clean_linker_0, # of connection points: 2
#     Edge 11, Type (0, 0), BuildingBlock: FUNLAD_clean_linker_0, # of connection points: 2
#     Edge 12, Type (0, 0), BuildingBlock: FUNLAD_clean_linker_0, # of connection points: 2
#     Edge 13, Type (0, 0), BuildingBlock: FUNLAD_clean_linker_0, # of connection points: 2
#     Edge 14, Type (0, 0), BuildingBlock: FUNLAD_clean_linker_0, # of connection points: 2
#     Edge 15, Type (0, 0), BuildingBlock: FUNLAD_clean_linker_0, # of connection points: 2
#     Edge 16, Type (0, 0), BuildingBlock: FUNLAD_clean_linker_0, # of connection points: 2
#     Edge 17, Type (0, 0), BuildingBlock: FUNLAD_clean_linker_0, # of connection points: 2
#     Edge 18, Type (0, 0), BuildingBlock: FUNLAD_clean_linker_0, # of connection points: 2
#     Edge 19, Type (0, 0), BuildingBlock: FUNLAD_clean_linker_0, # of connection points: 2
#     Edge 20, Type (0, 0), BuildingBlock: FUNLAD_clean_linker_0, # of connection points: 2
#     Edge 21, Type (0, 0), BuildingBlock: FUNLAD_clean_linker_0, # of connection points: 2
#     Edge 22, Type (0, 0), BuildingBlock: FUNLAD_clean_linker_0, # of connection points: 2
#     Edge 23, Type (0, 0), BuildingBlock: FUNLAD_clean_linker_0, # of connection points: 2
# Relax obj value: 0.531
# Max RMSD: 0.293
# Mean RMSD: 0.293
data_MOF--net-tfs--node1-HISSIN_clean_sbu_0--edge1-FUNLAD_clean_linker_0
_symmetry_space_group_name_H-M    P1
_symmetry_Int_Tables_number       1
_symmetry_cell_setting            triclinic
loop_
_symmetry_equiv_pos_as_xyz
'x, y, z'
_cell_length_a     61.941195
_cell_length_b     61.929987
_cell_length_c     17.726539
_cell_angle_alpha  89.98322
_cell_angle_beta   89.990976
_cell_angle_gamma 119.99303
loop_
_atom_site_label
_atom_site_type_symbol
_atom_site_fract_x
_atom_site_fract_y
_atom_site_fract_z
_atom_type_partial_charge
Eu0 Eu 0.21533 0.40095 0.01585 0.0
Eu1 Eu 0.19045 0.43712 0.01378 0.0
C2 C 0.19929 0.41635 0.16487 0.0
C3 C 0.23557 0.35023 0.00066 0.0
C4 C 0.24113 0.33713 0.0544 0.0
C5 C 0.23728 0.32375 0.90238 0.0
C6 C 0.24555 0.31806 0.03225 0.0
C7 C 0.23289 0.34291 0.92467 0.0
C8 C 0.24451 0.31169 0.95564 0.0
C9 C 0.23609 0.37326 0.02442 0.0
O10 O 0.23069 0.46314 0.04293 0.0
O11 O 0.24734 0.43988 -0.00267 0.0
C12 C 0.24986 0.46113 0.02103 0.0
O13 O 0.20357 0.40151 0.896 0.0
O14 O 0.17889 0.45985 0.07639 0.0
O15 O 0.17178 0.45451 0.95622 0.0
O16 O 0.20869 0.44076 0.90065 0.0
C17 C 0.2068 0.42177 0.86198 0.0
O18 O 0.17372 0.37435 0.02121 0.0
O19 O 0.16007 0.39995 0.9731 0.0
O20 O 0.18166 0.41651 0.12459 0.0
O21 O 0.24197 0.3907 0.97402 0.0
O22 O 0.21912 0.37146 0.07174 0.0
O23 O 0.21853 0.4173 0.13122 0.0
C24 C 0.17861 0.49245 0.00909 0.0
C25 C 0.20382 0.51098 0.01319 0.0
C26 C 0.16714 0.52445 -0.00152 0.0
C27 C 0.21063 0.5362 0.01089 0.0
C28 C 0.16038 0.49932 0.00084 0.0
C29 C 0.1923 0.54321 0.00459 0.0
C30 C 0.1708 0.46594 0.01677 0.0
C31 C 0.15622 0.37774 -0.00885 0.0
H32 H 0.24343 0.34259 0.11325 0.0
H33 H 0.23595 0.31905 0.84308 0.0
H34 H 0.25137 0.30949 0.07479 0.0
H35 H 0.2285 0.35269 0.88214 0.0
H36 H 0.21815 0.50594 0.01961 0.0
H37 H 0.15261 0.5292 -0.00785 0.0
H38 H 0.23015 0.55018 0.01618 0.0
H39 H 0.14084 0.48522 -0.00268 0.0
Eu40 Eu 0.81567 0.21747 0.06351 0.0
Eu41 Eu 0.75409 0.19023 0.05149 0.0
C42 C 0.78157 0.20242 0.20817 0.0
C43 C 0.88672 0.23827 0.06287 0.0
C44 C 0.90313 0.24236 0.1227 0.0
C45 C 0.91713 0.23842 0.97576 0.0
C46 C 0.92656 0.24508 0.10919 0.0
C47 C 0.89362 0.23566 0.98937 0.0
C48 C 0.93413 0.24385 0.0353 0.0
C49 C 0.86409 0.23974 0.07806 0.0
O50 O 0.76662 0.23051 0.07387 0.0
O51 O 0.80767 0.24844 0.0374 0.0
C52 C 0.7879 0.25008 0.05468 0.0
O53 O 0.80526 0.2034 0.94476 0.0
O54 O 0.71844 0.18033 0.10328 0.0
O55 O 0.71938 0.16799 0.98949 0.0
O56 O 0.77024 0.20687 0.93828 0.0
C57 C 0.78845 0.20543 0.90522 0.0
O58 O 0.80232 0.17645 0.07921 0.0
O59 O 0.76244 0.15941 0.03189 0.0
O60 O 0.76408 0.1843 0.16845 0.0
O61 O 0.85284 0.2433 0.02115 0.0
O62 O 0.84857 0.2247 0.12875 0.0
O63 O 0.80043 0.2212 0.17459 0.0
C64 C 0.68698 0.17599 0.0202 0.0
C65 C 0.69409 0.20039 -0.00207 0.0
C66 C 0.64356 0.16419 0.00528 0.0
C67 C 0.67594 0.20671 0.97987 0.0
C68 C 0.66168 0.15793 0.02329 0.0
C69 C 0.65044 0.18869 0.9838 0.0
C70 C 0.70559 0.16924 0.04303 0.0
C71 C 0.78132 0.15723 0.0559 0.0
H72 H 0.89827 0.24461 0.17975 0.0
H73 H 0.9223 0.23706 0.91832 0.0
H74 H 0.93924 0.24958 0.15627 0.0
H75 H 0.88127 0.23242 0.94214 0.0
H76 H 0.71363 0.21456 -0.00472 0.0
H77 H 0.62411 0.14997 0.01007 0.0
H78 H 0.68187 0.22566 0.96281 0.0
H79 H 0.65592 0.13904 0.04079 0.0
Eu80 Eu 0.60351 0.81746 0.95644 0.0
Eu81 Eu 0.56409 0.75644 0.94631 0.0
C82 C 0.58375 0.78444 0.10382 0.0
C83 C 0.65606 0.88741 0.98484 0.0
C84 C 0.66262 0.89124 0.06154 0.0
C85 C 0.68963 0.9293 0.95729 0.0
C86 C 0.68207 0.91429 0.08616 0.0
C87 C 0.67027 0.9063 0.93281 0.0
C88 C 0.69517 0.93392 0.03458 0.0
C89 C 0.63263 0.86581 0.9587 0.0
O90 O 0.54086 0.77421 0.92243 0.0
O91 O 0.56525 0.81186 0.98047 0.0
C92 C 0.54385 0.79499 0.9516 0.0
O93 O 0.58827 0.8077 0.83862 0.0
O94 O 0.54698 0.71931 -0.00331 0.0
O95 O 0.53641 0.72414 0.88398 0.0
O96 O 0.5836 0.76887 0.83473 0.0
C97 C 0.587 0.78903 0.80025 0.0
O98 O 0.62901 0.80133 0.9444 0.0
O99 O 0.60131 0.75927 0.96215 0.0
O100 O 0.5638 0.76908 0.06525 0.0
O101 O 0.63371 0.85157 0.9063 0.0
O102 O 0.61515 0.85342 0.00838 0.0
O103 O 0.60384 0.80174 0.07005 0.0
C104 C 0.50526 0.69116 0.95795 0.0
C105 C 0.48637 0.68695 0.90608 0.0
C106 C 0.47401 0.65899 0.03912 0.0
C107 C 0.46165 0.6688 0.92023 0.0
C108 C 0.49878 0.67711 0.02488 0.0
C109 C 0.45524 0.65438 0.98637 0.0
C110 C 0.53175 0.70877 0.94014 0.0
C111 C 0.62402 0.77816 0.95307 0.0
H112 H 0.65199 0.8769 0.10286 0.0
H113 H 0.69902 0.94398 0.91595 0.0
H114 H 0.68611 0.91711 0.14594 0.0
H115 H 0.66543 0.9038 0.87345 0.0
H116 H 0.4907 0.69733 0.85374 0.0
H117 H 0.46971 0.64797 0.09017 0.0
H118 H 0.44756 0.66587 0.87889 0.0
H119 H 0.51294 0.6797 0.06552 0.0
Eu120 Eu 0.78862 0.6013 0.97901 0.0
Eu121 Eu 0.81627 0.56764 0.98063 0.0
C122 C 0.79894 0.58158 0.13207 0.0
C123 C 0.76747 0.65148 -0.0084 0.0
C124 C 0.75111 0.65189 0.04563 0.0
C125 C 0.77913 0.69388 0.95551 0.0
C126 C 0.74827 0.6728 0.05319 0.0
C127 C 0.78201 0.67297 0.94806 0.0
C128 C 0.76162 0.69371 0.00641 0.0
C129 C 0.76617 0.62753 0.97371 0.0
O130 O 0.77639 0.54018 0.952 0.0
O131 O 0.75755 0.56165 -0.00418 0.0
C132 C 0.7564 0.54095 0.97243 0.0
O133 O 0.78586 0.58509 0.8635 0.0
O134 O 0.83819 0.55365 0.03702 0.0
O135 O 0.82775 0.5445 0.91972 0.0
O136 O 0.82355 0.58743 0.86882 0.0
C137 C 0.80539 0.58681 0.82927 0.0
O138 O 0.82975 0.62932 0.96676 0.0
O139 O 0.84559 0.60591 0.01725 0.0
O140 O 0.7976 0.56286 0.09342 0.0
O141 O 0.78037 0.62715 0.91989 0.0
O142 O 0.76346 0.61251 0.02922 0.0
O143 O 0.80173 0.60162 0.09778 0.0
C144 C 0.83162 0.51438 -0.00731 0.0
C145 C 0.82561 0.4978 0.93184 0.0
C146 C 0.82891 0.48207 0.07703 0.0
C147 C 0.82129 0.47364 0.94341 0.0
C148 C 0.83318 0.50624 0.06549 0.0
C149 C 0.82307 0.46555 0.01603 0.0
C150 C 0.83771 0.54043 0.979 0.0
C151 C 0.84827 0.6274 -0.00422 0.0
H152 H 0.73944 0.63551 0.07929 0.0
H153 H 0.78991 0.70983 0.91931 0.0
H154 H 0.7344 0.67188 0.0923 0.0
H155 H 0.79476 0.67326 0.90573 0.0
H156 H 0.82466 0.5036 0.87488 0.0
H157 H 0.83023 0.47633 0.13376 0.0
H158 H 0.81725 0.46154 0.89503 0.0
H159 H 0.838 0.51861 0.11353 0.0
Eu160 Eu 0.18722 0.78721 0.00309 0.0
Eu161 Eu 0.24875 0.81303 0.0112 0.0
C162 C 0.21567 0.7996 0.15769 0.0
C163 C 0.11638 0.76716 0.97709 0.0
C164 C 0.10993 0.78338 0.01307 0.0
C165 C 0.07611 0.747 0.91423 0.0
C166 C 0.08647 0.78096 0.00113 0.0
C167 C 0.09951 0.74944 0.92613 0.0
C168 C 0.06898 0.76222 0.95333 0.0
C169 C 0.13861 0.76574 -0.00036 0.0
O170 O 0.23474 0.77213 0.02918 0.0
O171 O 0.19487 0.75578 0.9828 0.0
C172 C 0.21364 0.75318 0.00562 0.0
O173 O 0.20247 0.80274 0.8882 0.0
O174 O 0.28199 0.82157 0.07593 0.0
O175 O 0.28577 0.83591 0.96224 0.0
O176 O 0.23674 0.79793 0.89397 0.0
C177 C 0.22027 0.80066 0.85476 0.0
O178 O 0.20134 0.82815 0.02342 0.0
O179 O 0.24147 0.84398 0.97967 0.0
O180 O 0.23461 0.81799 0.12302 0.0
O181 O 0.15174 0.76301 0.94685 0.0
O182 O 0.15227 0.77966 0.05532 0.0
O183 O 0.19793 0.7814 0.11896 0.0
C184 C 0.31693 0.82766 0.00607 0.0
C185 C 0.31122 0.80388 0.98126 0.0
C186 C 0.36086 0.8404 0.00725 0.0
C187 C 0.33032 0.79837 0.96971 0.0
C188 C 0.3418 0.84586 0.01874 0.0
C189 C 0.35538 0.81657 0.98277 0.0
C190 C 0.29726 0.83373 0.02089 0.0
C191 C 0.22261 0.84683 -0.00047 0.0
H192 H 0.12254 0.79723 0.05283 0.0
H193 H 0.06308 0.73213 0.87788 0.0
H194 H 0.08171 0.79321 0.03134 0.0
H195 H 0.10388 0.7365 0.89839 0.0
H196 H 0.29205 0.78961 0.97124 0.0
H197 H 0.37987 0.85472 0.01903 0.0
H198 H 0.32547 0.77992 0.95013 0.0
H199 H 0.34647 0.86427 0.03833 0.0
Eu200 Eu 0.40267 0.18497 0.94104 0.0
Eu201 Eu 0.43988 0.24643 0.9315 0.0
C202 C 0.42152 0.21817 0.08855 0.0
C203 C 0.35088 0.11434 0.96271 0.0
C204 C 0.34204 0.10895 0.03729 0.0
C205 C 0.31741 0.07368 0.92376 0.0
C206 C 0.3213 0.08579 0.05512 0.0
C207 C 0.33802 0.09675 0.90606 0.0
C208 C 0.30914 0.06762 -0.00121 0.0
C209 C 0.375 0.13641 0.94331 0.0
O210 O 0.46509 0.23061 0.91098 0.0
O211 O 0.44137 0.19204 0.96521 0.0
C212 C 0.46268 0.20982 0.93848 0.0
O213 O 0.41892 0.19541 0.82445 0.0
O214 O 0.45472 0.28354 0.98055 0.0
O215 O 0.46651 0.27936 0.86893 0.0
O216 O 0.42089 0.23303 0.81953 0.0
C217 C 0.41908 0.21345 0.78543 0.0
O218 O 0.37608 0.19942 0.92236 0.0
O219 O 0.40169 0.24102 0.95128 0.0
O220 O 0.44119 0.23417 0.05005 0.0
O221 O 0.37562 0.15017 0.88664 0.0
O222 O 0.39014 0.14941 -0.00223 0.0
O223 O 0.40169 0.20055 0.05454 0.0
C224 C 0.49568 0.31423 0.94166 0.0
C225 C 0.51505 0.3203 0.8897 0.0
C226 C 0.52481 0.34846 0.02149 0.0
C227 C 0.53896 0.34034 0.90321 0.0
C228 C 0.50088 0.32843 0.00794 0.0
C229 C 0.54406 0.35487 0.9688 0.0
C230 C 0.46978 0.29468 0.92404 0.0
C231 C 0.3796 0.22184 0.9363 0.0
H232 H 0.35164 0.1222 0.08219 0.0
H233 H 0.3089 0.06011 0.87897 0.0
H234 H 0.31524 0.08187 0.11331 0.0
H235 H 0.34465 0.10037 0.84831 0.0
H236 H 0.51164 0.30999 0.83754 0.0
H237 H 0.52816 0.35907 0.07302 0.0
H238 H 0.55324 0.34496 0.86091 0.0
H239 H 0.48632 0.32439 0.04876 0.0
C240 C 0.36247 0.25071 0.93163 0.0
C241 C 0.35816 0.22617 0.93359 0.0
C242 C 0.34264 0.25529 0.92847 0.0
C243 C 0.3179 0.23544 0.92716 0.0
C244 C 0.31346 0.21089 0.93045 0.0
C245 C 0.33342 0.20626 0.93278 0.0
C246 C 0.29672 0.24032 0.92708 0.0
C247 C 0.29825 0.26028 0.89152 0.0
C248 C 0.28034 0.26948 0.90099 0.0
C249 C 0.28297 0.28886 0.85377 0.0
C250 C 0.27003 0.30148 0.86864 0.0
C251 C 0.25408 0.29501 0.93133 0.0
H252 H 0.26059 0.24721 -0.00078 0.0
C253 C 0.25009 0.27448 0.97564 0.0
C254 C 0.26313 0.26188 0.9609 0.0
H255 H 0.23767 0.2688 0.02379 0.0
H256 H 0.38124 0.26653 0.93241 0.0
H257 H 0.34679 0.27447 0.92875 0.0
H258 H 0.29455 0.1953 0.9307 0.0
H259 H 0.32947 0.18714 0.93474 0.0
H260 H 0.27999 0.22745 0.95763 0.0
H261 H 0.31433 0.27141 0.85575 0.0
H262 H 0.29611 0.29519 0.80731 0.0
H263 H 0.27384 0.31735 0.83372 0.0
C264 C 0.12195 0.33409 0.01919 0.0
C265 C 0.1312 0.35613 0.97677 0.0
C266 C 0.09732 0.31475 0.00936 0.0
C267 C 0.08172 0.31709 0.95618 0.0
C268 C 0.09153 0.33854 0.91105 0.0
C269 C 0.11588 0.35794 0.92171 0.0
C270 C 0.05483 0.29844 0.94818 0.0
C271 C 0.04043 0.28511 0.00669 0.0
C272 C 0.01265 0.27152 0.00496 0.0
C273 C 0.99949 0.2544 0.06274 0.0
C274 C 0.97371 0.24419 0.07021 0.0
C275 C 0.96051 0.25102 0.02023 0.0
H276 H 0.00842 0.29098 0.90854 0.0
C277 C 0.97346 0.26719 0.96022 0.0
C278 C 0.99919 0.27739 0.95274 0.0
H279 H 0.964 0.27323 0.92154 0.0
H280 H 0.13344 0.33213 0.06162 0.0
H281 H 0.09056 0.29816 0.04374 0.0
H282 H 0.08 0.34075 0.86928 0.0
H283 H 0.1226 0.37454 0.88728 0.0
H284 H 0.04633 0.29788 0.8942 0.0
H285 H 0.04912 0.28569 0.06044 0.0
H286 H 0.0093 0.24956 0.10391 0.0
H287 H 0.96425 0.23157 0.11662 0.0
C288 C 0.75392 0.11104 0.05352 0.0
C289 C 0.77802 0.13185 0.05901 0.0
C290 C 0.75017 0.08695 0.05788 0.0
C291 C 0.77042 0.08296 0.06769 0.0
C292 C 0.79461 0.10366 0.07145 0.0
C293 C 0.79838 0.12795 0.06812 0.0
C294 C 0.76632 0.0572 0.06987 0.0
C295 C 0.74593 0.03853 0.10301 0.0
C296 C 0.73716 0.01152 0.09386 0.0
C297 C 0.71728 0.99457 0.1392 0.0
C298 C 0.70479 0.9691 0.12319 0.0
C299 C 0.71188 0.9599 0.06117 0.0
H300 H 0.76056 0.01451 -0.00172 0.0
C301 C 0.73298 0.97661 0.01916 0.0
C302 C 0.74547 0.00217 0.03509 0.0
H303 H 0.73914 0.97009 0.97162 0.0
H304 H 0.73778 0.11326 0.04631 0.0
H305 H 0.73135 0.07143 0.05218 0.0
H306 H 0.81054 0.10103 0.07782 0.0
H307 H 0.81719 0.14361 0.07203 0.0
H308 H 0.77996 0.0537 0.04257 0.0
H309 H 0.73398 0.04323 0.13571 0.0
H310 H 0.71042 1.00119 0.18475 0.0
H311 H 0.68849 0.95692 0.15637 0.0
C312 C 0.75161 0.72248 0.93472 0.0
C313 C 0.75491 0.71367 0.00442 0.0
C314 C 0.74115 0.73788 0.93144 0.0
C315 C 0.73365 0.74473 -0.00217 0.0
C316 C 0.73873 0.73758 0.06772 0.0
C317 C 0.7491 0.72204 0.07105 0.0
C318 C 0.71866 0.75741 -0.00471 0.0
C319 C 0.70115 0.75169 0.94192 0.0
C320 C 0.68222 0.75964 0.94491 0.0
C321 C 0.65825 0.74307 0.91791 0.0
C322 C 0.63951 0.74923 0.92104 0.0
C323 C 0.64445 0.77242 0.94947 0.0
H324 H 0.70586 0.79634 -0.007 0.0
C325 C 0.66865 0.78945 0.97451 0.0
C326 C 0.68739 0.78301 0.97302 0.0
H327 H 0.67294 0.80749 -0.00351 0.0
H328 H 0.75579 0.71638 0.88226 0.0
H329 H 0.73816 0.7437 0.87669 0.0
H330 H 0.73341 0.74287 0.11973 0.0
H331 H 0.75179 0.71589 0.12567 0.0
H332 H 0.71966 0.76887 0.04305 0.0
H333 H 0.69852 0.73807 0.89891 0.0
H334 H 0.65385 0.72504 0.89554 0.0
H335 H 0.62112 0.73584 0.90048 0.0
C336 C 0.03026 0.75647 0.01713 0.0
C337 C 0.0426 0.75646 0.9505 0.0
C338 C 0.00448 0.74683 0.01759 0.0
C339 C 0.99038 0.73668 0.95151 0.0
C340 C 0.00295 0.73856 0.88376 0.0
C341 C 0.02876 0.74827 0.88323 0.0
C342 C 0.96263 0.72228 0.95228 0.0
C343 C 0.94963 0.7091 0.01309 0.0
C344 C 0.9228 0.68975 0.01083 0.0
C345 C 0.91442 0.66954 0.06069 0.0
C346 C 0.89004 0.64968 0.05674 0.0
C347 C 0.87323 0.64974 0.00371 0.0
H348 H 0.91141 0.706 0.92156 0.0
C349 C 0.88109 0.67057 0.95635 0.0
C350 C 0.90576 0.69039 0.95953 0.0
H351 H 0.86848 0.67115 0.91518 0.0
H352 H 0.04025 0.76264 0.07003 0.0
H353 H 0.99561 0.74664 0.07037 0.0
H354 H 0.99263 0.73129 0.83175 0.0
H355 H 0.03775 0.7485 0.83058 0.0
H356 H 0.95306 0.71969 0.89884 0.0
H357 H 0.95961 0.70997 0.06441 0.0
H358 H 0.92705 0.66865 0.10125 0.0
H359 H 0.88446 0.63405 0.09471 0.0
C360 C 0.21415 0.8803 0.04487 0.0
C361 C 0.22571 0.87199 -0.00647 0.0
C362 C 0.21899 0.90496 0.04188 0.0
C363 C 0.23504 0.92141 0.98638 0.0
C364 C 0.24561 0.91266 0.93321 0.0
C365 C 0.24129 0.88833 0.93735 0.0
C366 C 0.24176 0.94796 0.98274 0.0
C367 C 0.24592 0.96213 0.04461 0.0
C368 C 0.25872 0.98974 0.0394 0.0
C369 C 0.27693 0.00413 0.09307 0.0
C370 C 0.29242 0.02978 0.08232 0.0
C371 C 0.28972 0.04161 0.01812 0.0
H372 H 0.24019 0.9913 0.93744 0.0
C373 C 0.26994 0.02748 0.96812 0.0
C374 C 0.25466 0.0018 0.97847 0.0
H375 H 0.26684 0.03609 0.9193 0.0
H376 H 0.20202 0.86801 0.08864 0.0
H377 H 0.21024 0.91111 0.08282 0.0
H378 H 0.25791 0.92493 0.88966 0.0
H379 H 0.25024 0.88232 0.89658 0.0
H380 H 0.24688 0.95688 0.9277 0.0
H381 H 0.24345 0.95379 0.10018 0.0
H382 H 0.28028 0.99528 0.14084 0.0
H383 H 0.30748 0.03996 0.12189 0.0
C384 C 0.23052 0.72405 0.0235 0.0
C385 C 0.21058 0.72786 0.00511 0.0
C386 C 0.22723 0.69996 0.02427 0.0
C387 C 0.2039 0.67921 0.00651 0.0
C388 C 0.18406 0.6831 0.98824 0.0
C389 C 0.18736 0.70708 0.98713 0.0
C390 C 0.19896 0.65314 0.00978 0.0
C391 C 0.21667 0.64665 0.00389 0.0
C392 C 0.21066 0.62021 0.0065 0.0
C393 C 0.22581 0.61305 0.96745 0.0
C394 C 0.22007 0.58812 0.96709 0.0
C395 C 0.19912 0.56988 0.00637 0.0
H396 H 0.17869 0.60701 0.08128 0.0
C397 C 0.18449 0.57724 0.04754 0.0
C398 C 0.19021 0.60208 0.04786 0.0
H399 H 0.16867 0.5638 0.08025 0.0
H400 H 0.24864 0.73963 0.03789 0.0
H401 H 0.24283 0.69772 0.0405 0.0
H402 H 0.16585 0.66747 0.97482 0.0
H403 H 0.17153 0.70924 0.97291 0.0
H404 H 0.17955 0.63856 0.01378 0.0
H405 H 0.23585 0.66079 -0.0075 0.0
H406 H 0.24184 0.62668 0.93584 0.0
H407 H 0.23171 0.58305 0.93476 0.0
C408 C 0.508 0.22504 0.91383 0.0
C409 C 0.48457 0.20618 0.93932 0.0
C410 C 0.52855 0.22141 0.91421 0.0
C411 C 0.52611 0.19883 0.94042 0.0
C412 C 0.50266 0.17996 0.96512 0.0
C413 C 0.48217 0.1836 0.96495 0.0
C414 C 0.54724 0.19386 0.94115 0.0
C415 C 0.57141 0.21186 0.94337 0.0
C416 C 0.59204 0.20622 0.94883 0.0
C417 C 0.61424 0.22328 0.9852 0.0
C418 C 0.63345 0.21789 -0.00488 0.0
C419 C 0.63095 0.1954 0.96813 0.0
H420 H 0.57356 0.17107 0.88791 0.0
C421 C 0.60917 0.17885 0.92874 0.0
C422 C 0.58996 0.18421 0.91899 0.0
H423 H 0.60692 0.16167 0.90552 0.0
H424 H 0.51048 0.2426 0.89318 0.0
H425 H 0.54611 0.23616 0.89267 0.0
H426 H 0.50018 0.16232 0.98509 0.0
H427 H 0.46441 0.1686 0.98469 0.0
H428 H 0.5425 0.17447 0.94477 0.0
H429 H 0.57629 0.23127 0.94717 0.0
H430 H 0.61644 0.24049 0.00802 0.0
H431 H 0.64992 0.23099 0.02606 0.0
C432 C 0.4162 0.61753 0.9383 0.0
C433 C 0.42936 0.63364 -0.00184 0.0
C434 C 0.39231 0.59728 0.94956 0.0
C435 C 0.38105 0.59258 0.02119 0.0
C436 C 0.39386 0.60911 0.08048 0.0
C437 C 0.41788 0.62934 0.0693 0.0
C438 C 0.35592 0.57076 0.03507 0.0
C439 C 0.34751 0.54913 -0.00264 0.0
C440 C 0.32253 0.52682 0.00886 0.0
C441 C 0.31891 0.50351 0.9866 0.0
C442 C 0.29548 0.48216 -0.00782 0.0
C443 C 0.27496 0.48364 0.01953 0.0
H444 H 0.30396 0.54606 0.05315 0.0
C445 C 0.27857 0.50696 0.04252 0.0
C446 C 0.3021 0.52836 0.03718 0.0
H447 H 0.26313 0.5088 0.06342 0.0
H448 H 0.42456 0.62026 0.8829 0.0
H449 H 0.38269 0.58543 0.90187 0.0
H450 H 0.38547 0.60609 0.13592 0.0
H451 H 0.42745 0.64163 0.11625 0.0
H452 H 0.34482 0.57219 0.08008 0.0
H453 H 0.35985 0.54721 0.95783 0.0
H454 H 0.33427 0.5018 0.9642 0.0
H455 H 0.29343 0.46455 0.97381 0.0
C456 C 0.80085 0.41957 0.98903 0.0
C457 C 0.81973 0.44028 0.02741 0.0
C458 C 0.79847 0.39601 -0.003 0.0
C459 C 0.81487 0.39262 0.04395 0.0
C460 C 0.83366 0.41332 0.08239 0.0
C461 C 0.83601 0.43685 0.07456 0.0
C462 C 0.81384 0.3682 0.0512 0.0
C463 C 0.79319 0.34609 0.03775 0.0
C464 C 0.79251 0.32181 0.0435 0.0
C465 C 0.76963 0.30012 0.05739 0.0
C466 C 0.76814 0.27688 0.06171 0.0
C467 C 0.78952 0.27477 0.05132 0.0
H468 H 0.83173 0.33582 0.01917 0.0
C469 C 0.8124 0.29644 0.03653 0.0
C470 C 0.81389 0.31969 0.0325 0.0
H471 H 0.8292 0.2955 0.0276 0.0
H472 H 0.78796 0.42159 0.95247 0.0
H473 H 0.78416 0.38075 0.9647 0.0
H474 H 0.84672 0.41133 0.11829 0.0
H475 H 0.851 0.45249 0.10396 0.0
H476 H 0.8306 0.36854 0.07102 0.0
H477 H 0.77576 0.34551 0.02504 0.0
H478 H 0.75282 0.30116 0.06523 0.0
H479 H 0.75016 0.26056 0.0726 0.0
C480 C 0.39866 0.8285 0.94049 0.0
C481 C 0.37579 0.81078 0.97244 0.0
C482 C 0.41833 0.82364 0.93419 0.0
C483 C 0.41562 0.80093 0.96012 0.0
C484 C 0.39252 0.78291 -0.01023 0.0
C485 C 0.37285 0.78779 -0.00379 0.0
C486 C 0.43629 0.79528 0.95608 0.0
C487 C 0.46057 0.81309 0.95682 0.0
C488 C 0.48146 0.80772 0.95524 0.0
C489 C 0.50489 0.82587 0.98247 0.0
C490 C 0.52511 0.82175 0.98153 0.0
C491 C 0.52242 0.7994 0.95261 0.0
H492 H 0.46132 0.77129 0.90177 0.0
C493 C 0.49905 0.78133 0.92442 0.0
C494 C 0.47881 0.78545 0.9255 0.0
H495 H 0.49633 0.76397 0.90117 0.0
H496 H 0.40135 0.84615 0.91987 0.0
H497 H 0.43548 0.83764 0.90823 0.0
H498 H 0.38982 0.76517 0.0095 0.0
H499 H 0.35555 0.77378 0.02153 0.0
H500 H 0.4312 0.77578 0.95727 0.0
H501 H 0.46554 0.83248 0.96293 0.0
H502 H 0.50755 0.84329 0.00509 0.0
H503 H 0.54284 0.83613 0.00342 0.0
C504 C 0.71009 0.51748 -0.00685 0.0
C505 C 0.73187 0.51768 0.96968 0.0
C506 C 0.68699 0.49547 -0.00912 0.0
C507 C 0.68517 0.47308 0.9654 0.0
C508 C 0.7069 0.47339 0.94113 0.0
C509 C 0.72998 0.49536 0.94354 0.0
C510 C 0.66098 0.44928 0.96043 0.0
C511 C 0.64069 0.44427 0.00163 0.0
C512 C 0.61632 0.42077 -0.00532 0.0
C513 C 0.59457 0.42088 0.01619 0.0
C514 C 0.5712 0.39945 0.00879 0.0
C515 C 0.56904 0.37727 0.98031 0.0
H516 H 0.63057 0.39715 0.95361 0.0
C517 C 0.59087 0.37692 0.9608 0.0
C518 C 0.61425 0.39838 0.96808 0.0
H519 H 0.5899 0.35999 0.94025 0.0
H520 H 0.7108 0.53436 0.01304 0.0
H521 H 0.67066 0.49633 0.00773 0.0
H522 H 0.70605 0.45651 0.92055 0.0
H523 H 0.74633 0.4948 0.92474 0.0
H524 H 0.66012 0.43543 0.92118 0.0
H525 H 0.64152 0.45811 0.04085 0.0
H526 H 0.59559 0.43778 0.03738 0.0
H527 H 0.55478 0.40049 0.02365 0.0
C528 C 0.19763 0.40126 0.73527 0.0
C529 C 0.20803 0.42315 0.77875 0.0
C530 C 0.1983 0.40254 0.65649 0.0
C531 C 0.2097 0.42577 0.61973 0.0
C532 C 0.22054 0.44763 0.66317 0.0
C533 C 0.21943 0.44635 0.74193 0.0
C534 C 0.21144 0.42771 0.53634 0.0
C535 C 0.1932 0.41142 0.4906 0.0
C536 C 0.19514 0.41331 0.40719 0.0
C537 C 0.1736 0.40606 0.36394 0.0
C538 C 0.17494 0.40738 0.28512 0.0
C539 C 0.19776 0.41537 0.24813 0.0
H540 H 0.23482 0.42649 0.40182 0.0
C541 C 0.21924 0.42224 0.29146 0.0
C542 C 0.21798 0.42136 0.37016 0.0
H543 H 0.2371 0.42843 0.26459 0.0
H544 H 0.18873 0.38311 0.7621 0.0
H545 H 0.1903 0.38535 0.62453 0.0
H546 H 0.22964 0.46574 0.63608 0.0
H547 H 0.22775 0.46355 0.77397 0.0
H548 H 0.22767 0.44373 0.51214 0.0
H549 H 0.17584 0.39692 0.51485 0.0
H550 H 0.15575 0.39958 0.39122 0.0
H551 H 0.15804 0.40179 0.2532 0.0
C552 C 0.77134 0.20683 0.77871 0.0
C553 C 0.7901 0.20635 0.82202 0.0
C554 C 0.77275 0.20759 0.70011 0.0
C555 C 0.79293 0.20778 0.6631 0.0
C556 C 0.81188 0.20774 0.70634 0.0
C557 C 0.81043 0.20687 0.78503 0.0
C558 C 0.79515 0.20884 0.57975 0.0
C559 C 0.77524 0.1994 0.53358 0.0
C560 C 0.77741 0.20046 0.45023 0.0
C561 C 0.75776 0.18221 0.40711 0.0
C562 C 0.75911 0.18274 0.32843 0.0
C563 C 0.78005 0.20177 0.29133 0.0
H564 H 0.81339 0.23453 0.44434 0.0
C565 C 0.79955 0.22028 0.33447 0.0
C566 C 0.79824 0.21967 0.41309 0.0
H567 H 0.81585 0.23531 0.30761 0.0
H568 H 0.75553 0.20667 0.80542 0.0
H569 H 0.75821 0.20845 0.66878 0.0
H570 H 0.82776 0.20816 0.67916 0.0
H571 H 0.82528 0.20669 0.81673 0.0
H572 H 0.81373 0.21653 0.55607 0.0
H573 H 0.75658 0.18942 0.5573 0.0
H574 H 0.7414 0.16736 0.43438 0.0
H575 H 0.7437 0.16828 0.29679 0.0
C576 C 0.5859 0.77012 0.67458 0.0
C577 C 0.58906 0.79062 0.71722 0.0
C578 C 0.58762 0.77158 0.59602 0.0
C579 C 0.59247 0.79359 0.55855 0.0
C580 C 0.59615 0.81422 0.60126 0.0
C581 C 0.59432 0.81273 0.67977 0.0
C582 C 0.59429 0.79585 0.47529 0.0
C583 C 0.58189 0.77625 0.42878 0.0
C584 C 0.58291 0.77872 0.34552 0.0
C585 C 0.56255 0.76134 0.30277 0.0
C586 C 0.56274 0.76323 0.22426 0.0
C587 C 0.58349 0.78243 0.18687 0.0
H588 H 0.62024 0.81094 0.33897 0.0
C589 C 0.6041 0.79955 0.2296 0.0
C590 C 0.60385 0.7977 0.30809 0.0
H591 H 0.62049 0.8144 0.20251 0.0
H592 H 0.58208 0.7529 0.70178 0.0
H593 H 0.5855 0.75557 0.56511 0.0
H594 H 0.60016 0.83146 0.57376 0.0
H595 H 0.59705 0.82894 0.711 0.0
H596 H 0.60491 0.81451 0.4519 0.0
H597 H 0.56925 0.75798 0.45218 0.0
H598 H 0.5463 0.74641 0.33024 0.0
H599 H 0.54664 0.74961 0.19299 0.0
C600 C 0.7851 0.58015 0.70284 0.0
C601 C 0.80679 0.58795 0.74602 0.0
C602 C 0.78633 0.58118 0.62411 0.0
C603 C 0.80933 0.59031 0.587 0.0
C604 C 0.83104 0.59849 0.63013 0.0
C605 C 0.82977 0.59703 0.7089 0.0
C606 C 0.81125 0.59235 0.50362 0.0
C607 C 0.79349 0.57555 0.45767 0.0
C608 C 0.7954 0.57753 0.3743 0.0
C609 C 0.78558 0.5557 0.33089 0.0
C610 C 0.78695 0.55701 0.25215 0.0
C611 C 0.79758 0.58018 0.2153 0.0
H612 H 0.81323 0.61787 0.36942 0.0
C613 C 0.80696 0.60202 0.25874 0.0
C614 C 0.80604 0.60073 0.33751 0.0
H615 H 0.81524 0.62015 0.23191 0.0
H616 H 0.76713 0.57311 0.72985 0.0
H617 H 0.76932 0.5753 0.59251 0.0
H618 H 0.84901 0.60581 0.60279 0.0
H619 H 0.84682 0.60335 0.7407 0.0
H620 H 0.82832 0.60738 0.47956 0.0
H621 H 0.77766 0.5591 0.48167 0.0
H622 H 0.77708 0.5376 0.35799 0.0
H623 H 0.77939 0.53985 0.22015 0.0
C624 C 0.23394 0.81752 0.2839 0.0
C625 C 0.21411 0.79941 0.24082 0.0
C626 C 0.23244 0.81723 0.36255 0.0
C627 C 0.21105 0.79875 0.39961 0.0
C628 C 0.19109 0.78096 0.35647 0.0
C629 C 0.19264 0.78116 0.27791 0.0
C630 C 0.20864 0.79786 0.48287 0.0
C631 C 0.22832 0.80628 0.52964 0.0
C632 C 0.22574 0.8047 0.61289 0.0
C633 C 0.24391 0.80321 0.65612 0.0
C634 C 0.24205 0.80167 0.73467 0.0
C635 C 0.22209 0.80191 0.77161 0.0
H636 H 0.19198 0.80719 0.61858 0.0
C637 C 0.20409 0.8038 0.72838 0.0
C638 C 0.20591 0.80524 0.64985 0.0
H639 H 0.18861 0.80429 0.75509 0.0
H640 H 0.25065 0.83196 0.25696 0.0
H641 H 0.24789 0.83172 0.39387 0.0
H642 H 0.17432 0.76668 0.38365 0.0
H643 H 0.17695 0.76703 0.24635 0.0
H644 H 0.18989 0.78857 0.50603 0.0
H645 H 0.24688 0.81324 0.50649 0.0
H646 H 0.25949 0.803 0.62901 0.0
H647 H 0.25634 0.80041 0.76632 0.0
C648 C 0.41898 0.23156 0.65938 0.0
C649 C 0.41728 0.21171 0.70237 0.0
C650 C 0.41732 0.22994 0.58084 0.0
C651 C 0.41401 0.20842 0.54369 0.0
C652 C 0.41182 0.18841 0.58673 0.0
C653 C 0.4136 0.19007 0.66526 0.0
C654 C 0.41221 0.20601 0.46042 0.0
C655 C 0.42353 0.22573 0.41373 0.0
C656 C 0.4225 0.2233 0.33045 0.0
C657 C 0.44219 0.24156 0.28749 0.0
C658 C 0.44194 0.23985 0.20894 0.0
C659 C 0.42179 0.21995 0.17168 0.0
H660 H 0.38625 0.18956 0.32431 0.0
C661 C 0.40184 0.2019 0.21462 0.0
C662 C 0.40215 0.20356 0.2932 0.0
H663 H 0.38592 0.18646 0.18763 0.0
H664 H 0.42156 0.24839 0.6863 0.0
H665 H 0.41825 0.24542 0.5497 0.0
H666 H 0.40902 0.17154 0.55948 0.0
H667 H 0.41201 0.17436 0.69677 0.0
H668 H 0.40257 0.18728 0.43721 0.0
H669 H 0.43529 0.24424 0.43698 0.0
H670 H 0.45796 0.25708 0.31481 0.0
H671 H 0.45754 0.25419 0.17753 0.0
loop_
_geom_bond_atom_site_label_1
_geom_bond_atom_site_label_2
_geom_bond_distance
_geom_bond_site_symmetry_2
_ccdc_geom_bond_type
Eu0 C9 2.828 1_556 S
Eu0 O11 2.392 . S
Eu0 O13 2.418 . S
Eu0 O18 2.373 . S
Eu0 O21 2.488 . S
Eu0 O22 2.471 1_556 S
Eu0 O23 2.349 1_556 S
Eu1 O10 2.373 . S
Eu1 O14 2.488 . S
Eu1 O15 2.471 1_554 S
Eu1 O16 2.349 1_554 S
Eu1 O19 2.392 . S
Eu1 O20 2.418 . S
Eu1 C30 2.828 1_554 S
C2 O20 1.244 . S
C2 O23 1.265 . S
C3 C4 1.379 . S
C3 C7 1.373 1_554 S
C3 C9 1.505 . S
C4 C3 1.379 . S
C4 C6 1.369 . S
C4 H32 0.930 . S
C5 C7 1.383 . S
C5 C8 1.382 1_556 S
C5 H33 0.930 . S
C6 C4 1.369 . S
C6 C8 1.392 . S
C6 H34 0.930 . S
C7 C3 1.373 1_556 S
C7 C5 1.383 . S
C7 H35 0.931 . S
C8 C5 1.382 1_554 S
C8 C6 1.392 . S
C9 Eu0 2.828 1_554 S
C9 C3 1.505 . S
C9 O21 1.249 1_554 S
C9 O22 1.244 . S
O10 Eu1 2.373 . S
O10 C12 1.258 . S
O11 Eu0 2.392 . S
O11 C12 1.242 1_556 S
C12 O10 1.258 . S
C12 O11 1.242 1_554 S
O13 Eu0 2.418 . S
O13 C17 1.244 . S
O14 Eu1 2.488 . S
O14 C30 1.249 1_554 S
O15 Eu1 2.471 1_556 S
O15 C30 1.244 . S
O16 Eu1 2.349 1_556 S
O16 C17 1.265 . S
C17 O13 1.244 . S
C17 O16 1.265 . S
O18 Eu0 2.373 . S
O18 C31 1.258 . S
O19 Eu1 2.392 . S
O19 C31 1.242 1_554 S
O20 Eu1 2.418 . S
O20 C2 1.244 . S
O21 Eu0 2.488 . S
O21 C9 1.249 1_556 S
O22 Eu0 2.471 1_554 S
O22 C9 1.244 . S
O23 Eu0 2.349 1_554 S
O23 C2 1.265 . S
C24 C25 1.379 . S
C24 C28 1.373 1_556 S
C24 C30 1.505 . S
C25 C24 1.379 . S
C25 C27 1.369 . S
C25 H36 0.930 . S
C26 C28 1.383 . S
C26 C29 1.382 1_554 S
C26 H37 0.930 . S
C27 C25 1.369 . S
C27 C29 1.392 . S
C27 H38 0.930 . S
C28 C24 1.373 1_554 S
C28 C26 1.383 . S
C28 H39 0.931 . S
C29 C26 1.382 1_556 S
C29 C27 1.392 . S
C30 Eu1 2.828 1_556 S
C30 O14 1.249 1_556 S
C30 O15 1.244 . S
C30 C24 1.505 . S
C31 O18 1.258 . S
C31 O19 1.242 1_556 S
H32 C4 0.930 . S
H33 C5 0.930 . S
H34 C6 0.930 . S
H35 C7 0.931 . S
H36 C25 0.930 . S
H37 C26 0.930 . S
H38 C27 0.930 . S
H39 C28 0.931 . S
Eu40 C49 2.828 1_556 S
Eu40 O51 2.392 . S
Eu40 O53 2.418 . S
Eu40 O58 2.373 . S
Eu40 O61 2.488 . S
Eu40 O62 2.471 1_556 S
Eu40 O63 2.349 1_556 S
Eu41 O50 2.373 . S
Eu41 O54 2.488 . S
Eu41 O55 2.471 1_554 S
Eu41 O56 2.349 1_554 S
Eu41 O59 2.392 . S
Eu41 O60 2.418 . S
Eu41 C70 2.828 1_554 S
C42 O60 1.244 . S
C42 O63 1.265 . S
C43 C44 1.379 . S
C43 C47 1.373 1_554 S
C43 C49 1.505 . S
C44 C43 1.379 . S
C44 C46 1.369 . S
C44 H72 0.930 . S
C45 C47 1.383 . S
C45 C48 1.382 1_556 S
C45 H73 0.930 . S
C46 C44 1.369 . S
C46 C48 1.392 . S
C46 H74 0.930 . S
C47 C43 1.373 1_556 S
C47 C45 1.383 . S
C47 H75 0.931 . S
C48 C45 1.382 1_554 S
C48 C46 1.392 . S
C49 Eu40 2.828 1_554 S
C49 C43 1.505 . S
C49 O61 1.249 1_554 S
C49 O62 1.244 . S
O50 Eu41 2.373 . S
O50 C52 1.258 . S
O51 Eu40 2.392 . S
O51 C52 1.242 1_556 S
C52 O50 1.258 . S
C52 O51 1.242 1_554 S
O53 Eu40 2.418 . S
O53 C57 1.244 . S
O54 Eu41 2.488 . S
O54 C70 1.249 1_554 S
O55 Eu41 2.471 1_556 S
O55 C70 1.244 . S
O56 Eu41 2.349 1_556 S
O56 C57 1.265 . S
C57 O53 1.244 . S
C57 O56 1.265 . S
O58 Eu40 2.373 . S
O58 C71 1.258 . S
O59 Eu41 2.392 . S
O59 C71 1.242 1_554 S
O60 Eu41 2.418 . S
O60 C42 1.244 . S
O61 Eu40 2.488 . S
O61 C49 1.249 1_556 S
O62 Eu40 2.471 1_554 S
O62 C49 1.244 . S
O63 Eu40 2.349 1_554 S
O63 C42 1.265 . S
C64 C65 1.379 . S
C64 C68 1.373 1_556 S
C64 C70 1.505 . S
C65 C64 1.379 . S
C65 C67 1.369 . S
C65 H76 0.930 . S
C66 C68 1.383 . S
C66 C69 1.382 1_554 S
C66 H77 0.930 . S
C67 C65 1.369 . S
C67 C69 1.392 . S
C67 H78 0.930 . S
C68 C64 1.373 1_554 S
C68 C66 1.383 . S
C68 H79 0.931 . S
C69 C66 1.382 1_556 S
C69 C67 1.392 . S
C70 Eu41 2.828 1_556 S
C70 O54 1.249 1_556 S
C70 O55 1.244 . S
C70 C64 1.505 . S
C71 O58 1.258 . S
C71 O59 1.242 1_556 S
H72 C44 0.930 . S
H73 C45 0.930 . S
H74 C46 0.930 . S
H75 C47 0.931 . S
H76 C65 0.930 . S
H77 C66 0.930 . S
H78 C67 0.930 . S
H79 C68 0.931 . S
Eu80 C89 2.828 1_556 S
Eu80 O91 2.392 . S
Eu80 O93 2.418 . S
Eu80 O98 2.373 . S
Eu80 O101 2.488 . S
Eu80 O102 2.471 1_556 S
Eu80 O103 2.349 1_556 S
Eu81 O90 2.373 . S
Eu81 O94 2.488 . S
Eu81 O95 2.471 1_554 S
Eu81 O96 2.349 1_554 S
Eu81 O99 2.392 . S
Eu81 O100 2.418 . S
Eu81 C110 2.828 1_554 S
C82 O100 1.244 . S
C82 O103 1.265 . S
C83 C84 1.379 . S
C83 C87 1.373 1_554 S
C83 C89 1.505 . S
C84 C83 1.379 . S
C84 C86 1.369 . S
C84 H112 0.930 . S
C85 C87 1.383 . S
C85 C88 1.382 1_556 S
C85 H113 0.930 . S
C86 C84 1.369 . S
C86 C88 1.392 . S
C86 H114 0.930 . S
C87 C83 1.373 1_556 S
C87 C85 1.383 . S
C87 H115 0.931 . S
C88 C85 1.382 1_554 S
C88 C86 1.392 . S
C89 Eu80 2.828 1_554 S
C89 C83 1.505 . S
C89 O101 1.249 1_554 S
C89 O102 1.244 . S
O90 Eu81 2.373 . S
O90 C92 1.258 . S
O91 Eu80 2.392 . S
O91 C92 1.242 1_556 S
C92 O90 1.258 . S
C92 O91 1.242 1_554 S
O93 Eu80 2.418 . S
O93 C97 1.244 . S
O94 Eu81 2.488 . S
O94 C110 1.249 1_554 S
O95 Eu81 2.471 1_556 S
O95 C110 1.244 . S
O96 Eu81 2.349 1_556 S
O96 C97 1.265 . S
C97 O93 1.244 . S
C97 O96 1.265 . S
O98 Eu80 2.373 . S
O98 C111 1.258 . S
O99 Eu81 2.392 . S
O99 C111 1.242 1_554 S
O100 Eu81 2.418 . S
O100 C82 1.244 . S
O101 Eu80 2.488 . S
O101 C89 1.249 1_556 S
O102 Eu80 2.471 1_554 S
O102 C89 1.244 . S
O103 Eu80 2.349 1_554 S
O103 C82 1.265 . S
C104 C105 1.379 . S
C104 C108 1.373 1_556 S
C104 C110 1.505 . S
C105 C104 1.379 . S
C105 C107 1.369 . S
C105 H116 0.930 . S
C106 C108 1.383 . S
C106 C109 1.382 1_554 S
C106 H117 0.930 . S
C107 C105 1.369 . S
C107 C109 1.392 . S
C107 H118 0.930 . S
C108 C104 1.373 1_554 S
C108 C106 1.383 . S
C108 H119 0.931 . S
C109 C106 1.382 1_556 S
C109 C107 1.392 . S
C110 Eu81 2.828 1_556 S
C110 O94 1.249 1_556 S
C110 O95 1.244 . S
C110 C104 1.505 . S
C111 O98 1.258 . S
C111 O99 1.242 1_556 S
H112 C84 0.930 . S
H113 C85 0.930 . S
H114 C86 0.930 . S
H115 C87 0.931 . S
H116 C105 0.930 . S
H117 C106 0.930 . S
H118 C107 0.930 . S
H119 C108 0.931 . S
Eu120 C129 2.828 1_556 S
Eu120 O131 2.392 . S
Eu120 O133 2.418 . S
Eu120 O138 2.373 . S
Eu120 O141 2.488 . S
Eu120 O142 2.471 1_556 S
Eu120 O143 2.349 1_556 S
Eu121 O130 2.373 . S
Eu121 O134 2.488 . S
Eu121 O135 2.471 1_554 S
Eu121 O136 2.349 1_554 S
Eu121 O139 2.392 . S
Eu121 O140 2.418 . S
Eu121 C150 2.828 1_554 S
C122 O140 1.244 . S
C122 O143 1.265 . S
C123 C124 1.379 . S
C123 C127 1.373 1_554 S
C123 C129 1.505 . S
C124 C123 1.379 . S
C124 C126 1.369 . S
C124 H152 0.930 . S
C125 C127 1.383 . S
C125 C128 1.382 1_556 S
C125 H153 0.930 . S
C126 C124 1.369 . S
C126 C128 1.392 . S
C126 H154 0.930 . S
C127 C123 1.373 1_556 S
C127 C125 1.383 . S
C127 H155 0.931 . S
C128 C125 1.382 1_554 S
C128 C126 1.392 . S
C129 Eu120 2.828 1_554 S
C129 C123 1.505 . S
C129 O141 1.249 1_554 S
C129 O142 1.244 . S
O130 Eu121 2.373 . S
O130 C132 1.258 . S
O131 Eu120 2.392 . S
O131 C132 1.242 1_556 S
C132 O130 1.258 . S
C132 O131 1.242 1_554 S
O133 Eu120 2.418 . S
O133 C137 1.244 . S
O134 Eu121 2.488 . S
O134 C150 1.249 1_554 S
O135 Eu121 2.471 1_556 S
O135 C150 1.244 . S
O136 Eu121 2.349 1_556 S
O136 C137 1.265 . S
C137 O133 1.244 . S
C137 O136 1.265 . S
O138 Eu120 2.373 . S
O138 C151 1.258 . S
O139 Eu121 2.392 . S
O139 C151 1.242 1_554 S
O140 Eu121 2.418 . S
O140 C122 1.244 . S
O141 Eu120 2.488 . S
O141 C129 1.249 1_556 S
O142 Eu120 2.471 1_554 S
O142 C129 1.244 . S
O143 Eu120 2.349 1_554 S
O143 C122 1.265 . S
C144 C145 1.379 . S
C144 C148 1.373 1_556 S
C144 C150 1.505 . S
C145 C144 1.379 . S
C145 C147 1.369 . S
C145 H156 0.930 . S
C146 C148 1.383 . S
C146 C149 1.382 1_554 S
C146 H157 0.930 . S
C147 C145 1.369 . S
C147 C149 1.392 . S
C147 H158 0.930 . S
C148 C144 1.373 1_554 S
C148 C146 1.383 . S
C148 H159 0.931 . S
C149 C146 1.382 1_556 S
C149 C147 1.392 . S
C150 Eu121 2.828 1_556 S
C150 O134 1.249 1_556 S
C150 O135 1.244 . S
C150 C144 1.505 . S
C151 O138 1.258 . S
C151 O139 1.242 1_556 S
H152 C124 0.930 . S
H153 C125 0.930 . S
H154 C126 0.930 . S
H155 C127 0.931 . S
H156 C145 0.930 . S
H157 C146 0.930 . S
H158 C147 0.930 . S
H159 C148 0.931 . S
Eu160 C169 2.828 1_556 S
Eu160 O171 2.392 . S
Eu160 O173 2.418 . S
Eu160 O178 2.373 . S
Eu160 O181 2.488 . S
Eu160 O182 2.471 1_556 S
Eu160 O183 2.349 1_556 S
Eu161 O170 2.373 . S
Eu161 O174 2.488 . S
Eu161 O175 2.471 1_554 S
Eu161 O176 2.349 1_554 S
Eu161 O179 2.392 . S
Eu161 O180 2.418 . S
Eu161 C190 2.828 1_554 S
C162 O180 1.244 . S
C162 O183 1.265 . S
C163 C164 1.379 . S
C163 C167 1.373 1_554 S
C163 C169 1.505 . S
C164 C163 1.379 . S
C164 C166 1.369 . S
C164 H192 0.930 . S
C165 C167 1.383 . S
C165 C168 1.382 1_556 S
C165 H193 0.930 . S
C166 C164 1.369 . S
C166 C168 1.392 . S
C166 H194 0.930 . S
C167 C163 1.373 1_556 S
C167 C165 1.383 . S
C167 H195 0.931 . S
C168 C165 1.382 1_554 S
C168 C166 1.392 . S
C169 Eu160 2.828 1_554 S
C169 C163 1.505 . S
C169 O181 1.249 1_554 S
C169 O182 1.244 . S
O170 Eu161 2.373 . S
O170 C172 1.258 . S
O171 Eu160 2.392 . S
O171 C172 1.242 1_556 S
C172 O170 1.258 . S
C172 O171 1.242 1_554 S
O173 Eu160 2.418 . S
O173 C177 1.244 . S
O174 Eu161 2.488 . S
O174 C190 1.249 1_554 S
O175 Eu161 2.471 1_556 S
O175 C190 1.244 . S
O176 Eu161 2.349 1_556 S
O176 C177 1.265 . S
C177 O173 1.244 . S
C177 O176 1.265 . S
O178 Eu160 2.373 . S
O178 C191 1.258 . S
O179 Eu161 2.392 . S
O179 C191 1.242 1_554 S
O180 Eu161 2.418 . S
O180 C162 1.244 . S
O181 Eu160 2.488 . S
O181 C169 1.249 1_556 S
O182 Eu160 2.471 1_554 S
O182 C169 1.244 . S
O183 Eu160 2.349 1_554 S
O183 C162 1.265 . S
C184 C185 1.379 . S
C184 C188 1.373 1_556 S
C184 C190 1.505 . S
C185 C184 1.379 . S
C185 C187 1.369 . S
C185 H196 0.930 . S
C186 C188 1.383 . S
C186 C189 1.382 1_554 S
C186 H197 0.930 . S
C187 C185 1.369 . S
C187 C189 1.392 . S
C187 H198 0.930 . S
C188 C184 1.373 1_554 S
C188 C186 1.383 . S
C188 H199 0.931 . S
C189 C186 1.382 1_556 S
C189 C187 1.392 . S
C190 Eu161 2.828 1_556 S
C190 O174 1.249 1_556 S
C190 O175 1.244 . S
C190 C184 1.505 . S
C191 O178 1.258 . S
C191 O179 1.242 1_556 S
H192 C164 0.930 . S
H193 C165 0.930 . S
H194 C166 0.930 . S
H195 C167 0.931 . S
H196 C185 0.930 . S
H197 C186 0.930 . S
H198 C187 0.930 . S
H199 C188 0.931 . S
Eu200 C209 2.828 1_556 S
Eu200 O211 2.392 . S
Eu200 O213 2.418 . S
Eu200 O218 2.373 . S
Eu200 O221 2.488 . S
Eu200 O222 2.471 1_556 S
Eu200 O223 2.349 1_556 S
Eu201 O210 2.373 . S
Eu201 O214 2.488 . S
Eu201 O215 2.471 1_554 S
Eu201 O216 2.349 1_554 S
Eu201 O219 2.392 . S
Eu201 O220 2.418 . S
Eu201 C230 2.828 1_554 S
C202 O220 1.244 . S
C202 O223 1.265 . S
C203 C204 1.379 . S
C203 C207 1.373 1_554 S
C203 C209 1.505 . S
C204 C203 1.379 . S
C204 C206 1.369 . S
C204 H232 0.930 . S
C205 C207 1.383 . S
C205 C208 1.382 1_556 S
C205 H233 0.930 . S
C206 C204 1.369 . S
C206 C208 1.392 . S
C206 H234 0.930 . S
C207 C203 1.373 1_556 S
C207 C205 1.383 . S
C207 H235 0.931 . S
C208 C205 1.382 1_554 S
C208 C206 1.392 . S
C209 Eu200 2.828 1_554 S
C209 C203 1.505 . S
C209 O221 1.249 1_554 S
C209 O222 1.244 . S
O210 Eu201 2.373 . S
O210 C212 1.258 . S
O211 Eu200 2.392 . S
O211 C212 1.242 1_556 S
C212 O210 1.258 . S
C212 O211 1.242 1_554 S
O213 Eu200 2.418 . S
O213 C217 1.244 . S
O214 Eu201 2.488 . S
O214 C230 1.249 1_554 S
O215 Eu201 2.471 1_556 S
O215 C230 1.244 . S
O216 Eu201 2.349 1_556 S
O216 C217 1.265 . S
C217 O213 1.244 . S
C217 O216 1.265 . S
O218 Eu200 2.373 . S
O218 C231 1.258 . S
O219 Eu201 2.392 . S
O219 C231 1.242 1_554 S
O220 Eu201 2.418 . S
O220 C202 1.244 . S
O221 Eu200 2.488 . S
O221 C209 1.249 1_556 S
O222 Eu200 2.471 1_554 S
O222 C209 1.244 . S
O223 Eu200 2.349 1_554 S
O223 C202 1.265 . S
C224 C225 1.379 . S
C224 C228 1.373 1_556 S
C224 C230 1.505 . S
C225 C224 1.379 . S
C225 C227 1.369 . S
C225 H236 0.930 . S
C226 C228 1.383 . S
C226 C229 1.382 1_554 S
C226 H237 0.930 . S
C227 C225 1.369 . S
C227 C229 1.392 . S
C227 H238 0.930 . S
C228 C224 1.373 1_554 S
C228 C226 1.383 . S
C228 H239 0.931 . S
C229 C226 1.382 1_556 S
C229 C227 1.392 . S
C230 Eu201 2.828 1_556 S
C230 O214 1.249 1_556 S
C230 O215 1.244 . S
C230 C224 1.505 . S
C231 O218 1.258 . S
C231 O219 1.242 1_556 S
H232 C204 0.930 . S
H233 C205 0.930 . S
H234 C206 0.930 . S
H235 C207 0.931 . S
H236 C225 0.930 . S
H237 C226 0.930 . S
H238 C227 0.930 . S
H239 C228 0.931 . S
C240 C241 1.386 . S
C240 C242 1.383 . S
C240 H256 0.951 . S
C241 C240 1.386 . S
C241 C245 1.383 1_556 S
C242 C240 1.383 . S
C242 C243 1.402 1_556 S
C242 H257 0.951 . S
C243 C242 1.402 1_554 S
C243 C244 1.375 . S
C243 C246 1.481 . S
C244 C243 1.375 . S
C244 C245 1.367 . S
C244 H258 0.951 . S
C245 C241 1.383 1_554 S
C245 C244 1.367 . S
C245 H259 0.950 . S
C246 C243 1.481 . S
C246 C247 1.297 1_554 S
C246 H260 0.950 . S
C247 C246 1.297 1_556 S
C247 C248 1.479 . S
C247 H261 0.950 . S
C248 C247 1.479 . S
C248 C249 1.375 . S
C248 C254 1.404 1_556 S
C249 C248 1.375 . S
C249 C250 1.369 . S
C249 H262 0.950 . S
C250 C249 1.369 . S
C250 C251 1.392 1_556 S
C250 H263 0.951 . S
C251 C250 1.392 1_554 S
C251 C253 1.384 . S
H252 C254 0.949 . S
C253 C251 1.384 . S
C253 C254 1.385 . S
C253 H255 0.950 . S
C254 C248 1.404 1_554 S
C254 H252 0.949 . S
C254 C253 1.385 . S
H255 C253 0.950 . S
H256 C240 0.951 . S
H257 C242 0.951 . S
H258 C244 0.951 . S
H259 C245 0.950 . S
H260 C246 0.950 . S
H261 C247 0.950 . S
H262 C249 0.950 . S
H263 C250 0.951 . S
C264 C265 1.381 1_554 S
C264 C266 1.383 . S
C264 H280 0.951 . S
C265 C264 1.381 1_556 S
C265 C269 1.387 . S
C266 C264 1.383 . S
C266 C267 1.402 . S
C266 H281 0.951 . S
C267 C266 1.402 . S
C267 C268 1.375 1_554 S
C267 C270 1.481 . S
C268 C267 1.375 1_556 S
C268 C269 1.367 . S
C268 H282 0.951 . S
C269 C265 1.387 . S
C269 C268 1.367 . S
C269 H283 0.950 . S
C270 C267 1.481 . S
C270 C271 1.297 . S
C270 H284 0.950 1_554 S
C271 C270 1.297 . S
C271 C272 1.479 . S
C271 H285 0.950 . S
C272 C271 1.479 . S
C272 C273 1.375 . S
C272 C278 1.404 1_455 S
C273 C272 1.375 . S
C273 C274 1.369 1_455 S
C273 H286 0.950 . S
C274 C273 1.369 1_655 S
C274 C275 1.392 . S
C274 H287 0.951 . S
C275 C274 1.392 . S
C275 C277 1.384 . S
H276 C278 0.949 1_556 S
C277 C275 1.384 . S
C277 C278 1.385 . S
C277 H279 0.950 1_554 S
C278 C272 1.404 1_655 S
C278 H276 0.949 1_554 S
C278 C277 1.385 . S
H279 C277 0.950 1_556 S
H280 C264 0.951 . S
H281 C266 0.951 . S
H282 C268 0.951 . S
H283 C269 0.950 . S
H284 C270 0.950 1_556 S
H285 C271 0.950 . S
H286 C273 0.950 . S
H287 C274 0.951 . S
C288 C289 1.386 1_554 S
C288 C290 1.383 . S
C288 H304 0.951 . S
C289 C288 1.386 1_556 S
C289 C293 1.383 . S
C290 C288 1.383 . S
C290 C291 1.402 1_554 S
C290 H305 0.951 . S
C291 C290 1.402 1_556 S
C291 C292 1.375 . S
C291 C294 1.481 . S
C292 C291 1.375 . S
C292 C293 1.367 . S
C292 H306 0.951 . S
C293 C289 1.383 . S
C293 C292 1.367 . S
C293 H307 0.950 . S
C294 C291 1.481 . S
C294 C295 1.297 . S
C294 H308 0.950 . S
C295 C294 1.297 . S
C295 C296 1.479 1_556 S
C295 H309 0.950 1_556 S
C296 C295 1.479 1_554 S
C296 C297 1.375 1_545 S
C296 C302 1.404 1_554 S
C297 C296 1.375 1_565 S
C297 C298 1.369 . S
C297 H310 0.950 . S
C298 C297 1.369 . S
C298 C299 1.392 . S
C298 H311 0.951 . S
C299 C298 1.392 . S
C299 C301 1.384 1_554 S
H300 C302 0.949 . S
C301 C299 1.384 1_556 S
C301 C302 1.385 1_565 S
C301 H303 0.950 . S
C302 C296 1.404 1_556 S
C302 H300 0.949 . S
C302 C301 1.385 1_545 S
H303 C301 0.950 . S
H304 C288 0.951 . S
H305 C290 0.951 . S
H306 C292 0.951 . S
H307 C293 0.950 . S
H308 C294 0.950 . S
H309 C295 0.950 1_554 S
H310 C297 0.950 . S
H311 C298 0.951 . S
C312 C313 1.386 1_556 S
C312 C314 1.383 . S
C312 H328 0.951 . S
C313 C312 1.386 1_554 S
C313 C317 1.383 . S
C314 C312 1.383 . S
C314 C315 1.402 1_556 S
C314 H329 0.951 . S
C315 C314 1.402 1_554 S
C315 C316 1.375 . S
C315 C318 1.481 . S
C316 C315 1.375 . S
C316 C317 1.367 . S
C316 H330 0.951 . S
C317 C313 1.383 . S
C317 C316 1.367 . S
C317 H331 0.950 . S
C318 C315 1.481 . S
C318 C319 1.297 . S
C318 H332 0.950 . S
C319 C318 1.297 . S
C319 C320 1.479 . S
C319 H333 0.950 1_554 S
C320 C319 1.479 . S
C320 C321 1.375 1_554 S
C320 C326 1.404 . S
C321 C320 1.375 1_556 S
C321 C322 1.369 . S
C321 H334 0.950 . S
C322 C321 1.369 . S
C322 C323 1.392 1_556 S
C322 H335 0.951 . S
C323 C322 1.392 1_554 S
C323 C325 1.384 . S
H324 C326 0.949 . S
C325 C323 1.384 . S
C325 C326 1.385 . S
C325 H327 0.950 . S
C326 C320 1.404 . S
C326 H324 0.949 . S
C326 C325 1.385 . S
H327 C325 0.950 . S
H328 C312 0.951 . S
H329 C314 0.951 . S
H330 C316 0.951 . S
H331 C317 0.950 . S
H332 C318 0.950 . S
H333 C319 0.950 1_556 S
H334 C321 0.950 . S
H335 C322 0.951 . S
C336 C337 1.386 . S
C336 C338 1.380 1_455 S
C336 H352 0.951 . S
C337 C336 1.386 . S
C337 C341 1.383 1_554 S
C338 C336 1.380 1_655 S
C338 C339 1.405 . S
C338 H353 0.951 . S
C339 C338 1.405 . S
C339 C340 1.375 1_554 S
C339 C342 1.481 . S
C340 C339 1.375 1_556 S
C340 C341 1.367 1_655 S
C340 H354 0.951 . S
C341 C337 1.383 1_556 S
C341 C340 1.367 1_455 S
C341 H355 0.950 . S
C342 C339 1.481 . S
C342 C343 1.297 . S
C342 H356 0.950 1_554 S
C343 C342 1.297 . S
C343 C344 1.479 . S
C343 H357 0.950 . S
C344 C343 1.479 . S
C344 C345 1.375 . S
C344 C350 1.404 1_554 S
C345 C344 1.375 . S
C345 C346 1.369 . S
C345 H358 0.950 . S
C346 C345 1.369 . S
C346 C347 1.392 . S
C346 H359 0.951 . S
C347 C346 1.392 . S
C347 C349 1.384 1_554 S
H348 C350 0.949 . S
C349 C347 1.384 1_556 S
C349 C350 1.385 . S
C349 H351 0.950 . S
C350 C344 1.404 1_556 S
C350 H348 0.949 . S
C350 C349 1.385 . S
H351 C349 0.950 . S
H352 C336 0.951 . S
H353 C338 0.951 . S
H354 C340 0.951 . S
H355 C341 0.950 . S
H356 C342 0.950 1_556 S
H357 C343 0.950 . S
H358 C345 0.950 . S
H359 C346 0.951 . S
C360 C361 1.386 1_554 S
C360 C362 1.383 . S
C360 H376 0.951 . S
C361 C360 1.386 1_556 S
C361 C365 1.383 . S
C362 C360 1.383 . S
C362 C363 1.402 1_554 S
C362 H377 0.951 . S
C363 C362 1.402 1_556 S
C363 C364 1.375 . S
C363 C366 1.481 . S
C364 C363 1.375 . S
C364 C365 1.367 . S
C364 H378 0.951 . S
C365 C361 1.383 . S
C365 C364 1.367 . S
C365 H379 0.950 . S
C366 C363 1.481 . S
C366 C367 1.297 1_556 S
C366 H380 0.950 . S
C367 C366 1.297 1_554 S
C367 C368 1.479 . S
C367 H381 0.950 . S
C368 C367 1.479 . S
C368 C369 1.375 1_565 S
C368 C374 1.404 1_564 S
C369 C368 1.375 1_545 S
C369 C370 1.369 . S
C369 H382 0.950 1_545 S
C370 C369 1.369 . S
C370 C371 1.392 . S
C370 H383 0.951 . S
C371 C370 1.392 . S
C371 C373 1.384 1_554 S
H372 C374 0.949 1_565 S
C373 C371 1.384 1_556 S
C373 C374 1.385 . S
C373 H375 0.950 . S
C374 C368 1.404 1_546 S
C374 H372 0.949 1_545 S
C374 C373 1.385 . S
H375 C373 0.950 . S
H376 C360 0.951 . S
H377 C362 0.951 . S
H378 C364 0.951 . S
H379 C365 0.950 . S
H380 C366 0.950 . S
H381 C367 0.950 . S
H382 C369 0.950 1_565 S
H383 C370 0.951 . S
C384 C385 1.386 1_556 S
C384 C386 1.383 . S
C384 H400 0.951 . S
C385 C384 1.386 1_554 S
C385 C389 1.383 . S
C386 C384 1.383 . S
C386 C387 1.402 1_556 S
C386 H401 0.951 . S
C387 C386 1.402 1_554 S
C387 C388 1.375 . S
C387 C390 1.481 . S
C388 C387 1.375 . S
C388 C389 1.367 . S
C388 H402 0.951 . S
C389 C385 1.383 . S
C389 C388 1.367 . S
C389 H403 0.950 . S
C390 C387 1.481 . S
C390 C391 1.297 1_554 S
C390 H404 0.950 . S
C391 C390 1.297 1_556 S
C391 C392 1.479 . S
C391 H405 0.950 . S
C392 C391 1.479 . S
C392 C393 1.375 . S
C392 C398 1.404 1_556 S
C393 C392 1.375 . S
C393 C394 1.369 . S
C393 H406 0.950 . S
C394 C393 1.369 . S
C394 C395 1.392 . S
C394 H407 0.951 . S
C395 C394 1.392 . S
C395 C397 1.384 1_556 S
H396 C398 0.949 . S
C397 C395 1.384 1_554 S
C397 C398 1.385 . S
C397 H399 0.950 . S
C398 C392 1.404 1_554 S
C398 H396 0.949 . S
C398 C397 1.385 . S
H399 C397 0.950 . S
H400 C384 0.951 . S
H401 C386 0.951 . S
H402 C388 0.951 . S
H403 C389 0.950 . S
H404 C390 0.950 . S
H405 C391 0.950 . S
H406 C393 0.950 . S
H407 C394 0.951 . S
C408 C409 1.386 1_556 S
C408 C410 1.383 . S
C408 H424 0.951 . S
C409 C408 1.386 1_554 S
C409 C413 1.383 . S
C410 C408 1.383 . S
C410 C411 1.402 1_556 S
C410 H425 0.951 . S
C411 C410 1.402 1_554 S
C411 C412 1.375 . S
C411 C414 1.481 . S
C412 C411 1.375 . S
C412 C413 1.367 . S
C412 H426 0.951 . S
C413 C409 1.383 . S
C413 C412 1.367 . S
C413 H427 0.950 . S
C414 C411 1.481 . S
C414 C415 1.297 . S
C414 H428 0.950 . S
C415 C414 1.297 . S
C415 C416 1.479 . S
C415 H429 0.950 . S
C416 C415 1.479 . S
C416 C417 1.375 1_554 S
C416 C422 1.404 . S
C417 C416 1.375 1_556 S
C417 C418 1.369 . S
C417 H430 0.950 . S
C418 C417 1.369 . S
C418 C419 1.392 . S
C418 H431 0.951 . S
C419 C418 1.392 . S
C419 C421 1.384 1_556 S
H420 C422 0.949 . S
C421 C419 1.384 1_554 S
C421 C422 1.385 . S
C421 H423 0.950 . S
C422 C416 1.404 . S
C422 H420 0.949 . S
C422 C421 1.385 . S
H423 C421 0.950 . S
H424 C408 0.951 . S
H425 C410 0.951 . S
H426 C412 0.951 . S
H427 C413 0.950 . S
H428 C414 0.950 . S
H429 C415 0.950 . S
H430 C417 0.950 . S
H431 C418 0.951 . S
C432 C433 1.386 . S
C432 C434 1.383 . S
C432 H448 0.951 . S
C433 C432 1.386 . S
C433 C437 1.383 1_556 S
C434 C432 1.383 . S
C434 C435 1.402 1_556 S
C434 H449 0.951 . S
C435 C434 1.402 1_554 S
C435 C436 1.375 . S
C435 C438 1.481 . S
C436 C435 1.375 . S
C436 C437 1.367 . S
C436 H450 0.951 . S
C437 C433 1.383 1_554 S
C437 C436 1.367 . S
C437 H451 0.950 . S
C438 C435 1.481 . S
C438 C439 1.297 1_554 S
C438 H452 0.950 . S
C439 C438 1.297 1_556 S
C439 C440 1.479 1_556 S
C439 H453 0.950 . S
C440 C439 1.479 1_554 S
C440 C441 1.375 1_554 S
C440 C446 1.404 . S
C441 C440 1.375 1_556 S
C441 C442 1.369 . S
C441 H454 0.950 . S
C442 C441 1.369 . S
C442 C443 1.392 1_556 S
C442 H455 0.951 . S
C443 C442 1.392 1_554 S
C443 C445 1.384 . S
H444 C446 0.949 . S
C445 C443 1.384 . S
C445 C446 1.385 . S
C445 H447 0.950 . S
C446 C440 1.404 . S
C446 H444 0.949 . S
C446 C445 1.385 . S
H447 C445 0.950 . S
H448 C432 0.951 . S
H449 C434 0.951 . S
H450 C436 0.951 . S
H451 C437 0.950 . S
H452 C438 0.950 . S
H453 C439 0.950 . S
H454 C441 0.950 . S
H455 C442 0.951 . S
C456 C457 1.386 . S
C456 C458 1.383 . S
C456 H472 0.951 . S
C457 C456 1.386 . S
C457 C461 1.383 1_556 S
C458 C456 1.383 . S
C458 C459 1.402 . S
C458 H473 0.951 . S
C459 C458 1.402 . S
C459 C460 1.375 1_556 S
C459 C462 1.481 . S
C460 C459 1.375 1_554 S
C460 C461 1.367 . S
C460 H474 0.951 . S
C461 C457 1.383 1_554 S
C461 C460 1.367 . S
C461 H475 0.950 . S
C462 C459 1.481 . S
C462 C463 1.297 . S
C462 H476 0.950 1_556 S
C463 C462 1.297 . S
C463 C464 1.479 . S
C463 H477 0.950 . S
C464 C463 1.479 . S
C464 C465 1.375 . S
C464 C470 1.404 1_556 S
C465 C464 1.375 . S
C465 C466 1.369 . S
C465 H478 0.950 . S
C466 C465 1.369 . S
C466 C467 1.392 . S
C466 H479 0.951 . S
C467 C466 1.392 . S
C467 C469 1.384 1_556 S
H468 C470 0.949 . S
C469 C467 1.384 1_554 S
C469 C470 1.385 . S
C469 H471 0.950 . S
C470 C464 1.404 1_554 S
C470 H468 0.949 . S
C470 C469 1.385 . S
H471 C469 0.950 . S
H472 C456 0.951 . S
H473 C458 0.951 . S
H474 C460 0.951 . S
H475 C461 0.950 . S
H476 C462 0.950 1_554 S
H477 C463 0.950 . S
H478 C465 0.950 . S
H479 C466 0.951 . S
C480 C481 1.386 . S
C480 C482 1.383 1_556 S
C480 H496 0.951 1_556 S
C481 C480 1.386 . S
C481 C485 1.383 . S
C482 C480 1.383 1_554 S
C482 C483 1.402 1_554 S
C482 H497 0.951 . S
C483 C482 1.402 1_556 S
C483 C484 1.375 . S
C483 C486 1.481 . S
C484 C483 1.375 . S
C484 C485 1.367 . S
C484 H498 0.951 . S
C485 C481 1.383 . S
C485 C484 1.367 . S
C485 H499 0.950 . S
C486 C483 1.481 . S
C486 C487 1.297 1_556 S
C486 H500 0.950 . S
C487 C486 1.297 1_554 S
C487 C488 1.479 . S
C487 H501 0.950 . S
C488 C487 1.479 . S
C488 C489 1.375 . S
C488 C494 1.401 1_554 S
C489 C488 1.375 . S
C489 C490 1.369 . S
C489 H502 0.950 . S
C490 C489 1.369 . S
C490 C491 1.392 . S
C490 H503 0.951 . S
C491 C490 1.392 . S
C491 C493 1.384 1_554 S
H492 C494 0.951 . S
C493 C491 1.384 1_556 S
C493 C494 1.386 . S
C493 H495 0.950 . S
C494 C488 1.401 1_556 S
C494 H492 0.951 . S
C494 C493 1.386 . S
H495 C493 0.950 . S
H496 C480 0.951 1_554 S
H497 C482 0.951 . S
H498 C484 0.951 . S
H499 C485 0.950 . S
H500 C486 0.950 . S
H501 C487 0.950 . S
H502 C489 0.950 . S
H503 C490 0.951 . S
C504 C505 1.386 1_554 S
C504 C506 1.383 . S
C504 H520 0.951 . S
C505 C504 1.386 1_556 S
C505 C509 1.383 . S
C506 C504 1.383 . S
C506 C507 1.402 1_554 S
C506 H521 0.951 . S
C507 C506 1.402 1_556 S
C507 C508 1.375 . S
C507 C510 1.481 . S
C508 C507 1.375 . S
C508 C509 1.367 . S
C508 H522 0.951 . S
C509 C505 1.383 . S
C509 C508 1.367 . S
C509 H523 0.950 . S
C510 C507 1.481 . S
C510 C511 1.297 . S
C510 H524 0.950 . S
C511 C510 1.297 . S
C511 C512 1.479 . S
C511 H525 0.950 1_556 S
C512 C511 1.479 . S
C512 C513 1.375 1_556 S
C512 C518 1.404 . S
C513 C512 1.375 1_554 S
C513 C514 1.369 . S
C513 H526 0.950 . S
C514 C513 1.369 . S
C514 C515 1.392 1_554 S
C514 H527 0.951 . S
C515 C514 1.392 1_556 S
C515 C517 1.384 . S
H516 C518 0.949 . S
C517 C515 1.384 . S
C517 C518 1.385 . S
C517 H519 0.950 . S
C518 C512 1.404 . S
C518 H516 0.949 . S
C518 C517 1.385 . S
H519 C517 0.950 . S
H520 C504 0.951 . S
H521 C506 0.951 . S
H522 C508 0.951 . S
H523 C509 0.950 . S
H524 C510 0.950 . S
H525 C511 0.950 1_554 S
H526 C513 0.950 . S
H527 C514 0.951 . S
C528 C529 1.386 . S
C528 C530 1.383 . S
C528 H544 0.951 . S
C529 C528 1.386 . S
C529 C533 1.383 . S
C530 C528 1.383 . S
C530 C531 1.402 . S
C530 H545 0.951 . S
C531 C530 1.402 . S
C531 C532 1.375 . S
C531 C534 1.481 . S
C532 C531 1.375 . S
C532 C533 1.367 . S
C532 H546 0.951 . S
C533 C529 1.383 . S
C533 C532 1.367 . S
C533 H547 0.950 . S
C534 C531 1.481 . S
C534 C535 1.297 . S
C534 H548 0.950 . S
C535 C534 1.297 . S
C535 C536 1.479 . S
C535 H549 0.950 . S
C536 C535 1.479 . S
C536 C537 1.375 . S
C536 C542 1.404 . S
C537 C536 1.375 . S
C537 C538 1.369 . S
C537 H550 0.950 . S
C538 C537 1.369 . S
C538 C539 1.392 . S
C538 H551 0.951 . S
C539 C538 1.392 . S
C539 C541 1.384 . S
H540 C542 0.949 . S
C541 C539 1.384 . S
C541 C542 1.385 . S
C541 H543 0.950 . S
C542 C536 1.404 . S
C542 H540 0.949 . S
C542 C541 1.385 . S
H543 C541 0.950 . S
H544 C528 0.951 . S
H545 C530 0.951 . S
H546 C532 0.951 . S
H547 C533 0.950 . S
H548 C534 0.950 . S
H549 C535 0.950 . S
H550 C537 0.950 . S
H551 C538 0.951 . S
C552 C553 1.386 . S
C552 C554 1.383 . S
C552 H568 0.951 . S
C553 C552 1.386 . S
C553 C557 1.383 . S
C554 C552 1.383 . S
C554 C555 1.402 . S
C554 H569 0.951 . S
C555 C554 1.402 . S
C555 C556 1.375 . S
C555 C558 1.481 . S
C556 C555 1.375 . S
C556 C557 1.367 . S
C556 H570 0.951 . S
C557 C553 1.383 . S
C557 C556 1.367 . S
C557 H571 0.950 . S
C558 C555 1.481 . S
C558 C559 1.297 . S
C558 H572 0.950 . S
C559 C558 1.297 . S
C559 C560 1.479 . S
C559 H573 0.950 . S
C560 C559 1.479 . S
C560 C561 1.375 . S
C560 C566 1.404 . S
C561 C560 1.375 . S
C561 C562 1.369 . S
C561 H574 0.950 . S
C562 C561 1.369 . S
C562 C563 1.392 . S
C562 H575 0.951 . S
C563 C562 1.392 . S
C563 C565 1.384 . S
H564 C566 0.949 . S
C565 C563 1.384 . S
C565 C566 1.385 . S
C565 H567 0.950 . S
C566 C560 1.404 . S
C566 H564 0.949 . S
C566 C565 1.385 . S
H567 C565 0.950 . S
H568 C552 0.951 . S
H569 C554 0.951 . S
H570 C556 0.951 . S
H571 C557 0.950 . S
H572 C558 0.950 . S
H573 C559 0.950 . S
H574 C561 0.950 . S
H575 C562 0.951 . S
C576 C577 1.386 . S
C576 C578 1.383 . S
C576 H592 0.951 . S
C577 C576 1.386 . S
C577 C581 1.383 . S
C578 C576 1.383 . S
C578 C579 1.402 . S
C578 H593 0.951 . S
C579 C578 1.402 . S
C579 C580 1.375 . S
C579 C582 1.481 . S
C580 C579 1.375 . S
C580 C581 1.367 . S
C580 H594 0.951 . S
C581 C577 1.383 . S
C581 C580 1.367 . S
C581 H595 0.950 . S
C582 C579 1.481 . S
C582 C583 1.297 . S
C582 H596 0.950 . S
C583 C582 1.297 . S
C583 C584 1.479 . S
C583 H597 0.950 . S
C584 C583 1.479 . S
C584 C585 1.375 . S
C584 C590 1.404 . S
C585 C584 1.375 . S
C585 C586 1.369 . S
C585 H598 0.950 . S
C586 C585 1.369 . S
C586 C587 1.392 . S
C586 H599 0.951 . S
C587 C586 1.392 . S
C587 C589 1.384 . S
H588 C590 0.949 . S
C589 C587 1.384 . S
C589 C590 1.385 . S
C589 H591 0.950 . S
C590 C584 1.404 . S
C590 H588 0.949 . S
C590 C589 1.385 . S
H591 C589 0.950 . S
H592 C576 0.951 . S
H593 C578 0.951 . S
H594 C580 0.951 . S
H595 C581 0.950 . S
H596 C582 0.950 . S
H597 C583 0.950 . S
H598 C585 0.950 . S
H599 C586 0.951 . S
C600 C601 1.386 . S
C600 C602 1.383 . S
C600 H616 0.951 . S
C601 C600 1.386 . S
C601 C605 1.383 . S
C602 C600 1.383 . S
C602 C603 1.402 . S
C602 H617 0.951 . S
C603 C602 1.402 . S
C603 C604 1.375 . S
C603 C606 1.481 . S
C604 C603 1.375 . S
C604 C605 1.367 . S
C604 H618 0.951 . S
C605 C601 1.383 . S
C605 C604 1.367 . S
C605 H619 0.950 . S
C606 C603 1.481 . S
C606 C607 1.297 . S
C606 H620 0.950 . S
C607 C606 1.297 . S
C607 C608 1.479 . S
C607 H621 0.950 . S
C608 C607 1.479 . S
C608 C609 1.375 . S
C608 C614 1.404 . S
C609 C608 1.375 . S
C609 C610 1.369 . S
C609 H622 0.950 . S
C610 C609 1.369 . S
C610 C611 1.392 . S
C610 H623 0.951 . S
C611 C610 1.392 . S
C611 C613 1.384 . S
H612 C614 0.949 . S
C613 C611 1.384 . S
C613 C614 1.385 . S
C613 H615 0.950 . S
C614 C608 1.404 . S
C614 H612 0.949 . S
C614 C613 1.385 . S
H615 C613 0.950 . S
H616 C600 0.951 . S
H617 C602 0.951 . S
H618 C604 0.951 . S
H619 C605 0.950 . S
H620 C606 0.950 . S
H621 C607 0.950 . S
H622 C609 0.950 . S
H623 C610 0.951 . S
C624 C625 1.386 . S
C624 C626 1.383 . S
C624 H640 0.951 . S
C625 C624 1.386 . S
C625 C629 1.383 . S
C626 C624 1.383 . S
C626 C627 1.402 . S
C626 H641 0.951 . S
C627 C626 1.402 . S
C627 C628 1.375 . S
C627 C630 1.481 . S
C628 C627 1.375 . S
C628 C629 1.367 . S
C628 H642 0.951 . S
C629 C625 1.383 . S
C629 C628 1.367 . S
C629 H643 0.950 . S
C630 C627 1.481 . S
C630 C631 1.297 . S
C630 H644 0.950 . S
C631 C630 1.297 . S
C631 C632 1.479 . S
C631 H645 0.950 . S
C632 C631 1.479 . S
C632 C633 1.375 . S
C632 C638 1.404 . S
C633 C632 1.375 . S
C633 C634 1.369 . S
C633 H646 0.950 . S
C634 C633 1.369 . S
C634 C635 1.392 . S
C634 H647 0.951 . S
C635 C634 1.392 . S
C635 C637 1.384 . S
H636 C638 0.949 . S
C637 C635 1.384 . S
C637 C638 1.385 . S
C637 H639 0.950 . S
C638 C632 1.404 . S
C638 H636 0.949 . S
C638 C637 1.385 . S
H639 C637 0.950 . S
H640 C624 0.951 . S
H641 C626 0.951 . S
H642 C628 0.951 . S
H643 C629 0.950 . S
H644 C630 0.950 . S
H645 C631 0.950 . S
H646 C633 0.950 . S
H647 C634 0.951 . S
C648 C649 1.386 . S
C648 C650 1.383 . S
C648 H664 0.951 . S
C649 C648 1.386 . S
C649 C653 1.383 . S
C650 C648 1.383 . S
C650 C651 1.402 . S
C650 H665 0.951 . S
C651 C650 1.402 . S
C651 C652 1.375 . S
C651 C654 1.481 . S
C652 C651 1.375 . S
C652 C653 1.367 . S
C652 H666 0.951 . S
C653 C649 1.383 . S
C653 C652 1.367 . S
C653 H667 0.950 . S
C654 C651 1.481 . S
C654 C655 1.297 . S
C654 H668 0.950 . S
C655 C654 1.297 . S
C655 C656 1.479 . S
C655 H669 0.950 . S
C656 C655 1.479 . S
C656 C657 1.375 . S
C656 C662 1.404 . S
C657 C656 1.375 . S
C657 C658 1.369 . S
C657 H670 0.950 . S
C658 C657 1.369 . S
C658 C659 1.392 . S
C658 H671 0.951 . S
C659 C658 1.392 . S
C659 C661 1.384 . S
H660 C662 0.949 . S
C661 C659 1.384 . S
C661 C662 1.385 . S
C661 H663 0.950 . S
C662 C656 1.404 . S
C662 H660 0.949 . S
C662 C661 1.385 . S
H663 C661 0.950 . S
H664 C648 0.951 . S
H665 C650 0.951 . S
H666 C652 0.951 . S
H667 C653 0.950 . S
H668 C654 0.950 . S
H669 C655 0.950 . S
H670 C657 0.950 . S
H671 C658 0.951 . S
C241 C231 1.753 . S
C251 C8 1.533 . S
C265 C31 1.722 . S
C275 C48 1.491 . S
C289 C71 1.746 . S
C299 C88 1.464 . S
C313 C128 1.533 . S
C323 C111 1.702 1_554 S
C337 C168 1.574 . S
C347 C151 1.738 1_554 S
C361 C191 1.729 . S
C371 C208 1.448 . S
C385 C172 1.974 . S
C395 C29 1.954 . S
C409 C212 1.971 . S
C419 C69 1.932 . S
C433 C109 1.940 . S
C443 C12 1.960 . S
C457 C149 1.936 . S
C467 C52 1.953 1_556 S
C481 C189 1.956 . S
C491 C92 1.967 . S
C505 C132 1.966 1_556 S
C515 C229 1.933 . S
C529 C17 1.465 . S
C539 C2 1.398 . S
C553 C57 1.430 . S
C563 C42 1.448 . S
C577 C97 1.428 . S
C587 C82 1.490 . S
C601 C137 1.430 . S
C611 C122 1.493 . S
C625 C162 1.453 . S
C635 C177 1.491 . S
C649 C217 1.427 . S
C659 C202 1.489 . S
