# Generated by pormake.
# Topology uox, (4)-cn, num edge types: 1
# Building blocks:
#     Node 0, Type 0, BuildingBlock: QUQFOY_clean_sbu_3, # of connection points: 4
#     Node 1, Type 0, BuildingBlock: QUQFOY_clean_sbu_3, # of connection points: 4
#     Node 2, Type 0, BuildingBlock: QUQFOY_clean_sbu_3, # of connection points: 4
#     Node 3, Type 0, BuildingBlock: QUQFOY_clean_sbu_3, # of connection points: 4
#     Node 4, Type 0, BuildingBlock: QUQFOY_clean_sbu_3, # of connection points: 4
#     Node 5, Type 0, BuildingBlock: QUQFOY_clean_sbu_3, # of connection points: 4
#     Node 6, Type 0, BuildingBlock: QUQFOY_clean_sbu_3, # of connection points: 4
#     Node 7, Type 0, BuildingBlock: QUQFOY_clean_sbu_3, # of connection points: 4
#     Node 8, Type 0, BuildingBlock: QUQFOY_clean_sbu_3, # of connection points: 4
#     Node 9, Type 0, BuildingBlock: QUQFOY_clean_sbu_3, # of connection points: 4
#     Node 10, Type 0, BuildingBlock: QUQFOY_clean_sbu_3, # of connection points: 4
#     Node 11, Type 0, BuildingBlock: QUQFOY_clean_sbu_3, # of connection points: 4
#     Node 12, Type 0, BuildingBlock: QUQFOY_clean_sbu_3, # of connection points: 4
#     Node 13, Type 0, BuildingBlock: QUQFOY_clean_sbu_3, # of connection points: 4
#     Node 14, Type 0, BuildingBlock: QUQFOY_clean_sbu_3, # of connection points: 4
#     Node 15, Type 0, BuildingBlock: QUQFOY_clean_sbu_3, # of connection points: 4
#     Node 16, Type 0, BuildingBlock: QUQFOY_clean_sbu_3, # of connection points: 4
#     Node 17, Type 0, BuildingBlock: QUQFOY_clean_sbu_3, # of connection points: 4
#     Node 18, Type 0, BuildingBlock: QUQFOY_clean_sbu_3, # of connection points: 4
#     Node 19, Type 0, BuildingBlock: QUQFOY_clean_sbu_3, # of connection points: 4
#     Node 20, Type 0, BuildingBlock: QUQFOY_clean_sbu_3, # of connection points: 4
#     Node 21, Type 0, BuildingBlock: QUQFOY_clean_sbu_3, # of connection points: 4
#     Node 22, Type 0, BuildingBlock: QUQFOY_clean_sbu_3, # of connection points: 4
#     Node 23, Type 0, BuildingBlock: QUQFOY_clean_sbu_3, # of connection points: 4
#     Node 24, Type 0, BuildingBlock: QUQFOY_clean_sbu_3, # of connection points: 4
#     Node 25, Type 0, BuildingBlock: QUQFOY_clean_sbu_3, # of connection points: 4
#     Node 26, Type 0, BuildingBlock: QUQFOY_clean_sbu_3, # of connection points: 4
#     Node 27, Type 0, BuildingBlock: QUQFOY_clean_sbu_3, # of connection points: 4
#     Node 28, Type 0, BuildingBlock: QUQFOY_clean_sbu_3, # of connection points: 4
#     Node 29, Type 0, BuildingBlock: QUQFOY_clean_sbu_3, # of connection points: 4
#     Node 30, Type 0, BuildingBlock: QUQFOY_clean_sbu_3, # of connection points: 4
#     Node 31, Type 0, BuildingBlock: QUQFOY_clean_sbu_3, # of connection points: 4
#     Edge 32, Type (0, 0), BuildingBlock: ZUJKAS_clean_linker_0, # of connection points: 2
#     Edge 33, Type (0, 0), BuildingBlock: ZUJKAS_clean_linker_0, # of connection points: 2
#     Edge 34, Type (0, 0), BuildingBlock: ZUJKAS_clean_linker_0, # of connection points: 2
#     Edge 35, Type (0, 0), BuildingBlock: ZUJKAS_clean_linker_0, # of connection points: 2
#     Edge 36, Type (0, 0), BuildingBlock: ZUJKAS_clean_linker_0, # of connection points: 2
#     Edge 37, Type (0, 0), BuildingBlock: ZUJKAS_clean_linker_0, # of connection points: 2
#     Edge 38, Type (0, 0), BuildingBlock: ZUJKAS_clean_linker_0, # of connection points: 2
#     Edge 39, Type (0, 0), BuildingBlock: ZUJKAS_clean_linker_0, # of connection points: 2
#     Edge 40, Type (0, 0), BuildingBlock: ZUJKAS_clean_linker_0, # of connection points: 2
#     Edge 41, Type (0, 0), BuildingBlock: ZUJKAS_clean_linker_0, # of connection points: 2
#     Edge 42, Type (0, 0), BuildingBlock: ZUJKAS_clean_linker_0, # of connection points: 2
#     Edge 43, Type (0, 0), BuildingBlock: ZUJKAS_clean_linker_0, # of connection points: 2
#     Edge 44, Type (0, 0), BuildingBlock: ZUJKAS_clean_linker_0, # of connection points: 2
#     Edge 45, Type (0, 0), BuildingBlock: ZUJKAS_clean_linker_0, # of connection points: 2
#     Edge 46, Type (0, 0), BuildingBlock: ZUJKAS_clean_linker_0, # of connection points: 2
#     Edge 47, Type (0, 0), BuildingBlock: ZUJKAS_clean_linker_0, # of connection points: 2
#     Edge 48, Type (0, 0), BuildingBlock: ZUJKAS_clean_linker_0, # of connection points: 2
#     Edge 49, Type (0, 0), BuildingBlock: ZUJKAS_clean_linker_0, # of connection points: 2
#     Edge 50, Type (0, 0), BuildingBlock: ZUJKAS_clean_linker_0, # of connection points: 2
#     Edge 51, Type (0, 0), BuildingBlock: ZUJKAS_clean_linker_0, # of connection points: 2
#     Edge 52, Type (0, 0), BuildingBlock: ZUJKAS_clean_linker_0, # of connection points: 2
#     Edge 53, Type (0, 0), BuildingBlock: ZUJKAS_clean_linker_0, # of connection points: 2
#     Edge 54, Type (0, 0), BuildingBlock: ZUJKAS_clean_linker_0, # of connection points: 2
#     Edge 55, Type (0, 0), BuildingBlock: ZUJKAS_clean_linker_0, # of connection points: 2
#     Edge 56, Type (0, 0), BuildingBlock: ZUJKAS_clean_linker_0, # of connection points: 2
#     Edge 57, Type (0, 0), BuildingBlock: ZUJKAS_clean_linker_0, # of connection points: 2
#     Edge 58, Type (0, 0), BuildingBlock: ZUJKAS_clean_linker_0, # of connection points: 2
#     Edge 59, Type (0, 0), BuildingBlock: ZUJKAS_clean_linker_0, # of connection points: 2
#     Edge 60, Type (0, 0), BuildingBlock: ZUJKAS_clean_linker_0, # of connection points: 2
#     Edge 61, Type (0, 0), BuildingBlock: ZUJKAS_clean_linker_0, # of connection points: 2
#     Edge 62, Type (0, 0), BuildingBlock: ZUJKAS_clean_linker_0, # of connection points: 2
#     Edge 63, Type (0, 0), BuildingBlock: ZUJKAS_clean_linker_0, # of connection points: 2
#     Edge 64, Type (0, 0), BuildingBlock: ZUJKAS_clean_linker_0, # of connection points: 2
#     Edge 65, Type (0, 0), BuildingBlock: ZUJKAS_clean_linker_0, # of connection points: 2
#     Edge 66, Type (0, 0), BuildingBlock: ZUJKAS_clean_linker_0, # of connection points: 2
#     Edge 67, Type (0, 0), BuildingBlock: ZUJKAS_clean_linker_0, # of connection points: 2
#     Edge 68, Type (0, 0), BuildingBlock: ZUJKAS_clean_linker_0, # of connection points: 2
#     Edge 69, Type (0, 0), BuildingBlock: ZUJKAS_clean_linker_0, # of connection points: 2
#     Edge 70, Type (0, 0), BuildingBlock: ZUJKAS_clean_linker_0, # of connection points: 2
#     Edge 71, Type (0, 0), BuildingBlock: ZUJKAS_clean_linker_0, # of connection points: 2
#     Edge 72, Type (0, 0), BuildingBlock: ZUJKAS_clean_linker_0, # of connection points: 2
#     Edge 73, Type (0, 0), BuildingBlock: ZUJKAS_clean_linker_0, # of connection points: 2
#     Edge 74, Type (0, 0), BuildingBlock: ZUJKAS_clean_linker_0, # of connection points: 2
#     Edge 75, Type (0, 0), BuildingBlock: ZUJKAS_clean_linker_0, # of connection points: 2
#     Edge 76, Type (0, 0), BuildingBlock: ZUJKAS_clean_linker_0, # of connection points: 2
#     Edge 77, Type (0, 0), BuildingBlock: ZUJKAS_clean_linker_0, # of connection points: 2
#     Edge 78, Type (0, 0), BuildingBlock: ZUJKAS_clean_linker_0, # of connection points: 2
#     Edge 79, Type (0, 0), BuildingBlock: ZUJKAS_clean_linker_0, # of connection points: 2
#     Edge 80, Type (0, 0), BuildingBlock: ZUJKAS_clean_linker_0, # of connection points: 2
#     Edge 81, Type (0, 0), BuildingBlock: ZUJKAS_clean_linker_0, # of connection points: 2
#     Edge 82, Type (0, 0), BuildingBlock: ZUJKAS_clean_linker_0, # of connection points: 2
#     Edge 83, Type (0, 0), BuildingBlock: ZUJKAS_clean_linker_0, # of connection points: 2
#     Edge 84, Type (0, 0), BuildingBlock: ZUJKAS_clean_linker_0, # of connection points: 2
#     Edge 85, Type (0, 0), BuildingBlock: ZUJKAS_clean_linker_0, # of connection points: 2
#     Edge 86, Type (0, 0), BuildingBlock: ZUJKAS_clean_linker_0, # of connection points: 2
#     Edge 87, Type (0, 0), BuildingBlock: ZUJKAS_clean_linker_0, # of connection points: 2
#     Edge 88, Type (0, 0), BuildingBlock: ZUJKAS_clean_linker_0, # of connection points: 2
#     Edge 89, Type (0, 0), BuildingBlock: ZUJKAS_clean_linker_0, # of connection points: 2
#     Edge 90, Type (0, 0), BuildingBlock: ZUJKAS_clean_linker_0, # of connection points: 2
#     Edge 91, Type (0, 0), BuildingBlock: ZUJKAS_clean_linker_0, # of connection points: 2
#     Edge 92, Type (0, 0), BuildingBlock: ZUJKAS_clean_linker_0, # of connection points: 2
#     Edge 93, Type (0, 0), BuildingBlock: ZUJKAS_clean_linker_0, # of connection points: 2
#     Edge 94, Type (0, 0), BuildingBlock: ZUJKAS_clean_linker_0, # of connection points: 2
#     Edge 95, Type (0, 0), BuildingBlock: ZUJKAS_clean_linker_0, # of connection points: 2
# Relax obj value: 0.059
# Max RMSD: 0.086
# Mean RMSD: 0.086
data_MOF--net-uox--node1-QUQFOY_clean_sbu_3--edge1-ZUJKAS_clean_linker_0
_symmetry_space_group_name_H-M    P1
_symmetry_Int_Tables_number       1
_symmetry_cell_setting            triclinic
loop_
_symmetry_equiv_pos_as_xyz
'x, y, z'
_cell_length_a     60.916467
_cell_length_b     60.98687
_cell_length_c     104.24031
_cell_angle_alpha  89.991344
_cell_angle_beta   89.986276
_cell_angle_gamma 90.016725
loop_
_atom_site_label
_atom_site_type_symbol
_atom_site_fract_x
_atom_site_fract_y
_atom_site_fract_z
_atom_type_partial_charge
C0 C 0.46687 0.0355 0.12943 0.0
O1 O 0.45644 0.0266 0.12026 0.0
Cd2 Cd 0.41873 0.01584 0.1216 0.0
O3 O 0.45813 0.03762 0.14047 0.0
Cd4 Cd 0.42368 0.02717 0.15168 0.0
C5 C 0.39545 0.06338 0.13341 0.0
O6 O 0.4158 -0.0066 0.14019 0.0
O7 O 0.38965 0.00587 0.15207 0.0
O8 O 0.44421 0.01202 0.16967 0.0
C9 C 0.39664 0.9909 0.14469 0.0
O10 O 0.398 0.04988 0.1242 0.0
C11 C 0.43493 0.02363 0.1782 0.0
O12 O 0.40388 0.05967 0.14439 0.0
O13 O 0.42089 0.03756 0.17434 0.0
C14 C 0.19766 0.21535 0.38002 0.0
O15 O 0.20687 0.20454 0.37111 0.0
Cd16 Cd 0.21603 0.1666 0.37288 0.0
O17 O 0.19448 0.20681 0.39104 0.0
Cd18 Cd 0.20329 0.17227 0.40269 0.0
C19 C 0.16654 0.14601 0.38403 0.0
O20 O 0.23743 0.16335 0.39186 0.0
O21 O 0.22273 0.13722 0.40282 0.0
O22 O 0.21722 0.19406 0.4205 0.0
C23 C 0.23872 0.14393 0.39611 0.0
O24 O 0.18076 0.14762 0.37511 0.0
C25 C 0.20679 0.18377 0.42916 0.0
O26 O 0.16997 0.15448 0.39503 0.0
O27 O 0.19399 0.16857 0.42546 0.0
C28 C 0.02091 0.94781 0.62787 0.0
O29 O 0.03366 0.95537 0.6193 0.0
Cd30 Cd 0.07034 0.96789 0.62313 0.0
O31 O 0.02716 0.9465 0.63952 0.0
Cd32 Cd 0.06046 0.95492 0.65229 0.0
C33 C 0.09118 0.91971 0.63483 0.0
O34 O 0.06896 0.98962 0.64208 0.0
O35 O 0.09468 0.97596 0.65378 0.0
O36 O 0.03694 0.96716 0.66983 0.0
C37 C 0.08772 -0.00811 0.64712 0.0
O38 O 0.09207 0.9347 0.62634 0.0
C39 C 0.04713 0.95674 0.67853 0.0
O40 O 0.07925 0.92186 0.6448 0.0
O41 O 0.06298 0.94468 0.67493 0.0
C42 C 0.28637 0.76559 0.87929 0.0
O43 O 0.27641 0.77554 0.87031 0.0
Cd44 Cd 0.2633 0.81246 0.87214 0.0
O45 O 0.28806 0.77411 0.89041 0.0
Cd46 Cd 0.27538 0.80707 0.9022 0.0
C47 C 0.31022 0.83713 0.88403 0.0
O48 O 0.24112 0.81389 0.8909 0.0
O49 O 0.25288 0.84008 0.90301 0.0
O50 O 0.26117 0.78506 0.91983 0.0
C51 C 0.23802 0.83276 0.89567 0.0
O52 O 0.29658 0.8344 0.8749 0.0
C53 C 0.27212 0.79469 0.92853 0.0
O54 O 0.30705 0.82826 0.89495 0.0
O55 O 0.28541 0.80953 0.92491 0.0
C56 C 0.46584 0.94995 0.36048 0.0
O57 O 0.4537 0.95668 0.36957 0.0
Cd58 Cd 0.4161 0.96696 0.36733 0.0
O59 O 0.45858 0.9491 0.34902 0.0
Cd60 Cd 0.42413 0.95783 0.33726 0.0
C61 C 0.39691 0.91885 0.35407 0.0
O62 O 0.41384 0.99044 0.34913 0.0
O63 O 0.38854 0.97636 0.33724 0.0
O64 O 0.44404 0.9755 0.31979 0.0
C65 C 0.39464 -0.00818 0.34454 0.0
O66 O 0.39738 0.93221 0.36346 0.0
C67 C 0.43574 0.96386 0.31094 0.0
O68 O 0.40637 0.92348 0.3435 0.0
O69 O 0.42265 0.94873 0.31438 0.0
C70 C 0.28846 0.2126 0.60969 0.0
O71 O 0.28118 0.20111 0.61892 0.0
Cd72 Cd 0.26801 0.16438 0.61706 0.0
O73 O 0.28855 0.20509 0.59827 0.0
Cd74 Cd 0.2773 0.17108 0.58682 0.0
C75 C 0.31425 0.14122 0.60367 0.0
O76 O 0.24407 0.16384 0.599 0.0
O77 O 0.25549 0.13747 0.58698 0.0
O78 O 0.26275 0.19333 0.56931 0.0
C79 C 0.2409 0.14482 0.59449 0.0
O80 O 0.30103 0.1428 0.6131 0.0
C81 C 0.27226 0.18269 0.56044 0.0
O82 O 0.31035 0.15098 0.5931 0.0
O83 O 0.28482 0.16714 0.56388 0.0
C84 C 0.01949 0.03768 0.85845 0.0
O85 O 0.03051 0.03021 0.86782 0.0
Cd86 Cd 0.06743 0.01719 0.86632 0.0
O87 O 0.02748 0.03773 0.84714 0.0
Cd88 Cd 0.06143 0.02563 0.83594 0.0
C89 C 0.09148 0.06274 0.85269 0.0
O90 O 0.06781 -0.00728 0.84853 0.0
O91 O 0.09402 0.00204 0.83579 0.0
O92 O 0.03839 0.01169 0.81861 0.0
C93 C 0.08649 0.98842 0.84384 0.0
O94 O 0.08925 0.05003 0.8623 0.0
C95 C 0.04927 0.02067 0.80965 0.0
O96 O 0.08223 0.05839 0.84202 0.0
O97 O 0.06538 0.03264 0.81295 0.0
C98 C 0.19442 0.77002 0.11091 0.0
O99 O 0.20088 0.78263 0.11984 0.0
Cd100 Cd 0.21423 0.81923 0.11704 0.0
O101 O 0.19499 0.77627 0.09923 0.0
Cd102 Cd 0.20589 0.80932 0.08685 0.0
C103 C 0.16852 0.84094 0.10254 0.0
O104 O 0.23841 0.81805 0.09916 0.0
O105 O 0.22832 0.84276 0.08564 0.0
O106 O 0.22212 0.78732 0.06974 0.0
C107 C 0.24216 0.83639 0.09391 0.0
O108 O 0.18154 0.84057 0.1121 0.0
C109 C 0.21077 0.79574 0.06079 0.0
O110 O 0.1727 0.82996 0.09243 0.0
O111 O 0.1965 0.80988 0.06405 0.0
C112 C 0.515 0.94548 0.8597 0.0
O113 O 0.52663 0.9519 0.86909 0.0
Cd114 Cd 0.56386 0.96419 0.86761 0.0
O115 O 0.52268 0.9457 0.84831 0.0
Cd116 Cd 0.5572 0.95612 0.83715 0.0
C117 C 0.58663 0.91824 0.85384 0.0
O118 O 0.56535 0.98864 0.84981 0.0
O119 O 0.59084 0.97786 0.83689 0.0
O120 O 0.53671 0.97283 0.81959 0.0
C121 C 0.58412 -0.00808 0.84493 0.0
O122 O 0.58488 0.93098 0.86346 0.0
C123 C 0.54577 0.96167 0.81078 0.0
O124 O 0.57728 0.92282 0.84323 0.0
O125 O 0.55957 0.94725 0.81428 0.0
C126 C 0.79181 0.76892 0.60864 0.0
O127 O 0.78436 0.78031 0.61786 0.0
Cd128 Cd 0.77128 0.81711 0.61588 0.0
O129 O 0.79188 0.77645 0.59722 0.0
Cd130 Cd 0.77994 0.81006 0.58564 0.0
C131 C 0.81689 0.84071 0.60208 0.0
O132 O 0.74683 0.81693 0.59805 0.0
O133 O 0.75649 0.84267 0.58508 0.0
O134 O 0.76627 0.7869 0.56826 0.0
C135 C 0.74269 0.83545 0.59313 0.0
O136 O 0.8041 0.83888 0.61169 0.0
C137 C 0.77553 0.79768 0.55935 0.0
O138 O 0.81263 0.83101 0.59154 0.0
O139 O 0.78751 0.81373 0.56272 0.0
C140 C 0.96318 0.03638 0.35726 0.0
O141 O 0.95172 0.02882 0.36642 0.0
Cd142 Cd 0.91449 0.01701 0.36446 0.0
O143 O 0.95545 0.0372 0.3459 0.0
Cd144 Cd 0.92129 0.02702 0.33429 0.0
C145 C 0.89302 0.06455 0.35153 0.0
O146 O 0.91257 -0.00618 0.34612 0.0
O147 O 0.88668 0.0069 0.33429 0.0
O148 O 0.94348 0.0117 0.31703 0.0
C149 C 0.89335 -0.00824 0.34163 0.0
O150 O 0.89436 0.05102 0.36082 0.0
C151 C 0.93351 0.02162 0.30804 0.0
O152 O 0.90236 0.0606 0.34083 0.0
O153 O 0.91831 0.03475 0.31131 0.0
C154 C 0.69731 0.21362 0.10968 0.0
O155 O 0.70516 0.20164 0.11852 0.0
Cd156 Cd 0.71848 0.16506 0.11555 0.0
O157 O 0.69652 0.20674 0.09814 0.0
Cd158 Cd 0.70707 0.17337 0.08602 0.0
C159 C 0.67162 0.1423 0.10304 0.0
O160 O 0.74139 0.16604 0.09708 0.0
O161 O 0.72882 0.13963 0.0855 0.0
O162 O 0.72009 0.1962 0.06833 0.0
C163 C 0.74426 0.14713 0.09236 0.0
O164 O 0.68602 0.14228 0.11189 0.0
C165 C 0.71036 0.18538 0.05962 0.0
O166 O 0.6741 0.15384 0.09295 0.0
O167 O 0.69828 0.16958 0.06326 0.0
C168 C 0.51836 0.03234 0.62786 0.0
O169 O 0.53051 0.02519 0.61888 0.0
Cd170 Cd 0.56751 0.01282 0.62131 0.0
O171 O 0.52531 0.03289 0.63941 0.0
Cd172 Cd 0.55908 0.02316 0.65154 0.0
C173 C 0.58927 0.05987 0.63433 0.0
O174 O 0.5676 0.98999 0.63982 0.0
O175 O 0.59274 0.00108 0.6528 0.0
O176 O 0.53773 0.00805 0.66929 0.0
C177 C 0.5862 0.98674 0.64487 0.0
O178 O 0.5882 0.04642 0.62501 0.0
C179 C 0.5465 0.01993 0.67788 0.0
O180 O 0.57934 0.05598 0.64486 0.0
O181 O 0.56056 0.03394 0.67414 0.0
C182 C 0.6966 0.76818 0.37881 0.0
O183 O 0.7041 0.77986 0.36972 0.0
Cd184 Cd 0.71598 0.81701 0.372 0.0
O185 O 0.69576 0.77567 0.39023 0.0
Cd186 Cd 0.70565 0.80955 0.40213 0.0
C187 C 0.66844 0.83843 0.38495 0.0
O188 O 0.73901 0.81849 0.39046 0.0
O189 O 0.72595 0.844 0.40257 0.0
O190 O 0.72044 0.78715 0.41947 0.0
C191 C 0.7411 0.83755 0.39515 0.0
O192 O 0.68202 0.83728 0.37567 0.0
C193 C 0.7102 0.79701 0.42838 0.0
O194 O 0.67227 0.82877 0.39556 0.0
O195 O 0.69719 0.81225 0.42502 0.0
C196 C 0.96251 0.94607 0.12697 0.0
O197 O 0.95126 0.95502 0.11815 0.0
Cd198 Cd 0.91463 0.96814 0.12086 0.0
O199 O 0.95492 0.94448 0.13835 0.0
Cd200 Cd 0.92152 0.95529 0.15056 0.0
C201 C 0.89091 0.92077 0.13252 0.0
O202 O 0.91506 0.98999 0.13981 0.0
O203 O 0.88844 0.97796 0.15146 0.0
O204 O 0.94489 0.96699 0.16828 0.0
C205 C 0.89619 -0.0068 0.14455 0.0
O206 O 0.89267 0.9349 0.12358 0.0
C207 C 0.93401 0.95714 0.17693 0.0
O208 O 0.90073 0.92347 0.1432 0.0
O209 O 0.91779 0.94567 0.17324 0.0
C210 C 0.78722 0.21309 0.87844 0.0
O211 O 0.7779 0.20253 0.86946 0.0
Cd212 Cd 0.76561 0.16538 0.87154 0.0
O213 O 0.78896 0.20491 0.88965 0.0
Cd214 Cd 0.77723 0.17157 0.90152 0.0
C215 C 0.81303 0.14218 0.88361 0.0
O216 O 0.74309 0.16458 0.89015 0.0
O217 O 0.7547 0.13842 0.90228 0.0
O218 O 0.7647 0.19471 0.91915 0.0
C219 C 0.73988 0.14574 0.89491 0.0
O220 O 0.79918 0.14385 0.8745 0.0
C221 C 0.77427 0.18374 0.92787 0.0
O222 O 0.80971 0.15166 0.89433 0.0
O223 O 0.78601 0.16767 0.92425 0.0
C224 C 0.96558 0.53481 0.62785 0.0
O225 O 0.95359 0.52748 0.61885 0.0
Cd226 Cd 0.91661 0.51476 0.62144 0.0
O227 O 0.9585 0.53535 0.63936 0.0
Cd228 Cd 0.92489 0.52542 0.65147 0.0
C229 C 0.89502 0.56206 0.6342 0.0
O230 O 0.91659 0.49176 0.63991 0.0
O231 O 0.89157 0.50331 0.65289 0.0
O232 O 0.94833 0.51236 0.66885 0.0
C233 C 0.89809 0.48866 0.64518 0.0
O234 O 0.89558 0.54821 0.62506 0.0
C235 C 0.93801 0.52231 0.67769 0.0
O236 O 0.90539 0.55855 0.64462 0.0
O237 O 0.92207 0.53441 0.67426 0.0
C238 C 0.69763 0.7149 0.87684 0.0
O239 O 0.70464 0.7029 0.86777 0.0
Cd240 Cd 0.71632 0.6657 0.86998 0.0
O241 O 0.69704 0.7077 0.88833 0.0
Cd242 Cd 0.70673 0.67351 0.9001 0.0
C243 C 0.66916 0.64429 0.88329 0.0
O244 O 0.73973 0.66406 0.88824 0.0
O245 O 0.72631 0.6386 0.90026 0.0
O246 O 0.72371 0.6935 0.91777 0.0
C247 C 0.74155 0.64493 0.89286 0.0
O248 O 0.68249 0.64536 0.87389 0.0
C249 C 0.71189 0.68502 0.92649 0.0
O250 O 0.67325 0.6541 0.89382 0.0
O251 O 0.69701 0.67179 0.92288 0.0
C252 C 0.51914 0.44227 0.12848 0.0
O253 O 0.53122 0.44917 0.1194 0.0
Cd254 Cd 0.56762 0.46338 0.12179 0.0
O255 O 0.52585 0.44287 0.14007 0.0
Cd256 Cd 0.5592 0.4546 0.15193 0.0
C257 C 0.59088 0.41805 0.13573 0.0
O258 O 0.56654 0.48767 0.13964 0.0
O259 O 0.59198 0.47788 0.15277 0.0
O260 O 0.53614 0.46813 0.16945 0.0
C261 C 0.585 0.49173 0.14469 0.0
O262 O 0.59006 0.43124 0.12627 0.0
C263 C 0.54697 0.45865 0.17826 0.0
O264 O 0.58001 0.4218 0.14594 0.0
O265 O 0.56286 0.44658 0.17474 0.0
C266 C 0.78503 0.26788 0.379 0.0
O267 O 0.778 0.28035 0.37016 0.0
Cd268 Cd 0.767 0.31756 0.37306 0.0
O269 O 0.78596 0.27459 0.39058 0.0
Cd270 Cd 0.777 0.30847 0.40287 0.0
C271 C 0.81498 0.33735 0.38616 0.0
O272 O 0.74384 0.31858 0.39145 0.0
O273 O 0.75778 0.34375 0.40344 0.0
O274 O 0.7602 0.2879 0.42041 0.0
C275 C 0.74223 0.33762 0.3962 0.0
O276 O 0.80135 0.33706 0.37689 0.0
C277 C 0.77225 0.29598 0.42915 0.0
O278 O 0.81089 0.3272 0.39658 0.0
O279 O 0.78711 0.30928 0.4256 0.0
C280 C 0.96318 0.44619 0.85923 0.0
O281 O 0.95037 0.45305 0.86797 0.0
Cd282 Cd 0.91357 0.46565 0.86446 0.0
O283 O 0.957 0.44583 0.84755 0.0
Cd284 Cd 0.92387 0.45516 0.83489 0.0
C285 C 0.89337 0.41828 0.85126 0.0
O286 O 0.91431 0.48876 0.84607 0.0
O287 O 0.88925 0.47537 0.83378 0.0
O288 O 0.94726 0.46934 0.81777 0.0
C289 C 0.89551 0.49083 0.84103 0.0
O290 O 0.89226 0.43255 0.86016 0.0
C291 C 0.93755 0.45914 0.8088 0.0
O292 O 0.90538 0.42131 0.84141 0.0
O293 O 0.92199 0.44641 0.81204 0.0
C294 C 0.78528 0.71485 0.10825 0.0
O295 O 0.77885 0.70329 0.11766 0.0
Cd296 Cd 0.76716 0.66593 0.11615 0.0
O297 O 0.78543 0.70701 0.09691 0.0
Cd298 Cd 0.77588 0.67227 0.08583 0.0
C299 C 0.81391 0.64383 0.10298 0.0
O300 O 0.74308 0.66384 0.09815 0.0
O301 O 0.75456 0.63826 0.08555 0.0
O302 O 0.75947 0.69247 0.06806 0.0
C303 C 0.74016 0.64495 0.0934 0.0
O304 O 0.80087 0.64546 0.11248 0.0
C305 C 0.77103 0.68354 0.05938 0.0
O306 O 0.80942 0.65293 0.09228 0.0
O307 O 0.78546 0.66986 0.06305 0.0
C308 C 0.51829 0.53416 0.35947 0.0
O309 O 0.5299 0.52668 0.36859 0.0
Cd310 Cd 0.56734 0.51562 0.36641 0.0
O311 O 0.52604 0.53538 0.34812 0.0
Cd312 Cd 0.56035 0.52637 0.33639 0.0
C313 C 0.58818 0.56376 0.35399 0.0
O314 O 0.56953 0.4929 0.34784 0.0
O315 O 0.59519 0.50652 0.33606 0.0
O316 O 0.53818 0.51192 0.31881 0.0
C317 C 0.58875 0.49116 0.34332 0.0
O318 O 0.58712 0.54995 0.36314 0.0
C319 C 0.54834 0.52215 0.31002 0.0
O320 O 0.57876 0.55999 0.34329 0.0
O321 O 0.56363 0.53499 0.31354 0.0
C322 C 0.69403 0.26683 0.6111 0.0
O323 O 0.70058 0.27876 0.62033 0.0
Cd324 Cd 0.71404 0.31545 0.61845 0.0
O325 O 0.69466 0.27389 0.59958 0.0
Cd326 Cd 0.70615 0.30776 0.58806 0.0
C327 C 0.66885 0.33881 0.60423 0.0
O328 O 0.73869 0.31549 0.60073 0.0
O329 O 0.72883 0.34099 0.58766 0.0
O330 O 0.7224 0.28665 0.57056 0.0
C331 C 0.74256 0.3341 0.59586 0.0
O332 O 0.68152 0.33726 0.61391 0.0
C333 C 0.71145 0.29589 0.56171 0.0
O334 O 0.67325 0.3288 0.59381 0.0
O335 O 0.69736 0.31006 0.56518 0.0
C336 C 0.02098 0.44158 0.35977 0.0
O337 O 0.03369 0.44882 0.36846 0.0
Cd338 Cd 0.06934 0.46448 0.36498 0.0
O339 O 0.02671 0.4421 0.34801 0.0
Cd340 Cd 0.05912 0.4538 0.33535 0.0
C341 C 0.09336 0.41952 0.35143 0.0
O342 O 0.06587 0.48787 0.34683 0.0
O343 O 0.09104 0.47809 0.33352 0.0
O344 O 0.0349 0.46555 0.31792 0.0
C345 C 0.08387 0.49229 0.34133 0.0
O346 O 0.09348 0.43361 0.36044 0.0
C347 C 0.04582 0.45613 0.30912 0.0
O348 O 0.08088 0.42177 0.34171 0.0
O349 O 0.06224 0.4448 0.31263 0.0
C350 C 0.28288 0.26507 0.10797 0.0
O351 O 0.27577 0.27671 0.11718 0.0
Cd352 Cd 0.26572 0.31445 0.11551 0.0
O353 O 0.28421 0.27295 0.09666 0.0
Cd354 Cd 0.27586 0.3079 0.08537 0.0
C355 C 0.31434 0.33419 0.10307 0.0
O356 O 0.24292 0.31803 0.09707 0.0
O357 O 0.25765 0.34358 0.08565 0.0
O358 O 0.2588 0.28868 0.06745 0.0
C359 C 0.24196 0.33745 0.09278 0.0
O360 O 0.30067 0.33325 0.1123 0.0
C361 C 0.27076 0.29729 0.05884 0.0
O362 O 0.31007 0.32527 0.09229 0.0
O363 O 0.28572 0.31031 0.06262 0.0
C364 C 0.46684 0.53302 0.85825 0.0
O365 O 0.45417 0.52603 0.86702 0.0
Cd366 Cd 0.41687 0.51471 0.86394 0.0
O367 O 0.46027 0.53417 0.84666 0.0
Cd368 Cd 0.42634 0.52621 0.83436 0.0
C369 C 0.39762 0.56324 0.85163 0.0
O370 O 0.41578 0.49252 0.84521 0.0
O371 O 0.39084 0.50763 0.83355 0.0
O372 O 0.44827 0.51178 0.81662 0.0
C373 C 0.39665 0.49159 0.84048 0.0
O374 O 0.39651 0.54861 0.86034 0.0
C375 C 0.43837 0.52259 0.80796 0.0
O376 O 0.40914 0.56035 0.84157 0.0
O377 O 0.42354 0.5358 0.81166 0.0
C378 C 0.19682 0.71535 0.60507 0.0
O379 O 0.2064 0.70505 0.61405 0.0
Cd380 Cd 0.2169 0.66741 0.61241 0.0
O381 O 0.19423 0.70661 0.59406 0.0
Cd382 Cd 0.20492 0.67257 0.5825 0.0
C383 C 0.16834 0.64537 0.6008 0.0
O384 O 0.239 0.66445 0.59366 0.0
O385 O 0.22511 0.63801 0.5826 0.0
O386 O 0.21878 0.69473 0.56481 0.0
C387 C 0.24076 0.64503 0.58947 0.0
O388 O 0.18222 0.64741 0.60987 0.0
C389 C 0.20867 0.68429 0.55608 0.0
O390 O 0.17191 0.65385 0.58982 0.0
O391 O 0.19616 0.66879 0.55969 0.0
C392 C 0.01839 0.5356 0.12787 0.0
O393 O 0.03058 0.52848 0.11891 0.0
Cd394 Cd 0.0678 0.51697 0.12155 0.0
O395 O 0.02535 0.53625 0.13941 0.0
Cd396 Cd 0.05912 0.52651 0.15157 0.0
C397 C 0.08809 0.56449 0.13502 0.0
O398 O 0.06886 0.49349 0.1398 0.0
O399 O 0.09394 0.50675 0.15213 0.0
O400 O 0.03657 0.51122 0.16878 0.0
C401 C 0.08785 0.49159 0.14463 0.0
O402 O 0.08762 0.55102 0.12568 0.0
C403 C 0.04637 0.5213 0.17777 0.0
O404 O 0.07794 0.56036 0.14544 0.0
O405 O 0.06155 0.53448 0.17451 0.0
C406 C 0.19824 0.26812 0.87624 0.0
O407 O 0.20456 0.28042 0.86713 0.0
Cd408 Cd 0.215 0.31797 0.86935 0.0
O409 O 0.1977 0.27525 0.88774 0.0
Cd410 Cd 0.20648 0.30974 0.89946 0.0
C411 C 0.1675 0.33775 0.88304 0.0
O412 O 0.23892 0.32014 0.88738 0.0
O413 O 0.22521 0.34522 0.89954 0.0
O414 O 0.22419 0.29013 0.91707 0.0
C415 C 0.24042 0.33929 0.89202 0.0
O416 O 0.18062 0.3372 0.87352 0.0
C417 C 0.21216 0.2982 0.92582 0.0
O418 O 0.17222 0.32802 0.8935 0.0
O419 O 0.19695 0.31108 0.92226 0.0
C420 C 0.46399 0.44756 0.62597 0.0
O421 O 0.4521 0.45495 0.61695 0.0
Cd422 Cd 0.415 0.46692 0.61934 0.0
O423 O 0.45674 0.4468 0.63744 0.0
Cd424 Cd 0.42276 0.45672 0.64938 0.0
C425 C 0.39376 0.41942 0.63228 0.0
O426 O 0.41413 0.49015 0.63772 0.0
O427 O 0.38842 0.47738 0.6498 0.0
O428 O 0.44525 0.47082 0.66697 0.0
C429 C 0.3951 0.49249 0.64243 0.0
O430 O 0.39463 0.43301 0.62301 0.0
C431 C 0.43481 0.46087 0.67576 0.0
O432 O 0.40363 0.42331 0.64282 0.0
O433 O 0.41929 0.44833 0.67223 0.0
C434 C 0.28859 0.71291 0.37524 0.0
O435 O 0.2814 0.70146 0.36597 0.0
Cd436 Cd 0.26704 0.66505 0.3679 0.0
O437 O 0.28803 0.70556 0.38669 0.0
Cd438 Cd 0.27584 0.67211 0.39827 0.0
C439 C 0.31234 0.64096 0.38165 0.0
O440 O 0.24268 0.66556 0.38579 0.0
O441 O 0.25212 0.63991 0.39891 0.0
O442 O 0.26232 0.69516 0.41572 0.0
C443 C 0.23837 0.64717 0.39085 0.0
O444 O 0.29941 0.64272 0.37211 0.0
C445 C 0.2717 0.68435 0.42458 0.0
O446 O 0.30834 0.65091 0.39215 0.0
O447 O 0.2837 0.66837 0.42112 0.0
H448 H 0.45815 -0.00132 0.30095 0.0
H449 H 0.46073 0.00949 0.27842 0.0
H450 H 0.42526 0.95124 0.26741 0.0
H451 H 0.4221 0.94058 0.28997 0.0
H452 H 0.47802 0.99052 0.25691 0.0
H453 H 0.38781 -0.00031 0.25216 0.0
H454 H 0.40111 -0.00396 0.26746 0.0
H455 H 0.39603 0.97281 0.25724 0.0
C456 C 0.45106 0.98805 0.29373 0.0
C457 C 0.4397 0.96889 0.29725 0.0
C458 C 0.45256 -0.00574 0.28086 0.0
C459 C 0.44276 0.98143 0.27127 0.0
C460 C 0.43244 0.96168 0.27469 0.0
H461 H 0.45959 -0.00876 0.18907 0.0
H462 H 0.46297 0.98247 0.21183 0.0
C463 C 0.43079 0.95553 0.28758 0.0
C464 C 0.44272 0.9891 0.25778 0.0
H465 H 0.40864 0.00233 0.23298 0.0
C466 C 0.46286 -0.00682 0.25168 0.0
C467 C 0.42292 -0.00698 0.25106 0.0
C468 C 0.40074 0.99039 0.25734 0.0
C469 C 0.46374 0.00061 0.23893 0.0
C470 C 0.44394 0.00358 0.23204 0.0
C471 C 0.42382 -9e-05 0.23824 0.0
C472 C 0.44357 0.01006 0.21832 0.0
C473 C 0.48584 0.00552 0.23305 0.0
C474 C 0.43134 0.02837 0.21436 0.0
C475 C 0.42912 0.03326 0.20132 0.0
C476 C 0.4391 0.01991 0.192 0.0
C477 C 0.45184 0.00195 0.19601 0.0
C478 C 0.45391 -0.00302 0.20904 0.0
H479 H 0.49835 0.00908 0.24052 0.0
H480 H 0.49149 -0.00901 0.22756 0.0
H481 H 0.48492 0.0197 0.22639 0.0
H482 H 0.42315 0.03864 0.22136 0.0
H483 H 0.41918 0.0472 0.19854 0.0
H484 H 0.28478 0.15844 0.53968 0.0
H485 H 0.27366 0.16352 0.51738 0.0
H486 H 0.23813 0.22202 0.52788 0.0
H487 H 0.24871 0.21668 0.55031 0.0
H488 H 0.21341 0.19549 0.51352 0.0
H489 H 0.2943 0.20538 0.49016 0.0
H490 H 0.29299 0.18068 0.49946 0.0
H491 H 0.29086 0.20689 0.50733 0.0
C492 C 0.27489 0.17258 0.53722 0.0
C493 C 0.26764 0.18717 0.54675 0.0
C494 C 0.26864 0.17554 0.52444 0.0
C495 C 0.25532 0.19334 0.52091 0.0
C496 C 0.24849 0.20822 0.53038 0.0
H497 H 0.22978 0.21774 0.43968 0.0
H498 H 0.2397 0.22277 0.46223 0.0
C499 C 0.25459 0.20517 0.54318 0.0
C500 C 0.24728 0.19549 0.50754 0.0
H501 H 0.26418 0.19605 0.47633 0.0
C502 C 0.22452 0.1959 0.50539 0.0
C503 C 0.26174 0.19637 0.49693 0.0
C504 C 0.28633 0.19755 0.49858 0.0
C505 C 0.21583 0.19633 0.49292 0.0
C506 C 0.2303 0.19578 0.48231 0.0
C507 C 0.25306 0.19622 0.48446 0.0
C508 C 0.22232 0.19399 0.4689 0.0
C509 C 0.19125 0.19746 0.49128 0.0
C510 C 0.20903 0.17628 0.46517 0.0
C511 C 0.20312 0.17351 0.45231 0.0
C512 C 0.21073 0.18818 0.44292 0.0
C513 C 0.22366 0.20615 0.4467 0.0
C514 C 0.22938 0.20903 0.45958 0.0
H515 H 0.18325 0.20508 0.49976 0.0
H516 H 0.18669 0.20697 0.48259 0.0
H517 H 0.18464 0.18059 0.49028 0.0
H518 H 0.20383 0.16414 0.47212 0.0
H519 H 0.19332 0.15938 0.44968 0.0
H520 H 0.07337 0.03248 0.78867 0.0
H521 H 0.06739 0.02151 0.76642 0.0
H522 H 0.00819 0.98756 0.77747 0.0
H523 H 0.01438 -0.002 0.79984 0.0
H524 H 0.03389 0.96217 0.76287 0.0
H525 H 0.02515 0.04317 0.73961 0.0
H526 H 0.05003 0.04139 0.74873 0.0
H527 H 0.02392 0.03974 0.75679 0.0
C528 C 0.05889 0.02297 0.78634 0.0
C529 C 0.04434 0.01613 0.79601 0.0
C530 C 0.05542 0.01681 0.7736 0.0
C531 C 0.03716 0.00398 0.77024 0.0
C532 C 0.02233 -0.00246 0.77983 0.0
H533 H 0.01264 0.97928 0.68887 0.0
H534 H 0.00696 0.98874 0.71143 0.0
C535 C 0.02588 0.00357 0.79261 0.0
C536 C 0.03447 -0.00399 0.75689 0.0
H537 H 0.03384 0.01294 0.7257 0.0
C538 C 0.03357 0.97329 0.75474 0.0
C539 C 0.03368 0.01048 0.7463 0.0
C540 C 0.03301 0.03505 0.74797 0.0
C541 C 0.03285 0.96464 0.74227 0.0
C542 C 0.03359 0.97909 0.73167 0.0
C543 C 0.03352 0.00183 0.73383 0.0
C544 C 0.03549 0.97112 0.71826 0.0
C545 C 0.03133 0.94011 0.74061 0.0
C546 C 0.05323 0.9578 0.71462 0.0
C547 C 0.05639 0.95219 0.70176 0.0
C548 C 0.04206 0.96009 0.69226 0.0
C549 C 0.02396 0.97293 0.69596 0.0
C550 C 0.02072 0.97839 0.70885 0.0
H551 H 0.02349 0.93225 0.74907 0.0
H552 H 0.02182 0.93571 0.7319 0.0
H553 H 0.04811 0.93323 0.73967 0.0
H554 H 0.06517 0.95245 0.72166 0.0
H555 H 0.07059 0.94243 0.69921 0.0
H556 H 0.24016 0.76881 0.93891 0.0
H557 H 0.23005 0.76569 0.96152 0.0
H558 H 0.28472 0.807 0.97189 0.0
H559 H 0.2946 0.81073 0.94923 0.0
H560 H 0.2504 0.75126 0.98325 0.0
H561 H 0.23298 0.84036 0.98659 0.0
H562 H 0.23798 0.82679 0.9715 0.0
H563 H 0.26058 0.83438 0.9817 0.0
C564 C 0.25019 0.77705 0.94601 0.0
C565 C 0.26802 0.79025 0.94227 0.0
C566 C 0.24438 0.77523 0.95893 0.0
C567 C 0.25632 0.78652 0.96835 0.0
C568 C 0.27494 0.79862 0.96473 0.0
H569 H 0.24521 0.77263 0.05091 0.0
H570 H 0.25519 0.7686 0.02834 0.0
C571 C 0.28065 0.80061 0.95179 0.0
C572 C 0.24863 0.78645 0.98185 0.0
H573 H 0.23175 0.82021 0.00601 0.0
C574 C 0.24627 0.76632 0.98824 0.0
C575 C 0.24279 0.80608 0.98823 0.0
C576 C 0.24348 0.82811 0.98163 0.0
C577 C 0.23859 0.76531 0.00094 0.0
C578 C 0.23361 0.78503 0.00748 0.0
C579 C 0.23569 0.80511 0.00101 0.0
C580 C 0.22647 0.78544 0.02109 0.0
C581 C 0.23549 0.74315 0.0071 0.0
C582 C 0.20708 0.79639 0.02457 0.0
C583 C 0.2015 0.79903 0.03748 0.0
C584 C 0.21521 0.79071 0.04716 0.0
C585 C 0.23421 0.77908 0.04366 0.0
C586 C 0.23989 0.77664 0.03075 0.0
H587 H 0.23332 0.73006 -0.0002 0.0
H588 H 0.2503 0.73907 0.01283 0.0
H589 H 0.22104 0.74305 0.0136 0.0
H590 H 0.1965 0.80337 0.01727 0.0
H591 H 0.18675 0.80806 0.03987 0.0
H592 H 0.56083 0.93905 0.7899 0.0
H593 H 0.55748 0.94947 0.76732 0.0
H594 H 0.51909 0.00596 0.77809 0.0
H595 H 0.52187 -0.00464 0.80065 0.0
H596 H 0.50304 0.9861 0.75652 0.0
H597 H 0.59275 -0.00038 0.75216 0.0
H598 H 0.5858 0.97239 0.75726 0.0
H599 H 0.57942 -0.00461 0.76741 0.0
C600 C 0.55147 0.95356 0.78745 0.0
C601 C 0.54178 0.96649 0.79707 0.0
C602 C 0.5497 0.95957 0.77455 0.0
C603 C 0.53848 0.97878 0.77106 0.0
C604 C 0.52795 -0.00884 0.78059 0.0
H605 H 0.56053 0.04457 0.69819 0.0
H606 H 0.55629 0.03627 0.72102 0.0
C607 C 0.52957 0.98507 0.79348 0.0
C608 C 0.53834 0.98637 0.75755 0.0
H609 H 0.57212 0.00095 0.73286 0.0
C610 C 0.51812 0.98943 0.75134 0.0
C611 C 0.55803 -0.00882 0.75091 0.0
C612 C 0.58022 0.98971 0.7573 0.0
C613 C 0.51708 -0.00333 0.73856 0.0
C614 C 0.53682 0.0005 0.73174 0.0
C615 C 0.557 -0.00213 0.73806 0.0
C616 C 0.53711 0.00683 0.718 0.0
C617 C 0.49487 0.00046 0.73256 0.0
C618 C 0.5275 -0.00679 0.70871 0.0
C619 C 0.52971 -0.00196 0.69567 0.0
C620 C 0.54189 0.01639 0.69166 0.0
C621 C 0.55105 0.03031 0.70098 0.0
C622 C 0.54867 0.02557 0.71402 0.0
H623 H 0.48211 0.00356 0.73996 0.0
H624 H 0.49522 0.01456 0.72582 0.0
H625 H 0.48995 0.9856 0.72713 0.0
H626 H 0.51897 0.97838 0.71151 0.0
H627 H 0.5226 0.9869 0.68872 0.0
H628 H 0.73438 0.76326 0.43825 0.0
H629 H 0.74463 0.75739 0.46068 0.0
H630 H 0.70714 0.81439 0.47165 0.0
H631 H 0.69633 0.81998 0.44934 0.0
H632 H 0.76838 0.78409 0.47525 0.0
H633 H 0.68789 0.77144 0.49857 0.0
H634 H 0.69131 0.77046 0.48138 0.0
H635 H 0.68834 0.79639 0.48948 0.0
C636 C 0.72798 0.7743 0.44548 0.0
C637 C 0.71451 0.79206 0.44203 0.0
C638 C 0.73389 0.77094 0.45829 0.0
C639 C 0.72644 0.78527 0.46788 0.0
C640 C 0.71263 0.80277 0.46448 0.0
H641 H 0.78746 0.82202 0.53852 0.0
H642 H 0.77675 0.81625 0.51622 0.0
C643 C 0.70657 0.80603 0.4517 0.0
C644 C 0.73452 0.78307 0.48124 0.0
H645 H 0.71767 0.78198 0.51245 0.0
C646 C 0.75728 0.78331 0.48338 0.0
C647 C 0.7201 0.78168 0.49185 0.0
C648 C 0.69557 0.77973 0.4902 0.0
C649 C 0.76598 0.78315 0.49584 0.0
C650 C 0.75151 0.78334 0.50646 0.0
C651 C 0.72878 0.78212 0.50432 0.0
C652 C 0.75946 0.78583 0.51983 0.0
C653 C 0.79059 0.7828 0.49748 0.0
C654 C 0.75307 0.77083 0.52934 0.0
C655 C 0.75891 0.77427 0.54216 0.0
C656 C 0.77126 0.79279 0.54568 0.0
C657 C 0.77812 0.80749 0.5361 0.0
C658 C 0.77211 0.80413 0.52332 0.0
H659 H 0.79879 0.77519 0.48906 0.0
H660 H 0.79671 0.79988 0.49831 0.0
H661 H 0.79546 0.77366 0.50624 0.0
H662 H 0.74322 0.75664 0.52688 0.0
H663 H 0.75335 0.76267 0.54932 0.0
H664 H 0.96693 -0.00327 0.29838 0.0
H665 H 0.97273 0.98593 0.27603 0.0
H666 H 0.91617 0.02384 0.26473 0.0
H667 H 0.91062 0.03516 0.28696 0.0
H668 H 0.94563 0.96234 0.26133 0.0
H669 H 0.96012 0.04253 0.23809 0.0
H670 H 0.96085 0.03906 0.25528 0.0
H671 H 0.93503 0.04242 0.24709 0.0
C672 C 0.95596 0.00308 0.29109 0.0
C673 C 0.93835 0.01686 0.29442 0.0
C674 C 0.95927 -0.00315 0.27834 0.0
C675 C 0.94506 0.00428 0.26868 0.0
C676 C 0.92768 0.01833 0.27196 0.0
H677 H 0.90918 0.94454 0.19745 0.0
H678 H 0.91465 0.95441 0.21991 0.0
C679 C 0.92445 0.0247 0.28469 0.0
C680 C 0.94739 -0.00387 0.25534 0.0
H681 H 0.94968 0.01291 0.22415 0.0
C682 C 0.94682 0.97339 0.25321 0.0
C683 C 0.94932 0.01049 0.24475 0.0
C684 C 0.95161 0.03497 0.24641 0.0
C685 C 0.94719 0.96468 0.24075 0.0
C686 C 0.9476 0.97913 0.23013 0.0
C687 C 0.94911 0.00182 0.23228 0.0
C688 C 0.94548 0.97126 0.21672 0.0
C689 C 0.94716 0.9401 0.23911 0.0
C690 C 0.96087 0.97759 0.2074 0.0
C691 C 0.95761 0.97223 0.1945 0.0
C692 C 0.93888 0.96043 0.19069 0.0
C693 C 0.92387 0.95347 0.20009 0.0
C694 C 0.92705 0.959 0.21296 0.0
H695 H 0.95434 0.93178 0.24762 0.0
H696 H 0.92999 0.9343 0.23808 0.0
H697 H 0.95652 0.93507 0.23045 0.0
H698 H 0.97517 0.98712 0.21007 0.0
H699 H 0.96946 0.97784 0.18748 0.0
H700 H 0.78628 0.15864 0.94837 0.0
H701 H 0.77537 0.16349 0.97075 0.0
H702 H 0.74272 0.22396 0.96092 0.0
H703 H 0.75302 0.21888 0.93842 0.0
H704 H 0.78238 0.19492 0.98861 0.0
H705 H 0.69347 0.18935 0.9773 0.0
H706 H 0.71449 0.18299 0.9657 0.0
H707 H 0.70753 0.21106 0.96907 0.0
C708 C 0.77696 0.17309 0.95098 0.0
C709 C 0.77029 0.18825 0.94161 0.0
C710 C 0.77072 0.17583 0.96378 0.0
C711 C 0.75779 0.19382 0.96745 0.0
C712 C 0.75218 0.20965 0.95824 0.0
H713 H 0.73292 0.21967 0.049 0.0
H714 H 0.74352 0.22419 0.0265 0.0
C715 C 0.75823 0.2068 0.94541 0.0
C716 C 0.74967 0.19548 0.98083 0.0
H717 H 0.70287 0.19641 -0.00112 0.0
C718 C 0.765 0.19536 0.99087 0.0
C719 C 0.72696 0.19572 0.98374 0.0
C720 C 0.70963 0.19458 0.97341 0.0
C721 C 0.75828 0.19523 0.00375 0.0
C722 C 0.73558 0.19584 0.00666 0.0
C723 C 0.72025 0.1962 -0.00338 0.0
C724 C 0.72739 0.19456 0.02004 0.0
C725 C 0.77555 0.19354 0.01409 0.0
C726 C 0.7138 0.17707 0.02374 0.0
C727 C 0.70741 0.17465 0.03653 0.0
C728 C 0.71456 0.18965 0.04587 0.0
C729 C 0.72731 0.20773 0.04204 0.0
C730 C 0.73353 0.21025 0.02921 0.0
H731 H 0.79152 0.18772 0.01021 0.0
H732 H 0.77824 0.20996 0.01839 0.0
H733 H 0.77027 0.18217 0.02182 0.0
H734 H 0.70874 0.16485 0.0168 0.0
H735 H 0.69756 0.16056 0.03916 0.0
H736 H 0.91418 0.5352 0.69853 0.0
H737 H 0.92019 0.52504 0.7209 0.0
H738 H 0.97942 0.4908 0.71025 0.0
H739 H 0.97313 0.50036 0.68775 0.0
H740 H 0.95415 0.46576 0.72484 0.0
H741 H 0.96144 0.54694 0.74793 0.0
H742 H 0.93663 0.54496 0.73877 0.0
H743 H 0.96281 0.54348 0.73075 0.0
C744 C 0.9287 0.52584 0.70097 0.0
C745 C 0.94318 0.51858 0.69138 0.0
C746 C 0.93219 0.52015 0.71379 0.0
C747 C 0.95044 0.50743 0.7173 0.0
C748 C 0.96528 0.5007 0.70777 0.0
H749 H 0.97178 0.48299 0.79914 0.0
H750 H 0.97826 0.49302 0.77673 0.0
C751 C 0.96168 0.50621 0.69493 0.0
C752 C 0.95293 0.49963 0.73071 0.0
H753 H 0.95209 0.51677 0.76185 0.0
C754 C 0.95404 0.47694 0.73293 0.0
C755 C 0.95317 0.51418 0.74127 0.0
C756 C 0.9537 0.53874 0.73956 0.0
C757 C 0.95436 0.46838 0.74542 0.0
C758 C 0.95295 0.48289 0.75598 0.0
C759 C 0.95288 0.50561 0.75377 0.0
C760 C 0.95041 0.47493 0.76935 0.0
C761 C 0.95617 0.44388 0.74716 0.0
C762 C 0.93274 0.46126 0.77265 0.0
C763 C 0.92914 0.45532 0.78542 0.0
C764 C 0.94293 0.46326 0.79518 0.0
C765 C 0.96088 0.47659 0.79184 0.0
C766 C 0.96458 0.48237 0.77904 0.0
H767 H 0.96462 0.43613 0.73887 0.0
H768 H 0.96525 0.43966 0.75605 0.0
H769 H 0.93945 0.43673 0.74777 0.0
H770 H 0.92124 0.45578 0.76541 0.0
H771 H 0.91505 0.44519 0.78769 0.0
H772 H 0.79469 0.66889 0.0388 0.0
H773 H 0.7856 0.67297 0.01606 0.0
H774 H 0.72823 0.71067 0.02615 0.0
H775 H 0.73751 0.70717 0.04885 0.0
H776 H 0.74949 0.65759 0.00449 0.0
H777 H 0.75355 0.74757 -0.00234 0.0
H778 H 0.76475 0.73412 0.01162 0.0
H779 H 0.7358 0.73974 0.01061 0.0
C780 C 0.78035 0.67838 0.03616 0.0
C781 C 0.76684 0.68774 0.04562 0.0
C782 C 0.77516 0.68067 0.02317 0.0
C783 C 0.75637 0.69234 0.01939 0.0
C784 C 0.74309 0.70205 0.02881 0.0
H785 H 0.6883 0.67067 0.94719 0.0
H786 H 0.69829 0.67374 0.96986 0.0
C787 C 0.74836 0.69991 0.0418 0.0
C788 C 0.74976 0.69285 0.0057 0.0
H789 H 0.73598 0.72705 0.98103 0.0
C790 C 0.74667 0.67279 -0.00066 0.0
C791 C 0.74626 0.71268 -0.00105 0.0
C792 C 0.75047 0.73475 0.00502 0.0
C793 C 0.73992 0.67199 0.98649 0.0
C794 C 0.73557 0.6918 0.9799 0.0
C795 C 0.73899 0.71189 0.98617 0.0
C796 C 0.72822 0.69192 0.96634 0.0
C797 C 0.73796 0.64991 0.98004 0.0
C798 C 0.74112 0.70211 0.95692 0.0
C799 C 0.73529 0.70065 0.94398 0.0
C800 C 0.71646 0.68894 0.94024 0.0
C801 C 0.70301 0.67964 0.94976 0.0
C802 C 0.70877 0.68124 0.9627 0.0
H803 H 0.74742 0.63709 0.98522 0.0
H804 H 0.72047 0.64483 0.97995 0.0
H805 H 0.74387 0.65063 0.96997 0.0
H806 H 0.75611 0.71056 0.95953 0.0
H807 H 0.74598 0.70804 0.93689 0.0
H808 H 0.51375 0.49965 0.29973 0.0
H809 H 0.50837 0.48941 0.27725 0.0
H810 H 0.56757 0.52406 0.26697 0.0
H811 H 0.57265 0.53495 0.28933 0.0
H812 H 0.5357 0.53026 0.24943 0.0
H813 H 0.54367 0.4415 0.26034 0.0
H814 H 0.5217 0.45482 0.26874 0.0
H815 H 0.54966 0.46249 0.272 0.0
C816 C 0.52549 0.50528 0.29265 0.0
C817 C 0.54374 0.51794 0.29631 0.0
C818 C 0.52248 0.49928 0.27983 0.0
C819 C 0.53787 0.5055 0.27049 0.0
C820 C 0.55556 0.51895 0.27404 0.0
H821 H 0.57187 0.44646 0.19878 0.0
H822 H 0.56723 0.45756 0.22111 0.0
C823 C 0.55845 0.52517 0.28682 0.0
C824 C 0.53608 0.49749 0.25709 0.0
H825 H 0.53594 0.45096 0.23887 0.0
C826 C 0.53564 0.51293 0.2471 0.0
C827 C 0.53631 0.47485 0.25409 0.0
C828 C 0.53807 0.45743 0.26434 0.0
C829 C 0.53576 0.50637 0.2342 0.0
C830 C 0.53567 0.48372 0.2312 0.0
C831 C 0.53577 0.46829 0.24119 0.0
C832 C 0.53721 0.4757 0.21779 0.0
C833 C 0.53693 0.52379 0.22392 0.0
C834 C 0.52151 0.48162 0.20857 0.0
C835 C 0.52425 0.47547 0.19574 0.0
C836 C 0.54256 0.46299 0.19197 0.0
C837 C 0.55761 0.4561 0.20136 0.0
C838 C 0.55498 0.46244 0.21414 0.0
H839 H 0.54238 0.53983 0.22785 0.0
H840 H 0.54837 0.51891 0.21614 0.0
H841 H 0.52039 0.5261 0.21968 0.0
H842 H 0.50736 0.49134 0.21123 0.0
H843 H 0.51228 0.48086 0.18874 0.0
H844 H 0.74447 0.27099 0.55161 0.0
H845 H 0.75511 0.26799 0.52905 0.0
H846 H 0.69977 0.30802 0.51825 0.0
H847 H 0.68931 0.31156 0.54082 0.0
H848 H 0.73474 0.25279 0.50727 0.0
H849 H 0.75134 0.34198 0.50349 0.0
H850 H 0.7466 0.32854 0.51865 0.0
H851 H 0.72384 0.33579 0.5085 0.0
C852 C 0.73443 0.27899 0.54443 0.0
C853 C 0.71619 0.29173 0.54801 0.0
C854 C 0.74054 0.27725 0.53154 0.0
C855 C 0.72852 0.28818 0.52201 0.0
C856 C 0.7096 0.29991 0.52549 0.0
H857 H 0.73781 0.27348 0.43955 0.0
H858 H 0.72846 0.26989 0.46223 0.0
C859 C 0.70356 0.30179 0.53838 0.0
C860 C 0.73626 0.288 0.50852 0.0
H861 H 0.75244 0.32163 0.48412 0.0
C862 C 0.73868 0.26781 0.5022 0.0
C863 C 0.74184 0.3076 0.50202 0.0
C864 C 0.741 0.32969 0.50854 0.0
C865 C 0.74609 0.26674 0.48945 0.0
C866 C 0.75076 0.28642 0.48278 0.0
C867 C 0.74872 0.30655 0.4892 0.0
C868 C 0.75746 0.28672 0.46909 0.0
C869 C 0.74916 0.24454 0.48332 0.0
C870 C 0.77679 0.29755 0.46536 0.0
C871 C 0.78204 0.2999 0.45238 0.0
C872 C 0.76804 0.29144 0.44288 0.0
C873 C 0.74903 0.28002 0.44664 0.0
C874 C 0.74372 0.27784 0.45962 0.0
H875 H 0.75154 0.23153 0.49066 0.0
H876 H 0.73426 0.24035 0.47772 0.0
H877 H 0.76347 0.24447 0.47673 0.0
H878 H 0.78761 0.3046 0.47251 0.0
H879 H 0.79678 0.30879 0.44979 0.0
H880 H 0.07077 0.44435 0.28853 0.0
H881 H 0.06562 0.45524 0.2662 0.0
H882 H 0.00473 0.48705 0.27619 0.0
H883 H 0.01015 0.47682 0.29869 0.0
H884 H 0.03466 0.44801 0.24834 0.0
H885 H 0.03835 0.53684 0.25991 0.0
H886 H 0.04491 0.51589 0.2715 0.0
H887 H 0.01673 0.52229 0.26795 0.0
C888 C 0.05615 0.45347 0.28597 0.0
C889 C 0.04099 0.45995 0.2954 0.0
C890 C 0.05324 0.45969 0.27319 0.0
C891 C 0.03506 0.4724 0.26957 0.0
C892 C 0.0192 0.47778 0.27883 0.0
H893 H 0.01225 0.49745 0.18759 0.0
H894 H 0.00671 0.48643 0.20995 0.0
C895 C 0.02222 0.47176 0.29166 0.0
C896 C 0.03334 0.4806 0.25621 0.0
H897 H 0.03226 0.52747 0.23826 0.0
C898 C 0.034 0.46537 0.24612 0.0
C899 C 0.0328 0.5033 0.25335 0.0
C900 C 0.03336 0.52056 0.26373 0.0
C901 C 0.03452 0.47218 0.23326 0.0
C902 C 0.0337 0.49487 0.2304 0.0
C903 C 0.03266 0.51009 0.24048 0.0
C904 C 0.03556 0.5032 0.21707 0.0
C905 C 0.03693 0.45503 0.22292 0.0
C906 C 0.05292 0.51726 0.21376 0.0
C907 C 0.05588 0.52392 0.20106 0.0
C908 C 0.04159 0.51654 0.1914 0.0
C909 C 0.02366 0.50323 0.19481 0.0
C910 C 0.02057 0.49678 0.20756 0.0
H911 H 0.04288 0.43916 0.22684 0.0
H912 H 0.02072 0.45208 0.21839 0.0
H913 H 0.04854 0.46054 0.21536 0.0
H914 H 0.06462 0.52254 0.22096 0.0
H915 H 0.06984 0.53419 0.19874 0.0
H916 H 0.29427 0.31249 0.03831 0.0
H917 H 0.28466 0.30946 0.01558 0.0
H918 H 0.22745 0.27138 0.02549 0.0
H919 H 0.23717 0.2739 0.04819 0.0
H920 H 0.24868 0.25536 0.00408 0.0
H921 H 0.23478 0.34502 -3e-05 0.0
H922 H 0.26178 0.33789 0.00546 0.0
H923 H 0.23829 0.33147 0.01522 0.0
C924 C 0.27977 0.30328 0.03564 0.0
C925 C 0.26637 0.2936 0.04505 0.0
C926 C 0.27423 0.30168 0.02266 0.0
C927 C 0.25508 0.29061 0.01888 0.0
C928 C 0.24222 0.28012 0.02821 0.0
H929 H 0.18802 0.31157 0.94649 0.0
H930 H 0.19741 0.30769 0.9692 0.0
C931 C 0.24781 0.28159 0.04118 0.0
C932 C 0.24799 0.2906 0.00528 0.0
H933 H 0.23328 0.32451 0.9807 0.0
C934 C 0.24527 0.27046 -0.00105 0.0
C935 C 0.24314 0.31031 -0.0013 0.0
C936 C 0.24442 0.3324 0.0052 0.0
C937 C 0.23819 0.26952 0.98614 0.0
C938 C 0.23411 0.28927 0.97943 0.0
C939 C 0.23653 0.30938 0.98583 0.0
C940 C 0.22744 0.28965 0.96575 0.0
C941 C 0.23476 0.24738 0.98 0.0
C942 C 0.24108 0.28061 0.95627 0.0
C943 C 0.23566 0.28265 0.9433 0.0
C944 C 0.21663 0.29403 0.93955 0.0
C945 C 0.20277 0.30269 0.94907 0.0
C946 C 0.20814 0.30052 0.96204 0.0
H947 H 0.23226 0.23435 0.98731 0.0
H948 H 0.22038 0.24755 0.97345 0.0
H949 H 0.24953 0.24303 0.97432 0.0
H950 H 0.2563 0.27259 0.95888 0.0
H951 H 0.24677 0.27594 0.9362 0.0
H952 H 0.41413 0.53677 0.78759 0.0
H953 H 0.41805 0.526 0.76515 0.0
H954 H 0.47606 0.48881 0.77462 0.0
H955 H 0.47179 0.49892 0.79721 0.0
H956 H 0.44922 0.53121 0.7473 0.0
H957 H 0.43866 0.44258 0.75778 0.0
H958 H 0.43391 0.46353 0.76966 0.0
H959 H 0.46145 0.45492 0.76596 0.0
C960 C 0.42784 0.52646 0.78489 0.0
C961 C 0.44251 0.5185 0.79419 0.0
C962 C 0.43006 0.5203 0.77205 0.0
C963 C 0.44705 0.50617 0.76825 0.0
C964 C 0.46246 0.4992 0.7774 0.0
H965 H 0.46982 0.48258 0.68618 0.0
H966 H 0.47524 0.49259 0.7087 0.0
C967 C 0.4601 0.50514 0.79028 0.0
C968 C 0.44809 0.49833 0.75478 0.0
H969 H 0.44617 0.45215 0.73628 0.0
C970 C 0.44865 0.51392 0.74488 0.0
C971 C 0.44701 0.47576 0.75165 0.0
C972 C 0.44501 0.45822 0.7618 0.0
C973 C 0.44787 0.50761 0.73194 0.0
C974 C 0.4472 0.48503 0.7288 0.0
C975 C 0.44693 0.46943 0.7387 0.0
C976 C 0.44524 0.47729 0.71535 0.0
C977 C 0.44684 0.52526 0.7218 0.0
C978 C 0.42723 0.46434 0.71171 0.0
C979 C 0.42433 0.45823 0.69891 0.0
C980 C 0.43934 0.46506 0.68948 0.0
C981 C 0.45786 0.47726 0.69321 0.0
C982 C 0.46088 0.48314 0.70606 0.0
H983 H 0.44173 0.5413 0.72587 0.0
H984 H 0.46336 0.52741 0.71749 0.0
H985 H 0.4352 0.52076 0.71404 0.0
H986 H 0.41501 0.45952 0.71872 0.0
H987 H 0.4099 0.44881 0.69634 0.0
H988 H 0.23142 0.71861 0.54574 0.0
H989 H 0.24103 0.72427 0.5232 0.0
H990 H 0.20553 0.6656 0.51298 0.0
H991 H 0.19534 0.6602 0.53542 0.0
H992 H 0.26551 0.69804 0.5087 0.0
H993 H 0.18414 0.7072 0.48586 0.0
H994 H 0.18787 0.70873 0.50301 0.0
H995 H 0.18577 0.68251 0.49515 0.0
C996 C 0.22532 0.70714 0.53866 0.0
C997 C 0.21258 0.68898 0.54235 0.0
C998 C 0.23086 0.71038 0.52578 0.0
C999 C 0.22379 0.69552 0.51637 0.0
C1000 C 0.21071 0.6776 0.52001 0.0
H1001 H 0.28464 0.66033 0.44532 0.0
H1002 H 0.2741 0.66573 0.46769 0.0
C1003 C 0.205 0.67446 0.53287 0.0
C1004 C 0.23153 0.69772 0.50293 0.0
H1005 H 0.21407 0.69784 0.47183 0.0
C1006 C 0.25424 0.6983 0.50064 0.0
C1007 C 0.21686 0.69842 0.49242 0.0
C1008 C 0.19231 0.69943 0.49423 0.0
C1009 C 0.2627 0.69865 0.48812 0.0
C1010 C 0.24805 0.69783 0.47761 0.0
C1011 C 0.22533 0.69819 0.47989 0.0
C1012 C 0.25585 0.69561 0.46419 0.0
C1013 C 0.28725 0.69988 0.48631 0.0
C1014 C 0.24888 0.71044 0.45473 0.0
C1015 C 0.25466 0.70722 0.44189 0.0
C1016 C 0.2675 0.68909 0.43827 0.0
C1017 C 0.27491 0.67457 0.44781 0.0
C1018 C 0.26899 0.67771 0.46062 0.0
H1019 H 0.29535 0.70774 0.49468 0.0
H1020 H 0.29394 0.68304 0.4854 0.0
H1021 H 0.2916 0.70923 0.47753 0.0
H1022 H 0.23865 0.72431 0.45726 0.0
H1023 H 0.24867 0.71867 0.43476 0.0
H1024 H 0.3573 0.97845 0.15478 0.0
H1025 H 0.33229 0.95038 0.14657 0.0
H1026 H 0.37759 0.9363 0.11583 0.0
H1027 H 0.40298 0.96378 0.12423 0.0
H1028 H 0.31188 0.94942 0.12405 0.0
H1029 H 0.36423 0.87557 0.12847 0.0
H1030 H 0.37118 0.90129 0.13598 0.0
H1031 H 0.37707 0.89684 0.11926 0.0
C1032 C 0.36203 0.96916 0.14637 0.0
C1033 C 0.38211 0.9732 0.14017 0.0
C1034 C 0.34774 0.95317 0.14168 0.0
C1035 C 0.35322 0.94104 0.1307 0.0
C1036 C 0.37329 0.94505 0.12451 0.0
H1037 H 0.25711 0.8742 0.08296 0.0
H1038 H 0.28465 0.89944 0.09158 0.0
C1039 C 0.38772 0.96084 0.12928 0.0
C1040 C 0.33741 0.92507 0.12533 0.0
H1041 H 0.33186 0.87187 0.11574 0.0
C1042 C 0.3162 0.93242 0.12231 0.0
C1043 C 0.343 0.90285 0.12321 0.0
C1044 C 0.36503 0.8936 0.12702 0.0
C1045 C 0.30047 0.91822 0.11709 0.0
C1046 C 0.30637 0.89625 0.11445 0.0
C1047 C 0.32749 0.88882 0.11761 0.0
C1048 C 0.29063 0.88049 0.1088 0.0
C1049 C 0.27758 0.92682 0.11475 0.0
C1050 C 0.28563 0.861 0.11533 0.0
C1051 C 0.27027 0.84638 0.11031 0.0
C1052 C 0.25954 0.85107 0.0987 0.0
C1053 C 0.26497 0.8703 0.092 0.0
C1054 C 0.28056 0.8848 0.09695 0.0
H1055 H 0.27411 0.94162 0.12063 0.0
H1056 H 0.27591 0.9315 0.10451 0.0
H1057 H 0.26501 0.91419 0.11697 0.0
H1058 H 0.29331 0.85731 0.12446 0.0
H1059 H 0.26641 0.83167 0.11569 0.0
H1060 H 0.24174 0.09985 0.40039 0.0
H1061 H 0.26911 0.07457 0.39172 0.0
H1062 H 0.30221 0.12857 0.37325 0.0
H1063 H 0.27466 0.15392 0.38166 0.0
H1064 H 0.29508 0.09385 0.35705 0.0
H1065 H 0.33257 0.06555 0.40265 0.0
H1066 H 0.3033 0.06231 0.40208 0.0
H1067 H 0.31505 0.08936 0.40177 0.0
C1068 C 0.25498 0.10638 0.3946 0.0
C1069 C 0.25608 0.12886 0.39171 0.0
C1070 C 0.27065 0.09192 0.3897 0.0
C1071 C 0.28781 0.09977 0.38198 0.0
C1072 C 0.28911 0.12224 0.37923 0.0
H1073 H 0.40362 0.02706 0.35972 0.0
H1074 H 0.37763 0.05395 0.36817 0.0
C1075 C 0.27339 0.13668 0.38406 0.0
C1076 C 0.30387 0.08445 0.3763 0.0
H1077 H 0.34239 0.04596 0.38378 0.0
C1078 C 0.30552 0.08344 0.36288 0.0
C1079 C 0.31755 0.07107 0.38395 0.0
C1080 C 0.31723 0.07222 0.39841 0.0
C1081 C 0.32038 0.06921 0.35688 0.0
C1082 C 0.33359 0.05536 0.36453 0.0
C1083 C 0.33211 0.05653 0.37795 0.0
C1084 C 0.3493 0.03966 0.35884 0.0
C1085 C 0.32204 0.06941 0.34243 0.0
C1086 C 0.34193 0.02278 0.35078 0.0
C1087 C 0.35677 0.00749 0.34585 0.0
C1088 C 0.37914 0.0087 0.34906 0.0
C1089 C 0.38647 0.02571 0.35708 0.0
C1090 C 0.37166 0.04105 0.36193 0.0
H1091 H 0.3154 0.08483 0.3383 0.0
H1092 H 0.33933 0.06747 0.33926 0.0
H1093 H 0.31235 0.05555 0.33848 0.0
H1094 H 0.32467 0.02116 0.3485 0.0
H1095 H 0.35062 -0.00553 0.33976 0.0
H1096 H 0.13176 -0.00409 0.65149 0.0
H1097 H 0.15627 0.02433 0.64322 0.0
H1098 H 0.10102 0.05749 0.62607 0.0
H1099 H 0.07649 0.02883 0.63402 0.0
H1100 H 0.13408 0.05155 0.60922 0.0
H1101 H 0.16667 0.08703 0.65431 0.0
H1102 H 0.17012 0.05785 0.6534 0.0
H1103 H 0.14292 0.06933 0.65398 0.0
C1104 C 0.1248 0.00943 0.64612 0.0
C1105 C 0.10223 0.01014 0.64336 0.0
C1106 C 0.13881 0.02572 0.64146 0.0
C1107 C 0.13041 0.04314 0.63417 0.0
C1108 C 0.1078 0.04419 0.63171 0.0
H1109 H 0.20756 0.15625 0.61063 0.0
H1110 H 0.17945 0.1322 0.61975 0.0
C1111 C 0.09382 0.02783 0.63626 0.0
C1112 C 0.14536 0.05937 0.62828 0.0
H1113 H 0.18576 0.09633 0.63502 0.0
C1114 C 0.14524 0.0615 0.61487 0.0
C1115 C 0.15974 0.07245 0.63568 0.0
C1116 C 0.15976 0.07174 0.65015 0.0
C1117 C 0.15947 0.07605 0.60862 0.0
C1118 C 0.17452 0.08842 0.61598 0.0
C1119 C 0.17431 0.08666 0.6294 0.0
C1120 C 0.19083 0.10308 0.60994 0.0
C1121 C 0.1581 0.07817 0.59421 0.0
C1122 C 0.20649 0.09463 0.6014 0.0
C1123 C 0.22244 0.10833 0.5961 0.0
C1124 C 0.22316 0.13066 0.5994 0.0
C1125 C 0.20739 0.13911 0.6079 0.0
C1126 C 0.19136 0.12541 0.61314 0.0
H1127 H 0.14185 0.07276 0.59054 0.0
H1128 H 0.16098 0.09535 0.59111 0.0
H1129 H 0.17082 0.06763 0.58975 0.0
H1130 H 0.20666 0.07734 0.59903 0.0
H1131 H 0.23448 0.10132 0.58964 0.0
H1132 H 0.07915 0.96388 0.86529 0.0
H1133 H 0.10343 0.93627 0.87467 0.0
H1134 H 0.1485 0.94435 0.84308 0.0
H1135 H 0.12464 0.97248 0.83386 0.0
H1136 H 0.11862 0.89733 0.86625 0.0
H1137 H 0.18796 0.95484 0.87354 0.0
H1138 H 0.16085 0.96402 0.86914 0.0
H1139 H 0.17926 0.95347 0.85712 0.0
C1140 C 0.0942 0.9597 0.86032 0.0
C1141 C 0.10015 0.97048 0.84892 0.0
C1142 C 0.10804 0.94394 0.86569 0.0
C1143 C 0.12798 0.93863 0.85971 0.0
C1144 C 0.13348 0.94867 0.84803 0.0
H1145 H 0.21096 0.82657 0.87512 0.0
H1146 H 0.18296 0.85172 0.86704 0.0
C1147 C 0.11978 0.96462 0.84273 0.0
C1148 C 0.14313 0.92279 0.8658 0.0
H1149 H 0.19563 0.91696 0.87659 0.0
C1150 C 0.13544 0.90162 0.86858 0.0
C1151 C 0.16491 0.92859 0.86907 0.0
C1152 C 0.17369 0.95153 0.86719 0.0
C1153 C 0.14911 0.88591 0.87431 0.0
C1154 C 0.1712 0.89141 0.87699 0.0
C1155 C 0.17874 0.91271 0.87443 0.0
C1156 C 0.18696 0.87538 0.88236 0.0
C1157 C 0.13963 0.86376 0.87761 0.0
C1158 C 0.19875 0.88049 0.89353 0.0
C1159 C 0.21504 0.86636 0.89802 0.0
C1160 C 0.21972 0.84681 0.89145 0.0
C1161 C 0.20754 0.84144 0.88044 0.0
C1162 C 0.19144 0.85572 0.87587 0.0
H1163 H 0.12152 0.86454 0.87876 0.0
H1164 H 0.14324 0.85211 0.86972 0.0
H1165 H 0.14688 0.85718 0.8866 0.0
H1166 H 0.1956 0.89561 0.89866 0.0
H1167 H 0.22414 0.87088 0.90654 0.0
H1168 H 0.72599 0.10715 0.90535 0.0
H1169 H 0.69783 0.08241 0.89696 0.0
H1170 H 0.68547 0.12722 0.86575 0.0
H1171 H 0.71306 0.15237 0.87433 0.0
H1172 H 0.64789 0.1107 0.87516 0.0
H1173 H 0.7071 0.04338 0.86625 0.0
H1174 H 0.7066 0.05198 0.8827 0.0
H1175 H 0.71573 0.07073 0.87048 0.0
C1176 C 0.71717 0.11177 0.89674 0.0
C1177 C 0.72183 0.13158 0.89042 0.0
C1178 C 0.7012 0.09757 0.89192 0.0
C1179 C 0.68997 0.10274 0.88056 0.0
C1180 C 0.69407 0.12286 0.87448 0.0
H1181 H 0.62206 0.00647 0.83401 0.0
H1182 H 0.64684 0.03478 0.84216 0.0
C1183 C 0.70983 0.1372 0.87939 0.0
C1184 C 0.67417 0.08707 0.87489 0.0
H1185 H 0.6693 0.03463 0.86391 0.0
C1186 C 0.65257 0.09408 0.87265 0.0
C1187 C 0.68044 0.06555 0.87139 0.0
C1188 C 0.70378 0.05751 0.8727 0.0
C1189 C 0.63694 0.08002 0.86717 0.0
C1190 C 0.64297 0.0582 0.86421 0.0
C1191 C 0.66466 0.05131 0.86629 0.0
C1192 C 0.62716 0.04216 0.85891 0.0
C1193 C 0.61429 0.08885 0.86438 0.0
C1194 C 0.60786 0.03696 0.86561 0.0
C1195 C 0.59354 0.02101 0.86088 0.0
C1196 C 0.59852 0.00969 0.84951 0.0
C1197 C 0.61783 0.01493 0.8428 0.0
C1198 C 0.63199 0.03107 0.84745 0.0
H1199 H 0.61441 0.107 0.86344 0.0
H1200 H 0.60749 0.0817 0.85542 0.0
H1201 H 0.60317 0.08458 0.87243 0.0
H1202 H 0.6041 0.04487 0.87464 0.0
H1203 H 0.57888 0.01715 0.86631 0.0
H1204 H 0.62504 0.9734 0.65532 0.0
H1205 H 0.65047 0.94602 0.64673 0.0
H1206 H 0.60633 0.93393 0.61514 0.0
H1207 H 0.58055 0.96073 0.62388 0.0
H1208 H 0.6231 0.89635 0.62443 0.0
H1209 H 0.68991 0.95655 0.61624 0.0
H1210 H 0.681 0.95546 0.63263 0.0
H1211 H 0.66236 0.96473 0.62038 0.0
C1212 C 0.62073 0.96481 0.64658 0.0
C1213 C 0.60092 0.9693 0.64021 0.0
C1214 C 0.63532 0.9493 0.64164 0.0
C1215 C 0.6305 0.93834 0.63014 0.0
C1216 C 0.61042 0.94232 0.62399 0.0
H1217 H 0.72712 0.87323 0.58257 0.0
H1218 H 0.69854 0.89729 0.59113 0.0
C1219 C 0.59572 0.95763 0.62899 0.0
C1220 C 0.64644 0.92289 0.62441 0.0
H1221 H 0.69894 0.91903 0.61328 0.0
C1222 C 0.63967 0.9013 0.62195 0.0
C1223 C 0.6679 0.92953 0.62097 0.0
C1224 C 0.67569 0.95288 0.62256 0.0
C1225 C 0.6539 0.88604 0.61628 0.0
C1226 C 0.67564 0.89245 0.61331 0.0
C1227 C 0.68231 0.91411 0.61565 0.0
C1228 C 0.69181 0.87705 0.60775 0.0
C1229 C 0.64534 0.8634 0.61326 0.0
C1230 C 0.69742 0.85768 0.61422 0.0
C1231 C 0.71353 0.84378 0.60926 0.0
C1232 C 0.72458 0.84927 0.59787 0.0
C1233 C 0.71887 0.86861 0.59137 0.0
C1234 C 0.70259 0.88236 0.59626 0.0
H1235 H 0.62715 0.86327 0.61245 0.0
H1236 H 0.65242 0.85704 0.60418 0.0
H1237 H 0.64994 0.85207 0.62114 0.0
H1238 H 0.68973 0.85355 0.62327 0.0
H1239 H 0.71776 0.82908 0.61454 0.0
H1240 H 0.7444 0.88143 0.39987 0.0
H1241 H 0.7707 0.90719 0.39056 0.0
H1242 H 0.80259 0.85395 0.37069 0.0
H1243 H 0.77599 0.82813 0.37969 0.0
H1244 H 0.8151 0.90976 0.39211 0.0
H1245 H 0.7893 0.89634 0.3417 0.0
H1246 H 0.77362 0.88638 0.35518 0.0
H1247 H 0.7974 0.87159 0.34972 0.0
C1248 C 0.75705 0.87519 0.39354 0.0
C1249 C 0.75803 0.8528 0.3904 0.0
C1250 C 0.77204 0.88993 0.38824 0.0
C1251 C 0.78827 0.88252 0.37973 0.0
C1252 C 0.78981 0.86006 0.37697 0.0
H1253 H 0.90333 0.95681 0.35688 0.0
H1254 H 0.87787 0.92996 0.36597 0.0
C1255 C 0.77472 0.84533 0.38219 0.0
C1256 C 0.80356 0.89834 0.37377 0.0
H1257 H 0.82165 0.91747 0.34488 0.0
C1258 C 0.81652 0.9115 0.38179 0.0
C1259 C 0.80503 0.90083 0.3603 0.0
C1260 C 0.79044 0.8882 0.35122 0.0
C1261 C 0.83123 0.92689 0.3767 0.0
C1262 C 0.83339 0.9287 0.36322 0.0
C1263 C 0.82016 0.91579 0.3552 0.0
C1264 C 0.84896 0.94423 0.35725 0.0
C1265 C 0.84393 0.94137 0.38579 0.0
C1266 C 0.84123 0.96054 0.34891 0.0
C1267 C 0.85576 0.97568 0.34355 0.0
C1268 C 0.87826 0.97476 0.34648 0.0
C1269 C 0.88605 0.95803 0.35455 0.0
C1270 C 0.87152 0.94279 0.35982 0.0
H1271 H 0.83598 0.94224 0.39538 0.0
H1272 H 0.86066 0.93454 0.38712 0.0
H1273 H 0.84553 0.95828 0.38194 0.0
H1274 H 0.82388 0.96181 0.34674 0.0
H1275 H 0.84929 0.98837 0.33734 0.0
H1276 H 0.77974 0.15917 0.10664 0.0
H1277 H 0.80861 0.13537 0.1151 0.0
H1278 H 0.77846 0.07962 0.09669 0.0
H1279 H 0.74986 0.10337 0.08793 0.0
H1280 H 0.8031 0.10129 0.13144 0.0
H1281 H 0.84214 0.07232 0.08654 0.0
H1282 H 0.82357 0.09537 0.08693 0.0
H1283 H 0.81304 0.06779 0.08675 0.0
C1284 C 0.77945 0.14189 0.10425 0.0
C1285 C 0.76257 0.13312 0.09662 0.0
C1286 C 0.79592 0.12833 0.1091 0.0
C1287 C 0.7958 0.10581 0.1064 0.0
C1288 C 0.77913 0.09705 0.09864 0.0
H1289 H 0.8527 -0.0 0.14945 0.0
H1290 H 0.82935 0.02897 0.14077 0.0
C1291 C 0.76274 0.11062 0.09371 0.0
C1292 C 0.81228 0.09124 0.11236 0.0
H1293 H 0.85056 0.05214 0.1056 0.0
C1294 C 0.81366 0.0907 0.1258 0.0
C1295 C 0.82618 0.07766 0.10496 0.0
C1296 C 0.82635 0.07844 0.0905 0.0
C1297 C 0.82817 0.07645 0.13207 0.0
C1298 C 0.84126 0.06208 0.12468 0.0
C1299 C 0.84034 0.06307 0.11124 0.0
C1300 C 0.85566 0.04547 0.13066 0.0
C1301 C 0.82939 0.07702 0.14652 0.0
C1302 C 0.87812 0.045 0.12772 0.0
C1303 C 0.89145 0.02832 0.13254 0.0
C1304 C 0.8825 0.0118 0.14035 0.0
C1305 C 0.86009 0.01257 0.14351 0.0
C1306 C 0.84675 0.02919 0.13862 0.0
H1307 H 0.8237 0.09302 0.15038 0.0
H1308 H 0.81858 0.06405 0.15051 0.0
H1309 H 0.84639 0.074 0.14994 0.0
H1310 H 0.88527 0.05739 0.12155 0.0
H1311 H 0.90867 0.02815 0.12995 0.0
H1312 H 0.76706 0.32808 0.61747 0.0
H1313 H 0.79411 0.35322 0.62663 0.0
H1314 H 0.78513 0.39714 0.59461 0.0
H1315 H 0.75753 0.37241 0.58559 0.0
H1316 H 0.83271 0.36852 0.61796 0.0
H1317 H 0.77469 0.43755 0.62459 0.0
H1318 H 0.76567 0.41025 0.62053 0.0
H1319 H 0.77596 0.42834 0.60827 0.0
C1320 C 0.77089 0.34307 0.61236 0.0
C1321 C 0.76006 0.34842 0.60088 0.0
C1322 C 0.78633 0.35741 0.61761 0.0
C1323 C 0.79126 0.37726 0.61144 0.0
C1324 C 0.78109 0.38221 0.59971 0.0
H1325 H 0.90324 0.4612 0.62474 0.0
H1326 H 0.87769 0.4331 0.61725 0.0
C1327 C 0.76546 0.368 0.59453 0.0
C1328 C 0.80703 0.39277 0.61729 0.0
H1329 H 0.81266 0.44572 0.62727 0.0
C1330 C 0.82832 0.38537 0.62008 0.0
C1331 C 0.8011 0.41461 0.62028 0.0
C1332 C 0.77805 0.42311 0.61839 0.0
C1333 C 0.84403 0.3994 0.6255 0.0
C1334 C 0.83843 0.42155 0.62786 0.0
C1335 C 0.81699 0.42879 0.62533 0.0
C1336 C 0.85453 0.43765 0.63279 0.0
C1337 C 0.86634 0.39026 0.62881 0.0
C1338 C 0.8498 0.44983 0.64387 0.0
C1339 C 0.86418 0.46616 0.64804 0.0
C1340 C 0.88359 0.47052 0.64122 0.0
C1341 C 0.8885 0.45805 0.63025 0.0
C1342 C 0.87398 0.44189 0.62601 0.0
H1343 H 0.86569 0.37222 0.63026 0.0
H1344 H 0.87783 0.39355 0.62078 0.0
H1345 H 0.87304 0.39797 0.63763 0.0
H1346 H 0.83482 0.44687 0.64921 0.0
H1347 H 0.85999 0.4755 0.65653 0.0
H1348 H 0.90468 0.52621 0.85608 0.0
H1349 H 0.87871 0.55302 0.86466 0.0
H1350 H 0.82574 0.52068 0.84475 0.0
H1351 H 0.85169 0.49412 0.83586 0.0
H1352 H 0.82324 0.56521 0.84294 0.0
H1353 H 0.83583 0.53996 0.89352 0.0
H1354 H 0.86076 0.54786 0.88559 0.0
H1355 H 0.84592 0.52411 0.88015 0.0
C1356 C 0.88752 0.52489 0.85347 0.0
C1357 C 0.88017 0.50797 0.84539 0.0
C1358 C 0.8727 0.54011 0.85845 0.0
C1359 C 0.85027 0.53849 0.85557 0.0
C1360 C 0.84299 0.52208 0.84716 0.0
H1361 H 0.74433 0.60092 0.89735 0.0
H1362 H 0.77065 0.5751 0.88812 0.0
C1363 C 0.85782 0.50694 0.84209 0.0
C1364 C 0.83435 0.55384 0.86139 0.0
H1365 H 0.81496 0.5724 0.89011 0.0
C1366 C 0.82136 0.56677 0.85325 0.0
C1367 C 0.83168 0.55549 0.87484 0.0
C1368 C 0.84412 0.54096 0.88404 0.0
C1369 C 0.80601 0.58163 0.85821 0.0
C1370 C 0.80405 0.58398 0.87167 0.0
C1371 C 0.81675 0.57076 0.8798 0.0
C1372 C 0.78861 0.59979 0.87751 0.0
C1373 C 0.79174 0.59434 0.849 0.0
C1374 C 0.79035 0.62227 0.87484 0.0
C1375 C 0.77526 0.63703 0.88002 0.0
C1376 C 0.75837 0.62957 0.8881 0.0
C1377 C 0.75715 0.60715 0.89113 0.0
C1378 C 0.77215 0.59238 0.88586 0.0
H1379 H 0.79089 0.58626 0.83946 0.0
H1380 H 0.7748 0.59617 0.85278 0.0
H1381 H 0.79879 0.61095 0.84761 0.0
H1382 H 0.80331 0.62838 0.86869 0.0
H1383 H 0.77672 0.65425 0.87761 0.0
H1384 H 0.727 0.60611 0.083 0.0
H1385 H 0.69854 0.58137 0.09105 0.0
H1386 H 0.68562 0.62584 0.12235 0.0
H1387 H 0.71352 0.65095 0.11413 0.0
H1388 H 0.69741 0.56031 0.11339 0.0
H1389 H 0.62441 0.61402 0.10972 0.0
H1390 H 0.65021 0.62066 0.10215 0.0
H1391 H 0.64604 0.62627 0.11893 0.0
C1392 C 0.7179 0.61071 0.09151 0.0
C1393 C 0.72238 0.63048 0.09791 0.0
C1394 C 0.70168 0.59658 0.0961 0.0
C1395 C 0.68974 0.60193 0.10718 0.0
C1396 C 0.69421 0.62166 0.11359 0.0
H1397 H 0.62298 0.50696 0.15526 0.0
H1398 H 0.64801 0.53432 0.14628 0.0
C1399 C 0.71026 0.63593 0.10892 0.0
C1400 C 0.6735 0.58627 0.11244 0.0
H1401 H 0.62033 0.58156 0.12236 0.0
C1402 C 0.68051 0.5649 0.11527 0.0
C1403 C 0.6514 0.59223 0.11472 0.0
C1404 C 0.6425 0.61448 0.1111 0.0
C1405 C 0.66612 0.54939 0.12052 0.0
C1406 C 0.6443 0.55566 0.12338 0.0
C1407 C 0.63716 0.57691 0.12033 0.0
C1408 C 0.62849 0.54024 0.12928 0.0
C1409 C 0.67435 0.52634 0.1227 0.0
C1410 C 0.60872 0.53533 0.123 0.0
C1411 C 0.5942 0.52004 0.12822 0.0
C1412 C 0.5993 0.50933 0.13978 0.0
C1413 C 0.61876 0.5148 0.14626 0.0
C1414 C 0.63314 0.53029 0.14111 0.0
H1415 H 0.68888 0.52264 0.11663 0.0
H1416 H 0.67936 0.52451 0.13288 0.0
H1417 H 0.66138 0.51405 0.12062 0.0
H1418 H 0.60477 0.54296 0.1139 0.0
H1419 H 0.57931 0.51615 0.12302 0.0
H1420 H 0.70673 0.32862 0.3812 0.0
H1421 H 0.68031 0.3547 0.37234 0.0
H1422 H 0.71353 0.40771 0.39167 0.0
H1423 H 0.73975 0.38166 0.40083 0.0
H1424 H 0.66888 0.41072 0.39357 0.0
H1425 H 0.69373 0.39665 0.34306 0.0
H1426 H 0.6857 0.372 0.35122 0.0
H1427 H 0.70961 0.38679 0.35649 0.0
C1428 C 0.70835 0.34582 0.38362 0.0
C1429 C 0.72541 0.35314 0.39162 0.0
C1430 C 0.69335 0.3607 0.37848 0.0
C1431 C 0.69531 0.38316 0.38112 0.0
C1432 C 0.71188 0.39044 0.38944 0.0
H1433 H 0.63274 0.48822 0.3387 0.0
H1434 H 0.65865 0.4621 0.34802 0.0
C1435 C 0.72681 0.37555 0.39466 0.0
C1436 C 0.68007 0.39906 0.3752 0.0
H1437 H 0.6613 0.41767 0.34635 0.0
C1438 C 0.66725 0.41231 0.38325 0.0
C1439 C 0.67832 0.40136 0.36174 0.0
C1440 C 0.69273 0.38861 0.35261 0.0
C1441 C 0.65235 0.42753 0.37819 0.0
C1442 C 0.64987 0.4291 0.36472 0.0
C1443 C 0.66302 0.41617 0.35667 0.0
C1444 C 0.634 0.44435 0.35878 0.0
C1445 C 0.63971 0.44205 0.38729 0.0
C1446 C 0.61151 0.44264 0.36151 0.0
C1447 C 0.59669 0.45761 0.35627 0.0
C1448 C 0.60411 0.47436 0.34809 0.0
C1449 C 0.62654 0.47552 0.345 0.0
C1450 C 0.64136 0.46063 0.35031 0.0
H1451 H 0.64785 0.44313 0.39681 0.0
H1452 H 0.6379 0.45888 0.38336 0.0
H1453 H 0.62307 0.4351 0.38877 0.0
H1454 H 0.60544 0.42981 0.36776 0.0
H1455 H 0.57947 0.4562 0.35873 0.0
H1456 H 0.12137 0.50744 0.33014 0.0
H1457 H 0.14588 0.53608 0.3382 0.0
H1458 H 0.10238 0.54705 0.37023 0.0
H1459 H 0.07749 0.51888 0.36204 0.0
H1460 H 0.11825 0.58531 0.36042 0.0
H1461 H 0.18599 0.52616 0.36864 0.0
H1462 H 0.17661 0.52676 0.35233 0.0
H1463 H 0.15843 0.51754 0.36482 0.0
C1464 C 0.11696 0.51608 0.33884 0.0
C1465 C 0.09766 0.5108 0.34554 0.0
C1466 C 0.13102 0.53233 0.34347 0.0
C1467 C 0.12617 0.54328 0.35496 0.0
C1468 C 0.10647 0.53866 0.36138 0.0
H1469 H 0.22249 0.60985 0.4018 0.0
H1470 H 0.19369 0.5858 0.39352 0.0
C1471 C 0.09229 0.52257 0.3567 0.0
C1472 C 0.14192 0.55909 0.36052 0.0
H1473 H 0.19448 0.56379 0.37143 0.0
C1474 C 0.13492 0.58064 0.36287 0.0
C1475 C 0.1635 0.55278 0.36391 0.0
C1476 C 0.17155 0.5295 0.36242 0.0
C1477 C 0.14904 0.59619 0.36837 0.0
C1478 C 0.17087 0.59008 0.37131 0.0
C1479 C 0.17777 0.56846 0.36908 0.0
C1480 C 0.18692 0.6057 0.37678 0.0
C1481 C 0.14031 0.61881 0.37123 0.0
C1482 C 0.19255 0.62493 0.37015 0.0
C1483 C 0.20882 0.63883 0.37494 0.0
C1484 C 0.22 0.63349 0.38631 0.0
C1485 C 0.21418 0.61435 0.393 0.0
C1486 C 0.19775 0.60061 0.38828 0.0
H1487 H 0.12211 0.61883 0.37201 0.0
H1488 H 0.14729 0.62537 0.38029 0.0
H1489 H 0.14491 0.63005 0.3633 0.0
H1490 H 0.18479 0.6289 0.3611 0.0
H1491 H 0.21311 0.65338 0.36953 0.0
H1492 H 0.24052 0.38168 0.08876 0.0
H1493 H 0.21452 0.40791 0.09792 0.0
H1494 H 0.17991 0.35495 0.11647 0.0
H1495 H 0.20614 0.32866 0.10761 0.0
H1496 H 0.17024 0.41157 0.09535 0.0
H1497 H 0.19211 0.39621 0.14619 0.0
H1498 H 0.20854 0.3863 0.133 0.0
H1499 H 0.18414 0.37181 0.13777 0.0
C1500 C 0.22735 0.37561 0.09478 0.0
C1501 C 0.22546 0.35314 0.09757 0.0
C1502 C 0.21254 0.39061 0.1 0.0
C1503 C 0.19559 0.38339 0.10808 0.0
C1504 C 0.19323 0.3609 0.11054 0.0
H1505 H 0.0793 0.4571 0.12873 0.0
H1506 H 0.10561 0.43073 0.12002 0.0
C1507 C 0.20812 0.3459 0.10539 0.0
C1508 C 0.18025 0.39939 0.11384 0.0
H1509 H 0.16006 0.41763 0.14245 0.0
C1510 C 0.16806 0.41297 0.10565 0.0
C1511 C 0.17777 0.40144 0.12728 0.0
C1512 C 0.19149 0.38833 0.13658 0.0
C1513 C 0.15306 0.42827 0.11053 0.0
C1514 C 0.14982 0.42958 0.12395 0.0
C1515 C 0.16236 0.41634 0.13216 0.0
C1516 C 0.13372 0.44484 0.12968 0.0
C1517 C 0.14114 0.44314 0.10129 0.0
C1518 C 0.14068 0.46089 0.13841 0.0
C1519 C 0.12565 0.47577 0.14354 0.0
C1520 C 0.10341 0.47484 0.14 0.0
C1521 C 0.09637 0.45833 0.13154 0.0
C1522 C 0.11139 0.44337 0.12649 0.0
H1523 H 0.14987 0.44436 0.09196 0.0
H1524 H 0.12453 0.4364 0.09941 0.0
H1525 H 0.13926 0.45989 0.10532 0.0
H1526 H 0.15783 0.46217 0.14107 0.0
H1527 H 0.13156 0.48827 0.15007 0.0
H1528 H 0.35259 0.49051 0.8357 0.0
H1529 H 0.32561 0.46504 0.84463 0.0
H1530 H 0.37739 0.4299 0.86396 0.0
H1531 H 0.40444 0.4556 0.85533 0.0
H1532 H 0.32116 0.42076 0.84239 0.0
H1533 H 0.33542 0.44379 0.89315 0.0
H1534 H 0.34598 0.45966 0.87991 0.0
H1535 H 0.35996 0.43521 0.88506 0.0
C1536 C 0.35825 0.47731 0.84182 0.0
C1537 C 0.3806 0.47515 0.84492 0.0
C1538 C 0.34281 0.4628 0.84691 0.0
C1539 C 0.34948 0.44591 0.85517 0.0
C1540 C 0.37187 0.4432 0.85788 0.0
H1541 H 0.27503 0.33083 0.8762 0.0
H1542 H 0.30121 0.35716 0.86733 0.0
C1543 C 0.3873 0.45778 0.85286 0.0
C1544 C 0.333 0.43105 0.8609 0.0
H1545 H 0.31367 0.4119 0.88951 0.0
C1546 C 0.31943 0.41888 0.85269 0.0
C1547 C 0.33051 0.42899 0.87434 0.0
C1548 C 0.34358 0.44277 0.88364 0.0
C1549 C 0.30378 0.40423 0.85757 0.0
C1550 C 0.30209 0.40134 0.871 0.0
C1551 C 0.31525 0.41394 0.87921 0.0
C1552 C 0.28673 0.38532 0.87672 0.0
C1553 C 0.28901 0.39224 0.8483 0.0
C1554 C 0.27049 0.39233 0.88533 0.0
C1555 C 0.25569 0.37728 0.89055 0.0
C1556 C 0.25692 0.35498 0.88722 0.0
C1557 C 0.27357 0.34794 0.87885 0.0
C1558 C 0.28843 0.36297 0.87371 0.0
H1559 H 0.28799 0.40084 0.83892 0.0
H1560 H 0.29573 0.37561 0.84653 0.0
H1561 H 0.27216 0.39047 0.85224 0.0
H1562 H 0.26904 0.40951 0.88785 0.0
H1563 H 0.24306 0.38319 0.897 0.0
H1564 H 0.35131 0.49673 0.64738 0.0
H1565 H 0.32595 0.52353 0.63819 0.0
H1566 H 0.37964 0.55424 0.61804 0.0
H1567 H 0.40504 0.52716 0.62693 0.0
H1568 H 0.32442 0.56814 0.63964 0.0
H1569 H 0.33654 0.54135 0.58927 0.0
H1570 H 0.34631 0.52564 0.60277 0.0
H1571 H 0.36153 0.54905 0.59719 0.0
C1572 C 0.35773 0.50923 0.64102 0.0
C1573 C 0.38012 0.50973 0.63776 0.0
C1574 C 0.34323 0.52452 0.63579 0.0
C1575 C 0.35087 0.54056 0.62724 0.0
C1576 C 0.37335 0.54163 0.62436 0.0
H1577 H 0.27647 0.6556 0.60402 0.0
H1578 H 0.30379 0.63053 0.61299 0.0
C1579 C 0.38784 0.52625 0.62952 0.0
C1580 C 0.33526 0.55607 0.62129 0.0
H1581 H 0.31562 0.57374 0.59243 0.0
C1582 C 0.32246 0.56938 0.62932 0.0
C1583 C 0.3325 0.55732 0.60783 0.0
C1584 C 0.34478 0.54244 0.59875 0.0
C1585 C 0.30711 0.58414 0.62424 0.0
C1586 C 0.30494 0.58598 0.61077 0.0
C1587 C 0.31756 0.57248 0.60275 0.0
C1588 C 0.28919 0.60134 0.60481 0.0
C1589 C 0.29299 0.59721 0.63336 0.0
C1590 C 0.27252 0.59332 0.59681 0.0
C1591 C 0.2571 0.60762 0.59152 0.0
C1592 C 0.25808 0.63019 0.59419 0.0
C1593 C 0.27519 0.63826 0.60189 0.0
C1594 C 0.2907 0.62396 0.6071 0.0
H1595 H 0.29247 0.58966 0.64306 0.0
H1596 H 0.29991 0.61396 0.63436 0.0
H1597 H 0.27593 0.59869 0.62971 0.0
H1598 H 0.27118 0.57592 0.59486 0.0
H1599 H 0.24413 0.60091 0.58559 0.0
H1600 H 0.38036 0.07939 0.11058 0.0
H1601 H 0.35954 0.11299 0.10689 0.0
H1602 H 0.35984 0.12642 0.14752 0.0
H1603 H 0.38118 0.09307 0.15129 0.0
H1604 H 0.31924 0.12546 0.11561 0.0
H1605 H 0.3832 0.18327 0.13283 0.0
H1606 H 0.38884 0.15469 0.1298 0.0
H1607 H 0.37554 0.16292 0.14443 0.0
C1608 C 0.37608 0.0895 0.11875 0.0
C1609 C 0.38259 0.08363 0.13123 0.0
C1610 C 0.36414 0.10869 0.11661 0.0
C1611 C 0.35844 0.12236 0.1269 0.0
C1612 C 0.36452 0.11636 0.13941 0.0
H1613 H 0.28699 0.24504 0.1313 0.0
H1614 H 0.30362 0.20946 0.1359 0.0
C1615 C 0.37663 0.09724 0.14155 0.0
C1616 C 0.34605 0.14283 0.12448 0.0
H1617 H 0.34842 0.19845 0.12788 0.0
C1618 C 0.32563 0.14143 0.11827 0.0
C1619 C 0.35447 0.16364 0.12793 0.0
C1620 C 0.3768 0.16632 0.134 0.0
C1621 C 0.31332 0.1603 0.11551 0.0
C1622 C 0.32174 0.18102 0.119 0.0
C1623 C 0.34203 0.18245 0.12528 0.0
C1624 C 0.30997 0.20156 0.11603 0.0
C1625 C 0.29132 0.15799 0.109 0.0
C1626 C 0.30795 0.20875 0.10331 0.0
C1627 C 0.29856 0.22915 0.10062 0.0
C1628 C 0.29104 0.24266 0.11063 0.0
C1629 C 0.29258 0.23506 0.12335 0.0
C1630 C 0.30209 0.21475 0.12602 0.0
H1631 H 0.28524 0.14081 0.10924 0.0
H1632 H 0.27896 0.16879 0.11363 0.0
H1633 H 0.29286 0.16309 0.09882 0.0
H1634 H 0.31423 0.19887 0.09549 0.0
H1635 H 0.29764 0.2345 0.09072 0.0
H1636 H 0.15131 0.13091 0.36101 0.0
H1637 H 0.11701 0.1115 0.3568 0.0
H1638 H 0.10085 0.11407 0.39706 0.0
H1639 H 0.1349 0.134 0.40135 0.0
H1640 H 0.10254 0.07213 0.36583 0.0
H1641 H 0.04579 0.13862 0.38072 0.0
H1642 H 0.07475 0.14317 0.37826 0.0
H1643 H 0.0651 0.13095 0.39292 0.0
C1644 C 0.14044 0.12745 0.36899 0.0
C1645 C 0.14578 0.13415 0.38152 0.0
C1646 C 0.12085 0.11632 0.36655 0.0
C1647 C 0.10623 0.11165 0.37658 0.0
C1648 C 0.11166 0.11798 0.38913 0.0
H1649 H 0.98246 0.04226 0.38067 0.0
H1650 H 0.01789 0.05934 0.38525 0.0
C1651 C 0.13118 0.12927 0.39157 0.0
C1652 C 0.0855 0.09986 0.37388 0.0
H1653 H 0.02976 0.10394 0.37631 0.0
C1654 C 0.08662 0.07911 0.36808 0.0
C1655 C 0.06476 0.10906 0.37679 0.0
C1656 C 0.06244 0.13176 0.3824 0.0
C1657 C 0.06753 0.06718 0.36525 0.0
C1658 C 0.04688 0.07632 0.36825 0.0
C1659 C 0.04571 0.097 0.37408 0.0
C1660 C 0.02617 0.06479 0.36534 0.0
C1661 C 0.06951 0.04478 0.35922 0.0
C1662 C 0.01923 0.0622 0.35261 0.0
C1663 C -0.00107 0.05255 0.34993 0.0
C1664 C 0.98529 0.04531 0.35997 0.0
C1665 C -0.00743 0.04759 0.37271 0.0
C1666 C 0.01278 0.05736 0.37536 0.0
H1667 H 0.08658 0.03841 0.35964 0.0
H1668 H 0.05842 0.03294 0.36407 0.0
H1669 H 0.06451 0.04576 0.349 0.0
H1670 H 0.0293 0.06809 0.34476 0.0
H1671 H -0.00619 0.05106 0.34002 0.0
H1672 H 0.12967 0.9147 0.62192 0.0
H1673 H 0.14913 0.88052 0.61739 0.0
H1674 H 0.09927 0.84425 0.6378 0.0
H1675 H 0.08048 0.87859 0.643 0.0
H1676 H 0.13713 0.82777 0.643 0.0
H1677 H 0.13285 0.83806 0.59034 0.0
H1678 H 0.14729 0.86029 0.59774 0.0
H1679 H 0.1186 0.85607 0.60121 0.0
C1680 C 0.12295 0.89942 0.62548 0.0
C1681 C 0.1035 0.89922 0.63272 0.0
C1682 C 0.13396 0.87988 0.62279 0.0
C1683 C 0.12531 0.85972 0.62689 0.0
C1684 C 0.10618 0.85958 0.63443 0.0
H1685 H 0.16144 0.73446 0.59368 0.0
H1686 H 0.14422 0.76935 0.59931 0.0
C1687 C 0.09546 0.87919 0.63741 0.0
C1688 C 0.13618 0.83877 0.62337 0.0
H1689 H 0.15618 0.8096 0.59799 0.0
C1690 C 0.14117 0.82374 0.63314 0.0
C1691 C 0.14109 0.83329 0.61047 0.0
C1692 C 0.13445 0.84768 0.59934 0.0
C1693 C 0.15104 0.80349 0.63042 0.0
C1694 C 0.15702 0.79853 0.61761 0.0
C1695 C 0.1519 0.8135 0.60783 0.0
C1696 C 0.16792 0.77762 0.61404 0.0
C1697 C 0.15424 0.78741 0.64127 0.0
C1698 C 0.18724 0.77084 0.62023 0.0
C1699 C 0.19679 0.75066 0.61723 0.0
C1700 C 0.1876 0.73725 0.60768 0.0
C1701 C 0.16889 0.74451 0.60106 0.0
C1702 C 0.15904 0.76443 0.60428 0.0
H1703 H 0.14264 0.79062 0.64928 0.0
H1704 H 0.1519 0.77024 0.638 0.0
H1705 H 0.17113 0.78913 0.64512 0.0
H1706 H 0.19489 0.78107 0.62744 0.0
H1707 H 0.21138 0.74557 0.62236 0.0
H1708 H 0.48415 0.9331 0.84201 0.0
H1709 H 0.44792 0.91731 0.84616 0.0
H1710 H 0.45939 0.92191 0.8869 0.0
H1711 H 0.49535 0.93811 0.88288 0.0
H1712 H 0.43912 0.87911 0.85866 0.0
H1713 H 0.39867 0.94827 0.88381 0.0
H1714 H 0.42387 0.95155 0.8749 0.0
H1715 H 0.42434 0.94051 0.89091 0.0
C1716 C 0.47887 0.93099 0.85185 0.0
C1717 C 0.49264 0.93693 0.86211 0.0
C1718 C 0.45817 0.92196 0.8542 0.0
C1719 C 0.45084 0.91875 0.86683 0.0
C1720 C 0.46448 0.92475 0.87708 0.0
H1721 H 0.34204 0.84875 0.90136 0.0
H1722 H 0.37594 0.86914 0.89711 0.0
C1723 C 0.48512 0.93389 0.87475 0.0
C1724 C 0.42953 0.90785 0.86929 0.0
H1725 H 0.38056 0.91357 0.8849 0.0
C1726 C 0.42624 0.88673 0.8643 0.0
C1727 C 0.4128 0.91781 0.87669 0.0
C1728 C 0.41497 0.94086 0.88179 0.0
C1729 C 0.40682 0.87511 0.86672 0.0
C1730 C 0.39023 0.88497 0.87422 0.0
C1731 C 0.39342 0.90609 0.87919 0.0
C1732 C 0.36935 0.87356 0.87689 0.0
C1733 C 0.40429 0.85222 0.86143 0.0
C1734 C 0.35437 0.86971 0.86695 0.0
C1735 C 0.33501 0.85816 0.86933 0.0
C1736 C 0.3303 0.85023 0.88171 0.0
C1737 C 0.3452 0.85454 0.89172 0.0
C1738 C 0.36454 0.8662 0.88932 0.0
H1739 H 0.42015 0.84542 0.85797 0.0
H1740 H 0.39746 0.84104 0.86883 0.0
H1741 H 0.39266 0.85254 0.85324 0.0
H1742 H 0.35775 0.8755 0.85733 0.0
H1743 H 0.32389 0.85521 0.86141 0.0
H1744 H 0.30214 0.74363 0.39266 0.0
H1745 H 0.31959 0.77894 0.38825 0.0
H1746 H 0.3155 0.76633 0.34761 0.0
H1747 H 0.29762 0.73126 0.35189 0.0
H1748 H 0.35843 0.78634 0.37584 0.0
H1749 H 0.29029 0.82766 0.35005 0.0
H1750 H 0.28636 0.80281 0.35917 0.0
H1751 H 0.29787 0.80167 0.3433 0.0
C1752 C 0.30476 0.74845 0.38278 0.0
C1753 C 0.29839 0.73466 0.37263 0.0
C1754 C 0.31475 0.76862 0.38028 0.0
C1755 C 0.31854 0.77538 0.3676 0.0
C1756 C 0.31225 0.76167 0.35745 0.0
H1757 H 0.38845 0.88775 0.33569 0.0
H1758 H 0.36978 0.85246 0.33861 0.0
C1759 C 0.30213 0.74156 0.35993 0.0
C1760 C 0.32999 0.79635 0.36504 0.0
H1761 H 0.32488 0.84573 0.34988 0.0
C1762 C 0.35106 0.79935 0.37021 0.0
C1763 C 0.32035 0.81325 0.35764 0.0
C1764 C 0.2974 0.81133 0.35231 0.0
C1765 C 0.3628 0.8188 0.36812 0.0
C1766 C 0.35314 0.83567 0.36076 0.0
C1767 C 0.3322 0.83264 0.35547 0.0
C1768 C 0.36421 0.85697 0.35892 0.0
C1769 C 0.38552 0.82115 0.37372 0.0
C1770 C 0.36694 0.87116 0.36936 0.0
C1771 C 0.37745 0.89129 0.36774 0.0
C1772 C 0.38548 0.8976 0.35563 0.0
C1773 C 0.38254 0.88336 0.34515 0.0
C1774 C 0.37187 0.86324 0.34678 0.0
H1775 H 0.39239 0.80511 0.37679 0.0
H1776 H 0.39686 0.82872 0.36665 0.0
H1777 H 0.38477 0.83205 0.38223 0.0
H1778 H 0.36088 0.86666 0.37878 0.0
H1779 H 0.37938 0.90184 0.37602 0.0
H1780 H 0.34496 0.131 0.58535 0.0
H1781 H 0.37864 0.10963 0.5882 0.0
H1782 H 0.36335 0.10103 0.62829 0.0
H1783 H 0.32958 0.12187 0.62552 0.0
H1784 H 0.41346 0.11868 0.60374 0.0
H1785 H 0.37706 0.03885 0.6175 0.0
H1786 H 0.36106 0.06066 0.61047 0.0
H1787 H 0.3674 0.06096 0.62733 0.0
C1788 C 0.34868 0.12441 0.59475 0.0
C1789 C 0.33451 0.12807 0.60519 0.0
C1790 C 0.36792 0.1122 0.59636 0.0
C1791 C 0.37327 0.1034 0.6084 0.0
C1792 C 0.35924 0.10715 0.61884 0.0
H1793 H 0.48656 0.04645 0.64452 0.0
H1794 H 0.45104 0.06283 0.63912 0.0
C1795 C 0.34 0.11923 0.61724 0.0
C1796 C 0.39409 0.09132 0.61029 0.0
H1797 H 0.41541 0.04349 0.62193 0.0
C1798 C 0.41389 0.10214 0.60756 0.0
C1799 C 0.39459 0.06973 0.61527 0.0
C1800 C 0.37388 0.05678 0.61769 0.0
C1801 C 0.43419 0.09222 0.6101 0.0
C1802 C 0.43463 0.07092 0.61542 0.0
C1803 C 0.41491 0.05991 0.61793 0.0
C1804 C 0.45553 0.06 0.61861 0.0
C1805 C 0.45506 0.10475 0.60742 0.0
C1806 C 0.46949 0.05267 0.60884 0.0
C1807 C 0.48971 0.04324 0.61186 0.0
C1808 C 0.49632 0.04104 0.62474 0.0
C1809 C 0.48201 0.04798 0.63452 0.0
C1810 C 0.46172 0.0573 0.63147 0.0
H1811 H 0.45184 0.12226 0.60516 0.0
H1812 H 0.46629 0.10386 0.6158 0.0
H1813 H 0.46361 0.09723 0.59911 0.0
H1814 H 0.46482 0.05448 0.59886 0.0
H1815 H 0.5003 0.03805 0.60409 0.0
H1816 H 0.10879 0.07958 0.87475 0.0
H1817 H 0.12905 0.11375 0.87743 0.0
H1818 H 0.12469 0.12593 0.83675 0.0
H1819 H 0.10386 0.09192 0.83398 0.0
H1820 H 0.16807 0.12753 0.86734 0.0
H1821 H 0.10016 0.18219 0.85173 0.0
H1822 H 0.09602 0.1535 0.85517 0.0
H1823 H 0.10786 0.16183 0.84013 0.0
C1824 C 0.1121 0.08948 0.86634 0.0
C1825 C 0.10452 0.08309 0.85416 0.0
C1826 C 0.12373 0.10901 0.8679 0.0
C1827 C 0.12806 0.12254 0.85733 0.0
C1828 C 0.12107 0.11596 0.84508 0.0
H1829 H 0.19264 0.2495 0.85261 0.0
H1830 H 0.17735 0.21344 0.84769 0.0
C1831 C 0.10927 0.09647 0.84352 0.0
C1832 C 0.13978 0.14358 0.85924 0.0
H1833 H 0.13421 0.19905 0.85629 0.0
C1834 C 0.16069 0.14317 0.86491 0.0
C1835 C 0.13006 0.16395 0.85609 0.0
C1836 C 0.10722 0.16551 0.85055 0.0
C1837 C 0.17215 0.16263 0.86752 0.0
C1838 C 0.16235 0.18294 0.86445 0.0
C1839 C 0.14163 0.18337 0.8586 0.0
C1840 C 0.17303 0.20404 0.86753 0.0
C1841 C 0.19467 0.16138 0.87349 0.0
C1842 C 0.17566 0.2106 0.88033 0.0
C1843 C 0.18429 0.23126 0.88321 0.0
C1844 C 0.19043 0.24568 0.8733 0.0
C1845 C 0.18813 0.23881 0.86048 0.0
C1846 C 0.17939 0.21822 0.85763 0.0
H1847 H 0.20181 0.14467 0.87271 0.0
H1848 H 0.20601 0.17326 0.86886 0.0
H1849 H 0.19349 0.16566 0.88381 0.0
H1850 H 0.17054 0.19994 0.88809 0.0
H1851 H 0.18581 0.23604 0.89317 0.0
H1852 H 0.15657 0.86927 0.12157 0.0
H1853 H 0.12165 0.88838 0.12405 0.0
H1854 H 0.09879 0.86084 0.08838 0.0
H1855 H 0.13377 0.84146 0.08578 0.0
H1856 H 0.09975 0.91878 0.10679 0.0
H1857 H 0.05261 0.84215 0.11609 0.0
H1858 H 0.08218 0.8433 0.11714 0.0
H1859 H 0.06902 0.84276 0.10174 0.0
C1860 C 0.1442 0.8673 0.11419 0.0
C1861 C 0.1479 0.85367 0.10352 0.0
C1862 C 0.12428 0.8783 0.11562 0.0
C1863 C 0.10764 0.87579 0.10647 0.0
C1864 C 0.11141 0.86274 0.09561 0.0
H1865 H 0.9848 0.94892 0.10425 0.0
H1866 H 0.02022 0.9325 0.09888 0.0
C1867 C 0.13141 0.85176 0.09413 0.0
C1868 C 0.08614 0.88636 0.10861 0.0
H1869 H 0.03277 0.87531 0.11619 0.0
C1870 C 0.08505 0.90933 0.10876 0.0
C1871 C 0.06714 0.87388 0.11132 0.0
C1872 C 0.06767 0.84915 0.11167 0.0
C1873 C 0.06535 0.92022 0.11161 0.0
C1874 C 0.04635 0.90773 0.11429 0.0
C1875 C 0.04742 0.88477 0.11408 0.0
C1876 C 0.02525 0.91819 0.11763 0.0
C1877 C 0.06509 0.94494 0.11206 0.0
C1878 C 0.01633 0.91537 0.12992 0.0
C1879 C -0.0039 0.92473 0.13305 0.0
C1880 C 0.98436 0.9369 0.12387 0.0
C1881 C -0.00657 0.9397 0.11156 0.0
C1882 C 0.0137 0.93041 0.10847 0.0
H1883 H 0.08193 0.95194 0.1122 0.0
H1884 H 0.0565 0.9513 0.10344 0.0
H1885 H 0.05606 0.9508 0.12065 0.0
H1886 H 0.02504 0.9059 0.13709 0.0
H1887 H 0.98957 0.92219 0.1426 0.0
H1888 H 0.69161 0.73331 0.8532 0.0
H1889 H 0.67524 0.76887 0.84822 0.0
H1890 H 0.66761 0.78211 0.88859 0.0
H1891 H 0.68395 0.74652 0.89373 0.0
H1892 H 0.63153 0.78216 0.85673 0.0
H1893 H 0.69777 0.83814 0.87324 0.0
H1894 H 0.70266 0.80967 0.86937 0.0
H1895 H 0.68996 0.81692 0.88432 0.0
C1896 C 0.68669 0.74385 0.86105 0.0
C1897 C 0.68909 0.73705 0.87388 0.0
C1898 C 0.67731 0.76414 0.85816 0.0
C1899 C 0.67043 0.77811 0.86804 0.0
C1900 C 0.67312 0.77162 0.88085 0.0
H1901 H 0.60379 0.90092 0.87578 0.0
H1902 H 0.62438 0.86693 0.87823 0.0
C1903 C 0.68237 0.75125 0.88376 0.0
C1904 C 0.65925 0.79893 0.86494 0.0
H1905 H 0.66359 0.85444 0.86796 0.0
C1906 C 0.63856 0.79801 0.85907 0.0
C1907 C 0.66855 0.81946 0.86804 0.0
C1908 C 0.69104 0.82126 0.874 0.0
C1909 C 0.62649 0.81715 0.85662 0.0
C1910 C 0.63568 0.83774 0.85985 0.0
C1911 C 0.6566 0.83863 0.86549 0.0
C1912 C 0.62341 0.85849 0.85808 0.0
C1913 C 0.6037 0.81507 0.85107 0.0
C1914 C 0.61622 0.86517 0.84589 0.0
C1915 C 0.60422 0.88457 0.84446 0.0
C1916 C 0.59948 0.89776 0.85518 0.0
C1917 C 0.60711 0.89118 0.86732 0.0
C1918 C 0.61893 0.87175 0.86874 0.0
H1919 H 0.59709 0.79818 0.85215 0.0
H1920 H 0.59219 0.82669 0.85576 0.0
H1921 H 0.60424 0.81895 0.84068 0.0
H1922 H 0.61993 0.85541 0.83749 0.0
H1923 H 0.59876 0.88927 0.83496 0.0
H1924 H 0.00443 0.94244 0.60367 0.0
H1925 H 0.96871 0.9273 0.59762 0.0
H1926 H 0.95197 0.91959 0.63755 0.0
H1927 H 0.98763 0.93467 0.64374 0.0
H1928 H 0.95311 0.88401 0.60559 0.0
H1929 H 0.89832 0.95195 0.62092 0.0
H1930 H 0.92724 0.95582 0.61779 0.0
H1931 H 0.9184 0.94348 0.63255 0.0
C1932 C -0.00692 0.93774 0.61118 0.0
C1933 C -0.00112 0.93976 0.6242 0.0
C1934 C 0.97272 0.92908 0.60769 0.0
C1935 C 0.95771 0.92258 0.61715 0.0
C1936 C 0.96327 0.92484 0.63013 0.0
H1937 H 0.83378 0.85869 0.62392 0.0
H1938 H 0.86787 0.87923 0.62631 0.0
C1939 C 0.98368 0.93335 0.63364 0.0
C1940 C 0.93674 0.91221 0.61348 0.0
H1941 H 0.88121 0.91805 0.61575 0.0
C1942 C 0.93734 0.8915 0.60766 0.0
C1943 C 0.91632 0.9221 0.61624 0.0
C1944 C 0.9149 0.94465 0.62212 0.0
C1945 C 0.91797 0.87992 0.605 0.0
C1946 C 0.89749 0.88964 0.60797 0.0
C1947 C 0.89693 0.91065 0.61348 0.0
C1948 C 0.87652 0.87775 0.6062 0.0
C1949 C 0.91966 0.85703 0.59957 0.0
C1950 C 0.86991 0.87037 0.59404 0.0
C1951 C 0.85047 0.85839 0.59264 0.0
C1952 C 0.83719 0.85388 0.60336 0.0
C1953 C 0.84362 0.86183 0.61546 0.0
C1954 C 0.86309 0.87362 0.61685 0.0
H1955 H 0.93641 0.85011 0.60075 0.0
H1956 H 0.90774 0.84585 0.60428 0.0
H1957 H 0.91589 0.85749 0.58917 0.0
H1958 H 0.87981 0.87381 0.58565 0.0
H1959 H 0.84588 0.85269 0.58318 0.0
H1960 H 0.79051 0.25056 0.35504 0.0
H1961 H 0.80655 0.21514 0.34939 0.0
H1962 H 0.81459 0.19986 0.38949 0.0
H1963 H 0.7986 0.23533 0.3953 0.0
H1964 H 0.85049 0.20113 0.35773 0.0
H1965 H 0.78355 0.14494 0.37307 0.0
H1966 H 0.77892 0.1736 0.3696 0.0
H1967 H 0.79148 0.16563 0.38446 0.0
C1968 C 0.79545 0.23961 0.36269 0.0
C1969 C 0.79328 0.24579 0.37564 0.0
C1970 C 0.80464 0.2194 0.35942 0.0
C1971 C 0.81156 0.20492 0.36903 0.0
C1972 C 0.80907 0.21078 0.38196 0.0
H1973 H 0.8763 0.08061 0.37391 0.0
H1974 H 0.8564 0.1148 0.37722 0.0
C1975 C 0.80001 0.23107 0.38525 0.0
C1976 C 0.82252 0.18419 0.36553 0.0
H1977 H 0.81742 0.1286 0.36728 0.0
C1978 C 0.84325 0.18523 0.35971 0.0
C1979 C 0.81294 0.1636 0.36817 0.0
C1980 C 0.79042 0.16173 0.37408 0.0
C1981 C 0.85507 0.16612 0.35683 0.0
C1982 C 0.84558 0.14546 0.35957 0.0
C1983 C 0.82464 0.14446 0.36518 0.0
C1984 C 0.85753 0.12468 0.35729 0.0
C1985 C 0.87791 0.16827 0.35135 0.0
C1986 C 0.8646 0.11877 0.34495 0.0
C1987 C 0.87621 0.09926 0.34302 0.0
C1988 C 0.88066 0.0852 0.3534 0.0
C1989 C 0.87317 0.09103 0.3657 0.0
C1990 C 0.86176 0.11057 0.36762 0.0
H1991 H 0.88476 0.18496 0.35285 0.0
H1992 H 0.88923 0.15614 0.35575 0.0
H1993 H 0.87734 0.16516 0.34087 0.0
H1994 H 0.86108 0.1292 0.3368 0.0
H1995 H 0.88157 0.09515 0.33341 0.0
H1996 H 0.66742 0.10386 0.11605 0.0
H1997 H 0.63395 0.08255 0.11953 0.0
H1998 H 0.59687 0.13066 0.09822 0.0
H1999 H 0.63057 0.15122 0.09404 0.0
H2000 H 0.59962 0.09165 0.13215 0.0
H2001 H 0.57288 0.07726 0.08227 0.0
H2002 H 0.59953 0.0884 0.08601 0.0
H2003 H 0.57579 0.10603 0.08523 0.0
C2004 C 0.65214 0.10968 0.11196 0.0
C2005 C 0.65155 0.12909 0.10471 0.0
C2006 C 0.63302 0.09753 0.11396 0.0
C2007 C 0.61287 0.10474 0.10895 0.0
C2008 C 0.61227 0.12428 0.1018 0.0
H2009 H 0.48669 0.07003 0.14124 0.0
H2010 H 0.52258 0.08584 0.13637 0.0
C2011 C 0.63151 0.13614 0.09951 0.0
C2012 C 0.59235 0.09255 0.11191 0.0
H2013 H 0.54538 0.0724 0.09855 0.0
C2014 C 0.58791 0.08719 0.12476 0.0
C2015 C 0.57718 0.08631 0.10228 0.0
C2016 C 0.58173 0.08959 0.08818 0.0
C2017 C 0.56857 0.07627 0.12829 0.0
C2018 C 0.55268 0.07149 0.11878 0.0
C2019 C 0.55736 0.07634 0.10589 0.0
C2020 C 0.53103 0.06166 0.12195 0.0
C2021 C 0.56569 0.06964 0.14214 0.0
C2022 C 0.52339 0.0433 0.11515 0.0
C2023 C 0.50256 0.0347 0.11763 0.0
C2024 C 0.48915 0.04408 0.12712 0.0
C2025 C 0.49687 0.06227 0.13403 0.0
C2026 C 0.51746 0.07121 0.13131 0.0
H2027 H 0.58181 0.06721 0.14692 0.0
H2028 H 0.55698 0.08289 0.14736 0.0
H2029 H 0.55605 0.05426 0.14304 0.0
H2030 H 0.53349 0.03567 0.10785 0.0
H2031 H 0.49699 0.02066 0.11217 0.0
H2032 H 0.68139 0.2352 0.59393 0.0
H2033 H 0.66499 0.19943 0.59874 0.0
H2034 H 0.66953 0.21299 0.63923 0.0
H2035 H 0.68595 0.24868 0.6346 0.0
H2036 H 0.68374 0.16429 0.61606 0.0
H2037 H 0.60291 0.19788 0.63142 0.0
H2038 H 0.62167 0.21314 0.62138 0.0
H2039 H 0.62706 0.21029 0.63822 0.0
C2040 C 0.67896 0.23056 0.60387 0.0
C2041 C 0.68491 0.24484 0.61388 0.0
C2042 C 0.66963 0.21014 0.60658 0.0
C2043 C 0.66591 0.20378 0.61932 0.0
C2044 C 0.6721 0.21778 0.62934 0.0
H2045 H 0.59807 0.0914 0.6524 0.0
H2046 H 0.61814 0.1258 0.64932 0.0
C2047 C 0.68155 0.23812 0.62665 0.0
C2048 C 0.65539 0.18253 0.62217 0.0
H2049 H 0.60795 0.15971 0.63332 0.0
C2050 C 0.66718 0.16321 0.61983 0.0
C2051 C 0.63388 0.18133 0.62719 0.0
C2052 C 0.62048 0.20171 0.62965 0.0
C2053 C 0.658 0.14258 0.62243 0.0
C2054 C 0.63627 0.14133 0.6272 0.0
C2055 C 0.6246 0.16072 0.62968 0.0
C2056 C 0.62499 0.12009 0.62922 0.0
C2057 C 0.67179 0.12237 0.62025 0.0
C2058 C 0.62204 0.1056 0.61892 0.0
C2059 C 0.61072 0.08594 0.62066 0.0
C2060 C 0.60184 0.08048 0.6327 0.0
C2061 C 0.60472 0.09508 0.64301 0.0
C2062 C 0.61618 0.11474 0.64127 0.0
H2063 H 0.68961 0.12625 0.62052 0.0
H2064 H 0.66827 0.10959 0.62755 0.0
H2065 H 0.66802 0.11553 0.61064 0.0
H2066 H 0.62819 0.10967 0.60947 0.0
H2067 H 0.60866 0.07519 0.61248 0.0
H2068 H 0.48435 0.94421 0.38412 0.0
H2069 H 0.51989 0.92772 0.38909 0.0
H2070 H 0.53325 0.92034 0.34871 0.0
H2071 H 0.49766 0.93676 0.34358 0.0
H2072 H 0.53243 0.88368 0.38005 0.0
H2073 H 0.58972 0.94964 0.36462 0.0
H2074 H 0.56133 0.95488 0.36862 0.0
H2075 H 0.56824 0.94259 0.35351 0.0
C2076 C 0.49493 0.93935 0.37626 0.0
C2077 C 0.48814 0.94177 0.36343 0.0
C2078 C 0.51521 0.92991 0.37914 0.0
C2079 C 0.52916 0.923 0.36926 0.0
C2080 C 0.52275 0.92585 0.35645 0.0
H2081 H 0.65234 0.85578 0.36273 0.0
H2082 H 0.61843 0.87636 0.35973 0.0
C2083 C 0.50239 0.93515 0.35355 0.0
C2084 C 0.54978 0.91147 0.37236 0.0
H2085 H 0.60547 0.91533 0.37 0.0
C2086 C 0.54844 0.8906 0.37796 0.0
C2087 C 0.57051 0.92062 0.36955 0.0
C2088 C 0.57269 0.94323 0.36382 0.0
C2089 C 0.56739 0.87828 0.38049 0.0
C2090 C 0.5882 0.88738 0.37763 0.0
C2091 C 0.58949 0.90842 0.3722 0.0
C2092 C 0.60879 0.87499 0.37969 0.0
C2093 C 0.56488 0.85536 0.38576 0.0
C2094 C 0.61473 0.86756 0.39195 0.0
C2095 C 0.63406 0.85556 0.3937 0.0
C2096 C 0.64792 0.85108 0.38323 0.0
C2097 C 0.64206 0.85891 0.37101 0.0
C2098 C 0.62269 0.87072 0.36926 0.0
H2099 H 0.54802 0.84889 0.38427 0.0
H2100 H 0.57673 0.84394 0.38119 0.0
H2101 H 0.56814 0.85556 0.39623 0.0
H2102 H 0.60448 0.87111 0.40018 0.0
H2103 H 0.63821 0.84995 0.40326 0.0
H2104 H 0.79567 0.74622 0.09046 0.0
H2105 H 0.8113 0.78253 0.09442 0.0
H2106 H 0.80983 0.77035 0.13517 0.0
H2107 H 0.79369 0.73429 0.13134 0.0
H2108 H 0.79619 0.81179 0.12919 0.0
H2109 H 0.8747 0.79276 0.10452 0.0
H2110 H 0.85092 0.78912 0.09459 0.0
H2111 H 0.85477 0.77192 0.10843 0.0
C2112 C 0.79859 0.75129 0.10027 0.0
C2113 C 0.7936 0.73729 0.11058 0.0
C2114 C 0.80764 0.772 0.10251 0.0
C2115 C 0.81215 0.77891 0.11507 0.0
C2116 C 0.80658 0.76525 0.12539 0.0
H2117 H 0.88015 0.88866 0.14984 0.0
H2118 H 0.85963 0.85485 0.14571 0.0
C2119 C 0.79737 0.74464 0.12318 0.0
C2120 C 0.82298 0.80024 0.1175 0.0
H2121 H 0.86957 0.82951 0.11129 0.0
C2122 C 0.81225 0.81566 0.1253 0.0
C2123 C 0.844 0.80517 0.11247 0.0
C2124 C 0.85689 0.78881 0.10464 0.0
C2125 C 0.82189 0.83602 0.12807 0.0
C2126 C 0.84278 0.84095 0.12295 0.0
C2127 C 0.85348 0.82561 0.11513 0.0
C2128 C 0.85399 0.8619 0.12565 0.0
C2129 C 0.80963 0.85225 0.13631 0.0
C2130 C 0.85765 0.8769 0.1157 0.0
C2131 C 0.86931 0.8962 0.118 0.0
C2132 C 0.87775 0.90073 0.13029 0.0
C2133 C 0.87389 0.88568 0.14027 0.0
C2134 C 0.86208 0.86642 0.13796 0.0
H2135 H 0.79211 0.84762 0.13754 0.0
H2136 H 0.81738 0.85294 0.14594 0.0
H2137 H 0.81049 0.86893 0.13206 0.0
H2138 H 0.8516 0.87357 0.10612 0.0
H2139 H 0.872 0.90739 0.11008 0.0
H2140 H -0.00668 0.06021 0.84163 0.0
H2141 H 0.9575 0.07685 0.84599 0.0
H2142 H 0.95987 0.05277 0.88485 0.0
H2143 H -0.00436 0.0361 0.88065 0.0
H2144 H 0.91825 0.04604 0.87051 0.0
H2145 H 0.94948 0.13184 0.87028 0.0
H2146 H 0.95703 0.11493 0.85684 0.0
H2147 H 0.96728 0.10846 0.87253 0.0
C2148 C 0.98619 0.05836 0.85109 0.0
C2149 C -0.00261 0.04692 0.86081 0.0
C2150 C 0.96579 0.06794 0.85357 0.0
C2151 C 0.95625 0.06617 0.86576 0.0
C2152 C 0.96708 0.05434 0.87539 0.0
H2153 H 0.84905 0.13986 0.89928 0.0
H2154 H 0.88348 0.12039 0.89521 0.0
C2155 C 0.98752 0.04488 0.87296 0.0
C2156 C 0.93508 0.0769 0.86858 0.0
H2157 H 0.91117 0.12704 0.87251 0.0
C2158 C 0.91664 0.06373 0.87094 0.0
C2159 C 0.93323 0.09996 0.86927 0.0
C2160 C 0.95279 0.11472 0.86719 0.0
C2161 C 0.89619 0.07312 0.87382 0.0
C2162 C 0.89426 0.09619 0.87428 0.0
C2163 C 0.91277 0.10934 0.87209 0.0
C2164 C 0.8731 0.10708 0.87696 0.0
C2165 C 0.87684 0.05835 0.87647 0.0
C2166 C 0.85597 0.106 0.86802 0.0
C2167 C 0.83633 0.11717 0.87026 0.0
C2168 C 0.83349 0.1296 0.88152 0.0
C2169 C 0.85066 0.1304 0.89054 0.0
C2170 C 0.87035 0.11933 0.88823 0.0
H2171 H 0.882 0.04114 0.87827 0.0
H2172 H 0.86742 0.06433 0.88489 0.0
H2173 H 0.8657 0.05847 0.86805 0.0
H2174 H 0.85794 0.09683 0.85919 0.0
H2175 H 0.82347 0.11621 0.86312 0.0
H2176 H 0.81393 0.7419 0.5921 0.0
H2177 H 0.83012 0.70606 0.59685 0.0
H2178 H 0.80685 0.7104 0.63582 0.0
H2179 H 0.79061 0.74617 0.63123 0.0
H2180 H 0.86238 0.69742 0.61709 0.0
H2181 H 0.78529 0.6493 0.62231 0.0
H2182 H 0.78636 0.67521 0.61393 0.0
H2183 H 0.7866 0.67461 0.63115 0.0
C2184 C 0.81211 0.73518 0.60166 0.0
C2185 C 0.80094 0.74689 0.61128 0.0
C2186 C 0.82141 0.71474 0.60435 0.0
C2187 C 0.81948 0.70559 0.61664 0.0
C2188 C 0.80825 0.71712 0.62624 0.0
H2189 H 0.89485 0.59832 0.64977 0.0
H2190 H 0.87617 0.63328 0.64594 0.0
C2191 C 0.79906 0.73759 0.62359 0.0
C2192 C 0.82985 0.68429 0.61956 0.0
H2193 H 0.81848 0.63125 0.62763 0.0
C2194 C 0.85283 0.68293 0.61939 0.0
C2195 C 0.81725 0.66548 0.62249 0.0
C2196 C 0.79249 0.66604 0.62241 0.0
C2197 C 0.8636 0.66318 0.62219 0.0
C2198 C 0.85102 0.64445 0.62531 0.0
C2199 C 0.82803 0.64575 0.62536 0.0
C2200 C 0.86147 0.6231 0.62801 0.0
C2201 C 0.88834 0.66235 0.62159 0.0
C2202 C 0.85892 0.60574 0.61934 0.0
C2203 C 0.86955 0.58581 0.62148 0.0
C2204 C 0.88281 0.58282 0.63239 0.0
C2205 C 0.88481 0.60009 0.64126 0.0
C2206 C 0.87424 0.62009 0.63907 0.0
H2207 H 0.89535 0.67705 0.6168 0.0
H2208 H 0.89503 0.66153 0.63148 0.0
H2209 H 0.89388 0.64748 0.61637 0.0
H2210 H 0.84904 0.60777 0.61078 0.0
H2211 H 0.86754 0.57283 0.61449 0.0
H2212 H 0.65266 0.62631 0.86134 0.0
H2213 H 0.61881 0.60545 0.85877 0.0
H2214 H 0.60568 0.61163 0.89927 0.0
H2215 H 0.63937 0.63306 0.90192 0.0
H2216 H 0.60624 0.56661 0.86955 0.0
H2217 H 0.54881 0.6333 0.88351 0.0
H2218 H 0.57745 0.63827 0.88018 0.0
H2219 H 0.56923 0.62689 0.89535 0.0
C2220 C 0.64258 0.62332 0.86972 0.0
C2221 C 0.64866 0.6315 0.88183 0.0
C2222 C 0.62324 0.61135 0.86823 0.0
C2223 C 0.60959 0.60725 0.87879 0.0
C2224 C 0.61574 0.61503 0.89094 0.0
H2225 H 0.48389 0.53899 0.88227 0.0
H2226 H 0.51936 0.5551 0.88791 0.0
C2227 C 0.63505 0.62719 0.89244 0.0
C2228 C 0.58899 0.59474 0.87696 0.0
H2229 H 0.53321 0.59861 0.8792 0.0
C2230 C 0.59027 0.57358 0.87169 0.0
C2231 C 0.56819 0.6039 0.87976 0.0
C2232 C 0.56572 0.6269 0.8849 0.0
C2233 C 0.57127 0.56139 0.86905 0.0
C2234 C 0.55054 0.57067 0.87169 0.0
C2235 C 0.54922 0.59159 0.87723 0.0
C2236 C 0.52991 0.55939 0.86827 0.0
C2237 C 0.57346 0.53869 0.86345 0.0
C2238 C 0.52422 0.55646 0.85535 0.0
C2239 C 0.50393 0.54739 0.85207 0.0
C2240 C 0.489 0.54108 0.86168 0.0
C2241 C 0.49502 0.54361 0.87463 0.0
C2242 C 0.51525 0.55283 0.87789 0.0
H2243 H 0.59033 0.53206 0.86464 0.0
H2244 H 0.56162 0.52724 0.86801 0.0
H2245 H 0.56974 0.53933 0.85303 0.0
H2246 H 0.53526 0.56173 0.8478 0.0
H2247 H 0.49981 0.54569 0.84201 0.0
H2248 H 0.61943 0.40718 0.11657 0.0
H2249 H 0.63913 0.37267 0.11373 0.0
H2250 H 0.61191 0.34833 0.14915 0.0
H2251 H 0.592 0.38288 0.15213 0.0
H2252 H 0.66986 0.35031 0.13115 0.0
H2253 H 0.59361 0.30332 0.12046 0.0
H2254 H 0.59473 0.33288 0.11967 0.0
H2255 H 0.59373 0.31935 0.13495 0.0
C2256 C 0.61768 0.39457 0.12382 0.0
C2257 C 0.60398 0.39772 0.13453 0.0
C2258 C 0.62901 0.3749 0.12218 0.0
C2259 C 0.62675 0.35797 0.13116 0.0
C2260 C 0.61364 0.3612 0.14206 0.0
H2261 H 0.69924 0.23489 0.13276 0.0
H2262 H 0.68297 0.27029 0.13832 0.0
C2263 C 0.60236 0.38095 0.14375 0.0
C2264 C 0.63752 0.33668 0.12879 0.0
H2265 H 0.6269 0.28366 0.12037 0.0
C2266 C 0.66053 0.33567 0.12888 0.0
C2267 C 0.62519 0.31778 0.12568 0.0
C2268 C 0.60045 0.31825 0.12507 0.0
C2269 C 0.67158 0.31614 0.12592 0.0
C2270 C 0.65924 0.29724 0.12284 0.0
C2271 C 0.63625 0.29824 0.12278 0.0
C2272 C 0.66986 0.27631 0.11937 0.0
C2273 C 0.69635 0.31591 0.12579 0.0
C2274 C 0.66772 0.26802 0.10689 0.0
C2275 C 0.677 0.24784 0.10366 0.0
C2276 C 0.68839 0.2355 0.11291 0.0
C2277 C 0.6906 0.24398 0.1254 0.0
C2278 C 0.6814 0.26423 0.1286 0.0
H2279 H 0.70335 0.33273 0.12611 0.0
H2280 H 0.70239 0.30674 0.13428 0.0
H2281 H 0.70253 0.30746 0.11707 0.0
H2282 H 0.65877 0.27715 0.09967 0.0
H2283 H 0.67494 0.24177 0.09397 0.0
H2284 H 0.84706 0.34448 0.40419 0.0
H2285 H 0.88173 0.36425 0.4013 0.0
H2286 H 0.86515 0.37658 0.36173 0.0
H2287 H 0.83044 0.35735 0.36455 0.0
H2288 H 0.91557 0.35496 0.38486 0.0
H2289 H 0.88192 0.43724 0.37406 0.0
H2290 H 0.86539 0.41555 0.38082 0.0
H2291 H 0.87072 0.41641 0.36383 0.0
C2292 C 0.85073 0.35154 0.3949 0.0
C2293 C 0.83591 0.34943 0.38462 0.0
C2294 C 0.87053 0.36283 0.39327 0.0
C2295 C 0.8758 0.37224 0.38137 0.0
C2296 C 0.86115 0.36997 0.37109 0.0
H2297 H 0.98771 0.42852 0.34386 0.0
H2298 H 0.9526 0.41202 0.34998 0.0
C2299 C 0.84135 0.35881 0.37271 0.0
C2300 C 0.89704 0.38358 0.37945 0.0
H2301 H 0.9197 0.43132 0.36858 0.0
C2302 C 0.9165 0.37175 0.38147 0.0
C2303 C 0.89818 0.40551 0.37505 0.0
C2304 C 0.87794 0.41949 0.37344 0.0
C2305 C 0.93706 0.381 0.37872 0.0
C2306 C 0.9381 0.40263 0.37392 0.0
C2307 C 0.91873 0.41465 0.37218 0.0
C2308 C 0.95918 0.41289 0.37035 0.0
C2309 C 0.95751 0.36743 0.38059 0.0
C2310 C 0.97427 0.41902 0.37984 0.0
C2311 C -0.00572 0.42855 0.3764 0.0
C2312 C -0.00047 0.43203 0.36341 0.0
C2313 C 0.98422 0.42601 0.35395 0.0
C2314 C 0.96416 0.41661 0.35741 0.0
H2315 H 0.95368 0.34994 0.38258 0.0
H2316 H 0.96813 0.36836 0.37194 0.0
H2317 H 0.96701 0.37405 0.38881 0.0
H2318 H 0.97056 0.41643 0.38989 0.0
H2319 H 0.00569 0.43299 0.38393 0.0
H2320 H 0.85433 0.41224 0.86339 0.0
H2321 H 0.83513 0.37763 0.86712 0.0
H2322 H 0.88633 0.34291 0.84696 0.0
H2323 H 0.90488 0.37773 0.84252 0.0
H2324 H 0.84891 0.3258 0.84119 0.0
H2325 H 0.8514 0.33477 0.89395 0.0
H2326 H 0.83685 0.35701 0.88664 0.0
H2327 H 0.86569 0.35329 0.88339 0.0
C2328 C 0.86139 0.39721 0.85969 0.0
C2329 C 0.88116 0.39757 0.85277 0.0
C2330 C 0.85052 0.37743 0.86193 0.0
C2331 C 0.85964 0.35756 0.8577 0.0
C2332 C 0.87906 0.358 0.85042 0.0
H2333 H 0.82256 0.23181 0.89004 0.0
H2334 H 0.84039 0.26643 0.88448 0.0
C2335 C 0.88965 0.37787 0.84788 0.0
C2336 C 0.84903 0.33634 0.86091 0.0
H2337 H 0.82841 0.30639 0.88581 0.0
C2338 C 0.84457 0.32148 0.85096 0.0
C2339 C 0.84376 0.33048 0.8737 0.0
C2340 C 0.8499 0.34463 0.88503 0.0
C2341 C 0.8348 0.30106 0.8534 0.0
C2342 C 0.82838 0.29576 0.8661 0.0
C2343 C 0.83303 0.31054 0.87605 0.0
C2344 C 0.8174 0.27475 0.86938 0.0
C2345 C 0.83213 0.28521 0.84239 0.0
C2346 C 0.79834 0.26801 0.8629 0.0
C2347 C 0.78846 0.24796 0.86586 0.0
C2348 C 0.79703 0.23467 0.87566 0.0
C2349 C 0.81557 0.2418 0.88248 0.0
C2350 C 0.82577 0.26157 0.87929 0.0
H2351 H 0.84411 0.28863 0.8346 0.0
H2352 H 0.83434 0.26798 0.84557 0.0
H2353 H 0.81543 0.28699 0.83828 0.0
H2354 H 0.79107 0.27824 0.85556 0.0
H2355 H 0.77401 0.24295 0.86056 0.0
H2356 H 0.98639 0.54929 0.14451 0.0
H2357 H 0.95079 0.56545 0.13912 0.0
H2358 H 0.96489 0.55776 0.09884 0.0
H2359 H 0.00047 0.54156 0.10408 0.0
H2360 H 0.95091 0.60136 0.1072 0.0
H2361 H 0.89538 0.53457 0.12348 0.0
H2362 H 0.91631 0.5427 0.13468 0.0
H2363 H 0.92401 0.53003 0.11981 0.0
C2364 C 0.98185 0.55083 0.13451 0.0
C2365 C -0.00372 0.54412 0.12473 0.0
C2366 C 0.96148 0.55998 0.13146 0.0
C2367 C 0.95522 0.56259 0.1186 0.0
C2368 C 0.96944 0.55575 0.10882 0.0
H2369 H 0.8437 0.63213 0.08443 0.0
H2370 H 0.87794 0.61172 0.08736 0.0
C2371 C 0.98974 0.54648 0.11185 0.0
C2372 C 0.93431 0.5735 0.11535 0.0
H2373 H 0.87875 0.56845 0.11799 0.0
C2374 C 0.93509 0.59415 0.10945 0.0
C2375 C 0.91381 0.56397 0.11834 0.0
C2376 C 0.91218 0.54151 0.12434 0.0
C2377 C 0.91583 0.60593 0.10683 0.0
C2378 C 0.89527 0.5965 0.10993 0.0
C2379 C 0.89453 0.57563 0.11562 0.0
C2380 C 0.87436 0.60841 0.10793 0.0
C2381 C 0.91773 0.62868 0.10123 0.0
C2382 C 0.8607 0.61275 0.11846 0.0
C2383 C 0.84106 0.62413 0.1168 0.0
C2384 C 0.83465 0.63146 0.10456 0.0
C2385 C 0.84825 0.62689 0.09399 0.0
C2386 C 0.86788 0.61533 0.09566 0.0
H2387 H 0.9345 0.63553 0.10244 0.0
H2388 H 0.91412 0.62801 0.09081 0.0
H2389 H 0.9058 0.64004 0.10578 0.0
H2390 H 0.86538 0.60751 0.12801 0.0
H2391 H 0.831 0.62735 0.12516 0.0
H2392 H 0.60603 0.57892 0.3763 0.0
H2393 H 0.62552 0.61337 0.3798 0.0
H2394 H 0.61755 0.63011 0.3399 0.0
H2395 H 0.59787 0.59558 0.33623 0.0
H2396 H 0.66297 0.63499 0.35219 0.0
H2397 H 0.59437 0.67581 0.37813 0.0
H2398 H 0.60102 0.64831 0.38304 0.0
H2399 H 0.59006 0.65307 0.3673 0.0
C2400 C 0.6084 0.58986 0.36823 0.0
C2401 C 0.60029 0.58452 0.35598 0.0
C2402 C 0.6195 0.60955 0.37028 0.0
C2403 C 0.62276 0.62424 0.36013 0.0
C2404 C 0.61507 0.61891 0.34784 0.0
H2405 H 0.69033 0.74941 0.35529 0.0
H2406 H 0.67342 0.71405 0.35056 0.0
C2407 C 0.60381 0.59924 0.34579 0.0
C2408 C 0.63411 0.64523 0.36246 0.0
H2409 H 0.62843 0.69428 0.37779 0.0
C2410 C 0.65545 0.64805 0.35772 0.0
C2411 C 0.62419 0.66205 0.36974 0.0
C2412 C 0.60108 0.65985 0.3748 0.0
C2413 C 0.66741 0.66723 0.36032 0.0
C2414 C 0.65748 0.68411 0.3676 0.0
C2415 C 0.63603 0.68127 0.37225 0.0
C2416 C 0.66886 0.70499 0.37046 0.0
C2417 C 0.69074 0.66895 0.35555 0.0
C2418 C 0.67157 0.71182 0.38322 0.0
C2419 C 0.68098 0.73217 0.38597 0.0
C2420 C 0.68784 0.74608 0.37598 0.0
C2421 C 0.68539 0.73903 0.36321 0.0
C2422 C 0.67584 0.71875 0.36048 0.0
H2423 H 0.69785 0.65256 0.35347 0.0
H2424 H 0.69098 0.67859 0.34652 0.0
H2425 H 0.70136 0.67739 0.36266 0.0
H2426 H 0.66619 0.70146 0.39106 0.0
H2427 H 0.68264 0.73708 0.39591 0.0
H2428 H 0.63905 0.3488 0.58535 0.0
H2429 H 0.6053 0.37033 0.58754 0.0
H2430 H 0.61887 0.37979 0.62776 0.0
H2431 H 0.65268 0.35882 0.62566 0.0
H2432 H 0.56983 0.36163 0.60259 0.0
H2433 H 0.6055 0.44169 0.61642 0.0
H2434 H 0.62185 0.41979 0.60977 0.0
H2435 H 0.61484 0.41983 0.62655 0.0
C2436 C 0.63494 0.35563 0.59464 0.0
C2437 C 0.64863 0.35215 0.60532 0.0
C2438 C 0.61567 0.36793 0.59586 0.0
C2439 C 0.60981 0.37701 0.60776 0.0
C2440 C 0.62338 0.37347 0.61842 0.0
H2441 H 0.49541 0.43322 0.6428 0.0
H2442 H 0.5311 0.41701 0.6376 0.0
C2443 C 0.64265 0.36131 0.6172 0.0
C2444 C 0.58889 0.3891 0.60928 0.0
H2445 H 0.56704 0.43689 0.62063 0.0
C2446 C 0.56922 0.3782 0.60636 0.0
C2447 C 0.58816 0.41073 0.6142 0.0
C2448 C 0.60874 0.42377 0.61679 0.0
C2449 C 0.5488 0.38805 0.60869 0.0
C2450 C 0.54812 0.40935 0.61399 0.0
C2451 C 0.56773 0.42047 0.61665 0.0
C2452 C 0.52709 0.42013 0.61707 0.0
C2453 C 0.52806 0.37543 0.60582 0.0
C2454 C 0.51333 0.42754 0.60722 0.0
C2455 C 0.49302 0.43688 0.61014 0.0
C2456 C 0.4861 0.4389 0.62297 0.0
C2457 C 0.5002 0.43184 0.63283 0.0
C2458 C 0.52058 0.42261 0.62989 0.0
H2459 H 0.53142 0.35798 0.60349 0.0
H2460 H 0.5167 0.37613 0.61415 0.0
H2461 H 0.5196 0.38304 0.59751 0.0
H2462 H 0.51823 0.42589 0.59727 0.0
H2463 H 0.4826 0.44217 0.60231 0.0
H2464 H 0.13276 0.41623 0.36353 0.0
H2465 H 0.15458 0.38312 0.36699 0.0
H2466 H 0.10604 0.34508 0.34659 0.0
H2467 H 0.08492 0.3784 0.34244 0.0
H2468 H 0.14541 0.34959 0.38028 0.0
H2469 H 0.15928 0.32001 0.33093 0.0
H2470 H 0.14828 0.34688 0.33418 0.0
H2471 H 0.1305 0.32321 0.33386 0.0
C2472 C 0.127 0.40083 0.35959 0.0
C2473 C 0.10724 0.39984 0.35267 0.0
C2474 C 0.13944 0.38192 0.36158 0.0
C2475 C 0.13217 0.36157 0.3569 0.0
C2476 C 0.11243 0.36062 0.34993 0.0
H2477 H 0.16361 0.23684 0.39137 0.0
H2478 H 0.14908 0.27295 0.38584 0.0
C2479 C 0.10027 0.37965 0.34765 0.0
C2480 C 0.14432 0.34121 0.36019 0.0
H2481 H 0.1636 0.29321 0.34773 0.0
C2482 C 0.14966 0.33742 0.37312 0.0
C2483 C 0.15029 0.32544 0.35086 0.0
C2484 C 0.147 0.32923 0.33668 0.0
C2485 C 0.1602 0.31811 0.37701 0.0
C2486 C 0.16462 0.30161 0.36782 0.0
C2487 C 0.15991 0.30567 0.35484 0.0
C2488 C 0.17378 0.27992 0.37144 0.0
C2489 C 0.16675 0.31584 0.39092 0.0
C2490 C 0.19204 0.27141 0.36489 0.0
C2491 C 0.19994 0.25048 0.36777 0.0
C2492 C 0.18993 0.23781 0.37738 0.0
C2493 C 0.17186 0.24641 0.38405 0.0
C2494 C 0.16364 0.26713 0.38096 0.0
H2495 H 0.16959 0.33214 0.39538 0.0
H2496 H 0.15326 0.30778 0.39629 0.0
H2497 H 0.18189 0.30589 0.39201 0.0
H2498 H 0.20011 0.2809 0.35747 0.0
H2499 H 0.21392 0.24424 0.36248 0.0
H2500 H 0.34572 0.34411 0.08509 0.0
H2501 H 0.38042 0.3635 0.08853 0.0
H2502 H 0.36556 0.3694 0.12884 0.0
H2503 H 0.33073 0.35054 0.12548 0.0
H2504 H 0.38024 0.40786 0.11849 0.0
H2505 H 0.43561 0.33921 0.10512 0.0
H2506 H 0.41602 0.3464 0.09297 0.0
H2507 H 0.40666 0.33534 0.10799 0.0
C2508 C 0.34988 0.34947 0.09469 0.0
C2509 C 0.33548 0.3457 0.10501 0.0
C2510 C 0.36976 0.36044 0.09665 0.0
C2511 C 0.3757 0.36757 0.10897 0.0
C2512 C 0.36131 0.36396 0.11926 0.0
H2513 H 0.48731 0.42892 0.14533 0.0
H2514 H 0.45206 0.41177 0.14022 0.0
C2515 C 0.34141 0.35315 0.11731 0.0
C2516 C 0.3967 0.37918 0.11121 0.0
H2517 H 0.45236 0.37355 0.10925 0.0
C2518 C 0.39601 0.40036 0.11649 0.0
C2519 C 0.41724 0.36932 0.10858 0.0
C2520 C 0.41903 0.34625 0.10346 0.0
C2521 C 0.41534 0.41198 0.11918 0.0
C2522 C 0.43581 0.40208 0.1166 0.0
C2523 C 0.43655 0.38105 0.11118 0.0
C2524 C 0.45673 0.41314 0.11966 0.0
C2525 C 0.41376 0.43482 0.12466 0.0
C2526 C 0.471 0.41939 0.10978 0.0
C2527 C 0.4911 0.42923 0.11265 0.0
C2528 C 0.49739 0.43276 0.12547 0.0
C2529 C 0.48297 0.42649 0.13536 0.0
C2530 C 0.46279 0.41677 0.13247 0.0
H2531 H 0.39702 0.4418 0.12357 0.0
H2532 H 0.41776 0.4343 0.13504 0.0
H2533 H 0.42572 0.44593 0.11992 0.0
H2534 H 0.46658 0.41661 0.09984 0.0
H2535 H 0.50184 0.43377 0.1048 0.0
H2536 H 0.32269 0.74882 0.89086 0.0
H2537 H 0.34224 0.71513 0.88537 0.0
H2538 H 0.29333 0.70046 0.85665 0.0
H2539 H 0.27449 0.73485 0.8616 0.0
H2540 H 0.33245 0.67467 0.88691 0.0
H2541 H 0.34663 0.69242 0.83558 0.0
H2542 H 0.33596 0.71272 0.84648 0.0
H2543 H 0.31792 0.69275 0.8393 0.0
C2544 C 0.31614 0.73839 0.88336 0.0
C2545 C 0.29718 0.74447 0.87659 0.0
C2546 C 0.32734 0.71917 0.88021 0.0
C2547 C 0.31958 0.70546 0.87037 0.0
C2548 C 0.30012 0.71112 0.86394 0.0
H2549 H 0.35936 0.56929 0.86453 0.0
H2550 H 0.34031 0.60382 0.86859 0.0
C2551 C 0.28923 0.73065 0.86687 0.0
C2552 C 0.33156 0.68499 0.86714 0.0
H2553 H 0.3527 0.65538 0.84224 0.0
C2554 C 0.33703 0.67057 0.87714 0.0
C2555 C 0.33799 0.67978 0.85444 0.0
C2556 C 0.33454 0.69537 0.84337 0.0
C2557 C 0.34841 0.651 0.87481 0.0
C2558 C 0.35354 0.64511 0.86201 0.0
C2559 C 0.34844 0.65969 0.85202 0.0
C2560 C 0.36433 0.62399 0.8588 0.0
C2561 C 0.35529 0.63723 0.88616 0.0
C2562 C 0.38346 0.62362 0.85125 0.0
C2563 C 0.39398 0.60377 0.84855 0.0
C2564 C 0.38571 0.58403 0.85352 0.0
C2565 C 0.36628 0.58435 0.86077 0.0
C2566 C 0.35549 0.60409 0.86319 0.0
H2567 H 0.35695 0.64735 0.89497 0.0
H2568 H 0.34253 0.62465 0.88806 0.0
H2569 H 0.37116 0.62883 0.88437 0.0
H2570 H 0.39051 0.63874 0.84766 0.0
H2571 H 0.40894 0.60395 0.84294 0.0
H2572 H 0.98374 0.54133 0.60416 0.0
H2573 H 0.01909 0.5583 0.59917 0.0
H2574 H 0.0324 0.56582 0.63955 0.0
H2575 H -0.00293 0.54889 0.64469 0.0
H2576 H 0.0319 0.60217 0.60789 0.0
H2577 H 0.08875 0.5364 0.62406 0.0
H2578 H 0.0603 0.53122 0.6202 0.0
H2579 H 0.06742 0.54398 0.63514 0.0
C2580 C -0.00574 0.54637 0.612 0.0
C2581 C 0.98757 0.54375 0.62484 0.0
C2582 C 0.01442 0.55608 0.60912 0.0
C2583 C 0.02835 0.56311 0.61899 0.0
C2584 C 0.02195 0.56022 0.63181 0.0
H2585 H 0.15291 0.62973 0.62366 0.0
H2586 H 0.11876 0.60989 0.6276 0.0
C2587 C 0.00172 0.55063 0.63471 0.0
C2588 C 0.04905 0.57453 0.61589 0.0
H2589 H 0.10473 0.57041 0.6183 0.0
C2590 C 0.04786 0.59523 0.61007 0.0
C2591 C 0.06973 0.56538 0.61885 0.0
C2592 C 0.07178 0.54295 0.62482 0.0
C2593 C 0.0669 0.60733 0.60738 0.0
C2594 C 0.08765 0.59817 0.61031 0.0
C2595 C 0.0888 0.57737 0.61605 0.0
C2596 C 0.10836 0.61011 0.60775 0.0
C2597 C 0.06456 0.63005 0.60181 0.0
C2598 C 0.11397 0.61658 0.59525 0.0
C2599 C 0.13342 0.6281 0.59297 0.0
C2600 C 0.14775 0.63309 0.60314 0.0
C2601 C 0.14225 0.6262 0.61561 0.0
C2602 C 0.12274 0.61483 0.61789 0.0
H2603 H 0.04784 0.63681 0.60339 0.0
H2604 H 0.07672 0.64149 0.60607 0.0
H2605 H 0.06745 0.62935 0.59131 0.0
H2606 H 0.10334 0.61265 0.58725 0.0
H2607 H 0.13726 0.63298 0.58323 0.0
H2608 H 0.10833 0.57998 0.11348 0.0
H2609 H 0.12817 0.61437 0.11086 0.0
H2610 H 0.11604 0.63048 0.15052 0.0
H2611 H 0.09567 0.59615 0.15321 0.0
H2612 H 0.10724 0.66464 0.13422 0.0
H2613 H 0.18917 0.62993 0.12336 0.0
H2614 H 0.16813 0.61927 0.11307 0.0
H2615 H 0.16718 0.61366 0.13002 0.0
C2616 C 0.10996 0.59072 0.1217 0.0
C2617 C 0.10046 0.58525 0.13358 0.0
C2618 C 0.12146 0.61032 0.12019 0.0
C2619 C 0.12397 0.62475 0.13056 0.0
C2620 C 0.11444 0.61945 0.14243 0.0
H2621 H 0.18602 0.75349 0.1348 0.0
H2622 H 0.16942 0.71816 0.14016 0.0
C2623 C 0.10281 0.59984 0.14394 0.0
C2624 C 0.13566 0.6458 0.12878 0.0
H2625 H 0.18396 0.6679 0.11828 0.0
C2626 C 0.1241 0.66537 0.13089 0.0
C2627 C 0.15767 0.64668 0.12445 0.0
C2628 C 0.17134 0.62626 0.12272 0.0
C2629 C 0.13374 0.68581 0.12836 0.0
C2630 C 0.15548 0.68661 0.12368 0.0
C2631 C 0.16721 0.66712 0.1218 0.0
C2632 C 0.16617 0.70761 0.12046 0.0
C2633 C 0.12044 0.70641 0.13034 0.0
C2634 C 0.17017 0.71308 0.1076 0.0
C2635 C 0.17959 0.73327 0.10447 0.0
C2636 C 0.18536 0.74822 0.11418 0.0
C2637 C 0.18177 0.74239 0.12708 0.0
C2638 C 0.17222 0.72226 0.13018 0.0
H2639 H 0.10281 0.70281 0.1321 0.0
H2640 H 0.12696 0.71547 0.13875 0.0
H2641 H 0.12183 0.71732 0.12185 0.0
H2642 H 0.16564 0.70186 0.09999 0.0
H2643 H 0.1822 0.7372 0.09446 0.0
H2644 H 0.13759 0.34731 0.90191 0.0
H2645 H 0.10321 0.36774 0.89967 0.0
H2646 H 0.11558 0.37571 0.85919 0.0
H2647 H 0.15008 0.35582 0.86136 0.0
H2648 H 0.10241 0.41391 0.87069 0.0
H2649 H 0.04656 0.34533 0.88378 0.0
H2650 H 0.06706 0.35169 0.89559 0.0
H2651 H 0.07523 0.34113 0.88021 0.0
C2652 C 0.13295 0.35335 0.89253 0.0
C2653 C 0.14655 0.34985 0.88181 0.0
C2654 C 0.11326 0.36493 0.89125 0.0
C2655 C 0.10671 0.37295 0.87923 0.0
C2656 C 0.12031 0.36961 0.86855 0.0
H2657 H -0.00356 0.43414 0.84308 0.0
H2658 H 0.03182 0.41804 0.84888 0.0
C2659 C 0.14003 0.3582 0.86982 0.0
C2660 C 0.08583 0.38505 0.87765 0.0
H2661 H 0.03015 0.37974 0.87981 0.0
C2662 C 0.08661 0.40647 0.87272 0.0
C2663 C 0.06525 0.37529 0.88033 0.0
C2664 C 0.06335 0.35204 0.88517 0.0
C2665 C 0.06734 0.41831 0.87026 0.0
C2666 C 0.04682 0.4084 0.87272 0.0
C2667 C 0.04599 0.38724 0.87796 0.0
C2668 C 0.02597 0.41929 0.86933 0.0
C2669 C 0.06903 0.44131 0.86502 0.0
C2670 C 0.011 0.42517 0.87894 0.0
C2671 C 0.99078 0.43443 0.87567 0.0
C2672 C 0.98511 0.43768 0.86272 0.0
C2673 C 0.00029 0.43189 0.85313 0.0
C2674 C 0.02055 0.42279 0.85642 0.0
H2675 H 0.08566 0.44835 0.86648 0.0
H2676 H 0.06562 0.44103 0.85456 0.0
H2677 H 0.05675 0.45222 0.86963 0.0
H2678 H 0.01491 0.42245 0.88895 0.0
H2679 H 0.97945 0.43861 0.88329 0.0
H2680 H 0.30229 0.24349 0.59237 0.0
H2681 H 0.31873 0.27929 0.59703 0.0
H2682 H 0.31183 0.26728 0.63758 0.0
H2683 H 0.29533 0.23157 0.63309 0.0
H2684 H 0.29915 0.31528 0.61402 0.0
H2685 H 0.37932 0.28122 0.63023 0.0
H2686 H 0.36088 0.26609 0.61994 0.0
H2687 H 0.35477 0.26903 0.63668 0.0
C2688 C 0.30419 0.24848 0.60228 0.0
C2689 C 0.29757 0.23463 0.61236 0.0
C2690 C 0.31355 0.26892 0.60491 0.0
C2691 C 0.31661 0.27571 0.61763 0.0
C2692 C 0.30973 0.26215 0.6277 0.0
H2693 H 0.38475 0.38803 0.65039 0.0
H2694 H 0.3646 0.35368 0.64735 0.0
C2695 C 0.30026 0.2418 0.6251 0.0
C2696 C 0.32725 0.29692 0.6204 0.0
H2697 H 0.37473 0.31949 0.63162 0.0
C2698 C 0.31567 0.31628 0.61786 0.0
C2699 C 0.34868 0.298 0.62552 0.0
C2700 C 0.3618 0.27753 0.62821 0.0
C2701 C 0.325 0.33687 0.62037 0.0
C2702 C 0.34668 0.33801 0.62523 0.0
C2703 C 0.35812 0.31857 0.6279 0.0
C2704 C 0.3581 0.35918 0.62719 0.0
C2705 C 0.31142 0.35716 0.618 0.0
C2706 C 0.3613 0.37351 0.61684 0.0
C2707 C 0.37267 0.39316 0.61855 0.0
C2708 C 0.38135 0.39873 0.63062 0.0
C2709 C 0.37826 0.38425 0.64097 0.0
C2710 C 0.36675 0.36463 0.63926 0.0
H2711 H 0.29357 0.35345 0.6182 0.0
H2712 H 0.31494 0.37004 0.62524 0.0
H2713 H 0.3154 0.36381 0.60837 0.0
H2714 H 0.35528 0.36936 0.60737 0.0
H2715 H 0.37489 0.40382 0.61034 0.0
H2716 H 0.49854 0.53898 0.38286 0.0
H2717 H 0.46269 0.55507 0.38741 0.0
H2718 H 0.4515 0.56405 0.34689 0.0
H2719 H 0.48757 0.5484 0.34223 0.0
H2720 H 0.44351 0.60111 0.3608 0.0
H2721 H 0.40144 0.52997 0.38318 0.0
H2722 H 0.4272 0.5368 0.39053 0.0
H2723 H 0.42665 0.52723 0.37421 0.0
C2724 C 0.48837 0.54414 0.37489 0.0
C2725 C 0.49593 0.54241 0.36217 0.0
C2726 C 0.46781 0.55321 0.37752 0.0
C2727 C 0.45432 0.56046 0.36748 0.0
C2728 C 0.46165 0.55846 0.35477 0.0
H2729 H 0.32756 0.62078 0.36003 0.0
H2730 H 0.36199 0.60088 0.3573 0.0
C2731 C 0.48226 0.5495 0.35213 0.0
C2732 C 0.43316 0.57142 0.37024 0.0
H2733 H 0.38317 0.5644 0.38453 0.0
C2734 C 0.43029 0.59304 0.36594 0.0
C2735 C 0.416 0.56087 0.37701 0.0
C2736 C 0.41783 0.53737 0.3814 0.0
C2737 C 0.41073 0.60444 0.36826 0.0
C2738 C 0.39361 0.59389 0.37499 0.0
C2739 C 0.39646 0.57238 0.37942 0.0
C2740 C 0.3723 0.60481 0.377 0.0
C2741 C 0.40842 0.62771 0.36354 0.0
C2742 C 0.36666 0.61324 0.38907 0.0
C2743 C 0.347 0.62476 0.39068 0.0
C2744 C 0.33265 0.62785 0.38025 0.0
C2745 C 0.33821 0.61878 0.36827 0.0
C2746 C 0.35787 0.60741 0.36667 0.0
H2747 H 0.42435 0.63468 0.36033 0.0
H2748 H 0.39684 0.62808 0.35532 0.0
H2749 H 0.40155 0.63832 0.37121 0.0
H2750 H 0.37768 0.61131 0.39715 0.0
H2751 H 0.34318 0.63145 0.40005 0.0
loop_
_geom_bond_atom_site_label_1
_geom_bond_atom_site_label_2
_geom_bond_distance
_geom_bond_site_symmetry_2
_ccdc_geom_bond_type
C0 O1 1.306 . S
C0 O3 1.160 . S
O1 C0 1.306 . S
O1 Cd2 2.228 . S
Cd2 O1 2.228 . S
Cd2 O6 2.273 . S
Cd2 O10 2.277 . S
O3 C0 1.160 . S
O3 Cd4 2.203 . S
Cd4 O3 2.203 . S
Cd4 O6 2.411 . S
Cd4 O7 2.333 . S
Cd4 O8 2.352 . S
Cd4 O12 2.277 . S
Cd4 O13 2.356 . S
C5 O10 1.209 . S
C5 O12 1.226 . S
O6 Cd2 2.273 . S
O6 Cd4 2.411 . S
O6 C9 1.320 . S
O7 Cd4 2.333 . S
O7 C9 1.214 . S
O8 Cd4 2.352 . S
O8 C11 1.258 . S
C9 O6 1.320 . S
C9 O7 1.214 . S
O10 Cd2 2.277 . S
O10 C5 1.209 . S
C11 O8 1.258 . S
C11 O13 1.282 . S
O12 Cd4 2.277 . S
O12 C5 1.226 . S
O13 Cd4 2.356 . S
O13 C11 1.282 . S
C14 O15 1.306 . S
C14 O17 1.160 . S
O15 C14 1.306 . S
O15 Cd16 2.228 . S
Cd16 O15 2.228 . S
Cd16 O20 2.273 . S
Cd16 O24 2.277 . S
O17 C14 1.160 . S
O17 Cd18 2.203 . S
Cd18 O17 2.203 . S
Cd18 O20 2.411 . S
Cd18 O21 2.333 . S
Cd18 O22 2.352 . S
Cd18 O26 2.277 . S
Cd18 O27 2.356 . S
C19 O24 1.209 . S
C19 O26 1.226 . S
O20 Cd16 2.273 . S
O20 Cd18 2.411 . S
O20 C23 1.320 . S
O21 Cd18 2.333 . S
O21 C23 1.214 . S
O22 Cd18 2.352 . S
O22 C25 1.258 . S
C23 O20 1.320 . S
C23 O21 1.214 . S
O24 Cd16 2.277 . S
O24 C19 1.209 . S
C25 O22 1.258 . S
C25 O27 1.282 . S
O26 Cd18 2.277 . S
O26 C19 1.226 . S
O27 Cd18 2.356 . S
O27 C25 1.282 . S
C28 O29 1.306 . S
C28 O31 1.160 . S
O29 C28 1.306 . S
O29 Cd30 2.228 . S
Cd30 O29 2.228 . S
Cd30 O34 2.273 . S
Cd30 O38 2.277 . S
O31 C28 1.160 . S
O31 Cd32 2.203 . S
Cd32 O31 2.203 . S
Cd32 O34 2.411 . S
Cd32 O35 2.333 . S
Cd32 O36 2.352 . S
Cd32 O40 2.277 . S
Cd32 O41 2.356 . S
C33 O38 1.209 . S
C33 O40 1.226 . S
O34 Cd30 2.273 . S
O34 Cd32 2.411 . S
O34 C37 1.320 . S
O35 Cd32 2.333 . S
O35 C37 1.214 . S
O36 Cd32 2.352 . S
O36 C39 1.258 . S
C37 O34 1.320 . S
C37 O35 1.214 . S
O38 Cd30 2.277 . S
O38 C33 1.209 . S
C39 O36 1.258 . S
C39 O41 1.282 . S
O40 Cd32 2.277 . S
O40 C33 1.226 . S
O41 Cd32 2.356 . S
O41 C39 1.282 . S
C42 O43 1.306 . S
C42 O45 1.160 . S
O43 C42 1.306 . S
O43 Cd44 2.228 . S
Cd44 O43 2.228 . S
Cd44 O48 2.273 . S
Cd44 O52 2.277 . S
O45 C42 1.160 . S
O45 Cd46 2.203 . S
Cd46 O45 2.203 . S
Cd46 O48 2.411 . S
Cd46 O49 2.333 . S
Cd46 O50 2.352 . S
Cd46 O54 2.277 . S
Cd46 O55 2.356 . S
C47 O52 1.209 . S
C47 O54 1.226 . S
O48 Cd44 2.273 . S
O48 Cd46 2.411 . S
O48 C51 1.320 . S
O49 Cd46 2.333 . S
O49 C51 1.214 . S
O50 Cd46 2.352 . S
O50 C53 1.258 . S
C51 O48 1.320 . S
C51 O49 1.214 . S
O52 Cd44 2.277 . S
O52 C47 1.209 . S
C53 O50 1.258 . S
C53 O55 1.282 . S
O54 Cd46 2.277 . S
O54 C47 1.226 . S
O55 Cd46 2.356 . S
O55 C53 1.282 . S
C56 O57 1.306 . S
C56 O59 1.160 . S
O57 C56 1.306 . S
O57 Cd58 2.228 . S
Cd58 O57 2.228 . S
Cd58 O62 2.273 . S
Cd58 O66 2.277 . S
O59 C56 1.160 . S
O59 Cd60 2.203 . S
Cd60 O59 2.203 . S
Cd60 O62 2.411 . S
Cd60 O63 2.333 . S
Cd60 O64 2.352 . S
Cd60 O68 2.277 . S
Cd60 O69 2.356 . S
C61 O66 1.209 . S
C61 O68 1.226 . S
O62 Cd58 2.273 . S
O62 Cd60 2.411 . S
O62 C65 1.320 . S
O63 Cd60 2.333 . S
O63 C65 1.214 . S
O64 Cd60 2.352 . S
O64 C67 1.258 . S
C65 O62 1.320 . S
C65 O63 1.214 . S
O66 Cd58 2.277 . S
O66 C61 1.209 . S
C67 O64 1.258 . S
C67 O69 1.282 . S
O68 Cd60 2.277 . S
O68 C61 1.226 . S
O69 Cd60 2.356 . S
O69 C67 1.282 . S
C70 O71 1.306 . S
C70 O73 1.160 . S
O71 C70 1.306 . S
O71 Cd72 2.228 . S
Cd72 O71 2.228 . S
Cd72 O76 2.273 . S
Cd72 O80 2.277 . S
O73 C70 1.160 . S
O73 Cd74 2.203 . S
Cd74 O73 2.203 . S
Cd74 O76 2.411 . S
Cd74 O77 2.333 . S
Cd74 O78 2.352 . S
Cd74 O82 2.277 . S
Cd74 O83 2.356 . S
C75 O80 1.209 . S
C75 O82 1.226 . S
O76 Cd72 2.273 . S
O76 Cd74 2.411 . S
O76 C79 1.320 . S
O77 Cd74 2.333 . S
O77 C79 1.214 . S
O78 Cd74 2.352 . S
O78 C81 1.258 . S
C79 O76 1.320 . S
C79 O77 1.214 . S
O80 Cd72 2.277 . S
O80 C75 1.209 . S
C81 O78 1.258 . S
C81 O83 1.282 . S
O82 Cd74 2.277 . S
O82 C75 1.226 . S
O83 Cd74 2.356 . S
O83 C81 1.282 . S
C84 O85 1.306 . S
C84 O87 1.160 . S
O85 C84 1.306 . S
O85 Cd86 2.228 . S
Cd86 O85 2.228 . S
Cd86 O90 2.273 . S
Cd86 O94 2.277 . S
O87 C84 1.160 . S
O87 Cd88 2.203 . S
Cd88 O87 2.203 . S
Cd88 O90 2.411 . S
Cd88 O91 2.333 . S
Cd88 O92 2.352 . S
Cd88 O96 2.277 . S
Cd88 O97 2.356 . S
C89 O94 1.209 . S
C89 O96 1.226 . S
O90 Cd86 2.273 . S
O90 Cd88 2.411 . S
O90 C93 1.320 . S
O91 Cd88 2.333 . S
O91 C93 1.214 . S
O92 Cd88 2.352 . S
O92 C95 1.258 . S
C93 O90 1.320 . S
C93 O91 1.214 . S
O94 Cd86 2.277 . S
O94 C89 1.209 . S
C95 O92 1.258 . S
C95 O97 1.282 . S
O96 Cd88 2.277 . S
O96 C89 1.226 . S
O97 Cd88 2.356 . S
O97 C95 1.282 . S
C98 O99 1.306 . S
C98 O101 1.160 . S
O99 C98 1.306 . S
O99 Cd100 2.228 . S
Cd100 O99 2.228 . S
Cd100 O104 2.273 . S
Cd100 O108 2.277 . S
O101 C98 1.160 . S
O101 Cd102 2.203 . S
Cd102 O101 2.203 . S
Cd102 O104 2.411 . S
Cd102 O105 2.333 . S
Cd102 O106 2.352 . S
Cd102 O110 2.277 . S
Cd102 O111 2.356 . S
C103 O108 1.209 . S
C103 O110 1.226 . S
O104 Cd100 2.273 . S
O104 Cd102 2.411 . S
O104 C107 1.320 . S
O105 Cd102 2.333 . S
O105 C107 1.214 . S
O106 Cd102 2.352 . S
O106 C109 1.258 . S
C107 O104 1.320 . S
C107 O105 1.214 . S
O108 Cd100 2.277 . S
O108 C103 1.209 . S
C109 O106 1.258 . S
C109 O111 1.282 . S
O110 Cd102 2.277 . S
O110 C103 1.226 . S
O111 Cd102 2.356 . S
O111 C109 1.282 . S
C112 O113 1.306 . S
C112 O115 1.160 . S
O113 C112 1.306 . S
O113 Cd114 2.228 . S
Cd114 O113 2.228 . S
Cd114 O118 2.273 . S
Cd114 O122 2.277 . S
O115 C112 1.160 . S
O115 Cd116 2.203 . S
Cd116 O115 2.203 . S
Cd116 O118 2.411 . S
Cd116 O119 2.333 . S
Cd116 O120 2.352 . S
Cd116 O124 2.277 . S
Cd116 O125 2.356 . S
C117 O122 1.209 . S
C117 O124 1.226 . S
O118 Cd114 2.273 . S
O118 Cd116 2.411 . S
O118 C121 1.320 . S
O119 Cd116 2.333 . S
O119 C121 1.214 . S
O120 Cd116 2.352 . S
O120 C123 1.258 . S
C121 O118 1.320 . S
C121 O119 1.214 . S
O122 Cd114 2.277 . S
O122 C117 1.209 . S
C123 O120 1.258 . S
C123 O125 1.282 . S
O124 Cd116 2.277 . S
O124 C117 1.226 . S
O125 Cd116 2.356 . S
O125 C123 1.282 . S
C126 O127 1.306 . S
C126 O129 1.160 . S
O127 C126 1.306 . S
O127 Cd128 2.228 . S
Cd128 O127 2.228 . S
Cd128 O132 2.273 . S
Cd128 O136 2.277 . S
O129 C126 1.160 . S
O129 Cd130 2.203 . S
Cd130 O129 2.203 . S
Cd130 O132 2.411 . S
Cd130 O133 2.333 . S
Cd130 O134 2.352 . S
Cd130 O138 2.277 . S
Cd130 O139 2.356 . S
C131 O136 1.209 . S
C131 O138 1.226 . S
O132 Cd128 2.273 . S
O132 Cd130 2.411 . S
O132 C135 1.320 . S
O133 Cd130 2.333 . S
O133 C135 1.214 . S
O134 Cd130 2.352 . S
O134 C137 1.258 . S
C135 O132 1.320 . S
C135 O133 1.214 . S
O136 Cd128 2.277 . S
O136 C131 1.209 . S
C137 O134 1.258 . S
C137 O139 1.282 . S
O138 Cd130 2.277 . S
O138 C131 1.226 . S
O139 Cd130 2.356 . S
O139 C137 1.282 . S
C140 O141 1.306 . S
C140 O143 1.160 . S
O141 C140 1.306 . S
O141 Cd142 2.228 . S
Cd142 O141 2.228 . S
Cd142 O146 2.273 . S
Cd142 O150 2.277 . S
O143 C140 1.160 . S
O143 Cd144 2.203 . S
Cd144 O143 2.203 . S
Cd144 O146 2.411 . S
Cd144 O147 2.333 . S
Cd144 O148 2.352 . S
Cd144 O152 2.277 . S
Cd144 O153 2.356 . S
C145 O150 1.209 . S
C145 O152 1.226 . S
O146 Cd142 2.273 . S
O146 Cd144 2.411 . S
O146 C149 1.320 . S
O147 Cd144 2.333 . S
O147 C149 1.214 . S
O148 Cd144 2.352 . S
O148 C151 1.258 . S
C149 O146 1.320 . S
C149 O147 1.214 . S
O150 Cd142 2.277 . S
O150 C145 1.209 . S
C151 O148 1.258 . S
C151 O153 1.282 . S
O152 Cd144 2.277 . S
O152 C145 1.226 . S
O153 Cd144 2.356 . S
O153 C151 1.282 . S
C154 O155 1.306 . S
C154 O157 1.160 . S
O155 C154 1.306 . S
O155 Cd156 2.228 . S
Cd156 O155 2.228 . S
Cd156 O160 2.273 . S
Cd156 O164 2.277 . S
O157 C154 1.160 . S
O157 Cd158 2.203 . S
Cd158 O157 2.203 . S
Cd158 O160 2.411 . S
Cd158 O161 2.333 . S
Cd158 O162 2.352 . S
Cd158 O166 2.277 . S
Cd158 O167 2.356 . S
C159 O164 1.209 . S
C159 O166 1.226 . S
O160 Cd156 2.273 . S
O160 Cd158 2.411 . S
O160 C163 1.320 . S
O161 Cd158 2.333 . S
O161 C163 1.214 . S
O162 Cd158 2.352 . S
O162 C165 1.258 . S
C163 O160 1.320 . S
C163 O161 1.214 . S
O164 Cd156 2.277 . S
O164 C159 1.209 . S
C165 O162 1.258 . S
C165 O167 1.282 . S
O166 Cd158 2.277 . S
O166 C159 1.226 . S
O167 Cd158 2.356 . S
O167 C165 1.282 . S
C168 O169 1.306 . S
C168 O171 1.160 . S
O169 C168 1.306 . S
O169 Cd170 2.228 . S
Cd170 O169 2.228 . S
Cd170 O174 2.273 . S
Cd170 O178 2.277 . S
O171 C168 1.160 . S
O171 Cd172 2.203 . S
Cd172 O171 2.203 . S
Cd172 O174 2.411 . S
Cd172 O175 2.333 . S
Cd172 O176 2.352 . S
Cd172 O180 2.277 . S
Cd172 O181 2.356 . S
C173 O178 1.209 . S
C173 O180 1.226 . S
O174 Cd170 2.273 . S
O174 Cd172 2.411 . S
O174 C177 1.320 . S
O175 Cd172 2.333 . S
O175 C177 1.214 . S
O176 Cd172 2.352 . S
O176 C179 1.258 . S
C177 O174 1.320 . S
C177 O175 1.214 . S
O178 Cd170 2.277 . S
O178 C173 1.209 . S
C179 O176 1.258 . S
C179 O181 1.282 . S
O180 Cd172 2.277 . S
O180 C173 1.226 . S
O181 Cd172 2.356 . S
O181 C179 1.282 . S
C182 O183 1.306 . S
C182 O185 1.160 . S
O183 C182 1.306 . S
O183 Cd184 2.228 . S
Cd184 O183 2.228 . S
Cd184 O188 2.273 . S
Cd184 O192 2.277 . S
O185 C182 1.160 . S
O185 Cd186 2.203 . S
Cd186 O185 2.203 . S
Cd186 O188 2.411 . S
Cd186 O189 2.333 . S
Cd186 O190 2.352 . S
Cd186 O194 2.277 . S
Cd186 O195 2.356 . S
C187 O192 1.209 . S
C187 O194 1.226 . S
O188 Cd184 2.273 . S
O188 Cd186 2.411 . S
O188 C191 1.320 . S
O189 Cd186 2.333 . S
O189 C191 1.214 . S
O190 Cd186 2.352 . S
O190 C193 1.258 . S
C191 O188 1.320 . S
C191 O189 1.214 . S
O192 Cd184 2.277 . S
O192 C187 1.209 . S
C193 O190 1.258 . S
C193 O195 1.282 . S
O194 Cd186 2.277 . S
O194 C187 1.226 . S
O195 Cd186 2.356 . S
O195 C193 1.282 . S
C196 O197 1.306 . S
C196 O199 1.160 . S
O197 C196 1.306 . S
O197 Cd198 2.228 . S
Cd198 O197 2.228 . S
Cd198 O202 2.273 . S
Cd198 O206 2.277 . S
O199 C196 1.160 . S
O199 Cd200 2.203 . S
Cd200 O199 2.203 . S
Cd200 O202 2.411 . S
Cd200 O203 2.333 . S
Cd200 O204 2.352 . S
Cd200 O208 2.277 . S
Cd200 O209 2.356 . S
C201 O206 1.209 . S
C201 O208 1.226 . S
O202 Cd198 2.273 . S
O202 Cd200 2.411 . S
O202 C205 1.320 . S
O203 Cd200 2.333 . S
O203 C205 1.214 . S
O204 Cd200 2.352 . S
O204 C207 1.258 . S
C205 O202 1.320 . S
C205 O203 1.214 . S
O206 Cd198 2.277 . S
O206 C201 1.209 . S
C207 O204 1.258 . S
C207 O209 1.282 . S
O208 Cd200 2.277 . S
O208 C201 1.226 . S
O209 Cd200 2.356 . S
O209 C207 1.282 . S
C210 O211 1.306 . S
C210 O213 1.160 . S
O211 C210 1.306 . S
O211 Cd212 2.228 . S
Cd212 O211 2.228 . S
Cd212 O216 2.273 . S
Cd212 O220 2.277 . S
O213 C210 1.160 . S
O213 Cd214 2.203 . S
Cd214 O213 2.203 . S
Cd214 O216 2.411 . S
Cd214 O217 2.333 . S
Cd214 O218 2.352 . S
Cd214 O222 2.277 . S
Cd214 O223 2.356 . S
C215 O220 1.209 . S
C215 O222 1.226 . S
O216 Cd212 2.273 . S
O216 Cd214 2.411 . S
O216 C219 1.320 . S
O217 Cd214 2.333 . S
O217 C219 1.214 . S
O218 Cd214 2.352 . S
O218 C221 1.258 . S
C219 O216 1.320 . S
C219 O217 1.214 . S
O220 Cd212 2.277 . S
O220 C215 1.209 . S
C221 O218 1.258 . S
C221 O223 1.282 . S
O222 Cd214 2.277 . S
O222 C215 1.226 . S
O223 Cd214 2.356 . S
O223 C221 1.282 . S
C224 O225 1.306 . S
C224 O227 1.160 . S
O225 C224 1.306 . S
O225 Cd226 2.228 . S
Cd226 O225 2.228 . S
Cd226 O230 2.273 . S
Cd226 O234 2.277 . S
O227 C224 1.160 . S
O227 Cd228 2.203 . S
Cd228 O227 2.203 . S
Cd228 O230 2.411 . S
Cd228 O231 2.333 . S
Cd228 O232 2.352 . S
Cd228 O236 2.277 . S
Cd228 O237 2.356 . S
C229 O234 1.209 . S
C229 O236 1.226 . S
O230 Cd226 2.273 . S
O230 Cd228 2.411 . S
O230 C233 1.320 . S
O231 Cd228 2.333 . S
O231 C233 1.214 . S
O232 Cd228 2.352 . S
O232 C235 1.258 . S
C233 O230 1.320 . S
C233 O231 1.214 . S
O234 Cd226 2.277 . S
O234 C229 1.209 . S
C235 O232 1.258 . S
C235 O237 1.282 . S
O236 Cd228 2.277 . S
O236 C229 1.226 . S
O237 Cd228 2.356 . S
O237 C235 1.282 . S
C238 O239 1.306 . S
C238 O241 1.160 . S
O239 C238 1.306 . S
O239 Cd240 2.228 . S
Cd240 O239 2.228 . S
Cd240 O244 2.273 . S
Cd240 O248 2.277 . S
O241 C238 1.160 . S
O241 Cd242 2.203 . S
Cd242 O241 2.203 . S
Cd242 O244 2.411 . S
Cd242 O245 2.333 . S
Cd242 O246 2.352 . S
Cd242 O250 2.277 . S
Cd242 O251 2.356 . S
C243 O248 1.209 . S
C243 O250 1.226 . S
O244 Cd240 2.273 . S
O244 Cd242 2.411 . S
O244 C247 1.320 . S
O245 Cd242 2.333 . S
O245 C247 1.214 . S
O246 Cd242 2.352 . S
O246 C249 1.258 . S
C247 O244 1.320 . S
C247 O245 1.214 . S
O248 Cd240 2.277 . S
O248 C243 1.209 . S
C249 O246 1.258 . S
C249 O251 1.282 . S
O250 Cd242 2.277 . S
O250 C243 1.226 . S
O251 Cd242 2.356 . S
O251 C249 1.282 . S
C252 O253 1.306 . S
C252 O255 1.160 . S
O253 C252 1.306 . S
O253 Cd254 2.228 . S
Cd254 O253 2.228 . S
Cd254 O258 2.273 . S
Cd254 O262 2.277 . S
O255 C252 1.160 . S
O255 Cd256 2.203 . S
Cd256 O255 2.203 . S
Cd256 O258 2.411 . S
Cd256 O259 2.333 . S
Cd256 O260 2.352 . S
Cd256 O264 2.277 . S
Cd256 O265 2.356 . S
C257 O262 1.209 . S
C257 O264 1.226 . S
O258 Cd254 2.273 . S
O258 Cd256 2.411 . S
O258 C261 1.320 . S
O259 Cd256 2.333 . S
O259 C261 1.214 . S
O260 Cd256 2.352 . S
O260 C263 1.258 . S
C261 O258 1.320 . S
C261 O259 1.214 . S
O262 Cd254 2.277 . S
O262 C257 1.209 . S
C263 O260 1.258 . S
C263 O265 1.282 . S
O264 Cd256 2.277 . S
O264 C257 1.226 . S
O265 Cd256 2.356 . S
O265 C263 1.282 . S
C266 O267 1.306 . S
C266 O269 1.160 . S
O267 C266 1.306 . S
O267 Cd268 2.228 . S
Cd268 O267 2.228 . S
Cd268 O272 2.273 . S
Cd268 O276 2.277 . S
O269 C266 1.160 . S
O269 Cd270 2.203 . S
Cd270 O269 2.203 . S
Cd270 O272 2.411 . S
Cd270 O273 2.333 . S
Cd270 O274 2.352 . S
Cd270 O278 2.277 . S
Cd270 O279 2.356 . S
C271 O276 1.209 . S
C271 O278 1.226 . S
O272 Cd268 2.273 . S
O272 Cd270 2.411 . S
O272 C275 1.320 . S
O273 Cd270 2.333 . S
O273 C275 1.214 . S
O274 Cd270 2.352 . S
O274 C277 1.258 . S
C275 O272 1.320 . S
C275 O273 1.214 . S
O276 Cd268 2.277 . S
O276 C271 1.209 . S
C277 O274 1.258 . S
C277 O279 1.282 . S
O278 Cd270 2.277 . S
O278 C271 1.226 . S
O279 Cd270 2.356 . S
O279 C277 1.282 . S
C280 O281 1.306 . S
C280 O283 1.160 . S
O281 C280 1.306 . S
O281 Cd282 2.228 . S
Cd282 O281 2.228 . S
Cd282 O286 2.273 . S
Cd282 O290 2.277 . S
O283 C280 1.160 . S
O283 Cd284 2.203 . S
Cd284 O283 2.203 . S
Cd284 O286 2.411 . S
Cd284 O287 2.333 . S
Cd284 O288 2.352 . S
Cd284 O292 2.277 . S
Cd284 O293 2.356 . S
C285 O290 1.209 . S
C285 O292 1.226 . S
O286 Cd282 2.273 . S
O286 Cd284 2.411 . S
O286 C289 1.320 . S
O287 Cd284 2.333 . S
O287 C289 1.214 . S
O288 Cd284 2.352 . S
O288 C291 1.258 . S
C289 O286 1.320 . S
C289 O287 1.214 . S
O290 Cd282 2.277 . S
O290 C285 1.209 . S
C291 O288 1.258 . S
C291 O293 1.282 . S
O292 Cd284 2.277 . S
O292 C285 1.226 . S
O293 Cd284 2.356 . S
O293 C291 1.282 . S
C294 O295 1.306 . S
C294 O297 1.160 . S
O295 C294 1.306 . S
O295 Cd296 2.228 . S
Cd296 O295 2.228 . S
Cd296 O300 2.273 . S
Cd296 O304 2.277 . S
O297 C294 1.160 . S
O297 Cd298 2.203 . S
Cd298 O297 2.203 . S
Cd298 O300 2.411 . S
Cd298 O301 2.333 . S
Cd298 O302 2.352 . S
Cd298 O306 2.277 . S
Cd298 O307 2.356 . S
C299 O304 1.209 . S
C299 O306 1.226 . S
O300 Cd296 2.273 . S
O300 Cd298 2.411 . S
O300 C303 1.320 . S
O301 Cd298 2.333 . S
O301 C303 1.214 . S
O302 Cd298 2.352 . S
O302 C305 1.258 . S
C303 O300 1.320 . S
C303 O301 1.214 . S
O304 Cd296 2.277 . S
O304 C299 1.209 . S
C305 O302 1.258 . S
C305 O307 1.282 . S
O306 Cd298 2.277 . S
O306 C299 1.226 . S
O307 Cd298 2.356 . S
O307 C305 1.282 . S
C308 O309 1.306 . S
C308 O311 1.160 . S
O309 C308 1.306 . S
O309 Cd310 2.228 . S
Cd310 O309 2.228 . S
Cd310 O314 2.273 . S
Cd310 O318 2.277 . S
O311 C308 1.160 . S
O311 Cd312 2.203 . S
Cd312 O311 2.203 . S
Cd312 O314 2.411 . S
Cd312 O315 2.333 . S
Cd312 O316 2.352 . S
Cd312 O320 2.277 . S
Cd312 O321 2.356 . S
C313 O318 1.209 . S
C313 O320 1.226 . S
O314 Cd310 2.273 . S
O314 Cd312 2.411 . S
O314 C317 1.320 . S
O315 Cd312 2.333 . S
O315 C317 1.214 . S
O316 Cd312 2.352 . S
O316 C319 1.258 . S
C317 O314 1.320 . S
C317 O315 1.214 . S
O318 Cd310 2.277 . S
O318 C313 1.209 . S
C319 O316 1.258 . S
C319 O321 1.282 . S
O320 Cd312 2.277 . S
O320 C313 1.226 . S
O321 Cd312 2.356 . S
O321 C319 1.282 . S
C322 O323 1.306 . S
C322 O325 1.160 . S
O323 C322 1.306 . S
O323 Cd324 2.228 . S
Cd324 O323 2.228 . S
Cd324 O328 2.273 . S
Cd324 O332 2.277 . S
O325 C322 1.160 . S
O325 Cd326 2.203 . S
Cd326 O325 2.203 . S
Cd326 O328 2.411 . S
Cd326 O329 2.333 . S
Cd326 O330 2.352 . S
Cd326 O334 2.277 . S
Cd326 O335 2.356 . S
C327 O332 1.209 . S
C327 O334 1.226 . S
O328 Cd324 2.273 . S
O328 Cd326 2.411 . S
O328 C331 1.320 . S
O329 Cd326 2.333 . S
O329 C331 1.214 . S
O330 Cd326 2.352 . S
O330 C333 1.258 . S
C331 O328 1.320 . S
C331 O329 1.214 . S
O332 Cd324 2.277 . S
O332 C327 1.209 . S
C333 O330 1.258 . S
C333 O335 1.282 . S
O334 Cd326 2.277 . S
O334 C327 1.226 . S
O335 Cd326 2.356 . S
O335 C333 1.282 . S
C336 O337 1.306 . S
C336 O339 1.160 . S
O337 C336 1.306 . S
O337 Cd338 2.228 . S
Cd338 O337 2.228 . S
Cd338 O342 2.273 . S
Cd338 O346 2.277 . S
O339 C336 1.160 . S
O339 Cd340 2.203 . S
Cd340 O339 2.203 . S
Cd340 O342 2.411 . S
Cd340 O343 2.333 . S
Cd340 O344 2.352 . S
Cd340 O348 2.277 . S
Cd340 O349 2.356 . S
C341 O346 1.209 . S
C341 O348 1.226 . S
O342 Cd338 2.273 . S
O342 Cd340 2.411 . S
O342 C345 1.320 . S
O343 Cd340 2.333 . S
O343 C345 1.214 . S
O344 Cd340 2.352 . S
O344 C347 1.258 . S
C345 O342 1.320 . S
C345 O343 1.214 . S
O346 Cd338 2.277 . S
O346 C341 1.209 . S
C347 O344 1.258 . S
C347 O349 1.282 . S
O348 Cd340 2.277 . S
O348 C341 1.226 . S
O349 Cd340 2.356 . S
O349 C347 1.282 . S
C350 O351 1.306 . S
C350 O353 1.160 . S
O351 C350 1.306 . S
O351 Cd352 2.228 . S
Cd352 O351 2.228 . S
Cd352 O356 2.273 . S
Cd352 O360 2.277 . S
O353 C350 1.160 . S
O353 Cd354 2.203 . S
Cd354 O353 2.203 . S
Cd354 O356 2.411 . S
Cd354 O357 2.333 . S
Cd354 O358 2.352 . S
Cd354 O362 2.277 . S
Cd354 O363 2.356 . S
C355 O360 1.209 . S
C355 O362 1.226 . S
O356 Cd352 2.273 . S
O356 Cd354 2.411 . S
O356 C359 1.320 . S
O357 Cd354 2.333 . S
O357 C359 1.214 . S
O358 Cd354 2.352 . S
O358 C361 1.258 . S
C359 O356 1.320 . S
C359 O357 1.214 . S
O360 Cd352 2.277 . S
O360 C355 1.209 . S
C361 O358 1.258 . S
C361 O363 1.282 . S
O362 Cd354 2.277 . S
O362 C355 1.226 . S
O363 Cd354 2.356 . S
O363 C361 1.282 . S
C364 O365 1.306 . S
C364 O367 1.160 . S
O365 C364 1.306 . S
O365 Cd366 2.228 . S
Cd366 O365 2.228 . S
Cd366 O370 2.273 . S
Cd366 O374 2.277 . S
O367 C364 1.160 . S
O367 Cd368 2.203 . S
Cd368 O367 2.203 . S
Cd368 O370 2.411 . S
Cd368 O371 2.333 . S
Cd368 O372 2.352 . S
Cd368 O376 2.277 . S
Cd368 O377 2.356 . S
C369 O374 1.209 . S
C369 O376 1.226 . S
O370 Cd366 2.273 . S
O370 Cd368 2.411 . S
O370 C373 1.320 . S
O371 Cd368 2.333 . S
O371 C373 1.214 . S
O372 Cd368 2.352 . S
O372 C375 1.258 . S
C373 O370 1.320 . S
C373 O371 1.214 . S
O374 Cd366 2.277 . S
O374 C369 1.209 . S
C375 O372 1.258 . S
C375 O377 1.282 . S
O376 Cd368 2.277 . S
O376 C369 1.226 . S
O377 Cd368 2.356 . S
O377 C375 1.282 . S
C378 O379 1.306 . S
C378 O381 1.160 . S
O379 C378 1.306 . S
O379 Cd380 2.228 . S
Cd380 O379 2.228 . S
Cd380 O384 2.273 . S
Cd380 O388 2.277 . S
O381 C378 1.160 . S
O381 Cd382 2.203 . S
Cd382 O381 2.203 . S
Cd382 O384 2.411 . S
Cd382 O385 2.333 . S
Cd382 O386 2.352 . S
Cd382 O390 2.277 . S
Cd382 O391 2.356 . S
C383 O388 1.209 . S
C383 O390 1.226 . S
O384 Cd380 2.273 . S
O384 Cd382 2.411 . S
O384 C387 1.320 . S
O385 Cd382 2.333 . S
O385 C387 1.214 . S
O386 Cd382 2.352 . S
O386 C389 1.258 . S
C387 O384 1.320 . S
C387 O385 1.214 . S
O388 Cd380 2.277 . S
O388 C383 1.209 . S
C389 O386 1.258 . S
C389 O391 1.282 . S
O390 Cd382 2.277 . S
O390 C383 1.226 . S
O391 Cd382 2.356 . S
O391 C389 1.282 . S
C392 O393 1.306 . S
C392 O395 1.160 . S
O393 C392 1.306 . S
O393 Cd394 2.228 . S
Cd394 O393 2.228 . S
Cd394 O398 2.273 . S
Cd394 O402 2.277 . S
O395 C392 1.160 . S
O395 Cd396 2.203 . S
Cd396 O395 2.203 . S
Cd396 O398 2.411 . S
Cd396 O399 2.333 . S
Cd396 O400 2.352 . S
Cd396 O404 2.277 . S
Cd396 O405 2.356 . S
C397 O402 1.209 . S
C397 O404 1.226 . S
O398 Cd394 2.273 . S
O398 Cd396 2.411 . S
O398 C401 1.320 . S
O399 Cd396 2.333 . S
O399 C401 1.214 . S
O400 Cd396 2.352 . S
O400 C403 1.258 . S
C401 O398 1.320 . S
C401 O399 1.214 . S
O402 Cd394 2.277 . S
O402 C397 1.209 . S
C403 O400 1.258 . S
C403 O405 1.282 . S
O404 Cd396 2.277 . S
O404 C397 1.226 . S
O405 Cd396 2.356 . S
O405 C403 1.282 . S
C406 O407 1.306 . S
C406 O409 1.160 . S
O407 C406 1.306 . S
O407 Cd408 2.228 . S
Cd408 O407 2.228 . S
Cd408 O412 2.273 . S
Cd408 O416 2.277 . S
O409 C406 1.160 . S
O409 Cd410 2.203 . S
Cd410 O409 2.203 . S
Cd410 O412 2.411 . S
Cd410 O413 2.333 . S
Cd410 O414 2.352 . S
Cd410 O418 2.277 . S
Cd410 O419 2.356 . S
C411 O416 1.209 . S
C411 O418 1.226 . S
O412 Cd408 2.273 . S
O412 Cd410 2.411 . S
O412 C415 1.320 . S
O413 Cd410 2.333 . S
O413 C415 1.214 . S
O414 Cd410 2.352 . S
O414 C417 1.258 . S
C415 O412 1.320 . S
C415 O413 1.214 . S
O416 Cd408 2.277 . S
O416 C411 1.209 . S
C417 O414 1.258 . S
C417 O419 1.282 . S
O418 Cd410 2.277 . S
O418 C411 1.226 . S
O419 Cd410 2.356 . S
O419 C417 1.282 . S
C420 O421 1.306 . S
C420 O423 1.160 . S
O421 C420 1.306 . S
O421 Cd422 2.228 . S
Cd422 O421 2.228 . S
Cd422 O426 2.273 . S
Cd422 O430 2.277 . S
O423 C420 1.160 . S
O423 Cd424 2.203 . S
Cd424 O423 2.203 . S
Cd424 O426 2.411 . S
Cd424 O427 2.333 . S
Cd424 O428 2.352 . S
Cd424 O432 2.277 . S
Cd424 O433 2.356 . S
C425 O430 1.209 . S
C425 O432 1.226 . S
O426 Cd422 2.273 . S
O426 Cd424 2.411 . S
O426 C429 1.320 . S
O427 Cd424 2.333 . S
O427 C429 1.214 . S
O428 Cd424 2.352 . S
O428 C431 1.258 . S
C429 O426 1.320 . S
C429 O427 1.214 . S
O430 Cd422 2.277 . S
O430 C425 1.209 . S
C431 O428 1.258 . S
C431 O433 1.282 . S
O432 Cd424 2.277 . S
O432 C425 1.226 . S
O433 Cd424 2.356 . S
O433 C431 1.282 . S
C434 O435 1.306 . S
C434 O437 1.160 . S
O435 C434 1.306 . S
O435 Cd436 2.228 . S
Cd436 O435 2.228 . S
Cd436 O440 2.273 . S
Cd436 O444 2.277 . S
O437 C434 1.160 . S
O437 Cd438 2.203 . S
Cd438 O437 2.203 . S
Cd438 O440 2.411 . S
Cd438 O441 2.333 . S
Cd438 O442 2.352 . S
Cd438 O446 2.277 . S
Cd438 O447 2.356 . S
C439 O444 1.209 . S
C439 O446 1.226 . S
O440 Cd436 2.273 . S
O440 Cd438 2.411 . S
O440 C443 1.320 . S
O441 Cd438 2.333 . S
O441 C443 1.214 . S
O442 Cd438 2.352 . S
O442 C445 1.258 . S
C443 O440 1.320 . S
C443 O441 1.214 . S
O444 Cd436 2.277 . S
O444 C439 1.209 . S
C445 O442 1.258 . S
C445 O447 1.282 . S
O446 Cd438 2.277 . S
O446 C439 1.226 . S
O447 Cd438 2.356 . S
O447 C445 1.282 . S
H448 C456 0.929 1_545 S
H449 C458 0.930 . S
H450 C460 0.930 . S
H451 C463 0.929 . S
H452 C466 0.930 . S
H453 C468 0.960 . S
H454 C468 0.960 . S
H455 C468 0.960 . S
C456 H448 0.929 1_565 S
C456 C457 1.377 . S
C456 C458 1.384 1_565 S
C457 C456 1.377 . S
C457 C463 1.390 . S
C458 H449 0.930 . S
C458 C456 1.384 1_545 S
C458 C459 1.372 1_545 S
C459 C458 1.372 1_565 S
C459 C460 1.400 . S
C459 C464 1.490 . S
C460 H450 0.930 . S
C460 C459 1.400 . S
C460 C463 1.386 . S
H461 C477 0.930 1_565 S
H462 C478 0.931 1_565 S
C463 H451 0.929 . S
C463 C457 1.390 . S
C463 C460 1.386 . S
C464 C459 1.490 . S
C464 C466 1.395 1_565 S
C464 C467 1.403 . S
H465 C471 0.930 . S
C466 H452 0.930 . S
C466 C464 1.395 1_545 S
C466 C469 1.403 . S
C467 C464 1.403 . S
C467 C468 1.524 . S
C467 C471 1.400 . S
C468 H453 0.960 . S
C468 H454 0.960 . S
C468 H455 0.960 . S
C468 C467 1.524 . S
C469 C466 1.403 . S
C469 C470 1.392 . S
C469 C473 1.495 . S
C470 C469 1.392 . S
C470 C471 1.385 1_545 S
C470 C472 1.478 . S
C471 H465 0.930 . S
C471 C467 1.400 . S
C471 C470 1.385 1_565 S
C472 C470 1.478 . S
C472 C474 1.381 . S
C472 C478 1.383 . S
C473 C469 1.495 . S
C473 H479 0.959 . S
C473 H480 0.961 . S
C473 H481 0.960 . S
C474 C472 1.381 . S
C474 C475 1.394 . S
C474 H482 0.930 . S
C475 C474 1.394 . S
C475 C476 1.383 . S
C475 H483 0.929 . S
C476 C475 1.383 . S
C476 C477 1.377 . S
C477 H461 0.930 1_545 S
C477 C476 1.377 . S
C477 C478 1.379 . S
C478 H462 0.931 1_545 S
C478 C472 1.383 . S
C478 C477 1.379 . S
H479 C473 0.959 . S
H480 C473 0.961 . S
H481 C473 0.960 . S
H482 C474 0.930 . S
H483 C475 0.929 . S
H484 C492 0.929 . S
H485 C494 0.930 . S
H486 C496 0.930 . S
H487 C499 0.929 . S
H488 C502 0.930 . S
H489 C504 0.960 . S
H490 C504 0.960 . S
H491 C504 0.960 . S
C492 H484 0.929 . S
C492 C493 1.377 . S
C492 C494 1.384 . S
C493 C492 1.377 . S
C493 C499 1.390 . S
C494 H485 0.930 . S
C494 C492 1.384 . S
C494 C495 1.372 . S
C495 C494 1.372 . S
C495 C496 1.400 . S
C495 C500 1.490 . S
C496 H486 0.930 . S
C496 C495 1.400 . S
C496 C499 1.386 . S
H497 C513 0.930 . S
H498 C514 0.931 . S
C499 H487 0.929 . S
C499 C493 1.390 . S
C499 C496 1.386 . S
C500 C495 1.490 . S
C500 C502 1.395 . S
C500 C503 1.403 . S
H501 C507 0.930 . S
C502 H488 0.930 . S
C502 C500 1.395 . S
C502 C505 1.403 . S
C503 C500 1.403 . S
C503 C504 1.524 . S
C503 C507 1.400 . S
C504 H489 0.960 . S
C504 H490 0.960 . S
C504 H491 0.960 . S
C504 C503 1.524 . S
C505 C502 1.403 . S
C505 C506 1.392 . S
C505 C509 1.495 . S
C506 C505 1.392 . S
C506 C507 1.385 . S
C506 C508 1.478 . S
C507 H501 0.930 . S
C507 C503 1.400 . S
C507 C506 1.385 . S
C508 C506 1.478 . S
C508 C510 1.381 . S
C508 C514 1.383 . S
C509 C505 1.495 . S
C509 H515 0.959 . S
C509 H516 0.961 . S
C509 H517 0.960 . S
C510 C508 1.381 . S
C510 C511 1.394 . S
C510 H518 0.930 . S
C511 C510 1.394 . S
C511 C512 1.383 . S
C511 H519 0.929 . S
C512 C511 1.383 . S
C512 C513 1.377 . S
C513 H497 0.930 . S
C513 C512 1.377 . S
C513 C514 1.379 . S
C514 H498 0.931 . S
C514 C508 1.383 . S
C514 C513 1.379 . S
H515 C509 0.959 . S
H516 C509 0.961 . S
H517 C509 0.960 . S
H518 C510 0.930 . S
H519 C511 0.929 . S
H520 C528 0.929 . S
H521 C530 0.930 . S
H522 C532 0.930 . S
H523 C535 0.929 . S
H524 C538 0.930 . S
H525 C540 0.960 . S
H526 C540 0.960 . S
H527 C540 0.960 . S
C528 H520 0.929 . S
C528 C529 1.377 . S
C528 C530 1.384 . S
C529 C528 1.377 . S
C529 C535 1.390 . S
C530 H521 0.930 . S
C530 C528 1.384 . S
C530 C531 1.372 . S
C531 C530 1.372 . S
C531 C532 1.400 . S
C531 C536 1.490 . S
C532 H522 0.930 . S
C532 C531 1.400 . S
C532 C535 1.386 . S
H533 C549 0.930 . S
H534 C550 0.931 . S
C535 H523 0.929 . S
C535 C529 1.390 . S
C535 C532 1.386 . S
C536 C531 1.490 . S
C536 C538 1.395 1_545 S
C536 C539 1.403 . S
H537 C543 0.930 . S
C538 H524 0.930 . S
C538 C536 1.395 1_565 S
C538 C541 1.403 . S
C539 C536 1.403 . S
C539 C540 1.524 . S
C539 C543 1.400 . S
C540 H525 0.960 . S
C540 H526 0.960 . S
C540 H527 0.960 . S
C540 C539 1.524 . S
C541 C538 1.403 . S
C541 C542 1.392 . S
C541 C545 1.495 . S
C542 C541 1.392 . S
C542 C543 1.385 1_565 S
C542 C544 1.478 . S
C543 H537 0.930 . S
C543 C539 1.400 . S
C543 C542 1.385 1_545 S
C544 C542 1.478 . S
C544 C546 1.381 . S
C544 C550 1.383 . S
C545 C541 1.495 . S
C545 H551 0.959 . S
C545 H552 0.961 . S
C545 H553 0.960 . S
C546 C544 1.381 . S
C546 C547 1.394 . S
C546 H554 0.930 . S
C547 C546 1.394 . S
C547 C548 1.383 . S
C547 H555 0.929 . S
C548 C547 1.383 . S
C548 C549 1.377 . S
C549 H533 0.930 . S
C549 C548 1.377 . S
C549 C550 1.379 . S
C550 H534 0.931 . S
C550 C544 1.383 . S
C550 C549 1.379 . S
H551 C545 0.959 . S
H552 C545 0.961 . S
H553 C545 0.960 . S
H554 C546 0.930 . S
H555 C547 0.929 . S
H556 C564 0.929 . S
H557 C566 0.930 . S
H558 C568 0.930 . S
H559 C571 0.929 . S
H560 C574 0.930 . S
H561 C576 0.960 . S
H562 C576 0.960 . S
H563 C576 0.960 . S
C564 H556 0.929 . S
C564 C565 1.377 . S
C564 C566 1.384 . S
C565 C564 1.377 . S
C565 C571 1.390 . S
C566 H557 0.930 . S
C566 C564 1.384 . S
C566 C567 1.372 . S
C567 C566 1.372 . S
C567 C568 1.400 . S
C567 C572 1.490 . S
C568 H558 0.930 . S
C568 C567 1.400 . S
C568 C571 1.386 . S
H569 C585 0.930 . S
H570 C586 0.931 . S
C571 H559 0.929 . S
C571 C565 1.390 . S
C571 C568 1.386 . S
C572 C567 1.490 . S
C572 C574 1.395 . S
C572 C575 1.403 . S
H573 C579 0.930 . S
C574 H560 0.930 . S
C574 C572 1.395 . S
C574 C577 1.403 1_556 S
C575 C572 1.403 . S
C575 C576 1.524 . S
C575 C579 1.400 1_556 S
C576 H561 0.960 . S
C576 H562 0.960 . S
C576 H563 0.960 . S
C576 C575 1.524 . S
C577 C574 1.403 1_554 S
C577 C578 1.392 . S
C577 C581 1.495 . S
C578 C577 1.392 . S
C578 C579 1.385 . S
C578 C580 1.478 . S
C579 H573 0.930 . S
C579 C575 1.400 1_554 S
C579 C578 1.385 . S
C580 C578 1.478 . S
C580 C582 1.381 . S
C580 C586 1.383 . S
C581 C577 1.495 . S
C581 H587 0.959 . S
C581 H588 0.961 . S
C581 H589 0.960 . S
C582 C580 1.381 . S
C582 C583 1.394 . S
C582 H590 0.930 . S
C583 C582 1.394 . S
C583 C584 1.383 . S
C583 H591 0.929 . S
C584 C583 1.383 . S
C584 C585 1.377 . S
C585 H569 0.930 . S
C585 C584 1.377 . S
C585 C586 1.379 . S
C586 H570 0.931 . S
C586 C580 1.383 . S
C586 C585 1.379 . S
H587 C581 0.959 . S
H588 C581 0.961 . S
H589 C581 0.960 . S
H590 C582 0.930 . S
H591 C583 0.929 . S
H592 C600 0.929 . S
H593 C602 0.930 . S
H594 C604 0.926 . S
H595 C607 0.929 1_545 S
H596 C610 0.930 . S
H597 C612 0.960 . S
H598 C612 0.960 . S
H599 C612 0.960 1_545 S
C600 H592 0.929 . S
C600 C601 1.377 . S
C600 C602 1.384 . S
C601 C600 1.377 . S
C601 C607 1.390 . S
C602 H593 0.930 . S
C602 C600 1.384 . S
C602 C603 1.372 . S
C603 C602 1.372 . S
C603 C604 1.402 1_565 S
C603 C608 1.490 . S
C604 H594 0.926 . S
C604 C603 1.402 1_545 S
C604 C607 1.387 1_545 S
H605 C621 0.930 . S
H606 C622 0.931 . S
C607 H595 0.929 1_565 S
C607 C601 1.390 . S
C607 C604 1.387 1_565 S
C608 C603 1.490 . S
C608 C610 1.395 . S
C608 C611 1.403 . S
H609 C615 0.930 . S
C610 H596 0.930 . S
C610 C608 1.395 . S
C610 C613 1.403 1_565 S
C611 C608 1.403 . S
C611 C612 1.524 . S
C611 C615 1.400 1_565 S
C612 H597 0.960 . S
C612 H598 0.960 . S
C612 H599 0.960 1_565 S
C612 C611 1.524 . S
C613 C610 1.403 1_545 S
C613 C614 1.392 . S
C613 C617 1.495 . S
C614 C613 1.392 . S
C614 C615 1.385 . S
C614 C616 1.478 . S
C615 H609 0.930 . S
C615 C611 1.400 1_545 S
C615 C614 1.385 . S
C616 C614 1.478 . S
C616 C618 1.381 1_545 S
C616 C622 1.383 . S
C617 C613 1.495 . S
C617 H623 0.962 . S
C617 H624 0.961 . S
C617 H625 0.960 1_545 S
C618 C616 1.381 1_565 S
C618 C619 1.394 1_565 S
C618 H626 0.930 . S
C619 C618 1.394 1_545 S
C619 C620 1.383 . S
C619 H627 0.929 1_545 S
C620 C619 1.383 . S
C620 C621 1.377 . S
C621 H605 0.930 . S
C621 C620 1.377 . S
C621 C622 1.379 . S
C622 H606 0.931 . S
C622 C616 1.383 . S
C622 C621 1.379 . S
H623 C617 0.962 . S
H624 C617 0.961 . S
H625 C617 0.960 1_565 S
H626 C618 0.930 . S
H627 C619 0.929 1_565 S
H628 C636 0.929 . S
H629 C638 0.930 . S
H630 C640 0.930 . S
H631 C643 0.929 . S
H632 C646 0.930 . S
H633 C648 0.960 . S
H634 C648 0.960 . S
H635 C648 0.960 . S
C636 H628 0.929 . S
C636 C637 1.377 . S
C636 C638 1.384 . S
C637 C636 1.377 . S
C637 C643 1.390 . S
C638 H629 0.930 . S
C638 C636 1.384 . S
C638 C639 1.372 . S
C639 C638 1.372 . S
C639 C640 1.400 . S
C639 C644 1.490 . S
C640 H630 0.930 . S
C640 C639 1.400 . S
C640 C643 1.386 . S
H641 C657 0.930 . S
H642 C658 0.931 . S
C643 H631 0.929 . S
C643 C637 1.390 . S
C643 C640 1.386 . S
C644 C639 1.490 . S
C644 C646 1.395 . S
C644 C647 1.403 . S
H645 C651 0.930 . S
C646 H632 0.930 . S
C646 C644 1.395 . S
C646 C649 1.403 . S
C647 C644 1.403 . S
C647 C648 1.524 . S
C647 C651 1.400 . S
C648 H633 0.960 . S
C648 H634 0.960 . S
C648 H635 0.960 . S
C648 C647 1.524 . S
C649 C646 1.403 . S
C649 C650 1.392 . S
C649 C653 1.495 . S
C650 C649 1.392 . S
C650 C651 1.385 . S
C650 C652 1.478 . S
C651 H645 0.930 . S
C651 C647 1.400 . S
C651 C650 1.385 . S
C652 C650 1.478 . S
C652 C654 1.381 . S
C652 C658 1.383 . S
C653 C649 1.495 . S
C653 H659 0.959 . S
C653 H660 0.961 . S
C653 H661 0.960 . S
C654 C652 1.381 . S
C654 C655 1.394 . S
C654 H662 0.930 . S
C655 C654 1.394 . S
C655 C656 1.383 . S
C655 H663 0.929 . S
C656 C655 1.383 . S
C656 C657 1.377 . S
C657 H641 0.930 . S
C657 C656 1.377 . S
C657 C658 1.379 . S
C658 H642 0.931 . S
C658 C652 1.383 . S
C658 C657 1.379 . S
H659 C653 0.959 . S
H660 C653 0.961 . S
H661 C653 0.960 . S
H662 C654 0.930 . S
H663 C655 0.929 . S
H664 C672 0.929 . S
H665 C674 0.930 1_565 S
H666 C676 0.930 . S
H667 C679 0.929 . S
H668 C682 0.930 . S
H669 C684 0.960 . S
H670 C684 0.960 . S
H671 C684 0.960 . S
C672 H664 0.929 . S
C672 C673 1.377 . S
C672 C674 1.384 . S
C673 C672 1.377 . S
C673 C679 1.390 . S
C674 H665 0.930 1_545 S
C674 C672 1.384 . S
C674 C675 1.372 . S
C675 C674 1.372 . S
C675 C676 1.400 . S
C675 C680 1.490 . S
C676 H666 0.930 . S
C676 C675 1.400 . S
C676 C679 1.386 . S
H677 C693 0.930 . S
H678 C694 0.931 . S
C679 H667 0.929 . S
C679 C673 1.390 . S
C679 C676 1.386 . S
C680 C675 1.490 . S
C680 C682 1.395 1_545 S
C680 C683 1.403 . S
H681 C687 0.930 . S
C682 H668 0.930 . S
C682 C680 1.395 1_565 S
C682 C685 1.403 . S
C683 C680 1.403 . S
C683 C684 1.524 . S
C683 C687 1.400 . S
C684 H669 0.960 . S
C684 H670 0.960 . S
C684 H671 0.960 . S
C684 C683 1.524 . S
C685 C682 1.403 . S
C685 C686 1.392 . S
C685 C689 1.495 . S
C686 C685 1.392 . S
C686 C687 1.385 1_565 S
C686 C688 1.478 . S
C687 H681 0.930 . S
C687 C683 1.400 . S
C687 C686 1.385 1_545 S
C688 C686 1.478 . S
C688 C690 1.381 . S
C688 C694 1.383 . S
C689 C685 1.495 . S
C689 H695 0.959 . S
C689 H696 0.961 . S
C689 H697 0.960 . S
C690 C688 1.381 . S
C690 C691 1.394 . S
C690 H698 0.930 . S
C691 C690 1.394 . S
C691 C692 1.383 . S
C691 H699 0.929 . S
C692 C691 1.383 . S
C692 C693 1.377 . S
C693 H677 0.930 . S
C693 C692 1.377 . S
C693 C694 1.379 . S
C694 H678 0.931 . S
C694 C688 1.383 . S
C694 C693 1.379 . S
H695 C689 0.959 . S
H696 C689 0.961 . S
H697 C689 0.960 . S
H698 C690 0.930 . S
H699 C691 0.929 . S
H700 C708 0.929 . S
H701 C710 0.930 . S
H702 C712 0.930 . S
H703 C715 0.929 . S
H704 C718 0.930 . S
H705 C720 0.960 . S
H706 C720 0.960 . S
H707 C720 0.960 . S
C708 H700 0.929 . S
C708 C709 1.377 . S
C708 C710 1.384 . S
C709 C708 1.377 . S
C709 C715 1.390 . S
C710 H701 0.930 . S
C710 C708 1.384 . S
C710 C711 1.372 . S
C711 C710 1.372 . S
C711 C712 1.400 . S
C711 C716 1.490 . S
C712 H702 0.930 . S
C712 C711 1.400 . S
C712 C715 1.386 . S
H713 C729 0.930 . S
H714 C730 0.931 . S
C715 H703 0.929 . S
C715 C709 1.390 . S
C715 C712 1.386 . S
C716 C711 1.490 . S
C716 C718 1.395 . S
C716 C719 1.403 . S
H717 C723 0.930 . S
C718 H704 0.930 . S
C718 C716 1.395 . S
C718 C721 1.403 1_556 S
C719 C716 1.403 . S
C719 C720 1.524 . S
C719 C723 1.400 1_556 S
C720 H705 0.960 . S
C720 H706 0.960 . S
C720 H707 0.960 . S
C720 C719 1.524 . S
C721 C718 1.403 1_554 S
C721 C722 1.392 . S
C721 C725 1.495 . S
C722 C721 1.392 . S
C722 C723 1.385 . S
C722 C724 1.478 . S
C723 H717 0.930 . S
C723 C719 1.400 1_554 S
C723 C722 1.385 . S
C724 C722 1.478 . S
C724 C726 1.381 . S
C724 C730 1.383 . S
C725 C721 1.495 . S
C725 H731 0.959 . S
C725 H732 0.961 . S
C725 H733 0.960 . S
C726 C724 1.381 . S
C726 C727 1.394 . S
C726 H734 0.930 . S
C727 C726 1.394 . S
C727 C728 1.383 . S
C727 H735 0.929 . S
C728 C727 1.383 . S
C728 C729 1.377 . S
C729 H713 0.930 . S
C729 C728 1.377 . S
C729 C730 1.379 . S
C730 H714 0.931 . S
C730 C724 1.383 . S
C730 C729 1.379 . S
H731 C725 0.959 . S
H732 C725 0.961 . S
H733 C725 0.960 . S
H734 C726 0.930 . S
H735 C727 0.929 . S
H736 C744 0.929 . S
H737 C746 0.930 . S
H738 C748 0.930 . S
H739 C751 0.929 . S
H740 C754 0.930 . S
H741 C756 0.960 . S
H742 C756 0.960 . S
H743 C756 0.960 . S
C744 H736 0.929 . S
C744 C745 1.377 . S
C744 C746 1.384 . S
C745 C744 1.377 . S
C745 C751 1.390 . S
C746 H737 0.930 . S
C746 C744 1.384 . S
C746 C747 1.372 . S
C747 C746 1.372 . S
C747 C748 1.400 . S
C747 C752 1.490 . S
C748 H738 0.930 . S
C748 C747 1.400 . S
C748 C751 1.386 . S
H749 C765 0.930 . S
H750 C766 0.931 . S
C751 H739 0.929 . S
C751 C745 1.390 . S
C751 C748 1.386 . S
C752 C747 1.490 . S
C752 C754 1.395 . S
C752 C755 1.403 . S
H753 C759 0.930 . S
C754 H740 0.930 . S
C754 C752 1.395 . S
C754 C757 1.403 . S
C755 C752 1.403 . S
C755 C756 1.524 . S
C755 C759 1.400 . S
C756 H741 0.960 . S
C756 H742 0.960 . S
C756 H743 0.960 . S
C756 C755 1.524 . S
C757 C754 1.403 . S
C757 C758 1.392 . S
C757 C761 1.495 . S
C758 C757 1.392 . S
C758 C759 1.385 . S
C758 C760 1.478 . S
C759 H753 0.930 . S
C759 C755 1.400 . S
C759 C758 1.385 . S
C760 C758 1.478 . S
C760 C762 1.381 . S
C760 C766 1.383 . S
C761 C757 1.495 . S
C761 H767 0.959 . S
C761 H768 0.961 . S
C761 H769 0.960 . S
C762 C760 1.381 . S
C762 C763 1.394 . S
C762 H770 0.930 . S
C763 C762 1.394 . S
C763 C764 1.383 . S
C763 H771 0.929 . S
C764 C763 1.383 . S
C764 C765 1.377 . S
C765 H749 0.930 . S
C765 C764 1.377 . S
C765 C766 1.379 . S
C766 H750 0.931 . S
C766 C760 1.383 . S
C766 C765 1.379 . S
H767 C761 0.959 . S
H768 C761 0.961 . S
H769 C761 0.960 . S
H770 C762 0.930 . S
H771 C763 0.929 . S
H772 C780 0.929 . S
H773 C782 0.930 . S
H774 C784 0.930 . S
H775 C787 0.929 . S
H776 C790 0.930 . S
H777 C792 0.960 . S
H778 C792 0.960 . S
H779 C792 0.960 . S
C780 H772 0.929 . S
C780 C781 1.377 . S
C780 C782 1.384 . S
C781 C780 1.377 . S
C781 C787 1.390 . S
C782 H773 0.930 . S
C782 C780 1.384 . S
C782 C783 1.372 . S
C783 C782 1.372 . S
C783 C784 1.400 . S
C783 C788 1.490 . S
C784 H774 0.930 . S
C784 C783 1.400 . S
C784 C787 1.386 . S
H785 C801 0.930 . S
H786 C802 0.931 . S
C787 H775 0.929 . S
C787 C781 1.390 . S
C787 C784 1.386 . S
C788 C783 1.490 . S
C788 C790 1.395 . S
C788 C791 1.403 . S
H789 C795 0.930 . S
C790 H776 0.930 . S
C790 C788 1.395 . S
C790 C793 1.403 1_554 S
C791 C788 1.403 . S
C791 C792 1.524 . S
C791 C795 1.400 1_554 S
C792 H777 0.960 . S
C792 H778 0.960 . S
C792 H779 0.960 . S
C792 C791 1.524 . S
C793 C790 1.403 1_556 S
C793 C794 1.392 . S
C793 C797 1.495 . S
C794 C793 1.392 . S
C794 C795 1.385 . S
C794 C796 1.478 . S
C795 H789 0.930 . S
C795 C791 1.400 1_556 S
C795 C794 1.385 . S
C796 C794 1.478 . S
C796 C798 1.381 . S
C796 C802 1.383 . S
C797 C793 1.495 . S
C797 H803 0.959 . S
C797 H804 0.961 . S
C797 H805 0.960 . S
C798 C796 1.381 . S
C798 C799 1.394 . S
C798 H806 0.930 . S
C799 C798 1.394 . S
C799 C800 1.383 . S
C799 H807 0.929 . S
C800 C799 1.383 . S
C800 C801 1.377 . S
C801 H785 0.930 . S
C801 C800 1.377 . S
C801 C802 1.379 . S
C802 H786 0.931 . S
C802 C796 1.383 . S
C802 C801 1.379 . S
H803 C797 0.959 . S
H804 C797 0.961 . S
H805 C797 0.960 . S
H806 C798 0.930 . S
H807 C799 0.929 . S
H808 C816 0.929 . S
H809 C818 0.930 . S
H810 C820 0.930 . S
H811 C823 0.929 . S
H812 C826 0.930 . S
H813 C828 0.960 . S
H814 C828 0.960 . S
H815 C828 0.960 . S
C816 H808 0.929 . S
C816 C817 1.377 . S
C816 C818 1.384 . S
C817 C816 1.377 . S
C817 C823 1.390 . S
C818 H809 0.930 . S
C818 C816 1.384 . S
C818 C819 1.372 . S
C819 C818 1.372 . S
C819 C820 1.400 . S
C819 C824 1.490 . S
C820 H810 0.930 . S
C820 C819 1.400 . S
C820 C823 1.386 . S
H821 C837 0.930 . S
H822 C838 0.931 . S
C823 H811 0.929 . S
C823 C817 1.390 . S
C823 C820 1.386 . S
C824 C819 1.490 . S
C824 C826 1.395 . S
C824 C827 1.403 . S
H825 C831 0.930 . S
C826 H812 0.930 . S
C826 C824 1.395 . S
C826 C829 1.403 . S
C827 C824 1.403 . S
C827 C828 1.524 . S
C827 C831 1.400 . S
C828 H813 0.960 . S
C828 H814 0.960 . S
C828 H815 0.960 . S
C828 C827 1.524 . S
C829 C826 1.403 . S
C829 C830 1.392 . S
C829 C833 1.495 . S
C830 C829 1.392 . S
C830 C831 1.385 . S
C830 C832 1.478 . S
C831 H825 0.930 . S
C831 C827 1.400 . S
C831 C830 1.385 . S
C832 C830 1.478 . S
C832 C834 1.381 . S
C832 C838 1.383 . S
C833 C829 1.495 . S
C833 H839 0.959 . S
C833 H840 0.961 . S
C833 H841 0.960 . S
C834 C832 1.381 . S
C834 C835 1.394 . S
C834 H842 0.930 . S
C835 C834 1.394 . S
C835 C836 1.383 . S
C835 H843 0.929 . S
C836 C835 1.383 . S
C836 C837 1.377 . S
C837 H821 0.930 . S
C837 C836 1.377 . S
C837 C838 1.379 . S
C838 H822 0.931 . S
C838 C832 1.383 . S
C838 C837 1.379 . S
H839 C833 0.959 . S
H840 C833 0.961 . S
H841 C833 0.960 . S
H842 C834 0.930 . S
H843 C835 0.929 . S
H844 C852 0.929 . S
H845 C854 0.930 . S
H846 C856 0.930 . S
H847 C859 0.929 . S
H848 C862 0.930 . S
H849 C864 0.960 . S
H850 C864 0.960 . S
H851 C864 0.960 . S
C852 H844 0.929 . S
C852 C853 1.377 . S
C852 C854 1.384 . S
C853 C852 1.377 . S
C853 C859 1.390 . S
C854 H845 0.930 . S
C854 C852 1.384 . S
C854 C855 1.372 . S
C855 C854 1.372 . S
C855 C856 1.400 . S
C855 C860 1.490 . S
C856 H846 0.930 . S
C856 C855 1.400 . S
C856 C859 1.386 . S
H857 C873 0.930 . S
H858 C874 0.931 . S
C859 H847 0.929 . S
C859 C853 1.390 . S
C859 C856 1.386 . S
C860 C855 1.490 . S
C860 C862 1.395 . S
C860 C863 1.403 . S
H861 C867 0.930 . S
C862 H848 0.930 . S
C862 C860 1.395 . S
C862 C865 1.403 . S
C863 C860 1.403 . S
C863 C864 1.524 . S
C863 C867 1.400 . S
C864 H849 0.960 . S
C864 H850 0.960 . S
C864 H851 0.960 . S
C864 C863 1.524 . S
C865 C862 1.403 . S
C865 C866 1.392 . S
C865 C869 1.495 . S
C866 C865 1.392 . S
C866 C867 1.385 . S
C866 C868 1.478 . S
C867 H861 0.930 . S
C867 C863 1.400 . S
C867 C866 1.385 . S
C868 C866 1.478 . S
C868 C870 1.381 . S
C868 C874 1.383 . S
C869 C865 1.495 . S
C869 H875 0.959 . S
C869 H876 0.961 . S
C869 H877 0.960 . S
C870 C868 1.381 . S
C870 C871 1.394 . S
C870 H878 0.930 . S
C871 C870 1.394 . S
C871 C872 1.383 . S
C871 H879 0.929 . S
C872 C871 1.383 . S
C872 C873 1.377 . S
C873 H857 0.930 . S
C873 C872 1.377 . S
C873 C874 1.379 . S
C874 H858 0.931 . S
C874 C868 1.383 . S
C874 C873 1.379 . S
H875 C869 0.959 . S
H876 C869 0.961 . S
H877 C869 0.960 . S
H878 C870 0.930 . S
H879 C871 0.929 . S
H880 C888 0.929 . S
H881 C890 0.930 . S
H882 C892 0.930 . S
H883 C895 0.929 . S
H884 C898 0.930 . S
H885 C900 0.960 . S
H886 C900 0.960 . S
H887 C900 0.960 . S
C888 H880 0.929 . S
C888 C889 1.377 . S
C888 C890 1.384 . S
C889 C888 1.377 . S
C889 C895 1.390 . S
C890 H881 0.930 . S
C890 C888 1.384 . S
C890 C891 1.372 . S
C891 C890 1.372 . S
C891 C892 1.400 . S
C891 C896 1.490 . S
C892 H882 0.930 . S
C892 C891 1.400 . S
C892 C895 1.386 . S
H893 C909 0.930 . S
H894 C910 0.931 . S
C895 H883 0.929 . S
C895 C889 1.390 . S
C895 C892 1.386 . S
C896 C891 1.490 . S
C896 C898 1.395 . S
C896 C899 1.403 . S
H897 C903 0.930 . S
C898 H884 0.930 . S
C898 C896 1.395 . S
C898 C901 1.403 . S
C899 C896 1.403 . S
C899 C900 1.524 . S
C899 C903 1.400 . S
C900 H885 0.960 . S
C900 H886 0.960 . S
C900 H887 0.960 . S
C900 C899 1.524 . S
C901 C898 1.403 . S
C901 C902 1.392 . S
C901 C905 1.495 . S
C902 C901 1.392 . S
C902 C903 1.385 . S
C902 C904 1.478 . S
C903 H897 0.930 . S
C903 C899 1.400 . S
C903 C902 1.385 . S
C904 C902 1.478 . S
C904 C906 1.381 . S
C904 C910 1.383 . S
C905 C901 1.495 . S
C905 H911 0.959 . S
C905 H912 0.961 . S
C905 H913 0.960 . S
C906 C904 1.381 . S
C906 C907 1.394 . S
C906 H914 0.930 . S
C907 C906 1.394 . S
C907 C908 1.383 . S
C907 H915 0.929 . S
C908 C907 1.383 . S
C908 C909 1.377 . S
C909 H893 0.930 . S
C909 C908 1.377 . S
C909 C910 1.379 . S
C910 H894 0.931 . S
C910 C904 1.383 . S
C910 C909 1.379 . S
H911 C905 0.959 . S
H912 C905 0.961 . S
H913 C905 0.960 . S
H914 C906 0.930 . S
H915 C907 0.929 . S
H916 C924 0.929 . S
H917 C926 0.930 . S
H918 C928 0.930 . S
H919 C931 0.929 . S
H920 C934 0.930 . S
H921 C936 0.960 . S
H922 C936 0.960 . S
H923 C936 0.960 . S
C924 H916 0.929 . S
C924 C925 1.377 . S
C924 C926 1.384 . S
C925 C924 1.377 . S
C925 C931 1.390 . S
C926 H917 0.930 . S
C926 C924 1.384 . S
C926 C927 1.372 . S
C927 C926 1.372 . S
C927 C928 1.400 . S
C927 C932 1.490 . S
C928 H918 0.930 . S
C928 C927 1.400 . S
C928 C931 1.386 . S
H929 C945 0.930 . S
H930 C946 0.931 . S
C931 H919 0.929 . S
C931 C925 1.390 . S
C931 C928 1.386 . S
C932 C927 1.490 . S
C932 C934 1.395 . S
C932 C935 1.403 . S
H933 C939 0.930 . S
C934 H920 0.930 . S
C934 C932 1.395 . S
C934 C937 1.403 1_554 S
C935 C932 1.403 . S
C935 C936 1.524 . S
C935 C939 1.400 1_554 S
C936 H921 0.960 . S
C936 H922 0.960 . S
C936 H923 0.960 . S
C936 C935 1.524 . S
C937 C934 1.403 1_556 S
C937 C938 1.392 . S
C937 C941 1.495 . S
C938 C937 1.392 . S
C938 C939 1.385 . S
C938 C940 1.478 . S
C939 H933 0.930 . S
C939 C935 1.400 1_556 S
C939 C938 1.385 . S
C940 C938 1.478 . S
C940 C942 1.381 . S
C940 C946 1.383 . S
C941 C937 1.495 . S
C941 H947 0.959 . S
C941 H948 0.961 . S
C941 H949 0.960 . S
C942 C940 1.381 . S
C942 C943 1.394 . S
C942 H950 0.930 . S
C943 C942 1.394 . S
C943 C944 1.383 . S
C943 H951 0.929 . S
C944 C943 1.383 . S
C944 C945 1.377 . S
C945 H929 0.930 . S
C945 C944 1.377 . S
C945 C946 1.379 . S
C946 H930 0.931 . S
C946 C940 1.383 . S
C946 C945 1.379 . S
H947 C941 0.959 . S
H948 C941 0.961 . S
H949 C941 0.960 . S
H950 C942 0.930 . S
H951 C943 0.929 . S
H952 C960 0.929 . S
H953 C962 0.930 . S
H954 C964 0.930 . S
H955 C967 0.929 . S
H956 C970 0.930 . S
H957 C972 0.960 . S
H958 C972 0.960 . S
H959 C972 0.960 . S
C960 H952 0.929 . S
C960 C961 1.377 . S
C960 C962 1.384 . S
C961 C960 1.377 . S
C961 C967 1.390 . S
C962 H953 0.930 . S
C962 C960 1.384 . S
C962 C963 1.372 . S
C963 C962 1.372 . S
C963 C964 1.400 . S
C963 C968 1.490 . S
C964 H954 0.930 . S
C964 C963 1.400 . S
C964 C967 1.386 . S
H965 C981 0.930 . S
H966 C982 0.931 . S
C967 H955 0.929 . S
C967 C961 1.390 . S
C967 C964 1.386 . S
C968 C963 1.490 . S
C968 C970 1.395 . S
C968 C971 1.403 . S
H969 C975 0.930 . S
C970 H956 0.930 . S
C970 C968 1.395 . S
C970 C973 1.403 . S
C971 C968 1.403 . S
C971 C972 1.524 . S
C971 C975 1.400 . S
C972 H957 0.960 . S
C972 H958 0.960 . S
C972 H959 0.960 . S
C972 C971 1.524 . S
C973 C970 1.403 . S
C973 C974 1.392 . S
C973 C977 1.495 . S
C974 C973 1.392 . S
C974 C975 1.385 . S
C974 C976 1.478 . S
C975 H969 0.930 . S
C975 C971 1.400 . S
C975 C974 1.385 . S
C976 C974 1.478 . S
C976 C978 1.381 . S
C976 C982 1.383 . S
C977 C973 1.495 . S
C977 H983 0.959 . S
C977 H984 0.961 . S
C977 H985 0.960 . S
C978 C976 1.381 . S
C978 C979 1.394 . S
C978 H986 0.930 . S
C979 C978 1.394 . S
C979 C980 1.383 . S
C979 H987 0.929 . S
C980 C979 1.383 . S
C980 C981 1.377 . S
C981 H965 0.930 . S
C981 C980 1.377 . S
C981 C982 1.379 . S
C982 H966 0.931 . S
C982 C976 1.383 . S
C982 C981 1.379 . S
H983 C977 0.959 . S
H984 C977 0.961 . S
H985 C977 0.960 . S
H986 C978 0.930 . S
H987 C979 0.929 . S
H988 C996 0.929 . S
H989 C998 0.930 . S
H990 C1000 0.930 . S
H991 C1003 0.929 . S
H992 C1006 0.930 . S
H993 C1008 0.960 . S
H994 C1008 0.960 . S
H995 C1008 0.960 . S
C996 H988 0.929 . S
C996 C997 1.377 . S
C996 C998 1.384 . S
C997 C996 1.377 . S
C997 C1003 1.390 . S
C998 H989 0.930 . S
C998 C996 1.384 . S
C998 C999 1.372 . S
C999 C998 1.372 . S
C999 C1000 1.400 . S
C999 C1004 1.490 . S
C1000 H990 0.930 . S
C1000 C999 1.400 . S
C1000 C1003 1.386 . S
H1001 C1017 0.930 . S
H1002 C1018 0.931 . S
C1003 H991 0.929 . S
C1003 C997 1.390 . S
C1003 C1000 1.386 . S
C1004 C999 1.490 . S
C1004 C1006 1.395 . S
C1004 C1007 1.403 . S
H1005 C1011 0.930 . S
C1006 H992 0.930 . S
C1006 C1004 1.395 . S
C1006 C1009 1.403 . S
C1007 C1004 1.403 . S
C1007 C1008 1.524 . S
C1007 C1011 1.400 . S
C1008 H993 0.960 . S
C1008 H994 0.960 . S
C1008 H995 0.960 . S
C1008 C1007 1.524 . S
C1009 C1006 1.403 . S
C1009 C1010 1.392 . S
C1009 C1013 1.495 . S
C1010 C1009 1.392 . S
C1010 C1011 1.385 . S
C1010 C1012 1.478 . S
C1011 H1005 0.930 . S
C1011 C1007 1.400 . S
C1011 C1010 1.385 . S
C1012 C1010 1.478 . S
C1012 C1014 1.381 . S
C1012 C1018 1.383 . S
C1013 C1009 1.495 . S
C1013 H1019 0.959 . S
C1013 H1020 0.961 . S
C1013 H1021 0.960 . S
C1014 C1012 1.381 . S
C1014 C1015 1.394 . S
C1014 H1022 0.930 . S
C1015 C1014 1.394 . S
C1015 C1016 1.383 . S
C1015 H1023 0.929 . S
C1016 C1015 1.383 . S
C1016 C1017 1.377 . S
C1017 H1001 0.930 . S
C1017 C1016 1.377 . S
C1017 C1018 1.379 . S
C1018 H1002 0.931 . S
C1018 C1012 1.383 . S
C1018 C1017 1.379 . S
H1019 C1013 0.959 . S
H1020 C1013 0.961 . S
H1021 C1013 0.960 . S
H1022 C1014 0.930 . S
H1023 C1015 0.929 . S
H1024 C1032 0.929 . S
H1025 C1034 0.930 . S
H1026 C1036 0.930 . S
H1027 C1039 0.929 1_545 S
H1028 C1042 0.930 . S
H1029 C1044 0.960 . S
H1030 C1044 0.960 . S
H1031 C1044 0.960 . S
C1032 H1024 0.929 . S
C1032 C1033 1.377 . S
C1032 C1034 1.384 1_545 S
C1033 C1032 1.377 . S
C1033 C1039 1.390 1_545 S
C1034 H1025 0.930 . S
C1034 C1032 1.384 1_565 S
C1034 C1035 1.372 . S
C1035 C1034 1.372 . S
C1035 C1036 1.400 . S
C1035 C1040 1.490 . S
C1036 H1026 0.930 . S
C1036 C1035 1.400 . S
C1036 C1039 1.386 . S
H1037 C1053 0.930 . S
H1038 C1054 0.931 . S
C1039 H1027 0.929 1_565 S
C1039 C1033 1.390 1_565 S
C1039 C1036 1.386 . S
C1040 C1035 1.490 . S
C1040 C1042 1.395 . S
C1040 C1043 1.403 . S
H1041 C1047 0.930 . S
C1042 H1028 0.930 . S
C1042 C1040 1.395 . S
C1042 C1045 1.403 . S
C1043 C1040 1.403 . S
C1043 C1044 1.524 . S
C1043 C1047 1.400 . S
C1044 H1029 0.960 . S
C1044 H1030 0.960 . S
C1044 H1031 0.960 . S
C1044 C1043 1.524 . S
C1045 C1042 1.403 . S
C1045 C1046 1.392 . S
C1045 C1049 1.495 . S
C1046 C1045 1.392 . S
C1046 C1047 1.385 . S
C1046 C1048 1.478 . S
C1047 H1041 0.930 . S
C1047 C1043 1.400 . S
C1047 C1046 1.385 . S
C1048 C1046 1.478 . S
C1048 C1050 1.381 . S
C1048 C1054 1.383 . S
C1049 C1045 1.495 . S
C1049 H1055 0.959 . S
C1049 H1056 0.961 . S
C1049 H1057 0.960 . S
C1050 C1048 1.381 . S
C1050 C1051 1.394 . S
C1050 H1058 0.930 . S
C1051 C1050 1.394 . S
C1051 C1052 1.383 . S
C1051 H1059 0.929 . S
C1052 C1051 1.383 . S
C1052 C1053 1.377 . S
C1053 H1037 0.930 . S
C1053 C1052 1.377 . S
C1053 C1054 1.379 . S
C1054 H1038 0.931 . S
C1054 C1048 1.383 . S
C1054 C1053 1.379 . S
H1055 C1049 0.959 . S
H1056 C1049 0.961 . S
H1057 C1049 0.960 . S
H1058 C1050 0.930 . S
H1059 C1051 0.929 . S
H1060 C1068 0.929 . S
H1061 C1070 0.930 . S
H1062 C1072 0.930 . S
H1063 C1075 0.929 . S
H1064 C1078 0.930 . S
H1065 C1080 0.960 . S
H1066 C1080 0.960 . S
H1067 C1080 0.960 . S
C1068 H1060 0.929 . S
C1068 C1069 1.377 . S
C1068 C1070 1.384 . S
C1069 C1068 1.377 . S
C1069 C1075 1.390 . S
C1070 H1061 0.930 . S
C1070 C1068 1.384 . S
C1070 C1071 1.372 . S
C1071 C1070 1.372 . S
C1071 C1072 1.400 . S
C1071 C1076 1.490 . S
C1072 H1062 0.930 . S
C1072 C1071 1.400 . S
C1072 C1075 1.386 . S
H1073 C1089 0.930 . S
H1074 C1090 0.931 . S
C1075 H1063 0.929 . S
C1075 C1069 1.390 . S
C1075 C1072 1.386 . S
C1076 C1071 1.490 . S
C1076 C1078 1.395 . S
C1076 C1079 1.403 . S
H1077 C1083 0.930 . S
C1078 H1064 0.930 . S
C1078 C1076 1.395 . S
C1078 C1081 1.403 . S
C1079 C1076 1.403 . S
C1079 C1080 1.524 . S
C1079 C1083 1.400 . S
C1080 H1065 0.960 . S
C1080 H1066 0.960 . S
C1080 H1067 0.960 . S
C1080 C1079 1.524 . S
C1081 C1078 1.403 . S
C1081 C1082 1.392 . S
C1081 C1085 1.495 . S
C1082 C1081 1.392 . S
C1082 C1083 1.385 . S
C1082 C1084 1.478 . S
C1083 H1077 0.930 . S
C1083 C1079 1.400 . S
C1083 C1082 1.385 . S
C1084 C1082 1.478 . S
C1084 C1086 1.343 1_545 S
C1084 C1090 1.383 . S
C1085 C1081 1.495 . S
C1085 H1091 0.959 . S
C1085 H1092 0.961 . S
C1085 H1093 0.960 . S
C1086 C1084 1.343 1_565 S
C1086 C1087 1.420 . S
C1086 H1094 0.944 . S
C1087 C1086 1.420 . S
C1087 C1088 1.383 . S
C1087 H1095 0.929 . S
C1088 C1087 1.383 . S
C1088 C1089 1.377 1_565 S
C1089 H1073 0.930 . S
C1089 C1088 1.377 1_545 S
C1089 C1090 1.379 . S
C1090 H1074 0.931 . S
C1090 C1084 1.383 . S
C1090 C1089 1.379 . S
H1091 C1085 0.959 . S
H1092 C1085 0.961 . S
H1093 C1085 0.960 . S
H1094 C1086 0.944 . S
H1095 C1087 0.929 . S
H1096 C1104 0.929 . S
H1097 C1106 0.930 . S
H1098 C1108 0.930 . S
H1099 C1111 0.929 . S
H1100 C1114 0.930 . S
H1101 C1116 0.960 . S
H1102 C1116 0.960 . S
H1103 C1116 0.960 . S
C1104 H1096 0.929 . S
C1104 C1105 1.377 . S
C1104 C1106 1.384 1_565 S
C1105 C1104 1.377 . S
C1105 C1111 1.390 1_565 S
C1106 H1097 0.930 . S
C1106 C1104 1.384 1_545 S
C1106 C1107 1.372 . S
C1107 C1106 1.372 . S
C1107 C1108 1.400 . S
C1107 C1112 1.490 . S
C1108 H1098 0.930 . S
C1108 C1107 1.400 . S
C1108 C1111 1.386 . S
H1109 C1125 0.930 . S
H1110 C1126 0.931 . S
C1111 H1099 0.929 . S
C1111 C1105 1.390 1_545 S
C1111 C1108 1.386 . S
C1112 C1107 1.490 . S
C1112 C1114 1.395 . S
C1112 C1115 1.403 . S
H1113 C1119 0.930 . S
C1114 H1100 0.930 . S
C1114 C1112 1.395 . S
C1114 C1117 1.403 . S
C1115 C1112 1.403 . S
C1115 C1116 1.524 . S
C1115 C1119 1.400 . S
C1116 H1101 0.960 . S
C1116 H1102 0.960 . S
C1116 H1103 0.960 . S
C1116 C1115 1.524 . S
C1117 C1114 1.403 . S
C1117 C1118 1.392 . S
C1117 C1121 1.495 . S
C1118 C1117 1.392 . S
C1118 C1119 1.385 . S
C1118 C1120 1.478 . S
C1119 H1113 0.930 . S
C1119 C1115 1.400 . S
C1119 C1118 1.385 . S
C1120 C1118 1.478 . S
C1120 C1122 1.381 . S
C1120 C1126 1.383 . S
C1121 C1117 1.495 . S
C1121 H1127 0.959 . S
C1121 H1128 0.961 . S
C1121 H1129 0.960 . S
C1122 C1120 1.381 . S
C1122 C1123 1.394 . S
C1122 H1130 0.930 . S
C1123 C1122 1.394 . S
C1123 C1124 1.383 . S
C1123 H1131 0.929 . S
C1124 C1123 1.383 . S
C1124 C1125 1.377 . S
C1125 H1109 0.930 . S
C1125 C1124 1.377 . S
C1125 C1126 1.379 . S
C1126 H1110 0.931 . S
C1126 C1120 1.383 . S
C1126 C1125 1.379 . S
H1127 C1121 0.959 . S
H1128 C1121 0.961 . S
H1129 C1121 0.960 . S
H1130 C1122 0.930 . S
H1131 C1123 0.929 . S
H1132 C1140 0.919 1_545 S
H1133 C1142 0.930 . S
H1134 C1144 0.930 . S
H1135 C1147 0.929 . S
H1136 C1150 0.930 . S
H1137 C1152 0.960 . S
H1138 C1152 0.960 . S
H1139 C1152 0.960 . S
C1140 H1132 0.919 1_565 S
C1140 C1141 1.377 1_565 S
C1140 C1142 1.384 . S
C1141 C1140 1.377 1_545 S
C1141 C1147 1.390 . S
C1142 H1133 0.930 . S
C1142 C1140 1.384 . S
C1142 C1143 1.372 . S
C1143 C1142 1.372 . S
C1143 C1144 1.400 . S
C1143 C1148 1.490 . S
C1144 H1134 0.930 . S
C1144 C1143 1.400 . S
C1144 C1147 1.386 1_565 S
H1145 C1161 0.930 . S
H1146 C1162 0.931 . S
C1147 H1135 0.929 . S
C1147 C1141 1.390 . S
C1147 C1144 1.386 1_545 S
C1148 C1143 1.490 . S
C1148 C1150 1.395 . S
C1148 C1151 1.403 . S
H1149 C1155 0.930 . S
C1150 H1136 0.930 . S
C1150 C1148 1.395 . S
C1150 C1153 1.403 . S
C1151 C1148 1.403 . S
C1151 C1152 1.524 . S
C1151 C1155 1.400 . S
C1152 H1137 0.960 . S
C1152 H1138 0.960 . S
C1152 H1139 0.960 . S
C1152 C1151 1.524 . S
C1153 C1150 1.403 . S
C1153 C1154 1.392 . S
C1153 C1157 1.495 . S
C1154 C1153 1.392 . S
C1154 C1155 1.385 . S
C1154 C1156 1.478 . S
C1155 H1149 0.930 . S
C1155 C1151 1.400 . S
C1155 C1154 1.385 . S
C1156 C1154 1.478 . S
C1156 C1158 1.381 . S
C1156 C1162 1.383 . S
C1157 C1153 1.495 . S
C1157 H1163 0.959 . S
C1157 H1164 0.961 . S
C1157 H1165 0.960 . S
C1158 C1156 1.381 . S
C1158 C1159 1.394 . S
C1158 H1166 0.930 . S
C1159 C1158 1.394 . S
C1159 C1160 1.383 . S
C1159 H1167 0.929 . S
C1160 C1159 1.383 . S
C1160 C1161 1.377 . S
C1161 H1145 0.930 . S
C1161 C1160 1.377 . S
C1161 C1162 1.379 . S
C1162 H1146 0.931 . S
C1162 C1156 1.383 . S
C1162 C1161 1.379 . S
H1163 C1157 0.959 . S
H1164 C1157 0.961 . S
H1165 C1157 0.960 . S
H1166 C1158 0.930 . S
H1167 C1159 0.929 . S
H1168 C1176 0.929 . S
H1169 C1178 0.930 . S
H1170 C1180 0.930 . S
H1171 C1183 0.929 . S
H1172 C1186 0.930 . S
H1173 C1188 0.960 . S
H1174 C1188 0.960 . S
H1175 C1188 0.960 . S
C1176 H1168 0.929 . S
C1176 C1177 1.377 . S
C1176 C1178 1.384 . S
C1177 C1176 1.377 . S
C1177 C1183 1.390 . S
C1178 H1169 0.930 . S
C1178 C1176 1.384 . S
C1178 C1179 1.372 . S
C1179 C1178 1.372 . S
C1179 C1180 1.400 . S
C1179 C1184 1.490 . S
C1180 H1170 0.930 . S
C1180 C1179 1.400 . S
C1180 C1183 1.386 . S
H1181 C1197 0.930 . S
H1182 C1198 0.931 . S
C1183 H1171 0.929 . S
C1183 C1177 1.390 . S
C1183 C1180 1.386 . S
C1184 C1179 1.490 . S
C1184 C1186 1.395 . S
C1184 C1187 1.403 . S
H1185 C1191 0.930 . S
C1186 H1172 0.930 . S
C1186 C1184 1.395 . S
C1186 C1189 1.403 . S
C1187 C1184 1.403 . S
C1187 C1188 1.524 . S
C1187 C1191 1.400 . S
C1188 H1173 0.960 . S
C1188 H1174 0.960 . S
C1188 H1175 0.960 . S
C1188 C1187 1.524 . S
C1189 C1186 1.403 . S
C1189 C1190 1.392 . S
C1189 C1193 1.495 . S
C1190 C1189 1.392 . S
C1190 C1191 1.385 . S
C1190 C1192 1.478 . S
C1191 H1185 0.930 . S
C1191 C1187 1.400 . S
C1191 C1190 1.385 . S
C1192 C1190 1.478 . S
C1192 C1194 1.381 . S
C1192 C1198 1.383 . S
C1193 C1189 1.495 . S
C1193 H1199 0.959 . S
C1193 H1200 0.961 . S
C1193 H1201 0.960 . S
C1194 C1192 1.381 . S
C1194 C1195 1.394 1_545 S
C1194 H1202 0.930 . S
C1195 C1194 1.394 1_565 S
C1195 C1196 1.383 . S
C1195 H1203 0.929 . S
C1196 C1195 1.383 . S
C1196 C1197 1.377 1_565 S
C1197 H1181 0.930 . S
C1197 C1196 1.377 1_545 S
C1197 C1198 1.379 . S
C1198 H1182 0.931 . S
C1198 C1192 1.383 . S
C1198 C1197 1.379 . S
H1199 C1193 0.959 . S
H1200 C1193 0.961 . S
H1201 C1193 0.960 . S
H1202 C1194 0.930 . S
H1203 C1195 0.929 . S
H1204 C1212 0.929 1_545 S
H1205 C1214 0.930 . S
H1206 C1216 0.930 . S
H1207 C1219 0.929 . S
H1208 C1222 0.930 . S
H1209 C1224 0.960 . S
H1210 C1224 0.960 . S
H1211 C1224 0.960 . S
C1212 H1204 0.929 1_565 S
C1212 C1213 1.377 1_565 S
C1212 C1214 1.384 . S
C1213 C1212 1.377 1_545 S
C1213 C1219 1.390 . S
C1214 H1205 0.930 . S
C1214 C1212 1.384 . S
C1214 C1215 1.372 . S
C1215 C1214 1.372 . S
C1215 C1216 1.400 . S
C1215 C1220 1.490 . S
C1216 H1206 0.930 . S
C1216 C1215 1.400 . S
C1216 C1219 1.386 1_565 S
H1217 C1233 0.930 . S
H1218 C1234 0.931 . S
C1219 H1207 0.929 . S
C1219 C1213 1.390 . S
C1219 C1216 1.386 1_545 S
C1220 C1215 1.490 . S
C1220 C1222 1.395 . S
C1220 C1223 1.403 . S
H1221 C1227 0.930 . S
C1222 H1208 0.930 . S
C1222 C1220 1.395 . S
C1222 C1225 1.403 . S
C1223 C1220 1.403 . S
C1223 C1224 1.524 . S
C1223 C1227 1.400 . S
C1224 H1209 0.960 . S
C1224 H1210 0.960 . S
C1224 H1211 0.960 . S
C1224 C1223 1.524 . S
C1225 C1222 1.403 . S
C1225 C1226 1.392 . S
C1225 C1229 1.495 . S
C1226 C1225 1.392 . S
C1226 C1227 1.385 . S
C1226 C1228 1.478 . S
C1227 H1221 0.930 . S
C1227 C1223 1.400 . S
C1227 C1226 1.385 . S
C1228 C1226 1.478 . S
C1228 C1230 1.381 . S
C1228 C1234 1.383 . S
C1229 C1225 1.495 . S
C1229 H1235 0.959 . S
C1229 H1236 0.961 . S
C1229 H1237 0.960 . S
C1230 C1228 1.381 . S
C1230 C1231 1.394 . S
C1230 H1238 0.930 . S
C1231 C1230 1.394 . S
C1231 C1232 1.383 . S
C1231 H1239 0.929 . S
C1232 C1231 1.383 . S
C1232 C1233 1.377 . S
C1233 H1217 0.930 . S
C1233 C1232 1.377 . S
C1233 C1234 1.379 . S
C1234 H1218 0.931 . S
C1234 C1228 1.383 . S
C1234 C1233 1.379 . S
H1235 C1229 0.959 . S
H1236 C1229 0.961 . S
H1237 C1229 0.960 . S
H1238 C1230 0.930 . S
H1239 C1231 0.929 . S
H1240 C1248 0.929 . S
H1241 C1250 0.930 . S
H1242 C1252 0.930 . S
H1243 C1255 0.929 . S
H1244 C1258 0.930 . S
H1245 C1260 0.960 . S
H1246 C1260 0.960 . S
H1247 C1260 0.960 . S
C1248 H1240 0.929 . S
C1248 C1249 1.377 . S
C1248 C1250 1.384 . S
C1249 C1248 1.377 . S
C1249 C1255 1.390 . S
C1250 H1241 0.930 . S
C1250 C1248 1.384 . S
C1250 C1251 1.372 . S
C1251 C1250 1.372 . S
C1251 C1252 1.400 . S
C1251 C1256 1.490 . S
C1252 H1242 0.930 . S
C1252 C1251 1.400 . S
C1252 C1255 1.386 . S
H1253 C1269 0.930 . S
H1254 C1270 0.931 . S
C1255 H1243 0.929 . S
C1255 C1249 1.390 . S
C1255 C1252 1.386 . S
C1256 C1251 1.490 . S
C1256 C1258 1.395 . S
C1256 C1259 1.403 . S
H1257 C1263 0.930 . S
C1258 H1244 0.930 . S
C1258 C1256 1.395 . S
C1258 C1261 1.403 . S
C1259 C1256 1.403 . S
C1259 C1260 1.524 . S
C1259 C1263 1.400 . S
C1260 H1245 0.960 . S
C1260 H1246 0.960 . S
C1260 H1247 0.960 . S
C1260 C1259 1.524 . S
C1261 C1258 1.403 . S
C1261 C1262 1.392 . S
C1261 C1265 1.495 . S
C1262 C1261 1.392 . S
C1262 C1263 1.385 . S
C1262 C1264 1.478 . S
C1263 H1257 0.930 . S
C1263 C1259 1.400 . S
C1263 C1262 1.385 . S
C1264 C1262 1.478 . S
C1264 C1266 1.381 . S
C1264 C1270 1.383 . S
C1265 C1261 1.495 . S
C1265 H1271 0.959 . S
C1265 H1272 0.961 . S
C1265 H1273 0.960 1_565 S
C1266 C1264 1.381 . S
C1266 C1267 1.394 1_565 S
C1266 H1274 0.924 1_565 S
C1267 C1266 1.394 1_545 S
C1267 C1268 1.383 . S
C1267 H1275 0.929 . S
C1268 C1267 1.383 . S
C1268 C1269 1.377 1_545 S
C1269 H1253 0.930 . S
C1269 C1268 1.377 1_565 S
C1269 C1270 1.379 . S
C1270 H1254 0.931 . S
C1270 C1264 1.383 . S
C1270 C1269 1.379 . S
H1271 C1265 0.959 . S
H1272 C1265 0.961 . S
H1273 C1265 0.960 1_545 S
H1274 C1266 0.924 1_545 S
H1275 C1267 0.929 . S
H1276 C1284 0.929 . S
H1277 C1286 0.930 . S
H1278 C1288 0.930 . S
H1279 C1291 0.929 . S
H1280 C1294 0.930 . S
H1281 C1296 0.960 . S
H1282 C1296 0.960 . S
H1283 C1296 0.960 . S
C1284 H1276 0.929 . S
C1284 C1285 1.377 . S
C1284 C1286 1.384 . S
C1285 C1284 1.377 . S
C1285 C1291 1.390 . S
C1286 H1277 0.930 . S
C1286 C1284 1.384 . S
C1286 C1287 1.372 . S
C1287 C1286 1.372 . S
C1287 C1288 1.400 . S
C1287 C1292 1.490 . S
C1288 H1278 0.930 . S
C1288 C1287 1.400 . S
C1288 C1291 1.386 . S
H1289 C1305 0.930 . S
H1290 C1306 0.931 . S
C1291 H1279 0.929 . S
C1291 C1285 1.390 . S
C1291 C1288 1.386 . S
C1292 C1287 1.490 . S
C1292 C1294 1.395 . S
C1292 C1295 1.403 . S
H1293 C1299 0.930 . S
C1294 H1280 0.930 . S
C1294 C1292 1.395 . S
C1294 C1297 1.403 . S
C1295 C1292 1.403 . S
C1295 C1296 1.524 . S
C1295 C1299 1.400 . S
C1296 H1281 0.960 . S
C1296 H1282 0.960 . S
C1296 H1283 0.960 . S
C1296 C1295 1.524 . S
C1297 C1294 1.403 . S
C1297 C1298 1.392 . S
C1297 C1301 1.495 . S
C1298 C1297 1.392 . S
C1298 C1299 1.385 . S
C1298 C1300 1.478 . S
C1299 H1293 0.930 . S
C1299 C1295 1.400 . S
C1299 C1298 1.385 . S
C1300 C1298 1.478 . S
C1300 C1302 1.381 . S
C1300 C1306 1.383 . S
C1301 C1297 1.495 . S
C1301 H1307 0.959 . S
C1301 H1308 0.961 . S
C1301 H1309 0.960 . S
C1302 C1300 1.381 . S
C1302 C1303 1.394 . S
C1302 H1310 0.930 . S
C1303 C1302 1.394 . S
C1303 C1304 1.383 1_545 S
C1303 H1311 0.929 . S
C1304 C1303 1.383 1_565 S
C1304 C1305 1.377 . S
C1305 H1289 0.930 . S
C1305 C1304 1.377 . S
C1305 C1306 1.379 1_565 S
C1306 H1290 0.931 . S
C1306 C1300 1.383 . S
C1306 C1305 1.379 1_545 S
H1307 C1301 0.959 . S
H1308 C1301 0.961 . S
H1309 C1301 0.960 . S
H1310 C1302 0.930 . S
H1311 C1303 0.929 . S
H1312 C1320 0.929 . S
H1313 C1322 0.930 . S
H1314 C1324 0.930 . S
H1315 C1327 0.929 . S
H1316 C1330 0.930 . S
H1317 C1332 0.960 . S
H1318 C1332 0.960 . S
H1319 C1332 0.960 . S
C1320 H1312 0.929 . S
C1320 C1321 1.377 . S
C1320 C1322 1.384 . S
C1321 C1320 1.377 . S
C1321 C1327 1.390 . S
C1322 H1313 0.930 . S
C1322 C1320 1.384 . S
C1322 C1323 1.372 . S
C1323 C1322 1.372 . S
C1323 C1324 1.400 . S
C1323 C1328 1.490 . S
C1324 H1314 0.930 . S
C1324 C1323 1.400 . S
C1324 C1327 1.386 . S
H1325 C1341 0.930 . S
H1326 C1342 0.931 . S
C1327 H1315 0.929 . S
C1327 C1321 1.390 . S
C1327 C1324 1.386 . S
C1328 C1323 1.490 . S
C1328 C1330 1.395 . S
C1328 C1331 1.403 . S
H1329 C1335 0.930 . S
C1330 H1316 0.930 . S
C1330 C1328 1.395 . S
C1330 C1333 1.403 . S
C1331 C1328 1.403 . S
C1331 C1332 1.524 . S
C1331 C1335 1.400 . S
C1332 H1317 0.960 . S
C1332 H1318 0.960 . S
C1332 H1319 0.960 . S
C1332 C1331 1.524 . S
C1333 C1330 1.403 . S
C1333 C1334 1.392 . S
C1333 C1337 1.495 . S
C1334 C1333 1.392 . S
C1334 C1335 1.385 . S
C1334 C1336 1.478 . S
C1335 H1329 0.930 . S
C1335 C1331 1.400 . S
C1335 C1334 1.385 . S
C1336 C1334 1.478 . S
C1336 C1338 1.381 . S
C1336 C1342 1.383 . S
C1337 C1333 1.495 . S
C1337 H1343 0.959 . S
C1337 H1344 0.961 . S
C1337 H1345 0.960 . S
C1338 C1336 1.381 . S
C1338 C1339 1.394 . S
C1338 H1346 0.930 . S
C1339 C1338 1.394 . S
C1339 C1340 1.383 . S
C1339 H1347 0.929 . S
C1340 C1339 1.383 . S
C1340 C1341 1.377 . S
C1341 H1325 0.930 . S
C1341 C1340 1.377 . S
C1341 C1342 1.379 . S
C1342 H1326 0.931 . S
C1342 C1336 1.383 . S
C1342 C1341 1.379 . S
H1343 C1337 0.959 . S
H1344 C1337 0.961 . S
H1345 C1337 0.960 . S
H1346 C1338 0.930 . S
H1347 C1339 0.929 . S
H1348 C1356 0.929 . S
H1349 C1358 0.930 . S
H1350 C1360 0.930 . S
H1351 C1363 0.929 . S
H1352 C1366 0.930 . S
H1353 C1368 0.960 . S
H1354 C1368 0.960 . S
H1355 C1368 0.960 . S
C1356 H1348 0.929 . S
C1356 C1357 1.377 . S
C1356 C1358 1.384 . S
C1357 C1356 1.377 . S
C1357 C1363 1.390 . S
C1358 H1349 0.930 . S
C1358 C1356 1.384 . S
C1358 C1359 1.372 . S
C1359 C1358 1.372 . S
C1359 C1360 1.400 . S
C1359 C1364 1.490 . S
C1360 H1350 0.930 . S
C1360 C1359 1.400 . S
C1360 C1363 1.386 . S
H1361 C1377 0.930 . S
H1362 C1378 0.931 . S
C1363 H1351 0.929 . S
C1363 C1357 1.390 . S
C1363 C1360 1.386 . S
C1364 C1359 1.490 . S
C1364 C1366 1.395 . S
C1364 C1367 1.403 . S
H1365 C1371 0.930 . S
C1366 H1352 0.930 . S
C1366 C1364 1.395 . S
C1366 C1369 1.403 . S
C1367 C1364 1.403 . S
C1367 C1368 1.524 . S
C1367 C1371 1.400 . S
C1368 H1353 0.960 . S
C1368 H1354 0.960 . S
C1368 H1355 0.960 . S
C1368 C1367 1.524 . S
C1369 C1366 1.403 . S
C1369 C1370 1.392 . S
C1369 C1373 1.495 . S
C1370 C1369 1.392 . S
C1370 C1371 1.385 . S
C1370 C1372 1.478 . S
C1371 H1365 0.930 . S
C1371 C1367 1.400 . S
C1371 C1370 1.385 . S
C1372 C1370 1.478 . S
C1372 C1374 1.381 . S
C1372 C1378 1.383 . S
C1373 C1369 1.495 . S
C1373 H1379 0.959 . S
C1373 H1380 0.961 . S
C1373 H1381 0.960 . S
C1374 C1372 1.381 . S
C1374 C1375 1.394 . S
C1374 H1382 0.930 . S
C1375 C1374 1.394 . S
C1375 C1376 1.383 . S
C1375 H1383 0.929 . S
C1376 C1375 1.383 . S
C1376 C1377 1.377 . S
C1377 H1361 0.930 . S
C1377 C1376 1.377 . S
C1377 C1378 1.379 . S
C1378 H1362 0.931 . S
C1378 C1372 1.383 . S
C1378 C1377 1.379 . S
H1379 C1373 0.959 . S
H1380 C1373 0.961 . S
H1381 C1373 0.960 . S
H1382 C1374 0.930 . S
H1383 C1375 0.929 . S
H1384 C1392 0.929 . S
H1385 C1394 0.930 . S
H1386 C1396 0.930 . S
H1387 C1399 0.929 . S
H1388 C1402 0.930 . S
H1389 C1404 0.960 . S
H1390 C1404 0.960 . S
H1391 C1404 0.960 . S
C1392 H1384 0.929 . S
C1392 C1393 1.377 . S
C1392 C1394 1.384 . S
C1393 C1392 1.377 . S
C1393 C1399 1.390 . S
C1394 H1385 0.930 . S
C1394 C1392 1.384 . S
C1394 C1395 1.372 . S
C1395 C1394 1.372 . S
C1395 C1396 1.400 . S
C1395 C1400 1.490 . S
C1396 H1386 0.930 . S
C1396 C1395 1.400 . S
C1396 C1399 1.386 . S
H1397 C1413 0.930 . S
H1398 C1414 0.931 . S
C1399 H1387 0.929 . S
C1399 C1393 1.390 . S
C1399 C1396 1.386 . S
C1400 C1395 1.490 . S
C1400 C1402 1.395 . S
C1400 C1403 1.403 . S
H1401 C1407 0.930 . S
C1402 H1388 0.930 . S
C1402 C1400 1.395 . S
C1402 C1405 1.403 . S
C1403 C1400 1.403 . S
C1403 C1404 1.524 . S
C1403 C1407 1.400 . S
C1404 H1389 0.960 . S
C1404 H1390 0.960 . S
C1404 H1391 0.960 . S
C1404 C1403 1.524 . S
C1405 C1402 1.403 . S
C1405 C1406 1.392 . S
C1405 C1409 1.495 . S
C1406 C1405 1.392 . S
C1406 C1407 1.385 . S
C1406 C1408 1.478 . S
C1407 H1401 0.930 . S
C1407 C1403 1.400 . S
C1407 C1406 1.385 . S
C1408 C1406 1.478 . S
C1408 C1410 1.381 . S
C1408 C1414 1.383 . S
C1409 C1405 1.495 . S
C1409 H1415 0.959 . S
C1409 H1416 0.961 . S
C1409 H1417 0.960 . S
C1410 C1408 1.381 . S
C1410 C1411 1.394 . S
C1410 H1418 0.930 . S
C1411 C1410 1.394 . S
C1411 C1412 1.383 . S
C1411 H1419 0.929 . S
C1412 C1411 1.383 . S
C1412 C1413 1.377 . S
C1413 H1397 0.930 . S
C1413 C1412 1.377 . S
C1413 C1414 1.379 . S
C1414 H1398 0.931 . S
C1414 C1408 1.383 . S
C1414 C1413 1.379 . S
H1415 C1409 0.959 . S
H1416 C1409 0.961 . S
H1417 C1409 0.960 . S
H1418 C1410 0.930 . S
H1419 C1411 0.929 . S
H1420 C1428 0.929 . S
H1421 C1430 0.930 . S
H1422 C1432 0.930 . S
H1423 C1435 0.929 . S
H1424 C1438 0.930 . S
H1425 C1440 0.960 . S
H1426 C1440 0.960 . S
H1427 C1440 0.960 . S
C1428 H1420 0.929 . S
C1428 C1429 1.377 . S
C1428 C1430 1.384 . S
C1429 C1428 1.377 . S
C1429 C1435 1.390 . S
C1430 H1421 0.930 . S
C1430 C1428 1.384 . S
C1430 C1431 1.372 . S
C1431 C1430 1.372 . S
C1431 C1432 1.400 . S
C1431 C1436 1.490 . S
C1432 H1422 0.930 . S
C1432 C1431 1.400 . S
C1432 C1435 1.386 . S
H1433 C1449 0.930 . S
H1434 C1450 0.931 . S
C1435 H1423 0.929 . S
C1435 C1429 1.390 . S
C1435 C1432 1.386 . S
C1436 C1431 1.490 . S
C1436 C1438 1.395 . S
C1436 C1439 1.403 . S
H1437 C1443 0.930 . S
C1438 H1424 0.930 . S
C1438 C1436 1.395 . S
C1438 C1441 1.403 . S
C1439 C1436 1.403 . S
C1439 C1440 1.524 . S
C1439 C1443 1.400 . S
C1440 H1425 0.960 . S
C1440 H1426 0.960 . S
C1440 H1427 0.960 . S
C1440 C1439 1.524 . S
C1441 C1438 1.403 . S
C1441 C1442 1.392 . S
C1441 C1445 1.495 . S
C1442 C1441 1.392 . S
C1442 C1443 1.385 . S
C1442 C1444 1.478 . S
C1443 H1437 0.930 . S
C1443 C1439 1.400 . S
C1443 C1442 1.385 . S
C1444 C1442 1.478 . S
C1444 C1446 1.381 . S
C1444 C1450 1.383 . S
C1445 C1441 1.495 . S
C1445 H1451 0.959 . S
C1445 H1452 0.961 . S
C1445 H1453 0.960 . S
C1446 C1444 1.381 . S
C1446 C1447 1.394 . S
C1446 H1454 0.930 . S
C1447 C1446 1.394 . S
C1447 C1448 1.383 . S
C1447 H1455 0.929 . S
C1448 C1447 1.383 . S
C1448 C1449 1.377 . S
C1449 H1433 0.930 . S
C1449 C1448 1.377 . S
C1449 C1450 1.379 . S
C1450 H1434 0.931 . S
C1450 C1444 1.383 . S
C1450 C1449 1.379 . S
H1451 C1445 0.959 . S
H1452 C1445 0.961 . S
H1453 C1445 0.960 . S
H1454 C1446 0.930 . S
H1455 C1447 0.929 . S
H1456 C1464 0.929 . S
H1457 C1466 0.930 . S
H1458 C1468 0.930 . S
H1459 C1471 0.929 . S
H1460 C1474 0.930 . S
H1461 C1476 0.960 . S
H1462 C1476 0.960 . S
H1463 C1476 0.960 . S
C1464 H1456 0.929 . S
C1464 C1465 1.377 . S
C1464 C1466 1.384 . S
C1465 C1464 1.377 . S
C1465 C1471 1.390 . S
C1466 H1457 0.930 . S
C1466 C1464 1.384 . S
C1466 C1467 1.372 . S
C1467 C1466 1.372 . S
C1467 C1468 1.400 . S
C1467 C1472 1.490 . S
C1468 H1458 0.930 . S
C1468 C1467 1.400 . S
C1468 C1471 1.386 . S
H1469 C1485 0.930 . S
H1470 C1486 0.931 . S
C1471 H1459 0.929 . S
C1471 C1465 1.390 . S
C1471 C1468 1.386 . S
C1472 C1467 1.490 . S
C1472 C1474 1.395 . S
C1472 C1475 1.403 . S
H1473 C1479 0.930 . S
C1474 H1460 0.930 . S
C1474 C1472 1.395 . S
C1474 C1477 1.403 . S
C1475 C1472 1.403 . S
C1475 C1476 1.524 . S
C1475 C1479 1.400 . S
C1476 H1461 0.960 . S
C1476 H1462 0.960 . S
C1476 H1463 0.960 . S
C1476 C1475 1.524 . S
C1477 C1474 1.403 . S
C1477 C1478 1.392 . S
C1477 C1481 1.495 . S
C1478 C1477 1.392 . S
C1478 C1479 1.385 . S
C1478 C1480 1.478 . S
C1479 H1473 0.930 . S
C1479 C1475 1.400 . S
C1479 C1478 1.385 . S
C1480 C1478 1.478 . S
C1480 C1482 1.381 . S
C1480 C1486 1.383 . S
C1481 C1477 1.495 . S
C1481 H1487 0.959 . S
C1481 H1488 0.961 . S
C1481 H1489 0.960 . S
C1482 C1480 1.381 . S
C1482 C1483 1.394 . S
C1482 H1490 0.930 . S
C1483 C1482 1.394 . S
C1483 C1484 1.383 . S
C1483 H1491 0.929 . S
C1484 C1483 1.383 . S
C1484 C1485 1.377 . S
C1485 H1469 0.930 . S
C1485 C1484 1.377 . S
C1485 C1486 1.379 . S
C1486 H1470 0.931 . S
C1486 C1480 1.383 . S
C1486 C1485 1.379 . S
H1487 C1481 0.959 . S
H1488 C1481 0.961 . S
H1489 C1481 0.960 . S
H1490 C1482 0.930 . S
H1491 C1483 0.929 . S
H1492 C1500 0.929 . S
H1493 C1502 0.930 . S
H1494 C1504 0.930 . S
H1495 C1507 0.929 . S
H1496 C1510 0.930 . S
H1497 C1512 0.960 . S
H1498 C1512 0.960 . S
H1499 C1512 0.960 . S
C1500 H1492 0.929 . S
C1500 C1501 1.377 . S
C1500 C1502 1.384 . S
C1501 C1500 1.377 . S
C1501 C1507 1.390 . S
C1502 H1493 0.930 . S
C1502 C1500 1.384 . S
C1502 C1503 1.372 . S
C1503 C1502 1.372 . S
C1503 C1504 1.400 . S
C1503 C1508 1.490 . S
C1504 H1494 0.930 . S
C1504 C1503 1.400 . S
C1504 C1507 1.386 . S
H1505 C1521 0.930 . S
H1506 C1522 0.931 . S
C1507 H1495 0.929 . S
C1507 C1501 1.390 . S
C1507 C1504 1.386 . S
C1508 C1503 1.490 . S
C1508 C1510 1.395 . S
C1508 C1511 1.403 . S
H1509 C1515 0.930 . S
C1510 H1496 0.930 . S
C1510 C1508 1.395 . S
C1510 C1513 1.403 . S
C1511 C1508 1.403 . S
C1511 C1512 1.524 . S
C1511 C1515 1.400 . S
C1512 H1497 0.960 . S
C1512 H1498 0.960 . S
C1512 H1499 0.960 . S
C1512 C1511 1.524 . S
C1513 C1510 1.403 . S
C1513 C1514 1.392 . S
C1513 C1517 1.495 . S
C1514 C1513 1.392 . S
C1514 C1515 1.385 . S
C1514 C1516 1.478 . S
C1515 H1509 0.930 . S
C1515 C1511 1.400 . S
C1515 C1514 1.385 . S
C1516 C1514 1.478 . S
C1516 C1518 1.381 . S
C1516 C1522 1.383 . S
C1517 C1513 1.495 . S
C1517 H1523 0.959 . S
C1517 H1524 0.961 . S
C1517 H1525 0.960 . S
C1518 C1516 1.381 . S
C1518 C1519 1.394 . S
C1518 H1526 0.930 . S
C1519 C1518 1.394 . S
C1519 C1520 1.383 . S
C1519 H1527 0.929 . S
C1520 C1519 1.383 . S
C1520 C1521 1.377 . S
C1521 H1505 0.930 . S
C1521 C1520 1.377 . S
C1521 C1522 1.379 . S
C1522 H1506 0.931 . S
C1522 C1516 1.383 . S
C1522 C1521 1.379 . S
H1523 C1517 0.959 . S
H1524 C1517 0.961 . S
H1525 C1517 0.960 . S
H1526 C1518 0.930 . S
H1527 C1519 0.929 . S
H1528 C1536 0.929 . S
H1529 C1538 0.930 . S
H1530 C1540 0.930 . S
H1531 C1543 0.929 . S
H1532 C1546 0.930 . S
H1533 C1548 0.960 . S
H1534 C1548 0.960 . S
H1535 C1548 0.960 . S
C1536 H1528 0.929 . S
C1536 C1537 1.377 . S
C1536 C1538 1.384 . S
C1537 C1536 1.377 . S
C1537 C1543 1.390 . S
C1538 H1529 0.930 . S
C1538 C1536 1.384 . S
C1538 C1539 1.372 . S
C1539 C1538 1.372 . S
C1539 C1540 1.400 . S
C1539 C1544 1.490 . S
C1540 H1530 0.930 . S
C1540 C1539 1.400 . S
C1540 C1543 1.386 . S
H1541 C1557 0.930 . S
H1542 C1558 0.931 . S
C1543 H1531 0.929 . S
C1543 C1537 1.390 . S
C1543 C1540 1.386 . S
C1544 C1539 1.490 . S
C1544 C1546 1.395 . S
C1544 C1547 1.403 . S
H1545 C1551 0.930 . S
C1546 H1532 0.930 . S
C1546 C1544 1.395 . S
C1546 C1549 1.403 . S
C1547 C1544 1.403 . S
C1547 C1548 1.524 . S
C1547 C1551 1.400 . S
C1548 H1533 0.960 . S
C1548 H1534 0.960 . S
C1548 H1535 0.960 . S
C1548 C1547 1.524 . S
C1549 C1546 1.403 . S
C1549 C1550 1.392 . S
C1549 C1553 1.495 . S
C1550 C1549 1.392 . S
C1550 C1551 1.385 . S
C1550 C1552 1.478 . S
C1551 H1545 0.930 . S
C1551 C1547 1.400 . S
C1551 C1550 1.385 . S
C1552 C1550 1.478 . S
C1552 C1554 1.381 . S
C1552 C1558 1.383 . S
C1553 C1549 1.495 . S
C1553 H1559 0.959 . S
C1553 H1560 0.961 . S
C1553 H1561 0.960 . S
C1554 C1552 1.381 . S
C1554 C1555 1.394 . S
C1554 H1562 0.930 . S
C1555 C1554 1.394 . S
C1555 C1556 1.383 . S
C1555 H1563 0.929 . S
C1556 C1555 1.383 . S
C1556 C1557 1.377 . S
C1557 H1541 0.930 . S
C1557 C1556 1.377 . S
C1557 C1558 1.379 . S
C1558 H1542 0.931 . S
C1558 C1552 1.383 . S
C1558 C1557 1.379 . S
H1559 C1553 0.959 . S
H1560 C1553 0.961 . S
H1561 C1553 0.960 . S
H1562 C1554 0.930 . S
H1563 C1555 0.929 . S
H1564 C1572 0.929 . S
H1565 C1574 0.930 . S
H1566 C1576 0.930 . S
H1567 C1579 0.929 . S
H1568 C1582 0.930 . S
H1569 C1584 0.960 . S
H1570 C1584 0.960 . S
H1571 C1584 0.960 . S
C1572 H1564 0.929 . S
C1572 C1573 1.377 . S
C1572 C1574 1.384 . S
C1573 C1572 1.377 . S
C1573 C1579 1.390 . S
C1574 H1565 0.930 . S
C1574 C1572 1.384 . S
C1574 C1575 1.372 . S
C1575 C1574 1.372 . S
C1575 C1576 1.400 . S
C1575 C1580 1.490 . S
C1576 H1566 0.930 . S
C1576 C1575 1.400 . S
C1576 C1579 1.386 . S
H1577 C1593 0.930 . S
H1578 C1594 0.931 . S
C1579 H1567 0.929 . S
C1579 C1573 1.390 . S
C1579 C1576 1.386 . S
C1580 C1575 1.490 . S
C1580 C1582 1.395 . S
C1580 C1583 1.403 . S
H1581 C1587 0.930 . S
C1582 H1568 0.930 . S
C1582 C1580 1.395 . S
C1582 C1585 1.403 . S
C1583 C1580 1.403 . S
C1583 C1584 1.524 . S
C1583 C1587 1.400 . S
C1584 H1569 0.960 . S
C1584 H1570 0.960 . S
C1584 H1571 0.960 . S
C1584 C1583 1.524 . S
C1585 C1582 1.403 . S
C1585 C1586 1.392 . S
C1585 C1589 1.495 . S
C1586 C1585 1.392 . S
C1586 C1587 1.385 . S
C1586 C1588 1.478 . S
C1587 H1581 0.930 . S
C1587 C1583 1.400 . S
C1587 C1586 1.385 . S
C1588 C1586 1.478 . S
C1588 C1590 1.381 . S
C1588 C1594 1.383 . S
C1589 C1585 1.495 . S
C1589 H1595 0.959 . S
C1589 H1596 0.961 . S
C1589 H1597 0.960 . S
C1590 C1588 1.381 . S
C1590 C1591 1.394 . S
C1590 H1598 0.930 . S
C1591 C1590 1.394 . S
C1591 C1592 1.383 . S
C1591 H1599 0.929 . S
C1592 C1591 1.383 . S
C1592 C1593 1.377 . S
C1593 H1577 0.930 . S
C1593 C1592 1.377 . S
C1593 C1594 1.379 . S
C1594 H1578 0.931 . S
C1594 C1588 1.383 . S
C1594 C1593 1.379 . S
H1595 C1589 0.959 . S
H1596 C1589 0.961 . S
H1597 C1589 0.960 . S
H1598 C1590 0.930 . S
H1599 C1591 0.929 . S
H1600 C1608 0.929 . S
H1601 C1610 0.930 . S
H1602 C1612 0.930 . S
H1603 C1615 0.929 . S
H1604 C1618 0.930 . S
H1605 C1620 0.960 . S
H1606 C1620 0.960 . S
H1607 C1620 0.960 . S
C1608 H1600 0.929 . S
C1608 C1609 1.377 . S
C1608 C1610 1.384 . S
C1609 C1608 1.377 . S
C1609 C1615 1.390 . S
C1610 H1601 0.930 . S
C1610 C1608 1.384 . S
C1610 C1611 1.372 . S
C1611 C1610 1.372 . S
C1611 C1612 1.400 . S
C1611 C1616 1.490 . S
C1612 H1602 0.930 . S
C1612 C1611 1.400 . S
C1612 C1615 1.386 . S
H1613 C1629 0.930 . S
H1614 C1630 0.931 . S
C1615 H1603 0.929 . S
C1615 C1609 1.390 . S
C1615 C1612 1.386 . S
C1616 C1611 1.490 . S
C1616 C1618 1.395 . S
C1616 C1619 1.403 . S
H1617 C1623 0.930 . S
C1618 H1604 0.930 . S
C1618 C1616 1.395 . S
C1618 C1621 1.403 . S
C1619 C1616 1.403 . S
C1619 C1620 1.524 . S
C1619 C1623 1.400 . S
C1620 H1605 0.960 . S
C1620 H1606 0.960 . S
C1620 H1607 0.960 . S
C1620 C1619 1.524 . S
C1621 C1618 1.403 . S
C1621 C1622 1.392 . S
C1621 C1625 1.495 . S
C1622 C1621 1.392 . S
C1622 C1623 1.385 . S
C1622 C1624 1.478 . S
C1623 H1617 0.930 . S
C1623 C1619 1.400 . S
C1623 C1622 1.385 . S
C1624 C1622 1.478 . S
C1624 C1626 1.381 . S
C1624 C1630 1.383 . S
C1625 C1621 1.495 . S
C1625 H1631 0.959 . S
C1625 H1632 0.961 . S
C1625 H1633 0.960 . S
C1626 C1624 1.381 . S
C1626 C1627 1.394 . S
C1626 H1634 0.930 . S
C1627 C1626 1.394 . S
C1627 C1628 1.383 . S
C1627 H1635 0.929 . S
C1628 C1627 1.383 . S
C1628 C1629 1.377 . S
C1629 H1613 0.930 . S
C1629 C1628 1.377 . S
C1629 C1630 1.379 . S
C1630 H1614 0.931 . S
C1630 C1624 1.383 . S
C1630 C1629 1.379 . S
H1631 C1625 0.959 . S
H1632 C1625 0.961 . S
H1633 C1625 0.960 . S
H1634 C1626 0.930 . S
H1635 C1627 0.929 . S
H1636 C1644 0.929 . S
H1637 C1646 0.930 . S
H1638 C1648 0.930 . S
H1639 C1651 0.929 . S
H1640 C1654 0.930 . S
H1641 C1656 0.960 . S
H1642 C1656 0.960 . S
H1643 C1656 0.960 . S
C1644 H1636 0.929 . S
C1644 C1645 1.377 . S
C1644 C1646 1.384 . S
C1645 C1644 1.377 . S
C1645 C1651 1.390 . S
C1646 H1637 0.930 . S
C1646 C1644 1.384 . S
C1646 C1647 1.372 . S
C1647 C1646 1.372 . S
C1647 C1648 1.400 . S
C1647 C1652 1.490 . S
C1648 H1638 0.930 . S
C1648 C1647 1.400 . S
C1648 C1651 1.386 . S
H1649 C1665 0.930 . S
H1650 C1666 0.931 . S
C1651 H1639 0.929 . S
C1651 C1645 1.390 . S
C1651 C1648 1.386 . S
C1652 C1647 1.490 . S
C1652 C1654 1.395 . S
C1652 C1655 1.403 . S
H1653 C1659 0.930 . S
C1654 H1640 0.930 . S
C1654 C1652 1.395 . S
C1654 C1657 1.403 . S
C1655 C1652 1.403 . S
C1655 C1656 1.524 . S
C1655 C1659 1.400 . S
C1656 H1641 0.960 . S
C1656 H1642 0.960 . S
C1656 H1643 0.960 . S
C1656 C1655 1.524 . S
C1657 C1654 1.403 . S
C1657 C1658 1.392 . S
C1657 C1661 1.495 . S
C1658 C1657 1.392 . S
C1658 C1659 1.385 . S
C1658 C1660 1.478 . S
C1659 H1653 0.930 . S
C1659 C1655 1.400 . S
C1659 C1658 1.385 . S
C1660 C1658 1.478 . S
C1660 C1662 1.406 . S
C1660 C1666 1.383 . S
C1661 C1657 1.495 . S
C1661 H1667 0.959 . S
C1661 H1668 0.961 . S
C1661 H1669 0.960 . S
C1662 C1660 1.406 . S
C1662 C1663 1.363 1_455 S
C1662 H1670 0.938 . S
C1663 C1662 1.363 1_655 S
C1663 C1664 1.383 . S
C1663 H1671 0.929 . S
C1664 C1663 1.383 . S
C1664 C1665 1.377 . S
C1665 H1649 0.930 . S
C1665 C1664 1.377 . S
C1665 C1666 1.379 1_655 S
C1666 H1650 0.931 . S
C1666 C1660 1.383 . S
C1666 C1665 1.379 1_455 S
H1667 C1661 0.959 . S
H1668 C1661 0.961 . S
H1669 C1661 0.960 . S
H1670 C1662 0.938 . S
H1671 C1663 0.929 . S
H1672 C1680 0.929 . S
H1673 C1682 0.930 . S
H1674 C1684 0.930 . S
H1675 C1687 0.929 . S
H1676 C1690 0.930 . S
H1677 C1692 0.960 . S
H1678 C1692 0.960 . S
H1679 C1692 0.960 . S
C1680 H1672 0.929 . S
C1680 C1681 1.377 . S
C1680 C1682 1.384 . S
C1681 C1680 1.377 . S
C1681 C1687 1.390 . S
C1682 H1673 0.930 . S
C1682 C1680 1.384 . S
C1682 C1683 1.372 . S
C1683 C1682 1.372 . S
C1683 C1684 1.400 . S
C1683 C1688 1.490 . S
C1684 H1674 0.930 . S
C1684 C1683 1.400 . S
C1684 C1687 1.386 . S
H1685 C1701 0.930 . S
H1686 C1702 0.931 . S
C1687 H1675 0.929 . S
C1687 C1681 1.390 . S
C1687 C1684 1.386 . S
C1688 C1683 1.490 . S
C1688 C1690 1.395 . S
C1688 C1691 1.403 . S
H1689 C1695 0.930 . S
C1690 H1676 0.930 . S
C1690 C1688 1.395 . S
C1690 C1693 1.403 . S
C1691 C1688 1.403 . S
C1691 C1692 1.524 . S
C1691 C1695 1.400 . S
C1692 H1677 0.960 . S
C1692 H1678 0.960 . S
C1692 H1679 0.960 . S
C1692 C1691 1.524 . S
C1693 C1690 1.403 . S
C1693 C1694 1.392 . S
C1693 C1697 1.495 . S
C1694 C1693 1.392 . S
C1694 C1695 1.385 . S
C1694 C1696 1.478 . S
C1695 H1689 0.930 . S
C1695 C1691 1.400 . S
C1695 C1694 1.385 . S
C1696 C1694 1.478 . S
C1696 C1698 1.381 . S
C1696 C1702 1.383 . S
C1697 C1693 1.495 . S
C1697 H1703 0.959 . S
C1697 H1704 0.961 . S
C1697 H1705 0.960 . S
C1698 C1696 1.381 . S
C1698 C1699 1.394 . S
C1698 H1706 0.930 . S
C1699 C1698 1.394 . S
C1699 C1700 1.383 . S
C1699 H1707 0.929 . S
C1700 C1699 1.383 . S
C1700 C1701 1.377 . S
C1701 H1685 0.930 . S
C1701 C1700 1.377 . S
C1701 C1702 1.379 . S
C1702 H1686 0.931 . S
C1702 C1696 1.383 . S
C1702 C1701 1.379 . S
H1703 C1697 0.959 . S
H1704 C1697 0.961 . S
H1705 C1697 0.960 . S
H1706 C1698 0.930 . S
H1707 C1699 0.929 . S
H1708 C1716 0.929 . S
H1709 C1718 0.930 . S
H1710 C1720 0.930 . S
H1711 C1723 0.929 . S
H1712 C1726 0.930 . S
H1713 C1728 0.960 . S
H1714 C1728 0.960 . S
H1715 C1728 0.960 . S
C1716 H1708 0.929 . S
C1716 C1717 1.377 . S
C1716 C1718 1.384 . S
C1717 C1716 1.377 . S
C1717 C1723 1.390 . S
C1718 H1709 0.930 . S
C1718 C1716 1.384 . S
C1718 C1719 1.372 . S
C1719 C1718 1.372 . S
C1719 C1720 1.400 . S
C1719 C1724 1.490 . S
C1720 H1710 0.930 . S
C1720 C1719 1.400 . S
C1720 C1723 1.386 . S
H1721 C1737 0.930 . S
H1722 C1738 0.931 . S
C1723 H1711 0.929 . S
C1723 C1717 1.390 . S
C1723 C1720 1.386 . S
C1724 C1719 1.490 . S
C1724 C1726 1.395 . S
C1724 C1727 1.403 . S
H1725 C1731 0.930 . S
C1726 H1712 0.930 . S
C1726 C1724 1.395 . S
C1726 C1729 1.403 . S
C1727 C1724 1.403 . S
C1727 C1728 1.524 . S
C1727 C1731 1.400 . S
C1728 H1713 0.960 . S
C1728 H1714 0.960 . S
C1728 H1715 0.960 . S
C1728 C1727 1.524 . S
C1729 C1726 1.403 . S
C1729 C1730 1.392 . S
C1729 C1733 1.495 . S
C1730 C1729 1.392 . S
C1730 C1731 1.385 . S
C1730 C1732 1.478 . S
C1731 H1725 0.930 . S
C1731 C1727 1.400 . S
C1731 C1730 1.385 . S
C1732 C1730 1.478 . S
C1732 C1734 1.381 . S
C1732 C1738 1.383 . S
C1733 C1729 1.495 . S
C1733 H1739 0.959 . S
C1733 H1740 0.961 . S
C1733 H1741 0.960 . S
C1734 C1732 1.381 . S
C1734 C1735 1.394 . S
C1734 H1742 0.930 . S
C1735 C1734 1.394 . S
C1735 C1736 1.383 . S
C1735 H1743 0.929 . S
C1736 C1735 1.383 . S
C1736 C1737 1.377 . S
C1737 H1721 0.930 . S
C1737 C1736 1.377 . S
C1737 C1738 1.379 . S
C1738 H1722 0.931 . S
C1738 C1732 1.383 . S
C1738 C1737 1.379 . S
H1739 C1733 0.959 . S
H1740 C1733 0.961 . S
H1741 C1733 0.960 . S
H1742 C1734 0.930 . S
H1743 C1735 0.929 . S
H1744 C1752 0.929 . S
H1745 C1754 0.930 . S
H1746 C1756 0.930 . S
H1747 C1759 0.929 . S
H1748 C1762 0.930 . S
H1749 C1764 0.960 . S
H1750 C1764 0.960 . S
H1751 C1764 0.960 . S
C1752 H1744 0.929 . S
C1752 C1753 1.377 . S
C1752 C1754 1.384 . S
C1753 C1752 1.377 . S
C1753 C1759 1.390 . S
C1754 H1745 0.930 . S
C1754 C1752 1.384 . S
C1754 C1755 1.372 . S
C1755 C1754 1.372 . S
C1755 C1756 1.400 . S
C1755 C1760 1.490 . S
C1756 H1746 0.930 . S
C1756 C1755 1.400 . S
C1756 C1759 1.386 . S
H1757 C1773 0.930 . S
H1758 C1774 0.931 . S
C1759 H1747 0.929 . S
C1759 C1753 1.390 . S
C1759 C1756 1.386 . S
C1760 C1755 1.490 . S
C1760 C1762 1.395 . S
C1760 C1763 1.403 . S
H1761 C1767 0.930 . S
C1762 H1748 0.930 . S
C1762 C1760 1.395 . S
C1762 C1765 1.403 . S
C1763 C1760 1.403 . S
C1763 C1764 1.524 . S
C1763 C1767 1.400 . S
C1764 H1749 0.960 . S
C1764 H1750 0.960 . S
C1764 H1751 0.960 . S
C1764 C1763 1.524 . S
C1765 C1762 1.403 . S
C1765 C1766 1.392 . S
C1765 C1769 1.495 . S
C1766 C1765 1.392 . S
C1766 C1767 1.385 . S
C1766 C1768 1.478 . S
C1767 H1761 0.930 . S
C1767 C1763 1.400 . S
C1767 C1766 1.385 . S
C1768 C1766 1.478 . S
C1768 C1770 1.381 . S
C1768 C1774 1.383 . S
C1769 C1765 1.495 . S
C1769 H1775 0.959 . S
C1769 H1776 0.961 . S
C1769 H1777 0.960 . S
C1770 C1768 1.381 . S
C1770 C1771 1.394 . S
C1770 H1778 0.930 . S
C1771 C1770 1.394 . S
C1771 C1772 1.383 . S
C1771 H1779 0.929 . S
C1772 C1771 1.383 . S
C1772 C1773 1.377 . S
C1773 H1757 0.930 . S
C1773 C1772 1.377 . S
C1773 C1774 1.379 . S
C1774 H1758 0.931 . S
C1774 C1768 1.383 . S
C1774 C1773 1.379 . S
H1775 C1769 0.959 . S
H1776 C1769 0.961 . S
H1777 C1769 0.960 . S
H1778 C1770 0.930 . S
H1779 C1771 0.929 . S
H1780 C1788 0.929 . S
H1781 C1790 0.930 . S
H1782 C1792 0.930 . S
H1783 C1795 0.929 . S
H1784 C1798 0.930 . S
H1785 C1800 0.960 . S
H1786 C1800 0.960 . S
H1787 C1800 0.960 . S
C1788 H1780 0.929 . S
C1788 C1789 1.377 . S
C1788 C1790 1.384 . S
C1789 C1788 1.377 . S
C1789 C1795 1.390 . S
C1790 H1781 0.930 . S
C1790 C1788 1.384 . S
C1790 C1791 1.372 . S
C1791 C1790 1.372 . S
C1791 C1792 1.400 . S
C1791 C1796 1.490 . S
C1792 H1782 0.930 . S
C1792 C1791 1.400 . S
C1792 C1795 1.386 . S
H1793 C1809 0.930 . S
H1794 C1810 0.931 . S
C1795 H1783 0.929 . S
C1795 C1789 1.390 . S
C1795 C1792 1.386 . S
C1796 C1791 1.490 . S
C1796 C1798 1.395 . S
C1796 C1799 1.403 . S
H1797 C1803 0.930 . S
C1798 H1784 0.930 . S
C1798 C1796 1.395 . S
C1798 C1801 1.403 . S
C1799 C1796 1.403 . S
C1799 C1800 1.524 . S
C1799 C1803 1.400 . S
C1800 H1785 0.960 . S
C1800 H1786 0.960 . S
C1800 H1787 0.960 . S
C1800 C1799 1.524 . S
C1801 C1798 1.403 . S
C1801 C1802 1.392 . S
C1801 C1805 1.495 . S
C1802 C1801 1.392 . S
C1802 C1803 1.385 . S
C1802 C1804 1.478 . S
C1803 H1797 0.930 . S
C1803 C1799 1.400 . S
C1803 C1802 1.385 . S
C1804 C1802 1.478 . S
C1804 C1806 1.381 . S
C1804 C1810 1.383 . S
C1805 C1801 1.495 . S
C1805 H1811 0.959 . S
C1805 H1812 0.961 . S
C1805 H1813 0.960 . S
C1806 C1804 1.381 . S
C1806 C1807 1.394 . S
C1806 H1814 0.930 . S
C1807 C1806 1.394 . S
C1807 C1808 1.383 . S
C1807 H1815 0.929 . S
C1808 C1807 1.383 . S
C1808 C1809 1.377 . S
C1809 H1793 0.930 . S
C1809 C1808 1.377 . S
C1809 C1810 1.379 . S
C1810 H1794 0.931 . S
C1810 C1804 1.383 . S
C1810 C1809 1.379 . S
H1811 C1805 0.959 . S
H1812 C1805 0.961 . S
H1813 C1805 0.960 . S
H1814 C1806 0.930 . S
H1815 C1807 0.929 . S
H1816 C1824 0.929 . S
H1817 C1826 0.930 . S
H1818 C1828 0.930 . S
H1819 C1831 0.929 . S
H1820 C1834 0.930 . S
H1821 C1836 0.960 . S
H1822 C1836 0.960 . S
H1823 C1836 0.960 . S
C1824 H1816 0.929 . S
C1824 C1825 1.377 . S
C1824 C1826 1.384 . S
C1825 C1824 1.377 . S
C1825 C1831 1.390 . S
C1826 H1817 0.930 . S
C1826 C1824 1.384 . S
C1826 C1827 1.372 . S
C1827 C1826 1.372 . S
C1827 C1828 1.400 . S
C1827 C1832 1.490 . S
C1828 H1818 0.930 . S
C1828 C1827 1.400 . S
C1828 C1831 1.386 . S
H1829 C1845 0.930 . S
H1830 C1846 0.931 . S
C1831 H1819 0.929 . S
C1831 C1825 1.390 . S
C1831 C1828 1.386 . S
C1832 C1827 1.490 . S
C1832 C1834 1.395 . S
C1832 C1835 1.403 . S
H1833 C1839 0.930 . S
C1834 H1820 0.930 . S
C1834 C1832 1.395 . S
C1834 C1837 1.403 . S
C1835 C1832 1.403 . S
C1835 C1836 1.524 . S
C1835 C1839 1.400 . S
C1836 H1821 0.960 . S
C1836 H1822 0.960 . S
C1836 H1823 0.960 . S
C1836 C1835 1.524 . S
C1837 C1834 1.403 . S
C1837 C1838 1.392 . S
C1837 C1841 1.495 . S
C1838 C1837 1.392 . S
C1838 C1839 1.385 . S
C1838 C1840 1.478 . S
C1839 H1833 0.930 . S
C1839 C1835 1.400 . S
C1839 C1838 1.385 . S
C1840 C1838 1.478 . S
C1840 C1842 1.381 . S
C1840 C1846 1.383 . S
C1841 C1837 1.495 . S
C1841 H1847 0.959 . S
C1841 H1848 0.961 . S
C1841 H1849 0.960 . S
C1842 C1840 1.381 . S
C1842 C1843 1.394 . S
C1842 H1850 0.930 . S
C1843 C1842 1.394 . S
C1843 C1844 1.383 . S
C1843 H1851 0.929 . S
C1844 C1843 1.383 . S
C1844 C1845 1.377 . S
C1845 H1829 0.930 . S
C1845 C1844 1.377 . S
C1845 C1846 1.379 . S
C1846 H1830 0.931 . S
C1846 C1840 1.383 . S
C1846 C1845 1.379 . S
H1847 C1841 0.959 . S
H1848 C1841 0.961 . S
H1849 C1841 0.960 . S
H1850 C1842 0.930 . S
H1851 C1843 0.929 . S
H1852 C1860 0.929 . S
H1853 C1862 0.930 . S
H1854 C1864 0.930 . S
H1855 C1867 0.929 . S
H1856 C1870 0.930 . S
H1857 C1872 0.960 . S
H1858 C1872 0.960 . S
H1859 C1872 0.960 . S
C1860 H1852 0.929 . S
C1860 C1861 1.377 . S
C1860 C1862 1.384 . S
C1861 C1860 1.377 . S
C1861 C1867 1.390 . S
C1862 H1853 0.930 . S
C1862 C1860 1.384 . S
C1862 C1863 1.372 . S
C1863 C1862 1.372 . S
C1863 C1864 1.400 . S
C1863 C1868 1.490 . S
C1864 H1854 0.930 . S
C1864 C1863 1.400 . S
C1864 C1867 1.386 . S
H1865 C1881 0.930 . S
H1866 C1882 0.932 . S
C1867 H1855 0.929 . S
C1867 C1861 1.390 . S
C1867 C1864 1.386 . S
C1868 C1863 1.490 . S
C1868 C1870 1.395 . S
C1868 C1871 1.403 . S
H1869 C1875 0.930 . S
C1870 H1856 0.930 . S
C1870 C1868 1.395 . S
C1870 C1873 1.403 . S
C1871 C1868 1.403 . S
C1871 C1872 1.524 . S
C1871 C1875 1.400 . S
C1872 H1857 0.960 . S
C1872 H1858 0.960 . S
C1872 H1859 0.960 . S
C1872 C1871 1.524 . S
C1873 C1870 1.403 . S
C1873 C1874 1.392 . S
C1873 C1877 1.495 . S
C1874 C1873 1.392 . S
C1874 C1875 1.385 . S
C1874 C1876 1.478 . S
C1875 H1869 0.930 . S
C1875 C1871 1.400 . S
C1875 C1874 1.385 . S
C1876 C1874 1.478 . S
C1876 C1878 1.381 . S
C1876 C1882 1.383 1_455 S
C1877 C1873 1.495 . S
C1877 H1883 0.959 . S
C1877 H1884 0.961 . S
C1877 H1885 0.960 . S
C1878 C1876 1.381 . S
C1878 C1879 1.394 1_455 S
C1878 H1886 0.930 . S
C1879 C1878 1.394 1_655 S
C1879 C1880 1.383 . S
C1879 H1887 0.929 . S
C1880 C1879 1.383 . S
C1880 C1881 1.377 . S
C1881 H1865 0.930 . S
C1881 C1880 1.377 . S
C1881 C1882 1.379 . S
C1882 H1866 0.932 . S
C1882 C1876 1.383 1_655 S
C1882 C1881 1.379 . S
H1883 C1877 0.959 . S
H1884 C1877 0.961 . S
H1885 C1877 0.960 . S
H1886 C1878 0.930 . S
H1887 C1879 0.929 . S
H1888 C1896 0.929 . S
H1889 C1898 0.930 . S
H1890 C1900 0.930 . S
H1891 C1903 0.929 . S
H1892 C1906 0.930 . S
H1893 C1908 0.960 . S
H1894 C1908 0.960 . S
H1895 C1908 0.960 . S
C1896 H1888 0.929 . S
C1896 C1897 1.377 . S
C1896 C1898 1.384 . S
C1897 C1896 1.377 . S
C1897 C1903 1.390 . S
C1898 H1889 0.930 . S
C1898 C1896 1.384 . S
C1898 C1899 1.372 . S
C1899 C1898 1.372 . S
C1899 C1900 1.400 . S
C1899 C1904 1.490 . S
C1900 H1890 0.930 . S
C1900 C1899 1.400 . S
C1900 C1903 1.386 . S
H1901 C1917 0.930 . S
H1902 C1918 0.931 . S
C1903 H1891 0.929 . S
C1903 C1897 1.390 . S
C1903 C1900 1.386 . S
C1904 C1899 1.490 . S
C1904 C1906 1.395 . S
C1904 C1907 1.403 . S
H1905 C1911 0.930 . S
C1906 H1892 0.930 . S
C1906 C1904 1.395 . S
C1906 C1909 1.403 . S
C1907 C1904 1.403 . S
C1907 C1908 1.524 . S
C1907 C1911 1.400 . S
C1908 H1893 0.960 . S
C1908 H1894 0.960 . S
C1908 H1895 0.960 . S
C1908 C1907 1.524 . S
C1909 C1906 1.403 . S
C1909 C1910 1.392 . S
C1909 C1913 1.495 . S
C1910 C1909 1.392 . S
C1910 C1911 1.385 . S
C1910 C1912 1.478 . S
C1911 H1905 0.930 . S
C1911 C1907 1.400 . S
C1911 C1910 1.385 . S
C1912 C1910 1.478 . S
C1912 C1914 1.381 . S
C1912 C1918 1.383 . S
C1913 C1909 1.495 . S
C1913 H1919 0.959 . S
C1913 H1920 0.961 . S
C1913 H1921 0.960 . S
C1914 C1912 1.381 . S
C1914 C1915 1.394 . S
C1914 H1922 0.930 . S
C1915 C1914 1.394 . S
C1915 C1916 1.383 . S
C1915 H1923 0.929 . S
C1916 C1915 1.383 . S
C1916 C1917 1.377 . S
C1917 H1901 0.930 . S
C1917 C1916 1.377 . S
C1917 C1918 1.379 . S
C1918 H1902 0.931 . S
C1918 C1912 1.383 . S
C1918 C1917 1.379 . S
H1919 C1913 0.959 . S
H1920 C1913 0.961 . S
H1921 C1913 0.960 . S
H1922 C1914 0.930 . S
H1923 C1915 0.929 . S
H1924 C1932 0.929 . S
H1925 C1934 0.930 . S
H1926 C1936 0.930 . S
H1927 C1939 0.929 . S
H1928 C1942 0.930 . S
H1929 C1944 0.960 . S
H1930 C1944 0.960 . S
H1931 C1944 0.960 . S
C1932 H1924 0.929 . S
C1932 C1933 1.377 . S
C1932 C1934 1.384 1_455 S
C1933 C1932 1.377 . S
C1933 C1939 1.390 . S
C1934 H1925 0.930 . S
C1934 C1932 1.384 1_655 S
C1934 C1935 1.372 . S
C1935 C1934 1.372 . S
C1935 C1936 1.400 . S
C1935 C1940 1.490 . S
C1936 H1926 0.930 . S
C1936 C1935 1.400 . S
C1936 C1939 1.386 1_655 S
H1937 C1953 0.930 . S
H1938 C1954 0.931 . S
C1939 H1927 0.929 . S
C1939 C1933 1.390 . S
C1939 C1936 1.386 1_455 S
C1940 C1935 1.490 . S
C1940 C1942 1.395 . S
C1940 C1943 1.403 . S
H1941 C1947 0.930 . S
C1942 H1928 0.930 . S
C1942 C1940 1.395 . S
C1942 C1945 1.403 . S
C1943 C1940 1.403 . S
C1943 C1944 1.524 . S
C1943 C1947 1.400 . S
C1944 H1929 0.960 . S
C1944 H1930 0.960 . S
C1944 H1931 0.960 . S
C1944 C1943 1.524 . S
C1945 C1942 1.403 . S
C1945 C1946 1.392 . S
C1945 C1949 1.495 . S
C1946 C1945 1.392 . S
C1946 C1947 1.385 . S
C1946 C1948 1.478 . S
C1947 H1941 0.930 . S
C1947 C1943 1.400 . S
C1947 C1946 1.385 . S
C1948 C1946 1.478 . S
C1948 C1950 1.381 . S
C1948 C1954 1.383 . S
C1949 C1945 1.495 . S
C1949 H1955 0.959 . S
C1949 H1956 0.961 . S
C1949 H1957 0.960 . S
C1950 C1948 1.381 . S
C1950 C1951 1.394 . S
C1950 H1958 0.930 . S
C1951 C1950 1.394 . S
C1951 C1952 1.383 . S
C1951 H1959 0.929 . S
C1952 C1951 1.383 . S
C1952 C1953 1.377 . S
C1953 H1937 0.930 . S
C1953 C1952 1.377 . S
C1953 C1954 1.379 . S
C1954 H1938 0.931 . S
C1954 C1948 1.383 . S
C1954 C1953 1.379 . S
H1955 C1949 0.959 . S
H1956 C1949 0.961 . S
H1957 C1949 0.960 . S
H1958 C1950 0.930 . S
H1959 C1951 0.929 . S
H1960 C1968 0.929 . S
H1961 C1970 0.930 . S
H1962 C1972 0.930 . S
H1963 C1975 0.929 . S
H1964 C1978 0.930 . S
H1965 C1980 0.960 . S
H1966 C1980 0.960 . S
H1967 C1980 0.960 . S
C1968 H1960 0.929 . S
C1968 C1969 1.377 . S
C1968 C1970 1.384 . S
C1969 C1968 1.377 . S
C1969 C1975 1.390 . S
C1970 H1961 0.930 . S
C1970 C1968 1.384 . S
C1970 C1971 1.372 . S
C1971 C1970 1.372 . S
C1971 C1972 1.400 . S
C1971 C1976 1.490 . S
C1972 H1962 0.930 . S
C1972 C1971 1.400 . S
C1972 C1975 1.386 . S
H1973 C1989 0.930 . S
H1974 C1990 0.931 . S
C1975 H1963 0.929 . S
C1975 C1969 1.390 . S
C1975 C1972 1.386 . S
C1976 C1971 1.490 . S
C1976 C1978 1.395 . S
C1976 C1979 1.403 . S
H1977 C1983 0.930 . S
C1978 H1964 0.930 . S
C1978 C1976 1.395 . S
C1978 C1981 1.403 . S
C1979 C1976 1.403 . S
C1979 C1980 1.524 . S
C1979 C1983 1.400 . S
C1980 H1965 0.960 . S
C1980 H1966 0.960 . S
C1980 H1967 0.960 . S
C1980 C1979 1.524 . S
C1981 C1978 1.403 . S
C1981 C1982 1.392 . S
C1981 C1985 1.495 . S
C1982 C1981 1.392 . S
C1982 C1983 1.385 . S
C1982 C1984 1.478 . S
C1983 H1977 0.930 . S
C1983 C1979 1.400 . S
C1983 C1982 1.385 . S
C1984 C1982 1.478 . S
C1984 C1986 1.381 . S
C1984 C1990 1.383 . S
C1985 C1981 1.495 . S
C1985 H1991 0.959 . S
C1985 H1992 0.961 . S
C1985 H1993 0.960 . S
C1986 C1984 1.381 . S
C1986 C1987 1.394 . S
C1986 H1994 0.930 . S
C1987 C1986 1.394 . S
C1987 C1988 1.383 . S
C1987 H1995 0.929 . S
C1988 C1987 1.383 . S
C1988 C1989 1.377 . S
C1989 H1973 0.930 . S
C1989 C1988 1.377 . S
C1989 C1990 1.379 . S
C1990 H1974 0.931 . S
C1990 C1984 1.383 . S
C1990 C1989 1.379 . S
H1991 C1985 0.959 . S
H1992 C1985 0.961 . S
H1993 C1985 0.960 . S
H1994 C1986 0.930 . S
H1995 C1987 0.929 . S
H1996 C2004 0.929 . S
H1997 C2006 0.930 . S
H1998 C2008 0.930 . S
H1999 C2011 0.929 . S
H2000 C2014 0.930 . S
H2001 C2016 0.960 . S
H2002 C2016 0.960 . S
H2003 C2016 0.960 . S
C2004 H1996 0.929 . S
C2004 C2005 1.377 . S
C2004 C2006 1.384 . S
C2005 C2004 1.377 . S
C2005 C2011 1.390 . S
C2006 H1997 0.930 . S
C2006 C2004 1.384 . S
C2006 C2007 1.372 . S
C2007 C2006 1.372 . S
C2007 C2008 1.400 . S
C2007 C2012 1.490 . S
C2008 H1998 0.930 . S
C2008 C2007 1.400 . S
C2008 C2011 1.386 . S
H2009 C2025 0.930 . S
H2010 C2026 0.931 . S
C2011 H1999 0.929 . S
C2011 C2005 1.390 . S
C2011 C2008 1.386 . S
C2012 C2007 1.490 . S
C2012 C2014 1.395 . S
C2012 C2015 1.403 . S
H2013 C2019 0.930 . S
C2014 H2000 0.930 . S
C2014 C2012 1.395 . S
C2014 C2017 1.403 . S
C2015 C2012 1.403 . S
C2015 C2016 1.524 . S
C2015 C2019 1.400 . S
C2016 H2001 0.960 . S
C2016 H2002 0.960 . S
C2016 H2003 0.960 . S
C2016 C2015 1.524 . S
C2017 C2014 1.403 . S
C2017 C2018 1.392 . S
C2017 C2021 1.495 . S
C2018 C2017 1.392 . S
C2018 C2019 1.385 . S
C2018 C2020 1.478 . S
C2019 H2013 0.930 . S
C2019 C2015 1.400 . S
C2019 C2018 1.385 . S
C2020 C2018 1.478 . S
C2020 C2022 1.381 . S
C2020 C2026 1.383 . S
C2021 C2017 1.495 . S
C2021 H2027 0.959 . S
C2021 H2028 0.961 . S
C2021 H2029 0.960 . S
C2022 C2020 1.381 . S
C2022 C2023 1.394 . S
C2022 H2030 0.930 . S
C2023 C2022 1.394 . S
C2023 C2024 1.383 . S
C2023 H2031 0.929 . S
C2024 C2023 1.383 . S
C2024 C2025 1.377 . S
C2025 H2009 0.930 . S
C2025 C2024 1.377 . S
C2025 C2026 1.379 . S
C2026 H2010 0.931 . S
C2026 C2020 1.383 . S
C2026 C2025 1.379 . S
H2027 C2021 0.959 . S
H2028 C2021 0.961 . S
H2029 C2021 0.960 . S
H2030 C2022 0.930 . S
H2031 C2023 0.929 . S
H2032 C2040 0.929 . S
H2033 C2042 0.930 . S
H2034 C2044 0.930 . S
H2035 C2047 0.929 . S
H2036 C2050 0.930 . S
H2037 C2052 0.960 . S
H2038 C2052 0.960 . S
H2039 C2052 0.960 . S
C2040 H2032 0.929 . S
C2040 C2041 1.377 . S
C2040 C2042 1.384 . S
C2041 C2040 1.377 . S
C2041 C2047 1.390 . S
C2042 H2033 0.930 . S
C2042 C2040 1.384 . S
C2042 C2043 1.372 . S
C2043 C2042 1.372 . S
C2043 C2044 1.400 . S
C2043 C2048 1.490 . S
C2044 H2034 0.930 . S
C2044 C2043 1.400 . S
C2044 C2047 1.386 . S
H2045 C2061 0.930 . S
H2046 C2062 0.931 . S
C2047 H2035 0.929 . S
C2047 C2041 1.390 . S
C2047 C2044 1.386 . S
C2048 C2043 1.490 . S
C2048 C2050 1.395 . S
C2048 C2051 1.403 . S
H2049 C2055 0.930 . S
C2050 H2036 0.930 . S
C2050 C2048 1.395 . S
C2050 C2053 1.403 . S
C2051 C2048 1.403 . S
C2051 C2052 1.524 . S
C2051 C2055 1.400 . S
C2052 H2037 0.960 . S
C2052 H2038 0.960 . S
C2052 H2039 0.960 . S
C2052 C2051 1.524 . S
C2053 C2050 1.403 . S
C2053 C2054 1.392 . S
C2053 C2057 1.495 . S
C2054 C2053 1.392 . S
C2054 C2055 1.385 . S
C2054 C2056 1.478 . S
C2055 H2049 0.930 . S
C2055 C2051 1.400 . S
C2055 C2054 1.385 . S
C2056 C2054 1.478 . S
C2056 C2058 1.381 . S
C2056 C2062 1.383 . S
C2057 C2053 1.495 . S
C2057 H2063 0.959 . S
C2057 H2064 0.961 . S
C2057 H2065 0.960 . S
C2058 C2056 1.381 . S
C2058 C2059 1.394 . S
C2058 H2066 0.930 . S
C2059 C2058 1.394 . S
C2059 C2060 1.383 . S
C2059 H2067 0.929 . S
C2060 C2059 1.383 . S
C2060 C2061 1.377 . S
C2061 H2045 0.930 . S
C2061 C2060 1.377 . S
C2061 C2062 1.379 . S
C2062 H2046 0.931 . S
C2062 C2056 1.383 . S
C2062 C2061 1.379 . S
H2063 C2057 0.959 . S
H2064 C2057 0.961 . S
H2065 C2057 0.960 . S
H2066 C2058 0.930 . S
H2067 C2059 0.929 . S
H2068 C2076 0.929 . S
H2069 C2078 0.930 . S
H2070 C2080 0.930 . S
H2071 C2083 0.929 . S
H2072 C2086 0.930 . S
H2073 C2088 0.960 . S
H2074 C2088 0.960 . S
H2075 C2088 0.960 . S
C2076 H2068 0.929 . S
C2076 C2077 1.377 . S
C2076 C2078 1.384 . S
C2077 C2076 1.377 . S
C2077 C2083 1.390 . S
C2078 H2069 0.930 . S
C2078 C2076 1.384 . S
C2078 C2079 1.372 . S
C2079 C2078 1.372 . S
C2079 C2080 1.400 . S
C2079 C2084 1.490 . S
C2080 H2070 0.930 . S
C2080 C2079 1.400 . S
C2080 C2083 1.386 . S
H2081 C2097 0.930 . S
H2082 C2098 0.931 . S
C2083 H2071 0.929 . S
C2083 C2077 1.390 . S
C2083 C2080 1.386 . S
C2084 C2079 1.490 . S
C2084 C2086 1.395 . S
C2084 C2087 1.403 . S
H2085 C2091 0.930 . S
C2086 H2072 0.930 . S
C2086 C2084 1.395 . S
C2086 C2089 1.403 . S
C2087 C2084 1.403 . S
C2087 C2088 1.524 . S
C2087 C2091 1.400 . S
C2088 H2073 0.960 . S
C2088 H2074 0.960 . S
C2088 H2075 0.960 . S
C2088 C2087 1.524 . S
C2089 C2086 1.403 . S
C2089 C2090 1.392 . S
C2089 C2093 1.495 . S
C2090 C2089 1.392 . S
C2090 C2091 1.385 . S
C2090 C2092 1.478 . S
C2091 H2085 0.930 . S
C2091 C2087 1.400 . S
C2091 C2090 1.385 . S
C2092 C2090 1.478 . S
C2092 C2094 1.381 . S
C2092 C2098 1.383 . S
C2093 C2089 1.495 . S
C2093 H2099 0.959 . S
C2093 H2100 0.961 . S
C2093 H2101 0.960 . S
C2094 C2092 1.381 . S
C2094 C2095 1.394 . S
C2094 H2102 0.930 . S
C2095 C2094 1.394 . S
C2095 C2096 1.383 . S
C2095 H2103 0.929 . S
C2096 C2095 1.383 . S
C2096 C2097 1.377 . S
C2097 H2081 0.930 . S
C2097 C2096 1.377 . S
C2097 C2098 1.379 . S
C2098 H2082 0.931 . S
C2098 C2092 1.383 . S
C2098 C2097 1.379 . S
H2099 C2093 0.959 . S
H2100 C2093 0.961 . S
H2101 C2093 0.960 . S
H2102 C2094 0.930 . S
H2103 C2095 0.929 . S
H2104 C2112 0.929 . S
H2105 C2114 0.930 . S
H2106 C2116 0.930 . S
H2107 C2119 0.929 . S
H2108 C2122 0.930 . S
H2109 C2124 0.960 . S
H2110 C2124 0.960 . S
H2111 C2124 0.960 . S
C2112 H2104 0.929 . S
C2112 C2113 1.377 . S
C2112 C2114 1.384 . S
C2113 C2112 1.377 . S
C2113 C2119 1.390 . S
C2114 H2105 0.930 . S
C2114 C2112 1.384 . S
C2114 C2115 1.372 . S
C2115 C2114 1.372 . S
C2115 C2116 1.400 . S
C2115 C2120 1.490 . S
C2116 H2106 0.930 . S
C2116 C2115 1.400 . S
C2116 C2119 1.386 . S
H2117 C2133 0.930 . S
H2118 C2134 0.931 . S
C2119 H2107 0.929 . S
C2119 C2113 1.390 . S
C2119 C2116 1.386 . S
C2120 C2115 1.490 . S
C2120 C2122 1.395 . S
C2120 C2123 1.403 . S
H2121 C2127 0.930 . S
C2122 H2108 0.930 . S
C2122 C2120 1.395 . S
C2122 C2125 1.403 . S
C2123 C2120 1.403 . S
C2123 C2124 1.524 . S
C2123 C2127 1.400 . S
C2124 H2109 0.960 . S
C2124 H2110 0.960 . S
C2124 H2111 0.960 . S
C2124 C2123 1.524 . S
C2125 C2122 1.403 . S
C2125 C2126 1.392 . S
C2125 C2129 1.495 . S
C2126 C2125 1.392 . S
C2126 C2127 1.385 . S
C2126 C2128 1.478 . S
C2127 H2121 0.930 . S
C2127 C2123 1.400 . S
C2127 C2126 1.385 . S
C2128 C2126 1.478 . S
C2128 C2130 1.381 . S
C2128 C2134 1.383 . S
C2129 C2125 1.495 . S
C2129 H2135 0.959 . S
C2129 H2136 0.961 . S
C2129 H2137 0.960 . S
C2130 C2128 1.381 . S
C2130 C2131 1.394 . S
C2130 H2138 0.930 . S
C2131 C2130 1.394 . S
C2131 C2132 1.383 . S
C2131 H2139 0.929 . S
C2132 C2131 1.383 . S
C2132 C2133 1.377 . S
C2133 H2117 0.930 . S
C2133 C2132 1.377 . S
C2133 C2134 1.379 . S
C2134 H2118 0.931 . S
C2134 C2128 1.383 . S
C2134 C2133 1.379 . S
H2135 C2129 0.959 . S
H2136 C2129 0.961 . S
H2137 C2129 0.960 . S
H2138 C2130 0.930 . S
H2139 C2131 0.929 . S
H2140 C2148 0.929 . S
H2141 C2150 0.930 . S
H2142 C2152 0.930 . S
H2143 C2155 0.929 . S
H2144 C2158 0.930 . S
H2145 C2160 0.960 . S
H2146 C2160 0.960 . S
H2147 C2160 0.960 . S
C2148 H2140 0.929 . S
C2148 C2149 1.377 . S
C2148 C2150 1.384 1_455 S
C2149 C2148 1.377 . S
C2149 C2155 1.390 . S
C2150 H2141 0.930 . S
C2150 C2148 1.384 1_655 S
C2150 C2151 1.372 . S
C2151 C2150 1.372 . S
C2151 C2152 1.400 1_655 S
C2151 C2156 1.490 . S
C2152 H2142 0.930 . S
C2152 C2151 1.400 1_455 S
C2152 C2155 1.386 . S
H2153 C2169 0.930 . S
H2154 C2170 0.931 . S
C2155 H2143 0.929 . S
C2155 C2149 1.390 . S
C2155 C2152 1.386 . S
C2156 C2151 1.490 . S
C2156 C2158 1.395 . S
C2156 C2159 1.403 . S
H2157 C2163 0.930 . S
C2158 H2144 0.930 . S
C2158 C2156 1.395 . S
C2158 C2161 1.403 . S
C2159 C2156 1.403 . S
C2159 C2160 1.524 . S
C2159 C2163 1.400 . S
C2160 H2145 0.960 . S
C2160 H2146 0.960 . S
C2160 H2147 0.960 . S
C2160 C2159 1.524 . S
C2161 C2158 1.403 . S
C2161 C2162 1.392 . S
C2161 C2165 1.495 . S
C2162 C2161 1.392 . S
C2162 C2163 1.385 . S
C2162 C2164 1.478 . S
C2163 H2157 0.930 . S
C2163 C2159 1.400 . S
C2163 C2162 1.385 . S
C2164 C2162 1.478 . S
C2164 C2166 1.381 . S
C2164 C2170 1.383 . S
C2165 C2161 1.495 . S
C2165 H2171 0.959 . S
C2165 H2172 0.961 . S
C2165 H2173 0.960 . S
C2166 C2164 1.381 . S
C2166 C2167 1.394 . S
C2166 H2174 0.930 . S
C2167 C2166 1.394 . S
C2167 C2168 1.383 . S
C2167 H2175 0.929 . S
C2168 C2167 1.383 . S
C2168 C2169 1.377 . S
C2169 H2153 0.930 . S
C2169 C2168 1.377 . S
C2169 C2170 1.379 . S
C2170 H2154 0.931 . S
C2170 C2164 1.383 . S
C2170 C2169 1.379 . S
H2171 C2165 0.959 . S
H2172 C2165 0.961 . S
H2173 C2165 0.960 . S
H2174 C2166 0.930 . S
H2175 C2167 0.929 . S
H2176 C2184 0.929 . S
H2177 C2186 0.930 . S
H2178 C2188 0.930 . S
H2179 C2191 0.929 . S
H2180 C2194 0.930 . S
H2181 C2196 0.960 . S
H2182 C2196 0.960 . S
H2183 C2196 0.960 . S
C2184 H2176 0.929 . S
C2184 C2185 1.377 . S
C2184 C2186 1.384 . S
C2185 C2184 1.377 . S
C2185 C2191 1.390 . S
C2186 H2177 0.930 . S
C2186 C2184 1.384 . S
C2186 C2187 1.372 . S
C2187 C2186 1.372 . S
C2187 C2188 1.400 . S
C2187 C2192 1.490 . S
C2188 H2178 0.930 . S
C2188 C2187 1.400 . S
C2188 C2191 1.386 . S
H2189 C2205 0.930 . S
H2190 C2206 0.931 . S
C2191 H2179 0.929 . S
C2191 C2185 1.390 . S
C2191 C2188 1.386 . S
C2192 C2187 1.490 . S
C2192 C2194 1.395 . S
C2192 C2195 1.403 . S
H2193 C2199 0.930 . S
C2194 H2180 0.930 . S
C2194 C2192 1.395 . S
C2194 C2197 1.403 . S
C2195 C2192 1.403 . S
C2195 C2196 1.524 . S
C2195 C2199 1.400 . S
C2196 H2181 0.960 . S
C2196 H2182 0.960 . S
C2196 H2183 0.960 . S
C2196 C2195 1.524 . S
C2197 C2194 1.403 . S
C2197 C2198 1.392 . S
C2197 C2201 1.495 . S
C2198 C2197 1.392 . S
C2198 C2199 1.385 . S
C2198 C2200 1.478 . S
C2199 H2193 0.930 . S
C2199 C2195 1.400 . S
C2199 C2198 1.385 . S
C2200 C2198 1.478 . S
C2200 C2202 1.381 . S
C2200 C2206 1.383 . S
C2201 C2197 1.495 . S
C2201 H2207 0.959 . S
C2201 H2208 0.961 . S
C2201 H2209 0.960 . S
C2202 C2200 1.381 . S
C2202 C2203 1.394 . S
C2202 H2210 0.930 . S
C2203 C2202 1.394 . S
C2203 C2204 1.383 . S
C2203 H2211 0.929 . S
C2204 C2203 1.383 . S
C2204 C2205 1.377 . S
C2205 H2189 0.930 . S
C2205 C2204 1.377 . S
C2205 C2206 1.379 . S
C2206 H2190 0.931 . S
C2206 C2200 1.383 . S
C2206 C2205 1.379 . S
H2207 C2201 0.959 . S
H2208 C2201 0.961 . S
H2209 C2201 0.960 . S
H2210 C2202 0.930 . S
H2211 C2203 0.929 . S
H2212 C2220 0.929 . S
H2213 C2222 0.930 . S
H2214 C2224 0.930 . S
H2215 C2227 0.929 . S
H2216 C2230 0.930 . S
H2217 C2232 0.960 . S
H2218 C2232 0.960 . S
H2219 C2232 0.960 . S
C2220 H2212 0.929 . S
C2220 C2221 1.377 . S
C2220 C2222 1.384 . S
C2221 C2220 1.377 . S
C2221 C2227 1.390 . S
C2222 H2213 0.930 . S
C2222 C2220 1.384 . S
C2222 C2223 1.372 . S
C2223 C2222 1.372 . S
C2223 C2224 1.400 . S
C2223 C2228 1.490 . S
C2224 H2214 0.930 . S
C2224 C2223 1.400 . S
C2224 C2227 1.386 . S
H2225 C2241 0.930 . S
H2226 C2242 0.931 . S
C2227 H2215 0.929 . S
C2227 C2221 1.390 . S
C2227 C2224 1.386 . S
C2228 C2223 1.490 . S
C2228 C2230 1.395 . S
C2228 C2231 1.403 . S
H2229 C2235 0.930 . S
C2230 H2216 0.930 . S
C2230 C2228 1.395 . S
C2230 C2233 1.403 . S
C2231 C2228 1.403 . S
C2231 C2232 1.524 . S
C2231 C2235 1.400 . S
C2232 H2217 0.960 . S
C2232 H2218 0.960 . S
C2232 H2219 0.960 . S
C2232 C2231 1.524 . S
C2233 C2230 1.403 . S
C2233 C2234 1.392 . S
C2233 C2237 1.495 . S
C2234 C2233 1.392 . S
C2234 C2235 1.385 . S
C2234 C2236 1.478 . S
C2235 H2229 0.930 . S
C2235 C2231 1.400 . S
C2235 C2234 1.385 . S
C2236 C2234 1.478 . S
C2236 C2238 1.381 . S
C2236 C2242 1.383 . S
C2237 C2233 1.495 . S
C2237 H2243 0.959 . S
C2237 H2244 0.961 . S
C2237 H2245 0.960 . S
C2238 C2236 1.381 . S
C2238 C2239 1.394 . S
C2238 H2246 0.930 . S
C2239 C2238 1.394 . S
C2239 C2240 1.383 . S
C2239 H2247 0.929 . S
C2240 C2239 1.383 . S
C2240 C2241 1.377 . S
C2241 H2225 0.930 . S
C2241 C2240 1.377 . S
C2241 C2242 1.379 . S
C2242 H2226 0.931 . S
C2242 C2236 1.383 . S
C2242 C2241 1.379 . S
H2243 C2237 0.959 . S
H2244 C2237 0.961 . S
H2245 C2237 0.960 . S
H2246 C2238 0.930 . S
H2247 C2239 0.929 . S
H2248 C2256 0.929 . S
H2249 C2258 0.930 . S
H2250 C2260 0.930 . S
H2251 C2263 0.929 . S
H2252 C2266 0.930 . S
H2253 C2268 0.960 . S
H2254 C2268 0.960 . S
H2255 C2268 0.960 . S
C2256 H2248 0.929 . S
C2256 C2257 1.377 . S
C2256 C2258 1.384 . S
C2257 C2256 1.377 . S
C2257 C2263 1.390 . S
C2258 H2249 0.930 . S
C2258 C2256 1.384 . S
C2258 C2259 1.372 . S
C2259 C2258 1.372 . S
C2259 C2260 1.400 . S
C2259 C2264 1.490 . S
C2260 H2250 0.930 . S
C2260 C2259 1.400 . S
C2260 C2263 1.386 . S
H2261 C2277 0.930 . S
H2262 C2278 0.931 . S
C2263 H2251 0.929 . S
C2263 C2257 1.390 . S
C2263 C2260 1.386 . S
C2264 C2259 1.490 . S
C2264 C2266 1.395 . S
C2264 C2267 1.403 . S
H2265 C2271 0.930 . S
C2266 H2252 0.930 . S
C2266 C2264 1.395 . S
C2266 C2269 1.403 . S
C2267 C2264 1.403 . S
C2267 C2268 1.524 . S
C2267 C2271 1.400 . S
C2268 H2253 0.960 . S
C2268 H2254 0.960 . S
C2268 H2255 0.960 . S
C2268 C2267 1.524 . S
C2269 C2266 1.403 . S
C2269 C2270 1.392 . S
C2269 C2273 1.495 . S
C2270 C2269 1.392 . S
C2270 C2271 1.385 . S
C2270 C2272 1.478 . S
C2271 H2265 0.930 . S
C2271 C2267 1.400 . S
C2271 C2270 1.385 . S
C2272 C2270 1.478 . S
C2272 C2274 1.381 . S
C2272 C2278 1.383 . S
C2273 C2269 1.495 . S
C2273 H2279 0.959 . S
C2273 H2280 0.961 . S
C2273 H2281 0.960 . S
C2274 C2272 1.381 . S
C2274 C2275 1.394 . S
C2274 H2282 0.930 . S
C2275 C2274 1.394 . S
C2275 C2276 1.383 . S
C2275 H2283 0.929 . S
C2276 C2275 1.383 . S
C2276 C2277 1.377 . S
C2277 H2261 0.930 . S
C2277 C2276 1.377 . S
C2277 C2278 1.379 . S
C2278 H2262 0.931 . S
C2278 C2272 1.383 . S
C2278 C2277 1.379 . S
H2279 C2273 0.959 . S
H2280 C2273 0.961 . S
H2281 C2273 0.960 . S
H2282 C2274 0.930 . S
H2283 C2275 0.929 . S
H2284 C2292 0.929 . S
H2285 C2294 0.930 . S
H2286 C2296 0.930 . S
H2287 C2299 0.929 . S
H2288 C2302 0.930 . S
H2289 C2304 0.960 . S
H2290 C2304 0.960 . S
H2291 C2304 0.960 . S
C2292 H2284 0.929 . S
C2292 C2293 1.377 . S
C2292 C2294 1.384 . S
C2293 C2292 1.377 . S
C2293 C2299 1.390 . S
C2294 H2285 0.930 . S
C2294 C2292 1.384 . S
C2294 C2295 1.372 . S
C2295 C2294 1.372 . S
C2295 C2296 1.400 . S
C2295 C2300 1.490 . S
C2296 H2286 0.930 . S
C2296 C2295 1.400 . S
C2296 C2299 1.386 . S
H2297 C2313 0.930 . S
H2298 C2314 0.931 . S
C2299 H2287 0.929 . S
C2299 C2293 1.390 . S
C2299 C2296 1.386 . S
C2300 C2295 1.490 . S
C2300 C2302 1.395 . S
C2300 C2303 1.403 . S
H2301 C2307 0.930 . S
C2302 H2288 0.930 . S
C2302 C2300 1.395 . S
C2302 C2305 1.403 . S
C2303 C2300 1.403 . S
C2303 C2304 1.524 . S
C2303 C2307 1.400 . S
C2304 H2289 0.960 . S
C2304 H2290 0.960 . S
C2304 H2291 0.960 . S
C2304 C2303 1.524 . S
C2305 C2302 1.403 . S
C2305 C2306 1.392 . S
C2305 C2309 1.495 . S
C2306 C2305 1.392 . S
C2306 C2307 1.385 . S
C2306 C2308 1.478 . S
C2307 H2301 0.930 . S
C2307 C2303 1.400 . S
C2307 C2306 1.385 . S
C2308 C2306 1.478 . S
C2308 C2310 1.381 1_655 S
C2308 C2314 1.383 . S
C2309 C2305 1.495 . S
C2309 H2315 0.959 . S
C2309 H2316 0.961 . S
C2309 H2317 0.960 . S
C2310 C2308 1.381 1_455 S
C2310 C2311 1.394 . S
C2310 H2318 0.930 1_455 S
C2311 C2310 1.394 . S
C2311 C2312 1.383 . S
C2311 H2319 0.929 . S
C2312 C2311 1.383 . S
C2312 C2313 1.377 . S
C2313 H2297 0.930 . S
C2313 C2312 1.377 . S
C2313 C2314 1.379 1_455 S
C2314 H2298 0.931 . S
C2314 C2308 1.383 . S
C2314 C2313 1.379 1_655 S
H2315 C2309 0.959 . S
H2316 C2309 0.961 . S
H2317 C2309 0.960 . S
H2318 C2310 0.930 1_655 S
H2319 C2311 0.929 . S
H2320 C2328 0.929 . S
H2321 C2330 0.930 . S
H2322 C2332 0.930 . S
H2323 C2335 0.929 . S
H2324 C2338 0.930 . S
H2325 C2340 0.960 . S
H2326 C2340 0.960 . S
H2327 C2340 0.960 . S
C2328 H2320 0.929 . S
C2328 C2329 1.377 . S
C2328 C2330 1.384 . S
C2329 C2328 1.377 . S
C2329 C2335 1.390 . S
C2330 H2321 0.930 . S
C2330 C2328 1.384 . S
C2330 C2331 1.372 . S
C2331 C2330 1.372 . S
C2331 C2332 1.400 . S
C2331 C2336 1.490 . S
C2332 H2322 0.930 . S
C2332 C2331 1.400 . S
C2332 C2335 1.386 . S
H2333 C2349 0.930 . S
H2334 C2350 0.931 . S
C2335 H2323 0.929 . S
C2335 C2329 1.390 . S
C2335 C2332 1.386 . S
C2336 C2331 1.490 . S
C2336 C2338 1.395 . S
C2336 C2339 1.403 . S
H2337 C2343 0.930 . S
C2338 H2324 0.930 . S
C2338 C2336 1.395 . S
C2338 C2341 1.403 . S
C2339 C2336 1.403 . S
C2339 C2340 1.524 . S
C2339 C2343 1.400 . S
C2340 H2325 0.960 . S
C2340 H2326 0.960 . S
C2340 H2327 0.960 . S
C2340 C2339 1.524 . S
C2341 C2338 1.403 . S
C2341 C2342 1.392 . S
C2341 C2345 1.495 . S
C2342 C2341 1.392 . S
C2342 C2343 1.385 . S
C2342 C2344 1.478 . S
C2343 H2337 0.930 . S
C2343 C2339 1.400 . S
C2343 C2342 1.385 . S
C2344 C2342 1.478 . S
C2344 C2346 1.381 . S
C2344 C2350 1.383 . S
C2345 C2341 1.495 . S
C2345 H2351 0.959 . S
C2345 H2352 0.961 . S
C2345 H2353 0.960 . S
C2346 C2344 1.381 . S
C2346 C2347 1.394 . S
C2346 H2354 0.930 . S
C2347 C2346 1.394 . S
C2347 C2348 1.383 . S
C2347 H2355 0.929 . S
C2348 C2347 1.383 . S
C2348 C2349 1.377 . S
C2349 H2333 0.930 . S
C2349 C2348 1.377 . S
C2349 C2350 1.379 . S
C2350 H2334 0.931 . S
C2350 C2344 1.383 . S
C2350 C2349 1.379 . S
H2351 C2345 0.959 . S
H2352 C2345 0.961 . S
H2353 C2345 0.960 . S
H2354 C2346 0.930 . S
H2355 C2347 0.929 . S
H2356 C2364 0.929 . S
H2357 C2366 0.930 . S
H2358 C2368 0.930 . S
H2359 C2371 0.929 . S
H2360 C2374 0.930 . S
H2361 C2376 0.960 . S
H2362 C2376 0.960 . S
H2363 C2376 0.960 . S
C2364 H2356 0.929 . S
C2364 C2365 1.377 . S
C2364 C2366 1.384 1_455 S
C2365 C2364 1.377 . S
C2365 C2371 1.390 . S
C2366 H2357 0.930 . S
C2366 C2364 1.384 1_655 S
C2366 C2367 1.372 . S
C2367 C2366 1.372 . S
C2367 C2368 1.400 . S
C2367 C2372 1.490 . S
C2368 H2358 0.930 . S
C2368 C2367 1.400 . S
C2368 C2371 1.386 1_655 S
H2369 C2385 0.930 . S
H2370 C2386 0.931 . S
C2371 H2359 0.929 . S
C2371 C2365 1.390 . S
C2371 C2368 1.386 1_455 S
C2372 C2367 1.490 . S
C2372 C2374 1.395 . S
C2372 C2375 1.403 . S
H2373 C2379 0.930 . S
C2374 H2360 0.930 . S
C2374 C2372 1.395 . S
C2374 C2377 1.403 . S
C2375 C2372 1.403 . S
C2375 C2376 1.524 . S
C2375 C2379 1.400 . S
C2376 H2361 0.960 . S
C2376 H2362 0.960 . S
C2376 H2363 0.960 . S
C2376 C2375 1.524 . S
C2377 C2374 1.403 . S
C2377 C2378 1.392 . S
C2377 C2381 1.495 . S
C2378 C2377 1.392 . S
C2378 C2379 1.385 . S
C2378 C2380 1.478 . S
C2379 H2373 0.930 . S
C2379 C2375 1.400 . S
C2379 C2378 1.385 . S
C2380 C2378 1.478 . S
C2380 C2382 1.381 . S
C2380 C2386 1.383 . S
C2381 C2377 1.495 . S
C2381 H2387 0.959 . S
C2381 H2388 0.961 . S
C2381 H2389 0.960 . S
C2382 C2380 1.381 . S
C2382 C2383 1.394 . S
C2382 H2390 0.930 . S
C2383 C2382 1.394 . S
C2383 C2384 1.383 . S
C2383 H2391 0.929 . S
C2384 C2383 1.383 . S
C2384 C2385 1.377 . S
C2385 H2369 0.930 . S
C2385 C2384 1.377 . S
C2385 C2386 1.379 . S
C2386 H2370 0.931 . S
C2386 C2380 1.383 . S
C2386 C2385 1.379 . S
H2387 C2381 0.959 . S
H2388 C2381 0.961 . S
H2389 C2381 0.960 . S
H2390 C2382 0.930 . S
H2391 C2383 0.929 . S
H2392 C2400 0.929 . S
H2393 C2402 0.930 . S
H2394 C2404 0.930 . S
H2395 C2407 0.929 . S
H2396 C2410 0.930 . S
H2397 C2412 0.960 . S
H2398 C2412 0.960 . S
H2399 C2412 0.960 . S
C2400 H2392 0.929 . S
C2400 C2401 1.377 . S
C2400 C2402 1.384 . S
C2401 C2400 1.377 . S
C2401 C2407 1.390 . S
C2402 H2393 0.930 . S
C2402 C2400 1.384 . S
C2402 C2403 1.372 . S
C2403 C2402 1.372 . S
C2403 C2404 1.400 . S
C2403 C2408 1.490 . S
C2404 H2394 0.930 . S
C2404 C2403 1.400 . S
C2404 C2407 1.386 . S
H2405 C2421 0.930 . S
H2406 C2422 0.931 . S
C2407 H2395 0.929 . S
C2407 C2401 1.390 . S
C2407 C2404 1.386 . S
C2408 C2403 1.490 . S
C2408 C2410 1.395 . S
C2408 C2411 1.403 . S
H2409 C2415 0.930 . S
C2410 H2396 0.930 . S
C2410 C2408 1.395 . S
C2410 C2413 1.403 . S
C2411 C2408 1.403 . S
C2411 C2412 1.524 . S
C2411 C2415 1.400 . S
C2412 H2397 0.960 . S
C2412 H2398 0.960 . S
C2412 H2399 0.960 . S
C2412 C2411 1.524 . S
C2413 C2410 1.403 . S
C2413 C2414 1.392 . S
C2413 C2417 1.495 . S
C2414 C2413 1.392 . S
C2414 C2415 1.385 . S
C2414 C2416 1.478 . S
C2415 H2409 0.930 . S
C2415 C2411 1.400 . S
C2415 C2414 1.385 . S
C2416 C2414 1.478 . S
C2416 C2418 1.381 . S
C2416 C2422 1.383 . S
C2417 C2413 1.495 . S
C2417 H2423 0.959 . S
C2417 H2424 0.961 . S
C2417 H2425 0.960 . S
C2418 C2416 1.381 . S
C2418 C2419 1.394 . S
C2418 H2426 0.930 . S
C2419 C2418 1.394 . S
C2419 C2420 1.383 . S
C2419 H2427 0.929 . S
C2420 C2419 1.383 . S
C2420 C2421 1.377 . S
C2421 H2405 0.930 . S
C2421 C2420 1.377 . S
C2421 C2422 1.379 . S
C2422 H2406 0.931 . S
C2422 C2416 1.383 . S
C2422 C2421 1.379 . S
H2423 C2417 0.959 . S
H2424 C2417 0.961 . S
H2425 C2417 0.960 . S
H2426 C2418 0.930 . S
H2427 C2419 0.929 . S
H2428 C2436 0.929 . S
H2429 C2438 0.930 . S
H2430 C2440 0.930 . S
H2431 C2443 0.929 . S
H2432 C2446 0.930 . S
H2433 C2448 0.960 . S
H2434 C2448 0.960 . S
H2435 C2448 0.960 . S
C2436 H2428 0.929 . S
C2436 C2437 1.377 . S
C2436 C2438 1.384 . S
C2437 C2436 1.377 . S
C2437 C2443 1.390 . S
C2438 H2429 0.930 . S
C2438 C2436 1.384 . S
C2438 C2439 1.372 . S
C2439 C2438 1.372 . S
C2439 C2440 1.400 . S
C2439 C2444 1.490 . S
C2440 H2430 0.930 . S
C2440 C2439 1.400 . S
C2440 C2443 1.386 . S
H2441 C2457 0.930 . S
H2442 C2458 0.931 . S
C2443 H2431 0.929 . S
C2443 C2437 1.390 . S
C2443 C2440 1.386 . S
C2444 C2439 1.490 . S
C2444 C2446 1.395 . S
C2444 C2447 1.403 . S
H2445 C2451 0.930 . S
C2446 H2432 0.930 . S
C2446 C2444 1.395 . S
C2446 C2449 1.403 . S
C2447 C2444 1.403 . S
C2447 C2448 1.524 . S
C2447 C2451 1.400 . S
C2448 H2433 0.960 . S
C2448 H2434 0.960 . S
C2448 H2435 0.960 . S
C2448 C2447 1.524 . S
C2449 C2446 1.403 . S
C2449 C2450 1.392 . S
C2449 C2453 1.495 . S
C2450 C2449 1.392 . S
C2450 C2451 1.385 . S
C2450 C2452 1.478 . S
C2451 H2445 0.930 . S
C2451 C2447 1.400 . S
C2451 C2450 1.385 . S
C2452 C2450 1.478 . S
C2452 C2454 1.381 . S
C2452 C2458 1.383 . S
C2453 C2449 1.495 . S
C2453 H2459 0.959 . S
C2453 H2460 0.961 . S
C2453 H2461 0.960 . S
C2454 C2452 1.381 . S
C2454 C2455 1.394 . S
C2454 H2462 0.930 . S
C2455 C2454 1.394 . S
C2455 C2456 1.383 . S
C2455 H2463 0.929 . S
C2456 C2455 1.383 . S
C2456 C2457 1.377 . S
C2457 H2441 0.930 . S
C2457 C2456 1.377 . S
C2457 C2458 1.379 . S
C2458 H2442 0.931 . S
C2458 C2452 1.383 . S
C2458 C2457 1.379 . S
H2459 C2453 0.959 . S
H2460 C2453 0.961 . S
H2461 C2453 0.960 . S
H2462 C2454 0.930 . S
H2463 C2455 0.929 . S
H2464 C2472 0.929 . S
H2465 C2474 0.930 . S
H2466 C2476 0.930 . S
H2467 C2479 0.929 . S
H2468 C2482 0.930 . S
H2469 C2484 0.960 . S
H2470 C2484 0.960 . S
H2471 C2484 0.960 . S
C2472 H2464 0.929 . S
C2472 C2473 1.377 . S
C2472 C2474 1.384 . S
C2473 C2472 1.377 . S
C2473 C2479 1.390 . S
C2474 H2465 0.930 . S
C2474 C2472 1.384 . S
C2474 C2475 1.372 . S
C2475 C2474 1.372 . S
C2475 C2476 1.400 . S
C2475 C2480 1.490 . S
C2476 H2466 0.930 . S
C2476 C2475 1.400 . S
C2476 C2479 1.386 . S
H2477 C2493 0.930 . S
H2478 C2494 0.931 . S
C2479 H2467 0.929 . S
C2479 C2473 1.390 . S
C2479 C2476 1.386 . S
C2480 C2475 1.490 . S
C2480 C2482 1.395 . S
C2480 C2483 1.403 . S
H2481 C2487 0.930 . S
C2482 H2468 0.930 . S
C2482 C2480 1.395 . S
C2482 C2485 1.403 . S
C2483 C2480 1.403 . S
C2483 C2484 1.524 . S
C2483 C2487 1.400 . S
C2484 H2469 0.960 . S
C2484 H2470 0.960 . S
C2484 H2471 0.960 . S
C2484 C2483 1.524 . S
C2485 C2482 1.403 . S
C2485 C2486 1.392 . S
C2485 C2489 1.495 . S
C2486 C2485 1.392 . S
C2486 C2487 1.385 . S
C2486 C2488 1.478 . S
C2487 H2481 0.930 . S
C2487 C2483 1.400 . S
C2487 C2486 1.385 . S
C2488 C2486 1.478 . S
C2488 C2490 1.381 . S
C2488 C2494 1.383 . S
C2489 C2485 1.495 . S
C2489 H2495 0.959 . S
C2489 H2496 0.961 . S
C2489 H2497 0.960 . S
C2490 C2488 1.381 . S
C2490 C2491 1.394 . S
C2490 H2498 0.930 . S
C2491 C2490 1.394 . S
C2491 C2492 1.383 . S
C2491 H2499 0.929 . S
C2492 C2491 1.383 . S
C2492 C2493 1.377 . S
C2493 H2477 0.930 . S
C2493 C2492 1.377 . S
C2493 C2494 1.379 . S
C2494 H2478 0.931 . S
C2494 C2488 1.383 . S
C2494 C2493 1.379 . S
H2495 C2489 0.959 . S
H2496 C2489 0.961 . S
H2497 C2489 0.960 . S
H2498 C2490 0.930 . S
H2499 C2491 0.929 . S
H2500 C2508 0.929 . S
H2501 C2510 0.930 . S
H2502 C2512 0.930 . S
H2503 C2515 0.929 . S
H2504 C2518 0.930 . S
H2505 C2520 0.960 . S
H2506 C2520 0.960 . S
H2507 C2520 0.960 . S
C2508 H2500 0.929 . S
C2508 C2509 1.377 . S
C2508 C2510 1.384 . S
C2509 C2508 1.377 . S
C2509 C2515 1.390 . S
C2510 H2501 0.930 . S
C2510 C2508 1.384 . S
C2510 C2511 1.372 . S
C2511 C2510 1.372 . S
C2511 C2512 1.400 . S
C2511 C2516 1.490 . S
C2512 H2502 0.930 . S
C2512 C2511 1.400 . S
C2512 C2515 1.386 . S
H2513 C2529 0.930 . S
H2514 C2530 0.931 . S
C2515 H2503 0.929 . S
C2515 C2509 1.390 . S
C2515 C2512 1.386 . S
C2516 C2511 1.490 . S
C2516 C2518 1.395 . S
C2516 C2519 1.403 . S
H2517 C2523 0.930 . S
C2518 H2504 0.930 . S
C2518 C2516 1.395 . S
C2518 C2521 1.403 . S
C2519 C2516 1.403 . S
C2519 C2520 1.524 . S
C2519 C2523 1.400 . S
C2520 H2505 0.960 . S
C2520 H2506 0.960 . S
C2520 H2507 0.960 . S
C2520 C2519 1.524 . S
C2521 C2518 1.403 . S
C2521 C2522 1.392 . S
C2521 C2525 1.495 . S
C2522 C2521 1.392 . S
C2522 C2523 1.385 . S
C2522 C2524 1.478 . S
C2523 H2517 0.930 . S
C2523 C2519 1.400 . S
C2523 C2522 1.385 . S
C2524 C2522 1.478 . S
C2524 C2526 1.381 . S
C2524 C2530 1.383 . S
C2525 C2521 1.495 . S
C2525 H2531 0.959 . S
C2525 H2532 0.961 . S
C2525 H2533 0.960 . S
C2526 C2524 1.381 . S
C2526 C2527 1.394 . S
C2526 H2534 0.930 . S
C2527 C2526 1.394 . S
C2527 C2528 1.383 . S
C2527 H2535 0.929 . S
C2528 C2527 1.383 . S
C2528 C2529 1.377 . S
C2529 H2513 0.930 . S
C2529 C2528 1.377 . S
C2529 C2530 1.379 . S
C2530 H2514 0.931 . S
C2530 C2524 1.383 . S
C2530 C2529 1.379 . S
H2531 C2525 0.959 . S
H2532 C2525 0.961 . S
H2533 C2525 0.960 . S
H2534 C2526 0.930 . S
H2535 C2527 0.929 . S
H2536 C2544 0.929 . S
H2537 C2546 0.930 . S
H2538 C2548 0.930 . S
H2539 C2551 0.929 . S
H2540 C2554 0.930 . S
H2541 C2556 0.960 . S
H2542 C2556 0.960 . S
H2543 C2556 0.960 . S
C2544 H2536 0.929 . S
C2544 C2545 1.377 . S
C2544 C2546 1.384 . S
C2545 C2544 1.377 . S
C2545 C2551 1.390 . S
C2546 H2537 0.930 . S
C2546 C2544 1.384 . S
C2546 C2547 1.372 . S
C2547 C2546 1.372 . S
C2547 C2548 1.400 . S
C2547 C2552 1.490 . S
C2548 H2538 0.930 . S
C2548 C2547 1.400 . S
C2548 C2551 1.386 . S
H2549 C2565 0.930 . S
H2550 C2566 0.931 . S
C2551 H2539 0.929 . S
C2551 C2545 1.390 . S
C2551 C2548 1.386 . S
C2552 C2547 1.490 . S
C2552 C2554 1.395 . S
C2552 C2555 1.403 . S
H2553 C2559 0.930 . S
C2554 H2540 0.930 . S
C2554 C2552 1.395 . S
C2554 C2557 1.403 . S
C2555 C2552 1.403 . S
C2555 C2556 1.524 . S
C2555 C2559 1.400 . S
C2556 H2541 0.960 . S
C2556 H2542 0.960 . S
C2556 H2543 0.960 . S
C2556 C2555 1.524 . S
C2557 C2554 1.403 . S
C2557 C2558 1.392 . S
C2557 C2561 1.495 . S
C2558 C2557 1.392 . S
C2558 C2559 1.385 . S
C2558 C2560 1.478 . S
C2559 H2553 0.930 . S
C2559 C2555 1.400 . S
C2559 C2558 1.385 . S
C2560 C2558 1.478 . S
C2560 C2562 1.381 . S
C2560 C2566 1.383 . S
C2561 C2557 1.495 . S
C2561 H2567 0.959 . S
C2561 H2568 0.961 . S
C2561 H2569 0.960 . S
C2562 C2560 1.381 . S
C2562 C2563 1.394 . S
C2562 H2570 0.930 . S
C2563 C2562 1.394 . S
C2563 C2564 1.383 . S
C2563 H2571 0.929 . S
C2564 C2563 1.383 . S
C2564 C2565 1.377 . S
C2565 H2549 0.930 . S
C2565 C2564 1.377 . S
C2565 C2566 1.379 . S
C2566 H2550 0.931 . S
C2566 C2560 1.383 . S
C2566 C2565 1.379 . S
H2567 C2561 0.959 . S
H2568 C2561 0.961 . S
H2569 C2561 0.960 . S
H2570 C2562 0.930 . S
H2571 C2563 0.929 . S
H2572 C2580 0.929 . S
H2573 C2582 0.937 . S
H2574 C2584 0.930 . S
H2575 C2587 0.929 . S
H2576 C2590 0.930 . S
H2577 C2592 0.960 . S
H2578 C2592 0.960 . S
H2579 C2592 0.960 . S
C2580 H2572 0.929 . S
C2580 C2581 1.377 . S
C2580 C2582 1.358 1_655 S
C2581 C2580 1.377 . S
C2581 C2587 1.390 . S
C2582 H2573 0.937 . S
C2582 C2580 1.358 1_455 S
C2582 C2583 1.391 . S
C2583 C2582 1.391 . S
C2583 C2584 1.400 . S
C2583 C2588 1.490 . S
C2584 H2574 0.930 . S
C2584 C2583 1.400 . S
C2584 C2587 1.386 1_455 S
H2585 C2601 0.930 . S
H2586 C2602 0.931 . S
C2587 H2575 0.929 . S
C2587 C2581 1.390 . S
C2587 C2584 1.386 1_655 S
C2588 C2583 1.490 . S
C2588 C2590 1.395 . S
C2588 C2591 1.403 . S
H2589 C2595 0.930 . S
C2590 H2576 0.930 . S
C2590 C2588 1.395 . S
C2590 C2593 1.403 . S
C2591 C2588 1.403 . S
C2591 C2592 1.524 . S
C2591 C2595 1.400 . S
C2592 H2577 0.960 . S
C2592 H2578 0.960 . S
C2592 H2579 0.960 . S
C2592 C2591 1.524 . S
C2593 C2590 1.403 . S
C2593 C2594 1.392 . S
C2593 C2597 1.495 . S
C2594 C2593 1.392 . S
C2594 C2595 1.385 . S
C2594 C2596 1.478 . S
C2595 H2589 0.930 . S
C2595 C2591 1.400 . S
C2595 C2594 1.385 . S
C2596 C2594 1.478 . S
C2596 C2598 1.381 . S
C2596 C2602 1.383 . S
C2597 C2593 1.495 . S
C2597 H2603 0.959 . S
C2597 H2604 0.961 . S
C2597 H2605 0.960 . S
C2598 C2596 1.381 . S
C2598 C2599 1.394 . S
C2598 H2606 0.930 . S
C2599 C2598 1.394 . S
C2599 C2600 1.383 . S
C2599 H2607 0.929 . S
C2600 C2599 1.383 . S
C2600 C2601 1.377 . S
C2601 H2585 0.930 . S
C2601 C2600 1.377 . S
C2601 C2602 1.379 . S
C2602 H2586 0.931 . S
C2602 C2596 1.383 . S
C2602 C2601 1.379 . S
H2603 C2597 0.959 . S
H2604 C2597 0.961 . S
H2605 C2597 0.960 . S
H2606 C2598 0.930 . S
H2607 C2599 0.929 . S
H2608 C2616 0.929 . S
H2609 C2618 0.930 . S
H2610 C2620 0.930 . S
H2611 C2623 0.929 . S
H2612 C2626 0.930 . S
H2613 C2628 0.960 . S
H2614 C2628 0.960 . S
H2615 C2628 0.960 . S
C2616 H2608 0.929 . S
C2616 C2617 1.377 . S
C2616 C2618 1.384 . S
C2617 C2616 1.377 . S
C2617 C2623 1.390 . S
C2618 H2609 0.930 . S
C2618 C2616 1.384 . S
C2618 C2619 1.372 . S
C2619 C2618 1.372 . S
C2619 C2620 1.400 . S
C2619 C2624 1.490 . S
C2620 H2610 0.930 . S
C2620 C2619 1.400 . S
C2620 C2623 1.386 . S
H2621 C2637 0.930 . S
H2622 C2638 0.931 . S
C2623 H2611 0.929 . S
C2623 C2617 1.390 . S
C2623 C2620 1.386 . S
C2624 C2619 1.490 . S
C2624 C2626 1.395 . S
C2624 C2627 1.403 . S
H2625 C2631 0.930 . S
C2626 H2612 0.930 . S
C2626 C2624 1.395 . S
C2626 C2629 1.403 . S
C2627 C2624 1.403 . S
C2627 C2628 1.524 . S
C2627 C2631 1.400 . S
C2628 H2613 0.960 . S
C2628 H2614 0.960 . S
C2628 H2615 0.960 . S
C2628 C2627 1.524 . S
C2629 C2626 1.403 . S
C2629 C2630 1.392 . S
C2629 C2633 1.495 . S
C2630 C2629 1.392 . S
C2630 C2631 1.385 . S
C2630 C2632 1.478 . S
C2631 H2625 0.930 . S
C2631 C2627 1.400 . S
C2631 C2630 1.385 . S
C2632 C2630 1.478 . S
C2632 C2634 1.381 . S
C2632 C2638 1.383 . S
C2633 C2629 1.495 . S
C2633 H2639 0.959 . S
C2633 H2640 0.961 . S
C2633 H2641 0.960 . S
C2634 C2632 1.381 . S
C2634 C2635 1.394 . S
C2634 H2642 0.930 . S
C2635 C2634 1.394 . S
C2635 C2636 1.383 . S
C2635 H2643 0.929 . S
C2636 C2635 1.383 . S
C2636 C2637 1.377 . S
C2637 H2621 0.930 . S
C2637 C2636 1.377 . S
C2637 C2638 1.379 . S
C2638 H2622 0.931 . S
C2638 C2632 1.383 . S
C2638 C2637 1.379 . S
H2639 C2633 0.959 . S
H2640 C2633 0.961 . S
H2641 C2633 0.960 . S
H2642 C2634 0.930 . S
H2643 C2635 0.929 . S
H2644 C2652 0.929 . S
H2645 C2654 0.930 . S
H2646 C2656 0.930 . S
H2647 C2659 0.929 . S
H2648 C2662 0.930 . S
H2649 C2664 0.960 . S
H2650 C2664 0.960 . S
H2651 C2664 0.960 . S
C2652 H2644 0.929 . S
C2652 C2653 1.377 . S
C2652 C2654 1.384 . S
C2653 C2652 1.377 . S
C2653 C2659 1.390 . S
C2654 H2645 0.930 . S
C2654 C2652 1.384 . S
C2654 C2655 1.372 . S
C2655 C2654 1.372 . S
C2655 C2656 1.400 . S
C2655 C2660 1.490 . S
C2656 H2646 0.930 . S
C2656 C2655 1.400 . S
C2656 C2659 1.386 . S
H2657 C2673 0.930 . S
H2658 C2674 0.931 . S
C2659 H2647 0.929 . S
C2659 C2653 1.390 . S
C2659 C2656 1.386 . S
C2660 C2655 1.490 . S
C2660 C2662 1.395 . S
C2660 C2663 1.403 . S
H2661 C2667 0.930 . S
C2662 H2648 0.930 . S
C2662 C2660 1.395 . S
C2662 C2665 1.403 . S
C2663 C2660 1.403 . S
C2663 C2664 1.524 . S
C2663 C2667 1.400 . S
C2664 H2649 0.960 . S
C2664 H2650 0.960 . S
C2664 H2651 0.960 . S
C2664 C2663 1.524 . S
C2665 C2662 1.403 . S
C2665 C2666 1.392 . S
C2665 C2669 1.495 . S
C2666 C2665 1.392 . S
C2666 C2667 1.385 . S
C2666 C2668 1.478 . S
C2667 H2661 0.930 . S
C2667 C2663 1.400 . S
C2667 C2666 1.385 . S
C2668 C2666 1.478 . S
C2668 C2670 1.381 . S
C2668 C2674 1.383 . S
C2669 C2665 1.495 . S
C2669 H2675 0.959 . S
C2669 H2676 0.961 . S
C2669 H2677 0.960 . S
C2670 C2668 1.381 . S
C2670 C2671 1.394 1_455 S
C2670 H2678 0.930 . S
C2671 C2670 1.394 1_655 S
C2671 C2672 1.383 . S
C2671 H2679 0.929 . S
C2672 C2671 1.383 . S
C2672 C2673 1.377 . S
C2673 H2657 0.930 . S
C2673 C2672 1.377 . S
C2673 C2674 1.379 1_655 S
C2674 H2658 0.931 . S
C2674 C2668 1.383 . S
C2674 C2673 1.379 1_455 S
H2675 C2669 0.959 . S
H2676 C2669 0.961 . S
H2677 C2669 0.960 . S
H2678 C2670 0.930 . S
H2679 C2671 0.929 . S
H2680 C2688 0.929 . S
H2681 C2690 0.930 . S
H2682 C2692 0.930 . S
H2683 C2695 0.929 . S
H2684 C2698 0.930 . S
H2685 C2700 0.960 . S
H2686 C2700 0.960 . S
H2687 C2700 0.960 . S
C2688 H2680 0.929 . S
C2688 C2689 1.377 . S
C2688 C2690 1.384 . S
C2689 C2688 1.377 . S
C2689 C2695 1.390 . S
C2690 H2681 0.930 . S
C2690 C2688 1.384 . S
C2690 C2691 1.372 . S
C2691 C2690 1.372 . S
C2691 C2692 1.400 . S
C2691 C2696 1.490 . S
C2692 H2682 0.930 . S
C2692 C2691 1.400 . S
C2692 C2695 1.386 . S
H2693 C2709 0.930 . S
H2694 C2710 0.931 . S
C2695 H2683 0.929 . S
C2695 C2689 1.390 . S
C2695 C2692 1.386 . S
C2696 C2691 1.490 . S
C2696 C2698 1.395 . S
C2696 C2699 1.403 . S
H2697 C2703 0.930 . S
C2698 H2684 0.930 . S
C2698 C2696 1.395 . S
C2698 C2701 1.403 . S
C2699 C2696 1.403 . S
C2699 C2700 1.524 . S
C2699 C2703 1.400 . S
C2700 H2685 0.960 . S
C2700 H2686 0.960 . S
C2700 H2687 0.960 . S
C2700 C2699 1.524 . S
C2701 C2698 1.403 . S
C2701 C2702 1.392 . S
C2701 C2705 1.495 . S
C2702 C2701 1.392 . S
C2702 C2703 1.385 . S
C2702 C2704 1.478 . S
C2703 H2697 0.930 . S
C2703 C2699 1.400 . S
C2703 C2702 1.385 . S
C2704 C2702 1.478 . S
C2704 C2706 1.381 . S
C2704 C2710 1.383 . S
C2705 C2701 1.495 . S
C2705 H2711 0.959 . S
C2705 H2712 0.961 . S
C2705 H2713 0.960 . S
C2706 C2704 1.381 . S
C2706 C2707 1.394 . S
C2706 H2714 0.930 . S
C2707 C2706 1.394 . S
C2707 C2708 1.383 . S
C2707 H2715 0.929 . S
C2708 C2707 1.383 . S
C2708 C2709 1.377 . S
C2709 H2693 0.930 . S
C2709 C2708 1.377 . S
C2709 C2710 1.379 . S
C2710 H2694 0.931 . S
C2710 C2704 1.383 . S
C2710 C2709 1.379 . S
H2711 C2705 0.959 . S
H2712 C2705 0.961 . S
H2713 C2705 0.960 . S
H2714 C2706 0.930 . S
H2715 C2707 0.929 . S
H2716 C2724 0.929 . S
H2717 C2726 0.930 . S
H2718 C2728 0.930 . S
H2719 C2731 0.929 . S
H2720 C2734 0.930 . S
H2721 C2736 0.960 . S
H2722 C2736 0.960 . S
H2723 C2736 0.960 . S
C2724 H2716 0.929 . S
C2724 C2725 1.377 . S
C2724 C2726 1.384 . S
C2725 C2724 1.377 . S
C2725 C2731 1.390 . S
C2726 H2717 0.930 . S
C2726 C2724 1.384 . S
C2726 C2727 1.372 . S
C2727 C2726 1.372 . S
C2727 C2728 1.400 . S
C2727 C2732 1.490 . S
C2728 H2718 0.930 . S
C2728 C2727 1.400 . S
C2728 C2731 1.386 . S
H2729 C2745 0.930 . S
H2730 C2746 0.931 . S
C2731 H2719 0.929 . S
C2731 C2725 1.390 . S
C2731 C2728 1.386 . S
C2732 C2727 1.490 . S
C2732 C2734 1.395 . S
C2732 C2735 1.403 . S
H2733 C2739 0.930 . S
C2734 H2720 0.930 . S
C2734 C2732 1.395 . S
C2734 C2737 1.403 . S
C2735 C2732 1.403 . S
C2735 C2736 1.524 . S
C2735 C2739 1.400 . S
C2736 H2721 0.960 . S
C2736 H2722 0.960 . S
C2736 H2723 0.960 . S
C2736 C2735 1.524 . S
C2737 C2734 1.403 . S
C2737 C2738 1.392 . S
C2737 C2741 1.495 . S
C2738 C2737 1.392 . S
C2738 C2739 1.385 . S
C2738 C2740 1.478 . S
C2739 H2733 0.930 . S
C2739 C2735 1.400 . S
C2739 C2738 1.385 . S
C2740 C2738 1.478 . S
C2740 C2742 1.381 . S
C2740 C2746 1.383 . S
C2741 C2737 1.495 . S
C2741 H2747 0.959 . S
C2741 H2748 0.961 . S
C2741 H2749 0.960 . S
C2742 C2740 1.381 . S
C2742 C2743 1.394 . S
C2742 H2750 0.930 . S
C2743 C2742 1.394 . S
C2743 C2744 1.383 . S
C2743 H2751 0.929 . S
C2744 C2743 1.383 . S
C2744 C2745 1.377 . S
C2745 H2729 0.930 . S
C2745 C2744 1.377 . S
C2745 C2746 1.379 . S
C2746 H2730 0.931 . S
C2746 C2740 1.383 . S
C2746 C2745 1.379 . S
H2747 C2741 0.959 . S
H2748 C2741 0.961 . S
H2749 C2741 0.960 . S
H2750 C2742 0.930 . S
H2751 C2743 0.929 . S
C457 C67 1.510 . S
C476 C11 1.511 . S
C493 C81 1.509 . S
C512 C25 1.498 . S
C529 C95 1.509 . S
C548 C39 1.500 . S
C565 C53 1.511 . S
C584 C109 1.516 . S
C601 C123 1.509 . S
C620 C179 1.517 . S
C637 C193 1.513 . S
C656 C137 1.501 . S
C673 C151 1.513 . S
C692 C207 1.501 . S
C709 C221 1.511 . S
C728 C165 1.510 . S
C745 C235 1.509 . S
C764 C291 1.504 . S
C781 C305 1.513 . S
C800 C249 1.509 . S
C817 C319 1.513 . S
C836 C263 1.520 . S
C853 C333 1.512 . S
C872 C277 1.517 . S
C889 C347 1.510 . S
C908 C403 1.518 . S
C925 C361 1.509 . S
C944 C417 1.517 . S
C961 C375 1.510 . S
C980 C431 1.515 . S
C997 C389 1.511 . S
C1016 C445 1.507 . S
C1033 C9 1.205 . S
C1052 C107 1.200 . S
C1069 C23 1.204 . S
C1088 C65 1.191 . S
C1105 C37 1.206 . S
C1124 C79 1.196 . S
C1141 C93 1.209 . S
C1160 C51 1.209 . S
C1177 C219 1.204 . S
C1196 C121 1.213 . S
C1213 C177 1.205 . S
C1232 C135 1.216 . S
C1249 C191 1.209 . S
C1268 C149 1.212 . S
C1285 C163 1.204 . S
C1304 C205 1.197 . S
C1321 C331 1.208 . S
C1340 C233 1.204 . S
C1357 C289 1.210 . S
C1376 C247 1.213 . S
C1393 C303 1.205 . S
C1412 C261 1.205 . S
C1429 C275 1.210 . S
C1448 C317 1.219 . S
C1465 C345 1.204 . S
C1484 C443 1.215 . S
C1501 C359 1.209 . S
C1520 C401 1.210 . S
C1537 C373 1.210 . S
C1556 C415 1.207 . S
C1573 C429 1.208 . S
C1592 C387 1.217 . S
C1609 C5 1.443 . S
C1628 C350 1.436 . S
C1645 C19 1.443 . S
C1664 C140 1.436 . S
C1681 C33 1.444 . S
C1700 C378 1.413 . S
C1717 C112 1.429 . S
C1736 C47 1.438 . S
C1753 C434 1.428 . S
C1772 C61 1.440 . S
C1789 C75 1.444 . S
C1808 C168 1.407 . S
C1825 C89 1.443 . S
C1844 C406 1.438 . S
C1861 C103 1.443 . S
C1880 C196 1.434 . S
C1897 C238 1.427 . S
C1916 C117 1.437 . S
C1933 C28 1.428 . S
C1952 C131 1.437 . S
C1969 C266 1.428 . S
C1988 C145 1.437 . S
C2005 C159 1.444 . S
C2024 C0 1.435 . S
C2041 C322 1.424 . S
C2060 C173 1.443 . S
C2077 C56 1.427 . S
C2096 C187 1.436 . S
C2113 C294 1.430 . S
C2132 C201 1.443 . S
C2149 C84 1.428 . S
C2168 C215 1.444 . S
C2185 C126 1.429 . S
C2204 C229 1.437 . S
C2221 C243 1.443 . S
C2240 C364 1.439 . S
C2257 C257 1.443 . S
C2276 C154 1.434 . S
C2293 C271 1.444 . S
C2312 C336 1.407 . S
C2329 C285 1.444 . S
C2348 C210 1.418 . S
C2365 C392 1.429 . S
C2384 C299 1.436 . S
C2401 C313 1.444 . S
C2420 C182 1.423 . S
C2437 C327 1.444 . S
C2456 C420 1.407 . S
C2473 C341 1.444 . S
C2492 C14 1.440 . S
C2509 C355 1.443 . S
C2528 C252 1.439 . S
C2545 C42 1.423 . S
C2564 C369 1.438 . S
C2581 C224 1.428 . S
C2600 C383 1.437 . S
C2617 C397 1.444 . S
C2636 C98 1.408 . S
C2653 C411 1.444 . S
C2672 C280 1.440 . S
C2689 C70 1.424 . S
C2708 C425 1.443 . S
C2725 C308 1.423 . S
C2744 C439 1.437 . S
