# Generated by pormake.
# Topology mer, (4)-cn, num edge types: 1
# Building blocks:
#     Node 0, Type 0, BuildingBlock: GALJAG_clean_sbu_0, # of connection points: 4
#     Node 1, Type 0, BuildingBlock: GALJAG_clean_sbu_0, # of connection points: 4
#     Node 2, Type 0, BuildingBlock: GALJAG_clean_sbu_0, # of connection points: 4
#     Node 3, Type 0, BuildingBlock: GALJAG_clean_sbu_0, # of connection points: 4
#     Node 4, Type 0, BuildingBlock: GALJAG_clean_sbu_0, # of connection points: 4
#     Node 5, Type 0, BuildingBlock: GALJAG_clean_sbu_0, # of connection points: 4
#     Node 6, Type 0, BuildingBlock: GALJAG_clean_sbu_0, # of connection points: 4
#     Node 7, Type 0, BuildingBlock: GALJAG_clean_sbu_0, # of connection points: 4
#     Node 8, Type 0, BuildingBlock: GALJAG_clean_sbu_0, # of connection points: 4
#     Node 9, Type 0, BuildingBlock: GALJAG_clean_sbu_0, # of connection points: 4
#     Node 10, Type 0, BuildingBlock: GALJAG_clean_sbu_0, # of connection points: 4
#     Node 11, Type 0, BuildingBlock: GALJAG_clean_sbu_0, # of connection points: 4
#     Node 12, Type 0, BuildingBlock: GALJAG_clean_sbu_0, # of connection points: 4
#     Node 13, Type 0, BuildingBlock: GALJAG_clean_sbu_0, # of connection points: 4
#     Node 14, Type 0, BuildingBlock: GALJAG_clean_sbu_0, # of connection points: 4
#     Node 15, Type 0, BuildingBlock: GALJAG_clean_sbu_0, # of connection points: 4
#     Node 16, Type 0, BuildingBlock: GALJAG_clean_sbu_0, # of connection points: 4
#     Node 17, Type 0, BuildingBlock: GALJAG_clean_sbu_0, # of connection points: 4
#     Node 18, Type 0, BuildingBlock: GALJAG_clean_sbu_0, # of connection points: 4
#     Node 19, Type 0, BuildingBlock: GALJAG_clean_sbu_0, # of connection points: 4
#     Node 20, Type 0, BuildingBlock: GALJAG_clean_sbu_0, # of connection points: 4
#     Node 21, Type 0, BuildingBlock: GALJAG_clean_sbu_0, # of connection points: 4
#     Node 22, Type 0, BuildingBlock: GALJAG_clean_sbu_0, # of connection points: 4
#     Node 23, Type 0, BuildingBlock: GALJAG_clean_sbu_0, # of connection points: 4
#     Node 24, Type 0, BuildingBlock: GALJAG_clean_sbu_0, # of connection points: 4
#     Node 25, Type 0, BuildingBlock: GALJAG_clean_sbu_0, # of connection points: 4
#     Node 26, Type 0, BuildingBlock: GALJAG_clean_sbu_0, # of connection points: 4
#     Node 27, Type 0, BuildingBlock: GALJAG_clean_sbu_0, # of connection points: 4
#     Node 28, Type 0, BuildingBlock: GALJAG_clean_sbu_0, # of connection points: 4
#     Node 29, Type 0, BuildingBlock: GALJAG_clean_sbu_0, # of connection points: 4
#     Node 30, Type 0, BuildingBlock: GALJAG_clean_sbu_0, # of connection points: 4
#     Node 31, Type 0, BuildingBlock: GALJAG_clean_sbu_0, # of connection points: 4
#     Edge 32, Type (0, 0), BuildingBlock: UVAHIK_clean_linker_0, # of connection points: 2
#     Edge 33, Type (0, 0), BuildingBlock: UVAHIK_clean_linker_0, # of connection points: 2
#     Edge 34, Type (0, 0), BuildingBlock: UVAHIK_clean_linker_0, # of connection points: 2
#     Edge 35, Type (0, 0), BuildingBlock: UVAHIK_clean_linker_0, # of connection points: 2
#     Edge 36, Type (0, 0), BuildingBlock: UVAHIK_clean_linker_0, # of connection points: 2
#     Edge 37, Type (0, 0), BuildingBlock: UVAHIK_clean_linker_0, # of connection points: 2
#     Edge 38, Type (0, 0), BuildingBlock: UVAHIK_clean_linker_0, # of connection points: 2
#     Edge 39, Type (0, 0), BuildingBlock: UVAHIK_clean_linker_0, # of connection points: 2
#     Edge 40, Type (0, 0), BuildingBlock: UVAHIK_clean_linker_0, # of connection points: 2
#     Edge 41, Type (0, 0), BuildingBlock: UVAHIK_clean_linker_0, # of connection points: 2
#     Edge 42, Type (0, 0), BuildingBlock: UVAHIK_clean_linker_0, # of connection points: 2
#     Edge 43, Type (0, 0), BuildingBlock: UVAHIK_clean_linker_0, # of connection points: 2
#     Edge 44, Type (0, 0), BuildingBlock: UVAHIK_clean_linker_0, # of connection points: 2
#     Edge 45, Type (0, 0), BuildingBlock: UVAHIK_clean_linker_0, # of connection points: 2
#     Edge 46, Type (0, 0), BuildingBlock: UVAHIK_clean_linker_0, # of connection points: 2
#     Edge 47, Type (0, 0), BuildingBlock: UVAHIK_clean_linker_0, # of connection points: 2
#     Edge 48, Type (0, 0), BuildingBlock: UVAHIK_clean_linker_0, # of connection points: 2
#     Edge 49, Type (0, 0), BuildingBlock: UVAHIK_clean_linker_0, # of connection points: 2
#     Edge 50, Type (0, 0), BuildingBlock: UVAHIK_clean_linker_0, # of connection points: 2
#     Edge 51, Type (0, 0), BuildingBlock: UVAHIK_clean_linker_0, # of connection points: 2
#     Edge 52, Type (0, 0), BuildingBlock: UVAHIK_clean_linker_0, # of connection points: 2
#     Edge 53, Type (0, 0), BuildingBlock: UVAHIK_clean_linker_0, # of connection points: 2
#     Edge 54, Type (0, 0), BuildingBlock: UVAHIK_clean_linker_0, # of connection points: 2
#     Edge 55, Type (0, 0), BuildingBlock: UVAHIK_clean_linker_0, # of connection points: 2
#     Edge 56, Type (0, 0), BuildingBlock: UVAHIK_clean_linker_0, # of connection points: 2
#     Edge 57, Type (0, 0), BuildingBlock: UVAHIK_clean_linker_0, # of connection points: 2
#     Edge 58, Type (0, 0), BuildingBlock: UVAHIK_clean_linker_0, # of connection points: 2
#     Edge 59, Type (0, 0), BuildingBlock: UVAHIK_clean_linker_0, # of connection points: 2
#     Edge 60, Type (0, 0), BuildingBlock: UVAHIK_clean_linker_0, # of connection points: 2
#     Edge 61, Type (0, 0), BuildingBlock: UVAHIK_clean_linker_0, # of connection points: 2
#     Edge 62, Type (0, 0), BuildingBlock: UVAHIK_clean_linker_0, # of connection points: 2
#     Edge 63, Type (0, 0), BuildingBlock: UVAHIK_clean_linker_0, # of connection points: 2
#     Edge 64, Type (0, 0), BuildingBlock: UVAHIK_clean_linker_0, # of connection points: 2
#     Edge 65, Type (0, 0), BuildingBlock: UVAHIK_clean_linker_0, # of connection points: 2
#     Edge 66, Type (0, 0), BuildingBlock: UVAHIK_clean_linker_0, # of connection points: 2
#     Edge 67, Type (0, 0), BuildingBlock: UVAHIK_clean_linker_0, # of connection points: 2
#     Edge 68, Type (0, 0), BuildingBlock: UVAHIK_clean_linker_0, # of connection points: 2
#     Edge 69, Type (0, 0), BuildingBlock: UVAHIK_clean_linker_0, # of connection points: 2
#     Edge 70, Type (0, 0), BuildingBlock: UVAHIK_clean_linker_0, # of connection points: 2
#     Edge 71, Type (0, 0), BuildingBlock: UVAHIK_clean_linker_0, # of connection points: 2
#     Edge 72, Type (0, 0), BuildingBlock: UVAHIK_clean_linker_0, # of connection points: 2
#     Edge 73, Type (0, 0), BuildingBlock: UVAHIK_clean_linker_0, # of connection points: 2
#     Edge 74, Type (0, 0), BuildingBlock: UVAHIK_clean_linker_0, # of connection points: 2
#     Edge 75, Type (0, 0), BuildingBlock: UVAHIK_clean_linker_0, # of connection points: 2
#     Edge 76, Type (0, 0), BuildingBlock: UVAHIK_clean_linker_0, # of connection points: 2
#     Edge 77, Type (0, 0), BuildingBlock: UVAHIK_clean_linker_0, # of connection points: 2
#     Edge 78, Type (0, 0), BuildingBlock: UVAHIK_clean_linker_0, # of connection points: 2
#     Edge 79, Type (0, 0), BuildingBlock: UVAHIK_clean_linker_0, # of connection points: 2
#     Edge 80, Type (0, 0), BuildingBlock: UVAHIK_clean_linker_0, # of connection points: 2
#     Edge 81, Type (0, 0), BuildingBlock: UVAHIK_clean_linker_0, # of connection points: 2
#     Edge 82, Type (0, 0), BuildingBlock: UVAHIK_clean_linker_0, # of connection points: 2
#     Edge 83, Type (0, 0), BuildingBlock: UVAHIK_clean_linker_0, # of connection points: 2
#     Edge 84, Type (0, 0), BuildingBlock: UVAHIK_clean_linker_0, # of connection points: 2
#     Edge 85, Type (0, 0), BuildingBlock: UVAHIK_clean_linker_0, # of connection points: 2
#     Edge 86, Type (0, 0), BuildingBlock: UVAHIK_clean_linker_0, # of connection points: 2
#     Edge 87, Type (0, 0), BuildingBlock: UVAHIK_clean_linker_0, # of connection points: 2
#     Edge 88, Type (0, 0), BuildingBlock: UVAHIK_clean_linker_0, # of connection points: 2
#     Edge 89, Type (0, 0), BuildingBlock: UVAHIK_clean_linker_0, # of connection points: 2
#     Edge 90, Type (0, 0), BuildingBlock: UVAHIK_clean_linker_0, # of connection points: 2
#     Edge 91, Type (0, 0), BuildingBlock: UVAHIK_clean_linker_0, # of connection points: 2
#     Edge 92, Type (0, 0), BuildingBlock: UVAHIK_clean_linker_0, # of connection points: 2
#     Edge 93, Type (0, 0), BuildingBlock: UVAHIK_clean_linker_0, # of connection points: 2
#     Edge 94, Type (0, 0), BuildingBlock: UVAHIK_clean_linker_0, # of connection points: 2
#     Edge 95, Type (0, 0), BuildingBlock: UVAHIK_clean_linker_0, # of connection points: 2
# Relax obj value: 0.054
# Max RMSD: 0.080
# Mean RMSD: 0.080
data_MOF--net-mer--node1-GALJAG_clean_sbu_0--edge1-UVAHIK_clean_linker_0
_symmetry_space_group_name_H-M    P1
_symmetry_Int_Tables_number       1
_symmetry_cell_setting            triclinic
loop_
_symmetry_equiv_pos_as_xyz
'x, y, z'
_cell_length_a     82.209036
_cell_length_b     82.18604
_cell_length_c     70.532447
_cell_angle_alpha  90.00115
_cell_angle_beta   90.026651
_cell_angle_gamma 90.01691
loop_
_atom_site_label
_atom_site_type_symbol
_atom_site_fract_x
_atom_site_fract_y
_atom_site_fract_z
_atom_type_partial_charge
In0 In 0.11823 0.28773 0.36184 0.0
O1 O 0.12755 0.31065 0.34711 0.0
O2 O 0.11208 0.2948 0.33154 0.0
C3 C 0.12728 0.29412 0.39784 0.0
C4 C 0.13978 0.26459 0.35184 0.0
C5 C 0.08596 0.28338 0.36601 0.0
O6 O 0.12457 0.30531 0.38598 0.0
O7 O 0.12546 0.27991 0.39149 0.0
O8 O 0.09512 0.27249 0.35929 0.0
O9 O 0.0931 0.29639 0.3706 0.0
C10 C 0.12042 0.30767 0.33163 0.0
O11 O 0.12511 0.26136 0.35559 0.0
O12 O 0.14348 0.27946 0.35301 0.0
In13 In 0.71148 0.12095 0.35918 0.0
O14 O 0.73778 0.12683 0.35171 0.0
O15 O 0.72074 0.14628 0.35179 0.0
C16 C 0.71524 0.08852 0.36223 0.0
C17 C 0.69129 0.12391 0.32927 0.0
C18 C 0.70552 0.12898 0.39561 0.0
O19 O 0.72651 0.09776 0.35661 0.0
O20 O 0.70214 0.09566 0.3664 0.0
O21 O 0.69423 0.12723 0.38365 0.0
O22 O 0.71962 0.12673 0.38915 0.0
C23 C 0.73528 0.14184 0.34933 0.0
O24 O 0.68878 0.1312 0.34475 0.0
O25 O 0.70389 0.11518 0.32898 0.0
In26 In 0.87757 0.70822 0.36093 0.0
O27 O 0.86657 0.68519 0.34823 0.0
O28 O 0.88063 0.70035 0.33019 0.0
C29 C 0.87053 0.70261 0.39766 0.0
C30 C 0.85665 0.73246 0.35277 0.0
C31 C 0.91017 0.71147 0.36235 0.0
O32 O 0.87195 0.69121 0.38578 0.0
O33 O 0.87272 0.71667 0.391 0.0
O34 O 0.90101 0.7224 0.35578 0.0
O35 O 0.9029 0.69889 0.36809 0.0
C36 C 0.87218 0.68763 0.33184 0.0
O37 O 0.87179 0.73473 0.35417 0.0
O38 O 0.85212 0.71795 0.35529 0.0
In39 In 0.28281 0.88019 0.35899 0.0
O40 O 0.30675 0.87126 0.34644 0.0
O41 O 0.29047 0.88401 0.32834 0.0
C42 C 0.28794 0.87201 0.39553 0.0
C43 C 0.2598 0.85837 0.34933 0.0
C44 C 0.27909 0.91271 0.36121 0.0
O45 O 0.29943 0.87324 0.38376 0.0
O46 O 0.27401 0.87489 0.38885 0.0
O47 O 0.26846 0.90358 0.35388 0.0
O48 O 0.29152 0.90543 0.36733 0.0
C49 C 0.30386 0.87667 0.33002 0.0
O50 O 0.2565 0.87309 0.35271 0.0
O51 O 0.27466 0.85474 0.35073 0.0
In52 In 0.11836 0.71161 0.63319 0.0
O53 O 0.12373 0.7381 0.64058 0.0
O54 O 0.14355 0.72149 0.63985 0.0
C55 C 0.08566 0.7135 0.63197 0.0
C56 C 0.12381 0.69086 0.66206 0.0
C57 C 0.12568 0.70696 0.59632 0.0
O58 O 0.0944 0.72502 0.63796 0.0
O59 O 0.09342 0.70109 0.6266 0.0
O60 O 0.12519 0.69538 0.60805 0.0
O61 O 0.12248 0.72075 0.6032 0.0
C62 C 0.13884 0.73591 0.64253 0.0
O63 O 0.12939 0.68849 0.64562 0.0
O64 O 0.1154 0.70359 0.66384 0.0
In65 In 0.28575 0.11916 0.63302 0.0
O66 O 0.30883 0.12994 0.64596 0.0
O67 O 0.29325 0.11613 0.66383 0.0
C68 C 0.29041 0.12683 0.59624 0.0
C69 C 0.2613 0.13945 0.64227 0.0
C70 C 0.28414 0.08644 0.63127 0.0
O71 O 0.30198 0.12642 0.60801 0.0
O72 O 0.27667 0.12341 0.60306 0.0
O73 O 0.27247 0.09503 0.63718 0.0
O74 O 0.29655 0.09436 0.62628 0.0
C75 C 0.30612 0.12438 0.66234 0.0
O76 O 0.25921 0.12433 0.64022 0.0
O77 O 0.27571 0.14427 0.63975 0.0
In78 In 0.87871 0.2878 0.63156 0.0
O79 O 0.87124 0.2616 0.63785 0.0
O80 O 0.85315 0.28003 0.63976 0.0
C81 C 0.91089 0.28311 0.62709 0.0
C82 C 0.87717 0.30726 0.66225 0.0
C83 C 0.86983 0.2945 0.59559 0.0
O84 O 0.9016 0.27218 0.63351 0.0
O85 O 0.90392 0.29631 0.62296 0.0
O86 O 0.87236 0.3056 0.60763 0.0
O87 O 0.87174 0.28024 0.60177 0.0
C88 C 0.85655 0.26511 0.64114 0.0
O89 O 0.87022 0.3108 0.64682 0.0
O90 O 0.88498 0.29407 0.66205 0.0
In91 In 0.71101 0.88215 0.63348 0.0
O92 O 0.6876 0.87214 0.64641 0.0
O93 O 0.70578 0.88136 0.66502 0.0
C94 C 0.70489 0.88005 0.59602 0.0
C95 C 0.73483 0.85988 0.63747 0.0
C96 C 0.71255 0.91468 0.63707 0.0
O97 O 0.69482 0.87512 0.60826 0.0
O98 O 0.71789 0.8858 0.60273 0.0
O99 O 0.72475 0.90565 0.63989 0.0
O100 O 0.69966 0.90726 0.63263 0.0
C101 C 0.69194 0.87491 0.66329 0.0
O102 O 0.73752 0.87497 0.63872 0.0
O103 O 0.72022 0.85613 0.63422 0.0
In104 In 0.8783 0.71103 0.63358 0.0
O105 O 0.87197 0.73771 0.63889 0.0
O106 O 0.85282 0.72031 0.63954 0.0
C107 C 0.91089 0.7135 0.63153 0.0
C108 C 0.87414 0.6917 0.664 0.0
C109 C 0.87085 0.70449 0.59718 0.0
O110 O 0.90208 0.72499 0.63752 0.0
O111 O 0.90324 0.70091 0.62654 0.0
O112 O 0.8717 0.69344 0.60958 0.0
O113 O 0.87381 0.71863 0.60318 0.0
C114 C 0.85694 0.73505 0.64091 0.0
O115 O 0.8679 0.68849 0.64808 0.0
O116 O 0.88246 0.70458 0.6645 0.0
In117 In 0.28534 0.87888 0.63253 0.0
O118 O 0.25888 0.87353 0.64007 0.0
O119 O 0.27548 0.85369 0.63914 0.0
C120 C 0.28374 0.91158 0.63065 0.0
C121 C 0.30563 0.87375 0.66192 0.0
C122 C 0.28985 0.87107 0.59577 0.0
O123 O 0.27201 0.903 0.63643 0.0
O124 O 0.2962 0.90365 0.62584 0.0
O125 O 0.30146 0.87146 0.60749 0.0
O126 O 0.27615 0.87462 0.60262 0.0
C127 C 0.26107 0.85841 0.64195 0.0
O128 O 0.30848 0.86831 0.64551 0.0
O129 O 0.2927 0.88189 0.66338 0.0
In130 In 0.11702 0.28478 0.63237 0.0
O131 O 0.12278 0.25818 0.63863 0.0
O132 O 0.14209 0.27534 0.64044 0.0
C133 C 0.0847 0.2811 0.62771 0.0
C134 C 0.1197 0.30416 0.66308 0.0
C135 C 0.12632 0.29184 0.59663 0.0
O136 O 0.09365 0.26988 0.63406 0.0
O137 O 0.09206 0.29413 0.62374 0.0
O138 O 0.12362 0.30278 0.60878 0.0
O139 O 0.12436 0.2775 0.60256 0.0
C140 C 0.13767 0.26069 0.64189 0.0
O141 O 0.12701 0.30712 0.64773 0.0
O142 O 0.11095 0.29157 0.66281 0.0
In143 In 0.70874 0.12183 0.63288 0.0
O144 O 0.68499 0.13139 0.64538 0.0
O145 O 0.70146 0.11915 0.66376 0.0
C146 C 0.70367 0.12842 0.59588 0.0
C147 C 0.73193 0.14376 0.64156 0.0
C148 C 0.71177 0.08919 0.63294 0.0
O149 O 0.69218 0.12801 0.60774 0.0
O150 O 0.71752 0.12546 0.60269 0.0
O151 O 0.72316 0.09849 0.63808 0.0
O152 O 0.69901 0.09636 0.62762 0.0
C153 C 0.68803 0.12639 0.66194 0.0
O154 O 0.73502 0.12883 0.63933 0.0
O155 O 0.71716 0.14755 0.63954 0.0
In156 In 0.87979 0.28707 0.36055 0.0
O157 O 0.87368 0.26066 0.35365 0.0
O158 O 0.85449 0.27801 0.35287 0.0
C159 C 0.91209 0.2831 0.36493 0.0
C160 C 0.8771 0.30662 0.33001 0.0
C161 C 0.87086 0.29376 0.39651 0.0
O162 O 0.90299 0.27194 0.35873 0.0
O163 O 0.90489 0.29621 0.36889 0.0
O164 O 0.87344 0.30484 0.38448 0.0
O165 O 0.87275 0.27949 0.39036 0.0
C166 C 0.85875 0.26336 0.35085 0.0
O167 O 0.86996 0.30962 0.34546 0.0
O168 O 0.88571 0.29394 0.33011 0.0
In169 In 0.71376 0.88171 0.3575 0.0
O170 O 0.68953 0.87484 0.34374 0.0
O171 O 0.70971 0.8799 0.3258 0.0
C172 C 0.70747 0.87841 0.39477 0.0
C173 C 0.73725 0.85921 0.35312 0.0
C174 C 0.7161 0.91431 0.35577 0.0
O175 O 0.6977 0.87331 0.38228 0.0
O176 O 0.72029 0.88479 0.38838 0.0
O177 O 0.72816 0.90514 0.35283 0.0
O178 O 0.70293 0.907 0.35919 0.0
C179 C 0.69494 0.87591 0.32702 0.0
O180 O 0.74 0.87427 0.35159 0.0
O181 O 0.72269 0.85556 0.35691 0.0
In182 In 0.11692 0.71128 0.3594 0.0
O183 O 0.12337 0.73765 0.35249 0.0
O184 O 0.14201 0.71982 0.35033 0.0
C185 C 0.08447 0.71454 0.36264 0.0
C186 C 0.11969 0.69031 0.33025 0.0
C187 C 0.12551 0.70645 0.39586 0.0
O188 O 0.0933 0.72541 0.35528 0.0
O189 O 0.09203 0.70212 0.36834 0.0
O190 O 0.12406 0.69482 0.38428 0.0
O191 O 0.12269 0.72032 0.38899 0.0
C192 C 0.13809 0.7346 0.34883 0.0
O193 O 0.12687 0.68809 0.34587 0.0
O194 O 0.11107 0.70297 0.32947 0.0
In195 In 0.28509 0.11936 0.35886 0.0
O196 O 0.30913 0.1283 0.34649 0.0
O197 O 0.29287 0.11566 0.32824 0.0
C198 C 0.28999 0.12699 0.39561 0.0
C199 C 0.26216 0.14136 0.3495 0.0
C200 C 0.281 0.08686 0.3607 0.0
O201 O 0.30158 0.12582 0.38395 0.0
O202 O 0.2761 0.12433 0.3887 0.0
O203 O 0.27052 0.09616 0.35341 0.0
O204 O 0.2935 0.09395 0.36696 0.0
C205 C 0.30629 0.12294 0.33004 0.0
O206 O 0.25886 0.12656 0.3524 0.0
O207 O 0.27701 0.14498 0.35117 0.0
In208 In 0.61758 0.7827 0.85807 0.0
O209 O 0.62894 0.80552 0.84502 0.0
O210 O 0.61594 0.78934 0.82698 0.0
C211 C 0.62104 0.78763 0.89562 0.0
C212 C 0.63952 0.75892 0.852 0.0
C213 C 0.58496 0.7812 0.85625 0.0
O214 O 0.6235 0.79886 0.88372 0.0
O215 O 0.61695 0.77417 0.88851 0.0
O216 O 0.59387 0.76909 0.85253 0.0
O217 O 0.59254 0.79396 0.86086 0.0
C218 C 0.62404 0.80231 0.82846 0.0
O219 O 0.62438 0.75644 0.85093 0.0
O220 O 0.64349 0.77335 0.85596 0.0
In221 In 0.21025 0.61515 0.85878 0.0
O222 O 0.18756 0.62584 0.84475 0.0
O223 O 0.20476 0.61348 0.82741 0.0
C224 C 0.20418 0.6185 0.89607 0.0
C225 C 0.23427 0.63699 0.85338 0.0
C226 C 0.21142 0.5825 0.85734 0.0
O227 O 0.19368 0.62211 0.88366 0.0
O228 O 0.21756 0.6135 0.88957 0.0
O229 O 0.22375 0.59125 0.85404 0.0
O230 O 0.19861 0.59026 0.86126 0.0
C231 C 0.19149 0.62113 0.82832 0.0
O232 O 0.23671 0.62183 0.85258 0.0
O233 O 0.21979 0.64104 0.85687 0.0
In234 In 0.3776 0.21052 0.86028 0.0
O235 O 0.36713 0.18778 0.84611 0.0
O236 O 0.38219 0.20337 0.82968 0.0
C237 C 0.37003 0.20512 0.89693 0.0
C238 C 0.35641 0.23421 0.85107 0.0
C239 C 0.41017 0.21313 0.86272 0.0
O240 O 0.37092 0.19369 0.885 0.0
O241 O 0.37293 0.21907 0.89032 0.0
O242 O 0.40133 0.22469 0.857 0.0
O243 O 0.40257 0.20036 0.86722 0.0
C244 C 0.37363 0.19065 0.83024 0.0
O245 O 0.37146 0.23687 0.85292 0.0
O246 O 0.35215 0.21965 0.85377 0.0
In247 In 0.78715 0.37472 0.85731 0.0
O248 O 0.81126 0.36461 0.84629 0.0
O249 O 0.79603 0.37752 0.82709 0.0
C250 C 0.78952 0.36903 0.89486 0.0
C251 C 0.76416 0.35298 0.84739 0.0
C252 C 0.78487 0.40738 0.85728 0.0
O253 O 0.80173 0.36827 0.88404 0.0
O254 O 0.77634 0.3725 0.88669 0.0
O255 O 0.77363 0.39837 0.85104 0.0
O256 O 0.79717 0.39988 0.86347 0.0
C257 C 0.80914 0.36986 0.82963 0.0
O258 O 0.76125 0.36803 0.84862 0.0
O259 O 0.77865 0.34898 0.85099 0.0
In260 In 0.61743 0.20718 0.133 0.0
O261 O 0.6271 0.18348 0.14558 0.0
O262 O 0.61386 0.19938 0.16362 0.0
C263 C 0.62514 0.20261 0.09624 0.0
C264 C 0.63874 0.23055 0.14305 0.0
C265 C 0.58488 0.21046 0.13066 0.0
O266 O 0.6242 0.19095 0.10784 0.0
O267 O 0.62219 0.21642 0.1032 0.0
O268 O 0.594 0.22173 0.13653 0.0
O269 O 0.59218 0.19757 0.12603 0.0
C270 C 0.62158 0.1862 0.16197 0.0
O271 O 0.62364 0.23314 0.14184 0.0
O272 O 0.64304 0.21618 0.13927 0.0
In273 In 0.78389 0.61446 0.13469 0.0
O274 O 0.75755 0.62175 0.14055 0.0
O275 O 0.7747 0.64053 0.13514 0.0
C276 C 0.78176 0.58186 0.13622 0.0
C277 C 0.80252 0.62029 0.1653 0.0
C278 C 0.79072 0.61712 0.09752 0.0
O279 O 0.76969 0.59096 0.13949 0.0
O280 O 0.79482 0.58924 0.1324 0.0
O281 O 0.80093 0.62105 0.11012 0.0
O282 O 0.77724 0.61216 0.10376 0.0
C283 C 0.76016 0.63682 0.13883 0.0
O284 O 0.80672 0.62469 0.14886 0.0
O285 O 0.78903 0.61305 0.16618 0.0
In286 In 0.37555 0.78585 0.13508 0.0
O287 O 0.36492 0.80894 0.14829 0.0
O288 O 0.37807 0.79267 0.16604 0.0
C289 C 0.37129 0.79139 0.09773 0.0
C290 C 0.35299 0.76275 0.14173 0.0
C291 C 0.40809 0.78278 0.13679 0.0
O292 O 0.37067 0.80273 0.10979 0.0
O293 O 0.3741 0.7775 0.10455 0.0
O294 O 0.39861 0.77113 0.14059 0.0
O295 O 0.40113 0.7958 0.13192 0.0
C296 C 0.37022 0.80579 0.1647 0.0
O297 O 0.36804 0.75968 0.14161 0.0
O298 O 0.34941 0.77745 0.13871 0.0
In299 In 0.2097 0.37623 0.13526 0.0
O300 O 0.18626 0.36571 0.14756 0.0
O301 O 0.20178 0.3791 0.16593 0.0
C302 C 0.20513 0.36935 0.09824 0.0
C303 C 0.23379 0.35542 0.1444 0.0
C304 C 0.21188 0.40894 0.13439 0.0
O305 O 0.19358 0.36934 0.11001 0.0
O306 O 0.21884 0.3728 0.10516 0.0
O307 O 0.22336 0.40005 0.1402 0.0
O308 O 0.19938 0.40133 0.12902 0.0
C309 C 0.18878 0.37113 0.16405 0.0
O310 O 0.23607 0.37054 0.14282 0.0
O311 O 0.21935 0.35084 0.14149 0.0
In312 In 0.37797 0.20987 0.13395 0.0
O313 O 0.36734 0.18712 0.14789 0.0
O314 O 0.3831 0.20206 0.16424 0.0
C315 C 0.36999 0.20466 0.09735 0.0
C316 C 0.35715 0.23375 0.14375 0.0
C317 C 0.4105 0.21267 0.13096 0.0
O318 O 0.3712 0.19316 0.10913 0.0
O319 O 0.37273 0.2186 0.10408 0.0
O320 O 0.40167 0.22405 0.13715 0.0
O321 O 0.4029 0.19994 0.1263 0.0
C322 C 0.37427 0.18954 0.16362 0.0
O323 O 0.37219 0.23623 0.14159 0.0
O324 O 0.35269 0.21923 0.14109 0.0
In325 In 0.78442 0.37454 0.1357 0.0
O326 O 0.80836 0.36417 0.14693 0.0
O327 O 0.7931 0.37706 0.16608 0.0
C328 C 0.78737 0.36908 0.09816 0.0
C329 C 0.76116 0.353 0.1454 0.0
C330 C 0.78198 0.4072 0.13562 0.0
O331 O 0.7994 0.36829 0.10926 0.0
O332 O 0.77405 0.37248 0.10604 0.0
O333 O 0.77046 0.39812 0.14091 0.0
O334 O 0.79466 0.39979 0.13044 0.0
C335 C 0.80617 0.36932 0.16361 0.0
O336 O 0.75873 0.36817 0.14539 0.0
O337 O 0.77533 0.34875 0.14065 0.0
In338 In 0.61461 0.7844 0.13543 0.0
O339 O 0.62245 0.80883 0.14812 0.0
O340 O 0.61873 0.78879 0.16672 0.0
C341 C 0.61718 0.7895 0.09781 0.0
C342 C 0.63694 0.76068 0.13903 0.0
C343 C 0.58216 0.78242 0.1401 0.0
O344 O 0.62168 0.80005 0.10975 0.0
O345 O 0.61135 0.77669 0.10491 0.0
O346 O 0.59141 0.77032 0.14237 0.0
O347 O 0.58929 0.79542 0.13551 0.0
C348 C 0.62259 0.80356 0.16495 0.0
O349 O 0.62193 0.75817 0.14147 0.0
O350 O 0.64064 0.77516 0.13487 0.0
In351 In 0.20659 0.61616 0.13531 0.0
O352 O 0.18257 0.62523 0.14763 0.0
O353 O 0.20025 0.61559 0.16658 0.0
C354 C 0.20158 0.61916 0.09775 0.0
C355 C 0.22971 0.63893 0.14095 0.0
C356 C 0.20906 0.58357 0.13712 0.0
O357 O 0.19077 0.62292 0.1097 0.0
O358 O 0.21475 0.61417 0.10482 0.0
O359 O 0.22077 0.59284 0.14137 0.0
O360 O 0.19618 0.59077 0.13222 0.0
C361 C 0.18634 0.62182 0.16453 0.0
O362 O 0.23265 0.62389 0.14215 0.0
O363 O 0.21516 0.64241 0.13704 0.0
In364 In 0.37775 0.7854 0.85933 0.0
O365 O 0.37144 0.75898 0.85267 0.0
O366 O 0.35201 0.77591 0.8552 0.0
C367 C 0.41039 0.78296 0.85889 0.0
C368 C 0.37223 0.80485 0.82927 0.0
C369 C 0.37247 0.7911 0.89647 0.0
O370 O 0.40122 0.77116 0.85476 0.0
O371 O 0.40307 0.7959 0.86338 0.0
O372 O 0.3722 0.8024 0.88433 0.0
O373 O 0.37542 0.77718 0.88982 0.0
C374 C 0.35628 0.76139 0.85223 0.0
O375 O 0.3665 0.80795 0.84549 0.0
O376 O 0.38067 0.79208 0.82836 0.0
In377 In 0.20737 0.37502 0.85978 0.0
O378 O 0.18404 0.364 0.84767 0.0
O379 O 0.19942 0.37734 0.82909 0.0
C380 C 0.20325 0.36874 0.89702 0.0
C381 C 0.23151 0.3543 0.85065 0.0
C382 C 0.20938 0.40774 0.8598 0.0
O383 O 0.19153 0.36856 0.88546 0.0
O384 O 0.21685 0.37209 0.88978 0.0
O385 O 0.22112 0.39876 0.85502 0.0
O386 O 0.19667 0.4002 0.86465 0.0
C387 C 0.18652 0.36922 0.83108 0.0
O388 O 0.2336 0.3695 0.85158 0.0
O389 O 0.21723 0.34959 0.85422 0.0
In390 In 0.61733 0.20948 0.85953 0.0
O391 O 0.6266 0.18627 0.84538 0.0
O392 O 0.61176 0.20229 0.82918 0.0
C393 C 0.62556 0.20412 0.89598 0.0
C394 C 0.63927 0.23224 0.84951 0.0
C395 C 0.58488 0.21274 0.86265 0.0
O396 O 0.62441 0.19268 0.8841 0.0
O397 O 0.62259 0.21808 0.88942 0.0
O398 O 0.5938 0.22402 0.85634 0.0
O399 O 0.59236 0.19998 0.86743 0.0
C400 C 0.61984 0.18926 0.82967 0.0
O401 O 0.62451 0.23567 0.85246 0.0
O402 O 0.64283 0.21741 0.85151 0.0
In403 In 0.78773 0.61466 0.85892 0.0
O404 O 0.81131 0.62499 0.84676 0.0
O405 O 0.79422 0.61454 0.82767 0.0
C406 C 0.79323 0.61727 0.89643 0.0
C407 C 0.76364 0.63649 0.85372 0.0
C408 C 0.78599 0.58205 0.85643 0.0
O409 O 0.80369 0.6216 0.88432 0.0
O410 O 0.78012 0.61192 0.88956 0.0
O411 O 0.77407 0.59113 0.85249 0.0
O412 O 0.79875 0.58945 0.86139 0.0
C413 C 0.80778 0.62147 0.82983 0.0
O414 O 0.7614 0.62136 0.85213 0.0
O415 O 0.77799 0.64056 0.85788 0.0
C416 C 0.23301 0.14959 0.34618 0.0
C417 C 0.24958 0.15369 0.34551 0.0
C418 C 0.22111 0.16159 0.34395 0.0
C419 C 0.2157 0.20568 0.34987 0.0
H420 H 0.17484 0.19836 0.32371 0.0
C421 C 0.16805 0.25634 0.3433 0.0
C422 C 0.15193 0.25194 0.34743 0.0
C423 C 0.1799 0.24441 0.34058 0.0
C424 C 0.18616 0.20053 0.33115 0.0
H425 H 0.26674 0.17338 0.34115 0.0
H426 H 0.24601 0.19426 0.33697 0.0
H427 H 0.19583 0.17729 0.32324 0.0
H428 H 0.13542 0.23164 0.35132 0.0
H429 H 0.15619 0.21076 0.34678 0.0
H430 H 0.20603 0.22876 0.35803 0.0
C431 C 0.24218 0.18185 0.3396 0.0
C432 C 0.19817 0.18848 0.33088 0.0
C433 C 0.25405 0.16988 0.34189 0.0
C434 C 0.14776 0.23538 0.34816 0.0
C435 C 0.15964 0.22343 0.34546 0.0
C436 C 0.20373 0.2177 0.35011 0.0
C437 C 0.22558 0.1779 0.34096 0.0
C438 C 0.21304 0.1909 0.34034 0.0
C439 C 0.17589 0.22783 0.34197 0.0
C440 C 0.1888 0.21524 0.34085 0.0
H441 H 0.22922 0.13719 0.34896 0.0
H442 H 0.20844 0.15816 0.34525 0.0
H443 H 0.22687 0.20781 0.35762 0.0
H444 H 0.17159 0.26902 0.34251 0.0
H445 H 0.19226 0.24819 0.33759 0.0
C446 C 0.76462 0.14802 0.34346 0.0
C447 C 0.74847 0.15343 0.34501 0.0
C448 C 0.77725 0.15915 0.34078 0.0
C449 C 0.7862 0.2017 0.3268 0.0
H450 H 0.8237 0.19635 0.35958 0.0
C451 C 0.83042 0.25394 0.34428 0.0
C452 C 0.84701 0.25032 0.34641 0.0
C453 C 0.81913 0.24152 0.3413 0.0
C454 C 0.81347 0.19789 0.35007 0.0
H455 H 0.73279 0.17463 0.34438 0.0
H456 H 0.75485 0.19408 0.33989 0.0
H457 H 0.80258 0.17561 0.35922 0.0
H458 H 0.86489 0.23093 0.34648 0.0
H459 H 0.84516 0.2092 0.34112 0.0
H460 H 0.79697 0.22417 0.31796 0.0
C461 C 0.75776 0.18124 0.34054 0.0
C462 C 0.80135 0.18599 0.34987 0.0
C463 C 0.74513 0.17012 0.34324 0.0
C464 C 0.85216 0.23407 0.34499 0.0
C465 C 0.84086 0.22163 0.34201 0.0
C466 C 0.79834 0.2136 0.32699 0.0
C467 C 0.77398 0.17591 0.33958 0.0
C468 C 0.78746 0.18788 0.33845 0.0
C469 C 0.82418 0.2252 0.34039 0.0
C470 C 0.81199 0.21194 0.33885 0.0
H471 H 0.76754 0.13521 0.34467 0.0
H472 H 0.78961 0.15465 0.33984 0.0
H473 H 0.77575 0.20337 0.31765 0.0
H474 H 0.8261 0.26636 0.34532 0.0
H475 H 0.80636 0.24467 0.34036 0.0
C476 C 0.82824 0.74275 0.3492 0.0
C477 C 0.84504 0.74584 0.34943 0.0
C478 C 0.81717 0.75551 0.34727 0.0
C479 C 0.81358 0.79963 0.35501 0.0
H480 H 0.77352 0.79451 0.32655 0.0
C481 C 0.7663 0.85134 0.34781 0.0
C482 C 0.75002 0.84677 0.35074 0.0
C483 C 0.77839 0.8395 0.34589 0.0
C484 C 0.78462 0.79608 0.33463 0.0
H485 H 0.86346 0.76463 0.34726 0.0
H486 H 0.8441 0.78694 0.34364 0.0
H487 H 0.7939 0.77294 0.3259 0.0
H488 H 0.73359 0.82629 0.35375 0.0
H489 H 0.75468 0.80565 0.35048 0.0
H490 H 0.80421 0.82269 0.36389 0.0
C491 C 0.83948 0.77468 0.34525 0.0
C492 C 0.79629 0.78373 0.33427 0.0
C493 C 0.85057 0.7619 0.34721 0.0
C494 C 0.74604 0.83017 0.3515 0.0
C495 C 0.7581 0.81835 0.3495 0.0
C496 C 0.80193 0.812 0.35532 0.0
C497 C 0.82265 0.77164 0.34547 0.0
C498 C 0.8108 0.78526 0.34467 0.0
C499 C 0.77441 0.82288 0.34675 0.0
C500 C 0.78724 0.81025 0.34535 0.0
H501 H 0.82362 0.73049 0.35092 0.0
H502 H 0.80429 0.75277 0.34775 0.0
H503 H 0.82452 0.8011 0.36339 0.0
H504 H 0.76971 0.86406 0.34711 0.0
H505 H 0.79084 0.84335 0.34363 0.0
C506 C 0.1458 0.7639 0.34525 0.0
C507 C 0.15008 0.74738 0.34431 0.0
C508 C 0.15759 0.77596 0.34269 0.0
C509 C 0.20165 0.78182 0.34754 0.0
H510 H 0.19356 0.82278 0.32193 0.0
C511 C 0.25174 0.83003 0.3408 0.0
C512 C 0.24723 0.8461 0.34501 0.0
C513 C 0.23991 0.81807 0.33811 0.0
C514 C 0.19595 0.81143 0.32922 0.0
H515 H 0.16983 0.7305 0.33904 0.0
H516 H 0.19034 0.75152 0.33432 0.0
H517 H 0.17268 0.80158 0.3217 0.0
H518 H 0.22682 0.86242 0.3491 0.0
H519 H 0.2061 0.84146 0.34469 0.0
H520 H 0.22473 0.79167 0.35539 0.0
C521 C 0.17796 0.75518 0.33741 0.0
C522 C 0.18401 0.7993 0.32908 0.0
C523 C 0.1662 0.74314 0.34002 0.0
C524 C 0.23064 0.85011 0.34588 0.0
C525 C 0.21878 0.83813 0.34324 0.0
C526 C 0.21355 0.79391 0.34769 0.0
C527 C 0.17387 0.77171 0.33911 0.0
C528 C 0.18671 0.78439 0.33833 0.0
C529 C 0.2233 0.82192 0.33965 0.0
C530 C 0.21083 0.80888 0.33862 0.0
H531 H 0.13345 0.76751 0.34855 0.0
H532 H 0.15406 0.78859 0.34424 0.0
H533 H 0.204 0.77061 0.35514 0.0
H534 H 0.26444 0.8266 0.33988 0.0
H535 H 0.24378 0.80576 0.33503 0.0
C536 C 0.16697 0.74607 0.64865 0.0
C537 C 0.15027 0.74927 0.64681 0.0
C538 C 0.17796 0.75878 0.65153 0.0
C539 C 0.18261 0.80247 0.6428 0.0
H540 H 0.22066 0.79762 0.67482 0.0
C541 C 0.23165 0.85252 0.64794 0.0
C542 C 0.24775 0.84698 0.64629 0.0
C543 C 0.21895 0.84148 0.6509 0.0
C544 C 0.21012 0.79913 0.66578 0.0
H545 H 0.13188 0.76818 0.6471 0.0
H546 H 0.15113 0.79042 0.65222 0.0
H547 H 0.19969 0.77659 0.67494 0.0
H548 H 0.26327 0.82565 0.64696 0.0
H549 H 0.24115 0.80642 0.65193 0.0
H550 H 0.1932 0.82478 0.63328 0.0
C551 C 0.15572 0.7781 0.65124 0.0
C552 C 0.19812 0.78709 0.66585 0.0
C553 C 0.14471 0.76537 0.64839 0.0
C554 C 0.25098 0.83028 0.64817 0.0
C555 C 0.23831 0.81927 0.65116 0.0
C556 C 0.19461 0.8145 0.64273 0.0
C557 C 0.17249 0.77495 0.65261 0.0
C558 C 0.18438 0.78848 0.65409 0.0
C559 C 0.22213 0.82472 0.65232 0.0
C560 C 0.20864 0.81281 0.65394 0.0
H561 H 0.17161 0.73378 0.64749 0.0
H562 H 0.19082 0.75596 0.65227 0.0
H563 H 0.17228 0.80381 0.6334 0.0
H564 H 0.22882 0.86534 0.64662 0.0
H565 H 0.20663 0.84606 0.65193 0.0
C566 C 0.25093 0.16746 0.64871 0.0
C567 C 0.24784 0.15077 0.64645 0.0
C568 C 0.23814 0.17836 0.65149 0.0
C569 C 0.19467 0.183 0.64161 0.0
H570 H 0.19846 0.22028 0.67504 0.0
C571 C 0.14393 0.2312 0.64683 0.0
C572 C 0.14922 0.24744 0.64617 0.0
C573 C 0.15509 0.2186 0.64966 0.0
C574 C 0.19725 0.20996 0.66559 0.0
H575 H 0.229 0.13231 0.64587 0.0
H576 H 0.2066 0.15139 0.65077 0.0
H577 H 0.21968 0.19951 0.67507 0.0
H578 H 0.17021 0.2633 0.64845 0.0
H579 H 0.18969 0.24136 0.65314 0.0
H580 H 0.17249 0.19362 0.63175 0.0
C581 C 0.21891 0.15605 0.65022 0.0
C582 C 0.2094 0.19808 0.66561 0.0
C583 C 0.23173 0.14512 0.6475 0.0
C584 C 0.16578 0.25089 0.6489 0.0
C585 C 0.17693 0.23832 0.65172 0.0
C586 C 0.18255 0.1949 0.64157 0.0
C587 C 0.22197 0.17281 0.65202 0.0
C588 C 0.20837 0.18461 0.65339 0.0
C589 C 0.17175 0.22201 0.65189 0.0
C590 C 0.18384 0.20865 0.65332 0.0
H591 H 0.26323 0.17216 0.64797 0.0
H592 H 0.24088 0.19122 0.65259 0.0
H593 H 0.19363 0.17289 0.63184 0.0
H594 H 0.13122 0.22819 0.64486 0.0
H595 H 0.1507 0.20618 0.64995 0.0
C596 C 0.74041 0.17236 0.64823 0.0
C597 C 0.74466 0.156 0.64534 0.0
C598 C 0.75245 0.18418 0.65052 0.0
C599 C 0.79629 0.19017 0.6608 0.0
H600 H 0.78997 0.23015 0.63255 0.0
C601 C 0.84798 0.23606 0.64489 0.0
C602 C 0.84406 0.25269 0.64522 0.0
C603 C 0.83583 0.22432 0.64724 0.0
C604 C 0.79183 0.21918 0.64077 0.0
H605 H 0.76479 0.13908 0.6431 0.0
H606 H 0.78586 0.15977 0.6468 0.0
H607 H 0.76877 0.20955 0.63248 0.0
H608 H 0.82453 0.27011 0.64904 0.0
H609 H 0.80339 0.24966 0.65333 0.0
H610 H 0.81954 0.19978 0.66878 0.0
C611 C 0.77322 0.16345 0.64754 0.0
C612 C 0.77966 0.20735 0.64074 0.0
C613 C 0.76116 0.15161 0.64532 0.0
C614 C 0.8279 0.25738 0.64858 0.0
C615 C 0.81577 0.24566 0.65094 0.0
C616 C 0.8085 0.20202 0.66081 0.0
C617 C 0.769 0.17991 0.64988 0.0
C618 C 0.78176 0.19268 0.65068 0.0
C619 C 0.81955 0.22901 0.64996 0.0
C620 C 0.80642 0.21663 0.65072 0.0
H621 H 0.72777 0.17609 0.64846 0.0
H622 H 0.74878 0.19671 0.65262 0.0
H623 H 0.79819 0.17907 0.66878 0.0
H624 H 0.86035 0.2321 0.64232 0.0
H625 H 0.83911 0.21159 0.64625 0.0
C626 C 0.84976 0.76458 0.64377 0.0
C627 C 0.84489 0.74819 0.64337 0.0
C628 C 0.83815 0.77699 0.64452 0.0
C629 C 0.79559 0.78477 0.63194 0.0
H630 H 0.79991 0.82299 0.66379 0.0
C631 C 0.74366 0.83091 0.63927 0.0
C632 C 0.74772 0.8475 0.6394 0.0
C633 C 0.75576 0.81908 0.64061 0.0
C634 C 0.79863 0.81247 0.65465 0.0
H635 H 0.82412 0.73192 0.64413 0.0
H636 H 0.80391 0.75355 0.64553 0.0
H637 H 0.82072 0.80175 0.66493 0.0
H638 H 0.76759 0.86476 0.64124 0.0
H639 H 0.78885 0.84404 0.64324 0.0
H640 H 0.77368 0.79544 0.62145 0.0
C641 C 0.81666 0.75682 0.64501 0.0
C642 C 0.81052 0.80032 0.65535 0.0
C643 C 0.82825 0.74444 0.64432 0.0
C644 C 0.76412 0.85205 0.64113 0.0
C645 C 0.77627 0.84019 0.64238 0.0
C646 C 0.78377 0.79691 0.63119 0.0
C647 C 0.82147 0.77323 0.6448 0.0
C648 C 0.80904 0.78629 0.64409 0.0
C649 C 0.77223 0.82356 0.64198 0.0
C650 C 0.78507 0.81086 0.64263 0.0
H651 H 0.86252 0.76782 0.64305 0.0
H652 H 0.8422 0.78953 0.64425 0.0
H653 H 0.79429 0.77425 0.6228 0.0
H654 H 0.7311 0.82703 0.6381 0.0
H655 H 0.75219 0.80639 0.64062 0.0
C656 C 0.66835 0.7495 0.85098 0.0
C657 C 0.6517 0.74591 0.84944 0.0
C658 C 0.67994 0.73718 0.84936 0.0
C659 C 0.68489 0.69298 0.85465 0.0
H660 H 0.72582 0.70083 0.82888 0.0
C661 C 0.73448 0.64344 0.84746 0.0
C662 C 0.75048 0.64851 0.85123 0.0
C663 C 0.722 0.65488 0.84558 0.0
C664 C 0.71449 0.69849 0.83622 0.0
H665 H 0.6341 0.72669 0.84468 0.0
H666 H 0.65442 0.70511 0.8417 0.0
H667 H 0.70467 0.72162 0.82831 0.0
H668 H 0.76601 0.66948 0.85583 0.0
H669 H 0.74424 0.6894 0.85268 0.0
H670 H 0.69481 0.66993 0.86278 0.0
C671 C 0.65848 0.71744 0.84437 0.0
C672 C 0.70238 0.71039 0.8359 0.0
C673 C 0.64686 0.72979 0.84597 0.0
C674 C 0.7538 0.66521 0.85288 0.0
C675 C 0.74134 0.67663 0.85096 0.0
C676 C 0.69701 0.68106 0.85496 0.0
C677 C 0.67515 0.72099 0.84616 0.0
C678 C 0.68753 0.70787 0.84532 0.0
C679 C 0.72529 0.6716 0.84736 0.0
C680 C 0.71202 0.68378 0.84597 0.0
H681 H 0.67245 0.76181 0.8537 0.0
H682 H 0.69266 0.74029 0.85109 0.0
H683 H 0.67367 0.69074 0.86225 0.0
H684 H 0.73158 0.63064 0.84608 0.0
H685 H 0.70978 0.65064 0.84263 0.0
C686 C 0.24371 0.66579 0.8513 0.0
C687 C 0.24733 0.6491 0.85074 0.0
C688 C 0.25603 0.67734 0.84926 0.0
C689 C 0.30005 0.68274 0.85514 0.0
H690 H 0.29269 0.72214 0.82612 0.0
C691 C 0.34961 0.73204 0.84679 0.0
C692 C 0.34439 0.74818 0.84925 0.0
C693 C 0.33827 0.71946 0.84497 0.0
C694 C 0.29489 0.71125 0.83437 0.0
H695 H 0.26664 0.63138 0.84737 0.0
H696 H 0.28823 0.65161 0.84374 0.0
H697 H 0.27192 0.70094 0.82661 0.0
H698 H 0.32326 0.76385 0.85142 0.0
H699 H 0.3035 0.74192 0.84844 0.0
H700 H 0.32288 0.69316 0.86319 0.0
C701 C 0.27586 0.65574 0.84592 0.0
C702 C 0.283 0.69911 0.83465 0.0
C703 C 0.2635 0.64417 0.84791 0.0
C704 C 0.32765 0.75154 0.84949 0.0
C705 C 0.31632 0.73897 0.84767 0.0
C706 C 0.31194 0.69489 0.85488 0.0
C707 C 0.27225 0.67246 0.84664 0.0
C708 C 0.28536 0.68482 0.84524 0.0
C709 C 0.3215 0.72277 0.84556 0.0
C710 C 0.3094 0.70938 0.84469 0.0
H711 H 0.23135 0.66996 0.85349 0.0
H712 H 0.25288 0.69012 0.85015 0.0
H713 H 0.30215 0.67195 0.86362 0.0
H714 H 0.36245 0.72911 0.84649 0.0
H715 H 0.34264 0.70713 0.84313 0.0
C716 C 0.32791 0.24349 0.84553 0.0
C717 C 0.34455 0.24719 0.84687 0.0
C718 C 0.3165 0.25583 0.8427 0.0
C719 C 0.31083 0.29961 0.85035 0.0
H720 H 0.27222 0.29296 0.8197 0.0
C721 C 0.26085 0.34855 0.84411 0.0
C722 C 0.24487 0.34286 0.84654 0.0
C723 C 0.27364 0.3376 0.84141 0.0
C724 C 0.28292 0.29497 0.82836 0.0
H725 H 0.36237 0.26662 0.84576 0.0
H726 H 0.34241 0.28821 0.84066 0.0
H727 H 0.29369 0.27246 0.81969 0.0
H728 H 0.22966 0.32132 0.84751 0.0
H729 H 0.25198 0.30221 0.84291 0.0
H730 H 0.29993 0.32194 0.85932 0.0
C731 C 0.33818 0.27578 0.84203 0.0
C732 C 0.29521 0.28324 0.82836 0.0
C733 C 0.34961 0.26342 0.84486 0.0
C734 C 0.24186 0.32606 0.84569 0.0
C735 C 0.25463 0.31512 0.84293 0.0
C736 C 0.29856 0.31135 0.85032 0.0
C737 C 0.32148 0.27214 0.84114 0.0
C738 C 0.30917 0.28529 0.83963 0.0
C739 C 0.27069 0.32076 0.841 0.0
C740 C 0.28434 0.30902 0.83959 0.0
H741 H 0.32365 0.23109 0.84704 0.0
H742 H 0.30373 0.25262 0.84236 0.0
H743 H 0.32133 0.30147 0.85939 0.0
H744 H 0.26352 0.36145 0.84464 0.0
H745 H 0.28587 0.34231 0.83976 0.0
C746 C 0.66788 0.23991 0.84191 0.0
C747 C 0.65169 0.24463 0.84508 0.0
C748 C 0.67998 0.25159 0.83922 0.0
C749 C 0.68739 0.29491 0.82801 0.0
H750 H 0.72677 0.28799 0.8572 0.0
C751 C 0.73498 0.34541 0.84241 0.0
C752 C 0.75143 0.34084 0.84321 0.0
C753 C 0.72286 0.33363 0.84017 0.0
C754 C 0.716 0.29001 0.84868 0.0
H755 H 0.63534 0.26523 0.84724 0.0
H756 H 0.65656 0.28571 0.84272 0.0
H757 H 0.70548 0.26752 0.85761 0.0
H758 H 0.76817 0.32053 0.84135 0.0
H759 H 0.74708 0.30003 0.83708 0.0
H760 H 0.69793 0.31756 0.81927 0.0
C761 C 0.65986 0.27297 0.84216 0.0
C762 C 0.70376 0.27827 0.84894 0.0
C763 C 0.64773 0.26125 0.84485 0.0
C764 C 0.75558 0.32439 0.84096 0.0
C765 C 0.74348 0.31264 0.83862 0.0
C766 C 0.69969 0.30669 0.82771 0.0
C767 C 0.67616 0.26825 0.83968 0.0
C768 C 0.6893 0.28059 0.83868 0.0
C769 C 0.72697 0.31708 0.83861 0.0
C770 C 0.71411 0.30438 0.83811 0.0
H771 H 0.67128 0.22718 0.84185 0.0
H772 H 0.69238 0.24757 0.83701 0.0
H773 H 0.67644 0.29697 0.81982 0.0
H774 H 0.73144 0.35802 0.84411 0.0
H775 H 0.71025 0.33745 0.84038 0.0
C776 C 0.66729 0.24001 0.14804 0.0
C777 C 0.65056 0.24346 0.14771 0.0
C778 C 0.67858 0.25239 0.15127 0.0
C779 C 0.68315 0.29662 0.14657 0.0
H780 H 0.723 0.28928 0.17473 0.0
C781 C 0.7323 0.3463 0.15346 0.0
C782 C 0.74825 0.3411 0.14974 0.0
C783 C 0.71986 0.33495 0.15624 0.0
C784 C 0.71195 0.29149 0.16679 0.0
H785 H 0.63248 0.26243 0.15113 0.0
H786 H 0.65223 0.28407 0.15695 0.0
H787 H 0.70197 0.2683 0.17429 0.0
H788 H 0.76383 0.31999 0.1466 0.0
H789 H 0.74214 0.30019 0.15129 0.0
H790 H 0.69323 0.31964 0.13874 0.0
C791 C 0.65662 0.27184 0.15445 0.0
C792 C 0.69991 0.27948 0.16652 0.0
C793 C 0.64532 0.25944 0.1512 0.0
C794 C 0.75164 0.32436 0.14943 0.0
C795 C 0.73923 0.31301 0.15225 0.0
C796 C 0.69516 0.30863 0.14687 0.0
C797 C 0.67339 0.26848 0.15427 0.0
C798 C 0.6855 0.2818 0.15613 0.0
C799 C 0.72316 0.31818 0.15541 0.0
C800 C 0.70981 0.30608 0.1567 0.0
H801 H 0.67169 0.2278 0.14538 0.0
H802 H 0.69141 0.24943 0.15079 0.0
H803 H 0.67229 0.29871 0.13821 0.0
H804 H 0.72934 0.35914 0.15387 0.0
H805 H 0.70763 0.33929 0.15886 0.0
C806 C 0.75089 0.66572 0.1382 0.0
C807 C 0.74722 0.64916 0.1406 0.0
C808 C 0.73865 0.67745 0.13941 0.0
C809 C 0.69432 0.68255 0.13511 0.0
H810 H 0.70276 0.72386 0.15983 0.0
C811 C 0.64459 0.73161 0.14464 0.0
C812 C 0.64925 0.74769 0.14065 0.0
C813 C 0.65627 0.71928 0.14577 0.0
C814 C 0.70026 0.71243 0.15275 0.0
H815 H 0.72793 0.63186 0.14633 0.0
H816 H 0.70652 0.65239 0.1486 0.0
H817 H 0.72365 0.70281 0.15989 0.0
H818 H 0.66974 0.76353 0.13481 0.0
H819 H 0.69009 0.74203 0.13665 0.0
H820 H 0.67097 0.69224 0.12784 0.0
C821 C 0.71883 0.65629 0.14557 0.0
C822 C 0.71223 0.70038 0.15279 0.0
C823 C 0.73109 0.64455 0.14438 0.0
C824 C 0.6658 0.75125 0.13795 0.0
C825 C 0.67746 0.73895 0.13912 0.0
C826 C 0.68234 0.69461 0.13509 0.0
C827 C 0.72247 0.67287 0.14304 0.0
C828 C 0.70945 0.68536 0.14381 0.0
C829 C 0.67283 0.72282 0.14298 0.0
C830 C 0.68525 0.70974 0.14376 0.0
H831 H 0.7632 0.66964 0.13522 0.0
H832 H 0.74183 0.69008 0.13711 0.0
H833 H 0.69189 0.6712 0.12785 0.0
H834 H 0.63192 0.72852 0.14682 0.0
H835 H 0.65234 0.707 0.14896 0.0
C836 C 0.23819 0.66806 0.1423 0.0
C837 C 0.24236 0.65152 0.14332 0.0
C838 C 0.25016 0.68004 0.14364 0.0
C839 C 0.29257 0.68752 0.15899 0.0
H840 H 0.28954 0.7238 0.12401 0.0
C841 C 0.34487 0.73367 0.14654 0.0
C842 C 0.34046 0.75007 0.14428 0.0
C843 C 0.33291 0.72161 0.14775 0.0
C844 C 0.29046 0.71386 0.13404 0.0
H845 H 0.26228 0.63452 0.14687 0.0
H846 H 0.28329 0.65547 0.14897 0.0
H847 H 0.26869 0.7028 0.12365 0.0
H848 H 0.32014 0.76678 0.1421 0.0
H849 H 0.2993 0.74578 0.14436 0.0
H850 H 0.31449 0.69859 0.16921 0.0
C851 C 0.27073 0.65919 0.14736 0.0
C852 C 0.2785 0.70182 0.13384 0.0
C853 C 0.25872 0.64719 0.14606 0.0
C854 C 0.32391 0.75423 0.14373 0.0
C855 C 0.31197 0.74219 0.14492 0.0
C856 C 0.30458 0.69958 0.15916 0.0
C857 C 0.2666 0.67575 0.14596 0.0
C858 C 0.27938 0.68853 0.14634 0.0
C859 C 0.31634 0.72573 0.14668 0.0
C860 C 0.30362 0.7129 0.14671 0.0
H861 H 0.22566 0.67178 0.14032 0.0
H862 H 0.24654 0.69269 0.14285 0.0
H863 H 0.2935 0.67752 0.16893 0.0
H864 H 0.35755 0.73011 0.147 0.0
H865 H 0.33666 0.70901 0.14896 0.0
C866 C 0.24384 0.32714 0.14996 0.0
C867 C 0.24708 0.34387 0.14851 0.0
C868 C 0.25651 0.31608 0.15269 0.0
C869 C 0.30026 0.31153 0.1443 0.0
H870 H 0.29538 0.27322 0.17589 0.0
C871 C 0.35078 0.26308 0.14978 0.0
C872 C 0.3455 0.24688 0.14811 0.0
C873 C 0.33955 0.2756 0.15263 0.0
C874 C 0.2969 0.28383 0.16695 0.0
H875 H 0.26603 0.36221 0.14934 0.0
H876 H 0.28819 0.34286 0.1542 0.0
H877 H 0.2742 0.29403 0.1759 0.0
H878 H 0.32442 0.23103 0.14863 0.0
H879 H 0.30482 0.25286 0.15339 0.0
H880 H 0.32274 0.30118 0.13498 0.0
C881 C 0.27587 0.33829 0.15302 0.0
C882 C 0.28477 0.29574 0.16696 0.0
C883 C 0.26318 0.34937 0.15032 0.0
C884 C 0.32885 0.2434 0.14987 0.0
C885 C 0.31763 0.2559 0.15273 0.0
C886 C 0.31238 0.29962 0.14428 0.0
C887 C 0.27269 0.3215 0.15401 0.0
C888 C 0.2862 0.30959 0.15539 0.0
C889 C 0.32282 0.27217 0.1539 0.0
C890 C 0.3107 0.28551 0.15536 0.0
H891 H 0.23154 0.32255 0.14861 0.0
H892 H 0.25366 0.30321 0.15315 0.0
H893 H 0.30163 0.32195 0.13503 0.0
H894 H 0.36356 0.26611 0.14856 0.0
H895 H 0.34394 0.288 0.1537 0.0
C896 C 0.93753 0.26668 0.36137 0.0
C897 C 0.92982 0.28112 0.36708 0.0
C898 C 0.95441 0.26509 0.36287 0.0
C899 C 0.99044 0.28252 0.38678 0.0
H900 H 0.01397 0.26575 0.34333 0.0
C901 C 0.05872 0.29386 0.37564 0.0
C902 C 0.06823 0.28129 0.368 0.0
C903 C 0.04188 0.2922 0.37697 0.0
C904 C 0.00758 0.27021 0.35571 0.0
H905 H 0.93363 0.30511 0.37909 0.0
H906 H 0.96306 0.30239 0.38158 0.0
H907 H 0.98431 0.26573 0.34313 0.0
H908 H 0.06764 0.25698 0.35606 0.0
H909 H 0.03812 0.25403 0.35848 0.0
H910 H 0.0137 0.28726 0.39923 0.0
C911 C 0.95609 0.29223 0.37614 0.0
C912 C 0.99059 0.2702 0.35559 0.0
C913 C 0.93925 0.29383 0.37459 0.0
C914 C 0.06059 0.2669 0.36196 0.0
C915 C 0.04371 0.26524 0.36326 0.0
C916 C 0.00742 0.28252 0.38691 0.0
C917 C 0.96387 0.27789 0.37018 0.0
C918 C 0.98185 0.27661 0.37099 0.0
C919 C 0.03416 0.27792 0.37068 0.0
C920 C 0.01617 0.27661 0.37125 0.0
H921 H 0.93055 0.25666 0.35558 0.0
H922 H 0.96006 0.25384 0.35832 0.0
H923 H 0.98403 0.28728 0.399 0.0
H924 H 0.06427 0.30511 0.38039 0.0
H925 H 0.03485 0.30229 0.3825 0.0
C926 C 0.70381 0.06099 0.36883 0.0
C927 C 0.71701 0.07069 0.36323 0.0
C928 C 0.7052 0.04408 0.36904 0.0
C929 C 0.72866 0.01055 0.34799 0.0
H930 H 0.70779 0.98525 0.38751 0.0
C931 C 0.73212 0.94007 0.35232 0.0
C932 C 0.71732 0.9322 0.3562 0.0
C933 C 0.7333 0.95701 0.35365 0.0
C934 C 0.7136 0.99216 0.37633 0.0
H935 H 0.74211 0.07039 0.3538 0.0
H936 H 0.7446 0.04077 0.35436 0.0
H937 H 0.70793 0.01484 0.3896 0.0
H938 H 0.69211 0.93583 0.36423 0.0
H939 H 0.69415 0.96531 0.36646 0.0
H940 H 0.73421 0.98779 0.33468 0.0
C941 C 0.73312 0.04624 0.35835 0.0
C942 C 0.71367 0.0091 0.37751 0.0
C943 C 0.73172 0.06319 0.35812 0.0
C944 C 0.70369 0.94155 0.3612 0.0
C945 C 0.70489 0.95843 0.36262 0.0
C946 C 0.72864 0.99358 0.34685 0.0
C947 C 0.71983 0.0365 0.3637 0.0
C948 C 0.72095 0.0185 0.3632 0.0
C949 C 0.71971 0.96633 0.359 0.0
C950 C 0.72085 0.98424 0.36084 0.0
H951 H 0.69231 0.06644 0.37278 0.0
H952 H 0.69466 0.03692 0.37296 0.0
H953 H 0.73422 0.01745 0.33664 0.0
H954 H 0.74283 0.93314 0.34847 0.0
H955 H 0.74489 0.9628 0.35086 0.0
C956 C 0.05853 0.72965 0.35675 0.0
C957 C 0.06664 0.71598 0.36407 0.0
C958 C 0.04157 0.73066 0.3576 0.0
C959 C 0.00573 0.71345 0.38213 0.0
H960 H 0.98241 0.72711 0.33704 0.0
C961 C 0.93753 0.70089 0.37145 0.0
C962 C 0.92801 0.71322 0.36331 0.0
C963 C 0.95442 0.70247 0.37235 0.0
C964 C 0.98875 0.72349 0.34983 0.0
H965 H 0.06344 0.69277 0.37822 0.0
H966 H 0.0339 0.69445 0.37954 0.0
H967 H 0.01207 0.72782 0.33736 0.0
H968 H 0.9286 0.73692 0.34982 0.0
H969 H 0.95817 0.7397 0.35142 0.0
H970 H 0.98241 0.70887 0.39449 0.0
C971 C 0.0406 0.70448 0.37335 0.0
C972 C 0.00573 0.72391 0.35002 0.0
C973 C 0.05752 0.70346 0.37248 0.0
C974 C 0.93566 0.7272 0.35613 0.0
C975 C 0.95258 0.72876 0.35697 0.0
C976 C 0.98876 0.71301 0.38193 0.0
C977 C 0.03243 0.71804 0.36582 0.0
C978 C 0.0144 0.71869 0.36609 0.0
C979 C 0.96212 0.71641 0.36509 0.0
C980 C 0.98009 0.71783 0.3657 0.0
H981 H 0.06527 0.7395 0.35023 0.0
H982 H 0.03562 0.74133 0.35185 0.0
H983 H 0.01206 0.70962 0.39483 0.0
H984 H 0.93196 0.68997 0.37709 0.0
H985 H 0.96146 0.69264 0.37844 0.0
C986 C 0.26365 0.93833 0.35454 0.0
C987 C 0.27728 0.93053 0.3624 0.0
C988 C 0.26223 0.95527 0.35535 0.0
C989 C 0.27775 0.99138 0.38083 0.0
H990 H 0.26552 0.01468 0.33519 0.0
C991 C 0.29077 0.05946 0.37072 0.0
C992 C 0.2789 0.06907 0.36183 0.0
C993 C 0.28897 0.0426 0.37168 0.0
C994 C 0.2687 0.00834 0.34813 0.0
H995 H 0.29999 0.93425 0.37744 0.0
H996 H 0.29757 0.96374 0.37875 0.0
H997 H 0.26513 0.98499 0.33536 0.0
H998 H 0.25575 0.06864 0.34709 0.0
H999 H 0.25257 0.0391 0.34879 0.0
H1000 H 0.2816 0.01471 0.39351 0.0
C1001 C 0.28789 0.95682 0.37214 0.0
C1002 C 0.26848 0.99135 0.34823 0.0
C1003 C 0.28934 0.93992 0.37128 0.0
C1004 C 0.26512 0.06151 0.35399 0.0
C1005 C 0.26333 0.04461 0.35489 0.0
C1006 C 0.27798 0.00835 0.38073 0.0
C1007 C 0.27436 0.96468 0.36413 0.0
C1008 C 0.27327 0.98269 0.36449 0.0
C1009 C 0.27526 0.03499 0.36373 0.0
C1010 C 0.27372 0.01702 0.36429 0.0
H1011 H 0.25415 0.93137 0.34764 0.0
H1012 H 0.25159 0.96099 0.3492 0.0
H1013 H 0.28121 0.98504 0.39368 0.0
H1014 H 0.30153 0.06494 0.37687 0.0
H1015 H 0.29849 0.0355 0.37832 0.0
C1016 C 0.05871 0.70102 0.62473 0.0
C1017 C 0.06775 0.71429 0.63151 0.0
C1018 C 0.04175 0.70153 0.62464 0.0
C1019 C 0.00683 0.72961 0.626 0.0
H1020 H 0.98335 0.69104 0.64199 0.0
C1021 C 0.93701 0.72835 0.63739 0.0
C1022 C 0.9288 0.71445 0.63088 0.0
C1023 C 0.95401 0.72888 0.63737 0.0
C1024 C 0.98973 0.70185 0.63729 0.0
H1025 H 0.06619 0.73859 0.64335 0.0
H1026 H 0.03647 0.73945 0.64334 0.0
H1027 H 0.01296 0.69097 0.64219 0.0
H1028 H 0.93185 0.69034 0.61889 0.0
H1029 H 0.96144 0.69132 0.61867 0.0
H1030 H 0.98352 0.74046 0.6211 0.0
C1031 C 0.04252 0.72871 0.63793 0.0
C1032 C 0.00669 0.70181 0.63741 0.0
C1033 C 0.05951 0.72818 0.63803 0.0
C1034 C 0.93785 0.70119 0.62409 0.0
C1035 C 0.9548 0.70172 0.62407 0.0
C1036 C 0.98983 0.72965 0.62589 0.0
C1037 C 0.03346 0.71534 0.63135 0.0
C1038 C 0.01543 0.71563 0.63164 0.0
C1039 C 0.96308 0.7155 0.63086 0.0
C1040 C 0.98111 0.71572 0.6314 0.0
H1041 H 0.06473 0.69017 0.61953 0.0
H1042 H 0.03512 0.69114 0.6192 0.0
H1043 H 0.01324 0.74039 0.6213 0.0
H1044 H 0.93032 0.73874 0.64272 0.0
H1045 H 0.96005 0.73962 0.64282 0.0
C1046 C 0.29657 0.93835 0.62329 0.0
C1047 C 0.28311 0.9295 0.62987 0.0
C1048 C 0.29622 0.95532 0.62299 0.0
C1049 C 0.26847 0.99057 0.62367 0.0
H1050 H 0.30692 0.01372 0.64068 0.0
C1051 C 0.26952 0.06012 0.63654 0.0
C1052 C 0.28346 0.06853 0.63048 0.0
C1053 C 0.26909 0.04313 0.63613 0.0
C1054 C 0.29615 0.00744 0.63568 0.0
H1055 H 0.25863 0.93139 0.64109 0.0
H1056 H 0.25806 0.96111 0.64074 0.0
H1057 H 0.30683 0.9841 0.64051 0.0
H1058 H 0.30776 0.06581 0.61895 0.0
H1059 H 0.30696 0.03618 0.61808 0.0
H1060 H 0.25779 0.01398 0.61888 0.0
C1061 C 0.26883 0.95492 0.63563 0.0
C1062 C 0.2961 0.99047 0.63559 0.0
C1063 C 0.26919 0.93792 0.63593 0.0
C1064 C 0.29688 0.05965 0.62381 0.0
C1065 C 0.29645 0.04268 0.62341 0.0
C1066 C 0.26852 0.00758 0.62377 0.0
C1067 C 0.2824 0.9638 0.62929 0.0
C1068 C 0.28229 0.98184 0.62951 0.0
C1069 C 0.28259 0.03423 0.62967 0.0
C1070 C 0.28239 0.01619 0.62971 0.0
H1071 H 0.30744 0.93218 0.61843 0.0
H1072 H 0.30677 0.96181 0.61774 0.0
H1073 H 0.25771 0.98426 0.61871 0.0
H1074 H 0.259 0.06667 0.64177 0.0
H1075 H 0.2583 0.03695 0.64122 0.0
C1076 C 0.05768 0.29214 0.61803 0.0
C1077 C 0.06696 0.2793 0.62545 0.0
C1078 C 0.04082 0.29071 0.61645 0.0
C1079 C 0.00611 0.26882 0.63682 0.0
H1080 H 0.98308 0.28661 0.59353 0.0
C1081 C 0.93607 0.26627 0.63063 0.0
C1082 C 0.92858 0.28083 0.62494 0.0
C1083 C 0.95293 0.26445 0.6292 0.0
C1084 C 0.98935 0.28166 0.60575 0.0
H1085 H 0.06597 0.25477 0.63673 0.0
H1086 H 0.03645 0.25224 0.63391 0.0
H1087 H 0.01276 0.28633 0.59366 0.0
H1088 H 0.93277 0.30479 0.61302 0.0
H1089 H 0.96215 0.30169 0.61069 0.0
H1090 H 0.98271 0.26445 0.64907 0.0
C1091 C 0.04221 0.26347 0.62947 0.0
C1092 C 0.00632 0.2815 0.60582 0.0
C1093 C 0.0591 0.26489 0.63101 0.0
C1094 C 0.9382 0.29342 0.6175 0.0
C1095 C 0.95503 0.29159 0.61604 0.0
C1096 C 0.98912 0.26899 0.63675 0.0
C1097 C 0.03288 0.27641 0.62228 0.0
C1098 C 0.01489 0.27532 0.62149 0.0
C1099 C 0.96259 0.27714 0.622 0.0
C1100 C 0.98057 0.27566 0.62134 0.0
H1101 H 0.06341 0.3034 0.61365 0.0
H1102 H 0.03395 0.30098 0.6111 0.0
H1103 H 0.01236 0.26415 0.6492 0.0
H1104 H 0.92893 0.25634 0.63636 0.0
H1105 H 0.95841 0.25311 0.63373 0.0
C1106 C 0.69936 0.06169 0.62934 0.0
C1107 C 0.71297 0.0713 0.63376 0.0
C1108 C 0.70016 0.04479 0.63081 0.0
C1109 C 0.72842 0.01029 0.63142 0.0
H1110 H 0.69201 0.98774 0.6545 0.0
C1111 C 0.72789 0.94052 0.64305 0.0
C1112 C 0.71329 0.93257 0.63841 0.0
C1113 C 0.72854 0.95751 0.64378 0.0
C1114 C 0.70222 0.99384 0.64789 0.0
H1115 H 0.73814 0.07081 0.64291 0.0
H1116 H 0.73954 0.04114 0.64544 0.0
H1117 H 0.69196 0.01735 0.65297 0.0
H1118 H 0.68793 0.93611 0.63097 0.0
H1119 H 0.6891 0.96566 0.63204 0.0
H1120 H 0.73854 0.98674 0.62604 0.0
C1121 C 0.72829 0.04672 0.64079 0.0
C1122 C 0.70219 0.01079 0.64702 0.0
C1123 C 0.72747 0.06368 0.63941 0.0
C1124 C 0.69935 0.94189 0.63467 0.0
C1125 C 0.69999 0.95883 0.6354 0.0
C1126 C 0.72843 0.99329 0.63223 0.0
C1127 C 0.71458 0.03713 0.63668 0.0
C1128 C 0.71517 0.01919 0.63854 0.0
C1129 C 0.71459 0.96685 0.63993 0.0
C1130 C 0.71521 0.98489 0.64024 0.0
H1131 H 0.68803 0.06722 0.62489 0.0
H1132 H 0.68947 0.03769 0.62726 0.0
H1133 H 0.73854 0.01644 0.62468 0.0
H1134 H 0.73882 0.93362 0.64602 0.0
H1135 H 0.73993 0.96333 0.64749 0.0
C1136 C 0.55895 0.76615 0.85044 0.0
C1137 C 0.56705 0.78061 0.85531 0.0
C1138 C 0.54195 0.7657 0.8497 0.0
C1139 C 0.50604 0.79243 0.8454 0.0
H1140 H 0.48282 0.75631 0.86821 0.0
C1141 C 0.4378 0.79567 0.8621 0.0
C1142 C 0.42828 0.78192 0.85807 0.0
C1143 C 0.45472 0.79489 0.86087 0.0
C1144 C 0.48914 0.76638 0.86157 0.0
H1145 H 0.56381 0.8059 0.86321 0.0
H1146 H 0.53424 0.80509 0.86208 0.0
H1147 H 0.51252 0.75603 0.8674 0.0
H1148 H 0.42894 0.75654 0.84971 0.0
H1149 H 0.45858 0.75519 0.84751 0.0
H1150 H 0.48272 0.80286 0.83976 0.0
C1151 C 0.54095 0.79416 0.85859 0.0
C1152 C 0.50613 0.76621 0.86109 0.0
C1153 C 0.5579 0.79459 0.85936 0.0
C1154 C 0.43599 0.76732 0.85293 0.0
C1155 C 0.45295 0.76653 0.85174 0.0
C1156 C 0.48908 0.7926 0.84589 0.0
C1157 C 0.53279 0.77972 0.85375 0.0
C1158 C 0.51476 0.77934 0.85322 0.0
C1159 C 0.46247 0.78035 0.8556 0.0
C1160 C 0.48045 0.77968 0.8542 0.0
H1161 H 0.56572 0.75519 0.84722 0.0
H1162 H 0.536 0.75444 0.84577 0.0
H1163 H 0.51234 0.80257 0.83891 0.0
H1164 H 0.43219 0.80708 0.86615 0.0
H1165 H 0.46174 0.80567 0.86423 0.0
C1166 C 0.22477 0.43355 0.85426 0.0
C1167 C 0.21028 0.42565 0.8594 0.0
C1168 C 0.22547 0.45053 0.85352 0.0
C1169 C 0.19927 0.48657 0.84859 0.0
H1170 H 0.23599 0.5099 0.86989 0.0
C1171 C 0.19777 0.5556 0.86093 0.0
C1172 C 0.21186 0.56457 0.8568 0.0
C1173 C 0.19806 0.53864 0.86057 0.0
C1174 C 0.22576 0.50355 0.86365 0.0
H1175 H 0.1852 0.42925 0.86797 0.0
H1176 H 0.18644 0.45887 0.86677 0.0
H1177 H 0.23564 0.4802 0.87065 0.0
H1178 H 0.23732 0.56289 0.84904 0.0
H1179 H 0.23781 0.53315 0.84823 0.0
H1180 H 0.18935 0.50985 0.84162 0.0
C1181 C 0.19721 0.45196 0.8631 0.0
C1182 C 0.22556 0.48655 0.86411 0.0
C1183 C 0.19653 0.43501 0.8639 0.0
C1184 C 0.22628 0.55626 0.8523 0.0
C1185 C 0.22657 0.53926 0.85194 0.0
C1186 C 0.19949 0.50353 0.8481 0.0
C1187 C 0.21166 0.4599 0.85782 0.0
C1188 C 0.21223 0.4779 0.85675 0.0
C1189 C 0.21245 0.53027 0.85605 0.0
C1190 C 0.21265 0.51222 0.8558 0.0
H1191 H 0.23555 0.42662 0.8507 0.0
H1192 H 0.23673 0.45631 0.84926 0.0
H1193 H 0.18897 0.48022 0.84249 0.0
H1194 H 0.18649 0.56167 0.86453 0.0
H1195 H 0.18705 0.53207 0.8641 0.0
C1196 C 0.43623 0.22825 0.85747 0.0
C1197 C 0.42807 0.2142 0.86362 0.0
C1198 C 0.45323 0.22891 0.85771 0.0
C1199 C 0.48908 0.20204 0.85773 0.0
H1200 H 0.51243 0.24052 0.87427 0.0
C1201 C 0.55785 0.2009 0.87074 0.0
C1202 C 0.56701 0.21401 0.86375 0.0
C1203 C 0.54091 0.20164 0.871 0.0
C1204 C 0.50606 0.22975 0.86943 0.0
H1205 H 0.4312 0.18998 0.87526 0.0
H1206 H 0.46078 0.19118 0.87589 0.0
H1207 H 0.48268 0.24052 0.87423 0.0
H1208 H 0.56568 0.23833 0.85193 0.0
H1209 H 0.53595 0.23958 0.85228 0.0
H1210 H 0.51236 0.19124 0.85295 0.0
C1211 C 0.45411 0.2016 0.87057 0.0
C1212 C 0.48905 0.22975 0.8694 0.0
C1213 C 0.43716 0.20094 0.87032 0.0
C1214 C 0.55891 0.22804 0.85739 0.0
C1215 C 0.54191 0.22878 0.85767 0.0
C1216 C 0.50603 0.20203 0.85777 0.0
C1217 C 0.46235 0.21552 0.8641 0.0
C1218 C 0.48038 0.21583 0.8637 0.0
C1219 C 0.53274 0.2155 0.86427 0.0
C1220 C 0.51472 0.21583 0.86378 0.0
H1221 H 0.42951 0.23866 0.85222 0.0
H1222 H 0.45923 0.23976 0.8525 0.0
H1223 H 0.48277 0.19124 0.85286 0.0
H1224 H 0.56376 0.18996 0.87585 0.0
H1225 H 0.53419 0.19132 0.87648 0.0
C1226 C 0.79697 0.43457 0.86408 0.0
C1227 C 0.78385 0.42529 0.85733 0.0
C1228 C 0.79616 0.45151 0.86415 0.0
C1229 C 0.77499 0.48615 0.84207 0.0
H1230 H 0.79302 0.50982 0.88477 0.0
C1231 C 0.7707 0.55628 0.84999 0.0
C1232 C 0.78501 0.56414 0.85593 0.0
C1233 C 0.76971 0.5393 0.85015 0.0
C1234 C 0.78804 0.50338 0.87268 0.0
H1235 H 0.75957 0.42641 0.84541 0.0
H1236 H 0.75806 0.45612 0.84572 0.0
H1237 H 0.7926 0.48019 0.88534 0.0
H1238 H 0.80952 0.56046 0.86645 0.0
H1239 H 0.80781 0.53087 0.86665 0.0
H1240 H 0.7705 0.50942 0.82943 0.0
C1241 C 0.76905 0.45027 0.85075 0.0
C1242 C 0.78781 0.48641 0.873 0.0
C1243 C 0.76988 0.43327 0.85066 0.0
C1244 C 0.79833 0.55474 0.86184 0.0
C1245 C 0.79731 0.5378 0.86208 0.0
C1246 C 0.77519 0.50315 0.84178 0.0
C1247 C 0.78219 0.45956 0.85753 0.0
C1248 C 0.78149 0.4776 0.8576 0.0
C1249 C 0.78296 0.52991 0.85635 0.0
C1250 C 0.78192 0.51192 0.85698 0.0
H1251 H 0.80794 0.42874 0.86924 0.0
H1252 H 0.8066 0.45831 0.86917 0.0
H1253 H 0.77019 0.4797 0.8299 0.0
H1254 H 0.76024 0.56325 0.84538 0.0
H1255 H 0.75847 0.53353 0.84576 0.0
C1256 C 0.43747 0.2009 0.12237 0.0
C1257 C 0.42835 0.21396 0.12953 0.0
C1258 C 0.45439 0.20189 0.12137 0.0
C1259 C 0.48934 0.2231 0.14241 0.0
H1260 H 0.51242 0.20522 0.09923 0.0
C1261 C 0.55933 0.22649 0.13538 0.0
C1262 C 0.56705 0.21212 0.12944 0.0
C1263 C 0.5424 0.22789 0.13449 0.0
C1264 C 0.50614 0.21017 0.11144 0.0
H1265 H 0.4297 0.23839 0.14105 0.0
H1266 H 0.45934 0.24016 0.13921 0.0
H1267 H 0.48276 0.20567 0.09919 0.0
H1268 H 0.56318 0.18801 0.11778 0.0
H1269 H 0.53367 0.1904 0.11634 0.0
H1270 H 0.51274 0.22741 0.15476 0.0
C1271 C 0.4534 0.2291 0.13454 0.0
C1272 C 0.48917 0.21042 0.11142 0.0
C1273 C 0.43645 0.22811 0.13551 0.0
C1274 C 0.55756 0.19925 0.12243 0.0
C1275 C 0.54067 0.20066 0.12149 0.0
C1276 C 0.50633 0.22285 0.14243 0.0
C1277 C 0.46255 0.21597 0.12752 0.0
C1278 C 0.48058 0.2167 0.12701 0.0
C1279 C 0.5329 0.21497 0.12757 0.0
C1280 C 0.5149 0.21619 0.12705 0.0
H1281 H 0.43156 0.18983 0.11769 0.0
H1282 H 0.46111 0.19148 0.11615 0.0
H1283 H 0.48307 0.22784 0.15473 0.0
H1284 H 0.56635 0.23662 0.14081 0.0
H1285 H 0.53677 0.23912 0.1391 0.0
C1286 C 0.76611 0.55605 0.14116 0.0
C1287 C 0.7807 0.56395 0.13638 0.0
C1288 C 0.76516 0.53906 0.14084 0.0
C1289 C 0.78492 0.50316 0.11984 0.0
H1290 H 0.76496 0.47949 0.16132 0.0
C1291 C 0.79418 0.43451 0.12971 0.0
C1292 C 0.7808 0.42511 0.13543 0.0
C1293 C 0.79317 0.45145 0.12945 0.0
C1294 C 0.77037 0.48593 0.1495 0.0
H1295 H 0.80575 0.56033 0.1277 0.0
H1296 H 0.8041 0.53076 0.12722 0.0
H1297 H 0.76491 0.50922 0.1616 0.0
H1298 H 0.75587 0.42599 0.14537 0.0
H1299 H 0.75404 0.45568 0.14475 0.0
H1300 H 0.79045 0.47997 0.10776 0.0
C1301 C 0.79336 0.53765 0.131 0.0
C1302 C 0.77035 0.50294 0.14968 0.0
C1303 C 0.79433 0.55459 0.1314 0.0
C1304 C 0.76638 0.43296 0.14093 0.0
C1305 C 0.76536 0.44994 0.14066 0.0
C1306 C 0.7849 0.4862 0.11964 0.0
C1307 C 0.77875 0.52971 0.13563 0.0
C1308 C 0.77784 0.51171 0.13498 0.0
C1309 C 0.77875 0.45936 0.13487 0.0
C1310 C 0.77784 0.47738 0.1346 0.0
H1311 H 0.75542 0.56299 0.14503 0.0
H1312 H 0.75372 0.53326 0.14436 0.0
H1313 H 0.7905 0.5096 0.10813 0.0
H1314 H 0.80548 0.4288 0.12547 0.0
H1315 H 0.80379 0.45836 0.12523 0.0
C1316 C 0.43566 0.79533 0.13551 0.0
C1317 C 0.42592 0.78153 0.13849 0.0
C1318 C 0.4525 0.79442 0.13761 0.0
C1319 C 0.48677 0.76599 0.13681 0.0
H1320 H 0.50938 0.80138 0.16195 0.0
C1321 C 0.55671 0.76664 0.14661 0.0
C1322 C 0.56435 0.78147 0.14228 0.0
C1323 C 0.53977 0.76578 0.1481 0.0
C1324 C 0.50325 0.79145 0.1548 0.0
H1325 H 0.42613 0.75593 0.1459 0.0
H1326 H 0.4557 0.75432 0.14952 0.0
H1327 H 0.47975 0.80138 0.16072 0.0
H1328 H 0.56034 0.80704 0.13631 0.0
H1329 H 0.53087 0.80553 0.13873 0.0
H1330 H 0.51031 0.75624 0.13055 0.0
C1331 C 0.45026 0.76582 0.1455 0.0
C1332 C 0.4863 0.79145 0.1541 0.0
C1333 C 0.43336 0.76675 0.14348 0.0
C1334 C 0.55479 0.79545 0.1397 0.0
C1335 C 0.53791 0.7946 0.14122 0.0
C1336 C 0.50377 0.76601 0.13748 0.0
C1337 C 0.45998 0.77969 0.1427 0.0
C1338 C 0.47789 0.77889 0.1448 0.0
C1339 C 0.53019 0.77976 0.14535 0.0
C1340 C 0.51218 0.7789 0.14617 0.0
H1341 H 0.43027 0.80689 0.13163 0.0
H1342 H 0.45969 0.80525 0.13506 0.0
H1343 H 0.48062 0.75621 0.12943 0.0
H1344 H 0.56379 0.75568 0.14871 0.0
H1345 H 0.53417 0.75421 0.15147 0.0
C1346 C 0.19955 0.43607 0.12772 0.0
C1347 C 0.21285 0.42686 0.13409 0.0
C1348 C 0.20029 0.45302 0.12763 0.0
C1349 C 0.22162 0.48765 0.14948 0.0
H1350 H 0.20265 0.51156 0.10754 0.0
C1351 C 0.22485 0.55796 0.14279 0.0
C1352 C 0.21037 0.56567 0.13722 0.0
C1353 C 0.22611 0.54099 0.14226 0.0
C1354 C 0.20789 0.50505 0.11942 0.0
H1355 H 0.23739 0.42811 0.14527 0.0
H1356 H 0.23874 0.45782 0.14496 0.0
H1357 H 0.2033 0.48194 0.10658 0.0
H1358 H 0.18581 0.56174 0.12695 0.0
H1359 H 0.18797 0.5322 0.12612 0.0
H1360 H 0.22612 0.51084 0.16234 0.0
C1361 C 0.22768 0.45192 0.14023 0.0
C1362 C 0.20826 0.48809 0.11887 0.0
C1363 C 0.22694 0.43492 0.14031 0.0
C1364 C 0.19714 0.55614 0.13128 0.0
C1365 C 0.19842 0.53923 0.13068 0.0
C1366 C 0.22128 0.50465 0.15001 0.0
C1367 C 0.21435 0.46115 0.13389 0.0
C1368 C 0.21492 0.47919 0.13401 0.0
C1369 C 0.21293 0.53147 0.13605 0.0
C1370 C 0.21421 0.5135 0.13509 0.0
H1371 H 0.1885 0.43019 0.1229 0.0
H1372 H 0.18971 0.45978 0.12294 0.0
H1373 H 0.22669 0.48113 0.16145 0.0
H1374 H 0.23525 0.56502 0.14741 0.0
H1375 H 0.23748 0.53534 0.14637 0.0
C1376 C 0.13604 0.28418 0.42957 0.0
C1377 C 0.13165 0.29723 0.4178 0.0
C1378 C 0.13911 0.28671 0.44878 0.0
C1379 C 0.12792 0.31362 0.48764 0.0
H1380 H 0.16053 0.28865 0.51471 0.0
C1381 C 0.13014 0.31128 0.56959 0.0
C1382 C 0.13083 0.29536 0.57681 0.0
C1383 C 0.13329 0.31424 0.5504 0.0
C1384 C 0.1514 0.29574 0.50734 0.0
H1385 H 0.12747 0.32325 0.41673 0.0
H1386 H 0.13277 0.32769 0.45054 0.0
H1387 H 0.16074 0.28908 0.48012 0.0
H1388 H 0.13591 0.27017 0.56985 0.0
H1389 H 0.14136 0.27529 0.53651 0.0
H1390 H 0.11819 0.31974 0.51487 0.0
C1391 C 0.13378 0.3155 0.44484 0.0
C1392 C 0.15152 0.29599 0.48756 0.0
C1393 C 0.13081 0.31297 0.42551 0.0
C1394 C 0.13525 0.28256 0.56469 0.0
C1395 C 0.13851 0.28553 0.5456 0.0
C1396 C 0.12781 0.31337 0.50746 0.0
C1397 C 0.1378 0.30234 0.4567 0.0
C1398 C 0.13944 0.30447 0.4775 0.0
C1399 C 0.13734 0.30135 0.53818 0.0
C1400 C 0.13921 0.30397 0.51748 0.0
H1401 H 0.13681 0.27191 0.42403 0.0
H1402 H 0.14193 0.27628 0.45758 0.0
H1403 H 0.11838 0.32017 0.4803 0.0
H1404 H 0.12678 0.32137 0.57866 0.0
H1405 H 0.13238 0.32657 0.54507 0.0
C1406 C 0.68554 0.13262 0.56768 0.0
C1407 C 0.70123 0.13194 0.57556 0.0
C1408 C 0.68348 0.13531 0.54822 0.0
C1409 C 0.70479 0.15084 0.50577 0.0
H1410 H 0.67786 0.12034 0.47792 0.0
C1411 C 0.71588 0.13579 0.42782 0.0
C1412 C 0.70262 0.13282 0.41577 0.0
C1413 C 0.71345 0.13852 0.44711 0.0
C1414 C 0.68516 0.12918 0.48549 0.0
H1415 H 0.72701 0.13389 0.56945 0.0
H1416 H 0.72343 0.1386 0.53566 0.0
H1417 H 0.67759 0.12004 0.51253 0.0
H1418 H 0.67636 0.13073 0.41433 0.0
H1419 H 0.67208 0.13548 0.44826 0.0
H1420 H 0.71275 0.15966 0.4788 0.0
C1421 C 0.71271 0.13717 0.54444 0.0
C1422 C 0.68501 0.129 0.50531 0.0
C1423 C 0.71477 0.13433 0.56377 0.0
C1424 C 0.6868 0.13298 0.42332 0.0
C1425 C 0.68436 0.13563 0.44272 0.0
C1426 C 0.70491 0.15105 0.48599 0.0
C1427 C 0.69707 0.13757 0.53641 0.0
C1428 C 0.69522 0.13948 0.51563 0.0
C1429 C 0.69769 0.1383 0.45484 0.0
C1430 C 0.6955 0.13987 0.47564 0.0
H1431 H 0.67489 0.13082 0.57647 0.0
H1432 H 0.67129 0.13562 0.54241 0.0
H1433 H 0.71254 0.15928 0.51337 0.0
H1434 H 0.72821 0.13575 0.42241 0.0
H1435 H 0.724 0.14027 0.45609 0.0
C1436 C 0.8667 0.68408 0.42555 0.0
C1437 C 0.86683 0.69985 0.41786 0.0
C1438 C 0.8639 0.68174 0.44493 0.0
C1439 C 0.8476 0.70228 0.4876 0.0
H1440 H 0.87902 0.67619 0.51515 0.0
C1441 C 0.86401 0.71441 0.56484 0.0
C1442 C 0.86696 0.7013 0.57712 0.0
C1443 C 0.86101 0.7117 0.54566 0.0
C1444 C 0.86993 0.68324 0.50765 0.0
H1445 H 0.86374 0.72548 0.42424 0.0
H1446 H 0.85892 0.72143 0.4579 0.0
H1447 H 0.87907 0.67592 0.48053 0.0
H1448 H 0.86879 0.67505 0.5791 0.0
H1449 H 0.86369 0.67029 0.54528 0.0
H1450 H 0.83889 0.7101 0.51468 0.0
C1451 C 0.86083 0.71084 0.44903 0.0
C1452 C 0.86996 0.68309 0.48783 0.0
C1453 C 0.86374 0.71318 0.42976 0.0
C1454 C 0.86656 0.68537 0.56991 0.0
C1455 C 0.8637 0.68265 0.5506 0.0
C1456 C 0.84758 0.70243 0.50737 0.0
C1457 C 0.86102 0.69513 0.45687 0.0
C1458 C 0.85916 0.69305 0.47763 0.0
C1459 C 0.86097 0.69582 0.53828 0.0
C1460 C 0.85911 0.69336 0.51759 0.0
H1461 H 0.86903 0.67358 0.41667 0.0
H1462 H 0.86406 0.66949 0.4506 0.0
H1463 H 0.83892 0.70982 0.4801 0.0
H1464 H 0.86421 0.72683 0.56999 0.0
H1465 H 0.85922 0.72212 0.53648 0.0
C1466 C 0.27832 0.86529 0.56383 0.0
C1467 C 0.29201 0.86718 0.57551 0.0
C1468 C 0.28014 0.8624 0.54447 0.0
C1469 C 0.30811 0.86971 0.50534 0.0
H1470 H 0.27859 0.8411 0.47831 0.0
C1471 C 0.30621 0.86677 0.42334 0.0
C1472 C 0.29047 0.86795 0.4157 0.0
C1473 C 0.30841 0.86379 0.44271 0.0
C1474 C 0.28692 0.84913 0.48566 0.0
H1475 H 0.31838 0.86719 0.57623 0.0
H1476 H 0.32158 0.86222 0.54217 0.0
H1477 H 0.27892 0.84093 0.51289 0.0
H1478 H 0.26472 0.86651 0.42214 0.0
H1479 H 0.26853 0.86142 0.45581 0.0
H1480 H 0.31569 0.87833 0.4781 0.0
C1481 C 0.30944 0.86302 0.54806 0.0
C1482 C 0.28712 0.84903 0.50544 0.0
C1483 C 0.30761 0.8658 0.56753 0.0
C1484 C 0.27701 0.86568 0.42763 0.0
C1485 C 0.27919 0.86263 0.4469 0.0
C1486 C 0.3079 0.86982 0.48552 0.0
C1487 C 0.2957 0.8614 0.53633 0.0
C1488 C 0.29736 0.85967 0.51549 0.0
C1489 C 0.2949 0.86181 0.45471 0.0
C1490 C 0.29695 0.85989 0.47549 0.0
H1491 H 0.26614 0.86628 0.56958 0.0
H1492 H 0.26931 0.86146 0.53578 0.0
H1493 H 0.31605 0.87813 0.51269 0.0
H1494 H 0.31682 0.86844 0.41444 0.0
H1495 H 0.32066 0.86313 0.44832 0.0
C1496 C 0.13056 0.68852 0.42403 0.0
C1497 C 0.12959 0.70415 0.41606 0.0
C1498 C 0.13338 0.6866 0.44348 0.0
C1499 C 0.14775 0.70872 0.4862 0.0
H1500 H 0.11836 0.68012 0.51338 0.0
C1501 C 0.13124 0.71827 0.56419 0.0
C1502 C 0.12937 0.70466 0.57603 0.0
C1503 C 0.13408 0.71628 0.54485 0.0
C1504 C 0.12688 0.68792 0.50599 0.0
H1505 H 0.13127 0.72999 0.42198 0.0
H1506 H 0.13607 0.72668 0.45575 0.0
H1507 H 0.1185 0.67996 0.47878 0.0
H1508 H 0.1293 0.6783 0.57701 0.0
H1509 H 0.13417 0.67481 0.54299 0.0
H1510 H 0.15569 0.7171 0.51339 0.0
C1511 C 0.13483 0.71588 0.44707 0.0
C1512 C 0.12697 0.68783 0.48617 0.0
C1513 C 0.13194 0.71778 0.42773 0.0
C1514 C 0.13067 0.689 0.56819 0.0
C1515 C 0.1334 0.687 0.54875 0.0
C1516 C 0.14764 0.70883 0.50598 0.0
C1517 C 0.1354 0.70029 0.45522 0.0
C1518 C 0.13708 0.69857 0.47607 0.0
C1519 C 0.13504 0.70064 0.53687 0.0
C1520 C 0.13687 0.69878 0.51607 0.0
H1521 H 0.12881 0.67779 0.41534 0.0
H1522 H 0.13387 0.67443 0.44935 0.0
H1523 H 0.15591 0.7169 0.47881 0.0
H1524 H 0.13031 0.73049 0.56983 0.0
H1525 H 0.13504 0.72703 0.53603 0.0
C1526 C 0.27877 0.13291 0.42768 0.0
C1527 C 0.29235 0.13072 0.41589 0.0
C1528 C 0.28077 0.13567 0.44704 0.0
C1529 C 0.30902 0.1279 0.486 0.0
H1530 H 0.28 0.1568 0.51328 0.0
C1531 C 0.3083 0.13186 0.56805 0.0
C1532 C 0.29267 0.1306 0.57596 0.0
C1533 C 0.31022 0.13456 0.54858 0.0
C1534 C 0.2882 0.14869 0.50586 0.0
H1535 H 0.3187 0.13002 0.41502 0.0
H1536 H 0.32221 0.13482 0.44906 0.0
H1537 H 0.27995 0.15685 0.4787 0.0
H1538 H 0.26683 0.1316 0.56989 0.0
H1539 H 0.27016 0.13628 0.53607 0.0
H1540 H 0.31689 0.1194 0.5132 0.0
C1541 C 0.31002 0.13433 0.44326 0.0
C1542 C 0.28817 0.14871 0.48607 0.0
C1543 C 0.30802 0.13164 0.4238 0.0
C1544 C 0.27903 0.1325 0.56419 0.0
C1545 C 0.28094 0.13531 0.54483 0.0
C1546 C 0.30906 0.1279 0.50582 0.0
C1547 C 0.2964 0.13626 0.4551 0.0
C1548 C 0.29822 0.13797 0.47593 0.0
C1549 C 0.29654 0.13621 0.53676 0.0
C1550 C 0.2983 0.13795 0.51594 0.0
H1551 H 0.26655 0.13227 0.42199 0.0
H1552 H 0.27001 0.13684 0.4558 0.0
H1553 H 0.31682 0.1194 0.47859 0.0
H1554 H 0.31903 0.13046 0.57682 0.0
H1555 H 0.32239 0.13528 0.54275 0.0
C1556 C 0.86223 0.28414 0.42843 0.0
C1557 C 0.86652 0.29707 0.41644 0.0
C1558 C 0.85907 0.28691 0.44758 0.0
C1559 C 0.86971 0.31446 0.48607 0.0
H1560 H 0.8368 0.28986 0.51311 0.0
C1561 C 0.86641 0.31352 0.56805 0.0
C1562 C 0.86558 0.29773 0.57562 0.0
C1563 C 0.86355 0.31616 0.54872 0.0
C1564 C 0.84602 0.29685 0.50575 0.0
H1565 H 0.87049 0.32312 0.41491 0.0
H1566 H 0.86506 0.32796 0.44861 0.0
H1567 H 0.83707 0.28966 0.47852 0.0
H1568 H 0.86053 0.27244 0.56914 0.0
H1569 H 0.85559 0.27699 0.5356 0.0
H1570 H 0.87906 0.32111 0.51333 0.0
C1571 C 0.86418 0.31568 0.44313 0.0
C1572 C 0.84618 0.29673 0.48597 0.0
C1573 C 0.86722 0.31292 0.42387 0.0
C1574 C 0.8613 0.28474 0.5637 0.0
C1575 C 0.85833 0.28738 0.5445 0.0
C1576 C 0.86956 0.31457 0.50589 0.0
C1577 C 0.86021 0.30266 0.45521 0.0
C1578 C 0.85835 0.30509 0.47593 0.0
C1579 C 0.85963 0.30306 0.53672 0.0
C1580 C 0.85805 0.30531 0.51593 0.0
H1581 H 0.86157 0.27179 0.4231 0.0
H1582 H 0.8563 0.27658 0.45655 0.0
H1583 H 0.87931 0.32092 0.47874 0.0
H1584 H 0.86968 0.32376 0.57695 0.0
H1585 H 0.86456 0.32839 0.54313 0.0
C1586 C 0.68823 0.8714 0.56788 0.0
C1587 C 0.70179 0.87958 0.57542 0.0
C1588 C 0.68555 0.87116 0.54825 0.0
C1589 C 0.69597 0.89367 0.50481 0.0
H1590 H 0.68971 0.85283 0.47821 0.0
C1591 C 0.71465 0.88575 0.4279 0.0
C1592 C 0.7041 0.87779 0.41531 0.0
C1593 C 0.71142 0.88594 0.44727 0.0
C1594 C 0.69114 0.86435 0.48547 0.0
H1595 H 0.72312 0.89391 0.56844 0.0
H1596 H 0.71843 0.89356 0.53444 0.0
H1597 H 0.68915 0.85335 0.51298 0.0
H1598 H 0.682 0.86351 0.41311 0.0
H1599 H 0.67643 0.86365 0.44735 0.0
H1600 H 0.69853 0.90462 0.47749 0.0
C1601 C 0.7098 0.88742 0.54359 0.0
C1602 C 0.69081 0.86465 0.50533 0.0
C1603 C 0.71255 0.88752 0.56306 0.0
C1604 C 0.69033 0.86975 0.42253 0.0
C1605 C 0.68716 0.86981 0.44206 0.0
C1606 C 0.69629 0.89337 0.48507 0.0
C1607 C 0.69627 0.8793 0.53596 0.0
C1608 C 0.6938 0.87924 0.51515 0.0
C1609 C 0.6976 0.8781 0.45456 0.0
C1610 C 0.69446 0.87864 0.47522 0.0
H1611 H 0.67975 0.86515 0.57711 0.0
H1612 H 0.67503 0.86481 0.54271 0.0
H1613 H 0.69795 0.90514 0.51202 0.0
H1614 H 0.72539 0.89202 0.4228 0.0
H1615 H 0.71985 0.89216 0.4566 0.0
C1616 C 0.61547 0.77839 0.06508 0.0
C1617 C 0.619 0.79153 0.07713 0.0
C1618 C 0.61763 0.7798 0.04557 0.0
C1619 C 0.61922 0.80846 0.00631 0.0
H1620 H 0.64001 0.77234 0.98054 0.0
C1621 C 0.6268 0.80499 0.9242 0.0
C1622 C 0.62268 0.78983 0.91631 0.0
C1623 C 0.62817 0.80678 0.9439 0.0
C1624 C 0.63413 0.7825 0.98751 0.0
H1625 H 0.62724 0.81657 0.07819 0.0
H1626 H 0.63084 0.8191 0.04374 0.0
H1627 H 0.63891 0.77271 0.01503 0.0
H1628 H 0.61668 0.76473 0.92277 0.0
H1629 H 0.61892 0.76786 0.95687 0.0
H1630 H 0.61397 0.81796 0.97865 0.0
C1631 C 0.62648 0.80771 0.04956 0.0
C1632 C 0.63353 0.78273 0.00724 0.0
C1633 C 0.62446 0.80624 0.06921 0.0
C1634 C 0.61996 0.77655 0.9284 0.0
C1635 C 0.62136 0.77832 0.94797 0.0
C1636 C 0.61976 0.80821 0.98647 0.0
C1637 C 0.62326 0.79441 0.0376 0.0
C1638 C 0.62568 0.79546 0.01683 0.0
C1639 C 0.62554 0.79341 0.95597 0.0
C1640 C 0.62682 0.79497 0.97688 0.0
H1641 H 0.61119 0.76691 0.07073 0.0
H1642 H 0.61478 0.76944 0.03666 0.0
H1643 H 0.61306 0.81841 0.01338 0.0
H1644 H 0.62894 0.81544 0.91518 0.0
H1645 H 0.63145 0.81854 0.94967 0.0
C1646 C 0.21276 0.61319 0.92927 0.0
C1647 C 0.20106 0.61929 0.91665 0.0
C1648 C 0.20985 0.61314 0.9487 0.0
C1649 C 0.18718 0.6327 0.98663 0.0
H1650 H 0.19954 0.59378 0.01421 0.0
C1651 C 0.18462 0.62614 0.06922 0.0
C1652 C 0.19901 0.61979 0.07706 0.0
C1653 C 0.18227 0.6261 0.04954 0.0
C1654 C 0.19602 0.60473 0.00671 0.0
H1655 H 0.17723 0.63044 0.91445 0.0
H1656 H 0.1722 0.63053 0.9488 0.0
H1657 H 0.19997 0.59367 0.97969 0.0
H1658 H 0.22226 0.60864 0.07052 0.0
H1659 H 0.21814 0.60853 0.03643 0.0
H1660 H 0.18372 0.64387 0.01386 0.0
C1661 C 0.18358 0.62573 0.94349 0.0
C1662 C 0.19626 0.60466 0.98697 0.0
C1663 C 0.18645 0.62564 0.92389 0.0
C1664 C 0.21102 0.61357 0.06493 0.0
C1665 C 0.20862 0.6134 0.0454 0.0
C1666 C 0.18694 0.63277 0.00649 0.0
C1667 C 0.1952 0.61927 0.95602 0.0
C1668 C 0.19238 0.6188 0.97675 0.0
C1669 C 0.19418 0.61952 0.03749 0.0
C1670 C 0.19189 0.61892 0.01668 0.0
H1671 H 0.22416 0.60825 0.92414 0.0
H1672 H 0.21916 0.60837 0.95806 0.0
H1673 H 0.18414 0.64376 0.97906 0.0
H1674 H 0.17518 0.63104 0.07827 0.0
H1675 H 0.17104 0.6309 0.04377 0.0
C1676 C 0.36554 0.18646 0.06926 0.0
C1677 C 0.36616 0.20216 0.07712 0.0
C1678 C 0.36286 0.18437 0.0498 0.0
C1679 C 0.34787 0.20582 0.007 0.0
H1680 H 0.37808 0.17813 0.97979 0.0
C1681 C 0.36391 0.216 0.92909 0.0
C1682 C 0.36631 0.20254 0.91717 0.0
C1683 C 0.36113 0.21383 0.94841 0.0
C1684 C 0.36934 0.18566 0.98719 0.0
H1685 H 0.36404 0.22793 0.07096 0.0
H1686 H 0.35943 0.22431 0.03719 0.0
H1687 H 0.37803 0.17805 0.01441 0.0
H1688 H 0.36738 0.1762 0.91603 0.0
H1689 H 0.36259 0.17238 0.95005 0.0
H1690 H 0.33957 0.21386 0.97982 0.0
C1691 C 0.36086 0.21359 0.04597 0.0
C1692 C 0.3693 0.18562 0.00702 0.0
C1693 C 0.36363 0.21568 0.06531 0.0
C1694 C 0.36558 0.1868 0.92491 0.0
C1695 C 0.36291 0.18462 0.94435 0.0
C1696 C 0.34791 0.20588 0.98722 0.0
C1697 C 0.3606 0.19794 0.03794 0.0
C1698 C 0.35891 0.19607 0.01712 0.0
C1699 C 0.36074 0.19814 0.95631 0.0
C1700 C 0.35898 0.19617 0.97711 0.0
H1701 H 0.36744 0.17583 0.07806 0.0
H1702 H 0.36264 0.17217 0.04402 0.0
H1703 H 0.33949 0.21377 0.0144 0.0
H1704 H 0.3644 0.22828 0.92353 0.0
H1705 H 0.35977 0.22451 0.95728 0.0
C1706 C 0.77462 0.36745 0.0662 0.0
C1707 C 0.7887 0.36694 0.07744 0.0
C1708 C 0.77571 0.36656 0.04651 0.0
C1709 C 0.80221 0.35477 0.00667 0.0
H1710 H 0.77492 0.38509 0.97902 0.0
C1711 C 0.80547 0.36497 0.92487 0.0
C1712 C 0.79045 0.36681 0.9156 0.0
C1713 C 0.80616 0.3641 0.94469 0.0
C1714 C 0.7825 0.37643 0.98651 0.0
H1715 H 0.81496 0.36459 0.07696 0.0
H1716 H 0.8169 0.36317 0.04233 0.0
H1717 H 0.77453 0.38514 0.01346 0.0
H1718 H 0.76435 0.36847 0.91969 0.0
H1719 H 0.76554 0.36678 0.95406 0.0
H1720 H 0.81015 0.3461 0.9795 0.0
C1721 C 0.80501 0.36415 0.04883 0.0
C1722 C 0.78228 0.37646 0.00625 0.0
C1723 C 0.8039 0.36503 0.06862 0.0
C1724 C 0.77613 0.36722 0.92643 0.0
C1725 C 0.77681 0.36634 0.94613 0.0
C1726 C 0.80244 0.35475 0.98681 0.0
C1727 C 0.79092 0.3652 0.03757 0.0
C1728 C 0.79193 0.36548 0.01657 0.0
C1729 C 0.79184 0.36508 0.95552 0.0
C1730 C 0.79239 0.36543 0.97654 0.0
H1731 H 0.76271 0.36877 0.07259 0.0
H1732 H 0.7646 0.36705 0.03826 0.0
H1733 H 0.80974 0.34614 0.01425 0.0
H1734 H 0.8167 0.3646 0.91685 0.0
H1735 H 0.81792 0.36318 0.95154 0.0
C1736 C 0.6301 0.18476 0.068 0.0
C1737 C 0.62902 0.20038 0.07598 0.0
C1738 C 0.63296 0.18286 0.04856 0.0
C1739 C 0.64772 0.20487 0.0061 0.0
H1740 H 0.61829 0.17664 0.97844 0.0
C1741 C 0.6319 0.21499 0.92809 0.0
C1742 C 0.62956 0.20153 0.91615 0.0
C1743 C 0.63479 0.2128 0.94739 0.0
C1744 C 0.62683 0.18432 0.98596 0.0
H1745 H 0.63049 0.22624 0.07007 0.0
H1746 H 0.63542 0.22295 0.03629 0.0
H1747 H 0.6181 0.17642 0.01303 0.0
H1748 H 0.62878 0.17519 0.91491 0.0
H1749 H 0.63379 0.17133 0.94886 0.0
H1750 H 0.65608 0.21317 0.97905 0.0
C1751 C 0.6342 0.21215 0.04498 0.0
C1752 C 0.62672 0.1842 0.00577 0.0
C1753 C 0.63124 0.21404 0.06432 0.0
C1754 C 0.63052 0.18578 0.92381 0.0
C1755 C 0.63332 0.18358 0.94322 0.0
C1756 C 0.64784 0.20498 0.98632 0.0
C1757 C 0.63494 0.19656 0.03685 0.0
C1758 C 0.63682 0.19484 0.01603 0.0
C1759 C 0.63536 0.19709 0.95523 0.0
C1760 C 0.63705 0.19507 0.97604 0.0
H1761 H 0.62846 0.17402 0.07669 0.0
H1762 H 0.63355 0.1707 0.04269 0.0
H1763 H 0.65587 0.21297 0.01364 0.0
H1764 H 0.63125 0.22728 0.92259 0.0
H1765 H 0.63605 0.22347 0.95629 0.0
C1766 C 0.80869 0.6245 0.07 0.0
C1767 C 0.79427 0.61756 0.07703 0.0
C1768 C 0.8119 0.62443 0.05048 0.0
C1769 C 0.80096 0.60239 0.007 0.0
H1770 H 0.81086 0.64227 0.97997 0.0
C1771 C 0.78479 0.61061 0.92935 0.0
C1772 C 0.79616 0.61772 0.91705 0.0
C1773 C 0.78754 0.61038 0.94882 0.0
C1774 C 0.80841 0.63099 0.98737 0.0
H1775 H 0.7719 0.60522 0.06926 0.0
H1776 H 0.77751 0.60503 0.03548 0.0
H1777 H 0.81053 0.64221 0.01475 0.0
H1778 H 0.81925 0.63041 0.91547 0.0
H1779 H 0.824 0.63017 0.94986 0.0
H1780 H 0.79828 0.59125 0.9798 0.0
C1781 C 0.7864 0.61042 0.04494 0.0
C1782 C 0.80822 0.63096 0.00723 0.0
C1783 C 0.78313 0.61064 0.06429 0.0
C1784 C 0.81029 0.62483 0.92466 0.0
C1785 C 0.813 0.62472 0.94427 0.0
C1786 C 0.80115 0.60242 0.98726 0.0
C1787 C 0.80083 0.61721 0.03783 0.0
C1788 C 0.80391 0.61678 0.01716 0.0
C1789 C 0.8017 0.61732 0.95649 0.0
C1790 C 0.80429 0.61684 0.97725 0.0
H1791 H 0.81747 0.62994 0.07954 0.0
H1792 H 0.8231 0.62976 0.04531 0.0
H1793 H 0.79793 0.59121 0.01434 0.0
H1794 H 0.77377 0.60507 0.92393 0.0
H1795 H 0.77848 0.60485 0.95793 0.0
C1796 C 0.36832 0.78025 0.92903 0.0
C1797 C 0.36968 0.79373 0.91691 0.0
C1798 C 0.366 0.78242 0.94842 0.0
C1799 C 0.37322 0.81095 0.98711 0.0
H1800 H 0.34432 0.78177 0.01421 0.0
C1801 C 0.36784 0.80966 0.06945 0.0
C1802 C 0.36891 0.79393 0.0772 0.0
C1803 C 0.36588 0.81178 0.04987 0.0
C1804 C 0.35243 0.79002 0.00684 0.0
H1805 H 0.36961 0.82008 0.91554 0.0
H1806 H 0.36564 0.8239 0.94974 0.0
H1807 H 0.34441 0.78175 0.97966 0.0
H1808 H 0.36864 0.76815 0.07064 0.0
H1809 H 0.36522 0.77184 0.03669 0.0
H1810 H 0.38158 0.81883 0.01442 0.0
C1811 C 0.36638 0.81166 0.94411 0.0
C1812 C 0.35248 0.79001 0.98708 0.0
C1813 C 0.36858 0.80948 0.92458 0.0
C1814 C 0.36783 0.78042 0.0651 0.0
C1815 C 0.36575 0.78253 0.04565 0.0
C1816 C 0.37316 0.81096 0.00696 0.0
C1817 C 0.36504 0.79813 0.95621 0.0
C1818 C 0.36324 0.80009 0.977 0.0
C1819 C 0.36477 0.79821 0.03781 0.0
C1820 C 0.36312 0.80011 0.01699 0.0
H1821 H 0.36913 0.76796 0.92355 0.0
H1822 H 0.3653 0.77175 0.9574 0.0
H1823 H 0.38169 0.8188 0.97972 0.0
H1824 H 0.36865 0.82029 0.07848 0.0
H1825 H 0.36513 0.824 0.04419 0.0
C1826 C 0.18587 0.36383 0.9257 0.0
C1827 C 0.20135 0.36554 0.91749 0.0
C1828 C 0.18429 0.36143 0.94527 0.0
C1829 C 0.20747 0.34871 0.98777 0.0
H1830 H 0.17758 0.37653 0.01528 0.0
C1831 C 0.21651 0.3648 0.06595 0.0
C1832 C 0.20289 0.36594 0.07786 0.0
C1833 C 0.21458 0.36219 0.04655 0.0
C1834 C 0.18576 0.36845 0.0078 0.0
H1835 H 0.22728 0.36577 0.92318 0.0
H1836 H 0.22453 0.36164 0.95715 0.0
H1837 H 0.17723 0.37645 0.98066 0.0
H1838 H 0.17655 0.36498 0.07892 0.0
H1839 H 0.17315 0.36047 0.04481 0.0
H1840 H 0.21635 0.34107 0.01485 0.0
C1841 C 0.21361 0.362 0.94855 0.0
C1842 C 0.18556 0.3684 0.98797 0.0
C1843 C 0.21519 0.3645 0.9291 0.0
C1844 C 0.18727 0.36417 0.07004 0.0
C1845 C 0.18532 0.36166 0.05054 0.0
C1846 C 0.20767 0.34875 0.00754 0.0
C1847 C 0.19816 0.36054 0.95689 0.0
C1848 C 0.19673 0.35887 0.97776 0.0
C1849 C 0.19898 0.36071 0.03859 0.0
C1850 C 0.19714 0.35896 0.01777 0.0
H1851 H 0.175 0.36457 0.91706 0.0
H1852 H 0.17223 0.36027 0.9513 0.0
H1853 H 0.216 0.34099 0.98028 0.0
H1854 H 0.22871 0.36611 0.07157 0.0
H1855 H 0.22533 0.36178 0.03769 0.0
C1856 C 0.16383 0.3582 0.17767 0.0
C1857 C 0.17782 0.36777 0.18013 0.0
C1858 C 0.15419 0.35402 0.19324 0.0
C1859 C 0.14624 0.36378 0.24387 0.0
H1860 H 0.13532 0.31798 0.24716 0.0
C1861 C 0.13399 0.33048 0.31432 0.0
C1862 C 0.12273 0.31764 0.31445 0.0
C1863 C 0.13761 0.3386 0.29744 0.0
C1864 C 0.13795 0.33087 0.24635 0.0
H1865 H 0.19237 0.38101 0.20063 0.0
H1866 H 0.17573 0.37353 0.22781 0.0
H1867 H 0.14723 0.32861 0.21819 0.0
H1868 H 0.10566 0.30387 0.29735 0.0
H1869 H 0.11181 0.31817 0.26792 0.0
H1870 H 0.1374 0.36587 0.27234 0.0
C1871 C 0.17205 0.3694 0.21387 0.0
C1872 C 0.14479 0.33698 0.22971 0.0
C1873 C 0.18167 0.37358 0.19831 0.0
C1874 C 0.11451 0.31363 0.29763 0.0
C1875 C 0.11809 0.32177 0.28077 0.0
C1876 C 0.13939 0.35766 0.26054 0.0
C1877 C 0.15837 0.35934 0.21156 0.0
C1878 C 0.14932 0.35342 0.22841 0.0
C1879 C 0.12998 0.33405 0.28038 0.0
C1880 C 0.13547 0.34107 0.26208 0.0
H1881 H 0.16051 0.35365 0.16378 0.0
H1882 H 0.1436 0.34641 0.19099 0.0
H1883 H 0.14938 0.37657 0.24319 0.0
H1884 H 0.1405 0.33383 0.3271 0.0
H1885 H 0.14694 0.3479 0.2976 0.0
C1886 C 0.63432 0.16137 0.17608 0.0
C1887 C 0.62491 0.1755 0.17829 0.0
C1888 C 0.63895 0.15225 0.1919 0.0
C1889 C 0.63148 0.1465 0.24352 0.0
H1890 H 0.67747 0.13611 0.24454 0.0
C1891 C 0.66816 0.13743 0.31245 0.0
C1892 C 0.68088 0.12604 0.31242 0.0
C1893 C 0.65934 0.14047 0.29588 0.0
C1894 C 0.66453 0.13861 0.2444 0.0
H1895 H 0.61228 0.19073 0.19861 0.0
H1896 H 0.62056 0.17501 0.22621 0.0
H1897 H 0.66536 0.14653 0.21559 0.0
H1898 H 0.6938 0.10827 0.2954 0.0
H1899 H 0.67831 0.11345 0.26657 0.0
H1900 H 0.63087 0.13907 0.27263 0.0
C1901 C 0.62422 0.17082 0.2123 0.0
C1902 C 0.65757 0.14458 0.22777 0.0
C1903 C 0.61957 0.17991 0.19648 0.0
C1904 C 0.68416 0.11724 0.29579 0.0
C1905 C 0.67532 0.12024 0.27926 0.0
C1906 C 0.63846 0.14054 0.26021 0.0
C1907 C 0.63428 0.15711 0.21023 0.0
C1908 C 0.64104 0.14889 0.22722 0.0
C1909 C 0.66307 0.13215 0.27901 0.0
C1910 C 0.65514 0.13682 0.26091 0.0
H1911 H 0.6385 0.15762 0.16219 0.0
H1912 H 0.6465 0.1416 0.18982 0.0
H1913 H 0.61865 0.1495 0.24346 0.0
H1914 H 0.66536 0.14437 0.32509 0.0
H1915 H 0.65007 0.14983 0.29611 0.0
C1916 C 0.80761 0.61717 0.19993 0.0
C1917 C 0.81224 0.6238 0.1824 0.0
C1918 C 0.81599 0.62132 0.21643 0.0
C1919 C 0.85371 0.6406 0.23468 0.0
H1920 H 0.82621 0.65118 0.27761 0.0
C1921 C 0.87408 0.68089 0.29739 0.0
C1922 C 0.86822 0.67709 0.31556 0.0
C1923 C 0.86899 0.67194 0.28164 0.0
C1924 C 0.83411 0.64799 0.2659 0.0
H1925 H 0.82957 0.63949 0.16821 0.0
H1926 H 0.84404 0.64706 0.19715 0.0
H1927 H 0.81407 0.64011 0.249 0.0
H1928 H 0.85312 0.66046 0.33169 0.0
H1929 H 0.84429 0.64476 0.30417 0.0
H1930 H 0.87371 0.649 0.25156 0.0
C1931 C 0.83408 0.63846 0.19812 0.0
C1932 C 0.82715 0.64164 0.24947 0.0
C1933 C 0.82574 0.63422 0.18156 0.0
C1934 C 0.85775 0.66373 0.31782 0.0
C1935 C 0.85264 0.65479 0.30207 0.0
C1936 C 0.86069 0.64701 0.25115 0.0
C1937 C 0.8291 0.63228 0.21579 0.0
C1938 C 0.83683 0.63801 0.2336 0.0
C1939 C 0.85792 0.65903 0.28377 0.0
C1940 C 0.85092 0.65093 0.26685 0.0
H1941 H 0.79735 0.60895 0.20097 0.0
H1942 H 0.81204 0.61609 0.22976 0.0
H1943 H 0.86152 0.63773 0.22278 0.0
H1944 H 0.8822 0.69111 0.29524 0.0
H1945 H 0.87316 0.6756 0.26772 0.0
C1946 C 0.35574 0.82898 0.18035 0.0
C1947 C 0.36704 0.8162 0.18131 0.0
C1948 C 0.35179 0.83785 0.19663 0.0
C1949 C 0.35149 0.83305 0.24841 0.0
H1950 H 0.34061 0.87895 0.24832 0.0
C1951 C 0.32883 0.86424 0.316 0.0
C1952 C 0.31458 0.87343 0.3137 0.0
C1953 C 0.3379 0.85947 0.30021 0.0
C1954 C 0.34361 0.86612 0.24853 0.0
H1955 H 0.38377 0.80327 0.1997 0.0
H1956 H 0.37714 0.81892 0.22796 0.0
H1957 H 0.35165 0.8664 0.21964 0.0
H1958 H 0.2991 0.88562 0.29325 0.0
H1959 H 0.31481 0.87714 0.26568 0.0
H1960 H 0.34313 0.8326 0.27705 0.0
C1961 C 0.37101 0.82185 0.2148 0.0
C1962 C 0.34989 0.85893 0.23212 0.0
C1963 C 0.37485 0.81293 0.1986 0.0
C1964 C 0.31002 0.87849 0.29543 0.0
C1965 C 0.31908 0.87372 0.27965 0.0
C1966 C 0.34526 0.84022 0.26477 0.0
C1967 C 0.35916 0.83416 0.21412 0.0
C1968 C 0.3537 0.84226 0.23182 0.0
C1969 C 0.33288 0.8638 0.28183 0.0
C1970 C 0.34104 0.85678 0.26496 0.0
H1971 H 0.34955 0.83176 0.16718 0.0
H1972 H 0.34251 0.84716 0.19565 0.0
H1973 H 0.35399 0.82011 0.24859 0.0
H1974 H 0.33271 0.86027 0.32993 0.0
H1975 H 0.34863 0.85205 0.30235 0.0
C1976 C 0.18625 0.61802 0.79373 0.0
C1977 C 0.18182 0.6248 0.81125 0.0
C1978 C 0.17802 0.62241 0.77721 0.0
C1979 C 0.14098 0.64277 0.75881 0.0
H1980 H 0.169 0.65295 0.71621 0.0
C1981 C 0.12178 0.6839 0.69642 0.0
C1982 C 0.12766 0.68018 0.67824 0.0
C1983 C 0.12666 0.67474 0.71209 0.0
C1984 C 0.16095 0.64988 0.72782 0.0
H1985 H 0.16494 0.641 0.82541 0.0
H1986 H 0.15072 0.64895 0.79643 0.0
H1987 H 0.18067 0.64136 0.7448 0.0
H1988 H 0.14261 0.6635 0.66201 0.0
H1989 H 0.15106 0.6474 0.68939 0.0
H1990 H 0.1213 0.65176 0.74185 0.0
C1991 C 0.16042 0.64007 0.79549 0.0
C1992 C 0.16764 0.64324 0.74424 0.0
C1993 C 0.16861 0.63561 0.81207 0.0
C1994 C 0.13797 0.66671 0.67589 0.0
C1995 C 0.14286 0.65755 0.69156 0.0
C1996 C 0.13426 0.64945 0.74234 0.0
C1997 C 0.16525 0.63375 0.77783 0.0
C1998 C 0.15778 0.63976 0.76 0.0
C1999 C 0.13752 0.66168 0.70988 0.0
C2000 C 0.14422 0.65325 0.72675 0.0
H2001 H 0.19628 0.60952 0.7927 0.0
H2002 H 0.18184 0.61708 0.76389 0.0
H2003 H 0.13303 0.64002 0.77063 0.0
H2004 H 0.11379 0.6942 0.69865 0.0
H2005 H 0.12246 0.67833 0.72603 0.0
C2006 C 0.31231 0.12243 0.69691 0.0
C2007 C 0.3166 0.12803 0.67878 0.0
C2008 C 0.32137 0.12703 0.71277 0.0
C2009 C 0.34775 0.16017 0.72891 0.0
H2010 H 0.35472 0.13211 0.77238 0.0
C2011 C 0.37855 0.18435 0.79614 0.0
C2012 C 0.37061 0.18066 0.81323 0.0
C2013 C 0.37454 0.1761 0.7795 0.0
C2014 C 0.35282 0.14009 0.76036 0.0
H2015 H 0.33415 0.14221 0.66287 0.0
H2016 H 0.35011 0.15014 0.69058 0.0
H2017 H 0.34317 0.12081 0.74327 0.0
H2018 H 0.35276 0.16497 0.82653 0.0
H2019 H 0.34554 0.15067 0.79737 0.0
H2020 H 0.35697 0.17952 0.74603 0.0
C2021 C 0.33958 0.14239 0.69257 0.0
C2022 C 0.34622 0.13363 0.74371 0.0
C2023 C 0.33049 0.1378 0.6767 0.0
C2024 C 0.35907 0.16807 0.81355 0.0
C2025 C 0.35501 0.15982 0.79687 0.0
C2026 C 0.35435 0.16661 0.74551 0.0
C2027 C 0.33493 0.13732 0.71083 0.0
C2028 C 0.34339 0.14366 0.72789 0.0
C2029 C 0.36244 0.16401 0.77958 0.0
C2030 C 0.35675 0.1567 0.76152 0.0
H2031 H 0.30166 0.11486 0.69895 0.0
H2032 H 0.31734 0.12306 0.72664 0.0
H2033 H 0.34547 0.1683 0.71712 0.0
H2034 H 0.38761 0.19391 0.7955 0.0
H2035 H 0.38068 0.1794 0.76648 0.0
C2036 C 0.88333 0.3124 0.69638 0.0
C2037 C 0.87527 0.31702 0.67966 0.0
C2038 C 0.88014 0.32041 0.71343 0.0
C2039 C 0.86033 0.35681 0.73447 0.0
H2040 H 0.85112 0.32741 0.77611 0.0
C2041 C 0.81738 0.37283 0.7958 0.0
C2042 C 0.82059 0.36664 0.81398 0.0
C2043 C 0.82733 0.36873 0.78053 0.0
C2044 C 0.85397 0.33586 0.76481 0.0
H2045 H 0.85818 0.33414 0.66743 0.0
H2046 H 0.85239 0.34798 0.69725 0.0
H2047 H 0.86285 0.31681 0.74703 0.0
H2048 H 0.83714 0.35191 0.83064 0.0
H2049 H 0.85464 0.34476 0.80388 0.0
H2050 H 0.85088 0.37578 0.75212 0.0
C2051 C 0.86132 0.3383 0.69718 0.0
C2052 C 0.8607 0.32978 0.7481 0.0
C2053 C 0.86456 0.33031 0.68011 0.0
C2054 C 0.83433 0.35678 0.81675 0.0
C2055 C 0.8443 0.35264 0.80143 0.0
C2056 C 0.85359 0.36291 0.75121 0.0
C2057 C 0.86878 0.33317 0.71412 0.0
C2058 C 0.86361 0.34011 0.73258 0.0
C2059 C 0.84072 0.35834 0.78309 0.0
C2060 C 0.84997 0.35243 0.76639 0.0
H2061 H 0.89178 0.30228 0.69642 0.0
H2062 H 0.88627 0.31634 0.72617 0.0
H2063 H 0.86268 0.36512 0.72287 0.0
H2064 H 0.80689 0.3805 0.79324 0.0
H2065 H 0.8241 0.37315 0.76656 0.0
C2066 C 0.68732 0.87419 0.69824 0.0
C2067 C 0.68202 0.87029 0.67986 0.0
C2068 C 0.67865 0.86882 0.71405 0.0
C2069 C 0.65167 0.83587 0.72855 0.0
H2070 H 0.64584 0.86184 0.77396 0.0
C2071 C 0.62052 0.80921 0.7943 0.0
C2072 C 0.62797 0.81243 0.81182 0.0
C2073 C 0.62504 0.81787 0.77813 0.0
C2074 C 0.64747 0.85441 0.76143 0.0
H2075 H 0.66319 0.85823 0.66354 0.0
H2076 H 0.64801 0.8488 0.69124 0.0
H2077 H 0.65737 0.8743 0.74552 0.0
H2078 H 0.64561 0.82755 0.82635 0.0
H2079 H 0.65383 0.84247 0.79798 0.0
H2080 H 0.64231 0.81586 0.74447 0.0
C2081 C 0.65895 0.8559 0.69339 0.0
C2082 C 0.65403 0.86155 0.74515 0.0
C2083 C 0.6676 0.86135 0.67756 0.0
C2084 C 0.63967 0.82484 0.81301 0.0
C2085 C 0.64429 0.83343 0.79677 0.0
C2086 C 0.6452 0.82872 0.74482 0.0
C2087 C 0.66454 0.85938 0.7118 0.0
C2088 C 0.65635 0.8523 0.72861 0.0
C2089 C 0.63722 0.82985 0.77908 0.0
C2090 C 0.64316 0.83785 0.76151 0.0
H2091 H 0.69839 0.88109 0.70044 0.0
H2092 H 0.68336 0.87154 0.72804 0.0
H2093 H 0.65357 0.82835 0.71614 0.0
H2094 H 0.61134 0.79982 0.79301 0.0
H2095 H 0.61911 0.81503 0.76482 0.0
C2096 C 0.87933 0.68536 0.69807 0.0
C2097 C 0.87131 0.68167 0.68102 0.0
C2098 C 0.87571 0.67676 0.7146 0.0
C2099 C 0.85488 0.63986 0.73298 0.0
H2100 H 0.84781 0.66681 0.77735 0.0
C2101 C 0.81379 0.62114 0.79519 0.0
C2102 C 0.8183 0.6257 0.81364 0.0
C2103 C 0.82303 0.62611 0.77965 0.0
C2104 C 0.85002 0.65904 0.76522 0.0
H2105 H 0.85368 0.66575 0.66766 0.0
H2106 H 0.84708 0.65095 0.69661 0.0
H2107 H 0.85903 0.67889 0.74876 0.0
H2108 H 0.83634 0.63847 0.83043 0.0
H2109 H 0.85253 0.6472 0.80319 0.0
H2110 H 0.84528 0.62012 0.74936 0.0
C2111 C 0.85635 0.6603 0.69719 0.0
C2112 C 0.85647 0.66596 0.74881 0.0
C2113 C 0.86004 0.66885 0.68063 0.0
C2114 C 0.83254 0.63486 0.81634 0.0
C2115 C 0.84176 0.63989 0.80076 0.0
C2116 C 0.84838 0.63294 0.74941 0.0
C2117 C 0.86393 0.66437 0.71444 0.0
C2118 C 0.85869 0.65653 0.73239 0.0
C2119 C 0.83695 0.63578 0.78224 0.0
C2120 C 0.8456 0.64253 0.76558 0.0
H2121 H 0.88819 0.6951 0.69874 0.0
H2122 H 0.88196 0.68001 0.72758 0.0
H2123 H 0.8567 0.63221 0.72066 0.0
H2124 H 0.80289 0.61404 0.79269 0.0
H2125 H 0.81889 0.62291 0.76555 0.0
C2126 C 0.37647 0.81124 0.79509 0.0
C2127 C 0.36878 0.81483 0.81237 0.0
C2128 C 0.37233 0.81969 0.77864 0.0
C2129 C 0.35098 0.85622 0.7604 0.0
H2130 H 0.34366 0.82887 0.7164 0.0
C2131 C 0.3115 0.8754 0.69659 0.0
C2132 C 0.31598 0.86998 0.67844 0.0
C2133 C 0.32031 0.8705 0.71252 0.0
C2134 C 0.34593 0.83676 0.72841 0.0
H2135 H 0.35119 0.83049 0.82618 0.0
H2136 H 0.34371 0.84512 0.7973 0.0
H2137 H 0.35468 0.81699 0.74518 0.0
H2138 H 0.33363 0.8559 0.66258 0.0
H2139 H 0.34914 0.84747 0.69043 0.0
H2140 H 0.3418 0.87593 0.74363 0.0
C2141 C 0.35309 0.8359 0.79652 0.0
C2142 C 0.35225 0.82994 0.74495 0.0
C2143 C 0.3573 0.82747 0.81303 0.0
C2144 C 0.32984 0.86016 0.67642 0.0
C2145 C 0.33866 0.85528 0.69237 0.0
C2146 C 0.34464 0.86306 0.74381 0.0
C2147 C 0.36034 0.83187 0.77907 0.0
C2148 C 0.35468 0.83954 0.7612 0.0
C2149 C 0.33378 0.86011 0.71063 0.0
C2150 C 0.34187 0.85335 0.72771 0.0
H2151 H 0.38549 0.80167 0.79419 0.0
H2152 H 0.37835 0.81651 0.7655 0.0
H2153 H 0.35291 0.86397 0.77261 0.0
H2154 H 0.30088 0.883 0.69857 0.0
H2155 H 0.31612 0.87431 0.72639 0.0
C2156 C 0.11386 0.30977 0.69719 0.0
C2157 C 0.12207 0.31392 0.68041 0.0
C2158 C 0.11733 0.31788 0.71411 0.0
C2159 C 0.13788 0.35414 0.7344 0.0
H2160 H 0.14602 0.32543 0.777 0.0
C2161 C 0.17946 0.37126 0.79678 0.0
C2162 C 0.17568 0.3655 0.81499 0.0
C2163 C 0.17 0.36676 0.78121 0.0
C2164 C 0.14348 0.33369 0.7654 0.0
H2165 H 0.13978 0.33026 0.66794 0.0
H2166 H 0.14601 0.3443 0.69753 0.0
H2167 H 0.1345 0.31444 0.74796 0.0
H2168 H 0.15865 0.35107 0.83137 0.0
H2169 H 0.14201 0.34327 0.80412 0.0
H2170 H 0.14734 0.37332 0.75175 0.0
C2171 C 0.13677 0.3349 0.6976 0.0
C2172 C 0.13688 0.32738 0.74873 0.0
C2173 C 0.13328 0.3268 0.68067 0.0
C2174 C 0.16191 0.35561 0.81746 0.0
C2175 C 0.15242 0.3511 0.80186 0.0
C2176 C 0.14448 0.36046 0.75111 0.0
C2177 C 0.12909 0.33028 0.71459 0.0
C2178 C 0.13431 0.33746 0.73291 0.0
C2179 C 0.15654 0.35641 0.78352 0.0
C2180 C 0.14767 0.35024 0.76665 0.0
H2181 H 0.10506 0.29996 0.69737 0.0
H2182 H 0.11104 0.31421 0.7269 0.0
H2183 H 0.1358 0.36225 0.72254 0.0
H2184 H 0.19 0.37892 0.79445 0.0
H2185 H 0.17364 0.37089 0.76726 0.0
C2186 C 0.6815 0.124 0.69636 0.0
C2187 C 0.67715 0.12943 0.67818 0.0
C2188 C 0.67192 0.12792 0.71203 0.0
C2189 C 0.64372 0.15941 0.72792 0.0
H2190 H 0.63792 0.13077 0.7711 0.0
C2191 C 0.61372 0.18267 0.79591 0.0
C2192 C 0.6222 0.17909 0.81268 0.0
C2193 C 0.6173 0.17439 0.77915 0.0
C2194 C 0.63947 0.13891 0.75916 0.0
H2195 H 0.65901 0.14258 0.66195 0.0
H2196 H 0.64219 0.14938 0.68938 0.0
H2197 H 0.64987 0.12017 0.74189 0.0
H2198 H 0.64046 0.16349 0.82537 0.0
H2199 H 0.64696 0.14921 0.79602 0.0
H2200 H 0.63388 0.17827 0.74525 0.0
C2201 C 0.65313 0.14227 0.69153 0.0
C2202 C 0.64629 0.13284 0.74244 0.0
C2203 C 0.66272 0.13833 0.67584 0.0
C2204 C 0.63375 0.16651 0.81263 0.0
C2205 C 0.6374 0.15827 0.79583 0.0
C2206 C 0.63693 0.16547 0.74459 0.0
C2207 C 0.65779 0.13735 0.70985 0.0
C2208 C 0.64878 0.14312 0.72677 0.0
C2209 C 0.6295 0.16242 0.7788 0.0
C2210 C 0.635 0.15537 0.76052 0.0
H2211 H 0.69255 0.11708 0.69858 0.0
H2212 H 0.67597 0.12412 0.72596 0.0
H2213 H 0.64571 0.16772 0.71623 0.0
H2214 H 0.60463 0.1922 0.79558 0.0
H2215 H 0.61079 0.17765 0.76635 0.0
C2216 C 0.81418 0.37184 0.19758 0.0
C2217 C 0.81754 0.36596 0.1793 0.0
C2218 C 0.82416 0.36768 0.21282 0.0
C2219 C 0.85158 0.33523 0.22808 0.0
H2220 H 0.85988 0.36432 0.27029 0.0
C2221 C 0.88258 0.31217 0.29581 0.0
C2222 C 0.87458 0.31638 0.3127 0.0
C2223 C 0.87885 0.32016 0.27889 0.0
C2224 C 0.85764 0.35606 0.25861 0.0
H2225 H 0.83435 0.35168 0.16246 0.0
H2226 H 0.8519 0.34446 0.18916 0.0
H2227 H 0.84755 0.37494 0.2413 0.0
H2228 H 0.857 0.33274 0.32538 0.0
H2229 H 0.8503 0.34656 0.29579 0.0
H2230 H 0.86116 0.31626 0.24551 0.0
C2231 C 0.84142 0.35213 0.19171 0.0
C2232 C 0.85059 0.36213 0.24202 0.0
C2233 C 0.83142 0.35631 0.17643 0.0
C2234 C 0.86334 0.32924 0.31255 0.0
C2235 C 0.85959 0.33722 0.29562 0.0
C2236 C 0.85863 0.32917 0.24463 0.0
C2237 C 0.83773 0.35756 0.21013 0.0
C2238 C 0.84715 0.3517 0.22674 0.0
C2239 C 0.86702 0.3325 0.27852 0.0
C2240 C 0.86142 0.33945 0.26023 0.0
H2241 H 0.80357 0.37932 0.20022 0.0
H2242 H 0.82084 0.37189 0.22685 0.0
H2243 H 0.84887 0.32681 0.21668 0.0
H2244 H 0.8914 0.30238 0.29553 0.0
H2245 H 0.88496 0.31643 0.266 0.0
C2246 C 0.62935 0.83052 0.17963 0.0
C2247 C 0.62721 0.81364 0.18139 0.0
C2248 C 0.63405 0.83983 0.19532 0.0
C2249 C 0.65444 0.85432 0.22706 0.0
H2250 H 0.64176 0.84114 0.27772 0.0
C2251 C 0.6926 0.87038 0.29241 0.0
C2252 C 0.68505 0.87219 0.31012 0.0
C2253 C 0.68356 0.86588 0.27652 0.0
C2254 C 0.64523 0.84525 0.26371 0.0
H2255 H 0.62825 0.79325 0.20086 0.0
H2256 H 0.63693 0.80926 0.2279 0.0
H2257 H 0.62877 0.82865 0.25048 0.0
H2258 H 0.66202 0.87143 0.32501 0.0
H2259 H 0.64605 0.86403 0.2971 0.0
H2260 H 0.67065 0.87117 0.24032 0.0
C2261 C 0.63455 0.8155 0.21467 0.0
C2262 C 0.63795 0.83788 0.24804 0.0
C2263 C 0.62971 0.80626 0.19909 0.0
C2264 C 0.66817 0.86996 0.31154 0.0
C2265 C 0.65905 0.86566 0.29556 0.0
C2266 C 0.66156 0.86187 0.24275 0.0
C2267 C 0.63682 0.8324 0.21301 0.0
C2268 C 0.64284 0.84192 0.22952 0.0
C2269 C 0.66668 0.86329 0.27791 0.0
C2270 C 0.65743 0.85706 0.26128 0.0
H2271 H 0.6274 0.83653 0.16615 0.0
H2272 H 0.6355 0.85284 0.19358 0.0
H2273 H 0.65856 0.85774 0.21304 0.0
H2274 H 0.70562 0.87197 0.2909 0.0
H2275 H 0.68995 0.86388 0.26331 0.0
C2276 C 0.11321 0.68239 0.29695 0.0
C2277 C 0.12209 0.67966 0.31366 0.0
C2278 C 0.11667 0.67355 0.28054 0.0
C2279 C 0.13929 0.63774 0.26202 0.0
H2280 H 0.14373 0.66461 0.21711 0.0
C2281 C 0.18063 0.62122 0.19923 0.0
C2282 C 0.17569 0.62542 0.18081 0.0
C2283 C 0.17122 0.62564 0.21486 0.0
C2284 C 0.14225 0.65683 0.22939 0.0
H2285 H 0.14102 0.66506 0.32663 0.0
H2286 H 0.14732 0.64983 0.29789 0.0
H2287 H 0.13224 0.67622 0.2458 0.0
H2288 H 0.15673 0.63694 0.16419 0.0
H2289 H 0.14023 0.64468 0.19157 0.0
H2290 H 0.1499 0.61852 0.24566 0.0
C2291 C 0.13752 0.65863 0.29748 0.0
C2292 C 0.13565 0.66349 0.24587 0.0
C2293 C 0.13399 0.66742 0.31393 0.0
C2294 C 0.16088 0.63363 0.17825 0.0
C2295 C 0.15147 0.6381 0.19391 0.0
C2296 C 0.14594 0.63109 0.24552 0.0
C2297 C 0.12915 0.66187 0.28049 0.0
C2298 C 0.13439 0.65412 0.26249 0.0
C2299 C 0.15669 0.63438 0.2124 0.0
C2300 C 0.14779 0.64067 0.22915 0.0
H2301 H 0.10385 0.69165 0.29639 0.0
H2302 H 0.10982 0.67613 0.26778 0.0
H2303 H 0.13825 0.63014 0.2745 0.0
H2304 H 0.19198 0.61485 0.20164 0.0
H2305 H 0.17569 0.62277 0.22892 0.0
C2306 C 0.3316 0.13493 0.3162 0.0
C2307 C 0.3172 0.12597 0.31382 0.0
C2308 C 0.34102 0.13923 0.30049 0.0
C2309 C 0.34723 0.13125 0.24908 0.0
H2310 H 0.35948 0.1768 0.24796 0.0
C2311 C 0.35967 0.16687 0.18007 0.0
C2312 C 0.37146 0.17923 0.18042 0.0
C2313 C 0.35584 0.15831 0.19661 0.0
C2314 C 0.35646 0.16397 0.24813 0.0
H2315 H 0.30172 0.11385 0.2933 0.0
H2316 H 0.31799 0.12155 0.26589 0.0
H2317 H 0.34797 0.16533 0.27669 0.0
H2318 H 0.38914 0.19172 0.198 0.0
H2319 H 0.38262 0.17665 0.22677 0.0
H2320 H 0.35531 0.13009 0.22024 0.0
C2321 C 0.32215 0.1251 0.27986 0.0
C2322 C 0.34985 0.15738 0.26464 0.0
C2323 C 0.31276 0.12079 0.29556 0.0
C2324 C 0.37988 0.18236 0.19736 0.0
C2325 C 0.37611 0.17378 0.21385 0.0
C2326 C 0.35385 0.13786 0.23252 0.0
C2327 C 0.33619 0.13468 0.2821 0.0
C2328 C 0.3449 0.14103 0.26522 0.0
C2329 C 0.36377 0.16193 0.21378 0.0
C2330 C 0.35828 0.15436 0.23178 0.0
H2331 H 0.33537 0.13899 0.33013 0.0
H2332 H 0.3519 0.14642 0.3027 0.0
H2333 H 0.34372 0.11855 0.24917 0.0
H2334 H 0.35299 0.1642 0.1672 0.0
H2335 H 0.34617 0.14937 0.1961 0.0
loop_
_geom_bond_atom_site_label_1
_geom_bond_atom_site_label_2
_geom_bond_distance
_geom_bond_site_symmetry_2
_ccdc_geom_bond_type
In0 O1 2.294 . S
In0 O2 2.326 . S
In0 O6 2.266 . S
In0 O7 2.326 . S
In0 O8 2.266 . S
In0 O9 2.326 . S
In0 O11 2.294 . S
In0 O12 2.326 . S
O1 In0 2.294 . S
O1 C10 1.240 . S
O2 In0 2.326 . S
O2 C10 1.252 . S
C3 O6 1.252 . S
C3 O7 1.260 . S
C4 O11 1.240 . S
C4 O12 1.252 . S
C5 O8 1.252 . S
C5 O9 1.260 . S
O6 In0 2.266 . S
O6 C3 1.252 . S
O7 In0 2.326 . S
O7 C3 1.260 . S
O8 In0 2.266 . S
O8 C5 1.252 . S
O9 In0 2.326 . S
O9 C5 1.260 . S
C10 O1 1.240 . S
C10 O2 1.252 . S
O11 In0 2.294 . S
O11 C4 1.240 . S
O12 In0 2.326 . S
O12 C4 1.252 . S
In13 O14 2.294 . S
In13 O15 2.326 . S
In13 O19 2.266 . S
In13 O20 2.326 . S
In13 O21 2.266 . S
In13 O22 2.326 . S
In13 O24 2.294 . S
In13 O25 2.326 . S
O14 In13 2.294 . S
O14 C23 1.240 . S
O15 In13 2.326 . S
O15 C23 1.252 . S
C16 O19 1.252 . S
C16 O20 1.260 . S
C17 O24 1.240 . S
C17 O25 1.252 . S
C18 O21 1.252 . S
C18 O22 1.260 . S
O19 In13 2.266 . S
O19 C16 1.252 . S
O20 In13 2.326 . S
O20 C16 1.260 . S
O21 In13 2.266 . S
O21 C18 1.252 . S
O22 In13 2.326 . S
O22 C18 1.260 . S
C23 O14 1.240 . S
C23 O15 1.252 . S
O24 In13 2.294 . S
O24 C17 1.240 . S
O25 In13 2.326 . S
O25 C17 1.252 . S
In26 O27 2.294 . S
In26 O28 2.326 . S
In26 O32 2.266 . S
In26 O33 2.326 . S
In26 O34 2.266 . S
In26 O35 2.326 . S
In26 O37 2.294 . S
In26 O38 2.326 . S
O27 In26 2.294 . S
O27 C36 1.240 . S
O28 In26 2.326 . S
O28 C36 1.252 . S
C29 O32 1.252 . S
C29 O33 1.260 . S
C30 O37 1.240 . S
C30 O38 1.252 . S
C31 O34 1.252 . S
C31 O35 1.260 . S
O32 In26 2.266 . S
O32 C29 1.252 . S
O33 In26 2.326 . S
O33 C29 1.260 . S
O34 In26 2.266 . S
O34 C31 1.252 . S
O35 In26 2.326 . S
O35 C31 1.260 . S
C36 O27 1.240 . S
C36 O28 1.252 . S
O37 In26 2.294 . S
O37 C30 1.240 . S
O38 In26 2.326 . S
O38 C30 1.252 . S
In39 O40 2.294 . S
In39 O41 2.326 . S
In39 O45 2.266 . S
In39 O46 2.326 . S
In39 O47 2.266 . S
In39 O48 2.326 . S
In39 O50 2.294 . S
In39 O51 2.326 . S
O40 In39 2.294 . S
O40 C49 1.240 . S
O41 In39 2.326 . S
O41 C49 1.252 . S
C42 O45 1.252 . S
C42 O46 1.260 . S
C43 O50 1.240 . S
C43 O51 1.252 . S
C44 O47 1.252 . S
C44 O48 1.260 . S
O45 In39 2.266 . S
O45 C42 1.252 . S
O46 In39 2.326 . S
O46 C42 1.260 . S
O47 In39 2.266 . S
O47 C44 1.252 . S
O48 In39 2.326 . S
O48 C44 1.260 . S
C49 O40 1.240 . S
C49 O41 1.252 . S
O50 In39 2.294 . S
O50 C43 1.240 . S
O51 In39 2.326 . S
O51 C43 1.252 . S
In52 O53 2.294 . S
In52 O54 2.326 . S
In52 O58 2.266 . S
In52 O59 2.326 . S
In52 O60 2.266 . S
In52 O61 2.326 . S
In52 O63 2.294 . S
In52 O64 2.326 . S
O53 In52 2.294 . S
O53 C62 1.240 . S
O54 In52 2.326 . S
O54 C62 1.252 . S
C55 O58 1.252 . S
C55 O59 1.260 . S
C56 O63 1.240 . S
C56 O64 1.252 . S
C57 O60 1.252 . S
C57 O61 1.260 . S
O58 In52 2.266 . S
O58 C55 1.252 . S
O59 In52 2.326 . S
O59 C55 1.260 . S
O60 In52 2.266 . S
O60 C57 1.252 . S
O61 In52 2.326 . S
O61 C57 1.260 . S
C62 O53 1.240 . S
C62 O54 1.252 . S
O63 In52 2.294 . S
O63 C56 1.240 . S
O64 In52 2.326 . S
O64 C56 1.252 . S
In65 O66 2.294 . S
In65 O67 2.326 . S
In65 O71 2.266 . S
In65 O72 2.326 . S
In65 O73 2.266 . S
In65 O74 2.326 . S
In65 O76 2.294 . S
In65 O77 2.326 . S
O66 In65 2.294 . S
O66 C75 1.240 . S
O67 In65 2.326 . S
O67 C75 1.252 . S
C68 O71 1.252 . S
C68 O72 1.260 . S
C69 O76 1.240 . S
C69 O77 1.252 . S
C70 O73 1.252 . S
C70 O74 1.260 . S
O71 In65 2.266 . S
O71 C68 1.252 . S
O72 In65 2.326 . S
O72 C68 1.260 . S
O73 In65 2.266 . S
O73 C70 1.252 . S
O74 In65 2.326 . S
O74 C70 1.260 . S
C75 O66 1.240 . S
C75 O67 1.252 . S
O76 In65 2.294 . S
O76 C69 1.240 . S
O77 In65 2.326 . S
O77 C69 1.252 . S
In78 O79 2.294 . S
In78 O80 2.326 . S
In78 O84 2.266 . S
In78 O85 2.326 . S
In78 O86 2.266 . S
In78 O87 2.326 . S
In78 O89 2.294 . S
In78 O90 2.326 . S
O79 In78 2.294 . S
O79 C88 1.240 . S
O80 In78 2.326 . S
O80 C88 1.252 . S
C81 O84 1.252 . S
C81 O85 1.260 . S
C82 O89 1.240 . S
C82 O90 1.252 . S
C83 O86 1.252 . S
C83 O87 1.260 . S
O84 In78 2.266 . S
O84 C81 1.252 . S
O85 In78 2.326 . S
O85 C81 1.260 . S
O86 In78 2.266 . S
O86 C83 1.252 . S
O87 In78 2.326 . S
O87 C83 1.260 . S
C88 O79 1.240 . S
C88 O80 1.252 . S
O89 In78 2.294 . S
O89 C82 1.240 . S
O90 In78 2.326 . S
O90 C82 1.252 . S
In91 O92 2.294 . S
In91 O93 2.326 . S
In91 O97 2.266 . S
In91 O98 2.326 . S
In91 O99 2.266 . S
In91 O100 2.326 . S
In91 O102 2.294 . S
In91 O103 2.326 . S
O92 In91 2.294 . S
O92 C101 1.240 . S
O93 In91 2.326 . S
O93 C101 1.252 . S
C94 O97 1.252 . S
C94 O98 1.260 . S
C95 O102 1.240 . S
C95 O103 1.252 . S
C96 O99 1.252 . S
C96 O100 1.260 . S
O97 In91 2.266 . S
O97 C94 1.252 . S
O98 In91 2.326 . S
O98 C94 1.260 . S
O99 In91 2.266 . S
O99 C96 1.252 . S
O100 In91 2.326 . S
O100 C96 1.260 . S
C101 O92 1.240 . S
C101 O93 1.252 . S
O102 In91 2.294 . S
O102 C95 1.240 . S
O103 In91 2.326 . S
O103 C95 1.252 . S
In104 O105 2.294 . S
In104 O106 2.326 . S
In104 O110 2.266 . S
In104 O111 2.326 . S
In104 O112 2.266 . S
In104 O113 2.326 . S
In104 O115 2.294 . S
In104 O116 2.326 . S
O105 In104 2.294 . S
O105 C114 1.240 . S
O106 In104 2.326 . S
O106 C114 1.252 . S
C107 O110 1.252 . S
C107 O111 1.260 . S
C108 O115 1.240 . S
C108 O116 1.252 . S
C109 O112 1.252 . S
C109 O113 1.260 . S
O110 In104 2.266 . S
O110 C107 1.252 . S
O111 In104 2.326 . S
O111 C107 1.260 . S
O112 In104 2.266 . S
O112 C109 1.252 . S
O113 In104 2.326 . S
O113 C109 1.260 . S
C114 O105 1.240 . S
C114 O106 1.252 . S
O115 In104 2.294 . S
O115 C108 1.240 . S
O116 In104 2.326 . S
O116 C108 1.252 . S
In117 O118 2.294 . S
In117 O119 2.326 . S
In117 O123 2.266 . S
In117 O124 2.326 . S
In117 O125 2.266 . S
In117 O126 2.326 . S
In117 O128 2.294 . S
In117 O129 2.326 . S
O118 In117 2.294 . S
O118 C127 1.240 . S
O119 In117 2.326 . S
O119 C127 1.252 . S
C120 O123 1.252 . S
C120 O124 1.260 . S
C121 O128 1.240 . S
C121 O129 1.252 . S
C122 O125 1.252 . S
C122 O126 1.260 . S
O123 In117 2.266 . S
O123 C120 1.252 . S
O124 In117 2.326 . S
O124 C120 1.260 . S
O125 In117 2.266 . S
O125 C122 1.252 . S
O126 In117 2.326 . S
O126 C122 1.260 . S
C127 O118 1.240 . S
C127 O119 1.252 . S
O128 In117 2.294 . S
O128 C121 1.240 . S
O129 In117 2.326 . S
O129 C121 1.252 . S
In130 O131 2.294 . S
In130 O132 2.326 . S
In130 O136 2.266 . S
In130 O137 2.326 . S
In130 O138 2.266 . S
In130 O139 2.326 . S
In130 O141 2.294 . S
In130 O142 2.326 . S
O131 In130 2.294 . S
O131 C140 1.240 . S
O132 In130 2.326 . S
O132 C140 1.252 . S
C133 O136 1.252 . S
C133 O137 1.260 . S
C134 O141 1.240 . S
C134 O142 1.252 . S
C135 O138 1.252 . S
C135 O139 1.260 . S
O136 In130 2.266 . S
O136 C133 1.252 . S
O137 In130 2.326 . S
O137 C133 1.260 . S
O138 In130 2.266 . S
O138 C135 1.252 . S
O139 In130 2.326 . S
O139 C135 1.260 . S
C140 O131 1.240 . S
C140 O132 1.252 . S
O141 In130 2.294 . S
O141 C134 1.240 . S
O142 In130 2.326 . S
O142 C134 1.252 . S
In143 O144 2.294 . S
In143 O145 2.326 . S
In143 O149 2.266 . S
In143 O150 2.326 . S
In143 O151 2.266 . S
In143 O152 2.326 . S
In143 O154 2.294 . S
In143 O155 2.326 . S
O144 In143 2.294 . S
O144 C153 1.240 . S
O145 In143 2.326 . S
O145 C153 1.252 . S
C146 O149 1.252 . S
C146 O150 1.260 . S
C147 O154 1.240 . S
C147 O155 1.252 . S
C148 O151 1.252 . S
C148 O152 1.260 . S
O149 In143 2.266 . S
O149 C146 1.252 . S
O150 In143 2.326 . S
O150 C146 1.260 . S
O151 In143 2.266 . S
O151 C148 1.252 . S
O152 In143 2.326 . S
O152 C148 1.260 . S
C153 O144 1.240 . S
C153 O145 1.252 . S
O154 In143 2.294 . S
O154 C147 1.240 . S
O155 In143 2.326 . S
O155 C147 1.252 . S
In156 O157 2.294 . S
In156 O158 2.326 . S
In156 O162 2.266 . S
In156 O163 2.326 . S
In156 O164 2.266 . S
In156 O165 2.326 . S
In156 O167 2.294 . S
In156 O168 2.326 . S
O157 In156 2.294 . S
O157 C166 1.240 . S
O158 In156 2.326 . S
O158 C166 1.252 . S
C159 O162 1.252 . S
C159 O163 1.260 . S
C160 O167 1.240 . S
C160 O168 1.252 . S
C161 O164 1.252 . S
C161 O165 1.260 . S
O162 In156 2.266 . S
O162 C159 1.252 . S
O163 In156 2.326 . S
O163 C159 1.260 . S
O164 In156 2.266 . S
O164 C161 1.252 . S
O165 In156 2.326 . S
O165 C161 1.260 . S
C166 O157 1.240 . S
C166 O158 1.252 . S
O167 In156 2.294 . S
O167 C160 1.240 . S
O168 In156 2.326 . S
O168 C160 1.252 . S
In169 O170 2.294 . S
In169 O171 2.326 . S
In169 O175 2.266 . S
In169 O176 2.326 . S
In169 O177 2.266 . S
In169 O178 2.326 . S
In169 O180 2.294 . S
In169 O181 2.326 . S
O170 In169 2.294 . S
O170 C179 1.240 . S
O171 In169 2.326 . S
O171 C179 1.252 . S
C172 O175 1.252 . S
C172 O176 1.260 . S
C173 O180 1.240 . S
C173 O181 1.252 . S
C174 O177 1.252 . S
C174 O178 1.260 . S
O175 In169 2.266 . S
O175 C172 1.252 . S
O176 In169 2.326 . S
O176 C172 1.260 . S
O177 In169 2.266 . S
O177 C174 1.252 . S
O178 In169 2.326 . S
O178 C174 1.260 . S
C179 O170 1.240 . S
C179 O171 1.252 . S
O180 In169 2.294 . S
O180 C173 1.240 . S
O181 In169 2.326 . S
O181 C173 1.252 . S
In182 O183 2.294 . S
In182 O184 2.326 . S
In182 O188 2.266 . S
In182 O189 2.326 . S
In182 O190 2.266 . S
In182 O191 2.326 . S
In182 O193 2.294 . S
In182 O194 2.326 . S
O183 In182 2.294 . S
O183 C192 1.240 . S
O184 In182 2.326 . S
O184 C192 1.252 . S
C185 O188 1.252 . S
C185 O189 1.260 . S
C186 O193 1.240 . S
C186 O194 1.252 . S
C187 O190 1.252 . S
C187 O191 1.260 . S
O188 In182 2.266 . S
O188 C185 1.252 . S
O189 In182 2.326 . S
O189 C185 1.260 . S
O190 In182 2.266 . S
O190 C187 1.252 . S
O191 In182 2.326 . S
O191 C187 1.260 . S
C192 O183 1.240 . S
C192 O184 1.252 . S
O193 In182 2.294 . S
O193 C186 1.240 . S
O194 In182 2.326 . S
O194 C186 1.252 . S
In195 O196 2.294 . S
In195 O197 2.326 . S
In195 O201 2.266 . S
In195 O202 2.326 . S
In195 O203 2.266 . S
In195 O204 2.326 . S
In195 O206 2.294 . S
In195 O207 2.326 . S
O196 In195 2.294 . S
O196 C205 1.240 . S
O197 In195 2.326 . S
O197 C205 1.252 . S
C198 O201 1.252 . S
C198 O202 1.260 . S
C199 O206 1.240 . S
C199 O207 1.252 . S
C200 O203 1.252 . S
C200 O204 1.260 . S
O201 In195 2.266 . S
O201 C198 1.252 . S
O202 In195 2.326 . S
O202 C198 1.260 . S
O203 In195 2.266 . S
O203 C200 1.252 . S
O204 In195 2.326 . S
O204 C200 1.260 . S
C205 O196 1.240 . S
C205 O197 1.252 . S
O206 In195 2.294 . S
O206 C199 1.240 . S
O207 In195 2.326 . S
O207 C199 1.252 . S
In208 O209 2.294 . S
In208 O210 2.326 . S
In208 O214 2.266 . S
In208 O215 2.326 . S
In208 O216 2.266 . S
In208 O217 2.326 . S
In208 O219 2.294 . S
In208 O220 2.326 . S
O209 In208 2.294 . S
O209 C218 1.240 . S
O210 In208 2.326 . S
O210 C218 1.252 . S
C211 O214 1.252 . S
C211 O215 1.260 . S
C212 O219 1.240 . S
C212 O220 1.252 . S
C213 O216 1.252 . S
C213 O217 1.260 . S
O214 In208 2.266 . S
O214 C211 1.252 . S
O215 In208 2.326 . S
O215 C211 1.260 . S
O216 In208 2.266 . S
O216 C213 1.252 . S
O217 In208 2.326 . S
O217 C213 1.260 . S
C218 O209 1.240 . S
C218 O210 1.252 . S
O219 In208 2.294 . S
O219 C212 1.240 . S
O220 In208 2.326 . S
O220 C212 1.252 . S
In221 O222 2.294 . S
In221 O223 2.326 . S
In221 O227 2.266 . S
In221 O228 2.326 . S
In221 O229 2.266 . S
In221 O230 2.326 . S
In221 O232 2.294 . S
In221 O233 2.326 . S
O222 In221 2.294 . S
O222 C231 1.240 . S
O223 In221 2.326 . S
O223 C231 1.252 . S
C224 O227 1.252 . S
C224 O228 1.260 . S
C225 O232 1.240 . S
C225 O233 1.252 . S
C226 O229 1.252 . S
C226 O230 1.260 . S
O227 In221 2.266 . S
O227 C224 1.252 . S
O228 In221 2.326 . S
O228 C224 1.260 . S
O229 In221 2.266 . S
O229 C226 1.252 . S
O230 In221 2.326 . S
O230 C226 1.260 . S
C231 O222 1.240 . S
C231 O223 1.252 . S
O232 In221 2.294 . S
O232 C225 1.240 . S
O233 In221 2.326 . S
O233 C225 1.252 . S
In234 O235 2.294 . S
In234 O236 2.326 . S
In234 O240 2.266 . S
In234 O241 2.326 . S
In234 O242 2.266 . S
In234 O243 2.326 . S
In234 O245 2.294 . S
In234 O246 2.326 . S
O235 In234 2.294 . S
O235 C244 1.240 . S
O236 In234 2.326 . S
O236 C244 1.252 . S
C237 O240 1.252 . S
C237 O241 1.260 . S
C238 O245 1.240 . S
C238 O246 1.252 . S
C239 O242 1.252 . S
C239 O243 1.260 . S
O240 In234 2.266 . S
O240 C237 1.252 . S
O241 In234 2.326 . S
O241 C237 1.260 . S
O242 In234 2.266 . S
O242 C239 1.252 . S
O243 In234 2.326 . S
O243 C239 1.260 . S
C244 O235 1.240 . S
C244 O236 1.252 . S
O245 In234 2.294 . S
O245 C238 1.240 . S
O246 In234 2.326 . S
O246 C238 1.252 . S
In247 O248 2.294 . S
In247 O249 2.326 . S
In247 O253 2.266 . S
In247 O254 2.326 . S
In247 O255 2.266 . S
In247 O256 2.326 . S
In247 O258 2.294 . S
In247 O259 2.326 . S
O248 In247 2.294 . S
O248 C257 1.240 . S
O249 In247 2.326 . S
O249 C257 1.252 . S
C250 O253 1.252 . S
C250 O254 1.260 . S
C251 O258 1.240 . S
C251 O259 1.252 . S
C252 O255 1.252 . S
C252 O256 1.260 . S
O253 In247 2.266 . S
O253 C250 1.252 . S
O254 In247 2.326 . S
O254 C250 1.260 . S
O255 In247 2.266 . S
O255 C252 1.252 . S
O256 In247 2.326 . S
O256 C252 1.260 . S
C257 O248 1.240 . S
C257 O249 1.252 . S
O258 In247 2.294 . S
O258 C251 1.240 . S
O259 In247 2.326 . S
O259 C251 1.252 . S
In260 O261 2.294 . S
In260 O262 2.326 . S
In260 O266 2.266 . S
In260 O267 2.326 . S
In260 O268 2.266 . S
In260 O269 2.326 . S
In260 O271 2.294 . S
In260 O272 2.326 . S
O261 In260 2.294 . S
O261 C270 1.240 . S
O262 In260 2.326 . S
O262 C270 1.252 . S
C263 O266 1.252 . S
C263 O267 1.260 . S
C264 O271 1.240 . S
C264 O272 1.252 . S
C265 O268 1.252 . S
C265 O269 1.260 . S
O266 In260 2.266 . S
O266 C263 1.252 . S
O267 In260 2.326 . S
O267 C263 1.260 . S
O268 In260 2.266 . S
O268 C265 1.252 . S
O269 In260 2.326 . S
O269 C265 1.260 . S
C270 O261 1.240 . S
C270 O262 1.252 . S
O271 In260 2.294 . S
O271 C264 1.240 . S
O272 In260 2.326 . S
O272 C264 1.252 . S
In273 O274 2.294 . S
In273 O275 2.326 . S
In273 O279 2.266 . S
In273 O280 2.326 . S
In273 O281 2.266 . S
In273 O282 2.326 . S
In273 O284 2.294 . S
In273 O285 2.326 . S
O274 In273 2.294 . S
O274 C283 1.240 . S
O275 In273 2.326 . S
O275 C283 1.252 . S
C276 O279 1.252 . S
C276 O280 1.260 . S
C277 O284 1.240 . S
C277 O285 1.252 . S
C278 O281 1.252 . S
C278 O282 1.260 . S
O279 In273 2.266 . S
O279 C276 1.252 . S
O280 In273 2.326 . S
O280 C276 1.260 . S
O281 In273 2.266 . S
O281 C278 1.252 . S
O282 In273 2.326 . S
O282 C278 1.260 . S
C283 O274 1.240 . S
C283 O275 1.252 . S
O284 In273 2.294 . S
O284 C277 1.240 . S
O285 In273 2.326 . S
O285 C277 1.252 . S
In286 O287 2.294 . S
In286 O288 2.326 . S
In286 O292 2.266 . S
In286 O293 2.326 . S
In286 O294 2.266 . S
In286 O295 2.326 . S
In286 O297 2.294 . S
In286 O298 2.326 . S
O287 In286 2.294 . S
O287 C296 1.240 . S
O288 In286 2.326 . S
O288 C296 1.252 . S
C289 O292 1.252 . S
C289 O293 1.260 . S
C290 O297 1.240 . S
C290 O298 1.252 . S
C291 O294 1.252 . S
C291 O295 1.260 . S
O292 In286 2.266 . S
O292 C289 1.252 . S
O293 In286 2.326 . S
O293 C289 1.260 . S
O294 In286 2.266 . S
O294 C291 1.252 . S
O295 In286 2.326 . S
O295 C291 1.260 . S
C296 O287 1.240 . S
C296 O288 1.252 . S
O297 In286 2.294 . S
O297 C290 1.240 . S
O298 In286 2.326 . S
O298 C290 1.252 . S
In299 O300 2.294 . S
In299 O301 2.326 . S
In299 O305 2.266 . S
In299 O306 2.326 . S
In299 O307 2.266 . S
In299 O308 2.326 . S
In299 O310 2.294 . S
In299 O311 2.326 . S
O300 In299 2.294 . S
O300 C309 1.240 . S
O301 In299 2.326 . S
O301 C309 1.252 . S
C302 O305 1.252 . S
C302 O306 1.260 . S
C303 O310 1.240 . S
C303 O311 1.252 . S
C304 O307 1.252 . S
C304 O308 1.260 . S
O305 In299 2.266 . S
O305 C302 1.252 . S
O306 In299 2.326 . S
O306 C302 1.260 . S
O307 In299 2.266 . S
O307 C304 1.252 . S
O308 In299 2.326 . S
O308 C304 1.260 . S
C309 O300 1.240 . S
C309 O301 1.252 . S
O310 In299 2.294 . S
O310 C303 1.240 . S
O311 In299 2.326 . S
O311 C303 1.252 . S
In312 O313 2.294 . S
In312 O314 2.326 . S
In312 O318 2.266 . S
In312 O319 2.326 . S
In312 O320 2.266 . S
In312 O321 2.326 . S
In312 O323 2.294 . S
In312 O324 2.326 . S
O313 In312 2.294 . S
O313 C322 1.240 . S
O314 In312 2.326 . S
O314 C322 1.252 . S
C315 O318 1.252 . S
C315 O319 1.260 . S
C316 O323 1.240 . S
C316 O324 1.252 . S
C317 O320 1.252 . S
C317 O321 1.260 . S
O318 In312 2.266 . S
O318 C315 1.252 . S
O319 In312 2.326 . S
O319 C315 1.260 . S
O320 In312 2.266 . S
O320 C317 1.252 . S
O321 In312 2.326 . S
O321 C317 1.260 . S
C322 O313 1.240 . S
C322 O314 1.252 . S
O323 In312 2.294 . S
O323 C316 1.240 . S
O324 In312 2.326 . S
O324 C316 1.252 . S
In325 O326 2.294 . S
In325 O327 2.326 . S
In325 O331 2.266 . S
In325 O332 2.326 . S
In325 O333 2.266 . S
In325 O334 2.326 . S
In325 O336 2.294 . S
In325 O337 2.326 . S
O326 In325 2.294 . S
O326 C335 1.240 . S
O327 In325 2.326 . S
O327 C335 1.252 . S
C328 O331 1.252 . S
C328 O332 1.260 . S
C329 O336 1.240 . S
C329 O337 1.252 . S
C330 O333 1.252 . S
C330 O334 1.260 . S
O331 In325 2.266 . S
O331 C328 1.252 . S
O332 In325 2.326 . S
O332 C328 1.260 . S
O333 In325 2.266 . S
O333 C330 1.252 . S
O334 In325 2.326 . S
O334 C330 1.260 . S
C335 O326 1.240 . S
C335 O327 1.252 . S
O336 In325 2.294 . S
O336 C329 1.240 . S
O337 In325 2.326 . S
O337 C329 1.252 . S
In338 O339 2.294 . S
In338 O340 2.326 . S
In338 O344 2.266 . S
In338 O345 2.326 . S
In338 O346 2.266 . S
In338 O347 2.326 . S
In338 O349 2.294 . S
In338 O350 2.326 . S
O339 In338 2.294 . S
O339 C348 1.240 . S
O340 In338 2.326 . S
O340 C348 1.252 . S
C341 O344 1.252 . S
C341 O345 1.260 . S
C342 O349 1.240 . S
C342 O350 1.252 . S
C343 O346 1.252 . S
C343 O347 1.260 . S
O344 In338 2.266 . S
O344 C341 1.252 . S
O345 In338 2.326 . S
O345 C341 1.260 . S
O346 In338 2.266 . S
O346 C343 1.252 . S
O347 In338 2.326 . S
O347 C343 1.260 . S
C348 O339 1.240 . S
C348 O340 1.252 . S
O349 In338 2.294 . S
O349 C342 1.240 . S
O350 In338 2.326 . S
O350 C342 1.252 . S
In351 O352 2.294 . S
In351 O353 2.326 . S
In351 O357 2.266 . S
In351 O358 2.326 . S
In351 O359 2.266 . S
In351 O360 2.326 . S
In351 O362 2.294 . S
In351 O363 2.326 . S
O352 In351 2.294 . S
O352 C361 1.240 . S
O353 In351 2.326 . S
O353 C361 1.252 . S
C354 O357 1.252 . S
C354 O358 1.260 . S
C355 O362 1.240 . S
C355 O363 1.252 . S
C356 O359 1.252 . S
C356 O360 1.260 . S
O357 In351 2.266 . S
O357 C354 1.252 . S
O358 In351 2.326 . S
O358 C354 1.260 . S
O359 In351 2.266 . S
O359 C356 1.252 . S
O360 In351 2.326 . S
O360 C356 1.260 . S
C361 O352 1.240 . S
C361 O353 1.252 . S
O362 In351 2.294 . S
O362 C355 1.240 . S
O363 In351 2.326 . S
O363 C355 1.252 . S
In364 O365 2.294 . S
In364 O366 2.326 . S
In364 O370 2.266 . S
In364 O371 2.326 . S
In364 O372 2.266 . S
In364 O373 2.326 . S
In364 O375 2.294 . S
In364 O376 2.326 . S
O365 In364 2.294 . S
O365 C374 1.240 . S
O366 In364 2.326 . S
O366 C374 1.252 . S
C367 O370 1.252 . S
C367 O371 1.260 . S
C368 O375 1.240 . S
C368 O376 1.252 . S
C369 O372 1.252 . S
C369 O373 1.260 . S
O370 In364 2.266 . S
O370 C367 1.252 . S
O371 In364 2.326 . S
O371 C367 1.260 . S
O372 In364 2.266 . S
O372 C369 1.252 . S
O373 In364 2.326 . S
O373 C369 1.260 . S
C374 O365 1.240 . S
C374 O366 1.252 . S
O375 In364 2.294 . S
O375 C368 1.240 . S
O376 In364 2.326 . S
O376 C368 1.252 . S
In377 O378 2.294 . S
In377 O379 2.326 . S
In377 O383 2.266 . S
In377 O384 2.326 . S
In377 O385 2.266 . S
In377 O386 2.326 . S
In377 O388 2.294 . S
In377 O389 2.326 . S
O378 In377 2.294 . S
O378 C387 1.240 . S
O379 In377 2.326 . S
O379 C387 1.252 . S
C380 O383 1.252 . S
C380 O384 1.260 . S
C381 O388 1.240 . S
C381 O389 1.252 . S
C382 O385 1.252 . S
C382 O386 1.260 . S
O383 In377 2.266 . S
O383 C380 1.252 . S
O384 In377 2.326 . S
O384 C380 1.260 . S
O385 In377 2.266 . S
O385 C382 1.252 . S
O386 In377 2.326 . S
O386 C382 1.260 . S
C387 O378 1.240 . S
C387 O379 1.252 . S
O388 In377 2.294 . S
O388 C381 1.240 . S
O389 In377 2.326 . S
O389 C381 1.252 . S
In390 O391 2.294 . S
In390 O392 2.326 . S
In390 O396 2.266 . S
In390 O397 2.326 . S
In390 O398 2.266 . S
In390 O399 2.326 . S
In390 O401 2.294 . S
In390 O402 2.326 . S
O391 In390 2.294 . S
O391 C400 1.240 . S
O392 In390 2.326 . S
O392 C400 1.252 . S
C393 O396 1.252 . S
C393 O397 1.260 . S
C394 O401 1.240 . S
C394 O402 1.252 . S
C395 O398 1.252 . S
C395 O399 1.260 . S
O396 In390 2.266 . S
O396 C393 1.252 . S
O397 In390 2.326 . S
O397 C393 1.260 . S
O398 In390 2.266 . S
O398 C395 1.252 . S
O399 In390 2.326 . S
O399 C395 1.260 . S
C400 O391 1.240 . S
C400 O392 1.252 . S
O401 In390 2.294 . S
O401 C394 1.240 . S
O402 In390 2.326 . S
O402 C394 1.252 . S
In403 O404 2.294 . S
In403 O405 2.326 . S
In403 O409 2.266 . S
In403 O410 2.326 . S
In403 O411 2.266 . S
In403 O412 2.326 . S
In403 O414 2.294 . S
In403 O415 2.326 . S
O404 In403 2.294 . S
O404 C413 1.240 . S
O405 In403 2.326 . S
O405 C413 1.252 . S
C406 O409 1.252 . S
C406 O410 1.260 . S
C407 O414 1.240 . S
C407 O415 1.252 . S
C408 O411 1.252 . S
C408 O412 1.260 . S
O409 In403 2.266 . S
O409 C406 1.252 . S
O410 In403 2.326 . S
O410 C406 1.260 . S
O411 In403 2.266 . S
O411 C408 1.252 . S
O412 In403 2.326 . S
O412 C408 1.260 . S
C413 O404 1.240 . S
C413 O405 1.252 . S
O414 In403 2.294 . S
O414 C407 1.240 . S
O415 In403 2.326 . S
O415 C407 1.252 . S
C416 C417 1.349 . S
C416 C418 1.327 . S
C416 H441 0.950 . S
C417 C416 1.349 . S
C417 C433 1.349 . S
C418 C416 1.327 . S
C418 C437 1.429 . S
C418 H442 0.950 . S
C419 C436 1.574 . S
C419 C438 1.368 . S
C419 H443 0.949 . S
H420 C424 0.949 . S
C421 C422 1.349 . S
C421 C423 1.327 . S
C421 H444 0.950 . S
C422 C421 1.349 . S
C422 C434 1.349 . S
C423 C421 1.327 . S
C423 C439 1.429 . S
C423 H445 0.950 . S
C424 H420 0.949 . S
C424 C432 1.574 . S
C424 C440 1.368 . S
H425 C433 0.950 . S
H426 C431 0.950 . S
H427 C432 0.949 . S
H428 C434 0.950 . S
H429 C435 0.950 . S
H430 C436 0.949 . S
C431 H426 0.950 . S
C431 C433 1.327 . S
C431 C437 1.429 . S
C432 C424 1.574 . S
C432 H427 0.949 . S
C432 C438 1.368 . S
C433 C417 1.349 . S
C433 H425 0.950 . S
C433 C431 1.327 . S
C434 C422 1.349 . S
C434 H428 0.950 . S
C434 C435 1.327 . S
C435 H429 0.950 . S
C435 C434 1.327 . S
C435 C439 1.429 . S
C436 C419 1.574 . S
C436 H430 0.949 . S
C436 C440 1.368 . S
C437 C418 1.429 . S
C437 C431 1.429 . S
C437 C438 1.523 . S
C438 C419 1.368 . S
C438 C432 1.368 . S
C438 C437 1.523 . S
C439 C423 1.429 . S
C439 C435 1.429 . S
C439 C440 1.523 . S
C440 C424 1.368 . S
C440 C436 1.368 . S
C440 C439 1.523 . S
H441 C416 0.950 . S
H442 C418 0.950 . S
H443 C419 0.949 . S
H444 C421 0.950 . S
H445 C423 0.950 . S
C446 C447 1.349 . S
C446 C448 1.327 . S
C446 H471 0.950 . S
C447 C446 1.349 . S
C447 C463 1.349 . S
C448 C446 1.327 . S
C448 C467 1.429 . S
C448 H472 0.950 . S
C449 C466 1.574 . S
C449 C468 1.368 . S
C449 H473 0.949 . S
H450 C454 0.949 . S
C451 C452 1.349 . S
C451 C453 1.327 . S
C451 H474 0.950 . S
C452 C451 1.349 . S
C452 C464 1.349 . S
C453 C451 1.327 . S
C453 C469 1.429 . S
C453 H475 0.950 . S
C454 H450 0.949 . S
C454 C462 1.574 . S
C454 C470 1.368 . S
H455 C463 0.950 . S
H456 C461 0.950 . S
H457 C462 0.949 . S
H458 C464 0.950 . S
H459 C465 0.950 . S
H460 C466 0.949 . S
C461 H456 0.950 . S
C461 C463 1.327 . S
C461 C467 1.429 . S
C462 C454 1.574 . S
C462 H457 0.949 . S
C462 C468 1.368 . S
C463 C447 1.349 . S
C463 H455 0.950 . S
C463 C461 1.327 . S
C464 C452 1.349 . S
C464 H458 0.950 . S
C464 C465 1.327 . S
C465 H459 0.950 . S
C465 C464 1.327 . S
C465 C469 1.429 . S
C466 C449 1.574 . S
C466 H460 0.949 . S
C466 C470 1.368 . S
C467 C448 1.429 . S
C467 C461 1.429 . S
C467 C468 1.523 . S
C468 C449 1.368 . S
C468 C462 1.368 . S
C468 C467 1.523 . S
C469 C453 1.429 . S
C469 C465 1.429 . S
C469 C470 1.523 . S
C470 C454 1.368 . S
C470 C466 1.368 . S
C470 C469 1.523 . S
H471 C446 0.950 . S
H472 C448 0.950 . S
H473 C449 0.949 . S
H474 C451 0.950 . S
H475 C453 0.950 . S
C476 C477 1.349 . S
C476 C478 1.327 . S
C476 H501 0.950 . S
C477 C476 1.349 . S
C477 C493 1.349 . S
C478 C476 1.327 . S
C478 C497 1.429 . S
C478 H502 0.950 . S
C479 C496 1.574 . S
C479 C498 1.368 . S
C479 H503 0.949 . S
H480 C484 0.949 . S
C481 C482 1.349 . S
C481 C483 1.327 . S
C481 H504 0.950 . S
C482 C481 1.349 . S
C482 C494 1.349 . S
C483 C481 1.327 . S
C483 C499 1.429 . S
C483 H505 0.950 . S
C484 H480 0.949 . S
C484 C492 1.574 . S
C484 C500 1.368 . S
H485 C493 0.950 . S
H486 C491 0.950 . S
H487 C492 0.949 . S
H488 C494 0.950 . S
H489 C495 0.950 . S
H490 C496 0.949 . S
C491 H486 0.950 . S
C491 C493 1.327 . S
C491 C497 1.429 . S
C492 C484 1.574 . S
C492 H487 0.949 . S
C492 C498 1.368 . S
C493 C477 1.349 . S
C493 H485 0.950 . S
C493 C491 1.327 . S
C494 C482 1.349 . S
C494 H488 0.950 . S
C494 C495 1.327 . S
C495 H489 0.950 . S
C495 C494 1.327 . S
C495 C499 1.429 . S
C496 C479 1.574 . S
C496 H490 0.949 . S
C496 C500 1.368 . S
C497 C478 1.429 . S
C497 C491 1.429 . S
C497 C498 1.523 . S
C498 C479 1.368 . S
C498 C492 1.368 . S
C498 C497 1.523 . S
C499 C483 1.429 . S
C499 C495 1.429 . S
C499 C500 1.523 . S
C500 C484 1.368 . S
C500 C496 1.368 . S
C500 C499 1.523 . S
H501 C476 0.950 . S
H502 C478 0.950 . S
H503 C479 0.949 . S
H504 C481 0.950 . S
H505 C483 0.950 . S
C506 C507 1.349 . S
C506 C508 1.327 . S
C506 H531 0.950 . S
C507 C506 1.349 . S
C507 C523 1.349 . S
C508 C506 1.327 . S
C508 C527 1.429 . S
C508 H532 0.950 . S
C509 C526 1.574 . S
C509 C528 1.368 . S
C509 H533 0.949 . S
H510 C514 0.949 . S
C511 C512 1.349 . S
C511 C513 1.327 . S
C511 H534 0.950 . S
C512 C511 1.349 . S
C512 C524 1.349 . S
C513 C511 1.327 . S
C513 C529 1.429 . S
C513 H535 0.950 . S
C514 H510 0.949 . S
C514 C522 1.574 . S
C514 C530 1.368 . S
H515 C523 0.950 . S
H516 C521 0.950 . S
H517 C522 0.949 . S
H518 C524 0.950 . S
H519 C525 0.950 . S
H520 C526 0.949 . S
C521 H516 0.950 . S
C521 C523 1.327 . S
C521 C527 1.429 . S
C522 C514 1.574 . S
C522 H517 0.949 . S
C522 C528 1.368 . S
C523 C507 1.349 . S
C523 H515 0.950 . S
C523 C521 1.327 . S
C524 C512 1.349 . S
C524 H518 0.950 . S
C524 C525 1.327 . S
C525 H519 0.950 . S
C525 C524 1.327 . S
C525 C529 1.429 . S
C526 C509 1.574 . S
C526 H520 0.949 . S
C526 C530 1.368 . S
C527 C508 1.429 . S
C527 C521 1.429 . S
C527 C528 1.523 . S
C528 C509 1.368 . S
C528 C522 1.368 . S
C528 C527 1.523 . S
C529 C513 1.429 . S
C529 C525 1.429 . S
C529 C530 1.523 . S
C530 C514 1.368 . S
C530 C526 1.368 . S
C530 C529 1.523 . S
H531 C506 0.950 . S
H532 C508 0.950 . S
H533 C509 0.949 . S
H534 C511 0.950 . S
H535 C513 0.950 . S
C536 C537 1.349 . S
C536 C538 1.327 . S
C536 H561 0.950 . S
C537 C536 1.349 . S
C537 C553 1.349 . S
C538 C536 1.327 . S
C538 C557 1.429 . S
C538 H562 0.950 . S
C539 C556 1.574 . S
C539 C558 1.368 . S
C539 H563 0.949 . S
H540 C544 0.949 . S
C541 C542 1.349 . S
C541 C543 1.327 . S
C541 H564 0.950 . S
C542 C541 1.349 . S
C542 C554 1.349 . S
C543 C541 1.327 . S
C543 C559 1.429 . S
C543 H565 0.950 . S
C544 H540 0.949 . S
C544 C552 1.574 . S
C544 C560 1.368 . S
H545 C553 0.950 . S
H546 C551 0.950 . S
H547 C552 0.949 . S
H548 C554 0.950 . S
H549 C555 0.950 . S
H550 C556 0.949 . S
C551 H546 0.950 . S
C551 C553 1.327 . S
C551 C557 1.429 . S
C552 C544 1.574 . S
C552 H547 0.949 . S
C552 C558 1.368 . S
C553 C537 1.349 . S
C553 H545 0.950 . S
C553 C551 1.327 . S
C554 C542 1.349 . S
C554 H548 0.950 . S
C554 C555 1.327 . S
C555 H549 0.950 . S
C555 C554 1.327 . S
C555 C559 1.429 . S
C556 C539 1.574 . S
C556 H550 0.949 . S
C556 C560 1.368 . S
C557 C538 1.429 . S
C557 C551 1.429 . S
C557 C558 1.523 . S
C558 C539 1.368 . S
C558 C552 1.368 . S
C558 C557 1.523 . S
C559 C543 1.429 . S
C559 C555 1.429 . S
C559 C560 1.523 . S
C560 C544 1.368 . S
C560 C556 1.368 . S
C560 C559 1.523 . S
H561 C536 0.950 . S
H562 C538 0.950 . S
H563 C539 0.949 . S
H564 C541 0.950 . S
H565 C543 0.950 . S
C566 C567 1.349 . S
C566 C568 1.327 . S
C566 H591 0.950 . S
C567 C566 1.349 . S
C567 C583 1.349 . S
C568 C566 1.327 . S
C568 C587 1.429 . S
C568 H592 0.950 . S
C569 C586 1.574 . S
C569 C588 1.368 . S
C569 H593 0.949 . S
H570 C574 0.949 . S
C571 C572 1.349 . S
C571 C573 1.327 . S
C571 H594 0.950 . S
C572 C571 1.349 . S
C572 C584 1.349 . S
C573 C571 1.327 . S
C573 C589 1.429 . S
C573 H595 0.950 . S
C574 H570 0.949 . S
C574 C582 1.574 . S
C574 C590 1.368 . S
H575 C583 0.950 . S
H576 C581 0.950 . S
H577 C582 0.949 . S
H578 C584 0.950 . S
H579 C585 0.950 . S
H580 C586 0.949 . S
C581 H576 0.950 . S
C581 C583 1.327 . S
C581 C587 1.429 . S
C582 C574 1.574 . S
C582 H577 0.949 . S
C582 C588 1.368 . S
C583 C567 1.349 . S
C583 H575 0.950 . S
C583 C581 1.327 . S
C584 C572 1.349 . S
C584 H578 0.950 . S
C584 C585 1.327 . S
C585 H579 0.950 . S
C585 C584 1.327 . S
C585 C589 1.429 . S
C586 C569 1.574 . S
C586 H580 0.949 . S
C586 C590 1.368 . S
C587 C568 1.429 . S
C587 C581 1.429 . S
C587 C588 1.523 . S
C588 C569 1.368 . S
C588 C582 1.368 . S
C588 C587 1.523 . S
C589 C573 1.429 . S
C589 C585 1.429 . S
C589 C590 1.523 . S
C590 C574 1.368 . S
C590 C586 1.368 . S
C590 C589 1.523 . S
H591 C566 0.950 . S
H592 C568 0.950 . S
H593 C569 0.949 . S
H594 C571 0.950 . S
H595 C573 0.950 . S
C596 C597 1.349 . S
C596 C598 1.327 . S
C596 H621 0.950 . S
C597 C596 1.349 . S
C597 C613 1.349 . S
C598 C596 1.327 . S
C598 C617 1.429 . S
C598 H622 0.950 . S
C599 C616 1.574 . S
C599 C618 1.368 . S
C599 H623 0.949 . S
H600 C604 0.949 . S
C601 C602 1.349 . S
C601 C603 1.327 . S
C601 H624 0.950 . S
C602 C601 1.349 . S
C602 C614 1.349 . S
C603 C601 1.327 . S
C603 C619 1.429 . S
C603 H625 0.950 . S
C604 H600 0.949 . S
C604 C612 1.574 . S
C604 C620 1.368 . S
H605 C613 0.950 . S
H606 C611 0.950 . S
H607 C612 0.949 . S
H608 C614 0.950 . S
H609 C615 0.950 . S
H610 C616 0.949 . S
C611 H606 0.950 . S
C611 C613 1.327 . S
C611 C617 1.429 . S
C612 C604 1.574 . S
C612 H607 0.949 . S
C612 C618 1.368 . S
C613 C597 1.349 . S
C613 H605 0.950 . S
C613 C611 1.327 . S
C614 C602 1.349 . S
C614 H608 0.950 . S
C614 C615 1.327 . S
C615 H609 0.950 . S
C615 C614 1.327 . S
C615 C619 1.429 . S
C616 C599 1.574 . S
C616 H610 0.949 . S
C616 C620 1.368 . S
C617 C598 1.429 . S
C617 C611 1.429 . S
C617 C618 1.523 . S
C618 C599 1.368 . S
C618 C612 1.368 . S
C618 C617 1.523 . S
C619 C603 1.429 . S
C619 C615 1.429 . S
C619 C620 1.523 . S
C620 C604 1.368 . S
C620 C616 1.368 . S
C620 C619 1.523 . S
H621 C596 0.950 . S
H622 C598 0.950 . S
H623 C599 0.949 . S
H624 C601 0.950 . S
H625 C603 0.950 . S
C626 C627 1.349 . S
C626 C628 1.327 . S
C626 H651 0.950 . S
C627 C626 1.349 . S
C627 C643 1.349 . S
C628 C626 1.327 . S
C628 C647 1.429 . S
C628 H652 0.950 . S
C629 C646 1.574 . S
C629 C648 1.368 . S
C629 H653 0.949 . S
H630 C634 0.949 . S
C631 C632 1.349 . S
C631 C633 1.327 . S
C631 H654 0.950 . S
C632 C631 1.349 . S
C632 C644 1.349 . S
C633 C631 1.327 . S
C633 C649 1.429 . S
C633 H655 0.950 . S
C634 H630 0.949 . S
C634 C642 1.574 . S
C634 C650 1.368 . S
H635 C643 0.950 . S
H636 C641 0.950 . S
H637 C642 0.949 . S
H638 C644 0.950 . S
H639 C645 0.950 . S
H640 C646 0.949 . S
C641 H636 0.950 . S
C641 C643 1.327 . S
C641 C647 1.429 . S
C642 C634 1.574 . S
C642 H637 0.949 . S
C642 C648 1.368 . S
C643 C627 1.349 . S
C643 H635 0.950 . S
C643 C641 1.327 . S
C644 C632 1.349 . S
C644 H638 0.950 . S
C644 C645 1.327 . S
C645 H639 0.950 . S
C645 C644 1.327 . S
C645 C649 1.429 . S
C646 C629 1.574 . S
C646 H640 0.949 . S
C646 C650 1.368 . S
C647 C628 1.429 . S
C647 C641 1.429 . S
C647 C648 1.523 . S
C648 C629 1.368 . S
C648 C642 1.368 . S
C648 C647 1.523 . S
C649 C633 1.429 . S
C649 C645 1.429 . S
C649 C650 1.523 . S
C650 C634 1.368 . S
C650 C646 1.368 . S
C650 C649 1.523 . S
H651 C626 0.950 . S
H652 C628 0.950 . S
H653 C629 0.949 . S
H654 C631 0.950 . S
H655 C633 0.950 . S
C656 C657 1.349 . S
C656 C658 1.327 . S
C656 H681 0.950 . S
C657 C656 1.349 . S
C657 C673 1.349 . S
C658 C656 1.327 . S
C658 C677 1.429 . S
C658 H682 0.950 . S
C659 C676 1.574 . S
C659 C678 1.368 . S
C659 H683 0.949 . S
H660 C664 0.949 . S
C661 C662 1.349 . S
C661 C663 1.327 . S
C661 H684 0.950 . S
C662 C661 1.349 . S
C662 C674 1.349 . S
C663 C661 1.327 . S
C663 C679 1.429 . S
C663 H685 0.950 . S
C664 H660 0.949 . S
C664 C672 1.574 . S
C664 C680 1.368 . S
H665 C673 0.950 . S
H666 C671 0.950 . S
H667 C672 0.949 . S
H668 C674 0.950 . S
H669 C675 0.950 . S
H670 C676 0.949 . S
C671 H666 0.950 . S
C671 C673 1.327 . S
C671 C677 1.429 . S
C672 C664 1.574 . S
C672 H667 0.949 . S
C672 C678 1.368 . S
C673 C657 1.349 . S
C673 H665 0.950 . S
C673 C671 1.327 . S
C674 C662 1.349 . S
C674 H668 0.950 . S
C674 C675 1.327 . S
C675 H669 0.950 . S
C675 C674 1.327 . S
C675 C679 1.429 . S
C676 C659 1.574 . S
C676 H670 0.949 . S
C676 C680 1.368 . S
C677 C658 1.429 . S
C677 C671 1.429 . S
C677 C678 1.523 . S
C678 C659 1.368 . S
C678 C672 1.368 . S
C678 C677 1.523 . S
C679 C663 1.429 . S
C679 C675 1.429 . S
C679 C680 1.523 . S
C680 C664 1.368 . S
C680 C676 1.368 . S
C680 C679 1.523 . S
H681 C656 0.950 . S
H682 C658 0.950 . S
H683 C659 0.949 . S
H684 C661 0.950 . S
H685 C663 0.950 . S
C686 C687 1.349 . S
C686 C688 1.327 . S
C686 H711 0.950 . S
C687 C686 1.349 . S
C687 C703 1.349 . S
C688 C686 1.327 . S
C688 C707 1.429 . S
C688 H712 0.950 . S
C689 C706 1.574 . S
C689 C708 1.368 . S
C689 H713 0.949 . S
H690 C694 0.949 . S
C691 C692 1.349 . S
C691 C693 1.327 . S
C691 H714 0.950 . S
C692 C691 1.349 . S
C692 C704 1.349 . S
C693 C691 1.327 . S
C693 C709 1.429 . S
C693 H715 0.950 . S
C694 H690 0.949 . S
C694 C702 1.574 . S
C694 C710 1.368 . S
H695 C703 0.950 . S
H696 C701 0.950 . S
H697 C702 0.949 . S
H698 C704 0.950 . S
H699 C705 0.950 . S
H700 C706 0.949 . S
C701 H696 0.950 . S
C701 C703 1.327 . S
C701 C707 1.429 . S
C702 C694 1.574 . S
C702 H697 0.949 . S
C702 C708 1.368 . S
C703 C687 1.349 . S
C703 H695 0.950 . S
C703 C701 1.327 . S
C704 C692 1.349 . S
C704 H698 0.950 . S
C704 C705 1.327 . S
C705 H699 0.950 . S
C705 C704 1.327 . S
C705 C709 1.429 . S
C706 C689 1.574 . S
C706 H700 0.949 . S
C706 C710 1.368 . S
C707 C688 1.429 . S
C707 C701 1.429 . S
C707 C708 1.523 . S
C708 C689 1.368 . S
C708 C702 1.368 . S
C708 C707 1.523 . S
C709 C693 1.429 . S
C709 C705 1.429 . S
C709 C710 1.523 . S
C710 C694 1.368 . S
C710 C706 1.368 . S
C710 C709 1.523 . S
H711 C686 0.950 . S
H712 C688 0.950 . S
H713 C689 0.949 . S
H714 C691 0.950 . S
H715 C693 0.950 . S
C716 C717 1.349 . S
C716 C718 1.327 . S
C716 H741 0.950 . S
C717 C716 1.349 . S
C717 C733 1.349 . S
C718 C716 1.327 . S
C718 C737 1.429 . S
C718 H742 0.950 . S
C719 C736 1.574 . S
C719 C738 1.368 . S
C719 H743 0.949 . S
H720 C724 0.949 . S
C721 C722 1.349 . S
C721 C723 1.327 . S
C721 H744 0.950 . S
C722 C721 1.349 . S
C722 C734 1.349 . S
C723 C721 1.327 . S
C723 C739 1.429 . S
C723 H745 0.950 . S
C724 H720 0.949 . S
C724 C732 1.574 . S
C724 C740 1.368 . S
H725 C733 0.950 . S
H726 C731 0.950 . S
H727 C732 0.949 . S
H728 C734 0.950 . S
H729 C735 0.950 . S
H730 C736 0.949 . S
C731 H726 0.950 . S
C731 C733 1.327 . S
C731 C737 1.429 . S
C732 C724 1.574 . S
C732 H727 0.949 . S
C732 C738 1.368 . S
C733 C717 1.349 . S
C733 H725 0.950 . S
C733 C731 1.327 . S
C734 C722 1.349 . S
C734 H728 0.950 . S
C734 C735 1.327 . S
C735 H729 0.950 . S
C735 C734 1.327 . S
C735 C739 1.429 . S
C736 C719 1.574 . S
C736 H730 0.949 . S
C736 C740 1.368 . S
C737 C718 1.429 . S
C737 C731 1.429 . S
C737 C738 1.523 . S
C738 C719 1.368 . S
C738 C732 1.368 . S
C738 C737 1.523 . S
C739 C723 1.429 . S
C739 C735 1.429 . S
C739 C740 1.523 . S
C740 C724 1.368 . S
C740 C736 1.368 . S
C740 C739 1.523 . S
H741 C716 0.950 . S
H742 C718 0.950 . S
H743 C719 0.949 . S
H744 C721 0.950 . S
H745 C723 0.950 . S
C746 C747 1.349 . S
C746 C748 1.327 . S
C746 H771 0.950 . S
C747 C746 1.349 . S
C747 C763 1.349 . S
C748 C746 1.327 . S
C748 C767 1.429 . S
C748 H772 0.950 . S
C749 C766 1.574 . S
C749 C768 1.368 . S
C749 H773 0.949 . S
H750 C754 0.949 . S
C751 C752 1.349 . S
C751 C753 1.327 . S
C751 H774 0.950 . S
C752 C751 1.349 . S
C752 C764 1.349 . S
C753 C751 1.327 . S
C753 C769 1.429 . S
C753 H775 0.950 . S
C754 H750 0.949 . S
C754 C762 1.574 . S
C754 C770 1.368 . S
H755 C763 0.950 . S
H756 C761 0.950 . S
H757 C762 0.949 . S
H758 C764 0.950 . S
H759 C765 0.950 . S
H760 C766 0.949 . S
C761 H756 0.950 . S
C761 C763 1.327 . S
C761 C767 1.429 . S
C762 C754 1.574 . S
C762 H757 0.949 . S
C762 C768 1.368 . S
C763 C747 1.349 . S
C763 H755 0.950 . S
C763 C761 1.327 . S
C764 C752 1.349 . S
C764 H758 0.950 . S
C764 C765 1.327 . S
C765 H759 0.950 . S
C765 C764 1.327 . S
C765 C769 1.429 . S
C766 C749 1.574 . S
C766 H760 0.949 . S
C766 C770 1.368 . S
C767 C748 1.429 . S
C767 C761 1.429 . S
C767 C768 1.523 . S
C768 C749 1.368 . S
C768 C762 1.368 . S
C768 C767 1.523 . S
C769 C753 1.429 . S
C769 C765 1.429 . S
C769 C770 1.523 . S
C770 C754 1.368 . S
C770 C766 1.368 . S
C770 C769 1.523 . S
H771 C746 0.950 . S
H772 C748 0.950 . S
H773 C749 0.949 . S
H774 C751 0.950 . S
H775 C753 0.950 . S
C776 C777 1.349 . S
C776 C778 1.327 . S
C776 H801 0.950 . S
C777 C776 1.349 . S
C777 C793 1.349 . S
C778 C776 1.327 . S
C778 C797 1.429 . S
C778 H802 0.950 . S
C779 C796 1.574 . S
C779 C798 1.368 . S
C779 H803 0.949 . S
H780 C784 0.949 . S
C781 C782 1.349 . S
C781 C783 1.327 . S
C781 H804 0.950 . S
C782 C781 1.349 . S
C782 C794 1.349 . S
C783 C781 1.327 . S
C783 C799 1.429 . S
C783 H805 0.950 . S
C784 H780 0.949 . S
C784 C792 1.574 . S
C784 C800 1.368 . S
H785 C793 0.950 . S
H786 C791 0.950 . S
H787 C792 0.949 . S
H788 C794 0.950 . S
H789 C795 0.950 . S
H790 C796 0.949 . S
C791 H786 0.950 . S
C791 C793 1.327 . S
C791 C797 1.429 . S
C792 C784 1.574 . S
C792 H787 0.949 . S
C792 C798 1.368 . S
C793 C777 1.349 . S
C793 H785 0.950 . S
C793 C791 1.327 . S
C794 C782 1.349 . S
C794 H788 0.950 . S
C794 C795 1.327 . S
C795 H789 0.950 . S
C795 C794 1.327 . S
C795 C799 1.429 . S
C796 C779 1.574 . S
C796 H790 0.949 . S
C796 C800 1.368 . S
C797 C778 1.429 . S
C797 C791 1.429 . S
C797 C798 1.523 . S
C798 C779 1.368 . S
C798 C792 1.368 . S
C798 C797 1.523 . S
C799 C783 1.429 . S
C799 C795 1.429 . S
C799 C800 1.523 . S
C800 C784 1.368 . S
C800 C796 1.368 . S
C800 C799 1.523 . S
H801 C776 0.950 . S
H802 C778 0.950 . S
H803 C779 0.949 . S
H804 C781 0.950 . S
H805 C783 0.950 . S
C806 C807 1.349 . S
C806 C808 1.327 . S
C806 H831 0.950 . S
C807 C806 1.349 . S
C807 C823 1.349 . S
C808 C806 1.327 . S
C808 C827 1.429 . S
C808 H832 0.950 . S
C809 C826 1.574 . S
C809 C828 1.368 . S
C809 H833 0.949 . S
H810 C814 0.949 . S
C811 C812 1.349 . S
C811 C813 1.327 . S
C811 H834 0.950 . S
C812 C811 1.349 . S
C812 C824 1.349 . S
C813 C811 1.327 . S
C813 C829 1.429 . S
C813 H835 0.950 . S
C814 H810 0.949 . S
C814 C822 1.574 . S
C814 C830 1.368 . S
H815 C823 0.950 . S
H816 C821 0.950 . S
H817 C822 0.949 . S
H818 C824 0.950 . S
H819 C825 0.950 . S
H820 C826 0.949 . S
C821 H816 0.950 . S
C821 C823 1.327 . S
C821 C827 1.429 . S
C822 C814 1.574 . S
C822 H817 0.949 . S
C822 C828 1.368 . S
C823 C807 1.349 . S
C823 H815 0.950 . S
C823 C821 1.327 . S
C824 C812 1.349 . S
C824 H818 0.950 . S
C824 C825 1.327 . S
C825 H819 0.950 . S
C825 C824 1.327 . S
C825 C829 1.429 . S
C826 C809 1.574 . S
C826 H820 0.949 . S
C826 C830 1.368 . S
C827 C808 1.429 . S
C827 C821 1.429 . S
C827 C828 1.523 . S
C828 C809 1.368 . S
C828 C822 1.368 . S
C828 C827 1.523 . S
C829 C813 1.429 . S
C829 C825 1.429 . S
C829 C830 1.523 . S
C830 C814 1.368 . S
C830 C826 1.368 . S
C830 C829 1.523 . S
H831 C806 0.950 . S
H832 C808 0.950 . S
H833 C809 0.949 . S
H834 C811 0.950 . S
H835 C813 0.950 . S
C836 C837 1.349 . S
C836 C838 1.327 . S
C836 H861 0.950 . S
C837 C836 1.349 . S
C837 C853 1.349 . S
C838 C836 1.327 . S
C838 C857 1.429 . S
C838 H862 0.950 . S
C839 C856 1.574 . S
C839 C858 1.368 . S
C839 H863 0.949 . S
H840 C844 0.949 . S
C841 C842 1.349 . S
C841 C843 1.327 . S
C841 H864 0.950 . S
C842 C841 1.349 . S
C842 C854 1.349 . S
C843 C841 1.327 . S
C843 C859 1.429 . S
C843 H865 0.950 . S
C844 H840 0.949 . S
C844 C852 1.574 . S
C844 C860 1.368 . S
H845 C853 0.950 . S
H846 C851 0.950 . S
H847 C852 0.949 . S
H848 C854 0.950 . S
H849 C855 0.950 . S
H850 C856 0.949 . S
C851 H846 0.950 . S
C851 C853 1.327 . S
C851 C857 1.429 . S
C852 C844 1.574 . S
C852 H847 0.949 . S
C852 C858 1.368 . S
C853 C837 1.349 . S
C853 H845 0.950 . S
C853 C851 1.327 . S
C854 C842 1.349 . S
C854 H848 0.950 . S
C854 C855 1.327 . S
C855 H849 0.950 . S
C855 C854 1.327 . S
C855 C859 1.429 . S
C856 C839 1.574 . S
C856 H850 0.949 . S
C856 C860 1.368 . S
C857 C838 1.429 . S
C857 C851 1.429 . S
C857 C858 1.523 . S
C858 C839 1.368 . S
C858 C852 1.368 . S
C858 C857 1.523 . S
C859 C843 1.429 . S
C859 C855 1.429 . S
C859 C860 1.523 . S
C860 C844 1.368 . S
C860 C856 1.368 . S
C860 C859 1.523 . S
H861 C836 0.950 . S
H862 C838 0.950 . S
H863 C839 0.949 . S
H864 C841 0.950 . S
H865 C843 0.950 . S
C866 C867 1.349 . S
C866 C868 1.327 . S
C866 H891 0.950 . S
C867 C866 1.349 . S
C867 C883 1.349 . S
C868 C866 1.327 . S
C868 C887 1.429 . S
C868 H892 0.950 . S
C869 C886 1.574 . S
C869 C888 1.368 . S
C869 H893 0.949 . S
H870 C874 0.949 . S
C871 C872 1.349 . S
C871 C873 1.327 . S
C871 H894 0.950 . S
C872 C871 1.349 . S
C872 C884 1.349 . S
C873 C871 1.327 . S
C873 C889 1.429 . S
C873 H895 0.950 . S
C874 H870 0.949 . S
C874 C882 1.574 . S
C874 C890 1.368 . S
H875 C883 0.950 . S
H876 C881 0.950 . S
H877 C882 0.949 . S
H878 C884 0.950 . S
H879 C885 0.950 . S
H880 C886 0.949 . S
C881 H876 0.950 . S
C881 C883 1.327 . S
C881 C887 1.429 . S
C882 C874 1.574 . S
C882 H877 0.949 . S
C882 C888 1.368 . S
C883 C867 1.349 . S
C883 H875 0.950 . S
C883 C881 1.327 . S
C884 C872 1.349 . S
C884 H878 0.950 . S
C884 C885 1.327 . S
C885 H879 0.950 . S
C885 C884 1.327 . S
C885 C889 1.429 . S
C886 C869 1.574 . S
C886 H880 0.949 . S
C886 C890 1.368 . S
C887 C868 1.429 . S
C887 C881 1.429 . S
C887 C888 1.523 . S
C888 C869 1.368 . S
C888 C882 1.368 . S
C888 C887 1.523 . S
C889 C873 1.429 . S
C889 C885 1.429 . S
C889 C890 1.523 . S
C890 C874 1.368 . S
C890 C886 1.368 . S
C890 C889 1.523 . S
H891 C866 0.950 . S
H892 C868 0.950 . S
H893 C869 0.949 . S
H894 C871 0.950 . S
H895 C873 0.950 . S
C896 C897 1.349 . S
C896 C898 1.327 . S
C896 H921 0.950 . S
C897 C896 1.349 . S
C897 C913 1.349 . S
C898 C896 1.327 . S
C898 C917 1.429 . S
C898 H922 0.950 . S
C899 C916 1.574 1_655 S
C899 C918 1.368 . S
C899 H923 0.949 . S
H900 C904 0.949 . S
C901 C902 1.349 . S
C901 C903 1.327 . S
C901 H924 0.950 . S
C902 C901 1.349 . S
C902 C914 1.349 . S
C903 C901 1.327 . S
C903 C919 1.429 . S
C903 H925 0.950 . S
C904 H900 0.949 . S
C904 C912 1.574 1_455 S
C904 C920 1.368 . S
H905 C913 0.950 . S
H906 C911 0.950 . S
H907 C912 0.949 . S
H908 C914 0.950 . S
H909 C915 0.950 . S
H910 C916 0.949 . S
C911 H906 0.950 . S
C911 C913 1.327 . S
C911 C917 1.429 . S
C912 C904 1.574 1_655 S
C912 H907 0.949 . S
C912 C918 1.368 . S
C913 C897 1.349 . S
C913 H905 0.950 . S
C913 C911 1.327 . S
C914 C902 1.349 . S
C914 H908 0.950 . S
C914 C915 1.327 . S
C915 H909 0.950 . S
C915 C914 1.327 . S
C915 C919 1.429 . S
C916 C899 1.574 1_455 S
C916 H910 0.949 . S
C916 C920 1.368 . S
C917 C898 1.429 . S
C917 C911 1.429 . S
C917 C918 1.523 . S
C918 C899 1.368 . S
C918 C912 1.368 . S
C918 C917 1.523 . S
C919 C903 1.429 . S
C919 C915 1.429 . S
C919 C920 1.523 . S
C920 C904 1.368 . S
C920 C916 1.368 . S
C920 C919 1.523 . S
H921 C896 0.950 . S
H922 C898 0.950 . S
H923 C899 0.949 . S
H924 C901 0.950 . S
H925 C903 0.950 . S
C926 C927 1.349 . S
C926 C928 1.327 . S
C926 H951 0.950 . S
C927 C926 1.349 . S
C927 C943 1.349 . S
C928 C926 1.327 . S
C928 C947 1.429 . S
C928 H952 0.950 . S
C929 C946 1.574 1_545 S
C929 C948 1.368 . S
C929 H953 0.949 . S
H930 C934 0.949 . S
C931 C932 1.349 . S
C931 C933 1.327 . S
C931 H954 0.950 . S
C932 C931 1.349 . S
C932 C944 1.349 . S
C933 C931 1.327 . S
C933 C949 1.429 . S
C933 H955 0.950 . S
C934 H930 0.949 . S
C934 C942 1.574 1_565 S
C934 C950 1.368 . S
H935 C943 0.950 . S
H936 C941 0.950 . S
H937 C942 0.949 . S
H938 C944 0.950 . S
H939 C945 0.950 . S
H940 C946 0.949 . S
C941 H936 0.950 . S
C941 C943 1.327 . S
C941 C947 1.429 . S
C942 C934 1.574 1_545 S
C942 H937 0.949 . S
C942 C948 1.368 . S
C943 C927 1.349 . S
C943 H935 0.950 . S
C943 C941 1.327 . S
C944 C932 1.349 . S
C944 H938 0.950 . S
C944 C945 1.327 . S
C945 H939 0.950 . S
C945 C944 1.327 . S
C945 C949 1.429 . S
C946 C929 1.574 1_565 S
C946 H940 0.949 . S
C946 C950 1.368 . S
C947 C928 1.429 . S
C947 C941 1.429 . S
C947 C948 1.523 . S
C948 C929 1.368 . S
C948 C942 1.368 . S
C948 C947 1.523 . S
C949 C933 1.429 . S
C949 C945 1.429 . S
C949 C950 1.523 . S
C950 C934 1.368 . S
C950 C946 1.368 . S
C950 C949 1.523 . S
H951 C926 0.950 . S
H952 C928 0.950 . S
H953 C929 0.949 . S
H954 C931 0.950 . S
H955 C933 0.950 . S
C956 C957 1.349 . S
C956 C958 1.327 . S
C956 H981 0.950 . S
C957 C956 1.349 . S
C957 C973 1.349 . S
C958 C956 1.327 . S
C958 C977 1.429 . S
C958 H982 0.950 . S
C959 C976 1.574 1_455 S
C959 C978 1.368 . S
C959 H983 0.949 . S
H960 C964 0.949 . S
C961 C962 1.349 . S
C961 C963 1.327 . S
C961 H984 0.950 . S
C962 C961 1.349 . S
C962 C974 1.349 . S
C963 C961 1.327 . S
C963 C979 1.429 . S
C963 H985 0.950 . S
C964 H960 0.949 . S
C964 C972 1.574 1_655 S
C964 C980 1.368 . S
H965 C973 0.950 . S
H966 C971 0.950 . S
H967 C972 0.949 . S
H968 C974 0.950 . S
H969 C975 0.950 . S
H970 C976 0.949 . S
C971 H966 0.950 . S
C971 C973 1.327 . S
C971 C977 1.429 . S
C972 C964 1.574 1_455 S
C972 H967 0.949 . S
C972 C978 1.368 . S
C973 C957 1.349 . S
C973 H965 0.950 . S
C973 C971 1.327 . S
C974 C962 1.349 . S
C974 H968 0.950 . S
C974 C975 1.327 . S
C975 H969 0.950 . S
C975 C974 1.327 . S
C975 C979 1.429 . S
C976 C959 1.574 1_655 S
C976 H970 0.949 . S
C976 C980 1.368 . S
C977 C958 1.429 . S
C977 C971 1.429 . S
C977 C978 1.523 . S
C978 C959 1.368 . S
C978 C972 1.368 . S
C978 C977 1.523 . S
C979 C963 1.429 . S
C979 C975 1.429 . S
C979 C980 1.523 . S
C980 C964 1.368 . S
C980 C976 1.368 . S
C980 C979 1.523 . S
H981 C956 0.950 . S
H982 C958 0.950 . S
H983 C959 0.949 . S
H984 C961 0.950 . S
H985 C963 0.950 . S
C986 C987 1.349 . S
C986 C988 1.327 . S
C986 H1011 0.950 . S
C987 C986 1.349 . S
C987 C1003 1.349 . S
C988 C986 1.327 . S
C988 C1007 1.429 . S
C988 H1012 0.950 . S
C989 C1006 1.574 1_565 S
C989 C1008 1.368 . S
C989 H1013 0.949 . S
H990 C994 0.949 . S
C991 C992 1.349 . S
C991 C993 1.327 . S
C991 H1014 0.950 . S
C992 C991 1.349 . S
C992 C1004 1.349 . S
C993 C991 1.327 . S
C993 C1009 1.429 . S
C993 H1015 0.950 . S
C994 H990 0.949 . S
C994 C1002 1.574 1_545 S
C994 C1010 1.368 . S
H995 C1003 0.950 . S
H996 C1001 0.950 . S
H997 C1002 0.949 . S
H998 C1004 0.950 . S
H999 C1005 0.950 . S
H1000 C1006 0.949 . S
C1001 H996 0.950 . S
C1001 C1003 1.327 . S
C1001 C1007 1.429 . S
C1002 C994 1.574 1_565 S
C1002 H997 0.949 . S
C1002 C1008 1.368 . S
C1003 C987 1.349 . S
C1003 H995 0.950 . S
C1003 C1001 1.327 . S
C1004 C992 1.349 . S
C1004 H998 0.950 . S
C1004 C1005 1.327 . S
C1005 H999 0.950 . S
C1005 C1004 1.327 . S
C1005 C1009 1.429 . S
C1006 C989 1.574 1_545 S
C1006 H1000 0.949 . S
C1006 C1010 1.368 . S
C1007 C988 1.429 . S
C1007 C1001 1.429 . S
C1007 C1008 1.523 . S
C1008 C989 1.368 . S
C1008 C1002 1.368 . S
C1008 C1007 1.523 . S
C1009 C993 1.429 . S
C1009 C1005 1.429 . S
C1009 C1010 1.523 . S
C1010 C994 1.368 . S
C1010 C1006 1.368 . S
C1010 C1009 1.523 . S
H1011 C986 0.950 . S
H1012 C988 0.950 . S
H1013 C989 0.949 . S
H1014 C991 0.950 . S
H1015 C993 0.950 . S
C1016 C1017 1.349 . S
C1016 C1018 1.327 . S
C1016 H1041 0.950 . S
C1017 C1016 1.349 . S
C1017 C1033 1.349 . S
C1018 C1016 1.327 . S
C1018 C1037 1.429 . S
C1018 H1042 0.950 . S
C1019 C1036 1.574 1_455 S
C1019 C1038 1.368 . S
C1019 H1043 0.949 . S
H1020 C1024 0.949 . S
C1021 C1022 1.349 . S
C1021 C1023 1.327 . S
C1021 H1044 0.950 . S
C1022 C1021 1.349 . S
C1022 C1034 1.349 . S
C1023 C1021 1.327 . S
C1023 C1039 1.429 . S
C1023 H1045 0.950 . S
C1024 H1020 0.949 . S
C1024 C1032 1.574 1_655 S
C1024 C1040 1.368 . S
H1025 C1033 0.950 . S
H1026 C1031 0.950 . S
H1027 C1032 0.949 . S
H1028 C1034 0.950 . S
H1029 C1035 0.950 . S
H1030 C1036 0.949 . S
C1031 H1026 0.950 . S
C1031 C1033 1.327 . S
C1031 C1037 1.429 . S
C1032 C1024 1.574 1_455 S
C1032 H1027 0.949 . S
C1032 C1038 1.368 . S
C1033 C1017 1.349 . S
C1033 H1025 0.950 . S
C1033 C1031 1.327 . S
C1034 C1022 1.349 . S
C1034 H1028 0.950 . S
C1034 C1035 1.327 . S
C1035 H1029 0.950 . S
C1035 C1034 1.327 . S
C1035 C1039 1.429 . S
C1036 C1019 1.574 1_655 S
C1036 H1030 0.949 . S
C1036 C1040 1.368 . S
C1037 C1018 1.429 . S
C1037 C1031 1.429 . S
C1037 C1038 1.523 . S
C1038 C1019 1.368 . S
C1038 C1032 1.368 . S
C1038 C1037 1.523 . S
C1039 C1023 1.429 . S
C1039 C1035 1.429 . S
C1039 C1040 1.523 . S
C1040 C1024 1.368 . S
C1040 C1036 1.368 . S
C1040 C1039 1.523 . S
H1041 C1016 0.950 . S
H1042 C1018 0.950 . S
H1043 C1019 0.949 . S
H1044 C1021 0.950 . S
H1045 C1023 0.950 . S
C1046 C1047 1.349 . S
C1046 C1048 1.327 . S
C1046 H1071 0.950 . S
C1047 C1046 1.349 . S
C1047 C1063 1.349 . S
C1048 C1046 1.327 . S
C1048 C1067 1.429 . S
C1048 H1072 0.950 . S
C1049 C1066 1.574 1_565 S
C1049 C1068 1.368 . S
C1049 H1073 0.949 . S
H1050 C1054 0.949 . S
C1051 C1052 1.349 . S
C1051 C1053 1.327 . S
C1051 H1074 0.950 . S
C1052 C1051 1.349 . S
C1052 C1064 1.349 . S
C1053 C1051 1.327 . S
C1053 C1069 1.429 . S
C1053 H1075 0.950 . S
C1054 H1050 0.949 . S
C1054 C1062 1.574 1_545 S
C1054 C1070 1.368 . S
H1055 C1063 0.950 . S
H1056 C1061 0.950 . S
H1057 C1062 0.949 . S
H1058 C1064 0.950 . S
H1059 C1065 0.950 . S
H1060 C1066 0.949 . S
C1061 H1056 0.950 . S
C1061 C1063 1.327 . S
C1061 C1067 1.429 . S
C1062 C1054 1.574 1_565 S
C1062 H1057 0.949 . S
C1062 C1068 1.368 . S
C1063 C1047 1.349 . S
C1063 H1055 0.950 . S
C1063 C1061 1.327 . S
C1064 C1052 1.349 . S
C1064 H1058 0.950 . S
C1064 C1065 1.327 . S
C1065 H1059 0.950 . S
C1065 C1064 1.327 . S
C1065 C1069 1.429 . S
C1066 C1049 1.574 1_545 S
C1066 H1060 0.949 . S
C1066 C1070 1.368 . S
C1067 C1048 1.429 . S
C1067 C1061 1.429 . S
C1067 C1068 1.523 . S
C1068 C1049 1.368 . S
C1068 C1062 1.368 . S
C1068 C1067 1.523 . S
C1069 C1053 1.429 . S
C1069 C1065 1.429 . S
C1069 C1070 1.523 . S
C1070 C1054 1.368 . S
C1070 C1066 1.368 . S
C1070 C1069 1.523 . S
H1071 C1046 0.950 . S
H1072 C1048 0.950 . S
H1073 C1049 0.949 . S
H1074 C1051 0.950 . S
H1075 C1053 0.950 . S
C1076 C1077 1.349 . S
C1076 C1078 1.327 . S
C1076 H1101 0.950 . S
C1077 C1076 1.349 . S
C1077 C1093 1.349 . S
C1078 C1076 1.327 . S
C1078 C1097 1.429 . S
C1078 H1102 0.950 . S
C1079 C1096 1.574 1_455 S
C1079 C1098 1.368 . S
C1079 H1103 0.949 . S
H1080 C1084 0.949 . S
C1081 C1082 1.349 . S
C1081 C1083 1.327 . S
C1081 H1104 0.950 . S
C1082 C1081 1.349 . S
C1082 C1094 1.349 . S
C1083 C1081 1.327 . S
C1083 C1099 1.429 . S
C1083 H1105 0.950 . S
C1084 H1080 0.949 . S
C1084 C1092 1.574 1_655 S
C1084 C1100 1.368 . S
H1085 C1093 0.950 . S
H1086 C1091 0.950 . S
H1087 C1092 0.949 . S
H1088 C1094 0.950 . S
H1089 C1095 0.950 . S
H1090 C1096 0.949 . S
C1091 H1086 0.950 . S
C1091 C1093 1.327 . S
C1091 C1097 1.429 . S
C1092 C1084 1.574 1_455 S
C1092 H1087 0.949 . S
C1092 C1098 1.368 . S
C1093 C1077 1.349 . S
C1093 H1085 0.950 . S
C1093 C1091 1.327 . S
C1094 C1082 1.349 . S
C1094 H1088 0.950 . S
C1094 C1095 1.327 . S
C1095 H1089 0.950 . S
C1095 C1094 1.327 . S
C1095 C1099 1.429 . S
C1096 C1079 1.574 1_655 S
C1096 H1090 0.949 . S
C1096 C1100 1.368 . S
C1097 C1078 1.429 . S
C1097 C1091 1.429 . S
C1097 C1098 1.523 . S
C1098 C1079 1.368 . S
C1098 C1092 1.368 . S
C1098 C1097 1.523 . S
C1099 C1083 1.429 . S
C1099 C1095 1.429 . S
C1099 C1100 1.523 . S
C1100 C1084 1.368 . S
C1100 C1096 1.368 . S
C1100 C1099 1.523 . S
H1101 C1076 0.950 . S
H1102 C1078 0.950 . S
H1103 C1079 0.949 . S
H1104 C1081 0.950 . S
H1105 C1083 0.950 . S
C1106 C1107 1.349 . S
C1106 C1108 1.327 . S
C1106 H1131 0.950 . S
C1107 C1106 1.349 . S
C1107 C1123 1.349 . S
C1108 C1106 1.327 . S
C1108 C1127 1.429 . S
C1108 H1132 0.950 . S
C1109 C1126 1.574 1_545 S
C1109 C1128 1.368 . S
C1109 H1133 0.949 . S
H1110 C1114 0.949 . S
C1111 C1112 1.349 . S
C1111 C1113 1.327 . S
C1111 H1134 0.950 . S
C1112 C1111 1.349 . S
C1112 C1124 1.349 . S
C1113 C1111 1.327 . S
C1113 C1129 1.429 . S
C1113 H1135 0.950 . S
C1114 H1110 0.949 . S
C1114 C1122 1.574 1_565 S
C1114 C1130 1.368 . S
H1115 C1123 0.950 . S
H1116 C1121 0.950 . S
H1117 C1122 0.949 . S
H1118 C1124 0.950 . S
H1119 C1125 0.950 . S
H1120 C1126 0.949 . S
C1121 H1116 0.950 . S
C1121 C1123 1.327 . S
C1121 C1127 1.429 . S
C1122 C1114 1.574 1_545 S
C1122 H1117 0.949 . S
C1122 C1128 1.368 . S
C1123 C1107 1.349 . S
C1123 H1115 0.950 . S
C1123 C1121 1.327 . S
C1124 C1112 1.349 . S
C1124 H1118 0.950 . S
C1124 C1125 1.327 . S
C1125 H1119 0.950 . S
C1125 C1124 1.327 . S
C1125 C1129 1.429 . S
C1126 C1109 1.574 1_565 S
C1126 H1120 0.949 . S
C1126 C1130 1.368 . S
C1127 C1108 1.429 . S
C1127 C1121 1.429 . S
C1127 C1128 1.523 . S
C1128 C1109 1.368 . S
C1128 C1122 1.368 . S
C1128 C1127 1.523 . S
C1129 C1113 1.429 . S
C1129 C1125 1.429 . S
C1129 C1130 1.523 . S
C1130 C1114 1.368 . S
C1130 C1126 1.368 . S
C1130 C1129 1.523 . S
H1131 C1106 0.950 . S
H1132 C1108 0.950 . S
H1133 C1109 0.949 . S
H1134 C1111 0.950 . S
H1135 C1113 0.950 . S
C1136 C1137 1.349 . S
C1136 C1138 1.327 . S
C1136 H1161 0.950 . S
C1137 C1136 1.349 . S
C1137 C1153 1.349 . S
C1138 C1136 1.327 . S
C1138 C1157 1.429 . S
C1138 H1162 0.950 . S
C1139 C1156 1.574 . S
C1139 C1158 1.368 . S
C1139 H1163 0.949 . S
H1140 C1144 0.949 . S
C1141 C1142 1.349 . S
C1141 C1143 1.327 . S
C1141 H1164 0.950 . S
C1142 C1141 1.349 . S
C1142 C1154 1.349 . S
C1143 C1141 1.327 . S
C1143 C1159 1.429 . S
C1143 H1165 0.950 . S
C1144 H1140 0.949 . S
C1144 C1152 1.574 . S
C1144 C1160 1.368 . S
H1145 C1153 0.950 . S
H1146 C1151 0.950 . S
H1147 C1152 0.949 . S
H1148 C1154 0.950 . S
H1149 C1155 0.950 . S
H1150 C1156 0.949 . S
C1151 H1146 0.950 . S
C1151 C1153 1.327 . S
C1151 C1157 1.429 . S
C1152 C1144 1.574 . S
C1152 H1147 0.949 . S
C1152 C1158 1.368 . S
C1153 C1137 1.349 . S
C1153 H1145 0.950 . S
C1153 C1151 1.327 . S
C1154 C1142 1.349 . S
C1154 H1148 0.950 . S
C1154 C1155 1.327 . S
C1155 H1149 0.950 . S
C1155 C1154 1.327 . S
C1155 C1159 1.429 . S
C1156 C1139 1.574 . S
C1156 H1150 0.949 . S
C1156 C1160 1.368 . S
C1157 C1138 1.429 . S
C1157 C1151 1.429 . S
C1157 C1158 1.523 . S
C1158 C1139 1.368 . S
C1158 C1152 1.368 . S
C1158 C1157 1.523 . S
C1159 C1143 1.429 . S
C1159 C1155 1.429 . S
C1159 C1160 1.523 . S
C1160 C1144 1.368 . S
C1160 C1156 1.368 . S
C1160 C1159 1.523 . S
H1161 C1136 0.950 . S
H1162 C1138 0.950 . S
H1163 C1139 0.949 . S
H1164 C1141 0.950 . S
H1165 C1143 0.950 . S
C1166 C1167 1.349 . S
C1166 C1168 1.327 . S
C1166 H1191 0.950 . S
C1167 C1166 1.349 . S
C1167 C1183 1.349 . S
C1168 C1166 1.327 . S
C1168 C1187 1.429 . S
C1168 H1192 0.950 . S
C1169 C1186 1.574 . S
C1169 C1188 1.368 . S
C1169 H1193 0.949 . S
H1170 C1174 0.949 . S
C1171 C1172 1.349 . S
C1171 C1173 1.327 . S
C1171 H1194 0.950 . S
C1172 C1171 1.349 . S
C1172 C1184 1.349 . S
C1173 C1171 1.327 . S
C1173 C1189 1.429 . S
C1173 H1195 0.950 . S
C1174 H1170 0.949 . S
C1174 C1182 1.574 . S
C1174 C1190 1.368 . S
H1175 C1183 0.950 . S
H1176 C1181 0.950 . S
H1177 C1182 0.949 . S
H1178 C1184 0.950 . S
H1179 C1185 0.950 . S
H1180 C1186 0.949 . S
C1181 H1176 0.950 . S
C1181 C1183 1.327 . S
C1181 C1187 1.429 . S
C1182 C1174 1.574 . S
C1182 H1177 0.949 . S
C1182 C1188 1.368 . S
C1183 C1167 1.349 . S
C1183 H1175 0.950 . S
C1183 C1181 1.327 . S
C1184 C1172 1.349 . S
C1184 H1178 0.950 . S
C1184 C1185 1.327 . S
C1185 H1179 0.950 . S
C1185 C1184 1.327 . S
C1185 C1189 1.429 . S
C1186 C1169 1.574 . S
C1186 H1180 0.949 . S
C1186 C1190 1.368 . S
C1187 C1168 1.429 . S
C1187 C1181 1.429 . S
C1187 C1188 1.523 . S
C1188 C1169 1.368 . S
C1188 C1182 1.368 . S
C1188 C1187 1.523 . S
C1189 C1173 1.429 . S
C1189 C1185 1.429 . S
C1189 C1190 1.523 . S
C1190 C1174 1.368 . S
C1190 C1186 1.368 . S
C1190 C1189 1.523 . S
H1191 C1166 0.950 . S
H1192 C1168 0.950 . S
H1193 C1169 0.949 . S
H1194 C1171 0.950 . S
H1195 C1173 0.950 . S
C1196 C1197 1.349 . S
C1196 C1198 1.327 . S
C1196 H1221 0.950 . S
C1197 C1196 1.349 . S
C1197 C1213 1.349 . S
C1198 C1196 1.327 . S
C1198 C1217 1.429 . S
C1198 H1222 0.950 . S
C1199 C1216 1.574 . S
C1199 C1218 1.368 . S
C1199 H1223 0.949 . S
H1200 C1204 0.949 . S
C1201 C1202 1.349 . S
C1201 C1203 1.327 . S
C1201 H1224 0.950 . S
C1202 C1201 1.349 . S
C1202 C1214 1.349 . S
C1203 C1201 1.327 . S
C1203 C1219 1.429 . S
C1203 H1225 0.950 . S
C1204 H1200 0.949 . S
C1204 C1212 1.574 . S
C1204 C1220 1.368 . S
H1205 C1213 0.950 . S
H1206 C1211 0.950 . S
H1207 C1212 0.949 . S
H1208 C1214 0.950 . S
H1209 C1215 0.950 . S
H1210 C1216 0.949 . S
C1211 H1206 0.950 . S
C1211 C1213 1.327 . S
C1211 C1217 1.429 . S
C1212 C1204 1.574 . S
C1212 H1207 0.949 . S
C1212 C1218 1.368 . S
C1213 C1197 1.349 . S
C1213 H1205 0.950 . S
C1213 C1211 1.327 . S
C1214 C1202 1.349 . S
C1214 H1208 0.950 . S
C1214 C1215 1.327 . S
C1215 H1209 0.950 . S
C1215 C1214 1.327 . S
C1215 C1219 1.429 . S
C1216 C1199 1.574 . S
C1216 H1210 0.949 . S
C1216 C1220 1.368 . S
C1217 C1198 1.429 . S
C1217 C1211 1.429 . S
C1217 C1218 1.523 . S
C1218 C1199 1.368 . S
C1218 C1212 1.368 . S
C1218 C1217 1.523 . S
C1219 C1203 1.429 . S
C1219 C1215 1.429 . S
C1219 C1220 1.523 . S
C1220 C1204 1.368 . S
C1220 C1216 1.368 . S
C1220 C1219 1.523 . S
H1221 C1196 0.950 . S
H1222 C1198 0.950 . S
H1223 C1199 0.949 . S
H1224 C1201 0.950 . S
H1225 C1203 0.950 . S
C1226 C1227 1.349 . S
C1226 C1228 1.327 . S
C1226 H1251 0.950 . S
C1227 C1226 1.349 . S
C1227 C1243 1.349 . S
C1228 C1226 1.327 . S
C1228 C1247 1.429 . S
C1228 H1252 0.950 . S
C1229 C1246 1.574 . S
C1229 C1248 1.368 . S
C1229 H1253 0.949 . S
H1230 C1234 0.949 . S
C1231 C1232 1.349 . S
C1231 C1233 1.327 . S
C1231 H1254 0.950 . S
C1232 C1231 1.349 . S
C1232 C1244 1.349 . S
C1233 C1231 1.327 . S
C1233 C1249 1.429 . S
C1233 H1255 0.950 . S
C1234 H1230 0.949 . S
C1234 C1242 1.574 . S
C1234 C1250 1.368 . S
H1235 C1243 0.950 . S
H1236 C1241 0.950 . S
H1237 C1242 0.949 . S
H1238 C1244 0.950 . S
H1239 C1245 0.950 . S
H1240 C1246 0.949 . S
C1241 H1236 0.950 . S
C1241 C1243 1.327 . S
C1241 C1247 1.429 . S
C1242 C1234 1.574 . S
C1242 H1237 0.949 . S
C1242 C1248 1.368 . S
C1243 C1227 1.349 . S
C1243 H1235 0.950 . S
C1243 C1241 1.327 . S
C1244 C1232 1.349 . S
C1244 H1238 0.950 . S
C1244 C1245 1.327 . S
C1245 H1239 0.950 . S
C1245 C1244 1.327 . S
C1245 C1249 1.429 . S
C1246 C1229 1.574 . S
C1246 H1240 0.949 . S
C1246 C1250 1.368 . S
C1247 C1228 1.429 . S
C1247 C1241 1.429 . S
C1247 C1248 1.523 . S
C1248 C1229 1.368 . S
C1248 C1242 1.368 . S
C1248 C1247 1.523 . S
C1249 C1233 1.429 . S
C1249 C1245 1.429 . S
C1249 C1250 1.523 . S
C1250 C1234 1.368 . S
C1250 C1246 1.368 . S
C1250 C1249 1.523 . S
H1251 C1226 0.950 . S
H1252 C1228 0.950 . S
H1253 C1229 0.949 . S
H1254 C1231 0.950 . S
H1255 C1233 0.950 . S
C1256 C1257 1.349 . S
C1256 C1258 1.327 . S
C1256 H1281 0.950 . S
C1257 C1256 1.349 . S
C1257 C1273 1.349 . S
C1258 C1256 1.327 . S
C1258 C1277 1.429 . S
C1258 H1282 0.950 . S
C1259 C1276 1.574 . S
C1259 C1278 1.368 . S
C1259 H1283 0.949 . S
H1260 C1264 0.949 . S
C1261 C1262 1.349 . S
C1261 C1263 1.327 . S
C1261 H1284 0.950 . S
C1262 C1261 1.349 . S
C1262 C1274 1.349 . S
C1263 C1261 1.327 . S
C1263 C1279 1.429 . S
C1263 H1285 0.950 . S
C1264 H1260 0.949 . S
C1264 C1272 1.574 . S
C1264 C1280 1.368 . S
H1265 C1273 0.950 . S
H1266 C1271 0.950 . S
H1267 C1272 0.949 . S
H1268 C1274 0.950 . S
H1269 C1275 0.950 . S
H1270 C1276 0.949 . S
C1271 H1266 0.950 . S
C1271 C1273 1.327 . S
C1271 C1277 1.429 . S
C1272 C1264 1.574 . S
C1272 H1267 0.949 . S
C1272 C1278 1.368 . S
C1273 C1257 1.349 . S
C1273 H1265 0.950 . S
C1273 C1271 1.327 . S
C1274 C1262 1.349 . S
C1274 H1268 0.950 . S
C1274 C1275 1.327 . S
C1275 H1269 0.950 . S
C1275 C1274 1.327 . S
C1275 C1279 1.429 . S
C1276 C1259 1.574 . S
C1276 H1270 0.949 . S
C1276 C1280 1.368 . S
C1277 C1258 1.429 . S
C1277 C1271 1.429 . S
C1277 C1278 1.523 . S
C1278 C1259 1.368 . S
C1278 C1272 1.368 . S
C1278 C1277 1.523 . S
C1279 C1263 1.429 . S
C1279 C1275 1.429 . S
C1279 C1280 1.523 . S
C1280 C1264 1.368 . S
C1280 C1276 1.368 . S
C1280 C1279 1.523 . S
H1281 C1256 0.950 . S
H1282 C1258 0.950 . S
H1283 C1259 0.949 . S
H1284 C1261 0.950 . S
H1285 C1263 0.950 . S
C1286 C1287 1.349 . S
C1286 C1288 1.327 . S
C1286 H1311 0.950 . S
C1287 C1286 1.349 . S
C1287 C1303 1.349 . S
C1288 C1286 1.327 . S
C1288 C1307 1.429 . S
C1288 H1312 0.950 . S
C1289 C1306 1.574 . S
C1289 C1308 1.368 . S
C1289 H1313 0.949 . S
H1290 C1294 0.949 . S
C1291 C1292 1.349 . S
C1291 C1293 1.327 . S
C1291 H1314 0.950 . S
C1292 C1291 1.349 . S
C1292 C1304 1.349 . S
C1293 C1291 1.327 . S
C1293 C1309 1.429 . S
C1293 H1315 0.950 . S
C1294 H1290 0.949 . S
C1294 C1302 1.574 . S
C1294 C1310 1.368 . S
H1295 C1303 0.950 . S
H1296 C1301 0.950 . S
H1297 C1302 0.949 . S
H1298 C1304 0.950 . S
H1299 C1305 0.950 . S
H1300 C1306 0.949 . S
C1301 H1296 0.950 . S
C1301 C1303 1.327 . S
C1301 C1307 1.429 . S
C1302 C1294 1.574 . S
C1302 H1297 0.949 . S
C1302 C1308 1.368 . S
C1303 C1287 1.349 . S
C1303 H1295 0.950 . S
C1303 C1301 1.327 . S
C1304 C1292 1.349 . S
C1304 H1298 0.950 . S
C1304 C1305 1.327 . S
C1305 H1299 0.950 . S
C1305 C1304 1.327 . S
C1305 C1309 1.429 . S
C1306 C1289 1.574 . S
C1306 H1300 0.949 . S
C1306 C1310 1.368 . S
C1307 C1288 1.429 . S
C1307 C1301 1.429 . S
C1307 C1308 1.523 . S
C1308 C1289 1.368 . S
C1308 C1302 1.368 . S
C1308 C1307 1.523 . S
C1309 C1293 1.429 . S
C1309 C1305 1.429 . S
C1309 C1310 1.523 . S
C1310 C1294 1.368 . S
C1310 C1306 1.368 . S
C1310 C1309 1.523 . S
H1311 C1286 0.950 . S
H1312 C1288 0.950 . S
H1313 C1289 0.949 . S
H1314 C1291 0.950 . S
H1315 C1293 0.950 . S
C1316 C1317 1.349 . S
C1316 C1318 1.327 . S
C1316 H1341 0.950 . S
C1317 C1316 1.349 . S
C1317 C1333 1.349 . S
C1318 C1316 1.327 . S
C1318 C1337 1.429 . S
C1318 H1342 0.950 . S
C1319 C1336 1.574 . S
C1319 C1338 1.368 . S
C1319 H1343 0.949 . S
H1320 C1324 0.949 . S
C1321 C1322 1.349 . S
C1321 C1323 1.327 . S
C1321 H1344 0.950 . S
C1322 C1321 1.349 . S
C1322 C1334 1.349 . S
C1323 C1321 1.327 . S
C1323 C1339 1.429 . S
C1323 H1345 0.950 . S
C1324 H1320 0.949 . S
C1324 C1332 1.574 . S
C1324 C1340 1.368 . S
H1325 C1333 0.950 . S
H1326 C1331 0.950 . S
H1327 C1332 0.949 . S
H1328 C1334 0.950 . S
H1329 C1335 0.950 . S
H1330 C1336 0.949 . S
C1331 H1326 0.950 . S
C1331 C1333 1.327 . S
C1331 C1337 1.429 . S
C1332 C1324 1.574 . S
C1332 H1327 0.949 . S
C1332 C1338 1.368 . S
C1333 C1317 1.349 . S
C1333 H1325 0.950 . S
C1333 C1331 1.327 . S
C1334 C1322 1.349 . S
C1334 H1328 0.950 . S
C1334 C1335 1.327 . S
C1335 H1329 0.950 . S
C1335 C1334 1.327 . S
C1335 C1339 1.429 . S
C1336 C1319 1.574 . S
C1336 H1330 0.949 . S
C1336 C1340 1.368 . S
C1337 C1318 1.429 . S
C1337 C1331 1.429 . S
C1337 C1338 1.523 . S
C1338 C1319 1.368 . S
C1338 C1332 1.368 . S
C1338 C1337 1.523 . S
C1339 C1323 1.429 . S
C1339 C1335 1.429 . S
C1339 C1340 1.523 . S
C1340 C1324 1.368 . S
C1340 C1336 1.368 . S
C1340 C1339 1.523 . S
H1341 C1316 0.950 . S
H1342 C1318 0.950 . S
H1343 C1319 0.949 . S
H1344 C1321 0.950 . S
H1345 C1323 0.950 . S
C1346 C1347 1.349 . S
C1346 C1348 1.327 . S
C1346 H1371 0.950 . S
C1347 C1346 1.349 . S
C1347 C1363 1.349 . S
C1348 C1346 1.327 . S
C1348 C1367 1.429 . S
C1348 H1372 0.950 . S
C1349 C1366 1.574 . S
C1349 C1368 1.368 . S
C1349 H1373 0.949 . S
H1350 C1354 0.949 . S
C1351 C1352 1.349 . S
C1351 C1353 1.327 . S
C1351 H1374 0.950 . S
C1352 C1351 1.349 . S
C1352 C1364 1.349 . S
C1353 C1351 1.327 . S
C1353 C1369 1.429 . S
C1353 H1375 0.950 . S
C1354 H1350 0.949 . S
C1354 C1362 1.574 . S
C1354 C1370 1.368 . S
H1355 C1363 0.950 . S
H1356 C1361 0.950 . S
H1357 C1362 0.949 . S
H1358 C1364 0.950 . S
H1359 C1365 0.950 . S
H1360 C1366 0.949 . S
C1361 H1356 0.950 . S
C1361 C1363 1.327 . S
C1361 C1367 1.429 . S
C1362 C1354 1.574 . S
C1362 H1357 0.949 . S
C1362 C1368 1.368 . S
C1363 C1347 1.349 . S
C1363 H1355 0.950 . S
C1363 C1361 1.327 . S
C1364 C1352 1.349 . S
C1364 H1358 0.950 . S
C1364 C1365 1.327 . S
C1365 H1359 0.950 . S
C1365 C1364 1.327 . S
C1365 C1369 1.429 . S
C1366 C1349 1.574 . S
C1366 H1360 0.949 . S
C1366 C1370 1.368 . S
C1367 C1348 1.429 . S
C1367 C1361 1.429 . S
C1367 C1368 1.523 . S
C1368 C1349 1.368 . S
C1368 C1362 1.368 . S
C1368 C1367 1.523 . S
C1369 C1353 1.429 . S
C1369 C1365 1.429 . S
C1369 C1370 1.523 . S
C1370 C1354 1.368 . S
C1370 C1366 1.368 . S
C1370 C1369 1.523 . S
H1371 C1346 0.950 . S
H1372 C1348 0.950 . S
H1373 C1349 0.949 . S
H1374 C1351 0.950 . S
H1375 C1353 0.950 . S
C1376 C1377 1.349 . S
C1376 C1378 1.327 . S
C1376 H1401 0.950 . S
C1377 C1376 1.349 . S
C1377 C1393 1.349 . S
C1378 C1376 1.327 . S
C1378 C1397 1.429 . S
C1378 H1402 0.950 . S
C1379 C1396 1.574 . S
C1379 C1398 1.368 . S
C1379 H1403 0.949 . S
H1380 C1384 0.949 . S
C1381 C1382 1.349 . S
C1381 C1383 1.327 . S
C1381 H1404 0.950 . S
C1382 C1381 1.349 . S
C1382 C1394 1.349 . S
C1383 C1381 1.327 . S
C1383 C1399 1.429 . S
C1383 H1405 0.950 . S
C1384 H1380 0.949 . S
C1384 C1392 1.574 . S
C1384 C1400 1.368 . S
H1385 C1393 0.950 . S
H1386 C1391 0.950 . S
H1387 C1392 0.949 . S
H1388 C1394 0.950 . S
H1389 C1395 0.950 . S
H1390 C1396 0.949 . S
C1391 H1386 0.950 . S
C1391 C1393 1.327 . S
C1391 C1397 1.429 . S
C1392 C1384 1.574 . S
C1392 H1387 0.949 . S
C1392 C1398 1.368 . S
C1393 C1377 1.349 . S
C1393 H1385 0.950 . S
C1393 C1391 1.327 . S
C1394 C1382 1.349 . S
C1394 H1388 0.950 . S
C1394 C1395 1.327 . S
C1395 H1389 0.950 . S
C1395 C1394 1.327 . S
C1395 C1399 1.429 . S
C1396 C1379 1.574 . S
C1396 H1390 0.949 . S
C1396 C1400 1.368 . S
C1397 C1378 1.429 . S
C1397 C1391 1.429 . S
C1397 C1398 1.523 . S
C1398 C1379 1.368 . S
C1398 C1392 1.368 . S
C1398 C1397 1.523 . S
C1399 C1383 1.429 . S
C1399 C1395 1.429 . S
C1399 C1400 1.523 . S
C1400 C1384 1.368 . S
C1400 C1396 1.368 . S
C1400 C1399 1.523 . S
H1401 C1376 0.950 . S
H1402 C1378 0.950 . S
H1403 C1379 0.949 . S
H1404 C1381 0.950 . S
H1405 C1383 0.950 . S
C1406 C1407 1.349 . S
C1406 C1408 1.327 . S
C1406 H1431 0.950 . S
C1407 C1406 1.349 . S
C1407 C1423 1.349 . S
C1408 C1406 1.327 . S
C1408 C1427 1.429 . S
C1408 H1432 0.950 . S
C1409 C1426 1.574 . S
C1409 C1428 1.368 . S
C1409 H1433 0.949 . S
H1410 C1414 0.949 . S
C1411 C1412 1.349 . S
C1411 C1413 1.327 . S
C1411 H1434 0.950 . S
C1412 C1411 1.349 . S
C1412 C1424 1.349 . S
C1413 C1411 1.327 . S
C1413 C1429 1.429 . S
C1413 H1435 0.950 . S
C1414 H1410 0.949 . S
C1414 C1422 1.574 . S
C1414 C1430 1.368 . S
H1415 C1423 0.950 . S
H1416 C1421 0.950 . S
H1417 C1422 0.949 . S
H1418 C1424 0.950 . S
H1419 C1425 0.950 . S
H1420 C1426 0.949 . S
C1421 H1416 0.950 . S
C1421 C1423 1.327 . S
C1421 C1427 1.429 . S
C1422 C1414 1.574 . S
C1422 H1417 0.949 . S
C1422 C1428 1.368 . S
C1423 C1407 1.349 . S
C1423 H1415 0.950 . S
C1423 C1421 1.327 . S
C1424 C1412 1.349 . S
C1424 H1418 0.950 . S
C1424 C1425 1.327 . S
C1425 H1419 0.950 . S
C1425 C1424 1.327 . S
C1425 C1429 1.429 . S
C1426 C1409 1.574 . S
C1426 H1420 0.949 . S
C1426 C1430 1.368 . S
C1427 C1408 1.429 . S
C1427 C1421 1.429 . S
C1427 C1428 1.523 . S
C1428 C1409 1.368 . S
C1428 C1422 1.368 . S
C1428 C1427 1.523 . S
C1429 C1413 1.429 . S
C1429 C1425 1.429 . S
C1429 C1430 1.523 . S
C1430 C1414 1.368 . S
C1430 C1426 1.368 . S
C1430 C1429 1.523 . S
H1431 C1406 0.950 . S
H1432 C1408 0.950 . S
H1433 C1409 0.949 . S
H1434 C1411 0.950 . S
H1435 C1413 0.950 . S
C1436 C1437 1.349 . S
C1436 C1438 1.327 . S
C1436 H1461 0.950 . S
C1437 C1436 1.349 . S
C1437 C1453 1.349 . S
C1438 C1436 1.327 . S
C1438 C1457 1.429 . S
C1438 H1462 0.950 . S
C1439 C1456 1.574 . S
C1439 C1458 1.368 . S
C1439 H1463 0.949 . S
H1440 C1444 0.949 . S
C1441 C1442 1.349 . S
C1441 C1443 1.327 . S
C1441 H1464 0.950 . S
C1442 C1441 1.349 . S
C1442 C1454 1.349 . S
C1443 C1441 1.327 . S
C1443 C1459 1.429 . S
C1443 H1465 0.950 . S
C1444 H1440 0.949 . S
C1444 C1452 1.574 . S
C1444 C1460 1.368 . S
H1445 C1453 0.950 . S
H1446 C1451 0.950 . S
H1447 C1452 0.949 . S
H1448 C1454 0.950 . S
H1449 C1455 0.950 . S
H1450 C1456 0.949 . S
C1451 H1446 0.950 . S
C1451 C1453 1.327 . S
C1451 C1457 1.429 . S
C1452 C1444 1.574 . S
C1452 H1447 0.949 . S
C1452 C1458 1.368 . S
C1453 C1437 1.349 . S
C1453 H1445 0.950 . S
C1453 C1451 1.327 . S
C1454 C1442 1.349 . S
C1454 H1448 0.950 . S
C1454 C1455 1.327 . S
C1455 H1449 0.950 . S
C1455 C1454 1.327 . S
C1455 C1459 1.429 . S
C1456 C1439 1.574 . S
C1456 H1450 0.949 . S
C1456 C1460 1.368 . S
C1457 C1438 1.429 . S
C1457 C1451 1.429 . S
C1457 C1458 1.523 . S
C1458 C1439 1.368 . S
C1458 C1452 1.368 . S
C1458 C1457 1.523 . S
C1459 C1443 1.429 . S
C1459 C1455 1.429 . S
C1459 C1460 1.523 . S
C1460 C1444 1.368 . S
C1460 C1456 1.368 . S
C1460 C1459 1.523 . S
H1461 C1436 0.950 . S
H1462 C1438 0.950 . S
H1463 C1439 0.949 . S
H1464 C1441 0.950 . S
H1465 C1443 0.950 . S
C1466 C1467 1.349 . S
C1466 C1468 1.327 . S
C1466 H1491 0.950 . S
C1467 C1466 1.349 . S
C1467 C1483 1.349 . S
C1468 C1466 1.327 . S
C1468 C1487 1.429 . S
C1468 H1492 0.950 . S
C1469 C1486 1.574 . S
C1469 C1488 1.368 . S
C1469 H1493 0.949 . S
H1470 C1474 0.949 . S
C1471 C1472 1.349 . S
C1471 C1473 1.327 . S
C1471 H1494 0.950 . S
C1472 C1471 1.349 . S
C1472 C1484 1.349 . S
C1473 C1471 1.327 . S
C1473 C1489 1.429 . S
C1473 H1495 0.950 . S
C1474 H1470 0.949 . S
C1474 C1482 1.574 . S
C1474 C1490 1.368 . S
H1475 C1483 0.950 . S
H1476 C1481 0.950 . S
H1477 C1482 0.949 . S
H1478 C1484 0.950 . S
H1479 C1485 0.950 . S
H1480 C1486 0.949 . S
C1481 H1476 0.950 . S
C1481 C1483 1.327 . S
C1481 C1487 1.429 . S
C1482 C1474 1.574 . S
C1482 H1477 0.949 . S
C1482 C1488 1.368 . S
C1483 C1467 1.349 . S
C1483 H1475 0.950 . S
C1483 C1481 1.327 . S
C1484 C1472 1.349 . S
C1484 H1478 0.950 . S
C1484 C1485 1.327 . S
C1485 H1479 0.950 . S
C1485 C1484 1.327 . S
C1485 C1489 1.429 . S
C1486 C1469 1.574 . S
C1486 H1480 0.949 . S
C1486 C1490 1.368 . S
C1487 C1468 1.429 . S
C1487 C1481 1.429 . S
C1487 C1488 1.523 . S
C1488 C1469 1.368 . S
C1488 C1482 1.368 . S
C1488 C1487 1.523 . S
C1489 C1473 1.429 . S
C1489 C1485 1.429 . S
C1489 C1490 1.523 . S
C1490 C1474 1.368 . S
C1490 C1486 1.368 . S
C1490 C1489 1.523 . S
H1491 C1466 0.950 . S
H1492 C1468 0.950 . S
H1493 C1469 0.949 . S
H1494 C1471 0.950 . S
H1495 C1473 0.950 . S
C1496 C1497 1.349 . S
C1496 C1498 1.327 . S
C1496 H1521 0.950 . S
C1497 C1496 1.349 . S
C1497 C1513 1.349 . S
C1498 C1496 1.327 . S
C1498 C1517 1.429 . S
C1498 H1522 0.950 . S
C1499 C1516 1.574 . S
C1499 C1518 1.368 . S
C1499 H1523 0.949 . S
H1500 C1504 0.949 . S
C1501 C1502 1.349 . S
C1501 C1503 1.327 . S
C1501 H1524 0.950 . S
C1502 C1501 1.349 . S
C1502 C1514 1.349 . S
C1503 C1501 1.327 . S
C1503 C1519 1.429 . S
C1503 H1525 0.950 . S
C1504 H1500 0.949 . S
C1504 C1512 1.574 . S
C1504 C1520 1.368 . S
H1505 C1513 0.950 . S
H1506 C1511 0.950 . S
H1507 C1512 0.949 . S
H1508 C1514 0.950 . S
H1509 C1515 0.950 . S
H1510 C1516 0.949 . S
C1511 H1506 0.950 . S
C1511 C1513 1.327 . S
C1511 C1517 1.429 . S
C1512 C1504 1.574 . S
C1512 H1507 0.949 . S
C1512 C1518 1.368 . S
C1513 C1497 1.349 . S
C1513 H1505 0.950 . S
C1513 C1511 1.327 . S
C1514 C1502 1.349 . S
C1514 H1508 0.950 . S
C1514 C1515 1.327 . S
C1515 H1509 0.950 . S
C1515 C1514 1.327 . S
C1515 C1519 1.429 . S
C1516 C1499 1.574 . S
C1516 H1510 0.949 . S
C1516 C1520 1.368 . S
C1517 C1498 1.429 . S
C1517 C1511 1.429 . S
C1517 C1518 1.523 . S
C1518 C1499 1.368 . S
C1518 C1512 1.368 . S
C1518 C1517 1.523 . S
C1519 C1503 1.429 . S
C1519 C1515 1.429 . S
C1519 C1520 1.523 . S
C1520 C1504 1.368 . S
C1520 C1516 1.368 . S
C1520 C1519 1.523 . S
H1521 C1496 0.950 . S
H1522 C1498 0.950 . S
H1523 C1499 0.949 . S
H1524 C1501 0.950 . S
H1525 C1503 0.950 . S
C1526 C1527 1.349 . S
C1526 C1528 1.327 . S
C1526 H1551 0.950 . S
C1527 C1526 1.349 . S
C1527 C1543 1.349 . S
C1528 C1526 1.327 . S
C1528 C1547 1.429 . S
C1528 H1552 0.950 . S
C1529 C1546 1.574 . S
C1529 C1548 1.368 . S
C1529 H1553 0.949 . S
H1530 C1534 0.949 . S
C1531 C1532 1.349 . S
C1531 C1533 1.327 . S
C1531 H1554 0.950 . S
C1532 C1531 1.349 . S
C1532 C1544 1.349 . S
C1533 C1531 1.327 . S
C1533 C1549 1.429 . S
C1533 H1555 0.950 . S
C1534 H1530 0.949 . S
C1534 C1542 1.574 . S
C1534 C1550 1.368 . S
H1535 C1543 0.950 . S
H1536 C1541 0.950 . S
H1537 C1542 0.949 . S
H1538 C1544 0.950 . S
H1539 C1545 0.950 . S
H1540 C1546 0.949 . S
C1541 H1536 0.950 . S
C1541 C1543 1.327 . S
C1541 C1547 1.429 . S
C1542 C1534 1.574 . S
C1542 H1537 0.949 . S
C1542 C1548 1.368 . S
C1543 C1527 1.349 . S
C1543 H1535 0.950 . S
C1543 C1541 1.327 . S
C1544 C1532 1.349 . S
C1544 H1538 0.950 . S
C1544 C1545 1.327 . S
C1545 H1539 0.950 . S
C1545 C1544 1.327 . S
C1545 C1549 1.429 . S
C1546 C1529 1.574 . S
C1546 H1540 0.949 . S
C1546 C1550 1.368 . S
C1547 C1528 1.429 . S
C1547 C1541 1.429 . S
C1547 C1548 1.523 . S
C1548 C1529 1.368 . S
C1548 C1542 1.368 . S
C1548 C1547 1.523 . S
C1549 C1533 1.429 . S
C1549 C1545 1.429 . S
C1549 C1550 1.523 . S
C1550 C1534 1.368 . S
C1550 C1546 1.368 . S
C1550 C1549 1.523 . S
H1551 C1526 0.950 . S
H1552 C1528 0.950 . S
H1553 C1529 0.949 . S
H1554 C1531 0.950 . S
H1555 C1533 0.950 . S
C1556 C1557 1.349 . S
C1556 C1558 1.327 . S
C1556 H1581 0.950 . S
C1557 C1556 1.349 . S
C1557 C1573 1.349 . S
C1558 C1556 1.327 . S
C1558 C1577 1.429 . S
C1558 H1582 0.950 . S
C1559 C1576 1.574 . S
C1559 C1578 1.368 . S
C1559 H1583 0.949 . S
H1560 C1564 0.949 . S
C1561 C1562 1.349 . S
C1561 C1563 1.327 . S
C1561 H1584 0.950 . S
C1562 C1561 1.349 . S
C1562 C1574 1.349 . S
C1563 C1561 1.327 . S
C1563 C1579 1.429 . S
C1563 H1585 0.950 . S
C1564 H1560 0.949 . S
C1564 C1572 1.574 . S
C1564 C1580 1.368 . S
H1565 C1573 0.950 . S
H1566 C1571 0.950 . S
H1567 C1572 0.949 . S
H1568 C1574 0.950 . S
H1569 C1575 0.950 . S
H1570 C1576 0.949 . S
C1571 H1566 0.950 . S
C1571 C1573 1.327 . S
C1571 C1577 1.429 . S
C1572 C1564 1.574 . S
C1572 H1567 0.949 . S
C1572 C1578 1.368 . S
C1573 C1557 1.349 . S
C1573 H1565 0.950 . S
C1573 C1571 1.327 . S
C1574 C1562 1.349 . S
C1574 H1568 0.950 . S
C1574 C1575 1.327 . S
C1575 H1569 0.950 . S
C1575 C1574 1.327 . S
C1575 C1579 1.429 . S
C1576 C1559 1.574 . S
C1576 H1570 0.949 . S
C1576 C1580 1.368 . S
C1577 C1558 1.429 . S
C1577 C1571 1.429 . S
C1577 C1578 1.523 . S
C1578 C1559 1.368 . S
C1578 C1572 1.368 . S
C1578 C1577 1.523 . S
C1579 C1563 1.429 . S
C1579 C1575 1.429 . S
C1579 C1580 1.523 . S
C1580 C1564 1.368 . S
C1580 C1576 1.368 . S
C1580 C1579 1.523 . S
H1581 C1556 0.950 . S
H1582 C1558 0.950 . S
H1583 C1559 0.949 . S
H1584 C1561 0.950 . S
H1585 C1563 0.950 . S
C1586 C1587 1.349 . S
C1586 C1588 1.327 . S
C1586 H1611 0.950 . S
C1587 C1586 1.349 . S
C1587 C1603 1.349 . S
C1588 C1586 1.327 . S
C1588 C1607 1.429 . S
C1588 H1612 0.950 . S
C1589 C1606 1.574 . S
C1589 C1608 1.368 . S
C1589 H1613 0.949 . S
H1590 C1594 0.949 . S
C1591 C1592 1.349 . S
C1591 C1593 1.327 . S
C1591 H1614 0.950 . S
C1592 C1591 1.349 . S
C1592 C1604 1.349 . S
C1593 C1591 1.327 . S
C1593 C1609 1.429 . S
C1593 H1615 0.950 . S
C1594 H1590 0.949 . S
C1594 C1602 1.574 . S
C1594 C1610 1.368 . S
H1595 C1603 0.950 . S
H1596 C1601 0.950 . S
H1597 C1602 0.949 . S
H1598 C1604 0.950 . S
H1599 C1605 0.950 . S
H1600 C1606 0.949 . S
C1601 H1596 0.950 . S
C1601 C1603 1.327 . S
C1601 C1607 1.429 . S
C1602 C1594 1.574 . S
C1602 H1597 0.949 . S
C1602 C1608 1.368 . S
C1603 C1587 1.349 . S
C1603 H1595 0.950 . S
C1603 C1601 1.327 . S
C1604 C1592 1.349 . S
C1604 H1598 0.950 . S
C1604 C1605 1.327 . S
C1605 H1599 0.950 . S
C1605 C1604 1.327 . S
C1605 C1609 1.429 . S
C1606 C1589 1.574 . S
C1606 H1600 0.949 . S
C1606 C1610 1.368 . S
C1607 C1588 1.429 . S
C1607 C1601 1.429 . S
C1607 C1608 1.523 . S
C1608 C1589 1.368 . S
C1608 C1602 1.368 . S
C1608 C1607 1.523 . S
C1609 C1593 1.429 . S
C1609 C1605 1.429 . S
C1609 C1610 1.523 . S
C1610 C1594 1.368 . S
C1610 C1606 1.368 . S
C1610 C1609 1.523 . S
H1611 C1586 0.950 . S
H1612 C1588 0.950 . S
H1613 C1589 0.949 . S
H1614 C1591 0.950 . S
H1615 C1593 0.950 . S
C1616 C1617 1.349 . S
C1616 C1618 1.327 . S
C1616 H1641 0.950 . S
C1617 C1616 1.349 . S
C1617 C1633 1.349 . S
C1618 C1616 1.327 . S
C1618 C1637 1.429 . S
C1618 H1642 0.950 . S
C1619 C1636 1.574 1_554 S
C1619 C1638 1.368 . S
C1619 H1643 0.949 . S
H1620 C1624 0.949 . S
C1621 C1622 1.349 . S
C1621 C1623 1.327 . S
C1621 H1644 0.950 . S
C1622 C1621 1.349 . S
C1622 C1634 1.349 . S
C1623 C1621 1.327 . S
C1623 C1639 1.429 . S
C1623 H1645 0.950 . S
C1624 H1620 0.949 . S
C1624 C1632 1.574 1_556 S
C1624 C1640 1.368 . S
H1625 C1633 0.950 . S
H1626 C1631 0.950 . S
H1627 C1632 0.949 . S
H1628 C1634 0.950 . S
H1629 C1635 0.950 . S
H1630 C1636 0.949 . S
C1631 H1626 0.950 . S
C1631 C1633 1.327 . S
C1631 C1637 1.429 . S
C1632 C1624 1.574 1_554 S
C1632 H1627 0.949 . S
C1632 C1638 1.368 . S
C1633 C1617 1.349 . S
C1633 H1625 0.950 . S
C1633 C1631 1.327 . S
C1634 C1622 1.349 . S
C1634 H1628 0.950 . S
C1634 C1635 1.327 . S
C1635 H1629 0.950 . S
C1635 C1634 1.327 . S
C1635 C1639 1.429 . S
C1636 C1619 1.574 1_556 S
C1636 H1630 0.949 . S
C1636 C1640 1.368 . S
C1637 C1618 1.429 . S
C1637 C1631 1.429 . S
C1637 C1638 1.523 . S
C1638 C1619 1.368 . S
C1638 C1632 1.368 . S
C1638 C1637 1.523 . S
C1639 C1623 1.429 . S
C1639 C1635 1.429 . S
C1639 C1640 1.523 . S
C1640 C1624 1.368 . S
C1640 C1636 1.368 . S
C1640 C1639 1.523 . S
H1641 C1616 0.950 . S
H1642 C1618 0.950 . S
H1643 C1619 0.949 . S
H1644 C1621 0.950 . S
H1645 C1623 0.950 . S
C1646 C1647 1.349 . S
C1646 C1648 1.327 . S
C1646 H1671 0.950 . S
C1647 C1646 1.349 . S
C1647 C1663 1.349 . S
C1648 C1646 1.327 . S
C1648 C1667 1.429 . S
C1648 H1672 0.950 . S
C1649 C1666 1.574 1_556 S
C1649 C1668 1.368 . S
C1649 H1673 0.949 . S
H1650 C1654 0.949 . S
C1651 C1652 1.349 . S
C1651 C1653 1.327 . S
C1651 H1674 0.950 . S
C1652 C1651 1.349 . S
C1652 C1664 1.349 . S
C1653 C1651 1.327 . S
C1653 C1669 1.429 . S
C1653 H1675 0.950 . S
C1654 H1650 0.949 . S
C1654 C1662 1.574 1_554 S
C1654 C1670 1.368 . S
H1655 C1663 0.950 . S
H1656 C1661 0.950 . S
H1657 C1662 0.949 . S
H1658 C1664 0.950 . S
H1659 C1665 0.950 . S
H1660 C1666 0.949 . S
C1661 H1656 0.950 . S
C1661 C1663 1.327 . S
C1661 C1667 1.429 . S
C1662 C1654 1.574 1_556 S
C1662 H1657 0.949 . S
C1662 C1668 1.368 . S
C1663 C1647 1.349 . S
C1663 H1655 0.950 . S
C1663 C1661 1.327 . S
C1664 C1652 1.349 . S
C1664 H1658 0.950 . S
C1664 C1665 1.327 . S
C1665 H1659 0.950 . S
C1665 C1664 1.327 . S
C1665 C1669 1.429 . S
C1666 C1649 1.574 1_554 S
C1666 H1660 0.949 . S
C1666 C1670 1.368 . S
C1667 C1648 1.429 . S
C1667 C1661 1.429 . S
C1667 C1668 1.523 . S
C1668 C1649 1.368 . S
C1668 C1662 1.368 . S
C1668 C1667 1.523 . S
C1669 C1653 1.429 . S
C1669 C1665 1.429 . S
C1669 C1670 1.523 . S
C1670 C1654 1.368 . S
C1670 C1666 1.368 . S
C1670 C1669 1.523 . S
H1671 C1646 0.950 . S
H1672 C1648 0.950 . S
H1673 C1649 0.949 . S
H1674 C1651 0.950 . S
H1675 C1653 0.950 . S
C1676 C1677 1.349 . S
C1676 C1678 1.327 . S
C1676 H1701 0.950 . S
C1677 C1676 1.349 . S
C1677 C1693 1.349 . S
C1678 C1676 1.327 . S
C1678 C1697 1.429 . S
C1678 H1702 0.950 . S
C1679 C1696 1.574 1_554 S
C1679 C1698 1.368 . S
C1679 H1703 0.949 . S
H1680 C1684 0.949 . S
C1681 C1682 1.349 . S
C1681 C1683 1.327 . S
C1681 H1704 0.950 . S
C1682 C1681 1.349 . S
C1682 C1694 1.349 . S
C1683 C1681 1.327 . S
C1683 C1699 1.429 . S
C1683 H1705 0.950 . S
C1684 H1680 0.949 . S
C1684 C1692 1.574 1_556 S
C1684 C1700 1.368 . S
H1685 C1693 0.950 . S
H1686 C1691 0.950 . S
H1687 C1692 0.949 . S
H1688 C1694 0.950 . S
H1689 C1695 0.950 . S
H1690 C1696 0.949 . S
C1691 H1686 0.950 . S
C1691 C1693 1.327 . S
C1691 C1697 1.429 . S
C1692 C1684 1.574 1_554 S
C1692 H1687 0.949 . S
C1692 C1698 1.368 . S
C1693 C1677 1.349 . S
C1693 H1685 0.950 . S
C1693 C1691 1.327 . S
C1694 C1682 1.349 . S
C1694 H1688 0.950 . S
C1694 C1695 1.327 . S
C1695 H1689 0.950 . S
C1695 C1694 1.327 . S
C1695 C1699 1.429 . S
C1696 C1679 1.574 1_556 S
C1696 H1690 0.949 . S
C1696 C1700 1.368 . S
C1697 C1678 1.429 . S
C1697 C1691 1.429 . S
C1697 C1698 1.523 . S
C1698 C1679 1.368 . S
C1698 C1692 1.368 . S
C1698 C1697 1.523 . S
C1699 C1683 1.429 . S
C1699 C1695 1.429 . S
C1699 C1700 1.523 . S
C1700 C1684 1.368 . S
C1700 C1696 1.368 . S
C1700 C1699 1.523 . S
H1701 C1676 0.950 . S
H1702 C1678 0.950 . S
H1703 C1679 0.949 . S
H1704 C1681 0.950 . S
H1705 C1683 0.950 . S
C1706 C1707 1.349 . S
C1706 C1708 1.327 . S
C1706 H1731 0.950 . S
C1707 C1706 1.349 . S
C1707 C1723 1.349 . S
C1708 C1706 1.327 . S
C1708 C1727 1.429 . S
C1708 H1732 0.950 . S
C1709 C1726 1.574 1_554 S
C1709 C1728 1.368 . S
C1709 H1733 0.949 . S
H1710 C1714 0.949 . S
C1711 C1712 1.349 . S
C1711 C1713 1.327 . S
C1711 H1734 0.950 . S
C1712 C1711 1.349 . S
C1712 C1724 1.349 . S
C1713 C1711 1.327 . S
C1713 C1729 1.429 . S
C1713 H1735 0.950 . S
C1714 H1710 0.949 . S
C1714 C1722 1.574 1_556 S
C1714 C1730 1.368 . S
H1715 C1723 0.950 . S
H1716 C1721 0.950 . S
H1717 C1722 0.949 . S
H1718 C1724 0.950 . S
H1719 C1725 0.950 . S
H1720 C1726 0.949 . S
C1721 H1716 0.950 . S
C1721 C1723 1.327 . S
C1721 C1727 1.429 . S
C1722 C1714 1.574 1_554 S
C1722 H1717 0.949 . S
C1722 C1728 1.368 . S
C1723 C1707 1.349 . S
C1723 H1715 0.950 . S
C1723 C1721 1.327 . S
C1724 C1712 1.349 . S
C1724 H1718 0.950 . S
C1724 C1725 1.327 . S
C1725 H1719 0.950 . S
C1725 C1724 1.327 . S
C1725 C1729 1.429 . S
C1726 C1709 1.574 1_556 S
C1726 H1720 0.949 . S
C1726 C1730 1.368 . S
C1727 C1708 1.429 . S
C1727 C1721 1.429 . S
C1727 C1728 1.523 . S
C1728 C1709 1.368 . S
C1728 C1722 1.368 . S
C1728 C1727 1.523 . S
C1729 C1713 1.429 . S
C1729 C1725 1.429 . S
C1729 C1730 1.523 . S
C1730 C1714 1.368 . S
C1730 C1726 1.368 . S
C1730 C1729 1.523 . S
H1731 C1706 0.950 . S
H1732 C1708 0.950 . S
H1733 C1709 0.949 . S
H1734 C1711 0.950 . S
H1735 C1713 0.950 . S
C1736 C1737 1.349 . S
C1736 C1738 1.327 . S
C1736 H1761 0.950 . S
C1737 C1736 1.349 . S
C1737 C1753 1.349 . S
C1738 C1736 1.327 . S
C1738 C1757 1.429 . S
C1738 H1762 0.950 . S
C1739 C1756 1.574 1_554 S
C1739 C1758 1.368 . S
C1739 H1763 0.949 . S
H1740 C1744 0.949 . S
C1741 C1742 1.349 . S
C1741 C1743 1.327 . S
C1741 H1764 0.950 . S
C1742 C1741 1.349 . S
C1742 C1754 1.349 . S
C1743 C1741 1.327 . S
C1743 C1759 1.429 . S
C1743 H1765 0.950 . S
C1744 H1740 0.949 . S
C1744 C1752 1.574 1_556 S
C1744 C1760 1.368 . S
H1745 C1753 0.950 . S
H1746 C1751 0.950 . S
H1747 C1752 0.949 . S
H1748 C1754 0.950 . S
H1749 C1755 0.950 . S
H1750 C1756 0.949 . S
C1751 H1746 0.950 . S
C1751 C1753 1.327 . S
C1751 C1757 1.429 . S
C1752 C1744 1.574 1_554 S
C1752 H1747 0.949 . S
C1752 C1758 1.368 . S
C1753 C1737 1.349 . S
C1753 H1745 0.950 . S
C1753 C1751 1.327 . S
C1754 C1742 1.349 . S
C1754 H1748 0.950 . S
C1754 C1755 1.327 . S
C1755 H1749 0.950 . S
C1755 C1754 1.327 . S
C1755 C1759 1.429 . S
C1756 C1739 1.574 1_556 S
C1756 H1750 0.949 . S
C1756 C1760 1.368 . S
C1757 C1738 1.429 . S
C1757 C1751 1.429 . S
C1757 C1758 1.523 . S
C1758 C1739 1.368 . S
C1758 C1752 1.368 . S
C1758 C1757 1.523 . S
C1759 C1743 1.429 . S
C1759 C1755 1.429 . S
C1759 C1760 1.523 . S
C1760 C1744 1.368 . S
C1760 C1756 1.368 . S
C1760 C1759 1.523 . S
H1761 C1736 0.950 . S
H1762 C1738 0.950 . S
H1763 C1739 0.949 . S
H1764 C1741 0.950 . S
H1765 C1743 0.950 . S
C1766 C1767 1.349 . S
C1766 C1768 1.327 . S
C1766 H1791 0.950 . S
C1767 C1766 1.349 . S
C1767 C1783 1.349 . S
C1768 C1766 1.327 . S
C1768 C1787 1.429 . S
C1768 H1792 0.950 . S
C1769 C1786 1.574 1_554 S
C1769 C1788 1.368 . S
C1769 H1793 0.949 . S
H1770 C1774 0.949 . S
C1771 C1772 1.349 . S
C1771 C1773 1.327 . S
C1771 H1794 0.950 . S
C1772 C1771 1.349 . S
C1772 C1784 1.349 . S
C1773 C1771 1.327 . S
C1773 C1789 1.429 . S
C1773 H1795 0.950 . S
C1774 H1770 0.949 . S
C1774 C1782 1.574 1_556 S
C1774 C1790 1.368 . S
H1775 C1783 0.950 . S
H1776 C1781 0.950 . S
H1777 C1782 0.949 . S
H1778 C1784 0.950 . S
H1779 C1785 0.950 . S
H1780 C1786 0.949 . S
C1781 H1776 0.950 . S
C1781 C1783 1.327 . S
C1781 C1787 1.429 . S
C1782 C1774 1.574 1_554 S
C1782 H1777 0.949 . S
C1782 C1788 1.368 . S
C1783 C1767 1.349 . S
C1783 H1775 0.950 . S
C1783 C1781 1.327 . S
C1784 C1772 1.349 . S
C1784 H1778 0.950 . S
C1784 C1785 1.327 . S
C1785 H1779 0.950 . S
C1785 C1784 1.327 . S
C1785 C1789 1.429 . S
C1786 C1769 1.574 1_556 S
C1786 H1780 0.949 . S
C1786 C1790 1.368 . S
C1787 C1768 1.429 . S
C1787 C1781 1.429 . S
C1787 C1788 1.523 . S
C1788 C1769 1.368 . S
C1788 C1782 1.368 . S
C1788 C1787 1.523 . S
C1789 C1773 1.429 . S
C1789 C1785 1.429 . S
C1789 C1790 1.523 . S
C1790 C1774 1.368 . S
C1790 C1786 1.368 . S
C1790 C1789 1.523 . S
H1791 C1766 0.950 . S
H1792 C1768 0.950 . S
H1793 C1769 0.949 . S
H1794 C1771 0.950 . S
H1795 C1773 0.950 . S
C1796 C1797 1.349 . S
C1796 C1798 1.327 . S
C1796 H1821 0.950 . S
C1797 C1796 1.349 . S
C1797 C1813 1.349 . S
C1798 C1796 1.327 . S
C1798 C1817 1.429 . S
C1798 H1822 0.950 . S
C1799 C1816 1.574 1_556 S
C1799 C1818 1.368 . S
C1799 H1823 0.949 . S
H1800 C1804 0.949 . S
C1801 C1802 1.349 . S
C1801 C1803 1.327 . S
C1801 H1824 0.950 . S
C1802 C1801 1.349 . S
C1802 C1814 1.349 . S
C1803 C1801 1.327 . S
C1803 C1819 1.429 . S
C1803 H1825 0.950 . S
C1804 H1800 0.949 . S
C1804 C1812 1.574 1_554 S
C1804 C1820 1.368 . S
H1805 C1813 0.950 . S
H1806 C1811 0.950 . S
H1807 C1812 0.949 . S
H1808 C1814 0.950 . S
H1809 C1815 0.950 . S
H1810 C1816 0.949 . S
C1811 H1806 0.950 . S
C1811 C1813 1.327 . S
C1811 C1817 1.429 . S
C1812 C1804 1.574 1_556 S
C1812 H1807 0.949 . S
C1812 C1818 1.368 . S
C1813 C1797 1.349 . S
C1813 H1805 0.950 . S
C1813 C1811 1.327 . S
C1814 C1802 1.349 . S
C1814 H1808 0.950 . S
C1814 C1815 1.327 . S
C1815 H1809 0.950 . S
C1815 C1814 1.327 . S
C1815 C1819 1.429 . S
C1816 C1799 1.574 1_554 S
C1816 H1810 0.949 . S
C1816 C1820 1.368 . S
C1817 C1798 1.429 . S
C1817 C1811 1.429 . S
C1817 C1818 1.523 . S
C1818 C1799 1.368 . S
C1818 C1812 1.368 . S
C1818 C1817 1.523 . S
C1819 C1803 1.429 . S
C1819 C1815 1.429 . S
C1819 C1820 1.523 . S
C1820 C1804 1.368 . S
C1820 C1816 1.368 . S
C1820 C1819 1.523 . S
H1821 C1796 0.950 . S
H1822 C1798 0.950 . S
H1823 C1799 0.949 . S
H1824 C1801 0.950 . S
H1825 C1803 0.950 . S
C1826 C1827 1.349 . S
C1826 C1828 1.327 . S
C1826 H1851 0.950 . S
C1827 C1826 1.349 . S
C1827 C1843 1.349 . S
C1828 C1826 1.327 . S
C1828 C1847 1.429 . S
C1828 H1852 0.950 . S
C1829 C1846 1.574 1_556 S
C1829 C1848 1.368 . S
C1829 H1853 0.949 . S
H1830 C1834 0.949 . S
C1831 C1832 1.349 . S
C1831 C1833 1.327 . S
C1831 H1854 0.950 . S
C1832 C1831 1.349 . S
C1832 C1844 1.349 . S
C1833 C1831 1.327 . S
C1833 C1849 1.429 . S
C1833 H1855 0.950 . S
C1834 H1830 0.949 . S
C1834 C1842 1.574 1_554 S
C1834 C1850 1.368 . S
H1835 C1843 0.950 . S
H1836 C1841 0.950 . S
H1837 C1842 0.949 . S
H1838 C1844 0.950 . S
H1839 C1845 0.950 . S
H1840 C1846 0.949 . S
C1841 H1836 0.950 . S
C1841 C1843 1.327 . S
C1841 C1847 1.429 . S
C1842 C1834 1.574 1_556 S
C1842 H1837 0.949 . S
C1842 C1848 1.368 . S
C1843 C1827 1.349 . S
C1843 H1835 0.950 . S
C1843 C1841 1.327 . S
C1844 C1832 1.349 . S
C1844 H1838 0.950 . S
C1844 C1845 1.327 . S
C1845 H1839 0.950 . S
C1845 C1844 1.327 . S
C1845 C1849 1.429 . S
C1846 C1829 1.574 1_554 S
C1846 H1840 0.949 . S
C1846 C1850 1.368 . S
C1847 C1828 1.429 . S
C1847 C1841 1.429 . S
C1847 C1848 1.523 . S
C1848 C1829 1.368 . S
C1848 C1842 1.368 . S
C1848 C1847 1.523 . S
C1849 C1833 1.429 . S
C1849 C1845 1.429 . S
C1849 C1850 1.523 . S
C1850 C1834 1.368 . S
C1850 C1846 1.368 . S
C1850 C1849 1.523 . S
H1851 C1826 0.950 . S
H1852 C1828 0.950 . S
H1853 C1829 0.949 . S
H1854 C1831 0.950 . S
H1855 C1833 0.950 . S
C1856 C1857 1.349 . S
C1856 C1858 1.327 . S
C1856 H1881 0.950 . S
C1857 C1856 1.349 . S
C1857 C1873 1.349 . S
C1858 C1856 1.327 . S
C1858 C1877 1.429 . S
C1858 H1882 0.950 . S
C1859 C1876 1.574 . S
C1859 C1878 1.368 . S
C1859 H1883 0.949 . S
H1860 C1864 0.949 . S
C1861 C1862 1.349 . S
C1861 C1863 1.327 . S
C1861 H1884 0.950 . S
C1862 C1861 1.349 . S
C1862 C1874 1.349 . S
C1863 C1861 1.327 . S
C1863 C1879 1.429 . S
C1863 H1885 0.950 . S
C1864 H1860 0.949 . S
C1864 C1872 1.574 . S
C1864 C1880 1.368 . S
H1865 C1873 0.950 . S
H1866 C1871 0.950 . S
H1867 C1872 0.949 . S
H1868 C1874 0.950 . S
H1869 C1875 0.950 . S
H1870 C1876 0.949 . S
C1871 H1866 0.950 . S
C1871 C1873 1.327 . S
C1871 C1877 1.429 . S
C1872 C1864 1.574 . S
C1872 H1867 0.949 . S
C1872 C1878 1.368 . S
C1873 C1857 1.349 . S
C1873 H1865 0.950 . S
C1873 C1871 1.327 . S
C1874 C1862 1.349 . S
C1874 H1868 0.950 . S
C1874 C1875 1.327 . S
C1875 H1869 0.950 . S
C1875 C1874 1.327 . S
C1875 C1879 1.429 . S
C1876 C1859 1.574 . S
C1876 H1870 0.949 . S
C1876 C1880 1.368 . S
C1877 C1858 1.429 . S
C1877 C1871 1.429 . S
C1877 C1878 1.523 . S
C1878 C1859 1.368 . S
C1878 C1872 1.368 . S
C1878 C1877 1.523 . S
C1879 C1863 1.429 . S
C1879 C1875 1.429 . S
C1879 C1880 1.523 . S
C1880 C1864 1.368 . S
C1880 C1876 1.368 . S
C1880 C1879 1.523 . S
H1881 C1856 0.950 . S
H1882 C1858 0.950 . S
H1883 C1859 0.949 . S
H1884 C1861 0.950 . S
H1885 C1863 0.950 . S
C1886 C1887 1.349 . S
C1886 C1888 1.327 . S
C1886 H1911 0.950 . S
C1887 C1886 1.349 . S
C1887 C1903 1.349 . S
C1888 C1886 1.327 . S
C1888 C1907 1.429 . S
C1888 H1912 0.950 . S
C1889 C1906 1.574 . S
C1889 C1908 1.368 . S
C1889 H1913 0.949 . S
H1890 C1894 0.949 . S
C1891 C1892 1.349 . S
C1891 C1893 1.327 . S
C1891 H1914 0.950 . S
C1892 C1891 1.349 . S
C1892 C1904 1.349 . S
C1893 C1891 1.327 . S
C1893 C1909 1.429 . S
C1893 H1915 0.950 . S
C1894 H1890 0.949 . S
C1894 C1902 1.574 . S
C1894 C1910 1.368 . S
H1895 C1903 0.950 . S
H1896 C1901 0.950 . S
H1897 C1902 0.949 . S
H1898 C1904 0.950 . S
H1899 C1905 0.950 . S
H1900 C1906 0.949 . S
C1901 H1896 0.950 . S
C1901 C1903 1.327 . S
C1901 C1907 1.429 . S
C1902 C1894 1.574 . S
C1902 H1897 0.949 . S
C1902 C1908 1.368 . S
C1903 C1887 1.349 . S
C1903 H1895 0.950 . S
C1903 C1901 1.327 . S
C1904 C1892 1.349 . S
C1904 H1898 0.950 . S
C1904 C1905 1.327 . S
C1905 H1899 0.950 . S
C1905 C1904 1.327 . S
C1905 C1909 1.429 . S
C1906 C1889 1.574 . S
C1906 H1900 0.949 . S
C1906 C1910 1.368 . S
C1907 C1888 1.429 . S
C1907 C1901 1.429 . S
C1907 C1908 1.523 . S
C1908 C1889 1.368 . S
C1908 C1902 1.368 . S
C1908 C1907 1.523 . S
C1909 C1893 1.429 . S
C1909 C1905 1.429 . S
C1909 C1910 1.523 . S
C1910 C1894 1.368 . S
C1910 C1906 1.368 . S
C1910 C1909 1.523 . S
H1911 C1886 0.950 . S
H1912 C1888 0.950 . S
H1913 C1889 0.949 . S
H1914 C1891 0.950 . S
H1915 C1893 0.950 . S
C1916 C1917 1.349 . S
C1916 C1918 1.327 . S
C1916 H1941 0.950 . S
C1917 C1916 1.349 . S
C1917 C1933 1.349 . S
C1918 C1916 1.327 . S
C1918 C1937 1.429 . S
C1918 H1942 0.950 . S
C1919 C1936 1.574 . S
C1919 C1938 1.368 . S
C1919 H1943 0.949 . S
H1920 C1924 0.949 . S
C1921 C1922 1.349 . S
C1921 C1923 1.327 . S
C1921 H1944 0.950 . S
C1922 C1921 1.349 . S
C1922 C1934 1.349 . S
C1923 C1921 1.327 . S
C1923 C1939 1.429 . S
C1923 H1945 0.950 . S
C1924 H1920 0.949 . S
C1924 C1932 1.574 . S
C1924 C1940 1.368 . S
H1925 C1933 0.950 . S
H1926 C1931 0.950 . S
H1927 C1932 0.949 . S
H1928 C1934 0.950 . S
H1929 C1935 0.950 . S
H1930 C1936 0.949 . S
C1931 H1926 0.950 . S
C1931 C1933 1.327 . S
C1931 C1937 1.429 . S
C1932 C1924 1.574 . S
C1932 H1927 0.949 . S
C1932 C1938 1.368 . S
C1933 C1917 1.349 . S
C1933 H1925 0.950 . S
C1933 C1931 1.327 . S
C1934 C1922 1.349 . S
C1934 H1928 0.950 . S
C1934 C1935 1.327 . S
C1935 H1929 0.950 . S
C1935 C1934 1.327 . S
C1935 C1939 1.429 . S
C1936 C1919 1.574 . S
C1936 H1930 0.949 . S
C1936 C1940 1.368 . S
C1937 C1918 1.429 . S
C1937 C1931 1.429 . S
C1937 C1938 1.523 . S
C1938 C1919 1.368 . S
C1938 C1932 1.368 . S
C1938 C1937 1.523 . S
C1939 C1923 1.429 . S
C1939 C1935 1.429 . S
C1939 C1940 1.523 . S
C1940 C1924 1.368 . S
C1940 C1936 1.368 . S
C1940 C1939 1.523 . S
H1941 C1916 0.950 . S
H1942 C1918 0.950 . S
H1943 C1919 0.949 . S
H1944 C1921 0.950 . S
H1945 C1923 0.950 . S
C1946 C1947 1.349 . S
C1946 C1948 1.327 . S
C1946 H1971 0.950 . S
C1947 C1946 1.349 . S
C1947 C1963 1.349 . S
C1948 C1946 1.327 . S
C1948 C1967 1.429 . S
C1948 H1972 0.950 . S
C1949 C1966 1.574 . S
C1949 C1968 1.368 . S
C1949 H1973 0.949 . S
H1950 C1954 0.949 . S
C1951 C1952 1.349 . S
C1951 C1953 1.327 . S
C1951 H1974 0.950 . S
C1952 C1951 1.349 . S
C1952 C1964 1.349 . S
C1953 C1951 1.327 . S
C1953 C1969 1.429 . S
C1953 H1975 0.950 . S
C1954 H1950 0.949 . S
C1954 C1962 1.574 . S
C1954 C1970 1.368 . S
H1955 C1963 0.950 . S
H1956 C1961 0.950 . S
H1957 C1962 0.949 . S
H1958 C1964 0.950 . S
H1959 C1965 0.950 . S
H1960 C1966 0.949 . S
C1961 H1956 0.950 . S
C1961 C1963 1.327 . S
C1961 C1967 1.429 . S
C1962 C1954 1.574 . S
C1962 H1957 0.949 . S
C1962 C1968 1.368 . S
C1963 C1947 1.349 . S
C1963 H1955 0.950 . S
C1963 C1961 1.327 . S
C1964 C1952 1.349 . S
C1964 H1958 0.950 . S
C1964 C1965 1.327 . S
C1965 H1959 0.950 . S
C1965 C1964 1.327 . S
C1965 C1969 1.429 . S
C1966 C1949 1.574 . S
C1966 H1960 0.949 . S
C1966 C1970 1.368 . S
C1967 C1948 1.429 . S
C1967 C1961 1.429 . S
C1967 C1968 1.523 . S
C1968 C1949 1.368 . S
C1968 C1962 1.368 . S
C1968 C1967 1.523 . S
C1969 C1953 1.429 . S
C1969 C1965 1.429 . S
C1969 C1970 1.523 . S
C1970 C1954 1.368 . S
C1970 C1966 1.368 . S
C1970 C1969 1.523 . S
H1971 C1946 0.950 . S
H1972 C1948 0.950 . S
H1973 C1949 0.949 . S
H1974 C1951 0.950 . S
H1975 C1953 0.950 . S
C1976 C1977 1.349 . S
C1976 C1978 1.327 . S
C1976 H2001 0.950 . S
C1977 C1976 1.349 . S
C1977 C1993 1.349 . S
C1978 C1976 1.327 . S
C1978 C1997 1.429 . S
C1978 H2002 0.950 . S
C1979 C1996 1.574 . S
C1979 C1998 1.368 . S
C1979 H2003 0.949 . S
H1980 C1984 0.949 . S
C1981 C1982 1.349 . S
C1981 C1983 1.327 . S
C1981 H2004 0.950 . S
C1982 C1981 1.349 . S
C1982 C1994 1.349 . S
C1983 C1981 1.327 . S
C1983 C1999 1.429 . S
C1983 H2005 0.950 . S
C1984 H1980 0.949 . S
C1984 C1992 1.574 . S
C1984 C2000 1.368 . S
H1985 C1993 0.950 . S
H1986 C1991 0.950 . S
H1987 C1992 0.949 . S
H1988 C1994 0.950 . S
H1989 C1995 0.950 . S
H1990 C1996 0.949 . S
C1991 H1986 0.950 . S
C1991 C1993 1.327 . S
C1991 C1997 1.429 . S
C1992 C1984 1.574 . S
C1992 H1987 0.949 . S
C1992 C1998 1.368 . S
C1993 C1977 1.349 . S
C1993 H1985 0.950 . S
C1993 C1991 1.327 . S
C1994 C1982 1.349 . S
C1994 H1988 0.950 . S
C1994 C1995 1.327 . S
C1995 H1989 0.950 . S
C1995 C1994 1.327 . S
C1995 C1999 1.429 . S
C1996 C1979 1.574 . S
C1996 H1990 0.949 . S
C1996 C2000 1.368 . S
C1997 C1978 1.429 . S
C1997 C1991 1.429 . S
C1997 C1998 1.523 . S
C1998 C1979 1.368 . S
C1998 C1992 1.368 . S
C1998 C1997 1.523 . S
C1999 C1983 1.429 . S
C1999 C1995 1.429 . S
C1999 C2000 1.523 . S
C2000 C1984 1.368 . S
C2000 C1996 1.368 . S
C2000 C1999 1.523 . S
H2001 C1976 0.950 . S
H2002 C1978 0.950 . S
H2003 C1979 0.949 . S
H2004 C1981 0.950 . S
H2005 C1983 0.950 . S
C2006 C2007 1.349 . S
C2006 C2008 1.327 . S
C2006 H2031 0.950 . S
C2007 C2006 1.349 . S
C2007 C2023 1.349 . S
C2008 C2006 1.327 . S
C2008 C2027 1.429 . S
C2008 H2032 0.950 . S
C2009 C2026 1.574 . S
C2009 C2028 1.368 . S
C2009 H2033 0.949 . S
H2010 C2014 0.949 . S
C2011 C2012 1.349 . S
C2011 C2013 1.327 . S
C2011 H2034 0.950 . S
C2012 C2011 1.349 . S
C2012 C2024 1.349 . S
C2013 C2011 1.327 . S
C2013 C2029 1.429 . S
C2013 H2035 0.950 . S
C2014 H2010 0.949 . S
C2014 C2022 1.574 . S
C2014 C2030 1.368 . S
H2015 C2023 0.950 . S
H2016 C2021 0.950 . S
H2017 C2022 0.949 . S
H2018 C2024 0.950 . S
H2019 C2025 0.950 . S
H2020 C2026 0.949 . S
C2021 H2016 0.950 . S
C2021 C2023 1.327 . S
C2021 C2027 1.429 . S
C2022 C2014 1.574 . S
C2022 H2017 0.949 . S
C2022 C2028 1.368 . S
C2023 C2007 1.349 . S
C2023 H2015 0.950 . S
C2023 C2021 1.327 . S
C2024 C2012 1.349 . S
C2024 H2018 0.950 . S
C2024 C2025 1.327 . S
C2025 H2019 0.950 . S
C2025 C2024 1.327 . S
C2025 C2029 1.429 . S
C2026 C2009 1.574 . S
C2026 H2020 0.949 . S
C2026 C2030 1.368 . S
C2027 C2008 1.429 . S
C2027 C2021 1.429 . S
C2027 C2028 1.523 . S
C2028 C2009 1.368 . S
C2028 C2022 1.368 . S
C2028 C2027 1.523 . S
C2029 C2013 1.429 . S
C2029 C2025 1.429 . S
C2029 C2030 1.523 . S
C2030 C2014 1.368 . S
C2030 C2026 1.368 . S
C2030 C2029 1.523 . S
H2031 C2006 0.950 . S
H2032 C2008 0.950 . S
H2033 C2009 0.949 . S
H2034 C2011 0.950 . S
H2035 C2013 0.950 . S
C2036 C2037 1.349 . S
C2036 C2038 1.327 . S
C2036 H2061 0.950 . S
C2037 C2036 1.349 . S
C2037 C2053 1.349 . S
C2038 C2036 1.327 . S
C2038 C2057 1.429 . S
C2038 H2062 0.950 . S
C2039 C2056 1.574 . S
C2039 C2058 1.368 . S
C2039 H2063 0.949 . S
H2040 C2044 0.949 . S
C2041 C2042 1.349 . S
C2041 C2043 1.327 . S
C2041 H2064 0.950 . S
C2042 C2041 1.349 . S
C2042 C2054 1.349 . S
C2043 C2041 1.327 . S
C2043 C2059 1.429 . S
C2043 H2065 0.950 . S
C2044 H2040 0.949 . S
C2044 C2052 1.574 . S
C2044 C2060 1.368 . S
H2045 C2053 0.950 . S
H2046 C2051 0.950 . S
H2047 C2052 0.949 . S
H2048 C2054 0.950 . S
H2049 C2055 0.950 . S
H2050 C2056 0.949 . S
C2051 H2046 0.950 . S
C2051 C2053 1.327 . S
C2051 C2057 1.429 . S
C2052 C2044 1.574 . S
C2052 H2047 0.949 . S
C2052 C2058 1.368 . S
C2053 C2037 1.349 . S
C2053 H2045 0.950 . S
C2053 C2051 1.327 . S
C2054 C2042 1.349 . S
C2054 H2048 0.950 . S
C2054 C2055 1.327 . S
C2055 H2049 0.950 . S
C2055 C2054 1.327 . S
C2055 C2059 1.429 . S
C2056 C2039 1.574 . S
C2056 H2050 0.949 . S
C2056 C2060 1.368 . S
C2057 C2038 1.429 . S
C2057 C2051 1.429 . S
C2057 C2058 1.523 . S
C2058 C2039 1.368 . S
C2058 C2052 1.368 . S
C2058 C2057 1.523 . S
C2059 C2043 1.429 . S
C2059 C2055 1.429 . S
C2059 C2060 1.523 . S
C2060 C2044 1.368 . S
C2060 C2056 1.368 . S
C2060 C2059 1.523 . S
H2061 C2036 0.950 . S
H2062 C2038 0.950 . S
H2063 C2039 0.949 . S
H2064 C2041 0.950 . S
H2065 C2043 0.950 . S
C2066 C2067 1.349 . S
C2066 C2068 1.327 . S
C2066 H2091 0.950 . S
C2067 C2066 1.349 . S
C2067 C2083 1.349 . S
C2068 C2066 1.327 . S
C2068 C2087 1.429 . S
C2068 H2092 0.950 . S
C2069 C2086 1.574 . S
C2069 C2088 1.368 . S
C2069 H2093 0.949 . S
H2070 C2074 0.949 . S
C2071 C2072 1.349 . S
C2071 C2073 1.327 . S
C2071 H2094 0.950 . S
C2072 C2071 1.349 . S
C2072 C2084 1.349 . S
C2073 C2071 1.327 . S
C2073 C2089 1.429 . S
C2073 H2095 0.950 . S
C2074 H2070 0.949 . S
C2074 C2082 1.574 . S
C2074 C2090 1.368 . S
H2075 C2083 0.950 . S
H2076 C2081 0.950 . S
H2077 C2082 0.949 . S
H2078 C2084 0.950 . S
H2079 C2085 0.950 . S
H2080 C2086 0.949 . S
C2081 H2076 0.950 . S
C2081 C2083 1.327 . S
C2081 C2087 1.429 . S
C2082 C2074 1.574 . S
C2082 H2077 0.949 . S
C2082 C2088 1.368 . S
C2083 C2067 1.349 . S
C2083 H2075 0.950 . S
C2083 C2081 1.327 . S
C2084 C2072 1.349 . S
C2084 H2078 0.950 . S
C2084 C2085 1.327 . S
C2085 H2079 0.950 . S
C2085 C2084 1.327 . S
C2085 C2089 1.429 . S
C2086 C2069 1.574 . S
C2086 H2080 0.949 . S
C2086 C2090 1.368 . S
C2087 C2068 1.429 . S
C2087 C2081 1.429 . S
C2087 C2088 1.523 . S
C2088 C2069 1.368 . S
C2088 C2082 1.368 . S
C2088 C2087 1.523 . S
C2089 C2073 1.429 . S
C2089 C2085 1.429 . S
C2089 C2090 1.523 . S
C2090 C2074 1.368 . S
C2090 C2086 1.368 . S
C2090 C2089 1.523 . S
H2091 C2066 0.950 . S
H2092 C2068 0.950 . S
H2093 C2069 0.949 . S
H2094 C2071 0.950 . S
H2095 C2073 0.950 . S
C2096 C2097 1.349 . S
C2096 C2098 1.327 . S
C2096 H2121 0.950 . S
C2097 C2096 1.349 . S
C2097 C2113 1.349 . S
C2098 C2096 1.327 . S
C2098 C2117 1.429 . S
C2098 H2122 0.950 . S
C2099 C2116 1.574 . S
C2099 C2118 1.368 . S
C2099 H2123 0.949 . S
H2100 C2104 0.949 . S
C2101 C2102 1.349 . S
C2101 C2103 1.327 . S
C2101 H2124 0.950 . S
C2102 C2101 1.349 . S
C2102 C2114 1.349 . S
C2103 C2101 1.327 . S
C2103 C2119 1.429 . S
C2103 H2125 0.950 . S
C2104 H2100 0.949 . S
C2104 C2112 1.574 . S
C2104 C2120 1.368 . S
H2105 C2113 0.950 . S
H2106 C2111 0.950 . S
H2107 C2112 0.949 . S
H2108 C2114 0.950 . S
H2109 C2115 0.950 . S
H2110 C2116 0.949 . S
C2111 H2106 0.950 . S
C2111 C2113 1.327 . S
C2111 C2117 1.429 . S
C2112 C2104 1.574 . S
C2112 H2107 0.949 . S
C2112 C2118 1.368 . S
C2113 C2097 1.349 . S
C2113 H2105 0.950 . S
C2113 C2111 1.327 . S
C2114 C2102 1.349 . S
C2114 H2108 0.950 . S
C2114 C2115 1.327 . S
C2115 H2109 0.950 . S
C2115 C2114 1.327 . S
C2115 C2119 1.429 . S
C2116 C2099 1.574 . S
C2116 H2110 0.949 . S
C2116 C2120 1.368 . S
C2117 C2098 1.429 . S
C2117 C2111 1.429 . S
C2117 C2118 1.523 . S
C2118 C2099 1.368 . S
C2118 C2112 1.368 . S
C2118 C2117 1.523 . S
C2119 C2103 1.429 . S
C2119 C2115 1.429 . S
C2119 C2120 1.523 . S
C2120 C2104 1.368 . S
C2120 C2116 1.368 . S
C2120 C2119 1.523 . S
H2121 C2096 0.950 . S
H2122 C2098 0.950 . S
H2123 C2099 0.949 . S
H2124 C2101 0.950 . S
H2125 C2103 0.950 . S
C2126 C2127 1.349 . S
C2126 C2128 1.327 . S
C2126 H2151 0.950 . S
C2127 C2126 1.349 . S
C2127 C2143 1.349 . S
C2128 C2126 1.327 . S
C2128 C2147 1.429 . S
C2128 H2152 0.950 . S
C2129 C2146 1.574 . S
C2129 C2148 1.368 . S
C2129 H2153 0.949 . S
H2130 C2134 0.949 . S
C2131 C2132 1.349 . S
C2131 C2133 1.327 . S
C2131 H2154 0.950 . S
C2132 C2131 1.349 . S
C2132 C2144 1.349 . S
C2133 C2131 1.327 . S
C2133 C2149 1.429 . S
C2133 H2155 0.950 . S
C2134 H2130 0.949 . S
C2134 C2142 1.574 . S
C2134 C2150 1.368 . S
H2135 C2143 0.950 . S
H2136 C2141 0.950 . S
H2137 C2142 0.949 . S
H2138 C2144 0.950 . S
H2139 C2145 0.950 . S
H2140 C2146 0.949 . S
C2141 H2136 0.950 . S
C2141 C2143 1.327 . S
C2141 C2147 1.429 . S
C2142 C2134 1.574 . S
C2142 H2137 0.949 . S
C2142 C2148 1.368 . S
C2143 C2127 1.349 . S
C2143 H2135 0.950 . S
C2143 C2141 1.327 . S
C2144 C2132 1.349 . S
C2144 H2138 0.950 . S
C2144 C2145 1.327 . S
C2145 H2139 0.950 . S
C2145 C2144 1.327 . S
C2145 C2149 1.429 . S
C2146 C2129 1.574 . S
C2146 H2140 0.949 . S
C2146 C2150 1.368 . S
C2147 C2128 1.429 . S
C2147 C2141 1.429 . S
C2147 C2148 1.523 . S
C2148 C2129 1.368 . S
C2148 C2142 1.368 . S
C2148 C2147 1.523 . S
C2149 C2133 1.429 . S
C2149 C2145 1.429 . S
C2149 C2150 1.523 . S
C2150 C2134 1.368 . S
C2150 C2146 1.368 . S
C2150 C2149 1.523 . S
H2151 C2126 0.950 . S
H2152 C2128 0.950 . S
H2153 C2129 0.949 . S
H2154 C2131 0.950 . S
H2155 C2133 0.950 . S
C2156 C2157 1.349 . S
C2156 C2158 1.327 . S
C2156 H2181 0.950 . S
C2157 C2156 1.349 . S
C2157 C2173 1.349 . S
C2158 C2156 1.327 . S
C2158 C2177 1.429 . S
C2158 H2182 0.950 . S
C2159 C2176 1.574 . S
C2159 C2178 1.368 . S
C2159 H2183 0.949 . S
H2160 C2164 0.949 . S
C2161 C2162 1.349 . S
C2161 C2163 1.327 . S
C2161 H2184 0.950 . S
C2162 C2161 1.349 . S
C2162 C2174 1.349 . S
C2163 C2161 1.327 . S
C2163 C2179 1.429 . S
C2163 H2185 0.950 . S
C2164 H2160 0.949 . S
C2164 C2172 1.574 . S
C2164 C2180 1.368 . S
H2165 C2173 0.950 . S
H2166 C2171 0.950 . S
H2167 C2172 0.949 . S
H2168 C2174 0.950 . S
H2169 C2175 0.950 . S
H2170 C2176 0.949 . S
C2171 H2166 0.950 . S
C2171 C2173 1.327 . S
C2171 C2177 1.429 . S
C2172 C2164 1.574 . S
C2172 H2167 0.949 . S
C2172 C2178 1.368 . S
C2173 C2157 1.349 . S
C2173 H2165 0.950 . S
C2173 C2171 1.327 . S
C2174 C2162 1.349 . S
C2174 H2168 0.950 . S
C2174 C2175 1.327 . S
C2175 H2169 0.950 . S
C2175 C2174 1.327 . S
C2175 C2179 1.429 . S
C2176 C2159 1.574 . S
C2176 H2170 0.949 . S
C2176 C2180 1.368 . S
C2177 C2158 1.429 . S
C2177 C2171 1.429 . S
C2177 C2178 1.523 . S
C2178 C2159 1.368 . S
C2178 C2172 1.368 . S
C2178 C2177 1.523 . S
C2179 C2163 1.429 . S
C2179 C2175 1.429 . S
C2179 C2180 1.523 . S
C2180 C2164 1.368 . S
C2180 C2176 1.368 . S
C2180 C2179 1.523 . S
H2181 C2156 0.950 . S
H2182 C2158 0.950 . S
H2183 C2159 0.949 . S
H2184 C2161 0.950 . S
H2185 C2163 0.950 . S
C2186 C2187 1.349 . S
C2186 C2188 1.327 . S
C2186 H2211 0.950 . S
C2187 C2186 1.349 . S
C2187 C2203 1.349 . S
C2188 C2186 1.327 . S
C2188 C2207 1.429 . S
C2188 H2212 0.950 . S
C2189 C2206 1.574 . S
C2189 C2208 1.368 . S
C2189 H2213 0.949 . S
H2190 C2194 0.949 . S
C2191 C2192 1.349 . S
C2191 C2193 1.327 . S
C2191 H2214 0.950 . S
C2192 C2191 1.349 . S
C2192 C2204 1.349 . S
C2193 C2191 1.327 . S
C2193 C2209 1.429 . S
C2193 H2215 0.950 . S
C2194 H2190 0.949 . S
C2194 C2202 1.574 . S
C2194 C2210 1.368 . S
H2195 C2203 0.950 . S
H2196 C2201 0.950 . S
H2197 C2202 0.949 . S
H2198 C2204 0.950 . S
H2199 C2205 0.950 . S
H2200 C2206 0.949 . S
C2201 H2196 0.950 . S
C2201 C2203 1.327 . S
C2201 C2207 1.429 . S
C2202 C2194 1.574 . S
C2202 H2197 0.949 . S
C2202 C2208 1.368 . S
C2203 C2187 1.349 . S
C2203 H2195 0.950 . S
C2203 C2201 1.327 . S
C2204 C2192 1.349 . S
C2204 H2198 0.950 . S
C2204 C2205 1.327 . S
C2205 H2199 0.950 . S
C2205 C2204 1.327 . S
C2205 C2209 1.429 . S
C2206 C2189 1.574 . S
C2206 H2200 0.949 . S
C2206 C2210 1.368 . S
C2207 C2188 1.429 . S
C2207 C2201 1.429 . S
C2207 C2208 1.523 . S
C2208 C2189 1.368 . S
C2208 C2202 1.368 . S
C2208 C2207 1.523 . S
C2209 C2193 1.429 . S
C2209 C2205 1.429 . S
C2209 C2210 1.523 . S
C2210 C2194 1.368 . S
C2210 C2206 1.368 . S
C2210 C2209 1.523 . S
H2211 C2186 0.950 . S
H2212 C2188 0.950 . S
H2213 C2189 0.949 . S
H2214 C2191 0.950 . S
H2215 C2193 0.950 . S
C2216 C2217 1.349 . S
C2216 C2218 1.327 . S
C2216 H2241 0.950 . S
C2217 C2216 1.349 . S
C2217 C2233 1.349 . S
C2218 C2216 1.327 . S
C2218 C2237 1.429 . S
C2218 H2242 0.950 . S
C2219 C2236 1.574 . S
C2219 C2238 1.368 . S
C2219 H2243 0.949 . S
H2220 C2224 0.949 . S
C2221 C2222 1.349 . S
C2221 C2223 1.327 . S
C2221 H2244 0.950 . S
C2222 C2221 1.349 . S
C2222 C2234 1.349 . S
C2223 C2221 1.327 . S
C2223 C2239 1.429 . S
C2223 H2245 0.950 . S
C2224 H2220 0.949 . S
C2224 C2232 1.574 . S
C2224 C2240 1.368 . S
H2225 C2233 0.950 . S
H2226 C2231 0.950 . S
H2227 C2232 0.949 . S
H2228 C2234 0.950 . S
H2229 C2235 0.950 . S
H2230 C2236 0.949 . S
C2231 H2226 0.950 . S
C2231 C2233 1.327 . S
C2231 C2237 1.429 . S
C2232 C2224 1.574 . S
C2232 H2227 0.949 . S
C2232 C2238 1.368 . S
C2233 C2217 1.349 . S
C2233 H2225 0.950 . S
C2233 C2231 1.327 . S
C2234 C2222 1.349 . S
C2234 H2228 0.950 . S
C2234 C2235 1.327 . S
C2235 H2229 0.950 . S
C2235 C2234 1.327 . S
C2235 C2239 1.429 . S
C2236 C2219 1.574 . S
C2236 H2230 0.949 . S
C2236 C2240 1.368 . S
C2237 C2218 1.429 . S
C2237 C2231 1.429 . S
C2237 C2238 1.523 . S
C2238 C2219 1.368 . S
C2238 C2232 1.368 . S
C2238 C2237 1.523 . S
C2239 C2223 1.429 . S
C2239 C2235 1.429 . S
C2239 C2240 1.523 . S
C2240 C2224 1.368 . S
C2240 C2236 1.368 . S
C2240 C2239 1.523 . S
H2241 C2216 0.950 . S
H2242 C2218 0.950 . S
H2243 C2219 0.949 . S
H2244 C2221 0.950 . S
H2245 C2223 0.950 . S
C2246 C2247 1.349 . S
C2246 C2248 1.327 . S
C2246 H2271 0.950 . S
C2247 C2246 1.349 . S
C2247 C2263 1.349 . S
C2248 C2246 1.327 . S
C2248 C2267 1.429 . S
C2248 H2272 0.950 . S
C2249 C2266 1.574 . S
C2249 C2268 1.368 . S
C2249 H2273 0.949 . S
H2250 C2254 0.949 . S
C2251 C2252 1.349 . S
C2251 C2253 1.327 . S
C2251 H2274 0.950 . S
C2252 C2251 1.349 . S
C2252 C2264 1.349 . S
C2253 C2251 1.327 . S
C2253 C2269 1.429 . S
C2253 H2275 0.950 . S
C2254 H2250 0.949 . S
C2254 C2262 1.574 . S
C2254 C2270 1.368 . S
H2255 C2263 0.950 . S
H2256 C2261 0.950 . S
H2257 C2262 0.949 . S
H2258 C2264 0.950 . S
H2259 C2265 0.950 . S
H2260 C2266 0.949 . S
C2261 H2256 0.950 . S
C2261 C2263 1.327 . S
C2261 C2267 1.429 . S
C2262 C2254 1.574 . S
C2262 H2257 0.949 . S
C2262 C2268 1.368 . S
C2263 C2247 1.349 . S
C2263 H2255 0.950 . S
C2263 C2261 1.327 . S
C2264 C2252 1.349 . S
C2264 H2258 0.950 . S
C2264 C2265 1.327 . S
C2265 H2259 0.950 . S
C2265 C2264 1.327 . S
C2265 C2269 1.429 . S
C2266 C2249 1.574 . S
C2266 H2260 0.949 . S
C2266 C2270 1.368 . S
C2267 C2248 1.429 . S
C2267 C2261 1.429 . S
C2267 C2268 1.523 . S
C2268 C2249 1.368 . S
C2268 C2262 1.368 . S
C2268 C2267 1.523 . S
C2269 C2253 1.429 . S
C2269 C2265 1.429 . S
C2269 C2270 1.523 . S
C2270 C2254 1.368 . S
C2270 C2266 1.368 . S
C2270 C2269 1.523 . S
H2271 C2246 0.950 . S
H2272 C2248 0.950 . S
H2273 C2249 0.949 . S
H2274 C2251 0.950 . S
H2275 C2253 0.950 . S
C2276 C2277 1.349 . S
C2276 C2278 1.327 . S
C2276 H2301 0.950 . S
C2277 C2276 1.349 . S
C2277 C2293 1.349 . S
C2278 C2276 1.327 . S
C2278 C2297 1.429 . S
C2278 H2302 0.950 . S
C2279 C2296 1.574 . S
C2279 C2298 1.368 . S
C2279 H2303 0.949 . S
H2280 C2284 0.949 . S
C2281 C2282 1.349 . S
C2281 C2283 1.327 . S
C2281 H2304 0.950 . S
C2282 C2281 1.349 . S
C2282 C2294 1.349 . S
C2283 C2281 1.327 . S
C2283 C2299 1.429 . S
C2283 H2305 0.950 . S
C2284 H2280 0.949 . S
C2284 C2292 1.574 . S
C2284 C2300 1.368 . S
H2285 C2293 0.950 . S
H2286 C2291 0.950 . S
H2287 C2292 0.949 . S
H2288 C2294 0.950 . S
H2289 C2295 0.950 . S
H2290 C2296 0.949 . S
C2291 H2286 0.950 . S
C2291 C2293 1.327 . S
C2291 C2297 1.429 . S
C2292 C2284 1.574 . S
C2292 H2287 0.949 . S
C2292 C2298 1.368 . S
C2293 C2277 1.349 . S
C2293 H2285 0.950 . S
C2293 C2291 1.327 . S
C2294 C2282 1.349 . S
C2294 H2288 0.950 . S
C2294 C2295 1.327 . S
C2295 H2289 0.950 . S
C2295 C2294 1.327 . S
C2295 C2299 1.429 . S
C2296 C2279 1.574 . S
C2296 H2290 0.949 . S
C2296 C2300 1.368 . S
C2297 C2278 1.429 . S
C2297 C2291 1.429 . S
C2297 C2298 1.523 . S
C2298 C2279 1.368 . S
C2298 C2292 1.368 . S
C2298 C2297 1.523 . S
C2299 C2283 1.429 . S
C2299 C2295 1.429 . S
C2299 C2300 1.523 . S
C2300 C2284 1.368 . S
C2300 C2296 1.368 . S
C2300 C2299 1.523 . S
H2301 C2276 0.950 . S
H2302 C2278 0.950 . S
H2303 C2279 0.949 . S
H2304 C2281 0.950 . S
H2305 C2283 0.950 . S
C2306 C2307 1.349 . S
C2306 C2308 1.327 . S
C2306 H2331 0.950 . S
C2307 C2306 1.349 . S
C2307 C2323 1.349 . S
C2308 C2306 1.327 . S
C2308 C2327 1.429 . S
C2308 H2332 0.950 . S
C2309 C2326 1.574 . S
C2309 C2328 1.368 . S
C2309 H2333 0.949 . S
H2310 C2314 0.949 . S
C2311 C2312 1.349 . S
C2311 C2313 1.327 . S
C2311 H2334 0.950 . S
C2312 C2311 1.349 . S
C2312 C2324 1.349 . S
C2313 C2311 1.327 . S
C2313 C2329 1.429 . S
C2313 H2335 0.950 . S
C2314 H2310 0.949 . S
C2314 C2322 1.574 . S
C2314 C2330 1.368 . S
H2315 C2323 0.950 . S
H2316 C2321 0.950 . S
H2317 C2322 0.949 . S
H2318 C2324 0.950 . S
H2319 C2325 0.950 . S
H2320 C2326 0.949 . S
C2321 H2316 0.950 . S
C2321 C2323 1.327 . S
C2321 C2327 1.429 . S
C2322 C2314 1.574 . S
C2322 H2317 0.949 . S
C2322 C2328 1.368 . S
C2323 C2307 1.349 . S
C2323 H2315 0.950 . S
C2323 C2321 1.327 . S
C2324 C2312 1.349 . S
C2324 H2318 0.950 . S
C2324 C2325 1.327 . S
C2325 H2319 0.950 . S
C2325 C2324 1.327 . S
C2325 C2329 1.429 . S
C2326 C2309 1.574 . S
C2326 H2320 0.949 . S
C2326 C2330 1.368 . S
C2327 C2308 1.429 . S
C2327 C2321 1.429 . S
C2327 C2328 1.523 . S
C2328 C2309 1.368 . S
C2328 C2322 1.368 . S
C2328 C2327 1.523 . S
C2329 C2313 1.429 . S
C2329 C2325 1.429 . S
C2329 C2330 1.523 . S
C2330 C2314 1.368 . S
C2330 C2326 1.368 . S
C2330 C2329 1.523 . S
H2331 C2306 0.950 . S
H2332 C2308 0.950 . S
H2333 C2309 0.949 . S
H2334 C2311 0.950 . S
H2335 C2313 0.950 . S
C417 C199 1.557 . S
C422 C4 1.557 . S
C447 C23 1.557 . S
C452 C166 1.557 . S
C477 C30 1.557 . S
C482 C173 1.557 . S
C507 C192 1.557 . S
C512 C43 1.557 . S
C537 C62 1.557 . S
C542 C127 1.557 . S
C567 C69 1.557 . S
C572 C140 1.557 . S
C597 C147 1.557 . S
C602 C88 1.557 . S
C627 C114 1.557 . S
C632 C95 1.557 . S
C657 C212 1.557 . S
C662 C407 1.557 . S
C687 C225 1.557 . S
C692 C374 1.557 . S
C717 C238 1.557 . S
C722 C381 1.557 . S
C747 C394 1.557 . S
C752 C251 1.557 . S
C777 C264 1.557 . S
C782 C329 1.557 . S
C807 C283 1.557 . S
C812 C342 1.557 . S
C837 C355 1.557 . S
C842 C290 1.557 . S
C867 C303 1.557 . S
C872 C316 1.557 . S
C897 C159 1.463 . S
C902 C5 1.463 . S
C927 C16 1.463 . S
C932 C174 1.463 . S
C957 C185 1.463 . S
C962 C31 1.463 . S
C987 C44 1.463 . S
C992 C200 1.463 . S
C1017 C55 1.463 . S
C1022 C107 1.463 . S
C1047 C120 1.463 . S
C1052 C70 1.463 . S
C1077 C133 1.463 . S
C1082 C81 1.463 . S
C1107 C148 1.463 . S
C1112 C96 1.463 . S
C1137 C213 1.463 . S
C1142 C367 1.463 . S
C1167 C382 1.463 . S
C1172 C226 1.463 . S
C1197 C239 1.463 . S
C1202 C395 1.463 . S
C1227 C252 1.463 . S
C1232 C408 1.463 . S
C1257 C317 1.463 . S
C1262 C265 1.463 . S
C1287 C276 1.463 . S
C1292 C330 1.463 . S
C1317 C291 1.463 . S
C1322 C343 1.463 . S
C1347 C304 1.463 . S
C1352 C356 1.463 . S
C1377 C3 1.406 . S
C1382 C135 1.406 . S
C1407 C146 1.406 . S
C1412 C18 1.406 . S
C1437 C29 1.406 . S
C1442 C109 1.406 . S
C1467 C122 1.406 . S
C1472 C42 1.406 . S
C1497 C187 1.406 . S
C1502 C57 1.406 . S
C1527 C198 1.406 . S
C1532 C68 1.406 . S
C1557 C161 1.406 . S
C1562 C83 1.406 . S
C1587 C94 1.406 . S
C1592 C172 1.406 . S
C1617 C341 1.406 . S
C1622 C211 1.406 . S
C1647 C224 1.406 . S
C1652 C354 1.406 . S
C1677 C315 1.406 . S
C1682 C237 1.406 . S
C1707 C328 1.406 . S
C1712 C250 1.406 . S
C1737 C263 1.406 . S
C1742 C393 1.406 . S
C1767 C278 1.406 . S
C1772 C406 1.406 . S
C1797 C369 1.406 . S
C1802 C289 1.406 . S
C1827 C380 1.406 . S
C1832 C302 1.406 . S
C1857 C309 1.289 . S
C1862 C10 1.289 . S
C1887 C270 1.289 . S
C1892 C17 1.289 . S
C1917 C277 1.289 . S
C1922 C36 1.289 . S
C1947 C296 1.289 . S
C1952 C49 1.289 . S
C1977 C231 1.289 . S
C1982 C56 1.289 . S
C2007 C75 1.289 . S
C2012 C244 1.289 . S
C2037 C82 1.289 . S
C2042 C257 1.289 . S
C2067 C101 1.289 . S
C2072 C218 1.289 . S
C2097 C108 1.289 . S
C2102 C413 1.289 . S
C2127 C368 1.289 . S
C2132 C121 1.289 . S
C2157 C134 1.289 . S
C2162 C387 1.289 . S
C2187 C153 1.289 . S
C2192 C400 1.289 . S
C2217 C335 1.289 . S
C2222 C160 1.289 . S
C2247 C348 1.289 . S
C2252 C179 1.289 . S
C2277 C186 1.289 . S
C2282 C361 1.289 . S
C2307 C205 1.289 . S
C2312 C322 1.289 . S
