# Generated by pormake.
# Topology afw, (4)-cn, num edge types: 1
# Building blocks:
#     Node 0, Type 0, BuildingBlock: NAHDIM_clean_sbu_0, # of connection points: 4
#     Node 1, Type 0, BuildingBlock: NAHDIM_clean_sbu_0, # of connection points: 4
#     Node 2, Type 0, BuildingBlock: NAHDIM_clean_sbu_0, # of connection points: 4
#     Node 3, Type 0, BuildingBlock: NAHDIM_clean_sbu_0, # of connection points: 4
#     Node 4, Type 0, BuildingBlock: NAHDIM_clean_sbu_0, # of connection points: 4
#     Node 5, Type 0, BuildingBlock: NAHDIM_clean_sbu_0, # of connection points: 4
#     Node 6, Type 0, BuildingBlock: NAHDIM_clean_sbu_0, # of connection points: 4
#     Node 7, Type 0, BuildingBlock: NAHDIM_clean_sbu_0, # of connection points: 4
#     Node 8, Type 0, BuildingBlock: NAHDIM_clean_sbu_0, # of connection points: 4
#     Edge 9, Type (0, 0), BuildingBlock: UVAHIK_clean_linker_0, # of connection points: 2
#     Edge 10, Type (0, 0), BuildingBlock: UVAHIK_clean_linker_0, # of connection points: 2
#     Edge 11, Type (0, 0), BuildingBlock: UVAHIK_clean_linker_0, # of connection points: 2
#     Edge 12, Type (0, 0), BuildingBlock: UVAHIK_clean_linker_0, # of connection points: 2
#     Edge 13, Type (0, 0), BuildingBlock: UVAHIK_clean_linker_0, # of connection points: 2
#     Edge 14, Type (0, 0), BuildingBlock: UVAHIK_clean_linker_0, # of connection points: 2
#     Edge 15, Type (0, 0), BuildingBlock: UVAHIK_clean_linker_0, # of connection points: 2
#     Edge 16, Type (0, 0), BuildingBlock: UVAHIK_clean_linker_0, # of connection points: 2
#     Edge 17, Type (0, 0), BuildingBlock: UVAHIK_clean_linker_0, # of connection points: 2
#     Edge 18, Type (0, 0), BuildingBlock: UVAHIK_clean_linker_0, # of connection points: 2
#     Edge 19, Type (0, 0), BuildingBlock: UVAHIK_clean_linker_0, # of connection points: 2
#     Edge 20, Type (0, 0), BuildingBlock: UVAHIK_clean_linker_0, # of connection points: 2
#     Edge 21, Type (0, 0), BuildingBlock: UVAHIK_clean_linker_0, # of connection points: 2
#     Edge 22, Type (0, 0), BuildingBlock: UVAHIK_clean_linker_0, # of connection points: 2
#     Edge 23, Type (0, 0), BuildingBlock: UVAHIK_clean_linker_0, # of connection points: 2
#     Edge 24, Type (0, 0), BuildingBlock: UVAHIK_clean_linker_0, # of connection points: 2
#     Edge 25, Type (0, 0), BuildingBlock: UVAHIK_clean_linker_0, # of connection points: 2
#     Edge 26, Type (0, 0), BuildingBlock: UVAHIK_clean_linker_0, # of connection points: 2
# Relax obj value: 0.264
# Max RMSD: 0.262
# Mean RMSD: 0.245
data_MOF--net-afw--node1-NAHDIM_clean_sbu_0--edge1-UVAHIK_clean_linker_0
_symmetry_space_group_name_H-M    P1
_symmetry_Int_Tables_number       1
_symmetry_cell_setting            triclinic
loop_
_symmetry_equiv_pos_as_xyz
'x, y, z'
_cell_length_a     50.8682
_cell_length_b     52.903718
_cell_length_c     45.122012
_cell_angle_alpha  92.174879
_cell_angle_beta   90.772503
_cell_angle_gamma 119.31063
loop_
_atom_site_label
_atom_site_type_symbol
_atom_site_fract_x
_atom_site_fract_y
_atom_site_fract_z
_atom_type_partial_charge
C0 C 0.03538 0.26415 0.9662 0.0
O1 O 0.03478 0.27337 -0.0065 0.0
O2 O 0.07746 0.21478 -0.00945 0.0
Zn3 Zn 0.04 0.21831 -0.00499 0.0
O4 O 0.03865 0.23644 0.03452 0.0
C5 C 0.00457 0.15754 0.977 0.0
O6 O 0.02775 0.16326 0.96052 0.0
O7 O 0.03714 0.24116 0.96181 0.0
C8 C 0.02887 0.22057 0.05662 0.0
O9 O 0.02238 0.19329 0.05374 0.0
C10 C 0.09256 0.21231 0.0118 0.0
O11 O 0.08519 0.21424 0.03924 0.0
O12 O 0.00439 0.17802 -0.00755 0.0
C13 C 0.75038 0.75177 0.04977 0.0
O14 O 0.75547 0.74091 0.02524 0.0
O15 O 0.81901 0.79817 0.01385 0.0
Zn16 Zn 0.78101 0.80092 0.01714 0.0
O17 O 0.75447 0.78486 0.98039 0.0
C18 C 0.81627 0.85961 0.03936 0.0
O19 O 0.82878 0.84791 0.05551 0.0
O20 O 0.75895 0.77873 0.05194 0.0
C21 C 0.76391 0.79689 0.95603 0.0
O22 O 0.79135 0.81908 0.95528 0.0
C23 C 0.82563 0.7852 -0.00652 0.0
O24 O 0.80616 0.771 0.97142 0.0
O25 O 0.79377 0.84322 0.02224 0.0
C26 C 0.23576 0.94553 0.95961 0.0
O27 O 0.23045 0.93256 0.98485 0.0
O28 O 0.15468 0.92671 0.98177 0.0
Zn29 Zn 0.19515 0.96323 0.98267 0.0
O30 O 0.21656 0.97274 0.02267 0.0
C31 C 0.21037 0.02235 0.97356 0.0
O32 O 0.23782 0.02721 0.97979 0.0
O33 O 0.22231 0.9596 0.95324 0.0
C34 C 0.21242 0.98798 0.04252 0.0
O35 O 0.19207 -0.00406 0.03761 0.0
C36 C 0.14035 0.91649 0.00516 0.0
O37 O 0.15291 0.92912 0.03107 0.0
O38 O 0.18859 -0.00356 0.97269 0.0
C39 C 0.71924 0.59287 0.30416 0.0
O40 O 0.70867 0.59489 0.33002 0.0
O41 O 0.77215 0.55047 0.33142 0.0
Zn42 Zn 0.73779 0.5587 0.33659 0.0
O43 O 0.74336 0.58368 0.37346 0.0
C44 C 0.68072 0.50723 0.31866 0.0
O45 O 0.68533 0.51872 0.29263 0.0
O46 O 0.73312 0.57847 0.30148 0.0
C47 C 0.73153 0.57198 0.39739 0.0
O48 O 0.71789 0.54357 0.39829 0.0
C49 C 0.78637 0.54829 0.35367 0.0
O50 O 0.7798 0.55348 0.38047 0.0
O51 O 0.69988 0.52047 0.33989 0.0
C52 C 0.40726 0.10793 0.38179 0.0
O53 O 0.40626 0.09205 0.35825 0.0
O54 O 0.48504 0.14784 0.3483 0.0
Zn55 Zn 0.44736 0.15115 0.34532 0.0
O56 O 0.42152 0.12834 0.30972 0.0
C57 C 0.47466 0.21111 0.36353 0.0
O58 O 0.48013 0.20139 0.38792 0.0
O59 O 0.42379 0.13532 0.38178 0.0
C60 C 0.42764 0.1362 0.28332 0.0
O61 O 0.45237 0.16046 0.27844 0.0
C62 C 0.48958 0.12938 0.33372 0.0
O63 O 0.46851 0.11049 0.31498 0.0
O64 O 0.45982 0.19316 0.34214 0.0
C65 C 0.91062 0.28703 0.38547 0.0
O66 O 0.91995 0.28487 0.35899 0.0
O67 O 0.85433 0.31112 0.3462 0.0
Zn68 Zn 0.8567 0.27482 0.35204 0.0
O69 O 0.87429 0.26558 0.31619 0.0
C70 C 0.79997 0.22099 0.34063 0.0
O71 O 0.81351 0.21749 0.31753 0.0
O72 O 0.88381 0.28249 0.3881 0.0
C73 C 0.8783 0.27872 0.29226 0.0
O74 O 0.86918 0.29791 0.28992 0.0
C75 C 0.87746 0.33625 0.34753 0.0
O76 O 0.90422 0.33891 0.35261 0.0
O77 O 0.81446 0.24297 0.35846 0.0
C78 C 0.35026 0.94556 0.62983 0.0
O79 O 0.35403 0.95376 0.65812 0.0
O80 O 0.39506 0.89439 0.63597 0.0
Zn81 Zn 0.36076 0.89981 0.64989 0.0
O82 O 0.3698 0.91862 0.6908 0.0
C83 C 0.31929 0.84009 0.6333 0.0
O84 O 0.33734 0.84549 0.611 0.0
O85 O 0.35209 0.92328 0.62145 0.0
C86 C 0.37554 0.90695 0.7122 0.0
O87 O 0.37751 0.88336 0.70678 0.0
C88 C 0.42269 0.91147 0.64288 0.0
O89 O 0.43027 0.93494 0.65983 0.0
O90 O 0.32441 0.86044 0.65232 0.0
C91 C 0.11486 0.43679 0.7143 0.0
O92 O 0.11767 0.42416 0.68984 0.0
O93 O 0.18404 0.49024 0.67319 0.0
Zn94 Zn 0.14216 0.48451 0.67805 0.0
O95 O 0.11508 0.46046 0.64337 0.0
C96 C 0.16493 0.54356 0.69705 0.0
O97 O 0.18062 0.53686 0.71536 0.0
O98 O 0.12433 0.46393 0.71515 0.0
C99 C 0.12457 0.45241 0.621 0.0
O100 O 0.15342 0.46065 0.61974 0.0
C101 C 0.19941 0.48612 0.69293 0.0
O102 O 0.18763 0.47672 0.71866 0.0
O103 O 0.14551 0.5239 0.67922 0.0
C104 C 0.6093 0.70108 0.58997 0.0
O105 O 0.61942 0.72875 0.59673 0.0
O106 O 0.51973 0.65946 0.63213 0.0
Zn107 Zn 0.56135 0.69339 0.62836 0.0
O108 O 0.58399 0.70467 0.66761 0.0
C109 C 0.57531 0.75309 0.62383 0.0
O110 O 0.59839 0.75838 0.64145 0.0
O111 O 0.58448 0.68233 0.60016 0.0
C112 C 0.57222 0.70507 0.69213 0.0
O113 O 0.54343 0.6973 0.69254 0.0
C114 C 0.51375 0.63863 0.64884 0.0
O115 O 0.53567 0.63849 0.66443 0.0
O116 O 0.5572 0.72709 0.61467 0.0
C117 C 0.22751 0.07567 0.97582 0.0
C118 C 0.20428 0.04681 0.97087 0.0
C119 C 0.22108 0.09853 0.97603 0.0
C120 C 0.16191 0.11698 0.95482 0.0
H121 H 0.19596 0.17357 0.02121 0.0
C122 C 0.12253 0.20044 0.97592 0.0
C123 C 0.11481 0.20267 0.00533 0.0
C124 C 0.13975 0.18712 0.96919 0.0
C125 C 0.18631 0.15798 0.00251 0.0
H126 H 0.15629 0.01943 0.96122 0.0
H127 H 0.14508 0.05911 0.96188 0.0
H128 H 0.2131 0.13823 0.01287 0.0
H129 H 0.12072 0.19432 0.05095 0.0
H130 H 0.15021 0.17063 0.03918 0.0
H131 H 0.13391 0.13552 0.94539 0.0
C132 C 0.16832 0.0642 0.96528 0.0
C133 C 0.19638 0.13793 -0.00247 0.0
C134 C 0.17472 0.0414 0.96511 0.0
C135 C 0.12622 0.19291 0.02805 0.0
C136 C 0.1433 0.17945 0.0213 0.0
C137 C 0.15181 0.13694 0.95984 0.0
C138 C 0.19132 0.093 0.97119 0.0
C139 C 0.18372 0.11672 0.97407 0.0
C140 C 0.1495 0.17562 -0.00832 0.0
C141 C 0.16336 0.15724 0.98416 0.0
H142 H 0.25055 0.08058 0.98025 0.0
H143 H 0.23934 0.12051 0.98033 0.0
H144 H 0.15203 0.10119 0.9363 0.0
H145 H 0.11436 0.20803 0.95791 0.0
H146 H 0.14464 0.18505 0.94622 0.0
C147 C 0.85819 0.90956 0.05354 0.0
C148 C 0.83113 0.89148 0.03735 0.0
C149 C 0.87462 0.93912 0.04842 0.0
C150 C 0.87112 -0.00022 0.01376 0.0
H151 H 0.95673 0.02874 0.00457 0.0
C152 C 0.98314 0.10411 0.96629 0.0
C153 C 0.9813 0.12719 0.98065 0.0
C154 C 0.96279 0.07544 0.97239 0.0
C155 C 0.93283 0.02092 0.0068 0.0
H156 H 0.7992 0.89057 0.00432 0.0
H157 H 0.82799 0.94212 -0.00467 0.0
H158 H 0.92486 0.97915 0.01884 0.0
H159 H 0.95579 0.13822 0.0117 0.0
H160 H 0.92038 0.08817 0.02238 0.0
H161 H 0.87917 0.04158 0.0012 0.0
C162 C 0.83645 0.93347 0.01204 0.0
C163 C 0.91464 0.99264 0.01542 0.0
C164 C 0.82001 0.90389 0.01713 0.0
C165 C 0.95786 0.12093 0.00027 0.0
C166 C 0.93747 0.09224 0.00632 0.0
C167 C 0.88939 0.02819 0.00522 0.0
C168 C 0.86434 0.95123 0.02704 0.0
C169 C 0.88359 0.98172 0.01898 0.0
C170 C 0.94013 0.06923 -0.00707 0.0
C171 C 0.92042 0.039 0.00153 0.0
H172 H 0.86727 0.90074 0.06943 0.0
H173 H 0.89576 0.95239 0.06074 0.0
H174 H 0.84729 0.992 0.01644 0.0
H175 H 0.00041 0.10817 0.95094 0.0
H176 H 0.96507 0.05811 0.96133 0.0
C177 C 0.87486 0.79928 0.01953 0.0
C178 C 0.85613 0.78827 -0.00625 0.0
C179 C 0.90468 0.80496 0.01925 0.0
C180 C 0.96612 0.82656 0.96886 0.0
H181 H 0.00638 0.81433 0.03554 0.0
C182 C 0.09495 0.87919 0.97536 0.0
C183 C 0.10852 0.89305 0.00295 0.0
C184 C 0.06399 0.85962 0.97276 0.0
C185 C -0.00461 0.81798 0.01677 0.0
H186 H 0.85363 0.77351 0.94777 0.0
H187 H 0.90608 0.78384 0.94722 0.0
H188 H 0.95185 0.79188 0.03372 0.0
H189 H 0.1005 0.89613 0.0497 0.0
H190 H 0.04661 0.86268 0.0451 0.0
H191 H 0.00949 0.85385 0.95259 0.0
C192 C 0.89755 0.78803 0.96761 0.0
C193 C 0.96434 0.80503 0.0157 0.0
C194 C 0.86753 0.78203 0.96797 0.0
C195 C 0.09077 0.88586 0.02811 0.0
C196 C 0.05982 0.86646 0.02548 0.0
C197 C -0.00284 0.83968 0.97003 0.0
C198 C 0.91654 0.8 -0.00687 0.0
C199 C 0.94926 0.8098 -0.0079 0.0
C200 C 0.0459 0.85361 -0.00234 0.0
C201 C 0.01245 0.83619 -0.00561 0.0
H202 H 0.86672 0.80419 0.0398 0.0
H203 H 0.91884 0.81448 0.03917 0.0
H204 H 0.95516 0.83091 0.95056 0.0
H205 H 0.10807 0.88404 0.95558 0.0
H206 H 0.05412 0.8497 0.95109 0.0
C207 C 0.84532 0.35895 0.33806 0.0
C208 C 0.87405 0.36214 0.3436 0.0
C209 C 0.84173 0.38325 0.33517 0.0
C210 C 0.87748 0.46087 0.35657 0.0
H211 H 0.81647 0.45745 0.30157 0.0
C212 C 0.81744 0.52784 0.37437 0.0
C213 C 0.80649 0.5357 0.34964 0.0
C214 C 0.83236 0.51179 0.37058 0.0
C215 C 0.83403 0.45913 0.31669 0.0
H216 H 0.92168 0.39337 0.34995 0.0
H217 H 0.91537 0.43594 0.34474 0.0
H218 H 0.82953 0.41898 0.29935 0.0
H219 H 0.80476 0.53494 0.30152 0.0
H220 H 0.83129 0.50737 0.29493 0.0
H221 H 0.88179 0.50098 0.37405 0.0
C222 C 0.89561 0.41458 0.3429 0.0
C223 C 0.84121 0.43683 0.31568 0.0
C224 C 0.89922 0.3902 0.34578 0.0
C225 C 0.8126 0.52891 0.32104 0.0
C226 C 0.82767 0.51298 0.31726 0.0
C227 C 0.87035 0.48328 0.35754 0.0
C228 C 0.86679 0.41135 0.3377 0.0
C229 C 0.86235 0.437 0.33616 0.0
C230 C 0.83683 0.5034 0.34198 0.0
C231 C 0.84794 0.48225 0.33813 0.0
H232 H 0.82544 0.33766 0.33629 0.0
H233 H 0.81915 0.37998 0.3317 0.0
H234 H 0.89382 0.46162 0.37272 0.0
H235 H 0.81321 0.53281 0.39671 0.0
H236 H 0.83884 0.50459 0.39013 0.0
C237 C 0.48509 0.25309 0.33253 0.0
C238 C 0.48844 0.24266 0.35973 0.0
C239 C 0.50078 0.28277 0.32782 0.0
C240 C 0.55457 0.34158 0.31743 0.0
H241 H 0.56882 0.40101 0.37838 0.0
C242 C 0.64971 0.46624 0.35087 0.0
C243 C 0.65415 0.47859 0.32308 0.0
C244 C 0.62556 0.43859 0.35481 0.0
C245 C 0.56512 0.38465 0.36118 0.0
H246 H 0.50975 0.25535 0.40379 0.0
H247 H 0.53729 0.30707 0.39549 0.0
H248 H 0.53289 0.35031 0.38652 0.0
H249 H 0.63613 0.47195 0.27786 0.0
H250 H 0.59377 0.42365 0.28483 0.0
H251 H 0.58738 0.37568 0.29243 0.0
C252 C 0.52238 0.29234 0.37786 0.0
C253 C 0.54454 0.35564 0.36583 0.0
C254 C 0.50673 0.26266 0.38256 0.0
C255 C 0.63344 0.46298 0.29951 0.0
C256 C 0.60924 0.43527 0.30346 0.0
C257 C 0.57516 0.37055 0.31279 0.0
C258 C 0.52008 0.30266 0.35023 0.0
C259 C 0.53944 0.33374 0.34421 0.0
C260 C 0.60524 0.42264 0.33108 0.0
C261 C 0.58109 0.39235 0.33483 0.0
H262 H 0.47101 0.23827 0.31453 0.0
H263 H 0.49822 0.29012 0.30644 0.0
H264 H 0.55149 0.32518 0.3005 0.0
H265 H 0.66522 0.4777 0.36953 0.0
H266 H 0.62339 0.42936 0.37626 0.0
C267 C 0.52673 0.11381 0.31748 0.0
C268 C 0.51897 0.13021 0.33707 0.0
C269 C 0.55537 0.11627 0.31958 0.0
C270 C 0.62312 0.14235 0.36942 0.0
H271 H 0.66647 0.15831 0.29636 0.0
C272 C 0.75216 0.20768 0.36674 0.0
C273 C 0.76716 0.2019 0.34377 0.0
C274 C 0.72075 0.19227 0.36756 0.0
C275 C 0.65459 0.15325 0.31691 0.0
H276 H 0.53476 0.16119 0.37493 0.0
H277 H 0.58454 0.16548 0.37852 0.0
H278 H 0.61293 0.14317 0.29468 0.0
H279 H 0.761 0.17407 0.30472 0.0
H280 H 0.70609 0.14686 0.30641 0.0
H281 H 0.66498 0.15317 0.39174 0.0
C282 C 0.56852 0.15061 0.36164 0.0
C283 C 0.62386 0.1446 0.31593 0.0
C284 C 0.54004 0.14833 0.35941 0.0
C285 C 0.75013 0.17924 0.32258 0.0
C286 C 0.71865 0.16375 0.32344 0.0
C287 C 0.65383 0.15086 0.37039 0.0
C288 C 0.57667 0.13495 0.3415 0.0
C289 C 0.60801 0.13986 0.34224 0.0
C290 C 0.70355 0.17059 0.34552 0.0
C291 C 0.67013 0.15722 0.34423 0.0
H292 H 0.51096 0.09959 0.30008 0.0
H293 H 0.56098 0.10379 0.30388 0.0
H294 H 0.61135 0.13837 0.39002 0.0
H295 H 0.76458 0.22494 0.38348 0.0
H296 H 0.70993 0.19838 0.3847 0.0
C297 C 0.43724 0.87882 0.61486 0.0
C298 C 0.44559 0.90343 0.63388 0.0
C299 C 0.45785 0.86933 0.60854 0.0
C300 C 0.52377 0.87003 0.64217 0.0
H301 H 0.52349 0.83201 0.56687 0.0
C302 C 0.5861 0.80455 0.63079 0.0
C303 C 0.56832 0.77648 0.61769 0.0
C304 C 0.57726 0.82558 0.62816 0.0
C305 C 0.52387 0.8426 0.58801 0.0
H306 H 0.4826 0.9382 0.66003 0.0
H307 H 0.5187 0.92154 0.64894 0.0
H308 H 0.49673 0.85969 0.5706 0.0
H309 H 0.52828 0.74903 0.59007 0.0
H310 H 0.51272 0.78551 0.58579 0.0
H311 H 0.5498 0.85204 0.65993 0.0
C312 C 0.49606 0.90948 0.63917 0.0
C313 C 0.50856 0.85845 0.59015 0.0
C314 C 0.47542 0.91907 0.64542 0.0
C315 C 0.54244 0.7704 0.60055 0.0
C316 C 0.53362 0.79142 0.5979 0.0
C317 C 0.53906 0.8542 0.64004 0.0
C318 C 0.4873 0.88417 0.62111 0.0
C319 C 0.5076 0.8716 0.61747 0.0
C320 C 0.5505 0.81901 0.61232 0.0
C321 C 0.53853 0.83959 0.61316 0.0
H322 H 0.41447 0.86632 0.60548 0.0
H323 H 0.45022 0.84955 0.59487 0.0
H324 H 0.52318 0.87961 0.66363 0.0
H325 H 0.60631 0.81002 0.64397 0.0
H326 H 0.59096 0.84678 0.63918 0.0
C327 C 0.29302 0.78677 0.62011 0.0
C328 C 0.29541 0.8101 0.63811 0.0
C329 C 0.27268 0.75821 0.62659 0.0
C330 C 0.22012 0.69924 0.63812 0.0
H331 H 0.21772 0.68194 0.72111 0.0
C332 C 0.15643 0.58157 0.67427 0.0
C333 C 0.17257 0.57417 0.69444 0.0
C334 C 0.16601 0.61065 0.66918 0.0
C335 C 0.21813 0.6864 0.69785 0.0
H336 H 0.27717 0.82182 0.6761 0.0
H337 H 0.24129 0.77198 0.68708 0.0
H338 H 0.24463 0.73216 0.70711 0.0
H339 H 0.21053 0.59152 0.72612 0.0
H340 H 0.22752 0.64205 0.71687 0.0
H341 H 0.19512 0.65341 0.62871 0.0
C342 C 0.2556 0.77574 0.66833 0.0
C343 C 0.23324 0.71524 0.68983 0.0
C344 C 0.27606 0.80431 0.66193 0.0
C345 C 0.1976 0.59646 0.71042 0.0
C346 C 0.20724 0.6255 0.70524 0.0
C347 C 0.20512 0.6704 0.64613 0.0
C348 C 0.25413 0.75234 0.65112 0.0
C349 C 0.23499 0.72197 0.65981 0.0
C350 C 0.19196 0.63294 0.68407 0.0
C351 C 0.20453 0.66361 0.67604 0.0
H352 H 0.30761 0.79047 0.6016 0.0
H353 H 0.27244 0.74074 0.61307 0.0
H354 H 0.22064 0.7037 0.61484 0.0
H355 H 0.13689 0.56489 0.66177 0.0
H356 H 0.15343 0.61565 0.65311 0.0
C357 C 0.24427 0.5064 0.66094 0.0
C358 C 0.23112 0.49405 0.6876 0.0
C359 C 0.27476 0.516 0.65661 0.0
C360 C 0.34642 0.54156 0.69873 0.0
H361 H 0.37613 0.53914 0.62055 0.0
C362 C 0.47386 0.59746 0.67588 0.0
C363 C 0.48206 0.61593 0.65207 0.0
C364 C 0.44352 0.57762 0.68012 0.0
C365 C 0.36814 0.53991 0.64252 0.0
H366 H 0.23943 0.48105 0.73017 0.0
H367 H 0.2927 0.49749 0.72241 0.0
H368 H 0.32201 0.51253 0.62836 0.0
H369 H 0.46505 0.62729 0.61337 0.0
H370 H 0.41227 0.59261 0.62065 0.0
H371 H 0.3926 0.56937 0.7127 0.0
C372 C 0.27949 0.50018 0.70507 0.0
C373 C 0.33716 0.52476 0.64699 0.0
C374 C 0.24893 0.49064 0.70945 0.0
C375 C 0.45946 0.61344 0.632 0.0
C376 C 0.42923 0.59342 0.63604 0.0
C377 C 0.37743 0.55654 0.69428 0.0
C378 C 0.29286 0.51337 0.67876 0.0
C379 C 0.32587 0.52607 0.67496 0.0
C380 C 0.42089 0.57562 0.66038 0.0
C381 C 0.38853 0.55649 0.66596 0.0
H382 H 0.23122 0.50938 0.64363 0.0
H383 H 0.28435 0.52645 0.63627 0.0
H384 H 0.33853 0.54333 0.72047 0.0
H385 H 0.49077 0.59887 0.69173 0.0
H386 H 0.4377 0.56403 0.69898 0.0
C387 C 0.03869 0.30891 0.9456 0.0
C388 C 0.03619 0.28139 0.94086 0.0
C389 C 0.04196 0.32612 0.92168 0.0
C390 C 0.03338 0.32403 0.83989 0.0
H391 H 0.09955 0.40316 0.84785 0.0
C392 C 0.09155 0.38977 0.73937 0.0
C393 C 0.10141 0.41967 0.7405 0.0
C394 C 0.07953 0.37356 0.76422 0.0
C395 C 0.08063 0.38131 0.84539 0.0
H396 H 0.03392 0.24987 0.90723 0.0
H397 H 0.03977 0.27991 0.86564 0.0
H398 H 0.08486 0.37329 0.89084 0.0
H399 H 0.10586 0.45595 0.76844 0.0
H400 H 0.08464 0.42752 0.81189 0.0
H401 H 0.0296 0.33184 0.79427 0.0
C402 C 0.03902 0.28814 0.88778 0.0
C403 C 0.07221 0.36419 0.87003 0.0
C404 C 0.03589 0.27101 0.91166 0.0
C405 C 0.09858 0.43296 0.76691 0.0
C406 C 0.08652 0.41671 0.79182 0.0
C407 C 0.04175 0.34116 0.81527 0.0
C408 C 0.04259 0.31607 0.89257 0.0
C409 C 0.04894 0.33518 0.86738 0.0
C410 C 0.07704 0.38686 0.79079 0.0
C411 C 0.06592 0.36977 0.81759 0.0
H412 H 0.03886 0.31747 0.96783 0.0
H413 H 0.04436 0.34745 0.92599 0.0
H414 H 0.01504 0.30188 0.83731 0.0
H415 H 0.09344 0.37886 0.71937 0.0
H416 H 0.0729 0.35072 0.76283 0.0
C417 C 0.7129 0.76747 0.93117 0.0
C418 C 0.74396 0.78654 0.9291 0.0
C419 C 0.69382 0.7585 0.90587 0.0
C420 C 0.69011 0.77857 0.8287 0.0
H421 H 0.62287 0.70003 0.81965 0.0
C422 C 0.62266 0.72906 0.71847 0.0
C423 C 0.59106 0.71445 0.71978 0.0
C424 C 0.6407 0.73803 0.74445 0.0
C425 C 0.64141 0.7221 0.82206 0.0
H426 H 0.77955 0.81059 0.89887 0.0
H427 H 0.74646 0.79423 0.85457 0.0
H428 H 0.65613 0.71485 0.8639 0.0
H429 H 0.55353 0.69759 0.74928 0.0
H430 H 0.58525 0.71299 0.79488 0.0
H431 H 0.67573 0.78545 0.78641 0.0
C432 C 0.73663 0.78683 0.87582 0.0
C433 C 0.66044 0.73064 0.84741 0.0
C434 C 0.75566 0.79607 0.90118 0.0
C435 C 0.57783 0.70887 0.74761 0.0
C436 C 0.59592 0.71752 0.77366 0.0
C437 C 0.6713 0.76991 0.80324 0.0
C438 C 0.70543 0.76814 0.87788 0.0
C439 C 0.68507 0.75898 0.851 0.0
C440 C 0.62751 0.73228 0.77226 0.0
C441 C 0.64684 0.74159 0.79967 0.0
H442 H 0.70319 0.75988 0.95243 0.0
H443 H 0.66987 0.74445 0.90838 0.0
H444 H 0.70844 0.80073 0.83099 0.0
H445 H 0.63354 0.73375 0.69735 0.0
H446 H 0.665 0.74914 0.74279 0.0
C447 C 0.37579 0.90129 0.76705 0.0
C448 C 0.37482 0.91699 0.74303 0.0
C449 C 0.36975 0.9078 0.79561 0.0
C450 C 0.35721 0.96126 0.84085 0.0
H451 H 0.29617 0.89242 0.87677 0.0
C452 C 0.26628 0.96148 0.91425 0.0
C453 C 0.25767 0.94443 0.93918 0.0
C454 C 0.28683 0.9604 0.8948 0.0
C455 C 0.31362 0.91187 0.86742 0.0
H456 H 0.36923 0.95333 0.73049 0.0
H457 H 0.35822 0.9643 0.77992 0.0
H458 H 0.32315 0.88733 0.83494 0.0
H459 H 0.2642 0.91322 0.96352 0.0
H460 H 0.29992 0.91111 0.92919 0.0
H461 H 0.3464 0.98568 0.87251 0.0
C462 C 0.36384 0.94711 0.77695 0.0
C463 C 0.3292 0.90898 0.84347 0.0
C464 C 0.36992 0.94066 0.74848 0.0
C465 C 0.27031 0.92653 0.94444 0.0
C466 C 0.29072 0.92529 0.92481 0.0
C467 C 0.3415 0.96414 0.86471 0.0
C468 C 0.36265 0.93013 0.80066 0.0
C469 C 0.3505 0.9336 0.82933 0.0
C470 C 0.29908 0.94214 0.89974 0.0
C471 C 0.31892 0.93942 0.87763 0.0
H472 H 0.37981 0.88311 0.76363 0.0
H473 H 0.36952 0.89465 0.81353 0.0
H474 H 0.37388 0.98067 0.83079 0.0
H475 H 0.25705 0.97558 0.90963 0.0
H476 H 0.29248 0.97329 0.8754 0.0
C477 C 0.38028 0.09239 0.26425 0.0
C478 C 0.40636 0.11854 0.25864 0.0
C479 C 0.35934 0.07623 0.24135 0.0
C480 C 0.34953 0.06519 0.15991 0.0
H481 H 0.26478 0.03447 0.17583 0.0
C482 C 0.25559 0.99219 0.07367 0.0
C483 C 0.23239 -0.00098 0.06946 0.0
C484 C 0.27618 0.00473 0.09772 0.0
C485 C 0.28835 0.04298 0.17102 0.0
H486 H 0.43123 0.14792 0.22445 0.0
H487 H 0.39443 0.11976 0.18443 0.0
H488 H 0.30278 0.06101 0.21531 0.0
H489 H 0.21205 0.02367 0.08766 0.0
H490 H 0.24809 0.04565 0.12952 0.0
H491 H 0.33511 0.04783 0.11539 0.0
C492 C 0.39036 0.11167 0.20654 0.0
C493 C 0.3101 0.05792 0.1937 0.0
C494 C 0.41136 0.12787 0.22949 0.0
C495 C 0.22964 0.01793 0.0903 0.0
C496 C 0.25022 0.03044 0.11436 0.0
C497 C 0.32776 0.0502 0.13723 0.0
C498 C 0.36398 0.08583 0.21232 0.0
C499 C 0.34093 0.06932 0.18835 0.0
C500 C 0.27397 0.0243 0.11808 0.0
C501 C 0.29695 0.03909 0.14251 0.0
H502 H 0.37584 0.08446 0.28643 0.0
H503 H 0.33948 0.05618 0.24641 0.0
H504 H 0.37309 0.07349 0.15519 0.0
H505 H 0.25825 0.9776 0.05807 0.0
H506 H 0.29397 -0.00076 0.10026 0.0
C507 C 0.01083 0.2141 0.10847 0.0
C508 C 0.02078 0.23134 0.08374 0.0
C509 C -0.00074 0.22234 0.13255 0.0
C510 C 0.96005 0.26253 0.14853 0.0
H511 H 0.9753 0.25373 0.23088 0.0
C512 C 0.90465 0.29235 0.24429 0.0
C513 C 0.89511 0.27405 0.26823 0.0
C514 C 0.92195 0.28894 0.22238 0.0
C515 C 0.97056 0.256 0.20797 0.0
H516 H 0.02787 0.2715 0.06549 0.0
H517 H 0.00753 0.28579 0.10757 0.0
H518 H 0.0035 0.24566 0.19224 0.0
H519 H 0.89572 0.23746 0.2877 0.0
H520 H 0.92517 0.23099 0.24905 0.0
H521 H 0.92613 0.272 0.16396 0.0
C522 C 0.00848 0.2658 0.10816 0.0
C523 C 0.98705 0.25153 0.1859 0.0
C524 C 0.02029 0.25769 0.08418 0.0
C525 C 0.90284 0.25199 0.26958 0.0
C526 C 0.91995 0.24845 0.24756 0.0
C527 C 0.9434 0.26679 0.17055 0.0
C528 C -0.00276 0.24787 0.13226 0.0
C529 C 0.98182 0.25458 0.15596 0.0
C530 C 0.92989 0.26701 0.22381 0.0
C531 C 0.94829 0.26337 0.20051 0.0
H532 H 0.01103 0.19374 0.10884 0.0
H533 H 0.991 0.20802 0.15076 0.0
H534 H 0.95518 0.26455 0.12557 0.0
H535 H 0.89926 0.30969 0.24272 0.0
H536 H 0.92954 0.30385 0.2046 0.0
C537 C 0.72013 0.59996 0.24969 0.0
C538 C 0.71522 0.60732 0.27853 0.0
C539 C 0.71703 0.61407 0.22549 0.0
C540 C 0.72442 0.68289 0.20597 0.0
H541 H 0.68445 0.64141 0.13181 0.0
C542 C 0.73134 0.7445 0.10144 0.0
C543 C 0.7377 0.73345 0.07536 0.0
C544 C 0.72211 0.72794 0.12652 0.0
C545 C 0.69582 0.65333 0.15231 0.0
H546 H 0.70282 0.63491 0.30465 0.0
H547 H 0.69802 0.66002 0.26225 0.0
H548 H 0.68088 0.6143 0.17557 0.0
H549 H 0.73824 0.69599 0.05473 0.0
H550 H 0.72306 0.66758 0.09846 0.0
H551 H 0.74076 0.72182 0.18259 0.0
C552 C 0.70408 0.64321 0.25847 0.0
C553 C 0.69367 0.6378 0.17735 0.0
C554 C 0.70678 0.62881 0.28267 0.0
C555 C 0.73352 0.70515 0.07448 0.0
C556 C 0.72455 0.68873 0.09956 0.0
C557 C 0.72687 0.69842 0.18087 0.0
C558 C 0.70931 0.63604 0.2297 0.0
C559 C 0.70848 0.65243 0.20422 0.0
C560 C 0.71926 0.7001 0.12606 0.0
C561 C 0.71318 0.6838 0.15355 0.0
H562 H 0.7265 0.58338 0.2458 0.0
H563 H 0.72151 0.60837 0.20356 0.0
H564 H 0.73627 0.69467 0.22639 0.0
H565 H 0.7341 0.76615 0.10271 0.0
H566 H 0.71772 0.73717 0.14641 0.0
C567 C 0.072 0.42288 0.59948 0.0
C568 C 0.1031 0.4332 0.59713 0.0
C569 C 0.05163 0.40443 0.57717 0.0
C570 C 0.04668 0.38285 0.49814 0.0
H571 H 0.97071 0.31759 0.5184 0.0
C572 C 0.96227 0.30476 0.40795 0.0
C573 C 0.93216 0.29814 0.41127 0.0
C574 C 0.98349 0.31823 0.43138 0.0
C575 C 0.99188 0.33582 0.51241 0.0
H576 H 0.1372 0.43217 0.56952 0.0
H577 H 0.10154 0.39988 0.53055 0.0
H578 H 0.00708 0.34751 0.55777 0.0
H579 H 0.90044 0.29937 0.44217 0.0
H580 H 0.93752 0.32311 0.48293 0.0
H581 H 0.03094 0.37156 0.45286 0.0
C582 C 0.09299 0.40626 0.54959 0.0
C583 C 0.01251 0.35295 0.53494 0.0
C584 C 0.11339 0.42467 0.57196 0.0
C585 C 0.92346 0.30418 0.43889 0.0
C586 C 0.94469 0.31767 0.46231 0.0
C587 C 0.02565 0.36575 0.47563 0.0
C588 C 0.06189 0.39593 0.55198 0.0
C589 C 0.0402 0.37683 0.52805 0.0
C590 C 0.97506 0.32536 0.45862 0.0
C591 C -0.00231 0.34222 0.48252 0.0
H592 H 0.06333 0.42904 0.61858 0.0
H593 H 0.02784 0.39717 0.57945 0.0
H594 H 0.06765 0.40132 0.49215 0.0
H595 H 0.96968 0.30022 0.38702 0.0
H596 H 0.00621 0.32344 0.42802 0.0
C597 C 0.7114 0.57611 0.4464 0.0
C598 C 0.72926 0.58967 0.42229 0.0
C599 C 0.70544 0.59221 0.46776 0.0
C600 C 0.70033 0.65901 0.47475 0.0
H601 H 0.684 0.63751 0.55641 0.0
C602 C 0.65272 0.71177 0.55742 0.0
C603 C 0.62741 0.69161 0.57225 0.0
C604 C 0.67006 0.70266 0.54116 0.0
C605 C 0.68856 0.64377 0.53367 0.0
H606 H 0.75666 0.63109 0.40278 0.0
H607 H 0.74674 0.65934 0.44048 0.0
H608 H 0.70782 0.61633 0.52525 0.0
H609 H 0.6006 0.64618 0.58192 0.0
H610 H 0.63091 0.63041 0.5537 0.0
H611 H 0.68063 0.68615 0.48318 0.0
C612 C 0.73673 0.63612 0.44246 0.0
C613 C 0.70212 0.63162 0.51581 0.0
C614 C 0.74256 0.61996 0.42096 0.0
C615 C 0.6199 0.66224 0.57067 0.0
C616 C 0.63741 0.65323 0.55475 0.0
C617 C 0.68702 0.67136 0.49272 0.0
C618 C 0.71739 0.6223 0.46562 0.0
C619 C 0.70738 0.63847 0.48589 0.0
C620 C 0.66262 0.67332 0.53983 0.0
C621 C 0.68025 0.66322 0.52207 0.0
H622 H 0.70084 0.55282 0.44811 0.0
H623 H 0.69016 0.58076 0.48507 0.0
H624 H 0.70366 0.6645 0.45172 0.0
H625 H 0.65908 0.73455 0.55826 0.0
H626 H 0.68943 0.71856 0.52985 0.0
C627 C 0.35071 0.99104 0.61544 0.0
C628 C 0.3459 0.96308 0.6076 0.0
C629 C 0.34943 0.0086 0.59373 0.0
C630 C 0.32488 0.00802 0.51593 0.0
H631 H 0.39788 0.08257 0.51461 0.0
C632 C 0.37462 0.06344 0.40874 0.0
C633 C 0.39143 0.09383 0.40866 0.0
C634 C 0.36228 0.04976 0.43483 0.0
C635 C 0.37696 0.0622 0.51491 0.0
H636 H 0.33431 0.931 0.5712 0.0
H637 H 0.33213 0.96159 0.53343 0.0
H638 H 0.38783 0.05385 0.55807 0.0
H639 H 0.40694 0.13383 0.43546 0.0
H640 H 0.38511 0.10986 0.48111 0.0
H641 H 0.31456 0.01591 0.47228 0.0
C642 C 0.33678 0.96994 0.55631 0.0
C643 C 0.37122 0.04571 0.53985 0.0
C644 C 0.33832 0.95251 0.57792 0.0
C645 C 0.39433 0.11034 0.43489 0.0
C646 C 0.3819 0.09662 0.46104 0.0
C647 C 0.33052 0.02459 0.49103 0.0
C648 C 0.34297 -0.00162 0.56388 0.0
C649 C 0.34571 0.01801 0.54014 0.0
C650 C 0.36637 0.06616 0.46144 0.0
C651 C 0.35721 0.05136 0.4898 0.0
H652 H 0.35647 -0.00026 0.63817 0.0
H653 H 0.35413 0.03039 0.60017 0.0
H654 H 0.30479 0.98692 0.51579 0.0
H655 H 0.37185 0.05007 0.38889 0.0
H656 H 0.35084 0.02627 0.43438 0.0
loop_
_geom_bond_atom_site_label_1
_geom_bond_atom_site_label_2
_geom_bond_distance
_geom_bond_site_symmetry_2
_ccdc_geom_bond_type
C0 O1 1.160 . S
C0 O7 1.185 . S
O1 C0 1.160 . S
O2 Zn3 1.899 . S
O2 C10 1.284 . S
Zn3 O2 1.899 . S
Zn3 O4 2.032 . S
Zn3 O7 2.086 1_554 S
Zn3 O12 1.977 1_454 S
O4 Zn3 2.032 . S
O4 C8 1.278 . S
C5 O6 1.203 . S
C5 O12 1.267 1_554 S
O6 C5 1.203 . S
O7 C0 1.185 . S
O7 Zn3 2.086 1_556 S
C8 O4 1.278 . S
C8 O9 1.211 1_455 S
O9 C8 1.211 1_655 S
C10 O2 1.284 . S
C10 O11 1.273 . S
O11 C10 1.273 . S
O12 Zn3 1.977 1_656 S
O12 C5 1.267 1_556 S
C13 O14 1.160 . S
C13 O20 1.185 . S
O14 C13 1.160 . S
O15 Zn16 1.899 . S
O15 C23 1.281 . S
Zn16 O15 1.899 . S
Zn16 O17 2.032 1_554 S
Zn16 O20 2.086 . S
Zn16 O25 1.977 . S
O17 Zn16 2.032 1_556 S
O17 C21 1.278 . S
C18 O19 1.203 . S
C18 O25 1.267 . S
O19 C18 1.203 . S
O20 C13 1.185 . S
O20 Zn16 2.086 . S
C21 O17 1.278 . S
C21 O22 1.211 . S
O22 C21 1.211 . S
C23 O15 1.281 . S
C23 O24 1.276 1_554 S
O24 C23 1.276 1_556 S
O25 Zn16 1.977 . S
O25 C18 1.267 . S
C26 O27 1.160 . S
C26 O33 1.185 1_565 S
O27 C26 1.160 . S
O28 Zn29 1.899 1_566 S
O28 C36 1.284 1_556 S
Zn29 O28 1.899 1_544 S
Zn29 O30 2.034 . S
Zn29 O33 2.083 1_554 S
Zn29 O38 1.977 1_554 S
O30 Zn29 2.034 . S
O30 C34 1.278 . S
C31 O32 1.203 . S
C31 O38 1.267 1_554 S
O32 C31 1.203 . S
O33 C26 1.185 1_545 S
O33 Zn29 2.083 1_556 S
C34 O30 1.278 . S
C34 O35 1.211 . S
O35 C34 1.211 . S
C36 O28 1.284 1_554 S
C36 O37 1.273 . S
O37 C36 1.273 . S
O38 Zn29 1.977 1_556 S
O38 C31 1.267 1_556 S
C39 O40 1.160 . S
C39 O46 1.185 . S
O40 C39 1.160 . S
O41 Zn42 1.899 . S
O41 C49 1.284 . S
Zn42 O41 1.899 . S
Zn42 O43 2.032 . S
Zn42 O46 2.086 . S
Zn42 O51 1.977 . S
O43 Zn42 2.032 . S
O43 C47 1.278 . S
C44 O45 1.203 . S
C44 O51 1.267 . S
O45 C44 1.203 . S
O46 C39 1.185 . S
O46 Zn42 2.086 . S
C47 O43 1.278 . S
C47 O48 1.211 . S
O48 C47 1.211 . S
C49 O41 1.284 . S
C49 O50 1.273 . S
O50 C49 1.273 . S
O51 Zn42 1.977 . S
O51 C44 1.267 . S
C52 O53 1.160 . S
C52 O59 1.185 . S
O53 C52 1.160 . S
O54 Zn55 1.899 . S
O54 C62 1.284 . S
Zn55 O54 1.899 . S
Zn55 O56 2.032 . S
Zn55 O59 2.086 . S
Zn55 O64 1.977 . S
O56 Zn55 2.032 . S
O56 C60 1.278 . S
C57 O58 1.203 . S
C57 O64 1.267 . S
O58 C57 1.203 . S
O59 C52 1.185 . S
O59 Zn55 2.086 . S
C60 O56 1.278 . S
C60 O61 1.211 . S
O61 C60 1.211 . S
C62 O54 1.284 . S
C62 O63 1.273 . S
O63 C62 1.273 . S
O64 Zn55 1.977 . S
O64 C57 1.267 . S
C65 O66 1.160 . S
C65 O72 1.185 . S
O66 C65 1.160 . S
O67 Zn68 1.899 . S
O67 C75 1.284 . S
Zn68 O67 1.899 . S
Zn68 O69 2.032 . S
Zn68 O72 2.086 . S
Zn68 O77 1.977 . S
O69 Zn68 2.032 . S
O69 C73 1.278 . S
C70 O71 1.203 . S
C70 O77 1.267 . S
O71 C70 1.203 . S
O72 C65 1.185 . S
O72 Zn68 2.086 . S
C73 O69 1.278 . S
C73 O74 1.211 . S
O74 C73 1.211 . S
C75 O67 1.284 . S
C75 O76 1.273 . S
O76 C75 1.273 . S
O77 Zn68 1.977 . S
O77 C70 1.267 . S
C78 O79 1.160 . S
C78 O85 1.185 . S
O79 C78 1.160 . S
O80 Zn81 1.899 . S
O80 C88 1.284 . S
Zn81 O80 1.899 . S
Zn81 O82 2.032 . S
Zn81 O85 2.086 . S
Zn81 O90 1.977 . S
O82 Zn81 2.032 . S
O82 C86 1.278 . S
C83 O84 1.203 . S
C83 O90 1.267 . S
O84 C83 1.203 . S
O85 C78 1.185 . S
O85 Zn81 2.086 . S
C86 O82 1.278 . S
C86 O87 1.211 . S
O87 C86 1.211 . S
C88 O80 1.284 . S
C88 O89 1.273 . S
O89 C88 1.273 . S
O90 Zn81 1.977 . S
O90 C83 1.267 . S
C91 O92 1.160 . S
C91 O98 1.185 . S
O92 C91 1.160 . S
O93 Zn94 1.899 . S
O93 C101 1.284 . S
Zn94 O93 1.899 . S
Zn94 O95 2.032 . S
Zn94 O98 2.086 . S
Zn94 O103 1.977 . S
O95 Zn94 2.032 . S
O95 C99 1.278 . S
C96 O97 1.203 . S
C96 O103 1.267 . S
O97 C96 1.203 . S
O98 C91 1.185 . S
O98 Zn94 2.086 . S
C99 O95 1.278 . S
C99 O100 1.211 . S
O100 C99 1.211 . S
C101 O93 1.284 . S
C101 O102 1.273 . S
O102 C101 1.273 . S
O103 Zn94 1.977 . S
O103 C96 1.267 . S
C104 O105 1.160 . S
C104 O111 1.185 . S
O105 C104 1.160 . S
O106 Zn107 1.899 . S
O106 C114 1.284 . S
Zn107 O106 1.899 . S
Zn107 O108 2.032 . S
Zn107 O111 2.086 . S
Zn107 O116 1.977 . S
O108 Zn107 2.032 . S
O108 C112 1.278 . S
C109 O110 1.203 . S
C109 O116 1.267 . S
O110 C109 1.203 . S
O111 C104 1.185 . S
O111 Zn107 2.086 . S
C112 O108 1.278 . S
C112 O113 1.211 . S
O113 C112 1.211 . S
C114 O106 1.284 . S
C114 O115 1.273 . S
O115 C114 1.273 . S
O116 Zn107 1.977 . S
O116 C109 1.267 . S
C117 C118 1.349 . S
C117 C119 1.327 . S
C117 H142 0.950 . S
C118 C117 1.349 . S
C118 C134 1.349 1_554 S
C119 C117 1.327 . S
C119 C138 1.429 . S
C119 H143 0.950 . S
C120 C137 1.574 . S
C120 C139 1.368 1_556 S
C120 H144 0.949 . S
H121 C125 0.949 . S
C122 C123 1.349 . S
C122 C124 1.327 1_554 S
C122 H145 0.950 1_554 S
C123 C122 1.349 . S
C123 C135 1.349 . S
C124 C122 1.327 1_556 S
C124 C140 1.429 1_556 S
C124 H146 0.950 . S
C125 H121 0.949 . S
C125 C133 1.574 . S
C125 C141 1.368 . S
H126 C134 0.950 . S
H127 C132 0.950 . S
H128 C133 0.949 . S
H129 C135 0.950 . S
H130 C136 0.950 . S
H131 C137 0.949 . S
C132 H127 0.950 . S
C132 C134 1.327 . S
C132 C138 1.429 1_556 S
C133 C125 1.574 . S
C133 H128 0.949 . S
C133 C139 1.368 . S
C134 C118 1.349 1_556 S
C134 H126 0.950 . S
C134 C132 1.327 . S
C135 C123 1.349 . S
C135 H129 0.950 . S
C135 C136 1.327 . S
C136 H130 0.950 . S
C136 C135 1.327 . S
C136 C140 1.429 . S
C137 C120 1.574 . S
C137 H131 0.949 . S
C137 C141 1.368 1_556 S
C138 C119 1.429 . S
C138 C132 1.429 1_554 S
C138 C139 1.523 . S
C139 C120 1.368 1_554 S
C139 C133 1.368 . S
C139 C138 1.523 . S
C140 C124 1.429 1_554 S
C140 C136 1.429 . S
C140 C141 1.523 . S
C141 C125 1.368 . S
C141 C137 1.368 1_554 S
C141 C140 1.523 . S
H142 C117 0.950 . S
H143 C119 0.950 . S
H144 C120 0.949 . S
H145 C122 0.950 1_556 S
H146 C124 0.950 . S
C147 C148 1.349 . S
C147 C149 1.327 . S
C147 H172 0.950 . S
C148 C147 1.349 . S
C148 C164 1.349 . S
C149 C147 1.327 . S
C149 C168 1.429 . S
C149 H173 0.950 . S
C150 C167 1.574 1_565 S
C150 C169 1.368 1_556 S
C150 H174 0.949 . S
H151 C155 0.949 . S
C152 C153 1.349 1_556 S
C152 C154 1.327 . S
C152 H175 0.950 . S
C153 C152 1.349 1_554 S
C153 C165 1.349 . S
C154 C152 1.327 . S
C154 C170 1.429 1_556 S
C154 H176 0.950 . S
C155 H151 0.949 . S
C155 C163 1.543 1_545 S
C155 C171 1.368 . S
H156 C164 0.950 1_556 S
H157 C162 0.949 . S
H158 C163 0.972 . S
H159 C165 0.950 . S
H160 C166 0.950 . S
H161 C167 0.949 . S
C162 H157 0.949 . S
C162 C164 1.327 1_556 S
C162 C168 1.429 1_556 S
C163 C155 1.543 1_565 S
C163 H158 0.972 . S
C163 C169 1.374 . S
C164 C148 1.349 . S
C164 H156 0.950 1_554 S
C164 C162 1.327 1_554 S
C165 C153 1.349 . S
C165 H159 0.950 . S
C165 C166 1.327 . S
C166 H160 0.950 . S
C166 C165 1.327 . S
C166 C170 1.429 . S
C167 C150 1.574 1_545 S
C167 H161 0.949 . S
C167 C171 1.368 1_556 S
C168 C149 1.429 . S
C168 C162 1.429 1_554 S
C168 C169 1.523 . S
C169 C150 1.368 1_554 S
C169 C163 1.374 . S
C169 C168 1.523 . S
C170 C154 1.429 1_554 S
C170 C166 1.429 . S
C170 C171 1.523 . S
C171 C155 1.368 . S
C171 C167 1.368 1_554 S
C171 C170 1.523 . S
H172 C147 0.950 . S
H173 C149 0.950 . S
H174 C150 0.949 . S
H175 C152 0.950 . S
H176 C154 0.950 . S
C177 C178 1.349 . S
C177 C179 1.327 . S
C177 H202 0.950 . S
C178 C177 1.349 . S
C178 C194 1.349 1_554 S
C179 C177 1.327 . S
C179 C198 1.429 . S
C179 H203 0.950 . S
C180 C197 1.574 . S
C180 C199 1.368 1_456 S
C180 H204 0.949 1_455 S
H181 C185 0.949 . S
C182 C183 1.366 . S
C182 C184 1.326 1_554 S
C182 H205 0.934 1_554 S
C183 C182 1.366 . S
C183 C195 1.349 . S
C184 C182 1.326 1_556 S
C184 C200 1.429 1_556 S
C184 H206 0.950 . S
C185 H181 0.949 . S
C185 C193 1.574 . S
C185 C201 1.368 . S
H186 C194 0.950 . S
H187 C192 0.950 . S
H188 C193 0.949 1_655 S
H189 C195 0.950 . S
H190 C196 0.950 . S
H191 C197 0.949 . S
C192 H187 0.950 . S
C192 C194 1.327 . S
C192 C198 1.429 1_556 S
C193 C185 1.574 . S
C193 H188 0.949 1_455 S
C193 C199 1.368 1_455 S
C194 C178 1.349 1_556 S
C194 H186 0.950 . S
C194 C192 1.327 . S
C195 C183 1.349 . S
C195 H189 0.950 . S
C195 C196 1.327 . S
C196 H190 0.950 . S
C196 C195 1.327 . S
C196 C200 1.429 . S
C197 C180 1.574 . S
C197 H191 0.949 . S
C197 C201 1.368 1_556 S
C198 C179 1.429 . S
C198 C192 1.429 1_554 S
C198 C199 1.523 . S
C199 C180 1.368 1_654 S
C199 C193 1.368 1_655 S
C199 C198 1.523 . S
C200 C184 1.429 1_554 S
C200 C196 1.429 . S
C200 C201 1.523 . S
C201 C185 1.368 . S
C201 C197 1.368 1_554 S
C201 C200 1.523 . S
H202 C177 0.950 . S
H203 C179 0.950 . S
H204 C180 0.949 1_655 S
H205 C182 0.934 1_556 S
H206 C184 0.950 . S
C207 C208 1.349 . S
C207 C209 1.327 . S
C207 H232 0.950 . S
C208 C207 1.349 . S
C208 C224 1.349 . S
C209 C207 1.327 . S
C209 C228 1.429 . S
C209 H233 0.950 . S
C210 C227 1.574 . S
C210 C229 1.368 . S
C210 H234 0.949 . S
H211 C215 0.949 . S
C212 C213 1.349 . S
C212 C214 1.327 . S
C212 H235 0.950 . S
C213 C212 1.349 . S
C213 C225 1.349 . S
C214 C212 1.327 . S
C214 C230 1.429 . S
C214 H236 0.950 . S
C215 H211 0.949 . S
C215 C223 1.574 . S
C215 C231 1.368 . S
H216 C224 0.950 . S
H217 C222 0.950 . S
H218 C223 0.949 . S
H219 C225 0.950 . S
H220 C226 0.950 . S
H221 C227 0.949 . S
C222 H217 0.950 . S
C222 C224 1.327 . S
C222 C228 1.429 . S
C223 C215 1.574 . S
C223 H218 0.949 . S
C223 C229 1.368 . S
C224 C208 1.349 . S
C224 H216 0.950 . S
C224 C222 1.327 . S
C225 C213 1.349 . S
C225 H219 0.950 . S
C225 C226 1.327 . S
C226 H220 0.950 . S
C226 C225 1.327 . S
C226 C230 1.429 . S
C227 C210 1.574 . S
C227 H221 0.949 . S
C227 C231 1.368 . S
C228 C209 1.429 . S
C228 C222 1.429 . S
C228 C229 1.523 . S
C229 C210 1.368 . S
C229 C223 1.368 . S
C229 C228 1.523 . S
C230 C214 1.429 . S
C230 C226 1.429 . S
C230 C231 1.523 . S
C231 C215 1.368 . S
C231 C227 1.368 . S
C231 C230 1.523 . S
H232 C207 0.950 . S
H233 C209 0.950 . S
H234 C210 0.949 . S
H235 C212 0.950 . S
H236 C214 0.950 . S
C237 C238 1.349 . S
C237 C239 1.327 . S
C237 H262 0.950 . S
C238 C237 1.349 . S
C238 C254 1.349 . S
C239 C237 1.327 . S
C239 C258 1.429 . S
C239 H263 0.950 . S
C240 C257 1.574 . S
C240 C259 1.368 . S
C240 H264 0.949 . S
H241 C245 0.949 . S
C242 C243 1.349 . S
C242 C244 1.327 . S
C242 H265 0.950 . S
C243 C242 1.349 . S
C243 C255 1.349 . S
C244 C242 1.327 . S
C244 C260 1.429 . S
C244 H266 0.950 . S
C245 H241 0.949 . S
C245 C253 1.574 . S
C245 C261 1.368 . S
H246 C254 0.950 . S
H247 C252 0.950 . S
H248 C253 0.949 . S
H249 C255 0.950 . S
H250 C256 0.950 . S
H251 C257 0.949 . S
C252 H247 0.950 . S
C252 C254 1.327 . S
C252 C258 1.429 . S
C253 C245 1.574 . S
C253 H248 0.949 . S
C253 C259 1.368 . S
C254 C238 1.349 . S
C254 H246 0.950 . S
C254 C252 1.327 . S
C255 C243 1.349 . S
C255 H249 0.950 . S
C255 C256 1.327 . S
C256 H250 0.950 . S
C256 C255 1.327 . S
C256 C260 1.429 . S
C257 C240 1.574 . S
C257 H251 0.949 . S
C257 C261 1.368 . S
C258 C239 1.429 . S
C258 C252 1.429 . S
C258 C259 1.523 . S
C259 C240 1.368 . S
C259 C253 1.368 . S
C259 C258 1.523 . S
C260 C244 1.429 . S
C260 C256 1.429 . S
C260 C261 1.523 . S
C261 C245 1.368 . S
C261 C257 1.368 . S
C261 C260 1.523 . S
H262 C237 0.950 . S
H263 C239 0.950 . S
H264 C240 0.949 . S
H265 C242 0.950 . S
H266 C244 0.950 . S
C267 C268 1.349 . S
C267 C269 1.327 . S
C267 H292 0.950 . S
C268 C267 1.349 . S
C268 C284 1.349 . S
C269 C267 1.327 . S
C269 C288 1.429 . S
C269 H293 0.950 . S
C270 C287 1.574 . S
C270 C289 1.368 . S
C270 H294 0.949 . S
H271 C275 0.949 . S
C272 C273 1.349 . S
C272 C274 1.327 . S
C272 H295 0.950 . S
C273 C272 1.349 . S
C273 C285 1.349 . S
C274 C272 1.327 . S
C274 C290 1.429 . S
C274 H296 0.950 . S
C275 H271 0.949 . S
C275 C283 1.574 . S
C275 C291 1.368 . S
H276 C284 0.950 . S
H277 C282 0.950 . S
H278 C283 0.949 . S
H279 C285 0.950 . S
H280 C286 0.950 . S
H281 C287 0.949 . S
C282 H277 0.950 . S
C282 C284 1.327 . S
C282 C288 1.429 . S
C283 C275 1.574 . S
C283 H278 0.949 . S
C283 C289 1.368 . S
C284 C268 1.349 . S
C284 H276 0.950 . S
C284 C282 1.327 . S
C285 C273 1.349 . S
C285 H279 0.950 . S
C285 C286 1.327 . S
C286 H280 0.950 . S
C286 C285 1.327 . S
C286 C290 1.429 . S
C287 C270 1.574 . S
C287 H281 0.949 . S
C287 C291 1.368 . S
C288 C269 1.429 . S
C288 C282 1.429 . S
C288 C289 1.523 . S
C289 C270 1.368 . S
C289 C283 1.368 . S
C289 C288 1.523 . S
C290 C274 1.429 . S
C290 C286 1.429 . S
C290 C291 1.523 . S
C291 C275 1.368 . S
C291 C287 1.368 . S
C291 C290 1.523 . S
H292 C267 0.950 . S
H293 C269 0.950 . S
H294 C270 0.949 . S
H295 C272 0.950 . S
H296 C274 0.950 . S
C297 C298 1.349 . S
C297 C299 1.327 . S
C297 H322 0.950 . S
C298 C297 1.349 . S
C298 C314 1.349 . S
C299 C297 1.327 . S
C299 C318 1.429 . S
C299 H323 0.950 . S
C300 C317 1.574 . S
C300 C319 1.368 . S
C300 H324 0.949 . S
H301 C305 0.949 . S
C302 C303 1.349 . S
C302 C304 1.327 . S
C302 H325 0.950 . S
C303 C302 1.349 . S
C303 C315 1.349 . S
C304 C302 1.327 . S
C304 C320 1.429 . S
C304 H326 0.950 . S
C305 H301 0.949 . S
C305 C313 1.574 . S
C305 C321 1.368 . S
H306 C314 0.950 . S
H307 C312 0.950 . S
H308 C313 0.949 . S
H309 C315 0.950 . S
H310 C316 0.950 . S
H311 C317 0.949 . S
C312 H307 0.950 . S
C312 C314 1.327 . S
C312 C318 1.429 . S
C313 C305 1.574 . S
C313 H308 0.949 . S
C313 C319 1.368 . S
C314 C298 1.349 . S
C314 H306 0.950 . S
C314 C312 1.327 . S
C315 C303 1.349 . S
C315 H309 0.950 . S
C315 C316 1.327 . S
C316 H310 0.950 . S
C316 C315 1.327 . S
C316 C320 1.429 . S
C317 C300 1.574 . S
C317 H311 0.949 . S
C317 C321 1.368 . S
C318 C299 1.429 . S
C318 C312 1.429 . S
C318 C319 1.523 . S
C319 C300 1.368 . S
C319 C313 1.368 . S
C319 C318 1.523 . S
C320 C304 1.429 . S
C320 C316 1.429 . S
C320 C321 1.523 . S
C321 C305 1.368 . S
C321 C317 1.368 . S
C321 C320 1.523 . S
H322 C297 0.950 . S
H323 C299 0.950 . S
H324 C300 0.949 . S
H325 C302 0.950 . S
H326 C304 0.950 . S
C327 C328 1.349 . S
C327 C329 1.327 . S
C327 H352 0.950 . S
C328 C327 1.349 . S
C328 C344 1.349 . S
C329 C327 1.327 . S
C329 C348 1.429 . S
C329 H353 0.950 . S
C330 C347 1.574 . S
C330 C349 1.368 . S
C330 H354 0.949 . S
H331 C335 0.949 . S
C332 C333 1.349 . S
C332 C334 1.327 . S
C332 H355 0.950 . S
C333 C332 1.349 . S
C333 C345 1.349 . S
C334 C332 1.327 . S
C334 C350 1.429 . S
C334 H356 0.950 . S
C335 H331 0.949 . S
C335 C343 1.574 . S
C335 C351 1.368 . S
H336 C344 0.950 . S
H337 C342 0.950 . S
H338 C343 0.949 . S
H339 C345 0.950 . S
H340 C346 0.950 . S
H341 C347 0.949 . S
C342 H337 0.950 . S
C342 C344 1.327 . S
C342 C348 1.429 . S
C343 C335 1.574 . S
C343 H338 0.949 . S
C343 C349 1.368 . S
C344 C328 1.349 . S
C344 H336 0.950 . S
C344 C342 1.327 . S
C345 C333 1.349 . S
C345 H339 0.950 . S
C345 C346 1.327 . S
C346 H340 0.950 . S
C346 C345 1.327 . S
C346 C350 1.429 . S
C347 C330 1.574 . S
C347 H341 0.949 . S
C347 C351 1.368 . S
C348 C329 1.429 . S
C348 C342 1.429 . S
C348 C349 1.523 . S
C349 C330 1.368 . S
C349 C343 1.368 . S
C349 C348 1.523 . S
C350 C334 1.429 . S
C350 C346 1.429 . S
C350 C351 1.523 . S
C351 C335 1.368 . S
C351 C347 1.368 . S
C351 C350 1.523 . S
H352 C327 0.950 . S
H353 C329 0.950 . S
H354 C330 0.949 . S
H355 C332 0.950 . S
H356 C334 0.950 . S
C357 C358 1.349 . S
C357 C359 1.327 . S
C357 H382 0.950 . S
C358 C357 1.349 . S
C358 C374 1.349 . S
C359 C357 1.327 . S
C359 C378 1.429 . S
C359 H383 0.950 . S
C360 C377 1.574 . S
C360 C379 1.368 . S
C360 H384 0.949 . S
H361 C365 0.949 . S
C362 C363 1.349 . S
C362 C364 1.327 . S
C362 H385 0.950 . S
C363 C362 1.349 . S
C363 C375 1.349 . S
C364 C362 1.327 . S
C364 C380 1.429 . S
C364 H386 0.950 . S
C365 H361 0.949 . S
C365 C373 1.574 . S
C365 C381 1.368 . S
H366 C374 0.950 . S
H367 C372 0.950 . S
H368 C373 0.949 . S
H369 C375 0.950 . S
H370 C376 0.950 . S
H371 C377 0.949 . S
C372 H367 0.950 . S
C372 C374 1.327 . S
C372 C378 1.429 . S
C373 C365 1.574 . S
C373 H368 0.949 . S
C373 C379 1.368 . S
C374 C358 1.349 . S
C374 H366 0.950 . S
C374 C372 1.327 . S
C375 C363 1.349 . S
C375 H369 0.950 . S
C375 C376 1.327 . S
C376 H370 0.950 . S
C376 C375 1.327 . S
C376 C380 1.429 . S
C377 C360 1.574 . S
C377 H371 0.949 . S
C377 C381 1.368 . S
C378 C359 1.429 . S
C378 C372 1.429 . S
C378 C379 1.523 . S
C379 C360 1.368 . S
C379 C373 1.368 . S
C379 C378 1.523 . S
C380 C364 1.429 . S
C380 C376 1.429 . S
C380 C381 1.523 . S
C381 C365 1.368 . S
C381 C377 1.368 . S
C381 C380 1.523 . S
H382 C357 0.950 . S
H383 C359 0.950 . S
H384 C360 0.949 . S
H385 C362 0.950 . S
H386 C364 0.950 . S
C387 C388 1.349 . S
C387 C389 1.327 . S
C387 H412 0.950 . S
C388 C387 1.349 . S
C388 C404 1.349 . S
C389 C387 1.327 . S
C389 C408 1.429 . S
C389 H413 0.950 . S
C390 C407 1.574 . S
C390 C409 1.368 . S
C390 H414 0.949 . S
H391 C395 0.949 . S
C392 C393 1.349 . S
C392 C394 1.327 . S
C392 H415 0.950 . S
C393 C392 1.349 . S
C393 C405 1.349 . S
C394 C392 1.327 . S
C394 C410 1.429 . S
C394 H416 0.950 . S
C395 H391 0.949 . S
C395 C403 1.574 . S
C395 C411 1.368 . S
H396 C404 0.950 . S
H397 C402 0.950 . S
H398 C403 0.949 . S
H399 C405 0.950 . S
H400 C406 0.950 . S
H401 C407 0.949 . S
C402 H397 0.950 . S
C402 C404 1.327 . S
C402 C408 1.429 . S
C403 C395 1.574 . S
C403 H398 0.949 . S
C403 C409 1.368 . S
C404 C388 1.349 . S
C404 H396 0.950 . S
C404 C402 1.327 . S
C405 C393 1.349 . S
C405 H399 0.950 . S
C405 C406 1.327 . S
C406 H400 0.950 . S
C406 C405 1.327 . S
C406 C410 1.429 . S
C407 C390 1.574 . S
C407 H401 0.949 . S
C407 C411 1.368 . S
C408 C389 1.429 . S
C408 C402 1.429 . S
C408 C409 1.523 . S
C409 C390 1.368 . S
C409 C403 1.368 . S
C409 C408 1.523 . S
C410 C394 1.429 . S
C410 C406 1.429 . S
C410 C411 1.523 . S
C411 C395 1.368 . S
C411 C407 1.368 . S
C411 C410 1.523 . S
H412 C387 0.950 . S
H413 C389 0.950 . S
H414 C390 0.949 . S
H415 C392 0.950 . S
H416 C394 0.950 . S
C417 C418 1.349 . S
C417 C419 1.327 . S
C417 H442 0.950 . S
C418 C417 1.349 . S
C418 C434 1.349 . S
C419 C417 1.327 . S
C419 C438 1.429 . S
C419 H443 0.950 . S
C420 C437 1.574 . S
C420 C439 1.368 . S
C420 H444 0.949 . S
H421 C425 0.949 . S
C422 C423 1.349 . S
C422 C424 1.327 . S
C422 H445 0.950 . S
C423 C422 1.349 . S
C423 C435 1.349 . S
C424 C422 1.327 . S
C424 C440 1.429 . S
C424 H446 0.950 . S
C425 H421 0.949 . S
C425 C433 1.574 . S
C425 C441 1.368 . S
H426 C434 0.950 . S
H427 C432 0.950 . S
H428 C433 0.949 . S
H429 C435 0.950 . S
H430 C436 0.950 . S
H431 C437 0.949 . S
C432 H427 0.950 . S
C432 C434 1.327 . S
C432 C438 1.429 . S
C433 C425 1.574 . S
C433 H428 0.949 . S
C433 C439 1.368 . S
C434 C418 1.349 . S
C434 H426 0.950 . S
C434 C432 1.327 . S
C435 C423 1.349 . S
C435 H429 0.950 . S
C435 C436 1.327 . S
C436 H430 0.950 . S
C436 C435 1.327 . S
C436 C440 1.429 . S
C437 C420 1.574 . S
C437 H431 0.949 . S
C437 C441 1.368 . S
C438 C419 1.429 . S
C438 C432 1.429 . S
C438 C439 1.523 . S
C439 C420 1.368 . S
C439 C433 1.368 . S
C439 C438 1.523 . S
C440 C424 1.429 . S
C440 C436 1.429 . S
C440 C441 1.523 . S
C441 C425 1.368 . S
C441 C437 1.368 . S
C441 C440 1.523 . S
H442 C417 0.950 . S
H443 C419 0.950 . S
H444 C420 0.949 . S
H445 C422 0.950 . S
H446 C424 0.950 . S
C447 C448 1.349 . S
C447 C449 1.327 . S
C447 H472 0.950 . S
C448 C447 1.349 . S
C448 C464 1.349 . S
C449 C447 1.327 . S
C449 C468 1.429 . S
C449 H473 0.950 . S
C450 C467 1.574 . S
C450 C469 1.368 . S
C450 H474 0.949 . S
H451 C455 0.949 . S
C452 C453 1.349 1_545 S
C452 C454 1.327 1_545 S
C452 H475 0.950 . S
C453 C452 1.349 1_565 S
C453 C465 1.349 . S
C454 C452 1.327 1_565 S
C454 C470 1.429 . S
C454 H476 0.950 1_565 S
C455 H451 0.949 . S
C455 C463 1.574 . S
C455 C471 1.368 . S
H456 C464 0.950 . S
H457 C462 0.950 . S
H458 C463 0.949 . S
H459 C465 0.950 . S
H460 C466 0.950 . S
H461 C467 0.949 . S
C462 H457 0.950 . S
C462 C464 1.327 . S
C462 C468 1.429 . S
C463 C455 1.574 . S
C463 H458 0.949 . S
C463 C469 1.368 . S
C464 C448 1.349 . S
C464 H456 0.950 . S
C464 C462 1.327 . S
C465 C453 1.349 . S
C465 H459 0.950 . S
C465 C466 1.327 . S
C466 H460 0.950 . S
C466 C465 1.327 . S
C466 C470 1.429 . S
C467 C450 1.574 . S
C467 H461 0.949 . S
C467 C471 1.368 . S
C468 C449 1.429 . S
C468 C462 1.429 . S
C468 C469 1.523 . S
C469 C450 1.368 . S
C469 C463 1.368 . S
C469 C468 1.523 . S
C470 C454 1.429 . S
C470 C466 1.429 . S
C470 C471 1.523 . S
C471 C455 1.368 . S
C471 C467 1.368 . S
C471 C470 1.523 . S
H472 C447 0.950 . S
H473 C449 0.950 . S
H474 C450 0.949 . S
H475 C452 0.950 . S
H476 C454 0.950 1_545 S
C477 C478 1.349 . S
C477 C479 1.327 . S
C477 H502 0.950 . S
C478 C477 1.349 . S
C478 C494 1.349 . S
C479 C477 1.327 . S
C479 C498 1.429 . S
C479 H503 0.950 . S
C480 C497 1.574 . S
C480 C499 1.368 . S
C480 H504 0.949 . S
H481 C485 0.949 . S
C482 C483 1.349 . S
C482 C484 1.327 . S
C482 H505 0.950 . S
C483 C482 1.349 . S
C483 C495 1.349 . S
C484 C482 1.327 . S
C484 C500 1.429 . S
C484 H506 0.950 . S
C485 H481 0.949 . S
C485 C493 1.574 . S
C485 C501 1.368 . S
H486 C494 0.950 . S
H487 C492 0.950 . S
H488 C493 0.949 . S
H489 C495 0.950 . S
H490 C496 0.950 . S
H491 C497 0.949 . S
C492 H487 0.950 . S
C492 C494 1.327 . S
C492 C498 1.429 . S
C493 C485 1.574 . S
C493 H488 0.949 . S
C493 C499 1.368 . S
C494 C478 1.349 . S
C494 H486 0.950 . S
C494 C492 1.327 . S
C495 C483 1.349 . S
C495 H489 0.950 . S
C495 C496 1.327 . S
C496 H490 0.950 . S
C496 C495 1.327 . S
C496 C500 1.429 . S
C497 C480 1.574 . S
C497 H491 0.949 . S
C497 C501 1.368 . S
C498 C479 1.429 . S
C498 C492 1.429 . S
C498 C499 1.523 . S
C499 C480 1.368 . S
C499 C493 1.368 . S
C499 C498 1.523 . S
C500 C484 1.429 . S
C500 C496 1.429 . S
C500 C501 1.523 . S
C501 C485 1.368 . S
C501 C497 1.368 . S
C501 C500 1.523 . S
H502 C477 0.950 . S
H503 C479 0.950 . S
H504 C480 0.949 . S
H505 C482 0.950 . S
H506 C484 0.950 . S
C507 C508 1.349 . S
C507 C509 1.327 . S
C507 H532 0.950 . S
C508 C507 1.349 . S
C508 C524 1.349 1_455 S
C509 C507 1.327 . S
C509 C528 1.429 1_455 S
C509 H533 0.950 . S
C510 C527 1.574 . S
C510 C529 1.368 . S
C510 H534 0.949 . S
H511 C515 0.949 . S
C512 C513 1.349 . S
C512 C514 1.327 . S
C512 H535 0.950 . S
C513 C512 1.349 . S
C513 C525 1.349 . S
C514 C512 1.327 . S
C514 C530 1.429 . S
C514 H536 0.950 . S
C515 H511 0.949 . S
C515 C523 1.574 . S
C515 C531 1.368 . S
H516 C524 0.950 . S
H517 C522 0.950 . S
H518 C523 0.949 1_455 S
H519 C525 0.950 . S
H520 C526 0.950 . S
H521 C527 0.949 . S
C522 H517 0.950 . S
C522 C524 1.327 . S
C522 C528 1.429 . S
C523 C515 1.574 . S
C523 H518 0.949 1_655 S
C523 C529 1.368 . S
C524 C508 1.349 1_655 S
C524 H516 0.950 . S
C524 C522 1.327 . S
C525 C513 1.349 . S
C525 H519 0.950 . S
C525 C526 1.327 . S
C526 H520 0.950 . S
C526 C525 1.327 . S
C526 C530 1.429 . S
C527 C510 1.574 . S
C527 H521 0.949 . S
C527 C531 1.368 . S
C528 C509 1.429 1_655 S
C528 C522 1.429 . S
C528 C529 1.523 . S
C529 C510 1.368 . S
C529 C523 1.368 . S
C529 C528 1.523 . S
C530 C514 1.429 . S
C530 C526 1.429 . S
C530 C531 1.523 . S
C531 C515 1.368 . S
C531 C527 1.368 . S
C531 C530 1.523 . S
H532 C507 0.950 . S
H533 C509 0.950 . S
H534 C510 0.949 . S
H535 C512 0.950 . S
H536 C514 0.950 . S
C537 C538 1.349 . S
C537 C539 1.327 . S
C537 H562 0.950 . S
C538 C537 1.349 . S
C538 C554 1.349 . S
C539 C537 1.327 . S
C539 C558 1.429 . S
C539 H563 0.950 . S
C540 C557 1.574 . S
C540 C559 1.368 . S
C540 H564 0.949 . S
H541 C545 0.949 . S
C542 C543 1.349 . S
C542 C544 1.327 . S
C542 H565 0.950 . S
C543 C542 1.349 . S
C543 C555 1.349 . S
C544 C542 1.327 . S
C544 C560 1.429 . S
C544 H566 0.950 . S
C545 H541 0.949 . S
C545 C553 1.574 . S
C545 C561 1.368 . S
H546 C554 0.950 . S
H547 C552 0.950 . S
H548 C553 0.949 . S
H549 C555 0.950 . S
H550 C556 0.950 . S
H551 C557 0.949 . S
C552 H547 0.950 . S
C552 C554 1.327 . S
C552 C558 1.429 . S
C553 C545 1.574 . S
C553 H548 0.949 . S
C553 C559 1.368 . S
C554 C538 1.349 . S
C554 H546 0.950 . S
C554 C552 1.327 . S
C555 C543 1.349 . S
C555 H549 0.950 . S
C555 C556 1.327 . S
C556 H550 0.950 . S
C556 C555 1.327 . S
C556 C560 1.429 . S
C557 C540 1.574 . S
C557 H551 0.949 . S
C557 C561 1.368 . S
C558 C539 1.429 . S
C558 C552 1.429 . S
C558 C559 1.523 . S
C559 C540 1.368 . S
C559 C553 1.368 . S
C559 C558 1.523 . S
C560 C544 1.429 . S
C560 C556 1.429 . S
C560 C561 1.523 . S
C561 C545 1.368 . S
C561 C557 1.368 . S
C561 C560 1.523 . S
H562 C537 0.950 . S
H563 C539 0.950 . S
H564 C540 0.949 . S
H565 C542 0.950 . S
H566 C544 0.950 . S
C567 C568 1.349 . S
C567 C569 1.327 . S
C567 H592 0.950 . S
C568 C567 1.349 . S
C568 C584 1.349 . S
C569 C567 1.327 . S
C569 C588 1.429 . S
C569 H593 0.950 . S
C570 C587 1.574 . S
C570 C589 1.368 . S
C570 H594 0.949 . S
H571 C575 0.962 . S
C572 C573 1.349 . S
C572 C574 1.344 . S
C572 H595 0.950 . S
C573 C572 1.349 . S
C573 C585 1.349 . S
C574 C572 1.344 . S
C574 C590 1.433 . S
C574 H596 0.929 1_655 S
C575 H571 0.962 . S
C575 C583 1.564 1_655 S
C575 C591 1.364 1_655 S
H576 C584 0.950 . S
H577 C582 0.950 . S
H578 C583 0.949 . S
H579 C585 0.950 . S
H580 C586 0.950 . S
H581 C587 0.949 . S
C582 H577 0.950 . S
C582 C584 1.327 . S
C582 C588 1.429 . S
C583 C575 1.564 1_455 S
C583 H578 0.949 . S
C583 C589 1.368 . S
C584 C568 1.349 . S
C584 H576 0.950 . S
C584 C582 1.327 . S
C585 C573 1.349 . S
C585 H579 0.950 . S
C585 C586 1.327 . S
C586 H580 0.950 . S
C586 C585 1.327 . S
C586 C590 1.429 . S
C587 C570 1.574 . S
C587 H581 0.949 . S
C587 C591 1.368 . S
C588 C569 1.429 . S
C588 C582 1.429 . S
C588 C589 1.523 . S
C589 C570 1.368 . S
C589 C583 1.368 . S
C589 C588 1.523 . S
C590 C574 1.433 . S
C590 C586 1.429 . S
C590 C591 1.523 1_655 S
C591 C575 1.364 1_455 S
C591 C587 1.368 . S
C591 C590 1.523 1_455 S
H592 C567 0.950 . S
H593 C569 0.950 . S
H594 C570 0.949 . S
H595 C572 0.950 . S
H596 C574 0.929 1_455 S
C597 C598 1.349 . S
C597 C599 1.327 . S
C597 H622 0.950 . S
C598 C597 1.349 . S
C598 C614 1.349 . S
C599 C597 1.327 . S
C599 C618 1.429 . S
C599 H623 0.950 . S
C600 C617 1.574 . S
C600 C619 1.368 . S
C600 H624 0.949 . S
H601 C605 0.949 . S
C602 C603 1.349 . S
C602 C604 1.327 . S
C602 H625 0.950 . S
C603 C602 1.349 . S
C603 C615 1.349 . S
C604 C602 1.327 . S
C604 C620 1.429 . S
C604 H626 0.950 . S
C605 H601 0.949 . S
C605 C613 1.574 . S
C605 C621 1.368 . S
H606 C614 0.950 . S
H607 C612 0.950 . S
H608 C613 0.949 . S
H609 C615 0.950 . S
H610 C616 0.950 . S
H611 C617 0.949 . S
C612 H607 0.950 . S
C612 C614 1.327 . S
C612 C618 1.429 . S
C613 C605 1.574 . S
C613 H608 0.949 . S
C613 C619 1.368 . S
C614 C598 1.349 . S
C614 H606 0.950 . S
C614 C612 1.327 . S
C615 C603 1.349 . S
C615 H609 0.950 . S
C615 C616 1.327 . S
C616 H610 0.950 . S
C616 C615 1.327 . S
C616 C620 1.429 . S
C617 C600 1.574 . S
C617 H611 0.949 . S
C617 C621 1.368 . S
C618 C599 1.429 . S
C618 C612 1.429 . S
C618 C619 1.523 . S
C619 C600 1.368 . S
C619 C613 1.368 . S
C619 C618 1.523 . S
C620 C604 1.429 . S
C620 C616 1.429 . S
C620 C621 1.523 . S
C621 C605 1.368 . S
C621 C617 1.368 . S
C621 C620 1.523 . S
H622 C597 0.950 . S
H623 C599 0.950 . S
H624 C600 0.949 . S
H625 C602 0.950 . S
H626 C604 0.950 . S
C627 C628 1.349 . S
C627 C629 1.327 . S
C627 H652 0.950 . S
C628 C627 1.349 . S
C628 C644 1.349 . S
C629 C627 1.327 . S
C629 C648 1.429 . S
C629 H653 0.950 . S
C630 C647 1.574 1_565 S
C630 C649 1.368 . S
C630 H654 0.949 . S
H631 C635 0.949 . S
C632 C633 1.349 . S
C632 C634 1.327 . S
C632 H655 0.950 . S
C633 C632 1.349 . S
C633 C645 1.349 . S
C634 C632 1.327 . S
C634 C650 1.429 . S
C634 H656 0.950 . S
C635 H631 0.949 . S
C635 C643 1.574 . S
C635 C651 1.368 . S
H636 C644 0.950 . S
H637 C642 0.950 . S
H638 C643 0.949 . S
H639 C645 0.950 . S
H640 C646 0.950 . S
H641 C647 0.949 . S
C642 H637 0.950 . S
C642 C644 1.327 . S
C642 C648 1.429 . S
C643 C635 1.574 . S
C643 H638 0.949 . S
C643 C649 1.368 1_545 S
C644 C628 1.349 . S
C644 H636 0.950 . S
C644 C642 1.327 . S
C645 C633 1.349 . S
C645 H639 0.950 . S
C645 C646 1.327 . S
C646 H640 0.950 . S
C646 C645 1.327 . S
C646 C650 1.429 . S
C647 C630 1.574 1_545 S
C647 H641 0.949 . S
C647 C651 1.368 . S
C648 C629 1.429 . S
C648 C642 1.429 . S
C648 C649 1.523 . S
C649 C630 1.368 . S
C649 C643 1.368 1_565 S
C649 C648 1.523 . S
C650 C634 1.429 . S
C650 C646 1.429 . S
C650 C651 1.523 . S
C651 C635 1.368 . S
C651 C647 1.368 . S
C651 C650 1.523 . S
H652 C627 0.950 . S
H653 C629 0.950 . S
H654 C630 0.949 . S
H655 C632 0.950 . S
H656 C634 0.950 . S
C118 C31 0.783 . S
C123 C10 0.794 . S
C148 C18 0.799 . S
C153 C5 0.799 . S
C178 C23 0.786 . S
C183 C36 0.786 . S
C208 C75 0.767 . S
C213 C49 0.767 . S
C238 C57 0.762 . S
C243 C44 0.762 . S
C268 C62 0.796 . S
C273 C70 0.785 . S
C298 C88 0.776 . S
C303 C109 0.770 . S
C328 C83 0.726 . S
C333 C96 0.726 . S
C358 C101 0.767 . S
C363 C114 0.767 . S
C388 C0 1.242 . S
C393 C91 1.251 . S
C418 C21 1.256 . S
C423 C112 1.254 . S
C448 C86 1.185 . S
C453 C26 1.189 . S
C478 C60 1.188 . S
C483 C34 1.193 . S
C508 C8 1.232 . S
C513 C73 1.238 . S
C538 C39 1.240 . S
C543 C13 1.234 . S
C568 C99 1.212 . S
C573 C65 1.209 . S
C598 C47 1.252 . S
C603 C104 1.251 . S
C628 C78 1.258 . S
C633 C52 1.252 . S
