# Generated by pormake.
# Topology zfa, (5)-cn, num edge types: 1
# Building blocks:
#     Node 0, Type 0, BuildingBlock: XOMCOT_clean_sbu_0, # of connection points: 5
#     Node 1, Type 0, BuildingBlock: XOMCOT_clean_sbu_0, # of connection points: 5
#     Node 2, Type 0, BuildingBlock: XOMCOT_clean_sbu_0, # of connection points: 5
#     Node 3, Type 0, BuildingBlock: XOMCOT_clean_sbu_0, # of connection points: 5
#     Node 4, Type 0, BuildingBlock: XOMCOT_clean_sbu_0, # of connection points: 5
#     Node 5, Type 0, BuildingBlock: XOMCOT_clean_sbu_0, # of connection points: 5
#     Node 6, Type 0, BuildingBlock: XOMCOT_clean_sbu_0, # of connection points: 5
#     Node 7, Type 0, BuildingBlock: XOMCOT_clean_sbu_0, # of connection points: 5
#     Edge 8, Type (0, 0), BuildingBlock: TEMPAE_clean_linker_10, # of connection points: 2
#     Edge 9, Type (0, 0), BuildingBlock: TEMPAE_clean_linker_10, # of connection points: 2
#     Edge 10, Type (0, 0), BuildingBlock: TEMPAE_clean_linker_10, # of connection points: 2
#     Edge 11, Type (0, 0), BuildingBlock: TEMPAE_clean_linker_10, # of connection points: 2
#     Edge 12, Type (0, 0), BuildingBlock: TEMPAE_clean_linker_10, # of connection points: 2
#     Edge 13, Type (0, 0), BuildingBlock: TEMPAE_clean_linker_10, # of connection points: 2
#     Edge 14, Type (0, 0), BuildingBlock: TEMPAE_clean_linker_10, # of connection points: 2
#     Edge 15, Type (0, 0), BuildingBlock: TEMPAE_clean_linker_10, # of connection points: 2
#     Edge 16, Type (0, 0), BuildingBlock: TEMPAE_clean_linker_10, # of connection points: 2
#     Edge 17, Type (0, 0), BuildingBlock: TEMPAE_clean_linker_10, # of connection points: 2
#     Edge 18, Type (0, 0), BuildingBlock: TEMPAE_clean_linker_10, # of connection points: 2
#     Edge 19, Type (0, 0), BuildingBlock: TEMPAE_clean_linker_10, # of connection points: 2
#     Edge 20, Type (0, 0), BuildingBlock: TEMPAE_clean_linker_10, # of connection points: 2
#     Edge 21, Type (0, 0), BuildingBlock: TEMPAE_clean_linker_10, # of connection points: 2
#     Edge 22, Type (0, 0), BuildingBlock: TEMPAE_clean_linker_10, # of connection points: 2
#     Edge 23, Type (0, 0), BuildingBlock: TEMPAE_clean_linker_10, # of connection points: 2
#     Edge 24, Type (0, 0), BuildingBlock: TEMPAE_clean_linker_10, # of connection points: 2
#     Edge 25, Type (0, 0), BuildingBlock: TEMPAE_clean_linker_10, # of connection points: 2
#     Edge 26, Type (0, 0), BuildingBlock: TEMPAE_clean_linker_10, # of connection points: 2
#     Edge 27, Type (0, 0), BuildingBlock: TEMPAE_clean_linker_10, # of connection points: 2
# Relax obj value: 0.204
# Max RMSD: 0.190
# Mean RMSD: 0.190
data_MOF--net-zfa--node1-XOMCOT_clean_sbu_0--edge1-TEMPAE_clean_linker_10
_symmetry_space_group_name_H-M    P1
_symmetry_Int_Tables_number       1
_symmetry_cell_setting            triclinic
loop_
_symmetry_equiv_pos_as_xyz
'x, y, z'
_cell_length_a     31.591458
_cell_length_b     31.568002
_cell_length_c     42.169005
_cell_angle_alpha  89.943835
_cell_angle_beta   90.129775
_cell_angle_gamma 90.10564
loop_
_atom_site_label
_atom_site_type_symbol
_atom_site_fract_x
_atom_site_fract_y
_atom_site_fract_z
_atom_type_partial_charge
Co0 Co 0.13348 0.25944 0.35108 0.0
C1 C 0.09892 0.34613 0.35965 0.0
C2 C 0.16658 0.34765 0.36117 0.0
C3 C 0.15186 0.38842 0.36441 0.0
N4 N 0.13336 0.32074 0.35828 0.0
N5 N 0.10939 0.38722 0.36317 0.0
H6 H 0.06655 0.33533 0.35785 0.0
H7 H 0.19954 0.33922 0.3596 0.0
C8 C 0.18545 0.26171 0.41182 0.0
O9 O 0.21427 0.28552 0.39833 0.0
N10 N 0.13261 0.19926 0.34385 0.0
C11 C 0.14611 0.179 0.31764 0.0
C12 C 0.13168 0.13793 0.31861 0.0
C13 C 0.10982 0.17061 0.36018 0.0
N14 N 0.10849 0.13293 0.34517 0.0
C15 C 0.19948 0.28719 0.30902 0.0
C16 C 0.2612 0.23267 0.33144 0.0
C17 C 0.27131 0.26055 0.30671 0.0
C18 C 0.23983 0.288 0.2954 0.0
C19 C 0.22075 0.23329 0.34462 0.0
N20 N 0.19085 0.2613 0.33415 0.0
H21 H 0.17507 0.30769 0.29965 0.0
H22 H 0.21325 0.21086 0.36317 0.0
H23 H 0.1626 0.19384 0.29811 0.0
H24 H 0.09206 0.17815 0.38135 0.0
O25 O 0.10154 0.26681 0.31191 0.0
O26 O 0.07348 0.25688 0.35943 0.0
O27 O 0.15299 0.24904 0.39631 0.0
C28 C 0.06762 0.26135 0.32906 0.0
H29 H 0.17086 0.4169 0.3661 0.0
H30 H 0.13474 0.11475 0.29985 0.0
H31 H 0.28445 0.21066 0.34066 0.0
H32 H 0.2461 0.3093 0.27581 0.0
Co33 Co 0.26209 0.62956 0.85316 0.0
C34 C 0.16958 0.61432 0.84502 0.0
C35 C 0.18785 0.6165 0.89386 0.0
C36 C 0.14629 0.60426 0.89224 0.0
N37 N 0.20243 0.62452 0.86436 0.0
N38 N 0.13488 0.6025 0.86154 0.0
H39 H 0.1719 0.6119 0.81952 0.0
H40 H 0.20697 0.6151 0.91509 0.0
C41 C 0.25762 0.68056 0.91291 0.0
O42 O 0.22429 0.69994 0.90116 0.0
N43 N 0.32128 0.63211 0.84238 0.0
C44 C 0.33873 0.64795 0.81572 0.0
C45 C 0.3801 0.63442 0.814 0.0
C46 C 0.35188 0.60898 0.85628 0.0
N47 N 0.38797 0.60952 0.83931 0.0
C48 C 0.22774 0.69483 0.81201 0.0
C49 C 0.27949 0.75935 0.83405 0.0
C50 C 0.25146 0.76786 0.80922 0.0
C51 C 0.22541 0.73514 0.79802 0.0
C52 C 0.28124 0.7187 0.84703 0.0
N53 N 0.25496 0.68709 0.83656 0.0
H54 H 0.20875 0.66957 0.80233 0.0
H55 H 0.30496 0.71233 0.86488 0.0
H56 H 0.32174 0.66531 0.79762 0.0
H57 H 0.3468 0.58946 0.87704 0.0
O58 O 0.25225 0.59666 0.81492 0.0
O59 O 0.268 0.56991 0.86206 0.0
O60 O 0.27649 0.6519 0.89689 0.0
C61 C 0.25997 0.56327 0.83222 0.0
H62 H 0.12731 0.59307 0.9119 0.0
H63 H 0.40143 0.63923 0.79425 0.0
H64 H 0.30079 0.78367 0.84274 0.0
H65 H 0.20399 0.74053 0.77835 0.0
Co66 Co 0.8912 0.76462 0.35201 0.0
C67 C 0.91843 0.67446 0.35165 0.0
C68 C 0.87778 0.68819 0.39089 0.0
C69 C 0.89175 0.64722 0.39377 0.0
N70 N 0.89475 0.70555 0.36459 0.0
N71 N 0.91759 0.63855 0.36919 0.0
H72 H 0.93676 0.67832 0.33026 0.0
H73 H 0.8579 0.70435 0.40777 0.0
C74 C 0.84469 0.80873 0.40459 0.0
O75 O 0.8259 0.8329 0.38349 0.0
N76 N 0.88842 0.82403 0.34012 0.0
C77 C 0.86524 0.84402 0.31769 0.0
C78 C 0.87657 0.8861 0.31708 0.0
C79 C 0.91319 0.85445 0.35281 0.0
N80 N 0.90687 0.89251 0.33911 0.0
C81 C 0.82904 0.75117 0.30314 0.0
C82 C 0.75956 0.74252 0.3423 0.0
C83 C 0.7531 0.74472 0.30946 0.0
C84 C 0.78864 0.7478 0.28976 0.0
C85 C 0.80048 0.74649 0.35468 0.0
N86 N 0.83436 0.75369 0.33525 0.0
H87 H 0.85587 0.75446 0.28752 0.0
H88 H 0.80431 0.74406 0.37997 0.0
H89 H 0.84191 0.82992 0.30239 0.0
H90 H 0.93655 0.84842 0.37104 0.0
O91 O 0.92494 0.75414 0.31422 0.0
O92 O 0.9509 0.77147 0.36116 0.0
O93 O 0.86988 0.77942 0.39572 0.0
C94 C 0.95802 0.76311 0.33149 0.0
H95 H 0.88502 0.62638 0.4135 0.0
H96 H 0.86381 0.90995 0.3013 0.0
H97 H 0.73312 0.73906 0.3584 0.0
H98 H 0.7852 0.74821 0.26419 0.0
Co99 Co 0.75862 0.39326 0.85157 0.0
C100 C 0.85131 0.40882 0.84549 0.0
C101 C 0.83104 0.40871 0.89385 0.0
C102 C 0.87253 0.42131 0.89298 0.0
N103 N 0.81777 0.39918 0.86422 0.0
N104 N 0.88522 0.42176 0.86257 0.0
H105 H 0.85 0.41002 0.81989 0.0
H106 H 0.81103 0.41078 0.91451 0.0
C107 C 0.76225 0.34352 0.9116 0.0
O108 O 0.79603 0.32468 0.90023 0.0
N109 N 0.69994 0.38996 0.83902 0.0
C110 C 0.68448 0.37317 0.81201 0.0
C111 C 0.64289 0.38513 0.80877 0.0
C112 C 0.66787 0.41236 0.85157 0.0
N113 N 0.63258 0.41036 0.83343 0.0
C114 C 0.7956 0.32582 0.81348 0.0
C115 C 0.73973 0.26389 0.83382 0.0
C116 C 0.76908 0.25356 0.8103 0.0
C117 C 0.79776 0.28495 0.8004 0.0
C118 C 0.73878 0.3047 0.84627 0.0
N119 N 0.76658 0.33524 0.83635 0.0
H120 H 0.81614 0.35014 0.80427 0.0
H121 H 0.71421 0.31218 0.86312 0.0
H122 H 0.7028 0.35553 0.7949 0.0
H123 H 0.67162 0.43258 0.87209 0.0
O124 O 0.76975 0.42525 0.8131 0.0
O125 O 0.75188 0.45291 0.85947 0.0
O126 O 0.74299 0.37173 0.89527 0.0
C127 C 0.7611 0.45893 0.82978 0.0
H128 H 0.8906 0.43353 0.91283 0.0
H129 H 0.62263 0.37738 0.78889 0.0
H130 H 0.71702 0.24074 0.84225 0.0
H131 H 0.82048 0.27848 0.78184 0.0
Co132 Co 0.63212 0.26283 0.19353 0.0
C133 C 0.61345 0.1706 0.1983 0.0
C134 C 0.61823 0.19186 0.15027 0.0
C135 C 0.60086 0.15218 0.15019 0.0
N136 N 0.6272 0.20367 0.18036 0.0
N137 N 0.597 0.13906 0.18037 0.0
H138 H 0.61036 0.17167 0.22382 0.0
H139 H 0.61848 0.21242 0.12983 0.0
C140 C 0.68381 0.2616 0.13452 0.0
O141 O 0.70314 0.22809 0.14603 0.0
N142 N 0.63384 0.32157 0.20614 0.0
C143 C 0.64849 0.33763 0.23369 0.0
C144 C 0.63368 0.37846 0.23685 0.0
C145 C 0.61009 0.35244 0.19316 0.0
N146 N 0.60912 0.38734 0.21153 0.0
C147 C 0.69954 0.22464 0.23106 0.0
C148 C 0.76078 0.28301 0.21366 0.0
C149 C 0.77148 0.2518 0.23588 0.0
C150 C 0.74035 0.22196 0.24431 0.0
C151 C 0.72001 0.28451 0.20106 0.0
N152 N 0.68985 0.2555 0.20954 0.0
H153 H 0.67552 0.20265 0.23879 0.0
H154 H 0.71236 0.30998 0.18491 0.0
H155 H 0.66573 0.31984 0.25143 0.0
H156 H 0.59098 0.34816 0.17206 0.0
O157 O 0.59991 0.25073 0.23158 0.0
O158 O 0.57244 0.2685 0.18499 0.0
O159 O 0.65438 0.27959 0.15031 0.0
C160 C 0.5663 0.25878 0.2146 0.0
H161 H 0.58788 0.13607 0.12969 0.0
H162 H 0.63732 0.3985 0.2575 0.0
H163 H 0.78369 0.30652 0.20617 0.0
H164 H 0.74701 0.19765 0.26174 0.0
Co165 Co 0.25945 0.12895 0.69535 0.0
C166 C 0.35193 0.11467 0.70002 0.0
C167 C 0.33265 0.1253 0.65203 0.0
C168 C 0.37425 0.11291 0.65205 0.0
N169 N 0.31857 0.1275 0.68221 0.0
N170 N 0.38623 0.10573 0.68221 0.0
H171 H 0.3503 0.10859 0.72523 0.0
H172 H 0.3133 0.12761 0.631 0.0
C173 C 0.25478 0.18476 0.63776 0.0
O174 O 0.28459 0.20858 0.65028 0.0
N175 N 0.20104 0.1281 0.70813 0.0
C176 C 0.18509 0.13969 0.73643 0.0
C177 C 0.1439 0.1256 0.73827 0.0
C178 C 0.16989 0.10676 0.69336 0.0
N179 N 0.13472 0.10454 0.7113 0.0
C180 C 0.2966 0.19656 0.73331 0.0
C181 C 0.23489 0.25581 0.7191 0.0
C182 C 0.26745 0.26724 0.74 0.0
C183 C 0.29879 0.23708 0.74694 0.0
C184 C 0.23399 0.21533 0.70597 0.0
N185 N 0.26485 0.18627 0.71266 0.0
H186 H 0.31987 0.1733 0.73999 0.0
H187 H 0.20799 0.20719 0.69042 0.0
H188 H 0.20299 0.15476 0.7552 0.0
H189 H 0.17392 0.09063 0.67092 0.0
O190 O 0.27299 0.09548 0.73277 0.0
O191 O 0.25521 0.06929 0.68579 0.0
O192 O 0.24165 0.15169 0.65235 0.0
C193 C 0.26507 0.06232 0.71529 0.0
H194 H 0.39277 0.10523 0.63126 0.0
H195 H 0.12355 0.12752 0.75884 0.0
H196 H 0.21013 0.27801 0.71286 0.0
H197 H 0.3241 0.24431 0.76345 0.0
Co198 Co 0.39164 0.75491 0.19583 0.0
C199 C 0.41398 0.84659 0.1989 0.0
C200 C 0.41114 0.8231 0.15137 0.0
C201 C 0.42965 0.86226 0.15076 0.0
N202 N 0.40017 0.81311 0.18143 0.0
N203 N 0.43225 0.87678 0.18066 0.0
H204 H 0.41556 0.84671 0.22452 0.0
H205 H 0.41096 0.80157 0.13151 0.0
C206 C 0.34107 0.75802 0.13622 0.0
O207 O 0.32408 0.79301 0.14723 0.0
N208 N 0.38625 0.69689 0.20981 0.0
C209 C 0.37007 0.68297 0.23744 0.0
C210 C 0.38155 0.64129 0.24154 0.0
C211 C 0.40766 0.66382 0.19771 0.0
N212 N 0.40585 0.62938 0.21675 0.0
C213 C 0.32608 0.797 0.23283 0.0
C214 C 0.26234 0.74123 0.21555 0.0
C215 C 0.25338 0.77225 0.23822 0.0
C216 C 0.28566 0.80097 0.24646 0.0
C217 C 0.3027 0.73847 0.20254 0.0
N218 N 0.33421 0.76601 0.2111 0.0
H219 H 0.35113 0.81777 0.24066 0.0
H220 H 0.30906 0.7127 0.18641 0.0
H221 H 0.35346 0.70246 0.25441 0.0
H222 H 0.42737 0.66644 0.17686 0.0
O223 O 0.42422 0.76683 0.23389 0.0
O224 O 0.45095 0.74514 0.18812 0.0
O225 O 0.36881 0.73811 0.15261 0.0
C226 C 0.45739 0.75581 0.21752 0.0
H227 H 0.44381 0.87715 0.1302 0.0
H228 H 0.3743 0.62219 0.26213 0.0
H229 H 0.23846 0.71854 0.20826 0.0
H230 H 0.28024 0.82514 0.26419 0.0
Co231 Co 0.76032 0.89331 0.69429 0.0
C232 C 0.66769 0.90813 0.69834 0.0
C233 C 0.68876 0.90456 0.65025 0.0
C234 C 0.6472 0.91693 0.65022 0.0
N235 N 0.70161 0.8976 0.68039 0.0
N236 N 0.63406 0.91961 0.68045 0.0
H237 H 0.66851 0.91098 0.72388 0.0
H238 H 0.70902 0.90538 0.6297 0.0
C239 C 0.7621 0.8426 0.63432 0.0
O240 O 0.72977 0.82077 0.64524 0.0
N241 N 0.81843 0.89125 0.70806 0.0
C242 C 0.83318 0.87544 0.73557 0.0
C243 C 0.875 0.88667 0.73865 0.0
C244 C 0.85102 0.91242 0.69505 0.0
N245 N 0.88624 0.91052 0.71333 0.0
C246 C 0.72231 0.8252 0.73117 0.0
C247 C 0.78081 0.76458 0.71336 0.0
C248 C 0.74987 0.75358 0.73558 0.0
C249 C 0.71995 0.78432 0.74423 0.0
C250 C 0.78196 0.80539 0.70091 0.0
N251 N 0.75283 0.83525 0.70954 0.0
H252 H 0.70057 0.84903 0.73934 0.0
H253 H 0.80744 0.81342 0.68494 0.0
H254 H 0.81434 0.85863 0.7529 0.0
H255 H 0.84769 0.93124 0.67377 0.0
O256 O 0.74733 0.92518 0.73248 0.0
O257 O 0.76631 0.95312 0.68641 0.0
O258 O 0.7781 0.87251 0.65096 0.0
C259 C 0.7561 0.95901 0.71592 0.0
H260 H 0.62948 0.92767 0.62973 0.0
H261 H 0.89468 0.87916 0.75887 0.0
H262 H 0.80447 0.74191 0.70588 0.0
H263 H 0.69594 0.77734 0.76178 0.0
C264 C 0.93261 0.56338 0.38138 0.0
C265 C 0.94294 0.60084 0.36511 0.0
C266 C 0.95907 0.52781 0.38026 0.0
C267 C 0.99631 0.5292 0.36175 0.0
C268 C 1.00609 0.56608 0.34412 0.0
C269 C 0.97955 0.60156 0.34624 0.0
C270 C 0.9478 0.48917 0.39968 0.0
C271 C 0.04516 0.56844 0.3236 0.0
C272 C 0.08731 0.45649 0.38382 0.0
C273 C 0.08109 0.42273 0.36285 0.0
C274 C 0.05969 0.49123 0.38389 0.0
C275 C 0.02582 0.49261 0.36182 0.0
C276 C 0.01986 0.45881 0.34023 0.0
C277 C 0.04732 0.42397 0.34128 0.0
C278 C 0.06641 0.52617 0.40782 0.0
C279 C 0.98477 0.45961 0.31585 0.0
H280 H 0.90406 0.56188 0.39545 0.0
H281 H 0.98837 0.63015 0.33373 0.0
H282 H 0.9454 0.46091 0.38418 0.0
H283 H 0.97322 0.48282 0.41726 0.0
H284 H 0.9174 0.49298 0.41255 0.0
H285 H 0.04655 0.59817 0.3095 0.0
H286 H 0.07391 0.56667 0.33868 0.0
H287 H 0.04606 0.54109 0.3071 0.0
H288 H 0.11333 0.45517 0.40057 0.0
H289 H 0.043 0.398 0.3248 0.0
H290 H 0.0376 0.52992 0.42256 0.0
H291 H 0.07185 0.55672 0.39546 0.0
H292 H 0.09378 0.51986 0.42372 0.0
H293 H 0.95359 0.46149 0.32779 0.0
H294 H 0.98499 0.43113 0.30038 0.0
H295 H 0.98791 0.48823 0.30073 0.0
C296 C 0.96093 0.43661 0.86873 0.0
C297 C 0.92336 0.44192 0.85155 0.0
C298 C 0.99622 0.46247 0.86313 0.0
C299 C 0.99383 0.49469 0.83979 0.0
C300 C 0.95709 0.49801 0.82059 0.0
C301 C 0.92216 0.47149 0.82671 0.0
C302 C 0.03479 0.45745 0.88403 0.0
C303 C 0.95339 0.53158 0.79526 0.0
C304 C 0.05873 0.58914 0.86561 0.0
C305 C 0.09718 0.58184 0.85016 0.0
C306 C 0.0236 0.56291 0.86037 0.0
C307 C 0.0271 0.52823 0.83924 0.0
C308 C 0.06483 0.52275 0.82159 0.0
C309 C 0.09955 0.54975 0.82726 0.0
C310 C 0.98393 0.57029 0.87951 0.0
C311 C 0.06976 0.48648 0.79864 0.0
H312 H 0.96185 0.41346 0.88772 0.0
H313 H 0.89302 0.47591 0.81353 0.0
H314 H 0.06396 0.45652 0.86947 0.0
H315 H 0.03741 0.48509 0.90017 0.0
H316 H 0.03334 0.42821 0.89867 0.0
H317 H 0.92703 0.52475 0.77853 0.0
H318 H 0.94727 0.56269 0.80657 0.0
H319 H 0.9833 0.53441 0.78168 0.0
H320 H 0.05699 0.61416 0.88314 0.0
H321 H 0.12941 0.54383 0.81548 0.0
H322 H 0.98041 0.54465 0.89735 0.0
H323 H 0.95557 0.56944 0.86398 0.0
H324 H 0.98466 0.60114 0.89215 0.0
H325 H 0.07507 0.45673 0.81209 0.0
H326 H 0.09707 0.49138 0.78248 0.0
H327 H 0.04062 0.48221 0.78425 0.0
C328 C 0.49667 0.91974 0.17509 0.0
C329 C 0.45832 0.91183 0.19068 0.0
C330 C 0.51984 0.95679 0.18073 0.0
C331 C 0.50448 0.98683 0.20276 0.0
C332 C 0.46758 0.97744 0.22058 0.0
C333 C 0.44481 0.93988 0.21429 0.0
C334 C 0.55909 0.96512 0.16125 0.0
C335 C 0.45068 1.00818 0.24477 0.0
C336 C 0.58325 0.07682 0.21463 0.0
C337 C 0.57038 0.10455 0.19054 0.0
C338 C 0.56007 0.03954 0.221 0.0
C339 C 0.52341 0.03015 0.20278 0.0
C340 C 0.5086 0.06002 0.18032 0.0
C341 C 0.53219 0.09677 0.17458 0.0
C342 C 0.57634 1.00902 0.24568 0.0
C343 C 0.46961 0.05171 0.16044 0.0
H344 H 0.5079 0.8974 0.15754 0.0
H345 H 0.4154 0.93353 0.2266 0.0
H346 H 0.55299 0.99157 0.1445 0.0
H347 H 0.58579 0.97475 0.17677 0.0
H348 H 0.56889 0.93694 0.14734 0.0
H349 H 0.42789 0.99271 0.26115 0.0
H350 H 0.47684 0.0223 0.25885 0.0
H351 H 0.4341 0.03442 0.23243 0.0
H352 H 0.61251 0.08314 0.22723 0.0
H353 H 0.52152 0.11891 0.15662 0.0
H354 H 0.59283 0.98244 0.23378 0.0
H355 H 0.54985 0.99536 0.2596 0.0
H356 H 0.59904 0.02452 0.26217 0.0
H357 H 0.47591 0.02522 0.14382 0.0
H358 H 0.46005 0.07988 0.14635 0.0
H359 H 0.44268 0.04215 0.17568 0.0
C360 C 0.55874 0.93539 0.67301 0.0
C361 C 0.59612 0.94091 0.69041 0.0
C362 C 0.52373 0.96175 0.67783 0.0
C363 C 0.52624 0.99465 0.70058 0.0
C364 C 0.56282 0.99844 0.71987 0.0
C365 C 0.59744 0.97142 0.71456 0.0
C366 C 0.48524 0.9563 0.65689 0.0
C367 C 0.56666 0.03288 0.7445 0.0
C368 C 0.46157 0.08948 0.67515 0.0
C369 C 0.42365 0.08289 0.69155 0.0
C370 C 0.49629 0.06253 0.67954 0.0
C371 C 0.49296 0.02797 0.70085 0.0
C372 C 0.45575 0.02284 0.71913 0.0
C373 C 0.42144 0.05042 0.71426 0.0
C374 C 0.53547 0.06941 0.65971 0.0
C375 C 0.45102 0.9866 0.74223 0.0
H376 H 0.55771 0.91153 0.65456 0.0
H377 H 0.62645 0.97606 0.72786 0.0
H378 H 0.45599 0.95582 0.67138 0.0
H379 H 0.48286 0.98354 0.64033 0.0
H380 H 0.4866 0.92669 0.64271 0.0
H381 H 0.59351 0.02713 0.76101 0.0
H382 H 0.57195 0.06375 0.73253 0.0
H383 H 0.53704 0.03555 0.75843 0.0
H384 H 0.46338 0.11485 0.65787 0.0
H385 H 0.39206 0.0449 0.7268 0.0
H386 H 0.53851 0.0433 0.64225 0.0
H387 H 0.5642 0.06895 0.67487 0.0
H388 H 0.53456 0.09993 0.64658 0.0
H389 H 0.44667 0.9566 0.72891 0.0
H390 H 0.42333 0.9909 0.7581 0.0
H391 H 0.47997 0.98317 0.75694 0.0
C392 C 0.48779 0.26221 0.2083 0.0
C393 C 0.52317 0.25803 0.22821 0.0
C394 C 0.44661 0.2626 0.2207 0.0
C395 C 0.44064 0.25917 0.25386 0.0
C396 C 0.47626 0.25501 0.2741 0.0
C397 C 0.51713 0.25425 0.261 0.0
C398 C 0.40947 0.26667 0.19829 0.0
C399 C 0.47118 0.25168 0.30961 0.0
C400 C 0.33633 0.29846 0.28775 0.0
C401 C 0.31435 0.26038 0.29262 0.0
C402 C 0.3776 0.29855 0.27538 0.0
C403 C 0.39708 0.25964 0.2673 0.0
C404 C 0.37479 0.22115 0.27178 0.0
C405 C 0.33381 0.22198 0.28457 0.0
C406 C 0.40051 0.34022 0.27122 0.0
C407 C 0.39416 0.1791 0.26294 0.0
H408 H 0.49222 0.26511 0.18291 0.0
H409 H 0.54437 0.25124 0.27651 0.0
H410 H 0.3878 0.23925 0.20127 0.0
H411 H 0.39117 0.29564 0.20394 0.0
H412 H 0.41947 0.26828 0.17308 0.0
H413 H 0.50208 0.24914 0.32209 0.0
H414 H 0.4542 0.27989 0.31869 0.0
H415 H 0.45175 0.2235 0.31561 0.0
H416 H 0.32152 0.32816 0.29423 0.0
H417 H 0.31671 0.19252 0.28796 0.0
H418 H 0.40917 0.3448 0.24597 0.0
H419 H 0.4304 0.33999 0.2851 0.0
H420 H 0.38112 0.36763 0.27896 0.0
H421 H 0.40259 0.17904 0.23741 0.0
H422 H 0.37247 0.15207 0.26762 0.0
H423 H 0.42384 0.17408 0.27652 0.0
C424 C 0.29208 1.00657 0.75254 0.0
C425 C 0.26391 0.01899 0.72861 0.0
C426 C 0.29065 0.9653 0.76523 0.0
C427 C 0.25932 0.93636 0.7545 0.0
C428 C 0.23043 0.94917 0.73061 0.0
C429 C 0.23356 0.99005 0.71762 0.0
C430 C 0.3228 0.9526 0.78998 0.0
C431 C 0.1958 0.91993 0.71908 0.0
C432 C 0.27511 0.81769 0.76682 0.0
C433 C 0.25139 0.8103 0.79427 0.0
C434 C 0.27817 0.85859 0.75371 0.0
C435 C 0.25657 0.89275 0.76826 0.0
C436 C 0.23207 0.88512 0.79583 0.0
C437 C 0.2301 0.844 0.80867 0.0
C438 C 0.305 0.86535 0.72456 0.0
C439 C 0.20807 0.92042 0.81183 0.0
H440 H 0.31571 0.0289 0.76091 0.0
H441 H 0.21143 0.99981 0.69934 0.0
H442 H 0.30652 0.94402 0.81237 0.0
H443 H 0.34036 0.92416 0.78194 0.0
H444 H 0.34594 0.97829 0.79501 0.0
H445 H 0.17554 0.93495 0.70069 0.0
H446 H 0.20979 0.89068 0.70905 0.0
H447 H 0.17547 0.91028 0.73927 0.0
H448 H 0.29196 0.79155 0.756 0.0
H449 H 0.21207 0.83814 0.83009 0.0
H450 H 0.33003 0.88914 0.72959 0.0
H451 H 0.28527 0.87809 0.70497 0.0
H452 H 0.32027 0.83565 0.71638 0.0
H453 H 0.23045 0.94525 0.81998 0.0
H454 H 0.18958 0.90905 0.83254 0.0
H455 H 0.18606 0.9355 0.79468 0.0
C456 C 0.53185 0.72973 0.21712 0.0
C457 C 0.50028 0.75412 0.2316 0.0
C458 C 0.57271 0.72718 0.2301 0.0
C459 C 0.58253 0.7502 0.25797 0.0
C460 C 0.55079 0.77504 0.27265 0.0
C461 C 0.50988 0.77639 0.25944 0.0
C462 C 0.60537 0.69978 0.21399 0.0
C463 C 0.56018 0.8005 0.30213 0.0
C464 C 0.67859 0.71685 0.30665 0.0
C465 C 0.70957 0.74534 0.29595 0.0
C466 C 0.63713 0.71801 0.29448 0.0
C467 C 0.62624 0.74876 0.27138 0.0
C468 C 0.65735 0.77774 0.26064 0.0
C469 C 0.69865 0.77551 0.27291 0.0
C470 C 0.60505 0.68617 0.3062 0.0
C471 C 0.64694 0.81128 0.23629 0.0
H472 H 0.52445 0.71211 0.19575 0.0
H473 H 0.48559 0.79538 0.27063 0.0
H474 H 0.63251 0.71954 0.20622 0.0
H475 H 0.61783 0.67594 0.23094 0.0
H476 H 0.59231 0.68294 0.19301 0.0
H477 H 0.53206 0.81821 0.31065 0.0
H478 H 0.57128 0.77926 0.32138 0.0
H479 H 0.58602 0.82345 0.2973 0.0
H480 H 0.68695 0.69331 0.3243 0.0
H481 H 0.72231 0.79801 0.26491 0.0
H482 H 0.59295 0.66711 0.28601 0.0
H483 H 0.57757 0.7028 0.31672 0.0
H484 H 0.61852 0.66433 0.32425 0.0
H485 H 0.63616 0.79613 0.21396 0.0
H486 H 0.67449 0.83198 0.23091 0.0
H487 H 0.62058 0.83136 0.24492 0.0
C488 C 0.72901 0.19261 0.78679 0.0
C489 C 0.76796 0.21076 0.79548 0.0
C490 C 0.72672 0.15164 0.77399 0.0
C491 C 0.7643 0.12796 0.76984 0.0
C492 C 0.80381 0.14619 0.77826 0.0
C493 C 0.8052 0.18749 0.79083 0.0
C494 C 0.68402 0.13372 0.76487 0.0
C495 C 0.84457 0.12189 0.7743 0.0
C496 C 0.75333 1.008 0.76275 0.0
C497 C 0.75665 1.00209 0.72991 0.0
C498 C 0.75619 0.04874 0.77614 0.0
C499 C 0.76212 0.08441 0.75616 0.0
C500 C 0.76499 0.07859 0.72296 0.0
C501 C 0.76239 0.03756 0.71028 0.0
C502 C 0.75314 0.05361 0.81166 0.0
C503 C 0.77077 0.11574 0.70079 0.0
H504 H 0.70016 0.21068 0.78985 0.0
H505 H 0.83532 0.20123 0.79769 0.0
H506 H 0.68373 0.12547 0.7393 0.0
H507 H 0.67785 0.10411 0.77828 0.0
H508 H 0.65781 0.15627 0.76953 0.0
H509 H 0.87263 0.14039 0.78216 0.0
H510 H 0.84317 0.09203 0.78817 0.0
H511 H 0.84888 0.11304 0.74906 0.0
H512 H 0.74913 0.98073 0.77807 0.0
H513 H 0.76495 0.0333 0.68486 0.0
H514 H 0.72584 0.0741 0.81773 0.0
H515 H 0.78204 0.06941 0.82089 0.0
H516 H 0.74929 0.02271 0.82395 0.0
H517 H 0.74418 0.13832 0.7036 0.0
H518 H 0.77231 0.10586 0.67554 0.0
H519 H 0.80031 0.13302 0.70681 0.0
C520 C 0.9892 0.25376 0.33496 0.0
C521 C 0.0244 0.25963 0.31516 0.0
C522 C 0.948 0.25111 0.32249 0.0
C523 C 0.94164 0.25431 0.28933 0.0
C524 C 0.97706 0.26003 0.26917 0.0
C525 C 0.01801 0.26267 0.28232 0.0
C526 C 0.91121 0.24519 0.34488 0.0
C527 C 0.97166 0.26354 0.23369 0.0
C528 C 0.83728 0.21396 0.25464 0.0
C529 C 0.81454 0.25175 0.25059 0.0
C530 C 0.8787 0.21425 0.26712 0.0
C531 C 0.89778 0.25321 0.27594 0.0
C532 C 0.8747 0.29132 0.27237 0.0
C533 C 0.83351 0.29012 0.2598 0.0
C534 C 0.90223 0.17292 0.27058 0.0
C535 C 0.89355 0.33349 0.28183 0.0
H536 H 0.99378 0.2512 0.36037 0.0
H537 H 0.04503 0.26699 0.26684 0.0
H538 H 0.88913 0.27233 0.34274 0.0
H539 H 0.89324 0.21619 0.33849 0.0
H540 H 0.92154 0.24254 0.37001 0.0
H541 H 1.00242 0.26673 0.22119 0.0
H542 H 0.95495 0.23516 0.22446 0.0
H543 H 0.95182 0.29147 0.22789 0.0
H544 H 0.82303 0.18424 0.24739 0.0
H545 H 0.81595 0.3194 0.25733 0.0
H546 H 0.91161 0.16804 0.29568 0.0
H547 H 0.93174 0.17392 0.25638 0.0
H548 H 0.88298 0.14534 0.26276 0.0
H549 H 0.90208 0.33309 0.30736 0.0
H550 H 0.87149 0.36026 0.2775 0.0
H551 H 0.9231 0.33936 0.26834 0.0
C552 C 0.27032 0.48516 0.83835 0.0
C553 C 0.26121 0.51991 0.81872 0.0
C554 C 0.27252 0.44388 0.82607 0.0
C555 C 0.26559 0.43707 0.79329 0.0
C556 C 0.25657 0.47205 0.77329 0.0
C557 C 0.2544 0.51305 0.78626 0.0
C558 C 0.28201 0.40751 0.84824 0.0
C559 C 0.24914 0.46614 0.7382 0.0
C560 C 0.30509 0.33408 0.75657 0.0
C561 C 0.2677 0.31015 0.75475 0.0
C562 C 0.30494 0.37546 0.76902 0.0
C563 C 0.26654 0.39319 0.78013 0.0
C564 C 0.22887 0.36888 0.77884 0.0
C565 C 0.22991 0.32778 0.76617 0.0
C566 C 0.34573 0.40042 0.76989 0.0
C567 C 0.18738 0.38632 0.79082 0.0
H568 H 0.2758 0.49016 0.86345 0.0
H569 H 0.24752 0.53974 0.77092 0.0
H570 H 0.25553 0.38437 0.84778 0.0
H571 H 0.31083 0.39059 0.84029 0.0
H572 H 0.28691 0.41815 0.87309 0.0
H573 H 0.24365 0.49667 0.72574 0.0
H574 H 0.2768 0.45023 0.72731 0.0
H575 H 0.22125 0.44536 0.73433 0.0
H576 H 0.33431 0.32082 0.74756 0.0
H577 H 0.20101 0.30925 0.76533 0.0
H578 H 0.35302 0.41019 0.79457 0.0
H579 H 0.3423 0.42977 0.75563 0.0
H580 H 0.37294 0.38204 0.76055 0.0
H581 H 0.19043 0.39517 0.81618 0.0
H582 H 0.16098 0.36325 0.78835 0.0
H583 H 0.17902 0.41551 0.77755 0.0
C584 C 1.00834 0.76083 0.28548 0.0
C585 C 1.00149 0.76488 0.31819 0.0
C586 C 0.04937 0.76374 0.27268 0.0
C587 C 0.08448 0.77053 0.29308 0.0
C588 C 0.07769 0.77459 0.32612 0.0
C589 C 0.03634 0.77187 0.33823 0.0
C590 C 0.05518 0.75938 0.23731 0.0
C591 C 0.11417 0.78141 0.34874 0.0
C592 C 0.19248 0.73458 0.26388 0.0
C593 C 0.21104 0.77276 0.25384 0.0
C594 C 0.15163 0.73354 0.27692 0.0
C595 C 0.12844 0.77164 0.28001 0.0
C596 C 0.14723 0.81046 0.2705 0.0
C597 C 0.18841 0.81059 0.25767 0.0
C598 C 0.13315 0.69153 0.28714 0.0
C599 C 0.12353 0.85175 0.27334 0.0
H600 H 0.98159 0.75567 0.26981 0.0
H601 H 0.03137 0.77511 0.36353 0.0
H602 H 0.07179 0.78766 0.22781 0.0
H603 H 0.07527 0.73146 0.23212 0.0
H604 H 0.02458 0.75567 0.22457 0.0
H605 H 0.10354 0.78465 0.37372 0.0
H606 H 0.13648 0.75438 0.34726 0.0
H607 H 0.132 0.81036 0.34203 0.0
H608 H 0.21003 0.70528 0.26153 0.0
H609 H 0.20244 0.84014 0.24982 0.0
H610 H 0.10395 0.68475 0.27338 0.0
H611 H 0.1241 0.69282 0.31253 0.0
H612 H 0.15562 0.66489 0.28376 0.0
H613 H 0.09418 0.85039 0.25887 0.0
H614 H 0.14275 0.87928 0.26541 0.0
H615 H 0.11385 0.85699 0.2983 0.0
C616 C 0.78892 0.69294 0.7603 0.0
C617 C 0.75041 0.71072 0.75033 0.0
C618 C 0.79072 0.65191 0.77304 0.0
C619 C 0.75307 0.62785 0.77588 0.0
C620 C 0.71397 0.64571 0.76619 0.0
C621 C 0.71308 0.68704 0.75365 0.0
C622 C 0.83296 0.63431 0.78349 0.0
C623 C 0.67316 0.621 0.76881 0.0
C624 C 0.76471 0.50809 0.78304 0.0
C625 C 0.75999 0.50198 0.81577 0.0
C626 C 0.76202 0.54883 0.76964 0.0
C627 C 0.75473 0.58427 0.7895 0.0
C628 C 0.75019 0.57824 0.82258 0.0
C629 C 0.75275 0.53722 0.83527 0.0
C630 C 0.76694 0.55398 0.73425 0.0
C631 C 0.7428 0.61517 0.84461 0.0
H632 H 0.81781 0.71133 0.7583 0.0
H633 H 0.6833 0.70049 0.74579 0.0
H634 H 0.83186 0.62596 0.80904 0.0
H635 H 0.84003 0.60481 0.77026 0.0
H636 H 0.8593 0.65711 0.77967 0.0
H637 H 0.64546 0.63929 0.7601 0.0
H638 H 0.67552 0.59125 0.75493 0.0
H639 H 0.66748 0.61193 0.79386 0.0
H640 H 0.77012 0.48099 0.76782 0.0
H641 H 0.74906 0.5328 0.86061 0.0
H642 H 0.79453 0.57463 0.72907 0.0
H643 H 0.73854 0.56972 0.72419 0.0
H644 H 0.77148 0.52318 0.72201 0.0
H645 H 0.76944 0.63799 0.84282 0.0
H646 H 0.73968 0.60509 0.86975 0.0
H647 H 0.71359 0.63227 0.83758 0.0
C648 C 0.15811 0.24182 0.46554 0.0
C649 C 0.19229 0.24733 0.4448 0.0
C650 C 0.16485 0.23057 0.49746 0.0
C651 C 0.20664 0.22334 0.50849 0.0
C652 C 0.24105 0.2273 0.48721 0.0
C653 C 0.2335 0.23992 0.45579 0.0
C654 C 0.12746 0.22777 0.51959 0.0
C655 C 0.28596 0.21865 0.49769 0.0
C656 C 0.23816 0.23665 0.5949 0.0
C657 C 0.23895 0.19462 0.60557 0.0
C658 C 0.22566 0.24654 0.56379 0.0
C659 C 0.21494 0.21347 0.54254 0.0
C660 C 0.21501 0.17096 0.55338 0.0
C661 C 0.22645 0.1621 0.58494 0.0
C662 C 0.22488 0.29235 0.55348 0.0
C663 C 0.20488 0.13472 0.53128 0.0
H664 H 0.12623 0.24774 0.45708 0.0
H665 H 0.25994 0.24364 0.43966 0.0
H666 H 0.12647 0.19627 0.53122 0.0
H667 H 0.13083 0.25179 0.53863 0.0
H668 H 0.09691 0.2331 0.50712 0.0
H669 H 0.30869 0.21992 0.47765 0.0
H670 H 0.2958 0.24234 0.51568 0.0
H671 H 0.28802 0.18695 0.50899 0.0
H672 H 0.24741 0.26188 0.61092 0.0
H673 H 0.2273 0.12952 0.5931 0.0
H674 H 0.1941 0.29992 0.54209 0.0
H675 H 0.24998 0.29803 0.53561 0.0
H676 H 0.23 0.31442 0.57364 0.0
H677 H 0.17385 0.13987 0.51957 0.0
H678 H 0.20408 0.10374 0.54379 0.0
H679 H 0.22911 0.13319 0.5123 0.0
C680 C 0.32466 0.7752 0.07999 0.0
C681 C 0.33121 0.74455 0.10353 0.0
C682 C 0.31502 0.76348 0.04872 0.0
C683 C 0.31035 0.72006 0.04105 0.0
C684 C 0.31693 0.68892 0.06481 0.0
C685 C 0.32806 0.70156 0.09572 0.0
C686 C 0.30963 0.79763 1.02393 0.0
C687 C 0.31101 0.6424 0.0578 0.0
C688 C 0.24117 0.69919 0.96892 0.0
C689 C 0.2713 0.68963 0.9457 0.0
C690 C 0.25341 0.70746 1.00033 0.0
C691 C 0.29695 0.70766 1.00844 0.0
C692 C 0.32754 0.6981 0.98499 0.0
C693 C 0.31425 0.68845 0.95397 0.0
C694 C 0.21972 0.71623 0.0248 0.0
C695 C 0.37429 0.69929 0.99241 0.0
H696 H 0.32768 0.80847 0.08596 0.0
H697 H 0.33301 0.67791 0.11401 0.0
H698 H 0.33015 0.79097 1.0032 0.0
H699 H 0.27644 0.79798 1.01533 0.0
H700 H 0.31754 0.82961 0.03322 0.0
H701 H 0.31785 0.62217 0.07876 0.0
H702 H 0.27793 0.63649 0.05005 0.0
H703 H 0.33197 0.63261 0.03808 0.0
H704 H 0.20788 0.6995 0.96262 0.0
H705 H 0.33754 0.68116 0.93594 0.0
H706 H 0.22251 0.74937 0.03328 0.0
H707 H 0.22413 0.69523 0.04567 0.0
H708 H 0.18725 0.71143 1.01526 0.0
H709 H 0.38343 0.73165 1.00013 0.0
H710 H 0.39396 0.69038 0.97167 0.0
H711 H 0.38167 0.67747 1.01229 0.0
C712 C 0.81195 0.85814 0.5896 0.0
C713 C 0.77726 0.83536 0.60152 0.0
C714 C 0.82496 0.8534 0.55798 0.0
C715 C 0.80264 0.82535 0.53776 0.0
C716 C 0.76819 0.80162 0.54982 0.0
C717 C 0.75598 0.80683 0.58156 0.0
C718 C 0.86207 0.87902 0.54604 0.0
C719 C 0.74358 0.77139 0.529 0.0
C720 C 0.8056 0.84428 0.44878 0.0
C721 C 0.83457 0.8135 0.43873 0.0
C722 C 0.79526 0.84871 0.48096 0.0
C723 C 0.81438 0.82177 0.50369 0.0
C724 C 0.84397 0.79091 0.49378 0.0
C725 C 0.85369 0.78712 0.46143 0.0
C726 C 0.76353 0.882 0.49062 0.0
C727 C 0.8651 0.76167 0.51731 0.0
H728 H 0.82872 0.88012 0.60488 0.0
H729 H 0.72917 0.78906 0.59052 0.0
H730 H 0.88619 0.85778 0.53553 0.0
H731 H 0.85139 0.90088 0.52703 0.0
H732 H 0.87723 0.89798 0.56513 0.0
H733 H 0.71849 0.75425 0.54227 0.0
H734 H 0.72856 0.78909 0.50922 0.0
H735 H 0.76525 0.74779 0.51831 0.0
H736 H 0.79073 0.86488 0.43147 0.0
H737 H 0.87622 0.76331 0.45394 0.0
H738 H 0.77794 0.90388 0.50817 0.0
H739 H 0.73595 0.86671 0.50223 0.0
H740 H 0.75199 0.90086 0.47011 0.0
H741 H 0.88196 0.78045 0.53565 0.0
H742 H 0.88809 0.73998 0.50585 0.0
H743 H 0.84085 0.74234 0.52969 0.0
C744 C 0.70274 0.2455 0.07862 0.0
C745 C 0.69306 0.27556 0.10189 0.0
C746 C 0.71133 0.25786 0.04734 0.0
C747 C 0.71172 0.30147 0.03942 0.0
C748 C 0.70203 0.33201 0.06292 0.0
C749 C 0.69206 0.31859 0.09382 0.0
C750 C 0.72021 0.22423 1.0228 0.0
C751 C 0.70341 0.37883 0.05565 0.0
C752 C 0.77946 0.32816 0.96795 0.0
C753 C 0.74887 0.33448 0.94436 0.0
C754 C 0.76766 0.3192 0.99929 0.0
C755 C 0.72423 0.31489 1.00691 0.0
C756 C 0.69315 0.32134 0.98309 0.0
C757 C 0.70588 0.33186 0.95214 0.0
C758 C 0.80172 0.31395 1.02417 0.0
C759 C 0.64663 0.31572 0.99004 0.0
H760 H 0.7029 0.21215 0.08479 0.0
H761 H 0.68466 0.3418 0.11191 0.0
H762 H 0.69934 0.22873 1.00186 0.0
H763 H 0.75337 0.22702 1.01447 0.0
H764 H 0.71533 0.1917 0.03221 0.0
H765 H 0.69445 0.39845 0.07643 0.0
H766 H 0.73582 0.3879 0.0481 0.0
H767 H 0.68175 0.38636 0.03571 0.0
H768 H 0.81272 0.33081 0.96195 0.0
H769 H 0.6823 0.33664 0.93376 0.0
H770 H 0.80216 0.28073 0.03275 0.0
H771 H 0.79494 0.33446 0.0449 0.0
H772 H 0.83367 0.32197 1.01497 0.0
H773 H 0.64051 0.28261 0.99765 0.0
H774 H 0.62646 0.3228 0.96909 0.0
H775 H 0.63698 0.33664 1.00984 0.0
C776 C 0.93764 0.95935 0.31953 0.0
C777 C 0.93152 0.93028 0.34426 0.0
C778 C 0.96528 0.99375 0.32305 0.0
C779 C 0.98748 0.99904 0.35196 0.0
C780 C 0.98018 0.97094 0.37749 0.0
C781 C 0.95211 0.93694 0.37336 0.0
C782 C 0.97205 0.02338 0.29535 0.0
C783 C 1.00314 0.97586 0.40871 0.0
C784 C 0.09147 0.0571 0.34291 0.0
C785 C 0.08007 0.09838 0.35137 0.0
C786 C 0.06207 0.02393 0.34446 0.0
C787 C 0.02023 0.03249 0.35455 0.0
C788 C 1.00907 0.07372 0.36455 0.0
C789 C 0.03922 0.10624 0.36288 0.0
C790 C 0.07521 0.9802 0.33385 0.0
C791 C 0.96468 0.08406 0.37524 0.0
H792 H 0.92222 0.9543 0.2969 0.0
H793 H 0.94683 0.91514 0.3928 0.0
H794 H 0.96744 0.05672 0.30287 0.0
H795 H 1.00507 0.02047 0.28672 0.0
H796 H 0.95019 0.01656 0.27532 0.0
H797 H 0.9916 0.95319 0.42693 0.0
H798 H 0.03752 0.97055 0.40516 0.0
H799 H 0.99933 1.00856 0.41787 0.0
H800 H 0.12317 0.0511 0.33425 0.0
H801 H 0.03008 0.13827 0.36896 0.0
H802 H 0.05794 0.97164 0.31182 0.0
H803 H 0.06677 0.95635 0.35213 0.0
H804 H 0.10973 0.97814 0.32915 0.0
H805 H 0.9428 0.08234 0.35466 0.0
H806 H 0.9625 0.11627 0.3857 0.0
H807 H 0.95359 0.06061 0.393 0.0
C808 C 0.4642 0.59479 0.83608 0.0
C809 C 0.42305 0.58104 0.84274 0.0
C810 C 0.49831 0.56641 0.83693 0.0
C811 C 0.49071 0.52315 0.84392 0.0
C812 C 0.44921 0.50924 0.85108 0.0
C813 C 0.4159 0.53848 0.85063 0.0
C814 C 0.54226 0.58248 0.82954 0.0
C815 C 0.43967 0.46322 0.85789 0.0
C816 C 0.56983 0.44543 0.81011 0.0
C817 C 0.59502 0.43603 0.83668 0.0
C818 C 0.53522 0.47294 0.81236 0.0
C819 C 0.52578 0.49205 0.84182 0.0
C820 C 0.55035 0.48216 0.8689 0.0
C821 C 0.58446 0.45401 0.86606 0.0
C822 C 0.50936 0.48232 0.783 0.0
C823 C 0.54118 0.50206 0.90069 0.0
H824 H 0.46949 0.62774 0.83001 0.0
H825 H 0.38388 0.5277 0.85513 0.0
H826 H 0.56457 0.57318 0.84867 0.0
H827 H 0.55373 0.56788 0.80725 0.0
H828 H 0.54322 0.61747 0.82682 0.0
H829 H 0.40608 0.45803 0.86463 0.0
H830 H 0.44657 0.4439 0.83655 0.0
H831 H 0.46027 0.45141 0.87729 0.0
H832 H 0.57772 0.43237 0.78718 0.0
H833 H 0.60311 0.44645 0.88686 0.0
H834 H 0.51248 0.5163 0.77668 0.0
H835 H 0.47534 0.4761 0.78759 0.0
H836 H 0.51939 0.46302 0.76233 0.0
H837 H 0.54449 0.53699 0.89894 0.0
H838 H 0.56278 0.4904 0.9196 0.0
H839 H 0.50807 0.4953 0.90782 0.0
C840 C 0.4501 0.58056 0.18506 0.0
C841 C 0.43136 0.59152 0.2141 0.0
C842 C 0.47869 0.54671 0.18288 0.0
C843 C 0.48813 0.52254 0.21024 0.0
C844 C 0.468 0.53208 0.23928 0.0
C845 C 0.44017 0.56656 0.24093 0.0
C846 C 0.49967 0.53754 0.15149 0.0
C847 C 0.47673 0.50651 0.26889 0.0
C848 C 0.53724 0.41365 0.20107 0.0
C849 C 0.57956 0.42171 0.20913 0.0
C850 C 0.50713 0.44622 0.20107 0.0
C851 C 0.51992 0.48795 0.20879 0.0
C852 C 0.56288 0.49642 0.21622 0.0
C853 C 0.59213 0.463 0.21668 0.0
C854 C 0.46147 0.4357 0.19381 0.0
C855 C 0.57781 0.54065 0.22415 0.0
H856 H 0.44297 0.59878 0.16398 0.0
H857 H 0.42642 0.57451 0.2636 0.0
H858 H 0.53446 0.54145 0.15385 0.0
H859 H 0.49368 0.50424 0.1444 0.0
H860 H 0.48826 0.55877 0.13227 0.0
H861 H 0.4564 0.51622 0.28907 0.0
H862 H 0.47145 0.47232 0.26422 0.0
H863 H 0.51034 0.51041 0.276 0.0
H864 H 0.5274 0.38148 0.1959 0.0
H865 H 0.62489 0.46898 0.22293 0.0
H866 H 0.44977 0.45565 0.17399 0.0
H867 H 0.44155 0.44278 0.21478 0.0
H868 H 0.457 0.40185 0.1874 0.0
H869 H 0.56893 0.56287 0.20484 0.0
H870 H 0.61262 0.54225 0.22774 0.0
H871 H 0.56206 0.55181 0.24608 0.0
C872 C 0.05876 0.08967 0.71656 0.0
C873 C 0.09895 0.07729 0.70631 0.0
C874 C 0.02429 0.06178 0.71463 0.0
C875 C 0.03056 0.02036 0.70266 0.0
C876 C 0.07088 1.0081 0.69144 0.0
C877 C 0.10461 0.03686 0.69329 0.0
C878 C 0.98153 0.07613 0.72638 0.0
C879 C 0.07906 0.96399 0.67909 0.0
C880 C 0.95413 0.93841 0.73436 0.0
C881 C 0.92485 0.93469 0.70934 0.0
C882 C 0.98946 0.96505 0.73198 0.0
C883 C 0.9956 0.98907 0.70408 0.0
C884 C 0.96742 0.98445 0.67825 0.0
C885 C 0.93269 0.95697 0.68104 0.0
C886 C 0.0195 0.96853 0.75981 0.0
C887 C 0.97323 1.00952 0.64804 0.0
H888 H 0.05455 0.12104 0.72646 0.0
H889 H 0.13588 0.027 0.68589 0.0
H890 H 0.95698 0.07027 0.70805 0.0
H891 H 0.97258 0.05758 0.74771 0.0
H892 H 0.98126 0.11031 0.73264 0.0
H893 H 0.11 0.96171 0.66674 0.0
H894 H 0.07919 0.94135 0.69924 0.0
H895 H 0.05368 0.95391 0.66251 0.0
H896 H 0.94918 0.92156 0.75633 0.0
H897 H 0.91142 0.95375 0.66109 0.0
H898 H 0.01805 1.00096 0.76987 0.0
H899 H 0.05254 0.96312 0.75194 0.0
H900 H 0.01195 0.9455 0.77892 0.0
H901 H 0.97043 0.04386 0.6532 0.0
H902 H 0.94951 1.00101 0.62962 0.0
H903 H 1.00537 1.00419 0.6383 0.0
loop_
_geom_bond_atom_site_label_1
_geom_bond_atom_site_label_2
_geom_bond_distance
_geom_bond_site_symmetry_2
_ccdc_geom_bond_type
Co0 N4 2.148 . S
Co0 N10 2.128 . S
Co0 N20 2.194 . S
Co0 O25 2.351 . S
Co0 O26 2.155 1_455 S
Co0 O27 2.096 . S
C1 N4 1.301 . S
C1 N5 1.328 . S
C1 H6 0.930 . S
C2 C3 1.333 . S
C2 N4 1.317 . S
C2 H7 0.930 . S
C3 C2 1.333 . S
C3 N5 1.350 . S
C3 H29 0.931 . S
N4 Co0 2.148 . S
N4 C1 1.301 . S
N4 C2 1.317 . S
N5 C1 1.328 . S
N5 C3 1.350 . S
H6 C1 0.930 . S
H7 C2 0.930 . S
C8 O9 1.224 . S
C8 O27 1.247 . S
O9 C8 1.224 . S
N10 Co0 2.128 . S
N10 C11 1.355 . S
N10 C13 1.311 . S
C11 N10 1.355 . S
C11 C12 1.363 . S
C11 H23 0.929 . S
C12 C11 1.363 . S
C12 N14 1.375 . S
C12 H30 0.931 . S
C13 N10 1.311 . S
C13 N14 1.347 . S
C13 H24 0.929 . S
N14 C12 1.375 . S
N14 C13 1.347 . S
C15 C18 1.365 . S
C15 N20 1.328 . S
C15 H21 0.929 . S
C16 C17 1.362 . S
C16 C19 1.378 . S
C16 H31 0.929 . S
C17 C16 1.362 . S
C17 C18 1.366 . S
C18 C15 1.365 . S
C18 C17 1.366 . S
C18 H32 0.930 . S
C19 C16 1.378 . S
C19 N20 1.315 . S
C19 H22 0.930 . S
N20 Co0 2.194 . S
N20 C15 1.328 . S
N20 C19 1.315 . S
H21 C15 0.929 . S
H22 C19 0.930 . S
H23 C11 0.929 . S
H24 C13 0.929 . S
O25 Co0 2.351 . S
O25 C28 1.244 1_455 S
O26 Co0 2.155 1_655 S
O26 C28 1.240 . S
O27 Co0 2.096 . S
O27 C8 1.247 . S
C28 O25 1.244 1_655 S
C28 O26 1.240 . S
H29 C3 0.931 . S
H30 C12 0.931 . S
H31 C16 0.929 . S
H32 C18 0.930 . S
Co33 N37 2.148 . S
Co33 N43 2.128 . S
Co33 N53 2.194 . S
Co33 O58 2.351 . S
Co33 O59 2.155 . S
Co33 O60 2.096 . S
C34 N37 1.301 . S
C34 N38 1.328 . S
C34 H39 0.930 . S
C35 C36 1.333 . S
C35 N37 1.317 . S
C35 H40 0.930 . S
C36 C35 1.333 . S
C36 N38 1.350 . S
C36 H62 0.931 . S
N37 Co33 2.148 . S
N37 C34 1.301 . S
N37 C35 1.317 . S
N38 C34 1.328 . S
N38 C36 1.350 . S
H39 C34 0.930 . S
H40 C35 0.930 . S
C41 O42 1.224 . S
C41 O60 1.247 . S
O42 C41 1.224 . S
N43 Co33 2.128 . S
N43 C44 1.355 . S
N43 C46 1.311 . S
C44 N43 1.355 . S
C44 C45 1.363 . S
C44 H56 0.929 . S
C45 C44 1.363 . S
C45 N47 1.375 . S
C45 H63 0.931 . S
C46 N43 1.311 . S
C46 N47 1.347 . S
C46 H57 0.929 . S
N47 C45 1.375 . S
N47 C46 1.347 . S
C48 C51 1.365 . S
C48 N53 1.328 . S
C48 H54 0.929 . S
C49 C50 1.362 . S
C49 C52 1.378 . S
C49 H64 0.929 . S
C50 C49 1.362 . S
C50 C51 1.366 . S
C51 C48 1.365 . S
C51 C50 1.366 . S
C51 H65 0.930 . S
C52 C49 1.378 . S
C52 N53 1.315 . S
C52 H55 0.930 . S
N53 Co33 2.194 . S
N53 C48 1.328 . S
N53 C52 1.315 . S
H54 C48 0.929 . S
H55 C52 0.930 . S
H56 C44 0.929 . S
H57 C46 0.929 . S
O58 Co33 2.351 . S
O58 C61 1.244 . S
O59 Co33 2.155 . S
O59 C61 1.240 . S
O60 Co33 2.096 . S
O60 C41 1.247 . S
C61 O58 1.244 . S
C61 O59 1.240 . S
H62 C36 0.931 . S
H63 C45 0.931 . S
H64 C49 0.929 . S
H65 C51 0.930 . S
Co66 N70 2.148 . S
Co66 N76 2.128 . S
Co66 N86 2.194 . S
Co66 O91 2.351 . S
Co66 O92 2.155 1_655 S
Co66 O93 2.096 . S
C67 N70 1.301 . S
C67 N71 1.328 . S
C67 H72 0.930 . S
C68 C69 1.333 . S
C68 N70 1.317 . S
C68 H73 0.930 . S
C69 C68 1.333 . S
C69 N71 1.350 . S
C69 H95 0.931 . S
N70 Co66 2.148 . S
N70 C67 1.301 . S
N70 C68 1.317 . S
N71 C67 1.328 . S
N71 C69 1.350 . S
H72 C67 0.930 . S
H73 C68 0.930 . S
C74 O75 1.224 . S
C74 O93 1.247 . S
O75 C74 1.224 . S
N76 Co66 2.128 . S
N76 C77 1.355 . S
N76 C79 1.311 . S
C77 N76 1.355 . S
C77 C78 1.363 . S
C77 H89 0.929 . S
C78 C77 1.363 . S
C78 N80 1.375 . S
C78 H96 0.931 . S
C79 N76 1.311 . S
C79 N80 1.347 . S
C79 H90 0.929 . S
N80 C78 1.375 . S
N80 C79 1.347 . S
C81 C84 1.365 . S
C81 N86 1.328 . S
C81 H87 0.929 . S
C82 C83 1.362 . S
C82 C85 1.378 . S
C82 H97 0.929 . S
C83 C82 1.362 . S
C83 C84 1.366 . S
C84 C81 1.365 . S
C84 C83 1.366 . S
C84 H98 0.930 . S
C85 C82 1.378 . S
C85 N86 1.315 . S
C85 H88 0.930 . S
N86 Co66 2.194 . S
N86 C81 1.328 . S
N86 C85 1.315 . S
H87 C81 0.929 . S
H88 C85 0.930 . S
H89 C77 0.929 . S
H90 C79 0.929 . S
O91 Co66 2.351 . S
O91 C94 1.244 1_655 S
O92 Co66 2.155 1_455 S
O92 C94 1.240 . S
O93 Co66 2.096 . S
O93 C74 1.247 . S
C94 O91 1.244 1_455 S
C94 O92 1.240 . S
H95 C69 0.931 . S
H96 C78 0.931 . S
H97 C82 0.929 . S
H98 C84 0.930 . S
Co99 N103 2.148 . S
Co99 N109 2.128 . S
Co99 N119 2.194 . S
Co99 O124 2.351 . S
Co99 O125 2.155 . S
Co99 O126 2.096 . S
C100 N103 1.301 . S
C100 N104 1.328 . S
C100 H105 0.930 . S
C101 C102 1.333 . S
C101 N103 1.317 . S
C101 H106 0.930 . S
C102 C101 1.333 . S
C102 N104 1.350 . S
C102 H128 0.931 . S
N103 Co99 2.148 . S
N103 C100 1.301 . S
N103 C101 1.317 . S
N104 C100 1.328 . S
N104 C102 1.350 . S
H105 C100 0.930 . S
H106 C101 0.930 . S
C107 O108 1.224 . S
C107 O126 1.247 . S
O108 C107 1.224 . S
N109 Co99 2.128 . S
N109 C110 1.355 . S
N109 C112 1.311 . S
C110 N109 1.355 . S
C110 C111 1.363 . S
C110 H122 0.929 . S
C111 C110 1.363 . S
C111 N113 1.375 . S
C111 H129 0.931 . S
C112 N109 1.311 . S
C112 N113 1.347 . S
C112 H123 0.929 . S
N113 C111 1.375 . S
N113 C112 1.347 . S
C114 C117 1.365 . S
C114 N119 1.328 . S
C114 H120 0.929 . S
C115 C116 1.362 . S
C115 C118 1.378 . S
C115 H130 0.929 . S
C116 C115 1.362 . S
C116 C117 1.366 . S
C117 C114 1.365 . S
C117 C116 1.366 . S
C117 H131 0.930 . S
C118 C115 1.378 . S
C118 N119 1.315 . S
C118 H121 0.930 . S
N119 Co99 2.194 . S
N119 C114 1.328 . S
N119 C118 1.315 . S
H120 C114 0.929 . S
H121 C118 0.930 . S
H122 C110 0.929 . S
H123 C112 0.929 . S
O124 Co99 2.351 . S
O124 C127 1.244 . S
O125 Co99 2.155 . S
O125 C127 1.240 . S
O126 Co99 2.096 . S
O126 C107 1.247 . S
C127 O124 1.244 . S
C127 O125 1.240 . S
H128 C102 0.931 . S
H129 C111 0.931 . S
H130 C115 0.929 . S
H131 C117 0.930 . S
Co132 N136 2.148 . S
Co132 N142 2.128 . S
Co132 N152 2.194 . S
Co132 O157 2.351 . S
Co132 O158 2.155 . S
Co132 O159 2.096 . S
C133 N136 1.301 . S
C133 N137 1.328 . S
C133 H138 0.930 . S
C134 C135 1.333 . S
C134 N136 1.317 . S
C134 H139 0.930 . S
C135 C134 1.333 . S
C135 N137 1.350 . S
C135 H161 0.931 . S
N136 Co132 2.148 . S
N136 C133 1.301 . S
N136 C134 1.317 . S
N137 C133 1.328 . S
N137 C135 1.350 . S
H138 C133 0.930 . S
H139 C134 0.930 . S
C140 O141 1.224 . S
C140 O159 1.247 . S
O141 C140 1.224 . S
N142 Co132 2.128 . S
N142 C143 1.355 . S
N142 C145 1.311 . S
C143 N142 1.355 . S
C143 C144 1.363 . S
C143 H155 0.929 . S
C144 C143 1.363 . S
C144 N146 1.375 . S
C144 H162 0.931 . S
C145 N142 1.311 . S
C145 N146 1.347 . S
C145 H156 0.929 . S
N146 C144 1.375 . S
N146 C145 1.347 . S
C147 C150 1.365 . S
C147 N152 1.328 . S
C147 H153 0.929 . S
C148 C149 1.362 . S
C148 C151 1.378 . S
C148 H163 0.929 . S
C149 C148 1.362 . S
C149 C150 1.366 . S
C150 C147 1.365 . S
C150 C149 1.366 . S
C150 H164 0.930 . S
C151 C148 1.378 . S
C151 N152 1.315 . S
C151 H154 0.930 . S
N152 Co132 2.194 . S
N152 C147 1.328 . S
N152 C151 1.315 . S
H153 C147 0.929 . S
H154 C151 0.930 . S
H155 C143 0.929 . S
H156 C145 0.929 . S
O157 Co132 2.351 . S
O157 C160 1.244 . S
O158 Co132 2.155 . S
O158 C160 1.240 . S
O159 Co132 2.096 . S
O159 C140 1.247 . S
C160 O157 1.244 . S
C160 O158 1.240 . S
H161 C135 0.931 . S
H162 C144 0.931 . S
H163 C148 0.929 . S
H164 C150 0.930 . S
Co165 N169 2.148 . S
Co165 N175 2.128 . S
Co165 N185 2.194 . S
Co165 O190 2.351 . S
Co165 O191 2.155 1_545 S
Co165 O192 2.096 . S
C166 N169 1.301 . S
C166 N170 1.328 . S
C166 H171 0.930 . S
C167 C168 1.333 . S
C167 N169 1.317 . S
C167 H172 0.930 . S
C168 C167 1.333 . S
C168 N170 1.350 . S
C168 H194 0.931 . S
N169 Co165 2.148 . S
N169 C166 1.301 . S
N169 C167 1.317 . S
N170 C166 1.328 . S
N170 C168 1.350 . S
H171 C166 0.930 . S
H172 C167 0.930 . S
C173 O174 1.224 . S
C173 O192 1.247 . S
O174 C173 1.224 . S
N175 Co165 2.128 . S
N175 C176 1.355 . S
N175 C178 1.311 . S
C176 N175 1.355 . S
C176 C177 1.363 . S
C176 H188 0.929 . S
C177 C176 1.363 . S
C177 N179 1.375 . S
C177 H195 0.931 . S
C178 N175 1.311 . S
C178 N179 1.347 . S
C178 H189 0.929 . S
N179 C177 1.375 . S
N179 C178 1.347 . S
C180 C183 1.365 . S
C180 N185 1.328 . S
C180 H186 0.929 . S
C181 C182 1.362 . S
C181 C184 1.378 . S
C181 H196 0.929 . S
C182 C181 1.362 . S
C182 C183 1.366 . S
C183 C180 1.365 . S
C183 C182 1.366 . S
C183 H197 0.930 . S
C184 C181 1.378 . S
C184 N185 1.315 . S
C184 H187 0.930 . S
N185 Co165 2.194 . S
N185 C180 1.328 . S
N185 C184 1.315 . S
H186 C180 0.929 . S
H187 C184 0.930 . S
H188 C176 0.929 . S
H189 C178 0.929 . S
O190 Co165 2.351 . S
O190 C193 1.244 1_545 S
O191 Co165 2.155 1_565 S
O191 C193 1.240 . S
O192 Co165 2.096 . S
O192 C173 1.247 . S
C193 O190 1.244 1_565 S
C193 O191 1.240 . S
H194 C168 0.931 . S
H195 C177 0.931 . S
H196 C181 0.929 . S
H197 C183 0.930 . S
Co198 N202 2.148 . S
Co198 N208 2.128 . S
Co198 N218 2.194 . S
Co198 O223 2.351 . S
Co198 O224 2.155 . S
Co198 O225 2.096 . S
C199 N202 1.301 . S
C199 N203 1.328 . S
C199 H204 0.930 . S
C200 C201 1.333 . S
C200 N202 1.317 . S
C200 H205 0.930 . S
C201 C200 1.333 . S
C201 N203 1.350 . S
C201 H227 0.931 . S
N202 Co198 2.148 . S
N202 C199 1.301 . S
N202 C200 1.317 . S
N203 C199 1.328 . S
N203 C201 1.350 . S
H204 C199 0.930 . S
H205 C200 0.930 . S
C206 O207 1.224 . S
C206 O225 1.247 . S
O207 C206 1.224 . S
N208 Co198 2.128 . S
N208 C209 1.355 . S
N208 C211 1.311 . S
C209 N208 1.355 . S
C209 C210 1.363 . S
C209 H221 0.929 . S
C210 C209 1.363 . S
C210 N212 1.375 . S
C210 H228 0.931 . S
C211 N208 1.311 . S
C211 N212 1.347 . S
C211 H222 0.929 . S
N212 C210 1.375 . S
N212 C211 1.347 . S
C213 C216 1.365 . S
C213 N218 1.328 . S
C213 H219 0.929 . S
C214 C215 1.362 . S
C214 C217 1.378 . S
C214 H229 0.929 . S
C215 C214 1.362 . S
C215 C216 1.366 . S
C216 C213 1.365 . S
C216 C215 1.366 . S
C216 H230 0.930 . S
C217 C214 1.378 . S
C217 N218 1.315 . S
C217 H220 0.930 . S
N218 Co198 2.194 . S
N218 C213 1.328 . S
N218 C217 1.315 . S
H219 C213 0.929 . S
H220 C217 0.930 . S
H221 C209 0.929 . S
H222 C211 0.929 . S
O223 Co198 2.351 . S
O223 C226 1.244 . S
O224 Co198 2.155 . S
O224 C226 1.240 . S
O225 Co198 2.096 . S
O225 C206 1.247 . S
C226 O223 1.244 . S
C226 O224 1.240 . S
H227 C201 0.931 . S
H228 C210 0.931 . S
H229 C214 0.929 . S
H230 C216 0.930 . S
Co231 N235 2.148 . S
Co231 N241 2.128 . S
Co231 N251 2.194 . S
Co231 O256 2.351 . S
Co231 O257 2.155 1_565 S
Co231 O258 2.096 . S
C232 N235 1.301 . S
C232 N236 1.328 . S
C232 H237 0.930 . S
C233 C234 1.333 . S
C233 N235 1.317 . S
C233 H238 0.930 . S
C234 C233 1.333 . S
C234 N236 1.350 . S
C234 H260 0.931 . S
N235 Co231 2.148 . S
N235 C232 1.301 . S
N235 C233 1.317 . S
N236 C232 1.328 . S
N236 C234 1.350 . S
H237 C232 0.930 . S
H238 C233 0.930 . S
C239 O240 1.224 . S
C239 O258 1.247 . S
O240 C239 1.224 . S
N241 Co231 2.128 . S
N241 C242 1.355 . S
N241 C244 1.311 . S
C242 N241 1.355 . S
C242 C243 1.363 . S
C242 H254 0.929 . S
C243 C242 1.363 . S
C243 N245 1.375 . S
C243 H261 0.931 . S
C244 N241 1.311 . S
C244 N245 1.347 . S
C244 H255 0.929 . S
N245 C243 1.375 . S
N245 C244 1.347 . S
C246 C249 1.365 . S
C246 N251 1.328 . S
C246 H252 0.929 . S
C247 C248 1.362 . S
C247 C250 1.378 . S
C247 H262 0.929 . S
C248 C247 1.362 . S
C248 C249 1.366 . S
C249 C246 1.365 . S
C249 C248 1.366 . S
C249 H263 0.930 . S
C250 C247 1.378 . S
C250 N251 1.315 . S
C250 H253 0.930 . S
N251 Co231 2.194 . S
N251 C246 1.328 . S
N251 C250 1.315 . S
H252 C246 0.929 . S
H253 C250 0.930 . S
H254 C242 0.929 . S
H255 C244 0.929 . S
O256 Co231 2.351 . S
O256 C259 1.244 1_565 S
O257 Co231 2.155 1_545 S
O257 C259 1.240 . S
O258 Co231 2.096 . S
O258 C239 1.247 . S
C259 O256 1.244 1_545 S
C259 O257 1.240 . S
H260 C234 0.931 . S
H261 C243 0.931 . S
H262 C247 0.929 . S
H263 C249 0.930 . S
C264 C265 1.391 . S
C264 C266 1.394 . S
C264 H280 0.931 . S
C265 C264 1.391 . S
C265 C269 1.376 1_655 S
C266 C264 1.394 . S
C266 C267 1.369 . S
C266 C270 1.531 . S
C267 C266 1.369 . S
C267 C268 1.410 1_655 S
C267 C275 1.503 1_655 S
C268 C267 1.410 1_455 S
C268 C269 1.392 . S
C268 C271 1.511 . S
C269 C265 1.376 1_455 S
C269 C268 1.392 . S
C269 H281 0.929 . S
C270 C266 1.531 . S
C270 H282 0.960 . S
C270 H283 0.962 . S
C270 H284 0.960 . S
C271 C268 1.511 . S
C271 H285 0.961 . S
C271 H286 0.961 . S
C271 H287 0.961 . S
C272 C273 1.370 . S
C272 C274 1.363 . S
C272 H288 0.931 . S
C273 C272 1.370 . S
C273 C277 1.408 . S
C274 C272 1.363 . S
C274 C275 1.370 . S
C274 C278 1.524 1_455 S
C275 C267 1.503 1_455 S
C275 C274 1.370 . S
C275 C276 1.403 . S
C276 C275 1.403 . S
C276 C277 1.404 . S
C276 C279 1.539 . S
C277 C273 1.408 . S
C277 C276 1.404 . S
C277 H289 0.930 . S
C278 C274 1.524 1_655 S
C278 H290 0.956 . S
C278 H291 0.961 1_655 S
C278 H292 0.961 . S
C279 C276 1.539 . S
C279 H293 0.958 . S
C279 H294 0.961 . S
C279 H295 0.960 . S
H280 C264 0.931 . S
H281 C269 0.929 . S
H282 C270 0.960 . S
H283 C270 0.962 . S
H284 C270 0.960 . S
H285 C271 0.961 . S
H286 C271 0.961 . S
H287 C271 0.961 . S
H288 C272 0.931 . S
H289 C277 0.930 . S
H290 C278 0.956 . S
H291 C278 0.961 1_455 S
H292 C278 0.961 . S
H293 C279 0.958 . S
H294 C279 0.961 . S
H295 C279 0.960 . S
C296 C297 1.391 . S
C296 C298 1.394 . S
C296 H312 0.931 . S
C297 C296 1.391 . S
C297 C301 1.376 . S
C298 C296 1.394 . S
C298 C299 1.369 . S
C298 C302 1.531 . S
C299 C298 1.369 . S
C299 C300 1.410 . S
C299 C307 1.503 1_655 S
C300 C299 1.410 . S
C300 C301 1.392 . S
C300 C303 1.511 . S
C301 C297 1.376 . S
C301 C300 1.392 . S
C301 H313 0.929 . S
C302 C298 1.531 . S
C302 H314 0.960 1_655 S
C302 H315 0.962 . S
C302 H316 0.960 . S
C303 C300 1.511 . S
C303 H317 0.961 . S
C303 H318 0.961 1_655 S
C303 H319 0.952 1_655 S
C304 C305 1.370 . S
C304 C306 1.363 . S
C304 H320 0.931 . S
C305 C304 1.370 . S
C305 C309 1.408 . S
C306 C304 1.363 . S
C306 C307 1.370 . S
C306 C310 1.524 1_455 S
C307 C299 1.503 1_455 S
C307 C306 1.370 . S
C307 C308 1.403 . S
C308 C307 1.403 . S
C308 C309 1.404 . S
C308 C311 1.539 . S
C309 C305 1.408 . S
C309 C308 1.404 . S
C309 H321 0.930 . S
C310 C306 1.524 1_655 S
C310 H322 0.956 . S
C310 H323 0.961 . S
C310 H324 0.961 1_655 S
C311 C308 1.539 . S
C311 H325 0.958 . S
C311 H326 0.961 . S
C311 H327 0.960 . S
H312 C296 0.931 . S
H313 C301 0.929 . S
H314 C302 0.960 1_455 S
H315 C302 0.962 . S
H316 C302 0.960 . S
H317 C303 0.961 . S
H318 C303 0.961 1_455 S
H319 C303 0.952 1_455 S
H320 C304 0.931 . S
H321 C309 0.930 . S
H322 C310 0.956 . S
H323 C310 0.961 . S
H324 C310 0.961 1_455 S
H325 C311 0.958 . S
H326 C311 0.961 . S
H327 C311 0.960 . S
C328 C329 1.391 . S
C328 C330 1.394 . S
C328 H344 0.931 . S
C329 C328 1.391 . S
C329 C333 1.376 . S
C330 C328 1.394 . S
C330 C331 1.369 . S
C330 C334 1.531 . S
C331 C330 1.369 . S
C331 C332 1.410 . S
C331 C339 1.503 1_565 S
C332 C331 1.410 . S
C332 C333 1.392 . S
C332 C335 1.511 . S
C333 C329 1.376 . S
C333 C332 1.392 . S
C333 H345 0.929 . S
C334 C330 1.531 . S
C334 H346 0.960 . S
C334 H347 0.962 . S
C334 H348 0.960 . S
C335 C332 1.511 . S
C335 H349 0.961 . S
C335 H350 0.961 1_565 S
C335 H351 0.961 1_565 S
C336 C337 1.370 . S
C336 C338 1.363 . S
C336 H352 0.931 . S
C337 C336 1.370 . S
C337 C341 1.408 . S
C338 C336 1.363 . S
C338 C339 1.370 . S
C338 C342 1.524 1_545 S
C339 C331 1.503 1_545 S
C339 C338 1.370 . S
C339 C340 1.403 . S
C340 C339 1.403 . S
C340 C341 1.404 . S
C340 C343 1.539 . S
C341 C337 1.408 . S
C341 C340 1.404 . S
C341 H353 0.930 . S
C342 C338 1.524 1_565 S
C342 H354 0.956 . S
C342 H355 0.961 . S
C342 H356 0.961 1_565 S
C343 C340 1.539 . S
C343 H357 0.958 . S
C343 H358 0.961 . S
C343 H359 0.960 . S
H344 C328 0.931 . S
H345 C333 0.929 . S
H346 C334 0.960 . S
H347 C334 0.962 . S
H348 C334 0.960 . S
H349 C335 0.961 . S
H350 C335 0.961 1_545 S
H351 C335 0.961 1_545 S
H352 C336 0.931 . S
H353 C341 0.930 . S
H354 C342 0.956 . S
H355 C342 0.961 . S
H356 C342 0.961 1_545 S
H357 C343 0.958 . S
H358 C343 0.961 . S
H359 C343 0.960 . S
C360 C361 1.391 . S
C360 C362 1.394 . S
C360 H376 0.931 . S
C361 C360 1.391 . S
C361 C365 1.376 . S
C362 C360 1.394 . S
C362 C363 1.369 . S
C362 C366 1.531 . S
C363 C362 1.369 . S
C363 C364 1.410 1_565 S
C363 C371 1.503 1_565 S
C364 C363 1.410 1_545 S
C364 C365 1.392 1_545 S
C364 C367 1.511 . S
C365 C361 1.376 . S
C365 C364 1.392 1_565 S
C365 H377 0.929 1_565 S
C366 C362 1.531 . S
C366 H378 0.960 . S
C366 H379 0.962 . S
C366 H380 0.960 . S
C367 C364 1.511 . S
C367 H381 0.961 . S
C367 H382 0.961 . S
C367 H383 0.961 . S
C368 C369 1.370 . S
C368 C370 1.363 . S
C368 H384 0.931 . S
C369 C368 1.370 . S
C369 C373 1.408 . S
C370 C368 1.363 . S
C370 C371 1.370 . S
C370 C374 1.524 . S
C371 C363 1.503 1_545 S
C371 C370 1.370 . S
C371 C372 1.403 1_545 S
C372 C371 1.403 1_565 S
C372 C373 1.404 1_565 S
C372 C375 1.539 . S
C373 C369 1.408 . S
C373 C372 1.404 1_545 S
C373 H385 0.930 1_545 S
C374 C370 1.524 . S
C374 H386 0.956 . S
C374 H387 0.961 . S
C374 H388 0.961 . S
C375 C372 1.539 . S
C375 H389 0.958 . S
C375 H390 0.961 . S
C375 H391 0.960 . S
H376 C360 0.931 . S
H377 C365 0.929 1_545 S
H378 C366 0.960 . S
H379 C366 0.962 . S
H380 C366 0.960 . S
H381 C367 0.961 . S
H382 C367 0.961 . S
H383 C367 0.961 . S
H384 C368 0.931 . S
H385 C373 0.930 1_565 S
H386 C374 0.956 . S
H387 C374 0.961 . S
H388 C374 0.961 . S
H389 C375 0.958 . S
H390 C375 0.961 . S
H391 C375 0.960 . S
C392 C393 1.391 . S
C392 C394 1.394 . S
C392 H408 0.931 . S
C393 C392 1.391 . S
C393 C397 1.376 . S
C394 C392 1.394 . S
C394 C395 1.369 . S
C394 C398 1.531 . S
C395 C394 1.369 . S
C395 C396 1.410 . S
C395 C403 1.503 . S
C396 C395 1.410 . S
C396 C397 1.392 . S
C396 C399 1.511 . S
C397 C393 1.376 . S
C397 C396 1.392 . S
C397 H409 0.929 . S
C398 C394 1.531 . S
C398 H410 0.960 . S
C398 H411 0.962 . S
C398 H412 0.960 . S
C399 C396 1.511 . S
C399 H413 0.961 . S
C399 H414 0.961 . S
C399 H415 0.961 . S
C400 C401 1.370 . S
C400 C402 1.363 . S
C400 H416 0.931 . S
C401 C400 1.370 . S
C401 C405 1.408 . S
C402 C400 1.363 . S
C402 C403 1.370 . S
C402 C406 1.524 . S
C403 C395 1.503 . S
C403 C402 1.370 . S
C403 C404 1.403 . S
C404 C403 1.403 . S
C404 C405 1.404 . S
C404 C407 1.539 . S
C405 C401 1.408 . S
C405 C404 1.404 . S
C405 H417 0.930 . S
C406 C402 1.524 . S
C406 H418 0.956 . S
C406 H419 0.961 . S
C406 H420 0.961 . S
C407 C404 1.539 . S
C407 H421 0.958 . S
C407 H422 0.961 . S
C407 H423 0.960 . S
H408 C392 0.931 . S
H409 C397 0.929 . S
H410 C398 0.960 . S
H411 C398 0.962 . S
H412 C398 0.960 . S
H413 C399 0.961 . S
H414 C399 0.961 . S
H415 C399 0.961 . S
H416 C400 0.931 . S
H417 C405 0.930 . S
H418 C406 0.956 . S
H419 C406 0.961 . S
H420 C406 0.961 . S
H421 C407 0.958 . S
H422 C407 0.961 . S
H423 C407 0.960 . S
C424 C425 1.391 . S
C424 C426 1.394 . S
C424 H440 0.931 . S
C425 C424 1.391 . S
C425 C429 1.376 . S
C426 C424 1.394 . S
C426 C427 1.369 . S
C426 C430 1.531 . S
C427 C426 1.369 . S
C427 C428 1.410 . S
C427 C435 1.503 . S
C428 C427 1.410 . S
C428 C429 1.392 . S
C428 C431 1.511 . S
C429 C425 1.376 . S
C429 C428 1.392 . S
C429 H441 0.929 . S
C430 C426 1.531 . S
C430 H442 0.960 . S
C430 H443 0.962 . S
C430 H444 0.960 . S
C431 C428 1.511 . S
C431 H445 0.961 . S
C431 H446 0.961 . S
C431 H447 0.961 . S
C432 C433 1.370 . S
C432 C434 1.363 . S
C432 H448 0.931 . S
C433 C432 1.370 . S
C433 C437 1.408 . S
C434 C432 1.363 . S
C434 C435 1.370 . S
C434 C438 1.524 . S
C435 C427 1.503 . S
C435 C434 1.370 . S
C435 C436 1.403 . S
C436 C435 1.403 . S
C436 C437 1.404 . S
C436 C439 1.539 . S
C437 C433 1.408 . S
C437 C436 1.404 . S
C437 H449 0.930 . S
C438 C434 1.524 . S
C438 H450 0.956 . S
C438 H451 0.961 . S
C438 H452 0.961 . S
C439 C436 1.539 . S
C439 H453 0.958 . S
C439 H454 0.961 . S
C439 H455 0.960 . S
H440 C424 0.931 . S
H441 C429 0.929 . S
H442 C430 0.960 . S
H443 C430 0.962 . S
H444 C430 0.960 . S
H445 C431 0.961 . S
H446 C431 0.961 . S
H447 C431 0.961 . S
H448 C432 0.931 . S
H449 C437 0.930 . S
H450 C438 0.956 . S
H451 C438 0.961 . S
H452 C438 0.961 . S
H453 C439 0.958 . S
H454 C439 0.961 . S
H455 C439 0.960 . S
C456 C457 1.391 . S
C456 C458 1.394 . S
C456 H472 0.931 . S
C457 C456 1.391 . S
C457 C461 1.376 . S
C458 C456 1.394 . S
C458 C459 1.369 . S
C458 C462 1.531 . S
C459 C458 1.369 . S
C459 C460 1.410 . S
C459 C467 1.503 . S
C460 C459 1.410 . S
C460 C461 1.392 . S
C460 C463 1.511 . S
C461 C457 1.376 . S
C461 C460 1.392 . S
C461 H473 0.929 . S
C462 C458 1.531 . S
C462 H474 0.960 . S
C462 H475 0.962 . S
C462 H476 0.960 . S
C463 C460 1.511 . S
C463 H477 0.961 . S
C463 H478 0.961 . S
C463 H479 0.961 . S
C464 C465 1.370 . S
C464 C466 1.363 . S
C464 H480 0.931 . S
C465 C464 1.370 . S
C465 C469 1.408 . S
C466 C464 1.363 . S
C466 C467 1.370 . S
C466 C470 1.524 . S
C467 C459 1.503 . S
C467 C466 1.370 . S
C467 C468 1.403 . S
C468 C467 1.403 . S
C468 C469 1.404 . S
C468 C471 1.539 . S
C469 C465 1.408 . S
C469 C468 1.404 . S
C469 H481 0.930 . S
C470 C466 1.524 . S
C470 H482 0.956 . S
C470 H483 0.961 . S
C470 H484 0.961 . S
C471 C468 1.539 . S
C471 H485 0.958 . S
C471 H486 0.961 . S
C471 H487 0.960 . S
H472 C456 0.931 . S
H473 C461 0.929 . S
H474 C462 0.960 . S
H475 C462 0.962 . S
H476 C462 0.960 . S
H477 C463 0.961 . S
H478 C463 0.961 . S
H479 C463 0.961 . S
H480 C464 0.931 . S
H481 C469 0.930 . S
H482 C470 0.956 . S
H483 C470 0.961 . S
H484 C470 0.961 . S
H485 C471 0.958 . S
H486 C471 0.961 . S
H487 C471 0.960 . S
C488 C489 1.391 . S
C488 C490 1.394 . S
C488 H504 0.931 . S
C489 C488 1.391 . S
C489 C493 1.376 . S
C490 C488 1.394 . S
C490 C491 1.369 . S
C490 C494 1.531 . S
C491 C490 1.369 . S
C491 C492 1.410 . S
C491 C499 1.503 . S
C492 C491 1.410 . S
C492 C493 1.392 . S
C492 C495 1.511 . S
C493 C489 1.376 . S
C493 C492 1.392 . S
C493 H505 0.929 . S
C494 C490 1.531 . S
C494 H506 0.960 . S
C494 H507 0.962 . S
C494 H508 0.960 . S
C495 C492 1.511 . S
C495 H509 0.961 . S
C495 H510 0.961 . S
C495 H511 0.961 . S
C496 C497 1.370 . S
C496 C498 1.363 . S
C496 H512 0.931 . S
C497 C496 1.370 . S
C497 C501 1.408 . S
C498 C496 1.363 . S
C498 C499 1.370 . S
C498 C502 1.524 . S
C499 C491 1.503 . S
C499 C498 1.370 . S
C499 C500 1.403 . S
C500 C499 1.403 . S
C500 C501 1.404 . S
C500 C503 1.539 . S
C501 C497 1.408 . S
C501 C500 1.404 . S
C501 H513 0.930 . S
C502 C498 1.524 . S
C502 H514 0.956 . S
C502 H515 0.961 . S
C502 H516 0.961 . S
C503 C500 1.539 . S
C503 H517 0.958 . S
C503 H518 0.961 . S
C503 H519 0.960 . S
H504 C488 0.931 . S
H505 C493 0.929 . S
H506 C494 0.960 . S
H507 C494 0.962 . S
H508 C494 0.960 . S
H509 C495 0.961 . S
H510 C495 0.961 . S
H511 C495 0.961 . S
H512 C496 0.931 . S
H513 C501 0.930 . S
H514 C502 0.956 . S
H515 C502 0.961 . S
H516 C502 0.961 . S
H517 C503 0.958 . S
H518 C503 0.961 . S
H519 C503 0.960 . S
C520 C521 1.391 . S
C520 C522 1.394 . S
C520 H536 0.931 . S
C521 C520 1.391 . S
C521 C525 1.376 . S
C522 C520 1.394 . S
C522 C523 1.369 . S
C522 C526 1.531 . S
C523 C522 1.369 . S
C523 C524 1.410 . S
C523 C531 1.503 . S
C524 C523 1.410 . S
C524 C525 1.392 . S
C524 C527 1.511 . S
C525 C521 1.376 . S
C525 C524 1.392 . S
C525 H537 0.929 . S
C526 C522 1.531 . S
C526 H538 0.960 . S
C526 H539 0.962 . S
C526 H540 0.960 . S
C527 C524 1.511 . S
C527 H541 0.961 . S
C527 H542 0.961 . S
C527 H543 0.961 . S
C528 C529 1.370 . S
C528 C530 1.363 . S
C528 H544 0.931 . S
C529 C528 1.370 . S
C529 C533 1.408 . S
C530 C528 1.363 . S
C530 C531 1.370 . S
C530 C534 1.524 . S
C531 C523 1.503 . S
C531 C530 1.370 . S
C531 C532 1.403 . S
C532 C531 1.403 . S
C532 C533 1.404 . S
C532 C535 1.539 . S
C533 C529 1.408 . S
C533 C532 1.404 . S
C533 H545 0.930 . S
C534 C530 1.524 . S
C534 H546 0.956 . S
C534 H547 0.961 . S
C534 H548 0.961 . S
C535 C532 1.539 . S
C535 H549 0.958 . S
C535 H550 0.961 . S
C535 H551 0.960 . S
H536 C520 0.931 . S
H537 C525 0.929 . S
H538 C526 0.960 . S
H539 C526 0.962 . S
H540 C526 0.960 . S
H541 C527 0.961 . S
H542 C527 0.961 . S
H543 C527 0.961 . S
H544 C528 0.931 . S
H545 C533 0.930 . S
H546 C534 0.956 . S
H547 C534 0.961 . S
H548 C534 0.961 . S
H549 C535 0.958 . S
H550 C535 0.961 . S
H551 C535 0.960 . S
C552 C553 1.391 . S
C552 C554 1.394 . S
C552 H568 0.931 . S
C553 C552 1.391 . S
C553 C557 1.376 . S
C554 C552 1.394 . S
C554 C555 1.369 . S
C554 C558 1.531 . S
C555 C554 1.369 . S
C555 C556 1.410 . S
C555 C563 1.503 . S
C556 C555 1.410 . S
C556 C557 1.392 . S
C556 C559 1.511 . S
C557 C553 1.376 . S
C557 C556 1.392 . S
C557 H569 0.929 . S
C558 C554 1.531 . S
C558 H570 0.960 . S
C558 H571 0.962 . S
C558 H572 0.960 . S
C559 C556 1.511 . S
C559 H573 0.961 . S
C559 H574 0.961 . S
C559 H575 0.961 . S
C560 C561 1.370 . S
C560 C562 1.363 . S
C560 H576 0.931 . S
C561 C560 1.370 . S
C561 C565 1.408 . S
C562 C560 1.363 . S
C562 C563 1.370 . S
C562 C566 1.524 . S
C563 C555 1.503 . S
C563 C562 1.370 . S
C563 C564 1.403 . S
C564 C563 1.403 . S
C564 C565 1.404 . S
C564 C567 1.539 . S
C565 C561 1.408 . S
C565 C564 1.404 . S
C565 H577 0.930 . S
C566 C562 1.524 . S
C566 H578 0.956 . S
C566 H579 0.961 . S
C566 H580 0.961 . S
C567 C564 1.539 . S
C567 H581 0.958 . S
C567 H582 0.961 . S
C567 H583 0.960 . S
H568 C552 0.931 . S
H569 C557 0.929 . S
H570 C558 0.960 . S
H571 C558 0.962 . S
H572 C558 0.960 . S
H573 C559 0.961 . S
H574 C559 0.961 . S
H575 C559 0.961 . S
H576 C560 0.931 . S
H577 C565 0.930 . S
H578 C566 0.956 . S
H579 C566 0.961 . S
H580 C566 0.961 . S
H581 C567 0.958 . S
H582 C567 0.961 . S
H583 C567 0.960 . S
C584 C585 1.391 . S
C584 C586 1.394 . S
C584 H600 0.931 . S
C585 C584 1.391 . S
C585 C589 1.376 . S
C586 C584 1.394 . S
C586 C587 1.369 . S
C586 C590 1.531 . S
C587 C586 1.369 . S
C587 C588 1.410 . S
C587 C595 1.503 . S
C588 C587 1.410 . S
C588 C589 1.392 . S
C588 C591 1.511 . S
C589 C585 1.376 . S
C589 C588 1.392 . S
C589 H601 0.929 . S
C590 C586 1.531 . S
C590 H602 0.960 . S
C590 H603 0.962 . S
C590 H604 0.960 . S
C591 C588 1.511 . S
C591 H605 0.961 . S
C591 H606 0.961 . S
C591 H607 0.961 . S
C592 C593 1.370 . S
C592 C594 1.363 . S
C592 H608 0.931 . S
C593 C592 1.370 . S
C593 C597 1.408 . S
C594 C592 1.363 . S
C594 C595 1.370 . S
C594 C598 1.524 . S
C595 C587 1.503 . S
C595 C594 1.370 . S
C595 C596 1.403 . S
C596 C595 1.403 . S
C596 C597 1.404 . S
C596 C599 1.539 . S
C597 C593 1.408 . S
C597 C596 1.404 . S
C597 H609 0.930 . S
C598 C594 1.524 . S
C598 H610 0.956 . S
C598 H611 0.961 . S
C598 H612 0.961 . S
C599 C596 1.539 . S
C599 H613 0.958 . S
C599 H614 0.961 . S
C599 H615 0.960 . S
H600 C584 0.931 . S
H601 C589 0.929 . S
H602 C590 0.960 . S
H603 C590 0.962 . S
H604 C590 0.960 . S
H605 C591 0.961 . S
H606 C591 0.961 . S
H607 C591 0.961 . S
H608 C592 0.931 . S
H609 C597 0.930 . S
H610 C598 0.956 . S
H611 C598 0.961 . S
H612 C598 0.961 . S
H613 C599 0.958 . S
H614 C599 0.961 . S
H615 C599 0.960 . S
C616 C617 1.391 . S
C616 C618 1.394 . S
C616 H632 0.931 . S
C617 C616 1.391 . S
C617 C621 1.376 . S
C618 C616 1.394 . S
C618 C619 1.369 . S
C618 C622 1.531 . S
C619 C618 1.369 . S
C619 C620 1.410 . S
C619 C627 1.503 . S
C620 C619 1.410 . S
C620 C621 1.392 . S
C620 C623 1.511 . S
C621 C617 1.376 . S
C621 C620 1.392 . S
C621 H633 0.929 . S
C622 C618 1.531 . S
C622 H634 0.960 . S
C622 H635 0.962 . S
C622 H636 0.960 . S
C623 C620 1.511 . S
C623 H637 0.961 . S
C623 H638 0.961 . S
C623 H639 0.961 . S
C624 C625 1.370 . S
C624 C626 1.363 . S
C624 H640 0.931 . S
C625 C624 1.370 . S
C625 C629 1.408 . S
C626 C624 1.363 . S
C626 C627 1.370 . S
C626 C630 1.524 . S
C627 C619 1.503 . S
C627 C626 1.370 . S
C627 C628 1.403 . S
C628 C627 1.403 . S
C628 C629 1.404 . S
C628 C631 1.539 . S
C629 C625 1.408 . S
C629 C628 1.404 . S
C629 H641 0.930 . S
C630 C626 1.524 . S
C630 H642 0.956 . S
C630 H643 0.961 . S
C630 H644 0.961 . S
C631 C628 1.539 . S
C631 H645 0.958 . S
C631 H646 0.961 . S
C631 H647 0.960 . S
H632 C616 0.931 . S
H633 C621 0.929 . S
H634 C622 0.960 . S
H635 C622 0.962 . S
H636 C622 0.960 . S
H637 C623 0.961 . S
H638 C623 0.961 . S
H639 C623 0.961 . S
H640 C624 0.931 . S
H641 C629 0.930 . S
H642 C630 0.956 . S
H643 C630 0.961 . S
H644 C630 0.961 . S
H645 C631 0.958 . S
H646 C631 0.961 . S
H647 C631 0.960 . S
C648 C649 1.391 . S
C648 C650 1.394 . S
C648 H664 0.931 . S
C649 C648 1.391 . S
C649 C653 1.376 . S
C650 C648 1.394 . S
C650 C651 1.369 . S
C650 C654 1.531 . S
C651 C650 1.369 . S
C651 C652 1.410 . S
C651 C659 1.503 . S
C652 C651 1.410 . S
C652 C653 1.392 . S
C652 C655 1.511 . S
C653 C649 1.376 . S
C653 C652 1.392 . S
C653 H665 0.929 . S
C654 C650 1.531 . S
C654 H666 0.960 . S
C654 H667 0.962 . S
C654 H668 0.960 . S
C655 C652 1.511 . S
C655 H669 0.961 . S
C655 H670 0.961 . S
C655 H671 0.961 . S
C656 C657 1.370 . S
C656 C658 1.363 . S
C656 H672 0.931 . S
C657 C656 1.370 . S
C657 C661 1.408 . S
C658 C656 1.363 . S
C658 C659 1.370 . S
C658 C662 1.524 . S
C659 C651 1.503 . S
C659 C658 1.370 . S
C659 C660 1.403 . S
C660 C659 1.403 . S
C660 C661 1.404 . S
C660 C663 1.539 . S
C661 C657 1.408 . S
C661 C660 1.404 . S
C661 H673 0.930 . S
C662 C658 1.524 . S
C662 H674 0.956 . S
C662 H675 0.961 . S
C662 H676 0.961 . S
C663 C660 1.539 . S
C663 H677 0.958 . S
C663 H678 0.961 . S
C663 H679 0.960 . S
H664 C648 0.931 . S
H665 C653 0.929 . S
H666 C654 0.960 . S
H667 C654 0.962 . S
H668 C654 0.960 . S
H669 C655 0.961 . S
H670 C655 0.961 . S
H671 C655 0.961 . S
H672 C656 0.931 . S
H673 C661 0.930 . S
H674 C662 0.956 . S
H675 C662 0.961 . S
H676 C662 0.961 . S
H677 C663 0.958 . S
H678 C663 0.961 . S
H679 C663 0.960 . S
C680 C681 1.391 . S
C680 C682 1.394 . S
C680 H696 0.931 . S
C681 C680 1.391 . S
C681 C685 1.376 . S
C682 C680 1.394 . S
C682 C683 1.369 . S
C682 C686 1.531 1_554 S
C683 C682 1.369 . S
C683 C684 1.410 . S
C683 C691 1.503 1_554 S
C684 C683 1.410 . S
C684 C685 1.392 . S
C684 C687 1.511 . S
C685 C681 1.376 . S
C685 C684 1.392 . S
C685 H697 0.929 . S
C686 C682 1.531 1_556 S
C686 H698 0.960 . S
C686 H699 0.962 . S
C686 H700 0.960 . S
C687 C684 1.511 . S
C687 H701 0.961 . S
C687 H702 0.961 . S
C687 H703 0.961 . S
C688 C689 1.370 . S
C688 C690 1.363 . S
C688 H704 0.931 . S
C689 C688 1.370 . S
C689 C693 1.408 . S
C690 C688 1.363 . S
C690 C691 1.370 . S
C690 C694 1.541 . S
C691 C683 1.503 1_556 S
C691 C690 1.370 . S
C691 C692 1.403 . S
C692 C691 1.403 . S
C692 C693 1.404 . S
C692 C695 1.539 . S
C693 C689 1.408 . S
C693 C692 1.404 . S
C693 H705 0.930 . S
C694 C690 1.541 . S
C694 H706 0.962 . S
C694 H707 0.930 1_556 S
C694 H708 0.969 . S
C695 C692 1.539 . S
C695 H709 0.958 . S
C695 H710 0.961 . S
C695 H711 0.960 . S
H696 C680 0.931 . S
H697 C685 0.929 . S
H698 C686 0.960 . S
H699 C686 0.962 . S
H700 C686 0.960 . S
H701 C687 0.961 . S
H702 C687 0.961 . S
H703 C687 0.961 . S
H704 C688 0.931 . S
H705 C693 0.930 . S
H706 C694 0.962 . S
H707 C694 0.930 1_554 S
H708 C694 0.969 . S
H709 C695 0.958 . S
H710 C695 0.961 . S
H711 C695 0.960 . S
C712 C713 1.391 . S
C712 C714 1.394 . S
C712 H728 0.931 . S
C713 C712 1.391 . S
C713 C717 1.376 . S
C714 C712 1.394 . S
C714 C715 1.369 . S
C714 C718 1.531 . S
C715 C714 1.369 . S
C715 C716 1.410 . S
C715 C723 1.503 . S
C716 C715 1.410 . S
C716 C717 1.392 . S
C716 C719 1.511 . S
C717 C713 1.376 . S
C717 C716 1.392 . S
C717 H729 0.929 . S
C718 C714 1.531 . S
C718 H730 0.960 . S
C718 H731 0.962 . S
C718 H732 0.960 . S
C719 C716 1.511 . S
C719 H733 0.961 . S
C719 H734 0.961 . S
C719 H735 0.961 . S
C720 C721 1.370 . S
C720 C722 1.363 . S
C720 H736 0.931 . S
C721 C720 1.370 . S
C721 C725 1.408 . S
C722 C720 1.363 . S
C722 C723 1.370 . S
C722 C726 1.524 . S
C723 C715 1.503 . S
C723 C722 1.370 . S
C723 C724 1.403 . S
C724 C723 1.403 . S
C724 C725 1.404 . S
C724 C727 1.539 . S
C725 C721 1.408 . S
C725 C724 1.404 . S
C725 H737 0.930 . S
C726 C722 1.524 . S
C726 H738 0.956 . S
C726 H739 0.961 . S
C726 H740 0.961 . S
C727 C724 1.539 . S
C727 H741 0.958 . S
C727 H742 0.961 . S
C727 H743 0.960 . S
H728 C712 0.931 . S
H729 C717 0.929 . S
H730 C718 0.960 . S
H731 C718 0.962 . S
H732 C718 0.960 . S
H733 C719 0.961 . S
H734 C719 0.961 . S
H735 C719 0.961 . S
H736 C720 0.931 . S
H737 C725 0.930 . S
H738 C726 0.956 . S
H739 C726 0.961 . S
H740 C726 0.961 . S
H741 C727 0.958 . S
H742 C727 0.961 . S
H743 C727 0.960 . S
C744 C745 1.391 . S
C744 C746 1.394 . S
C744 H760 0.931 . S
C745 C744 1.391 . S
C745 C749 1.376 . S
C746 C744 1.394 . S
C746 C747 1.369 . S
C746 C750 1.531 . S
C747 C746 1.369 . S
C747 C748 1.410 . S
C747 C755 1.503 1_554 S
C748 C747 1.410 . S
C748 C749 1.392 . S
C748 C751 1.511 . S
C749 C745 1.376 . S
C749 C748 1.392 . S
C749 H761 0.929 . S
C750 C746 1.531 . S
C750 H762 0.960 1_554 S
C750 H763 0.962 . S
C750 H764 0.960 . S
C751 C748 1.511 . S
C751 H765 0.961 . S
C751 H766 0.961 . S
C751 H767 0.961 1_554 S
C752 C753 1.370 . S
C752 C754 1.363 . S
C752 H768 0.931 . S
C753 C752 1.370 . S
C753 C757 1.408 . S
C754 C752 1.363 . S
C754 C755 1.370 . S
C754 C758 1.524 1_556 S
C755 C747 1.503 1_556 S
C755 C754 1.370 . S
C755 C756 1.403 . S
C756 C755 1.403 . S
C756 C757 1.404 . S
C756 C759 1.539 . S
C757 C753 1.408 . S
C757 C756 1.404 . S
C757 H769 0.930 . S
C758 C754 1.524 1_554 S
C758 H770 0.956 . S
C758 H771 0.961 . S
C758 H772 0.961 . S
C759 C756 1.539 . S
C759 H773 0.958 . S
C759 H774 0.961 . S
C759 H775 0.960 . S
H760 C744 0.931 . S
H761 C749 0.929 . S
H762 C750 0.960 1_556 S
H763 C750 0.962 . S
H764 C750 0.960 . S
H765 C751 0.961 . S
H766 C751 0.961 . S
H767 C751 0.961 1_556 S
H768 C752 0.931 . S
H769 C757 0.930 . S
H770 C758 0.956 . S
H771 C758 0.961 . S
H772 C758 0.961 . S
H773 C759 0.958 . S
H774 C759 0.961 . S
H775 C759 0.960 . S
C776 C777 1.391 . S
C776 C778 1.394 . S
C776 H792 0.931 . S
C777 C776 1.391 . S
C777 C781 1.376 . S
C778 C776 1.394 . S
C778 C779 1.369 . S
C778 C782 1.531 1_655 S
C779 C778 1.369 . S
C779 C780 1.410 . S
C779 C787 1.503 1_665 S
C780 C779 1.410 . S
C780 C781 1.392 . S
C780 C783 1.511 1_565 S
C781 C777 1.376 . S
C781 C780 1.392 . S
C781 H793 0.929 . S
C782 C778 1.531 1_455 S
C782 H794 0.960 . S
C782 H795 0.962 . S
C782 H796 0.960 . S
C783 C780 1.511 1_545 S
C783 H797 0.960 1_545 S
C783 H798 0.961 . S
C783 H799 0.961 . S
C784 C785 1.370 . S
C784 C786 1.363 . S
C784 H800 0.931 . S
C785 C784 1.370 . S
C785 C789 1.408 . S
C786 C784 1.363 . S
C786 C787 1.370 . S
C786 C790 1.524 1_545 S
C787 C779 1.503 1_445 S
C787 C786 1.370 . S
C787 C788 1.403 1_455 S
C788 C787 1.403 1_655 S
C788 C789 1.404 1_655 S
C788 C791 1.539 . S
C789 C785 1.408 . S
C789 C788 1.404 1_455 S
C789 H801 0.930 . S
C790 C786 1.524 1_565 S
C790 H802 0.956 . S
C790 H803 0.961 . S
C790 H804 0.961 . S
C791 C788 1.539 . S
C791 H805 0.958 . S
C791 H806 0.961 . S
C791 H807 0.960 . S
H792 C776 0.931 . S
H793 C781 0.929 . S
H794 C782 0.960 . S
H795 C782 0.962 . S
H796 C782 0.960 . S
H797 C783 0.960 1_565 S
H798 C783 0.961 . S
H799 C783 0.961 . S
H800 C784 0.931 . S
H801 C789 0.930 . S
H802 C790 0.956 . S
H803 C790 0.961 . S
H804 C790 0.961 . S
H805 C791 0.958 . S
H806 C791 0.961 . S
H807 C791 0.960 . S
C808 C809 1.391 . S
C808 C810 1.394 . S
C808 H824 0.931 . S
C809 C808 1.391 . S
C809 C813 1.376 . S
C810 C808 1.394 . S
C810 C811 1.369 . S
C810 C814 1.531 . S
C811 C810 1.369 . S
C811 C812 1.410 . S
C811 C819 1.503 . S
C812 C811 1.410 . S
C812 C813 1.392 . S
C812 C815 1.511 . S
C813 C809 1.376 . S
C813 C812 1.392 . S
C813 H825 0.929 . S
C814 C810 1.531 . S
C814 H826 0.960 . S
C814 H827 0.962 . S
C814 H828 0.960 . S
C815 C812 1.511 . S
C815 H829 0.961 . S
C815 H830 0.961 . S
C815 H831 0.961 . S
C816 C817 1.370 . S
C816 C818 1.363 . S
C816 H832 0.931 . S
C817 C816 1.370 . S
C817 C821 1.408 . S
C818 C816 1.363 . S
C818 C819 1.370 . S
C818 C822 1.524 . S
C819 C811 1.503 . S
C819 C818 1.370 . S
C819 C820 1.403 . S
C820 C819 1.403 . S
C820 C821 1.404 . S
C820 C823 1.539 . S
C821 C817 1.408 . S
C821 C820 1.404 . S
C821 H833 0.930 . S
C822 C818 1.524 . S
C822 H834 0.956 . S
C822 H835 0.961 . S
C822 H836 0.961 . S
C823 C820 1.539 . S
C823 H837 0.958 . S
C823 H838 0.961 . S
C823 H839 0.960 . S
H824 C808 0.931 . S
H825 C813 0.929 . S
H826 C814 0.960 . S
H827 C814 0.962 . S
H828 C814 0.960 . S
H829 C815 0.961 . S
H830 C815 0.961 . S
H831 C815 0.961 . S
H832 C816 0.931 . S
H833 C821 0.930 . S
H834 C822 0.956 . S
H835 C822 0.961 . S
H836 C822 0.961 . S
H837 C823 0.958 . S
H838 C823 0.961 . S
H839 C823 0.960 . S
C840 C841 1.391 . S
C840 C842 1.394 . S
C840 H856 0.931 . S
C841 C840 1.391 . S
C841 C845 1.376 . S
C842 C840 1.394 . S
C842 C843 1.369 . S
C842 C846 1.531 . S
C843 C842 1.369 . S
C843 C844 1.410 . S
C843 C851 1.503 . S
C844 C843 1.410 . S
C844 C845 1.392 . S
C844 C847 1.511 . S
C845 C841 1.376 . S
C845 C844 1.392 . S
C845 H857 0.929 . S
C846 C842 1.531 . S
C846 H858 0.960 . S
C846 H859 0.962 . S
C846 H860 0.960 . S
C847 C844 1.511 . S
C847 H861 0.961 . S
C847 H862 0.961 . S
C847 H863 0.961 . S
C848 C849 1.370 . S
C848 C850 1.363 . S
C848 H864 0.931 . S
C849 C848 1.370 . S
C849 C853 1.408 . S
C850 C848 1.363 . S
C850 C851 1.370 . S
C850 C854 1.524 . S
C851 C843 1.503 . S
C851 C850 1.370 . S
C851 C852 1.403 . S
C852 C851 1.403 . S
C852 C853 1.404 . S
C852 C855 1.539 . S
C853 C849 1.408 . S
C853 C852 1.404 . S
C853 H865 0.930 . S
C854 C850 1.524 . S
C854 H866 0.956 . S
C854 H867 0.961 . S
C854 H868 0.961 . S
C855 C852 1.539 . S
C855 H869 0.958 . S
C855 H870 0.961 . S
C855 H871 0.960 . S
H856 C840 0.931 . S
H857 C845 0.929 . S
H858 C846 0.960 . S
H859 C846 0.962 . S
H860 C846 0.960 . S
H861 C847 0.961 . S
H862 C847 0.961 . S
H863 C847 0.961 . S
H864 C848 0.931 . S
H865 C853 0.930 . S
H866 C854 0.956 . S
H867 C854 0.961 . S
H868 C854 0.961 . S
H869 C855 0.958 . S
H870 C855 0.961 . S
H871 C855 0.960 . S
C872 C873 1.391 . S
C872 C874 1.394 . S
C872 H888 0.931 . S
C873 C872 1.391 . S
C873 C877 1.376 . S
C874 C872 1.394 . S
C874 C875 1.369 . S
C874 C878 1.531 1_455 S
C875 C874 1.369 . S
C875 C876 1.410 1_545 S
C875 C883 1.503 1_445 S
C876 C875 1.410 1_565 S
C876 C877 1.392 1_565 S
C876 C879 1.511 . S
C877 C873 1.376 . S
C877 C876 1.392 1_545 S
C877 H889 0.929 . S
C878 C874 1.531 1_655 S
C878 H890 0.960 . S
C878 H891 0.962 . S
C878 H892 0.960 . S
C879 C876 1.511 . S
C879 H893 0.961 . S
C879 H894 0.961 . S
C879 H895 0.961 . S
C880 C881 1.370 . S
C880 C882 1.363 . S
C880 H896 0.931 . S
C881 C880 1.370 . S
C881 C885 1.408 . S
C882 C880 1.363 . S
C882 C883 1.370 . S
C882 C886 1.524 1_565 S
C883 C875 1.503 1_665 S
C883 C882 1.370 . S
C883 C884 1.403 . S
C884 C883 1.403 . S
C884 C885 1.404 . S
C884 C887 1.531 1_655 S
C885 C881 1.408 . S
C885 C884 1.404 . S
C885 H897 0.930 . S
C886 C882 1.524 1_545 S
C886 H898 0.956 . S
C886 H899 0.961 . S
C886 H900 0.961 . S
C887 C884 1.531 1_455 S
C887 H901 0.955 1_455 S
C887 H902 0.960 1_455 S
C887 H903 0.972 . S
H888 C872 0.931 . S
H889 C877 0.929 . S
H890 C878 0.960 . S
H891 C878 0.962 . S
H892 C878 0.960 . S
H893 C879 0.961 . S
H894 C879 0.961 . S
H895 C879 0.961 . S
H896 C880 0.931 . S
H897 C885 0.930 . S
H898 C886 0.956 . S
H899 C886 0.961 . S
H900 C886 0.961 . S
H901 C887 0.955 1_655 S
H902 C887 0.960 1_655 S
H903 C887 0.972 . S
C265 N71 1.197 . S
C273 N5 1.190 . S
C297 N104 1.184 . S
C305 N38 1.171 . S
C329 N203 1.175 . S
C337 N137 1.168 . S
C361 N236 1.204 . S
C369 N170 1.184 . S
C393 C160 1.918 . S
C401 C17 1.919 . S
C425 C193 1.913 . S
C433 C50 1.913 . S
C457 C226 1.914 . S
C465 C83 1.920 . S
C489 C116 1.918 . S
C497 C259 1.915 . S
C521 C28 1.921 . S
C529 C149 1.916 . S
C553 C61 1.916 . S
C561 C182 1.920 . S
C585 C94 1.905 . S
C593 C215 1.917 . S
C617 C248 1.916 . S
C625 C127 1.915 . S
C649 C8 1.806 . S
C657 C173 1.829 . S
C681 C206 1.826 . S
C689 C41 1.821 . S
C713 C239 1.810 . S
C721 C74 1.816 . S
C745 C140 1.841 . S
C753 C107 1.811 . S
C777 N80 0.556 . S
C785 N14 0.456 . S
C809 N47 0.483 . S
C817 N113 0.554 . S
C841 N212 0.395 . S
C849 N146 0.533 . S
C873 N179 0.530 . S
C881 N245 0.552 . S
