# Generated by pormake.
# Topology whk, (6)-cn, num edge types: 1
# Building blocks:
#     Node 0, Type 0, BuildingBlock: VOLQOD_clean_sbu_1, # of connection points: 6
#     Node 1, Type 0, BuildingBlock: VOLQOD_clean_sbu_1, # of connection points: 6
#     Node 2, Type 0, BuildingBlock: VOLQOD_clean_sbu_1, # of connection points: 6
#     Node 3, Type 0, BuildingBlock: VOLQOD_clean_sbu_1, # of connection points: 6
#     Node 4, Type 0, BuildingBlock: VOLQOD_clean_sbu_1, # of connection points: 6
#     Node 5, Type 0, BuildingBlock: VOLQOD_clean_sbu_1, # of connection points: 6
#     Node 6, Type 0, BuildingBlock: VOLQOD_clean_sbu_1, # of connection points: 6
#     Node 7, Type 0, BuildingBlock: VOLQOD_clean_sbu_1, # of connection points: 6
#     Node 8, Type 0, BuildingBlock: VOLQOD_clean_sbu_1, # of connection points: 6
#     Node 9, Type 0, BuildingBlock: VOLQOD_clean_sbu_1, # of connection points: 6
#     Node 10, Type 0, BuildingBlock: VOLQOD_clean_sbu_1, # of connection points: 6
#     Node 11, Type 0, BuildingBlock: VOLQOD_clean_sbu_1, # of connection points: 6
#     Node 12, Type 0, BuildingBlock: VOLQOD_clean_sbu_1, # of connection points: 6
#     Node 13, Type 0, BuildingBlock: VOLQOD_clean_sbu_1, # of connection points: 6
#     Node 14, Type 0, BuildingBlock: VOLQOD_clean_sbu_1, # of connection points: 6
#     Node 15, Type 0, BuildingBlock: VOLQOD_clean_sbu_1, # of connection points: 6
#     Edge 16, Type (0, 0), BuildingBlock: ZUJKAS_clean_linker_0, # of connection points: 2
#     Edge 17, Type (0, 0), BuildingBlock: ZUJKAS_clean_linker_0, # of connection points: 2
#     Edge 18, Type (0, 0), BuildingBlock: ZUJKAS_clean_linker_0, # of connection points: 2
#     Edge 19, Type (0, 0), BuildingBlock: ZUJKAS_clean_linker_0, # of connection points: 2
#     Edge 20, Type (0, 0), BuildingBlock: ZUJKAS_clean_linker_0, # of connection points: 2
#     Edge 21, Type (0, 0), BuildingBlock: ZUJKAS_clean_linker_0, # of connection points: 2
#     Edge 22, Type (0, 0), BuildingBlock: ZUJKAS_clean_linker_0, # of connection points: 2
#     Edge 23, Type (0, 0), BuildingBlock: ZUJKAS_clean_linker_0, # of connection points: 2
#     Edge 24, Type (0, 0), BuildingBlock: ZUJKAS_clean_linker_0, # of connection points: 2
#     Edge 25, Type (0, 0), BuildingBlock: ZUJKAS_clean_linker_0, # of connection points: 2
#     Edge 26, Type (0, 0), BuildingBlock: ZUJKAS_clean_linker_0, # of connection points: 2
#     Edge 27, Type (0, 0), BuildingBlock: ZUJKAS_clean_linker_0, # of connection points: 2
#     Edge 28, Type (0, 0), BuildingBlock: ZUJKAS_clean_linker_0, # of connection points: 2
#     Edge 29, Type (0, 0), BuildingBlock: ZUJKAS_clean_linker_0, # of connection points: 2
#     Edge 30, Type (0, 0), BuildingBlock: ZUJKAS_clean_linker_0, # of connection points: 2
#     Edge 31, Type (0, 0), BuildingBlock: ZUJKAS_clean_linker_0, # of connection points: 2
#     Edge 32, Type (0, 0), BuildingBlock: ZUJKAS_clean_linker_0, # of connection points: 2
#     Edge 33, Type (0, 0), BuildingBlock: ZUJKAS_clean_linker_0, # of connection points: 2
#     Edge 34, Type (0, 0), BuildingBlock: ZUJKAS_clean_linker_0, # of connection points: 2
#     Edge 35, Type (0, 0), BuildingBlock: ZUJKAS_clean_linker_0, # of connection points: 2
#     Edge 36, Type (0, 0), BuildingBlock: ZUJKAS_clean_linker_0, # of connection points: 2
#     Edge 37, Type (0, 0), BuildingBlock: ZUJKAS_clean_linker_0, # of connection points: 2
#     Edge 38, Type (0, 0), BuildingBlock: ZUJKAS_clean_linker_0, # of connection points: 2
#     Edge 39, Type (0, 0), BuildingBlock: ZUJKAS_clean_linker_0, # of connection points: 2
#     Edge 40, Type (0, 0), BuildingBlock: ZUJKAS_clean_linker_0, # of connection points: 2
#     Edge 41, Type (0, 0), BuildingBlock: ZUJKAS_clean_linker_0, # of connection points: 2
#     Edge 42, Type (0, 0), BuildingBlock: ZUJKAS_clean_linker_0, # of connection points: 2
#     Edge 43, Type (0, 0), BuildingBlock: ZUJKAS_clean_linker_0, # of connection points: 2
#     Edge 44, Type (0, 0), BuildingBlock: ZUJKAS_clean_linker_0, # of connection points: 2
#     Edge 45, Type (0, 0), BuildingBlock: ZUJKAS_clean_linker_0, # of connection points: 2
#     Edge 46, Type (0, 0), BuildingBlock: ZUJKAS_clean_linker_0, # of connection points: 2
#     Edge 47, Type (0, 0), BuildingBlock: ZUJKAS_clean_linker_0, # of connection points: 2
#     Edge 48, Type (0, 0), BuildingBlock: ZUJKAS_clean_linker_0, # of connection points: 2
#     Edge 49, Type (0, 0), BuildingBlock: ZUJKAS_clean_linker_0, # of connection points: 2
#     Edge 50, Type (0, 0), BuildingBlock: ZUJKAS_clean_linker_0, # of connection points: 2
#     Edge 51, Type (0, 0), BuildingBlock: ZUJKAS_clean_linker_0, # of connection points: 2
#     Edge 52, Type (0, 0), BuildingBlock: ZUJKAS_clean_linker_0, # of connection points: 2
#     Edge 53, Type (0, 0), BuildingBlock: ZUJKAS_clean_linker_0, # of connection points: 2
#     Edge 54, Type (0, 0), BuildingBlock: ZUJKAS_clean_linker_0, # of connection points: 2
#     Edge 55, Type (0, 0), BuildingBlock: ZUJKAS_clean_linker_0, # of connection points: 2
#     Edge 56, Type (0, 0), BuildingBlock: ZUJKAS_clean_linker_0, # of connection points: 2
#     Edge 57, Type (0, 0), BuildingBlock: ZUJKAS_clean_linker_0, # of connection points: 2
#     Edge 58, Type (0, 0), BuildingBlock: ZUJKAS_clean_linker_0, # of connection points: 2
#     Edge 59, Type (0, 0), BuildingBlock: ZUJKAS_clean_linker_0, # of connection points: 2
#     Edge 60, Type (0, 0), BuildingBlock: ZUJKAS_clean_linker_0, # of connection points: 2
#     Edge 61, Type (0, 0), BuildingBlock: ZUJKAS_clean_linker_0, # of connection points: 2
#     Edge 62, Type (0, 0), BuildingBlock: ZUJKAS_clean_linker_0, # of connection points: 2
#     Edge 63, Type (0, 0), BuildingBlock: ZUJKAS_clean_linker_0, # of connection points: 2
# Relax obj value: 0.405
# Max RMSD: 0.245
# Mean RMSD: 0.241
data_MOF--net-whk--node1-VOLQOD_clean_sbu_1--edge1-ZUJKAS_clean_linker_0
_symmetry_space_group_name_H-M    P1
_symmetry_Int_Tables_number       1
_symmetry_cell_setting            triclinic
loop_
_symmetry_equiv_pos_as_xyz
'x, y, z'
_cell_length_a     46.900531
_cell_length_b     46.941902
_cell_length_c     69.866911
_cell_angle_alpha  90.030728
_cell_angle_beta   90.104658
_cell_angle_gamma 89.996049
loop_
_atom_site_label
_atom_site_type_symbol
_atom_site_fract_x
_atom_site_fract_y
_atom_site_fract_z
_atom_type_partial_charge
O0 O 0.56147 0.21065 0.41733 0.0
Zn1 Zn 0.55736 0.19661 0.3905 0.0
O2 O 0.54867 0.15661 0.38997 0.0
Zn3 Zn 0.5808 0.13602 0.37905 0.0
Zn4 Zn 0.54039 0.14384 0.41601 0.0
Zn5 Zn 0.51583 0.15138 0.37359 0.0
O6 O 0.56884 0.11396 0.35552 0.0
O7 O 0.52731 0.13417 0.34825 0.0
O8 O 0.59196 0.2059 0.37549 0.0
O9 O 0.61058 0.16343 0.36929 0.0
O10 O 0.59982 0.11148 0.39916 0.0
O11 O 0.57252 0.11812 0.42479 0.0
O12 O 0.50255 0.12224 0.41677 0.0
O13 O 0.52562 0.21942 0.37995 0.0
O14 O 0.4897 0.12403 0.38608 0.0
O15 O 0.49331 0.18813 0.37018 0.0
C16 C 0.55141 0.20194 0.4332 0.0
C17 C 0.54817 0.11797 0.34391 0.0
C18 C 0.59443 0.1072 0.41682 0.0
C19 C 0.61137 0.19049 0.3682 0.0
C20 C 0.48588 0.11521 0.40308 0.0
C21 C 0.50122 0.21373 0.37308 0.0
O22 O 0.54007 0.17731 0.43468 0.0
O23 O 0.29401 0.57207 0.42669 0.0
Zn24 Zn 0.30292 0.56944 0.3987 0.0
O25 O 0.33982 0.55274 0.39476 0.0
Zn26 Zn 0.36595 0.58116 0.38534 0.0
Zn27 Zn 0.35336 0.53733 0.41903 0.0
Zn28 Zn 0.33629 0.52388 0.37531 0.0
O29 O 0.3866 0.5677 0.3618 0.0
O30 O 0.35536 0.5361 0.3507 0.0
O31 O 0.2996 0.60713 0.38546 0.0
O32 O 0.34435 0.61577 0.37681 0.0
O33 O 0.39227 0.59411 0.40623 0.0
O34 O 0.38291 0.56463 0.4303 0.0
O35 O 0.36928 0.49703 0.41495 0.0
O36 O 0.27258 0.54407 0.3884 0.0
O37 O 0.35745 0.49009 0.38441 0.0
O38 O 0.29523 0.51133 0.37138 0.0
C39 C 0.30035 0.55469 0.44006 0.0
C40 C 0.37725 0.55186 0.34834 0.0
C41 C 0.39601 0.58624 0.42351 0.0
C42 C 0.3182 0.62284 0.37745 0.0
C43 C 0.36911 0.48163 0.39984 0.0
C44 C 0.27222 0.52181 0.37805 0.0
O45 O 0.32082 0.53695 0.43825 0.0
O46 O 0.91935 0.29987 0.43268 0.0
Zn47 Zn 0.9219 0.30412 0.40427 0.0
O48 O 0.94127 0.33826 0.3971 0.0
Zn49 Zn 0.91419 0.3642 0.38594 0.0
Zn50 Zn 0.95715 0.35411 0.42039 0.0
Zn51 Zn 0.97003 0.32996 0.37812 0.0
O52 O 0.92971 0.38214 0.36207 0.0
O53 O 0.95922 0.34784 0.35253 0.0
O54 O 0.88383 0.30104 0.39172 0.0
O55 O 0.87948 0.34282 0.3772 0.0
O56 O 0.90089 0.39239 0.40566 0.0
O57 O 0.93019 0.38476 0.43018 0.0
O58 O 0.99688 0.36961 0.4147 0.0
O59 O 0.94454 0.27086 0.39579 0.0
O60 O 0.00591 0.34938 0.38646 0.0
O61 O 0.97785 0.28721 0.37614 0.0
C62 C 0.93849 0.30569 0.44504 0.0
C63 C 0.94497 0.37052 0.34913 0.0
C64 C 0.90871 0.39744 0.42282 0.0
C65 C 0.87015 0.31797 0.38085 0.0
C66 C 0.01356 0.36478 0.4006 0.0
C67 C 0.96568 0.2666 0.38482 0.0
O68 O 0.95811 0.32378 0.44141 0.0
O69 O 0.15136 0.95081 0.35116 0.0
Zn70 Zn 0.17775 0.94773 0.37389 0.0
O71 O 0.15651 0.94285 0.39768 0.0
Zn72 Zn 0.16089 0.97612 0.41403 0.0
Zn73 Zn 0.11654 0.93648 0.39136 0.0
Zn74 Zn 0.17158 0.91097 0.41158 0.0
O75 O 0.17469 0.96682 0.44091 0.0
O76 O 0.19019 0.92278 0.43611 0.0
O77 O 0.20508 0.98088 0.37606 0.0
O78 O 0.19259 4e-05 0.40386 0.0
O79 O 0.12505 -0.00048 0.41367 0.0
O80 O 0.09465 0.97258 0.3971 0.0
O81 O 0.10031 0.90218 0.40599 0.0
O82 O 0.20186 0.91311 0.36848 0.0
O83 O 0.14026 0.88414 0.41812 0.0
O84 O 0.20001 0.88972 0.39606 0.0
C85 C 0.12674 0.93986 0.34863 0.0
C86 C 0.1884 0.94491 0.44655 0.0
C87 C 0.10074 0.99564 0.40588 0.0
C88 C 0.20854 -0.00051 0.38916 0.0
C89 C 0.11343 0.88297 0.41552 0.0
C90 C 0.20941 0.89245 0.3791 0.0
O91 O 0.11213 0.93051 0.3627 0.0
O92 O 0.04761 0.84401 0.15192 0.0
Zn93 Zn 0.04996 0.81786 0.12911 0.0
O94 O 0.05451 0.83961 0.10545 0.0
Zn95 Zn 0.02164 0.83388 0.08898 0.0
Zn96 Zn 0.05885 0.88005 0.11161 0.0
Zn97 Zn 0.08728 0.82593 0.0917 0.0
O98 O 0.03161 0.82098 0.06224 0.0
O99 O 0.0764 0.80753 0.06679 0.0
O100 O 0.01642 0.79088 0.12743 0.0
O101 O -0.00175 0.80173 0.09902 0.0
O102 O 0.99693 0.86846 0.08907 0.0
O103 O 0.02165 0.90051 0.10568 0.0
O104 O 0.09269 0.89752 0.09705 0.0
O105 O 0.08421 0.79296 0.13389 0.0
O106 O 0.11324 0.85824 0.0858 0.0
O107 O 0.10896 0.79743 0.10704 0.0
C108 C 0.05684 0.86931 0.15442 0.0
C109 C 0.0541 0.80852 0.0564 0.0
C110 C -0.00086 0.89301 0.09669 0.0
C111 C -0.00171 0.78663 0.11412 0.0
C112 C 0.11297 0.88513 0.08811 0.0
C113 C 0.10555 0.78656 0.12355 0.0
O114 O 0.06466 0.88475 0.14032 0.0
O115 O 0.64991 0.04118 0.15243 0.0
Zn116 Zn 0.67856 0.04656 0.13149 0.0
O117 O 0.66025 0.04677 0.10643 0.0
Zn118 Zn 0.67108 0.01254 0.09247 0.0
Zn119 Zn 0.61897 0.04885 0.10981 0.0
Zn120 Zn 0.67343 0.07936 0.09228 0.0
O121 O 0.68622 0.02123 0.06592 0.0
O122 O 0.69324 0.06791 0.06809 0.0
O123 O 0.7103 0.01767 0.13263 0.0
O124 O 0.70448 0.99405 0.10541 0.0
O125 O 0.63819 0.98499 0.09192 0.0
O126 O 0.6018 0.01087 0.10268 0.0
O127 O 0.6013 0.08144 0.09415 0.0
O128 O 0.69742 0.08408 0.13687 0.0
O129 O 0.64068 0.10405 0.08498 0.0
O130 O 0.69951 0.10349 0.10796 0.0
C131 C 0.62353 0.04764 0.15317 0.0
C132 C 0.69574 0.04451 0.05904 0.0
C133 C 0.61195 0.98743 0.09642 0.0
C134 C 0.71814 -0.00152 0.12088 0.0
C135 C 0.61367 0.10236 0.08595 0.0
C136 C 0.70575 0.10372 0.12569 0.0
O137 O 0.60952 0.05391 0.13805 0.0
O138 O 0.41728 0.69734 0.07615 0.0
Zn139 Zn 0.419 0.68924 0.1043 0.0
O140 O 0.43869 0.65405 0.10926 0.0
Zn141 Zn 0.41252 0.62692 0.12023 0.0
Zn142 Zn 0.45321 0.63967 0.08516 0.0
Zn143 Zn 0.4692 0.66058 0.12723 0.0
O144 O 0.42901 0.60847 0.14376 0.0
O145 O 0.46028 0.64169 0.15255 0.0
O146 O 0.38028 0.69002 0.11645 0.0
O147 O 0.37742 0.64701 0.12945 0.0
O148 O 0.39872 0.59937 0.1001 0.0
O149 O 0.42524 0.61041 0.07484 0.0
O150 O 0.49301 0.62286 0.08909 0.0
O151 O 0.44141 0.72188 0.11467 0.0
O152 O 0.50418 0.64152 0.11744 0.0
O153 O 0.47802 0.70265 0.13009 0.0
C154 C 0.4357 0.69171 0.0633 0.0
C155 C 0.44572 0.61935 0.15621 0.0
C156 C 0.40485 0.59641 0.08244 0.0
C157 C 0.36711 0.6717 0.12655 0.0
C158 C 0.51072 0.62687 0.10276 0.0
C159 C 0.46448 0.72445 0.12409 0.0
O160 O 0.45404 0.67188 0.06564 0.0
O161 O 0.79406 0.41994 0.07694 0.0
Zn162 Zn 0.80217 0.42407 0.10495 0.0
O163 O 0.83913 0.44043 0.10921 0.0
Zn164 Zn 0.86456 0.41162 0.1192 0.0
Zn165 Zn 0.85316 0.45489 0.08487 0.0
Zn166 Zn 0.83544 0.47008 0.12818 0.0
O167 O 0.88459 0.42502 0.14309 0.0
O168 O 0.85434 0.45834 0.15311 0.0
O169 O 0.79768 0.38738 0.11909 0.0
O170 O 0.84215 0.37769 0.12796 0.0
O171 O 0.89108 0.39769 0.09864 0.0
O172 O 0.88285 0.42729 0.07442 0.0
O173 O 0.86933 0.4951 0.0885 0.0
O174 O 0.77196 0.4502 0.11421 0.0
O175 O 0.85645 0.50378 0.11859 0.0
O176 O 0.79421 0.48281 0.13163 0.0
C177 C 0.80069 0.43673 0.06332 0.0
C178 C 0.87542 0.44168 0.15614 0.0
C179 C 0.89541 0.40549 0.08141 0.0
C180 C 0.81578 0.37147 0.12744 0.0
C181 C 0.86854 0.51146 0.10314 0.0
C182 C 0.77138 0.47249 0.12451 0.0
O183 O 0.82105 0.45464 0.06511 0.0
O184 O 0.41493 0.79606 0.57371 0.0
Zn185 Zn 0.41895 0.80129 0.60194 0.0
O186 O 0.43611 0.83699 0.60847 0.0
Zn187 Zn 0.40776 0.86131 0.61994 0.0
Zn188 Zn 0.45094 0.8528 0.58478 0.0
Zn189 Zn 0.46534 0.83093 0.62739 0.0
O190 O 0.4225 0.88067 0.64364 0.0
O191 O 0.45476 0.8488 0.65285 0.0
O192 O 0.38203 0.79601 0.61526 0.0
O193 O 0.37483 0.8377 0.62943 0.0
O194 O 0.3932 0.88881 0.60017 0.0
O195 O 0.42285 0.88305 0.57558 0.0
O196 O 0.4911 0.86876 0.58946 0.0
O197 O 0.4442 0.76966 0.61024 0.0
O198 O 0.4999 0.85099 0.61842 0.0
O199 O 0.47596 0.78929 0.62973 0.0
C200 C 0.43318 0.8025 0.56096 0.0
C201 C 0.4391 0.87042 0.65637 0.0
C202 C 0.40096 0.89475 0.58314 0.0
C203 C 0.3675 0.81204 0.62619 0.0
C204 C 0.50772 0.86509 0.6038 0.0
C205 C 0.46565 0.76754 0.62127 0.0
O206 O 0.45181 0.82188 0.56397 0.0
O207 O 0.70245 0.4208 0.57601 0.0
Zn208 Zn 0.69307 0.42408 0.60391 0.0
O209 O 0.65663 0.44157 0.60795 0.0
Zn210 Zn 0.63013 0.41384 0.61793 0.0
Zn211 Zn 0.64371 0.45581 0.58343 0.0
Zn212 Zn 0.66036 0.47156 0.62663 0.0
O213 O 0.60886 0.42901 0.64082 0.0
O214 O 0.64048 0.46072 0.6513 0.0
O215 O 0.69578 0.38686 0.61744 0.0
O216 O 0.65178 0.3803 0.6282 0.0
O217 O 0.60463 0.39916 0.59685 0.0
O218 O 0.61495 0.428 0.57259 0.0
O219 O 0.62625 0.49513 0.58684 0.0
O220 O 0.72362 0.44879 0.61445 0.0
O221 O 0.64039 0.50572 0.61647 0.0
O222 O 0.70162 0.48259 0.63095 0.0
C223 C 0.69687 0.43848 0.56267 0.0
C224 C 0.6184 0.44532 0.65397 0.0
C225 C 0.60162 0.40659 0.5794 0.0
C226 C 0.67767 0.37246 0.6269 0.0
C227 C 0.62764 0.51232 0.60099 0.0
C228 C 0.72441 0.47112 0.62472 0.0
O229 O 0.67671 0.4566 0.56439 0.0
O230 O 0.07496 0.69208 0.56906 0.0
Zn231 Zn 0.07189 0.68904 0.59748 0.0
O232 O 0.05501 0.65395 0.60533 0.0
Zn233 Zn 0.08364 0.63121 0.61768 0.0
Zn234 Zn 0.0411 0.63546 0.58236 0.0
Zn235 Zn 0.02549 0.66093 0.62393 0.0
O236 O 0.06819 0.612 0.641 0.0
O237 O 0.0365 0.64456 0.65 0.0
O238 O 0.10893 0.69589 0.61056 0.0
O239 O 0.11498 0.65647 0.6276 0.0
O240 O 0.10037 0.60362 0.5988 0.0
O241 O 0.07002 0.60565 0.57432 0.0
O242 O 0.00202 0.61838 0.58769 0.0
O243 O 0.04667 0.72096 0.605 0.0
O244 O 0.99122 0.6394 0.61538 0.0
O245 O 0.01462 0.70289 0.62491 0.0
C246 C 0.0572 0.68365 0.55647 0.0
C247 C 0.05189 0.62275 0.65368 0.0
C248 C 0.09269 0.59587 0.58207 0.0
C249 C 0.1226 0.68154 0.62299 0.0
C250 C 0.98471 0.62317 0.60143 0.0
C251 C 0.0252 0.724 0.61587 0.0
O252 O 0.03927 0.66394 0.56019 0.0
O253 O 0.78818 0.06863 0.57658 0.0
Zn254 Zn 0.79761 0.06414 0.60423 0.0
O255 O 0.83631 0.05212 0.60805 0.0
Zn256 Zn 0.85768 0.08302 0.61979 0.0
Zn257 Zn 0.8525 0.04231 0.5831 0.0
Zn258 Zn 0.83583 0.02001 0.62556 0.0
O259 O 0.87881 0.06955 0.64318 0.0
O260 O 0.855 0.03019 0.65078 0.0
O261 O 0.78883 0.09894 0.61908 0.0
O262 O 0.8311 0.1134 0.62966 0.0
O263 O 0.88384 0.10137 0.60059 0.0
O264 O 0.88054 0.07309 0.57514 0.0
O265 O 0.87197 0.00336 0.58468 0.0
O266 O 0.77046 0.03514 0.61341 0.0
O267 O 0.85844 0.98909 0.61371 0.0
O268 O 0.79609 0.00354 0.62949 0.0
C269 C 0.79792 0.05613 0.5618 0.0
C270 C 0.87318 0.04951 0.6549 0.0
C271 C 0.89048 0.09526 0.58338 0.0
C272 C 0.80416 0.11618 0.62859 0.0
C273 C 0.87147 0.98474 0.59802 0.0
C274 C 0.7722 0.01248 0.62321 0.0
O275 O 0.82145 0.04241 0.56239 0.0
O276 O 0.92682 0.20553 0.92339 0.0
Zn277 Zn 0.93082 0.19533 0.89571 0.0
O278 O 0.94568 0.15743 0.89263 0.0
Zn279 Zn 0.91652 0.13319 0.88181 0.0
Zn280 Zn 0.95755 0.14346 0.91767 0.0
Zn281 Zn 0.977 0.1585 0.87473 0.0
O282 O 0.93098 0.11134 0.85905 0.0
O283 O 0.96619 0.13965 0.8495 0.0
O284 O 0.8941 0.20052 0.88181 0.0
O285 O 0.88448 0.15694 0.87138 0.0
O286 O 0.89984 0.10785 0.90212 0.0
O287 O 0.92833 0.11494 0.92716 0.0
O288 O 0.9966 0.12461 0.91563 0.0
O289 O 0.95818 0.22381 0.88549 0.0
O290 O 0.00887 0.13615 0.88584 0.0
O291 O 0.99209 0.19856 0.87127 0.0
C292 C 0.9416 0.19801 0.93785 0.0
C293 C 0.9489 0.11913 0.84638 0.0
C294 C 0.90658 0.10315 0.91952 0.0
C295 C 0.87842 0.1833 0.87248 0.0
C296 C 0.01427 0.12409 0.90174 0.0
C297 C 0.98167 0.22237 0.87652 0.0
O298 O 0.95768 0.17604 0.93723 0.0
O299 O 0.30404 0.91878 0.93444 0.0
Zn300 Zn 0.30812 0.92027 0.906 0.0
O301 O 0.34282 0.93824 0.89828 0.0
Zn302 Zn 0.36738 0.91041 0.88675 0.0
Zn303 Zn 0.35992 0.95424 0.92117 0.0
Zn304 Zn 0.33512 0.96618 0.87886 0.0
O305 O 0.38655 0.92553 0.8632 0.0
O306 O 0.35228 0.9547 0.85328 0.0
O307 O 0.30368 0.88222 0.89379 0.0
O308 O 0.34381 0.87761 0.87722 0.0
O309 O 0.39492 0.89578 0.90647 0.0
O310 O 0.39045 0.92671 0.93045 0.0
O311 O 0.37531 0.99394 0.91511 0.0
O312 O 0.27526 0.94373 0.8974 0.0
O313 O 0.355 0.00151 0.88671 0.0
O314 O 0.293 0.97546 0.87716 0.0
C315 C 0.31116 0.93773 0.94659 0.0
C316 C 0.37499 0.94045 0.85006 0.0
C317 C 0.40148 0.90422 0.92327 0.0
C318 C 0.31908 0.86885 0.88181 0.0
C319 C 0.37026 0.00995 0.90068 0.0
C320 C 0.27192 0.96464 0.88607 0.0
O321 O 0.33042 0.95609 0.9427 0.0
O322 O 0.57101 0.29023 0.92406 0.0
Zn323 Zn 0.56677 0.29998 0.8964 0.0
O324 O 0.55355 0.33829 0.89281 0.0
Zn325 Zn 0.58392 0.36089 0.88152 0.0
Zn326 Zn 0.54264 0.35355 0.91777 0.0
Zn327 Zn 0.52169 0.33731 0.87514 0.0
O328 O 0.57006 0.3822 0.85823 0.0
O329 O 0.53174 0.35691 0.85024 0.0
O330 O 0.60223 0.29262 0.88185 0.0
O331 O 0.61514 0.33541 0.87148 0.0
O332 O 0.60149 0.38668 0.90137 0.0
O333 O 0.57265 0.38185 0.92639 0.0
O334 O 0.50338 0.3723 0.91604 0.0
O335 O 0.53868 0.27227 0.88661 0.0
O336 O 0.48992 0.35896 0.88678 0.0
O337 O 0.50648 0.2974 0.87068 0.0
C338 C 0.55776 0.29924 0.93876 0.0
C339 C 0.55039 0.37583 0.84633 0.0
C340 C 0.59485 0.39248 0.91863 0.0
C341 C 0.61898 0.30863 0.87248 0.0
C342 C 0.485 0.37164 0.90252 0.0
C343 C 0.51606 0.27364 0.87668 0.0
O344 O 0.54309 0.32216 0.93815 0.0
O345 O 0.19727 0.57878 0.93025 0.0
Zn346 Zn 0.19194 0.575 0.902 0.0
O347 O 0.15608 0.55847 0.89539 0.0
Zn348 Zn 0.13241 0.58702 0.88365 0.0
Zn349 Zn 0.13998 0.54426 0.91912 0.0
Zn350 Zn 0.16133 0.52907 0.87655 0.0
O351 O 0.11293 0.57233 0.86005 0.0
O352 O 0.14557 0.54105 0.85063 0.0
O353 O 0.19791 0.61187 0.8888 0.0
O354 O 0.15663 0.61939 0.87405 0.0
O355 O 0.10505 0.6023 0.90317 0.0
O356 O 0.11042 0.5731 0.92805 0.0
O357 O 0.12253 0.50496 0.91441 0.0
O358 O 0.2229 0.54907 0.89382 0.0
O359 O 0.13766 0.49628 0.88472 0.0
O360 O 0.2027 0.51606 0.87553 0.0
C361 C 0.19036 0.56085 0.94309 0.0
C362 C 0.12377 0.55652 0.84713 0.0
C363 C 0.09903 0.59498 0.92027 0.0
C364 C 0.18228 0.62647 0.87762 0.0
C365 C 0.12366 0.48912 0.89954 0.0
C366 C 0.22466 0.5267 0.88365 0.0
O367 O 0.17059 0.54264 0.94011 0.0
H368 H 0.59077 0.0851 0.32875 0.0
H369 H 0.59552 0.06881 0.29572 0.0
H370 H 0.51367 0.10531 0.28195 0.0
H371 H 0.5088 0.12211 0.31494 0.0
H372 H 0.56109 0.0338 0.27197 0.0
H373 H 0.56852 0.14493 0.24466 0.0
H374 H 0.57153 0.13648 0.26977 0.0
H375 H 0.53719 0.1367 0.25835 0.0
C376 C 0.57361 0.08948 0.31879 0.0
C377 C 0.54955 0.10525 0.32449 0.0
C378 C 0.57636 0.08009 0.2999 0.0
C379 C 0.55518 0.08628 0.28633 0.0
C380 C 0.5305 0.10078 0.29214 0.0
H381 H 0.56998 0.06768 0.16171 0.0
H382 H 0.54907 0.07416 0.19353 0.0
C383 C 0.52773 0.11026 0.31103 0.0
C384 C 0.5598 0.07877 0.26596 0.0
H385 H 0.57249 0.10809 0.22208 0.0
C386 C 0.56334 0.05 0.26101 0.0
C387 C 0.56265 0.09997 0.2517 0.0
C388 C 0.56001 0.13128 0.25631 0.0
C389 C 0.57017 0.0419 0.24222 0.0
C390 C 0.574 0.06317 0.22812 0.0
C391 C 0.56945 0.09183 0.23292 0.0
C392 C 0.58516 0.05652 0.20878 0.0
C393 C 0.57341 0.01065 0.23765 0.0
C394 C 0.61234 0.04442 0.20682 0.0
C395 C 0.62436 0.04077 0.18872 0.0
C396 C 0.60953 0.0493 0.17216 0.0
C397 C 0.58198 0.06081 0.17414 0.0
C398 C 0.56999 0.06455 0.19231 0.0
H399 H 0.56122 -0.00279 0.24785 0.0
H400 H 0.5661 0.00585 0.22287 0.0
H401 H 0.59623 0.00467 0.23883 0.0
H402 H 0.6247 0.03866 0.21934 0.0
H403 H 0.64562 0.03186 0.18778 0.0
H404 H 0.47771 0.63699 0.18687 0.0
H405 H 0.47424 0.62054 0.21998 0.0
H406 H 0.41121 0.55848 0.20312 0.0
H407 H 0.41479 0.5744 0.17 0.0
H408 H 0.42495 0.62416 0.24066 0.0
H409 H 0.46178 0.51209 0.2387 0.0
H410 H 0.46918 0.53706 0.21968 0.0
H411 H 0.43502 0.51976 0.22106 0.0
C412 C 0.46351 0.61946 0.19012 0.0
C413 C 0.44641 0.60713 0.17576 0.0
C414 C 0.46159 0.61008 0.20905 0.0
C415 C 0.44271 0.58809 0.21398 0.0
C416 C 0.4264 0.57504 0.19959 0.0
H417 H 0.36003 0.52621 0.31502 0.0
H418 H 0.37927 0.53379 0.28291 0.0
C419 C 0.42833 0.58436 0.18065 0.0
C420 C 0.43756 0.58108 0.23435 0.0
H421 H 0.43478 0.52611 0.26631 0.0
C422 C 0.42753 0.60282 0.24636 0.0
C423 C 0.44073 0.55316 0.24168 0.0
C424 C 0.45253 0.52923 0.22966 0.0
C425 C 0.41959 0.59725 0.26532 0.0
C426 C 0.42226 0.56925 0.27257 0.0
C427 C 0.43279 0.54755 0.26069 0.0
C428 C 0.41299 0.56205 0.29221 0.0
C429 C 0.40734 0.62118 0.2772 0.0
C430 C 0.42619 0.57471 0.3081 0.0
C431 C 0.41518 0.57057 0.32645 0.0
C432 C 0.39086 0.55352 0.32925 0.0
C433 C 0.37867 0.5396 0.31338 0.0
C434 C 0.38966 0.54385 0.29502 0.0
H435 H 0.4009 0.63966 0.26825 0.0
H436 H 0.38849 0.61379 0.28541 0.0
H437 H 0.42366 0.62861 0.28757 0.0
H438 H 0.44454 0.58844 0.30624 0.0
H439 H 0.42532 0.58137 0.33836 0.0
H440 H 0.96958 0.34906 0.3165 0.0
H441 H 0.96292 0.36596 0.28366 0.0
H442 H 0.91156 0.43562 0.30433 0.0
H443 H 0.91783 0.41887 0.33711 0.0
H444 H 0.88521 0.40281 0.2761 0.0
H445 H 0.99417 0.43473 0.25375 0.0
H446 H 0.99164 0.39973 0.264 0.0
H447 H 0.98426 0.43041 0.27856 0.0
C448 C 0.95729 0.36827 0.31411 0.0
C449 C 0.94412 0.38249 0.32948 0.0
C450 C 0.95363 0.37798 0.29532 0.0
C451 C 0.93693 0.40218 0.29158 0.0
C452 C 0.92461 0.41695 0.30692 0.0
H453 H 0.86272 0.47414 0.18766 0.0
H454 H 0.87939 0.46702 0.2205 0.0
C455 C 0.92823 0.4073 0.32567 0.0
C456 C 0.92995 0.41054 0.27165 0.0
H457 H 0.95892 0.43217 0.22925 0.0
C458 C 0.90129 0.40948 0.26589 0.0
C459 C 0.951 0.41901 0.25836 0.0
C460 C 0.98199 0.42131 0.26396 0.0
C461 C 0.89312 0.41608 0.2471 0.0
C462 C 0.91414 0.42462 0.23377 0.0
C463 C 0.94283 0.42578 0.23952 0.0
C464 C 0.90669 0.4313 0.21362 0.0
C465 C 0.86216 0.41293 0.24152 0.0
C466 C 0.91758 0.41449 0.19874 0.0
C467 C 0.90831 0.41866 0.17992 0.0
C468 C 0.88793 0.43975 0.17562 0.0
C469 C 0.87818 0.45752 0.19046 0.0
C470 C 0.88759 0.4534 0.20927 0.0
H471 H 0.85021 0.39961 0.25192 0.0
H472 H 0.85202 0.43428 0.24116 0.0
H473 H 0.86005 0.40323 0.22709 0.0
H474 H 0.93247 0.39742 0.20178 0.0
H475 H 0.9164 0.40465 0.16887 0.0
H476 H 0.07965 0.91002 0.33675 0.0
H477 H 0.06414 0.9011 0.30381 0.0
H478 H 0.13319 0.95276 0.28269 0.0
H479 H 0.14902 0.96179 0.31553 0.0
H480 H 0.0741 0.96086 0.26494 0.0
H481 H 0.11461 0.84938 0.26683 0.0
H482 H 0.0926 0.86076 0.28648 0.0
H483 H 0.12713 0.87643 0.28321 0.0
C484 C 0.09141 0.91975 0.32514 0.0
C485 C 0.11573 0.93646 0.32882 0.0
C486 C 0.08253 0.91456 0.30633 0.0
C487 C 0.09768 0.9261 0.29088 0.0
C488 C 0.12127 0.94364 0.29446 0.0
H489 H 0.08666 0.91617 0.16675 0.0
H490 H 0.09487 0.93134 0.19979 0.0
C491 C 0.13031 0.9487 0.31325 0.0
C492 C 0.08979 0.91873 0.27095 0.0
H493 H 0.09123 0.86412 0.23874 0.0
C494 C 0.07777 0.93973 0.25915 0.0
C495 C 0.09462 0.89115 0.26354 0.0
C496 C 0.10811 0.86807 0.27555 0.0
C497 C 0.07004 0.93371 0.24011 0.0
C498 C 0.07521 0.90615 0.23259 0.0
C499 C 0.08721 0.8852 0.24449 0.0
C500 C 0.06862 0.89841 0.21242 0.0
C501 C 0.05588 0.95672 0.22841 0.0
C502 C 0.05148 0.8746 0.20846 0.0
C503 C 0.04712 0.86561 0.18962 0.0
C504 C 0.05977 0.88027 0.17426 0.0
C505 C 0.0764 0.90453 0.17821 0.0
C506 C 0.08097 0.91335 0.19712 0.0
H507 H 0.0457 0.97304 0.23768 0.0
H508 H 0.07221 0.9676 0.21957 0.0
H509 H 0.03943 0.9477 0.2187 0.0
H510 H 0.04177 0.86268 0.22002 0.0
H511 H 0.03412 0.8469 0.18712 0.0
H512 H 0.42256 0.91185 0.83811 0.0
H513 H 0.43909 0.9051 0.80532 0.0
H514 H 0.3709 0.95848 0.78461 0.0
H515 H 0.35424 0.96562 0.81742 0.0
H516 H 0.40544 0.8798 0.77712 0.0
H517 H 0.44044 0.98763 0.75464 0.0
H518 H 0.43592 0.97786 0.77946 0.0
H519 H 0.4054 0.98633 0.76495 0.0
C520 C 0.41129 0.92259 0.82665 0.0
C521 C 0.38694 0.93919 0.83043 0.0
C522 C 0.42082 0.91869 0.8079 0.0
C523 C 0.40638 0.93146 0.79255 0.0
C524 C 0.38267 0.94885 0.79628 0.0
H525 H 0.40396 0.91224 0.67012 0.0
H526 H 0.39879 0.92796 0.70325 0.0
C527 C 0.37309 0.95277 0.81505 0.0
C528 C 0.41441 0.92425 0.77262 0.0
H529 H 0.43569 0.95277 0.73001 0.0
C530 C 0.41235 0.89569 0.76686 0.0
C531 C 0.42321 0.94509 0.75927 0.0
C532 C 0.42665 0.97593 0.76488 0.0
C533 C 0.41812 0.88744 0.74797 0.0
C534 C 0.42683 0.90827 0.73455 0.0
C535 C 0.42915 0.93683 0.74034 0.0
C536 C 0.43229 0.90083 0.71426 0.0
C537 C 0.41381 0.85666 0.74238 0.0
C538 C 0.45349 0.88103 0.70935 0.0
C539 C 0.45642 0.87182 0.69042 0.0
C540 C 0.43835 0.88246 0.676 0.0
C541 C 0.41817 0.90346 0.68084 0.0
C542 C 0.41518 0.91254 0.69978 0.0
H543 H 0.40059 0.84502 0.753 0.0
H544 H 0.4034 0.85497 0.72814 0.0
H545 H 0.43484 0.84591 0.74158 0.0
H546 H 0.46734 0.87219 0.72026 0.0
H547 H 0.47237 0.85585 0.68718 0.0
H548 H 0.58672 0.41681 0.8328 0.0
H549 H 0.59116 0.43378 0.79992 0.0
H550 H 0.5198 0.38152 0.78307 0.0
H551 H 0.51526 0.36417 0.81592 0.0
H552 H 0.56891 0.3728 0.7614 0.0
H553 H 0.54408 0.48805 0.7664 0.0
H554 H 0.56989 0.476 0.7836 0.0
H555 H 0.53393 0.46285 0.78469 0.0
C556 C 0.5716 0.40927 0.82221 0.0
C557 C 0.55072 0.38898 0.82702 0.0
C558 C 0.57407 0.41918 0.80342 0.0
C559 C 0.55563 0.40914 0.7891 0.0
C560 C 0.53414 0.38966 0.79396 0.0
H561 H 0.56907 0.41829 0.66445 0.0
H562 H 0.55065 0.4115 0.69682 0.0
C563 C 0.53159 0.37977 0.81275 0.0
C564 C 0.56077 0.41656 0.76877 0.0
H565 H 0.56715 0.47242 0.73776 0.0
C566 C 0.56815 0.39453 0.75615 0.0
C567 C 0.56 0.44496 0.76204 0.0
C568 C 0.5513 0.46933 0.77483 0.0
C569 C 0.57571 0.40017 0.73711 0.0
C570 C 0.57522 0.42861 0.73039 0.0
C571 C 0.56741 0.45064 0.74293 0.0
C572 C 0.58406 0.43583 0.71061 0.0
C573 C 0.58528 0.37572 0.72462 0.0
C574 C 0.60809 0.45302 0.70753 0.0
C575 C 0.61853 0.45722 0.68901 0.0
C576 C 0.60513 0.44424 0.67322 0.0
C577 C 0.58013 0.42832 0.67629 0.0
C578 C 0.56962 0.4243 0.6948 0.0
H579 H 0.59103 0.35663 0.73319 0.0
H580 H 0.56767 0.36968 0.7148 0.0
H581 H 0.60398 0.38189 0.71582 0.0
H582 H 0.61945 0.46226 0.71954 0.0
H583 H 0.63776 0.4697 0.68719 0.0
H584 H 0.08073 0.57556 0.66587 0.0
H585 H 0.08785 0.55948 0.6987 0.0
H586 H 0.03375 0.62719 0.71914 0.0
H587 H 0.02628 0.64347 0.6862 0.0
H588 H 0.11295 0.59459 0.72666 0.0
H589 H 0.00604 0.55677 0.74946 0.0
H590 H 0.01573 0.5609 0.72459 0.0
H591 H 0.00675 0.59156 0.73873 0.0
C592 C 0.06991 0.58683 0.67727 0.0
C593 C 0.05304 0.61096 0.67337 0.0
C594 C 0.07402 0.57756 0.69604 0.0
C595 C 0.06121 0.59202 0.71133 0.0
C596 C 0.04347 0.61544 0.70751 0.0
H597 H 0.08104 0.591 0.83392 0.0
H598 H 0.0652 0.59722 0.80091 0.0
C599 C 0.03932 0.62479 0.68867 0.0
C600 C 0.06878 0.58425 0.73125 0.0
H601 H 0.04139 0.56104 0.77373 0.0
C602 C 0.09736 0.58702 0.73692 0.0
C603 C 0.04834 0.57459 0.7446 0.0
C604 C 0.01751 0.57052 0.73907 0.0
C605 C 0.10602 0.58097 0.7557 0.0
C606 C 0.08562 0.57122 0.76909 0.0
C607 C 0.05701 0.56833 0.76341 0.0
C608 C 0.09348 0.56524 0.78926 0.0
C609 C 0.13676 0.58603 0.76119 0.0
C610 C 0.11407 0.54456 0.79377 0.0
C611 C 0.12338 0.54105 0.81266 0.0
C612 C 0.11204 0.55799 0.82742 0.0
C613 C 0.09037 0.57767 0.82293 0.0
C614 C 0.08121 0.58124 0.80405 0.0
H615 H 0.14781 0.60005 0.75076 0.0
H616 H 0.13836 0.59586 0.77562 0.0
H617 H 0.1482 0.56534 0.76154 0.0
H618 H 0.12337 0.53153 0.7826 0.0
H619 H 0.13987 0.52551 0.81561 0.0
H620 H 0.86286 0.01402 0.68535 0.0
H621 H 0.88059 0.01909 0.71816 0.0
H622 H 0.93064 0.09178 0.70117 0.0
H623 H 0.91337 0.08681 0.66836 0.0
H624 H 0.95906 0.05349 0.72721 0.0
H625 H 0.8509 0.08534 0.75184 0.0
H626 H 0.85299 0.0518 0.73952 0.0
H627 H 0.86049 0.08422 0.72686 0.0
C628 C 0.87793 0.03087 0.68851 0.0
C629 C 0.8864 0.05021 0.67422 0.0
C630 C 0.88795 0.03378 0.70729 0.0
C631 C 0.90655 0.05609 0.71213 0.0
C632 C 0.9162 0.07449 0.69774 0.0
H633 H 0.97525 0.1364 0.81331 0.0
H634 H 0.96746 0.11792 0.781 0.0
C635 C 0.90621 0.07163 0.67898 0.0
C636 C 0.91454 0.06153 0.73235 0.0
H637 H 0.887 0.08312 0.77513 0.0
C638 C 0.94334 0.05982 0.73775 0.0
C639 C 0.89396 0.06989 0.74601 0.0
C640 C 0.86287 0.07319 0.74083 0.0
C641 C 0.9521 0.06614 0.75654 0.0
C642 C 0.93155 0.07494 0.77013 0.0
C643 C 0.90272 0.07626 0.76474 0.0
C644 C 0.93927 0.08388 0.78986 0.0
C645 C 0.98318 0.06309 0.76171 0.0
C646 C 0.92605 0.07095 0.80562 0.0
C647 C 0.9302 0.08166 0.82407 0.0
C648 C 0.94764 0.10562 0.82718 0.0
C649 C 0.96181 0.11784 0.81147 0.0
C650 C 0.95751 0.10718 0.79296 0.0
H651 H 0.99433 0.04826 0.75183 0.0
H652 H 0.9937 0.08419 0.7606 0.0
H653 H 0.98582 0.05523 0.7766 0.0
H654 H 0.91183 0.05301 0.80356 0.0
H655 H 0.91903 0.07162 0.83583 0.0
H656 H 0.44999 0.11739 0.43393 0.0
H657 H 0.40182 0.09668 0.43556 0.0
H658 H 0.41561 0.05503 0.38131 0.0
H659 H 0.46322 0.07564 0.37957 0.0
H660 H 0.36086 0.10915 0.40551 0.0
H661 H 0.3774 0.99302 0.41455 0.0
H662 H 0.40402 0.01908 0.42116 0.0
H663 H 0.39975 0.00867 0.39655 0.0
C664 C 0.44299 0.10303 0.42272 0.0
C665 C 0.46017 0.09806 0.40662 0.0
C666 C 0.4155 0.09141 0.4236 0.0
C667 C 0.40532 0.07424 0.40859 0.0
C668 C 0.42322 0.06788 0.39315 0.0
H669 H 0.25344 -0.00198 0.36411 0.0
H670 H 0.30038 0.01952 0.3689 0.0
C671 C 0.45037 0.07973 0.39215 0.0
C672 C 0.37506 0.06563 0.4076 0.0
H673 H 0.33234 0.00756 0.40168 0.0
C674 C 0.35444 0.08696 0.40501 0.0
C675 C 0.36696 0.0367 0.40674 0.0
C676 C 0.38815 0.01302 0.41007 0.0
C677 C 0.32602 0.08005 0.40071 0.0
C678 C 0.3181 0.05107 0.39929 0.0
C679 C 0.33858 0.02978 0.40251 0.0
C680 C 0.28863 0.04212 0.39472 0.0
C681 C 0.30502 0.10377 0.39698 0.0
C682 C 0.26627 0.04856 0.40726 0.0
C683 C 0.23937 0.03652 0.40448 0.0
C684 C 0.23445 0.0175 0.38923 0.0
C685 C 0.25644 0.01257 0.37598 0.0
C686 C 0.28334 0.02469 0.37877 0.0
H687 H 0.31594 0.12421 0.39373 0.0
H688 H 0.29065 0.09835 0.38486 0.0
H689 H 0.29171 0.10702 0.4099 0.0
H690 H 0.26998 0.06164 0.41979 0.0
H691 H 0.22295 0.04083 0.41498 0.0
H692 H 0.37825 0.44484 0.43004 0.0
H693 H 0.39526 0.39529 0.42793 0.0
H694 H 0.40608 0.4048 0.36696 0.0
H695 H 0.38888 0.45349 0.36886 0.0
H696 H 0.37661 0.35583 0.37662 0.0
H697 H 0.47688 0.3673 0.41883 0.0
H698 H 0.44433 0.3778 0.43042 0.0
H699 H 0.45713 0.39773 0.41027 0.0
C700 C 0.38464 0.43637 0.41627 0.0
C701 C 0.38214 0.45298 0.39962 0.0
C702 C 0.39426 0.40811 0.41507 0.0
C703 C 0.40184 0.3964 0.39726 0.0
C704 C 0.40005 0.4133 0.38081 0.0
H705 H 0.51308 0.26713 0.36117 0.0
H706 H 0.48442 0.30963 0.36698 0.0
C707 C 0.39031 0.4412 0.38195 0.0
C708 C 0.41167 0.36658 0.39524 0.0
H709 H 0.46845 0.32322 0.40411 0.0
C710 C 0.39651 0.34848 0.38282 0.0
C711 C 0.43765 0.3572 0.40331 0.0
C712 C 0.45514 0.37598 0.41636 0.0
C713 C 0.40737 0.32176 0.37749 0.0
C714 C 0.43382 0.31283 0.38506 0.0
C715 C 0.44822 0.33029 0.39825 0.0
C716 C 0.44832 0.28661 0.37846 0.0
C717 C 0.39127 0.30401 0.36307 0.0
C718 C 0.43689 0.25949 0.38207 0.0
C719 C 0.45311 0.23503 0.37837 0.0
C720 C 0.48104 0.23758 0.37134 0.0
C721 C 0.49157 0.26463 0.36654 0.0
C722 C 0.47532 0.2889 0.37 0.0
H723 H 0.37399 0.3163 0.35596 0.0
H724 H 0.40593 0.29569 0.35193 0.0
H725 H 0.38147 0.28551 0.37043 0.0
H726 H 0.41623 0.25728 0.3888 0.0
H727 H 0.44474 0.21442 0.3825 0.0
H728 H 0.0588 0.3488 0.37874 0.0
H729 H 0.10358 0.37438 0.37406 0.0
H730 H 0.07724 0.43784 0.41497 0.0
H731 H 0.03219 0.41221 0.41993 0.0
H732 H 0.09601 0.45556 0.37371 0.0
H733 H 0.17231 0.38722 0.41413 0.0
H734 H 0.14592 0.36999 0.39936 0.0
H735 H 0.13492 0.38923 0.42024 0.0
C736 C 0.06262 0.368 0.38696 0.0
C737 C 0.0419 0.37855 0.39968 0.0
C738 C 0.08825 0.38251 0.38428 0.0
C739 C 0.0936 0.40788 0.39419 0.0
C740 C 0.0734 0.41818 0.40726 0.0
H741 H 0.21957 0.53961 0.38933 0.0
H742 H 0.17605 0.51167 0.39096 0.0
C743 C 0.04778 0.40347 0.41013 0.0
C744 C 0.11956 0.42444 0.3899 0.0
H745 H 0.19162 0.42531 0.39643 0.0
C746 C 0.11695 0.44907 0.3787 0.0
C747 C 0.14675 0.41548 0.39614 0.0
C748 C 0.15039 0.38911 0.40822 0.0
C749 C 0.14098 0.46514 0.37357 0.0
C750 C 0.16819 0.45668 0.38028 0.0
C751 C 0.17077 0.43173 0.39126 0.0
C752 C 0.19396 0.4744 0.37727 0.0
C753 C 0.13698 0.49076 0.36081 0.0
C754 C 0.21867 0.46273 0.36906 0.0
C755 C 0.24389 0.47865 0.36826 0.0
C756 C 0.24483 0.50642 0.37581 0.0
C757 C 0.21968 0.51833 0.38333 0.0
C758 C 0.19462 0.50243 0.38417 0.0
H759 H 0.11751 0.48865 0.35183 0.0
H760 H 0.13443 0.51005 0.36983 0.0
H761 H 0.15562 0.49394 0.35127 0.0
H762 H 0.21863 0.44106 0.36372 0.0
H763 H 0.26289 0.46878 0.36247 0.0
H764 H 0.09756 0.04172 0.42963 0.0
H765 H 0.07083 0.08569 0.42416 0.0
H766 H 0.03493 0.04982 0.37259 0.0
H767 H 0.06049 0.00541 0.37848 0.0
H768 H 0.07803 0.12061 0.39548 0.0
H769 H 0.9654 0.08511 0.39469 0.0
H770 H 0.99394 0.06253 0.40301 0.0
H771 H 0.98693 0.06614 0.37777 0.0
C772 C 0.08335 0.04296 0.41742 0.0
C773 C 0.081 0.02008 0.40455 0.0
C774 C 0.06821 0.06814 0.41424 0.0
C775 C 0.05071 0.07106 0.39801 0.0
C776 C 0.04768 0.0479 0.38546 0.0
H777 H 0.00603 0.24501 0.35999 0.0
H778 H 0.02634 0.19676 0.36019 0.0
C779 C 0.06238 0.0225 0.38883 0.0
C780 C 0.03757 0.09906 0.39354 0.0
H781 H 0.97446 0.13207 0.38357 0.0
C782 C 0.05535 0.12314 0.39295 0.0
C783 C 0.008 0.10233 0.39018 0.0
C784 C 0.98743 0.07769 0.39163 0.0
C785 C 0.04434 0.15047 0.3896 0.0
C786 C 0.01482 0.15371 0.38599 0.0
C787 C 0.99714 0.12953 0.38611 0.0
C788 C 0.00128 0.18218 0.3843 0.0
C789 C 0.06428 0.17566 0.39084 0.0
C790 C 0.9796 0.18956 0.39714 0.0
C791 C 0.96762 0.21666 0.39677 0.0
C792 C 0.9772 0.23727 0.38365 0.0
C793 C -0.00161 0.2297 0.37038 0.0
C794 C 0.01014 0.20223 0.37057 0.0
H795 H 0.08456 0.17013 0.39821 0.0
H796 H 0.06962 0.18294 0.37617 0.0
H797 H 0.0542 0.19365 0.39862 0.0
H798 H 0.97238 0.17453 0.40785 0.0
H799 H 0.95137 0.22164 0.40725 0.0
H800 H 0.98809 0.93723 0.12128 0.0
H801 H 0.94119 0.95783 0.1282 0.0
H802 H 0.90439 0.90907 0.08206 0.0
H803 H 0.95092 0.88831 0.07508 0.0
H804 H 0.89733 0.98687 0.10482 0.0
H805 H 0.86393 0.88091 0.13199 0.0
H806 H 0.90084 0.89032 0.12825 0.0
H807 H 0.87873 0.88042 0.10829 0.0
C808 C 0.97018 0.93149 0.11226 0.0
C809 C 0.97315 0.91081 0.0978 0.0
C810 C 0.94339 0.94316 0.11631 0.0
C811 C 0.91933 0.93434 0.10594 0.0
C812 C 0.92268 0.91564 0.09047 0.0
H813 H 0.74032 0.95451 0.10006 0.0
H814 H 0.78988 0.9388 0.0995 0.0
C815 C 0.94932 0.90393 0.08645 0.0
C816 C 0.89038 0.94288 0.112 0.0
H817 H 0.82722 0.91536 0.12766 0.0
C818 C 0.88205 0.9714 0.11006 0.0
C819 C 0.87068 0.92257 0.11896 0.0
C820 C 0.87899 0.89188 0.12219 0.0
C821 C 0.85393 0.97989 0.11396 0.0
C822 C 0.83395 0.95933 0.12027 0.0
C823 C 0.84262 0.93102 0.12284 0.0
C824 C 0.8034 0.96631 0.12264 0.0
C825 C 0.84547 0.01047 0.11047 0.0
C826 C 0.79435 0.98597 0.13648 0.0
C827 C 0.76592 0.99496 0.13692 0.0
C828 C 0.74616 0.98443 0.12346 0.0
C829 C 0.75498 0.96321 0.11054 0.0
C830 C 0.78333 0.95422 0.11017 0.0
H831 H 0.86204 0.02237 0.10242 0.0
H832 H 0.82511 0.01154 0.10235 0.0
H833 H 0.8422 0.02131 0.12441 0.0
H834 H 0.80947 0.9951 0.14649 0.0
H835 H 0.75986 0.01128 0.14709 0.0
H836 H 0.4398 0.77537 0.11512 0.0
H837 H 0.46352 0.82126 0.11141 0.0
H838 H 0.54208 0.78486 0.13215 0.0
H839 H 0.51855 0.73859 0.13594 0.0
H840 H 0.52745 0.84305 0.1459 0.0
H841 H 0.52314 0.82988 0.0668 0.0
H842 H 0.48987 0.82546 0.07919 0.0
H843 H 0.51826 0.80048 0.08313 0.0
C844 C 0.46201 0.77713 0.11922 0.0
C845 C 0.47738 0.75316 0.1256 0.0
C846 C 0.47553 0.80337 0.11701 0.0
C847 C 0.50462 0.80618 0.12113 0.0
C848 C 0.51962 0.78294 0.12876 0.0
H849 H 0.6255 0.93366 0.08416 0.0
H850 H 0.59841 0.8899 0.08961 0.0
C851 C 0.5061 0.75657 0.13098 0.0
C852 C 0.51967 0.83287 0.11633 0.0
H853 H 0.54055 0.87389 0.07851 0.0
C854 C 0.53034 0.84985 0.1312 0.0
C855 C 0.52359 0.84139 0.09709 0.0
C856 C 0.51335 0.82331 0.08058 0.0
C857 C 0.54456 0.87552 0.12732 0.0
C858 C 0.54793 0.88435 0.1081 0.0
C859 C 0.53763 0.86713 0.09322 0.0
C860 C 0.56284 0.91108 0.10319 0.0
C861 C 0.55623 0.89281 0.14377 0.0
C862 C 0.55121 0.93748 0.10836 0.0
C863 C 0.56651 0.96256 0.10517 0.0
C864 C 0.59378 0.96162 0.09678 0.0
C865 C 0.60465 0.93517 0.09071 0.0
C866 C 0.58925 0.91013 0.09384 0.0
H867 H 0.5569 0.88037 0.15729 0.0
H868 H 0.57807 0.90054 0.14051 0.0
H869 H 0.54243 0.9117 0.14609 0.0
H870 H 0.5306 0.93862 0.1153 0.0
H871 H 0.55742 0.98252 0.10998 0.0
H872 H 0.55818 0.64438 0.12167 0.0
H873 H 0.6033 0.61901 0.12519 0.0
H874 H 0.57274 0.5528 0.08762 0.0
H875 H 0.52726 0.5783 0.08385 0.0
H876 H 0.59467 0.5373 0.12788 0.0
H877 H 0.66884 0.6032 0.08429 0.0
H878 H 0.64415 0.62173 0.09958 0.0
H879 H 0.63096 0.60175 0.07956 0.0
C880 C 0.56116 0.62464 0.11389 0.0
C881 C 0.53914 0.61326 0.10251 0.0
C882 C 0.58699 0.61025 0.11589 0.0
C883 C 0.59128 0.58416 0.10664 0.0
C884 C 0.56975 0.57304 0.0948 0.0
H885 H 0.71888 0.45364 0.11368 0.0
H886 H 0.6751 0.48102 0.1113 0.0
C887 C 0.54391 0.58766 0.09258 0.0
C888 C 0.61743 0.56765 0.11062 0.0
H889 H 0.68931 0.56701 0.10334 0.0
C890 C 0.61538 0.54363 0.12244 0.0
C891 C 0.64435 0.57643 0.10381 0.0
C892 C 0.64742 0.60209 0.091 0.0
C893 C 0.6397 0.52809 0.12773 0.0
C894 C 0.66665 0.53645 0.12058 0.0
C895 C 0.66867 0.5607 0.10888 0.0
C896 C 0.69271 0.51927 0.12393 0.0
C897 C 0.63632 0.50321 0.14121 0.0
C898 C 0.71737 0.53168 0.13179 0.0
C899 C 0.74276 0.51606 0.13304 0.0
C900 C 0.74391 0.48786 0.12627 0.0
C901 C 0.71884 0.47528 0.11907 0.0
C902 C 0.69362 0.49087 0.11779 0.0
H903 H 0.61697 0.50554 0.15023 0.0
H904 H 0.63394 0.48334 0.13274 0.0
H905 H 0.65517 0.5009 0.15072 0.0
H906 H 0.71713 0.55365 0.13653 0.0
H907 H 0.7617 0.52643 0.13855 0.0
H908 H 0.95558 0.77263 0.0892 0.0
H909 H 0.93105 0.72701 0.08656 0.0
H910 H 0.97419 0.69713 0.13727 0.0
H911 H -0.00076 0.74269 0.13995 0.0
H912 H 0.97972 0.66108 0.10499 0.0
H913 H 0.8667 0.69074 0.11803 0.0
H914 H 0.88469 0.71197 0.1004 0.0
H915 H 0.89613 0.71334 0.12493 0.0
C916 C 0.95947 0.75662 0.10005 0.0
C917 C 0.97951 0.7613 0.11476 0.0
C918 C 0.94534 0.73056 0.09852 0.0
C919 C 0.95078 0.70878 0.11173 0.0
C920 C 0.96974 0.71376 0.12693 0.0
H921 H 0.86924 0.55045 0.13192 0.0
H922 H 0.88944 0.59798 0.13178 0.0
C923 C 0.9839 0.73986 0.12851 0.0
C924 C 0.93836 0.68014 0.10886 0.0
H925 H 0.87545 0.64378 0.1071 0.0
C926 C 0.95693 0.65724 0.10543 0.0
C927 C 0.90864 0.67535 0.10938 0.0
C928 C 0.88783 0.69906 0.11354 0.0
C929 C 0.94654 0.62949 0.10274 0.0
C930 C 0.91681 0.6247 0.10327 0.0
C931 C 0.89823 0.64766 0.10648 0.0
C932 C 0.90471 0.59564 0.10266 0.0
C933 C 0.96741 0.60538 0.09999 0.0
C934 C 0.90658 0.57849 0.08622 0.0
C935 C 0.89499 0.55095 0.08619 0.0
C936 C 0.88135 0.54031 0.10262 0.0
C937 C 0.87958 0.55778 0.11898 0.0
C938 C 0.89105 0.58508 0.11896 0.0
H939 H 0.98972 0.61202 0.10298 0.0
H940 H 0.96196 0.58721 0.10947 0.0
H941 H 0.96623 0.59778 0.08497 0.0
H942 H 0.91683 0.58646 0.07341 0.0
H943 H 0.89661 0.5381 0.07336 0.0
H944 H 0.71789 0.03211 0.62274 0.0
H945 H 0.6742 0.00414 0.62081 0.0
H946 H 0.72297 0.92669 0.62633 0.0
H947 H 0.76719 0.95473 0.62826 0.0
H948 H 0.6841 0.93046 0.59331 0.0
H949 H 0.63168 0.95704 0.66228 0.0
H950 H 0.64516 0.98715 0.64925 0.0
H951 H 0.66958 0.96108 0.65853 0.0
C952 C 0.71933 0.00914 0.62393 0.0
C953 C 0.74594 0.99557 0.62564 0.0
C954 C 0.69433 0.99322 0.62286 0.0
C955 C 0.69543 0.96344 0.62347 0.0
C956 C 0.72181 0.94973 0.62589 0.0
H957 H 0.55015 0.85273 0.62891 0.0
H958 H 0.59634 0.87554 0.63211 0.0
C959 C 0.74695 0.96573 0.62714 0.0
C960 C 0.66908 0.94689 0.62026 0.0
H961 H 0.60273 0.93518 0.63847 0.0
C962 C 0.66635 0.93122 0.60323 0.0
C963 C 0.64605 0.94812 0.63323 0.0
C964 C 0.64822 0.96405 0.65194 0.0
C965 C 0.64086 0.91704 0.59869 0.0
C966 C 0.61762 0.91885 0.61146 0.0
C967 C 0.62055 0.93415 0.62862 0.0
C968 C 0.59049 0.90371 0.60796 0.0
C969 C 0.63898 0.90002 0.58042 0.0
C970 C 0.57199 0.91178 0.59307 0.0
C971 C 0.54524 0.89871 0.59115 0.0
C972 C 0.53669 0.8776 0.60421 0.0
C973 C 0.55581 0.86912 0.6187 0.0
C974 C 0.58233 0.88208 0.62056 0.0
H975 H 0.66025 0.89672 0.5738 0.0
H976 H 0.62908 0.87892 0.58316 0.0
H977 H 0.62528 0.91152 0.57001 0.0
H978 H 0.57789 0.92871 0.58333 0.0
H979 H 0.531 0.90573 0.57988 0.0
H980 H 0.58181 0.52779 0.5789 0.0
H981 H 0.55411 0.57209 0.58148 0.0
H982 H 0.61275 0.60331 0.62421 0.0
H983 H 0.6403 0.55939 0.62185 0.0
H984 H 0.53075 0.59098 0.61968 0.0
H985 H 0.60158 0.67031 0.58461 0.0
H986 H 0.60314 0.63267 0.57925 0.0
H987 H 0.61844 0.64605 0.60104 0.0
C988 C 0.58907 0.54437 0.58853 0.0
C989 C 0.6131 0.54014 0.60023 0.0
C990 C 0.57321 0.56952 0.59004 0.0
C991 C 0.58157 0.59085 0.60297 0.0
C992 C 0.60619 0.58715 0.61403 0.0
H993 H 0.51652 0.75513 0.63893 0.0
H994 H 0.54378 0.71079 0.63629 0.0
C995 C 0.6218 0.562 0.61271 0.0
C996 C 0.56349 0.61605 0.60622 0.0
H997 H 0.56248 0.68839 0.60226 0.0
C998 C 0.53748 0.6123 0.61574 0.0
C999 C 0.57273 0.64371 0.60133 0.0
C1000 C 0.60041 0.64859 0.59087 0.0
C1001 C 0.52052 0.63571 0.62079 0.0
C1002 C 0.52963 0.66343 0.61577 0.0
C1003 C 0.55566 0.66711 0.6062 0.0
C1004 C 0.51186 0.68887 0.6194 0.0
C1005 C 0.49339 0.63056 0.63185 0.0
C1006 C 0.48476 0.69096 0.61107 0.0
C1007 C 0.4691 0.71606 0.61266 0.0
C1008 C 0.48041 0.73976 0.62241 0.0
C1009 C 0.50716 0.73727 0.63137 0.0
C1010 C 0.52281 0.71202 0.62981 0.0
H1011 H 0.49409 0.60995 0.63966 0.0
H1012 H 0.48938 0.64792 0.64231 0.0
H1013 H 0.47516 0.62973 0.62172 0.0
H1014 H 0.47616 0.67358 0.60265 0.0
H1015 H 0.44859 0.7172 0.60555 0.0
H1016 H 0.96861 0.57338 0.58388 0.0
H1017 H 0.92361 0.54743 0.58858 0.0
H1018 H 0.89318 0.61468 0.62529 0.0
H1019 H 0.93778 0.64054 0.62083 0.0
H1020 H 0.90211 0.53344 0.62943 0.0
H1021 H 0.82786 0.5971 0.5842 0.0
H1022 H 0.86574 0.5954 0.57959 0.0
H1023 H 0.85255 0.61641 0.59911 0.0
C1024 C 0.95211 0.58281 0.59267 0.0
C1025 C 0.95671 0.60889 0.60205 0.0
C1026 C 0.92657 0.56795 0.5954 0.0
C1027 C 0.90525 0.57929 0.60723 0.0
C1028 C 0.9094 0.60575 0.61602 0.0
H1029 H 0.73491 0.5246 0.63904 0.0
H1030 H 0.7801 0.55069 0.63763 0.0
C1031 C 0.93491 0.62041 0.61349 0.0
C1032 C 0.87926 0.5629 0.61148 0.0
H1033 H 0.80745 0.56197 0.60407 0.0
C1034 C 0.88138 0.53949 0.62383 0.0
C1035 C 0.85237 0.57135 0.6044 0.0
C1036 C 0.84928 0.59634 0.59099 0.0
C1037 C 0.85708 0.52423 0.62942 0.0
C1038 C 0.83016 0.53233 0.62206 0.0
C1039 C 0.8281 0.55593 0.60979 0.0
C1040 C 0.80409 0.51551 0.62574 0.0
C1041 C 0.86043 0.49994 0.64338 0.0
C1042 C 0.80284 0.48697 0.61993 0.0
C1043 C 0.77724 0.47202 0.62084 0.0
C1044 C 0.75222 0.48543 0.62732 0.0
C1045 C 0.75379 0.51364 0.63402 0.0
C1046 C 0.77954 0.5286 0.63315 0.0
H1047 H 0.87987 0.50255 0.65232 0.0
H1048 H 0.84164 0.49818 0.65296 0.0
H1049 H 0.8626 0.4797 0.63531 0.0
H1050 H 0.82134 0.47663 0.6138 0.0
H1051 H 0.77684 0.45031 0.61558 0.0
H1052 H 0.91976 0.97275 0.57724 0.0
H1053 H 0.94718 0.92798 0.57797 0.0
H1054 H 0.88401 0.89065 0.61506 0.0
H1055 H 0.85684 0.93482 0.61449 0.0
H1056 H 0.96723 0.90303 0.61458 0.0
H1057 H 0.89828 0.8295 0.57285 0.0
H1058 H 0.89665 0.86777 0.57024 0.0
H1059 H 0.87981 0.85074 0.59028 0.0
C1060 C 0.91152 0.95474 0.58519 0.0
C1061 C 0.8863 0.95724 0.59588 0.0
C1062 C 0.92719 0.92932 0.58566 0.0
C1063 C 0.91742 0.90606 0.59647 0.0
C1064 C 0.89168 0.90824 0.60645 0.0
H1065 H 0.97301 0.73813 0.63104 0.0
H1066 H 0.94788 0.78367 0.62752 0.0
C1067 C 0.8763 0.93356 0.60619 0.0
C1068 C 0.93496 0.88022 0.59889 0.0
H1069 H 0.93384 0.80819 0.59258 0.0
C1070 C 0.96022 0.8823 0.60956 0.0
C1071 C 0.92538 0.85328 0.59257 0.0
C1072 C 0.89866 0.85008 0.58071 0.0
C1073 C 0.97583 0.85793 0.61457 0.0
C1074 C 0.96613 0.83091 0.60838 0.0
C1075 C 0.94106 0.82891 0.59746 0.0
C1076 C 0.98227 0.80449 0.61235 0.0
C1077 C 0.00204 0.86125 0.62693 0.0
C1078 C 0.00997 0.80134 0.60522 0.0
C1079 C 0.02436 0.77557 0.6073 0.0
C1080 C 0.01122 0.75224 0.61637 0.0
C1081 C 0.98377 0.75571 0.62407 0.0
C1082 C 0.96935 0.78163 0.62199 0.0
H1083 H 0.00173 0.88163 0.63503 0.0
H1084 H 0.00404 0.84338 0.63726 0.0
H1085 H 0.02125 0.86131 0.61769 0.0
H1086 H 0.02011 0.81849 0.59742 0.0
H1087 H 0.04548 0.7737 0.60118 0.0
H1088 H 0.02727 0.07865 0.92494 0.0
H1089 H 0.07129 0.05009 0.92422 0.0
H1090 H 0.10623 0.1063 0.88147 0.0
H1091 H 0.06272 0.13461 0.882 0.0
H1092 H 0.09302 0.02432 0.88774 0.0
H1093 H 0.17024 0.09714 0.92311 0.0
H1094 H 0.1322 0.09941 0.92696 0.0
H1095 H 0.14762 0.11343 0.90542 0.0
C1096 C 0.04459 0.08515 0.91568 0.0
C1097 C 0.04157 0.10874 0.90347 0.0
C1098 C 0.06958 0.06881 0.91523 0.0
C1099 C 0.09193 0.0763 0.90287 0.0
C1100 C 0.08931 0.10041 0.89124 0.0
H1101 H 0.25695 0.0144 0.86803 0.0
H1102 H 0.21165 0.03998 0.87096 0.0
C1103 C 0.06437 0.11646 0.8915 0.0
C1104 C 0.1173 0.05802 0.90084 0.0
H1105 H 0.18965 0.05843 0.90547 0.0
C1106 C 0.11415 0.03151 0.89182 0.0
C1107 C 0.14473 0.0678 0.90596 0.0
C1108 C 0.14903 0.09591 0.91604 0.0
C1109 C 0.13798 0.01478 0.88725 0.0
C1110 C 0.1655 0.02469 0.89221 0.0
C1111 C 0.16853 0.05103 0.90153 0.0
C1112 C 0.19147 0.00776 0.88847 0.0
C1113 C 0.13353 0.98714 0.87662 0.0
C1114 C 0.19486 0.98101 0.89704 0.0
C1115 C 0.22053 0.9663 0.89529 0.0
C1116 C 0.2435 0.97823 0.88512 0.0
C1117 C 0.23968 0.00458 0.87591 0.0
C1118 C 0.21388 0.01927 0.87764 0.0
H1119 H 0.11264 0.98673 0.86909 0.0
H1120 H 0.15071 0.9835 0.86599 0.0
H1121 H 0.13381 0.96924 0.88699 0.0
H1122 H 0.17806 0.97199 0.90576 0.0
H1123 H 0.2227 0.94607 0.9026 0.0
H1124 H 0.35668 0.05111 0.87492 0.0
H1125 H 0.37995 0.09678 0.87009 0.0
H1126 H 0.43546 0.08043 0.91807 0.0
H1127 H 0.41217 0.0341 0.92315 0.0
H1128 H 0.40897 0.13907 0.91452 0.0
H1129 H 0.46433 0.10018 0.84918 0.0
H1130 H 0.42664 0.09333 0.85026 0.0
H1131 H 0.4501 0.07639 0.8671 0.0
C1132 C 0.37375 0.05711 0.88458 0.0
C1133 C 0.38285 0.03874 0.8993 0.0
C1134 C 0.38698 0.08327 0.88175 0.0
C1135 C 0.4096 0.09162 0.89353 0.0
C1136 C 0.41806 0.07409 0.90879 0.0
H1137 H 0.53636 0.21961 0.8779 0.0
H1138 H 0.50866 0.17584 0.88033 0.0
C1139 C 0.40476 0.04772 0.91167 0.0
C1140 C 0.4249 0.11827 0.88927 0.0
H1141 H 0.46771 0.14947 0.85588 0.0
C1142 C 0.42186 0.14144 0.90175 0.0
C1143 C 0.44165 0.12104 0.87258 0.0
C1144 C 0.44615 0.0964 0.85903 0.0
C1145 C 0.43516 0.16757 0.89788 0.0
C1146 C 0.45156 0.17048 0.88101 0.0
C1147 C 0.45471 0.14721 0.86862 0.0
C1148 C 0.46783 0.19667 0.87697 0.0
C1149 C 0.43218 0.19164 0.91206 0.0
C1150 C 0.45399 0.22266 0.8734 0.0
C1151 C 0.46982 0.24782 0.87189 0.0
C1152 C 0.49961 0.24717 0.87405 0.0
C1153 C 0.51339 0.22079 0.87636 0.0
C1154 C 0.49764 0.19577 0.87775 0.0
H1155 H 0.423 0.18435 0.92587 0.0
H1156 H 0.45321 0.20168 0.91491 0.0
H1157 H 0.41788 0.20818 0.906 0.0
H1158 H 0.43095 0.22359 0.87246 0.0
H1159 H 0.45866 0.26786 0.87015 0.0
H1160 H 0.43564 0.35716 0.88502 0.0
H1161 H 0.39134 0.38427 0.884 0.0
H1162 H 0.42709 0.4463 0.92275 0.0
H1163 H 0.47191 0.41898 0.92396 0.0
H1164 H 0.35418 0.4057 0.91624 0.0
H1165 H 0.40483 0.48851 0.87032 0.0
H1166 H 0.41975 0.45324 0.87287 0.0
H1167 H 0.42271 0.47834 0.89212 0.0
C1168 C 0.43401 0.37639 0.89354 0.0
C1169 C 0.45729 0.38617 0.90444 0.0
C1170 C 0.40867 0.39176 0.89297 0.0
C1171 C 0.40619 0.41732 0.90312 0.0
C1172 C 0.42883 0.42661 0.91474 0.0
H1173 H 0.27567 0.5462 0.89686 0.0
H1174 H 0.31952 0.51933 0.90114 0.0
C1175 C 0.45427 0.41098 0.9155 0.0
C1176 C 0.38043 0.43485 0.90036 0.0
H1177 H 0.35583 0.49324 0.87647 0.0
C1178 C 0.35446 0.42497 0.90768 0.0
C1179 C 0.38107 0.45976 0.88904 0.0
C1180 C 0.40849 0.47068 0.88049 0.0
C1181 C 0.32891 0.43958 0.90408 0.0
C1182 C 0.32942 0.4642 0.89239 0.0
C1183 C 0.35551 0.4742 0.88525 0.0
C1184 C 0.30329 0.48073 0.8882 0.0
C1185 C 0.30176 0.42881 0.91309 0.0
C1186 C 0.2799 0.46823 0.87882 0.0
C1187 C 0.25455 0.48355 0.87638 0.0
C1188 C 0.25236 0.51164 0.88321 0.0
C1189 C 0.27647 0.52451 0.89158 0.0
C1190 C 0.30163 0.5092 0.89405 0.0
H1191 H 0.30615 0.41432 0.92532 0.0
H1192 H 0.28839 0.44676 0.91824 0.0
H1193 H 0.28934 0.41673 0.90227 0.0
H1194 H 0.28106 0.44645 0.87375 0.0
H1195 H 0.23643 0.47307 0.86981 0.0
H1196 H 0.11334 0.45145 0.92884 0.0
H1197 H 0.09251 0.40352 0.92582 0.0
H1198 H 0.07775 0.41832 0.86566 0.0
H1199 H 0.09936 0.46526 0.86842 0.0
H1200 H 0.04171 0.384 0.91528 0.0
H1201 H 0.12104 0.34511 0.86326 0.0
H1202 H 0.12558 0.37811 0.87615 0.0
H1203 H 0.10443 0.37695 0.85458 0.0
C1204 C 0.1055 0.44439 0.91504 0.0
C1205 C 0.10831 0.46178 0.89881 0.0
C1206 C 0.09375 0.41705 0.9133 0.0
C1207 C 0.0845 0.407 0.89536 0.0
C1208 C 0.08581 0.42513 0.87946 0.0
H1209 H 0.96184 0.27633 0.87226 0.0
H1210 H 0.98881 0.32041 0.87656 0.0
C1211 C 0.09792 0.45206 0.8811 0.0
C1212 C 0.07286 0.37787 0.89305 0.0
H1213 H 0.07657 0.31919 0.86427 0.0
C1214 C 0.04956 0.36966 0.90431 0.0
C1215 C 0.08359 0.35882 0.87907 0.0
C1216 C 0.11025 0.36509 0.86776 0.0
C1217 C 0.03576 0.34355 0.90129 0.0
C1218 C 0.04487 0.32569 0.88611 0.0
C1219 C 0.06912 0.33321 0.87555 0.0
C1220 C 0.02936 0.2993 0.88093 0.0
C1221 C 0.01166 0.33536 0.91448 0.0
C1222 C 0.04362 0.27299 0.88033 0.0
C1223 C 0.02836 0.24781 0.87723 0.0
C1224 C -0.00138 0.24864 0.8749 0.0
C1225 C 0.98474 0.27513 0.8742 0.0
C1226 C 5e-05 0.30026 0.87692 0.0
H1227 H 0.01376 0.34599 0.92863 0.0
H1228 H 0.99112 0.34227 0.90809 0.0
H1229 H 0.01088 0.31197 0.91678 0.0
H1230 H 0.06632 0.27181 0.88312 0.0
H1231 H 0.03954 0.22764 0.87796 0.0
H1232 H 0.61265 0.24338 0.35236 0.0
H1233 H 0.65468 0.26974 0.34186 0.0
H1234 H 0.70731 0.19647 0.35401 0.0
H1235 H 0.66523 0.16969 0.36376 0.0
H1236 H 0.69392 0.28279 0.36622 0.0
H1237 H 0.74668 0.22536 0.30747 0.0
H1238 H 0.71009 0.21842 0.31403 0.0
H1239 H 0.73897 0.20088 0.32641 0.0
C1240 C 0.63312 0.23268 0.35231 0.0
C1241 C 0.63583 0.20464 0.35911 0.0
C1242 C 0.65706 0.24771 0.34619 0.0
C1243 C 0.68412 0.23505 0.34697 0.0
C1244 C 0.68659 0.20647 0.35274 0.0
H1245 H 0.8463 0.26516 0.38316 0.0
H1246 H 0.80098 0.24945 0.36973 0.0
C1247 C 0.66256 0.19126 0.35854 0.0
C1248 C 0.70999 0.25289 0.34542 0.0
H1249 H 0.77865 0.25132 0.32951 0.0
C1250 C 0.71216 0.2765 0.35769 0.0
C1251 C 0.73373 0.24479 0.33423 0.0
C1252 C 0.73208 0.22114 0.31965 0.0
C1253 C 0.73817 0.29051 0.36044 0.0
C1254 C 0.76248 0.28066 0.35058 0.0
C1255 C 0.75989 0.25859 0.33715 0.0
C1256 C 0.79119 0.28987 0.35641 0.0
C1257 C 0.74 0.31417 0.37505 0.0
C1258 C 0.80066 0.31774 0.35312 0.0
C1259 C 0.82655 0.32692 0.3609 0.0
C1260 C 0.8432 0.3083 0.37207 0.0
C1261 C 0.8339 0.28013 0.37479 0.0
C1262 C 0.80815 0.27101 0.36699 0.0
H1263 H 0.71946 0.31767 0.38259 0.0
H1264 H 0.75669 0.30925 0.38584 0.0
H1265 H 0.74608 0.33431 0.36783 0.0
H1266 H 0.78776 0.33251 0.34493 0.0
H1267 H 0.83325 0.34868 0.35841 0.0
H1268 H 0.26773 0.63472 0.36003 0.0
H1269 H 0.2514 0.68097 0.34822 0.0
H1270 H 0.33166 0.71854 0.36515 0.0
H1271 H 0.34861 0.67202 0.37574 0.0
H1272 H 0.24149 0.72217 0.36983 0.0
H1273 H 0.31953 0.7623 0.31777 0.0
H1274 H 0.31891 0.7254 0.32504 0.0
H1275 H 0.33823 0.75153 0.33891 0.0
C1276 C 0.28204 0.6528 0.3608 0.0
C1277 C 0.30928 0.65002 0.36892 0.0
C1278 C 0.27281 0.67915 0.35396 0.0
C1279 C 0.2904 0.70327 0.35554 0.0
C1280 C 0.318 0.70019 0.36311 0.0
H1281 H 0.24667 0.85969 0.39883 0.0
H1282 H 0.26832 0.81524 0.38806 0.0
C1283 C 0.32754 0.67367 0.36946 0.0
C1284 C 0.27831 0.7321 0.35255 0.0
H1285 H 0.29507 0.79909 0.33708 0.0
C1286 C 0.25285 0.73868 0.36212 0.0
C1287 C 0.29282 0.75381 0.34238 0.0
C1288 C 0.3187 0.74773 0.33028 0.0
C1289 C 0.24275 0.76661 0.36305 0.0
C1290 C 0.25892 0.78865 0.35466 0.0
C1291 C 0.28313 0.78206 0.34382 0.0
C1292 C 0.25224 0.81852 0.35911 0.0
C1293 C 0.21564 0.77259 0.37397 0.0
C1294 C 0.23741 0.83562 0.34601 0.0
C1295 C 0.2252 0.86127 0.3521 0.0
C1296 C 0.22748 0.86961 0.37138 0.0
C1297 C 0.24435 0.85351 0.38397 0.0
C1298 C 0.25681 0.82825 0.37782 0.0
H1299 H 0.20223 0.75319 0.37536 0.0
H1300 H 0.22113 0.7801 0.38859 0.0
H1301 H 0.20293 0.7895 0.36683 0.0
H1302 H 0.23366 0.82824 0.33153 0.0
H1303 H 0.21224 0.87336 0.34216 0.0
H1304 H 0.33842 0.72208 0.12349 0.0
H1305 H 0.29079 0.73304 0.13505 0.0
H1306 H 0.2845 0.64932 0.16013 0.0
H1307 H 0.33224 0.63788 0.14831 0.0
H1308 H 0.23965 0.66102 0.13776 0.0
H1309 H 0.25617 0.75182 0.18631 0.0
H1310 H 0.27505 0.75808 0.16445 0.0
H1311 H 0.28493 0.72834 0.1794 0.0
C1312 C 0.32716 0.70608 0.13169 0.0
C1313 C 0.33909 0.67905 0.13485 0.0
C1314 C 0.30002 0.71252 0.13852 0.0
C1315 C 0.28436 0.6922 0.14882 0.0
C1316 C 0.29641 0.6654 0.15242 0.0
H1317 H 0.11494 0.7696 0.16064 0.0
H1318 H 0.15403 0.73942 0.17239 0.0
C1319 C 0.32363 0.6589 0.14557 0.0
C1320 C 0.25414 0.69801 0.15334 0.0
H1321 H 0.2114 0.75269 0.16755 0.0
C1322 C 0.23333 0.68058 0.14487 0.0
C1323 C 0.24571 0.72303 0.16307 0.0
C1324 C 0.26671 0.74116 0.17401 0.0
C1325 C 0.20488 0.68945 0.14375 0.0
C1326 C 0.19736 0.71652 0.15099 0.0
C1327 C 0.21734 0.73216 0.16164 0.0
C1328 C 0.1715 0.73139 0.14427 0.0
C1329 C 0.18354 0.67069 0.13363 0.0
C1330 C 0.16857 0.73685 0.12464 0.0
C1331 C 0.14668 0.75418 0.11795 0.0
C1332 C 0.12723 0.76648 0.13078 0.0
C1333 C 0.1296 0.76033 0.15043 0.0
C1334 C 0.15181 0.74309 0.15716 0.0
H1335 H 0.18888 0.64782 0.13563 0.0
H1336 H 0.16154 0.67455 0.13889 0.0
H1337 H 0.18415 0.67522 0.11805 0.0
H1338 H 0.18398 0.72863 0.1145 0.0
H1339 H 0.14539 0.7584 0.10273 0.0
H1340 H 0.76564 0.36306 0.14595 0.0
H1341 H 0.74743 0.31824 0.1589 0.0
H1342 H 0.82491 0.27585 0.14141 0.0
H1343 H 0.8438 0.32097 0.12971 0.0
H1344 H 0.73429 0.27727 0.13811 0.0
H1345 H 0.81191 0.23356 0.18913 0.0
H1346 H 0.81312 0.27039 0.1817 0.0
H1347 H 0.83081 0.2431 0.16787 0.0
C1348 C 0.77896 0.34422 0.14531 0.0
C1349 C 0.80593 0.34521 0.13669 0.0
C1350 C 0.76867 0.31871 0.15282 0.0
C1351 C 0.78489 0.29364 0.15138 0.0
C1352 C 0.81232 0.29496 0.14335 0.0
H1353 H 0.73855 0.14114 0.10598 0.0
H1354 H 0.75767 0.18627 0.11751 0.0
C1355 C 0.82295 0.32066 0.13636 0.0
C1356 C 0.77135 0.26559 0.15477 0.0
H1357 H 0.78631 0.1977 0.1692 0.0
C1358 C 0.74529 0.2602 0.14553 0.0
C1359 C 0.78529 0.24317 0.16463 0.0
C1360 C 0.81166 0.24805 0.17656 0.0
C1361 C 0.73429 0.23264 0.1443 0.0
C1362 C 0.7501 0.20984 0.15207 0.0
C1363 C 0.77466 0.21532 0.16289 0.0
C1364 C 0.74319 0.18041 0.14662 0.0
C1365 C 0.70671 0.22785 0.13359 0.0
C1366 C 0.7299 0.16182 0.15949 0.0
C1367 C 0.71902 0.13582 0.15294 0.0
C1368 C 0.72118 0.12846 0.13346 0.0
C1369 C 0.7362 0.14643 0.12099 0.0
C1370 C 0.74722 0.17213 0.12755 0.0
H1371 H 0.6935 0.24749 0.13317 0.0
H1372 H 0.71157 0.22162 0.11862 0.0
H1373 H 0.69409 0.21047 0.14025 0.0
H1374 H 0.72668 0.16803 0.17426 0.0
H1375 H 0.70758 0.1223 0.16287 0.0
H1376 H 0.14655 0.66652 0.65736 0.0
H1377 H 0.18502 0.69132 0.67442 0.0
H1378 H 0.19137 0.75145 0.62788 0.0
H1379 H 0.15272 0.72761 0.61125 0.0
H1380 H 0.23776 0.69775 0.66538 0.0
H1381 H 0.19523 0.80559 0.67136 0.0
H1382 H 0.17233 0.77555 0.66622 0.0
H1383 H 0.18939 0.79504 0.64708 0.0
C1384 C 0.15613 0.68515 0.65088 0.0
C1385 C 0.14664 0.6952 0.633 0.0
C1386 C 0.17786 0.69942 0.66072 0.0
C1387 C 0.19036 0.72387 0.65278 0.0
C1388 C 0.18117 0.73347 0.63476 0.0
H1389 H 0.33959 0.76338 0.61694 0.0
H1390 H 0.29876 0.7425 0.63278 0.0
C1391 C 0.15937 0.71951 0.62508 0.0
C1392 C 0.21544 0.73761 0.6617 0.0
H1393 H 0.24696 0.80281 0.66119 0.0
C1394 C 0.23958 0.72078 0.66526 0.0
C1395 C 0.21781 0.76762 0.66267 0.0
C1396 C 0.19209 0.78685 0.66187 0.0
C1397 C 0.26667 0.73318 0.66632 0.0
C1398 C 0.26946 0.76277 0.66296 0.0
C1399 C 0.24499 0.77994 0.66292 0.0
C1400 C 0.29599 0.77477 0.65493 0.0
C1401 C 0.29219 0.71418 0.66938 0.0
C1402 C 0.30728 0.8007 0.66149 0.0
C1403 C 0.3304 0.8132 0.65204 0.0
C1404 C 0.34244 0.7999 0.63591 0.0
C1405 C 0.33099 0.77403 0.62942 0.0
C1406 C 0.30789 0.76179 0.63869 0.0
H1407 H 0.28722 0.69747 0.68012 0.0
H1408 H 0.29747 0.70315 0.65578 0.0
H1409 H 0.31111 0.7264 0.6743 0.0
H1410 H 0.29805 0.81136 0.67376 0.0
H1411 H 0.33891 0.83311 0.65742 0.0
H1412 H 0.75254 0.11491 0.64582 0.0
H1413 H 0.72581 0.15542 0.65857 0.0
H1414 H 0.79664 0.21092 0.64582 0.0
H1415 H 0.82403 0.17013 0.63398 0.0
H1416 H 0.7673 0.22749 0.67846 0.0
H1417 H 0.69302 0.20633 0.61763 0.0
H1418 H 0.69633 0.17833 0.63495 0.0
H1419 H 0.72632 0.18764 0.62021 0.0
C1420 C 0.76253 0.13572 0.64608 0.0
C1421 C 0.78999 0.13972 0.63856 0.0
C1422 C 0.7473 0.15875 0.65337 0.0
C1423 C 0.75899 0.18619 0.65261 0.0
C1424 C 0.78723 0.18986 0.64643 0.0
H1425 H 0.73212 0.35356 0.63157 0.0
H1426 H 0.74749 0.30824 0.64489 0.0
C1427 C 0.80278 0.16667 0.63958 0.0
C1428 C 0.74085 0.21146 0.65561 0.0
H1429 H 0.68716 0.24868 0.63428 0.0
C1430 C 0.7494 0.23195 0.66908 0.0
C1431 C 0.71737 0.21708 0.6434 0.0
C1432 C 0.70776 0.19635 0.62814 0.0
C1433 C 0.73619 0.25872 0.66981 0.0
C1434 C 0.71416 0.26497 0.65666 0.0
C1435 C 0.70405 0.24367 0.64436 0.0
C1436 C 0.70503 0.29439 0.65266 0.0
C1437 C 0.74675 0.28049 0.68402 0.0
C1438 C 0.676 0.30156 0.65256 0.0
C1439 C 0.66705 0.32741 0.64471 0.0
C1440 C 0.68703 0.34621 0.63662 0.0
C1441 C 0.71617 0.33942 0.63751 0.0
C1442 C 0.72507 0.31372 0.64543 0.0
H1443 H 0.75537 0.27003 0.69706 0.0
H1444 H 0.76429 0.29296 0.67745 0.0
H1445 H 0.72952 0.29545 0.68824 0.0
H1446 H 0.66022 0.28664 0.65782 0.0
H1447 H 0.64445 0.33213 0.64433 0.0
H1448 H 0.85845 0.23786 0.87247 0.0
H1449 H 0.81272 0.25467 0.8604 0.0
H1450 H 0.79374 0.17063 0.83891 0.0
H1451 H 0.83947 0.15332 0.85121 0.0
H1452 H 0.78278 0.25301 0.82361 0.0
H1453 H 0.73358 0.18665 0.88104 0.0
H1454 H 0.77134 0.19378 0.88049 0.0
H1455 H 0.75593 0.16905 0.86383 0.0
C1456 C 0.84478 0.22295 0.86498 0.0
C1457 C 0.8523 0.19409 0.86319 0.0
C1458 C 0.81877 0.23269 0.85793 0.0
C1459 C 0.79989 0.21379 0.84896 0.0
C1460 C 0.80805 0.18542 0.84596 0.0
H1461 H 0.62082 0.25576 0.857 0.0
H1462 H 0.66237 0.23127 0.84394 0.0
C1463 C 0.83409 0.17558 0.85308 0.0
C1464 C 0.7704 0.22314 0.84546 0.0
H1465 H 0.70481 0.22007 0.866 0.0
C1466 C 0.76545 0.24545 0.83252 0.0
C1467 C 0.74796 0.21306 0.85709 0.0
C1468 C 0.75229 0.18943 0.87149 0.0
C1469 C 0.73882 0.259 0.83162 0.0
C1470 C 0.71705 0.25033 0.84432 0.0
C1471 C 0.72152 0.22672 0.85627 0.0
C1472 C 0.69086 0.26719 0.84745 0.0
C1473 C 0.73456 0.28284 0.81745 0.0
C1474 C 0.69287 0.29583 0.85318 0.0
C1475 C 0.66902 0.31001 0.8604 0.0
C1476 C 0.64311 0.29543 0.86247 0.0
C1477 C 0.64075 0.26729 0.85582 0.0
C1478 C 0.66437 0.25337 0.84823 0.0
H1479 H 0.74761 0.27933 0.8044 0.0
H1480 H 0.71184 0.28498 0.81319 0.0
H1481 H 0.74167 0.30318 0.82401 0.0
H1482 H 0.71323 0.30671 0.85324 0.0
H1483 H 0.6713 0.33171 0.86545 0.0
H1484 H 0.2778 0.83398 0.89524 0.0
H1485 H 0.25489 0.79461 0.87861 0.0
H1486 H 0.30838 0.80891 0.82931 0.0
H1487 H 0.3323 0.84802 0.84631 0.0
H1488 H 0.22469 0.79551 0.84438 0.0
H1489 H 0.3198 0.72444 0.83938 0.0
H1490 H 0.32045 0.75567 0.85441 0.0
H1491 H 0.32098 0.75939 0.82885 0.0
C1492 C 0.28487 0.82862 0.88092 0.0
C1493 C 0.30692 0.84385 0.87211 0.0
C1494 C 0.27163 0.80629 0.87136 0.0
C1495 C 0.27987 0.79895 0.85269 0.0
C1496 C 0.30193 0.81407 0.84377 0.0
H1497 H 0.16587 0.65165 0.84392 0.0
H1498 H 0.189 0.69211 0.82792 0.0
C1499 C 0.31559 0.83627 0.85352 0.0
C1500 C 0.26547 0.77459 0.84346 0.0
H1501 H 0.27495 0.70308 0.8389 0.0
C1502 C 0.23558 0.77532 0.84249 0.0
C1503 C 0.27993 0.74858 0.84047 0.0
C1504 C 0.31205 0.74671 0.84082 0.0
C1505 C 0.21965 0.75009 0.84203 0.0
C1506 C 0.23427 0.72377 0.84192 0.0
C1507 C 0.26396 0.72341 0.83938 0.0
C1508 C 0.22095 0.69795 0.84998 0.0
C1509 C 0.18767 0.75178 0.84416 0.0
C1510 C 0.23153 0.68767 0.86746 0.0
C1511 C 0.21874 0.66461 0.87641 0.0
C1512 C 0.19481 0.6515 0.8682 0.0
C1513 C 0.18408 0.66171 0.85067 0.0
C1514 C 0.19728 0.68469 0.8415 0.0
H1515 H 0.17991 0.77411 0.84496 0.0
H1516 H 0.17728 0.74133 0.83173 0.0
H1517 H 0.18084 0.74042 0.85731 0.0
H1518 H 0.24955 0.69784 0.87439 0.0
H1519 H 0.22744 0.65725 0.88991 0.0
H1520 H 0.59289 0.09863 0.45554 0.0
H1521 H 0.63136 0.08154 0.47602 0.0
H1522 H 0.68309 0.06472 0.42633 0.0
H1523 H 0.64486 0.08244 0.40562 0.0
H1524 H 0.66135 0.03129 0.47914 0.0
H1525 H 0.73274 0.11986 0.45655 0.0
H1526 H 0.69534 0.1191 0.45053 0.0
H1527 H 0.7201 0.09697 0.43775 0.0
C1528 C 0.61226 0.09097 0.44887 0.0
C1529 C 0.61585 0.0923 0.4289 0.0
C1530 C 0.63428 0.08118 0.46064 0.0
C1531 C 0.66036 0.07246 0.45275 0.0
C1532 C 0.66341 0.07201 0.43277 0.0
H1533 H 0.81201 0.03734 0.52553 0.0
H1534 H 0.78121 0.03725 0.49693 0.0
C1535 C 0.64141 0.08195 0.42094 0.0
C1536 C 0.68453 0.0654 0.46567 0.0
H1537 H 0.7494 0.08984 0.48097 0.0
C1538 C 0.68078 0.04381 0.47934 0.0
C1539 C 0.70995 0.08175 0.46592 0.0
C1540 C 0.71484 0.10587 0.45203 0.0
C1541 C 0.70119 0.03891 0.49369 0.0
C1542 C 0.72589 0.05611 0.49445 0.0
C1543 C 0.73046 0.07663 0.48022 0.0
C1544 C 0.74493 0.05583 0.51136 0.0
C1545 C 0.69575 0.01605 0.5084 0.0
C1546 C 0.73483 0.06678 0.52871 0.0
C1547 C 0.75227 0.06716 0.54487 0.0
C1548 C 0.7803 0.05647 0.54411 0.0
C1549 C 0.79054 0.04567 0.52662 0.0
C1550 C 0.77301 0.04557 0.5103 0.0
H1551 H 0.67981 0.00027 0.50329 0.0
H1552 H 0.71582 0.00474 0.5121 0.0
H1553 H 0.68739 0.02606 0.52165 0.0
H1554 H 0.71334 0.07512 0.52974 0.0
H1555 H 0.74354 0.07561 0.55805 0.0
H1556 H 0.47834 0.7932 0.53668 0.0
H1557 H 0.48067 0.75844 0.51037 0.0
H1558 H 0.39247 0.73673 0.51968 0.0
H1559 H 0.38998 0.77106 0.54583 0.0
H1560 H 0.46769 0.69731 0.51483 0.0
H1561 H 0.39901 0.75041 0.4609 0.0
H1562 H 0.41592 0.76955 0.48029 0.0
H1563 H 0.38397 0.74939 0.48452 0.0
C1564 C 0.45931 0.78143 0.53284 0.0
C1565 C 0.43396 0.78492 0.54333 0.0
C1566 C 0.46073 0.76147 0.51791 0.0
C1567 C 0.4367 0.74514 0.51304 0.0
C1568 C 0.41118 0.74932 0.52306 0.0
H1569 H 0.39861 0.58475 0.46277 0.0
H1570 H 0.41482 0.62297 0.48389 0.0
C1571 C 0.40982 0.76894 0.53805 0.0
C1572 C 0.43825 0.72249 0.49826 0.0
H1573 H 0.40672 0.70045 0.45679 0.0
C1574 C 0.45476 0.69813 0.50195 0.0
C1575 C 0.42153 0.72369 0.48144 0.0
C1576 C 0.40428 0.74977 0.4764 0.0
C1577 C 0.45386 0.67436 0.48969 0.0
C1578 C 0.43581 0.67494 0.47345 0.0
C1579 C 0.42044 0.69989 0.4693 0.0
C1580 C 0.43106 0.64959 0.46109 0.0
C1581 C 0.47196 0.64872 0.49435 0.0
C1582 C 0.43533 0.65148 0.44126 0.0
C1583 C 0.426 0.62968 0.42913 0.0
C1584 C 0.41195 0.60559 0.43655 0.0
C1585 C 0.40946 0.60287 0.45654 0.0
C1586 C 0.41879 0.62474 0.46868 0.0
H1587 H 0.49053 0.65461 0.50343 0.0
H1588 H 0.45893 0.63308 0.50241 0.0
H1589 H 0.47983 0.63824 0.48113 0.0
H1590 H 0.44473 0.67044 0.43509 0.0
H1591 H 0.42841 0.63251 0.41383 0.0
H1592 H 0.85991 0.42574 0.4126 0.0
H1593 H 0.82258 0.44289 0.43401 0.0
H1594 H 0.87536 0.42315 0.48281 0.0
H1595 H 0.91294 0.40615 0.46156 0.0
H1596 H 0.79706 0.40596 0.45915 0.0
H1597 H 0.83982 0.49909 0.49851 0.0
H1598 H 0.8552 0.48649 0.47636 0.0
H1599 H 0.86367 0.46917 0.49862 0.0
C1600 C 0.86401 0.42581 0.42787 0.0
C1601 C 0.88942 0.41427 0.43533 0.0
C1602 C 0.84256 0.4356 0.44009 0.0
C1603 C 0.84615 0.43436 0.46001 0.0
C1604 C 0.87225 0.42477 0.46748 0.0
H1605 H 0.73394 0.39716 0.5512 0.0
H1606 H 0.7676 0.39882 0.52466 0.0
C1607 C 0.89374 0.41494 0.45527 0.0
C1608 C 0.82144 0.43911 0.47289 0.0
H1609 H 0.79996 0.47491 0.51294 0.0
C1610 C 0.79751 0.4214 0.4707 0.0
C1611 C 0.82192 0.45934 0.4879 0.0
C1612 C 0.84642 0.47981 0.49041 0.0
C1613 C 0.77472 0.4224 0.48366 0.0
C1614 C 0.77596 0.44146 0.49929 0.0
C1615 C 0.79917 0.46018 0.50099 0.0
C1616 C 0.75452 0.4405 0.51483 0.0
C1617 C 0.74975 0.40258 0.48081 0.0
C1618 C 0.73596 0.46344 0.51809 0.0
C1619 C 0.71642 0.4625 0.53324 0.0
C1620 C 0.7155 0.43876 0.54554 0.0
C1621 C 0.73403 0.41577 0.54204 0.0
C1622 C 0.75327 0.41663 0.52684 0.0
H1623 H 0.74858 0.39455 0.46587 0.0
H1624 H 0.7521 0.38399 0.49049 0.0
H1625 H 0.72938 0.41342 0.48435 0.0
H1626 H 0.73671 0.48209 0.50898 0.0
H1627 H 0.7026 0.48064 0.53563 0.0
H1628 H 0.01615 0.6812 0.52813 0.0
H1629 H 0.01301 0.7114 0.49942 0.0
H1630 H 0.09278 0.75118 0.51451 0.0
H1631 H 0.09616 0.72148 0.54292 0.0
H1632 H 0.04263 0.7891 0.50735 0.0
H1633 H 0.06564 0.71082 0.44936 0.0
H1634 H 0.04054 0.70203 0.46798 0.0
H1635 H 0.07772 0.70476 0.47358 0.0
C1636 C 0.03321 0.69608 0.52515 0.0
C1637 C 0.05633 0.699 0.53791 0.0
C1638 C 0.03134 0.71332 0.50878 0.0
C1639 C 0.05262 0.73356 0.50494 0.0
C1640 C 0.07607 0.73578 0.51729 0.0
H1641 H 0.1359 0.83314 0.42811 0.0
H1642 H 0.1128 0.79625 0.44682 0.0
C1643 C 0.07796 0.71871 0.53354 0.0
C1644 C 0.05052 0.7536 0.48864 0.0
H1645 H 0.06654 0.75939 0.44119 0.0
C1646 C 0.04708 0.78266 0.49274 0.0
C1647 C 0.05635 0.74498 0.46969 0.0
C1648 C 0.06036 0.71398 0.46471 0.0
C1649 C 0.05143 0.80354 0.47868 0.0
C1650 C 0.05907 0.79504 0.45993 0.0
C1651 C 0.06049 0.76584 0.45553 0.0
C1652 C 0.07103 0.81577 0.44607 0.0
C1653 C 0.05016 0.83454 0.48439 0.0
C1654 C 0.05502 0.83874 0.43886 0.0
C1655 C 0.06833 0.86022 0.4281 0.0
C1656 C 0.09781 0.85898 0.4245 0.0
C1657 C 0.11324 0.83506 0.43084 0.0
C1658 C 0.10001 0.81375 0.44145 0.0
H1659 H 0.04724 0.83736 0.50005 0.0
H1660 H 0.07001 0.84568 0.48005 0.0
H1661 H 0.03201 0.84497 0.47698 0.0
H1662 H 0.03251 0.8405 0.44205 0.0
H1663 H 0.05584 0.87828 0.42332 0.0
H1664 H 0.27101 0.9005 0.95947 0.0
H1665 H 0.24021 0.90531 0.98722 0.0
H1666 H 0.28238 0.98356 0.00278 0.0
H1667 H 0.3137 0.97901 0.97473 0.0
H1668 H 0.27142 0.94364 0.03423 0.0
H1669 H 0.17512 0.96543 0.99083 0.0
H1670 H 0.19451 0.93493 0.98244 0.0
H1671 H 0.21083 0.9696 0.98156 0.0
C1672 C 0.27399 0.91874 0.96877 0.0
C1673 C 0.29475 0.93952 0.96472 0.0
C1674 C 0.25619 0.92151 0.9846 0.0
C1675 C 0.25858 0.9451 0.99679 0.0
C1676 C 0.28001 0.96535 0.99338 0.0
H1677 H 0.11328 0.9412 0.07626 0.0
H1678 H 0.15057 0.96479 0.05723 0.0
C1679 C 0.29793 0.96265 0.9774 0.0
C1680 C 0.2384 0.94799 0.01298 0.0
H1681 H 0.16709 0.94597 0.02237 0.0
C1682 C 0.24862 0.94487 0.03174 0.0
C1683 C 0.2087 0.9503 0.00978 0.0
C1684 C 0.19662 0.95556 0.99007 0.0
C1685 C 0.22974 0.94134 0.04716 0.0
C1686 C 0.2 0.94046 0.04362 0.0
C1687 C 0.18986 0.94632 0.02512 0.0
C1688 C 0.17954 0.92888 0.05785 0.0
C1689 C 0.24188 0.93744 0.06698 0.0
C1690 C 0.18354 0.90109 0.06467 0.0
C1691 C 0.1624 0.88766 0.07535 0.0
C1692 C 0.13658 0.90161 0.07942 0.0
C1693 C 0.13301 0.92998 0.07343 0.0
C1694 C 0.15426 0.94343 0.06254 0.0
H1695 H 0.26211 0.94952 0.06866 0.0
H1696 H 0.22665 0.9445 0.07817 0.0
H1697 H 0.2468 0.91457 0.06928 0.0
H1698 H 0.20243 0.88909 0.06087 0.0
H1699 H 0.16592 0.86584 0.07981 0.0
H1700 H 0.62064 0.15879 0.09121 0.0
H1701 H 0.60258 0.19707 0.07087 0.0
H1702 H 0.55424 0.13575 0.03814 0.0
H1703 H 0.57133 0.09753 0.0592 0.0
H1704 H 0.61701 0.19972 0.03532 0.0
H1705 H 0.49922 0.20103 0.03784 0.0
H1706 H 0.52049 0.18258 0.05549 0.0
H1707 H 0.51271 0.16608 0.03279 0.0
C1708 C 0.60525 0.1537 0.08013 0.0
C1709 C 0.5972 0.12534 0.07678 0.0
C1710 C 0.59502 0.17555 0.06846 0.0
C1711 C 0.57698 0.16944 0.05293 0.0
C1712 C 0.56758 0.14122 0.05025 0.0
H1713 H 0.58365 0.24776 0.9435 0.0
H1714 H 0.58636 0.21879 0.97225 0.0
C1715 C 0.57739 0.11934 0.06225 0.0
C1716 C 0.57192 0.1916 0.03806 0.0
H1717 H 0.52088 0.22304 0.01015 0.0
C1718 C 0.59588 0.20508 0.03009 0.0
C1719 C 0.54443 0.19891 0.03124 0.0
C1720 C 0.51774 0.1866 0.03993 0.0
C1721 C 0.59325 0.22477 0.01514 0.0
C1722 C 0.56597 0.2307 0.0075 0.0
C1723 C 0.54182 0.21822 0.0159 0.0
C1724 C 0.56264 0.24819 0.98996 0.0
C1725 C 0.61985 0.23883 0.0075 0.0
C1726 C 0.54767 0.27411 0.9902 0.0
C1727 C 0.54595 0.2909 0.97361 0.0
C1728 C 0.5591 0.28192 0.95654 0.0
C1729 C 0.57353 0.25562 0.95638 0.0
C1730 C 0.57514 0.23895 0.97285 0.0
H1731 H 0.63727 0.23884 0.0183 0.0
H1732 H 0.62747 0.22686 0.9948 0.0
H1733 H 0.61558 0.26116 0.00309 0.0
H1734 H 0.53776 0.28154 0.00327 0.0
H1735 H 0.53453 0.31093 0.97421 0.0
H1736 H 0.22518 0.60244 0.95689 0.0
H1737 H 0.25857 0.59947 0.98355 0.0
H1738 H 0.22899 0.51463 0.9963 0.0
H1739 H 0.19529 0.51734 0.96935 0.0
H1740 H 0.24903 0.5884 0.02327 0.0
H1741 H 0.31702 0.50639 0.98812 0.0
H1742 H 0.29108 0.52707 0.97498 0.0
H1743 H 0.27955 0.49884 0.99042 0.0
C1744 C 0.22549 0.58319 0.96543 0.0
C1745 C 0.20766 0.56004 0.96089 0.0
C1746 C 0.24462 0.58156 0.98069 0.0
C1747 C 0.24656 0.5567 0.99172 0.0
C1748 C 0.22808 0.53387 0.98778 0.0
H1749 H 0.35742 0.56608 0.09306 0.0
H1750 H 0.3185 0.55047 0.07224 0.0
C1751 C 0.20869 0.53555 0.97249 0.0
C1752 C 0.26865 0.55494 0.00691 0.0
H1753 H 0.33362 0.52558 0.01717 0.0
C1754 C 0.2673 0.57433 0.02216 0.0
C1755 C 0.29262 0.5368 0.00522 0.0
C1756 C 0.29546 0.51615 0.98878 0.0
C1757 C 0.28966 0.57674 0.03545 0.0
C1758 C 0.3139 0.55895 0.03359 0.0
C1759 C 0.31492 0.53898 0.01864 0.0
C1760 C 0.33938 0.56288 0.04597 0.0
C1761 C 0.28782 0.59937 0.05076 0.0
C1762 C 0.36477 0.57333 0.03802 0.0
C1763 C 0.3872 0.5821 0.04986 0.0
C1764 C 0.38463 0.58061 0.06991 0.0
C1765 C 0.36009 0.56782 0.07771 0.0
C1766 C 0.3377 0.55901 0.06584 0.0
H1767 H 0.27025 0.61472 0.04801 0.0
H1768 H 0.28385 0.5891 0.06481 0.0
H1769 H 0.30816 0.61139 0.0518 0.0
H1770 H 0.36658 0.57632 0.02269 0.0
H1771 H 0.40577 0.59169 0.04331 0.0
H1772 H 0.92165 0.35517 0.09062 0.0
H1773 H 0.93843 0.31856 0.06852 0.0
H1774 H 0.92132 0.37419 0.02081 0.0
H1775 H 0.90455 0.41107 0.04276 0.0
H1776 H 0.9015 0.29538 0.04135 0.0
H1777 H -0.0015 0.33834 0.00649 0.0
H1778 H 0.98502 0.35209 0.02889 0.0
H1779 H 0.96896 0.36271 0.00662 0.0
C1780 C 0.92215 0.36002 0.07547 0.0
C1781 C 0.9115 0.3861 0.0685 0.0
C1782 C 0.93173 0.33897 0.06285 0.0
C1783 C 0.93121 0.34363 0.04302 0.0
C1784 C 0.92233 0.37026 0.03607 0.0
H1785 H 0.90171 0.23795 0.94687 0.0
H1786 H 0.90161 0.27077 0.97394 0.0
C1787 C 0.91265 0.39133 0.04867 0.0
C1788 C 0.93634 0.31961 0.02961 0.0
H1789 H 0.9754 0.29916 0.9907 0.0
C1790 C 0.91797 0.29602 0.03048 0.0
C1791 C 0.95788 0.32038 0.01547 0.0
C1792 C 0.97891 0.34461 0.01437 0.0
C1793 C 0.91974 0.27382 0.01707 0.0
C1794 C 0.94035 0.27527 0.00239 0.0
C1795 C 0.95957 0.29818 0.00197 0.0
C1796 C 0.9405 0.25446 0.98644 0.0
C1797 C 0.89909 0.24927 0.01836 0.0
C1798 C 0.96242 0.23429 0.98456 0.0
C1799 C 0.96244 0.21517 0.96911 0.0
C1800 C 0.94076 0.2163 0.95518 0.0
C1801 C 0.91877 0.23647 0.95729 0.0
C1802 C 0.91863 0.25526 0.97277 0.0
H1803 H 0.88868 0.24817 0.03261 0.0
H1804 H 0.88222 0.25195 0.00734 0.0
H1805 H 0.91011 0.22876 0.01553 0.0
H1806 H 0.97951 0.23342 0.995 0.0
H1807 H 0.97977 0.20004 0.96783 0.0
H1808 H 0.4014 0.90071 0.54414 0.0
H1809 H 0.36348 0.92031 0.52419 0.0
H1810 H 0.31823 0.9475 0.57469 0.0
H1811 H 0.35578 0.92734 0.5948 0.0
H1812 H 0.28524 0.91566 0.55262 0.0
H1813 H 0.33591 -0.00278 0.5071 0.0
H1814 H 0.35527 0.96433 0.50612 0.0
H1815 H 0.35287 0.98349 0.52842 0.0
C1816 C 0.38383 0.9116 0.55103 0.0
C1817 C 0.38158 0.91223 0.5711 0.0
C1818 C 0.36215 0.92296 0.53956 0.0
C1819 C 0.33802 0.93559 0.5479 0.0
C1820 C 0.33663 0.93788 0.56791 0.0
H1821 H 0.2027 0.9916 0.46836 0.0
H1822 H 0.23595 0.99295 0.49553 0.0
C1823 C 0.35818 0.92636 0.57939 0.0
C1824 C 0.31276 0.94276 0.53593 0.0
H1825 H 0.29266 0.97578 0.49451 0.0
C1826 C 0.28676 0.92929 0.54013 0.0
C1827 C 0.31447 0.96084 0.51977 0.0
C1828 C 0.34108 0.97753 0.51521 0.0
C1829 C 0.26304 0.93199 0.52801 0.0
C1830 C 0.26551 0.94814 0.51102 0.0
C1831 C 0.29088 0.9631 0.50742 0.0
C1832 C 0.24318 0.94743 0.49595 0.0
C1833 C 0.23573 0.91699 0.53332 0.0
C1834 C 0.23603 0.92141 0.48731 0.0
C1835 C 0.21712 0.92056 0.47189 0.0
C1836 C 0.205 0.94576 0.46464 0.0
C1837 C 0.21146 0.97178 0.47369 0.0
C1838 C 0.23057 0.97262 0.48914 0.0
H1839 H 0.23406 0.91407 0.54906 0.0
H1840 H 0.21676 0.92897 0.52822 0.0
H1841 H 0.23547 0.89554 0.52662 0.0
H1842 H 0.24591 0.90178 0.49205 0.0
H1843 H 0.21272 0.90016 0.46526 0.0
H1844 H 0.57569 0.35557 0.58754 0.0
H1845 H 0.56051 0.31933 0.56447 0.0
H1846 H 0.57818 0.37704 0.51805 0.0
H1847 H 0.59339 0.41344 0.54087 0.0
H1848 H 0.5194 0.32126 0.52846 0.0
H1849 H 0.63524 0.30454 0.51544 0.0
H1850 H 0.62188 0.32101 0.537 0.0
H1851 H 0.62283 0.34081 0.51505 0.0
C1852 C 0.57564 0.3609 0.57246 0.0
C1853 C 0.58618 0.38734 0.56607 0.0
C1854 C 0.56693 0.34012 0.55931 0.0
C1855 C 0.56859 0.34548 0.53962 0.0
C1856 C 0.57693 0.37253 0.53324 0.0
H1857 H 0.57165 0.25634 0.43399 0.0
H1858 H 0.57364 0.28897 0.46097 0.0
C1859 C 0.5856 0.39331 0.54633 0.0
C1860 C 0.56506 0.32201 0.52569 0.0
H1861 H 0.60324 0.28032 0.49504 0.0
C1862 C 0.53765 0.31206 0.52122 0.0
C1863 C 0.58902 0.31001 0.51647 0.0
C1864 C 0.61898 0.3194 0.52126 0.0
C1865 C 0.53352 0.29113 0.50705 0.0
C1866 C 0.55749 0.27971 0.49744 0.0
C1867 C 0.58491 0.28913 0.50241 0.0
C1868 C 0.55477 0.25961 0.48115 0.0
C1869 C 0.50357 0.28221 0.50191 0.0
C1870 C 0.54356 0.2321 0.48354 0.0
C1871 C 0.54235 0.21317 0.46802 0.0
C1872 C 0.5525 0.22146 0.4499 0.0
C1873 C 0.56369 0.24909 0.44769 0.0
C1874 C 0.56482 0.26787 0.46312 0.0
H1875 H 0.48734 0.29675 0.50812 0.0
H1876 H 0.50076 0.28164 0.48613 0.0
H1877 H 0.49958 0.26045 0.50749 0.0
H1878 H 0.53615 0.22513 0.49744 0.0
H1879 H 0.53366 0.19206 0.47023 0.0
H1880 H 0.30018 0.51541 0.46929 0.0
H1881 H 0.26775 0.51375 0.49681 0.0
H1882 H 0.2273 0.59107 0.47751 0.0
H1883 H 0.25942 0.59306 0.45019 0.0
H1884 H 0.24196 0.5893 0.51757 0.0
H1885 H 0.18041 0.4945 0.49303 0.0
H1886 H 0.21868 0.49163 0.49398 0.0
H1887 H 0.20235 0.51513 0.47696 0.0
C1888 C 0.28451 0.53216 0.47098 0.0
C1889 C 0.28234 0.55432 0.45747 0.0
C1890 C 0.2659 0.53105 0.48663 0.0
C1891 C 0.24495 0.5521 0.48902 0.0
C1892 C 0.24326 0.57455 0.47585 0.0
H1893 H 0.08855 0.58276 0.54394 0.0
H1894 H 0.12699 0.5661 0.52326 0.0
C1895 C 0.26166 0.57563 0.46023 0.0
C1896 C 0.22453 0.55117 0.50513 0.0
H1897 H 0.1643 0.51768 0.52085 0.0
C1898 C 0.22524 0.5734 0.51852 0.0
C1899 C 0.20265 0.5305 0.50613 0.0
C1900 C 0.20067 0.50661 0.49174 0.0
C1901 C 0.20405 0.57614 0.53254 0.0
C1902 C 0.18179 0.55579 0.53334 0.0
C1903 C 0.18155 0.53304 0.52029 0.0
C1904 C 0.15716 0.55976 0.54631 0.0
C1905 C 0.20483 0.60166 0.54569 0.0
C1906 C 0.16093 0.5602 0.56623 0.0
C1907 C 0.13903 0.56984 0.57813 0.0
C1908 C 0.11293 0.57909 0.57029 0.0
C1909 C 0.10839 0.57601 0.55048 0.0
C1910 C 0.13036 0.56647 0.5386 0.0
H1911 H 0.22046 0.61794 0.5409 0.0
H1912 H 0.18348 0.6118 0.54659 0.0
H1913 H 0.21101 0.59468 0.56029 0.0
H1914 H 0.18133 0.55459 0.57247 0.0
H1915 H 0.14318 0.5716 0.59334 0.0
H1916 H 0.90182 0.09425 0.54492 0.0
H1917 H 0.9203 0.13316 0.52547 0.0
H1918 H 0.93442 0.18334 0.57632 0.0
H1919 H 0.91544 0.14469 0.59593 0.0
H1920 H 0.90283 0.21154 0.55076 0.0
H1921 H 0.99704 0.16763 0.51375 0.0
H1922 H 0.96673 0.14468 0.51106 0.0
H1923 H 0.98159 0.15075 0.53451 0.0
C1924 C 0.90953 0.11324 0.55207 0.0
C1925 C 0.90691 0.11635 0.57202 0.0
C1926 C 0.92029 0.13547 0.54089 0.0
C1927 C 0.92901 0.16114 0.54942 0.0
C1928 C 0.9279 0.16371 0.56942 0.0
H1929 H 0.98237 0.299 0.4709 0.0
H1930 H 0.98322 0.2673 0.49891 0.0
C1931 C 0.91705 0.14154 0.58062 0.0
C1932 C 0.93562 0.18632 0.53733 0.0
H1933 H 0.97357 0.20747 0.49814 0.0
C1934 C 0.91874 0.21083 0.53951 0.0
C1935 C 0.95661 0.18569 0.5228 0.0
C1936 C 0.97672 0.16086 0.52052 0.0
C1937 C 0.92098 0.23387 0.52682 0.0
C1938 C 0.9403 0.23221 0.51135 0.0
C1939 C 0.95853 0.20858 0.50989 0.0
C1940 C 0.93961 0.25315 0.49547 0.0
C1941 C 0.90206 0.25948 0.52978 0.0
C1942 C 0.91484 0.25572 0.48435 0.0
C1943 C 0.9143 0.27361 0.46843 0.0
C1944 C 0.93859 0.28935 0.4632 0.0
C1945 C 0.96325 0.28733 0.47463 0.0
C1946 C 0.96382 0.26916 0.49057 0.0
H1947 H 0.89568 0.26166 0.54502 0.0
H1948 H 0.91285 0.2794 0.5252 0.0
H1949 H 0.88235 0.2569 0.52114 0.0
H1950 H 0.89608 0.24319 0.48765 0.0
H1951 H 0.89495 0.2746 0.45997 0.0
H1952 H 0.85143 0.08851 0.91149 0.0
H1953 H 0.81568 0.07114 0.93393 0.0
H1954 H 0.88016 0.06329 0.9777 0.0
H1955 H 0.91599 0.08175 0.95551 0.0
H1956 H 0.80597 0.02499 0.95622 0.0
H1957 H 0.82645 0.1201 0.00146 0.0
H1958 H 0.84194 0.11591 0.97805 0.0
H1959 H 0.85716 0.09781 0.99836 0.0
C1960 C 0.85819 0.08263 0.92578 0.0
C1961 C 0.88651 0.08703 0.93181 0.0
C1962 C 0.83766 0.07267 0.93861 0.0
C1963 C 0.84507 0.06668 0.95765 0.0
C1964 C 0.8738 0.06861 0.96323 0.0
H1965 H 0.72716 0.00068 0.04415 0.0
H1966 H 0.7623 0.00372 0.01836 0.0
C1967 C 0.8943 0.07899 0.95049 0.0
C1968 C 0.82235 0.06094 0.97193 0.0
H1969 H 0.79313 0.08691 0.01308 0.0
C1970 C 0.80314 0.03846 0.96869 0.0
C1971 C 0.81834 0.07892 0.98798 0.0
C1972 C 0.83686 0.1047 0.99162 0.0
C1973 C 0.78005 0.03348 0.98108 0.0
C1974 C 0.7765 0.05108 0.99736 0.0
C1975 C 0.79586 0.07338 1.00062 0.0
C1976 C 0.75263 0.04753 0.01112 0.0
C1977 C 0.75925 0.01002 0.97628 0.0
C1978 C 0.73534 0.07103 0.01561 0.0
C1979 C 0.7157 0.0695 0.03055 0.0
C1980 C 0.71268 0.04432 0.04122 0.0
C1981 C 0.72878 0.02025 0.03603 0.0
C1982 C 0.74883 0.02195 0.02123 0.0
H1983 H 0.76013 0.00424 0.96087 0.0
H1984 H 0.76475 0.99074 0.9847 0.0
H1985 H 0.73707 0.01631 0.97988 0.0
H1986 H 0.7378 0.09097 0.00799 0.0
H1987 H 0.70354 0.08836 0.03418 0.0
H1988 H 0.43017 0.85574 0.91295 0.0
H1989 H 0.44621 0.81775 0.93431 0.0
H1990 H 0.42522 0.86958 0.98324 0.0
H1991 H 0.40953 0.90788 0.96207 0.0
H1992 H 0.4745 0.83442 0.98856 0.0
H1993 H 0.38069 0.77446 0.96082 0.0
H1994 H 0.40616 0.78564 0.94318 0.0
H1995 H 0.38591 0.81185 0.95606 0.0
C1996 C 0.42967 0.85942 0.92825 0.0
C1997 C 0.41803 0.8847 0.93578 0.0
C1998 C 0.43875 0.8376 0.94043 0.0
C1999 C 0.4362 0.8406 0.96033 0.0
C2000 C 0.42717 0.86677 0.96791 0.0
H2001 H 0.39578 0.73009 0.05151 0.0
H2002 H 0.39921 0.76404 0.02526 0.0
C2003 C 0.41821 0.88868 0.95575 0.0
C2004 C 0.43946 0.81564 0.97315 0.0
H2005 H 0.40742 0.75281 0.98517 0.0
C2006 C 0.46014 0.81635 0.98769 0.0
C2007 C 0.42037 0.79231 0.9721 0.0
C2008 C 0.39686 0.79095 0.95733 0.0
C2009 C 0.46188 0.79456 0.00146 0.0
C2010 C 0.44255 0.77146 1.0005 0.0
C2011 C 0.42236 0.77043 0.9857 0.0
C2012 C 0.44075 0.74981 0.01586 0.0
C2013 C 0.48341 0.79699 0.01744 0.0
C2014 C 0.46276 0.73009 0.01901 0.0
C2015 C 0.46081 0.71039 0.03403 0.0
C2016 C 0.43686 0.71026 0.04615 0.0
C2017 C 0.41459 0.72962 0.04254 0.0
C2018 C 0.41649 0.74909 0.02753 0.0
H2019 H 0.49425 0.81804 0.01755 0.0
H2020 H 0.47292 0.7937 0.03151 0.0
H2021 H 0.49984 0.78018 0.01575 0.0
H2022 H 0.48148 0.73008 0.00996 0.0
H2023 H 0.47835 0.69581 0.03643 0.0
H2024 H 0.80068 0.47491 0.03341 0.0
H2025 H 0.76884 0.4751 0.00546 0.0
H2026 H 0.72911 0.3979 0.02551 0.0
H2027 H 0.76064 0.39738 0.05325 0.0
H2028 H 0.74399 0.39832 0.98564 0.0
H2029 H 0.68144 0.49354 0.00802 0.0
H2030 H 0.71966 0.49687 0.00724 0.0
H2031 H 0.70351 0.47382 0.02457 0.0
C2032 C 0.7853 0.45787 0.03178 0.0
C2033 C 0.78315 0.4362 0.04563 0.0
C2034 C 0.76702 0.45813 0.01588 0.0
C2035 C 0.74642 0.4367 0.01358 0.0
C2036 C 0.74479 0.4147 0.02708 0.0
H2037 H 0.59063 0.40503 0.95684 0.0
H2038 H 0.62892 0.42097 0.97799 0.0
C2039 C 0.76286 0.41447 0.04295 0.0
C2040 C 0.72621 0.43683 0.99726 0.0
H2041 H 0.66615 0.46948 0.98029 0.0
C2042 C 0.72722 0.41411 0.98425 0.0
C2043 C 0.70423 0.45734 0.99567 0.0
C2044 C 0.70184 0.48175 0.00963 0.0
C2045 C 0.70633 0.41079 0.97003 0.0
C2046 C 0.68402 0.43101 0.96862 0.0
C2047 C 0.68343 0.4542 0.98131 0.0
C2048 C 0.65975 0.42664 0.95532 0.0
C2049 C 0.70748 0.38484 0.95726 0.0
C2050 C 0.66399 0.42588 0.93546 0.0
C2051 C 0.64213 0.4167 0.92328 0.0
C2052 C 0.61561 0.40816 0.93078 0.0
C2053 C 0.61079 0.41122 0.95055 0.0
C2054 C 0.63267 0.42037 0.96269 0.0
H2055 H 0.72304 0.36877 0.9625 0.0
H2056 H 0.68617 0.37463 0.95624 0.0
H2057 H 0.71396 0.39137 0.94264 0.0
H2058 H 0.68461 0.43112 0.92946 0.0
H2059 H 0.64656 0.41487 0.90812 0.0
H2060 H 0.09884 0.78271 0.03844 0.0
H2061 H 0.09693 0.74979 0.01152 0.0
H2062 H 0.00631 0.7634 0.00641 0.0
H2063 H 0.00789 0.79628 0.03364 0.0
H2064 H 0.02088 0.70636 0.00797 0.0
H2065 H 0.08717 0.76171 0.95427 0.0
H2066 H 0.10482 0.75943 0.97702 0.0
H2067 H 0.07241 0.77976 0.97483 0.0
C2068 C 0.07854 0.77919 0.03141 0.0
C2069 C 0.05351 0.79216 0.03825 0.0
C2070 C 0.07752 0.76043 0.01592 0.0
C2071 C 0.05153 0.75436 0.00683 0.0
C2072 C 0.02661 0.76792 0.01318 0.0
H2073 H 0.06808 0.64111 0.90829 0.0
H2074 H 0.04915 0.67943 0.92821 0.0
C2075 C 0.0276 0.7868 0.02868 0.0
C2076 C 0.05035 0.73205 0.99182 0.0
H2077 H 0.08281 0.7108 0.9506 0.0
C2078 C 0.03399 0.70751 0.99522 0.0
C2079 C 0.06706 0.73374 0.97505 0.0
C2080 C 0.08362 0.76022 0.96996 0.0
C2081 C 0.03532 0.6839 0.98289 0.0
C2082 C 0.05385 0.68475 0.96694 0.0
C2083 C 0.0688 0.70998 0.96293 0.0
C2084 C 0.05999 0.65923 0.95508 0.0
C2085 C 0.0172 0.65817 0.98723 0.0
C2086 C 0.07154 0.63467 0.96356 0.0
C2087 C 0.08222 0.61259 0.95221 0.0
C2088 C 0.08196 0.61486 0.93213 0.0
C2089 C 0.06877 0.6387 0.9237 0.0
C2090 C 0.05795 0.66068 0.93507 0.0
H2091 H -0.00234 0.66426 0.99522 0.0
H2092 H 0.01084 0.64684 0.97394 0.0
H2093 H 0.02954 0.64325 0.99636 0.0
H2094 H 0.07392 0.63328 0.97895 0.0
H2095 H 0.09236 0.59465 0.9592 0.0
loop_
_geom_bond_atom_site_label_1
_geom_bond_atom_site_label_2
_geom_bond_distance
_geom_bond_site_symmetry_2
_ccdc_geom_bond_type
O0 Zn1 1.953 . S
O0 C16 1.225 . S
Zn1 O0 1.953 . S
Zn1 O2 1.949 . S
Zn1 O8 1.919 . S
Zn1 O13 1.924 . S
O2 Zn1 1.949 . S
O2 Zn3 1.923 . S
O2 Zn4 1.950 . S
O2 Zn5 1.945 . S
Zn3 O2 1.923 . S
Zn3 O6 1.933 . S
Zn3 O9 1.941 . S
Zn3 O10 1.965 . S
Zn4 O2 1.950 . S
Zn4 O11 1.938 . S
Zn4 O12 1.906 . S
Zn4 O22 1.953 . S
Zn5 O2 1.945 . S
Zn5 O7 1.932 . S
Zn5 O14 1.977 . S
Zn5 O15 1.910 . S
O6 Zn3 1.933 . S
O6 C17 1.226 . S
O7 Zn5 1.932 . S
O7 C17 1.307 . S
O8 Zn1 1.919 . S
O8 C19 1.253 . S
O9 Zn3 1.941 . S
O9 C19 1.283 . S
O10 Zn3 1.965 . S
O10 C18 1.303 . S
O11 Zn4 1.938 . S
O11 C18 1.247 . S
O12 Zn4 1.906 . S
O12 C20 1.304 . S
O13 Zn1 1.924 . S
O13 C21 1.311 . S
O14 Zn5 1.977 . S
O14 C20 1.272 . S
O15 Zn5 1.910 . S
O15 C21 1.231 . S
C16 O0 1.225 . S
C16 O22 1.298 . S
C17 O6 1.226 . S
C17 O7 1.307 . S
C18 O10 1.303 . S
C18 O11 1.247 . S
C19 O8 1.253 . S
C19 O9 1.283 . S
C20 O12 1.304 . S
C20 O14 1.272 . S
C21 O13 1.311 . S
C21 O15 1.231 . S
O22 Zn4 1.953 . S
O22 C16 1.298 . S
O23 Zn24 1.953 . S
O23 C39 1.225 . S
Zn24 O23 1.953 . S
Zn24 O25 1.949 . S
Zn24 O31 1.919 . S
Zn24 O36 1.924 . S
O25 Zn24 1.949 . S
O25 Zn26 1.923 . S
O25 Zn27 1.950 . S
O25 Zn28 1.945 . S
Zn26 O25 1.923 . S
Zn26 O29 1.933 . S
Zn26 O32 1.941 . S
Zn26 O33 1.965 . S
Zn27 O25 1.950 . S
Zn27 O34 1.938 . S
Zn27 O35 1.906 . S
Zn27 O45 1.953 . S
Zn28 O25 1.945 . S
Zn28 O30 1.932 . S
Zn28 O37 1.977 . S
Zn28 O38 1.910 . S
O29 Zn26 1.933 . S
O29 C40 1.226 . S
O30 Zn28 1.932 . S
O30 C40 1.307 . S
O31 Zn24 1.919 . S
O31 C42 1.253 . S
O32 Zn26 1.941 . S
O32 C42 1.283 . S
O33 Zn26 1.965 . S
O33 C41 1.303 . S
O34 Zn27 1.938 . S
O34 C41 1.247 . S
O35 Zn27 1.906 . S
O35 C43 1.304 . S
O36 Zn24 1.924 . S
O36 C44 1.311 . S
O37 Zn28 1.977 . S
O37 C43 1.272 . S
O38 Zn28 1.910 . S
O38 C44 1.231 . S
C39 O23 1.225 . S
C39 O45 1.298 . S
C40 O29 1.226 . S
C40 O30 1.307 . S
C41 O33 1.303 . S
C41 O34 1.247 . S
C42 O31 1.253 . S
C42 O32 1.283 . S
C43 O35 1.304 . S
C43 O37 1.272 . S
C44 O36 1.311 . S
C44 O38 1.231 . S
O45 Zn27 1.953 . S
O45 C39 1.298 . S
O46 Zn47 1.953 . S
O46 C62 1.225 . S
Zn47 O46 1.953 . S
Zn47 O48 1.949 . S
Zn47 O54 1.919 . S
Zn47 O59 1.924 . S
O48 Zn47 1.949 . S
O48 Zn49 1.923 . S
O48 Zn50 1.950 . S
O48 Zn51 1.945 . S
Zn49 O48 1.923 . S
Zn49 O52 1.933 . S
Zn49 O55 1.941 . S
Zn49 O56 1.965 . S
Zn50 O48 1.950 . S
Zn50 O57 1.938 . S
Zn50 O58 1.906 . S
Zn50 O68 1.953 . S
Zn51 O48 1.945 . S
Zn51 O53 1.932 . S
Zn51 O60 1.977 . S
Zn51 O61 1.910 . S
O52 Zn49 1.933 . S
O52 C63 1.226 . S
O53 Zn51 1.932 . S
O53 C63 1.307 . S
O54 Zn47 1.919 . S
O54 C65 1.253 . S
O55 Zn49 1.941 . S
O55 C65 1.283 . S
O56 Zn49 1.965 . S
O56 C64 1.303 . S
O57 Zn50 1.938 . S
O57 C64 1.247 . S
O58 Zn50 1.906 . S
O58 C66 1.283 1_655 S
O59 Zn47 1.924 . S
O59 C67 1.311 . S
O60 Zn51 1.977 . S
O60 C66 1.267 1_655 S
O61 Zn51 1.910 . S
O61 C67 1.231 . S
C62 O46 1.225 . S
C62 O68 1.298 . S
C63 O52 1.226 . S
C63 O53 1.307 . S
C64 O56 1.303 . S
C64 O57 1.247 . S
C65 O54 1.253 . S
C65 O55 1.283 . S
C66 O58 1.283 1_455 S
C66 O60 1.267 1_455 S
C67 O59 1.311 . S
C67 O61 1.231 . S
O68 Zn50 1.953 . S
O68 C62 1.298 . S
O69 Zn70 1.953 . S
O69 C85 1.225 . S
Zn70 O69 1.953 . S
Zn70 O71 1.949 . S
Zn70 O77 1.919 . S
Zn70 O82 1.924 . S
O71 Zn70 1.949 . S
O71 Zn72 1.923 . S
O71 Zn73 1.950 . S
O71 Zn74 1.945 . S
Zn72 O71 1.923 . S
Zn72 O75 1.933 . S
Zn72 O78 1.941 . S
Zn72 O79 1.965 . S
Zn73 O71 1.950 . S
Zn73 O80 1.938 . S
Zn73 O81 1.906 . S
Zn73 O91 1.953 . S
Zn74 O71 1.945 . S
Zn74 O76 1.932 . S
Zn74 O83 1.977 . S
Zn74 O84 1.910 . S
O75 Zn72 1.933 . S
O75 C86 1.226 . S
O76 Zn74 1.932 . S
O76 C86 1.307 . S
O77 Zn70 1.919 . S
O77 C88 1.253 . S
O78 Zn72 1.941 . S
O78 C88 1.283 . S
O79 Zn72 1.965 . S
O79 C87 1.303 . S
O80 Zn73 1.938 . S
O80 C87 1.247 . S
O81 Zn73 1.906 . S
O81 C89 1.304 . S
O82 Zn70 1.924 . S
O82 C90 1.311 . S
O83 Zn74 1.977 . S
O83 C89 1.272 . S
O84 Zn74 1.910 . S
O84 C90 1.231 . S
C85 O69 1.225 . S
C85 O91 1.298 . S
C86 O75 1.226 . S
C86 O76 1.307 . S
C87 O79 1.303 . S
C87 O80 1.247 . S
C88 O77 1.253 . S
C88 O78 1.283 . S
C89 O81 1.304 . S
C89 O83 1.272 . S
C90 O82 1.311 . S
C90 O84 1.231 . S
O91 Zn73 1.953 . S
O91 C85 1.298 . S
O92 Zn93 1.953 . S
O92 C108 1.225 . S
Zn93 O92 1.953 . S
Zn93 O94 1.949 . S
Zn93 O100 1.919 . S
Zn93 O105 1.924 . S
O94 Zn93 1.949 . S
O94 Zn95 1.923 . S
O94 Zn96 1.950 . S
O94 Zn97 1.945 . S
Zn95 O94 1.923 . S
Zn95 O98 1.933 . S
Zn95 O101 1.941 . S
Zn95 O102 1.965 . S
Zn96 O94 1.950 . S
Zn96 O103 1.938 . S
Zn96 O104 1.906 . S
Zn96 O114 1.953 . S
Zn97 O94 1.945 . S
Zn97 O99 1.932 . S
Zn97 O106 1.977 . S
Zn97 O107 1.910 . S
O98 Zn95 1.933 . S
O98 C109 1.226 . S
O99 Zn97 1.932 . S
O99 C109 1.307 . S
O100 Zn93 1.919 . S
O100 C111 1.253 . S
O101 Zn95 1.941 . S
O101 C111 1.283 . S
O102 Zn95 1.965 . S
O102 C110 1.303 . S
O103 Zn96 1.938 . S
O103 C110 1.247 . S
O104 Zn96 1.906 . S
O104 C112 1.304 . S
O105 Zn93 1.924 . S
O105 C113 1.311 . S
O106 Zn97 1.977 . S
O106 C112 1.272 . S
O107 Zn97 1.910 . S
O107 C113 1.231 . S
C108 O92 1.225 . S
C108 O114 1.298 . S
C109 O98 1.226 . S
C109 O99 1.307 . S
C110 O102 1.303 . S
C110 O103 1.247 . S
C111 O100 1.253 . S
C111 O101 1.283 . S
C112 O104 1.304 . S
C112 O106 1.272 . S
C113 O105 1.311 . S
C113 O107 1.231 . S
O114 Zn96 1.953 . S
O114 C108 1.298 . S
O115 Zn116 1.953 . S
O115 C131 1.225 . S
Zn116 O115 1.953 . S
Zn116 O117 1.949 . S
Zn116 O123 1.919 . S
Zn116 O128 1.924 . S
O117 Zn116 1.949 . S
O117 Zn118 1.923 . S
O117 Zn119 1.950 . S
O117 Zn120 1.945 . S
Zn118 O117 1.923 . S
Zn118 O121 1.933 . S
Zn118 O124 1.941 . S
Zn118 O125 1.965 . S
Zn119 O117 1.950 . S
Zn119 O126 1.938 . S
Zn119 O127 1.906 . S
Zn119 O137 1.953 . S
Zn120 O117 1.945 . S
Zn120 O122 1.932 . S
Zn120 O129 1.977 . S
Zn120 O130 1.910 . S
O121 Zn118 1.933 . S
O121 C132 1.226 . S
O122 Zn120 1.932 . S
O122 C132 1.307 . S
O123 Zn116 1.919 . S
O123 C134 1.253 . S
O124 Zn118 1.941 . S
O124 C134 1.283 . S
O125 Zn118 1.965 . S
O125 C133 1.303 . S
O126 Zn119 1.938 . S
O126 C133 1.247 . S
O127 Zn119 1.906 . S
O127 C135 1.304 . S
O128 Zn116 1.924 . S
O128 C136 1.311 . S
O129 Zn120 1.977 . S
O129 C135 1.272 . S
O130 Zn120 1.910 . S
O130 C136 1.231 . S
C131 O115 1.225 . S
C131 O137 1.298 . S
C132 O121 1.226 . S
C132 O122 1.307 . S
C133 O125 1.303 . S
C133 O126 1.247 . S
C134 O123 1.253 . S
C134 O124 1.283 . S
C135 O127 1.304 . S
C135 O129 1.272 . S
C136 O128 1.311 . S
C136 O130 1.231 . S
O137 Zn119 1.953 . S
O137 C131 1.298 . S
O138 Zn139 1.953 . S
O138 C154 1.225 . S
Zn139 O138 1.953 . S
Zn139 O140 1.949 . S
Zn139 O146 1.919 . S
Zn139 O151 1.924 . S
O140 Zn139 1.949 . S
O140 Zn141 1.923 . S
O140 Zn142 1.950 . S
O140 Zn143 1.945 . S
Zn141 O140 1.923 . S
Zn141 O144 1.933 . S
Zn141 O147 1.941 . S
Zn141 O148 1.965 . S
Zn142 O140 1.950 . S
Zn142 O149 1.938 . S
Zn142 O150 1.906 . S
Zn142 O160 1.953 . S
Zn143 O140 1.945 . S
Zn143 O145 1.932 . S
Zn143 O152 1.977 . S
Zn143 O153 1.910 . S
O144 Zn141 1.933 . S
O144 C155 1.226 . S
O145 Zn143 1.932 . S
O145 C155 1.307 . S
O146 Zn139 1.919 . S
O146 C157 1.253 . S
O147 Zn141 1.941 . S
O147 C157 1.283 . S
O148 Zn141 1.965 . S
O148 C156 1.303 . S
O149 Zn142 1.938 . S
O149 C156 1.247 . S
O150 Zn142 1.906 . S
O150 C158 1.304 . S
O151 Zn139 1.924 . S
O151 C159 1.311 . S
O152 Zn143 1.977 . S
O152 C158 1.272 . S
O153 Zn143 1.910 . S
O153 C159 1.231 . S
C154 O138 1.225 . S
C154 O160 1.298 . S
C155 O144 1.226 . S
C155 O145 1.307 . S
C156 O148 1.303 . S
C156 O149 1.247 . S
C157 O146 1.253 . S
C157 O147 1.283 . S
C158 O150 1.304 . S
C158 O152 1.272 . S
C159 O151 1.311 . S
C159 O153 1.231 . S
O160 Zn142 1.953 . S
O160 C154 1.298 . S
O161 Zn162 1.953 . S
O161 C177 1.225 . S
Zn162 O161 1.953 . S
Zn162 O163 1.949 . S
Zn162 O169 1.919 . S
Zn162 O174 1.924 . S
O163 Zn162 1.949 . S
O163 Zn164 1.923 . S
O163 Zn165 1.950 . S
O163 Zn166 1.945 . S
Zn164 O163 1.923 . S
Zn164 O167 1.933 . S
Zn164 O170 1.941 . S
Zn164 O171 1.965 . S
Zn165 O163 1.950 . S
Zn165 O172 1.938 . S
Zn165 O173 1.906 . S
Zn165 O183 1.953 . S
Zn166 O163 1.945 . S
Zn166 O168 1.932 . S
Zn166 O175 1.977 . S
Zn166 O176 1.910 . S
O167 Zn164 1.933 . S
O167 C178 1.226 . S
O168 Zn166 1.932 . S
O168 C178 1.307 . S
O169 Zn162 1.919 . S
O169 C180 1.253 . S
O170 Zn164 1.941 . S
O170 C180 1.283 . S
O171 Zn164 1.965 . S
O171 C179 1.303 . S
O172 Zn165 1.938 . S
O172 C179 1.247 . S
O173 Zn165 1.906 . S
O173 C181 1.304 . S
O174 Zn162 1.924 . S
O174 C182 1.311 . S
O175 Zn166 1.977 . S
O175 C181 1.272 . S
O176 Zn166 1.910 . S
O176 C182 1.231 . S
C177 O161 1.225 . S
C177 O183 1.298 . S
C178 O167 1.226 . S
C178 O168 1.307 . S
C179 O171 1.303 . S
C179 O172 1.247 . S
C180 O169 1.253 . S
C180 O170 1.283 . S
C181 O173 1.304 . S
C181 O175 1.272 . S
C182 O174 1.311 . S
C182 O176 1.231 . S
O183 Zn165 1.953 . S
O183 C177 1.298 . S
O184 Zn185 1.953 . S
O184 C200 1.225 . S
Zn185 O184 1.953 . S
Zn185 O186 1.949 . S
Zn185 O192 1.919 . S
Zn185 O197 1.924 . S
O186 Zn185 1.949 . S
O186 Zn187 1.923 . S
O186 Zn188 1.950 . S
O186 Zn189 1.945 . S
Zn187 O186 1.923 . S
Zn187 O190 1.933 . S
Zn187 O193 1.941 . S
Zn187 O194 1.965 . S
Zn188 O186 1.950 . S
Zn188 O195 1.938 . S
Zn188 O196 1.906 . S
Zn188 O206 1.953 . S
Zn189 O186 1.945 . S
Zn189 O191 1.932 . S
Zn189 O198 1.977 . S
Zn189 O199 1.910 . S
O190 Zn187 1.933 . S
O190 C201 1.226 . S
O191 Zn189 1.932 . S
O191 C201 1.307 . S
O192 Zn185 1.919 . S
O192 C203 1.253 . S
O193 Zn187 1.941 . S
O193 C203 1.283 . S
O194 Zn187 1.965 . S
O194 C202 1.303 . S
O195 Zn188 1.938 . S
O195 C202 1.247 . S
O196 Zn188 1.906 . S
O196 C204 1.304 . S
O197 Zn185 1.924 . S
O197 C205 1.311 . S
O198 Zn189 1.977 . S
O198 C204 1.272 . S
O199 Zn189 1.910 . S
O199 C205 1.231 . S
C200 O184 1.225 . S
C200 O206 1.298 . S
C201 O190 1.226 . S
C201 O191 1.307 . S
C202 O194 1.303 . S
C202 O195 1.247 . S
C203 O192 1.253 . S
C203 O193 1.283 . S
C204 O196 1.304 . S
C204 O198 1.272 . S
C205 O197 1.311 . S
C205 O199 1.231 . S
O206 Zn188 1.953 . S
O206 C200 1.298 . S
O207 Zn208 1.953 . S
O207 C223 1.225 . S
Zn208 O207 1.953 . S
Zn208 O209 1.949 . S
Zn208 O215 1.919 . S
Zn208 O220 1.924 . S
O209 Zn208 1.949 . S
O209 Zn210 1.923 . S
O209 Zn211 1.950 . S
O209 Zn212 1.945 . S
Zn210 O209 1.923 . S
Zn210 O213 1.933 . S
Zn210 O216 1.941 . S
Zn210 O217 1.965 . S
Zn211 O209 1.950 . S
Zn211 O218 1.938 . S
Zn211 O219 1.906 . S
Zn211 O229 1.953 . S
Zn212 O209 1.945 . S
Zn212 O214 1.932 . S
Zn212 O221 1.977 . S
Zn212 O222 1.910 . S
O213 Zn210 1.933 . S
O213 C224 1.226 . S
O214 Zn212 1.932 . S
O214 C224 1.307 . S
O215 Zn208 1.919 . S
O215 C226 1.253 . S
O216 Zn210 1.941 . S
O216 C226 1.283 . S
O217 Zn210 1.965 . S
O217 C225 1.303 . S
O218 Zn211 1.938 . S
O218 C225 1.247 . S
O219 Zn211 1.906 . S
O219 C227 1.304 . S
O220 Zn208 1.924 . S
O220 C228 1.311 . S
O221 Zn212 1.977 . S
O221 C227 1.272 . S
O222 Zn212 1.910 . S
O222 C228 1.231 . S
C223 O207 1.225 . S
C223 O229 1.298 . S
C224 O213 1.226 . S
C224 O214 1.307 . S
C225 O217 1.303 . S
C225 O218 1.247 . S
C226 O215 1.253 . S
C226 O216 1.283 . S
C227 O219 1.304 . S
C227 O221 1.272 . S
C228 O220 1.311 . S
C228 O222 1.231 . S
O229 Zn211 1.953 . S
O229 C223 1.298 . S
O230 Zn231 1.953 . S
O230 C246 1.225 . S
Zn231 O230 1.953 . S
Zn231 O232 1.949 . S
Zn231 O238 1.919 . S
Zn231 O243 1.924 . S
O232 Zn231 1.949 . S
O232 Zn233 1.923 . S
O232 Zn234 1.950 . S
O232 Zn235 1.945 . S
Zn233 O232 1.923 . S
Zn233 O236 1.933 . S
Zn233 O239 1.941 . S
Zn233 O240 1.965 . S
Zn234 O232 1.950 . S
Zn234 O241 1.938 . S
Zn234 O242 1.906 . S
Zn234 O252 1.953 . S
Zn235 O232 1.945 . S
Zn235 O237 1.932 . S
Zn235 O244 1.977 . S
Zn235 O245 1.910 . S
O236 Zn233 1.933 . S
O236 C247 1.226 . S
O237 Zn235 1.932 . S
O237 C247 1.307 . S
O238 Zn231 1.919 . S
O238 C249 1.253 . S
O239 Zn233 1.941 . S
O239 C249 1.283 . S
O240 Zn233 1.965 . S
O240 C248 1.303 . S
O241 Zn234 1.938 . S
O241 C248 1.247 . S
O242 Zn234 1.906 . S
O242 C250 1.284 1_455 S
O243 Zn231 1.924 . S
O243 C251 1.311 . S
O244 Zn235 1.977 . S
O244 C250 1.267 1_455 S
O245 Zn235 1.910 . S
O245 C251 1.231 . S
C246 O230 1.225 . S
C246 O252 1.298 . S
C247 O236 1.226 . S
C247 O237 1.307 . S
C248 O240 1.303 . S
C248 O241 1.247 . S
C249 O238 1.253 . S
C249 O239 1.283 . S
C250 O242 1.284 1_655 S
C250 O244 1.267 1_655 S
C251 O243 1.311 . S
C251 O245 1.231 . S
O252 Zn234 1.953 . S
O252 C246 1.298 . S
O253 Zn254 1.953 . S
O253 C269 1.225 . S
Zn254 O253 1.953 . S
Zn254 O255 1.949 . S
Zn254 O261 1.919 . S
Zn254 O266 1.924 . S
O255 Zn254 1.949 . S
O255 Zn256 1.923 . S
O255 Zn257 1.950 . S
O255 Zn258 1.945 . S
Zn256 O255 1.923 . S
Zn256 O259 1.933 . S
Zn256 O262 1.941 . S
Zn256 O263 1.965 . S
Zn257 O255 1.950 . S
Zn257 O264 1.938 . S
Zn257 O265 1.906 . S
Zn257 O275 1.953 . S
Zn258 O255 1.945 . S
Zn258 O260 1.932 . S
Zn258 O267 1.977 . S
Zn258 O268 1.910 . S
O259 Zn256 1.933 . S
O259 C270 1.226 . S
O260 Zn258 1.932 . S
O260 C270 1.307 . S
O261 Zn254 1.919 . S
O261 C272 1.253 . S
O262 Zn256 1.941 . S
O262 C272 1.283 . S
O263 Zn256 1.965 . S
O263 C271 1.303 . S
O264 Zn257 1.938 . S
O264 C271 1.247 . S
O265 Zn257 1.906 . S
O265 C273 1.294 1_545 S
O266 Zn254 1.924 . S
O266 C274 1.311 . S
O267 Zn258 1.977 . S
O267 C273 1.269 1_545 S
O268 Zn258 1.910 . S
O268 C274 1.231 . S
C269 O253 1.225 . S
C269 O275 1.298 . S
C270 O259 1.226 . S
C270 O260 1.307 . S
C271 O263 1.303 . S
C271 O264 1.247 . S
C272 O261 1.253 . S
C272 O262 1.283 . S
C273 O265 1.294 1_565 S
C273 O267 1.269 1_565 S
C274 O266 1.311 . S
C274 O268 1.231 . S
O275 Zn257 1.953 . S
O275 C269 1.298 . S
O276 Zn277 1.953 . S
O276 C292 1.225 . S
Zn277 O276 1.953 . S
Zn277 O278 1.949 . S
Zn277 O284 1.919 . S
Zn277 O289 1.924 . S
O278 Zn277 1.949 . S
O278 Zn279 1.923 . S
O278 Zn280 1.950 . S
O278 Zn281 1.945 . S
Zn279 O278 1.923 . S
Zn279 O282 1.933 . S
Zn279 O285 1.941 . S
Zn279 O286 1.965 . S
Zn280 O278 1.950 . S
Zn280 O287 1.938 . S
Zn280 O288 1.906 . S
Zn280 O298 1.953 . S
Zn281 O278 1.945 . S
Zn281 O283 1.932 . S
Zn281 O290 1.977 . S
Zn281 O291 1.910 . S
O282 Zn279 1.933 . S
O282 C293 1.226 . S
O283 Zn281 1.932 . S
O283 C293 1.307 . S
O284 Zn277 1.919 . S
O284 C295 1.253 . S
O285 Zn279 1.941 . S
O285 C295 1.283 . S
O286 Zn279 1.965 . S
O286 C294 1.303 . S
O287 Zn280 1.938 . S
O287 C294 1.247 . S
O288 Zn280 1.906 . S
O288 C296 1.304 1_655 S
O289 Zn277 1.924 . S
O289 C297 1.311 . S
O290 Zn281 1.977 . S
O290 C296 1.272 1_655 S
O291 Zn281 1.910 . S
O291 C297 1.231 . S
C292 O276 1.225 . S
C292 O298 1.298 . S
C293 O282 1.226 . S
C293 O283 1.307 . S
C294 O286 1.303 . S
C294 O287 1.247 . S
C295 O284 1.253 . S
C295 O285 1.283 . S
C296 O288 1.304 1_455 S
C296 O290 1.272 1_455 S
C297 O289 1.311 . S
C297 O291 1.231 . S
O298 Zn280 1.953 . S
O298 C292 1.298 . S
O299 Zn300 1.953 . S
O299 C315 1.225 . S
Zn300 O299 1.953 . S
Zn300 O301 1.949 . S
Zn300 O307 1.919 . S
Zn300 O312 1.924 . S
O301 Zn300 1.949 . S
O301 Zn302 1.923 . S
O301 Zn303 1.950 . S
O301 Zn304 1.945 . S
Zn302 O301 1.923 . S
Zn302 O305 1.933 . S
Zn302 O308 1.941 . S
Zn302 O309 1.965 . S
Zn303 O301 1.950 . S
Zn303 O310 1.938 . S
Zn303 O311 1.906 . S
Zn303 O321 1.953 . S
Zn304 O301 1.945 . S
Zn304 O306 1.932 . S
Zn304 O313 1.977 . S
Zn304 O314 1.910 . S
O305 Zn302 1.933 . S
O305 C316 1.226 . S
O306 Zn304 1.932 . S
O306 C316 1.307 . S
O307 Zn300 1.919 . S
O307 C318 1.253 . S
O308 Zn302 1.941 . S
O308 C318 1.283 . S
O309 Zn302 1.965 . S
O309 C317 1.303 . S
O310 Zn303 1.938 . S
O310 C317 1.247 . S
O311 Zn303 1.906 . S
O311 C319 1.291 1_565 S
O312 Zn300 1.924 . S
O312 C320 1.311 . S
O313 Zn304 1.977 . S
O313 C319 1.268 1_565 S
O314 Zn304 1.910 . S
O314 C320 1.231 . S
C315 O299 1.225 . S
C315 O321 1.298 . S
C316 O305 1.226 . S
C316 O306 1.307 . S
C317 O309 1.303 . S
C317 O310 1.247 . S
C318 O307 1.253 . S
C318 O308 1.283 . S
C319 O311 1.291 1_545 S
C319 O313 1.268 1_545 S
C320 O312 1.311 . S
C320 O314 1.231 . S
O321 Zn303 1.953 . S
O321 C315 1.298 . S
O322 Zn323 1.953 . S
O322 C338 1.225 . S
Zn323 O322 1.953 . S
Zn323 O324 1.949 . S
Zn323 O330 1.919 . S
Zn323 O335 1.924 . S
O324 Zn323 1.949 . S
O324 Zn325 1.923 . S
O324 Zn326 1.950 . S
O324 Zn327 1.945 . S
Zn325 O324 1.923 . S
Zn325 O328 1.933 . S
Zn325 O331 1.941 . S
Zn325 O332 1.965 . S
Zn326 O324 1.950 . S
Zn326 O333 1.938 . S
Zn326 O334 1.906 . S
Zn326 O344 1.953 . S
Zn327 O324 1.945 . S
Zn327 O329 1.932 . S
Zn327 O336 1.977 . S
Zn327 O337 1.910 . S
O328 Zn325 1.933 . S
O328 C339 1.226 . S
O329 Zn327 1.932 . S
O329 C339 1.307 . S
O330 Zn323 1.919 . S
O330 C341 1.253 . S
O331 Zn325 1.941 . S
O331 C341 1.283 . S
O332 Zn325 1.965 . S
O332 C340 1.303 . S
O333 Zn326 1.938 . S
O333 C340 1.247 . S
O334 Zn326 1.906 . S
O334 C342 1.304 . S
O335 Zn323 1.924 . S
O335 C343 1.311 . S
O336 Zn327 1.977 . S
O336 C342 1.272 . S
O337 Zn327 1.910 . S
O337 C343 1.231 . S
C338 O322 1.225 . S
C338 O344 1.298 . S
C339 O328 1.226 . S
C339 O329 1.307 . S
C340 O332 1.303 . S
C340 O333 1.247 . S
C341 O330 1.253 . S
C341 O331 1.283 . S
C342 O334 1.304 . S
C342 O336 1.272 . S
C343 O335 1.311 . S
C343 O337 1.231 . S
O344 Zn326 1.953 . S
O344 C338 1.298 . S
O345 Zn346 1.953 . S
O345 C361 1.225 . S
Zn346 O345 1.953 . S
Zn346 O347 1.949 . S
Zn346 O353 1.919 . S
Zn346 O358 1.924 . S
O347 Zn346 1.949 . S
O347 Zn348 1.923 . S
O347 Zn349 1.950 . S
O347 Zn350 1.945 . S
Zn348 O347 1.923 . S
Zn348 O351 1.933 . S
Zn348 O354 1.941 . S
Zn348 O355 1.965 . S
Zn349 O347 1.950 . S
Zn349 O356 1.938 . S
Zn349 O357 1.906 . S
Zn349 O367 1.953 . S
Zn350 O347 1.945 . S
Zn350 O352 1.932 . S
Zn350 O359 1.977 . S
Zn350 O360 1.910 . S
O351 Zn348 1.933 . S
O351 C362 1.226 . S
O352 Zn350 1.932 . S
O352 C362 1.307 . S
O353 Zn346 1.919 . S
O353 C364 1.253 . S
O354 Zn348 1.941 . S
O354 C364 1.283 . S
O355 Zn348 1.965 . S
O355 C363 1.303 . S
O356 Zn349 1.938 . S
O356 C363 1.247 . S
O357 Zn349 1.906 . S
O357 C365 1.304 . S
O358 Zn346 1.924 . S
O358 C366 1.311 . S
O359 Zn350 1.977 . S
O359 C365 1.272 . S
O360 Zn350 1.910 . S
O360 C366 1.231 . S
C361 O345 1.225 . S
C361 O367 1.298 . S
C362 O351 1.226 . S
C362 O352 1.307 . S
C363 O355 1.303 . S
C363 O356 1.247 . S
C364 O353 1.253 . S
C364 O354 1.283 . S
C365 O357 1.304 . S
C365 O359 1.272 . S
C366 O358 1.311 . S
C366 O360 1.231 . S
O367 Zn349 1.953 . S
O367 C361 1.298 . S
H368 C376 0.929 . S
H369 C378 0.930 . S
H370 C380 0.930 . S
H371 C383 0.929 . S
H372 C386 0.930 . S
H373 C388 0.960 . S
H374 C388 0.960 . S
H375 C388 0.960 . S
C376 H368 0.929 . S
C376 C377 1.377 . S
C376 C378 1.384 . S
C377 C376 1.377 . S
C377 C383 1.390 . S
C378 H369 0.930 . S
C378 C376 1.384 . S
C378 C379 1.372 . S
C379 C378 1.372 . S
C379 C380 1.400 . S
C379 C384 1.490 . S
C380 H370 0.930 . S
C380 C379 1.400 . S
C380 C383 1.386 . S
H381 C397 0.930 . S
H382 C398 0.931 . S
C383 H371 0.929 . S
C383 C377 1.390 . S
C383 C380 1.386 . S
C384 C379 1.490 . S
C384 C386 1.395 . S
C384 C387 1.403 . S
H385 C391 0.930 . S
C386 H372 0.930 . S
C386 C384 1.395 . S
C386 C389 1.403 . S
C387 C384 1.403 . S
C387 C388 1.524 . S
C387 C391 1.400 . S
C388 H373 0.960 . S
C388 H374 0.960 . S
C388 H375 0.960 . S
C388 C387 1.524 . S
C389 C386 1.403 . S
C389 C390 1.392 . S
C389 C393 1.495 . S
C390 C389 1.392 . S
C390 C391 1.385 . S
C390 C392 1.478 . S
C391 H385 0.930 . S
C391 C387 1.400 . S
C391 C390 1.385 . S
C392 C390 1.478 . S
C392 C394 1.381 . S
C392 C398 1.383 . S
C393 C389 1.495 . S
C393 H399 0.959 . S
C393 H400 0.961 . S
C393 H401 0.960 . S
C394 C392 1.381 . S
C394 C395 1.394 . S
C394 H402 0.930 . S
C395 C394 1.394 . S
C395 C396 1.383 . S
C395 H403 0.929 . S
C396 C395 1.383 . S
C396 C397 1.377 . S
C397 H381 0.930 . S
C397 C396 1.377 . S
C397 C398 1.379 . S
C398 H382 0.931 . S
C398 C392 1.383 . S
C398 C397 1.379 . S
H399 C393 0.959 . S
H400 C393 0.961 . S
H401 C393 0.960 . S
H402 C394 0.930 . S
H403 C395 0.929 . S
H404 C412 0.929 . S
H405 C414 0.930 . S
H406 C416 0.930 . S
H407 C419 0.929 . S
H408 C422 0.930 . S
H409 C424 0.960 . S
H410 C424 0.960 . S
H411 C424 0.960 . S
C412 H404 0.929 . S
C412 C413 1.377 . S
C412 C414 1.384 . S
C413 C412 1.377 . S
C413 C419 1.390 . S
C414 H405 0.930 . S
C414 C412 1.384 . S
C414 C415 1.372 . S
C415 C414 1.372 . S
C415 C416 1.400 . S
C415 C420 1.490 . S
C416 H406 0.930 . S
C416 C415 1.400 . S
C416 C419 1.386 . S
H417 C433 0.930 . S
H418 C434 0.931 . S
C419 H407 0.929 . S
C419 C413 1.390 . S
C419 C416 1.386 . S
C420 C415 1.490 . S
C420 C422 1.395 . S
C420 C423 1.403 . S
H421 C427 0.930 . S
C422 H408 0.930 . S
C422 C420 1.395 . S
C422 C425 1.403 . S
C423 C420 1.403 . S
C423 C424 1.524 . S
C423 C427 1.400 . S
C424 H409 0.960 . S
C424 H410 0.960 . S
C424 H411 0.960 . S
C424 C423 1.524 . S
C425 C422 1.403 . S
C425 C426 1.392 . S
C425 C429 1.495 . S
C426 C425 1.392 . S
C426 C427 1.385 . S
C426 C428 1.478 . S
C427 H421 0.930 . S
C427 C423 1.400 . S
C427 C426 1.385 . S
C428 C426 1.478 . S
C428 C430 1.381 . S
C428 C434 1.383 . S
C429 C425 1.495 . S
C429 H435 0.959 . S
C429 H436 0.961 . S
C429 H437 0.960 . S
C430 C428 1.381 . S
C430 C431 1.394 . S
C430 H438 0.930 . S
C431 C430 1.394 . S
C431 C432 1.383 . S
C431 H439 0.929 . S
C432 C431 1.383 . S
C432 C433 1.377 . S
C433 H417 0.930 . S
C433 C432 1.377 . S
C433 C434 1.379 . S
C434 H418 0.931 . S
C434 C428 1.383 . S
C434 C433 1.379 . S
H435 C429 0.959 . S
H436 C429 0.961 . S
H437 C429 0.960 . S
H438 C430 0.930 . S
H439 C431 0.929 . S
H440 C448 0.929 . S
H441 C450 0.930 . S
H442 C452 0.930 . S
H443 C455 0.929 . S
H444 C458 0.930 . S
H445 C460 0.960 . S
H446 C460 0.960 . S
H447 C460 0.960 . S
C448 H440 0.929 . S
C448 C449 1.377 . S
C448 C450 1.384 . S
C449 C448 1.377 . S
C449 C455 1.390 . S
C450 H441 0.930 . S
C450 C448 1.384 . S
C450 C451 1.372 . S
C451 C450 1.372 . S
C451 C452 1.400 . S
C451 C456 1.490 . S
C452 H442 0.930 . S
C452 C451 1.400 . S
C452 C455 1.386 . S
H453 C469 0.930 . S
H454 C470 0.931 . S
C455 H443 0.929 . S
C455 C449 1.390 . S
C455 C452 1.386 . S
C456 C451 1.490 . S
C456 C458 1.395 . S
C456 C459 1.403 . S
H457 C463 0.930 . S
C458 H444 0.930 . S
C458 C456 1.395 . S
C458 C461 1.403 . S
C459 C456 1.403 . S
C459 C460 1.524 . S
C459 C463 1.400 . S
C460 H445 0.960 . S
C460 H446 0.960 . S
C460 H447 0.960 . S
C460 C459 1.524 . S
C461 C458 1.403 . S
C461 C462 1.392 . S
C461 C465 1.495 . S
C462 C461 1.392 . S
C462 C463 1.385 . S
C462 C464 1.478 . S
C463 H457 0.930 . S
C463 C459 1.400 . S
C463 C462 1.385 . S
C464 C462 1.478 . S
C464 C466 1.381 . S
C464 C470 1.383 . S
C465 C461 1.495 . S
C465 H471 0.959 . S
C465 H472 0.961 . S
C465 H473 0.960 . S
C466 C464 1.381 . S
C466 C467 1.394 . S
C466 H474 0.930 . S
C467 C466 1.394 . S
C467 C468 1.383 . S
C467 H475 0.929 . S
C468 C467 1.383 . S
C468 C469 1.377 . S
C469 H453 0.930 . S
C469 C468 1.377 . S
C469 C470 1.379 . S
C470 H454 0.931 . S
C470 C464 1.383 . S
C470 C469 1.379 . S
H471 C465 0.959 . S
H472 C465 0.961 . S
H473 C465 0.960 . S
H474 C466 0.930 . S
H475 C467 0.929 . S
H476 C484 0.929 . S
H477 C486 0.930 . S
H478 C488 0.930 . S
H479 C491 0.929 . S
H480 C494 0.930 . S
H481 C496 0.960 . S
H482 C496 0.960 . S
H483 C496 0.960 . S
C484 H476 0.929 . S
C484 C485 1.377 . S
C484 C486 1.384 . S
C485 C484 1.377 . S
C485 C491 1.390 . S
C486 H477 0.930 . S
C486 C484 1.384 . S
C486 C487 1.372 . S
C487 C486 1.372 . S
C487 C488 1.400 . S
C487 C492 1.490 . S
C488 H478 0.930 . S
C488 C487 1.400 . S
C488 C491 1.386 . S
H489 C505 0.930 . S
H490 C506 0.931 . S
C491 H479 0.929 . S
C491 C485 1.390 . S
C491 C488 1.386 . S
C492 C487 1.490 . S
C492 C494 1.395 . S
C492 C495 1.403 . S
H493 C499 0.930 . S
C494 H480 0.930 . S
C494 C492 1.395 . S
C494 C497 1.403 . S
C495 C492 1.403 . S
C495 C496 1.524 . S
C495 C499 1.400 . S
C496 H481 0.960 . S
C496 H482 0.960 . S
C496 H483 0.960 . S
C496 C495 1.524 . S
C497 C494 1.403 . S
C497 C498 1.392 . S
C497 C501 1.495 . S
C498 C497 1.392 . S
C498 C499 1.385 . S
C498 C500 1.478 . S
C499 H493 0.930 . S
C499 C495 1.400 . S
C499 C498 1.385 . S
C500 C498 1.478 . S
C500 C502 1.381 . S
C500 C506 1.383 . S
C501 C497 1.495 . S
C501 H507 0.959 . S
C501 H508 0.961 . S
C501 H509 0.960 . S
C502 C500 1.381 . S
C502 C503 1.394 . S
C502 H510 0.930 . S
C503 C502 1.394 . S
C503 C504 1.383 . S
C503 H511 0.929 . S
C504 C503 1.383 . S
C504 C505 1.377 . S
C505 H489 0.930 . S
C505 C504 1.377 . S
C505 C506 1.379 . S
C506 H490 0.931 . S
C506 C500 1.383 . S
C506 C505 1.379 . S
H507 C501 0.959 . S
H508 C501 0.961 . S
H509 C501 0.960 . S
H510 C502 0.930 . S
H511 C503 0.929 . S
H512 C520 0.929 . S
H513 C522 0.930 . S
H514 C524 0.930 . S
H515 C527 0.929 . S
H516 C530 0.930 . S
H517 C532 0.960 . S
H518 C532 0.960 . S
H519 C532 0.960 . S
C520 H512 0.929 . S
C520 C521 1.377 . S
C520 C522 1.384 . S
C521 C520 1.377 . S
C521 C527 1.390 . S
C522 H513 0.930 . S
C522 C520 1.384 . S
C522 C523 1.372 . S
C523 C522 1.372 . S
C523 C524 1.400 . S
C523 C528 1.490 . S
C524 H514 0.930 . S
C524 C523 1.400 . S
C524 C527 1.386 . S
H525 C541 0.930 . S
H526 C542 0.931 . S
C527 H515 0.929 . S
C527 C521 1.390 . S
C527 C524 1.386 . S
C528 C523 1.490 . S
C528 C530 1.395 . S
C528 C531 1.403 . S
H529 C535 0.930 . S
C530 H516 0.930 . S
C530 C528 1.395 . S
C530 C533 1.403 . S
C531 C528 1.403 . S
C531 C532 1.524 . S
C531 C535 1.400 . S
C532 H517 0.960 . S
C532 H518 0.960 . S
C532 H519 0.960 . S
C532 C531 1.524 . S
C533 C530 1.403 . S
C533 C534 1.392 . S
C533 C537 1.495 . S
C534 C533 1.392 . S
C534 C535 1.385 . S
C534 C536 1.478 . S
C535 H529 0.930 . S
C535 C531 1.400 . S
C535 C534 1.385 . S
C536 C534 1.478 . S
C536 C538 1.381 . S
C536 C542 1.383 . S
C537 C533 1.495 . S
C537 H543 0.959 . S
C537 H544 0.961 . S
C537 H545 0.960 . S
C538 C536 1.381 . S
C538 C539 1.394 . S
C538 H546 0.930 . S
C539 C538 1.394 . S
C539 C540 1.383 . S
C539 H547 0.929 . S
C540 C539 1.383 . S
C540 C541 1.377 . S
C541 H525 0.930 . S
C541 C540 1.377 . S
C541 C542 1.379 . S
C542 H526 0.931 . S
C542 C536 1.383 . S
C542 C541 1.379 . S
H543 C537 0.959 . S
H544 C537 0.961 . S
H545 C537 0.960 . S
H546 C538 0.930 . S
H547 C539 0.929 . S
H548 C556 0.929 . S
H549 C558 0.930 . S
H550 C560 0.930 . S
H551 C563 0.929 . S
H552 C566 0.930 . S
H553 C568 0.960 . S
H554 C568 0.960 . S
H555 C568 0.960 . S
C556 H548 0.929 . S
C556 C557 1.377 . S
C556 C558 1.384 . S
C557 C556 1.377 . S
C557 C563 1.390 . S
C558 H549 0.930 . S
C558 C556 1.384 . S
C558 C559 1.372 . S
C559 C558 1.372 . S
C559 C560 1.400 . S
C559 C564 1.490 . S
C560 H550 0.930 . S
C560 C559 1.400 . S
C560 C563 1.386 . S
H561 C577 0.930 . S
H562 C578 0.931 . S
C563 H551 0.929 . S
C563 C557 1.390 . S
C563 C560 1.386 . S
C564 C559 1.490 . S
C564 C566 1.395 . S
C564 C567 1.403 . S
H565 C571 0.930 . S
C566 H552 0.930 . S
C566 C564 1.395 . S
C566 C569 1.403 . S
C567 C564 1.403 . S
C567 C568 1.524 . S
C567 C571 1.400 . S
C568 H553 0.960 . S
C568 H554 0.960 . S
C568 H555 0.960 . S
C568 C567 1.524 . S
C569 C566 1.403 . S
C569 C570 1.392 . S
C569 C573 1.495 . S
C570 C569 1.392 . S
C570 C571 1.385 . S
C570 C572 1.478 . S
C571 H565 0.930 . S
C571 C567 1.400 . S
C571 C570 1.385 . S
C572 C570 1.478 . S
C572 C574 1.381 . S
C572 C578 1.383 . S
C573 C569 1.495 . S
C573 H579 0.959 . S
C573 H580 0.961 . S
C573 H581 0.960 . S
C574 C572 1.381 . S
C574 C575 1.394 . S
C574 H582 0.930 . S
C575 C574 1.394 . S
C575 C576 1.383 . S
C575 H583 0.929 . S
C576 C575 1.383 . S
C576 C577 1.377 . S
C577 H561 0.930 . S
C577 C576 1.377 . S
C577 C578 1.379 . S
C578 H562 0.931 . S
C578 C572 1.383 . S
C578 C577 1.379 . S
H579 C573 0.959 . S
H580 C573 0.961 . S
H581 C573 0.960 . S
H582 C574 0.930 . S
H583 C575 0.929 . S
H584 C592 0.929 . S
H585 C594 0.930 . S
H586 C596 0.930 . S
H587 C599 0.929 . S
H588 C602 0.930 . S
H589 C604 0.960 . S
H590 C604 0.960 . S
H591 C604 0.960 . S
C592 H584 0.929 . S
C592 C593 1.377 . S
C592 C594 1.384 . S
C593 C592 1.377 . S
C593 C599 1.390 . S
C594 H585 0.930 . S
C594 C592 1.384 . S
C594 C595 1.372 . S
C595 C594 1.372 . S
C595 C596 1.400 . S
C595 C600 1.490 . S
C596 H586 0.930 . S
C596 C595 1.400 . S
C596 C599 1.386 . S
H597 C613 0.930 . S
H598 C614 0.931 . S
C599 H587 0.929 . S
C599 C593 1.390 . S
C599 C596 1.386 . S
C600 C595 1.490 . S
C600 C602 1.395 . S
C600 C603 1.403 . S
H601 C607 0.930 . S
C602 H588 0.930 . S
C602 C600 1.395 . S
C602 C605 1.403 . S
C603 C600 1.403 . S
C603 C604 1.524 . S
C603 C607 1.400 . S
C604 H589 0.960 . S
C604 H590 0.960 . S
C604 H591 0.960 . S
C604 C603 1.524 . S
C605 C602 1.403 . S
C605 C606 1.392 . S
C605 C609 1.495 . S
C606 C605 1.392 . S
C606 C607 1.385 . S
C606 C608 1.478 . S
C607 H601 0.930 . S
C607 C603 1.400 . S
C607 C606 1.385 . S
C608 C606 1.478 . S
C608 C610 1.381 . S
C608 C614 1.383 . S
C609 C605 1.495 . S
C609 H615 0.959 . S
C609 H616 0.961 . S
C609 H617 0.960 . S
C610 C608 1.381 . S
C610 C611 1.394 . S
C610 H618 0.930 . S
C611 C610 1.394 . S
C611 C612 1.383 . S
C611 H619 0.929 . S
C612 C611 1.383 . S
C612 C613 1.377 . S
C613 H597 0.930 . S
C613 C612 1.377 . S
C613 C614 1.379 . S
C614 H598 0.931 . S
C614 C608 1.383 . S
C614 C613 1.379 . S
H615 C609 0.959 . S
H616 C609 0.961 . S
H617 C609 0.960 . S
H618 C610 0.930 . S
H619 C611 0.929 . S
H620 C628 0.929 . S
H621 C630 0.930 . S
H622 C632 0.930 . S
H623 C635 0.929 . S
H624 C638 0.930 . S
H625 C640 0.960 . S
H626 C640 0.960 . S
H627 C640 0.960 . S
C628 H620 0.929 . S
C628 C629 1.377 . S
C628 C630 1.384 . S
C629 C628 1.377 . S
C629 C635 1.390 . S
C630 H621 0.930 . S
C630 C628 1.384 . S
C630 C631 1.372 . S
C631 C630 1.372 . S
C631 C632 1.400 . S
C631 C636 1.490 . S
C632 H622 0.930 . S
C632 C631 1.400 . S
C632 C635 1.386 . S
H633 C649 0.930 . S
H634 C650 0.931 . S
C635 H623 0.929 . S
C635 C629 1.390 . S
C635 C632 1.386 . S
C636 C631 1.490 . S
C636 C638 1.395 . S
C636 C639 1.403 . S
H637 C643 0.930 . S
C638 H624 0.930 . S
C638 C636 1.395 . S
C638 C641 1.403 . S
C639 C636 1.403 . S
C639 C640 1.524 . S
C639 C643 1.400 . S
C640 H625 0.960 . S
C640 H626 0.960 . S
C640 H627 0.960 . S
C640 C639 1.524 . S
C641 C638 1.403 . S
C641 C642 1.392 . S
C641 C645 1.495 . S
C642 C641 1.392 . S
C642 C643 1.385 . S
C642 C644 1.478 . S
C643 H637 0.930 . S
C643 C639 1.400 . S
C643 C642 1.385 . S
C644 C642 1.478 . S
C644 C646 1.381 . S
C644 C650 1.383 . S
C645 C641 1.495 . S
C645 H651 0.959 . S
C645 H652 0.961 . S
C645 H653 0.960 . S
C646 C644 1.381 . S
C646 C647 1.394 . S
C646 H654 0.930 . S
C647 C646 1.394 . S
C647 C648 1.383 . S
C647 H655 0.929 . S
C648 C647 1.383 . S
C648 C649 1.377 . S
C649 H633 0.930 . S
C649 C648 1.377 . S
C649 C650 1.379 . S
C650 H634 0.931 . S
C650 C644 1.383 . S
C650 C649 1.379 . S
H651 C645 0.959 . S
H652 C645 0.961 . S
H653 C645 0.960 . S
H654 C646 0.930 . S
H655 C647 0.929 . S
H656 C664 0.929 . S
H657 C666 0.930 . S
H658 C668 0.930 . S
H659 C671 0.929 . S
H660 C674 0.930 . S
H661 C676 0.960 . S
H662 C676 0.960 . S
H663 C676 0.960 . S
C664 H656 0.929 . S
C664 C665 1.377 . S
C664 C666 1.384 . S
C665 C664 1.377 . S
C665 C671 1.390 . S
C666 H657 0.930 . S
C666 C664 1.384 . S
C666 C667 1.372 . S
C667 C666 1.372 . S
C667 C668 1.400 . S
C667 C672 1.490 . S
C668 H658 0.930 . S
C668 C667 1.400 . S
C668 C671 1.386 . S
H669 C685 0.930 . S
H670 C686 0.931 . S
C671 H659 0.929 . S
C671 C665 1.390 . S
C671 C668 1.386 . S
C672 C667 1.490 . S
C672 C674 1.395 . S
C672 C675 1.403 . S
H673 C679 0.930 . S
C674 H660 0.930 . S
C674 C672 1.395 . S
C674 C677 1.403 . S
C675 C672 1.403 . S
C675 C676 1.524 . S
C675 C679 1.400 . S
C676 H661 0.960 . S
C676 H662 0.960 . S
C676 H663 0.960 . S
C676 C675 1.524 . S
C677 C674 1.403 . S
C677 C678 1.392 . S
C677 C681 1.495 . S
C678 C677 1.392 . S
C678 C679 1.385 . S
C678 C680 1.478 . S
C679 H673 0.930 . S
C679 C675 1.400 . S
C679 C678 1.385 . S
C680 C678 1.478 . S
C680 C682 1.381 . S
C680 C686 1.383 . S
C681 C677 1.495 . S
C681 H687 0.959 . S
C681 H688 0.961 . S
C681 H689 0.960 . S
C682 C680 1.381 . S
C682 C683 1.394 . S
C682 H690 0.930 . S
C683 C682 1.394 . S
C683 C684 1.383 1_545 S
C683 H691 0.929 . S
C684 C683 1.383 1_565 S
C684 C685 1.377 . S
C685 H669 0.930 . S
C685 C684 1.377 . S
C685 C686 1.379 1_565 S
C686 H670 0.931 . S
C686 C680 1.383 . S
C686 C685 1.379 1_545 S
H687 C681 0.959 . S
H688 C681 0.961 . S
H689 C681 0.960 . S
H690 C682 0.930 . S
H691 C683 0.929 . S
H692 C700 0.929 . S
H693 C702 0.930 . S
H694 C704 0.930 . S
H695 C707 0.929 . S
H696 C710 0.930 . S
H697 C712 0.960 . S
H698 C712 0.960 . S
H699 C712 0.960 . S
C700 H692 0.929 . S
C700 C701 1.377 . S
C700 C702 1.384 . S
C701 C700 1.377 . S
C701 C707 1.390 . S
C702 H693 0.930 . S
C702 C700 1.384 . S
C702 C703 1.372 . S
C703 C702 1.372 . S
C703 C704 1.400 . S
C703 C708 1.490 . S
C704 H694 0.930 . S
C704 C703 1.400 . S
C704 C707 1.386 . S
H705 C721 0.930 . S
H706 C722 0.931 . S
C707 H695 0.929 . S
C707 C701 1.390 . S
C707 C704 1.386 . S
C708 C703 1.490 . S
C708 C710 1.395 . S
C708 C711 1.403 . S
H709 C715 0.930 . S
C710 H696 0.930 . S
C710 C708 1.395 . S
C710 C713 1.403 . S
C711 C708 1.403 . S
C711 C712 1.524 . S
C711 C715 1.400 . S
C712 H697 0.960 . S
C712 H698 0.960 . S
C712 H699 0.960 . S
C712 C711 1.524 . S
C713 C710 1.403 . S
C713 C714 1.392 . S
C713 C717 1.495 . S
C714 C713 1.392 . S
C714 C715 1.385 . S
C714 C716 1.478 . S
C715 H709 0.930 . S
C715 C711 1.400 . S
C715 C714 1.385 . S
C716 C714 1.478 . S
C716 C718 1.381 . S
C716 C722 1.383 . S
C717 C713 1.495 . S
C717 H723 0.959 . S
C717 H724 0.961 . S
C717 H725 0.960 . S
C718 C716 1.381 . S
C718 C719 1.394 . S
C718 H726 0.930 . S
C719 C718 1.394 . S
C719 C720 1.383 . S
C719 H727 0.929 . S
C720 C719 1.383 . S
C720 C721 1.377 . S
C721 H705 0.930 . S
C721 C720 1.377 . S
C721 C722 1.379 . S
C722 H706 0.931 . S
C722 C716 1.383 . S
C722 C721 1.379 . S
H723 C717 0.959 . S
H724 C717 0.961 . S
H725 C717 0.960 . S
H726 C718 0.930 . S
H727 C719 0.929 . S
H728 C736 0.929 . S
H729 C738 0.930 . S
H730 C740 0.930 . S
H731 C743 0.929 . S
H732 C746 0.930 . S
H733 C748 0.960 . S
H734 C748 0.960 . S
H735 C748 0.960 . S
C736 H728 0.929 . S
C736 C737 1.377 . S
C736 C738 1.384 . S
C737 C736 1.377 . S
C737 C743 1.390 . S
C738 H729 0.930 . S
C738 C736 1.384 . S
C738 C739 1.372 . S
C739 C738 1.372 . S
C739 C740 1.400 . S
C739 C744 1.490 . S
C740 H730 0.930 . S
C740 C739 1.400 . S
C740 C743 1.386 . S
H741 C757 0.930 . S
H742 C758 0.931 . S
C743 H731 0.929 . S
C743 C737 1.390 . S
C743 C740 1.386 . S
C744 C739 1.490 . S
C744 C746 1.395 . S
C744 C747 1.403 . S
H745 C751 0.930 . S
C746 H732 0.930 . S
C746 C744 1.395 . S
C746 C749 1.403 . S
C747 C744 1.403 . S
C747 C748 1.524 . S
C747 C751 1.400 . S
C748 H733 0.960 . S
C748 H734 0.960 . S
C748 H735 0.960 . S
C748 C747 1.524 . S
C749 C746 1.403 . S
C749 C750 1.392 . S
C749 C753 1.495 . S
C750 C749 1.392 . S
C750 C751 1.385 . S
C750 C752 1.478 . S
C751 H745 0.930 . S
C751 C747 1.400 . S
C751 C750 1.385 . S
C752 C750 1.478 . S
C752 C754 1.381 . S
C752 C758 1.383 . S
C753 C749 1.495 . S
C753 H759 0.959 . S
C753 H760 0.961 . S
C753 H761 0.960 . S
C754 C752 1.381 . S
C754 C755 1.394 . S
C754 H762 0.930 . S
C755 C754 1.394 . S
C755 C756 1.383 . S
C755 H763 0.929 . S
C756 C755 1.383 . S
C756 C757 1.377 . S
C757 H741 0.930 . S
C757 C756 1.377 . S
C757 C758 1.379 . S
C758 H742 0.931 . S
C758 C752 1.383 . S
C758 C757 1.379 . S
H759 C753 0.959 . S
H760 C753 0.961 . S
H761 C753 0.960 . S
H762 C754 0.930 . S
H763 C755 0.929 . S
H764 C772 0.929 . S
H765 C774 0.930 . S
H766 C776 0.930 . S
H767 C779 0.929 . S
H768 C782 0.930 . S
H769 C784 0.960 . S
H770 C784 0.960 . S
H771 C784 0.960 . S
C772 H764 0.929 . S
C772 C773 1.377 . S
C772 C774 1.384 . S
C773 C772 1.377 . S
C773 C779 1.390 . S
C774 H765 0.930 . S
C774 C772 1.384 . S
C774 C775 1.372 . S
C775 C774 1.372 . S
C775 C776 1.400 . S
C775 C780 1.490 . S
C776 H766 0.930 . S
C776 C775 1.400 . S
C776 C779 1.386 . S
H777 C793 0.930 . S
H778 C794 0.931 . S
C779 H767 0.929 . S
C779 C773 1.390 . S
C779 C776 1.386 . S
C780 C775 1.490 . S
C780 C782 1.395 . S
C780 C783 1.403 . S
H781 C787 0.930 . S
C782 H768 0.930 . S
C782 C780 1.395 . S
C782 C785 1.403 . S
C783 C780 1.403 . S
C783 C784 1.524 . S
C783 C787 1.400 . S
C784 H769 0.960 . S
C784 H770 0.960 . S
C784 H771 0.960 . S
C784 C783 1.524 . S
C785 C782 1.403 . S
C785 C786 1.392 . S
C785 C789 1.495 . S
C786 C785 1.392 . S
C786 C787 1.385 . S
C786 C788 1.478 . S
C787 H781 0.930 . S
C787 C783 1.400 . S
C787 C786 1.385 . S
C788 C786 1.478 . S
C788 C790 1.381 . S
C788 C794 1.383 . S
C789 C785 1.495 . S
C789 H795 0.959 . S
C789 H796 0.961 . S
C789 H797 0.960 . S
C790 C788 1.381 . S
C790 C791 1.394 1_455 S
C790 H798 0.930 . S
C791 C790 1.394 1_655 S
C791 C792 1.383 . S
C791 H799 0.929 . S
C792 C791 1.383 . S
C792 C793 1.377 1_655 S
C793 H777 0.930 . S
C793 C792 1.377 1_455 S
C793 C794 1.379 . S
C794 H778 0.931 . S
C794 C788 1.383 . S
C794 C793 1.379 . S
H795 C789 0.959 . S
H796 C789 0.961 . S
H797 C789 0.960 . S
H798 C790 0.930 . S
H799 C791 0.929 . S
H800 C808 0.929 . S
H801 C810 0.930 . S
H802 C812 0.930 . S
H803 C815 0.929 . S
H804 C818 0.930 . S
H805 C820 0.960 . S
H806 C820 0.960 . S
H807 C820 0.960 . S
C808 H800 0.929 . S
C808 C809 1.377 . S
C808 C810 1.384 . S
C809 C808 1.377 . S
C809 C815 1.390 . S
C810 H801 0.930 . S
C810 C808 1.384 . S
C810 C811 1.372 . S
C811 C810 1.372 . S
C811 C812 1.400 . S
C811 C816 1.490 . S
C812 H802 0.930 . S
C812 C811 1.400 . S
C812 C815 1.386 . S
H813 C829 0.930 1_545 S
H814 C830 0.931 . S
C815 H803 0.929 . S
C815 C809 1.390 . S
C815 C812 1.386 . S
C816 C811 1.490 . S
C816 C818 1.395 . S
C816 C819 1.403 . S
H817 C823 0.930 . S
C818 H804 0.930 . S
C818 C816 1.395 . S
C818 C821 1.403 . S
C819 C816 1.403 . S
C819 C820 1.524 . S
C819 C823 1.400 . S
C820 H805 0.960 . S
C820 H806 0.960 . S
C820 H807 0.960 . S
C820 C819 1.524 . S
C821 C818 1.403 . S
C821 C822 1.392 . S
C821 C825 1.495 . S
C822 C821 1.392 . S
C822 C823 1.385 . S
C822 C824 1.478 . S
C823 H817 0.930 . S
C823 C819 1.400 . S
C823 C822 1.385 . S
C824 C822 1.478 . S
C824 C826 1.381 . S
C824 C830 1.383 . S
C825 C821 1.495 . S
C825 H831 0.959 1_565 S
C825 H832 0.961 1_565 S
C825 H833 0.960 1_565 S
C826 C824 1.381 . S
C826 C827 1.394 1_565 S
C826 H834 0.930 . S
C827 C826 1.394 1_545 S
C827 C828 1.383 . S
C827 H835 0.929 . S
C828 C827 1.383 . S
C828 C829 1.377 1_545 S
C829 H813 0.930 1_565 S
C829 C828 1.377 1_565 S
C829 C830 1.379 . S
C830 H814 0.931 . S
C830 C824 1.383 . S
C830 C829 1.379 . S
H831 C825 0.959 1_545 S
H832 C825 0.961 1_545 S
H833 C825 0.960 1_545 S
H834 C826 0.930 . S
H835 C827 0.929 . S
H836 C844 0.929 . S
H837 C846 0.930 . S
H838 C848 0.930 . S
H839 C851 0.929 . S
H840 C854 0.930 . S
H841 C856 0.960 . S
H842 C856 0.960 . S
H843 C856 0.960 . S
C844 H836 0.929 . S
C844 C845 1.377 . S
C844 C846 1.384 . S
C845 C844 1.377 . S
C845 C851 1.390 . S
C846 H837 0.930 . S
C846 C844 1.384 . S
C846 C847 1.372 . S
C847 C846 1.372 . S
C847 C848 1.400 . S
C847 C852 1.490 . S
C848 H838 0.930 . S
C848 C847 1.400 . S
C848 C851 1.386 . S
H849 C865 0.930 . S
H850 C866 0.931 . S
C851 H839 0.929 . S
C851 C845 1.390 . S
C851 C848 1.386 . S
C852 C847 1.490 . S
C852 C854 1.395 . S
C852 C855 1.403 . S
H853 C859 0.930 . S
C854 H840 0.930 . S
C854 C852 1.395 . S
C854 C857 1.403 . S
C855 C852 1.403 . S
C855 C856 1.524 . S
C855 C859 1.400 . S
C856 H841 0.960 . S
C856 H842 0.960 . S
C856 H843 0.960 . S
C856 C855 1.524 . S
C857 C854 1.403 . S
C857 C858 1.392 . S
C857 C861 1.495 . S
C858 C857 1.392 . S
C858 C859 1.385 . S
C858 C860 1.478 . S
C859 H853 0.930 . S
C859 C855 1.400 . S
C859 C858 1.385 . S
C860 C858 1.478 . S
C860 C862 1.381 . S
C860 C866 1.383 . S
C861 C857 1.495 . S
C861 H867 0.959 . S
C861 H868 0.961 . S
C861 H869 0.960 . S
C862 C860 1.381 . S
C862 C863 1.394 . S
C862 H870 0.930 . S
C863 C862 1.394 . S
C863 C864 1.383 . S
C863 H871 0.929 . S
C864 C863 1.383 . S
C864 C865 1.377 . S
C865 H849 0.930 . S
C865 C864 1.377 . S
C865 C866 1.379 . S
C866 H850 0.931 . S
C866 C860 1.383 . S
C866 C865 1.379 . S
H867 C861 0.959 . S
H868 C861 0.961 . S
H869 C861 0.960 . S
H870 C862 0.930 . S
H871 C863 0.929 . S
H872 C880 0.929 . S
H873 C882 0.930 . S
H874 C884 0.930 . S
H875 C887 0.929 . S
H876 C890 0.930 . S
H877 C892 0.960 . S
H878 C892 0.960 . S
H879 C892 0.960 . S
C880 H872 0.929 . S
C880 C881 1.377 . S
C880 C882 1.384 . S
C881 C880 1.377 . S
C881 C887 1.390 . S
C882 H873 0.930 . S
C882 C880 1.384 . S
C882 C883 1.372 . S
C883 C882 1.372 . S
C883 C884 1.400 . S
C883 C888 1.490 . S
C884 H874 0.930 . S
C884 C883 1.400 . S
C884 C887 1.386 . S
H885 C901 0.930 . S
H886 C902 0.931 . S
C887 H875 0.929 . S
C887 C881 1.390 . S
C887 C884 1.386 . S
C888 C883 1.490 . S
C888 C890 1.395 . S
C888 C891 1.403 . S
H889 C895 0.930 . S
C890 H876 0.930 . S
C890 C888 1.395 . S
C890 C893 1.403 . S
C891 C888 1.403 . S
C891 C892 1.524 . S
C891 C895 1.400 . S
C892 H877 0.960 . S
C892 H878 0.960 . S
C892 H879 0.960 . S
C892 C891 1.524 . S
C893 C890 1.403 . S
C893 C894 1.392 . S
C893 C897 1.495 . S
C894 C893 1.392 . S
C894 C895 1.385 . S
C894 C896 1.478 . S
C895 H889 0.930 . S
C895 C891 1.400 . S
C895 C894 1.385 . S
C896 C894 1.478 . S
C896 C898 1.381 . S
C896 C902 1.383 . S
C897 C893 1.495 . S
C897 H903 0.959 . S
C897 H904 0.961 . S
C897 H905 0.960 . S
C898 C896 1.381 . S
C898 C899 1.394 . S
C898 H906 0.930 . S
C899 C898 1.394 . S
C899 C900 1.383 . S
C899 H907 0.929 . S
C900 C899 1.383 . S
C900 C901 1.377 . S
C901 H885 0.930 . S
C901 C900 1.377 . S
C901 C902 1.379 . S
C902 H886 0.931 . S
C902 C896 1.383 . S
C902 C901 1.379 . S
H903 C897 0.959 . S
H904 C897 0.961 . S
H905 C897 0.960 . S
H906 C898 0.930 . S
H907 C899 0.929 . S
H908 C916 0.929 . S
H909 C918 0.930 . S
H910 C920 0.930 . S
H911 C923 0.929 . S
H912 C926 0.930 . S
H913 C928 0.960 . S
H914 C928 0.960 . S
H915 C928 0.960 . S
C916 H908 0.929 . S
C916 C917 1.377 . S
C916 C918 1.384 1_455 S
C917 C916 1.377 . S
C917 C923 1.390 1_455 S
C918 H909 0.930 . S
C918 C916 1.384 1_655 S
C918 C919 1.372 . S
C919 C918 1.372 . S
C919 C920 1.400 . S
C919 C924 1.490 . S
C920 H910 0.930 . S
C920 C919 1.400 . S
C920 C923 1.386 . S
H921 C937 0.930 . S
H922 C938 0.931 . S
C923 H911 0.929 . S
C923 C917 1.390 1_655 S
C923 C920 1.386 . S
C924 C919 1.490 . S
C924 C926 1.395 . S
C924 C927 1.403 . S
H925 C931 0.930 . S
C926 H912 0.930 . S
C926 C924 1.395 . S
C926 C929 1.403 . S
C927 C924 1.403 . S
C927 C928 1.524 . S
C927 C931 1.400 . S
C928 H913 0.960 . S
C928 H914 0.960 . S
C928 H915 0.960 . S
C928 C927 1.524 . S
C929 C926 1.403 . S
C929 C930 1.392 . S
C929 C933 1.495 . S
C930 C929 1.392 . S
C930 C931 1.385 . S
C930 C932 1.478 . S
C931 H925 0.930 . S
C931 C927 1.400 . S
C931 C930 1.385 . S
C932 C930 1.478 . S
C932 C934 1.381 . S
C932 C938 1.383 . S
C933 C929 1.495 . S
C933 H939 0.959 . S
C933 H940 0.961 . S
C933 H941 0.960 . S
C934 C932 1.381 . S
C934 C935 1.394 . S
C934 H942 0.930 . S
C935 C934 1.394 . S
C935 C936 1.383 . S
C935 H943 0.929 . S
C936 C935 1.383 . S
C936 C937 1.377 . S
C937 H921 0.930 . S
C937 C936 1.377 . S
C937 C938 1.379 . S
C938 H922 0.931 . S
C938 C932 1.383 . S
C938 C937 1.379 . S
H939 C933 0.959 . S
H940 C933 0.961 . S
H941 C933 0.960 . S
H942 C934 0.930 . S
H943 C935 0.929 . S
H944 C952 0.929 . S
H945 C954 0.930 . S
H946 C956 0.930 . S
H947 C959 0.929 . S
H948 C962 0.930 . S
H949 C964 0.960 . S
H950 C964 0.960 . S
H951 C964 0.960 . S
C952 H944 0.929 . S
C952 C953 1.377 . S
C952 C954 1.384 1_545 S
C953 C952 1.377 . S
C953 C959 1.390 1_545 S
C954 H945 0.930 . S
C954 C952 1.384 1_565 S
C954 C955 1.372 . S
C955 C954 1.372 . S
C955 C956 1.400 . S
C955 C960 1.490 . S
C956 H946 0.930 . S
C956 C955 1.400 . S
C956 C959 1.386 . S
H957 C973 0.930 . S
H958 C974 0.931 . S
C959 H947 0.929 . S
C959 C953 1.390 1_565 S
C959 C956 1.386 . S
C960 C955 1.490 . S
C960 C962 1.395 . S
C960 C963 1.403 . S
H961 C967 0.930 . S
C962 H948 0.930 . S
C962 C960 1.395 . S
C962 C965 1.403 . S
C963 C960 1.403 . S
C963 C964 1.524 . S
C963 C967 1.400 . S
C964 H949 0.960 . S
C964 H950 0.960 . S
C964 H951 0.960 . S
C964 C963 1.524 . S
C965 C962 1.403 . S
C965 C966 1.392 . S
C965 C969 1.495 . S
C966 C965 1.392 . S
C966 C967 1.385 . S
C966 C968 1.478 . S
C967 H961 0.930 . S
C967 C963 1.400 . S
C967 C966 1.385 . S
C968 C966 1.478 . S
C968 C970 1.381 . S
C968 C974 1.383 . S
C969 C965 1.495 . S
C969 H975 0.959 . S
C969 H976 0.961 . S
C969 H977 0.960 . S
C970 C968 1.381 . S
C970 C971 1.394 . S
C970 H978 0.930 . S
C971 C970 1.394 . S
C971 C972 1.383 . S
C971 H979 0.929 . S
C972 C971 1.383 . S
C972 C973 1.377 . S
C973 H957 0.930 . S
C973 C972 1.377 . S
C973 C974 1.379 . S
C974 H958 0.931 . S
C974 C968 1.383 . S
C974 C973 1.379 . S
H975 C969 0.959 . S
H976 C969 0.961 . S
H977 C969 0.960 . S
H978 C970 0.930 . S
H979 C971 0.929 . S
H980 C988 0.929 . S
H981 C990 0.930 . S
H982 C992 0.930 . S
H983 C995 0.929 . S
H984 C998 0.930 . S
H985 C1000 0.960 . S
H986 C1000 0.960 . S
H987 C1000 0.960 . S
C988 H980 0.929 . S
C988 C989 1.377 . S
C988 C990 1.384 . S
C989 C988 1.377 . S
C989 C995 1.390 . S
C990 H981 0.930 . S
C990 C988 1.384 . S
C990 C991 1.372 . S
C991 C990 1.372 . S
C991 C992 1.400 . S
C991 C996 1.490 . S
C992 H982 0.930 . S
C992 C991 1.400 . S
C992 C995 1.386 . S
H993 C1009 0.930 . S
H994 C1010 0.931 . S
C995 H983 0.929 . S
C995 C989 1.390 . S
C995 C992 1.386 . S
C996 C991 1.490 . S
C996 C998 1.395 . S
C996 C999 1.403 . S
H997 C1003 0.930 . S
C998 H984 0.930 . S
C998 C996 1.395 . S
C998 C1001 1.403 . S
C999 C996 1.403 . S
C999 C1000 1.524 . S
C999 C1003 1.400 . S
C1000 H985 0.960 . S
C1000 H986 0.960 . S
C1000 H987 0.960 . S
C1000 C999 1.524 . S
C1001 C998 1.403 . S
C1001 C1002 1.392 . S
C1001 C1005 1.495 . S
C1002 C1001 1.392 . S
C1002 C1003 1.385 . S
C1002 C1004 1.478 . S
C1003 H997 0.930 . S
C1003 C999 1.400 . S
C1003 C1002 1.385 . S
C1004 C1002 1.478 . S
C1004 C1006 1.381 . S
C1004 C1010 1.383 . S
C1005 C1001 1.495 . S
C1005 H1011 0.959 . S
C1005 H1012 0.961 . S
C1005 H1013 0.960 . S
C1006 C1004 1.381 . S
C1006 C1007 1.394 . S
C1006 H1014 0.930 . S
C1007 C1006 1.394 . S
C1007 C1008 1.383 . S
C1007 H1015 0.929 . S
C1008 C1007 1.383 . S
C1008 C1009 1.377 . S
C1009 H993 0.930 . S
C1009 C1008 1.377 . S
C1009 C1010 1.379 . S
C1010 H994 0.931 . S
C1010 C1004 1.383 . S
C1010 C1009 1.379 . S
H1011 C1005 0.959 . S
H1012 C1005 0.961 . S
H1013 C1005 0.960 . S
H1014 C1006 0.930 . S
H1015 C1007 0.929 . S
H1016 C1024 0.929 . S
H1017 C1026 0.930 . S
H1018 C1028 0.930 . S
H1019 C1031 0.929 . S
H1020 C1034 0.930 . S
H1021 C1036 0.960 . S
H1022 C1036 0.960 . S
H1023 C1036 0.960 . S
C1024 H1016 0.929 . S
C1024 C1025 1.377 . S
C1024 C1026 1.384 . S
C1025 C1024 1.377 . S
C1025 C1031 1.390 . S
C1026 H1017 0.930 . S
C1026 C1024 1.384 . S
C1026 C1027 1.372 . S
C1027 C1026 1.372 . S
C1027 C1028 1.400 . S
C1027 C1032 1.490 . S
C1028 H1018 0.930 . S
C1028 C1027 1.400 . S
C1028 C1031 1.386 . S
H1029 C1045 0.930 . S
H1030 C1046 0.931 . S
C1031 H1019 0.929 . S
C1031 C1025 1.390 . S
C1031 C1028 1.386 . S
C1032 C1027 1.490 . S
C1032 C1034 1.395 . S
C1032 C1035 1.403 . S
H1033 C1039 0.930 . S
C1034 H1020 0.930 . S
C1034 C1032 1.395 . S
C1034 C1037 1.403 . S
C1035 C1032 1.403 . S
C1035 C1036 1.524 . S
C1035 C1039 1.400 . S
C1036 H1021 0.960 . S
C1036 H1022 0.960 . S
C1036 H1023 0.960 . S
C1036 C1035 1.524 . S
C1037 C1034 1.403 . S
C1037 C1038 1.392 . S
C1037 C1041 1.495 . S
C1038 C1037 1.392 . S
C1038 C1039 1.385 . S
C1038 C1040 1.478 . S
C1039 H1033 0.930 . S
C1039 C1035 1.400 . S
C1039 C1038 1.385 . S
C1040 C1038 1.478 . S
C1040 C1042 1.381 . S
C1040 C1046 1.383 . S
C1041 C1037 1.495 . S
C1041 H1047 0.959 . S
C1041 H1048 0.961 . S
C1041 H1049 0.960 . S
C1042 C1040 1.381 . S
C1042 C1043 1.394 . S
C1042 H1050 0.930 . S
C1043 C1042 1.394 . S
C1043 C1044 1.383 . S
C1043 H1051 0.929 . S
C1044 C1043 1.383 . S
C1044 C1045 1.377 . S
C1045 H1029 0.930 . S
C1045 C1044 1.377 . S
C1045 C1046 1.379 . S
C1046 H1030 0.931 . S
C1046 C1040 1.383 . S
C1046 C1045 1.379 . S
H1047 C1041 0.959 . S
H1048 C1041 0.961 . S
H1049 C1041 0.960 . S
H1050 C1042 0.930 . S
H1051 C1043 0.929 . S
H1052 C1060 0.929 . S
H1053 C1062 0.930 . S
H1054 C1064 0.930 . S
H1055 C1067 0.929 . S
H1056 C1070 0.930 . S
H1057 C1072 0.960 . S
H1058 C1072 0.960 . S
H1059 C1072 0.960 . S
C1060 H1052 0.929 . S
C1060 C1061 1.377 . S
C1060 C1062 1.384 . S
C1061 C1060 1.377 . S
C1061 C1067 1.390 . S
C1062 H1053 0.930 . S
C1062 C1060 1.384 . S
C1062 C1063 1.372 . S
C1063 C1062 1.372 . S
C1063 C1064 1.400 . S
C1063 C1068 1.490 . S
C1064 H1054 0.930 . S
C1064 C1063 1.400 . S
C1064 C1067 1.386 . S
H1065 C1081 0.929 1_455 S
H1066 C1082 0.931 . S
C1067 H1055 0.929 . S
C1067 C1061 1.390 . S
C1067 C1064 1.386 . S
C1068 C1063 1.490 . S
C1068 C1070 1.395 . S
C1068 C1071 1.403 . S
H1069 C1075 0.930 . S
C1070 H1056 0.930 . S
C1070 C1068 1.395 . S
C1070 C1073 1.403 . S
C1071 C1068 1.403 . S
C1071 C1072 1.524 . S
C1071 C1075 1.400 . S
C1072 H1057 0.960 . S
C1072 H1058 0.960 . S
C1072 H1059 0.960 . S
C1072 C1071 1.524 . S
C1073 C1070 1.403 . S
C1073 C1074 1.392 . S
C1073 C1077 1.495 1_655 S
C1074 C1073 1.392 . S
C1074 C1075 1.385 . S
C1074 C1076 1.478 . S
C1075 H1069 0.930 . S
C1075 C1071 1.400 . S
C1075 C1074 1.385 . S
C1076 C1074 1.478 . S
C1076 C1078 1.381 . S
C1076 C1082 1.383 . S
C1077 C1073 1.495 1_455 S
C1077 H1083 0.959 . S
C1077 H1084 0.961 . S
C1077 H1085 0.960 . S
C1078 C1076 1.381 . S
C1078 C1079 1.394 1_655 S
C1078 H1086 0.930 . S
C1079 C1078 1.394 1_455 S
C1079 C1080 1.383 . S
C1079 H1087 0.929 . S
C1080 C1079 1.383 . S
C1080 C1081 1.377 1_455 S
C1081 H1065 0.929 1_655 S
C1081 C1080 1.377 1_655 S
C1081 C1082 1.379 . S
C1082 H1066 0.931 . S
C1082 C1076 1.383 . S
C1082 C1081 1.379 . S
H1083 C1077 0.959 . S
H1084 C1077 0.961 . S
H1085 C1077 0.960 . S
H1086 C1078 0.930 . S
H1087 C1079 0.929 . S
H1088 C1096 0.929 . S
H1089 C1098 0.930 . S
H1090 C1100 0.930 . S
H1091 C1103 0.929 . S
H1092 C1106 0.930 . S
H1093 C1108 0.960 . S
H1094 C1108 0.960 . S
H1095 C1108 0.960 . S
C1096 H1088 0.929 . S
C1096 C1097 1.377 . S
C1096 C1098 1.384 . S
C1097 C1096 1.377 . S
C1097 C1103 1.390 . S
C1098 H1089 0.930 . S
C1098 C1096 1.384 . S
C1098 C1099 1.372 . S
C1099 C1098 1.372 . S
C1099 C1100 1.400 . S
C1099 C1104 1.490 . S
C1100 H1090 0.930 . S
C1100 C1099 1.400 . S
C1100 C1103 1.386 . S
H1101 C1117 0.930 . S
H1102 C1118 0.931 . S
C1103 H1091 0.929 . S
C1103 C1097 1.390 . S
C1103 C1100 1.386 . S
C1104 C1099 1.490 . S
C1104 C1106 1.395 . S
C1104 C1107 1.403 . S
H1105 C1111 0.930 . S
C1106 H1092 0.930 . S
C1106 C1104 1.395 . S
C1106 C1109 1.403 . S
C1107 C1104 1.403 . S
C1107 C1108 1.524 . S
C1107 C1111 1.400 . S
C1108 H1093 0.960 . S
C1108 H1094 0.960 . S
C1108 H1095 0.960 . S
C1108 C1107 1.524 . S
C1109 C1106 1.403 . S
C1109 C1110 1.392 . S
C1109 C1113 1.495 1_545 S
C1110 C1109 1.392 . S
C1110 C1111 1.385 . S
C1110 C1112 1.478 . S
C1111 H1105 0.930 . S
C1111 C1107 1.400 . S
C1111 C1110 1.385 . S
C1112 C1110 1.478 . S
C1112 C1114 1.381 . S
C1112 C1118 1.383 . S
C1113 C1109 1.495 1_565 S
C1113 H1119 0.959 . S
C1113 H1120 0.961 . S
C1113 H1121 0.960 . S
C1114 C1112 1.381 . S
C1114 C1115 1.394 1_545 S
C1114 H1122 0.930 . S
C1115 C1114 1.394 1_565 S
C1115 C1116 1.383 . S
C1115 H1123 0.929 . S
C1116 C1115 1.383 . S
C1116 C1117 1.377 1_565 S
C1117 H1101 0.930 . S
C1117 C1116 1.377 1_545 S
C1117 C1118 1.379 . S
C1118 H1102 0.931 . S
C1118 C1112 1.383 . S
C1118 C1117 1.379 . S
H1119 C1113 0.959 . S
H1120 C1113 0.961 . S
H1121 C1113 0.960 . S
H1122 C1114 0.930 . S
H1123 C1115 0.929 . S
H1124 C1132 0.929 . S
H1125 C1134 0.930 . S
H1126 C1136 0.930 . S
H1127 C1139 0.929 . S
H1128 C1142 0.930 . S
H1129 C1144 0.960 . S
H1130 C1144 0.960 . S
H1131 C1144 0.960 . S
C1132 H1124 0.929 . S
C1132 C1133 1.377 . S
C1132 C1134 1.384 . S
C1133 C1132 1.377 . S
C1133 C1139 1.390 . S
C1134 H1125 0.930 . S
C1134 C1132 1.384 . S
C1134 C1135 1.372 . S
C1135 C1134 1.372 . S
C1135 C1136 1.400 . S
C1135 C1140 1.490 . S
C1136 H1126 0.930 . S
C1136 C1135 1.400 . S
C1136 C1139 1.386 . S
H1137 C1153 0.930 . S
H1138 C1154 0.931 . S
C1139 H1127 0.929 . S
C1139 C1133 1.390 . S
C1139 C1136 1.386 . S
C1140 C1135 1.490 . S
C1140 C1142 1.395 . S
C1140 C1143 1.403 . S
H1141 C1147 0.930 . S
C1142 H1128 0.930 . S
C1142 C1140 1.395 . S
C1142 C1145 1.403 . S
C1143 C1140 1.403 . S
C1143 C1144 1.524 . S
C1143 C1147 1.400 . S
C1144 H1129 0.960 . S
C1144 H1130 0.960 . S
C1144 H1131 0.960 . S
C1144 C1143 1.524 . S
C1145 C1142 1.403 . S
C1145 C1146 1.392 . S
C1145 C1149 1.495 . S
C1146 C1145 1.392 . S
C1146 C1147 1.385 . S
C1146 C1148 1.478 . S
C1147 H1141 0.930 . S
C1147 C1143 1.400 . S
C1147 C1146 1.385 . S
C1148 C1146 1.478 . S
C1148 C1150 1.381 . S
C1148 C1154 1.383 . S
C1149 C1145 1.495 . S
C1149 H1155 0.959 . S
C1149 H1156 0.961 . S
C1149 H1157 0.960 . S
C1150 C1148 1.381 . S
C1150 C1151 1.394 . S
C1150 H1158 0.930 . S
C1151 C1150 1.394 . S
C1151 C1152 1.383 . S
C1151 H1159 0.929 . S
C1152 C1151 1.383 . S
C1152 C1153 1.377 . S
C1153 H1137 0.930 . S
C1153 C1152 1.377 . S
C1153 C1154 1.379 . S
C1154 H1138 0.931 . S
C1154 C1148 1.383 . S
C1154 C1153 1.379 . S
H1155 C1149 0.959 . S
H1156 C1149 0.961 . S
H1157 C1149 0.960 . S
H1158 C1150 0.930 . S
H1159 C1151 0.929 . S
H1160 C1168 0.929 . S
H1161 C1170 0.930 . S
H1162 C1172 0.930 . S
H1163 C1175 0.929 . S
H1164 C1178 0.930 . S
H1165 C1180 0.960 . S
H1166 C1180 0.960 . S
H1167 C1180 0.960 . S
C1168 H1160 0.929 . S
C1168 C1169 1.377 . S
C1168 C1170 1.384 . S
C1169 C1168 1.377 . S
C1169 C1175 1.390 . S
C1170 H1161 0.930 . S
C1170 C1168 1.384 . S
C1170 C1171 1.372 . S
C1171 C1170 1.372 . S
C1171 C1172 1.400 . S
C1171 C1176 1.490 . S
C1172 H1162 0.930 . S
C1172 C1171 1.400 . S
C1172 C1175 1.386 . S
H1173 C1189 0.930 . S
H1174 C1190 0.931 . S
C1175 H1163 0.929 . S
C1175 C1169 1.390 . S
C1175 C1172 1.386 . S
C1176 C1171 1.490 . S
C1176 C1178 1.395 . S
C1176 C1179 1.403 . S
H1177 C1183 0.930 . S
C1178 H1164 0.930 . S
C1178 C1176 1.395 . S
C1178 C1181 1.403 . S
C1179 C1176 1.403 . S
C1179 C1180 1.524 . S
C1179 C1183 1.400 . S
C1180 H1165 0.960 . S
C1180 H1166 0.960 . S
C1180 H1167 0.960 . S
C1180 C1179 1.524 . S
C1181 C1178 1.403 . S
C1181 C1182 1.392 . S
C1181 C1185 1.495 . S
C1182 C1181 1.392 . S
C1182 C1183 1.385 . S
C1182 C1184 1.478 . S
C1183 H1177 0.930 . S
C1183 C1179 1.400 . S
C1183 C1182 1.385 . S
C1184 C1182 1.478 . S
C1184 C1186 1.381 . S
C1184 C1190 1.383 . S
C1185 C1181 1.495 . S
C1185 H1191 0.959 . S
C1185 H1192 0.961 . S
C1185 H1193 0.960 . S
C1186 C1184 1.381 . S
C1186 C1187 1.394 . S
C1186 H1194 0.930 . S
C1187 C1186 1.394 . S
C1187 C1188 1.383 . S
C1187 H1195 0.929 . S
C1188 C1187 1.383 . S
C1188 C1189 1.377 . S
C1189 H1173 0.930 . S
C1189 C1188 1.377 . S
C1189 C1190 1.379 . S
C1190 H1174 0.931 . S
C1190 C1184 1.383 . S
C1190 C1189 1.379 . S
H1191 C1185 0.959 . S
H1192 C1185 0.961 . S
H1193 C1185 0.960 . S
H1194 C1186 0.930 . S
H1195 C1187 0.929 . S
H1196 C1204 0.929 . S
H1197 C1206 0.930 . S
H1198 C1208 0.930 . S
H1199 C1211 0.929 . S
H1200 C1214 0.930 . S
H1201 C1216 0.960 . S
H1202 C1216 0.960 . S
H1203 C1216 0.960 . S
C1204 H1196 0.929 . S
C1204 C1205 1.377 . S
C1204 C1206 1.384 . S
C1205 C1204 1.377 . S
C1205 C1211 1.390 . S
C1206 H1197 0.930 . S
C1206 C1204 1.384 . S
C1206 C1207 1.372 . S
C1207 C1206 1.372 . S
C1207 C1208 1.400 . S
C1207 C1212 1.490 . S
C1208 H1198 0.930 . S
C1208 C1207 1.400 . S
C1208 C1211 1.386 . S
H1209 C1225 0.930 . S
H1210 C1226 0.937 . S
C1211 H1199 0.929 . S
C1211 C1205 1.390 . S
C1211 C1208 1.386 . S
C1212 C1207 1.490 . S
C1212 C1214 1.395 . S
C1212 C1215 1.403 . S
H1213 C1219 0.930 . S
C1214 H1200 0.930 . S
C1214 C1212 1.395 . S
C1214 C1217 1.403 . S
C1215 C1212 1.403 . S
C1215 C1216 1.524 . S
C1215 C1219 1.400 . S
C1216 H1201 0.960 . S
C1216 H1202 0.960 . S
C1216 H1203 0.960 . S
C1216 C1215 1.524 . S
C1217 C1214 1.403 . S
C1217 C1218 1.392 . S
C1217 C1221 1.495 . S
C1218 C1217 1.392 . S
C1218 C1219 1.385 . S
C1218 C1220 1.478 . S
C1219 H1213 0.930 . S
C1219 C1215 1.400 . S
C1219 C1218 1.385 . S
C1220 C1218 1.478 . S
C1220 C1222 1.381 . S
C1220 C1226 1.368 1_455 S
C1221 C1217 1.495 . S
C1221 H1227 0.959 . S
C1221 H1228 0.961 . S
C1221 H1229 0.960 . S
C1222 C1220 1.381 . S
C1222 C1223 1.394 . S
C1222 H1230 0.930 . S
C1223 C1222 1.394 . S
C1223 C1224 1.383 1_455 S
C1223 H1231 0.929 . S
C1224 C1223 1.383 1_655 S
C1224 C1225 1.377 . S
C1225 H1209 0.930 . S
C1225 C1224 1.377 . S
C1225 C1226 1.389 . S
C1226 H1210 0.937 . S
C1226 C1220 1.368 1_655 S
C1226 C1225 1.389 . S
H1227 C1221 0.959 . S
H1228 C1221 0.961 . S
H1229 C1221 0.960 . S
H1230 C1222 0.930 . S
H1231 C1223 0.929 . S
H1232 C1240 0.929 . S
H1233 C1242 0.930 . S
H1234 C1244 0.930 . S
H1235 C1247 0.929 . S
H1236 C1250 0.930 . S
H1237 C1252 0.960 . S
H1238 C1252 0.960 . S
H1239 C1252 0.960 . S
C1240 H1232 0.929 . S
C1240 C1241 1.377 . S
C1240 C1242 1.384 . S
C1241 C1240 1.377 . S
C1241 C1247 1.390 . S
C1242 H1233 0.930 . S
C1242 C1240 1.384 . S
C1242 C1243 1.372 . S
C1243 C1242 1.372 . S
C1243 C1244 1.400 . S
C1243 C1248 1.490 . S
C1244 H1234 0.930 . S
C1244 C1243 1.400 . S
C1244 C1247 1.386 . S
H1245 C1261 0.930 . S
H1246 C1262 0.931 . S
C1247 H1235 0.929 . S
C1247 C1241 1.390 . S
C1247 C1244 1.386 . S
C1248 C1243 1.490 . S
C1248 C1250 1.395 . S
C1248 C1251 1.403 . S
H1249 C1255 0.930 . S
C1250 H1236 0.930 . S
C1250 C1248 1.395 . S
C1250 C1253 1.403 . S
C1251 C1248 1.403 . S
C1251 C1252 1.524 . S
C1251 C1255 1.400 . S
C1252 H1237 0.960 . S
C1252 H1238 0.960 . S
C1252 H1239 0.960 . S
C1252 C1251 1.524 . S
C1253 C1250 1.403 . S
C1253 C1254 1.392 . S
C1253 C1257 1.495 . S
C1254 C1253 1.392 . S
C1254 C1255 1.385 . S
C1254 C1256 1.478 . S
C1255 H1249 0.930 . S
C1255 C1251 1.400 . S
C1255 C1254 1.385 . S
C1256 C1254 1.478 . S
C1256 C1258 1.381 . S
C1256 C1262 1.383 . S
C1257 C1253 1.495 . S
C1257 H1263 0.959 . S
C1257 H1264 0.961 . S
C1257 H1265 0.960 . S
C1258 C1256 1.381 . S
C1258 C1259 1.394 . S
C1258 H1266 0.930 . S
C1259 C1258 1.394 . S
C1259 C1260 1.383 . S
C1259 H1267 0.929 . S
C1260 C1259 1.383 . S
C1260 C1261 1.377 . S
C1261 H1245 0.930 . S
C1261 C1260 1.377 . S
C1261 C1262 1.379 . S
C1262 H1246 0.931 . S
C1262 C1256 1.383 . S
C1262 C1261 1.379 . S
H1263 C1257 0.959 . S
H1264 C1257 0.961 . S
H1265 C1257 0.960 . S
H1266 C1258 0.930 . S
H1267 C1259 0.929 . S
H1268 C1276 0.929 . S
H1269 C1278 0.930 . S
H1270 C1280 0.930 . S
H1271 C1283 0.929 . S
H1272 C1286 0.930 . S
H1273 C1288 0.960 . S
H1274 C1288 0.960 . S
H1275 C1288 0.960 . S
C1276 H1268 0.929 . S
C1276 C1277 1.377 . S
C1276 C1278 1.384 . S
C1277 C1276 1.377 . S
C1277 C1283 1.390 . S
C1278 H1269 0.930 . S
C1278 C1276 1.384 . S
C1278 C1279 1.372 . S
C1279 C1278 1.372 . S
C1279 C1280 1.400 . S
C1279 C1284 1.490 . S
C1280 H1270 0.930 . S
C1280 C1279 1.400 . S
C1280 C1283 1.386 . S
H1281 C1297 0.930 . S
H1282 C1298 0.931 . S
C1283 H1271 0.929 . S
C1283 C1277 1.390 . S
C1283 C1280 1.386 . S
C1284 C1279 1.490 . S
C1284 C1286 1.395 . S
C1284 C1287 1.403 . S
H1285 C1291 0.930 . S
C1286 H1272 0.930 . S
C1286 C1284 1.395 . S
C1286 C1289 1.403 . S
C1287 C1284 1.403 . S
C1287 C1288 1.524 . S
C1287 C1291 1.400 . S
C1288 H1273 0.960 . S
C1288 H1274 0.960 . S
C1288 H1275 0.960 . S
C1288 C1287 1.524 . S
C1289 C1286 1.403 . S
C1289 C1290 1.392 . S
C1289 C1293 1.495 . S
C1290 C1289 1.392 . S
C1290 C1291 1.385 . S
C1290 C1292 1.478 . S
C1291 H1285 0.930 . S
C1291 C1287 1.400 . S
C1291 C1290 1.385 . S
C1292 C1290 1.478 . S
C1292 C1294 1.381 . S
C1292 C1298 1.383 . S
C1293 C1289 1.495 . S
C1293 H1299 0.959 . S
C1293 H1300 0.961 . S
C1293 H1301 0.960 . S
C1294 C1292 1.381 . S
C1294 C1295 1.394 . S
C1294 H1302 0.930 . S
C1295 C1294 1.394 . S
C1295 C1296 1.383 . S
C1295 H1303 0.929 . S
C1296 C1295 1.383 . S
C1296 C1297 1.377 . S
C1297 H1281 0.930 . S
C1297 C1296 1.377 . S
C1297 C1298 1.379 . S
C1298 H1282 0.931 . S
C1298 C1292 1.383 . S
C1298 C1297 1.379 . S
H1299 C1293 0.959 . S
H1300 C1293 0.961 . S
H1301 C1293 0.960 . S
H1302 C1294 0.930 . S
H1303 C1295 0.929 . S
H1304 C1312 0.929 . S
H1305 C1314 0.930 . S
H1306 C1316 0.930 . S
H1307 C1319 0.929 . S
H1308 C1322 0.930 . S
H1309 C1324 0.960 . S
H1310 C1324 0.960 . S
H1311 C1324 0.960 . S
C1312 H1304 0.929 . S
C1312 C1313 1.377 . S
C1312 C1314 1.384 . S
C1313 C1312 1.377 . S
C1313 C1319 1.390 . S
C1314 H1305 0.930 . S
C1314 C1312 1.384 . S
C1314 C1315 1.372 . S
C1315 C1314 1.372 . S
C1315 C1316 1.400 . S
C1315 C1320 1.490 . S
C1316 H1306 0.930 . S
C1316 C1315 1.400 . S
C1316 C1319 1.386 . S
H1317 C1333 0.930 . S
H1318 C1334 0.931 . S
C1319 H1307 0.929 . S
C1319 C1313 1.390 . S
C1319 C1316 1.386 . S
C1320 C1315 1.490 . S
C1320 C1322 1.395 . S
C1320 C1323 1.403 . S
H1321 C1327 0.930 . S
C1322 H1308 0.930 . S
C1322 C1320 1.395 . S
C1322 C1325 1.403 . S
C1323 C1320 1.403 . S
C1323 C1324 1.524 . S
C1323 C1327 1.400 . S
C1324 H1309 0.960 . S
C1324 H1310 0.960 . S
C1324 H1311 0.960 . S
C1324 C1323 1.524 . S
C1325 C1322 1.403 . S
C1325 C1326 1.392 . S
C1325 C1329 1.495 . S
C1326 C1325 1.392 . S
C1326 C1327 1.385 . S
C1326 C1328 1.478 . S
C1327 H1321 0.930 . S
C1327 C1323 1.400 . S
C1327 C1326 1.385 . S
C1328 C1326 1.478 . S
C1328 C1330 1.381 . S
C1328 C1334 1.383 . S
C1329 C1325 1.495 . S
C1329 H1335 0.959 . S
C1329 H1336 0.961 . S
C1329 H1337 0.960 . S
C1330 C1328 1.381 . S
C1330 C1331 1.394 . S
C1330 H1338 0.930 . S
C1331 C1330 1.394 . S
C1331 C1332 1.383 . S
C1331 H1339 0.929 . S
C1332 C1331 1.383 . S
C1332 C1333 1.377 . S
C1333 H1317 0.930 . S
C1333 C1332 1.377 . S
C1333 C1334 1.379 . S
C1334 H1318 0.931 . S
C1334 C1328 1.383 . S
C1334 C1333 1.379 . S
H1335 C1329 0.959 . S
H1336 C1329 0.961 . S
H1337 C1329 0.960 . S
H1338 C1330 0.930 . S
H1339 C1331 0.929 . S
H1340 C1348 0.929 . S
H1341 C1350 0.930 . S
H1342 C1352 0.930 . S
H1343 C1355 0.929 . S
H1344 C1358 0.930 . S
H1345 C1360 0.960 . S
H1346 C1360 0.960 . S
H1347 C1360 0.960 . S
C1348 H1340 0.929 . S
C1348 C1349 1.377 . S
C1348 C1350 1.384 . S
C1349 C1348 1.377 . S
C1349 C1355 1.390 . S
C1350 H1341 0.930 . S
C1350 C1348 1.384 . S
C1350 C1351 1.372 . S
C1351 C1350 1.372 . S
C1351 C1352 1.400 . S
C1351 C1356 1.490 . S
C1352 H1342 0.930 . S
C1352 C1351 1.400 . S
C1352 C1355 1.386 . S
H1353 C1369 0.930 . S
H1354 C1370 0.931 . S
C1355 H1343 0.929 . S
C1355 C1349 1.390 . S
C1355 C1352 1.386 . S
C1356 C1351 1.490 . S
C1356 C1358 1.395 . S
C1356 C1359 1.403 . S
H1357 C1363 0.930 . S
C1358 H1344 0.930 . S
C1358 C1356 1.395 . S
C1358 C1361 1.403 . S
C1359 C1356 1.403 . S
C1359 C1360 1.524 . S
C1359 C1363 1.400 . S
C1360 H1345 0.960 . S
C1360 H1346 0.960 . S
C1360 H1347 0.960 . S
C1360 C1359 1.524 . S
C1361 C1358 1.403 . S
C1361 C1362 1.392 . S
C1361 C1365 1.495 . S
C1362 C1361 1.392 . S
C1362 C1363 1.385 . S
C1362 C1364 1.478 . S
C1363 H1357 0.930 . S
C1363 C1359 1.400 . S
C1363 C1362 1.385 . S
C1364 C1362 1.478 . S
C1364 C1366 1.381 . S
C1364 C1370 1.383 . S
C1365 C1361 1.495 . S
C1365 H1371 0.959 . S
C1365 H1372 0.961 . S
C1365 H1373 0.960 . S
C1366 C1364 1.381 . S
C1366 C1367 1.394 . S
C1366 H1374 0.930 . S
C1367 C1366 1.394 . S
C1367 C1368 1.383 . S
C1367 H1375 0.929 . S
C1368 C1367 1.383 . S
C1368 C1369 1.377 . S
C1369 H1353 0.930 . S
C1369 C1368 1.377 . S
C1369 C1370 1.379 . S
C1370 H1354 0.931 . S
C1370 C1364 1.383 . S
C1370 C1369 1.379 . S
H1371 C1365 0.959 . S
H1372 C1365 0.961 . S
H1373 C1365 0.960 . S
H1374 C1366 0.930 . S
H1375 C1367 0.929 . S
H1376 C1384 0.929 . S
H1377 C1386 0.930 . S
H1378 C1388 0.930 . S
H1379 C1391 0.929 . S
H1380 C1394 0.930 . S
H1381 C1396 0.960 . S
H1382 C1396 0.960 . S
H1383 C1396 0.960 . S
C1384 H1376 0.929 . S
C1384 C1385 1.377 . S
C1384 C1386 1.384 . S
C1385 C1384 1.377 . S
C1385 C1391 1.390 . S
C1386 H1377 0.930 . S
C1386 C1384 1.384 . S
C1386 C1387 1.372 . S
C1387 C1386 1.372 . S
C1387 C1388 1.400 . S
C1387 C1392 1.490 . S
C1388 H1378 0.930 . S
C1388 C1387 1.400 . S
C1388 C1391 1.386 . S
H1389 C1405 0.930 . S
H1390 C1406 0.931 . S
C1391 H1379 0.929 . S
C1391 C1385 1.390 . S
C1391 C1388 1.386 . S
C1392 C1387 1.490 . S
C1392 C1394 1.395 . S
C1392 C1395 1.403 . S
H1393 C1399 0.930 . S
C1394 H1380 0.930 . S
C1394 C1392 1.395 . S
C1394 C1397 1.403 . S
C1395 C1392 1.403 . S
C1395 C1396 1.524 . S
C1395 C1399 1.400 . S
C1396 H1381 0.960 . S
C1396 H1382 0.960 . S
C1396 H1383 0.960 . S
C1396 C1395 1.524 . S
C1397 C1394 1.403 . S
C1397 C1398 1.392 . S
C1397 C1401 1.495 . S
C1398 C1397 1.392 . S
C1398 C1399 1.385 . S
C1398 C1400 1.478 . S
C1399 H1393 0.930 . S
C1399 C1395 1.400 . S
C1399 C1398 1.385 . S
C1400 C1398 1.478 . S
C1400 C1402 1.381 . S
C1400 C1406 1.383 . S
C1401 C1397 1.495 . S
C1401 H1407 0.959 . S
C1401 H1408 0.961 . S
C1401 H1409 0.960 . S
C1402 C1400 1.381 . S
C1402 C1403 1.394 . S
C1402 H1410 0.930 . S
C1403 C1402 1.394 . S
C1403 C1404 1.383 . S
C1403 H1411 0.929 . S
C1404 C1403 1.383 . S
C1404 C1405 1.377 . S
C1405 H1389 0.930 . S
C1405 C1404 1.377 . S
C1405 C1406 1.379 . S
C1406 H1390 0.931 . S
C1406 C1400 1.383 . S
C1406 C1405 1.379 . S
H1407 C1401 0.959 . S
H1408 C1401 0.961 . S
H1409 C1401 0.960 . S
H1410 C1402 0.930 . S
H1411 C1403 0.929 . S
H1412 C1420 0.929 . S
H1413 C1422 0.930 . S
H1414 C1424 0.930 . S
H1415 C1427 0.929 . S
H1416 C1430 0.930 . S
H1417 C1432 0.960 . S
H1418 C1432 0.960 . S
H1419 C1432 0.960 . S
C1420 H1412 0.929 . S
C1420 C1421 1.377 . S
C1420 C1422 1.384 . S
C1421 C1420 1.377 . S
C1421 C1427 1.390 . S
C1422 H1413 0.930 . S
C1422 C1420 1.384 . S
C1422 C1423 1.372 . S
C1423 C1422 1.372 . S
C1423 C1424 1.400 . S
C1423 C1428 1.490 . S
C1424 H1414 0.930 . S
C1424 C1423 1.400 . S
C1424 C1427 1.386 . S
H1425 C1441 0.930 . S
H1426 C1442 0.931 . S
C1427 H1415 0.929 . S
C1427 C1421 1.390 . S
C1427 C1424 1.386 . S
C1428 C1423 1.490 . S
C1428 C1430 1.395 . S
C1428 C1431 1.403 . S
H1429 C1435 0.930 . S
C1430 H1416 0.930 . S
C1430 C1428 1.395 . S
C1430 C1433 1.403 . S
C1431 C1428 1.403 . S
C1431 C1432 1.524 . S
C1431 C1435 1.400 . S
C1432 H1417 0.960 . S
C1432 H1418 0.960 . S
C1432 H1419 0.960 . S
C1432 C1431 1.524 . S
C1433 C1430 1.403 . S
C1433 C1434 1.392 . S
C1433 C1437 1.495 . S
C1434 C1433 1.392 . S
C1434 C1435 1.385 . S
C1434 C1436 1.478 . S
C1435 H1429 0.930 . S
C1435 C1431 1.400 . S
C1435 C1434 1.385 . S
C1436 C1434 1.478 . S
C1436 C1438 1.381 . S
C1436 C1442 1.383 . S
C1437 C1433 1.495 . S
C1437 H1443 0.959 . S
C1437 H1444 0.961 . S
C1437 H1445 0.960 . S
C1438 C1436 1.381 . S
C1438 C1439 1.394 . S
C1438 H1446 0.930 . S
C1439 C1438 1.394 . S
C1439 C1440 1.383 . S
C1439 H1447 0.929 . S
C1440 C1439 1.383 . S
C1440 C1441 1.377 . S
C1441 H1425 0.930 . S
C1441 C1440 1.377 . S
C1441 C1442 1.379 . S
C1442 H1426 0.931 . S
C1442 C1436 1.383 . S
C1442 C1441 1.379 . S
H1443 C1437 0.959 . S
H1444 C1437 0.961 . S
H1445 C1437 0.960 . S
H1446 C1438 0.930 . S
H1447 C1439 0.929 . S
H1448 C1456 0.929 . S
H1449 C1458 0.930 . S
H1450 C1460 0.930 . S
H1451 C1463 0.929 . S
H1452 C1466 0.930 . S
H1453 C1468 0.960 . S
H1454 C1468 0.960 . S
H1455 C1468 0.960 . S
C1456 H1448 0.929 . S
C1456 C1457 1.377 . S
C1456 C1458 1.384 . S
C1457 C1456 1.377 . S
C1457 C1463 1.390 . S
C1458 H1449 0.930 . S
C1458 C1456 1.384 . S
C1458 C1459 1.372 . S
C1459 C1458 1.372 . S
C1459 C1460 1.400 . S
C1459 C1464 1.490 . S
C1460 H1450 0.930 . S
C1460 C1459 1.400 . S
C1460 C1463 1.386 . S
H1461 C1477 0.930 . S
H1462 C1478 0.931 . S
C1463 H1451 0.929 . S
C1463 C1457 1.390 . S
C1463 C1460 1.386 . S
C1464 C1459 1.490 . S
C1464 C1466 1.395 . S
C1464 C1467 1.403 . S
H1465 C1471 0.930 . S
C1466 H1452 0.930 . S
C1466 C1464 1.395 . S
C1466 C1469 1.403 . S
C1467 C1464 1.403 . S
C1467 C1468 1.524 . S
C1467 C1471 1.400 . S
C1468 H1453 0.960 . S
C1468 H1454 0.960 . S
C1468 H1455 0.960 . S
C1468 C1467 1.524 . S
C1469 C1466 1.403 . S
C1469 C1470 1.392 . S
C1469 C1473 1.495 . S
C1470 C1469 1.392 . S
C1470 C1471 1.385 . S
C1470 C1472 1.478 . S
C1471 H1465 0.930 . S
C1471 C1467 1.400 . S
C1471 C1470 1.385 . S
C1472 C1470 1.478 . S
C1472 C1474 1.381 . S
C1472 C1478 1.383 . S
C1473 C1469 1.495 . S
C1473 H1479 0.959 . S
C1473 H1480 0.961 . S
C1473 H1481 0.960 . S
C1474 C1472 1.381 . S
C1474 C1475 1.394 . S
C1474 H1482 0.930 . S
C1475 C1474 1.394 . S
C1475 C1476 1.383 . S
C1475 H1483 0.929 . S
C1476 C1475 1.383 . S
C1476 C1477 1.377 . S
C1477 H1461 0.930 . S
C1477 C1476 1.377 . S
C1477 C1478 1.379 . S
C1478 H1462 0.931 . S
C1478 C1472 1.383 . S
C1478 C1477 1.379 . S
H1479 C1473 0.959 . S
H1480 C1473 0.961 . S
H1481 C1473 0.960 . S
H1482 C1474 0.930 . S
H1483 C1475 0.929 . S
H1484 C1492 0.929 . S
H1485 C1494 0.930 . S
H1486 C1496 0.930 . S
H1487 C1499 0.929 . S
H1488 C1502 0.930 . S
H1489 C1504 0.960 . S
H1490 C1504 0.960 . S
H1491 C1504 0.960 . S
C1492 H1484 0.929 . S
C1492 C1493 1.377 . S
C1492 C1494 1.384 . S
C1493 C1492 1.377 . S
C1493 C1499 1.390 . S
C1494 H1485 0.930 . S
C1494 C1492 1.384 . S
C1494 C1495 1.372 . S
C1495 C1494 1.372 . S
C1495 C1496 1.400 . S
C1495 C1500 1.490 . S
C1496 H1486 0.930 . S
C1496 C1495 1.400 . S
C1496 C1499 1.386 . S
H1497 C1513 0.930 . S
H1498 C1514 0.931 . S
C1499 H1487 0.929 . S
C1499 C1493 1.390 . S
C1499 C1496 1.386 . S
C1500 C1495 1.490 . S
C1500 C1502 1.395 . S
C1500 C1503 1.403 . S
H1501 C1507 0.930 . S
C1502 H1488 0.930 . S
C1502 C1500 1.395 . S
C1502 C1505 1.403 . S
C1503 C1500 1.403 . S
C1503 C1504 1.524 . S
C1503 C1507 1.400 . S
C1504 H1489 0.960 . S
C1504 H1490 0.960 . S
C1504 H1491 0.960 . S
C1504 C1503 1.524 . S
C1505 C1502 1.403 . S
C1505 C1506 1.392 . S
C1505 C1509 1.495 . S
C1506 C1505 1.392 . S
C1506 C1507 1.385 . S
C1506 C1508 1.478 . S
C1507 H1501 0.930 . S
C1507 C1503 1.400 . S
C1507 C1506 1.385 . S
C1508 C1506 1.478 . S
C1508 C1510 1.381 . S
C1508 C1514 1.383 . S
C1509 C1505 1.495 . S
C1509 H1515 0.959 . S
C1509 H1516 0.961 . S
C1509 H1517 0.960 . S
C1510 C1508 1.381 . S
C1510 C1511 1.394 . S
C1510 H1518 0.930 . S
C1511 C1510 1.394 . S
C1511 C1512 1.383 . S
C1511 H1519 0.929 . S
C1512 C1511 1.383 . S
C1512 C1513 1.377 . S
C1513 H1497 0.930 . S
C1513 C1512 1.377 . S
C1513 C1514 1.379 . S
C1514 H1498 0.931 . S
C1514 C1508 1.383 . S
C1514 C1513 1.379 . S
H1515 C1509 0.959 . S
H1516 C1509 0.961 . S
H1517 C1509 0.960 . S
H1518 C1510 0.930 . S
H1519 C1511 0.929 . S
H1520 C1528 0.929 . S
H1521 C1530 0.930 . S
H1522 C1532 0.930 . S
H1523 C1535 0.929 . S
H1524 C1538 0.930 . S
H1525 C1540 0.960 . S
H1526 C1540 0.960 . S
H1527 C1540 0.960 . S
C1528 H1520 0.929 . S
C1528 C1529 1.377 . S
C1528 C1530 1.384 . S
C1529 C1528 1.377 . S
C1529 C1535 1.390 . S
C1530 H1521 0.930 . S
C1530 C1528 1.384 . S
C1530 C1531 1.372 . S
C1531 C1530 1.372 . S
C1531 C1532 1.400 . S
C1531 C1536 1.490 . S
C1532 H1522 0.930 . S
C1532 C1531 1.400 . S
C1532 C1535 1.386 . S
H1533 C1549 0.930 . S
H1534 C1550 0.931 . S
C1535 H1523 0.929 . S
C1535 C1529 1.390 . S
C1535 C1532 1.386 . S
C1536 C1531 1.490 . S
C1536 C1538 1.395 . S
C1536 C1539 1.403 . S
H1537 C1543 0.930 . S
C1538 H1524 0.930 . S
C1538 C1536 1.395 . S
C1538 C1541 1.403 . S
C1539 C1536 1.403 . S
C1539 C1540 1.524 . S
C1539 C1543 1.400 . S
C1540 H1525 0.960 . S
C1540 H1526 0.960 . S
C1540 H1527 0.960 . S
C1540 C1539 1.524 . S
C1541 C1538 1.403 . S
C1541 C1542 1.392 . S
C1541 C1545 1.495 . S
C1542 C1541 1.392 . S
C1542 C1543 1.385 . S
C1542 C1544 1.478 . S
C1543 H1537 0.930 . S
C1543 C1539 1.400 . S
C1543 C1542 1.385 . S
C1544 C1542 1.478 . S
C1544 C1546 1.381 . S
C1544 C1550 1.383 . S
C1545 C1541 1.495 . S
C1545 H1551 0.959 . S
C1545 H1552 0.961 . S
C1545 H1553 0.960 . S
C1546 C1544 1.381 . S
C1546 C1547 1.394 . S
C1546 H1554 0.930 . S
C1547 C1546 1.394 . S
C1547 C1548 1.383 . S
C1547 H1555 0.929 . S
C1548 C1547 1.383 . S
C1548 C1549 1.377 . S
C1549 H1533 0.930 . S
C1549 C1548 1.377 . S
C1549 C1550 1.379 . S
C1550 H1534 0.931 . S
C1550 C1544 1.383 . S
C1550 C1549 1.379 . S
H1551 C1545 0.959 . S
H1552 C1545 0.961 . S
H1553 C1545 0.960 . S
H1554 C1546 0.930 . S
H1555 C1547 0.929 . S
H1556 C1564 0.929 . S
H1557 C1566 0.930 . S
H1558 C1568 0.930 . S
H1559 C1571 0.929 . S
H1560 C1574 0.930 . S
H1561 C1576 0.960 . S
H1562 C1576 0.960 . S
H1563 C1576 0.960 . S
C1564 H1556 0.929 . S
C1564 C1565 1.377 . S
C1564 C1566 1.384 . S
C1565 C1564 1.377 . S
C1565 C1571 1.390 . S
C1566 H1557 0.930 . S
C1566 C1564 1.384 . S
C1566 C1567 1.372 . S
C1567 C1566 1.372 . S
C1567 C1568 1.400 . S
C1567 C1572 1.490 . S
C1568 H1558 0.930 . S
C1568 C1567 1.400 . S
C1568 C1571 1.386 . S
H1569 C1585 0.930 . S
H1570 C1586 0.931 . S
C1571 H1559 0.929 . S
C1571 C1565 1.390 . S
C1571 C1568 1.386 . S
C1572 C1567 1.490 . S
C1572 C1574 1.395 . S
C1572 C1575 1.403 . S
H1573 C1579 0.930 . S
C1574 H1560 0.930 . S
C1574 C1572 1.395 . S
C1574 C1577 1.403 . S
C1575 C1572 1.403 . S
C1575 C1576 1.524 . S
C1575 C1579 1.400 . S
C1576 H1561 0.960 . S
C1576 H1562 0.960 . S
C1576 H1563 0.960 . S
C1576 C1575 1.524 . S
C1577 C1574 1.403 . S
C1577 C1578 1.392 . S
C1577 C1581 1.495 . S
C1578 C1577 1.392 . S
C1578 C1579 1.385 . S
C1578 C1580 1.478 . S
C1579 H1573 0.930 . S
C1579 C1575 1.400 . S
C1579 C1578 1.385 . S
C1580 C1578 1.478 . S
C1580 C1582 1.381 . S
C1580 C1586 1.383 . S
C1581 C1577 1.495 . S
C1581 H1587 0.959 . S
C1581 H1588 0.961 . S
C1581 H1589 0.960 . S
C1582 C1580 1.381 . S
C1582 C1583 1.394 . S
C1582 H1590 0.930 . S
C1583 C1582 1.394 . S
C1583 C1584 1.383 . S
C1583 H1591 0.929 . S
C1584 C1583 1.383 . S
C1584 C1585 1.377 . S
C1585 H1569 0.930 . S
C1585 C1584 1.377 . S
C1585 C1586 1.379 . S
C1586 H1570 0.931 . S
C1586 C1580 1.383 . S
C1586 C1585 1.379 . S
H1587 C1581 0.959 . S
H1588 C1581 0.961 . S
H1589 C1581 0.960 . S
H1590 C1582 0.930 . S
H1591 C1583 0.929 . S
H1592 C1600 0.929 . S
H1593 C1602 0.930 . S
H1594 C1604 0.930 . S
H1595 C1607 0.929 . S
H1596 C1610 0.930 . S
H1597 C1612 0.960 . S
H1598 C1612 0.960 . S
H1599 C1612 0.960 . S
C1600 H1592 0.929 . S
C1600 C1601 1.377 . S
C1600 C1602 1.384 . S
C1601 C1600 1.377 . S
C1601 C1607 1.390 . S
C1602 H1593 0.930 . S
C1602 C1600 1.384 . S
C1602 C1603 1.372 . S
C1603 C1602 1.372 . S
C1603 C1604 1.400 . S
C1603 C1608 1.490 . S
C1604 H1594 0.930 . S
C1604 C1603 1.400 . S
C1604 C1607 1.386 . S
H1605 C1621 0.930 . S
H1606 C1622 0.931 . S
C1607 H1595 0.929 . S
C1607 C1601 1.390 . S
C1607 C1604 1.386 . S
C1608 C1603 1.490 . S
C1608 C1610 1.395 . S
C1608 C1611 1.403 . S
H1609 C1615 0.930 . S
C1610 H1596 0.930 . S
C1610 C1608 1.395 . S
C1610 C1613 1.403 . S
C1611 C1608 1.403 . S
C1611 C1612 1.524 . S
C1611 C1615 1.400 . S
C1612 H1597 0.960 . S
C1612 H1598 0.960 . S
C1612 H1599 0.960 . S
C1612 C1611 1.524 . S
C1613 C1610 1.403 . S
C1613 C1614 1.392 . S
C1613 C1617 1.495 . S
C1614 C1613 1.392 . S
C1614 C1615 1.385 . S
C1614 C1616 1.478 . S
C1615 H1609 0.930 . S
C1615 C1611 1.400 . S
C1615 C1614 1.385 . S
C1616 C1614 1.478 . S
C1616 C1618 1.381 . S
C1616 C1622 1.383 . S
C1617 C1613 1.495 . S
C1617 H1623 0.959 . S
C1617 H1624 0.961 . S
C1617 H1625 0.960 . S
C1618 C1616 1.381 . S
C1618 C1619 1.394 . S
C1618 H1626 0.930 . S
C1619 C1618 1.394 . S
C1619 C1620 1.383 . S
C1619 H1627 0.929 . S
C1620 C1619 1.383 . S
C1620 C1621 1.377 . S
C1621 H1605 0.930 . S
C1621 C1620 1.377 . S
C1621 C1622 1.379 . S
C1622 H1606 0.931 . S
C1622 C1616 1.383 . S
C1622 C1621 1.379 . S
H1623 C1617 0.959 . S
H1624 C1617 0.961 . S
H1625 C1617 0.960 . S
H1626 C1618 0.930 . S
H1627 C1619 0.929 . S
H1628 C1636 0.929 . S
H1629 C1638 0.930 . S
H1630 C1640 0.930 . S
H1631 C1643 0.929 . S
H1632 C1646 0.930 . S
H1633 C1648 0.960 . S
H1634 C1648 0.960 . S
H1635 C1648 0.960 . S
C1636 H1628 0.929 . S
C1636 C1637 1.377 . S
C1636 C1638 1.384 . S
C1637 C1636 1.377 . S
C1637 C1643 1.390 . S
C1638 H1629 0.930 . S
C1638 C1636 1.384 . S
C1638 C1639 1.372 . S
C1639 C1638 1.372 . S
C1639 C1640 1.400 . S
C1639 C1644 1.490 . S
C1640 H1630 0.930 . S
C1640 C1639 1.400 . S
C1640 C1643 1.386 . S
H1641 C1657 0.930 . S
H1642 C1658 0.931 . S
C1643 H1631 0.929 . S
C1643 C1637 1.390 . S
C1643 C1640 1.386 . S
C1644 C1639 1.490 . S
C1644 C1646 1.395 . S
C1644 C1647 1.403 . S
H1645 C1651 0.930 . S
C1646 H1632 0.930 . S
C1646 C1644 1.395 . S
C1646 C1649 1.403 . S
C1647 C1644 1.403 . S
C1647 C1648 1.524 . S
C1647 C1651 1.400 . S
C1648 H1633 0.960 . S
C1648 H1634 0.960 . S
C1648 H1635 0.960 . S
C1648 C1647 1.524 . S
C1649 C1646 1.403 . S
C1649 C1650 1.392 . S
C1649 C1653 1.495 . S
C1650 C1649 1.392 . S
C1650 C1651 1.385 . S
C1650 C1652 1.478 . S
C1651 H1645 0.930 . S
C1651 C1647 1.400 . S
C1651 C1650 1.385 . S
C1652 C1650 1.478 . S
C1652 C1654 1.381 . S
C1652 C1658 1.383 . S
C1653 C1649 1.495 . S
C1653 H1659 0.959 . S
C1653 H1660 0.961 . S
C1653 H1661 0.960 . S
C1654 C1652 1.381 . S
C1654 C1655 1.394 . S
C1654 H1662 0.930 . S
C1655 C1654 1.394 . S
C1655 C1656 1.383 . S
C1655 H1663 0.929 . S
C1656 C1655 1.383 . S
C1656 C1657 1.377 . S
C1657 H1641 0.930 . S
C1657 C1656 1.377 . S
C1657 C1658 1.379 . S
C1658 H1642 0.931 . S
C1658 C1652 1.383 . S
C1658 C1657 1.379 . S
H1659 C1653 0.959 . S
H1660 C1653 0.961 . S
H1661 C1653 0.960 . S
H1662 C1654 0.930 . S
H1663 C1655 0.929 . S
H1664 C1672 0.929 . S
H1665 C1674 0.930 . S
H1666 C1676 0.930 . S
H1667 C1679 0.929 . S
H1668 C1682 0.930 . S
H1669 C1684 0.960 . S
H1670 C1684 0.960 . S
H1671 C1684 0.960 . S
C1672 H1664 0.929 . S
C1672 C1673 1.377 . S
C1672 C1674 1.384 . S
C1673 C1672 1.377 . S
C1673 C1679 1.390 . S
C1674 H1665 0.930 . S
C1674 C1672 1.384 . S
C1674 C1675 1.372 . S
C1675 C1674 1.372 . S
C1675 C1676 1.400 . S
C1675 C1680 1.490 . S
C1676 H1666 0.930 . S
C1676 C1675 1.400 . S
C1676 C1679 1.386 . S
H1677 C1693 0.930 . S
H1678 C1694 0.931 . S
C1679 H1667 0.929 . S
C1679 C1673 1.390 . S
C1679 C1676 1.386 . S
C1680 C1675 1.490 . S
C1680 C1682 1.395 1_556 S
C1680 C1683 1.403 . S
H1681 C1687 0.930 . S
C1682 H1668 0.930 . S
C1682 C1680 1.395 1_554 S
C1682 C1685 1.403 . S
C1683 C1680 1.403 . S
C1683 C1684 1.524 . S
C1683 C1687 1.400 1_556 S
C1684 H1669 0.960 . S
C1684 H1670 0.960 . S
C1684 H1671 0.960 . S
C1684 C1683 1.524 . S
C1685 C1682 1.403 . S
C1685 C1686 1.392 . S
C1685 C1689 1.495 . S
C1686 C1685 1.392 . S
C1686 C1687 1.385 . S
C1686 C1688 1.478 . S
C1687 H1681 0.930 . S
C1687 C1683 1.400 1_554 S
C1687 C1686 1.385 . S
C1688 C1686 1.478 . S
C1688 C1690 1.381 . S
C1688 C1694 1.383 . S
C1689 C1685 1.495 . S
C1689 H1695 0.959 . S
C1689 H1696 0.961 . S
C1689 H1697 0.960 . S
C1690 C1688 1.381 . S
C1690 C1691 1.394 . S
C1690 H1698 0.930 . S
C1691 C1690 1.394 . S
C1691 C1692 1.383 . S
C1691 H1699 0.929 . S
C1692 C1691 1.383 . S
C1692 C1693 1.377 . S
C1693 H1677 0.930 . S
C1693 C1692 1.377 . S
C1693 C1694 1.379 . S
C1694 H1678 0.931 . S
C1694 C1688 1.383 . S
C1694 C1693 1.379 . S
H1695 C1689 0.959 . S
H1696 C1689 0.961 . S
H1697 C1689 0.960 . S
H1698 C1690 0.930 . S
H1699 C1691 0.929 . S
H1700 C1708 0.929 . S
H1701 C1710 0.930 . S
H1702 C1712 0.930 . S
H1703 C1715 0.929 . S
H1704 C1718 0.930 . S
H1705 C1720 0.960 . S
H1706 C1720 0.960 . S
H1707 C1720 0.960 . S
C1708 H1700 0.929 . S
C1708 C1709 1.377 . S
C1708 C1710 1.384 . S
C1709 C1708 1.377 . S
C1709 C1715 1.390 . S
C1710 H1701 0.930 . S
C1710 C1708 1.384 . S
C1710 C1711 1.372 . S
C1711 C1710 1.372 . S
C1711 C1712 1.400 . S
C1711 C1716 1.490 . S
C1712 H1702 0.930 . S
C1712 C1711 1.400 . S
C1712 C1715 1.386 . S
H1713 C1729 0.930 . S
H1714 C1730 0.931 . S
C1715 H1703 0.929 . S
C1715 C1709 1.390 . S
C1715 C1712 1.386 . S
C1716 C1711 1.490 . S
C1716 C1718 1.395 . S
C1716 C1719 1.403 . S
H1717 C1723 0.930 . S
C1718 H1704 0.930 . S
C1718 C1716 1.395 . S
C1718 C1721 1.403 1_554 S
C1719 C1716 1.403 . S
C1719 C1720 1.524 . S
C1719 C1723 1.400 . S
C1720 H1705 0.960 . S
C1720 H1706 0.960 . S
C1720 H1707 0.960 . S
C1720 C1719 1.524 . S
C1721 C1718 1.403 1_556 S
C1721 C1722 1.392 . S
C1721 C1725 1.495 . S
C1722 C1721 1.392 . S
C1722 C1723 1.385 1_556 S
C1722 C1724 1.478 . S
C1723 H1717 0.930 . S
C1723 C1719 1.400 . S
C1723 C1722 1.385 1_554 S
C1724 C1722 1.478 . S
C1724 C1726 1.381 . S
C1724 C1730 1.383 . S
C1725 C1721 1.495 . S
C1725 H1731 0.959 . S
C1725 H1732 0.961 . S
C1725 H1733 0.960 . S
C1726 C1724 1.381 . S
C1726 C1727 1.394 . S
C1726 H1734 0.930 . S
C1727 C1726 1.394 . S
C1727 C1728 1.383 . S
C1727 H1735 0.929 . S
C1728 C1727 1.383 . S
C1728 C1729 1.377 . S
C1729 H1713 0.930 . S
C1729 C1728 1.377 . S
C1729 C1730 1.379 . S
C1730 H1714 0.931 . S
C1730 C1724 1.383 . S
C1730 C1729 1.379 . S
H1731 C1725 0.959 . S
H1732 C1725 0.961 . S
H1733 C1725 0.960 . S
H1734 C1726 0.930 . S
H1735 C1727 0.929 . S
H1736 C1744 0.929 . S
H1737 C1746 0.930 . S
H1738 C1748 0.930 . S
H1739 C1751 0.929 . S
H1740 C1754 0.930 . S
H1741 C1756 0.960 . S
H1742 C1756 0.960 1_556 S
H1743 C1756 0.960 . S
C1744 H1736 0.929 . S
C1744 C1745 1.377 . S
C1744 C1746 1.384 . S
C1745 C1744 1.377 . S
C1745 C1751 1.390 . S
C1746 H1737 0.930 . S
C1746 C1744 1.384 . S
C1746 C1747 1.372 . S
C1747 C1746 1.372 . S
C1747 C1748 1.400 . S
C1747 C1752 1.490 . S
C1748 H1738 0.930 . S
C1748 C1747 1.400 . S
C1748 C1751 1.386 . S
H1749 C1765 0.930 . S
H1750 C1766 0.931 . S
C1751 H1739 0.929 . S
C1751 C1745 1.390 . S
C1751 C1748 1.386 . S
C1752 C1747 1.490 . S
C1752 C1754 1.395 . S
C1752 C1755 1.403 1_556 S
H1753 C1759 0.930 . S
C1754 H1740 0.930 . S
C1754 C1752 1.395 . S
C1754 C1757 1.403 1_556 S
C1755 C1752 1.403 1_554 S
C1755 C1756 1.524 . S
C1755 C1759 1.400 . S
C1756 H1741 0.960 . S
C1756 H1742 0.960 1_554 S
C1756 H1743 0.960 . S
C1756 C1755 1.524 . S
C1757 C1754 1.403 1_554 S
C1757 C1758 1.392 . S
C1757 C1761 1.495 . S
C1758 C1757 1.392 . S
C1758 C1759 1.385 . S
C1758 C1760 1.478 . S
C1759 H1753 0.930 . S
C1759 C1755 1.400 . S
C1759 C1758 1.385 . S
C1760 C1758 1.478 . S
C1760 C1762 1.381 . S
C1760 C1766 1.383 . S
C1761 C1757 1.495 . S
C1761 H1767 0.959 1_554 S
C1761 H1768 0.961 . S
C1761 H1769 0.960 . S
C1762 C1760 1.381 . S
C1762 C1763 1.394 . S
C1762 H1770 0.930 . S
C1763 C1762 1.394 . S
C1763 C1764 1.383 . S
C1763 H1771 0.929 . S
C1764 C1763 1.383 . S
C1764 C1765 1.377 . S
C1765 H1749 0.930 . S
C1765 C1764 1.377 . S
C1765 C1766 1.379 . S
C1766 H1750 0.931 . S
C1766 C1760 1.383 . S
C1766 C1765 1.379 . S
H1767 C1761 0.959 1_556 S
H1768 C1761 0.961 . S
H1769 C1761 0.960 . S
H1770 C1762 0.930 . S
H1771 C1763 0.929 . S
H1772 C1780 0.929 . S
H1773 C1782 0.930 . S
H1774 C1784 0.930 . S
H1775 C1787 0.929 . S
H1776 C1790 0.930 . S
H1777 C1792 0.960 . S
H1778 C1792 0.960 . S
H1779 C1792 0.960 . S
C1780 H1772 0.929 . S
C1780 C1781 1.377 . S
C1780 C1782 1.384 . S
C1781 C1780 1.377 . S
C1781 C1787 1.390 . S
C1782 H1773 0.930 . S
C1782 C1780 1.384 . S
C1782 C1783 1.372 . S
C1783 C1782 1.372 . S
C1783 C1784 1.400 . S
C1783 C1788 1.490 . S
C1784 H1774 0.930 . S
C1784 C1783 1.400 . S
C1784 C1787 1.386 . S
H1785 C1801 0.930 . S
H1786 C1802 0.931 . S
C1787 H1775 0.929 . S
C1787 C1781 1.390 . S
C1787 C1784 1.386 . S
C1788 C1783 1.490 . S
C1788 C1790 1.395 . S
C1788 C1791 1.403 . S
H1789 C1795 0.930 . S
C1790 H1776 0.930 . S
C1790 C1788 1.395 . S
C1790 C1793 1.403 1_554 S
C1791 C1788 1.403 . S
C1791 C1792 1.524 . S
C1791 C1795 1.400 . S
C1792 H1777 0.960 . S
C1792 H1778 0.960 . S
C1792 H1779 0.960 . S
C1792 C1791 1.524 . S
C1793 C1790 1.403 1_556 S
C1793 C1794 1.392 . S
C1793 C1797 1.495 . S
C1794 C1793 1.392 . S
C1794 C1795 1.385 1_556 S
C1794 C1796 1.478 . S
C1795 H1789 0.930 . S
C1795 C1791 1.400 . S
C1795 C1794 1.385 1_554 S
C1796 C1794 1.478 . S
C1796 C1798 1.381 . S
C1796 C1802 1.383 . S
C1797 C1793 1.495 . S
C1797 H1803 0.959 . S
C1797 H1804 0.961 . S
C1797 H1805 0.960 . S
C1798 C1796 1.381 . S
C1798 C1799 1.394 . S
C1798 H1806 0.930 . S
C1799 C1798 1.394 . S
C1799 C1800 1.383 . S
C1799 H1807 0.929 . S
C1800 C1799 1.383 . S
C1800 C1801 1.377 . S
C1801 H1785 0.930 . S
C1801 C1800 1.377 . S
C1801 C1802 1.379 . S
C1802 H1786 0.931 . S
C1802 C1796 1.383 . S
C1802 C1801 1.379 . S
H1803 C1797 0.959 . S
H1804 C1797 0.961 . S
H1805 C1797 0.960 . S
H1806 C1798 0.930 . S
H1807 C1799 0.929 . S
H1808 C1816 0.929 . S
H1809 C1818 0.930 . S
H1810 C1820 0.930 . S
H1811 C1823 0.929 . S
H1812 C1826 0.930 . S
H1813 C1828 0.960 . S
H1814 C1828 0.960 . S
H1815 C1828 0.960 . S
C1816 H1808 0.929 . S
C1816 C1817 1.377 . S
C1816 C1818 1.384 . S
C1817 C1816 1.377 . S
C1817 C1823 1.390 . S
C1818 H1809 0.930 . S
C1818 C1816 1.384 . S
C1818 C1819 1.372 . S
C1819 C1818 1.372 . S
C1819 C1820 1.400 . S
C1819 C1824 1.490 . S
C1820 H1810 0.930 . S
C1820 C1819 1.400 . S
C1820 C1823 1.386 . S
H1821 C1837 0.930 . S
H1822 C1838 0.931 . S
C1823 H1811 0.929 . S
C1823 C1817 1.390 . S
C1823 C1820 1.386 . S
C1824 C1819 1.490 . S
C1824 C1826 1.395 . S
C1824 C1827 1.403 . S
H1825 C1831 0.930 . S
C1826 H1812 0.930 . S
C1826 C1824 1.395 . S
C1826 C1829 1.403 . S
C1827 C1824 1.403 . S
C1827 C1828 1.524 . S
C1827 C1831 1.400 . S
C1828 H1813 0.960 . S
C1828 H1814 0.960 . S
C1828 H1815 0.960 . S
C1828 C1827 1.524 . S
C1829 C1826 1.403 . S
C1829 C1830 1.392 . S
C1829 C1833 1.495 . S
C1830 C1829 1.392 . S
C1830 C1831 1.385 . S
C1830 C1832 1.478 . S
C1831 H1825 0.930 . S
C1831 C1827 1.400 . S
C1831 C1830 1.385 . S
C1832 C1830 1.478 . S
C1832 C1834 1.381 . S
C1832 C1838 1.383 . S
C1833 C1829 1.495 . S
C1833 H1839 0.959 . S
C1833 H1840 0.961 . S
C1833 H1841 0.960 . S
C1834 C1832 1.381 . S
C1834 C1835 1.394 . S
C1834 H1842 0.930 . S
C1835 C1834 1.394 . S
C1835 C1836 1.383 . S
C1835 H1843 0.929 . S
C1836 C1835 1.383 . S
C1836 C1837 1.377 . S
C1837 H1821 0.930 . S
C1837 C1836 1.377 . S
C1837 C1838 1.379 . S
C1838 H1822 0.931 . S
C1838 C1832 1.383 . S
C1838 C1837 1.379 . S
H1839 C1833 0.959 . S
H1840 C1833 0.961 . S
H1841 C1833 0.960 . S
H1842 C1834 0.930 . S
H1843 C1835 0.929 . S
H1844 C1852 0.929 . S
H1845 C1854 0.930 . S
H1846 C1856 0.930 . S
H1847 C1859 0.929 . S
H1848 C1862 0.930 . S
H1849 C1864 0.960 . S
H1850 C1864 0.960 . S
H1851 C1864 0.960 . S
C1852 H1844 0.929 . S
C1852 C1853 1.377 . S
C1852 C1854 1.384 . S
C1853 C1852 1.377 . S
C1853 C1859 1.390 . S
C1854 H1845 0.930 . S
C1854 C1852 1.384 . S
C1854 C1855 1.372 . S
C1855 C1854 1.372 . S
C1855 C1856 1.400 . S
C1855 C1860 1.490 . S
C1856 H1846 0.930 . S
C1856 C1855 1.400 . S
C1856 C1859 1.386 . S
H1857 C1873 0.930 . S
H1858 C1874 0.931 . S
C1859 H1847 0.929 . S
C1859 C1853 1.390 . S
C1859 C1856 1.386 . S
C1860 C1855 1.490 . S
C1860 C1862 1.395 . S
C1860 C1863 1.403 . S
H1861 C1867 0.930 . S
C1862 H1848 0.930 . S
C1862 C1860 1.395 . S
C1862 C1865 1.403 . S
C1863 C1860 1.403 . S
C1863 C1864 1.524 . S
C1863 C1867 1.400 . S
C1864 H1849 0.960 . S
C1864 H1850 0.960 . S
C1864 H1851 0.960 . S
C1864 C1863 1.524 . S
C1865 C1862 1.403 . S
C1865 C1866 1.392 . S
C1865 C1869 1.495 . S
C1866 C1865 1.392 . S
C1866 C1867 1.385 . S
C1866 C1868 1.478 . S
C1867 H1861 0.930 . S
C1867 C1863 1.400 . S
C1867 C1866 1.385 . S
C1868 C1866 1.478 . S
C1868 C1870 1.381 . S
C1868 C1874 1.383 . S
C1869 C1865 1.495 . S
C1869 H1875 0.959 . S
C1869 H1876 0.961 . S
C1869 H1877 0.960 . S
C1870 C1868 1.381 . S
C1870 C1871 1.394 . S
C1870 H1878 0.930 . S
C1871 C1870 1.394 . S
C1871 C1872 1.383 . S
C1871 H1879 0.929 . S
C1872 C1871 1.383 . S
C1872 C1873 1.377 . S
C1873 H1857 0.930 . S
C1873 C1872 1.377 . S
C1873 C1874 1.379 . S
C1874 H1858 0.931 . S
C1874 C1868 1.383 . S
C1874 C1873 1.379 . S
H1875 C1869 0.959 . S
H1876 C1869 0.961 . S
H1877 C1869 0.960 . S
H1878 C1870 0.930 . S
H1879 C1871 0.929 . S
H1880 C1888 0.929 . S
H1881 C1890 0.930 . S
H1882 C1892 0.930 . S
H1883 C1895 0.929 . S
H1884 C1898 0.930 . S
H1885 C1900 0.960 . S
H1886 C1900 0.960 . S
H1887 C1900 0.960 . S
C1888 H1880 0.929 . S
C1888 C1889 1.377 . S
C1888 C1890 1.384 . S
C1889 C1888 1.377 . S
C1889 C1895 1.390 . S
C1890 H1881 0.930 . S
C1890 C1888 1.384 . S
C1890 C1891 1.372 . S
C1891 C1890 1.372 . S
C1891 C1892 1.400 . S
C1891 C1896 1.490 . S
C1892 H1882 0.930 . S
C1892 C1891 1.400 . S
C1892 C1895 1.386 . S
H1893 C1909 0.930 . S
H1894 C1910 0.931 . S
C1895 H1883 0.929 . S
C1895 C1889 1.390 . S
C1895 C1892 1.386 . S
C1896 C1891 1.490 . S
C1896 C1898 1.395 . S
C1896 C1899 1.403 . S
H1897 C1903 0.930 . S
C1898 H1884 0.930 . S
C1898 C1896 1.395 . S
C1898 C1901 1.403 . S
C1899 C1896 1.403 . S
C1899 C1900 1.524 . S
C1899 C1903 1.400 . S
C1900 H1885 0.960 . S
C1900 H1886 0.960 . S
C1900 H1887 0.960 . S
C1900 C1899 1.524 . S
C1901 C1898 1.403 . S
C1901 C1902 1.392 . S
C1901 C1905 1.495 . S
C1902 C1901 1.392 . S
C1902 C1903 1.385 . S
C1902 C1904 1.478 . S
C1903 H1897 0.930 . S
C1903 C1899 1.400 . S
C1903 C1902 1.385 . S
C1904 C1902 1.478 . S
C1904 C1906 1.381 . S
C1904 C1910 1.383 . S
C1905 C1901 1.495 . S
C1905 H1911 0.959 . S
C1905 H1912 0.961 . S
C1905 H1913 0.960 . S
C1906 C1904 1.381 . S
C1906 C1907 1.394 . S
C1906 H1914 0.930 . S
C1907 C1906 1.394 . S
C1907 C1908 1.383 . S
C1907 H1915 0.929 . S
C1908 C1907 1.383 . S
C1908 C1909 1.377 . S
C1909 H1893 0.930 . S
C1909 C1908 1.377 . S
C1909 C1910 1.379 . S
C1910 H1894 0.931 . S
C1910 C1904 1.383 . S
C1910 C1909 1.379 . S
H1911 C1905 0.959 . S
H1912 C1905 0.961 . S
H1913 C1905 0.960 . S
H1914 C1906 0.930 . S
H1915 C1907 0.929 . S
H1916 C1924 0.929 . S
H1917 C1926 0.930 . S
H1918 C1928 0.930 . S
H1919 C1931 0.929 . S
H1920 C1934 0.930 . S
H1921 C1936 0.960 . S
H1922 C1936 0.960 . S
H1923 C1936 0.960 . S
C1924 H1916 0.929 . S
C1924 C1925 1.377 . S
C1924 C1926 1.384 . S
C1925 C1924 1.377 . S
C1925 C1931 1.390 . S
C1926 H1917 0.930 . S
C1926 C1924 1.384 . S
C1926 C1927 1.372 . S
C1927 C1926 1.372 . S
C1927 C1928 1.400 . S
C1927 C1932 1.490 . S
C1928 H1918 0.930 . S
C1928 C1927 1.400 . S
C1928 C1931 1.386 . S
H1929 C1945 0.930 . S
H1930 C1946 0.931 . S
C1931 H1919 0.929 . S
C1931 C1925 1.390 . S
C1931 C1928 1.386 . S
C1932 C1927 1.490 . S
C1932 C1934 1.395 . S
C1932 C1935 1.403 . S
H1933 C1939 0.930 . S
C1934 H1920 0.930 . S
C1934 C1932 1.395 . S
C1934 C1937 1.403 . S
C1935 C1932 1.403 . S
C1935 C1936 1.524 . S
C1935 C1939 1.400 . S
C1936 H1921 0.960 . S
C1936 H1922 0.960 . S
C1936 H1923 0.960 . S
C1936 C1935 1.524 . S
C1937 C1934 1.403 . S
C1937 C1938 1.392 . S
C1937 C1941 1.495 . S
C1938 C1937 1.392 . S
C1938 C1939 1.385 . S
C1938 C1940 1.478 . S
C1939 H1933 0.930 . S
C1939 C1935 1.400 . S
C1939 C1938 1.385 . S
C1940 C1938 1.478 . S
C1940 C1942 1.381 . S
C1940 C1946 1.383 . S
C1941 C1937 1.495 . S
C1941 H1947 0.959 . S
C1941 H1948 0.961 . S
C1941 H1949 0.960 . S
C1942 C1940 1.381 . S
C1942 C1943 1.394 . S
C1942 H1950 0.930 . S
C1943 C1942 1.394 . S
C1943 C1944 1.383 . S
C1943 H1951 0.929 . S
C1944 C1943 1.383 . S
C1944 C1945 1.377 . S
C1945 H1929 0.930 . S
C1945 C1944 1.377 . S
C1945 C1946 1.379 . S
C1946 H1930 0.931 . S
C1946 C1940 1.383 . S
C1946 C1945 1.379 . S
H1947 C1941 0.959 . S
H1948 C1941 0.961 . S
H1949 C1941 0.960 . S
H1950 C1942 0.930 . S
H1951 C1943 0.929 . S
H1952 C1960 0.929 . S
H1953 C1962 0.930 . S
H1954 C1964 0.930 . S
H1955 C1967 0.929 . S
H1956 C1970 0.930 . S
H1957 C1972 0.960 . S
H1958 C1972 0.953 1_556 S
H1959 C1972 0.960 1_556 S
C1960 H1952 0.929 . S
C1960 C1961 1.377 . S
C1960 C1962 1.384 . S
C1961 C1960 1.377 . S
C1961 C1967 1.390 . S
C1962 H1953 0.930 . S
C1962 C1960 1.384 . S
C1962 C1963 1.372 . S
C1963 C1962 1.372 . S
C1963 C1964 1.400 . S
C1963 C1968 1.490 . S
C1964 H1954 0.930 . S
C1964 C1963 1.400 . S
C1964 C1967 1.386 . S
H1965 C1981 0.930 . S
H1966 C1982 0.931 . S
C1967 H1955 0.929 . S
C1967 C1961 1.390 . S
C1967 C1964 1.386 . S
C1968 C1963 1.490 . S
C1968 C1970 1.395 . S
C1968 C1971 1.403 . S
H1969 C1975 0.930 . S
C1970 H1956 0.930 . S
C1970 C1968 1.395 . S
C1970 C1973 1.403 . S
C1971 C1968 1.403 . S
C1971 C1972 1.524 1_556 S
C1971 C1975 1.400 1_556 S
C1972 H1957 0.960 . S
C1972 H1958 0.953 1_554 S
C1972 H1959 0.960 1_554 S
C1972 C1971 1.524 1_554 S
C1973 C1970 1.403 . S
C1973 C1974 1.392 1_556 S
C1973 C1977 1.495 . S
C1974 C1973 1.392 1_554 S
C1974 C1975 1.385 . S
C1974 C1976 1.478 . S
C1975 H1969 0.930 . S
C1975 C1971 1.400 1_554 S
C1975 C1974 1.385 . S
C1976 C1974 1.478 . S
C1976 C1978 1.381 . S
C1976 C1982 1.383 . S
C1977 C1973 1.495 . S
C1977 H1983 0.959 . S
C1977 H1984 0.961 . S
C1977 H1985 0.960 . S
C1978 C1976 1.381 . S
C1978 C1979 1.394 . S
C1978 H1986 0.930 . S
C1979 C1978 1.394 . S
C1979 C1980 1.383 . S
C1979 H1987 0.929 . S
C1980 C1979 1.383 . S
C1980 C1981 1.377 . S
C1981 H1965 0.930 . S
C1981 C1980 1.377 . S
C1981 C1982 1.379 . S
C1982 H1966 0.931 . S
C1982 C1976 1.383 . S
C1982 C1981 1.379 . S
H1983 C1977 0.959 . S
H1984 C1977 0.961 . S
H1985 C1977 0.960 . S
H1986 C1978 0.930 . S
H1987 C1979 0.929 . S
H1988 C1996 0.929 . S
H1989 C1998 0.930 . S
H1990 C2000 0.930 . S
H1991 C2003 0.929 . S
H1992 C2006 0.930 . S
H1993 C2008 0.960 . S
H1994 C2008 0.960 1_556 S
H1995 C2008 0.960 1_556 S
C1996 H1988 0.929 . S
C1996 C1997 1.377 . S
C1996 C1998 1.384 . S
C1997 C1996 1.377 . S
C1997 C2003 1.390 . S
C1998 H1989 0.930 . S
C1998 C1996 1.384 . S
C1998 C1999 1.372 . S
C1999 C1998 1.372 . S
C1999 C2000 1.400 . S
C1999 C2004 1.490 . S
C2000 H1990 0.930 . S
C2000 C1999 1.400 . S
C2000 C2003 1.386 . S
H2001 C2017 0.930 . S
H2002 C2018 0.931 . S
C2003 H1991 0.929 . S
C2003 C1997 1.390 . S
C2003 C2000 1.386 . S
C2004 C1999 1.490 . S
C2004 C2006 1.395 . S
C2004 C2007 1.403 . S
H2005 C2011 0.930 . S
C2006 H1992 0.930 . S
C2006 C2004 1.395 . S
C2006 C2009 1.403 . S
C2007 C2004 1.403 . S
C2007 C2008 1.524 1_556 S
C2007 C2011 1.400 1_556 S
C2008 H1993 0.960 . S
C2008 H1994 0.960 1_554 S
C2008 H1995 0.960 1_554 S
C2008 C2007 1.524 1_554 S
C2009 C2006 1.403 . S
C2009 C2010 1.392 1_556 S
C2009 C2013 1.495 . S
C2010 C2009 1.392 1_554 S
C2010 C2011 1.385 . S
C2010 C2012 1.478 . S
C2011 H2005 0.930 . S
C2011 C2007 1.400 1_554 S
C2011 C2010 1.385 . S
C2012 C2010 1.478 . S
C2012 C2014 1.381 . S
C2012 C2018 1.383 . S
C2013 C2009 1.495 . S
C2013 H2019 0.959 . S
C2013 H2020 0.961 . S
C2013 H2021 0.960 . S
C2014 C2012 1.381 . S
C2014 C2015 1.394 . S
C2014 H2022 0.930 . S
C2015 C2014 1.394 . S
C2015 C2016 1.383 . S
C2015 H2023 0.929 . S
C2016 C2015 1.383 . S
C2016 C2017 1.377 . S
C2017 H2001 0.930 . S
C2017 C2016 1.377 . S
C2017 C2018 1.379 . S
C2018 H2002 0.931 . S
C2018 C2012 1.383 . S
C2018 C2017 1.379 . S
H2019 C2013 0.959 . S
H2020 C2013 0.961 . S
H2021 C2013 0.960 . S
H2022 C2014 0.930 . S
H2023 C2015 0.929 . S
H2024 C2032 0.929 . S
H2025 C2034 0.930 . S
H2026 C2036 0.930 . S
H2027 C2039 0.929 . S
H2028 C2042 0.930 . S
H2029 C2044 0.960 . S
H2030 C2044 0.960 . S
H2031 C2044 0.960 . S
C2032 H2024 0.929 . S
C2032 C2033 1.377 . S
C2032 C2034 1.384 . S
C2033 C2032 1.377 . S
C2033 C2039 1.390 . S
C2034 H2025 0.930 . S
C2034 C2032 1.384 . S
C2034 C2035 1.372 . S
C2035 C2034 1.372 . S
C2035 C2036 1.400 . S
C2035 C2040 1.490 . S
C2036 H2026 0.930 . S
C2036 C2035 1.400 . S
C2036 C2039 1.386 . S
H2037 C2053 0.930 . S
H2038 C2054 0.931 . S
C2039 H2027 0.929 . S
C2039 C2033 1.390 . S
C2039 C2036 1.386 . S
C2040 C2035 1.490 . S
C2040 C2042 1.395 1_554 S
C2040 C2043 1.403 . S
H2041 C2047 0.930 . S
C2042 H2028 0.930 . S
C2042 C2040 1.395 1_556 S
C2042 C2045 1.403 . S
C2043 C2040 1.403 . S
C2043 C2044 1.524 . S
C2043 C2047 1.400 1_554 S
C2044 H2029 0.960 . S
C2044 H2030 0.960 . S
C2044 H2031 0.960 . S
C2044 C2043 1.524 . S
C2045 C2042 1.403 . S
C2045 C2046 1.392 . S
C2045 C2049 1.495 . S
C2046 C2045 1.392 . S
C2046 C2047 1.385 . S
C2046 C2048 1.478 . S
C2047 H2041 0.930 . S
C2047 C2043 1.400 1_556 S
C2047 C2046 1.385 . S
C2048 C2046 1.478 . S
C2048 C2050 1.381 . S
C2048 C2054 1.383 . S
C2049 C2045 1.495 . S
C2049 H2055 0.959 . S
C2049 H2056 0.961 . S
C2049 H2057 0.960 . S
C2050 C2048 1.381 . S
C2050 C2051 1.394 . S
C2050 H2058 0.930 . S
C2051 C2050 1.394 . S
C2051 C2052 1.383 . S
C2051 H2059 0.929 . S
C2052 C2051 1.383 . S
C2052 C2053 1.377 . S
C2053 H2037 0.930 . S
C2053 C2052 1.377 . S
C2053 C2054 1.379 . S
C2054 H2038 0.931 . S
C2054 C2048 1.383 . S
C2054 C2053 1.379 . S
H2055 C2049 0.959 . S
H2056 C2049 0.961 . S
H2057 C2049 0.960 . S
H2058 C2050 0.930 . S
H2059 C2051 0.929 . S
H2060 C2068 0.929 . S
H2061 C2070 0.930 . S
H2062 C2072 0.930 . S
H2063 C2075 0.929 . S
H2064 C2078 0.920 1_554 S
H2065 C2080 0.960 . S
H2066 C2080 0.960 . S
H2067 C2080 0.960 . S
C2068 H2060 0.929 . S
C2068 C2069 1.377 . S
C2068 C2070 1.384 . S
C2069 C2068 1.377 . S
C2069 C2075 1.390 . S
C2070 H2061 0.930 . S
C2070 C2068 1.384 . S
C2070 C2071 1.372 . S
C2071 C2070 1.372 . S
C2071 C2072 1.400 . S
C2071 C2076 1.490 . S
C2072 H2062 0.930 . S
C2072 C2071 1.400 . S
C2072 C2075 1.386 . S
H2073 C2089 0.930 . S
H2074 C2090 0.931 . S
C2075 H2063 0.929 . S
C2075 C2069 1.390 . S
C2075 C2072 1.386 . S
C2076 C2071 1.490 . S
C2076 C2078 1.395 1_554 S
C2076 C2079 1.404 1_554 S
H2077 C2083 0.930 . S
C2078 H2064 0.920 1_556 S
C2078 C2076 1.395 1_556 S
C2078 C2081 1.403 . S
C2079 C2076 1.404 1_556 S
C2079 C2080 1.526 1_556 S
C2079 C2083 1.396 . S
C2080 H2065 0.960 . S
C2080 H2066 0.960 . S
C2080 H2067 0.960 . S
C2080 C2079 1.526 1_554 S
C2081 C2078 1.403 . S
C2081 C2082 1.392 . S
C2081 C2085 1.495 . S
C2082 C2081 1.392 . S
C2082 C2083 1.385 . S
C2082 C2084 1.478 . S
C2083 H2077 0.930 . S
C2083 C2079 1.396 . S
C2083 C2082 1.385 . S
C2084 C2082 1.478 . S
C2084 C2086 1.381 . S
C2084 C2090 1.383 . S
C2085 C2081 1.495 . S
C2085 H2091 0.959 . S
C2085 H2092 0.961 . S
C2085 H2093 0.960 . S
C2086 C2084 1.381 . S
C2086 C2087 1.394 . S
C2086 H2094 0.930 . S
C2087 C2086 1.394 . S
C2087 C2088 1.383 . S
C2087 H2095 0.929 . S
C2088 C2087 1.383 . S
C2088 C2089 1.377 . S
C2089 H2073 0.930 . S
C2089 C2088 1.377 . S
C2089 C2090 1.379 . S
C2090 H2074 0.931 . S
C2090 C2084 1.383 . S
C2090 C2089 1.379 . S
H2091 C2085 0.959 . S
H2092 C2085 0.961 . S
H2093 C2085 0.960 . S
H2094 C2086 0.930 . S
H2095 C2087 0.929 . S
C377 C17 1.717 . S
C396 C131 1.713 . S
C413 C155 1.677 . S
C432 C40 1.662 . S
C449 C63 1.683 . S
C468 C178 1.672 . S
C485 C85 1.739 . S
C504 C108 1.747 . S
C521 C316 1.717 . S
C540 C201 1.704 . S
C557 C339 1.713 . S
C576 C224 1.702 . S
C593 C247 1.718 . S
C612 C362 1.708 . S
C629 C270 1.709 . S
C648 C293 1.714 . S
C665 C20 1.518 . S
C684 C88 1.503 . S
C701 C43 1.480 . S
C720 C21 1.490 . S
C737 C66 1.525 . S
C756 C44 1.500 . S
C773 C87 1.520 1_545 S
C792 C67 1.534 . S
C809 C110 1.555 1_655 S
C828 C134 1.566 . S
C845 C159 1.546 . S
C864 C133 1.531 1_565 S
C881 C158 1.480 . S
C900 C182 1.486 . S
C917 C111 1.505 . S
C936 C181 1.516 . S
C953 C274 1.494 . S
C972 C204 1.477 . S
C989 C227 1.489 . S
C1008 C205 1.496 . S
C1025 C250 1.518 . S
C1044 C228 1.492 . S
C1061 C273 1.499 . S
C1080 C251 1.487 . S
C1097 C296 1.480 . S
C1116 C320 1.483 . S
C1133 C319 1.498 . S
C1152 C343 1.487 . S
C1169 C342 1.479 . S
C1188 C366 1.486 . S
C1205 C365 1.479 . S
C1224 C297 1.480 . S
C1241 C19 0.490 . S
C1260 C65 0.378 . S
C1277 C42 0.471 . S
C1296 C90 0.268 . S
C1313 C157 0.452 . S
C1332 C113 0.357 . S
C1349 C180 0.481 . S
C1368 C136 0.361 . S
C1385 C249 0.485 . S
C1404 C203 0.536 . S
C1421 C272 0.478 . S
C1440 C226 0.552 . S
C1457 C295 0.458 . S
C1476 C341 0.557 . S
C1493 C318 0.447 . S
C1512 C364 0.462 . S
C1529 C18 1.056 . S
C1548 C269 1.051 . S
C1565 C200 1.019 . S
C1584 C41 1.030 . S
C1601 C64 1.058 . S
C1620 C223 1.002 . S
C1637 C246 0.997 . S
C1656 C89 1.025 . S
C1673 C315 0.992 . S
C1692 C112 0.969 . S
C1709 C135 0.996 . S
C1728 C338 0.963 . S
C1745 C361 1.032 . S
C1764 C156 1.049 . S
C1781 C179 1.047 . S
C1800 C292 0.987 . S
C1817 C202 1.019 . S
C1836 C86 0.999 . S
C1853 C225 1.044 . S
C1872 C16 1.052 . S
C1889 C39 1.036 . S
C1908 C248 1.053 . S
C1925 C271 1.045 . S
C1944 C62 1.000 . S
C1961 C294 1.018 . S
C1980 C132 1.017 . S
C1997 C317 1.057 . S
C2016 C154 1.062 . S
C2033 C177 1.030 . S
C2052 C340 1.055 . S
C2069 C109 0.995 . S
C2088 C363 1.012 . S
