# Generated by pormake.
# Topology wjg, (4)-cn, num edge types: 1
# Building blocks:
#     Node 0, Type 0, BuildingBlock: UXUYUI_clean_sbu_0, # of connection points: 4
#     Node 1, Type 0, BuildingBlock: UXUYUI_clean_sbu_0, # of connection points: 4
#     Node 2, Type 0, BuildingBlock: UXUYUI_clean_sbu_0, # of connection points: 4
#     Node 3, Type 0, BuildingBlock: UXUYUI_clean_sbu_0, # of connection points: 4
#     Node 4, Type 0, BuildingBlock: UXUYUI_clean_sbu_0, # of connection points: 4
#     Node 5, Type 0, BuildingBlock: UXUYUI_clean_sbu_0, # of connection points: 4
#     Node 6, Type 0, BuildingBlock: UXUYUI_clean_sbu_0, # of connection points: 4
#     Node 7, Type 0, BuildingBlock: UXUYUI_clean_sbu_0, # of connection points: 4
#     Node 8, Type 0, BuildingBlock: UXUYUI_clean_sbu_0, # of connection points: 4
#     Node 9, Type 0, BuildingBlock: UXUYUI_clean_sbu_0, # of connection points: 4
#     Node 10, Type 0, BuildingBlock: UXUYUI_clean_sbu_0, # of connection points: 4
#     Node 11, Type 0, BuildingBlock: UXUYUI_clean_sbu_0, # of connection points: 4
#     Edge 12, Type (0, 0), BuildingBlock: CIFDUS_clean_linker_0, # of connection points: 2
#     Edge 13, Type (0, 0), BuildingBlock: CIFDUS_clean_linker_0, # of connection points: 2
#     Edge 14, Type (0, 0), BuildingBlock: CIFDUS_clean_linker_0, # of connection points: 2
#     Edge 15, Type (0, 0), BuildingBlock: CIFDUS_clean_linker_0, # of connection points: 2
#     Edge 16, Type (0, 0), BuildingBlock: CIFDUS_clean_linker_0, # of connection points: 2
#     Edge 17, Type (0, 0), BuildingBlock: CIFDUS_clean_linker_0, # of connection points: 2
#     Edge 18, Type (0, 0), BuildingBlock: CIFDUS_clean_linker_0, # of connection points: 2
#     Edge 19, Type (0, 0), BuildingBlock: CIFDUS_clean_linker_0, # of connection points: 2
#     Edge 20, Type (0, 0), BuildingBlock: CIFDUS_clean_linker_0, # of connection points: 2
#     Edge 21, Type (0, 0), BuildingBlock: CIFDUS_clean_linker_0, # of connection points: 2
#     Edge 22, Type (0, 0), BuildingBlock: CIFDUS_clean_linker_0, # of connection points: 2
#     Edge 23, Type (0, 0), BuildingBlock: CIFDUS_clean_linker_0, # of connection points: 2
#     Edge 24, Type (0, 0), BuildingBlock: CIFDUS_clean_linker_0, # of connection points: 2
#     Edge 25, Type (0, 0), BuildingBlock: CIFDUS_clean_linker_0, # of connection points: 2
#     Edge 26, Type (0, 0), BuildingBlock: CIFDUS_clean_linker_0, # of connection points: 2
#     Edge 27, Type (0, 0), BuildingBlock: CIFDUS_clean_linker_0, # of connection points: 2
#     Edge 28, Type (0, 0), BuildingBlock: CIFDUS_clean_linker_0, # of connection points: 2
#     Edge 29, Type (0, 0), BuildingBlock: CIFDUS_clean_linker_0, # of connection points: 2
#     Edge 30, Type (0, 0), BuildingBlock: CIFDUS_clean_linker_0, # of connection points: 2
#     Edge 31, Type (0, 0), BuildingBlock: CIFDUS_clean_linker_0, # of connection points: 2
#     Edge 32, Type (0, 0), BuildingBlock: CIFDUS_clean_linker_0, # of connection points: 2
#     Edge 33, Type (0, 0), BuildingBlock: CIFDUS_clean_linker_0, # of connection points: 2
#     Edge 34, Type (0, 0), BuildingBlock: CIFDUS_clean_linker_0, # of connection points: 2
#     Edge 35, Type (0, 0), BuildingBlock: CIFDUS_clean_linker_0, # of connection points: 2
# Relax obj value: 0.406
# Max RMSD: 0.171
# Mean RMSD: 0.170
data_MOF--net-wjg--node1-UXUYUI_clean_sbu_0--edge1-CIFDUS_clean_linker_0
_symmetry_space_group_name_H-M    P1
_symmetry_Int_Tables_number       1
_symmetry_cell_setting            triclinic
loop_
_symmetry_equiv_pos_as_xyz
'x, y, z'
_cell_length_a     47.556701
_cell_length_b     47.491938
_cell_length_c     48.522542
_cell_angle_alpha  89.992349
_cell_angle_beta   90.027994
_cell_angle_gamma 120.02964
loop_
_atom_site_label
_atom_site_type_symbol
_atom_site_fract_x
_atom_site_fract_y
_atom_site_fract_z
_atom_type_partial_charge
Li0 Li 0.20166 0.44674 0.3054 0.0
Li1 Li 0.1585 0.40175 0.33456 0.0
Li2 Li 0.18878 0.39059 0.3015 0.0
Li3 Li 0.14835 0.4019 0.2852 0.0
C4 C 0.23041 0.4159 0.34303 0.0
N5 N 0.28036 0.40664 0.36088 0.0
C6 C 0.22452 0.39216 0.36279 0.0
C7 C 0.26174 0.43511 0.33249 0.0
C8 C 0.25009 0.38779 0.37149 0.0
C9 C 0.28666 0.43002 0.34176 0.0
C10 C 0.13891 0.44988 0.32347 0.0
C11 C 0.08893 0.45074 0.32925 0.0
N12 N 0.10503 0.47833 0.34454 0.0
C13 C 0.15501 0.47853 0.33887 0.0
C14 C 0.10565 0.43611 0.31829 0.0
C15 C 0.13744 0.49241 0.34951 0.0
C16 C 0.25035 0.51055 0.28636 0.0
N17 N 0.23481 0.49067 0.30806 0.0
C18 C 0.27074 0.53077 0.33997 0.0
C19 C 0.24413 0.50033 0.33446 0.0
C20 C 0.28814 0.55152 0.31809 0.0
C21 C 0.27728 0.54146 0.29096 0.0
H22 H 0.24249 0.50207 0.26556 0.0
H23 H 0.2313 0.48388 0.35126 0.0
C24 C 0.13563 0.3633 0.38202 0.0
N25 N 0.14511 0.39337 0.37171 0.0
C26 C 0.13678 0.35893 0.41035 0.0
C27 C 0.15519 0.41605 0.41691 0.0
C28 C 0.15393 0.41936 0.38847 0.0
C29 C 0.148 0.38586 0.42801 0.0
H30 H 0.13011 0.34336 0.36816 0.0
H31 H 0.16295 0.44323 0.37971 0.0
C32 C 0.20585 0.41153 0.24959 0.0
N33 N 0.23022 0.39178 0.2068 0.0
C34 C 0.18711 0.3806 0.23811 0.0
C35 C 0.2369 0.43252 0.23925 0.0
C36 C 0.1999 0.37103 0.21652 0.0
C37 C 0.2488 0.42206 0.21761 0.0
C38 C 0.10958 0.34232 0.31212 0.0
C39 C 0.09734 0.31016 0.30354 0.0
C40 C 0.08878 0.35143 0.3244 0.0
C41 C 0.06432 0.28781 0.30692 0.0
C42 C 0.05592 0.32838 0.32746 0.0
N43 N 0.04445 0.29731 0.31869 0.0
C44 C 0.19193 0.33514 0.31198 0.0
C45 C 0.2381 0.37442 0.2875 0.0
C46 C 0.20603 0.31581 0.31555 0.0
N47 N 0.20819 0.364 0.29848 0.0
C48 C 0.253 0.35561 0.29028 0.0
C49 C 0.23722 0.32616 0.305 0.0
H50 H 0.16866 0.32795 0.32131 0.0
H51 H 0.25111 0.39797 0.27775 0.0
C52 C 0.11164 0.41729 0.24843 0.0
N53 N 0.11647 0.39306 0.25784 0.0
C54 C 0.08759 0.41061 0.22876 0.0
C55 C 0.0744 0.35438 0.22873 0.0
C56 C 0.09893 0.36223 0.24799 0.0
C57 C 0.06838 0.37869 0.21905 0.0
H58 H 0.12628 0.44171 0.25639 0.0
H59 H 0.104 0.34367 0.25501 0.0
O60 O 0.20553 0.41995 0.33368 0.0
O61 O 0.15591 0.43627 0.3125 0.0
O62 O 0.19384 0.42127 0.27082 0.0
O63 O 0.14187 0.36443 0.30876 0.0
H64 H 0.2004 0.37698 0.37106 0.0
H65 H 0.26665 0.4534 0.31699 0.0
H66 H 0.24583 0.36934 0.38662 0.0
H67 H 0.31098 0.44455 0.33365 0.0
H68 H 0.06318 0.44023 0.32549 0.0
H69 H 0.18079 0.48986 0.34274 0.0
H70 H 0.09283 0.41447 0.30577 0.0
H71 H 0.14959 0.51443 0.36166 0.0
H72 H 0.27802 0.53777 0.36118 0.0
H73 H 0.29021 0.55673 0.27354 0.0
H74 H 0.13109 0.33529 0.41816 0.0
H75 H 0.16459 0.43756 0.42973 0.0
H76 H 0.16313 0.36403 0.24604 0.0
H77 H 0.25172 0.45652 0.24799 0.0
H78 H 0.18576 0.34709 0.20753 0.0
H79 H 0.27283 0.43797 0.20944 0.0
H80 H 0.11317 0.30266 0.2941 0.0
H81 H 0.098 0.37586 0.33189 0.0
H82 H 0.05449 0.26291 0.30018 0.0
H83 H 0.03956 0.33516 0.33692 0.0
H84 H 0.19318 0.29375 0.32759 0.0
H85 H 0.27693 0.36448 0.28157 0.0
H86 H 0.08364 0.42997 0.22161 0.0
H87 H 0.06049 0.32962 0.22123 0.0
Li88 Li 0.74573 0.18768 0.65328 0.0
Li89 Li 0.75157 0.14888 0.684 0.0
Li90 Li 0.79372 0.18103 0.65002 0.0
Li91 Li 0.74199 0.13715 0.6354 0.0
C92 C 0.80389 0.22446 0.69027 0.0
N93 N 0.85684 0.28165 0.70814 0.0
C94 C 0.8205 0.22471 0.71411 0.0
C95 C 0.81417 0.25324 0.67548 0.0
C96 C 0.8472 0.2539 0.72284 0.0
C97 C 0.84103 0.28191 0.68485 0.0
C98 C 0.68607 0.12016 0.67697 0.0
C99 C 0.64583 0.06518 0.68901 0.0
N100 N 0.63245 0.07687 0.70724 0.0
C101 C 0.67163 0.13161 0.69552 0.0
C102 C 0.67283 0.08667 0.67342 0.0
C103 C 0.64467 0.10936 0.71076 0.0
C104 C 0.73134 0.23531 0.63189 0.0
N105 N 0.73208 0.21866 0.65438 0.0
C106 C 0.71944 0.25079 0.68411 0.0
C107 C 0.72609 0.22568 0.68008 0.0
C108 C 0.71945 0.26922 0.66148 0.0
C109 C 0.72493 0.26086 0.63499 0.0
H110 H 0.73682 0.22952 0.61176 0.0
H111 H 0.72754 0.21239 0.69759 0.0
C112 C 0.76699 0.12538 0.73161 0.0
N113 N 0.74951 0.13871 0.72167 0.0
C114 C 0.77815 0.1313 0.75879 0.0
C115 C 0.75151 0.16288 0.76517 0.0
C116 C 0.74057 0.15607 0.73805 0.0
C117 C 0.77184 0.15175 0.77526 0.0
H118 H 0.77538 0.1133 0.71783 0.0
H119 H 0.7283 0.16788 0.72919 0.0
C120 C 0.77863 0.18123 0.59391 0.0
N121 N 0.80215 0.1779 0.54269 0.0
C122 C 0.7983 0.16729 0.59106 0.0
C123 C 0.77092 0.19349 0.57073 0.0
C124 C 0.80995 0.16582 0.56499 0.0
C125 C 0.78306 0.19158 0.545 0.0
C126 C 0.77488 0.10629 0.65907 0.0
C127 C 0.80146 0.10501 0.64825 0.0
C128 C 0.7485 0.07808 0.66966 0.0
C129 C 0.80089 0.07531 0.64773 0.0
C130 C 0.74884 0.04886 0.66879 0.0
N131 N 0.77479 0.04808 0.65789 0.0
C132 C 0.85333 0.19348 0.66736 0.0
C133 C 0.85778 0.22889 0.63102 0.0
C134 C 0.88691 0.20927 0.67023 0.0
N135 N 0.83954 0.20348 0.64808 0.0
C136 C 0.89169 0.24542 0.63311 0.0
C137 C 0.90662 0.23567 0.65303 0.0
H138 H 0.83805 0.17367 0.68105 0.0
H139 H 0.84603 0.23662 0.61618 0.0
C140 C 0.69019 0.09416 0.60081 0.0
N141 N 0.72105 0.10347 0.60882 0.0
C142 C 0.67412 0.06882 0.58187 0.0
C143 C 0.72208 0.06356 0.57963 0.0
C144 C 0.7373 0.0892 0.59818 0.0
C145 C 0.69004 0.05295 0.57146 0.0
H146 H 0.67799 0.10624 0.60934 0.0
H147 H 0.76214 0.0977 0.60398 0.0
O148 O 0.77796 0.19607 0.6812 0.0
O149 O 0.71248 0.14163 0.66185 0.0
O150 O 0.76668 0.18273 0.61918 0.0
O151 O 0.77498 0.13515 0.65946 0.0
H152 H 0.81298 0.20258 0.72567 0.0
H153 H 0.80173 0.25335 0.65683 0.0
H154 H 0.8603 0.25448 0.74127 0.0
H155 H 0.84935 0.30436 0.67357 0.0
H156 H 0.63544 0.0392 0.68654 0.0
H157 H 0.68113 0.15741 0.69818 0.0
H158 H 0.68311 0.0773 0.65866 0.0
H159 H 0.6334 0.11791 0.72533 0.0
H160 H 0.71497 0.2561 0.70482 0.0
H161 H 0.72561 0.27472 0.61703 0.0
H162 H 0.79424 0.12283 0.76588 0.0
H163 H 0.74647 0.17897 0.77735 0.0
H164 H 0.80441 0.15757 0.60873 0.0
H165 H 0.75566 0.2043 0.57259 0.0
H166 H 0.82514 0.15503 0.56249 0.0
H167 H 0.77728 0.20096 0.52687 0.0
H168 H 0.8222 0.12667 0.64012 0.0
H169 H 0.72822 0.07885 0.67884 0.0
H170 H 0.82119 0.07392 0.63924 0.0
H171 H 0.72855 0.02683 0.67688 0.0
H172 H 0.89723 0.20139 0.6863 0.0
H173 H 0.906 0.26558 0.61937 0.0
H174 H 0.64941 0.0613 0.57585 0.0
H175 H 0.73534 0.05233 0.57152 0.0
Li176 Li 0.60292 0.76279 0.00507 0.0
Li177 Li 0.55155 0.74869 0.98127 0.0
Li178 Li 0.59465 0.74218 0.95849 0.0
Li179 Li 0.60279 0.79476 0.96739 0.0
C180 C 0.55002 0.6989 0.01284 0.0
N181 N 0.51197 0.65855 0.05486 0.0
C182 C 0.54225 0.7118 0.03555 0.0
C183 C 0.53841 0.66547 0.01148 0.0
C184 C 0.523 0.69101 0.05659 0.0
C185 C 0.51922 0.64547 0.03294 0.0
C186 C 0.5747 0.81347 0.00451 0.0
C187 C 0.54922 0.84297 0.98734 0.0
N188 N 0.56559 0.86654 0.00648 0.0
C189 C 0.5911 0.8379 0.02413 0.0
C190 C 0.55349 0.81597 0.98602 0.0
C191 C 0.58623 0.86457 0.02474 0.0
C192 C 0.63942 0.79985 0.04729 0.0
N193 N 0.6222 0.76803 0.04011 0.0
C194 C 0.62309 0.75176 0.08642 0.0
C195 C 0.61569 0.74401 0.05858 0.0
C196 C 0.63701 0.78439 0.09501 0.0
C197 C 0.64694 0.80869 0.07476 0.0
H198 H 0.64482 0.8183 0.03189 0.0
H199 H 0.60269 0.71884 0.05216 0.0
C200 C 0.48341 0.70982 0.97007 0.0
N201 N 0.50644 0.73186 0.98731 0.0
C202 C 0.4505 0.69868 0.97508 0.0
C203 C 0.46592 0.73293 0.01553 0.0
C204 C 0.49826 0.74304 0.00993 0.0
C205 C 0.4414 0.71059 -0.00204 0.0
H206 H 0.49064 0.70111 0.95236 0.0
H207 H 0.51693 0.76027 0.02352 0.0
C208 C 0.65733 0.77134 0.97867 0.0
N209 N 0.70448 0.75447 0.98721 0.0
C210 C 0.68985 0.79354 0.97282 0.0
C211 C 0.64879 0.74056 0.98897 0.0
C212 C 0.71332 0.78455 0.97725 0.0
C213 C 0.67299 0.73251 0.99311 0.0
C214 C 0.56926 0.7753 0.91908 0.0
C215 C 0.59675 0.78779 0.90226 0.0
C216 C 0.54239 0.77771 0.91079 0.0
C217 C 0.597 0.80277 0.87741 0.0
C218 C 0.54358 0.79284 0.88577 0.0
N219 N 0.57064 0.80496 0.86975 0.0
C220 C 0.58083 0.68521 0.92854 0.0
C221 C 0.6308 0.73272 0.91825 0.0
C222 C 0.58694 0.66756 0.9087 0.0
N223 N 0.60268 0.71717 0.93277 0.0
C224 C 0.63799 0.71607 0.89849 0.0
C225 C 0.61578 0.68312 0.89323 0.0
H226 H 0.55855 0.67358 0.94033 0.0
H227 H 0.64765 0.7582 0.92192 0.0
C228 C 0.65205 0.85656 0.97284 0.0
N229 N 0.62456 0.83969 0.95771 0.0
C230 C 0.66859 0.89036 0.97313 0.0
C231 C 0.6293 0.88921 0.94088 0.0
C232 C 0.61311 0.85519 0.94158 0.0
C233 C 0.65708 0.90731 0.95734 0.0
H234 H 0.66015 0.84364 0.98597 0.0
H235 H 0.59066 0.84141 0.93036 0.0
O236 O 0.56851 0.71862 0.99176 0.0
O237 O 0.57986 0.78759 0.00288 0.0
O238 O 0.63422 0.78001 0.9743 0.0
O239 O 0.56846 0.76056 0.94346 0.0
H240 H 0.55128 0.73763 0.03713 0.0
H241 H 0.54416 0.6551 0.994 0.0
H242 H 0.51691 0.7007 0.07433 0.0
H243 H 0.51007 0.61955 0.03216 0.0
H244 H 0.53304 0.84528 0.97303 0.0
H245 H 0.6074 0.8364 0.03878 0.0
H246 H 0.54082 0.79749 0.97054 0.0
H247 H 0.59887 0.8837 0.03975 0.0
H248 H 0.61592 0.73228 0.10122 0.0
H249 H 0.65764 0.83414 0.0801 0.0
H250 H 0.43248 0.68116 0.96113 0.0
H251 H 0.46041 0.74344 0.03306 0.0
H252 H 0.69684 0.81747 0.96486 0.0
H253 H 0.62384 0.723 0.99367 0.0
H254 H 0.73858 0.80149 0.97276 0.0
H255 H 0.66672 0.70878 0.00103 0.0
H256 H 0.61781 0.78634 0.90852 0.0
H257 H 0.52088 0.76801 0.92357 0.0
H258 H 0.61818 0.81271 0.86424 0.0
H259 H 0.52301 0.79495 0.87911 0.0
H260 H 0.56906 0.64227 0.90518 0.0
H261 H 0.66084 0.72892 0.88754 0.0
H262 H 0.68923 0.90287 0.98679 0.0
H263 H 0.6196 0.90111 0.9282 0.0
Li264 Li 0.84411 0.59418 0.33976 0.0
Li265 Li 0.8086 0.55692 0.30444 0.0
Li266 Li 0.8619 0.6031 0.29228 0.0
Li267 Li 0.81817 0.61252 0.30552 0.0
C268 C 0.87256 0.55765 0.32968 0.0
N269 N 0.914 0.54301 0.35808 0.0
C270 C 0.86011 0.52886 0.34487 0.0
C271 C 0.90612 0.5787 0.32852 0.0
C272 C 0.88144 0.52198 0.35922 0.0
C273 C 0.92666 0.57095 0.34313 0.0
C274 C 0.76525 0.56632 0.33624 0.0
C275 C 0.71264 0.54822 0.31599 0.0
N276 N 0.69928 0.54207 0.34162 0.0
C277 C 0.75105 0.55985 0.36237 0.0
C278 C 0.74596 0.56049 0.31283 0.0
C279 C 0.71763 0.54759 0.36466 0.0
C280 C 0.8632 0.62504 0.39129 0.0
N281 N 0.85067 0.596 0.37806 0.0
C282 C 0.82652 0.56722 0.41961 0.0
C283 C 0.83341 0.56736 0.39169 0.0
C284 C 0.83714 0.59686 0.43335 0.0
C285 C 0.85702 0.62603 0.41926 0.0
H286 H 0.87519 0.64744 0.37974 0.0
H287 H 0.82228 0.54475 0.38036 0.0
C288 C 0.7612 0.50012 0.27592 0.0
N289 N 0.77632 0.51301 0.30025 0.0
C290 C 0.73452 0.46855 0.27512 0.0
C291 C 0.74024 0.46424 0.32425 0.0
C292 C 0.76672 0.49573 0.32407 0.0
C293 C 0.72341 0.4504 0.29963 0.0
H294 H 0.76921 0.51468 0.25738 0.0
H295 H 0.77888 0.50702 0.34317 0.0
C296 C 0.89106 0.66398 0.32314 0.0
N297 N 0.94795 0.72238 0.3306 0.0
C298 C 0.89303 0.69309 0.31481 0.0
C299 C 0.91787 0.6646 0.33559 0.0
C300 C 0.92205 0.72236 0.31867 0.0
C301 C 0.94645 0.69437 0.3391 0.0
C302 C 0.82381 0.60531 0.24913 0.0
C303 C 0.84506 0.6389 0.24928 0.0
C304 C 0.80763 0.58997 0.22483 0.0
C305 C 0.84979 0.65663 0.22506 0.0
C306 C 0.81298 0.60855 0.20102 0.0
N307 N 0.83379 0.64122 0.20163 0.0
C308 C 0.8988 0.59186 0.25405 0.0
C309 C 0.92066 0.6478 0.26433 0.0
C310 C 0.92398 0.59916 0.2355 0.0
N311 N 0.89768 0.61607 0.26804 0.0
C312 C 0.94651 0.65614 0.24637 0.0
C313 C 0.94828 0.63165 0.23169 0.0
H314 H 0.88001 0.56687 0.25727 0.0
H315 H 0.91887 0.66676 0.2749 0.0
C316 C 0.79933 0.65205 0.32948 0.0
N317 N 0.79833 0.63842 0.30463 0.0
C318 C 0.78361 0.66982 0.33328 0.0
C319 C 0.76675 0.65998 0.28553 0.0
C320 C 0.78246 0.6419 0.28275 0.0
C321 C 0.76695 0.67382 0.31118 0.0
H322 H 0.8119 0.64849 0.34653 0.0
H323 H 0.78138 0.63016 0.26338 0.0
O324 O 0.85199 0.56472 0.31548 0.0
O325 O 0.7979 0.57818 0.33369 0.0
O326 O 0.86285 0.63514 0.31929 0.0
O327 O 0.81886 0.58733 0.27253 0.0
H328 H 0.83424 0.51202 0.34561 0.0
H329 H 0.91626 0.6007 0.31638 0.0
H330 H 0.87212 0.49989 0.3712 0.0
H331 H 0.95268 0.5871 0.34251 0.0
H332 H 0.69739 0.54356 0.29806 0.0
H333 H 0.76572 0.56424 0.38068 0.0
H334 H 0.7566 0.56534 0.29244 0.0
H335 H 0.70628 0.54245 0.38476 0.0
H336 H 0.81111 0.54424 0.42983 0.0
H337 H 0.86515 0.64936 0.42904 0.0
H338 H 0.72234 0.45872 0.25567 0.0
H339 H 0.73217 0.4515 0.34371 0.0
H340 H 0.87238 0.69306 0.30537 0.0
H341 H 0.91651 0.64242 0.34276 0.0
H342 H 0.92398 0.74506 0.31219 0.0
H343 H 0.96741 0.6952 0.34867 0.0
H344 H 0.85767 0.65119 0.26787 0.0
H345 H 0.7911 0.56398 0.22436 0.0
H346 H 0.86618 0.68265 0.22491 0.0
H347 H 0.80061 0.59699 0.18206 0.0
H348 H 0.9246 0.57968 0.22441 0.0
H349 H 0.96453 0.68153 0.2435 0.0
H350 H 0.78446 0.68034 0.3533 0.0
H351 H 0.75382 0.66234 0.26811 0.0
Li352 Li 0.23338 0.84116 0.66643 0.0
Li353 Li 0.24432 0.80437 0.63644 0.0
Li354 Li 0.25062 0.85776 0.61883 0.0
Li355 Li 0.19858 0.81269 0.62909 0.0
C356 C 0.3016 0.86174 0.66541 0.0
N357 N 0.35561 0.88473 0.69906 0.0
C358 C 0.3055 0.84047 0.68279 0.0
C359 C 0.32553 0.89462 0.66476 0.0
C360 C 0.33285 0.85258 0.69976 0.0
C361 C 0.35256 0.90579 0.68203 0.0
C362 C 0.17868 0.76881 0.66898 0.0
C363 C 0.13563 0.71316 0.66399 0.0
N364 N 0.11781 0.71845 0.68304 0.0
C365 C 0.15998 0.77366 0.6886 0.0
C366 C 0.16647 0.7383 0.65662 0.0
C367 C 0.12926 0.7479 0.6954 0.0
C368 C 0.21648 0.86579 0.71393 0.0
N369 N 0.23166 0.84986 0.70434 0.0
C370 C 0.22686 0.82518 0.74816 0.0
C371 C 0.23778 0.83062 0.72106 0.0
C372 C 0.20922 0.83947 0.75803 0.0
C373 C 0.20532 0.8612 0.74112 0.0
H374 H 0.21028 0.8796 0.70007 0.0
H375 H 0.24816 0.81684 0.7126 0.0
C376 C 0.28374 0.7773 0.61986 0.0
N377 N 0.26055 0.77523 0.63745 0.0
C378 C 0.29537 0.75551 0.62225 0.0
C379 C 0.25886 0.73013 0.66063 0.0
C380 C 0.24834 0.75251 0.65773 0.0
C381 C 0.28281 0.73141 0.64287 0.0
H382 H 0.29332 0.79596 0.60415 0.0
H383 H 0.23046 0.75186 0.67182 0.0
C384 C 0.22326 0.88996 0.6453 0.0
N385 N 0.24102 0.95375 0.65674 0.0
C386 C 0.2016 0.90116 0.64022 0.0
C387 C 0.25392 0.91119 0.65622 0.0
C388 C 0.21103 0.9335 0.64614 0.0
C389 C 0.26246 0.94334 0.66186 0.0
C390 C 0.21193 0.80093 0.57782 0.0
C391 C 0.19871 0.8174 0.56397 0.0
C392 C 0.20671 0.77111 0.56778 0.0
C393 C 0.18003 0.80349 0.54034 0.0
C394 C 0.18794 0.75804 0.54405 0.0
N395 N 0.17508 0.77435 0.53096 0.0
C396 C 0.3062 0.90142 0.58827 0.0
C397 C 0.26086 0.90928 0.58431 0.0
C398 C 0.32433 0.92757 0.57054 0.0
N399 N 0.27517 0.89302 0.59483 0.0
C400 C 0.27825 0.93591 0.56706 0.0
C401 C 0.31034 0.94526 0.56005 0.0
H402 H 0.31678 0.88778 0.5968 0.0
H403 H 0.23589 0.90154 0.58925 0.0
C404 C 0.13712 0.80271 0.63619 0.0
N405 N 0.15301 0.79054 0.62159 0.0
C406 C 0.10343 0.78525 0.63841 0.0
C407 C 0.10263 0.74389 0.6089 0.0
C408 C 0.13653 0.76199 0.60759 0.0
C409 C 0.08567 0.75497 0.62523 0.0
H410 H 0.15081 0.82488 0.64787 0.0
H411 H 0.14958 0.75212 0.59695 0.0
O412 O 0.27521 0.85028 0.64831 0.0
O413 O 0.20856 0.79394 0.66159 0.0
O414 O 0.21447 0.85849 0.6391 0.0
O415 O 0.23028 0.81409 0.60094 0.0
H416 H 0.28759 0.81488 0.68325 0.0
H417 H 0.32342 0.91134 0.65093 0.0
H418 H 0.33603 0.83639 0.71344 0.0
H419 H 0.37117 0.93119 0.68181 0.0
H420 H 0.12578 0.6895 0.65444 0.0
H421 H 0.16884 0.79714 0.6982 0.0
H422 H 0.18044 0.73423 0.64114 0.0
H423 H 0.11446 0.75137 0.71042 0.0
H424 H 0.23018 0.80818 0.7607 0.0
H425 H 0.19141 0.87224 0.74806 0.0
H426 H 0.31407 0.75768 0.60825 0.0
H427 H 0.24783 0.71167 0.67644 0.0
H428 H 0.17781 0.88508 0.63163 0.0
H429 H 0.27077 0.90286 0.66051 0.0
H430 H 0.19453 0.94251 0.64226 0.0
H431 H 0.28612 0.96 0.67036 0.0
H432 H 0.2026 0.84052 0.57154 0.0
H433 H 0.21693 0.75817 0.5783 0.0
H434 H 0.16947 0.81584 0.52946 0.0
H435 H 0.18356 0.73492 0.53607 0.0
H436 H 0.34904 0.93418 0.56537 0.0
H437 H 0.26662 0.94878 0.55891 0.0
H438 H 0.09177 0.79458 0.65179 0.0
H439 H 0.09003 0.72086 0.59814 0.0
Li440 Li 0.44239 0.24936 0.97298 0.0
Li441 Li 0.39542 0.24389 0.00078 0.0
Li442 Li 0.38884 0.20109 0.96993 0.0
Li443 Li 0.39593 0.25054 0.95107 0.0
C444 C 0.41913 0.1934 0.01357 0.0
N445 N 0.42024 0.14041 0.0357 0.0
C446 C 0.40114 0.17829 0.03724 0.0
C447 C 0.43789 0.18177 0.00126 0.0
C448 C 0.40199 0.15148 0.0481 0.0
C449 C 0.43806 0.15487 0.01273 0.0
C450 C 0.4379 0.31214 0.98727 0.0
C451 C 0.43326 0.36045 0.9886 0.0
N452 N 0.45963 0.37489 0.00544 0.0
C453 C 0.46525 0.32766 0.00425 0.0
C454 C 0.42201 0.32882 0.97907 0.0
C455 C 0.47573 0.35929 0.01337 0.0
C456 C 0.50601 0.26922 0.95302 0.0
N457 N 0.48726 0.26485 0.97551 0.0
C458 C 0.53155 0.27724 0.00575 0.0
C459 C 0.49935 0.26897 0.00149 0.0
C460 C 0.55141 0.28104 0.98303 0.0
C461 C 0.53844 0.27742 0.95634 0.0
H462 H 0.49555 0.26548 0.93262 0.0
H463 H 0.4836 0.26484 0.01894 0.0
C464 C 0.35517 0.22707 0.04701 0.0
N465 N 0.38507 0.24899 0.03726 0.0
C466 C 0.35029 0.22113 0.07524 0.0
C467 C 0.40644 0.26203 0.08286 0.0
C468 C 0.41025 0.26713 0.0545 0.0
C469 C 0.3766 0.23759 0.09338 0.0
H470 H 0.33598 0.21183 0.03284 0.0
H471 H 0.43412 0.28302 0.04617 0.0
C472 C 0.40508 0.21109 0.91431 0.0
N473 N 0.37856 0.18141 0.86451 0.0
C474 C 0.37141 0.19441 0.91057 0.0
C475 C 0.42526 0.21265 0.89273 0.0
C476 C 0.35848 0.17958 0.88524 0.0
C477 C 0.41138 0.19749 0.8677 0.0
C478 C 0.3343 0.22487 0.97666 0.0
C479 C 0.3029 0.20104 0.96911 0.0
C480 C 0.33989 0.25495 0.98629 0.0
C481 C 0.27765 0.20797 0.97088 0.0
C482 C 0.31402 0.26095 0.98778 0.0
N483 N 0.2837 0.23755 0.98008 0.0
C484 C 0.34367 0.14048 0.98865 0.0
C485 C 0.37639 0.13769 0.95313 0.0
C486 C 0.32879 0.10708 0.99298 0.0
N487 N 0.36724 0.15507 0.9693 0.0
C488 C 0.36166 0.10399 0.9564 0.0
C489 C 0.3378 0.08825 0.97687 0.0
H490 H 0.33743 0.15514 0.00155 0.0
H491 H 0.39563 0.15005 0.9382 0.0
C492 C 0.4112 0.29685 0.90946 0.0
N493 N 0.38601 0.27049 0.92162 0.0
C494 C 0.40545 0.31295 0.88798 0.0
C495 C 0.34802 0.2743 0.89194 0.0
C496 C 0.35492 0.25864 0.91291 0.0
C497 C 0.37346 0.30187 0.87938 0.0
H498 H 0.43572 0.30549 0.91663 0.0
H499 H 0.33542 0.23701 0.92211 0.0
O500 O 0.41797 0.21914 0.00222 0.0
O501 O 0.42765 0.28136 0.97776 0.0
O502 O 0.41846 0.22602 0.93884 0.0
O503 O 0.35919 0.21837 0.97487 0.0
H504 H 0.38647 0.18699 0.047 0.0
H505 H 0.45182 0.19314 0.98283 0.0
H506 H 0.38806 0.13944 0.06634 0.0
H507 H 0.45229 0.14545 0.00332 0.0
H508 H 0.42109 0.37356 0.98251 0.0
H509 H 0.47819 0.31538 0.01044 0.0
H510 H 0.40132 0.3176 0.96535 0.0
H511 H 0.49671 0.37148 0.0267 0.0
H512 H 0.54035 0.27922 0.02665 0.0
H513 H 0.55302 0.28031 0.93828 0.0
H514 H 0.32692 0.20211 0.08258 0.0
H515 H 0.42752 0.2748 0.09605 0.0
H516 H 0.35535 0.19283 0.927 0.0
H517 H 0.45137 0.22549 0.89529 0.0
H518 H 0.33247 0.16662 0.88207 0.0
H519 H 0.42671 0.19851 0.85082 0.0
H520 H 0.29817 0.17754 0.96177 0.0
H521 H 0.36381 0.27325 0.99291 0.0
H522 H 0.25326 0.18983 0.96495 0.0
H523 H 0.31803 0.28417 0.99518 0.0
H524 H 0.31121 0.09642 0.00946 0.0
H525 H 0.36915 0.09055 0.94323 0.0
H526 H 0.42561 0.33416 0.87864 0.0
H527 H 0.32309 0.26486 0.88544 0.0
Li528 Li 0.59623 0.85556 0.37381 0.0
Li529 Li 0.60344 0.81113 0.35619 0.0
Li530 Li 0.59953 0.85043 0.32447 0.0
Li531 Li 0.55102 0.80865 0.34826 0.0
C532 C 0.6623 0.88183 0.36179 0.0
N533 N 0.72187 0.9294 0.38145 0.0
C534 C 0.68137 0.87328 0.37773 0.0
C535 C 0.67373 0.9145 0.35548 0.0
C536 C 0.71137 0.89771 0.38757 0.0
C537 C 0.70385 0.93821 0.36572 0.0
C538 C 0.57108 0.78881 0.40531 0.0
C539 C 0.55112 0.73562 0.42532 0.0
N540 N 0.57039 0.74954 0.4477 0.0
C541 C 0.59045 0.80257 0.42864 0.0
C542 C 0.551 0.75505 0.40376 0.0
C543 C 0.58983 0.78232 0.44981 0.0
C544 C 0.58671 0.89949 0.40593 0.0
N545 N 0.60597 0.88611 0.40275 0.0
C546 C 0.63908 0.91688 0.44067 0.0
C547 C 0.63164 0.8942 0.41971 0.0
C548 C 0.61969 0.93119 0.4445 0.0
C549 C 0.59319 0.92226 0.42677 0.0
H550 H 0.56625 0.89241 0.3923 0.0
H551 H 0.64631 0.88294 0.41715 0.0
C552 C 0.6334 0.78114 0.33235 0.0
N553 N 0.62543 0.78686 0.35779 0.0
C554 C 0.65007 0.76424 0.32927 0.0
C555 C 0.65167 0.76054 0.37884 0.0
C556 C 0.63431 0.7771 0.38094 0.0
C557 C 0.65981 0.7539 0.35267 0.0
H558 H 0.62691 0.78991 0.31427 0.0
H559 H 0.62866 0.78272 0.401 0.0
C560 C 0.56392 0.87915 0.33 0.0
N561 N 0.55944 0.92586 0.29949 0.0
C562 C 0.53696 0.87036 0.31311 0.0
C563 C 0.58835 0.91173 0.33171 0.0
C564 C 0.53522 0.89432 0.29774 0.0
C565 C 0.58571 0.93497 0.31603 0.0
C566 C 0.5618 0.77349 0.3084 0.0
C567 C 0.55449 0.77226 0.28036 0.0
C568 C 0.55206 0.74459 0.32282 0.0
C569 C 0.53708 0.74208 0.26734 0.0
C570 C 0.53467 0.71489 0.30908 0.0
N571 N 0.52757 0.71425 0.28185 0.0
C572 C 0.64699 0.87834 0.28433 0.0
C573 C 0.59361 0.86211 0.269 0.0
C574 C 0.65707 0.87825 0.25735 0.0
N575 N 0.6154 0.86886 0.28961 0.0
C576 C 0.60263 0.86165 0.24177 0.0
C577 C 0.63415 0.8678 0.23601 0.0
H578 H 0.66344 0.88231 0.30116 0.0
H579 H 0.56837 0.85318 0.27384 0.0
C580 C 0.48778 0.76184 0.36564 0.0
N581 N 0.50594 0.77946 0.34382 0.0
C582 C 0.45614 0.73631 0.36153 0.0
C583 C 0.46184 0.74899 0.31287 0.0
C584 C 0.49334 0.7743 0.31794 0.0
C585 C 0.44318 0.72898 0.33472 0.0
H586 H 0.49828 0.76683 0.38606 0.0
H587 H 0.50831 0.78891 0.30102 0.0
O588 O 0.63288 0.85823 0.35198 0.0
O589 O 0.57117 0.80833 0.3845 0.0
O590 O 0.56615 0.85603 0.34508 0.0
O591 O 0.57865 0.80285 0.32159 0.0
H592 H 0.67296 0.8481 0.38268 0.0
H593 H 0.65958 0.92147 0.34271 0.0
H594 H 0.72628 0.89147 0.40011 0.0
H595 H 0.71294 0.96361 0.36111 0.0
H596 H 0.53578 0.70947 0.4243 0.0
H597 H 0.6059 0.82856 0.43038 0.0
H598 H 0.53528 0.74391 0.38622 0.0
H599 H 0.60485 0.79268 0.4679 0.0
H600 H 0.66006 0.92336 0.45355 0.0
H601 H 0.57741 0.93243 0.42916 0.0
H602 H 0.65511 0.75928 0.30865 0.0
H603 H 0.65915 0.75363 0.39752 0.0
H604 H 0.51768 0.84529 0.31178 0.0
H605 H 0.60904 0.91898 0.34508 0.0
H606 H 0.5146 0.88785 0.28444 0.0
H607 H 0.60451 0.96027 0.31707 0.0
H608 H 0.56198 0.79432 0.26878 0.0
H609 H 0.55814 0.74512 0.34431 0.0
H610 H 0.53113 0.7408 0.24568 0.0
H611 H 0.52693 0.69234 0.32004 0.0
H612 H 0.68147 0.88281 0.2537 0.0
H613 H 0.58434 0.8535 0.22573 0.0
H614 H 0.44231 0.72185 0.37903 0.0
H615 H 0.45291 0.74411 0.29188 0.0
Li616 Li 0.78895 0.60146 0.69036 0.0
Li617 Li 0.73875 0.58987 0.71037 0.0
Li618 Li 0.74789 0.54384 0.69557 0.0
Li619 Li 0.7403 0.5799 0.66215 0.0
C620 C 0.79662 0.5871 0.74194 0.0
N621 N 0.85053 0.60799 0.77534 0.0
C622 C 0.81363 0.61934 0.75104 0.0
C623 C 0.80698 0.56546 0.74987 0.0
C624 C 0.84086 0.62945 0.76787 0.0
C625 C 0.8343 0.5765 0.76677 0.0
C626 C 0.75881 0.6478 0.68523 0.0
C627 C 0.72614 0.67338 0.68128 0.0
N628 N 0.74966 0.70006 0.6945 0.0
C629 C 0.78284 0.67563 0.69848 0.0
C630 C 0.73039 0.64678 0.67628 0.0
C631 C 0.77769 0.70174 0.70309 0.0
C632 C 0.84301 0.65645 0.66972 0.0
N633 N 0.83471 0.63039 0.68631 0.0
C634 C 0.89009 0.64318 0.68861 0.0
C635 C 0.85748 0.62339 0.69572 0.0
C636 C 0.8993 0.67003 0.67114 0.0
C637 C 0.87524 0.67668 0.66188 0.0
H638 H 0.82435 0.66071 0.6615 0.0
H639 H 0.85028 0.60176 0.70779 0.0
C640 C 0.6856 0.58464 0.74117 0.0
N641 N 0.71822 0.60284 0.73704 0.0
C642 C 0.67013 0.59534 0.75937 0.0
C643 C 0.72217 0.64295 0.76887 0.0
C644 C 0.73665 0.63104 0.751 0.0
C645 C 0.68851 0.62517 0.77296 0.0
H646 H 0.67156 0.56206 0.73011 0.0
H647 H 0.76254 0.64468 0.74787 0.0
C648 C 0.79972 0.57057 0.64924 0.0
N649 N 0.85555 0.58167 0.62235 0.0
C650 C 0.81053 0.59061 0.62598 0.0
C651 C 0.81719 0.55603 0.65874 0.0
C652 C 0.83883 0.59595 0.61269 0.0
C653 C 0.84539 0.56199 0.64488 0.0
C654 C 0.68012 0.53338 0.67581 0.0
C655 C 0.66782 0.50122 0.66724 0.0
C656 C 0.66281 0.54931 0.67002 0.0
C657 C 0.6387 0.48576 0.65247 0.0
C658 C 0.63377 0.53302 0.65522 0.0
N659 N 0.62244 0.50186 0.64678 0.0
C660 C 0.73485 0.48449 0.72292 0.0
C661 C 0.73996 0.48707 0.67425 0.0
C662 C 0.7304 0.45304 0.72295 0.0
N663 N 0.73989 0.50082 0.69876 0.0
C664 C 0.73561 0.45588 0.6733 0.0
C665 C 0.73095 0.43845 0.69786 0.0
H666 H 0.73462 0.49598 0.7421 0.0
H667 H 0.74373 0.50057 0.65535 0.0
C668 C 0.74099 0.60897 0.61211 0.0
N669 N 0.72839 0.57989 0.62528 0.0
C670 C 0.74538 0.61051 0.58362 0.0
C671 C 0.72079 0.55192 0.58272 0.0
C672 C 0.71731 0.55153 0.61123 0.0
C673 C 0.73667 0.58186 0.5689 0.0
H674 H 0.75102 0.63121 0.62392 0.0
H675 H 0.70921 0.52906 0.62234 0.0
O676 O 0.76973 0.57663 0.72564 0.0
O677 O 0.76335 0.62192 0.68065 0.0
O678 O 0.77252 0.56568 0.66295 0.0
O679 O 0.70869 0.54898 0.69019 0.0
H680 H 0.80628 0.63653 0.74476 0.0
H681 H 0.79422 0.54048 0.74292 0.0
H682 H 0.85437 0.65438 0.77492 0.0
H683 H 0.84263 0.56004 0.77302 0.0
H684 H 0.70418 0.67284 0.67457 0.0
H685 H 0.80504 0.67687 0.7055 0.0
H686 H 0.71191 0.62577 0.66543 0.0
H687 H 0.79594 0.72331 0.71354 0.0
H688 H 0.90778 0.63716 0.69638 0.0
H689 H 0.88097 0.69657 0.64785 0.0
H690 H 0.64408 0.581 0.76222 0.0
H691 H 0.73711 0.66584 0.77938 0.0
H692 H 0.79745 0.60224 0.61847 0.0
H693 H 0.80932 0.54072 0.67689 0.0
H694 H 0.84756 0.61153 0.59475 0.0
H695 H 0.85929 0.55108 0.65211 0.0
H696 H 0.68065 0.48836 0.67182 0.0
H697 H 0.67159 0.57392 0.67702 0.0
H698 H 0.62901 0.46095 0.64554 0.0
H699 H 0.6202 0.54512 0.65052 0.0
H700 H 0.7266 0.44031 0.74233 0.0
H701 H 0.73676 0.44589 0.65355 0.0
H702 H 0.75791 0.63402 0.57356 0.0
H703 H 0.71439 0.52943 0.57209 0.0
Li704 Li 0.18633 0.78541 0.01872 0.0
Li705 Li 0.14644 0.73398 0.03519 0.0
Li706 Li 0.19642 0.73991 0.01207 0.0
Li707 Li 0.1519 0.74271 0.9867 0.0
C708 C 0.21681 0.78204 0.06398 0.0
N709 N 0.26518 0.82789 0.09735 0.0
C710 C 0.21009 0.801 0.08187 0.0
C711 C 0.24811 0.78635 0.06312 0.0
C712 C 0.23489 0.82408 0.09855 0.0
C713 C 0.27223 0.80966 0.08015 0.0
C714 C 0.11287 0.76306 0.02626 0.0
C715 C 0.05492 0.73658 0.03291 0.0
N716 N 0.05949 0.75796 0.05345 0.0
C717 C 0.11701 0.78495 0.04726 0.0
C718 C 0.0816 0.73886 0.01883 0.0
C719 C 0.08971 0.78192 0.06081 0.0
C720 C 0.18885 0.84425 0.01034 0.0
N721 N 0.20684 0.83195 0.02114 0.0
C722 C 0.25247 0.88557 0.0263 0.0
C723 C 0.23817 0.85187 0.02907 0.0
C724 C 0.23455 0.89887 0.01476 0.0
C725 C 0.20221 0.87767 0.00698 0.0
H726 H 0.16447 0.82798 0.00312 0.0
H727 H 0.25263 0.84172 0.0364 0.0
C728 C 0.09328 0.67968 0.06068 0.0
N729 N 0.11598 0.7116 0.06372 0.0
C730 C 0.06961 0.66374 0.0809 0.0
C731 C 0.09347 0.71375 0.10706 0.0
C732 C 0.11683 0.72853 0.08655 0.0
C733 C 0.06927 0.68092 0.10437 0.0
H734 H 0.09336 0.66667 0.04246 0.0
H735 H 0.13513 0.75382 0.08847 0.0
C736 C 0.22106 0.8002 0.97277 0.0
N737 N 0.26456 0.85965 0.94993 0.0
C738 C 0.2103 0.81516 0.95406 0.0
C739 C 0.25396 0.81542 0.97979 0.0
C740 C 0.23267 0.84524 0.94276 0.0
C741 C 0.27557 0.84547 0.96802 0.0
C742 C 0.13404 0.67981 0.98931 0.0
C743 C 0.15051 0.66556 0.97709 0.0
C744 C 0.10136 0.66809 0.98297 0.0
C745 C 0.13407 0.64005 0.95841 0.0
C746 C 0.08579 0.64256 0.96417 0.0
N747 N 0.10234 0.6292 0.95237 0.0
C748 C 0.23057 0.70667 0.02653 0.0
C749 C 0.24493 0.73557 0.98429 0.0
C750 C 0.25354 0.69693 0.02217 0.0
N751 N 0.2271 0.72599 0.0078 0.0
C752 C 0.26841 0.72692 0.97932 0.0
C753 C 0.27318 0.70741 -0.0016 0.0
H754 H 0.21557 0.69892 0.04482 0.0
H755 H 0.24105 0.75019 0.96939 0.0
C756 C 0.11849 0.75315 0.94372 0.0
N757 N 0.13444 0.7372 0.95101 0.0
C758 C 0.11523 0.75861 0.91591 0.0
C759 C 0.14227 0.7286 0.90396 0.0
C760 C 0.14567 0.7244 0.93187 0.0
C761 C 0.12823 0.74715 0.89578 0.0
H762 H 0.11101 0.76417 0.95945 0.0
H763 H 0.15982 0.71347 0.93823 0.0
O764 O 0.19278 0.75892 0.04781 0.0
O765 O 0.13932 0.76529 0.01307 0.0
O766 O 0.19938 0.77118 0.98464 0.0
O767 O 0.14978 0.70495 0.00753 0.0
H768 H 0.18619 0.79837 0.08255 0.0
H769 H 0.2538 0.77195 0.04942 0.0
H770 H 0.23008 0.83906 0.11235 0.0
H771 H 0.29657 0.8133 0.07966 0.0
H772 H 0.03058 0.71783 0.0275 0.0
H773 H 0.14107 0.80379 0.05332 0.0
H774 H 0.07798 0.72196 0.00243 0.0
H775 H 0.09255 0.79852 0.07726 0.0
H776 H 0.27746 0.90094 0.03266 0.0
H777 H 0.18767 0.88662 -0.00267 0.0
H778 H 0.05177 0.63829 0.07812 0.0
H779 H 0.09391 0.72824 0.12445 0.0
H780 H 0.18492 0.8039 0.94856 0.0
H781 H 0.26262 0.80441 0.99456 0.0
H782 H 0.22465 0.85717 0.92837 0.0
H783 H 0.30105 0.85764 0.97341 0.0
H784 H 0.17574 0.67417 0.98185 0.0
H785 H 0.08822 0.67873 0.99232 0.0
H786 H 0.14656 0.6289 0.9487 0.0
H787 H 0.06056 0.63337 0.95896 0.0
H788 H 0.25587 0.68143 0.03726 0.0
H789 H 0.28317 0.73618 0.96096 0.0
H790 H 0.10462 0.77335 0.91027 0.0
H791 H 0.15331 0.72011 0.88905 0.0
Li792 Li 0.4045 0.19224 0.35167 0.0
Li793 Li 0.41203 0.14896 0.36749 0.0
Li794 Li 0.45911 0.1992 0.3463 0.0
Li795 Li 0.4117 0.15759 0.31909 0.0
C796 C 0.43278 0.21449 0.40096 0.0
N797 N 0.42803 0.25346 0.44084 0.0
C798 C 0.40403 0.20338 0.41591 0.0
C799 C 0.4591 0.24549 0.40624 0.0
C800 C 0.4021 0.22343 0.43597 0.0
C801 C 0.45624 0.2648 0.42652 0.0
C802 C 0.34802 0.12041 0.35514 0.0
C803 C 0.31076 0.06284 0.35965 0.0
N804 N 0.29188 0.06922 0.37664 0.0
C805 C 0.32809 0.12643 0.37241 0.0
C806 C 0.33915 0.0884 0.34846 0.0
C807 C 0.29987 0.1002 0.38316 0.0
C808 C 0.35477 0.20275 0.33684 0.0
N809 N 0.3817 0.21589 0.35302 0.0
C810 C 0.37678 0.26289 0.36118 0.0
C811 C 0.39302 0.2455 0.36504 0.0
C812 C 0.34927 0.25024 0.34399 0.0
C813 C 0.33827 0.21957 0.33189 0.0
H814 H 0.34704 0.1798 0.3266 0.0
H815 H 0.41532 0.25638 0.37666 0.0
C816 C 0.41717 0.09945 0.39561 0.0
N817 N 0.40147 0.11677 0.39517 0.0
C818 C 0.4098 0.07578 0.41583 0.0
C819 C 0.37021 0.08822 0.43461 0.0
C820 C 0.37861 0.1118 0.41431 0.0
C821 C 0.38597 0.0699 0.43571 0.0
H822 H 0.43557 0.10415 0.38035 0.0
H823 H 0.36663 0.12593 0.41378 0.0
C824 C 0.4317 0.23068 0.3076 0.0
N825 N 0.42781 0.28226 0.28561 0.0
C826 C 0.4098 0.22543 0.28631 0.0
C827 C 0.45172 0.26214 0.31765 0.0
C828 C 0.4082 0.25184 0.27547 0.0
C829 C 0.44935 0.2879 0.30628 0.0
C830 C 0.45083 0.13399 0.32145 0.0
C831 C 0.47947 0.14838 0.30602 0.0
C832 C 0.42809 0.10112 0.31762 0.0
C833 C 0.48464 0.1297 0.28662 0.0
C834 C 0.43415 0.08325 0.29803 0.0
N835 N 0.46205 0.09781 0.28304 0.0
C836 C 0.52491 0.24151 0.36426 0.0
C837 C 0.5134 0.24012 0.31657 0.0
C838 C 0.55683 0.26658 0.35993 0.0
N839 N 0.50385 0.2295 0.34274 0.0
C840 C 0.54499 0.26481 0.31127 0.0
C841 C 0.56698 0.27902 0.33318 0.0
H842 H 0.51667 0.23235 0.38484 0.0
H843 H 0.49615 0.22978 0.29984 0.0
C844 C 0.36922 0.1269 0.27452 0.0
N845 N 0.40089 0.14373 0.28244 0.0
C846 C 0.36079 0.129 0.2473 0.0
C847 C 0.41786 0.16379 0.23695 0.0
C848 C 0.42519 0.16085 0.26417 0.0
C849 C 0.38527 0.14908 0.22873 0.0
H850 H 0.35039 0.11476 0.28982 0.0
H851 H 0.44991 0.17526 0.27141 0.0
O852 O 0.43532 0.19507 0.38146 0.0
O853 O 0.37575 0.14577 0.34442 0.0
O854 O 0.43313 0.20505 0.31893 0.0
O855 O 0.44509 0.15197 0.34026 0.0
H856 H 0.38324 0.17981 0.41173 0.0
H857 H 0.4814 0.2547 0.39467 0.0
H858 H 0.37992 0.21518 0.44759 0.0
H859 H 0.47639 0.28884 0.43079 0.0
H860 H 0.30369 0.03794 0.35477 0.0
H861 H 0.33454 0.15105 0.37775 0.0
H862 H 0.35401 0.08335 0.33477 0.0
H863 H 0.28435 0.10448 0.39672 0.0
H864 H 0.38616 0.28627 0.37116 0.0
H865 H 0.31789 0.20909 0.3178 0.0
H866 H 0.42285 0.06253 0.41605 0.0
H867 H 0.3512 0.08416 0.44906 0.0
H868 H 0.39392 0.20119 0.27846 0.0
H869 H 0.4686 0.26653 0.3343 0.0
H870 H 0.39128 0.24813 0.25905 0.0
H871 H 0.46454 0.31236 0.31396 0.0
H872 H 0.49745 0.17372 0.30888 0.0
H873 H 0.40602 0.08954 0.32966 0.0
H874 H 0.50662 0.14057 0.27441 0.0
H875 H 0.41669 0.05781 0.29477 0.0
H876 H 0.57293 0.27692 0.37744 0.0
H877 H 0.55193 0.27308 0.29026 0.0
H878 H 0.33541 0.11775 0.24159 0.0
H879 H 0.43723 0.17964 0.22309 0.0
Li880 Li 0.25901 0.41506 0.70559 0.0
Li881 Li 0.20984 0.40912 0.68823 0.0
Li882 Li 0.25291 0.41634 0.65721 0.0
Li883 Li 0.25863 0.46344 0.68484 0.0
C884 C 0.22579 0.353 0.69327 0.0
N885 N 0.22429 0.29976 0.71779 0.0
C886 C 0.2011 0.33385 0.71189 0.0
C887 C 0.24948 0.34485 0.68687 0.0
C888 C 0.20081 0.30707 0.72412 0.0
C889 C 0.24838 0.31792 0.69957 0.0
C890 C 0.21378 0.43982 0.73553 0.0
C891 C 0.18921 0.46931 0.7546 0.0
N892 N 0.16852 0.44256 0.76944 0.0
C893 C 0.19227 0.41263 0.75099 0.0
C894 C 0.21225 0.46841 0.73734 0.0
C895 C 0.16955 0.41449 0.768 0.0
C896 C 0.30954 0.41113 0.73386 0.0
N897 N 0.27763 0.40246 0.73437 0.0
C898 C 0.26983 0.37384 0.77667 0.0
C899 C 0.25791 0.38449 0.75533 0.0
C900 C 0.3027 0.38234 0.77688 0.0
C901 C 0.3227 0.40135 0.75508 0.0
H902 H 0.32479 0.42571 0.71705 0.0
H903 H 0.23271 0.37796 0.7553 0.0
C904 C 0.14901 0.35756 0.67561 0.0
N905 N 0.16328 0.38685 0.68858 0.0
C906 C 0.11568 0.34073 0.67072 0.0
C907 C 0.11193 0.38423 0.69296 0.0
C908 C 0.1455 0.40048 0.69706 0.0
C909 C 0.09658 0.35403 0.67935 0.0
H910 H 0.16378 0.34787 0.66792 0.0
H911 H 0.15737 0.42449 0.706 0.0
C912 C 0.31529 0.4565 0.66086 0.0
N913 N 0.36339 0.47232 0.62203 0.0
C914 C 0.32948 0.48666 0.64761 0.0
C915 C 0.32579 0.43453 0.65459 0.0
C916 C 0.35371 0.49417 0.62798 0.0
C917 C 0.35007 0.44293 0.63483 0.0
C918 C 0.20049 0.43494 0.64285 0.0
C919 C 0.18521 0.41078 0.62281 0.0
C920 C 0.18743 0.45463 0.64978 0.0
C921 C 0.15717 0.4068 0.60995 0.0
C922 C 0.1593 0.44984 0.63647 0.0
N923 N 0.14489 0.42624 0.617 0.0
C924 C 0.24356 0.37481 0.61226 0.0
C925 C 0.26593 0.43105 0.60263 0.0
C926 C 0.23433 0.36698 0.5847 0.0
N927 N 0.25784 0.40632 0.62068 0.0
C928 C 0.25703 0.42433 0.57508 0.0
C929 C 0.2395 0.39189 0.56628 0.0
H930 H 0.23614 0.3556 0.62732 0.0
H931 H 0.27583 0.45563 0.61018 0.0
C932 C 0.292 0.52944 0.70408 0.0
N933 N 0.27501 0.50885 0.68318 0.0
C934 C 0.30149 0.56243 0.70225 0.0
C935 C 0.27661 0.55224 0.65717 0.0
C936 C 0.26814 0.51977 0.6597 0.0
C937 C 0.29313 0.57414 0.67876 0.0
H938 H 0.29753 0.5201 0.72237 0.0
H939 H 0.25533 0.50301 0.64311 0.0
O940 O 0.22674 0.37956 0.68135 0.0
O941 O 0.23657 0.43871 0.71908 0.0
O942 O 0.29124 0.44852 0.67988 0.0
O943 O 0.22767 0.43885 0.65605 0.0
H944 H 0.18263 0.33988 0.71716 0.0
H945 H 0.26858 0.35925 0.67233 0.0
H946 H 0.182 0.29219 0.73873 0.0
H947 H 0.26668 0.31145 0.69494 0.0
H948 H 0.18774 0.49126 0.75616 0.0
H949 H 0.19257 0.3901 0.74947 0.0
H950 H 0.22854 0.48964 0.72548 0.0
H951 H 0.15263 0.39357 0.77993 0.0
H952 H 0.25323 0.35866 0.79261 0.0
H953 H 0.34826 0.40887 0.75451 0.0
H954 H 0.10526 0.31805 0.65943 0.0
H955 H 0.09827 0.39546 0.70005 0.0
H956 H 0.32177 0.50402 0.65229 0.0
H957 H 0.31522 0.41119 0.66479 0.0
H958 H 0.3648 0.51735 0.61746 0.0
H959 H 0.35832 0.42609 0.62967 0.0
H960 H 0.1946 0.39496 0.61747 0.0
H961 H 0.19858 0.47306 0.66559 0.0
H962 H 0.14508 0.38816 0.59444 0.0
H963 H 0.14884 0.46479 0.64174 0.0
H964 H 0.22048 0.34169 0.57855 0.0
H965 H 0.26124 0.44405 0.56133 0.0
H966 H 0.31471 0.5784 0.71922 0.0
H967 H 0.26904 0.55964 0.63883 0.0
Li968 Li 0.80913 0.20625 0.01857 0.0
Li969 Li 0.84546 0.25406 0.04314 0.0
Li970 Li 0.79758 0.25128 0.01782 0.0
Li971 Li 0.84668 0.25576 0.9941 0.0
C972 C 0.77596 0.19876 0.06517 0.0
N973 N 0.73227 0.14484 0.09497 0.0
C974 C 0.78617 0.17919 0.07827 0.0
C975 C 0.74349 0.19085 0.06721 0.0
C976 C 0.76372 0.15203 0.09322 0.0
C977 C 0.72179 0.16352 0.0824 0.0
C978 C 0.88162 0.22733 0.03033 0.0
C979 C 0.93837 0.25215 0.04211 0.0
N980 N 0.93195 0.22523 0.05688 0.0
C981 C 0.87562 0.19976 0.04537 0.0
C982 C 0.91328 0.25359 0.02841 0.0
C983 C 0.90138 0.19922 0.05873 0.0
C984 C 0.80765 0.15065 -0.0008 0.0
N985 N 0.7891 0.16022 0.01317 0.0
C986 C 0.74359 0.1062 0.01148 0.0
C987 C 0.75746 0.13882 0.01908 0.0
C988 C 0.76214 0.09561 -0.00314 0.0
C989 C 0.79465 0.11844 0.99076 0.0
H990 H 0.83232 0.1684 0.99367 0.0
H991 H 0.74256 0.14711 0.02886 0.0
C992 C 0.89012 0.3044 0.07784 0.0
N993 N 0.87236 0.27156 0.07486 0.0
C994 C 0.91163 0.31807 0.09992 0.0
C995 C 0.89585 0.26386 0.11563 0.0
C996 C 0.87442 0.2513 0.09347 0.0
C997 C 0.91503 0.29771 0.11903 0.0
H998 H 0.88782 0.32002 0.06292 0.0
H999 H 0.86007 0.22534 0.0908 0.0
C1000 C 0.77891 0.20186 0.97068 0.0
N1001 N 0.73584 0.15024 0.93839 0.0
C1002 C 0.79035 0.19093 0.94901 0.0
C1003 C 0.74557 0.18662 0.97589 0.0
C1004 C 0.76819 0.1648 0.93292 0.0
C1005 C 0.72419 0.16052 0.95935 0.0
C1006 C 0.86177 0.3164 0.00546 0.0
C1007 C 0.84663 0.33266 0.99451 0.0
C1008 C 0.89524 0.32962 0.00223 0.0
C1009 C 0.86521 0.36166 0.98004 0.0
C1010 C 0.91297 0.35865 0.98762 0.0
N1011 N 0.8977 0.37392 0.97689 0.0
C1012 C 0.74729 0.26532 0.03342 0.0
C1013 C 0.75901 0.26562 0.98589 0.0
C1014 C 0.72091 0.26954 0.02716 0.0
N1015 N 0.76505 0.26256 0.01276 0.0
C1016 C 0.73307 0.26989 0.97872 0.0
C1017 C 0.71307 0.271 -0.00058 0.0
H1018 H 0.7529 0.26314 0.05465 0.0
H1019 H 0.7739 0.2638 0.96994 0.0
C1020 C 0.88294 0.25201 0.95084 0.0
N1021 N 0.86753 0.2679 0.95976 0.0
C1022 C 0.88416 0.24665 0.92269 0.0
C1023 C 0.85722 0.27748 0.91368 0.0
C1024 C 0.85606 0.28182 0.94193 0.0
C1025 C 0.8694 0.25784 0.90397 0.0
H1026 H 0.8905 0.24001 0.96556 0.0
H1027 H 0.84231 0.29264 0.9496 0.0
O1028 O 0.79764 0.22566 0.05066 0.0
O1029 O 0.85669 0.22842 0.01728 0.0
O1030 O 0.80027 0.22703 0.987 0.0
O1031 O 0.84396 0.28788 0.01956 0.0
H1032 H 0.81096 0.1845 0.07648 0.0
H1033 H 0.73502 0.20542 0.05699 0.0
H1034 H 0.77127 0.13659 0.10331 0.0
H1035 H 0.69659 0.1571 0.0841 0.0
H1036 H 0.96296 0.2724 0.04095 0.0
H1037 H 0.85129 0.17913 0.04696 0.0
H1038 H 0.91841 0.27487 0.0165 0.0
H1039 H 0.89705 0.17815 0.07062 0.0
H1040 H 0.71852 0.08958 0.01687 0.0
H1041 H 0.80973 0.11181 0.97889 0.0
H1042 H 0.92548 0.34428 0.10193 0.0
H1043 H 0.89795 0.24714 0.12948 0.0
H1044 H 0.81605 0.20225 0.94482 0.0
H1045 H 0.73635 0.19456 0.99278 0.0
H1046 H 0.77671 0.15603 0.91613 0.0
H1047 H 0.69834 0.14837 0.96324 0.0
H1048 H 0.82083 0.32302 -0.00288 0.0
H1049 H 0.90737 0.31754 0.01085 0.0
H1050 H 0.85379 0.37442 0.97133 0.0
H1051 H 0.93886 0.36905 0.98483 0.0
H1052 H 0.70602 0.27022 0.04374 0.0
H1053 H 0.72829 0.2716 0.95714 0.0
H1054 H 0.8936 0.23125 0.91588 0.0
H1055 H 0.84505 0.28597 0.89996 0.0
H1056 H 0.30786 0.61154 0.29604 0.0
H1057 H 0.33666 0.56071 0.35294 0.0
H1058 H 0.38628 0.61121 0.36375 0.0
H1059 H 0.42197 0.66935 0.35658 0.0
H1060 H 0.39421 0.72118 0.29992 0.0
H1061 H 0.34391 0.6707 0.28921 0.0
C1062 C 0.32512 0.61159 0.31068 0.0
C1063 C 0.31848 0.58249 0.32381 0.0
C1064 C 0.35375 0.64083 0.31685 0.0
C1065 C 0.34095 0.58288 0.34288 0.0
C1066 C 0.36941 0.61171 0.349 0.0
C1067 C 0.40468 0.66977 0.34224 0.0
C1068 C 0.4117 0.69902 0.32925 0.0
C1069 C 0.376 0.6408 0.33618 0.0
C1070 C 0.38941 0.69893 0.31014 0.0
C1071 C 0.36064 0.6701 0.30404 0.0
H1072 H 0.74597 0.31412 0.70233 0.0
H1073 H 0.68498 0.28958 0.63018 0.0
H1074 H 0.68144 0.33883 0.63619 0.0
H1075 H 0.69725 0.38966 0.66103 0.0
H1076 H 0.75912 0.41445 0.73262 0.0
H1077 H 0.75955 0.36345 0.7284 0.0
C1078 C 0.73139 0.31918 0.68818 0.0
C1079 C 0.71577 0.29817 0.66582 0.0
C1080 C 0.72943 0.34744 0.69178 0.0
C1081 C 0.69757 0.30553 0.64736 0.0
C1082 C 0.69539 0.33358 0.65088 0.0
C1083 C 0.71084 0.38391 0.67572 0.0
C1084 C 0.72829 0.40596 0.69701 0.0
C1085 C 0.71154 0.35488 0.67283 0.0
C1086 C 0.74522 0.39781 0.7162 0.0
C1087 C 0.74573 0.36879 0.71365 0.0
H1088 H 0.39528 0.7001 0.95941 0.0
H1089 H 0.40992 0.70145 0.04738 0.0
H1090 H 0.35785 0.69826 0.05536 0.0
H1091 H 0.31174 0.70194 0.03733 0.0
H1092 H 0.29467 0.69574 0.94949 0.0
H1093 H 0.34413 0.69361 0.94166 0.0
C1094 C 0.3868 0.69876 0.98036 0.0
C1095 C 0.40707 0.70196 0.00271 0.0
C1096 C 0.35659 0.69651 0.98489 0.0
C1097 C 0.39543 0.7002 0.02971 0.0
C1098 C 0.36552 0.69818 0.03434 0.0
C1099 C 0.31817 0.69919 0.01648 0.0
C1100 C 0.2998 0.69996 0.99404 0.0
C1101 C 0.34642 0.69744 0.01207 0.0
C1102 C 0.30888 0.69645 0.96719 0.0
C1103 C 0.33709 0.69498 0.96264 0.0
H1104 H 0.58161 0.32996 0.2993 0.0
H1105 H 0.62536 0.29319 0.35621 0.0
H1106 H 0.67818 0.34222 0.34952 0.0
H1107 H 0.71139 0.39626 0.3286 0.0
H1108 H 0.66681 0.43282 0.27233 0.0
H1109 H 0.61507 0.38238 0.27679 0.0
C1110 C 0.60277 0.3323 0.30988 0.0
C1111 C 0.59949 0.30788 0.32822 0.0
C1112 C 0.63296 0.3604 0.30588 0.0
C1113 C 0.62711 0.31177 0.34222 0.0
C1114 C 0.65734 0.33971 0.33828 0.0
C1115 C 0.69036 0.39316 0.31729 0.0
C1116 C 0.69301 0.41835 0.3002 0.0
C1117 C 0.66046 0.36433 0.32038 0.0
C1118 C 0.66563 0.41372 0.28533 0.0
C1119 C 0.63592 0.385 0.28809 0.0
H1120 H 0.29076 0.70483 0.69 0.0
H1121 H 0.29844 0.70223 0.60144 0.0
H1122 H 0.308 0.65653 0.60541 0.0
H1123 H 0.30751 0.61335 0.6334 0.0
H1124 H 0.29151 0.61147 0.72123 0.0
H1125 H 0.29245 0.66303 0.71812 0.0
C1126 C 0.29437 0.69424 0.67149 0.0
C1127 C 0.29323 0.70671 0.64542 0.0
C1128 C 0.29832 0.667 0.67379 0.0
C1129 C 0.29926 0.69336 0.62181 0.0
C1130 C 0.30444 0.66696 0.62403 0.0
C1131 C 0.30409 0.62406 0.65191 0.0
C1132 C 0.29892 0.60801 0.67744 0.0
C1133 C 0.30292 0.65292 0.64983 0.0
C1134 C 0.2958 0.62312 0.70128 0.0
C1135 C 0.29594 0.65253 0.69951 0.0
H1136 H 0.68894 0.30695 0.02259 0.0
H1137 H 0.6696 0.23553 0.95939 0.0
H1138 H 0.61927 0.23431 0.9474 0.0
H1139 H 0.57921 0.251 0.9565 0.0
H1140 H 0.59744 0.32174 0.01998 0.0
H1141 H 0.64955 0.32551 0.0304 0.0
C1142 C 0.67365 0.29112 0.00623 0.0
C1143 C 0.68307 0.27145 0.99188 0.0
C1144 C 0.6445 0.2903 -0.00045 0.0
C1145 C 0.66318 0.25129 0.97052 0.0
C1146 C 0.63427 0.2504 0.96373 0.0
C1147 C 0.59486 0.26774 0.97224 0.0
C1148 C 0.58447 0.28604 0.98743 0.0
C1149 C 0.62458 0.2696 0.97824 0.0
C1150 C 0.60478 0.30715 0.00815 0.0
C1151 C 0.63457 0.30935 0.0141 0.0
H1152 H 0.30135 0.34959 0.31643 0.0
H1153 H 0.21019 0.25989 0.30704 0.0
H1154 H 0.23636 0.22892 0.31994 0.0
H1155 H 0.28471 0.22725 0.3344 0.0
H1156 H 0.3771 0.31655 0.33876 0.0
H1157 H 0.35059 0.34763 0.32765 0.0
C1158 C 0.28725 0.32325 0.31664 0.0
C1159 C 0.25374 0.30721 0.31083 0.0
C1160 C 0.30256 0.30547 0.32353 0.0
C1161 C 0.23587 0.27302 0.31185 0.0
C1162 C 0.25084 0.25522 0.31911 0.0
C1163 C 0.29929 0.25346 0.33253 0.0
C1164 C 0.33296 0.26934 0.33763 0.0
C1165 C 0.28413 0.27121 0.3251 0.0
C1166 C 0.35107 0.3035 0.33565 0.0
C1167 C 0.33598 0.32137 0.32895 0.0
H1168 H 0.94847 0.30117 0.65129 0.0
H1169 H 0.94527 0.20951 0.66322 0.0
H1170 H 0.00324 0.23805 0.67329 0.0
H1171 H 0.05433 0.28875 0.68005 0.0
H1172 H 0.05888 0.38057 0.665 0.0
H1173 H 0.00076 0.35216 0.65519 0.0
C1174 C 0.96054 0.28742 0.65564 0.0
C1175 C 0.94243 0.25324 0.6567 0.0
C1176 C 0.99403 0.30398 0.66121 0.0
C1177 C 0.95846 0.23584 0.66274 0.0
C1178 C 0.99166 0.25213 0.66841 0.0
C1179 C 0.04283 0.30264 0.67424 0.0
C1180 C 0.06111 0.33682 0.67343 0.0
C1181 C 0.0096 0.28617 0.66795 0.0
C1182 C 0.04542 0.35429 0.66638 0.0
C1183 C 0.01219 0.33805 0.66047 0.0
H1184 H 0.7 0.05452 0.97927 0.0
H1185 H 0.79176 0.05885 0.99382 0.0
H1186 H 0.76832 0.00249 0.9793 0.0
H1187 H 0.72142 0.95131 0.96479 0.0
H1188 H 0.62786 0.94472 0.95627 0.0
H1189 H 0.65261 0.00273 0.96559 0.0
C1190 C 0.71486 0.04312 0.97964 0.0
C1191 C 0.74768 0.06115 0.98775 0.0
C1192 C 0.70096 0.01027 0.97212 0.0
C1193 C 0.76661 0.04595 0.98732 0.0
C1194 C 0.75316 0.01356 0.97919 0.0
C1195 C 0.70625 0.96236 0.96519 0.0
C1196 C 0.67269 0.94333 0.95998 0.0
C1197 C 0.72029 0.9954 0.97187 0.0
C1198 C 0.65381 0.95859 0.95977 0.0
C1199 C 0.66788 0.99179 0.96546 0.0
H1200 H 0.70551 0.76439 0.3138 0.0
H1201 H 0.65633 0.70431 0.3844 0.0
H1202 H 0.68592 0.67509 0.37824 0.0
H1203 H 0.72443 0.66533 0.35186 0.0
H1204 H 0.77033 0.72271 0.27943 0.0
H1205 H 0.74234 0.75355 0.28668 0.0
C1206 C 0.70076 0.74459 0.32766 0.0
C1207 C 0.67849 0.73659 0.3495 0.0
C1208 C 0.71705 0.72719 0.32349 0.0
C1209 C 0.67359 0.71142 0.36765 0.0
C1210 C 0.69029 0.69444 0.36399 0.0
C1211 C 0.72833 0.68469 0.33776 0.0
C1212 C 0.74942 0.6919 0.3152 0.0
C1213 C 0.71191 0.702 0.34189 0.0
C1214 C 0.75402 0.71667 0.29682 0.0
C1215 C 0.73817 0.73436 0.30104 0.0
H1216 H 0.04066 0.77407 0.63246 0.0
H1217 H 0.05083 0.68863 0.63099 0.0
H1218 H 0.99397 0.65489 0.64377 0.0
H1219 H 0.942 0.64981 0.65741 0.0
H1220 H 0.93357 0.73601 0.66349 0.0
H1221 H 0.98923 0.76922 0.64721 0.0
C1222 C 0.03061 0.74811 0.63511 0.0
C1223 C 0.05024 0.73408 0.63067 0.0
C1224 C 0.99819 0.72893 0.64353 0.0
C1225 C 0.03635 0.7002 0.63366 0.0
C1226 C 0.00385 0.68085 0.64134 0.0
C1227 C 0.95242 0.67591 0.65556 0.0
C1228 C 0.93351 0.69031 0.66177 0.0
C1229 C 0.9847 0.69501 0.64672 0.0
C1230 C 0.94732 0.72413 0.65857 0.0
C1231 C 0.97924 0.74321 0.64937 0.0
H1232 H 0.27555 0.04538 0.99253 0.0
H1233 H 0.36684 0.05081 0.9733 0.0
H1234 H 0.34293 0.99293 0.98294 0.0
H1235 H 0.29626 0.94082 -0.00279 0.0
H1236 H 0.20673 0.93693 0.02051 0.0
H1237 H 0.23014 0.99437 0.00931 0.0
C1238 C 0.29049 0.03416 0.9908 0.0
C1239 C 0.32302 0.05269 0.9821 0.0
C1240 C 0.27694 0.00109 -0.00278 0.0
C1241 C 0.34157 0.03723 0.9794 0.0
C1242 C 0.32802 0.00412 0.98521 0.0
C1243 C 0.282 0.95261 0.00031 0.0
C1244 C 0.24969 0.93441 0.00962 0.0
C1245 C 0.29577 0.98585 0.99425 0.0
C1246 C 0.23146 0.95011 0.01296 0.0
C1247 C 0.24487 0.98303 0.00668 0.0
H1248 H 0.97573 0.35126 0.11757 0.0
H1249 H 0.90868 0.27502 0.17186 0.0
H1250 H 0.95001 0.29403 0.20776 0.0
H1251 H 0.00598 0.33059 0.223 0.0
H1252 H 0.07241 0.40819 0.16982 0.0
H1253 H 0.03015 0.39094 0.13443 0.0
C1254 C 0.96985 0.33916 0.13742 0.0
C1255 C 0.93918 0.31143 0.14178 0.0
C1256 C 0.99361 0.35048 0.15817 0.0
C1257 C 0.93228 0.29592 0.16762 0.0
C1258 C 0.95584 0.30689 0.18827 0.0
C1259 C 0.01105 0.34377 0.20368 0.0
C1260 C 0.04217 0.37036 0.19879 0.0
C1261 C 0.98672 0.33377 0.18359 0.0
C1262 C 0.04851 0.38766 0.17395 0.0
C1263 C 0.02445 0.37771 0.15372 0.0
H1264 H 0.65965 0.05114 0.52356 0.0
H1265 H 0.68461 0.99356 0.57593 0.0
H1266 H 0.66257 0.94961 0.54203 0.0
H1267 H 0.63934 0.92905 0.49657 0.0
H1268 H 0.61745 0.98774 0.44254 0.0
H1269 H 0.63433 0.02941 0.47826 0.0
C1270 C 0.65976 0.02873 0.5276 0.0
C1271 C 0.67376 0.02548 0.55202 0.0
C1272 C 0.64769 0.00387 0.50775 0.0
C1273 C 0.67415 0.99657 0.55709 0.0
C1274 C 0.66156 0.97149 0.53776 0.0
C1275 C 0.6384 0.95102 0.49252 0.0
C1276 C 0.62748 0.9554 0.46681 0.0
C1277 C 0.64889 0.97516 0.51282 0.0
C1278 C 0.62558 0.98364 0.4622 0.0
C1279 C 0.63545 0.0076 0.48255 0.0
H1280 H 0.64311 0.70607 0.84323 0.0
H1281 H 0.60465 0.62054 0.89462 0.0
H1282 H 0.62098 0.59364 0.86044 0.0
H1283 H 0.65044 0.59632 0.81762 0.0
H1284 H 0.69237 0.68374 0.76862 0.0
H1285 H 0.67085 0.70827 0.80038 0.0
C1286 C 0.63845 0.68161 0.8471 0.0
C1287 C 0.62307 0.66554 0.87163 0.0
C1288 C 0.64874 0.66674 0.82783 0.0
C1289 C 0.61633 0.63345 0.87586 0.0
C1290 C 0.62588 0.61813 0.85642 0.0
C1291 C 0.65442 0.62056 0.81385 0.0
C1292 C 0.67295 0.63836 0.79102 0.0
C1293 C 0.64265 0.63478 0.83257 0.0
C1294 C 0.67831 0.66982 0.78626 0.0
C1295 C 0.66603 0.68379 0.80436 0.0
H1296 H 0.07525 0.68968 0.15998 0.0
H1297 H 0.0047 0.6371 0.09627 0.0
H1298 H 0.96147 0.61471 0.1306 0.0
H1299 H 0.94303 0.61355 0.17819 0.0
H1300 H 0.01303 0.6697 0.24098 0.0
H1301 H 0.05713 0.68776 0.20744 0.0
C1302 C 0.05041 0.67349 0.15351 0.0
C1303 C 0.04333 0.66531 0.1255 0.0
C1304 C 0.02552 0.66156 0.17319 0.0
C1305 C 0.01103 0.64358 0.11769 0.0
C1306 C 0.98619 0.63097 0.13728 0.0
C1307 C 0.96802 0.62938 0.18451 0.0
C1308 C 0.97494 0.64036 0.21188 0.0
C1309 C 0.99308 0.64022 0.165 0.0
C1310 C 0.00727 0.66118 0.2199 0.0
C1311 C 0.03241 0.67144 0.20078 0.0
H1312 H 0.37104 0.07292 0.4893 0.0
H1313 H 0.38081 0.0099 0.43074 0.0
H1314 H 0.3617 0.96684 0.46532 0.0
H1315 H 0.33742 0.94538 0.51096 0.0
H1316 H 0.32314 0.00705 0.56754 0.0
H1317 H 0.34836 0.05227 0.53486 0.0
C1318 C 0.36881 0.04971 0.48397 0.0
C1319 C 0.37702 0.04461 0.45731 0.0
C1320 C 0.35679 0.02475 0.50359 0.0
C1321 C 0.3749 0.01466 0.45112 0.0
C1322 C 0.36371 0.98989 0.47083 0.0
C1323 C 0.34036 0.96893 0.51616 0.0
C1324 C 0.32861 0.97314 0.54145 0.0
C1325 C 0.35399 0.99445 0.49695 0.0
C1326 C 0.33204 0.00346 0.54806 0.0
C1327 C 0.34638 0.02921 0.52942 0.0
H1328 H 0.33376 0.32676 0.88356 0.0
H1329 H 0.39718 0.31546 0.82696 0.0
H1330 H 0.38181 0.34057 0.79012 0.0
H1331 H 0.34769 0.3626 0.77365 0.0
H1332 H 0.28685 0.37674 0.83157 0.0
H1333 H 0.3036 0.3533 0.8682 0.0
C1334 C 0.34425 0.32998 0.86314 0.0
C1335 C 0.36623 0.31913 0.85772 0.0
C1336 C 0.33557 0.34464 0.84232 0.0
C1337 C 0.38017 0.32373 0.83143 0.0
C1338 C 0.37131 0.33794 0.81043 0.0
C1339 C 0.33853 0.36114 0.79436 0.0
C1340 C 0.31555 0.37095 0.79962 0.0
C1341 C 0.34871 0.34814 0.81557 0.0
C1342 C 0.30383 0.36858 0.82665 0.0
C1343 C 0.31357 0.35538 0.84772 0.0
H1344 H 0.18136 0.35708 0.44641 0.0
H1345 H 0.13653 0.41179 0.47393 0.0
H1346 H 0.1602 0.41722 0.51972 0.0
H1347 H 0.19708 0.41023 0.55051 0.0
H1348 H 0.24209 0.35569 0.52348 0.0
H1349 H 0.21452 0.34591 0.47872 0.0
C1350 C 0.17605 0.36944 0.46264 0.0
C1351 C 0.15725 0.38407 0.45683 0.0
C1352 C 0.19013 0.37286 0.48873 0.0
C1353 C 0.15109 0.40053 0.47791 0.0
C1354 C 0.16467 0.40371 0.50401 0.0
C1355 C 0.20081 0.39623 0.53473 0.0
C1356 C 0.222 0.38424 0.53979 0.0
C1357 C 0.1849 0.39073 0.50937 0.0
C1358 C 0.22611 0.36538 0.51972 0.0
C1359 C 0.21037 0.35984 0.49425 0.0
H1360 H 0.84003 0.19409 0.89107 0.0
H1361 H 0.87535 0.28905 0.8552 0.0
H1362 H 0.84864 0.26399 0.81159 0.0
H1363 H 0.81139 0.21524 0.78531 0.0
H1364 H 0.77552 0.12025 0.82108 0.0
H1365 H 0.80643 0.14515 0.8634 0.0
C1366 C 0.84272 0.20929 0.87343 0.0
C1367 C 0.85981 0.24337 0.87618 0.0
C1368 C 0.82666 0.19471 0.84877 0.0
C1369 C 0.86242 0.26279 0.85343 0.0
C1370 C 0.84698 0.24848 0.82864 0.0
C1371 C 0.81035 0.20008 0.80247 0.0
C1372 C 0.7908 0.16612 0.80059 0.0
C1373 C 0.82828 0.21452 0.82639 0.0
C1374 C 0.79019 0.14649 0.82242 0.0
C1375 C 0.80787 0.16071 0.84647 0.0
H1376 H 0.59777 0.80975 0.21184 0.0
H1377 H 0.68679 0.90106 0.20199 0.0
H1378 H 0.69803 0.88143 0.15888 0.0
H1379 H 0.68083 0.83909 0.12316 0.0
H1380 H 0.58989 0.74908 0.13287 0.0
H1381 H 0.58192 0.76695 0.17753 0.0
C1382 C 0.61943 0.82553 0.20004 0.0
C1383 C 0.64101 0.85709 0.20953 0.0
C1384 C 0.62572 0.81404 0.17562 0.0
C1385 C 0.66962 0.87684 0.19473 0.0
C1386 C 0.67607 0.86557 0.17023 0.0
C1387 C 0.65931 0.82331 0.13505 0.0
C1388 C 0.63596 0.79281 0.12438 0.0
C1389 C 0.65407 0.83429 0.16035 0.0
C1390 C 0.60863 0.77242 0.14052 0.0
C1391 C 0.6037 0.78283 0.16596 0.0
H1392 H 0.77429 0.56263 0.44896 0.0
H1393 H 0.86952 0.63362 0.47829 0.0
H1394 H 0.8461 0.63698 0.52226 0.0
H1395 H 0.79873 0.61876 0.55247 0.0
H1396 H 0.70372 0.54695 0.5235 0.0
H1397 H 0.7269 0.54484 0.47896 0.0
C1398 C 0.78998 0.57846 0.46515 0.0
C1399 C 0.82363 0.59752 0.46063 0.0
C1400 C 0.77635 0.58038 0.49016 0.0
C1401 C 0.84357 0.61864 0.48142 0.0
C1402 C 0.8302 0.62061 0.50647 0.0
C1403 C 0.78304 0.60319 0.53616 0.0
C1404 C 0.74954 0.5834 0.54093 0.0
C1405 C 0.79662 0.60165 0.51099 0.0
C1406 C 0.72953 0.56257 0.52005 0.0
C1407 C 0.74279 0.56125 0.49474 0.0
H1408 H 0.15502 0.80957 0.87908 0.0
H1409 H 0.11342 0.71139 0.84866 0.0
H1410 H 0.13297 0.73196 0.80225 0.0
H1411 H 0.16743 0.77764 0.77199 0.0
H1412 H 0.21083 0.87593 0.8023 0.0
H1413 H 0.18475 0.85566 0.84727 0.0
C1414 C 0.14937 0.79274 0.86207 0.0
C1415 C 0.13282 0.75905 0.86711 0.0
C1416 C 0.16154 0.80478 0.83571 0.0
C1417 C 0.12614 0.73741 0.84511 0.0
C1418 C 0.13748 0.74916 0.8187 0.0
C1419 C 0.17102 0.79457 0.78848 0.0
C1420 C 0.19147 0.82809 0.7843 0.0
C1421 C 0.1562 0.78273 0.81405 0.0
C1422 C 0.19539 0.84999 0.80535 0.0
C1423 C 0.18053 0.8384 0.83095 0.0
H1424 H 0.40139 0.20992 0.21492 0.0
H1425 H 0.35022 0.1112 0.18517 0.0
H1426 H 0.3399 0.12989 0.14109 0.0
H1427 H 0.34982 0.17492 0.11012 0.0
H1428 H 0.40084 0.27366 0.14033 0.0
H1429 H 0.40675 0.25433 0.18548 0.0
C1430 C 0.38793 0.19257 0.19871 0.0
C1431 C 0.37707 0.15941 0.20278 0.0
C1432 C 0.38208 0.20349 0.17374 0.0
C1433 C 0.35901 0.13688 0.18215 0.0
C1434 C 0.35315 0.14758 0.15708 0.0
C1435 C 0.36142 0.19215 0.12679 0.0
C1436 C 0.37492 0.22571 0.12191 0.0
C1437 C 0.36506 0.1809 0.15252 0.0
C1438 C 0.39046 0.24776 0.14357 0.0
C1439 C 0.39391 0.23674 0.16932 0.0
loop_
_geom_bond_atom_site_label_1
_geom_bond_atom_site_label_2
_geom_bond_distance
_geom_bond_site_symmetry_2
_ccdc_geom_bond_type
Li0 N17 1.990 . S
Li0 O60 1.956 . S
Li0 O61 1.970 . S
Li0 O62 1.961 . S
Li1 N25 1.990 . S
Li1 O60 1.970 . S
Li1 O61 1.956 . S
Li1 O63 1.961 . S
Li2 N47 1.990 . S
Li2 O60 1.961 . S
Li2 O62 1.956 . S
Li2 O63 1.970 . S
Li3 N53 1.990 . S
Li3 O61 1.961 . S
Li3 O62 1.970 . S
Li3 O63 1.956 . S
C4 C6 1.348 . S
C4 C7 1.356 . S
C4 O60 1.325 . S
N5 C8 1.314 . S
N5 C9 1.279 . S
C6 C4 1.348 . S
C6 C8 1.353 . S
C6 H64 0.929 . S
C7 C4 1.356 . S
C7 C9 1.358 . S
C7 H65 0.930 . S
C8 N5 1.314 . S
C8 C6 1.353 . S
C8 H66 0.930 . S
C9 N5 1.279 . S
C9 C7 1.358 . S
C9 H67 0.930 . S
C10 C13 1.348 . S
C10 C14 1.356 . S
C10 O61 1.325 . S
C11 N12 1.279 . S
C11 C14 1.358 . S
C11 H68 0.930 . S
N12 C11 1.279 . S
N12 C15 1.314 . S
C13 C10 1.348 . S
C13 C15 1.353 . S
C13 H69 0.929 . S
C14 C10 1.356 . S
C14 C11 1.358 . S
C14 H70 0.930 . S
C15 N12 1.314 . S
C15 C13 1.353 . S
C15 H71 0.930 . S
C16 N17 1.314 . S
C16 C21 1.353 . S
C16 H22 0.930 . S
N17 Li0 1.990 . S
N17 C16 1.314 . S
N17 C19 1.279 . S
C18 C19 1.358 . S
C18 C20 1.356 . S
C18 H72 0.930 . S
C19 N17 1.279 . S
C19 C18 1.358 . S
C19 H23 0.930 . S
C20 C18 1.356 . S
C20 C21 1.348 . S
C21 C16 1.353 . S
C21 C20 1.348 . S
C21 H73 0.929 . S
H22 C16 0.930 . S
H23 C19 0.930 . S
C24 N25 1.314 . S
C24 C26 1.353 . S
C24 H30 0.930 . S
N25 Li1 1.990 . S
N25 C24 1.314 . S
N25 C28 1.279 . S
C26 C24 1.353 . S
C26 C29 1.348 . S
C26 H74 0.929 . S
C27 C28 1.358 . S
C27 C29 1.356 . S
C27 H75 0.930 . S
C28 N25 1.279 . S
C28 C27 1.358 . S
C28 H31 0.930 . S
C29 C26 1.348 . S
C29 C27 1.356 . S
H30 C24 0.930 . S
H31 C28 0.930 . S
C32 C34 1.348 . S
C32 C35 1.356 . S
C32 O62 1.325 . S
N33 C36 1.314 . S
N33 C37 1.279 . S
C34 C32 1.348 . S
C34 C36 1.353 . S
C34 H76 0.929 . S
C35 C32 1.356 . S
C35 C37 1.358 . S
C35 H77 0.930 . S
C36 N33 1.314 . S
C36 C34 1.353 . S
C36 H78 0.930 . S
C37 N33 1.279 . S
C37 C35 1.358 . S
C37 H79 0.930 . S
C38 C39 1.348 . S
C38 C40 1.356 . S
C38 O63 1.325 . S
C39 C38 1.348 . S
C39 C41 1.353 . S
C39 H80 0.929 . S
C40 C38 1.356 . S
C40 C42 1.358 . S
C40 H81 0.930 . S
C41 C39 1.353 . S
C41 N43 1.314 . S
C41 H82 0.930 . S
C42 C40 1.358 . S
C42 N43 1.279 . S
C42 H83 0.930 . S
N43 C41 1.314 . S
N43 C42 1.279 . S
C44 C46 1.353 . S
C44 N47 1.314 . S
C44 H50 0.930 . S
C45 N47 1.279 . S
C45 C48 1.358 . S
C45 H51 0.930 . S
C46 C44 1.353 . S
C46 C49 1.348 . S
C46 H84 0.929 . S
N47 Li2 1.990 . S
N47 C44 1.314 . S
N47 C45 1.279 . S
C48 C45 1.358 . S
C48 C49 1.356 . S
C48 H85 0.930 . S
C49 C46 1.348 . S
C49 C48 1.356 . S
H50 C44 0.930 . S
H51 C45 0.930 . S
C52 N53 1.314 . S
C52 C54 1.353 . S
C52 H58 0.930 . S
N53 Li3 1.990 . S
N53 C52 1.314 . S
N53 C56 1.279 . S
C54 C52 1.353 . S
C54 C57 1.348 . S
C54 H86 0.929 . S
C55 C56 1.358 . S
C55 C57 1.356 . S
C55 H87 0.930 . S
C56 N53 1.279 . S
C56 C55 1.358 . S
C56 H59 0.930 . S
C57 C54 1.348 . S
C57 C55 1.356 . S
H58 C52 0.930 . S
H59 C56 0.930 . S
O60 Li0 1.956 . S
O60 Li1 1.970 . S
O60 Li2 1.961 . S
O60 C4 1.325 . S
O61 Li0 1.970 . S
O61 Li1 1.956 . S
O61 Li3 1.961 . S
O61 C10 1.325 . S
O62 Li0 1.961 . S
O62 Li2 1.956 . S
O62 Li3 1.970 . S
O62 C32 1.325 . S
O63 Li1 1.961 . S
O63 Li2 1.970 . S
O63 Li3 1.956 . S
O63 C38 1.325 . S
H64 C6 0.929 . S
H65 C7 0.930 . S
H66 C8 0.930 . S
H67 C9 0.930 . S
H68 C11 0.930 . S
H69 C13 0.929 . S
H70 C14 0.930 . S
H71 C15 0.930 . S
H72 C18 0.930 . S
H73 C21 0.929 . S
H74 C26 0.929 . S
H75 C27 0.930 . S
H76 C34 0.929 . S
H77 C35 0.930 . S
H78 C36 0.930 . S
H79 C37 0.930 . S
H80 C39 0.929 . S
H81 C40 0.930 . S
H82 C41 0.930 . S
H83 C42 0.930 . S
H84 C46 0.929 . S
H85 C48 0.930 . S
H86 C54 0.929 . S
H87 C55 0.930 . S
Li88 N105 1.990 . S
Li88 O148 1.956 . S
Li88 O149 1.970 . S
Li88 O150 1.961 . S
Li89 N113 1.990 . S
Li89 O148 1.970 . S
Li89 O149 1.956 . S
Li89 O151 1.961 . S
Li90 N135 1.990 . S
Li90 O148 1.961 . S
Li90 O150 1.956 . S
Li90 O151 1.970 . S
Li91 N141 1.990 . S
Li91 O149 1.961 . S
Li91 O150 1.970 . S
Li91 O151 1.956 . S
C92 C94 1.348 . S
C92 C95 1.356 . S
C92 O148 1.325 . S
N93 C96 1.314 . S
N93 C97 1.279 . S
C94 C92 1.348 . S
C94 C96 1.353 . S
C94 H152 0.929 . S
C95 C92 1.356 . S
C95 C97 1.358 . S
C95 H153 0.930 . S
C96 N93 1.314 . S
C96 C94 1.353 . S
C96 H154 0.930 . S
C97 N93 1.279 . S
C97 C95 1.358 . S
C97 H155 0.930 . S
C98 C101 1.348 . S
C98 C102 1.356 . S
C98 O149 1.325 . S
C99 N100 1.279 . S
C99 C102 1.358 . S
C99 H156 0.930 . S
N100 C99 1.279 . S
N100 C103 1.314 . S
C101 C98 1.348 . S
C101 C103 1.353 . S
C101 H157 0.929 . S
C102 C98 1.356 . S
C102 C99 1.358 . S
C102 H158 0.930 . S
C103 N100 1.314 . S
C103 C101 1.353 . S
C103 H159 0.930 . S
C104 N105 1.314 . S
C104 C109 1.353 . S
C104 H110 0.930 . S
N105 Li88 1.990 . S
N105 C104 1.314 . S
N105 C107 1.279 . S
C106 C107 1.358 . S
C106 C108 1.356 . S
C106 H160 0.930 . S
C107 N105 1.279 . S
C107 C106 1.358 . S
C107 H111 0.930 . S
C108 C106 1.356 . S
C108 C109 1.348 . S
C109 C104 1.353 . S
C109 C108 1.348 . S
C109 H161 0.929 . S
H110 C104 0.930 . S
H111 C107 0.930 . S
C112 N113 1.314 . S
C112 C114 1.353 . S
C112 H118 0.930 . S
N113 Li89 1.990 . S
N113 C112 1.314 . S
N113 C116 1.279 . S
C114 C112 1.353 . S
C114 C117 1.348 . S
C114 H162 0.929 . S
C115 C116 1.358 . S
C115 C117 1.356 . S
C115 H163 0.930 . S
C116 N113 1.279 . S
C116 C115 1.358 . S
C116 H119 0.930 . S
C117 C114 1.348 . S
C117 C115 1.356 . S
H118 C112 0.930 . S
H119 C116 0.930 . S
C120 C122 1.348 . S
C120 C123 1.356 . S
C120 O150 1.325 . S
N121 C124 1.314 . S
N121 C125 1.279 . S
C122 C120 1.348 . S
C122 C124 1.353 . S
C122 H164 0.929 . S
C123 C120 1.356 . S
C123 C125 1.358 . S
C123 H165 0.930 . S
C124 N121 1.314 . S
C124 C122 1.353 . S
C124 H166 0.930 . S
C125 N121 1.279 . S
C125 C123 1.358 . S
C125 H167 0.930 . S
C126 C127 1.348 . S
C126 C128 1.356 . S
C126 O151 1.325 . S
C127 C126 1.348 . S
C127 C129 1.353 . S
C127 H168 0.929 . S
C128 C126 1.356 . S
C128 C130 1.358 . S
C128 H169 0.930 . S
C129 C127 1.353 . S
C129 N131 1.314 . S
C129 H170 0.930 . S
C130 C128 1.358 . S
C130 N131 1.279 . S
C130 H171 0.930 . S
N131 C129 1.314 . S
N131 C130 1.279 . S
C132 C134 1.353 . S
C132 N135 1.314 . S
C132 H138 0.930 . S
C133 N135 1.279 . S
C133 C136 1.358 . S
C133 H139 0.930 . S
C134 C132 1.353 . S
C134 C137 1.348 . S
C134 H172 0.929 . S
N135 Li90 1.990 . S
N135 C132 1.314 . S
N135 C133 1.279 . S
C136 C133 1.358 . S
C136 C137 1.356 . S
C136 H173 0.930 . S
C137 C134 1.348 . S
C137 C136 1.356 . S
H138 C132 0.930 . S
H139 C133 0.930 . S
C140 N141 1.314 . S
C140 C142 1.353 . S
C140 H146 0.930 . S
N141 Li91 1.990 . S
N141 C140 1.314 . S
N141 C144 1.279 . S
C142 C140 1.353 . S
C142 C145 1.348 . S
C142 H174 0.929 . S
C143 C144 1.358 . S
C143 C145 1.356 . S
C143 H175 0.930 . S
C144 N141 1.279 . S
C144 C143 1.358 . S
C144 H147 0.930 . S
C145 C142 1.348 . S
C145 C143 1.356 . S
H146 C140 0.930 . S
H147 C144 0.930 . S
O148 Li88 1.956 . S
O148 Li89 1.970 . S
O148 Li90 1.961 . S
O148 C92 1.325 . S
O149 Li88 1.970 . S
O149 Li89 1.956 . S
O149 Li91 1.961 . S
O149 C98 1.325 . S
O150 Li88 1.961 . S
O150 Li90 1.956 . S
O150 Li91 1.970 . S
O150 C120 1.325 . S
O151 Li89 1.961 . S
O151 Li90 1.970 . S
O151 Li91 1.956 . S
O151 C126 1.325 . S
H152 C94 0.929 . S
H153 C95 0.930 . S
H154 C96 0.930 . S
H155 C97 0.930 . S
H156 C99 0.930 . S
H157 C101 0.929 . S
H158 C102 0.930 . S
H159 C103 0.930 . S
H160 C106 0.930 . S
H161 C109 0.929 . S
H162 C114 0.929 . S
H163 C115 0.930 . S
H164 C122 0.929 . S
H165 C123 0.930 . S
H166 C124 0.930 . S
H167 C125 0.930 . S
H168 C127 0.929 . S
H169 C128 0.930 . S
H170 C129 0.930 . S
H171 C130 0.930 . S
H172 C134 0.929 . S
H173 C136 0.930 . S
H174 C142 0.929 . S
H175 C143 0.930 . S
Li176 N193 1.990 . S
Li176 O236 1.956 . S
Li176 O237 1.970 . S
Li176 O238 1.961 . S
Li177 N201 1.990 . S
Li177 O236 1.970 1_556 S
Li177 O237 1.956 1_556 S
Li177 O239 1.961 . S
Li178 N223 1.990 . S
Li178 O236 1.961 1_556 S
Li178 O238 1.956 1_556 S
Li178 O239 1.970 . S
Li179 N229 1.990 . S
Li179 O237 1.961 1_556 S
Li179 O238 1.970 1_556 S
Li179 O239 1.956 . S
C180 C182 1.348 . S
C180 C183 1.356 . S
C180 O236 1.325 . S
N181 C184 1.314 . S
N181 C185 1.279 . S
C182 C180 1.348 . S
C182 C184 1.353 . S
C182 H240 0.929 . S
C183 C180 1.356 . S
C183 C185 1.358 . S
C183 H241 0.930 . S
C184 N181 1.314 . S
C184 C182 1.353 . S
C184 H242 0.930 . S
C185 N181 1.279 . S
C185 C183 1.358 . S
C185 H243 0.930 . S
C186 C189 1.348 . S
C186 C190 1.356 . S
C186 O237 1.325 . S
C187 N188 1.279 . S
C187 C190 1.358 . S
C187 H244 0.930 . S
N188 C187 1.279 . S
N188 C191 1.314 . S
C189 C186 1.348 . S
C189 C191 1.353 . S
C189 H245 0.929 . S
C190 C186 1.356 . S
C190 C187 1.358 . S
C190 H246 0.930 . S
C191 N188 1.314 . S
C191 C189 1.353 . S
C191 H247 0.930 . S
C192 N193 1.314 . S
C192 C197 1.353 . S
C192 H198 0.930 . S
N193 Li176 1.990 . S
N193 C192 1.314 . S
N193 C195 1.279 . S
C194 C195 1.358 . S
C194 C196 1.356 . S
C194 H248 0.930 . S
C195 N193 1.279 . S
C195 C194 1.358 . S
C195 H199 0.930 . S
C196 C194 1.356 . S
C196 C197 1.348 . S
C197 C192 1.353 . S
C197 C196 1.348 . S
C197 H249 0.929 . S
H198 C192 0.930 . S
H199 C195 0.930 . S
C200 N201 1.314 . S
C200 C202 1.353 . S
C200 H206 0.930 . S
N201 Li177 1.990 . S
N201 C200 1.314 . S
N201 C204 1.279 1_556 S
C202 C200 1.353 . S
C202 C205 1.348 . S
C202 H250 0.929 . S
C203 C204 1.358 1_556 S
C203 C205 1.356 . S
C203 H251 0.930 1_556 S
C204 N201 1.279 1_554 S
C204 C203 1.358 1_554 S
C204 H207 0.930 . S
C205 C202 1.348 . S
C205 C203 1.356 . S
H206 C200 0.930 . S
H207 C204 0.930 . S
C208 C210 1.348 . S
C208 C211 1.356 . S
C208 O238 1.325 . S
N209 C212 1.314 . S
N209 C213 1.279 . S
C210 C208 1.348 . S
C210 C212 1.353 . S
C210 H252 0.929 1_554 S
C211 C208 1.356 . S
C211 C213 1.358 . S
C211 H253 0.930 . S
C212 N209 1.314 . S
C212 C210 1.353 . S
C212 H254 0.930 . S
C213 N209 1.279 . S
C213 C211 1.358 . S
C213 H255 0.930 . S
C214 C215 1.348 . S
C214 C216 1.356 . S
C214 O239 1.325 . S
C215 C214 1.348 . S
C215 C217 1.353 . S
C215 H256 0.929 . S
C216 C214 1.356 . S
C216 C218 1.358 . S
C216 H257 0.930 . S
C217 C215 1.353 . S
C217 N219 1.314 . S
C217 H258 0.930 . S
C218 C216 1.358 . S
C218 N219 1.279 . S
C218 H259 0.930 . S
N219 C217 1.314 . S
N219 C218 1.279 . S
C220 C222 1.353 . S
C220 N223 1.314 . S
C220 H226 0.930 . S
C221 N223 1.279 . S
C221 C224 1.358 . S
C221 H227 0.930 . S
C222 C220 1.353 . S
C222 C225 1.348 . S
C222 H260 0.929 . S
N223 Li178 1.990 . S
N223 C220 1.314 . S
N223 C221 1.279 . S
C224 C221 1.358 . S
C224 C225 1.356 . S
C224 H261 0.930 . S
C225 C222 1.348 . S
C225 C224 1.356 . S
H226 C220 0.930 . S
H227 C221 0.930 . S
C228 N229 1.314 1_554 S
C228 C230 1.353 . S
C228 H234 0.930 . S
N229 Li179 1.990 . S
N229 C228 1.314 1_556 S
N229 C232 1.279 . S
C230 C228 1.353 . S
C230 C233 1.348 1_554 S
C230 H262 0.929 . S
C231 C232 1.358 . S
C231 C233 1.356 . S
C231 H263 0.930 . S
C232 N229 1.279 . S
C232 C231 1.358 . S
C232 H235 0.930 . S
C233 C230 1.348 1_556 S
C233 C231 1.356 . S
H234 C228 0.930 . S
H235 C232 0.930 . S
O236 Li176 1.956 . S
O236 Li177 1.970 1_554 S
O236 Li178 1.961 1_554 S
O236 C180 1.325 . S
O237 Li176 1.970 . S
O237 Li177 1.956 1_554 S
O237 Li179 1.961 1_554 S
O237 C186 1.325 . S
O238 Li176 1.961 . S
O238 Li178 1.956 1_554 S
O238 Li179 1.970 1_554 S
O238 C208 1.325 . S
O239 Li177 1.961 . S
O239 Li178 1.970 . S
O239 Li179 1.956 . S
O239 C214 1.325 . S
H240 C182 0.929 . S
H241 C183 0.930 . S
H242 C184 0.930 . S
H243 C185 0.930 . S
H244 C187 0.930 . S
H245 C189 0.929 . S
H246 C190 0.930 . S
H247 C191 0.930 . S
H248 C194 0.930 . S
H249 C197 0.929 . S
H250 C202 0.929 . S
H251 C203 0.930 1_554 S
H252 C210 0.929 1_556 S
H253 C211 0.930 . S
H254 C212 0.930 . S
H255 C213 0.930 . S
H256 C215 0.929 . S
H257 C216 0.930 . S
H258 C217 0.930 . S
H259 C218 0.930 . S
H260 C222 0.929 . S
H261 C224 0.930 . S
H262 C230 0.929 . S
H263 C231 0.930 . S
Li264 N281 1.990 . S
Li264 O324 1.956 . S
Li264 O325 1.970 . S
Li264 O326 1.961 . S
Li265 N289 1.990 . S
Li265 O324 1.970 . S
Li265 O325 1.956 . S
Li265 O327 1.961 . S
Li266 N311 1.990 . S
Li266 O324 1.961 . S
Li266 O326 1.956 . S
Li266 O327 1.970 . S
Li267 N317 1.990 . S
Li267 O325 1.961 . S
Li267 O326 1.970 . S
Li267 O327 1.956 . S
C268 C270 1.348 . S
C268 C271 1.356 . S
C268 O324 1.325 . S
N269 C272 1.314 . S
N269 C273 1.279 . S
C270 C268 1.348 . S
C270 C272 1.353 . S
C270 H328 0.929 . S
C271 C268 1.356 . S
C271 C273 1.358 . S
C271 H329 0.930 . S
C272 N269 1.314 . S
C272 C270 1.353 . S
C272 H330 0.930 . S
C273 N269 1.279 . S
C273 C271 1.358 . S
C273 H331 0.930 . S
C274 C277 1.348 . S
C274 C278 1.356 . S
C274 O325 1.325 . S
C275 N276 1.279 . S
C275 C278 1.358 . S
C275 H332 0.930 . S
N276 C275 1.279 . S
N276 C279 1.314 . S
C277 C274 1.348 . S
C277 C279 1.353 . S
C277 H333 0.929 . S
C278 C274 1.356 . S
C278 C275 1.358 . S
C278 H334 0.930 . S
C279 N276 1.314 . S
C279 C277 1.353 . S
C279 H335 0.930 . S
C280 N281 1.314 . S
C280 C285 1.353 . S
C280 H286 0.930 . S
N281 Li264 1.990 . S
N281 C280 1.314 . S
N281 C283 1.279 . S
C282 C283 1.358 . S
C282 C284 1.356 . S
C282 H336 0.930 . S
C283 N281 1.279 . S
C283 C282 1.358 . S
C283 H287 0.930 . S
C284 C282 1.356 . S
C284 C285 1.348 . S
C285 C280 1.353 . S
C285 C284 1.348 . S
C285 H337 0.929 . S
H286 C280 0.930 . S
H287 C283 0.930 . S
C288 N289 1.314 . S
C288 C290 1.353 . S
C288 H294 0.930 . S
N289 Li265 1.990 . S
N289 C288 1.314 . S
N289 C292 1.279 . S
C290 C288 1.353 . S
C290 C293 1.348 . S
C290 H338 0.929 . S
C291 C292 1.358 . S
C291 C293 1.356 . S
C291 H339 0.930 . S
C292 N289 1.279 . S
C292 C291 1.358 . S
C292 H295 0.930 . S
C293 C290 1.348 . S
C293 C291 1.356 . S
H294 C288 0.930 . S
H295 C292 0.930 . S
C296 C298 1.348 . S
C296 C299 1.356 . S
C296 O326 1.325 . S
N297 C300 1.314 . S
N297 C301 1.279 . S
C298 C296 1.348 . S
C298 C300 1.353 . S
C298 H340 0.929 . S
C299 C296 1.356 . S
C299 C301 1.358 . S
C299 H341 0.930 . S
C300 N297 1.314 . S
C300 C298 1.353 . S
C300 H342 0.930 . S
C301 N297 1.279 . S
C301 C299 1.358 . S
C301 H343 0.930 . S
C302 C303 1.348 . S
C302 C304 1.356 . S
C302 O327 1.325 . S
C303 C302 1.348 . S
C303 C305 1.353 . S
C303 H344 0.929 . S
C304 C302 1.356 . S
C304 C306 1.358 . S
C304 H345 0.930 . S
C305 C303 1.353 . S
C305 N307 1.314 . S
C305 H346 0.930 . S
C306 C304 1.358 . S
C306 N307 1.279 . S
C306 H347 0.930 . S
N307 C305 1.314 . S
N307 C306 1.279 . S
C308 C310 1.353 . S
C308 N311 1.314 . S
C308 H314 0.930 . S
C309 N311 1.279 . S
C309 C312 1.358 . S
C309 H315 0.930 . S
C310 C308 1.353 . S
C310 C313 1.348 . S
C310 H348 0.929 . S
N311 Li266 1.990 . S
N311 C308 1.314 . S
N311 C309 1.279 . S
C312 C309 1.358 . S
C312 C313 1.356 . S
C312 H349 0.930 . S
C313 C310 1.348 . S
C313 C312 1.356 . S
H314 C308 0.930 . S
H315 C309 0.930 . S
C316 N317 1.314 . S
C316 C318 1.353 . S
C316 H322 0.930 . S
N317 Li267 1.990 . S
N317 C316 1.314 . S
N317 C320 1.279 . S
C318 C316 1.353 . S
C318 C321 1.348 . S
C318 H350 0.929 . S
C319 C320 1.358 . S
C319 C321 1.356 . S
C319 H351 0.930 . S
C320 N317 1.279 . S
C320 C319 1.358 . S
C320 H323 0.930 . S
C321 C318 1.348 . S
C321 C319 1.356 . S
H322 C316 0.930 . S
H323 C320 0.930 . S
O324 Li264 1.956 . S
O324 Li265 1.970 . S
O324 Li266 1.961 . S
O324 C268 1.325 . S
O325 Li264 1.970 . S
O325 Li265 1.956 . S
O325 Li267 1.961 . S
O325 C274 1.325 . S
O326 Li264 1.961 . S
O326 Li266 1.956 . S
O326 Li267 1.970 . S
O326 C296 1.325 . S
O327 Li265 1.961 . S
O327 Li266 1.970 . S
O327 Li267 1.956 . S
O327 C302 1.325 . S
H328 C270 0.929 . S
H329 C271 0.930 . S
H330 C272 0.930 . S
H331 C273 0.930 . S
H332 C275 0.930 . S
H333 C277 0.929 . S
H334 C278 0.930 . S
H335 C279 0.930 . S
H336 C282 0.930 . S
H337 C285 0.929 . S
H338 C290 0.929 . S
H339 C291 0.930 . S
H340 C298 0.929 . S
H341 C299 0.930 . S
H342 C300 0.930 . S
H343 C301 0.930 . S
H344 C303 0.929 . S
H345 C304 0.930 . S
H346 C305 0.930 . S
H347 C306 0.930 . S
H348 C310 0.929 . S
H349 C312 0.930 . S
H350 C318 0.929 . S
H351 C319 0.930 . S
Li352 N369 1.990 . S
Li352 O412 1.956 . S
Li352 O413 1.970 . S
Li352 O414 1.961 . S
Li353 N377 1.990 . S
Li353 O412 1.970 . S
Li353 O413 1.956 . S
Li353 O415 1.961 . S
Li354 N399 1.990 . S
Li354 O412 1.961 . S
Li354 O414 1.956 . S
Li354 O415 1.970 . S
Li355 N405 1.990 . S
Li355 O413 1.961 . S
Li355 O414 1.970 . S
Li355 O415 1.956 . S
C356 C358 1.348 . S
C356 C359 1.356 . S
C356 O412 1.325 . S
N357 C360 1.314 . S
N357 C361 1.279 . S
C358 C356 1.348 . S
C358 C360 1.353 . S
C358 H416 0.929 . S
C359 C356 1.356 . S
C359 C361 1.358 . S
C359 H417 0.930 . S
C360 N357 1.314 . S
C360 C358 1.353 . S
C360 H418 0.930 . S
C361 N357 1.279 . S
C361 C359 1.358 . S
C361 H419 0.930 . S
C362 C365 1.348 . S
C362 C366 1.356 . S
C362 O413 1.325 . S
C363 N364 1.279 . S
C363 C366 1.358 . S
C363 H420 0.930 . S
N364 C363 1.279 . S
N364 C367 1.314 . S
C365 C362 1.348 . S
C365 C367 1.353 . S
C365 H421 0.929 . S
C366 C362 1.356 . S
C366 C363 1.358 . S
C366 H422 0.930 . S
C367 N364 1.314 . S
C367 C365 1.353 . S
C367 H423 0.930 . S
C368 N369 1.314 . S
C368 C373 1.353 . S
C368 H374 0.930 . S
N369 Li352 1.990 . S
N369 C368 1.314 . S
N369 C371 1.279 . S
C370 C371 1.358 . S
C370 C372 1.356 . S
C370 H424 0.930 . S
C371 N369 1.279 . S
C371 C370 1.358 . S
C371 H375 0.930 . S
C372 C370 1.356 . S
C372 C373 1.348 . S
C373 C368 1.353 . S
C373 C372 1.348 . S
C373 H425 0.929 . S
H374 C368 0.930 . S
H375 C371 0.930 . S
C376 N377 1.314 . S
C376 C378 1.353 . S
C376 H382 0.930 . S
N377 Li353 1.990 . S
N377 C376 1.314 . S
N377 C380 1.279 . S
C378 C376 1.353 . S
C378 C381 1.348 . S
C378 H426 0.929 . S
C379 C380 1.358 . S
C379 C381 1.356 . S
C379 H427 0.930 . S
C380 N377 1.279 . S
C380 C379 1.358 . S
C380 H383 0.930 . S
C381 C378 1.348 . S
C381 C379 1.356 . S
H382 C376 0.930 . S
H383 C380 0.930 . S
C384 C386 1.348 . S
C384 C387 1.356 . S
C384 O414 1.325 . S
N385 C388 1.314 . S
N385 C389 1.279 . S
C386 C384 1.348 . S
C386 C388 1.353 . S
C386 H428 0.929 . S
C387 C384 1.356 . S
C387 C389 1.358 . S
C387 H429 0.930 . S
C388 N385 1.314 . S
C388 C386 1.353 . S
C388 H430 0.930 . S
C389 N385 1.279 . S
C389 C387 1.358 . S
C389 H431 0.930 . S
C390 C391 1.348 . S
C390 C392 1.356 . S
C390 O415 1.325 . S
C391 C390 1.348 . S
C391 C393 1.353 . S
C391 H432 0.929 . S
C392 C390 1.356 . S
C392 C394 1.358 . S
C392 H433 0.930 . S
C393 C391 1.353 . S
C393 N395 1.314 . S
C393 H434 0.930 . S
C394 C392 1.358 . S
C394 N395 1.279 . S
C394 H435 0.930 . S
N395 C393 1.314 . S
N395 C394 1.279 . S
C396 C398 1.353 . S
C396 N399 1.314 . S
C396 H402 0.930 . S
C397 N399 1.279 . S
C397 C400 1.358 . S
C397 H403 0.930 . S
C398 C396 1.353 . S
C398 C401 1.348 . S
C398 H436 0.929 . S
N399 Li354 1.990 . S
N399 C396 1.314 . S
N399 C397 1.279 . S
C400 C397 1.358 . S
C400 C401 1.356 . S
C400 H437 0.930 . S
C401 C398 1.348 . S
C401 C400 1.356 . S
H402 C396 0.930 . S
H403 C397 0.930 . S
C404 N405 1.314 . S
C404 C406 1.353 . S
C404 H410 0.930 . S
N405 Li355 1.990 . S
N405 C404 1.314 . S
N405 C408 1.279 . S
C406 C404 1.353 . S
C406 C409 1.348 . S
C406 H438 0.929 . S
C407 C408 1.358 . S
C407 C409 1.356 . S
C407 H439 0.930 . S
C408 N405 1.279 . S
C408 C407 1.358 . S
C408 H411 0.930 . S
C409 C406 1.348 . S
C409 C407 1.356 . S
H410 C404 0.930 . S
H411 C408 0.930 . S
O412 Li352 1.956 . S
O412 Li353 1.970 . S
O412 Li354 1.961 . S
O412 C356 1.325 . S
O413 Li352 1.970 . S
O413 Li353 1.956 . S
O413 Li355 1.961 . S
O413 C362 1.325 . S
O414 Li352 1.961 . S
O414 Li354 1.956 . S
O414 Li355 1.970 . S
O414 C384 1.325 . S
O415 Li353 1.961 . S
O415 Li354 1.970 . S
O415 Li355 1.956 . S
O415 C390 1.325 . S
H416 C358 0.929 . S
H417 C359 0.930 . S
H418 C360 0.930 . S
H419 C361 0.930 . S
H420 C363 0.930 . S
H421 C365 0.929 . S
H422 C366 0.930 . S
H423 C367 0.930 . S
H424 C370 0.930 . S
H425 C373 0.929 . S
H426 C378 0.929 . S
H427 C379 0.930 . S
H428 C386 0.929 . S
H429 C387 0.930 . S
H430 C388 0.930 . S
H431 C389 0.930 . S
H432 C391 0.929 . S
H433 C392 0.930 . S
H434 C393 0.930 . S
H435 C394 0.930 . S
H436 C398 0.929 . S
H437 C400 0.930 . S
H438 C406 0.929 . S
H439 C407 0.930 . S
Li440 N457 1.990 . S
Li440 O500 1.956 1_556 S
Li440 O501 1.970 1_556 S
Li440 O502 1.961 . S
Li441 N465 1.990 . S
Li441 O500 1.970 . S
Li441 O501 1.956 . S
Li441 O503 1.961 . S
Li442 N487 1.990 . S
Li442 O500 1.961 1_556 S
Li442 O502 1.956 . S
Li442 O503 1.970 1_556 S
Li443 N493 1.990 . S
Li443 O501 1.961 1_556 S
Li443 O502 1.970 . S
Li443 O503 1.956 1_556 S
C444 C446 1.348 . S
C444 C447 1.356 . S
C444 O500 1.325 . S
N445 C448 1.314 . S
N445 C449 1.279 . S
C446 C444 1.348 . S
C446 C448 1.353 . S
C446 H504 0.929 . S
C447 C444 1.356 . S
C447 C449 1.358 . S
C447 H505 0.930 . S
C448 N445 1.314 . S
C448 C446 1.353 . S
C448 H506 0.930 . S
C449 N445 1.279 . S
C449 C447 1.358 . S
C449 H507 0.930 . S
C450 C453 1.348 . S
C450 C454 1.356 . S
C450 O501 1.325 . S
C451 N452 1.279 . S
C451 C454 1.358 . S
C451 H508 0.930 . S
N452 C451 1.279 . S
N452 C455 1.314 . S
C453 C450 1.348 . S
C453 C455 1.353 . S
C453 H509 0.929 . S
C454 C450 1.356 . S
C454 C451 1.358 . S
C454 H510 0.930 . S
C455 N452 1.314 . S
C455 C453 1.353 . S
C455 H511 0.930 . S
C456 N457 1.314 . S
C456 C461 1.353 . S
C456 H462 0.930 . S
N457 Li440 1.990 . S
N457 C456 1.314 . S
N457 C459 1.279 1_556 S
C458 C459 1.358 1_556 S
C458 C460 1.356 . S
C458 H512 0.930 1_556 S
C459 N457 1.279 1_554 S
C459 C458 1.358 1_554 S
C459 H463 0.930 . S
C460 C458 1.356 . S
C460 C461 1.348 . S
C461 C456 1.353 . S
C461 C460 1.348 . S
C461 H513 0.929 . S
H462 C456 0.930 . S
H463 C459 0.930 . S
C464 N465 1.314 . S
C464 C466 1.353 . S
C464 H470 0.930 . S
N465 Li441 1.990 . S
N465 C464 1.314 . S
N465 C468 1.279 . S
C466 C464 1.353 . S
C466 C469 1.348 . S
C466 H514 0.929 . S
C467 C468 1.358 . S
C467 C469 1.356 . S
C467 H515 0.930 . S
C468 N465 1.279 . S
C468 C467 1.358 . S
C468 H471 0.930 . S
C469 C466 1.348 . S
C469 C467 1.356 . S
H470 C464 0.930 . S
H471 C468 0.930 . S
C472 C474 1.348 . S
C472 C475 1.356 . S
C472 O502 1.325 . S
N473 C476 1.314 . S
N473 C477 1.279 . S
C474 C472 1.348 . S
C474 C476 1.353 . S
C474 H516 0.929 . S
C475 C472 1.356 . S
C475 C477 1.358 . S
C475 H517 0.930 . S
C476 N473 1.314 . S
C476 C474 1.353 . S
C476 H518 0.930 . S
C477 N473 1.279 . S
C477 C475 1.358 . S
C477 H519 0.930 . S
C478 C479 1.348 . S
C478 C480 1.356 . S
C478 O503 1.325 . S
C479 C478 1.348 . S
C479 C481 1.353 . S
C479 H520 0.929 1_554 S
C480 C478 1.356 . S
C480 C482 1.358 . S
C480 H521 0.930 . S
C481 C479 1.353 . S
C481 N483 1.314 . S
C481 H522 0.930 . S
C482 C480 1.358 . S
C482 N483 1.279 . S
C482 H523 0.930 . S
N483 C481 1.314 . S
N483 C482 1.279 . S
C484 C486 1.353 . S
C484 N487 1.314 1_554 S
C484 H490 0.930 . S
C485 N487 1.279 . S
C485 C488 1.358 . S
C485 H491 0.930 . S
C486 C484 1.353 . S
C486 C489 1.348 1_554 S
C486 H524 0.929 . S
N487 Li442 1.990 . S
N487 C484 1.314 1_556 S
N487 C485 1.279 . S
C488 C485 1.358 . S
C488 C489 1.356 . S
C488 H525 0.930 . S
C489 C486 1.348 1_556 S
C489 C488 1.356 . S
H490 C484 0.930 . S
H491 C485 0.930 . S
C492 N493 1.314 . S
C492 C494 1.353 . S
C492 H498 0.930 . S
N493 Li443 1.990 . S
N493 C492 1.314 . S
N493 C496 1.279 . S
C494 C492 1.353 . S
C494 C497 1.348 . S
C494 H526 0.929 . S
C495 C496 1.358 . S
C495 C497 1.356 . S
C495 H527 0.930 . S
C496 N493 1.279 . S
C496 C495 1.358 . S
C496 H499 0.930 . S
C497 C494 1.348 . S
C497 C495 1.356 . S
H498 C492 0.930 . S
H499 C496 0.930 . S
O500 Li440 1.956 1_554 S
O500 Li441 1.970 . S
O500 Li442 1.961 1_554 S
O500 C444 1.325 . S
O501 Li440 1.970 1_554 S
O501 Li441 1.956 . S
O501 Li443 1.961 1_554 S
O501 C450 1.325 . S
O502 Li440 1.961 . S
O502 Li442 1.956 . S
O502 Li443 1.970 . S
O502 C472 1.325 . S
O503 Li441 1.961 . S
O503 Li442 1.970 1_554 S
O503 Li443 1.956 1_554 S
O503 C478 1.325 . S
H504 C446 0.929 . S
H505 C447 0.930 . S
H506 C448 0.930 . S
H507 C449 0.930 . S
H508 C451 0.930 . S
H509 C453 0.929 . S
H510 C454 0.930 . S
H511 C455 0.930 . S
H512 C458 0.930 1_554 S
H513 C461 0.929 . S
H514 C466 0.929 . S
H515 C467 0.930 . S
H516 C474 0.929 . S
H517 C475 0.930 . S
H518 C476 0.930 . S
H519 C477 0.930 . S
H520 C479 0.929 1_556 S
H521 C480 0.930 . S
H522 C481 0.930 . S
H523 C482 0.930 . S
H524 C486 0.929 . S
H525 C488 0.930 . S
H526 C494 0.929 . S
H527 C495 0.930 . S
Li528 N545 1.990 . S
Li528 O588 1.956 . S
Li528 O589 1.970 . S
Li528 O590 1.961 . S
Li529 N553 1.990 . S
Li529 O588 1.970 . S
Li529 O589 1.956 . S
Li529 O591 1.961 . S
Li530 N575 1.990 . S
Li530 O588 1.961 . S
Li530 O590 1.956 . S
Li530 O591 1.970 . S
Li531 N581 1.990 . S
Li531 O589 1.961 . S
Li531 O590 1.970 . S
Li531 O591 1.956 . S
C532 C534 1.348 . S
C532 C535 1.356 . S
C532 O588 1.325 . S
N533 C536 1.314 . S
N533 C537 1.279 . S
C534 C532 1.348 . S
C534 C536 1.353 . S
C534 H592 0.929 . S
C535 C532 1.356 . S
C535 C537 1.358 . S
C535 H593 0.930 . S
C536 N533 1.314 . S
C536 C534 1.353 . S
C536 H594 0.930 . S
C537 N533 1.279 . S
C537 C535 1.358 . S
C537 H595 0.930 . S
C538 C541 1.348 . S
C538 C542 1.356 . S
C538 O589 1.325 . S
C539 N540 1.279 . S
C539 C542 1.358 . S
C539 H596 0.930 . S
N540 C539 1.279 . S
N540 C543 1.314 . S
C541 C538 1.348 . S
C541 C543 1.353 . S
C541 H597 0.929 . S
C542 C538 1.356 . S
C542 C539 1.358 . S
C542 H598 0.930 . S
C543 N540 1.314 . S
C543 C541 1.353 . S
C543 H599 0.930 . S
C544 N545 1.314 . S
C544 C549 1.353 . S
C544 H550 0.930 . S
N545 Li528 1.990 . S
N545 C544 1.314 . S
N545 C547 1.279 . S
C546 C547 1.358 . S
C546 C548 1.356 . S
C546 H600 0.930 . S
C547 N545 1.279 . S
C547 C546 1.358 . S
C547 H551 0.930 . S
C548 C546 1.356 . S
C548 C549 1.348 . S
C549 C544 1.353 . S
C549 C548 1.348 . S
C549 H601 0.929 . S
H550 C544 0.930 . S
H551 C547 0.930 . S
C552 N553 1.314 . S
C552 C554 1.353 . S
C552 H558 0.930 . S
N553 Li529 1.990 . S
N553 C552 1.314 . S
N553 C556 1.279 . S
C554 C552 1.353 . S
C554 C557 1.348 . S
C554 H602 0.929 . S
C555 C556 1.358 . S
C555 C557 1.356 . S
C555 H603 0.930 . S
C556 N553 1.279 . S
C556 C555 1.358 . S
C556 H559 0.930 . S
C557 C554 1.348 . S
C557 C555 1.356 . S
H558 C552 0.930 . S
H559 C556 0.930 . S
C560 C562 1.348 . S
C560 C563 1.356 . S
C560 O590 1.325 . S
N561 C564 1.314 . S
N561 C565 1.279 . S
C562 C560 1.348 . S
C562 C564 1.353 . S
C562 H604 0.929 . S
C563 C560 1.356 . S
C563 C565 1.358 . S
C563 H605 0.930 . S
C564 N561 1.314 . S
C564 C562 1.353 . S
C564 H606 0.930 . S
C565 N561 1.279 . S
C565 C563 1.358 . S
C565 H607 0.930 . S
C566 C567 1.348 . S
C566 C568 1.356 . S
C566 O591 1.325 . S
C567 C566 1.348 . S
C567 C569 1.353 . S
C567 H608 0.929 . S
C568 C566 1.356 . S
C568 C570 1.358 . S
C568 H609 0.930 . S
C569 C567 1.353 . S
C569 N571 1.314 . S
C569 H610 0.930 . S
C570 C568 1.358 . S
C570 N571 1.279 . S
C570 H611 0.930 . S
N571 C569 1.314 . S
N571 C570 1.279 . S
C572 C574 1.353 . S
C572 N575 1.314 . S
C572 H578 0.930 . S
C573 N575 1.279 . S
C573 C576 1.358 . S
C573 H579 0.930 . S
C574 C572 1.353 . S
C574 C577 1.348 . S
C574 H612 0.929 . S
N575 Li530 1.990 . S
N575 C572 1.314 . S
N575 C573 1.279 . S
C576 C573 1.358 . S
C576 C577 1.356 . S
C576 H613 0.930 . S
C577 C574 1.348 . S
C577 C576 1.356 . S
H578 C572 0.930 . S
H579 C573 0.930 . S
C580 N581 1.314 . S
C580 C582 1.353 . S
C580 H586 0.930 . S
N581 Li531 1.990 . S
N581 C580 1.314 . S
N581 C584 1.279 . S
C582 C580 1.353 . S
C582 C585 1.348 . S
C582 H614 0.929 . S
C583 C584 1.358 . S
C583 C585 1.356 . S
C583 H615 0.930 . S
C584 N581 1.279 . S
C584 C583 1.358 . S
C584 H587 0.930 . S
C585 C582 1.348 . S
C585 C583 1.356 . S
H586 C580 0.930 . S
H587 C584 0.930 . S
O588 Li528 1.956 . S
O588 Li529 1.970 . S
O588 Li530 1.961 . S
O588 C532 1.325 . S
O589 Li528 1.970 . S
O589 Li529 1.956 . S
O589 Li531 1.961 . S
O589 C538 1.325 . S
O590 Li528 1.961 . S
O590 Li530 1.956 . S
O590 Li531 1.970 . S
O590 C560 1.325 . S
O591 Li529 1.961 . S
O591 Li530 1.970 . S
O591 Li531 1.956 . S
O591 C566 1.325 . S
H592 C534 0.929 . S
H593 C535 0.930 . S
H594 C536 0.930 . S
H595 C537 0.930 . S
H596 C539 0.930 . S
H597 C541 0.929 . S
H598 C542 0.930 . S
H599 C543 0.930 . S
H600 C546 0.930 . S
H601 C549 0.929 . S
H602 C554 0.929 . S
H603 C555 0.930 . S
H604 C562 0.929 . S
H605 C563 0.930 . S
H606 C564 0.930 . S
H607 C565 0.930 . S
H608 C567 0.929 . S
H609 C568 0.930 . S
H610 C569 0.930 . S
H611 C570 0.930 . S
H612 C574 0.929 . S
H613 C576 0.930 . S
H614 C582 0.929 . S
H615 C583 0.930 . S
Li616 N633 1.990 . S
Li616 O676 1.956 . S
Li616 O677 1.970 . S
Li616 O678 1.961 . S
Li617 N641 1.990 . S
Li617 O676 1.970 . S
Li617 O677 1.956 . S
Li617 O679 1.961 . S
Li618 N663 1.990 . S
Li618 O676 1.961 . S
Li618 O678 1.956 . S
Li618 O679 1.970 . S
Li619 N669 1.990 . S
Li619 O677 1.961 . S
Li619 O678 1.970 . S
Li619 O679 1.956 . S
C620 C622 1.348 . S
C620 C623 1.356 . S
C620 O676 1.325 . S
N621 C624 1.314 . S
N621 C625 1.279 . S
C622 C620 1.348 . S
C622 C624 1.353 . S
C622 H680 0.929 . S
C623 C620 1.356 . S
C623 C625 1.358 . S
C623 H681 0.930 . S
C624 N621 1.314 . S
C624 C622 1.353 . S
C624 H682 0.930 . S
C625 N621 1.279 . S
C625 C623 1.358 . S
C625 H683 0.930 . S
C626 C629 1.348 . S
C626 C630 1.356 . S
C626 O677 1.325 . S
C627 N628 1.279 . S
C627 C630 1.358 . S
C627 H684 0.930 . S
N628 C627 1.279 . S
N628 C631 1.314 . S
C629 C626 1.348 . S
C629 C631 1.353 . S
C629 H685 0.929 . S
C630 C626 1.356 . S
C630 C627 1.358 . S
C630 H686 0.930 . S
C631 N628 1.314 . S
C631 C629 1.353 . S
C631 H687 0.930 . S
C632 N633 1.314 . S
C632 C637 1.353 . S
C632 H638 0.930 . S
N633 Li616 1.990 . S
N633 C632 1.314 . S
N633 C635 1.279 . S
C634 C635 1.358 . S
C634 C636 1.356 . S
C634 H688 0.930 . S
C635 N633 1.279 . S
C635 C634 1.358 . S
C635 H639 0.930 . S
C636 C634 1.356 . S
C636 C637 1.348 . S
C637 C632 1.353 . S
C637 C636 1.348 . S
C637 H689 0.929 . S
H638 C632 0.930 . S
H639 C635 0.930 . S
C640 N641 1.314 . S
C640 C642 1.353 . S
C640 H646 0.930 . S
N641 Li617 1.990 . S
N641 C640 1.314 . S
N641 C644 1.279 . S
C642 C640 1.353 . S
C642 C645 1.348 . S
C642 H690 0.929 . S
C643 C644 1.358 . S
C643 C645 1.356 . S
C643 H691 0.930 . S
C644 N641 1.279 . S
C644 C643 1.358 . S
C644 H647 0.930 . S
C645 C642 1.348 . S
C645 C643 1.356 . S
H646 C640 0.930 . S
H647 C644 0.930 . S
C648 C650 1.348 . S
C648 C651 1.356 . S
C648 O678 1.325 . S
N649 C652 1.314 . S
N649 C653 1.279 . S
C650 C648 1.348 . S
C650 C652 1.353 . S
C650 H692 0.929 . S
C651 C648 1.356 . S
C651 C653 1.358 . S
C651 H693 0.930 . S
C652 N649 1.314 . S
C652 C650 1.353 . S
C652 H694 0.930 . S
C653 N649 1.279 . S
C653 C651 1.358 . S
C653 H695 0.930 . S
C654 C655 1.348 . S
C654 C656 1.356 . S
C654 O679 1.325 . S
C655 C654 1.348 . S
C655 C657 1.353 . S
C655 H696 0.929 . S
C656 C654 1.356 . S
C656 C658 1.358 . S
C656 H697 0.930 . S
C657 C655 1.353 . S
C657 N659 1.314 . S
C657 H698 0.930 . S
C658 C656 1.358 . S
C658 N659 1.279 . S
C658 H699 0.930 . S
N659 C657 1.314 . S
N659 C658 1.279 . S
C660 C662 1.353 . S
C660 N663 1.314 . S
C660 H666 0.930 . S
C661 N663 1.279 . S
C661 C664 1.358 . S
C661 H667 0.930 . S
C662 C660 1.353 . S
C662 C665 1.348 . S
C662 H700 0.929 . S
N663 Li618 1.990 . S
N663 C660 1.314 . S
N663 C661 1.279 . S
C664 C661 1.358 . S
C664 C665 1.356 . S
C664 H701 0.930 . S
C665 C662 1.348 . S
C665 C664 1.356 . S
H666 C660 0.930 . S
H667 C661 0.930 . S
C668 N669 1.314 . S
C668 C670 1.353 . S
C668 H674 0.930 . S
N669 Li619 1.990 . S
N669 C668 1.314 . S
N669 C672 1.279 . S
C670 C668 1.353 . S
C670 C673 1.348 . S
C670 H702 0.929 . S
C671 C672 1.358 . S
C671 C673 1.356 . S
C671 H703 0.930 . S
C672 N669 1.279 . S
C672 C671 1.358 . S
C672 H675 0.930 . S
C673 C670 1.348 . S
C673 C671 1.356 . S
H674 C668 0.930 . S
H675 C672 0.930 . S
O676 Li616 1.956 . S
O676 Li617 1.970 . S
O676 Li618 1.961 . S
O676 C620 1.325 . S
O677 Li616 1.970 . S
O677 Li617 1.956 . S
O677 Li619 1.961 . S
O677 C626 1.325 . S
O678 Li616 1.961 . S
O678 Li618 1.956 . S
O678 Li619 1.970 . S
O678 C648 1.325 . S
O679 Li617 1.961 . S
O679 Li618 1.970 . S
O679 Li619 1.956 . S
O679 C654 1.325 . S
H680 C622 0.929 . S
H681 C623 0.930 . S
H682 C624 0.930 . S
H683 C625 0.930 . S
H684 C627 0.930 . S
H685 C629 0.929 . S
H686 C630 0.930 . S
H687 C631 0.930 . S
H688 C634 0.930 . S
H689 C637 0.929 . S
H690 C642 0.929 . S
H691 C643 0.930 . S
H692 C650 0.929 . S
H693 C651 0.930 . S
H694 C652 0.930 . S
H695 C653 0.930 . S
H696 C655 0.929 . S
H697 C656 0.930 . S
H698 C657 0.930 . S
H699 C658 0.930 . S
H700 C662 0.929 . S
H701 C664 0.930 . S
H702 C670 0.929 . S
H703 C671 0.930 . S
Li704 N721 1.990 . S
Li704 O764 1.956 . S
Li704 O765 1.970 1_554 S
Li704 O766 1.961 1_554 S
Li705 N729 1.990 . S
Li705 O764 1.970 . S
Li705 O765 1.956 1_554 S
Li705 O767 1.961 1_554 S
Li706 N751 1.990 . S
Li706 O764 1.961 . S
Li706 O766 1.956 1_554 S
Li706 O767 1.970 1_554 S
Li707 N757 1.990 . S
Li707 O765 1.961 . S
Li707 O766 1.970 . S
Li707 O767 1.956 . S
C708 C710 1.348 . S
C708 C711 1.356 . S
C708 O764 1.325 . S
N709 C712 1.314 . S
N709 C713 1.279 . S
C710 C708 1.348 . S
C710 C712 1.353 . S
C710 H768 0.929 . S
C711 C708 1.356 . S
C711 C713 1.358 . S
C711 H769 0.930 . S
C712 N709 1.314 . S
C712 C710 1.353 . S
C712 H770 0.930 . S
C713 N709 1.279 . S
C713 C711 1.358 . S
C713 H771 0.930 . S
C714 C717 1.348 . S
C714 C718 1.356 . S
C714 O765 1.325 . S
C715 N716 1.279 . S
C715 C718 1.358 . S
C715 H772 0.930 . S
N716 C715 1.279 . S
N716 C719 1.314 . S
C717 C714 1.348 . S
C717 C719 1.353 . S
C717 H773 0.929 1_556 S
C718 C714 1.356 . S
C718 C715 1.358 . S
C718 H774 0.930 . S
C719 N716 1.314 . S
C719 C717 1.353 . S
C719 H775 0.930 . S
C720 N721 1.314 1_556 S
C720 C725 1.353 . S
C720 H726 0.930 . S
N721 Li704 1.990 . S
N721 C720 1.314 1_554 S
N721 C723 1.279 . S
C722 C723 1.358 . S
C722 C724 1.356 . S
C722 H776 0.930 . S
C723 N721 1.279 . S
C723 C722 1.358 . S
C723 H727 0.930 . S
C724 C722 1.356 . S
C724 C725 1.348 1_554 S
C725 C720 1.353 . S
C725 C724 1.348 1_556 S
C725 H777 0.929 . S
H726 C720 0.930 . S
H727 C723 0.930 . S
C728 N729 1.314 . S
C728 C730 1.353 . S
C728 H734 0.930 . S
N729 Li705 1.990 . S
N729 C728 1.314 . S
N729 C732 1.279 . S
C730 C728 1.353 . S
C730 C733 1.348 . S
C730 H778 0.929 . S
C731 C732 1.358 . S
C731 C733 1.356 . S
C731 H779 0.930 . S
C732 N729 1.279 . S
C732 C731 1.358 . S
C732 H735 0.930 . S
C733 C730 1.348 . S
C733 C731 1.356 . S
H734 C728 0.930 . S
H735 C732 0.930 . S
C736 C738 1.348 . S
C736 C739 1.356 . S
C736 O766 1.325 . S
N737 C740 1.314 . S
N737 C741 1.279 . S
C738 C736 1.348 . S
C738 C740 1.353 . S
C738 H780 0.929 . S
C739 C736 1.356 . S
C739 C741 1.358 . S
C739 H781 0.930 . S
C740 N737 1.314 . S
C740 C738 1.353 . S
C740 H782 0.930 . S
C741 N737 1.279 . S
C741 C739 1.358 . S
C741 H783 0.930 . S
C742 C743 1.348 . S
C742 C744 1.356 . S
C742 O767 1.325 . S
C743 C742 1.348 . S
C743 C745 1.353 . S
C743 H784 0.929 . S
C744 C742 1.356 . S
C744 C746 1.358 . S
C744 H785 0.930 . S
C745 C743 1.353 . S
C745 N747 1.314 . S
C745 H786 0.930 . S
C746 C744 1.358 . S
C746 N747 1.279 . S
C746 H787 0.930 . S
N747 C745 1.314 . S
N747 C746 1.279 . S
C748 C750 1.353 . S
C748 N751 1.314 . S
C748 H754 0.930 . S
C749 N751 1.279 1_556 S
C749 C752 1.358 1_556 S
C749 H755 0.930 . S
C750 C748 1.353 . S
C750 C753 1.348 . S
C750 H788 0.929 . S
N751 Li706 1.990 . S
N751 C748 1.314 . S
N751 C749 1.279 1_554 S
C752 C749 1.358 1_554 S
C752 C753 1.356 . S
C752 H789 0.930 1_554 S
C753 C750 1.348 . S
C753 C752 1.356 . S
H754 C748 0.930 . S
H755 C749 0.930 . S
C756 N757 1.314 . S
C756 C758 1.353 . S
C756 H762 0.930 . S
N757 Li707 1.990 . S
N757 C756 1.314 . S
N757 C760 1.279 . S
C758 C756 1.353 . S
C758 C761 1.348 . S
C758 H790 0.929 . S
C759 C760 1.358 . S
C759 C761 1.356 . S
C759 H791 0.930 . S
C760 N757 1.279 . S
C760 C759 1.358 . S
C760 H763 0.930 . S
C761 C758 1.348 . S
C761 C759 1.356 . S
H762 C756 0.930 . S
H763 C760 0.930 . S
O764 Li704 1.956 . S
O764 Li705 1.970 . S
O764 Li706 1.961 . S
O764 C708 1.325 . S
O765 Li704 1.970 1_556 S
O765 Li705 1.956 1_556 S
O765 Li707 1.961 . S
O765 C714 1.325 . S
O766 Li704 1.961 1_556 S
O766 Li706 1.956 1_556 S
O766 Li707 1.970 . S
O766 C736 1.325 . S
O767 Li705 1.961 1_556 S
O767 Li706 1.970 1_556 S
O767 Li707 1.956 . S
O767 C742 1.325 . S
H768 C710 0.929 . S
H769 C711 0.930 . S
H770 C712 0.930 . S
H771 C713 0.930 . S
H772 C715 0.930 . S
H773 C717 0.929 1_554 S
H774 C718 0.930 . S
H775 C719 0.930 . S
H776 C722 0.930 . S
H777 C725 0.929 . S
H778 C730 0.929 . S
H779 C731 0.930 . S
H780 C738 0.929 . S
H781 C739 0.930 . S
H782 C740 0.930 . S
H783 C741 0.930 . S
H784 C743 0.929 . S
H785 C744 0.930 . S
H786 C745 0.930 . S
H787 C746 0.930 . S
H788 C750 0.929 . S
H789 C752 0.930 1_556 S
H790 C758 0.929 . S
H791 C759 0.930 . S
Li792 N809 1.990 . S
Li792 O852 1.956 . S
Li792 O853 1.970 . S
Li792 O854 1.961 . S
Li793 N817 1.990 . S
Li793 O852 1.970 . S
Li793 O853 1.956 . S
Li793 O855 1.961 . S
Li794 N839 1.990 . S
Li794 O852 1.961 . S
Li794 O854 1.956 . S
Li794 O855 1.970 . S
Li795 N845 1.990 . S
Li795 O853 1.961 . S
Li795 O854 1.970 . S
Li795 O855 1.956 . S
C796 C798 1.348 . S
C796 C799 1.356 . S
C796 O852 1.325 . S
N797 C800 1.314 . S
N797 C801 1.279 . S
C798 C796 1.348 . S
C798 C800 1.353 . S
C798 H856 0.929 . S
C799 C796 1.356 . S
C799 C801 1.358 . S
C799 H857 0.930 . S
C800 N797 1.314 . S
C800 C798 1.353 . S
C800 H858 0.930 . S
C801 N797 1.279 . S
C801 C799 1.358 . S
C801 H859 0.930 . S
C802 C805 1.348 . S
C802 C806 1.356 . S
C802 O853 1.325 . S
C803 N804 1.279 . S
C803 C806 1.358 . S
C803 H860 0.930 . S
N804 C803 1.279 . S
N804 C807 1.314 . S
C805 C802 1.348 . S
C805 C807 1.353 . S
C805 H861 0.929 . S
C806 C802 1.356 . S
C806 C803 1.358 . S
C806 H862 0.930 . S
C807 N804 1.314 . S
C807 C805 1.353 . S
C807 H863 0.930 . S
C808 N809 1.314 . S
C808 C813 1.353 . S
C808 H814 0.930 . S
N809 Li792 1.990 . S
N809 C808 1.314 . S
N809 C811 1.279 . S
C810 C811 1.358 . S
C810 C812 1.356 . S
C810 H864 0.930 . S
C811 N809 1.279 . S
C811 C810 1.358 . S
C811 H815 0.930 . S
C812 C810 1.356 . S
C812 C813 1.348 . S
C813 C808 1.353 . S
C813 C812 1.348 . S
C813 H865 0.929 . S
H814 C808 0.930 . S
H815 C811 0.930 . S
C816 N817 1.314 . S
C816 C818 1.353 . S
C816 H822 0.930 . S
N817 Li793 1.990 . S
N817 C816 1.314 . S
N817 C820 1.279 . S
C818 C816 1.353 . S
C818 C821 1.348 . S
C818 H866 0.929 . S
C819 C820 1.358 . S
C819 C821 1.356 . S
C819 H867 0.930 . S
C820 N817 1.279 . S
C820 C819 1.358 . S
C820 H823 0.930 . S
C821 C818 1.348 . S
C821 C819 1.356 . S
H822 C816 0.930 . S
H823 C820 0.930 . S
C824 C826 1.348 . S
C824 C827 1.356 . S
C824 O854 1.325 . S
N825 C828 1.314 . S
N825 C829 1.279 . S
C826 C824 1.348 . S
C826 C828 1.353 . S
C826 H868 0.929 . S
C827 C824 1.356 . S
C827 C829 1.358 . S
C827 H869 0.930 . S
C828 N825 1.314 . S
C828 C826 1.353 . S
C828 H870 0.930 . S
C829 N825 1.279 . S
C829 C827 1.358 . S
C829 H871 0.930 . S
C830 C831 1.348 . S
C830 C832 1.356 . S
C830 O855 1.325 . S
C831 C830 1.348 . S
C831 C833 1.353 . S
C831 H872 0.929 . S
C832 C830 1.356 . S
C832 C834 1.358 . S
C832 H873 0.930 . S
C833 C831 1.353 . S
C833 N835 1.314 . S
C833 H874 0.930 . S
C834 C832 1.358 . S
C834 N835 1.279 . S
C834 H875 0.930 . S
N835 C833 1.314 . S
N835 C834 1.279 . S
C836 C838 1.353 . S
C836 N839 1.314 . S
C836 H842 0.930 . S
C837 N839 1.279 . S
C837 C840 1.358 . S
C837 H843 0.930 . S
C838 C836 1.353 . S
C838 C841 1.348 . S
C838 H876 0.929 . S
N839 Li794 1.990 . S
N839 C836 1.314 . S
N839 C837 1.279 . S
C840 C837 1.358 . S
C840 C841 1.356 . S
C840 H877 0.930 . S
C841 C838 1.348 . S
C841 C840 1.356 . S
H842 C836 0.930 . S
H843 C837 0.930 . S
C844 N845 1.314 . S
C844 C846 1.353 . S
C844 H850 0.930 . S
N845 Li795 1.990 . S
N845 C844 1.314 . S
N845 C848 1.279 . S
C846 C844 1.353 . S
C846 C849 1.348 . S
C846 H878 0.929 . S
C847 C848 1.358 . S
C847 C849 1.356 . S
C847 H879 0.930 . S
C848 N845 1.279 . S
C848 C847 1.358 . S
C848 H851 0.930 . S
C849 C846 1.348 . S
C849 C847 1.356 . S
H850 C844 0.930 . S
H851 C848 0.930 . S
O852 Li792 1.956 . S
O852 Li793 1.970 . S
O852 Li794 1.961 . S
O852 C796 1.325 . S
O853 Li792 1.970 . S
O853 Li793 1.956 . S
O853 Li795 1.961 . S
O853 C802 1.325 . S
O854 Li792 1.961 . S
O854 Li794 1.956 . S
O854 Li795 1.970 . S
O854 C824 1.325 . S
O855 Li793 1.961 . S
O855 Li794 1.970 . S
O855 Li795 1.956 . S
O855 C830 1.325 . S
H856 C798 0.929 . S
H857 C799 0.930 . S
H858 C800 0.930 . S
H859 C801 0.930 . S
H860 C803 0.930 . S
H861 C805 0.929 . S
H862 C806 0.930 . S
H863 C807 0.930 . S
H864 C810 0.930 . S
H865 C813 0.929 . S
H866 C818 0.929 . S
H867 C819 0.930 . S
H868 C826 0.929 . S
H869 C827 0.930 . S
H870 C828 0.930 . S
H871 C829 0.930 . S
H872 C831 0.929 . S
H873 C832 0.930 . S
H874 C833 0.930 . S
H875 C834 0.930 . S
H876 C838 0.929 . S
H877 C840 0.930 . S
H878 C846 0.929 . S
H879 C847 0.930 . S
Li880 N897 1.990 . S
Li880 O940 1.956 . S
Li880 O941 1.970 . S
Li880 O942 1.961 . S
Li881 N905 1.990 . S
Li881 O940 1.970 . S
Li881 O941 1.956 . S
Li881 O943 1.961 . S
Li882 N927 1.990 . S
Li882 O940 1.961 . S
Li882 O942 1.956 . S
Li882 O943 1.970 . S
Li883 N933 1.990 . S
Li883 O941 1.961 . S
Li883 O942 1.970 . S
Li883 O943 1.956 . S
C884 C886 1.348 . S
C884 C887 1.356 . S
C884 O940 1.325 . S
N885 C888 1.314 . S
N885 C889 1.279 . S
C886 C884 1.348 . S
C886 C888 1.353 . S
C886 H944 0.929 . S
C887 C884 1.356 . S
C887 C889 1.358 . S
C887 H945 0.930 . S
C888 N885 1.314 . S
C888 C886 1.353 . S
C888 H946 0.930 . S
C889 N885 1.279 . S
C889 C887 1.358 . S
C889 H947 0.930 . S
C890 C893 1.348 . S
C890 C894 1.356 . S
C890 O941 1.325 . S
C891 N892 1.279 . S
C891 C894 1.358 . S
C891 H948 0.930 . S
N892 C891 1.279 . S
N892 C895 1.314 . S
C893 C890 1.348 . S
C893 C895 1.353 . S
C893 H949 0.929 . S
C894 C890 1.356 . S
C894 C891 1.358 . S
C894 H950 0.930 . S
C895 N892 1.314 . S
C895 C893 1.353 . S
C895 H951 0.930 . S
C896 N897 1.314 . S
C896 C901 1.353 . S
C896 H902 0.930 . S
N897 Li880 1.990 . S
N897 C896 1.314 . S
N897 C899 1.279 . S
C898 C899 1.358 . S
C898 C900 1.356 . S
C898 H952 0.930 . S
C899 N897 1.279 . S
C899 C898 1.358 . S
C899 H903 0.930 . S
C900 C898 1.356 . S
C900 C901 1.348 . S
C901 C896 1.353 . S
C901 C900 1.348 . S
C901 H953 0.929 . S
H902 C896 0.930 . S
H903 C899 0.930 . S
C904 N905 1.314 . S
C904 C906 1.353 . S
C904 H910 0.930 . S
N905 Li881 1.990 . S
N905 C904 1.314 . S
N905 C908 1.279 . S
C906 C904 1.353 . S
C906 C909 1.348 . S
C906 H954 0.929 . S
C907 C908 1.358 . S
C907 C909 1.356 . S
C907 H955 0.930 . S
C908 N905 1.279 . S
C908 C907 1.358 . S
C908 H911 0.930 . S
C909 C906 1.348 . S
C909 C907 1.356 . S
H910 C904 0.930 . S
H911 C908 0.930 . S
C912 C914 1.348 . S
C912 C915 1.356 . S
C912 O942 1.325 . S
N913 C916 1.314 . S
N913 C917 1.279 . S
C914 C912 1.348 . S
C914 C916 1.353 . S
C914 H956 0.929 . S
C915 C912 1.356 . S
C915 C917 1.358 . S
C915 H957 0.930 . S
C916 N913 1.314 . S
C916 C914 1.353 . S
C916 H958 0.930 . S
C917 N913 1.279 . S
C917 C915 1.358 . S
C917 H959 0.930 . S
C918 C919 1.348 . S
C918 C920 1.356 . S
C918 O943 1.325 . S
C919 C918 1.348 . S
C919 C921 1.353 . S
C919 H960 0.929 . S
C920 C918 1.356 . S
C920 C922 1.358 . S
C920 H961 0.930 . S
C921 C919 1.353 . S
C921 N923 1.314 . S
C921 H962 0.930 . S
C922 C920 1.358 . S
C922 N923 1.279 . S
C922 H963 0.930 . S
N923 C921 1.314 . S
N923 C922 1.279 . S
C924 C926 1.353 . S
C924 N927 1.314 . S
C924 H930 0.930 . S
C925 N927 1.279 . S
C925 C928 1.358 . S
C925 H931 0.930 . S
C926 C924 1.353 . S
C926 C929 1.348 . S
C926 H964 0.929 . S
N927 Li882 1.990 . S
N927 C924 1.314 . S
N927 C925 1.279 . S
C928 C925 1.358 . S
C928 C929 1.356 . S
C928 H965 0.930 . S
C929 C926 1.348 . S
C929 C928 1.356 . S
H930 C924 0.930 . S
H931 C925 0.930 . S
C932 N933 1.314 . S
C932 C934 1.353 . S
C932 H938 0.930 . S
N933 Li883 1.990 . S
N933 C932 1.314 . S
N933 C936 1.279 . S
C934 C932 1.353 . S
C934 C937 1.348 . S
C934 H966 0.929 . S
C935 C936 1.358 . S
C935 C937 1.356 . S
C935 H967 0.930 . S
C936 N933 1.279 . S
C936 C935 1.358 . S
C936 H939 0.930 . S
C937 C934 1.348 . S
C937 C935 1.356 . S
H938 C932 0.930 . S
H939 C936 0.930 . S
O940 Li880 1.956 . S
O940 Li881 1.970 . S
O940 Li882 1.961 . S
O940 C884 1.325 . S
O941 Li880 1.970 . S
O941 Li881 1.956 . S
O941 Li883 1.961 . S
O941 C890 1.325 . S
O942 Li880 1.961 . S
O942 Li882 1.956 . S
O942 Li883 1.970 . S
O942 C912 1.325 . S
O943 Li881 1.961 . S
O943 Li882 1.970 . S
O943 Li883 1.956 . S
O943 C918 1.325 . S
H944 C886 0.929 . S
H945 C887 0.930 . S
H946 C888 0.930 . S
H947 C889 0.930 . S
H948 C891 0.930 . S
H949 C893 0.929 . S
H950 C894 0.930 . S
H951 C895 0.930 . S
H952 C898 0.930 . S
H953 C901 0.929 . S
H954 C906 0.929 . S
H955 C907 0.930 . S
H956 C914 0.929 . S
H957 C915 0.930 . S
H958 C916 0.930 . S
H959 C917 0.930 . S
H960 C919 0.929 . S
H961 C920 0.930 . S
H962 C921 0.930 . S
H963 C922 0.930 . S
H964 C926 0.929 . S
H965 C928 0.930 . S
H966 C934 0.929 . S
H967 C935 0.930 . S
Li968 N985 1.990 . S
Li968 O1028 1.956 . S
Li968 O1029 1.970 1_554 S
Li968 O1030 1.961 1_554 S
Li969 N993 1.990 . S
Li969 O1028 1.970 . S
Li969 O1029 1.956 1_554 S
Li969 O1031 1.961 1_554 S
Li970 N1015 1.990 . S
Li970 O1028 1.961 . S
Li970 O1030 1.956 1_554 S
Li970 O1031 1.970 1_554 S
Li971 N1021 1.990 . S
Li971 O1029 1.961 . S
Li971 O1030 1.970 . S
Li971 O1031 1.956 . S
C972 C974 1.348 . S
C972 C975 1.356 . S
C972 O1028 1.325 . S
N973 C976 1.314 . S
N973 C977 1.279 . S
C974 C972 1.348 . S
C974 C976 1.353 . S
C974 H1032 0.929 . S
C975 C972 1.356 . S
C975 C977 1.358 . S
C975 H1033 0.930 . S
C976 N973 1.314 . S
C976 C974 1.353 . S
C976 H1034 0.930 . S
C977 N973 1.279 . S
C977 C975 1.358 . S
C977 H1035 0.930 . S
C978 C981 1.348 . S
C978 C982 1.356 . S
C978 O1029 1.325 . S
C979 N980 1.279 . S
C979 C982 1.358 . S
C979 H1036 0.930 . S
N980 C979 1.279 . S
N980 C983 1.314 . S
C981 C978 1.348 . S
C981 C983 1.353 . S
C981 H1037 0.929 1_556 S
C982 C978 1.356 . S
C982 C979 1.358 . S
C982 H1038 0.930 . S
C983 N980 1.314 . S
C983 C981 1.353 . S
C983 H1039 0.930 . S
C984 N985 1.314 1_556 S
C984 C989 1.353 . S
C984 H990 0.930 . S
N985 Li968 1.990 . S
N985 C984 1.314 1_554 S
N985 C987 1.279 . S
C986 C987 1.358 . S
C986 C988 1.356 . S
C986 H1040 0.930 . S
C987 N985 1.279 . S
C987 C986 1.358 . S
C987 H991 0.930 . S
C988 C986 1.356 . S
C988 C989 1.348 1_554 S
C989 C984 1.353 . S
C989 C988 1.348 1_556 S
C989 H1041 0.929 . S
H990 C984 0.930 . S
H991 C987 0.930 . S
C992 N993 1.314 . S
C992 C994 1.353 . S
C992 H998 0.930 . S
N993 Li969 1.990 . S
N993 C992 1.314 . S
N993 C996 1.279 . S
C994 C992 1.353 . S
C994 C997 1.348 . S
C994 H1042 0.929 . S
C995 C996 1.358 . S
C995 C997 1.356 . S
C995 H1043 0.930 . S
C996 N993 1.279 . S
C996 C995 1.358 . S
C996 H999 0.930 . S
C997 C994 1.348 . S
C997 C995 1.356 . S
H998 C992 0.930 . S
H999 C996 0.930 . S
C1000 C1002 1.348 . S
C1000 C1003 1.356 . S
C1000 O1030 1.325 . S
N1001 C1004 1.314 . S
N1001 C1005 1.279 . S
C1002 C1000 1.348 . S
C1002 C1004 1.353 . S
C1002 H1044 0.929 . S
C1003 C1000 1.356 . S
C1003 C1005 1.358 . S
C1003 H1045 0.930 . S
C1004 N1001 1.314 . S
C1004 C1002 1.353 . S
C1004 H1046 0.930 . S
C1005 N1001 1.279 . S
C1005 C1003 1.358 . S
C1005 H1047 0.930 . S
C1006 C1007 1.348 . S
C1006 C1008 1.356 . S
C1006 O1031 1.325 . S
C1007 C1006 1.348 . S
C1007 C1009 1.353 . S
C1007 H1048 0.929 . S
C1008 C1006 1.356 . S
C1008 C1010 1.358 . S
C1008 H1049 0.930 . S
C1009 C1007 1.353 . S
C1009 N1011 1.314 . S
C1009 H1050 0.930 . S
C1010 C1008 1.358 . S
C1010 N1011 1.279 . S
C1010 H1051 0.930 . S
N1011 C1009 1.314 . S
N1011 C1010 1.279 . S
C1012 C1014 1.353 . S
C1012 N1015 1.314 . S
C1012 H1018 0.930 . S
C1013 N1015 1.279 1_556 S
C1013 C1016 1.358 1_556 S
C1013 H1019 0.930 . S
C1014 C1012 1.353 . S
C1014 C1017 1.348 . S
C1014 H1052 0.929 . S
N1015 Li970 1.990 . S
N1015 C1012 1.314 . S
N1015 C1013 1.279 1_554 S
C1016 C1013 1.358 1_554 S
C1016 C1017 1.356 . S
C1016 H1053 0.930 1_554 S
C1017 C1014 1.348 . S
C1017 C1016 1.356 . S
H1018 C1012 0.930 . S
H1019 C1013 0.930 . S
C1020 N1021 1.314 . S
C1020 C1022 1.353 . S
C1020 H1026 0.930 . S
N1021 Li971 1.990 . S
N1021 C1020 1.314 . S
N1021 C1024 1.279 . S
C1022 C1020 1.353 . S
C1022 C1025 1.348 . S
C1022 H1054 0.929 . S
C1023 C1024 1.358 . S
C1023 C1025 1.356 . S
C1023 H1055 0.930 . S
C1024 N1021 1.279 . S
C1024 C1023 1.358 . S
C1024 H1027 0.930 . S
C1025 C1022 1.348 . S
C1025 C1023 1.356 . S
H1026 C1020 0.930 . S
H1027 C1024 0.930 . S
O1028 Li968 1.956 . S
O1028 Li969 1.970 . S
O1028 Li970 1.961 . S
O1028 C972 1.325 . S
O1029 Li968 1.970 1_556 S
O1029 Li969 1.956 1_556 S
O1029 Li971 1.961 . S
O1029 C978 1.325 . S
O1030 Li968 1.961 1_556 S
O1030 Li970 1.956 1_556 S
O1030 Li971 1.970 . S
O1030 C1000 1.325 . S
O1031 Li969 1.961 1_556 S
O1031 Li970 1.970 1_556 S
O1031 Li971 1.956 . S
O1031 C1006 1.325 . S
H1032 C974 0.929 . S
H1033 C975 0.930 . S
H1034 C976 0.930 . S
H1035 C977 0.930 . S
H1036 C979 0.930 . S
H1037 C981 0.929 1_554 S
H1038 C982 0.930 . S
H1039 C983 0.930 . S
H1040 C986 0.930 . S
H1041 C989 0.929 . S
H1042 C994 0.929 . S
H1043 C995 0.930 . S
H1044 C1002 0.929 . S
H1045 C1003 0.930 . S
H1046 C1004 0.930 . S
H1047 C1005 0.930 . S
H1048 C1007 0.929 . S
H1049 C1008 0.930 . S
H1050 C1009 0.930 . S
H1051 C1010 0.930 . S
H1052 C1014 0.929 . S
H1053 C1016 0.930 1_556 S
H1054 C1022 0.929 . S
H1055 C1023 0.930 . S
H1056 C1062 0.930 . S
H1057 C1065 0.930 . S
H1058 C1066 0.930 . S
H1059 C1067 0.930 . S
H1060 C1070 0.930 . S
H1061 C1071 0.930 . S
C1062 H1056 0.930 . S
C1062 C1063 1.355 . S
C1062 C1064 1.415 . S
C1063 C1062 1.355 . S
C1063 C1065 1.419 . S
C1064 C1062 1.415 . S
C1064 C1069 1.425 . S
C1064 C1071 1.409 . S
C1065 H1057 0.930 . S
C1065 C1063 1.419 . S
C1065 C1066 1.362 . S
C1066 H1058 0.930 . S
C1066 C1065 1.362 . S
C1066 C1069 1.409 . S
C1067 H1059 0.930 . S
C1067 C1068 1.355 . S
C1067 C1069 1.415 . S
C1068 C1067 1.355 . S
C1068 C1070 1.419 . S
C1069 C1064 1.425 . S
C1069 C1066 1.409 . S
C1069 C1067 1.415 . S
C1070 H1060 0.930 . S
C1070 C1068 1.419 . S
C1070 C1071 1.362 . S
C1071 H1061 0.930 . S
C1071 C1064 1.409 . S
C1071 C1070 1.362 . S
H1072 C1078 0.930 . S
H1073 C1081 0.930 . S
H1074 C1082 0.930 . S
H1075 C1083 0.930 . S
H1076 C1086 0.930 . S
H1077 C1087 0.930 . S
C1078 H1072 0.930 . S
C1078 C1079 1.355 . S
C1078 C1080 1.415 . S
C1079 C1078 1.355 . S
C1079 C1081 1.419 . S
C1080 C1078 1.415 . S
C1080 C1085 1.425 . S
C1080 C1087 1.409 . S
C1081 H1073 0.930 . S
C1081 C1079 1.419 . S
C1081 C1082 1.362 . S
C1082 H1074 0.930 . S
C1082 C1081 1.362 . S
C1082 C1085 1.409 . S
C1083 H1075 0.930 . S
C1083 C1084 1.355 . S
C1083 C1085 1.415 . S
C1084 C1083 1.355 . S
C1084 C1086 1.419 . S
C1085 C1080 1.425 . S
C1085 C1082 1.409 . S
C1085 C1083 1.415 . S
C1086 H1076 0.930 . S
C1086 C1084 1.419 . S
C1086 C1087 1.362 . S
C1087 H1077 0.930 . S
C1087 C1080 1.409 . S
C1087 C1086 1.362 . S
H1088 C1094 0.930 . S
H1089 C1097 0.930 . S
H1090 C1098 0.930 . S
H1091 C1099 0.930 . S
H1092 C1102 0.930 . S
H1093 C1103 0.930 . S
C1094 H1088 0.930 . S
C1094 C1095 1.355 . S
C1094 C1096 1.415 . S
C1095 C1094 1.355 . S
C1095 C1097 1.419 1_556 S
C1096 C1094 1.415 . S
C1096 C1101 1.425 1_556 S
C1096 C1103 1.409 . S
C1097 H1089 0.930 . S
C1097 C1095 1.419 1_554 S
C1097 C1098 1.362 . S
C1098 H1090 0.930 . S
C1098 C1097 1.362 . S
C1098 C1101 1.409 . S
C1099 H1091 0.930 . S
C1099 C1100 1.355 . S
C1099 C1101 1.415 . S
C1100 C1099 1.355 . S
C1100 C1102 1.419 1_554 S
C1101 C1096 1.425 1_554 S
C1101 C1098 1.409 . S
C1101 C1099 1.415 . S
C1102 H1092 0.930 . S
C1102 C1100 1.419 1_556 S
C1102 C1103 1.362 . S
C1103 H1093 0.930 . S
C1103 C1096 1.409 . S
C1103 C1102 1.362 . S
H1104 C1110 0.930 . S
H1105 C1113 0.930 . S
H1106 C1114 0.930 . S
H1107 C1115 0.930 . S
H1108 C1118 0.930 . S
H1109 C1119 0.930 . S
C1110 H1104 0.930 . S
C1110 C1111 1.355 . S
C1110 C1112 1.415 . S
C1111 C1110 1.355 . S
C1111 C1113 1.419 . S
C1112 C1110 1.415 . S
C1112 C1117 1.425 . S
C1112 C1119 1.409 . S
C1113 H1105 0.930 . S
C1113 C1111 1.419 . S
C1113 C1114 1.362 . S
C1114 H1106 0.930 . S
C1114 C1113 1.362 . S
C1114 C1117 1.409 . S
C1115 H1107 0.930 . S
C1115 C1116 1.355 . S
C1115 C1117 1.415 . S
C1116 C1115 1.355 . S
C1116 C1118 1.419 . S
C1117 C1112 1.425 . S
C1117 C1114 1.409 . S
C1117 C1115 1.415 . S
C1118 H1108 0.930 . S
C1118 C1116 1.419 . S
C1118 C1119 1.362 . S
C1119 H1109 0.930 . S
C1119 C1112 1.409 . S
C1119 C1118 1.362 . S
H1120 C1126 0.930 . S
H1121 C1129 0.930 . S
H1122 C1130 0.930 . S
H1123 C1131 0.930 . S
H1124 C1134 0.930 . S
H1125 C1135 0.930 . S
C1126 H1120 0.930 . S
C1126 C1127 1.355 . S
C1126 C1128 1.415 . S
C1127 C1126 1.355 . S
C1127 C1129 1.419 . S
C1128 C1126 1.415 . S
C1128 C1133 1.425 . S
C1128 C1135 1.409 . S
C1129 H1121 0.930 . S
C1129 C1127 1.419 . S
C1129 C1130 1.362 . S
C1130 H1122 0.930 . S
C1130 C1129 1.362 . S
C1130 C1133 1.409 . S
C1131 H1123 0.930 . S
C1131 C1132 1.355 . S
C1131 C1133 1.415 . S
C1132 C1131 1.355 . S
C1132 C1134 1.419 . S
C1133 C1128 1.425 . S
C1133 C1130 1.409 . S
C1133 C1131 1.415 . S
C1134 H1124 0.930 . S
C1134 C1132 1.419 . S
C1134 C1135 1.362 . S
C1135 H1125 0.930 . S
C1135 C1128 1.409 . S
C1135 C1134 1.362 . S
H1136 C1142 0.930 . S
H1137 C1145 0.930 . S
H1138 C1146 0.930 . S
H1139 C1147 0.930 . S
H1140 C1150 0.930 . S
H1141 C1151 0.930 . S
C1142 H1136 0.930 . S
C1142 C1143 1.355 . S
C1142 C1144 1.415 . S
C1143 C1142 1.355 . S
C1143 C1145 1.419 1_554 S
C1144 C1142 1.415 . S
C1144 C1149 1.425 1_554 S
C1144 C1151 1.409 . S
C1145 H1137 0.930 . S
C1145 C1143 1.419 1_556 S
C1145 C1146 1.362 . S
C1146 H1138 0.930 . S
C1146 C1145 1.362 . S
C1146 C1149 1.409 . S
C1147 H1139 0.930 . S
C1147 C1148 1.355 . S
C1147 C1149 1.415 . S
C1148 C1147 1.355 . S
C1148 C1150 1.419 1_556 S
C1149 C1144 1.425 1_556 S
C1149 C1146 1.409 . S
C1149 C1147 1.415 . S
C1150 H1140 0.930 . S
C1150 C1148 1.419 1_554 S
C1150 C1151 1.362 . S
C1151 H1141 0.930 . S
C1151 C1144 1.409 . S
C1151 C1150 1.362 . S
H1152 C1158 0.930 . S
H1153 C1161 0.930 . S
H1154 C1162 0.930 . S
H1155 C1163 0.930 . S
H1156 C1166 0.930 . S
H1157 C1167 0.930 . S
C1158 H1152 0.930 . S
C1158 C1159 1.355 . S
C1158 C1160 1.415 . S
C1159 C1158 1.355 . S
C1159 C1161 1.419 . S
C1160 C1158 1.415 . S
C1160 C1165 1.425 . S
C1160 C1167 1.409 . S
C1161 H1153 0.930 . S
C1161 C1159 1.419 . S
C1161 C1162 1.362 . S
C1162 H1154 0.930 . S
C1162 C1161 1.362 . S
C1162 C1165 1.409 . S
C1163 H1155 0.930 . S
C1163 C1164 1.355 . S
C1163 C1165 1.415 . S
C1164 C1163 1.355 . S
C1164 C1166 1.419 . S
C1165 C1160 1.425 . S
C1165 C1162 1.409 . S
C1165 C1163 1.415 . S
C1166 H1156 0.930 . S
C1166 C1164 1.419 . S
C1166 C1167 1.362 . S
C1167 H1157 0.930 . S
C1167 C1160 1.409 . S
C1167 C1166 1.362 . S
H1168 C1174 0.930 . S
H1169 C1177 0.930 . S
H1170 C1178 0.930 . S
H1171 C1179 0.930 . S
H1172 C1182 0.930 . S
H1173 C1183 0.930 . S
C1174 H1168 0.930 . S
C1174 C1175 1.355 . S
C1174 C1176 1.394 1_655 S
C1175 C1174 1.355 . S
C1175 C1177 1.419 . S
C1176 C1174 1.394 1_455 S
C1176 C1181 1.428 . S
C1176 C1183 1.428 . S
C1177 H1169 0.930 . S
C1177 C1175 1.419 . S
C1177 C1178 1.362 . S
C1178 H1170 0.930 . S
C1178 C1177 1.362 . S
C1178 C1181 1.410 1_655 S
C1179 H1171 0.930 . S
C1179 C1180 1.355 . S
C1179 C1181 1.414 . S
C1180 C1179 1.355 . S
C1180 C1182 1.419 . S
C1181 C1176 1.428 . S
C1181 C1178 1.410 1_455 S
C1181 C1179 1.414 . S
C1182 H1172 0.930 . S
C1182 C1180 1.419 . S
C1182 C1183 1.362 . S
C1183 H1173 0.930 . S
C1183 C1176 1.428 . S
C1183 C1182 1.362 . S
H1184 C1190 0.930 . S
H1185 C1193 0.930 . S
H1186 C1194 0.930 . S
H1187 C1195 0.930 . S
H1188 C1198 0.930 . S
H1189 C1199 0.930 . S
C1190 H1184 0.930 . S
C1190 C1191 1.355 . S
C1190 C1192 1.396 1_545 S
C1191 C1190 1.355 . S
C1191 C1193 1.419 1_554 S
C1192 C1190 1.396 1_565 S
C1192 C1197 1.434 1_564 S
C1192 C1199 1.424 . S
C1193 H1185 0.930 . S
C1193 C1191 1.419 1_556 S
C1193 C1194 1.362 . S
C1194 H1186 0.930 . S
C1194 C1193 1.362 . S
C1194 C1197 1.425 . S
C1195 H1187 0.930 . S
C1195 C1196 1.355 . S
C1195 C1197 1.396 1_565 S
C1196 C1195 1.355 . S
C1196 C1198 1.419 1_556 S
C1197 C1192 1.434 1_546 S
C1197 C1194 1.425 . S
C1197 C1195 1.396 1_545 S
C1198 H1188 0.930 . S
C1198 C1196 1.419 1_554 S
C1198 C1199 1.362 . S
C1199 H1189 0.930 . S
C1199 C1192 1.424 . S
C1199 C1198 1.362 . S
H1200 C1206 0.930 . S
H1201 C1209 0.930 . S
H1202 C1210 0.930 . S
H1203 C1211 0.930 . S
H1204 C1214 0.930 . S
H1205 C1215 0.930 . S
C1206 H1200 0.930 . S
C1206 C1207 1.355 . S
C1206 C1208 1.415 . S
C1207 C1206 1.355 . S
C1207 C1209 1.419 . S
C1208 C1206 1.415 . S
C1208 C1213 1.425 . S
C1208 C1215 1.409 . S
C1209 H1201 0.930 . S
C1209 C1207 1.419 . S
C1209 C1210 1.362 . S
C1210 H1202 0.930 . S
C1210 C1209 1.362 . S
C1210 C1213 1.409 . S
C1211 H1203 0.930 . S
C1211 C1212 1.355 . S
C1211 C1213 1.415 . S
C1212 C1211 1.355 . S
C1212 C1214 1.419 . S
C1213 C1208 1.425 . S
C1213 C1210 1.409 . S
C1213 C1211 1.415 . S
C1214 H1204 0.930 . S
C1214 C1212 1.419 . S
C1214 C1215 1.362 . S
C1215 H1205 0.930 . S
C1215 C1208 1.409 . S
C1215 C1214 1.362 . S
H1216 C1222 0.930 . S
H1217 C1225 0.930 . S
H1218 C1226 0.930 . S
H1219 C1227 0.930 . S
H1220 C1230 0.930 . S
H1221 C1231 0.930 . S
C1222 H1216 0.930 . S
C1222 C1223 1.355 . S
C1222 C1224 1.415 . S
C1223 C1222 1.355 . S
C1223 C1225 1.419 . S
C1224 C1222 1.415 . S
C1224 C1229 1.425 1_455 S
C1224 C1231 1.409 1_455 S
C1225 H1217 0.930 . S
C1225 C1223 1.419 . S
C1225 C1226 1.362 . S
C1226 H1218 0.930 . S
C1226 C1225 1.362 . S
C1226 C1229 1.409 1_455 S
C1227 H1219 0.930 . S
C1227 C1228 1.355 . S
C1227 C1229 1.415 . S
C1228 C1227 1.355 . S
C1228 C1230 1.419 . S
C1229 C1224 1.425 1_655 S
C1229 C1226 1.409 1_655 S
C1229 C1227 1.415 . S
C1230 H1220 0.930 . S
C1230 C1228 1.419 . S
C1230 C1231 1.362 . S
C1231 H1221 0.930 . S
C1231 C1224 1.409 1_655 S
C1231 C1230 1.362 . S
H1232 C1238 0.930 . S
H1233 C1241 0.930 . S
H1234 C1242 0.930 . S
H1235 C1243 0.930 . S
H1236 C1246 0.930 . S
H1237 C1247 0.930 . S
C1238 H1232 0.930 . S
C1238 C1239 1.355 . S
C1238 C1240 1.417 . S
C1239 C1238 1.355 . S
C1239 C1241 1.419 1_556 S
C1240 C1238 1.417 . S
C1240 C1245 1.424 1_546 S
C1240 C1247 1.408 1_545 S
C1241 H1233 0.930 . S
C1241 C1239 1.419 1_554 S
C1241 C1242 1.362 . S
C1242 H1234 0.930 . S
C1242 C1241 1.362 . S
C1242 C1245 1.407 1_545 S
C1243 H1235 0.930 . S
C1243 C1244 1.355 . S
C1243 C1245 1.417 . S
C1244 C1243 1.355 . S
C1244 C1246 1.419 1_554 S
C1245 C1240 1.424 1_564 S
C1245 C1242 1.407 1_565 S
C1245 C1243 1.417 . S
C1246 H1236 0.930 . S
C1246 C1244 1.419 1_556 S
C1246 C1247 1.362 . S
C1247 H1237 0.930 . S
C1247 C1240 1.408 1_565 S
C1247 C1246 1.362 . S
H1248 C1254 0.930 1_455 S
H1249 C1257 0.930 . S
H1250 C1258 0.930 . S
H1251 C1259 0.930 1_655 S
H1252 C1262 0.930 . S
H1253 C1263 0.930 . S
C1254 H1248 0.930 1_655 S
C1254 C1255 1.355 . S
C1254 C1256 1.415 1_655 S
C1255 C1254 1.355 . S
C1255 C1257 1.419 . S
C1256 C1254 1.415 1_455 S
C1256 C1261 1.425 1_455 S
C1256 C1263 1.409 . S
C1257 H1249 0.930 . S
C1257 C1255 1.419 . S
C1257 C1258 1.362 . S
C1258 H1250 0.930 . S
C1258 C1257 1.362 . S
C1258 C1261 1.409 . S
C1259 H1251 0.930 1_455 S
C1259 C1260 1.355 . S
C1259 C1261 1.415 1_455 S
C1260 C1259 1.355 . S
C1260 C1262 1.419 . S
C1261 C1256 1.425 1_655 S
C1261 C1258 1.409 . S
C1261 C1259 1.415 1_655 S
C1262 H1252 0.930 . S
C1262 C1260 1.419 . S
C1262 C1263 1.362 . S
C1263 H1253 0.930 . S
C1263 C1256 1.409 . S
C1263 C1262 1.362 . S
H1264 C1270 0.930 . S
H1265 C1273 0.930 . S
H1266 C1274 0.930 . S
H1267 C1275 0.930 . S
H1268 C1278 0.930 . S
H1269 C1279 0.930 . S
C1270 H1264 0.930 . S
C1270 C1271 1.355 . S
C1270 C1272 1.415 . S
C1271 C1270 1.355 . S
C1271 C1273 1.419 1_545 S
C1272 C1270 1.415 . S
C1272 C1277 1.425 1_545 S
C1272 C1279 1.409 . S
C1273 H1265 0.930 . S
C1273 C1271 1.419 1_565 S
C1273 C1274 1.362 . S
C1274 H1266 0.930 . S
C1274 C1273 1.362 . S
C1274 C1277 1.409 . S
C1275 H1267 0.930 . S
C1275 C1276 1.355 . S
C1275 C1277 1.415 . S
C1276 C1275 1.355 . S
C1276 C1278 1.419 1_565 S
C1277 C1272 1.425 1_565 S
C1277 C1274 1.409 . S
C1277 C1275 1.415 . S
C1278 H1268 0.930 . S
C1278 C1276 1.419 1_545 S
C1278 C1279 1.362 . S
C1279 H1269 0.930 . S
C1279 C1272 1.409 . S
C1279 C1278 1.362 . S
H1280 C1286 0.930 . S
H1281 C1289 0.930 . S
H1282 C1290 0.930 . S
H1283 C1291 0.930 . S
H1284 C1294 0.930 . S
H1285 C1295 0.930 . S
C1286 H1280 0.930 . S
C1286 C1287 1.355 . S
C1286 C1288 1.415 . S
C1287 C1286 1.355 . S
C1287 C1289 1.419 . S
C1288 C1286 1.415 . S
C1288 C1293 1.425 . S
C1288 C1295 1.409 . S
C1289 H1281 0.930 . S
C1289 C1287 1.419 . S
C1289 C1290 1.362 . S
C1290 H1282 0.930 . S
C1290 C1289 1.362 . S
C1290 C1293 1.409 . S
C1291 H1283 0.930 . S
C1291 C1292 1.355 . S
C1291 C1293 1.415 . S
C1292 C1291 1.355 . S
C1292 C1294 1.419 . S
C1293 C1288 1.425 . S
C1293 C1290 1.409 . S
C1293 C1291 1.415 . S
C1294 H1284 0.930 . S
C1294 C1292 1.419 . S
C1294 C1295 1.362 . S
C1295 H1285 0.930 . S
C1295 C1288 1.409 . S
C1295 C1294 1.362 . S
H1296 C1302 0.930 . S
H1297 C1305 0.930 1_655 S
H1298 C1306 0.930 . S
H1299 C1307 0.930 . S
H1300 C1310 0.936 1_455 S
H1301 C1311 0.930 . S
C1302 H1296 0.930 . S
C1302 C1303 1.355 . S
C1302 C1304 1.415 . S
C1303 C1302 1.355 . S
C1303 C1305 1.419 . S
C1304 C1302 1.415 . S
C1304 C1309 1.425 1_455 S
C1304 C1311 1.409 . S
C1305 H1297 0.930 1_455 S
C1305 C1303 1.419 . S
C1305 C1306 1.362 1_455 S
C1306 H1298 0.930 . S
C1306 C1305 1.362 1_655 S
C1306 C1309 1.409 . S
C1307 H1299 0.930 . S
C1307 C1308 1.355 . S
C1307 C1309 1.415 . S
C1308 C1307 1.355 . S
C1308 C1310 1.432 . S
C1309 C1304 1.425 1_655 S
C1309 C1306 1.409 . S
C1309 C1307 1.415 . S
C1310 H1300 0.936 1_655 S
C1310 C1308 1.432 . S
C1310 C1311 1.345 1_655 S
C1311 H1301 0.930 . S
C1311 C1304 1.409 . S
C1311 C1310 1.345 1_455 S
H1312 C1318 0.930 . S
H1313 C1321 0.930 . S
H1314 C1322 0.930 . S
H1315 C1323 0.930 . S
H1316 C1326 0.930 . S
H1317 C1327 0.930 . S
C1318 H1312 0.930 . S
C1318 C1319 1.355 . S
C1318 C1320 1.415 . S
C1319 C1318 1.355 . S
C1319 C1321 1.419 1_545 S
C1320 C1318 1.415 . S
C1320 C1325 1.425 1_545 S
C1320 C1327 1.409 . S
C1321 H1313 0.930 . S
C1321 C1319 1.419 1_565 S
C1321 C1322 1.362 . S
C1322 H1314 0.930 . S
C1322 C1321 1.362 . S
C1322 C1325 1.409 . S
C1323 H1315 0.930 . S
C1323 C1324 1.355 . S
C1323 C1325 1.415 . S
C1324 C1323 1.355 . S
C1324 C1326 1.419 1_565 S
C1325 C1320 1.425 1_565 S
C1325 C1322 1.409 . S
C1325 C1323 1.415 . S
C1326 H1316 0.930 . S
C1326 C1324 1.419 1_545 S
C1326 C1327 1.362 . S
C1327 H1317 0.930 . S
C1327 C1320 1.409 . S
C1327 C1326 1.362 . S
H1328 C1334 0.930 . S
H1329 C1337 0.930 . S
H1330 C1338 0.930 . S
H1331 C1339 0.930 . S
H1332 C1342 0.930 . S
H1333 C1343 0.930 . S
C1334 H1328 0.930 . S
C1334 C1335 1.355 . S
C1334 C1336 1.415 . S
C1335 C1334 1.355 . S
C1335 C1337 1.419 . S
C1336 C1334 1.415 . S
C1336 C1341 1.425 . S
C1336 C1343 1.409 . S
C1337 H1329 0.930 . S
C1337 C1335 1.419 . S
C1337 C1338 1.362 . S
C1338 H1330 0.930 . S
C1338 C1337 1.362 . S
C1338 C1341 1.409 . S
C1339 H1331 0.930 . S
C1339 C1340 1.355 . S
C1339 C1341 1.415 . S
C1340 C1339 1.355 . S
C1340 C1342 1.419 . S
C1341 C1336 1.425 . S
C1341 C1338 1.409 . S
C1341 C1339 1.415 . S
C1342 H1332 0.930 . S
C1342 C1340 1.419 . S
C1342 C1343 1.362 . S
C1343 H1333 0.930 . S
C1343 C1336 1.409 . S
C1343 C1342 1.362 . S
H1344 C1350 0.930 . S
H1345 C1353 0.930 . S
H1346 C1354 0.930 . S
H1347 C1355 0.930 . S
H1348 C1358 0.930 . S
H1349 C1359 0.930 . S
C1350 H1344 0.930 . S
C1350 C1351 1.355 . S
C1350 C1352 1.415 . S
C1351 C1350 1.355 . S
C1351 C1353 1.419 . S
C1352 C1350 1.415 . S
C1352 C1357 1.425 . S
C1352 C1359 1.409 . S
C1353 H1345 0.930 . S
C1353 C1351 1.419 . S
C1353 C1354 1.362 . S
C1354 H1346 0.930 . S
C1354 C1353 1.362 . S
C1354 C1357 1.409 . S
C1355 H1347 0.930 . S
C1355 C1356 1.355 . S
C1355 C1357 1.415 . S
C1356 C1355 1.355 . S
C1356 C1358 1.419 . S
C1357 C1352 1.425 . S
C1357 C1354 1.409 . S
C1357 C1355 1.415 . S
C1358 H1348 0.930 . S
C1358 C1356 1.419 . S
C1358 C1359 1.362 . S
C1359 H1349 0.930 . S
C1359 C1352 1.409 . S
C1359 C1358 1.362 . S
H1360 C1366 0.930 . S
H1361 C1369 0.930 . S
H1362 C1370 0.930 . S
H1363 C1371 0.930 . S
H1364 C1374 0.930 . S
H1365 C1375 0.930 . S
C1366 H1360 0.930 . S
C1366 C1367 1.355 . S
C1366 C1368 1.415 . S
C1367 C1366 1.355 . S
C1367 C1369 1.419 . S
C1368 C1366 1.415 . S
C1368 C1373 1.425 . S
C1368 C1375 1.409 . S
C1369 H1361 0.930 . S
C1369 C1367 1.419 . S
C1369 C1370 1.362 . S
C1370 H1362 0.930 . S
C1370 C1369 1.362 . S
C1370 C1373 1.409 . S
C1371 H1363 0.930 . S
C1371 C1372 1.355 . S
C1371 C1373 1.415 . S
C1372 C1371 1.355 . S
C1372 C1374 1.419 . S
C1373 C1368 1.425 . S
C1373 C1370 1.409 . S
C1373 C1371 1.415 . S
C1374 H1364 0.930 . S
C1374 C1372 1.419 . S
C1374 C1375 1.362 . S
C1375 H1365 0.930 . S
C1375 C1368 1.409 . S
C1375 C1374 1.362 . S
H1376 C1382 0.930 . S
H1377 C1385 0.930 . S
H1378 C1386 0.930 . S
H1379 C1387 0.930 . S
H1380 C1390 0.930 . S
H1381 C1391 0.930 . S
C1382 H1376 0.930 . S
C1382 C1383 1.355 . S
C1382 C1384 1.415 . S
C1383 C1382 1.355 . S
C1383 C1385 1.419 . S
C1384 C1382 1.415 . S
C1384 C1389 1.425 . S
C1384 C1391 1.409 . S
C1385 H1377 0.930 . S
C1385 C1383 1.419 . S
C1385 C1386 1.362 . S
C1386 H1378 0.930 . S
C1386 C1385 1.362 . S
C1386 C1389 1.409 . S
C1387 H1379 0.930 . S
C1387 C1388 1.355 . S
C1387 C1389 1.415 . S
C1388 C1387 1.355 . S
C1388 C1390 1.419 . S
C1389 C1384 1.425 . S
C1389 C1386 1.409 . S
C1389 C1387 1.415 . S
C1390 H1380 0.930 . S
C1390 C1388 1.419 . S
C1390 C1391 1.362 . S
C1391 H1381 0.930 . S
C1391 C1384 1.409 . S
C1391 C1390 1.362 . S
H1392 C1398 0.930 . S
H1393 C1401 0.930 . S
H1394 C1402 0.930 . S
H1395 C1403 0.930 . S
H1396 C1406 0.930 . S
H1397 C1407 0.930 . S
C1398 H1392 0.930 . S
C1398 C1399 1.355 . S
C1398 C1400 1.415 . S
C1399 C1398 1.355 . S
C1399 C1401 1.419 . S
C1400 C1398 1.415 . S
C1400 C1405 1.425 . S
C1400 C1407 1.409 . S
C1401 H1393 0.930 . S
C1401 C1399 1.419 . S
C1401 C1402 1.362 . S
C1402 H1394 0.930 . S
C1402 C1401 1.362 . S
C1402 C1405 1.409 . S
C1403 H1395 0.930 . S
C1403 C1404 1.355 . S
C1403 C1405 1.415 . S
C1404 C1403 1.355 . S
C1404 C1406 1.419 . S
C1405 C1400 1.425 . S
C1405 C1402 1.409 . S
C1405 C1403 1.415 . S
C1406 H1396 0.930 . S
C1406 C1404 1.419 . S
C1406 C1407 1.362 . S
C1407 H1397 0.930 . S
C1407 C1400 1.409 . S
C1407 C1406 1.362 . S
H1408 C1414 0.930 . S
H1409 C1417 0.930 . S
H1410 C1418 0.930 . S
H1411 C1419 0.930 . S
H1412 C1422 0.930 . S
H1413 C1423 0.930 . S
C1414 H1408 0.930 . S
C1414 C1415 1.355 . S
C1414 C1416 1.415 . S
C1415 C1414 1.355 . S
C1415 C1417 1.419 . S
C1416 C1414 1.415 . S
C1416 C1421 1.425 . S
C1416 C1423 1.409 . S
C1417 H1409 0.930 . S
C1417 C1415 1.419 . S
C1417 C1418 1.362 . S
C1418 H1410 0.930 . S
C1418 C1417 1.362 . S
C1418 C1421 1.409 . S
C1419 H1411 0.930 . S
C1419 C1420 1.355 . S
C1419 C1421 1.415 . S
C1420 C1419 1.355 . S
C1420 C1422 1.419 . S
C1421 C1416 1.425 . S
C1421 C1418 1.409 . S
C1421 C1419 1.415 . S
C1422 H1412 0.930 . S
C1422 C1420 1.419 . S
C1422 C1423 1.362 . S
C1423 H1413 0.930 . S
C1423 C1416 1.409 . S
C1423 C1422 1.362 . S
H1424 C1430 0.930 . S
H1425 C1433 0.930 . S
H1426 C1434 0.930 . S
H1427 C1435 0.930 . S
H1428 C1438 0.930 . S
H1429 C1439 0.930 . S
C1430 H1424 0.930 . S
C1430 C1431 1.355 . S
C1430 C1432 1.415 . S
C1431 C1430 1.355 . S
C1431 C1433 1.419 . S
C1432 C1430 1.415 . S
C1432 C1437 1.425 . S
C1432 C1439 1.409 . S
C1433 H1425 0.930 . S
C1433 C1431 1.419 . S
C1433 C1434 1.362 . S
C1434 H1426 0.930 . S
C1434 C1433 1.362 . S
C1434 C1437 1.409 . S
C1435 H1427 0.930 . S
C1435 C1436 1.355 . S
C1435 C1437 1.415 . S
C1436 C1435 1.355 . S
C1436 C1438 1.419 . S
C1437 C1432 1.425 . S
C1437 C1434 1.409 . S
C1437 C1435 1.415 . S
C1438 H1428 0.930 . S
C1438 C1436 1.419 . S
C1438 C1439 1.362 . S
C1439 H1429 0.930 . S
C1439 C1432 1.409 . S
C1439 C1438 1.362 . S
C1063 C20 1.474 . S
C1068 C585 1.508 . S
C1079 C108 1.515 . S
C1084 C665 1.479 . S
C1095 C205 1.469 . S
C1100 C753 1.480 . S
C1111 C841 1.533 . S
C1116 C293 1.498 . S
C1127 C381 1.541 . S
C1132 C937 1.514 . S
C1143 C1017 1.474 . S
C1148 C460 1.507 . S
C1159 C49 0.676 . S
C1164 C812 0.623 . S
C1175 C137 0.614 . S
C1180 C909 0.582 . S
C1191 C988 0.638 . S
C1196 C233 0.599 . S
C1207 C557 0.643 . S
C1212 C321 0.696 . S
C1223 C409 0.590 . S
C1228 C636 0.634 . S
C1239 C489 0.593 . S
C1244 C724 0.610 . S
C1255 C997 2.174 . S
C1260 C57 2.181 . S
C1271 C145 2.242 . S
C1276 C548 2.242 . S
C1287 C225 2.206 . S
C1292 C645 2.193 . S
C1303 C733 2.201 . S
C1308 C313 2.183 . S
C1319 C821 2.242 . S
C1324 C401 2.232 . S
C1335 C497 2.181 . S
C1340 C900 2.166 . S
C1351 C29 1.437 . S
C1356 C929 1.441 . S
C1367 C1025 1.460 . S
C1372 C117 1.463 . S
C1383 C577 1.339 . S
C1388 C196 1.334 . S
C1399 C284 1.421 . S
C1404 C673 1.412 . S
C1415 C761 1.450 . S
C1420 C372 1.459 . S
C1431 C849 1.402 . S
C1436 C469 1.394 . S
