# Generated by pormake.
# Topology ukv, (4)-cn, num edge types: 1
# Building blocks:
#     Node 0, Type 0, BuildingBlock: CEKHIL_clean_sbu_0, # of connection points: 4
#     Node 1, Type 0, BuildingBlock: CEKHIL_clean_sbu_0, # of connection points: 4
#     Node 2, Type 0, BuildingBlock: CEKHIL_clean_sbu_0, # of connection points: 4
#     Node 3, Type 0, BuildingBlock: CEKHIL_clean_sbu_0, # of connection points: 4
#     Node 4, Type 0, BuildingBlock: CEKHIL_clean_sbu_0, # of connection points: 4
#     Node 5, Type 0, BuildingBlock: CEKHIL_clean_sbu_0, # of connection points: 4
#     Node 6, Type 0, BuildingBlock: CEKHIL_clean_sbu_0, # of connection points: 4
#     Node 7, Type 0, BuildingBlock: CEKHIL_clean_sbu_0, # of connection points: 4
#     Node 8, Type 0, BuildingBlock: CEKHIL_clean_sbu_0, # of connection points: 4
#     Node 9, Type 0, BuildingBlock: CEKHIL_clean_sbu_0, # of connection points: 4
#     Node 10, Type 0, BuildingBlock: CEKHIL_clean_sbu_0, # of connection points: 4
#     Node 11, Type 0, BuildingBlock: CEKHIL_clean_sbu_0, # of connection points: 4
#     Node 12, Type 0, BuildingBlock: CEKHIL_clean_sbu_0, # of connection points: 4
#     Node 13, Type 0, BuildingBlock: CEKHIL_clean_sbu_0, # of connection points: 4
#     Node 14, Type 0, BuildingBlock: CEKHIL_clean_sbu_0, # of connection points: 4
#     Node 15, Type 0, BuildingBlock: CEKHIL_clean_sbu_0, # of connection points: 4
#     Node 16, Type 0, BuildingBlock: CEKHIL_clean_sbu_0, # of connection points: 4
#     Node 17, Type 0, BuildingBlock: CEKHIL_clean_sbu_0, # of connection points: 4
#     Node 18, Type 0, BuildingBlock: CEKHIL_clean_sbu_0, # of connection points: 4
#     Node 19, Type 0, BuildingBlock: CEKHIL_clean_sbu_0, # of connection points: 4
#     Node 20, Type 0, BuildingBlock: CEKHIL_clean_sbu_0, # of connection points: 4
#     Node 21, Type 0, BuildingBlock: CEKHIL_clean_sbu_0, # of connection points: 4
#     Node 22, Type 0, BuildingBlock: CEKHIL_clean_sbu_0, # of connection points: 4
#     Node 23, Type 0, BuildingBlock: CEKHIL_clean_sbu_0, # of connection points: 4
#     Node 24, Type 0, BuildingBlock: CEKHIL_clean_sbu_0, # of connection points: 4
#     Node 25, Type 0, BuildingBlock: CEKHIL_clean_sbu_0, # of connection points: 4
#     Node 26, Type 0, BuildingBlock: CEKHIL_clean_sbu_0, # of connection points: 4
#     Node 27, Type 0, BuildingBlock: CEKHIL_clean_sbu_0, # of connection points: 4
#     Node 28, Type 0, BuildingBlock: CEKHIL_clean_sbu_0, # of connection points: 4
#     Node 29, Type 0, BuildingBlock: CEKHIL_clean_sbu_0, # of connection points: 4
#     Node 30, Type 0, BuildingBlock: CEKHIL_clean_sbu_0, # of connection points: 4
#     Node 31, Type 0, BuildingBlock: CEKHIL_clean_sbu_0, # of connection points: 4
#     Node 32, Type 0, BuildingBlock: CEKHIL_clean_sbu_0, # of connection points: 4
#     Node 33, Type 0, BuildingBlock: CEKHIL_clean_sbu_0, # of connection points: 4
#     Node 34, Type 0, BuildingBlock: CEKHIL_clean_sbu_0, # of connection points: 4
#     Node 35, Type 0, BuildingBlock: CEKHIL_clean_sbu_0, # of connection points: 4
#     Edge 36, Type (0, 0), BuildingBlock: AJUNOK_clean_linker_0, # of connection points: 2
#     Edge 37, Type (0, 0), BuildingBlock: AJUNOK_clean_linker_0, # of connection points: 2
#     Edge 38, Type (0, 0), BuildingBlock: AJUNOK_clean_linker_0, # of connection points: 2
#     Edge 39, Type (0, 0), BuildingBlock: AJUNOK_clean_linker_0, # of connection points: 2
#     Edge 40, Type (0, 0), BuildingBlock: AJUNOK_clean_linker_0, # of connection points: 2
#     Edge 41, Type (0, 0), BuildingBlock: AJUNOK_clean_linker_0, # of connection points: 2
#     Edge 42, Type (0, 0), BuildingBlock: AJUNOK_clean_linker_0, # of connection points: 2
#     Edge 43, Type (0, 0), BuildingBlock: AJUNOK_clean_linker_0, # of connection points: 2
#     Edge 44, Type (0, 0), BuildingBlock: AJUNOK_clean_linker_0, # of connection points: 2
#     Edge 45, Type (0, 0), BuildingBlock: AJUNOK_clean_linker_0, # of connection points: 2
#     Edge 46, Type (0, 0), BuildingBlock: AJUNOK_clean_linker_0, # of connection points: 2
#     Edge 47, Type (0, 0), BuildingBlock: AJUNOK_clean_linker_0, # of connection points: 2
#     Edge 48, Type (0, 0), BuildingBlock: AJUNOK_clean_linker_0, # of connection points: 2
#     Edge 49, Type (0, 0), BuildingBlock: AJUNOK_clean_linker_0, # of connection points: 2
#     Edge 50, Type (0, 0), BuildingBlock: AJUNOK_clean_linker_0, # of connection points: 2
#     Edge 51, Type (0, 0), BuildingBlock: AJUNOK_clean_linker_0, # of connection points: 2
#     Edge 52, Type (0, 0), BuildingBlock: AJUNOK_clean_linker_0, # of connection points: 2
#     Edge 53, Type (0, 0), BuildingBlock: AJUNOK_clean_linker_0, # of connection points: 2
#     Edge 54, Type (0, 0), BuildingBlock: AJUNOK_clean_linker_0, # of connection points: 2
#     Edge 55, Type (0, 0), BuildingBlock: AJUNOK_clean_linker_0, # of connection points: 2
#     Edge 56, Type (0, 0), BuildingBlock: AJUNOK_clean_linker_0, # of connection points: 2
#     Edge 57, Type (0, 0), BuildingBlock: AJUNOK_clean_linker_0, # of connection points: 2
#     Edge 58, Type (0, 0), BuildingBlock: AJUNOK_clean_linker_0, # of connection points: 2
#     Edge 59, Type (0, 0), BuildingBlock: AJUNOK_clean_linker_0, # of connection points: 2
#     Edge 60, Type (0, 0), BuildingBlock: AJUNOK_clean_linker_0, # of connection points: 2
#     Edge 61, Type (0, 0), BuildingBlock: AJUNOK_clean_linker_0, # of connection points: 2
#     Edge 62, Type (0, 0), BuildingBlock: AJUNOK_clean_linker_0, # of connection points: 2
#     Edge 63, Type (0, 0), BuildingBlock: AJUNOK_clean_linker_0, # of connection points: 2
#     Edge 64, Type (0, 0), BuildingBlock: AJUNOK_clean_linker_0, # of connection points: 2
#     Edge 65, Type (0, 0), BuildingBlock: AJUNOK_clean_linker_0, # of connection points: 2
#     Edge 66, Type (0, 0), BuildingBlock: AJUNOK_clean_linker_0, # of connection points: 2
#     Edge 67, Type (0, 0), BuildingBlock: AJUNOK_clean_linker_0, # of connection points: 2
#     Edge 68, Type (0, 0), BuildingBlock: AJUNOK_clean_linker_0, # of connection points: 2
#     Edge 69, Type (0, 0), BuildingBlock: AJUNOK_clean_linker_0, # of connection points: 2
#     Edge 70, Type (0, 0), BuildingBlock: AJUNOK_clean_linker_0, # of connection points: 2
#     Edge 71, Type (0, 0), BuildingBlock: AJUNOK_clean_linker_0, # of connection points: 2
#     Edge 72, Type (0, 0), BuildingBlock: AJUNOK_clean_linker_0, # of connection points: 2
#     Edge 73, Type (0, 0), BuildingBlock: AJUNOK_clean_linker_0, # of connection points: 2
#     Edge 74, Type (0, 0), BuildingBlock: AJUNOK_clean_linker_0, # of connection points: 2
#     Edge 75, Type (0, 0), BuildingBlock: AJUNOK_clean_linker_0, # of connection points: 2
#     Edge 76, Type (0, 0), BuildingBlock: AJUNOK_clean_linker_0, # of connection points: 2
#     Edge 77, Type (0, 0), BuildingBlock: AJUNOK_clean_linker_0, # of connection points: 2
#     Edge 78, Type (0, 0), BuildingBlock: AJUNOK_clean_linker_0, # of connection points: 2
#     Edge 79, Type (0, 0), BuildingBlock: AJUNOK_clean_linker_0, # of connection points: 2
#     Edge 80, Type (0, 0), BuildingBlock: AJUNOK_clean_linker_0, # of connection points: 2
#     Edge 81, Type (0, 0), BuildingBlock: AJUNOK_clean_linker_0, # of connection points: 2
#     Edge 82, Type (0, 0), BuildingBlock: AJUNOK_clean_linker_0, # of connection points: 2
#     Edge 83, Type (0, 0), BuildingBlock: AJUNOK_clean_linker_0, # of connection points: 2
#     Edge 84, Type (0, 0), BuildingBlock: AJUNOK_clean_linker_0, # of connection points: 2
#     Edge 85, Type (0, 0), BuildingBlock: AJUNOK_clean_linker_0, # of connection points: 2
#     Edge 86, Type (0, 0), BuildingBlock: AJUNOK_clean_linker_0, # of connection points: 2
#     Edge 87, Type (0, 0), BuildingBlock: AJUNOK_clean_linker_0, # of connection points: 2
#     Edge 88, Type (0, 0), BuildingBlock: AJUNOK_clean_linker_0, # of connection points: 2
#     Edge 89, Type (0, 0), BuildingBlock: AJUNOK_clean_linker_0, # of connection points: 2
#     Edge 90, Type (0, 0), BuildingBlock: AJUNOK_clean_linker_0, # of connection points: 2
#     Edge 91, Type (0, 0), BuildingBlock: AJUNOK_clean_linker_0, # of connection points: 2
#     Edge 92, Type (0, 0), BuildingBlock: AJUNOK_clean_linker_0, # of connection points: 2
#     Edge 93, Type (0, 0), BuildingBlock: AJUNOK_clean_linker_0, # of connection points: 2
#     Edge 94, Type (0, 0), BuildingBlock: AJUNOK_clean_linker_0, # of connection points: 2
#     Edge 95, Type (0, 0), BuildingBlock: AJUNOK_clean_linker_0, # of connection points: 2
#     Edge 96, Type (0, 0), BuildingBlock: AJUNOK_clean_linker_0, # of connection points: 2
#     Edge 97, Type (0, 0), BuildingBlock: AJUNOK_clean_linker_0, # of connection points: 2
#     Edge 98, Type (0, 0), BuildingBlock: AJUNOK_clean_linker_0, # of connection points: 2
#     Edge 99, Type (0, 0), BuildingBlock: AJUNOK_clean_linker_0, # of connection points: 2
#     Edge 100, Type (0, 0), BuildingBlock: AJUNOK_clean_linker_0, # of connection points: 2
#     Edge 101, Type (0, 0), BuildingBlock: AJUNOK_clean_linker_0, # of connection points: 2
#     Edge 102, Type (0, 0), BuildingBlock: AJUNOK_clean_linker_0, # of connection points: 2
#     Edge 103, Type (0, 0), BuildingBlock: AJUNOK_clean_linker_0, # of connection points: 2
#     Edge 104, Type (0, 0), BuildingBlock: AJUNOK_clean_linker_0, # of connection points: 2
#     Edge 105, Type (0, 0), BuildingBlock: AJUNOK_clean_linker_0, # of connection points: 2
#     Edge 106, Type (0, 0), BuildingBlock: AJUNOK_clean_linker_0, # of connection points: 2
#     Edge 107, Type (0, 0), BuildingBlock: AJUNOK_clean_linker_0, # of connection points: 2
# Relax obj value: 0.232
# Max RMSD: 0.138
# Mean RMSD: 0.138
data_MOF--net-ukv--node1-CEKHIL_clean_sbu_0--edge1-AJUNOK_clean_linker_0
_symmetry_space_group_name_H-M    P1
_symmetry_Int_Tables_number       1
_symmetry_cell_setting            triclinic
loop_
_symmetry_equiv_pos_as_xyz
'x, y, z'
_cell_length_a     69.210871
_cell_length_b     69.236558
_cell_length_c     15.718782
_cell_angle_alpha  89.94912
_cell_angle_beta   90.080022
_cell_angle_gamma 120.00694
loop_
_atom_site_label
_atom_site_type_symbol
_atom_site_fract_x
_atom_site_fract_y
_atom_site_fract_z
_atom_type_partial_charge
Co0 Co 0.2839 0.08445 0.14327 0.0
O1 O 0.27659 0.0573 0.20151 0.0
O2 O 0.25161 0.06573 0.15319 0.0
C3 C 0.30884 0.08432 0.05132 0.0
O4 O 0.28643 0.11122 0.07805 0.0
Co5 Co 0.3332 0.12338 0.16207 0.0
O6 O 0.32284 0.13791 0.07946 0.0
C7 C 0.30152 0.11364 0.30174 0.0
C8 C 0.25586 0.05154 0.1913 0.0
C9 C 0.30266 0.13061 0.05655 0.0
O10 O 0.28533 0.09974 0.25453 0.0
O11 O 0.32205 0.12285 0.27996 0.0
O12 O 0.28761 0.07245 0.03617 0.0
O13 O 0.31396 0.09303 0.12633 0.0
Co14 Co 0.933 0.19628 0.10582 0.0
O15 O 0.96023 0.21873 0.15652 0.0
O16 O 0.95449 0.18586 0.11267 0.0
C17 C 0.92856 0.219 0.01369 0.0
O18 O 0.90675 0.16982 0.0475 0.0
Co19 Co 0.89106 0.2016 0.13339 0.0
O20 O 0.87728 0.17536 0.057 0.0
C21 C 0.90602 0.18332 0.27036 0.0
C22 C 0.96793 0.20529 0.14607 0.0
C23 C 0.88622 0.16406 0.03247 0.0
O24 O 0.92035 0.18253 0.22062 0.0
O25 O 0.89466 0.19261 0.25054 0.0
O26 O 0.94188 0.21147 0.99555 0.0
O27 O 0.92105 0.21509 0.09052 0.0
Co28 Co 0.81369 0.73231 0.1418 0.0
O29 O 0.79133 0.73734 0.19138 0.0
O30 O 0.82498 0.76425 0.15379 0.0
C31 C 0.79116 0.70694 0.04444 0.0
O32 O 0.84033 0.73252 0.08507 0.0
Co33 Co 0.80683 0.68423 0.15892 0.0
O34 O 0.834 0.69718 0.08715 0.0
C35 C 0.82426 0.715 0.30392 0.0
C36 C 0.8053 0.75846 0.18396 0.0
C37 C 0.84587 0.71775 0.06734 0.0
O38 O 0.82587 0.7311 0.25763 0.0
O39 O 0.81468 0.69469 0.27911 0.0
O40 O 0.79975 0.72812 0.02983 0.0
O41 O 0.79419 0.70194 0.12047 0.0
Co42 Co 0.08642 0.27952 0.35194 0.0
O43 O 0.06504 0.27517 0.2654 0.0
O44 O 0.06681 0.24777 0.33033 0.0
C45 C 0.08205 0.30463 0.43011 0.0
O46 O 0.10627 0.27818 0.4457 0.0
Co47 Co 0.12799 0.3271 0.37711 0.0
O48 O 0.13073 0.31364 0.48412 0.0
C49 C 0.12845 0.29688 0.24421 0.0
C50 C 0.0569 0.25391 0.275 0.0
C51 C 0.12167 0.29264 0.49466 0.0
O52 O 0.10856 0.28135 0.26352 0.0
O53 O 0.13817 0.3162 0.2789 0.0
O54 O 0.06829 0.28341 0.43881 0.0
O55 O 0.09609 0.30985 0.3686 0.0
Co56 Co 0.73043 0.80572 0.35756 0.0
O57 O 0.73528 0.78771 0.27746 0.0
O58 O 0.76229 0.81725 0.34232 0.0
C59 C 0.70429 0.77764 0.43831 0.0
O60 O 0.73112 0.82773 0.44543 0.0
Co61 Co 0.68258 0.80034 0.36721 0.0
O62 O 0.69545 0.81915 0.46933 0.0
C63 C 0.71528 0.83044 0.23906 0.0
C64 C 0.75648 0.80068 0.28989 0.0
C65 C 0.71628 0.83025 0.48535 0.0
O66 O 0.73015 0.82561 0.2634 0.0
O67 O 0.69553 0.82136 0.26955 0.0
O68 O 0.72533 0.78452 0.44945 0.0
O69 O 0.69982 0.78561 0.37181 0.0
Co70 Co 0.20694 0.92926 0.35668 0.0
O71 O 0.22417 0.95321 0.27834 0.0
O72 O 0.19484 0.94917 0.35009 0.0
C73 C 0.2359 0.931 0.43131 0.0
O74 O 0.18559 0.90716 0.44403 0.0
Co75 Co 0.21265 0.88696 0.35943 0.0
O76 O 0.19394 0.87978 0.46257 0.0
C77 C 0.18204 0.89024 0.23513 0.0
C78 C 0.21107 0.96091 0.29756 0.0
C79 C 0.18298 0.88947 0.48136 0.0
O80 O 0.18659 0.90966 0.26219 0.0
O81 O 0.19153 0.87963 0.26247 0.0
O82 O 0.22873 0.94471 0.44764 0.0
O83 O 0.22739 0.91894 0.36431 0.0
Co84 Co 0.73056 0.9276 0.85522 0.0
O85 O 0.73428 0.94978 0.77405 0.0
O86 O 0.76222 0.94813 0.83469 0.0
C87 C 0.70496 0.92976 0.93789 0.0
O88 O 0.73214 0.90676 0.94387 0.0
Co89 Co 0.68306 0.88489 0.87012 0.0
O90 O 0.69645 0.88106 0.97532 0.0
C91 C 0.71485 0.88747 0.73855 0.0
C92 C 0.75563 0.95835 0.78266 0.0
C93 C 0.71739 0.89037 0.98858 0.0
O94 O 0.72969 0.90723 0.76166 0.0
O95 O 0.69539 0.8765 0.77127 0.0
O96 O 0.72605 0.94406 0.94693 0.0
O97 O 0.70005 0.9169 0.87252 0.0
Co98 Co 0.08483 0.80759 0.85413 0.0
O99 O 0.06216 0.78935 0.77353 0.0
O100 O 0.06424 0.81877 0.83739 0.0
C101 C 0.0829 0.77937 0.93385 0.0
O102 O 0.10583 0.82987 0.94227 0.0
Co103 Co 0.12763 0.8028 0.86745 0.0
O104 O 0.13197 0.8204 0.97197 0.0
C105 C 0.12469 0.83186 0.73578 0.0
C106 C 0.0537 0.80214 0.78496 0.0
C107 C 0.1225 0.83183 0.98579 0.0
O108 O 0.10508 0.82732 0.76016 0.0
O109 O 0.1355 0.82303 0.76732 0.0
O110 O 0.0688 0.78628 0.94609 0.0
O111 O 0.09562 0.78781 0.86856 0.0
Co112 Co 0.20784 0.27926 0.85533 0.0
O113 O 0.22495 0.27377 0.7733 0.0
O114 O 0.19609 0.24725 0.8427 0.0
C115 C 0.23692 0.30562 0.93138 0.0
O116 O 0.18689 0.27963 0.94636 0.0
Co117 Co 0.2138 0.32717 0.8615 0.0
O118 O 0.19832 0.31593 0.97132 0.0
C119 C 0.18205 0.29379 0.73949 0.0
C120 C 0.21231 0.2527 0.7888 0.0
C121 C 0.18642 0.29528 0.98921 0.0
O122 O 0.18709 0.27908 0.76374 0.0
O123 O 0.19151 0.3138 0.76769 0.0
O124 O 0.22982 0.28462 0.94402 0.0
O125 O 0.22848 0.3099 0.86576 0.0
Co126 Co 0.92787 0.73196 0.64217 0.0
O127 O 0.95576 0.73808 0.69066 0.0
O128 O 0.9485 0.7641 0.64539 0.0
C129 C 0.92406 0.70477 0.55217 0.0
O130 O 0.90067 0.73065 0.58533 0.0
Co131 Co 0.88725 0.68424 0.67496 0.0
O132 O 0.87262 0.69495 0.5942 0.0
C133 C 0.9023 0.71792 0.8099 0.0
C134 C 0.9627 0.75899 0.67791 0.0
C135 C 0.88058 0.71503 0.56859 0.0
O136 O 0.91564 0.73307 0.75779 0.0
O137 O 0.89157 0.69712 0.79197 0.0
O138 O 0.93653 0.72561 0.5317 0.0
O139 O 0.91695 0.70134 0.62959 0.0
Co140 Co 0.28567 0.20127 0.64043 0.0
O141 O 0.27884 0.22186 0.69502 0.0
O142 O 0.25341 0.1882 0.65098 0.0
C143 C 0.3108 0.22601 0.54687 0.0
O144 O 0.28731 0.17624 0.5781 0.0
Co145 Co 0.33466 0.21057 0.65659 0.0
O146 O 0.32328 0.18448 0.57958 0.0
C147 C 0.3033 0.1892 0.79826 0.0
C148 C 0.25798 0.20716 0.68515 0.0
C149 C 0.30289 0.17196 0.55857 0.0
O150 O 0.28712 0.1879 0.75326 0.0
O151 O 0.32371 0.19976 0.77447 0.0
O152 O 0.28956 0.21654 0.53176 0.0
O153 O 0.31589 0.22236 0.62186 0.0
Co154 Co 0.81599 0.08268 0.60688 0.0
O155 O 0.79269 0.05638 0.65879 0.0
O156 O 0.82484 0.06 0.61653 0.0
C157 C 0.79389 0.08777 0.51401 0.0
O158 O 0.84316 0.10793 0.54754 0.0
Co159 Co 0.81295 0.12599 0.63141 0.0
O160 O 0.83922 0.1384 0.55494 0.0
C161 C 0.82973 0.11007 0.77021 0.0
C162 C 0.80516 0.04753 0.64981 0.0
C163 C 0.8498 0.12861 0.53142 0.0
O164 O 0.82999 0.0954 0.72095 0.0
O165 O 0.82117 0.12207 0.74967 0.0
O166 O 0.80068 0.07378 0.49699 0.0
O167 O 0.79829 0.0958 0.59008 0.0
Co168 Co 0.95214 0.4167 0.45748 0.0
O169 O 0.94828 0.39394 0.53617 0.0
O170 O 0.92044 0.39604 0.47687 0.0
C171 C 0.97765 0.41474 0.37326 0.0
O172 O 0.95064 0.43805 0.37131 0.0
Co173 Co 0.99978 0.45933 0.44528 0.0
O174 O 0.9862 0.46494 0.3444 0.0
C175 C 0.96824 0.45611 0.57903 0.0
C176 C 0.92695 0.38533 0.52672 0.0
C177 C 0.96529 0.45534 0.33027 0.0
O178 O 0.95314 0.43668 0.55335 0.0
O179 O 0.98785 0.46702 0.54736 0.0
O180 O 0.95653 0.40068 0.36366 0.0
O181 O 0.98262 0.42733 0.43953 0.0
Co182 Co 0.58694 0.53748 0.47968 0.0
O183 O 0.61332 0.55853 0.53861 0.0
O184 O 0.60658 0.52511 0.49846 0.0
C185 C 0.58764 0.56213 0.38297 0.0
O186 O 0.56129 0.51205 0.41389 0.0
Co187 Co 0.54663 0.54604 0.48271 0.0
O188 O 0.53302 0.51951 0.40765 0.0
C189 C 0.55537 0.52554 0.63099 0.0
C190 C 0.62017 0.5443 0.53324 0.0
C191 C 0.5415 0.50731 0.39048 0.0
O192 O 0.57084 0.5243 0.59028 0.0
O193 O 0.54557 0.53575 0.60246 0.0
O194 O 0.59967 0.55277 0.37203 0.0
O195 O 0.5777 0.55819 0.45555 0.0
Co196 Co 0.47365 0.05613 0.44763 0.0
O197 O 0.45489 0.05911 0.52916 0.0
O198 O 0.48389 0.08762 0.46843 0.0
C199 C 0.44564 0.0302 0.36619 0.0
O200 O 0.49616 0.05855 0.35809 0.0
Co201 Co 0.47023 0.00936 0.42959 0.0
O202 O 0.48751 0.02333 0.32517 0.0
C203 C 0.49942 0.04128 0.56152 0.0
C204 C 0.4668 0.0805 0.51927 0.0
C205 C 0.4985 0.04432 0.31289 0.0
O206 O 0.49375 0.05573 0.54024 0.0
O207 O 0.49124 0.02191 0.52796 0.0
O208 O 0.45223 0.05122 0.35707 0.0
O209 O 0.45429 0.02549 0.43002 0.0
Co210 Co 0.74642 0.60927 0.70072 0.0
O211 O 0.72231 0.6076 0.63601 0.0
O212 O 0.72215 0.57824 0.69169 0.0
C213 C 0.75196 0.63803 0.7853 0.0
O214 O 0.76935 0.60625 0.77266 0.0
Co215 Co 0.79191 0.65415 0.67862 0.0
O216 O 0.80145 0.63948 0.76359 0.0
C217 C 0.77704 0.61951 0.54754 0.0
C218 C 0.7118 0.58624 0.64727 0.0
C219 C 0.79007 0.61953 0.79132 0.0
O220 O 0.76072 0.60574 0.59438 0.0
O221 O 0.78976 0.64011 0.56554 0.0
O222 O 0.73642 0.61785 0.80332 0.0
O223 O 0.76113 0.64026 0.712 0.0
Co224 Co 0.40555 0.143 0.71042 0.0
O225 O 0.40617 0.12229 0.63181 0.0
O226 O 0.43614 0.14931 0.69482 0.0
C227 C 0.37683 0.11708 0.78924 0.0
O228 O 0.41045 0.1667 0.79806 0.0
Co229 Co 0.36156 0.14584 0.72245 0.0
O230 O 0.37676 0.16329 0.8248 0.0
C231 C 0.39686 0.17323 0.59664 0.0
C232 C 0.42744 0.13185 0.64547 0.0
C233 C 0.39755 0.17179 0.83929 0.0
O234 O 0.40882 0.16438 0.61621 0.0
O235 O 0.37793 0.16762 0.63001 0.0
O236 O 0.397 0.12105 0.80247 0.0
O237 O 0.37448 0.12697 0.72396 0.0
Co238 Co 0.86874 0.25847 0.67162 0.0
O239 O 0.89171 0.2858 0.62417 0.0
O240 O 0.85901 0.28054 0.66781 0.0
C241 C 0.89124 0.25308 0.76185 0.0
O242 O 0.84179 0.23219 0.72733 0.0
Co243 Co 0.87277 0.21607 0.63985 0.0
O244 O 0.84685 0.20248 0.71785 0.0
C245 C 0.85579 0.23274 0.50406 0.0
C246 C 0.87869 0.29392 0.63621 0.0
C247 C 0.8358 0.21164 0.74292 0.0
O248 O 0.8552 0.24689 0.55543 0.0
O249 O 0.86449 0.22079 0.52286 0.0
O250 O 0.88371 0.26623 0.78271 0.0
O251 O 0.88712 0.24593 0.68452 0.0
Co252 Co 0.40723 0.26622 0.20934 0.0
O253 O 0.4095 0.28758 0.1264 0.0
O254 O 0.43832 0.28907 0.19378 0.0
C255 C 0.37896 0.26505 0.28615 0.0
O256 O 0.41087 0.24719 0.29954 0.0
Co257 Co 0.36195 0.22056 0.22252 0.0
O258 O 0.377 0.21687 0.32306 0.0
C259 C 0.39611 0.22659 0.09524 0.0
C260 C 0.43087 0.29791 0.13903 0.0
C261 C 0.39776 0.22898 0.339 0.0
O262 O 0.40954 0.24687 0.11816 0.0
O263 O 0.37643 0.21447 0.12502 0.0
O264 O 0.39937 0.28085 0.29902 0.0
O265 O 0.37621 0.25248 0.22172 0.0
Co266 Co 0.75296 0.14514 0.17033 0.0
O267 O 0.72564 0.12241 0.12132 0.0
O268 O 0.73127 0.15531 0.1641 0.0
C269 C 0.75755 0.12244 0.26171 0.0
O270 O 0.7793 0.17196 0.22717 0.0
Co271 Co 0.79514 0.14021 0.14402 0.0
O272 O 0.80901 0.16679 0.21875 0.0
C273 C 0.77906 0.1567 0.00447 0.0
C274 C 0.71782 0.13573 0.1319 0.0
C275 C 0.79991 0.17802 0.24234 0.0
O276 O 0.76519 0.15828 0.05439 0.0
O277 O 0.79022 0.1473 0.02558 0.0
O278 O 0.74454 0.13024 0.28154 0.0
O279 O 0.76501 0.1265 0.18496 0.0
Co280 Co 0.86613 0.60838 0.20216 0.0
O281 O 0.88874 0.60713 0.13738 0.0
O282 O 0.85868 0.57736 0.18641 0.0
C283 C 0.88915 0.63546 0.29341 0.0
O284 O 0.8398 0.60475 0.27284 0.0
Co285 Co 0.86677 0.65403 0.19102 0.0
O286 O 0.84175 0.6384 0.27155 0.0
C287 C 0.84602 0.62103 0.05401 0.0
C288 C 0.87734 0.58565 0.14395 0.0
C289 C 0.83252 0.61798 0.294 0.0
O290 O 0.84922 0.60682 0.09507 0.0
O291 O 0.85329 0.64113 0.07801 0.0
O292 O 0.88383 0.61487 0.30653 0.0
O293 O 0.88303 0.6392 0.22067 0.0
Co294 Co 0.59692 0.05871 0.94707 0.0
O295 O 0.61953 0.06388 0.02926 0.0
O296 O 0.61704 0.09063 0.96217 0.0
C297 C 0.59941 0.03247 0.86909 0.0
O298 O 0.57582 0.05908 0.85689 0.0
Co299 Co 0.55455 0.01087 0.93724 0.0
O300 O 0.54918 0.02329 0.83239 0.0
C301 C 0.55669 0.04369 0.06336 0.0
C302 C 0.62763 0.08504 0.01644 0.0
C303 C 0.55877 0.04407 0.81581 0.0
O304 O 0.57639 0.05851 0.03916 0.0
O305 O 0.54604 0.02382 0.0338 0.0
O306 O 0.61346 0.05351 0.85745 0.0
O307 O 0.58659 0.02808 0.93434 0.0
Co308 Co 0.95239 0.53869 0.95631 0.0
O309 O 0.94707 0.55728 0.03145 0.0
O310 O 0.9204 0.52672 0.97021 0.0
C311 C 0.97833 0.5668 0.87503 0.0
O312 O 0.95217 0.51614 0.872 0.0
Co313 Co 1.0002 0.54448 0.95024 0.0
O314 O 0.98797 0.52524 0.84874 0.0
C315 C 0.96771 0.51526 0.08023 0.0
C316 C 0.92598 0.54405 0.01817 0.0
C317 C 0.96716 0.5137 0.83291 0.0
O318 O 0.95284 0.51984 0.05386 0.0
O319 O 0.9875 0.52409 0.05012 0.0
O320 O 0.95721 0.55898 0.86159 0.0
O321 O 0.983 0.55925 0.94236 0.0
Co322 Co 0.47338 0.41966 0.97526 0.0
O323 O 0.45459 0.39172 0.03005 0.0
O324 O 0.48866 0.40247 0.98281 0.0
C325 C 0.44755 0.41846 0.88348 0.0
O326 O 0.49662 0.44748 0.91263 0.0
Co327 Co 0.46024 0.45635 1e-05 0.0
O328 O 0.48427 0.4721 0.91511 0.0
C329 C 0.48441 0.4482 0.13591 0.0
C330 C 0.47039 0.38718 0.01861 0.0
C331 C 0.49825 0.46626 0.89146 0.0
O332 O 0.4868 0.43457 0.08762 0.0
O333 O 0.47246 0.45688 0.11615 0.0
O334 O 0.45804 0.40774 0.86737 0.0
O335 O 0.45062 0.42664 0.95943 0.0
Co336 Co 0.61626 0.75291 0.80309 0.0
O337 O 0.60686 0.72546 0.86239 0.0
O338 O 0.58389 0.7367 0.81528 0.0
C339 C 0.63945 0.74942 0.7107 0.0
O340 O 0.62073 0.78021 0.73648 0.0
Co341 Co 0.66678 0.78891 0.81425 0.0
O342 O 0.65781 0.80385 0.72817 0.0
C343 C 0.63686 0.78393 0.95613 0.0
C344 C 0.58662 0.72147 0.85303 0.0
C345 C 0.63775 0.79835 0.70959 0.0
O346 O 0.61983 0.76939 0.91369 0.0
O347 O 0.657 0.7919 0.93072 0.0
O348 O 0.61814 0.73944 0.69617 0.0
O349 O 0.64545 0.75866 0.78453 0.0
Co350 Co 0.26182 0.86715 0.7888 0.0
O351 O 0.2883 0.88483 0.85487 0.0
O352 O 0.27844 0.85143 0.80323 0.0
C353 C 0.2663 0.89465 0.69791 0.0
O354 O 0.23578 0.8448 0.7153 0.0
Co355 Co 0.22525 0.8813 0.78892 0.0
O356 O 0.21131 0.85723 0.70316 0.0
C357 C 0.22629 0.85274 0.92732 0.0
C358 C 0.29298 0.86908 0.84449 0.0
C359 C 0.2176 0.8432 0.6861 0.0
O360 O 0.24324 0.85248 0.89443 0.0
O361 O 0.21843 0.86474 0.89867 0.0
O362 O 0.27694 0.8839 0.68572 0.0
O363 O 0.25596 0.89054 0.76953 0.0
Co364 Co 0.14215 0.39737 0.76921 0.0
O365 O 0.1252 0.40293 0.85232 0.0
O366 O 0.15433 0.42931 0.78318 0.0
C367 C 0.1127 0.37114 0.69396 0.0
O368 O 0.16334 0.39771 0.67806 0.0
Co369 Co 0.13661 0.34977 0.75482 0.0
O370 O 0.15365 0.36208 0.6485 0.0
C371 C 0.16734 0.38188 0.88305 0.0
C372 C 0.13833 0.42401 0.83783 0.0
C373 C 0.16505 0.38295 0.63411 0.0
O374 O 0.16257 0.3969 0.86046 0.0
O375 O 0.15811 0.36221 0.85166 0.0
O376 O 0.1201 0.39221 0.68074 0.0
O377 O 0.12156 0.36674 0.75782 0.0
Co378 Co 0.41343 0.93881 0.02494 0.0
O379 O 0.39071 0.93254 0.94173 0.0
O380 O 0.39414 0.90664 0.01122 0.0
C381 C 0.40892 0.96418 0.1003 0.0
O382 O 0.43496 0.93987 0.1169 0.0
Co383 Co 0.45379 0.98775 0.03688 0.0
O384 O 0.45857 0.97629 0.14538 0.0
C385 C 0.45437 0.95607 0.9111 0.0
C386 C 0.38297 0.91158 0.95719 0.0
C387 C 0.45061 0.95562 0.16129 0.0
O388 O 0.43495 0.94023 0.93411 0.0
O389 O 0.46358 0.97591 0.94096 0.0
O390 O 0.39591 0.94301 0.11336 0.0
O391 O 0.42202 0.96905 0.03586 0.0
Co392 Co 0.06914 0.47482 0.02527 0.0
O393 O 0.07609 0.45728 0.95063 0.0
O394 O 0.10137 0.48795 0.01593 0.0
C395 C 0.0434 0.44613 0.10433 0.0
O396 O 0.0673 0.4964 0.10942 0.0
Co397 Co 0.02029 0.46646 0.02309 0.0
O398 O 0.03059 0.48388 0.12973 0.0
C399 C 0.05331 0.49715 0.89789 0.0
C400 C 0.09689 0.47108 0.96677 0.0
C401 C 0.05107 0.49672 0.14848 0.0
O402 O 0.06861 0.4936 0.92751 0.0
O403 O 0.03314 0.48725 0.9245 0.0
O404 O 0.06452 0.45456 0.11965 0.0
O405 O 0.03877 0.45323 0.03561 0.0
Co406 Co 0.53435 0.60195 0.04276 0.0
O407 O 0.5516 0.62411 0.95913 0.0
O408 O 0.52337 0.62277 0.03044 0.0
C409 C 0.56318 0.6035 0.11665 0.0
O410 O 0.5132 0.5815 0.13458 0.0
Co411 Co 0.53856 0.55876 0.053 0.0
O412 O 0.5221 0.55475 0.1604 0.0
C413 C 0.50768 0.56164 0.92946 0.0
C414 C 0.53919 0.63283 0.97453 0.0
C415 C 0.51128 0.56472 0.1771 0.0
O416 O 0.51305 0.58153 0.95281 0.0
O417 O 0.51682 0.55081 0.95802 0.0
O418 O 0.55696 0.61806 0.13053 0.0
O419 O 0.55393 0.59075 0.05198 0.0
Co420 Co 0.06825 0.59565 0.52199 0.0
O421 O 0.07335 0.61851 0.44092 0.0
O422 O 0.10015 0.61497 0.50263 0.0
C423 C 0.04366 0.59962 0.60517 0.0
O424 O 0.06884 0.57421 0.61013 0.0
Co425 Co 0.01987 0.5547 0.54155 0.0
O426 O 0.03311 0.54928 0.64401 0.0
C427 C 0.04967 0.55514 0.40485 0.0
C428 C 0.09451 0.62611 0.45138 0.0
C429 C 0.05407 0.55795 0.65512 0.0
O430 O 0.06579 0.57441 0.42795 0.0
O431 O 0.03024 0.54571 0.43855 0.0
O432 O 0.06496 0.61288 0.61431 0.0
O433 O 0.03809 0.58657 0.54021 0.0
Co434 Co 0.41368 0.47926 0.54334 0.0
O435 O 0.39187 0.46144 0.45901 0.0
O436 O 0.39246 0.48957 0.52863 0.0
C437 C 0.41236 0.45069 0.61879 0.0
O438 O 0.43333 0.50093 0.63531 0.0
Co439 Co 0.45755 0.47675 0.56215 0.0
O440 O 0.45973 0.49224 0.67015 0.0
C441 C 0.45477 0.50725 0.43537 0.0
C442 C 0.38274 0.47352 0.47344 0.0
C443 C 0.44944 0.50293 0.68241 0.0
O444 O 0.43419 0.50058 0.45323 0.0
O445 O 0.46613 0.49942 0.47016 0.0
O446 O 0.39756 0.45669 0.63129 0.0
O447 O 0.42557 0.46029 0.55554 0.0
Co448 Co 0.5357 0.94066 0.52605 0.0
O449 O 0.55246 0.93487 0.44305 0.0
O450 O 0.5231 0.9086 0.51118 0.0
C451 C 0.56543 0.96609 0.6027 0.0
O452 O 0.51487 0.94099 0.61743 0.0
Co453 Co 0.54325 0.98905 0.54026 0.0
O454 O 0.52722 0.97714 0.64873 0.0
C455 C 0.5115 0.95754 0.41251 0.0
C456 C 0.53933 0.91382 0.45762 0.0
C457 C 0.51469 0.95636 0.66308 0.0
O458 O 0.51555 0.94196 0.4348 0.0
O459 O 0.52167 0.97726 0.44371 0.0
O460 O 0.55738 0.9449 0.61501 0.0
O461 O 0.55709 0.97103 0.5386 0.0
Co462 Co 0.26456 0.39915 0.26842 0.0
O463 O 0.28783 0.40578 0.34976 0.0
O464 O 0.28378 0.43121 0.27868 0.0
C465 C 0.26793 0.37294 0.19419 0.0
O466 O 0.24285 0.39826 0.17848 0.0
Co467 Co 0.22306 0.35079 0.26035 0.0
O468 O 0.21736 0.36217 0.15328 0.0
C469 C 0.22452 0.38354 0.38566 0.0
C470 C 0.29517 0.42663 0.33279 0.0
C471 C 0.2263 0.38289 0.1366 0.0
O472 O 0.24399 0.39875 0.36073 0.0
O473 O 0.21429 0.3636 0.35662 0.0
O474 O 0.28123 0.39399 0.17931 0.0
O475 O 0.25508 0.36863 0.25929 0.0
Co476 Co 0.61658 0.86873 0.30306 0.0
O477 O 0.60747 0.88723 0.36087 0.0
O478 O 0.58414 0.85312 0.31449 0.0
C479 C 0.64021 0.89514 0.21072 0.0
O480 O 0.62074 0.84557 0.23733 0.0
Co481 Co 0.6671 0.88259 0.31409 0.0
O482 O 0.65777 0.85847 0.22897 0.0
C483 C 0.63695 0.85834 0.45687 0.0
C484 C 0.58711 0.87131 0.35082 0.0
C485 C 0.63761 0.84413 0.2106 0.0
O486 O 0.61988 0.85583 0.41442 0.0
O487 O 0.65707 0.87035 0.43094 0.0
O488 O 0.61892 0.88415 0.19561 0.0
O489 O 0.64592 0.89172 0.28481 0.0
Co490 Co 0.1435 0.74879 0.28969 0.0
O491 O 0.12494 0.7223 0.35417 0.0
O492 O 0.15777 0.73067 0.3006 0.0
C493 C 0.11649 0.74627 0.20087 0.0
O494 O 0.16635 0.77458 0.21615 0.0
Co495 Co 0.13201 0.78718 0.29921 0.0
O496 O 0.15274 0.79805 0.20123 0.0
C497 C 0.15737 0.78159 0.4383 0.0
C498 C 0.13984 0.71656 0.34152 0.0
C499 C 0.16662 0.79169 0.18206 0.0
O500 O 0.15869 0.76625 0.39662 0.0
O501 O 0.14566 0.79018 0.41391 0.0
O502 O 0.12621 0.73471 0.18683 0.0
O503 O 0.12118 0.75631 0.27346 0.0
C504 C 0.22012 0.98922 0.18343 0.0
C505 C 0.21674 0.98353 0.27016 0.0
C506 C 0.23063 0.01164 0.15727 0.0
C507 C 0.23852 0.02901 0.21717 0.0
H508 H 0.21568 0.97636 0.13586 0.0
H509 H 0.23422 0.01543 0.09029 0.0
S510 S 0.23371 0.02287 0.45143 0.0
N511 N 0.22135 0.99698 0.41551 0.0
N512 N 0.24193 0.03908 0.36639 0.0
C513 C 0.23446 0.02349 0.3037 0.0
C514 C 0.22331 1.0007 0.33023 0.0
C515 C 0.99786 0.20618 0.23885 0.0
C516 C 0.9916 0.21329 0.16529 0.0
C517 C 0.01982 0.21832 0.2708 0.0
C518 C 0.03598 0.23802 0.23045 0.0
H519 H 0.98538 0.19219 0.27516 0.0
H520 H 0.02365 0.21324 0.33074 0.0
S521 S 0.02845 0.26143 0.02886 0.0
N522 N 1.00369 0.23957 0.04818 0.0
N523 N 0.04476 0.26225 0.10721 0.0
C524 C 0.03022 0.24411 0.15318 0.0
C525 C 0.00803 0.2318 0.12097 0.0
C526 C 0.7915 0.79823 0.29757 0.0
C527 C 0.77259 0.79501 0.25172 0.0
C528 C 0.80366 0.78789 0.27159 0.0
C529 C 0.79733 0.77432 0.19869 0.0
H530 H 0.7959 0.80732 0.35709 0.0
H531 H 0.81701 0.78924 0.31179 0.0
S532 S 0.75156 0.76367 0.04958 0.0
N533 N 0.75003 0.77958 0.1244 0.0
N534 N 0.77275 0.76028 0.07633 0.0
C535 C 0.77967 0.77254 0.14902 0.0
C536 C 0.76734 0.78291 0.17525 0.0
C537 C 0.76187 0.9873 0.67583 0.0
C538 C 0.77093 0.97961 0.73858 0.0
C539 C 0.77394 0.00891 0.64331 0.0
C540 C 0.79574 0.02372 0.67091 0.0
H541 H 0.74482 0.97695 0.65431 0.0
H542 H 0.76572 0.01443 0.59877 0.0
S543 S 0.82835 0.01134 0.82629 0.0
N544 N 0.80394 0.98804 0.82174 0.0
N545 N 0.8268 0.02888 0.75896 0.0
C546 C 0.80578 0.01591 0.72863 0.0
C547 C 0.79332 0.99376 0.7628 0.0
C548 C 0.01619 0.79971 0.78974 0.0
C549 C 0.03193 0.79623 0.74569 0.0
C550 C 0.99371 0.78922 0.7632 0.0
C551 C 0.98651 0.77525 0.69136 0.0
H552 H 0.02084 0.80914 0.84853 0.0
H553 H 0.98168 0.79074 0.80239 0.0
S554 S 0.02169 0.76363 0.54688 0.0
N555 N 0.0391 0.78001 0.62099 0.0
N556 N 0.9971 0.76044 0.5719 0.0
C557 C 1.00242 0.77318 0.64329 0.0
C558 C 0.02511 0.78369 0.67013 0.0
C559 C 0.24283 0.23182 0.65343 0.0
C560 C 0.2411 0.21379 0.70046 0.0
C561 C 0.2316 0.24295 0.67859 0.0
C562 C 0.21836 0.23666 0.75245 0.0
H563 H 0.25405 0.23824 0.5995 0.0
H564 H 0.23449 0.25753 0.64269 0.0
S565 S 0.20681 0.18906 0.89334 0.0
N566 N 0.22384 0.18885 0.82013 0.0
N567 N 0.20264 0.20989 0.86836 0.0
C568 C 0.21513 0.21755 0.7966 0.0
C569 C 0.22661 0.20612 0.77053 0.0
C570 C 0.90864 0.33287 0.65436 0.0
C571 C 0.8875 0.31793 0.62117 0.0
C572 C 0.92036 0.35509 0.62791 0.0
C573 C 0.91163 0.3633 0.56585 0.0
H574 H 0.91667 0.32705 0.69851 0.0
H575 H 0.93698 0.36559 0.65331 0.0
S576 S 0.85586 0.33125 0.46454 0.0
N577 N 0.85732 0.31304 0.52843 0.0
N578 N 0.87955 0.35501 0.47697 0.0
C579 C 0.8898 0.3489 0.53609 0.0
C580 C 0.87769 0.32612 0.56406 0.0
C581 C 0.6598 0.5729 0.52405 0.0
C582 C 0.64371 0.55181 0.55388 0.0
C583 C 0.68189 0.58303 0.55149 0.0
C584 C 0.68897 0.57269 0.61123 0.0
H585 H 0.6551 0.58205 0.48071 0.0
H586 H 0.69333 0.59957 0.52752 0.0
S587 S 0.65359 0.51641 0.70419 0.0
N588 N 0.63639 0.51998 0.64164 0.0
N589 N 0.67826 0.53925 0.69505 0.0
C590 C 0.67333 0.55098 0.63842 0.0
C591 C 0.6506 0.54048 0.60937 0.0
C592 C 0.42822 0.09706 0.62406 0.0
C593 C 0.43954 0.1204 0.61808 0.0
C594 C 0.4378 0.08474 0.59527 0.0
C595 C 0.45906 0.09509 0.55739 0.0
H596 H 0.41159 0.0881 0.65101 0.0
H597 H 0.42795 0.06675 0.60069 0.0
S598 S 0.49621 0.15613 0.53004 0.0
N599 N 0.47363 0.15378 0.57581 0.0
N600 N 0.49166 0.13044 0.51848 0.0
C601 C 0.47095 0.11858 0.55276 0.0
C602 C 0.46121 0.13128 0.58402 0.0
C603 C 0.46295 0.33727 0.1427 0.0
C604 C 0.44529 0.31972 0.09764 0.0
C605 C 0.47296 0.3594 0.11275 0.0
C606 C 0.46582 0.36441 0.03633 0.0
H607 H 0.46781 0.3342 0.20454 0.0
H608 H 0.48509 0.37276 0.15248 0.0
S609 S 0.42284 0.32413 0.88866 0.0
N610 N 0.42309 0.30864 0.96814 0.0
N611 N 0.44194 0.35001 0.91225 0.0
C612 C 0.44959 0.3468 0.98762 0.0
C613 C 0.43933 0.32446 0.01809 0.0
C614 C 0.68679 0.13353 0.04222 0.0
C615 C 0.69393 0.12727 0.11569 0.0
C616 C 0.66455 0.12083 0.01352 0.0
C617 C 0.64901 0.10139 0.05701 0.0
H618 H 0.69876 0.1473 0.00361 0.0
H619 H 0.66001 0.12529 0.95374 0.0
S620 S 0.65903 0.08008 0.25927 0.0
N621 N 0.68338 0.10204 0.23583 0.0
N622 N 0.64183 0.07829 0.18276 0.0
C623 C 0.6557 0.09612 0.13399 0.0
C624 C 0.67814 0.10902 0.163 0.0
C625 C 0.90307 0.5826 0.04289 0.0
C626 C 0.88626 0.57221 0.10477 0.0
C627 C 0.91486 0.57256 0.01272 0.0
C628 C 0.91022 0.55156 0.04204 0.0
H629 H 0.90782 0.59911 0.01941 0.0
H630 H 0.9283 0.5817 0.9678 0.0
S631 S 0.86681 0.51627 0.19847 0.0
N632 N 0.86466 0.53895 0.1908 0.0
N633 N 0.88692 0.51987 0.13237 0.0
C634 C 0.89267 0.54023 0.10008 0.0
C635 C 0.88061 0.55061 0.13175 0.0
C636 C 0.55912 0.69436 0.95655 0.0
C637 C 0.56812 0.69912 0.874 0.0
C638 C 0.54735 0.67223 0.98661 0.0
C639 C 0.54483 0.65443 0.93547 0.0
H640 H 0.56266 0.70786 0.00011 0.0
H641 H 0.54206 0.66931 0.05249 0.0
S642 S 0.5632 0.65817 0.71174 0.0
N643 N 0.57181 0.68425 0.73929 0.0
N644 N 0.55023 0.64287 0.79592 0.0
C645 C 0.55234 0.65895 0.85097 0.0
C646 C 0.56392 0.68129 0.82022 0.0
C647 C 0.35539 0.89866 0.83938 0.0
C648 C 0.36096 0.89506 0.92169 0.0
C649 C 0.33316 0.88806 0.81164 0.0
C650 C 0.31564 0.87357 0.86528 0.0
H651 H 0.36817 0.91094 0.79811 0.0
H652 H 0.32952 0.89258 0.75009 0.0
S653 S 0.32125 0.85724 0.08423 0.0
N654 N 0.34719 0.87465 0.05439 0.0
N655 N 0.30526 0.85506 0.00234 0.0
C656 C 0.32099 0.86864 0.94554 0.0
C657 C 0.34374 0.87926 0.97364 0.0
C658 C 0.1241 0.4362 0.95923 0.0
C659 C 0.13356 0.44055 0.87745 0.0
C660 C 0.11434 0.44816 0.99155 0.0
C661 C 0.11354 0.46478 0.94304 0.0
H662 H 0.12307 0.42256 -0.00333 0.0
H663 H 0.10587 0.44321 0.05237 0.0
S664 S 0.13717 0.48366 0.72782 0.0
N665 N 0.14297 0.46381 0.75108 0.0
N666 N 0.12399 0.48591 0.81149 0.0
C667 C 0.12408 0.47027 0.86343 0.0
C668 C 0.13435 0.45828 0.83078 0.0
C669 C 0.12751 0.66469 0.46465 0.0
C670 C 0.11079 0.64788 0.41371 0.0
C671 C 0.13875 0.68716 0.43794 0.0
C672 C 0.13394 0.69329 0.35879 0.0
H673 H 0.13053 0.66079 0.52831 0.0
H674 H 0.15005 0.69991 0.48171 0.0
S675 S 0.09386 0.65525 0.19778 0.0
N676 N 0.09163 0.63872 0.27756 0.0
N677 N 0.11302 0.68065 0.22703 0.0
C678 C 0.11864 0.6764 0.30488 0.0
C679 C 0.10702 0.65373 0.33235 0.0
C680 C 0.34198 0.45851 0.48883 0.0
C681 C 0.36084 0.4671 0.43591 0.0
C682 C 0.32036 0.44664 0.45447 0.0
C683 C 0.317 0.44368 0.36614 0.0
H684 H 0.34396 0.45942 0.55736 0.0
H685 H 0.30625 0.43876 0.49736 0.0
S686 S 0.36092 0.46458 0.20063 0.0
N687 N 0.37484 0.47279 0.29127 0.0
N688 N 0.3342 0.45143 0.22644 0.0
C689 C 0.33569 0.45355 0.31248 0.0
C690 C 0.35767 0.46504 0.34751 0.0
C691 C 0.55552 0.90204 0.34192 0.0
C692 C 0.54501 0.8975 0.4218 0.0
C693 C 0.56721 0.89143 0.31556 0.0
C694 C 0.56885 0.87589 0.36802 0.0
H695 H 0.55605 0.91505 0.3019 0.0
H696 H 0.57645 0.89669 0.2564 0.0
S697 S 0.54284 0.85664 0.57972 0.0
N698 N 0.53549 0.875 0.55031 0.0
N699 N 0.55782 0.85524 0.50065 0.0
C700 C 0.55711 0.86993 0.4452 0.0
C701 C 0.545 0.88065 0.47202 0.0
C702 C 0.31342 0.1832 0.94341 0.0
C703 C 0.29838 0.17516 0.87494 0.0
C704 C 0.31345 0.16872 0.00537 0.0
C705 C 0.29859 0.14554 0.00095 0.0
H706 H 0.32616 0.20066 0.9463 0.0
H707 H 0.32607 0.17567 0.05472 0.0
S708 S 0.25465 0.11631 0.83797 0.0
N709 N 0.26705 0.14282 0.80953 0.0
N710 N 0.26725 0.11546 0.92607 0.0
C711 C 0.28234 0.13746 0.9364 0.0
C712 C 0.28221 0.15232 0.87331 0.0
C713 C 0.86689 0.12722 0.83866 0.0
C714 C 0.84357 0.11682 0.84723 0.0
C715 C 0.88111 0.14095 0.90345 0.0
C716 C 0.87227 0.14456 0.97829 0.0
H717 H 0.87416 0.1265 0.77855 0.0
H718 H 0.8989 0.15036 0.89149 0.0
S719 S 0.81251 0.11653 0.03862 0.0
N720 N 0.81242 0.10791 0.94066 0.0
N721 N 0.83899 0.13318 0.06369 0.0
C722 C 0.84905 0.13208 0.99114 0.0
C723 C 0.83469 0.11835 0.92507 0.0
C724 C 0.88461 0.73739 0.87875 0.0
C725 C 0.89511 0.72455 0.88714 0.0
C726 C 0.87015 0.73706 0.94216 0.0
C727 C 0.8659 0.72389 0.01548 0.0
H728 H 0.88575 0.74588 0.81941 0.0
H729 H 0.86072 0.74541 0.92998 0.0
S730 S 0.89403 0.69226 0.07641 0.0
N731 N 0.90356 0.70181 0.98013 0.0
N732 N 0.87679 0.70145 0.10019 0.0
C733 C 0.87845 0.71325 0.02872 0.0
C734 C 0.89298 0.7135 0.96416 0.0
C735 C 0.16231 0.27942 0.60001 0.0
C736 C 0.16282 0.28729 0.68277 0.0
C737 C 0.14678 0.27857 0.54005 0.0
C738 C 0.13141 0.28545 0.56189 0.0
H739 H 0.17499 0.27561 0.57975 0.0
H740 H 0.14808 0.27441 0.47467 0.0
S741 S 0.12363 0.30346 0.77439 0.0
N742 N 0.14475 0.29896 0.7867 0.0
N743 N 0.11597 0.29772 0.67377 0.0
C744 C 0.13059 0.2914 0.64628 0.0
C745 C 0.14621 0.2922 0.70694 0.0
C746 C 0.72658 0.86847 0.52992 0.0
C747 C 0.72298 0.8472 0.55164 0.0
C748 C 0.72569 0.88256 0.59215 0.0
C749 C 0.72083 0.87544 0.67698 0.0
H750 H 0.72845 0.87354 0.4638 0.0
H751 H 0.72718 0.89827 0.57289 0.0
S752 S 0.71265 0.82238 0.76677 0.0
N753 N 0.7164 0.82061 0.66393 0.0
N754 N 0.71458 0.84691 0.78096 0.0
C755 C 0.71869 0.85486 0.69996 0.0
C756 C 0.71978 0.84072 0.63707 0.0
C757 C 0.14453 0.86196 0.5264 0.0
C758 C 0.16614 0.87905 0.54793 0.0
C759 C 0.13 0.84753 0.58902 0.0
C760 C 0.13696 0.8498 0.67411 0.0
H761 H 0.13942 0.85883 0.46029 0.0
H762 H 0.11401 0.83365 0.56998 0.0
S763 S 0.19095 0.89339 0.76315 0.0
N764 N 0.193 0.89861 0.65999 0.0
N765 N 0.16588 0.87153 0.7778 0.0
C766 C 0.15796 0.86773 0.69671 0.0
C767 C 0.17258 0.88238 0.63338 0.0
C768 C 0.71511 0.87956 0.13834 0.0
C769 C 0.72407 0.88064 0.05741 0.0
C770 C 0.71384 0.86414 0.19847 0.0
C771 C 0.72131 0.84908 0.17966 0.0
H772 H 0.70752 0.88959 0.15303 0.0
H773 H 0.70578 0.86316 0.25868 0.0
S774 S 0.74792 0.84652 0.97917 0.0
N775 N 0.74206 0.86665 0.96307 0.0
N776 N 0.73973 0.83747 0.0772 0.0
C777 C 0.7319 0.85111 0.10141 0.0
C778 C 0.73322 0.86695 0.03979 0.0
C779 C 0.13316 0.84071 0.13559 0.0
C780 C 0.13222 0.84837 0.05406 0.0
C781 C 0.14829 0.85511 0.19592 0.0
C782 C 0.16319 0.87765 0.1766 0.0
H783 H 0.12327 0.8231 0.15074 0.0
H784 H 0.14927 0.84821 0.25663 0.0
S785 S 0.16594 0.90625 0.97417 0.0
N786 N 0.14607 0.88013 0.95845 0.0
N787 N 0.17478 0.90743 0.07285 0.0
C788 C 0.16125 0.88598 0.09761 0.0
C789 C 0.14569 0.87121 0.03583 0.0
C790 C 0.17935 0.30186 0.13644 0.0
C791 C 0.17087 0.29 0.06041 0.0
C792 C 0.1652 0.30294 0.19692 0.0
C793 C 0.14199 0.29233 0.18352 0.0
H794 H 0.19721 0.31149 0.14698 0.0
H795 H 0.17267 0.31296 0.25329 0.0
S796 S 0.11141 0.25799 -0.00348 0.0
N797 N 0.13789 0.26641 0.97613 0.0
N798 N 0.11101 0.26831 0.0909 0.0
C799 C 0.1331 0.27918 0.11018 0.0
C800 C 0.14764 0.27808 0.04818 0.0
C801 C 0.82871 0.70466 0.45066 0.0
C802 C 0.83726 0.72004 0.38346 0.0
C803 C 0.84271 0.7045 0.5145 0.0
C804 C 0.8659 0.71952 0.51305 0.0
H805 H 0.81133 0.69166 0.45073 0.0
H806 H 0.83543 0.69154 0.56244 0.0
S807 S 0.89607 0.76493 0.35616 0.0
N808 N 0.86985 0.75225 0.3238 0.0
N809 N 0.89633 0.75181 0.44359 0.0
C810 C 0.87435 0.73629 0.45044 0.0
C811 C 0.85997 0.73657 0.38559 0.0
C812 C 0.28291 0.13221 0.3719 0.0
C813 C 0.29656 0.12255 0.37844 0.0
C814 C 0.28348 0.14695 0.43463 0.0
C815 C 0.29772 0.15236 0.50541 0.0
H816 H 0.27325 0.12993 0.31467 0.0
H817 H 0.27415 0.15547 0.42416 0.0
S818 S 0.33242 0.12712 0.56075 0.0
N819 N 0.32166 0.1164 0.46698 0.0
N820 N 0.32255 0.14372 0.58571 0.0
C821 C 0.30955 0.14089 0.51664 0.0
C822 C 0.30903 0.12607 0.45282 0.0
C823 C 0.87336 0.13252 0.40464 0.0
C824 C 0.86973 0.14188 0.47799 0.0
C825 C 0.88782 0.14627 0.34033 0.0
C826 C 0.89895 0.16966 0.34792 0.0
H827 H 0.86349 0.11474 0.39323 0.0
H828 H 0.8885 0.13867 0.28103 0.0
S829 S 0.89909 0.20189 0.53531 0.0
N830 N 0.88165 0.17565 0.56101 0.0
N831 N 0.90826 0.2013 0.43904 0.0
C832 C 0.89733 0.17897 0.4246 0.0
C833 C 0.88286 0.16509 0.49009 0.0
C834 C 0.95334 0.48211 0.28491 0.0
C835 C 0.95842 0.4654 0.26344 0.0
C836 C 0.95459 0.49752 0.22361 0.0
C837 C 0.96131 0.4967 0.14006 0.0
H838 H 0.95012 0.48434 0.35057 0.0
H839 H 0.95196 0.51104 0.24307 0.0
S840 S 0.97369 0.45456 0.05062 0.0
N841 N 0.96829 0.44774 0.15203 0.0
N842 N 0.97065 0.47654 0.03695 0.0
C843 C 0.96478 0.47908 0.11691 0.0
C844 C 0.96336 0.46345 0.17874 0.0
C845 C 0.5365 0.48356 0.26323 0.0
C846 C 0.52772 0.48741 0.33769 0.0
C847 C 0.52227 0.46875 0.20067 0.0
C848 C 0.49892 0.45748 0.21102 0.0
H849 H 0.55421 0.49337 0.25006 0.0
H850 H 0.52944 0.46761 0.14095 0.0
S851 S 0.46825 0.45778 0.40281 0.0
N852 N 0.49466 0.47575 0.42469 0.0
N853 N 0.46805 0.44829 0.30633 0.0
C854 C 0.49022 0.45954 0.28854 0.0
C855 C 0.50461 0.47442 0.35221 0.0
C856 C 0.55188 0.05748 0.20481 0.0
C857 C 0.54419 0.04997 0.12193 0.0
C858 C 0.53748 0.05827 0.26609 0.0
C859 C 0.51527 0.05185 0.24531 0.0
H860 H 0.56837 0.06101 0.22403 0.0
H861 H 0.54313 0.06206 0.33146 0.0
S862 S 0.48861 0.03452 0.03375 0.0
N863 N 0.51409 0.03879 0.01964 0.0
N864 N 0.48718 0.04018 0.13483 0.0
C865 C 0.50818 0.04624 0.161 0.0
C866 C 0.52266 0.04535 0.09913 0.0
C867 C 0.82433 0.61932 0.83484 0.0
C868 C 0.8018 0.61258 0.85118 0.0
C869 C 0.83844 0.61986 0.89979 0.0
C870 C 0.83034 0.61337 0.9826 0.0
H871 H 0.83151 0.6259 0.77295 0.0
H872 H 0.85607 0.62696 0.88667 0.0
S873 S 0.7725 0.59271 0.05706 0.0
N874 N 0.77178 0.59783 0.95475 0.0
N875 N 0.79833 0.59857 0.07698 0.0
C876 C 0.80751 0.60484 -0.00171 0.0
C877 C 0.79314 0.6044 0.93224 0.0
C878 C 0.41266 0.21033 0.89114 0.0
C879 C 0.40633 0.18798 0.90842 0.0
C880 C 0.41158 0.22399 0.95479 0.0
C881 C 0.40372 0.21534 0.03627 0.0
H882 H 0.41635 0.21656 0.82647 0.0
H883 H 0.41483 0.24054 0.93807 0.0
S884 S 0.38799 0.1588 0.11483 0.0
N885 N 0.39451 0.15873 0.01391 0.0
N886 N 0.39215 0.18408 0.1334 0.0
C887 C 0.39939 0.1937 0.05579 0.0
C888 C 0.40078 0.18005 0.99166 0.0
C889 C 0.80582 0.17439 0.79149 0.0
C890 C 0.81602 0.1978 0.7967 0.0
C891 C 0.79129 0.16064 0.85479 0.0
C892 C 0.78617 0.16973 0.92512 0.0
H893 H 0.81034 0.16666 0.74134 0.0
H894 H 0.78551 0.14293 0.85234 0.0
S895 S 0.80542 0.22953 0.96207 0.0
N896 N 0.81767 0.22922 0.87237 0.0
N897 N 0.79006 0.20319 0.99134 0.0
C898 C 0.79419 0.19283 0.92639 0.0
C899 C 0.80922 0.20694 0.86204 0.0
C900 C 0.40224 0.22395 0.49048 0.0
C901 C 0.4065 0.22088 0.40608 0.0
C902 C 0.40161 0.2096 0.55422 0.0
C903 C 0.405 0.19164 0.53519 0.0
H904 H 0.3973 0.23613 0.5059 0.0
H905 H 0.39657 0.21143 0.61759 0.0
S906 S 0.42019 0.17887 0.32572 0.0
N907 N 0.41699 0.20064 0.30786 0.0
N908 N 0.41566 0.1734 0.42848 0.0
C909 C 0.41161 0.18986 0.45279 0.0
C910 C 0.4123 0.20457 0.3877 0.0
C911 C 0.81883 0.21595 0.43368 0.0
C912 C 0.84219 0.22633 0.42616 0.0
C913 C 0.80477 0.20185 0.3692 0.0
C914 C 0.81375 0.19784 0.29563 0.0
H915 H 0.81141 0.21686 0.49311 0.0
H916 H 0.78695 0.19248 0.38068 0.0
S917 S 0.87368 0.2257 0.23733 0.0
N918 N 0.87352 0.23483 0.33422 0.0
N919 N 0.84725 0.20888 0.21196 0.0
C920 C 0.837 0.21034 0.28338 0.0
C921 C 0.85121 0.22445 0.3491 0.0
C922 C 0.78375 0.61807 0.39424 0.0
C923 C 0.78438 0.61095 0.47704 0.0
C924 C 0.79769 0.61754 0.33114 0.0
C925 C 0.81296 0.61028 0.34954 0.0
H926 H 0.77386 0.62584 0.38009 0.0
H927 H 0.79799 0.62478 0.26963 0.0
S928 S 0.81944 0.58811 0.55526 0.0
N929 N 0.79976 0.5945 0.5728 0.0
N930 N 0.82641 0.59394 0.45408 0.0
C931 C 0.81226 0.6012 0.42995 0.0
C932 C 0.79787 0.60153 0.49408 0.0
C933 C 0.5317 0.05534 0.76813 0.0
C934 C 0.54862 0.05049 0.74786 0.0
C935 C 0.51651 0.05407 0.70581 0.0
C936 C 0.51776 0.04756 0.62237 0.0
H937 H 0.52917 0.05847 0.83357 0.0
H938 H 0.50283 0.05656 0.72433 0.0
S939 S 0.56091 0.03628 0.53561 0.0
N940 N 0.56713 0.0413 0.63766 0.0
N941 N 0.53873 0.03892 0.52046 0.0
C942 C 0.53563 0.04435 0.6004 0.0
C943 C 0.55104 0.04578 0.66336 0.0
C944 C 0.9573 0.46107 0.72569 0.0
C945 C 0.96234 0.4682 0.64087 0.0
C946 C 0.95664 0.47529 0.78804 0.0
C947 C 0.96068 0.49673 0.7665 0.0
H948 H 0.95545 0.4452 0.74484 0.0
H949 H 0.95452 0.47012 0.85407 0.0
S950 S 0.97176 0.52179 0.55152 0.0
N951 N 0.96928 0.49702 0.53721 0.0
N952 N 0.96791 0.52353 0.65427 0.0
C953 C 0.96409 0.50326 0.68108 0.0
C954 C 0.96492 0.48898 0.61811 0.0
C955 C 0.53568 0.519 0.76907 0.0
C956 C 0.54581 0.512 0.70863 0.0
C957 C 0.52146 0.50439 0.83114 0.0
C958 C 0.51658 0.48204 0.83509 0.0
H959 H 0.53783 0.5356 0.76566 0.0
H960 H 0.51342 0.51046 0.87394 0.0
S961 S 0.54064 0.45607 0.69655 0.0
N962 N 0.55159 0.48187 0.66072 0.0
N963 N 0.52463 0.45422 0.77757 0.0
C964 C 0.52787 0.47526 0.779 0.0
C965 C 0.54255 0.49029 0.71573 0.0
C966 C 0.65202 0.85106 0.58885 0.0
C967 C 0.63381 0.84452 0.53351 0.0
C968 C 0.65248 0.8362 0.64764 0.0
C969 C 0.6347 0.81414 0.65485 0.0
H970 H 0.66671 0.86746 0.58354 0.0
H971 H 0.66742 0.84186 0.68542 0.0
S972 S 0.58167 0.78947 0.53313 0.0
N973 N 0.59645 0.81508 0.49532 0.0
N974 N 0.59724 0.78715 0.60767 0.0
C975 C 0.61555 0.80785 0.60501 0.0
C976 C 0.6151 0.82306 0.54413 0.0
C977 C 0.17934 0.81646 0.63561 0.0
C978 C 0.20237 0.82404 0.63209 0.0
C979 C 0.16451 0.80096 0.57708 0.0
C980 C 0.17204 0.79233 0.51249 0.0
H981 H 0.17278 0.82327 0.68194 0.0
H982 H 0.14715 0.79666 0.5795 0.0
S983 S 0.2304 0.80531 0.4795 0.0
N984 N 0.23182 0.82053 0.56275 0.0
N985 N 0.20381 0.79129 0.45173 0.0
C986 C 0.19476 0.7985 0.51171 0.0
C987 C 0.20997 0.8144 0.57176 0.0
C988 C 0.20408 0.39615 0.58942 0.0
C989 C 0.18199 0.3899 0.56731 0.0
C990 C 0.21886 0.39597 0.52845 0.0
C991 C 0.2117 0.38933 0.44444 0.0
H992 H 0.2094 0.39951 0.65526 0.0
H993 H 0.23525 0.39937 0.54847 0.0
S994 S 0.15665 0.3747 0.35296 0.0
N995 N 0.15458 0.37932 0.4547 0.0
N996 N 0.1822 0.37904 0.3401 0.0
C997 C 0.19026 0.38479 0.42064 0.0
C998 C 0.17538 0.38502 0.48227 0.0
C999 C 0.48084 0.96383 0.36686 0.0
C1000 C 0.49294 0.95271 0.35344 0.0
C1001 C 0.4654 0.96279 0.30732 0.0
C1002 C 0.46127 0.95049 0.23202 0.0
H1003 H 0.48397 0.97424 0.42247 0.0
H1004 H 0.45756 0.97277 0.31801 0.0
S1005 S 0.4867 0.91651 0.16979 0.0
N1006 N 0.4983 0.92738 0.2626 0.0
N1007 N 0.46912 0.92555 0.14944 0.0
C1008 C 0.47192 0.93791 0.22025 0.0
C1009 C 0.4878 0.93897 0.28141 0.0
C1010 C 0.0421 0.51817 0.35403 0.0
C1011 C 0.05364 0.54148 0.34253 0.0
C1012 C 0.04295 0.50397 0.29332 0.0
C1013 C 0.05547 0.51241 0.21869 0.0
H1014 H 0.03171 0.51069 0.40954 0.0
H1015 H 0.03292 0.48611 0.3031 0.0
S1016 S 0.08986 0.57201 0.15956 0.0
N1017 N 0.07909 0.57246 0.2529 0.0
N1018 N 0.08057 0.54544 0.13751 0.0
C1019 C 0.06815 0.53566 0.208 0.0
C1020 C 0.06729 0.5503 0.27038 0.0
C1021 C 0.48976 0.54063 0.39091 0.0
C1022 C 0.46705 0.52558 0.37443 0.0
C1023 C 0.50369 0.5552 0.32829 0.0
C1024 C 0.49537 0.55545 0.24735 0.0
H1025 H 0.49717 0.54022 0.45122 0.0
H1026 H 0.5214 0.56522 0.34138 0.0
S1027 S 0.4369 0.52112 0.17407 0.0
N1028 N 0.43648 0.51313 0.27353 0.0
N1029 N 0.46289 0.54083 0.15503 0.0
C1030 C 0.4724 0.54185 0.23177 0.0
C1031 C 0.45812 0.52685 0.29579 0.0
C1032 C 0.06642 0.53114 0.69596 0.0
C1033 C 0.06093 0.5474 0.72015 0.0
C1034 C 0.06577 0.51561 0.75542 0.0
C1035 C 0.05948 0.51601 0.83999 0.0
H1036 H 0.06948 0.52933 0.62967 0.0
H1037 H 0.06857 0.50235 0.73389 0.0
S1038 S 0.04662 0.55707 0.93659 0.0
N1039 N 0.05121 0.56422 0.8352 0.0
N1040 N 0.05027 0.53538 0.94702 0.0
C1041 C 0.05572 0.53326 0.86585 0.0
C1042 C 0.05634 0.54889 0.80574 0.0
C1043 C 0.48854 0.55666 0.78966 0.0
C1044 C 0.48861 0.54914 0.87252 0.0
C1045 C 0.47353 0.54198 0.72867 0.0
C1046 C 0.4583 0.51966 0.74981 0.0
H1047 H 0.50126 0.57321 0.77014 0.0
H1048 H 0.47521 0.54751 0.66319 0.0
S1049 S 0.44953 0.49337 0.96172 0.0
N1050 N 0.4703 0.51911 0.97552 0.0
N1051 N 0.44237 0.49164 0.86056 0.0
C1052 C 0.45691 0.51273 0.83418 0.0
C1053 C 0.47204 0.52751 0.89586 0.0
C1054 C 0.50635 0.96231 0.80947 0.0
C1055 C 0.4986 0.95057 0.73282 0.0
C1056 C 0.49156 0.96269 0.8686 0.0
C1057 C 0.4684 0.95149 0.85321 0.0
H1058 H 0.52411 0.97237 0.82157 0.0
H1059 H 0.49848 0.97275 0.92531 0.0
S1060 S 0.43954 0.91651 0.66556 0.0
N1061 N 0.4663 0.92595 0.64696 0.0
N1062 N 0.43824 0.92663 0.75928 0.0
C1063 C 0.46023 0.93824 0.77985 0.0
C1064 C 0.47543 0.93782 0.71918 0.0
C1065 C 0.18504 0.3946 0.02641 0.0
C1066 C 0.1857 0.38759 0.9432 0.0
C1067 C 0.19994 0.39516 0.08858 0.0
C1068 C 0.21591 0.38896 0.06841 0.0
H1069 H 0.17202 0.3981 0.04489 0.0
H1070 H 0.19794 0.39889 0.15381 0.0
S1071 S 0.2266 0.37305 0.85664 0.0
N1072 N 0.20525 0.37707 0.84154 0.0
N1073 N 0.23308 0.37807 0.95849 0.0
C1074 C 0.21777 0.38365 0.98416 0.0
C1075 C 0.20269 0.38302 0.92132 0.0
C1076 C 0.651 0.80488 0.0916 0.0
C1077 C 0.63353 0.79456 0.03231 0.0
C1078 C 0.65133 0.81985 0.15179 0.0
C1079 C 0.63427 0.82527 0.15561 0.0
H1080 H 0.66519 0.80228 0.08875 0.0
H1081 H 0.66564 0.82799 0.19352 0.0
S1082 S 0.58341 0.80094 0.02114 0.0
N1083 N 0.5976 0.78922 0.98598 0.0
N1084 N 0.59829 0.8175 0.09998 0.0
C1085 C 0.61582 0.81382 0.10117 0.0
C1086 C 0.61543 0.79842 0.03938 0.0
C1087 C 0.18902 0.82687 0.98617 0.0
C1088 C 0.21227 0.83582 0.99161 0.0
C1089 C 0.17458 0.81156 0.04557 0.0
C1090 C 0.18259 0.80449 0.11377 0.0
H1091 H 0.18175 0.83182 0.93553 0.0
H1092 H 0.15688 0.80554 0.03922 0.0
S1093 S 0.24175 0.82136 0.1545 0.0
N1094 N 0.24262 0.83526 0.06757 0.0
N1095 N 0.21515 0.80649 0.18158 0.0
C1096 C 0.20566 0.81232 0.11842 0.0
C1097 C 0.22057 0.828 0.05676 0.0
C1098 C 0.36447 0.10571 0.93961 0.0
C1099 C 0.35902 0.10639 0.85379 0.0
C1100 C 0.34807 0.09824 0.00326 0.0
C1101 C 0.32561 0.0907 0.98299 0.0
H1102 H 0.38163 0.11179 0.95829 0.0
H1103 H 0.35307 0.0986 0.06886 0.0
S1104 S 0.30262 0.08844 0.76731 0.0
N1105 N 0.32955 0.09843 0.7517 0.0
N1106 N 0.29874 0.08405 0.87069 0.0
C1107 C 0.31986 0.09066 0.89708 0.0
C1108 C 0.33658 0.09859 0.83264 0.0
C1109 C 0.90703 0.23785 0.97284 0.0
C1110 C 0.92021 0.22856 0.94838 0.0
C1111 C 0.8981 0.24613 0.9122 0.0
C1112 C 0.90174 0.24516 0.82464 0.0
H1113 H 0.90344 0.23863 0.0394 0.0
H1114 H 0.88788 0.25291 0.93413 0.0
S1115 S 0.93562 0.22314 0.72707 0.0
N1116 N 0.93695 0.21948 0.83022 0.0
N1117 N 0.91995 0.23478 0.71659 0.0
C1118 C 0.91505 0.23612 0.79928 0.0
C1119 C 0.92435 0.22792 0.86103 0.0
C1120 C 0.75685 0.65082 0.93646 0.0
C1121 C 0.76102 0.65608 0.84949 0.0
C1122 C 0.76659 0.66741 -0.00098 0.0
C1123 C 0.78057 0.68992 0.97692 0.0
H1124 H 0.74641 0.63367 0.95664 0.0
H1125 H 0.76318 0.66253 0.06525 0.0
S1126 S 0.7966 0.71251 0.75803 0.0
N1127 N 0.78001 0.68543 0.74443 0.0
N1128 N 0.79804 0.71664 0.86184 0.0
C1129 C 0.7846 0.69547 0.89013 0.0
C1130 C 0.77491 0.67854 0.82648 0.0
C1131 C 0.10481 0.36028 0.54123 0.0
C1132 C 0.10067 0.35421 0.62742 0.0
C1133 C 0.09761 0.34402 0.47727 0.0
C1134 C 0.08553 0.32113 0.49699 0.0
H1135 H 0.11493 0.37765 0.52329 0.0
H1136 H 0.10231 0.34943 0.4121 0.0
S1137 S 0.06712 0.2968 0.71234 0.0
N1138 N 0.08177 0.32398 0.72885 0.0
N1139 N 0.06747 0.29337 0.60846 0.0
C1140 C 0.07968 0.31492 0.58244 0.0
C1141 C 0.08748 0.33149 0.64774 0.0
C1142 C 0.66507 0.75987 0.49081 0.0
C1143 C 0.68766 0.76709 0.50753 0.0
C1144 C 0.64938 0.75318 0.55667 0.0
C1145 C 0.65573 0.75371 0.64202 0.0
H1146 H 0.65953 0.76007 0.42648 0.0
H1147 H 0.63236 0.74851 0.54071 0.0
S1148 S 0.71216 0.76869 0.71959 0.0
N1149 N 0.71512 0.77234 0.61557 0.0
N1150 N 0.68566 0.76014 0.73941 0.0
C1151 C 0.67799 0.75985 0.65949 0.0
C1152 C 0.69395 0.76638 0.59223 0.0
C1153 C 0.24605 0.92949 0.58315 0.0
C1154 C 0.24721 0.92474 0.49689 0.0
C1155 C 0.25308 0.92035 0.64764 0.0
C1156 C 0.26191 0.90645 0.62835 0.0
H1157 H 0.23859 0.93938 0.60145 0.0
H1158 H 0.25095 0.92368 0.71326 0.0
S1159 S 0.27024 0.89041 0.412 0.0
N1160 N 0.25909 0.90632 0.39534 0.0
N1161 N 0.2726 0.88944 0.51623 0.0
C1162 C 0.26426 0.90254 0.54217 0.0
C1163 C 0.25684 0.91161 0.47656 0.0
C1164 C 0.66577 0.91113 0.99078 0.0
C1165 C 0.68874 0.92423 0.00792 0.0
C1166 C 0.65007 0.90272 0.05675 0.0
C1167 C 0.65677 0.90679 0.14247 0.0
H1168 H 0.65991 0.90677 0.92587 0.0
H1169 H 0.63265 0.89213 0.04032 0.0
S1170 S 0.71481 0.94114 0.22152 0.0
N1171 N 0.71732 0.94185 0.11698 0.0
N1172 N 0.68783 0.92582 0.24093 0.0
C1173 C 0.67961 0.92056 0.16048 0.0
C1174 C 0.69559 0.92936 0.09322 0.0
C1175 C 0.09316 0.76249 0.15143 0.0
C1176 C 0.10533 0.75175 0.13203 0.0
C1177 C 0.08465 0.77019 0.08683 0.0
C1178 C 0.08834 0.76774 0.00053 0.0
H1179 H 0.09069 0.76552 0.21705 0.0
H1180 H 0.07614 0.77911 0.10477 0.0
S1181 S 0.11811 0.73986 0.91541 0.0
N1182 N 0.11959 0.73809 0.0197 0.0
N1183 N 0.10398 0.75291 0.8989 0.0
C1184 C 0.0998 0.75638 0.98026 0.0
C1185 C 0.10819 0.74828 0.04582 0.0
C1186 C 0.26752 0.36158 0.04286 0.0
C1187 C 0.26333 0.35568 0.12933 0.0
C1188 C 0.25975 0.34522 0.97905 0.0
C1189 C 0.24804 0.32238 -0.00049 0.0
H1190 H 0.27575 0.37895 0.02392 0.0
H1191 H 0.26232 0.35049 0.91312 0.0
S1192 S 0.23426 0.29824 0.21692 0.0
N1193 N 0.24769 0.32548 0.23233 0.0
N1194 N 0.23364 0.29474 0.11288 0.0
C1195 C 0.24483 0.31628 0.08598 0.0
C1196 C 0.25234 0.33293 0.15076 0.0
C1197 C 0.90971 0.67539 0.33827 0.0
C1198 C 0.89883 0.6527 0.36059 0.0
C1199 C 0.91832 0.6921 0.40069 0.0
C1200 C 0.91601 0.68673 0.48789 0.0
H1201 H 0.91158 0.68032 0.272 0.0
H1202 H 0.92642 0.70934 0.38029 0.0
S1203 S 0.88842 0.62972 0.57986 0.0
N1204 N 0.88611 0.62567 0.47598 0.0
N1205 N 0.90196 0.65703 0.59326 0.0
C1206 C 0.90516 0.66408 0.51108 0.0
C1207 C 0.89666 0.64707 0.44745 0.0
C1208 C 0.35048 0.25096 0.50149 0.0
C1209 C 0.32777 0.23776 0.47976 0.0
C1210 C 0.36698 0.261 0.43853 0.0
C1211 C 0.36137 0.25788 0.35164 0.0
H1212 H 0.3556 0.25324 0.5676 0.0
H1213 H 0.3843 0.27037 0.45804 0.0
S1214 S 0.30441 0.22561 0.26083 0.0
N1215 N 0.30057 0.22294 0.36475 0.0
N1216 N 0.33158 0.24141 0.24704 0.0
C1217 C 0.33873 0.24523 0.32915 0.0
C1218 C 0.32193 0.23528 0.39302 0.0
C1219 C 0.77417 0.10841 0.47308 0.0
C1220 C 0.78375 0.09547 0.44891 0.0
C1221 C 0.76513 0.11655 0.41237 0.0
C1222 C 0.76564 0.11232 0.32516 0.0
H1223 H 0.77375 0.11241 0.53942 0.0
H1224 H 0.75822 0.1267 0.43384 0.0
S1225 S 0.78812 0.07873 0.22861 0.0
N1226 N 0.79256 0.07827 0.3316 0.0
N1227 N 0.77584 0.09379 0.21776 0.0
C1228 C 0.7749 0.09918 0.30018 0.0
C1229 C 0.78387 0.09069 0.36198 0.0
C1230 C 0.01702 0.43312 0.32263 0.0
C1231 C 0.99415 0.41962 0.30475 0.0
C1232 C 0.03298 0.44053 0.25768 0.0
C1233 C 0.02664 0.43506 0.17214 0.0
H1234 H 0.02263 0.43857 0.38712 0.0
H1235 H 0.05031 0.45158 0.27433 0.0
S1236 S 0.96919 0.3986 0.09171 0.0
N1237 N 0.96614 0.39961 0.19553 0.0
N1238 N 0.99621 0.41421 0.07321 0.0
C1239 C 1.00396 0.42091 0.15351 0.0
C1240 C 0.9877 0.41297 0.2199 0.0
C1241 C 0.56933 0.59883 0.27014 0.0
C1242 C 0.57329 0.5965 0.18405 0.0
C1243 C 0.57447 0.58801 0.33433 0.0
C1244 C 0.58407 0.5748 0.31484 0.0
H1245 H 0.56102 0.60797 0.28778 0.0
H1246 H 0.57037 0.58959 0.3995 0.0
S1247 S 0.5994 0.56499 0.09946 0.0
N1248 N 0.58847 0.5811 0.08292 0.0
N1249 N 0.59856 0.56115 0.20337 0.0
C1250 C 0.58916 0.57331 0.22932 0.0
C1251 C 0.58367 0.58408 0.16401 0.0
C1252 C 0.41367 0.97452 0.25384 0.0
C1253 C 0.4141 0.98073 0.16839 0.0
C1254 C 0.42316 0.99066 0.31806 0.0
C1255 C 0.43298 0.01353 0.29937 0.0
H1256 H 0.40728 0.95719 0.27062 0.0
H1257 H 0.42346 0.9852 0.38242 0.0
S1258 S 0.436 0.03815 0.08646 0.0
N1259 N 0.4237 0.01103 0.06894 0.0
N1260 N 0.44085 0.0414 0.18984 0.0
C1261 C 0.43219 0.01984 0.21485 0.0
C1262 C 0.42294 1.00342 0.14929 0.0
C1263 C 0.5801 0.99279 0.82053 0.0
C1264 C 0.59427 0.01554 0.80181 0.0
C1265 C 0.57205 0.97661 0.75611 0.0
C1266 C 0.57751 0.98262 0.67037 0.0
H1267 H 0.57454 0.98751 0.88515 0.0
H1268 H 0.5604 0.95946 0.77316 0.0
S1269 S 0.61575 0.03938 0.58784 0.0
N1270 N 0.61503 0.04286 0.69151 0.0
N1271 N 0.5992 0.01245 0.57043 0.0
C1272 C 0.59242 0.00508 0.65102 0.0
C1273 C 0.60102 0.02153 0.71676 0.0
C1274 C 1.00447 0.58272 0.65655 0.0
C1275 C 0.02745 0.59518 0.67447 0.0
C1276 C 0.98858 0.57486 0.72189 0.0
C1277 C 0.9951 0.57865 0.80776 0.0
H1278 H 0.99869 0.57833 0.59155 0.0
H1279 H 0.97114 0.56469 0.70496 0.0
S1280 S 0.05287 0.61304 0.88876 0.0
N1281 N 0.05574 0.61323 0.78438 0.0
N1282 N 0.02582 0.59768 0.9073 0.0
C1283 C 0.01789 0.59213 0.82659 0.0
C1284 C 0.03409 0.60062 0.75989 0.0
C1285 C 0.41408 0.44096 0.7713 0.0
C1286 C 0.41818 0.4392 0.68479 0.0
C1287 C 0.42318 0.43373 0.83547 0.0
C1288 C 0.43633 0.42409 0.81529 0.0
H1289 H 0.40476 0.44903 0.78979 0.0
H1290 H 0.42031 0.43618 0.9013 0.0
S1291 S 0.45037 0.41409 0.59763 0.0
N1292 N 0.43517 0.42605 0.58214 0.0
N1293 N 0.45187 0.41208 0.70177 0.0
C1294 C 0.43959 0.42127 0.72874 0.0
C1295 C 0.43061 0.4289 0.66377 0.0
loop_
_geom_bond_atom_site_label_1
_geom_bond_atom_site_label_2
_geom_bond_distance
_geom_bond_site_symmetry_2
_ccdc_geom_bond_type
Co0 O1 2.216 . S
Co0 O2 2.091 . S
Co0 O4 2.004 1_554 S
Co0 O10 2.021 . S
Co0 O12 2.137 1_554 S
Co0 O13 2.244 . S
O1 Co0 2.216 . S
O1 C8 1.247 . S
O2 Co0 2.091 . S
O2 C8 1.261 . S
C3 O12 1.247 . S
C3 O13 1.272 1_556 S
O4 Co0 2.004 1_556 S
O4 C9 1.259 . S
Co5 O6 2.061 1_554 S
Co5 O11 2.052 . S
Co5 O13 2.135 . S
O6 Co5 2.061 1_556 S
O6 C9 1.235 . S
C7 O10 1.238 . S
C7 O11 1.241 . S
C8 O1 1.247 . S
C8 O2 1.261 . S
C9 O4 1.259 . S
C9 O6 1.235 . S
O10 Co0 2.021 . S
O10 C7 1.238 . S
O11 Co5 2.052 . S
O11 C7 1.241 . S
O12 Co0 2.137 1_556 S
O12 C3 1.247 . S
O13 Co0 2.244 . S
O13 C3 1.272 1_554 S
O13 Co5 2.135 . S
Co14 O15 2.216 . S
Co14 O16 2.091 . S
Co14 O18 2.004 1_554 S
Co14 O24 2.021 . S
Co14 O26 2.137 1_554 S
Co14 O27 2.244 . S
O15 Co14 2.216 . S
O15 C22 1.247 . S
O16 Co14 2.091 . S
O16 C22 1.261 . S
C17 O26 1.247 . S
C17 O27 1.272 1_556 S
O18 Co14 2.004 1_556 S
O18 C23 1.259 . S
Co19 O20 2.061 1_554 S
Co19 O25 2.052 . S
Co19 O27 2.135 . S
O20 Co19 2.061 1_556 S
O20 C23 1.235 . S
C21 O24 1.238 . S
C21 O25 1.241 . S
C22 O15 1.247 . S
C22 O16 1.261 . S
C23 O18 1.259 . S
C23 O20 1.235 . S
O24 Co14 2.021 . S
O24 C21 1.238 . S
O25 Co19 2.052 . S
O25 C21 1.241 . S
O26 Co14 2.137 1_556 S
O26 C17 1.247 . S
O27 Co14 2.244 . S
O27 C17 1.272 1_554 S
O27 Co19 2.135 . S
Co28 O29 2.216 . S
Co28 O30 2.091 . S
Co28 O32 2.004 1_554 S
Co28 O38 2.021 . S
Co28 O40 2.137 1_554 S
Co28 O41 2.244 . S
O29 Co28 2.216 . S
O29 C36 1.247 . S
O30 Co28 2.091 . S
O30 C36 1.261 . S
C31 O40 1.247 . S
C31 O41 1.272 1_556 S
O32 Co28 2.004 1_556 S
O32 C37 1.259 . S
Co33 O34 2.061 1_554 S
Co33 O39 2.052 . S
Co33 O41 2.135 . S
O34 Co33 2.061 1_556 S
O34 C37 1.235 . S
C35 O38 1.238 . S
C35 O39 1.241 . S
C36 O29 1.247 . S
C36 O30 1.261 . S
C37 O32 1.259 . S
C37 O34 1.235 . S
O38 Co28 2.021 . S
O38 C35 1.238 . S
O39 Co33 2.052 . S
O39 C35 1.241 . S
O40 Co28 2.137 1_556 S
O40 C31 1.247 . S
O41 Co28 2.244 . S
O41 C31 1.272 1_554 S
O41 Co33 2.135 . S
Co42 O43 2.216 . S
Co42 O44 2.091 . S
Co42 O46 2.004 . S
Co42 O52 2.021 . S
Co42 O54 2.137 . S
Co42 O55 2.244 . S
O43 Co42 2.216 . S
O43 C50 1.247 . S
O44 Co42 2.091 . S
O44 C50 1.261 . S
C45 O54 1.247 . S
C45 O55 1.272 . S
O46 Co42 2.004 . S
O46 C51 1.259 . S
Co47 O48 2.061 . S
Co47 O53 2.052 . S
Co47 O55 2.135 . S
O48 Co47 2.061 . S
O48 C51 1.235 . S
C49 O52 1.238 . S
C49 O53 1.241 . S
C50 O43 1.247 . S
C50 O44 1.261 . S
C51 O46 1.259 . S
C51 O48 1.235 . S
O52 Co42 2.021 . S
O52 C49 1.238 . S
O53 Co47 2.052 . S
O53 C49 1.241 . S
O54 Co42 2.137 . S
O54 C45 1.247 . S
O55 Co42 2.244 . S
O55 C45 1.272 . S
O55 Co47 2.135 . S
Co56 O57 2.216 . S
Co56 O58 2.091 . S
Co56 O60 2.004 . S
Co56 O66 2.021 . S
Co56 O68 2.137 . S
Co56 O69 2.244 . S
O57 Co56 2.216 . S
O57 C64 1.247 . S
O58 Co56 2.091 . S
O58 C64 1.261 . S
C59 O68 1.247 . S
C59 O69 1.272 . S
O60 Co56 2.004 . S
O60 C65 1.259 . S
Co61 O62 2.061 . S
Co61 O67 2.052 . S
Co61 O69 2.135 . S
O62 Co61 2.061 . S
O62 C65 1.235 . S
C63 O66 1.238 . S
C63 O67 1.241 . S
C64 O57 1.247 . S
C64 O58 1.261 . S
C65 O60 1.259 . S
C65 O62 1.235 . S
O66 Co56 2.021 . S
O66 C63 1.238 . S
O67 Co61 2.052 . S
O67 C63 1.241 . S
O68 Co56 2.137 . S
O68 C59 1.247 . S
O69 Co56 2.244 . S
O69 C59 1.272 . S
O69 Co61 2.135 . S
Co70 O71 2.216 . S
Co70 O72 2.091 . S
Co70 O74 2.004 . S
Co70 O80 2.021 . S
Co70 O82 2.137 . S
Co70 O83 2.244 . S
O71 Co70 2.216 . S
O71 C78 1.247 . S
O72 Co70 2.091 . S
O72 C78 1.261 . S
C73 O82 1.247 . S
C73 O83 1.272 . S
O74 Co70 2.004 . S
O74 C79 1.259 . S
Co75 O76 2.061 . S
Co75 O81 2.052 . S
Co75 O83 2.135 . S
O76 Co75 2.061 . S
O76 C79 1.235 . S
C77 O80 1.238 . S
C77 O81 1.241 . S
C78 O71 1.247 . S
C78 O72 1.261 . S
C79 O74 1.259 . S
C79 O76 1.235 . S
O80 Co70 2.021 . S
O80 C77 1.238 . S
O81 Co75 2.052 . S
O81 C77 1.241 . S
O82 Co70 2.137 . S
O82 C73 1.247 . S
O83 Co70 2.244 . S
O83 C73 1.272 . S
O83 Co75 2.135 . S
Co84 O85 2.216 . S
Co84 O86 2.091 . S
Co84 O88 2.004 1_556 S
Co84 O94 2.021 . S
Co84 O96 2.137 1_556 S
Co84 O97 2.244 . S
O85 Co84 2.216 . S
O85 C92 1.247 . S
O86 Co84 2.091 . S
O86 C92 1.261 . S
C87 O96 1.247 . S
C87 O97 1.272 1_554 S
O88 Co84 2.004 1_554 S
O88 C93 1.259 . S
Co89 O90 2.061 1_556 S
Co89 O95 2.052 . S
Co89 O97 2.135 . S
O90 Co89 2.061 1_554 S
O90 C93 1.235 . S
C91 O94 1.238 . S
C91 O95 1.241 . S
C92 O85 1.247 . S
C92 O86 1.261 . S
C93 O88 1.259 . S
C93 O90 1.235 . S
O94 Co84 2.021 . S
O94 C91 1.238 . S
O95 Co89 2.052 . S
O95 C91 1.241 . S
O96 Co84 2.137 1_554 S
O96 C87 1.247 . S
O97 Co84 2.244 . S
O97 C87 1.272 1_556 S
O97 Co89 2.135 . S
Co98 O99 2.216 . S
Co98 O100 2.091 . S
Co98 O102 2.004 1_556 S
Co98 O108 2.021 . S
Co98 O110 2.137 1_556 S
Co98 O111 2.244 . S
O99 Co98 2.216 . S
O99 C106 1.247 . S
O100 Co98 2.091 . S
O100 C106 1.261 . S
C101 O110 1.247 . S
C101 O111 1.272 1_554 S
O102 Co98 2.004 1_554 S
O102 C107 1.259 . S
Co103 O104 2.061 1_556 S
Co103 O109 2.052 . S
Co103 O111 2.135 . S
O104 Co103 2.061 1_554 S
O104 C107 1.235 . S
C105 O108 1.238 . S
C105 O109 1.241 . S
C106 O99 1.247 . S
C106 O100 1.261 . S
C107 O102 1.259 . S
C107 O104 1.235 . S
O108 Co98 2.021 . S
O108 C105 1.238 . S
O109 Co103 2.052 . S
O109 C105 1.241 . S
O110 Co98 2.137 1_554 S
O110 C101 1.247 . S
O111 Co98 2.244 . S
O111 C101 1.272 1_556 S
O111 Co103 2.135 . S
Co112 O113 2.216 . S
Co112 O114 2.091 . S
Co112 O116 2.004 1_556 S
Co112 O122 2.021 . S
Co112 O124 2.137 1_556 S
Co112 O125 2.244 . S
O113 Co112 2.216 . S
O113 C120 1.247 . S
O114 Co112 2.091 . S
O114 C120 1.261 . S
C115 O124 1.247 . S
C115 O125 1.272 1_554 S
O116 Co112 2.004 1_554 S
O116 C121 1.259 . S
Co117 O118 2.061 1_556 S
Co117 O123 2.052 . S
Co117 O125 2.135 . S
O118 Co117 2.061 1_554 S
O118 C121 1.235 . S
C119 O122 1.238 . S
C119 O123 1.241 . S
C120 O113 1.247 . S
C120 O114 1.261 . S
C121 O116 1.259 . S
C121 O118 1.235 . S
O122 Co112 2.021 . S
O122 C119 1.238 . S
O123 Co117 2.052 . S
O123 C119 1.241 . S
O124 Co112 2.137 1_554 S
O124 C115 1.247 . S
O125 Co112 2.244 . S
O125 C115 1.272 1_556 S
O125 Co117 2.135 . S
Co126 O127 2.216 . S
Co126 O128 2.091 . S
Co126 O130 2.004 . S
Co126 O136 2.021 . S
Co126 O138 2.137 . S
Co126 O139 2.244 . S
O127 Co126 2.216 . S
O127 C134 1.247 . S
O128 Co126 2.091 . S
O128 C134 1.261 . S
C129 O138 1.247 . S
C129 O139 1.272 . S
O130 Co126 2.004 . S
O130 C135 1.259 . S
Co131 O132 2.061 . S
Co131 O137 2.052 . S
Co131 O139 2.135 . S
O132 Co131 2.061 . S
O132 C135 1.235 . S
C133 O136 1.238 . S
C133 O137 1.241 . S
C134 O127 1.247 . S
C134 O128 1.261 . S
C135 O130 1.259 . S
C135 O132 1.235 . S
O136 Co126 2.021 . S
O136 C133 1.238 . S
O137 Co131 2.052 . S
O137 C133 1.241 . S
O138 Co126 2.137 . S
O138 C129 1.247 . S
O139 Co126 2.244 . S
O139 C129 1.272 . S
O139 Co131 2.135 . S
Co140 O141 2.216 . S
Co140 O142 2.091 . S
Co140 O144 2.004 . S
Co140 O150 2.021 . S
Co140 O152 2.137 . S
Co140 O153 2.244 . S
O141 Co140 2.216 . S
O141 C148 1.247 . S
O142 Co140 2.091 . S
O142 C148 1.261 . S
C143 O152 1.247 . S
C143 O153 1.272 . S
O144 Co140 2.004 . S
O144 C149 1.259 . S
Co145 O146 2.061 . S
Co145 O151 2.052 . S
Co145 O153 2.135 . S
O146 Co145 2.061 . S
O146 C149 1.235 . S
C147 O150 1.238 . S
C147 O151 1.241 . S
C148 O141 1.247 . S
C148 O142 1.261 . S
C149 O144 1.259 . S
C149 O146 1.235 . S
O150 Co140 2.021 . S
O150 C147 1.238 . S
O151 Co145 2.052 . S
O151 C147 1.241 . S
O152 Co140 2.137 . S
O152 C143 1.247 . S
O153 Co140 2.244 . S
O153 C143 1.272 . S
O153 Co145 2.135 . S
Co154 O155 2.216 . S
Co154 O156 2.091 . S
Co154 O158 2.004 . S
Co154 O164 2.021 . S
Co154 O166 2.137 . S
Co154 O167 2.244 . S
O155 Co154 2.216 . S
O155 C162 1.247 . S
O156 Co154 2.091 . S
O156 C162 1.261 . S
C157 O166 1.247 . S
C157 O167 1.272 . S
O158 Co154 2.004 . S
O158 C163 1.259 . S
Co159 O160 2.061 . S
Co159 O165 2.052 . S
Co159 O167 2.135 . S
O160 Co159 2.061 . S
O160 C163 1.235 . S
C161 O164 1.238 . S
C161 O165 1.241 . S
C162 O155 1.247 . S
C162 O156 1.261 . S
C163 O158 1.259 . S
C163 O160 1.235 . S
O164 Co154 2.021 . S
O164 C161 1.238 . S
O165 Co159 2.052 . S
O165 C161 1.241 . S
O166 Co154 2.137 . S
O166 C157 1.247 . S
O167 Co154 2.244 . S
O167 C157 1.272 . S
O167 Co159 2.135 . S
Co168 O169 2.216 . S
Co168 O170 2.091 . S
Co168 O172 2.004 . S
Co168 O178 2.021 . S
Co168 O180 2.137 . S
Co168 O181 2.244 . S
O169 Co168 2.216 . S
O169 C176 1.247 . S
O170 Co168 2.091 . S
O170 C176 1.261 . S
C171 O180 1.247 . S
C171 O181 1.272 . S
O172 Co168 2.004 . S
O172 C177 1.259 . S
Co173 O174 2.061 . S
Co173 O179 2.052 . S
Co173 O181 2.135 . S
O174 Co173 2.061 . S
O174 C177 1.235 . S
C175 O178 1.238 . S
C175 O179 1.241 . S
C176 O169 1.247 . S
C176 O170 1.261 . S
C177 O172 1.259 . S
C177 O174 1.235 . S
O178 Co168 2.021 . S
O178 C175 1.238 . S
O179 Co173 2.052 . S
O179 C175 1.241 . S
O180 Co168 2.137 . S
O180 C171 1.247 . S
O181 Co168 2.244 . S
O181 C171 1.272 . S
O181 Co173 2.135 . S
Co182 O183 2.216 . S
Co182 O184 2.091 . S
Co182 O186 2.004 . S
Co182 O192 2.021 . S
Co182 O194 2.137 . S
Co182 O195 2.244 . S
O183 Co182 2.216 . S
O183 C190 1.247 . S
O184 Co182 2.091 . S
O184 C190 1.261 . S
C185 O194 1.247 . S
C185 O195 1.272 . S
O186 Co182 2.004 . S
O186 C191 1.259 . S
Co187 O188 2.061 . S
Co187 O193 2.052 . S
Co187 O195 2.135 . S
O188 Co187 2.061 . S
O188 C191 1.235 . S
C189 O192 1.238 . S
C189 O193 1.241 . S
C190 O183 1.247 . S
C190 O184 1.261 . S
C191 O186 1.259 . S
C191 O188 1.235 . S
O192 Co182 2.021 . S
O192 C189 1.238 . S
O193 Co187 2.052 . S
O193 C189 1.241 . S
O194 Co182 2.137 . S
O194 C185 1.247 . S
O195 Co182 2.244 . S
O195 C185 1.272 . S
O195 Co187 2.135 . S
Co196 O197 2.216 . S
Co196 O198 2.091 . S
Co196 O200 2.004 . S
Co196 O206 2.021 . S
Co196 O208 2.137 . S
Co196 O209 2.244 . S
O197 Co196 2.216 . S
O197 C204 1.247 . S
O198 Co196 2.091 . S
O198 C204 1.261 . S
C199 O208 1.247 . S
C199 O209 1.272 . S
O200 Co196 2.004 . S
O200 C205 1.259 . S
Co201 O202 2.061 . S
Co201 O207 2.052 . S
Co201 O209 2.135 . S
O202 Co201 2.061 . S
O202 C205 1.235 . S
C203 O206 1.238 . S
C203 O207 1.241 . S
C204 O197 1.247 . S
C204 O198 1.261 . S
C205 O200 1.259 . S
C205 O202 1.235 . S
O206 Co196 2.021 . S
O206 C203 1.238 . S
O207 Co201 2.052 . S
O207 C203 1.241 . S
O208 Co196 2.137 . S
O208 C199 1.247 . S
O209 Co196 2.244 . S
O209 C199 1.272 . S
O209 Co201 2.135 . S
Co210 O211 2.216 . S
Co210 O212 2.091 . S
Co210 O214 2.004 . S
Co210 O220 2.021 . S
Co210 O222 2.137 . S
Co210 O223 2.244 . S
O211 Co210 2.216 . S
O211 C218 1.247 . S
O212 Co210 2.091 . S
O212 C218 1.261 . S
C213 O222 1.247 . S
C213 O223 1.272 . S
O214 Co210 2.004 . S
O214 C219 1.259 . S
Co215 O216 2.061 . S
Co215 O221 2.052 . S
Co215 O223 2.135 . S
O216 Co215 2.061 . S
O216 C219 1.235 . S
C217 O220 1.238 . S
C217 O221 1.241 . S
C218 O211 1.247 . S
C218 O212 1.261 . S
C219 O214 1.259 . S
C219 O216 1.235 . S
O220 Co210 2.021 . S
O220 C217 1.238 . S
O221 Co215 2.052 . S
O221 C217 1.241 . S
O222 Co210 2.137 . S
O222 C213 1.247 . S
O223 Co210 2.244 . S
O223 C213 1.272 . S
O223 Co215 2.135 . S
Co224 O225 2.216 . S
Co224 O226 2.091 . S
Co224 O228 2.004 . S
Co224 O234 2.021 . S
Co224 O236 2.137 . S
Co224 O237 2.244 . S
O225 Co224 2.216 . S
O225 C232 1.247 . S
O226 Co224 2.091 . S
O226 C232 1.261 . S
C227 O236 1.247 . S
C227 O237 1.272 . S
O228 Co224 2.004 . S
O228 C233 1.259 . S
Co229 O230 2.061 . S
Co229 O235 2.052 . S
Co229 O237 2.135 . S
O230 Co229 2.061 . S
O230 C233 1.235 . S
C231 O234 1.238 . S
C231 O235 1.241 . S
C232 O225 1.247 . S
C232 O226 1.261 . S
C233 O228 1.259 . S
C233 O230 1.235 . S
O234 Co224 2.021 . S
O234 C231 1.238 . S
O235 Co229 2.052 . S
O235 C231 1.241 . S
O236 Co224 2.137 . S
O236 C227 1.247 . S
O237 Co224 2.244 . S
O237 C227 1.272 . S
O237 Co229 2.135 . S
Co238 O239 2.216 . S
Co238 O240 2.091 . S
Co238 O242 2.004 . S
Co238 O248 2.021 . S
Co238 O250 2.137 . S
Co238 O251 2.244 . S
O239 Co238 2.216 . S
O239 C246 1.247 . S
O240 Co238 2.091 . S
O240 C246 1.261 . S
C241 O250 1.247 . S
C241 O251 1.272 . S
O242 Co238 2.004 . S
O242 C247 1.259 . S
Co243 O244 2.061 . S
Co243 O249 2.052 . S
Co243 O251 2.135 . S
O244 Co243 2.061 . S
O244 C247 1.235 . S
C245 O248 1.238 . S
C245 O249 1.241 . S
C246 O239 1.247 . S
C246 O240 1.261 . S
C247 O242 1.259 . S
C247 O244 1.235 . S
O248 Co238 2.021 . S
O248 C245 1.238 . S
O249 Co243 2.052 . S
O249 C245 1.241 . S
O250 Co238 2.137 . S
O250 C241 1.247 . S
O251 Co238 2.244 . S
O251 C241 1.272 . S
O251 Co243 2.135 . S
Co252 O253 2.216 . S
Co252 O254 2.091 . S
Co252 O256 2.004 . S
Co252 O262 2.021 . S
Co252 O264 2.137 . S
Co252 O265 2.244 . S
O253 Co252 2.216 . S
O253 C260 1.247 . S
O254 Co252 2.091 . S
O254 C260 1.261 . S
C255 O264 1.247 . S
C255 O265 1.272 . S
O256 Co252 2.004 . S
O256 C261 1.259 . S
Co257 O258 2.061 . S
Co257 O263 2.052 . S
Co257 O265 2.135 . S
O258 Co257 2.061 . S
O258 C261 1.235 . S
C259 O262 1.238 . S
C259 O263 1.241 . S
C260 O253 1.247 . S
C260 O254 1.261 . S
C261 O256 1.259 . S
C261 O258 1.235 . S
O262 Co252 2.021 . S
O262 C259 1.238 . S
O263 Co257 2.052 . S
O263 C259 1.241 . S
O264 Co252 2.137 . S
O264 C255 1.247 . S
O265 Co252 2.244 . S
O265 C255 1.272 . S
O265 Co257 2.135 . S
Co266 O267 2.216 . S
Co266 O268 2.091 . S
Co266 O270 2.004 . S
Co266 O276 2.021 . S
Co266 O278 2.137 . S
Co266 O279 2.244 . S
O267 Co266 2.216 . S
O267 C274 1.247 . S
O268 Co266 2.091 . S
O268 C274 1.261 . S
C269 O278 1.247 . S
C269 O279 1.272 . S
O270 Co266 2.004 . S
O270 C275 1.259 . S
Co271 O272 2.061 . S
Co271 O277 2.052 . S
Co271 O279 2.135 . S
O272 Co271 2.061 . S
O272 C275 1.235 . S
C273 O276 1.238 . S
C273 O277 1.241 . S
C274 O267 1.247 . S
C274 O268 1.261 . S
C275 O270 1.259 . S
C275 O272 1.235 . S
O276 Co266 2.021 . S
O276 C273 1.238 . S
O277 Co271 2.052 . S
O277 C273 1.241 . S
O278 Co266 2.137 . S
O278 C269 1.247 . S
O279 Co266 2.244 . S
O279 C269 1.272 . S
O279 Co271 2.135 . S
Co280 O281 2.216 . S
Co280 O282 2.091 . S
Co280 O284 2.004 . S
Co280 O290 2.021 . S
Co280 O292 2.137 . S
Co280 O293 2.244 . S
O281 Co280 2.216 . S
O281 C288 1.247 . S
O282 Co280 2.091 . S
O282 C288 1.261 . S
C283 O292 1.247 . S
C283 O293 1.272 . S
O284 Co280 2.004 . S
O284 C289 1.259 . S
Co285 O286 2.061 . S
Co285 O291 2.052 . S
Co285 O293 2.135 . S
O286 Co285 2.061 . S
O286 C289 1.235 . S
C287 O290 1.238 . S
C287 O291 1.241 . S
C288 O281 1.247 . S
C288 O282 1.261 . S
C289 O284 1.259 . S
C289 O286 1.235 . S
O290 Co280 2.021 . S
O290 C287 1.238 . S
O291 Co285 2.052 . S
O291 C287 1.241 . S
O292 Co280 2.137 . S
O292 C283 1.247 . S
O293 Co280 2.244 . S
O293 C283 1.272 . S
O293 Co285 2.135 . S
Co294 O295 2.216 . S
Co294 O296 2.091 . S
Co294 O298 2.004 . S
Co294 O304 2.021 . S
Co294 O306 2.137 . S
Co294 O307 2.244 . S
O295 Co294 2.216 . S
O295 C302 1.247 . S
O296 Co294 2.091 . S
O296 C302 1.261 . S
C297 O306 1.247 . S
C297 O307 1.272 . S
O298 Co294 2.004 . S
O298 C303 1.259 . S
Co299 O300 2.061 . S
Co299 O305 2.052 . S
Co299 O307 2.135 . S
O300 Co299 2.061 . S
O300 C303 1.235 . S
C301 O304 1.238 1_554 S
C301 O305 1.241 1_554 S
C302 O295 1.247 . S
C302 O296 1.261 . S
C303 O298 1.259 . S
C303 O300 1.235 . S
O304 Co294 2.021 . S
O304 C301 1.238 1_556 S
O305 Co299 2.052 . S
O305 C301 1.241 1_556 S
O306 Co294 2.137 . S
O306 C297 1.247 . S
O307 Co294 2.244 . S
O307 C297 1.272 . S
O307 Co299 2.135 . S
Co308 O309 2.216 . S
Co308 O310 2.091 . S
Co308 O312 2.004 . S
Co308 O318 2.021 . S
Co308 O320 2.137 . S
Co308 O321 2.244 . S
O309 Co308 2.216 . S
O309 C316 1.247 . S
O310 Co308 2.091 . S
O310 C316 1.261 . S
C311 O320 1.247 . S
C311 O321 1.272 . S
O312 Co308 2.004 . S
O312 C317 1.259 . S
Co313 O314 2.061 . S
Co313 O319 2.052 . S
Co313 O321 2.135 . S
O314 Co313 2.061 . S
O314 C317 1.235 . S
C315 O318 1.238 1_554 S
C315 O319 1.241 1_554 S
C316 O309 1.247 . S
C316 O310 1.261 . S
C317 O312 1.259 . S
C317 O314 1.235 . S
O318 Co308 2.021 . S
O318 C315 1.238 1_556 S
O319 Co313 2.052 . S
O319 C315 1.241 1_556 S
O320 Co308 2.137 . S
O320 C311 1.247 . S
O321 Co308 2.244 . S
O321 C311 1.272 . S
O321 Co313 2.135 . S
Co322 O323 2.216 . S
Co322 O324 2.091 . S
Co322 O326 2.004 . S
Co322 O332 2.021 . S
Co322 O334 2.137 . S
Co322 O335 2.244 . S
O323 Co322 2.216 . S
O323 C330 1.247 . S
O324 Co322 2.091 . S
O324 C330 1.261 . S
C325 O334 1.247 . S
C325 O335 1.272 . S
O326 Co322 2.004 . S
O326 C331 1.259 . S
Co327 O328 2.061 . S
Co327 O333 2.052 . S
Co327 O335 2.135 . S
O328 Co327 2.061 . S
O328 C331 1.235 . S
C329 O332 1.238 1_554 S
C329 O333 1.241 1_554 S
C330 O323 1.247 . S
C330 O324 1.261 . S
C331 O326 1.259 . S
C331 O328 1.235 . S
O332 Co322 2.021 . S
O332 C329 1.238 1_556 S
O333 Co327 2.052 . S
O333 C329 1.241 1_556 S
O334 Co322 2.137 . S
O334 C325 1.247 . S
O335 Co322 2.244 . S
O335 C325 1.272 . S
O335 Co327 2.135 . S
Co336 O337 2.216 . S
Co336 O338 2.091 . S
Co336 O340 2.004 . S
Co336 O346 2.021 . S
Co336 O348 2.137 . S
Co336 O349 2.244 . S
O337 Co336 2.216 . S
O337 C344 1.247 . S
O338 Co336 2.091 . S
O338 C344 1.261 . S
C339 O348 1.247 . S
C339 O349 1.272 . S
O340 Co336 2.004 . S
O340 C345 1.259 . S
Co341 O342 2.061 . S
Co341 O347 2.052 . S
Co341 O349 2.135 . S
O342 Co341 2.061 . S
O342 C345 1.235 . S
C343 O346 1.238 . S
C343 O347 1.241 . S
C344 O337 1.247 . S
C344 O338 1.261 . S
C345 O340 1.259 . S
C345 O342 1.235 . S
O346 Co336 2.021 . S
O346 C343 1.238 . S
O347 Co341 2.052 . S
O347 C343 1.241 . S
O348 Co336 2.137 . S
O348 C339 1.247 . S
O349 Co336 2.244 . S
O349 C339 1.272 . S
O349 Co341 2.135 . S
Co350 O351 2.216 . S
Co350 O352 2.091 . S
Co350 O354 2.004 . S
Co350 O360 2.021 . S
Co350 O362 2.137 . S
Co350 O363 2.244 . S
O351 Co350 2.216 . S
O351 C358 1.247 . S
O352 Co350 2.091 . S
O352 C358 1.261 . S
C353 O362 1.247 . S
C353 O363 1.272 . S
O354 Co350 2.004 . S
O354 C359 1.259 . S
Co355 O356 2.061 . S
Co355 O361 2.052 . S
Co355 O363 2.135 . S
O356 Co355 2.061 . S
O356 C359 1.235 . S
C357 O360 1.238 . S
C357 O361 1.241 . S
C358 O351 1.247 . S
C358 O352 1.261 . S
C359 O354 1.259 . S
C359 O356 1.235 . S
O360 Co350 2.021 . S
O360 C357 1.238 . S
O361 Co355 2.052 . S
O361 C357 1.241 . S
O362 Co350 2.137 . S
O362 C353 1.247 . S
O363 Co350 2.244 . S
O363 C353 1.272 . S
O363 Co355 2.135 . S
Co364 O365 2.216 . S
Co364 O366 2.091 . S
Co364 O368 2.004 . S
Co364 O374 2.021 . S
Co364 O376 2.137 . S
Co364 O377 2.244 . S
O365 Co364 2.216 . S
O365 C372 1.247 . S
O366 Co364 2.091 . S
O366 C372 1.261 . S
C367 O376 1.247 . S
C367 O377 1.272 . S
O368 Co364 2.004 . S
O368 C373 1.259 . S
Co369 O370 2.061 . S
Co369 O375 2.052 . S
Co369 O377 2.135 . S
O370 Co369 2.061 . S
O370 C373 1.235 . S
C371 O374 1.238 . S
C371 O375 1.241 . S
C372 O365 1.247 . S
C372 O366 1.261 . S
C373 O368 1.259 . S
C373 O370 1.235 . S
O374 Co364 2.021 . S
O374 C371 1.238 . S
O375 Co369 2.052 . S
O375 C371 1.241 . S
O376 Co364 2.137 . S
O376 C367 1.247 . S
O377 Co364 2.244 . S
O377 C367 1.272 . S
O377 Co369 2.135 . S
Co378 O379 2.216 . S
Co378 O380 2.091 . S
Co378 O382 2.004 . S
Co378 O388 2.021 . S
Co378 O390 2.137 . S
Co378 O391 2.244 . S
O379 Co378 2.216 . S
O379 C386 1.247 . S
O380 Co378 2.091 . S
O380 C386 1.261 . S
C381 O390 1.247 . S
C381 O391 1.272 . S
O382 Co378 2.004 . S
O382 C387 1.259 . S
Co383 O384 2.061 . S
Co383 O389 2.052 . S
Co383 O391 2.135 . S
O384 Co383 2.061 . S
O384 C387 1.235 . S
C385 O388 1.238 1_556 S
C385 O389 1.241 1_556 S
C386 O379 1.247 . S
C386 O380 1.261 . S
C387 O382 1.259 . S
C387 O384 1.235 . S
O388 Co378 2.021 . S
O388 C385 1.238 1_554 S
O389 Co383 2.052 . S
O389 C385 1.241 1_554 S
O390 Co378 2.137 . S
O390 C381 1.247 . S
O391 Co378 2.244 . S
O391 C381 1.272 . S
O391 Co383 2.135 . S
Co392 O393 2.216 . S
Co392 O394 2.091 . S
Co392 O396 2.004 . S
Co392 O402 2.021 . S
Co392 O404 2.137 . S
Co392 O405 2.244 . S
O393 Co392 2.216 . S
O393 C400 1.247 . S
O394 Co392 2.091 . S
O394 C400 1.261 . S
C395 O404 1.247 . S
C395 O405 1.272 . S
O396 Co392 2.004 . S
O396 C401 1.259 . S
Co397 O398 2.061 . S
Co397 O403 2.052 . S
Co397 O405 2.135 . S
O398 Co397 2.061 . S
O398 C401 1.235 . S
C399 O402 1.238 1_556 S
C399 O403 1.241 1_556 S
C400 O393 1.247 . S
C400 O394 1.261 . S
C401 O396 1.259 . S
C401 O398 1.235 . S
O402 Co392 2.021 . S
O402 C399 1.238 1_554 S
O403 Co397 2.052 . S
O403 C399 1.241 1_554 S
O404 Co392 2.137 . S
O404 C395 1.247 . S
O405 Co392 2.244 . S
O405 C395 1.272 . S
O405 Co397 2.135 . S
Co406 O407 2.216 . S
Co406 O408 2.091 . S
Co406 O410 2.004 . S
Co406 O416 2.021 . S
Co406 O418 2.137 . S
Co406 O419 2.244 . S
O407 Co406 2.216 . S
O407 C414 1.247 . S
O408 Co406 2.091 . S
O408 C414 1.261 . S
C409 O418 1.247 . S
C409 O419 1.272 . S
O410 Co406 2.004 . S
O410 C415 1.259 . S
Co411 O412 2.061 . S
Co411 O417 2.052 . S
Co411 O419 2.135 . S
O412 Co411 2.061 . S
O412 C415 1.235 . S
C413 O416 1.238 1_556 S
C413 O417 1.241 1_556 S
C414 O407 1.247 . S
C414 O408 1.261 . S
C415 O410 1.259 . S
C415 O412 1.235 . S
O416 Co406 2.021 . S
O416 C413 1.238 1_554 S
O417 Co411 2.052 . S
O417 C413 1.241 1_554 S
O418 Co406 2.137 . S
O418 C409 1.247 . S
O419 Co406 2.244 . S
O419 C409 1.272 . S
O419 Co411 2.135 . S
Co420 O421 2.216 . S
Co420 O422 2.091 . S
Co420 O424 2.004 . S
Co420 O430 2.021 . S
Co420 O432 2.137 . S
Co420 O433 2.244 . S
O421 Co420 2.216 . S
O421 C428 1.247 . S
O422 Co420 2.091 . S
O422 C428 1.261 . S
C423 O432 1.247 . S
C423 O433 1.272 . S
O424 Co420 2.004 . S
O424 C429 1.259 . S
Co425 O426 2.061 . S
Co425 O431 2.052 . S
Co425 O433 2.135 . S
O426 Co425 2.061 . S
O426 C429 1.235 . S
C427 O430 1.238 . S
C427 O431 1.241 . S
C428 O421 1.247 . S
C428 O422 1.261 . S
C429 O424 1.259 . S
C429 O426 1.235 . S
O430 Co420 2.021 . S
O430 C427 1.238 . S
O431 Co425 2.052 . S
O431 C427 1.241 . S
O432 Co420 2.137 . S
O432 C423 1.247 . S
O433 Co420 2.244 . S
O433 C423 1.272 . S
O433 Co425 2.135 . S
Co434 O435 2.216 . S
Co434 O436 2.091 . S
Co434 O438 2.004 . S
Co434 O444 2.021 . S
Co434 O446 2.137 . S
Co434 O447 2.244 . S
O435 Co434 2.216 . S
O435 C442 1.247 . S
O436 Co434 2.091 . S
O436 C442 1.261 . S
C437 O446 1.247 . S
C437 O447 1.272 . S
O438 Co434 2.004 . S
O438 C443 1.259 . S
Co439 O440 2.061 . S
Co439 O445 2.052 . S
Co439 O447 2.135 . S
O440 Co439 2.061 . S
O440 C443 1.235 . S
C441 O444 1.238 . S
C441 O445 1.241 . S
C442 O435 1.247 . S
C442 O436 1.261 . S
C443 O438 1.259 . S
C443 O440 1.235 . S
O444 Co434 2.021 . S
O444 C441 1.238 . S
O445 Co439 2.052 . S
O445 C441 1.241 . S
O446 Co434 2.137 . S
O446 C437 1.247 . S
O447 Co434 2.244 . S
O447 C437 1.272 . S
O447 Co439 2.135 . S
Co448 O449 2.216 . S
Co448 O450 2.091 . S
Co448 O452 2.004 . S
Co448 O458 2.021 . S
Co448 O460 2.137 . S
Co448 O461 2.244 . S
O449 Co448 2.216 . S
O449 C456 1.247 . S
O450 Co448 2.091 . S
O450 C456 1.261 . S
C451 O460 1.247 . S
C451 O461 1.272 . S
O452 Co448 2.004 . S
O452 C457 1.259 . S
Co453 O454 2.061 . S
Co453 O459 2.052 . S
Co453 O461 2.135 . S
O454 Co453 2.061 . S
O454 C457 1.235 . S
C455 O458 1.238 . S
C455 O459 1.241 . S
C456 O449 1.247 . S
C456 O450 1.261 . S
C457 O452 1.259 . S
C457 O454 1.235 . S
O458 Co448 2.021 . S
O458 C455 1.238 . S
O459 Co453 2.052 . S
O459 C455 1.241 . S
O460 Co448 2.137 . S
O460 C451 1.247 . S
O461 Co448 2.244 . S
O461 C451 1.272 . S
O461 Co453 2.135 . S
Co462 O463 2.216 . S
Co462 O464 2.091 . S
Co462 O466 2.004 . S
Co462 O472 2.021 . S
Co462 O474 2.137 . S
Co462 O475 2.244 . S
O463 Co462 2.216 . S
O463 C470 1.247 . S
O464 Co462 2.091 . S
O464 C470 1.261 . S
C465 O474 1.247 . S
C465 O475 1.272 . S
O466 Co462 2.004 . S
O466 C471 1.259 . S
Co467 O468 2.061 . S
Co467 O473 2.052 . S
Co467 O475 2.135 . S
O468 Co467 2.061 . S
O468 C471 1.235 . S
C469 O472 1.238 . S
C469 O473 1.241 . S
C470 O463 1.247 . S
C470 O464 1.261 . S
C471 O466 1.259 . S
C471 O468 1.235 . S
O472 Co462 2.021 . S
O472 C469 1.238 . S
O473 Co467 2.052 . S
O473 C469 1.241 . S
O474 Co462 2.137 . S
O474 C465 1.247 . S
O475 Co462 2.244 . S
O475 C465 1.272 . S
O475 Co467 2.135 . S
Co476 O477 2.216 . S
Co476 O478 2.091 . S
Co476 O480 2.004 . S
Co476 O486 2.021 . S
Co476 O488 2.137 . S
Co476 O489 2.244 . S
O477 Co476 2.216 . S
O477 C484 1.247 . S
O478 Co476 2.091 . S
O478 C484 1.261 . S
C479 O488 1.247 . S
C479 O489 1.272 . S
O480 Co476 2.004 . S
O480 C485 1.259 . S
Co481 O482 2.061 . S
Co481 O487 2.052 . S
Co481 O489 2.135 . S
O482 Co481 2.061 . S
O482 C485 1.235 . S
C483 O486 1.238 . S
C483 O487 1.241 . S
C484 O477 1.247 . S
C484 O478 1.261 . S
C485 O480 1.259 . S
C485 O482 1.235 . S
O486 Co476 2.021 . S
O486 C483 1.238 . S
O487 Co481 2.052 . S
O487 C483 1.241 . S
O488 Co476 2.137 . S
O488 C479 1.247 . S
O489 Co476 2.244 . S
O489 C479 1.272 . S
O489 Co481 2.135 . S
Co490 O491 2.216 . S
Co490 O492 2.091 . S
Co490 O494 2.004 . S
Co490 O500 2.021 . S
Co490 O502 2.137 . S
Co490 O503 2.244 . S
O491 Co490 2.216 . S
O491 C498 1.247 . S
O492 Co490 2.091 . S
O492 C498 1.261 . S
C493 O502 1.247 . S
C493 O503 1.272 . S
O494 Co490 2.004 . S
O494 C499 1.259 . S
Co495 O496 2.061 . S
Co495 O501 2.052 . S
Co495 O503 2.135 . S
O496 Co495 2.061 . S
O496 C499 1.235 . S
C497 O500 1.238 . S
C497 O501 1.241 . S
C498 O491 1.247 . S
C498 O492 1.261 . S
C499 O494 1.259 . S
C499 O496 1.235 . S
O500 Co490 2.021 . S
O500 C497 1.238 . S
O501 Co495 2.052 . S
O501 C497 1.241 . S
O502 Co490 2.137 . S
O502 C493 1.247 . S
O503 Co490 2.244 . S
O503 C493 1.272 . S
O503 Co495 2.135 . S
C504 C505 1.369 . S
C504 C506 1.419 1_565 S
C504 H508 0.930 . S
C505 C504 1.369 . S
C505 C514 1.429 . S
C506 C504 1.419 1_545 S
C506 C507 1.363 . S
C506 H509 0.929 . S
C507 C506 1.363 . S
C507 C513 1.428 . S
H508 C504 0.930 . S
H509 C506 0.929 . S
S510 N511 1.613 . S
S510 N512 1.610 1_565 S
N511 S510 1.613 . S
N511 C514 1.350 . S
N512 S510 1.610 1_545 S
N512 C513 1.351 . S
C513 C507 1.428 . S
C513 N512 1.351 . S
C513 C514 1.434 1_545 S
C514 C505 1.429 . S
C514 N511 1.350 . S
C514 C513 1.434 1_565 S
C515 C516 1.369 . S
C515 C517 1.419 . S
C515 H519 0.930 . S
C516 C515 1.369 . S
C516 C525 1.429 1_655 S
C517 C515 1.419 . S
C517 C518 1.363 1_655 S
C517 H520 0.929 . S
C518 C517 1.363 1_455 S
C518 C524 1.428 . S
H519 C515 0.930 . S
H520 C517 0.929 . S
S521 N522 1.613 . S
S521 N523 1.610 . S
N522 S521 1.613 . S
N522 C525 1.350 . S
N523 S521 1.610 . S
N523 C524 1.351 . S
C524 C518 1.428 . S
C524 N523 1.351 . S
C524 C525 1.434 . S
C525 C516 1.429 1_455 S
C525 N522 1.350 . S
C525 C524 1.434 . S
C526 C527 1.369 . S
C526 C528 1.419 . S
C526 H530 0.930 . S
C527 C526 1.369 . S
C527 C536 1.429 . S
C528 C526 1.419 . S
C528 C529 1.363 . S
C528 H531 0.929 . S
C529 C528 1.363 . S
C529 C535 1.428 . S
H530 C526 0.930 . S
H531 C528 0.929 . S
S532 N533 1.613 . S
S532 N534 1.610 . S
N533 S532 1.613 . S
N533 C536 1.350 . S
N534 S532 1.610 . S
N534 C535 1.351 . S
C535 C529 1.428 . S
C535 N534 1.351 . S
C535 C536 1.434 . S
C536 C527 1.429 . S
C536 N533 1.350 . S
C536 C535 1.434 . S
C537 C538 1.369 . S
C537 C539 1.419 1_565 S
C537 H541 0.930 . S
C538 C537 1.369 . S
C538 C547 1.429 . S
C539 C537 1.419 1_545 S
C539 C540 1.363 . S
C539 H542 0.929 . S
C540 C539 1.363 . S
C540 C546 1.428 . S
H541 C537 0.930 . S
H542 C539 0.929 . S
S543 N544 1.616 . S
S543 N545 1.610 . S
N544 S543 1.616 . S
N544 C547 1.354 1_545 S
N545 S543 1.610 . S
N545 C546 1.351 . S
C546 C540 1.428 . S
C546 N545 1.351 . S
C546 C547 1.434 1_545 S
C547 C538 1.429 . S
C547 N544 1.354 1_565 S
C547 C546 1.434 1_565 S
C548 C549 1.369 1_655 S
C548 C550 1.419 . S
C548 H552 0.930 . S
C549 C548 1.369 1_455 S
C549 C558 1.429 . S
C550 C548 1.419 . S
C550 C551 1.363 . S
C550 H553 0.929 . S
C551 C550 1.363 . S
C551 C557 1.428 1_655 S
H552 C548 0.930 . S
H553 C550 0.929 . S
S554 N555 1.613 . S
S554 N556 1.610 . S
N555 S554 1.613 . S
N555 C558 1.350 . S
N556 S554 1.610 . S
N556 C557 1.351 . S
C557 C551 1.428 1_455 S
C557 N556 1.351 . S
C557 C558 1.434 . S
C558 C549 1.429 . S
C558 N555 1.350 . S
C558 C557 1.434 . S
C559 C560 1.369 . S
C559 C561 1.419 . S
C559 H563 0.930 . S
C560 C559 1.369 . S
C560 C569 1.429 . S
C561 C559 1.419 . S
C561 C562 1.363 . S
C561 H564 0.929 . S
C562 C561 1.363 . S
C562 C568 1.428 . S
H563 C559 0.930 . S
H564 C561 0.929 . S
S565 N566 1.613 . S
S565 N567 1.610 . S
N566 S565 1.613 . S
N566 C569 1.350 . S
N567 S565 1.610 . S
N567 C568 1.351 . S
C568 C562 1.428 . S
C568 N567 1.351 . S
C568 C569 1.434 . S
C569 C560 1.429 . S
C569 N566 1.350 . S
C569 C568 1.434 . S
C570 C571 1.369 . S
C570 C572 1.419 . S
C570 H574 0.930 . S
C571 C570 1.369 . S
C571 C580 1.429 . S
C572 C570 1.419 . S
C572 C573 1.363 . S
C572 H575 0.929 . S
C573 C572 1.363 . S
C573 C579 1.428 . S
H574 C570 0.930 . S
H575 C572 0.929 . S
S576 N577 1.613 . S
S576 N578 1.610 . S
N577 S576 1.613 . S
N577 C580 1.350 . S
N578 S576 1.610 . S
N578 C579 1.351 . S
C579 C573 1.428 . S
C579 N578 1.351 . S
C579 C580 1.434 . S
C580 C571 1.429 . S
C580 N577 1.350 . S
C580 C579 1.434 . S
C581 C582 1.369 . S
C581 C583 1.419 . S
C581 H585 0.930 . S
C582 C581 1.369 . S
C582 C591 1.429 . S
C583 C581 1.419 . S
C583 C584 1.363 . S
C583 H586 0.929 . S
C584 C583 1.363 . S
C584 C590 1.428 . S
H585 C581 0.930 . S
H586 C583 0.929 . S
S587 N588 1.613 . S
S587 N589 1.610 . S
N588 S587 1.613 . S
N588 C591 1.350 . S
N589 S587 1.610 . S
N589 C590 1.351 . S
C590 C584 1.428 . S
C590 N589 1.351 . S
C590 C591 1.434 . S
C591 C582 1.429 . S
C591 N588 1.350 . S
C591 C590 1.434 . S
C592 C593 1.369 . S
C592 C594 1.419 . S
C592 H596 0.930 . S
C593 C592 1.369 . S
C593 C602 1.429 . S
C594 C592 1.419 . S
C594 C595 1.363 . S
C594 H597 0.929 . S
C595 C594 1.363 . S
C595 C601 1.428 . S
H596 C592 0.930 . S
H597 C594 0.929 . S
S598 N599 1.613 . S
S598 N600 1.610 . S
N599 S598 1.613 . S
N599 C602 1.350 . S
N600 S598 1.610 . S
N600 C601 1.351 . S
C601 C595 1.428 . S
C601 N600 1.351 . S
C601 C602 1.434 . S
C602 C593 1.429 . S
C602 N599 1.350 . S
C602 C601 1.434 . S
C603 C604 1.369 . S
C603 C605 1.419 . S
C603 H607 0.930 . S
C604 C603 1.369 . S
C604 C613 1.429 . S
C605 C603 1.419 . S
C605 C606 1.363 . S
C605 H608 0.929 . S
C606 C605 1.363 . S
C606 C612 1.428 . S
H607 C603 0.930 . S
H608 C605 0.929 . S
S609 N610 1.613 . S
S609 N611 1.610 1_554 S
N610 S609 1.613 . S
N610 C613 1.350 . S
N611 S609 1.610 1_556 S
N611 C612 1.351 1_556 S
C612 C606 1.428 . S
C612 N611 1.351 1_554 S
C612 C613 1.434 . S
C613 C604 1.429 . S
C613 N610 1.350 . S
C613 C612 1.434 . S
C614 C615 1.369 . S
C614 C616 1.419 . S
C614 H618 0.930 . S
C615 C614 1.369 . S
C615 C624 1.429 . S
C616 C614 1.419 . S
C616 C617 1.363 . S
C616 H619 0.929 1_554 S
C617 C616 1.363 . S
C617 C623 1.428 . S
H618 C614 0.930 . S
H619 C616 0.929 1_556 S
S620 N621 1.613 . S
S620 N622 1.610 . S
N621 S620 1.613 . S
N621 C624 1.350 . S
N622 S620 1.610 . S
N622 C623 1.351 . S
C623 C617 1.428 . S
C623 N622 1.351 . S
C623 C624 1.434 . S
C624 C615 1.429 . S
C624 N621 1.350 . S
C624 C623 1.434 . S
C625 C626 1.369 . S
C625 C627 1.419 . S
C625 H629 0.930 . S
C626 C625 1.369 . S
C626 C635 1.429 . S
C627 C625 1.419 . S
C627 C628 1.363 . S
C627 H630 0.929 1_554 S
C628 C627 1.363 . S
C628 C634 1.428 . S
H629 C625 0.930 . S
H630 C627 0.929 1_556 S
S631 N632 1.613 . S
S631 N633 1.610 . S
N632 S631 1.613 . S
N632 C635 1.350 . S
N633 S631 1.610 . S
N633 C634 1.351 . S
C634 C628 1.428 . S
C634 N633 1.351 . S
C634 C635 1.434 . S
C635 C626 1.429 . S
C635 N632 1.350 . S
C635 C634 1.434 . S
C636 C637 1.369 . S
C636 C638 1.419 . S
C636 H640 0.930 . S
C637 C636 1.369 . S
C637 C646 1.429 . S
C638 C636 1.419 . S
C638 C639 1.363 . S
C638 H641 0.929 1_556 S
C639 C638 1.363 . S
C639 C645 1.428 . S
H640 C636 0.930 . S
H641 C638 0.929 1_554 S
S642 N643 1.613 . S
S642 N644 1.610 . S
N643 S642 1.613 . S
N643 C646 1.350 . S
N644 S642 1.610 . S
N644 C645 1.351 . S
C645 C639 1.428 . S
C645 N644 1.351 . S
C645 C646 1.434 . S
C646 C637 1.429 . S
C646 N643 1.350 . S
C646 C645 1.434 . S
C647 C648 1.369 . S
C647 C649 1.419 . S
C647 H651 0.930 . S
C648 C647 1.369 . S
C648 C657 1.429 1_556 S
C649 C647 1.419 . S
C649 C650 1.363 . S
C649 H652 0.929 . S
C650 C649 1.363 . S
C650 C656 1.428 . S
H651 C647 0.930 . S
H652 C649 0.929 . S
S653 N654 1.613 . S
S653 N655 1.610 1_554 S
N654 S653 1.613 . S
N654 C657 1.350 . S
N655 S653 1.610 1_556 S
N655 C656 1.351 . S
C656 C650 1.428 . S
C656 N655 1.351 . S
C656 C657 1.434 1_556 S
C657 C648 1.429 1_554 S
C657 N654 1.350 . S
C657 C656 1.434 1_554 S
C658 C659 1.369 . S
C658 C660 1.419 . S
C658 H662 0.930 . S
C659 C658 1.369 . S
C659 C668 1.429 . S
C660 C658 1.419 . S
C660 C661 1.363 . S
C660 H663 0.929 1_556 S
C661 C660 1.363 . S
C661 C667 1.428 . S
H662 C658 0.930 . S
H663 C660 0.929 1_554 S
S664 N665 1.613 . S
S664 N666 1.610 . S
N665 S664 1.613 . S
N665 C668 1.350 . S
N666 S664 1.610 . S
N666 C667 1.351 . S
C667 C661 1.428 . S
C667 N666 1.351 . S
C667 C668 1.434 . S
C668 C659 1.429 . S
C668 N665 1.350 . S
C668 C667 1.434 . S
C669 C670 1.369 . S
C669 C671 1.419 . S
C669 H673 0.930 . S
C670 C669 1.369 . S
C670 C679 1.429 . S
C671 C669 1.419 . S
C671 C672 1.363 . S
C671 H674 0.929 . S
C672 C671 1.363 . S
C672 C678 1.428 . S
H673 C669 0.930 . S
H674 C671 0.929 . S
S675 N676 1.613 . S
S675 N677 1.610 . S
N676 S675 1.613 . S
N676 C679 1.350 . S
N677 S675 1.610 . S
N677 C678 1.351 . S
C678 C672 1.428 . S
C678 N677 1.351 . S
C678 C679 1.434 . S
C679 C670 1.429 . S
C679 N676 1.350 . S
C679 C678 1.434 . S
C680 C681 1.369 . S
C680 C682 1.419 . S
C680 H684 0.930 . S
C681 C680 1.369 . S
C681 C690 1.429 . S
C682 C680 1.419 . S
C682 C683 1.363 . S
C682 H685 0.929 . S
C683 C682 1.363 . S
C683 C689 1.428 . S
H684 C680 0.930 . S
H685 C682 0.929 . S
S686 N687 1.613 . S
S686 N688 1.610 . S
N687 S686 1.613 . S
N687 C690 1.350 . S
N688 S686 1.610 . S
N688 C689 1.351 . S
C689 C683 1.428 . S
C689 N688 1.351 . S
C689 C690 1.434 . S
C690 C681 1.429 . S
C690 N687 1.350 . S
C690 C689 1.434 . S
C691 C692 1.369 . S
C691 C693 1.419 . S
C691 H695 0.930 . S
C692 C691 1.369 . S
C692 C701 1.429 . S
C693 C691 1.419 . S
C693 C694 1.363 . S
C693 H696 0.929 . S
C694 C693 1.363 . S
C694 C700 1.428 . S
H695 C691 0.930 . S
H696 C693 0.929 . S
S697 N698 1.613 . S
S697 N699 1.610 . S
N698 S697 1.613 . S
N698 C701 1.350 . S
N699 S697 1.610 . S
N699 C700 1.351 . S
C700 C694 1.428 . S
C700 N699 1.351 . S
C700 C701 1.434 . S
C701 C692 1.429 . S
C701 N698 1.350 . S
C701 C700 1.434 . S
C702 C703 1.369 . S
C702 C704 1.419 . S
C702 H706 0.930 . S
C703 C702 1.369 . S
C703 C712 1.429 . S
C704 C702 1.419 . S
C704 C705 1.363 . S
C704 H707 0.929 . S
C705 C704 1.363 . S
C705 C711 1.428 . S
H706 C702 0.930 . S
H707 C704 0.929 . S
S708 N709 1.613 . S
S708 N710 1.610 . S
N709 S708 1.613 . S
N709 C712 1.350 . S
N710 S708 1.610 . S
N710 C711 1.351 . S
C711 C705 1.428 . S
C711 N710 1.351 . S
C711 C712 1.434 . S
C712 C703 1.429 . S
C712 N709 1.350 . S
C712 C711 1.434 . S
C713 C714 1.369 . S
C713 C715 1.419 . S
C713 H717 0.930 . S
C714 C713 1.369 . S
C714 C723 1.429 . S
C715 C713 1.419 . S
C715 C716 1.363 . S
C715 H718 0.929 . S
C716 C715 1.363 . S
C716 C722 1.428 . S
H717 C713 0.930 . S
H718 C715 0.929 . S
S719 N720 1.613 . S
S719 N721 1.610 . S
N720 S719 1.613 . S
N720 C723 1.350 . S
N721 S719 1.610 . S
N721 C722 1.351 . S
C722 C716 1.428 . S
C722 N721 1.351 . S
C722 C723 1.434 . S
C723 C714 1.429 . S
C723 N720 1.350 . S
C723 C722 1.434 . S
C724 C725 1.369 . S
C724 C726 1.419 . S
C724 H728 0.930 . S
C725 C724 1.369 . S
C725 C734 1.429 . S
C726 C724 1.419 . S
C726 C727 1.363 . S
C726 H729 0.929 . S
C727 C726 1.363 . S
C727 C733 1.428 . S
H728 C724 0.930 . S
H729 C726 0.929 . S
S730 N731 1.613 . S
S730 N732 1.610 . S
N731 S730 1.613 . S
N731 C734 1.350 . S
N732 S730 1.610 . S
N732 C733 1.351 . S
C733 C727 1.428 . S
C733 N732 1.351 . S
C733 C734 1.434 . S
C734 C725 1.429 . S
C734 N731 1.350 . S
C734 C733 1.434 . S
C735 C736 1.369 . S
C735 C737 1.419 . S
C735 H739 0.930 . S
C736 C735 1.369 . S
C736 C745 1.429 . S
C737 C735 1.419 . S
C737 C738 1.363 . S
C737 H740 0.929 . S
C738 C737 1.363 . S
C738 C744 1.428 . S
H739 C735 0.930 . S
H740 C737 0.929 . S
S741 N742 1.613 . S
S741 N743 1.610 . S
N742 S741 1.613 . S
N742 C745 1.350 . S
N743 S741 1.610 . S
N743 C744 1.351 . S
C744 C738 1.428 . S
C744 N743 1.351 . S
C744 C745 1.434 . S
C745 C736 1.429 . S
C745 N742 1.350 . S
C745 C744 1.434 . S
C746 C747 1.369 . S
C746 C748 1.419 . S
C746 H750 0.930 . S
C747 C746 1.369 . S
C747 C756 1.429 . S
C748 C746 1.419 . S
C748 C749 1.363 . S
C748 H751 0.929 . S
C749 C748 1.363 . S
C749 C755 1.428 . S
H750 C746 0.930 . S
H751 C748 0.929 . S
S752 N753 1.613 . S
S752 N754 1.610 . S
N753 S752 1.613 . S
N753 C756 1.350 . S
N754 S752 1.610 . S
N754 C755 1.351 . S
C755 C749 1.428 . S
C755 N754 1.351 . S
C755 C756 1.434 . S
C756 C747 1.429 . S
C756 N753 1.350 . S
C756 C755 1.434 . S
C757 C758 1.369 . S
C757 C759 1.419 . S
C757 H761 0.930 . S
C758 C757 1.369 . S
C758 C767 1.429 . S
C759 C757 1.419 . S
C759 C760 1.363 . S
C759 H762 0.929 . S
C760 C759 1.363 . S
C760 C766 1.428 . S
H761 C757 0.930 . S
H762 C759 0.929 . S
S763 N764 1.613 . S
S763 N765 1.610 . S
N764 S763 1.613 . S
N764 C767 1.350 . S
N765 S763 1.610 . S
N765 C766 1.351 . S
C766 C760 1.428 . S
C766 N765 1.351 . S
C766 C767 1.434 . S
C767 C758 1.429 . S
C767 N764 1.350 . S
C767 C766 1.434 . S
C768 C769 1.369 . S
C768 C770 1.419 . S
C768 H772 0.930 . S
C769 C768 1.369 . S
C769 C778 1.429 . S
C770 C768 1.419 . S
C770 C771 1.363 . S
C770 H773 0.929 . S
C771 C770 1.363 . S
C771 C777 1.428 . S
H772 C768 0.930 . S
H773 C770 0.929 . S
S774 N775 1.613 . S
S774 N776 1.610 . S
N775 S774 1.613 . S
N775 C778 1.350 . S
N776 S774 1.610 . S
N776 C777 1.351 . S
C777 C771 1.428 . S
C777 N776 1.351 . S
C777 C778 1.434 . S
C778 C769 1.429 . S
C778 N775 1.350 . S
C778 C777 1.434 . S
C779 C780 1.369 . S
C779 C781 1.419 . S
C779 H783 0.930 . S
C780 C779 1.369 . S
C780 C789 1.429 . S
C781 C779 1.419 . S
C781 C782 1.363 . S
C781 H784 0.929 . S
C782 C781 1.363 . S
C782 C788 1.428 . S
H783 C779 0.930 . S
H784 C781 0.929 . S
S785 N786 1.613 . S
S785 N787 1.610 . S
N786 S785 1.613 . S
N786 C789 1.350 . S
N787 S785 1.610 . S
N787 C788 1.351 . S
C788 C782 1.428 . S
C788 N787 1.351 . S
C788 C789 1.434 . S
C789 C780 1.429 . S
C789 N786 1.350 . S
C789 C788 1.434 . S
C790 C791 1.369 . S
C790 C792 1.419 . S
C790 H794 0.930 . S
C791 C790 1.369 . S
C791 C800 1.429 . S
C792 C790 1.419 . S
C792 C793 1.363 . S
C792 H795 0.929 . S
C793 C792 1.363 . S
C793 C799 1.428 . S
H794 C790 0.930 . S
H795 C792 0.929 . S
S796 N797 1.613 . S
S796 N798 1.610 . S
N797 S796 1.613 . S
N797 C800 1.350 . S
N798 S796 1.610 . S
N798 C799 1.351 . S
C799 C793 1.428 . S
C799 N798 1.351 . S
C799 C800 1.434 . S
C800 C791 1.429 . S
C800 N797 1.350 . S
C800 C799 1.434 . S
C801 C802 1.369 . S
C801 C803 1.419 . S
C801 H805 0.930 . S
C802 C801 1.369 . S
C802 C811 1.429 . S
C803 C801 1.419 . S
C803 C804 1.363 . S
C803 H806 0.929 . S
C804 C803 1.363 . S
C804 C810 1.428 . S
H805 C801 0.930 . S
H806 C803 0.929 . S
S807 N808 1.613 . S
S807 N809 1.610 . S
N808 S807 1.613 . S
N808 C811 1.350 . S
N809 S807 1.610 . S
N809 C810 1.351 . S
C810 C804 1.428 . S
C810 N809 1.351 . S
C810 C811 1.434 . S
C811 C802 1.429 . S
C811 N808 1.350 . S
C811 C810 1.434 . S
C812 C813 1.369 . S
C812 C814 1.419 . S
C812 H816 0.930 . S
C813 C812 1.369 . S
C813 C822 1.429 . S
C814 C812 1.419 . S
C814 C815 1.363 . S
C814 H817 0.929 . S
C815 C814 1.363 . S
C815 C821 1.428 . S
H816 C812 0.930 . S
H817 C814 0.929 . S
S818 N819 1.613 . S
S818 N820 1.610 . S
N819 S818 1.613 . S
N819 C822 1.350 . S
N820 S818 1.610 . S
N820 C821 1.351 . S
C821 C815 1.428 . S
C821 N820 1.351 . S
C821 C822 1.434 . S
C822 C813 1.429 . S
C822 N819 1.350 . S
C822 C821 1.434 . S
C823 C824 1.369 . S
C823 C825 1.419 . S
C823 H827 0.930 . S
C824 C823 1.369 . S
C824 C833 1.429 . S
C825 C823 1.419 . S
C825 C826 1.363 . S
C825 H828 0.929 . S
C826 C825 1.363 . S
C826 C832 1.428 . S
H827 C823 0.930 . S
H828 C825 0.929 . S
S829 N830 1.613 . S
S829 N831 1.610 . S
N830 S829 1.613 . S
N830 C833 1.350 . S
N831 S829 1.610 . S
N831 C832 1.351 . S
C832 C826 1.428 . S
C832 N831 1.351 . S
C832 C833 1.434 . S
C833 C824 1.429 . S
C833 N830 1.350 . S
C833 C832 1.434 . S
C834 C835 1.369 . S
C834 C836 1.419 . S
C834 H838 0.930 . S
C835 C834 1.369 . S
C835 C844 1.429 . S
C836 C834 1.419 . S
C836 C837 1.363 . S
C836 H839 0.929 . S
C837 C836 1.363 . S
C837 C843 1.428 . S
H838 C834 0.930 . S
H839 C836 0.929 . S
S840 N841 1.613 1_556 S
S840 N842 1.610 . S
N841 S840 1.613 1_554 S
N841 C844 1.350 . S
N842 S840 1.610 . S
N842 C843 1.351 1_556 S
C843 C837 1.428 . S
C843 N842 1.351 1_554 S
C843 C844 1.434 . S
C844 C835 1.429 . S
C844 N841 1.350 . S
C844 C843 1.434 . S
C845 C846 1.369 . S
C845 C847 1.419 . S
C845 H849 0.930 . S
C846 C845 1.369 . S
C846 C855 1.429 . S
C847 C845 1.419 . S
C847 C848 1.363 . S
C847 H850 0.929 . S
C848 C847 1.363 . S
C848 C854 1.428 . S
H849 C845 0.930 . S
H850 C847 0.929 . S
S851 N852 1.613 . S
S851 N853 1.610 . S
N852 S851 1.613 . S
N852 C855 1.350 . S
N853 S851 1.610 . S
N853 C854 1.351 . S
C854 C848 1.428 . S
C854 N853 1.351 . S
C854 C855 1.434 . S
C855 C846 1.429 . S
C855 N852 1.350 . S
C855 C854 1.434 . S
C856 C857 1.369 . S
C856 C858 1.419 . S
C856 H860 0.930 . S
C857 C856 1.369 . S
C857 C866 1.429 . S
C858 C856 1.419 . S
C858 C859 1.363 . S
C858 H861 0.929 . S
C859 C858 1.363 . S
C859 C865 1.428 . S
H860 C856 0.930 . S
H861 C858 0.929 . S
S862 N863 1.613 . S
S862 N864 1.610 . S
N863 S862 1.613 . S
N863 C866 1.350 . S
N864 S862 1.610 . S
N864 C865 1.351 . S
C865 C859 1.428 . S
C865 N864 1.351 . S
C865 C866 1.434 . S
C866 C857 1.429 . S
C866 N863 1.350 . S
C866 C865 1.434 . S
C867 C868 1.369 . S
C867 C869 1.419 1_556 S
C867 H871 0.930 . S
C868 C867 1.369 . S
C868 C877 1.429 1_556 S
C869 C867 1.419 1_554 S
C869 C870 1.363 . S
C869 H872 0.929 1_554 S
C870 C869 1.363 . S
C870 C876 1.428 . S
H871 C867 0.930 . S
H872 C869 0.929 1_556 S
S873 N874 1.613 . S
S873 N875 1.610 . S
N874 S873 1.613 . S
N874 C877 1.350 . S
N875 S873 1.610 . S
N875 C876 1.351 . S
C876 C870 1.428 . S
C876 N875 1.351 . S
C876 C877 1.434 . S
C877 C868 1.429 1_554 S
C877 N874 1.350 . S
C877 C876 1.434 . S
C878 C879 1.369 . S
C878 C880 1.419 1_556 S
C878 H882 0.930 . S
C879 C878 1.369 . S
C879 C888 1.429 1_556 S
C880 C878 1.419 1_554 S
C880 C881 1.363 . S
C880 H883 0.929 . S
C881 C880 1.363 . S
C881 C887 1.428 . S
H882 C878 0.930 . S
H883 C880 0.929 . S
S884 N885 1.613 . S
S884 N886 1.610 . S
N885 S884 1.613 . S
N885 C888 1.350 . S
N886 S884 1.610 . S
N886 C887 1.351 . S
C887 C881 1.428 . S
C887 N886 1.351 . S
C887 C888 1.434 . S
C888 C879 1.429 1_554 S
C888 N885 1.350 . S
C888 C887 1.434 . S
C889 C890 1.369 . S
C889 C891 1.419 1_556 S
C889 H893 0.930 . S
C890 C889 1.369 . S
C890 C899 1.429 1_556 S
C891 C889 1.419 1_554 S
C891 C892 1.363 . S
C891 H894 0.929 1_554 S
C892 C891 1.363 . S
C892 C898 1.428 . S
H893 C889 0.930 . S
H894 C891 0.929 1_556 S
S895 N896 1.613 . S
S895 N897 1.610 . S
N896 S895 1.613 . S
N896 C899 1.350 . S
N897 S895 1.610 . S
N897 C898 1.351 . S
C898 C892 1.428 . S
C898 N897 1.351 . S
C898 C899 1.434 . S
C899 C890 1.429 1_554 S
C899 N896 1.350 . S
C899 C898 1.434 . S
C900 C901 1.369 . S
C900 C902 1.419 . S
C900 H904 0.930 . S
C901 C900 1.369 . S
C901 C910 1.429 . S
C902 C900 1.419 . S
C902 C903 1.363 . S
C902 H905 0.929 . S
C903 C902 1.363 . S
C903 C909 1.428 . S
H904 C900 0.930 . S
H905 C902 0.929 . S
S906 N907 1.613 . S
S906 N908 1.610 . S
N907 S906 1.613 . S
N907 C910 1.350 . S
N908 S906 1.610 . S
N908 C909 1.351 . S
C909 C903 1.428 . S
C909 N908 1.351 . S
C909 C910 1.434 . S
C910 C901 1.429 . S
C910 N907 1.350 . S
C910 C909 1.434 . S
C911 C912 1.369 . S
C911 C913 1.419 . S
C911 H915 0.930 . S
C912 C911 1.369 . S
C912 C921 1.429 . S
C913 C911 1.419 . S
C913 C914 1.363 . S
C913 H916 0.929 . S
C914 C913 1.363 . S
C914 C920 1.428 . S
H915 C911 0.930 . S
H916 C913 0.929 . S
S917 N918 1.613 . S
S917 N919 1.610 . S
N918 S917 1.613 . S
N918 C921 1.350 . S
N919 S917 1.610 . S
N919 C920 1.351 . S
C920 C914 1.428 . S
C920 N919 1.351 . S
C920 C921 1.434 . S
C921 C912 1.429 . S
C921 N918 1.350 . S
C921 C920 1.434 . S
C922 C923 1.369 . S
C922 C924 1.419 . S
C922 H926 0.930 . S
C923 C922 1.369 . S
C923 C932 1.429 . S
C924 C922 1.419 . S
C924 C925 1.363 . S
C924 H927 0.929 . S
C925 C924 1.363 . S
C925 C931 1.428 . S
H926 C922 0.930 . S
H927 C924 0.929 . S
S928 N929 1.613 . S
S928 N930 1.610 . S
N929 S928 1.613 . S
N929 C932 1.350 . S
N930 S928 1.610 . S
N930 C931 1.351 . S
C931 C925 1.428 . S
C931 N930 1.351 . S
C931 C932 1.434 . S
C932 C923 1.429 . S
C932 N929 1.350 . S
C932 C931 1.434 . S
C933 C934 1.369 . S
C933 C935 1.419 . S
C933 H937 0.930 . S
C934 C933 1.369 . S
C934 C943 1.429 . S
C935 C933 1.419 . S
C935 C936 1.363 . S
C935 H938 0.929 . S
C936 C935 1.363 . S
C936 C942 1.428 . S
H937 C933 0.930 . S
H938 C935 0.929 . S
S939 N940 1.613 . S
S939 N941 1.610 . S
N940 S939 1.613 . S
N940 C943 1.350 . S
N941 S939 1.610 . S
N941 C942 1.351 . S
C942 C936 1.428 . S
C942 N941 1.351 . S
C942 C943 1.434 . S
C943 C934 1.429 . S
C943 N940 1.350 . S
C943 C942 1.434 . S
C944 C945 1.369 . S
C944 C946 1.419 . S
C944 H948 0.930 . S
C945 C944 1.369 . S
C945 C954 1.429 . S
C946 C944 1.419 . S
C946 C947 1.363 . S
C946 H949 0.929 . S
C947 C946 1.363 . S
C947 C953 1.428 . S
H948 C944 0.930 . S
H949 C946 0.929 . S
S950 N951 1.613 . S
S950 N952 1.610 . S
N951 S950 1.613 . S
N951 C954 1.350 . S
N952 S950 1.610 . S
N952 C953 1.351 . S
C953 C947 1.428 . S
C953 N952 1.351 . S
C953 C954 1.434 . S
C954 C945 1.429 . S
C954 N951 1.350 . S
C954 C953 1.434 . S
C955 C956 1.369 . S
C955 C957 1.419 . S
C955 H959 0.930 . S
C956 C955 1.369 . S
C956 C965 1.429 . S
C957 C955 1.419 . S
C957 C958 1.363 . S
C957 H960 0.929 . S
C958 C957 1.363 . S
C958 C964 1.428 . S
H959 C955 0.930 . S
H960 C957 0.929 . S
S961 N962 1.613 . S
S961 N963 1.610 . S
N962 S961 1.613 . S
N962 C965 1.350 . S
N963 S961 1.610 . S
N963 C964 1.351 . S
C964 C958 1.428 . S
C964 N963 1.351 . S
C964 C965 1.434 . S
C965 C956 1.429 . S
C965 N962 1.350 . S
C965 C964 1.434 . S
C966 C967 1.369 . S
C966 C968 1.419 . S
C966 H970 0.930 . S
C967 C966 1.369 . S
C967 C976 1.429 . S
C968 C966 1.419 . S
C968 C969 1.363 . S
C968 H971 0.929 . S
C969 C968 1.363 . S
C969 C975 1.428 . S
H970 C966 0.930 . S
H971 C968 0.929 . S
S972 N973 1.613 . S
S972 N974 1.610 . S
N973 S972 1.613 . S
N973 C976 1.350 . S
N974 S972 1.610 . S
N974 C975 1.351 . S
C975 C969 1.428 . S
C975 N974 1.351 . S
C975 C976 1.434 . S
C976 C967 1.429 . S
C976 N973 1.350 . S
C976 C975 1.434 . S
C977 C978 1.369 . S
C977 C979 1.419 . S
C977 H981 0.930 . S
C978 C977 1.369 . S
C978 C987 1.429 . S
C979 C977 1.419 . S
C979 C980 1.363 . S
C979 H982 0.929 . S
C980 C979 1.363 . S
C980 C986 1.428 . S
H981 C977 0.930 . S
H982 C979 0.929 . S
S983 N984 1.613 . S
S983 N985 1.610 . S
N984 S983 1.613 . S
N984 C987 1.350 . S
N985 S983 1.610 . S
N985 C986 1.351 . S
C986 C980 1.428 . S
C986 N985 1.351 . S
C986 C987 1.434 . S
C987 C978 1.429 . S
C987 N984 1.350 . S
C987 C986 1.434 . S
C988 C989 1.369 . S
C988 C990 1.419 . S
C988 H992 0.930 . S
C989 C988 1.369 . S
C989 C998 1.429 . S
C990 C988 1.419 . S
C990 C991 1.363 . S
C990 H993 0.929 . S
C991 C990 1.363 . S
C991 C997 1.428 . S
H992 C988 0.930 . S
H993 C990 0.929 . S
S994 N995 1.613 . S
S994 N996 1.610 . S
N995 S994 1.613 . S
N995 C998 1.350 . S
N996 S994 1.610 . S
N996 C997 1.351 . S
C997 C991 1.428 . S
C997 N996 1.351 . S
C997 C998 1.434 . S
C998 C989 1.429 . S
C998 N995 1.350 . S
C998 C997 1.434 . S
C999 C1000 1.369 . S
C999 C1001 1.419 . S
C999 H1003 0.930 . S
C1000 C999 1.369 . S
C1000 C1009 1.429 . S
C1001 C999 1.419 . S
C1001 C1002 1.363 . S
C1001 H1004 0.929 . S
C1002 C1001 1.363 . S
C1002 C1008 1.428 . S
H1003 C999 0.930 . S
H1004 C1001 0.929 . S
S1005 N1006 1.613 . S
S1005 N1007 1.610 . S
N1006 S1005 1.613 . S
N1006 C1009 1.350 . S
N1007 S1005 1.610 . S
N1007 C1008 1.351 . S
C1008 C1002 1.428 . S
C1008 N1007 1.351 . S
C1008 C1009 1.434 . S
C1009 C1000 1.429 . S
C1009 N1006 1.350 . S
C1009 C1008 1.434 . S
C1010 C1011 1.369 . S
C1010 C1012 1.419 . S
C1010 H1014 0.930 . S
C1011 C1010 1.369 . S
C1011 C1020 1.429 . S
C1012 C1010 1.419 . S
C1012 C1013 1.363 . S
C1012 H1015 0.929 . S
C1013 C1012 1.363 . S
C1013 C1019 1.428 . S
H1014 C1010 0.930 . S
H1015 C1012 0.929 . S
S1016 N1017 1.613 . S
S1016 N1018 1.610 . S
N1017 S1016 1.613 . S
N1017 C1020 1.350 . S
N1018 S1016 1.610 . S
N1018 C1019 1.351 . S
C1019 C1013 1.428 . S
C1019 N1018 1.351 . S
C1019 C1020 1.434 . S
C1020 C1011 1.429 . S
C1020 N1017 1.350 . S
C1020 C1019 1.434 . S
C1021 C1022 1.369 . S
C1021 C1023 1.419 . S
C1021 H1025 0.930 . S
C1022 C1021 1.369 . S
C1022 C1031 1.429 . S
C1023 C1021 1.419 . S
C1023 C1024 1.363 . S
C1023 H1026 0.929 . S
C1024 C1023 1.363 . S
C1024 C1030 1.428 . S
H1025 C1021 0.930 . S
H1026 C1023 0.929 . S
S1027 N1028 1.613 . S
S1027 N1029 1.610 . S
N1028 S1027 1.613 . S
N1028 C1031 1.350 . S
N1029 S1027 1.610 . S
N1029 C1030 1.351 . S
C1030 C1024 1.428 . S
C1030 N1029 1.351 . S
C1030 C1031 1.434 . S
C1031 C1022 1.429 . S
C1031 N1028 1.350 . S
C1031 C1030 1.434 . S
C1032 C1033 1.369 . S
C1032 C1034 1.419 . S
C1032 H1036 0.930 . S
C1033 C1032 1.369 . S
C1033 C1042 1.429 . S
C1034 C1032 1.419 . S
C1034 C1035 1.363 . S
C1034 H1037 0.929 . S
C1035 C1034 1.363 . S
C1035 C1041 1.428 . S
H1036 C1032 0.930 . S
H1037 C1034 0.929 . S
S1038 N1039 1.613 1_554 S
S1038 N1040 1.610 . S
N1039 S1038 1.613 1_556 S
N1039 C1042 1.350 . S
N1040 S1038 1.610 . S
N1040 C1041 1.351 1_554 S
C1041 C1035 1.428 . S
C1041 N1040 1.351 1_556 S
C1041 C1042 1.434 . S
C1042 C1033 1.429 . S
C1042 N1039 1.350 . S
C1042 C1041 1.434 . S
C1043 C1044 1.369 . S
C1043 C1045 1.419 . S
C1043 H1047 0.930 . S
C1044 C1043 1.369 . S
C1044 C1053 1.429 . S
C1045 C1043 1.419 . S
C1045 C1046 1.363 . S
C1045 H1048 0.929 . S
C1046 C1045 1.363 . S
C1046 C1052 1.428 . S
H1047 C1043 0.930 . S
H1048 C1045 0.929 . S
S1049 N1050 1.613 . S
S1049 N1051 1.610 1_554 S
N1050 S1049 1.613 . S
N1050 C1053 1.350 1_554 S
N1051 S1049 1.610 1_556 S
N1051 C1052 1.351 . S
C1052 C1046 1.428 . S
C1052 N1051 1.351 . S
C1052 C1053 1.434 . S
C1053 C1044 1.429 . S
C1053 N1050 1.350 1_556 S
C1053 C1052 1.434 . S
C1054 C1055 1.369 . S
C1054 C1056 1.419 . S
C1054 H1058 0.930 . S
C1055 C1054 1.369 . S
C1055 C1064 1.429 . S
C1056 C1054 1.419 . S
C1056 C1057 1.363 . S
C1056 H1059 0.929 . S
C1057 C1056 1.363 . S
C1057 C1063 1.428 . S
H1058 C1054 0.930 . S
H1059 C1056 0.929 . S
S1060 N1061 1.613 . S
S1060 N1062 1.610 . S
N1061 S1060 1.613 . S
N1061 C1064 1.350 . S
N1062 S1060 1.610 . S
N1062 C1063 1.351 . S
C1063 C1057 1.428 . S
C1063 N1062 1.351 . S
C1063 C1064 1.434 . S
C1064 C1055 1.429 . S
C1064 N1061 1.350 . S
C1064 C1063 1.434 . S
C1065 C1066 1.369 . S
C1065 C1067 1.419 1_556 S
C1065 H1069 0.930 1_556 S
C1066 C1065 1.369 . S
C1066 C1075 1.429 . S
C1067 C1065 1.419 1_554 S
C1067 C1068 1.363 . S
C1067 H1070 0.929 . S
C1068 C1067 1.363 . S
C1068 C1074 1.428 1_554 S
H1069 C1065 0.930 1_554 S
H1070 C1067 0.929 . S
S1071 N1072 1.613 . S
S1071 N1073 1.610 . S
N1072 S1071 1.613 . S
N1072 C1075 1.350 . S
N1073 S1071 1.610 . S
N1073 C1074 1.351 . S
C1074 C1068 1.428 1_556 S
C1074 N1073 1.351 . S
C1074 C1075 1.434 . S
C1075 C1066 1.429 . S
C1075 N1072 1.350 . S
C1075 C1074 1.434 . S
C1076 C1077 1.369 . S
C1076 C1078 1.419 1_556 S
C1076 H1080 0.930 . S
C1077 C1076 1.369 . S
C1077 C1086 1.429 . S
C1078 C1076 1.419 1_554 S
C1078 C1079 1.363 . S
C1078 H1081 0.929 . S
C1079 C1078 1.363 . S
C1079 C1085 1.428 1_554 S
H1080 C1076 0.930 . S
H1081 C1078 0.929 . S
S1082 N1083 1.613 . S
S1082 N1084 1.610 . S
N1083 S1082 1.613 . S
N1083 C1086 1.350 . S
N1084 S1082 1.610 . S
N1084 C1085 1.351 . S
C1085 C1079 1.428 1_556 S
C1085 N1084 1.351 . S
C1085 C1086 1.434 . S
C1086 C1077 1.429 . S
C1086 N1083 1.350 . S
C1086 C1085 1.434 . S
C1087 C1088 1.369 . S
C1087 C1089 1.419 . S
C1087 H1091 0.930 . S
C1088 C1087 1.369 . S
C1088 C1097 1.429 . S
C1089 C1087 1.419 . S
C1089 C1090 1.363 1_556 S
C1089 H1092 0.929 . S
C1090 C1089 1.363 1_554 S
C1090 C1096 1.428 . S
H1091 C1087 0.930 . S
H1092 C1089 0.929 . S
S1093 N1094 1.613 . S
S1093 N1095 1.610 . S
N1094 S1093 1.613 . S
N1094 C1097 1.350 1_554 S
N1095 S1093 1.610 . S
N1095 C1096 1.351 . S
C1096 C1090 1.428 . S
C1096 N1095 1.351 . S
C1096 C1097 1.434 1_554 S
C1097 C1088 1.429 . S
C1097 N1094 1.350 1_556 S
C1097 C1096 1.434 1_556 S
C1098 C1099 1.369 . S
C1098 C1100 1.419 . S
C1098 H1102 0.930 . S
C1099 C1098 1.369 . S
C1099 C1108 1.429 . S
C1100 C1098 1.419 . S
C1100 C1101 1.363 . S
C1100 H1103 0.929 1_556 S
C1101 C1100 1.363 . S
C1101 C1107 1.428 . S
H1102 C1098 0.930 . S
H1103 C1100 0.929 1_554 S
S1104 N1105 1.613 . S
S1104 N1106 1.610 . S
N1105 S1104 1.613 . S
N1105 C1108 1.350 . S
N1106 S1104 1.610 . S
N1106 C1107 1.351 . S
C1107 C1101 1.428 . S
C1107 N1106 1.351 . S
C1107 C1108 1.434 . S
C1108 C1099 1.429 . S
C1108 N1105 1.350 . S
C1108 C1107 1.434 . S
C1109 C1110 1.369 . S
C1109 C1111 1.419 . S
C1109 H1113 0.930 . S
C1110 C1109 1.369 . S
C1110 C1119 1.429 . S
C1111 C1109 1.419 . S
C1111 C1112 1.363 . S
C1111 H1114 0.929 . S
C1112 C1111 1.363 . S
C1112 C1118 1.428 . S
H1113 C1109 0.930 . S
H1114 C1111 0.929 . S
S1115 N1116 1.613 . S
S1115 N1117 1.610 . S
N1116 S1115 1.613 . S
N1116 C1119 1.350 . S
N1117 S1115 1.610 . S
N1117 C1118 1.351 . S
C1118 C1112 1.428 . S
C1118 N1117 1.351 . S
C1118 C1119 1.434 . S
C1119 C1110 1.429 . S
C1119 N1116 1.350 . S
C1119 C1118 1.434 . S
C1120 C1121 1.369 . S
C1120 C1122 1.419 . S
C1120 H1124 0.930 . S
C1121 C1120 1.369 . S
C1121 C1130 1.429 . S
C1122 C1120 1.419 . S
C1122 C1123 1.363 . S
C1122 H1125 0.929 . S
C1123 C1122 1.363 . S
C1123 C1129 1.428 . S
H1124 C1120 0.930 . S
H1125 C1122 0.929 . S
S1126 N1127 1.613 . S
S1126 N1128 1.610 . S
N1127 S1126 1.613 . S
N1127 C1130 1.350 . S
N1128 S1126 1.610 . S
N1128 C1129 1.351 . S
C1129 C1123 1.428 . S
C1129 N1128 1.351 . S
C1129 C1130 1.434 . S
C1130 C1121 1.429 . S
C1130 N1127 1.350 . S
C1130 C1129 1.434 . S
C1131 C1132 1.369 . S
C1131 C1133 1.419 . S
C1131 H1135 0.930 . S
C1132 C1131 1.369 . S
C1132 C1141 1.429 . S
C1133 C1131 1.419 . S
C1133 C1134 1.363 . S
C1133 H1136 0.929 . S
C1134 C1133 1.363 . S
C1134 C1140 1.428 . S
H1135 C1131 0.930 . S
H1136 C1133 0.929 . S
S1137 N1138 1.613 . S
S1137 N1139 1.610 . S
N1138 S1137 1.613 . S
N1138 C1141 1.350 . S
N1139 S1137 1.610 . S
N1139 C1140 1.351 . S
C1140 C1134 1.428 . S
C1140 N1139 1.351 . S
C1140 C1141 1.434 . S
C1141 C1132 1.429 . S
C1141 N1138 1.350 . S
C1141 C1140 1.434 . S
C1142 C1143 1.369 . S
C1142 C1144 1.419 . S
C1142 H1146 0.930 . S
C1143 C1142 1.369 . S
C1143 C1152 1.429 . S
C1144 C1142 1.419 . S
C1144 C1145 1.363 . S
C1144 H1147 0.929 . S
C1145 C1144 1.363 . S
C1145 C1151 1.428 . S
H1146 C1142 0.930 . S
H1147 C1144 0.929 . S
S1148 N1149 1.613 . S
S1148 N1150 1.610 . S
N1149 S1148 1.613 . S
N1149 C1152 1.350 . S
N1150 S1148 1.610 . S
N1150 C1151 1.351 . S
C1151 C1145 1.428 . S
C1151 N1150 1.351 . S
C1151 C1152 1.434 . S
C1152 C1143 1.429 . S
C1152 N1149 1.350 . S
C1152 C1151 1.434 . S
C1153 C1154 1.369 . S
C1153 C1155 1.419 . S
C1153 H1157 0.930 . S
C1154 C1153 1.369 . S
C1154 C1163 1.429 . S
C1155 C1153 1.419 . S
C1155 C1156 1.363 . S
C1155 H1158 0.929 . S
C1156 C1155 1.363 . S
C1156 C1162 1.428 . S
H1157 C1153 0.930 . S
H1158 C1155 0.929 . S
S1159 N1160 1.613 . S
S1159 N1161 1.610 . S
N1160 S1159 1.613 . S
N1160 C1163 1.350 . S
N1161 S1159 1.610 . S
N1161 C1162 1.351 . S
C1162 C1156 1.428 . S
C1162 N1161 1.351 . S
C1162 C1163 1.434 . S
C1163 C1154 1.429 . S
C1163 N1160 1.350 . S
C1163 C1162 1.434 . S
C1164 C1165 1.369 1_556 S
C1164 C1166 1.419 1_556 S
C1164 H1168 0.930 . S
C1165 C1164 1.369 1_554 S
C1165 C1174 1.429 . S
C1166 C1164 1.419 1_554 S
C1166 C1167 1.363 . S
C1166 H1169 0.929 . S
C1167 C1166 1.363 . S
C1167 C1173 1.428 . S
H1168 C1164 0.930 . S
H1169 C1166 0.929 . S
S1170 N1171 1.613 . S
S1170 N1172 1.610 . S
N1171 S1170 1.613 . S
N1171 C1174 1.350 . S
N1172 S1170 1.610 . S
N1172 C1173 1.351 . S
C1173 C1167 1.428 . S
C1173 N1172 1.351 . S
C1173 C1174 1.434 . S
C1174 C1165 1.429 . S
C1174 N1171 1.350 . S
C1174 C1173 1.434 . S
C1175 C1176 1.369 . S
C1175 C1177 1.419 . S
C1175 H1179 0.930 . S
C1176 C1175 1.369 . S
C1176 C1185 1.429 . S
C1177 C1175 1.419 . S
C1177 C1178 1.363 . S
C1177 H1180 0.929 . S
C1178 C1177 1.363 . S
C1178 C1184 1.428 . S
H1179 C1175 0.930 . S
H1180 C1177 0.929 . S
S1181 N1182 1.613 1_556 S
S1181 N1183 1.610 . S
N1182 S1181 1.613 1_554 S
N1182 C1185 1.350 . S
N1183 S1181 1.610 . S
N1183 C1184 1.351 1_556 S
C1184 C1178 1.428 . S
C1184 N1183 1.351 1_554 S
C1184 C1185 1.434 . S
C1185 C1176 1.429 . S
C1185 N1182 1.350 . S
C1185 C1184 1.434 . S
C1186 C1187 1.369 . S
C1186 C1188 1.419 . S
C1186 H1190 0.930 . S
C1187 C1186 1.369 . S
C1187 C1196 1.429 . S
C1188 C1186 1.419 . S
C1188 C1189 1.363 . S
C1188 H1191 0.929 . S
C1189 C1188 1.363 . S
C1189 C1195 1.428 . S
H1190 C1186 0.930 . S
H1191 C1188 0.929 . S
S1192 N1193 1.613 . S
S1192 N1194 1.610 . S
N1193 S1192 1.613 . S
N1193 C1196 1.350 . S
N1194 S1192 1.610 . S
N1194 C1195 1.351 . S
C1195 C1189 1.428 . S
C1195 N1194 1.351 . S
C1195 C1196 1.434 . S
C1196 C1187 1.429 . S
C1196 N1193 1.350 . S
C1196 C1195 1.434 . S
C1197 C1198 1.369 . S
C1197 C1199 1.419 . S
C1197 H1201 0.930 . S
C1198 C1197 1.369 . S
C1198 C1207 1.429 . S
C1199 C1197 1.419 . S
C1199 C1200 1.363 . S
C1199 H1202 0.929 . S
C1200 C1199 1.363 . S
C1200 C1206 1.428 . S
H1201 C1197 0.930 . S
H1202 C1199 0.929 . S
S1203 N1204 1.613 . S
S1203 N1205 1.610 . S
N1204 S1203 1.613 . S
N1204 C1207 1.350 . S
N1205 S1203 1.610 . S
N1205 C1206 1.351 . S
C1206 C1200 1.428 . S
C1206 N1205 1.351 . S
C1206 C1207 1.434 . S
C1207 C1198 1.429 . S
C1207 N1204 1.350 . S
C1207 C1206 1.434 . S
C1208 C1209 1.369 . S
C1208 C1210 1.419 . S
C1208 H1212 0.930 . S
C1209 C1208 1.369 . S
C1209 C1218 1.429 . S
C1210 C1208 1.419 . S
C1210 C1211 1.363 . S
C1210 H1213 0.929 . S
C1211 C1210 1.363 . S
C1211 C1217 1.428 . S
H1212 C1208 0.930 . S
H1213 C1210 0.929 . S
S1214 N1215 1.613 . S
S1214 N1216 1.610 . S
N1215 S1214 1.613 . S
N1215 C1218 1.350 . S
N1216 S1214 1.610 . S
N1216 C1217 1.351 . S
C1217 C1211 1.428 . S
C1217 N1216 1.351 . S
C1217 C1218 1.434 . S
C1218 C1209 1.429 . S
C1218 N1215 1.350 . S
C1218 C1217 1.434 . S
C1219 C1220 1.369 . S
C1219 C1221 1.419 . S
C1219 H1223 0.930 . S
C1220 C1219 1.369 . S
C1220 C1229 1.429 . S
C1221 C1219 1.419 . S
C1221 C1222 1.363 . S
C1221 H1224 0.929 . S
C1222 C1221 1.363 . S
C1222 C1228 1.428 . S
H1223 C1219 0.930 . S
H1224 C1221 0.929 . S
S1225 N1226 1.613 . S
S1225 N1227 1.610 . S
N1226 S1225 1.613 . S
N1226 C1229 1.350 . S
N1227 S1225 1.610 . S
N1227 C1228 1.351 . S
C1228 C1222 1.428 . S
C1228 N1227 1.351 . S
C1228 C1229 1.434 . S
C1229 C1220 1.429 . S
C1229 N1226 1.350 . S
C1229 C1228 1.434 . S
C1230 C1231 1.369 . S
C1230 C1232 1.419 1_655 S
C1230 H1234 0.930 . S
C1231 C1230 1.369 . S
C1231 C1240 1.429 . S
C1232 C1230 1.419 1_455 S
C1232 C1233 1.363 . S
C1232 H1235 0.929 . S
C1233 C1232 1.363 . S
C1233 C1239 1.428 . S
H1234 C1230 0.930 . S
H1235 C1232 0.929 . S
S1236 N1237 1.613 . S
S1236 N1238 1.610 1_655 S
N1237 S1236 1.613 . S
N1237 C1240 1.350 . S
N1238 S1236 1.610 1_455 S
N1238 C1239 1.351 . S
C1239 C1233 1.428 . S
C1239 N1238 1.351 . S
C1239 C1240 1.434 1_455 S
C1240 C1231 1.429 . S
C1240 N1237 1.350 . S
C1240 C1239 1.434 1_655 S
C1241 C1242 1.369 . S
C1241 C1243 1.419 . S
C1241 H1245 0.930 . S
C1242 C1241 1.369 . S
C1242 C1251 1.429 . S
C1243 C1241 1.419 . S
C1243 C1244 1.363 . S
C1243 H1246 0.929 . S
C1244 C1243 1.363 . S
C1244 C1250 1.428 . S
H1245 C1241 0.930 . S
H1246 C1243 0.929 . S
S1247 N1248 1.613 . S
S1247 N1249 1.610 . S
N1248 S1247 1.613 . S
N1248 C1251 1.350 . S
N1249 S1247 1.610 . S
N1249 C1250 1.351 . S
C1250 C1244 1.428 . S
C1250 N1249 1.351 . S
C1250 C1251 1.434 . S
C1251 C1242 1.429 . S
C1251 N1248 1.350 . S
C1251 C1250 1.434 . S
C1252 C1253 1.369 . S
C1252 C1254 1.419 1_565 S
C1252 H1256 0.930 . S
C1253 C1252 1.369 . S
C1253 C1262 1.429 . S
C1254 C1252 1.419 1_545 S
C1254 C1255 1.363 . S
C1254 H1257 0.929 . S
C1255 C1254 1.363 . S
C1255 C1261 1.428 . S
H1256 C1252 0.930 . S
H1257 C1254 0.929 . S
S1258 N1259 1.613 1_545 S
S1258 N1260 1.610 . S
N1259 S1258 1.613 1_565 S
N1259 C1262 1.350 . S
N1260 S1258 1.610 . S
N1260 C1261 1.351 . S
C1261 C1255 1.428 . S
C1261 N1260 1.351 . S
C1261 C1262 1.434 1_545 S
C1262 C1253 1.429 . S
C1262 N1259 1.350 . S
C1262 C1261 1.434 1_565 S
C1263 C1264 1.369 . S
C1263 C1265 1.419 1_545 S
C1263 H1267 0.930 . S
C1264 C1263 1.369 . S
C1264 C1273 1.429 . S
C1265 C1263 1.419 1_565 S
C1265 C1266 1.363 . S
C1265 H1268 0.929 . S
C1266 C1265 1.363 . S
C1266 C1272 1.428 . S
H1267 C1263 0.930 . S
H1268 C1265 0.929 . S
S1269 N1270 1.613 . S
S1269 N1271 1.610 1_545 S
N1270 S1269 1.613 . S
N1270 C1273 1.350 . S
N1271 S1269 1.610 1_565 S
N1271 C1272 1.351 . S
C1272 C1266 1.428 . S
C1272 N1271 1.351 . S
C1272 C1273 1.434 1_565 S
C1273 C1264 1.429 . S
C1273 N1270 1.350 . S
C1273 C1272 1.434 1_545 S
C1274 C1275 1.369 . S
C1274 C1276 1.419 1_455 S
C1274 H1278 0.930 . S
C1275 C1274 1.369 . S
C1275 C1284 1.429 . S
C1276 C1274 1.419 1_655 S
C1276 C1277 1.363 . S
C1276 H1279 0.929 . S
C1277 C1276 1.363 . S
C1277 C1283 1.428 . S
H1278 C1274 0.930 . S
H1279 C1276 0.929 . S
S1280 N1281 1.613 . S
S1280 N1282 1.565 1_455 S
N1281 S1280 1.613 . S
N1281 C1284 1.350 . S
N1282 S1280 1.565 1_655 S
N1282 C1283 1.356 . S
C1283 C1277 1.428 . S
C1283 N1282 1.356 . S
C1283 C1284 1.434 1_655 S
C1284 C1275 1.429 . S
C1284 N1281 1.350 . S
C1284 C1283 1.434 1_455 S
C1285 C1286 1.369 . S
C1285 C1287 1.419 . S
C1285 H1289 0.930 . S
C1286 C1285 1.369 . S
C1286 C1295 1.429 . S
C1287 C1285 1.419 . S
C1287 C1288 1.363 . S
C1287 H1290 0.929 . S
C1288 C1287 1.363 . S
C1288 C1294 1.428 . S
H1289 C1285 0.930 . S
H1290 C1287 0.929 . S
S1291 N1292 1.613 . S
S1291 N1293 1.610 . S
N1292 S1291 1.613 . S
N1292 C1295 1.350 . S
N1293 S1291 1.610 . S
N1293 C1294 1.351 . S
C1294 C1288 1.428 . S
C1294 N1293 1.351 . S
C1294 C1295 1.434 . S
C1295 C1286 1.429 . S
C1295 N1292 1.350 . S
C1295 C1294 1.434 . S
C505 C78 1.346 . S
C507 C8 1.344 . S
C516 C22 1.348 . S
C518 C50 1.341 . S
C527 C64 1.343 . S
C529 C36 1.345 . S
C538 C92 1.347 . S
C540 C162 1.342 . S
C549 C106 1.340 . S
C551 C134 1.346 . S
C560 C148 1.345 . S
C562 C120 1.342 . S
C571 C246 1.340 . S
C573 C176 1.347 . S
C582 C190 1.343 . S
C584 C218 1.346 . S
C593 C232 1.341 . S
C595 C204 1.346 . S
C604 C260 1.340 . S
C606 C330 1.346 1_554 S
C615 C274 1.346 . S
C617 C302 1.342 1_554 S
C626 C288 1.348 . S
C628 C316 1.341 1_554 S
C637 C344 1.347 . S
C639 C414 1.341 1_556 S
C648 C386 1.347 1_556 S
C650 C358 1.341 . S
C659 C372 1.346 . S
C661 C400 1.342 1_556 S
C670 C428 1.340 . S
C672 C498 1.347 . S
C681 C442 1.340 . S
C683 C470 1.347 . S
C692 C456 1.347 . S
C694 C484 1.341 . S
C703 C147 1.343 . S
C705 C9 1.320 . S
C714 C161 1.352 . S
C716 C23 1.317 . S
C725 C133 1.348 . S
C727 C37 1.312 . S
C736 C119 1.342 . S
C738 C51 1.318 . S
C747 C65 1.315 . S
C749 C91 1.343 . S
C758 C79 1.322 . S
C760 C105 1.345 . S
C769 C93 1.314 . S
C771 C63 1.351 . S
C780 C107 1.318 . S
C782 C77 1.351 . S
C791 C121 1.311 . S
C793 C49 1.349 . S
C802 C35 1.345 . S
C804 C135 1.321 . S
C813 C7 1.345 . S
C815 C149 1.312 . S
C824 C163 1.312 . S
C826 C21 1.350 . S
C835 C177 1.317 . S
C837 C315 1.343 . S
C846 C191 1.311 . S
C848 C329 1.348 . S
C857 C301 1.342 . S
C859 C205 1.315 . S
C868 C219 1.319 . S
C870 C287 1.343 . S
C879 C233 1.314 . S
C881 C259 1.343 . S
C890 C247 1.320 . S
C892 C273 1.344 . S
C901 C261 1.314 . S
C903 C231 1.351 . S
C912 C245 1.351 . S
C914 C275 1.314 . S
C923 C217 1.344 . S
C925 C289 1.321 . S
C934 C303 1.322 . S
C936 C203 1.345 . S
C945 C175 1.343 . S
C947 C317 1.314 . S
C956 C189 1.345 . S
C958 C331 1.321 . S
C967 C483 1.351 . S
C969 C345 1.315 . S
C978 C359 1.317 . S
C980 C497 1.343 . S
C989 C373 1.316 . S
C991 C469 1.344 . S
C1000 C455 1.350 . S
C1002 C387 1.314 . S
C1011 C427 1.351 . S
C1013 C401 1.315 . S
C1022 C441 1.352 . S
C1024 C415 1.316 . S
C1033 C429 1.320 . S
C1035 C399 1.344 . S
C1044 C413 1.342 . S
C1046 C443 1.318 . S
C1055 C457 1.315 . S
C1057 C385 1.351 . S
C1066 C371 1.342 . S
C1068 C471 1.318 . S
C1077 C343 1.347 . S
C1079 C485 1.322 . S
C1088 C357 1.352 . S
C1090 C499 1.314 . S
C1099 C227 1.441 . S
C1101 C3 1.441 . S
C1110 C17 1.445 . S
C1112 C241 1.444 . S
C1121 C213 1.445 . S
C1123 C31 1.444 . S
C1132 C367 1.444 . S
C1134 C45 1.442 . S
C1143 C59 1.444 . S
C1145 C339 1.444 . S
C1154 C73 1.441 . S
C1156 C353 1.441 . S
C1165 C87 1.441 . S
C1167 C479 1.443 . S
C1176 C493 1.443 . S
C1178 C101 1.444 . S
C1187 C465 1.445 . S
C1189 C115 1.444 . S
C1198 C283 1.442 . S
C1200 C129 1.444 . S
C1209 C143 1.440 . S
C1211 C255 1.441 . S
C1220 C157 1.442 . S
C1222 C269 1.444 . S
C1231 C171 1.444 . S
C1233 C395 1.444 . S
C1242 C409 1.444 . S
C1244 C185 1.442 . S
C1253 C381 1.443 . S
C1255 C199 1.442 . S
C1264 C297 1.441 . S
C1266 C451 1.443 . S
C1275 C423 1.440 . S
C1277 C311 1.442 . S
C1286 C437 1.443 . S
C1288 C325 1.441 . S
