# Generated by pormake.
# Topology ukj, (4)-cn, num edge types: 1
# Building blocks:
#     Node 0, Type 0, BuildingBlock: ESEHIV_clean_sbu_0, # of connection points: 4
#     Node 1, Type 0, BuildingBlock: ESEHIV_clean_sbu_0, # of connection points: 4
#     Node 2, Type 0, BuildingBlock: ESEHIV_clean_sbu_0, # of connection points: 4
#     Node 3, Type 0, BuildingBlock: ESEHIV_clean_sbu_0, # of connection points: 4
#     Node 4, Type 0, BuildingBlock: ESEHIV_clean_sbu_0, # of connection points: 4
#     Node 5, Type 0, BuildingBlock: ESEHIV_clean_sbu_0, # of connection points: 4
#     Node 6, Type 0, BuildingBlock: ESEHIV_clean_sbu_0, # of connection points: 4
#     Node 7, Type 0, BuildingBlock: ESEHIV_clean_sbu_0, # of connection points: 4
#     Node 8, Type 0, BuildingBlock: ESEHIV_clean_sbu_0, # of connection points: 4
#     Node 9, Type 0, BuildingBlock: ESEHIV_clean_sbu_0, # of connection points: 4
#     Node 10, Type 0, BuildingBlock: ESEHIV_clean_sbu_0, # of connection points: 4
#     Node 11, Type 0, BuildingBlock: ESEHIV_clean_sbu_0, # of connection points: 4
#     Node 12, Type 0, BuildingBlock: ESEHIV_clean_sbu_0, # of connection points: 4
#     Node 13, Type 0, BuildingBlock: ESEHIV_clean_sbu_0, # of connection points: 4
#     Node 14, Type 0, BuildingBlock: ESEHIV_clean_sbu_0, # of connection points: 4
#     Node 15, Type 0, BuildingBlock: ESEHIV_clean_sbu_0, # of connection points: 4
#     Node 16, Type 0, BuildingBlock: ESEHIV_clean_sbu_0, # of connection points: 4
#     Node 17, Type 0, BuildingBlock: ESEHIV_clean_sbu_0, # of connection points: 4
#     Node 18, Type 0, BuildingBlock: ESEHIV_clean_sbu_0, # of connection points: 4
#     Node 19, Type 0, BuildingBlock: ESEHIV_clean_sbu_0, # of connection points: 4
#     Node 20, Type 0, BuildingBlock: ESEHIV_clean_sbu_0, # of connection points: 4
#     Node 21, Type 0, BuildingBlock: ESEHIV_clean_sbu_0, # of connection points: 4
#     Node 22, Type 0, BuildingBlock: ESEHIV_clean_sbu_0, # of connection points: 4
#     Node 23, Type 0, BuildingBlock: ESEHIV_clean_sbu_0, # of connection points: 4
#     Node 24, Type 0, BuildingBlock: ESEHIV_clean_sbu_0, # of connection points: 4
#     Node 25, Type 0, BuildingBlock: ESEHIV_clean_sbu_0, # of connection points: 4
#     Node 26, Type 0, BuildingBlock: ESEHIV_clean_sbu_0, # of connection points: 4
#     Node 27, Type 0, BuildingBlock: ESEHIV_clean_sbu_0, # of connection points: 4
#     Node 28, Type 0, BuildingBlock: ESEHIV_clean_sbu_0, # of connection points: 4
#     Node 29, Type 0, BuildingBlock: ESEHIV_clean_sbu_0, # of connection points: 4
#     Node 30, Type 0, BuildingBlock: ESEHIV_clean_sbu_0, # of connection points: 4
#     Node 31, Type 0, BuildingBlock: ESEHIV_clean_sbu_0, # of connection points: 4
#     Edge 32, Type (0, 0), BuildingBlock: XUDNAN_clean_linker_2, # of connection points: 2
#     Edge 33, Type (0, 0), BuildingBlock: XUDNAN_clean_linker_2, # of connection points: 2
#     Edge 34, Type (0, 0), BuildingBlock: XUDNAN_clean_linker_2, # of connection points: 2
#     Edge 35, Type (0, 0), BuildingBlock: XUDNAN_clean_linker_2, # of connection points: 2
#     Edge 36, Type (0, 0), BuildingBlock: XUDNAN_clean_linker_2, # of connection points: 2
#     Edge 37, Type (0, 0), BuildingBlock: XUDNAN_clean_linker_2, # of connection points: 2
#     Edge 38, Type (0, 0), BuildingBlock: XUDNAN_clean_linker_2, # of connection points: 2
#     Edge 39, Type (0, 0), BuildingBlock: XUDNAN_clean_linker_2, # of connection points: 2
#     Edge 40, Type (0, 0), BuildingBlock: XUDNAN_clean_linker_2, # of connection points: 2
#     Edge 41, Type (0, 0), BuildingBlock: XUDNAN_clean_linker_2, # of connection points: 2
#     Edge 42, Type (0, 0), BuildingBlock: XUDNAN_clean_linker_2, # of connection points: 2
#     Edge 43, Type (0, 0), BuildingBlock: XUDNAN_clean_linker_2, # of connection points: 2
#     Edge 44, Type (0, 0), BuildingBlock: XUDNAN_clean_linker_2, # of connection points: 2
#     Edge 45, Type (0, 0), BuildingBlock: XUDNAN_clean_linker_2, # of connection points: 2
#     Edge 46, Type (0, 0), BuildingBlock: XUDNAN_clean_linker_2, # of connection points: 2
#     Edge 47, Type (0, 0), BuildingBlock: XUDNAN_clean_linker_2, # of connection points: 2
#     Edge 48, Type (0, 0), BuildingBlock: XUDNAN_clean_linker_2, # of connection points: 2
#     Edge 49, Type (0, 0), BuildingBlock: XUDNAN_clean_linker_2, # of connection points: 2
#     Edge 50, Type (0, 0), BuildingBlock: XUDNAN_clean_linker_2, # of connection points: 2
#     Edge 51, Type (0, 0), BuildingBlock: XUDNAN_clean_linker_2, # of connection points: 2
#     Edge 52, Type (0, 0), BuildingBlock: XUDNAN_clean_linker_2, # of connection points: 2
#     Edge 53, Type (0, 0), BuildingBlock: XUDNAN_clean_linker_2, # of connection points: 2
#     Edge 54, Type (0, 0), BuildingBlock: XUDNAN_clean_linker_2, # of connection points: 2
#     Edge 55, Type (0, 0), BuildingBlock: XUDNAN_clean_linker_2, # of connection points: 2
#     Edge 56, Type (0, 0), BuildingBlock: XUDNAN_clean_linker_2, # of connection points: 2
#     Edge 57, Type (0, 0), BuildingBlock: XUDNAN_clean_linker_2, # of connection points: 2
#     Edge 58, Type (0, 0), BuildingBlock: XUDNAN_clean_linker_2, # of connection points: 2
#     Edge 59, Type (0, 0), BuildingBlock: XUDNAN_clean_linker_2, # of connection points: 2
#     Edge 60, Type (0, 0), BuildingBlock: XUDNAN_clean_linker_2, # of connection points: 2
#     Edge 61, Type (0, 0), BuildingBlock: XUDNAN_clean_linker_2, # of connection points: 2
#     Edge 62, Type (0, 0), BuildingBlock: XUDNAN_clean_linker_2, # of connection points: 2
#     Edge 63, Type (0, 0), BuildingBlock: XUDNAN_clean_linker_2, # of connection points: 2
#     Edge 64, Type (0, 0), BuildingBlock: XUDNAN_clean_linker_2, # of connection points: 2
#     Edge 65, Type (0, 0), BuildingBlock: XUDNAN_clean_linker_2, # of connection points: 2
#     Edge 66, Type (0, 0), BuildingBlock: XUDNAN_clean_linker_2, # of connection points: 2
#     Edge 67, Type (0, 0), BuildingBlock: XUDNAN_clean_linker_2, # of connection points: 2
#     Edge 68, Type (0, 0), BuildingBlock: XUDNAN_clean_linker_2, # of connection points: 2
#     Edge 69, Type (0, 0), BuildingBlock: XUDNAN_clean_linker_2, # of connection points: 2
#     Edge 70, Type (0, 0), BuildingBlock: XUDNAN_clean_linker_2, # of connection points: 2
#     Edge 71, Type (0, 0), BuildingBlock: XUDNAN_clean_linker_2, # of connection points: 2
#     Edge 72, Type (0, 0), BuildingBlock: XUDNAN_clean_linker_2, # of connection points: 2
#     Edge 73, Type (0, 0), BuildingBlock: XUDNAN_clean_linker_2, # of connection points: 2
#     Edge 74, Type (0, 0), BuildingBlock: XUDNAN_clean_linker_2, # of connection points: 2
#     Edge 75, Type (0, 0), BuildingBlock: XUDNAN_clean_linker_2, # of connection points: 2
#     Edge 76, Type (0, 0), BuildingBlock: XUDNAN_clean_linker_2, # of connection points: 2
#     Edge 77, Type (0, 0), BuildingBlock: XUDNAN_clean_linker_2, # of connection points: 2
#     Edge 78, Type (0, 0), BuildingBlock: XUDNAN_clean_linker_2, # of connection points: 2
#     Edge 79, Type (0, 0), BuildingBlock: XUDNAN_clean_linker_2, # of connection points: 2
#     Edge 80, Type (0, 0), BuildingBlock: XUDNAN_clean_linker_2, # of connection points: 2
#     Edge 81, Type (0, 0), BuildingBlock: XUDNAN_clean_linker_2, # of connection points: 2
#     Edge 82, Type (0, 0), BuildingBlock: XUDNAN_clean_linker_2, # of connection points: 2
#     Edge 83, Type (0, 0), BuildingBlock: XUDNAN_clean_linker_2, # of connection points: 2
#     Edge 84, Type (0, 0), BuildingBlock: XUDNAN_clean_linker_2, # of connection points: 2
#     Edge 85, Type (0, 0), BuildingBlock: XUDNAN_clean_linker_2, # of connection points: 2
#     Edge 86, Type (0, 0), BuildingBlock: XUDNAN_clean_linker_2, # of connection points: 2
#     Edge 87, Type (0, 0), BuildingBlock: XUDNAN_clean_linker_2, # of connection points: 2
#     Edge 88, Type (0, 0), BuildingBlock: XUDNAN_clean_linker_2, # of connection points: 2
#     Edge 89, Type (0, 0), BuildingBlock: XUDNAN_clean_linker_2, # of connection points: 2
#     Edge 90, Type (0, 0), BuildingBlock: XUDNAN_clean_linker_2, # of connection points: 2
#     Edge 91, Type (0, 0), BuildingBlock: XUDNAN_clean_linker_2, # of connection points: 2
#     Edge 92, Type (0, 0), BuildingBlock: XUDNAN_clean_linker_2, # of connection points: 2
#     Edge 93, Type (0, 0), BuildingBlock: XUDNAN_clean_linker_2, # of connection points: 2
#     Edge 94, Type (0, 0), BuildingBlock: XUDNAN_clean_linker_2, # of connection points: 2
#     Edge 95, Type (0, 0), BuildingBlock: XUDNAN_clean_linker_2, # of connection points: 2
# Relax obj value: 0.004
# Max RMSD: 0.095
# Mean RMSD: 0.095
data_MOF--net-ukj--node1-ESEHIV_clean_sbu_0--edge1-XUDNAN_clean_linker_2
_symmetry_space_group_name_H-M    P1
_symmetry_Int_Tables_number       1
_symmetry_cell_setting            triclinic
loop_
_symmetry_equiv_pos_as_xyz
'x, y, z'
_cell_length_a     39.385812
_cell_length_b     70.493094
_cell_length_c     56.190354
_cell_angle_alpha  89.987213
_cell_angle_beta   90.06196
_cell_angle_gamma 89.929611
loop_
_atom_site_label
_atom_site_type_symbol
_atom_site_fract_x
_atom_site_fract_y
_atom_site_fract_z
_atom_type_partial_charge
Cu0 Cu 0.19448 0.33371 0.26342 0.0
N1 N 0.24214 0.33157 0.26375 0.0
N2 N 0.29656 0.34067 0.26586 0.0
C3 C 0.26394 0.34539 0.27037 0.0
C4 C 0.29535 0.32318 0.25617 0.0
C5 C 0.26179 0.31753 0.2551 0.0
O6 O 0.18271 0.34847 0.29174 0.0
C7 C 0.19225 0.3382 0.2144 0.0
O8 O 0.21106 0.32287 0.21606 0.0
H9 H 0.25594 0.35897 0.2774 0.0
H10 H 0.25231 0.30437 0.24777 0.0
N11 N 0.1723 0.31005 0.26454 0.0
N12 N 0.13068 0.28858 0.25982 0.0
C13 C 0.1429 0.30578 0.25339 0.0
C14 C 0.17909 0.29499 0.27848 0.0
C15 C 0.15351 0.28174 0.27562 0.0
C16 C 0.15706 0.34501 0.30484 0.0
O17 O 0.1348 0.33232 0.29785 0.0
H18 H 0.12993 0.31557 0.24164 0.0
H19 H 0.20055 0.29398 0.29045 0.0
O20 O 0.18139 0.3459 0.23348 0.0
H21 H 0.31716 0.31517 0.2501 0.0
H22 H 0.15176 0.26822 0.28465 0.0
Cu23 Cu 0.10521 0.9265 0.26042 0.0
N24 N 0.05783 0.92947 0.25882 0.0
N25 N 1.00237 0.92295 0.25493 0.0
C26 C 0.03362 0.91588 0.25975 0.0
C27 C 1.0072 0.94165 0.25101 0.0
C28 C 0.04126 0.94559 0.25335 0.0
O29 O 0.11493 0.91053 0.28807 0.0
C30 C 0.14767 0.91264 0.2218 0.0
O31 O 0.17413 0.91582 0.23546 0.0
H32 H 0.03902 0.901 0.26264 0.0
H33 H 0.05327 0.95916 0.25033 0.0
N34 N 0.12553 0.95056 0.26485 0.0
N35 N 0.1603 0.97578 0.2642 0.0
C36 C 0.15434 0.95812 0.25569 0.0
C37 C 0.11333 0.96388 0.27972 0.0
C38 C 0.13444 0.97942 0.27922 0.0
C39 C 0.14101 0.91307 0.30113 0.0
O40 O 0.1642 0.92529 0.29432 0.0
H41 H 0.17046 0.95103 0.24294 0.0
H42 H 0.09066 0.96231 0.29038 0.0
O43 O 0.11793 0.9155 0.22984 0.0
H44 H 0.98757 0.95171 0.24621 0.0
H45 H 0.13134 0.99231 0.28947 0.0
Cu46 Cu 0.20016 0.92923 1.00375 0.0
N47 N 0.24769 0.93165 1.00423 0.0
N48 N 0.30206 0.92254 1.00204 0.0
C49 C 0.26958 0.9182 0.99667 0.0
C50 C 0.30072 0.93941 0.01329 0.0
C51 C 0.26717 0.94509 0.01443 0.0
O52 O 0.18947 0.91639 0.97403 0.0
C53 C 0.19627 0.9232 0.05227 0.0
O54 O 0.21467 0.93869 0.0515 0.0
H55 H 0.26168 0.90504 0.98843 0.0
H56 H 0.25759 0.95778 0.02292 0.0
N57 N 0.17682 0.95246 1.00368 0.0
N58 N 0.13266 0.97253 1.00667 0.0
C59 C 0.14344 0.95433 1.00841 0.0
C60 C 0.18777 0.97008 0.99865 0.0
C61 C 0.16063 0.98248 1.00049 0.0
C62 C 0.17199 0.90142 0.97114 0.0
O63 O 0.15843 0.89304 0.98973 0.0
H64 H 0.12734 0.94237 0.01261 0.0
H65 H 0.21357 0.97365 0.99387 0.0
O66 O 0.18632 0.91585 0.03271 0.0
H67 H 0.32239 0.94692 0.02047 0.0
H68 H 0.16162 0.99765 0.99768 0.0
Cu69 Cu 0.10713 0.33541 1.0053 0.0
N70 N 0.05957 0.33543 1.00487 0.0
N71 N 1.00679 0.3474 1.00653 0.0
C72 C 0.04046 0.35115 1.00746 0.0
C73 C 1.00478 0.32846 1.00306 0.0
C74 C 0.03737 0.32111 1.00208 0.0
O75 O 0.12084 0.34904 0.9768 0.0
C76 C 0.14965 0.34927 0.0438 0.0
O77 O 0.17607 0.34502 0.03058 0.0
H78 H 0.05131 0.36512 0.00973 0.0
H79 H 0.04433 0.3064 0.99962 0.0
N80 N 0.12556 0.31083 1.00268 0.0
N81 N 0.16392 0.28729 1.00416 0.0
C82 C 0.15192 0.30316 0.0148 0.0
C83 C 0.12048 0.2992 0.98404 0.0
C84 C 0.14404 0.28472 0.98487 0.0
C85 C 0.1261 0.36674 0.97467 0.0
O86 O 0.125 0.37766 0.99359 0.0
H87 H 0.16368 0.30971 0.0301 0.0
H88 H 0.1024 0.3018 0.9699 0.0
O89 O 0.11986 0.34705 0.0355 0.0
H90 H 0.9815 0.32039 1.00175 0.0
H91 H 0.14725 0.27365 0.97172 0.0
Cu92 Cu 0.85493 0.67871 0.7542 0.0
N93 N 0.80709 0.67868 0.75581 0.0
N94 N 0.75306 0.6688 0.75402 0.0
C95 C 0.78493 0.66653 0.7455 0.0
C96 C 0.75516 0.68298 0.77005 0.0
C97 C 0.78835 0.68908 0.77103 0.0
O98 O 0.86947 0.66937 0.72319 0.0
C99 C 0.85523 0.65757 0.79772 0.0
O100 O 0.82262 0.65557 0.79368 0.0
H101 H 0.79229 0.65551 0.73315 0.0
H102 H 0.79854 0.69964 0.78303 0.0
N103 N 0.87113 0.70372 0.75605 0.0
N104 N 0.90608 0.72861 0.76018 0.0
C105 C 0.9033 0.70947 0.76036 0.0
C106 C 0.85312 0.71972 0.75278 0.0
C107 C 0.87448 0.73505 0.75541 0.0
C108 C 0.86619 0.65281 0.71446 0.0
O109 O 0.85365 0.63914 0.72768 0.0
H110 H 0.92414 0.69981 0.76379 0.0
H111 H 0.82635 0.72023 0.74854 0.0
O112 O 0.8739 0.66535 0.78192 0.0
H113 H 0.73433 0.68817 0.7808 0.0
H114 H 0.86735 0.74981 0.75354 0.0
Cu115 Cu 0.94096 0.09057 0.75795 0.0
N116 N 0.9883 0.08659 0.75694 0.0
N117 N 0.04356 0.09426 0.75469 0.0
C118 C 1.012 0.09737 0.74593 0.0
C119 C 0.03965 0.08094 0.77168 0.0
C120 C 1.00572 0.0763 0.77305 0.0
O121 O 0.92501 0.10164 0.72807 0.0
C122 C 0.90714 0.1091 0.7979 0.0
O123 O 0.87794 0.10513 0.7878 0.0
H124 H 1.00603 0.10842 0.73328 0.0
H125 H 0.99419 0.06727 0.78633 0.0
N126 N 0.91652 0.06772 0.76166 0.0
N127 N 0.87176 0.0482 0.76564 0.0
C128 C 0.88235 0.06623 0.76199 0.0
C129 C 0.92801 0.04988 0.76474 0.0
C130 C 0.90051 0.03784 0.7672 0.0
C131 C 0.93312 0.11734 0.71843 0.0
O132 O 0.95287 0.12923 0.72992 0.0
H133 H 0.86548 0.07815 0.75935 0.0
H134 H 0.95449 0.04587 0.76535 0.0
O135 O 0.93464 0.10563 0.78681 0.0
H136 H 0.05963 0.07571 0.78319 0.0
H137 H 0.90165 0.02273 0.77055 0.0
Cu138 Cu 0.86137 0.08729 0.01031 0.0
N139 N 0.81389 0.08767 1.00574 0.0
N140 N 0.75928 0.09658 1.00657 0.0
C141 C 0.78947 0.09693 0.01807 0.0
C142 C 0.76471 0.08657 0.98652 0.0
C143 C 0.79822 0.08097 0.98616 0.0
O144 O 0.87404 0.09716 0.04154 0.0
C145 C 0.86721 0.11117 0.96928 0.0
O146 O 0.83622 0.11659 0.97457 0.0
H147 H 0.79399 0.10462 0.03441 0.0
H148 H 0.81088 0.07346 0.9719 0.0
N149 N 0.87701 0.06215 0.00969 0.0
N150 N 0.91169 0.03693 0.01136 0.0
C151 C 0.90957 0.05608 0.01061 0.0
C152 C 0.85798 0.04633 0.00969 0.0
C153 C 0.87922 0.0308 0.01073 0.0
C154 C 0.86573 0.11298 0.05079 0.0
O155 O 0.84814 0.12529 0.03825 0.0
H156 H 0.93116 0.06554 0.01153 0.0
H157 H 0.83053 0.04612 1.00939 0.0
O158 O 0.88315 0.10017 0.98346 0.0
H159 H 0.74596 0.08396 0.9728 0.0
H160 H 0.87129 0.0161 0.0111 0.0
Cu161 Cu 0.94145 0.67439 1.00932 0.0
N162 N 0.98893 0.67432 1.00694 0.0
N163 N 0.04282 0.66437 1.00932 0.0
C164 C 1.01196 0.66451 0.01991 0.0
C165 C 0.03905 0.67443 0.98909 0.0
C166 C 1.00591 0.68047 0.98766 0.0
O167 O 0.92862 0.66234 0.03945 0.0
C168 C 0.90065 0.6634 0.96867 0.0
O169 O 0.8764 0.6741 0.97744 0.0
H170 H 1.00567 0.65643 0.03569 0.0
H171 H 0.99434 0.68774 0.97275 0.0
N172 N 0.92492 0.69947 1.00755 0.0
N173 N 0.89132 0.72523 1.00843 0.0
C174 C 0.89331 0.70622 0.01186 0.0
C175 C 0.94333 0.71469 1.00121 0.0
C176 C 0.92284 0.73048 1.00168 0.0
C177 C 0.92619 0.67242 0.05823 0.0
O178 O 0.93126 0.69079 0.05675 0.0
H179 H 0.87242 0.69743 0.01769 0.0
H180 H 0.96991 0.7144 0.99654 0.0
O181 O 0.9276 0.66069 0.98074 0.0
H182 H 0.05854 0.67651 0.97578 0.0
H183 H 0.93062 0.74472 0.99703 0.0
Cu184 Cu 0.19124 0.83763 0.76254 0.0
N185 N 0.23891 0.8361 0.7603 0.0
N186 N 0.29343 0.84535 0.76161 0.0
C187 C 0.26247 0.84654 0.77197 0.0
C188 C 0.28927 0.8336 0.74291 0.0
C189 C 0.2558 0.82799 0.74213 0.0
O190 O 0.17765 0.84781 0.79336 0.0
C191 C 0.14811 0.85014 0.72486 0.0
O192 O 0.1248 0.84002 0.73567 0.0
H193 H 0.25662 0.85594 0.78661 0.0
H194 H 0.2441 0.81972 0.72817 0.0
N195 N 0.17 0.81376 0.76011 0.0
N196 N 0.12635 0.7932 0.76155 0.0
C197 C 0.14011 0.80934 0.77044 0.0
C198 C 0.1758 0.79974 0.74438 0.0
C199 C 0.14913 0.78704 0.74531 0.0
C200 C 0.18446 0.8639 0.80243 0.0
O201 O 0.20126 0.8765 0.7899 0.0
H202 H 0.12778 0.81859 0.78312 0.0
H203 H 0.19657 0.79944 0.73185 0.0
O204 O 0.1768 0.85248 0.73493 0.0
H205 H 0.30872 0.83001 0.73007 0.0
H206 H 0.14574 0.775 0.73362 0.0
Cu207 Cu 0.10293 0.42865 0.76549 0.0
N208 N 0.05531 0.4316 0.76711 0.0
N209 N 0.99953 0.42599 0.77151 0.0
C210 C 0.03104 0.41832 0.77077 0.0
C211 C 1.00422 0.44478 0.76839 0.0
C212 C 0.03844 0.44817 0.76569 0.0
O213 O 0.11961 0.41939 0.79605 0.0
C214 C 0.09731 0.40496 0.72349 0.0
O215 O 0.0655 0.40218 0.72942 0.0
H216 H 0.03635 0.40338 0.77314 0.0
H217 H 0.05024 0.46185 0.76306 0.0
N218 N 0.1241 0.45216 0.76053 0.0
N219 N 0.16548 0.47397 0.75952 0.0
C220 C 0.1529 0.45857 0.77087 0.0
C221 C 0.11836 0.46392 0.74209 0.0
C222 C 0.14372 0.47739 0.74146 0.0
C223 C 0.11207 0.40378 0.80613 0.0
O224 O 0.09343 0.39132 0.79468 0.0
H225 H 0.16565 0.4513 0.78531 0.0
H226 H 0.09824 0.46214 0.72917 0.0
O227 O 0.11687 0.41396 0.73759 0.0
H228 H 0.98427 0.45535 0.76787 0.0
H229 H 0.14654 0.48845 0.72825 0.0
Cu230 Cu 0.18459 0.41811 0.50894 0.0
N231 N 0.23205 0.42049 0.51236 0.0
N232 N 0.28727 0.41375 0.51754 0.0
C233 C 0.25614 0.40676 0.51224 0.0
C234 C 0.28251 0.43252 0.52092 0.0
C235 C 0.24865 0.4366 0.51772 0.0
O236 O 0.17435 0.40128 0.48236 0.0
C237 C 0.17374 0.41703 0.55823 0.0
O238 O 0.19402 0.4318 0.55735 0.0
H239 H 0.25074 0.39188 0.50937 0.0
H240 H 0.23675 0.45031 0.52 0.0
N241 N 0.16448 0.44167 0.50172 0.0
N242 N 0.12542 0.46425 0.49495 0.0
C243 C 0.13213 0.4474 0.50558 0.0
C244 C 0.17854 0.45538 0.48832 0.0
C245 C 0.15468 0.46927 0.48418 0.0
C246 C 0.189 0.40388 0.46239 0.0
O247 O 0.21215 0.41721 0.46064 0.0
H248 H 0.11343 0.43894 0.51487 0.0
H249 H 0.20402 0.45492 0.48119 0.0
O250 O 0.16582 0.40871 0.53886 0.0
H251 H 0.30209 0.44256 0.5258 0.0
H252 H 0.15837 0.48191 0.47356 0.0
Cu253 Cu 0.10811 0.83859 0.50428 0.0
N254 N 0.06103 0.83394 0.50366 0.0
N255 N 1.00468 0.83833 0.50605 0.0
C256 C 0.03559 0.84673 0.50581 0.0
C257 C 1.0111 0.81958 0.50381 0.0
C258 C 0.04569 0.81694 0.50237 0.0
O259 O 0.12006 0.85506 0.47762 0.0
C260 C 0.10716 0.84194 0.55365 0.0
O261 O 0.08734 0.82711 0.55105 0.0
H262 H 0.03976 0.86181 0.50789 0.0
H263 H 0.05875 0.80349 0.50097 0.0
N264 N 0.13362 0.81613 0.50109 0.0
N265 N 0.17643 0.79524 0.50511 0.0
C266 C 0.16234 0.81164 0.51298 0.0
C267 C 0.12941 0.80216 0.48506 0.0
C268 C 0.15559 0.78926 0.48754 0.0
C269 C 0.10686 0.85213 0.45721 0.0
O270 O 0.08443 0.83848 0.45483 0.0
H271 H 0.17324 0.82065 0.52657 0.0
H272 H 0.10911 0.80159 0.47211 0.0
O273 O 0.11947 0.84976 0.5351 0.0
H274 H 0.99215 0.80849 0.5033 0.0
H275 H 0.15897 0.77651 0.47709 0.0
Cu276 Cu 0.84908 0.17959 0.25122 0.0
N277 N 0.80212 0.18348 0.25516 0.0
N278 N 0.74657 0.17778 0.26054 0.0
C279 C 0.77731 0.17022 0.25534 0.0
C280 C 0.75241 0.19651 0.26358 0.0
C281 C 0.78649 0.19994 0.26033 0.0
O282 O 0.85431 0.1631 0.2237 0.0
C283 C 0.86357 0.18147 0.2988 0.0
O284 O 0.85146 0.19849 0.29437 0.0
H285 H 0.78195 0.15524 0.25258 0.0
H286 H 0.79913 0.21347 0.26223 0.0
N287 N 0.87139 0.20249 0.24377 0.0
N288 N 0.91164 0.22453 0.23763 0.0
C289 C 0.90406 0.2076 0.24779 0.0
C290 C 0.85805 0.21664 0.23072 0.0
C291 C 0.88256 0.23021 0.22702 0.0
C292 C 0.87991 0.15284 0.21873 0.0
O293 O 0.90501 0.15148 0.23405 0.0
H294 H 0.92221 0.19874 0.25709 0.0
H295 H 0.83245 0.21682 0.22374 0.0
O296 O 0.86622 0.16984 0.28152 0.0
H297 H 0.73343 0.20703 0.26806 0.0
H298 H 0.87927 0.24318 0.21697 0.0
Cu299 Cu 0.93952 0.58934 0.25638 0.0
N300 N 0.98727 0.58877 0.25573 0.0
N301 N 0.04059 0.59977 0.25846 0.0
C302 C 1.00717 0.60371 0.26108 0.0
C303 C 0.04168 0.58156 0.25104 0.0
C304 C 1.00877 0.5748 0.24943 0.0
O305 O 0.92514 0.60627 0.23065 0.0
C306 C 0.94006 0.59156 0.3061 0.0
O307 O 0.96415 0.57886 0.30317 0.0
H308 H 0.99711 0.61735 0.26642 0.0
H309 H 1.00112 0.56073 0.24396 0.0
N310 N 0.91901 0.56551 0.25158 0.0
N311 N 0.87894 0.54294 0.2526 0.0
C312 C 0.8908 0.55907 0.26262 0.0
C313 C 0.92529 0.55287 0.23416 0.0
C314 C 0.90057 0.53901 0.23468 0.0
C315 C 0.93612 0.60297 0.20968 0.0
O316 O 0.95641 0.58842 0.20634 0.0
H317 H 0.87816 0.56661 0.27688 0.0
H318 H 0.94563 0.55398 0.22135 0.0
O319 O 0.92551 0.59847 0.28773 0.0
H320 H 0.06457 0.57359 0.24733 0.0
H321 H 0.89831 0.52713 0.22258 0.0
Cu322 Cu 0.8545 0.58166 0.51665 0.0
N323 N 0.80688 0.58201 0.51789 0.0
N324 N 0.75429 0.59419 0.51518 0.0
C325 C 0.78785 0.59711 0.51159 0.0
C326 C 0.75222 0.57646 0.52423 0.0
C327 C 0.78467 0.56899 0.52587 0.0
O328 O 0.8699 0.59534 0.54472 0.0
C329 C 0.89547 0.59626 0.4776 0.0
O330 O 0.9225 0.59283 0.49063 0.0
H331 H 0.79871 0.61019 0.50501 0.0
H332 H 0.79154 0.55513 0.53258 0.0
N333 N 0.87304 0.55701 0.51833 0.0
N334 N 0.9111 0.53339 0.51428 0.0
C335 C 0.89928 0.55006 0.50553 0.0
C336 C 0.86784 0.54417 0.53568 0.0
C337 C 0.89109 0.52962 0.5332 0.0
C338 C 0.87156 0.61328 0.54662 0.0
O339 O 0.86538 0.62391 0.52789 0.0
H340 H 0.91074 0.5576 0.4909 0.0
H341 H 0.84963 0.54579 0.54993 0.0
O342 O 0.86606 0.59332 0.48619 0.0
H343 H 0.72897 0.56932 0.52917 0.0
H344 H 0.89364 0.51751 0.54492 0.0
Cu345 Cu 0.94295 0.17939 0.51516 0.0
N346 N 0.99004 0.17807 0.50974 0.0
N347 N 0.04319 0.16664 0.51005 0.0
C348 C 1.01281 0.16699 0.52125 0.0
C349 C 0.0395 0.17796 0.49088 0.0
C350 C 1.00683 0.18502 0.49078 0.0
O351 O 0.93439 0.16603 0.54492 0.0
C352 C 0.91891 0.18092 0.46887 0.0
O353 O 0.92983 0.19835 0.47179 0.0
H354 H 1.00666 0.15847 0.53669 0.0
H355 H 0.99569 0.19391 0.47718 0.0
N356 N 0.92794 0.2045 0.51955 0.0
N357 N 0.89358 0.22998 0.52122 0.0
C358 C 0.89548 0.21081 0.5196 0.0
C359 C 0.94728 0.22011 0.52127 0.0
C360 C 0.92633 0.23576 0.52227 0.0
C361 C 0.91267 0.15318 0.54929 0.0
O362 O 0.89281 0.14708 0.53212 0.0
H363 H 0.87385 0.20146 0.51808 0.0
H364 H 0.97474 0.22013 0.5211 0.0
O365 O 0.92113 0.16934 0.4863 0.0
H366 H 0.05885 0.18059 0.47762 0.0
H367 H 0.93493 0.2503 0.52298 0.0
Cu368 Cu 0.69421 0.33275 0.76822 0.0
N369 N 0.74203 0.33438 0.7677 0.0
N370 N 0.79419 0.34724 0.77004 0.0
C371 C 0.76029 0.3502 0.77209 0.0
C372 C 0.79718 0.32874 0.76406 0.0
C373 C 0.76512 0.3209 0.76262 0.0
O374 O 0.68001 0.34684 0.79652 0.0
C375 C 0.69015 0.33753 0.71935 0.0
O376 O 0.71452 0.32484 0.72062 0.0
H377 H 0.74866 0.36368 0.77632 0.0
H378 H 0.75913 0.30641 0.75793 0.0
N379 N 0.67878 0.3075 0.77013 0.0
N380 N 0.64468 0.28205 0.76823 0.0
C381 C 0.64824 0.30071 0.76312 0.0
C382 C 0.69491 0.29267 0.7801 0.0
C383 C 0.67412 0.27698 0.77882 0.0
C384 C 0.6589 0.34063 0.81184 0.0
O385 O 0.64244 0.32482 0.80754 0.0
H386 H 0.62892 0.30933 0.75467 0.0
H387 H 0.71974 0.29331 0.78828 0.0
O388 O 0.67682 0.34351 0.73861 0.0
H389 H 0.8208 0.32127 0.76109 0.0
H390 H 0.67985 0.26303 0.78581 0.0
Cu391 Cu 0.60165 0.93377 0.77001 0.0
N392 N 0.5546 0.93253 0.76449 0.0
N393 N 0.50131 0.92134 0.7638 0.0
C394 C 0.53206 0.9205 0.77454 0.0
C395 C 0.50464 0.93443 0.74645 0.0
C396 C 0.53741 0.9413 0.74694 0.0
O397 O 0.61083 0.92024 0.79951 0.0
C398 C 0.62749 0.9347 0.72398 0.0
O399 O 0.61721 0.95235 0.72605 0.0
H400 H 0.53856 0.91062 0.7886 0.0
H401 H 0.54832 0.95147 0.73475 0.0
N402 N 0.61654 0.95888 0.77437 0.0
N403 N 0.6507 0.98432 0.77695 0.0
C404 C 0.64896 0.96518 0.77489 0.0
C405 C 0.5971 0.97448 0.77618 0.0
C406 C 0.61795 0.99011 0.77775 0.0
C407 C 0.62802 0.90509 0.80198 0.0
O408 O 0.64188 0.89713 0.78321 0.0
H409 H 0.67072 0.95586 0.7736 0.0
H410 H 0.56964 0.9745 0.77589 0.0
O411 O 0.62385 0.92347 0.74161 0.0
H412 H 0.48492 0.93852 0.73402 0.0
H413 H 0.60939 1.00467 0.77877 0.0
Cu414 Cu 0.69468 0.9273 0.50708 0.0
N415 N 0.74221 0.92611 0.50351 0.0
N416 N 0.79483 0.9136 0.50395 0.0
C417 C 0.76269 0.91254 0.51256 0.0
C418 C 0.79429 0.9286 0.48896 0.0
C419 C 0.76196 0.93616 0.48863 0.0
O420 O 0.6757 0.91109 0.48241 0.0
C421 C 0.69284 0.92934 0.55617 0.0
O422 O 0.71004 0.9448 0.55118 0.0
H423 H 0.7536 0.90172 0.5246 0.0
H424 H 0.75311 0.94755 0.47732 0.0
N425 N 0.67717 0.952 0.5033 0.0
N426 N 0.64035 0.97615 0.4995 0.0
C427 C 0.64411 0.95716 0.50201 0.0
C428 C 0.69478 0.9683 0.50189 0.0
C429 C 0.67224 0.98314 0.49941 0.0
C430 C 0.67891 0.91631 0.4608 0.0
O431 O 0.69296 0.93281 0.45629 0.0
H432 H 0.62329 0.94716 0.50261 0.0
H433 H 0.7221 0.96939 0.50291 0.0
O434 O 0.68324 0.91875 0.53908 0.0
H435 H 0.81518 0.93327 0.47795 0.0
H436 H 0.67885 0.998 0.49806 0.0
Cu437 Cu 0.60174 0.33516 0.50897 0.0
N438 N 0.5543 0.33257 0.50718 0.0
N439 N 0.49957 0.34131 0.5101 0.0
C440 C 0.53222 0.34573 0.51518 0.0
C441 C 0.50128 0.32463 0.49832 0.0
C442 C 0.53504 0.31927 0.49656 0.0
O443 O 0.61539 0.3507 0.48193 0.0
C444 C 0.6399 0.34804 0.54941 0.0
O445 O 0.66679 0.34321 0.53704 0.0
H446 H 0.54024 0.35866 0.52388 0.0
H447 H 0.54484 0.30678 0.48774 0.0
N448 N 0.62563 0.31195 0.50794 0.0
N449 N 0.67086 0.29248 0.50892 0.0
C450 C 0.65939 0.31023 0.50442 0.0
C451 C 0.61515 0.29453 0.51441 0.0
C452 C 0.64294 0.28248 0.51491 0.0
C453 C 0.61041 0.34371 0.46129 0.0
O454 O 0.598 0.32647 0.45967 0.0
H455 H 0.6755 0.32205 0.49966 0.0
H456 H 0.58952 0.29108 0.51976 0.0
O457 O 0.61067 0.3469 0.53984 0.0
H458 H 0.47975 0.31683 0.49145 0.0
H459 H 0.64291 0.26786 0.52084 0.0
Cu460 Cu 0.35103 0.67925 0.25893 0.0
N461 N 0.30362 0.68264 0.25971 0.0
N462 N 0.2479 0.67664 0.26336 0.0
C463 C 0.27907 0.66921 0.25916 0.0
C464 C 0.25318 0.6954 0.26647 0.0
C465 C 0.28735 0.699 0.2644 0.0
O466 O 0.36207 0.66222 0.23252 0.0
C467 C 0.39158 0.66628 0.29938 0.0
O468 O 0.41864 0.66773 0.28588 0.0
H469 H 0.28419 0.65422 0.25702 0.0
H470 H 0.2996 0.71252 0.26721 0.0
N471 N 0.37265 0.70285 0.25349 0.0
N472 N 0.4092 0.72727 0.25354 0.0
C473 C 0.40312 0.70938 0.26117 0.0
C474 C 0.35961 0.71709 0.24034 0.0
C475 C 0.38181 0.73214 0.24052 0.0
C476 C 0.35091 0.66687 0.21198 0.0
O477 O 0.33242 0.68231 0.21005 0.0
H478 H 0.4202 0.7015 0.2725 0.0
H479 H 0.33541 0.71664 0.23127 0.0
O480 O 0.36236 0.66959 0.2906 0.0
H481 H 0.23381 0.70579 0.27058 0.0
H482 H 0.3782 0.74563 0.23166 0.0
Cu483 Cu 0.43737 0.09073 0.25527 0.0
N484 N 0.48515 0.09025 0.25432 0.0
N485 N 0.53851 0.10131 0.25676 0.0
C486 C 0.5051 0.1052 0.25963 0.0
C487 C 0.53954 0.08311 0.24927 0.0
C488 C 0.50663 0.07631 0.24784 0.0
O489 O 0.42085 0.1054 0.22807 0.0
C490 C 0.39737 0.09966 0.29628 0.0
O491 O 0.37283 0.09096 0.28484 0.0
H492 H 0.49507 0.11882 0.26506 0.0
H493 H 0.49892 0.06228 0.24225 0.0
N494 N 0.41723 0.06652 0.25387 0.0
N495 N 0.37451 0.0454 0.2521 0.0
C496 C 0.38521 0.06311 0.24646 0.0
C497 C 0.42756 0.05028 0.26419 0.0
C498 C 0.4014 0.03723 0.26302 0.0
C499 C 0.43533 0.10298 0.208 0.0
O500 O 0.46083 0.09103 0.20652 0.0
H501 H 0.36945 0.07391 0.23837 0.0
H502 H 0.45151 0.04848 0.27335 0.0
O503 O 0.42578 0.1021 0.28594 0.0
H504 H 0.5624 0.07518 0.24533 0.0
H505 H 0.40145 0.02331 0.27114 0.0
Cu506 Cu 0.3511 0.08225 0.51501 0.0
N507 N 0.3035 0.07993 0.51451 0.0
N508 N 0.24912 0.08917 0.5164 0.0
C509 C 0.28157 0.09336 0.52214 0.0
C510 C 0.25054 0.07244 0.50484 0.0
C511 C 0.28407 0.06668 0.50388 0.0
O512 O 0.36222 0.0949 0.54477 0.0
C513 C 0.35602 0.08769 0.46676 0.0
O514 O 0.33973 0.07148 0.46791 0.0
H515 H 0.28942 0.1064 0.53068 0.0
H516 H 0.29369 0.05407 0.49522 0.0
N517 N 0.37445 0.05897 0.51464 0.0
N518 N 0.41824 0.0388 0.51023 0.0
C519 C 0.40726 0.05695 0.50829 0.0
C520 C 0.3641 0.0415 0.52094 0.0
C521 C 0.39103 0.02904 0.51825 0.0
C522 C 0.37433 0.11148 0.54728 0.0
O523 O 0.38177 0.12157 0.52833 0.0
H524 H 0.42288 0.06877 0.50278 0.0
H525 H 0.33887 0.03808 0.52717 0.0
O526 O 0.36462 0.09579 0.48614 0.0
H527 H 0.22893 0.06506 0.49735 0.0
H528 H 0.39042 0.01395 0.52175 0.0
Cu529 Cu 0.45088 0.68153 0.51861 0.0
N530 N 0.49828 0.6838 0.51516 0.0
N531 N 0.55317 0.67625 0.5102 0.0
C532 C 0.52156 0.66967 0.51476 0.0
C533 C 0.54956 0.69521 0.50785 0.0
C534 C 0.51586 0.6998 0.51092 0.0
O535 O 0.44357 0.66579 0.54667 0.0
C536 C 0.44363 0.67822 0.46937 0.0
O537 O 0.46681 0.69157 0.47032 0.0
H538 H 0.51523 0.65483 0.51687 0.0
H539 H 0.50481 0.71379 0.5094 0.0
N540 N 0.43084 0.70523 0.52503 0.0
N541 N 0.39213 0.72824 0.53044 0.0
C542 C 0.39889 0.71123 0.52021 0.0
C543 C 0.44459 0.71888 0.53865 0.0
C544 C 0.42101 0.73306 0.5419 0.0
C545 C 0.41451 0.66179 0.55516 0.0
O546 O 0.38713 0.66667 0.54327 0.0
H547 H 0.38047 0.70287 0.5105 0.0
H548 H 0.46965 0.71823 0.54649 0.0
O549 O 0.43215 0.67143 0.48883 0.0
H550 H 0.56982 0.70509 0.50393 0.0
H551 H 0.42468 0.74578 0.55237 0.0
Cu552 Cu 0.69257 0.83842 0.26552 0.0
N553 N 0.74023 0.83711 0.26712 0.0
N554 N 0.79415 0.8472 0.26407 0.0
C555 C 0.76117 0.8507 0.25885 0.0
C556 C 0.7938 0.83069 0.27631 0.0
C557 C 0.76054 0.82454 0.27822 0.0
O558 O 0.67762 0.85214 0.29386 0.0
C559 C 0.69395 0.84421 0.21698 0.0
O560 O 0.71489 0.82977 0.21907 0.0
H561 H 0.75204 0.8633 0.24987 0.0
H562 H 0.75178 0.81207 0.28757 0.0
N563 N 0.67031 0.8148 0.26496 0.0
N564 N 0.62631 0.79447 0.26549 0.0
C565 C 0.63628 0.81287 0.2655 0.0
C566 C 0.68264 0.79701 0.26438 0.0
C567 C 0.65563 0.78446 0.26473 0.0
C568 C 0.67506 0.84272 0.31315 0.0
O569 O 0.6817 0.82446 0.31285 0.0
H570 H 0.61935 0.82494 0.26579 0.0
H571 H 0.7093 0.79338 0.26386 0.0
O572 O 0.68057 0.85105 0.23577 0.0
H573 H 0.8159 0.82358 0.28351 0.0
H574 H 0.65769 0.76916 0.26474 0.0
Cu575 Cu 0.60732 0.42506 0.26158 0.0
N576 N 0.55992 0.42479 0.25643 0.0
N577 N 0.50584 0.41486 0.25722 0.0
C578 C 0.53595 0.41525 0.26884 0.0
C579 C 0.51089 0.42462 0.23692 0.0
C580 C 0.54408 0.43078 0.23652 0.0
O581 O 0.6178 0.41548 0.29327 0.0
C582 C 0.6143 0.4004 0.22108 0.0
O583 O 0.58253 0.39568 0.22486 0.0
H584 H 0.541 0.40766 0.28521 0.0
H585 H 0.55646 0.43786 0.22185 0.0
N586 N 0.62556 0.44965 0.25918 0.0
N587 N 0.66526 0.47244 0.2593 0.0
C588 C 0.65535 0.45561 0.26853 0.0
C589 C 0.61637 0.46327 0.24364 0.0
C590 C 0.64078 0.4773 0.24365 0.0
C591 C 0.61268 0.39852 0.30014 0.0
O592 O 0.60077 0.38605 0.28491 0.0
H593 H 0.67062 0.44716 0.28057 0.0
H594 H 0.59453 0.46259 0.23205 0.0
O595 O 0.62961 0.41097 0.23604 0.0
H596 H 0.49224 0.42654 0.22295 0.0
H597 H 0.64109 0.4898 0.23247 0.0
Cu598 Cu 0.69547 0.42251 1.0094 0.0
N599 N 0.74193 0.42789 1.00623 0.0
N600 N 0.79841 0.4238 1.00665 0.0
C601 C 0.7677 0.41521 1.00667 0.0
C602 C 0.79154 0.44257 1.00602 0.0
C603 C 0.75684 0.44503 1.00586 0.0
O604 O 0.68245 0.40453 0.98472 0.0
C605 C 0.66452 0.40512 0.05108 0.0
O606 O 0.6371 0.40231 0.03824 0.0
H607 H 0.76394 0.40005 1.00815 0.0
H608 H 0.7435 0.45843 1.00638 0.0
N609 N 0.66857 0.44445 1.0057 0.0
N610 N 0.62432 0.46458 1.00815 0.0
C611 C 0.6384 0.44817 0.01609 0.0
C612 C 0.67374 0.45892 0.99053 0.0
C613 C 0.64678 0.47135 0.99209 0.0
C614 C 0.69165 0.4081 0.96344 0.0
O615 O 0.70996 0.42333 0.95937 0.0
H616 H 0.62663 0.43867 0.02869 0.0
H617 H 0.69526 0.46015 0.97871 0.0
O618 O 0.69048 0.41274 0.04161 0.0
H619 H 0.81024 0.45381 1.00612 0.0
H620 H 0.64404 0.48428 0.98192 0.0
Cu621 Cu 0.60984 0.83788 1.00904 0.0
N622 N 0.56237 0.83616 0.01126 0.0
N623 N 0.50794 0.84534 1.00945 0.0
C624 C 0.53861 0.84573 0.99865 0.0
C625 C 0.51245 0.83505 0.02941 0.0
C626 C 0.54591 0.82941 0.03046 0.0
O627 O 0.62333 0.8483 0.97837 0.0
C628 C 0.65262 0.85234 0.04633 0.0
O629 O 0.67759 0.84387 0.03513 0.0
H630 H 0.54417 0.85413 0.98303 0.0
H631 H 0.55806 0.82223 0.0452 0.0
N632 N 0.63096 0.81398 0.01139 0.0
N633 N 0.67381 0.79297 0.01223 0.0
C634 C 0.66366 0.81056 1.00576 0.0
C635 C 0.61966 0.79776 0.02126 0.0
C636 C 0.64603 0.78476 0.02174 0.0
C637 C 0.61569 0.86438 0.96954 0.0
O638 O 0.59816 0.87657 0.98227 0.0
H639 H 0.68013 0.82112 0.99791 0.0
H640 H 0.59455 0.79579 0.0286 0.0
O641 O 0.62332 0.85284 0.03676 0.0
H642 H 0.4933 0.83263 0.04289 0.0
H643 H 0.64537 0.77081 0.02979 0.0
Cu644 Cu 0.35721 0.17359 0.75687 0.0
N645 N 0.30963 0.17606 0.75887 0.0
N646 N 0.25481 0.16736 0.7574 0.0
C647 C 0.28574 0.16597 0.74703 0.0
C648 C 0.25935 0.17884 0.77632 0.0
C649 C 0.29301 0.18411 0.77721 0.0
O650 O 0.37014 0.16395 0.72569 0.0
C651 C 0.39886 0.15741 0.79349 0.0
O652 O 0.42415 0.16586 0.78263 0.0
H653 H 0.29136 0.15658 0.73234 0.0
H654 H 0.30503 0.19196 0.79142 0.0
N655 N 0.38045 0.19684 0.76041 0.0
N656 N 0.42513 0.21674 0.76088 0.0
C657 C 0.41253 0.20001 0.75295 0.0
C658 C 0.37211 0.21231 0.77319 0.0
C659 C 0.39948 0.22459 0.77345 0.0
C660 C 0.36342 0.14795 0.71634 0.0
O661 O 0.34716 0.13507 0.72879 0.0
H662 H 0.42676 0.18976 0.74267 0.0
H663 H 0.34847 0.21421 0.78262 0.0
O664 O 0.36959 0.15755 0.78386 0.0
H665 H 0.24005 0.18241 0.78928 0.0
H666 H 0.40093 0.23776 0.78328 0.0
Cu667 Cu 0.44052 0.58973 0.75791 0.0
N668 N 0.48816 0.58736 0.75828 0.0
N669 N 0.54344 0.59474 0.75588 0.0
C670 C 0.51225 0.59706 0.74616 0.0
C671 C 0.53894 0.58292 0.77447 0.0
C672 C 0.50501 0.57837 0.77582 0.0
O673 O 0.42463 0.60413 0.73025 0.0
C674 C 0.39972 0.60263 0.798 0.0
O675 O 0.37264 0.59938 0.78497 0.0
H676 H 0.50696 0.60658 0.73157 0.0
H677 H 0.49299 0.57012 0.78969 0.0
N678 N 0.42045 0.56563 0.75462 0.0
N679 N 0.38153 0.5424 0.75555 0.0
C680 C 0.39393 0.55801 0.76655 0.0
C681 C 0.42525 0.55419 0.73576 0.0
C682 C 0.40136 0.53992 0.73625 0.0
C683 C 0.43567 0.61974 0.72187 0.0
O684 O 0.45885 0.62934 0.73358 0.0
H685 H 0.38252 0.56434 0.78211 0.0
H686 H 0.44357 0.55675 0.7218 0.0
O687 O 0.42909 0.60051 0.78895 0.0
H688 H 0.55855 0.57861 0.78686 0.0
H689 H 0.39803 0.52898 0.72293 0.0
Cu690 Cu 0.35315 0.57979 0.01741 0.0
N691 N 0.30523 0.57979 0.01615 0.0
N692 N 0.25116 0.58962 0.01779 0.0
C693 C 0.28361 0.59327 0.02413 0.0
C694 C 0.25223 0.5732 1.00557 0.0
C695 C 0.28545 0.56711 1.00475 0.0
O696 O 0.36741 0.59233 0.04677 0.0
C697 C 0.36127 0.58347 0.96848 0.0
O698 O 0.34291 0.56797 0.96942 0.0
H699 H 0.29149 0.60588 0.03355 0.0
H700 H 0.29461 0.5545 0.99587 0.0
N701 N 0.36973 0.55485 0.01955 0.0
N702 N 0.40571 0.53035 0.02321 0.0
C703 C 0.4022 0.54886 0.01727 0.0
C704 C 0.35224 0.53961 0.02706 0.0
C705 C 0.37425 0.52452 0.02927 0.0
C706 C 0.36298 0.60967 0.05227 0.0
O707 O 0.35035 0.6214 0.03638 0.0
H708 H 0.42307 0.55813 0.01263 0.0
H709 H 0.32559 0.53966 0.03162 0.0
O710 O 0.37017 0.59135 0.98797 0.0
H711 H 0.23056 0.56622 0.99759 0.0
H712 H 0.36771 0.51044 0.03542 0.0
Cu713 Cu 0.44437 0.17395 0.01044 0.0
N714 N 0.492 0.17635 0.01148 0.0
N715 N 0.5466 0.16774 0.01438 0.0
C716 C 0.51398 0.16249 0.01771 0.0
C717 C 0.54524 0.18561 1.0059 0.0
C718 C 0.51156 0.19097 1.00438 0.0
O719 O 0.43253 0.16116 0.04003 0.0
C720 C 0.44847 0.16288 0.96264 0.0
O721 O 0.47441 0.17452 0.96344 0.0
H722 H 0.50619 0.14856 0.02371 0.0
H723 H 0.50206 0.20438 0.99781 0.0
N724 N 0.42239 0.19767 1.00784 0.0
N725 N 0.38097 0.2196 1.00822 0.0
C726 C 0.39365 0.20376 0.01863 0.0
C727 C 0.42804 0.21024 0.99024 0.0
C728 C 0.40272 0.22372 0.99045 0.0
C729 C 0.40336 0.15663 0.0479 0.0
O730 O 0.37624 0.15983 0.03488 0.0
H731 H 0.381 0.19613 0.03273 0.0
H732 H 0.44796 0.20901 0.97713 0.0
O733 O 0.43187 0.15969 0.98173 0.0
H734 H 0.56704 0.19409 1.00101 0.0
H735 H 0.3998 0.23525 0.97789 0.0
H736 H 0.22476 0.33077 0.17268 0.0
H737 H 0.13899 0.3616 0.20181 0.0
H738 H 0.12133 0.37056 0.16093 0.0
H739 H 0.24238 0.36379 0.12321 0.0
H740 H 0.25395 0.34478 0.10336 0.0
H741 H 0.26116 0.34239 0.1349 0.0
H742 H 0.22622 0.31126 0.13513 0.0
H743 H 0.21886 0.31356 0.10367 0.0
H744 H 0.1834 0.31143 0.12374 0.0
H745 H 0.10949 0.37257 0.11641 0.0
H746 H 0.10613 0.36897 0.07265 0.0
H747 H 0.20154 0.33824 0.07312 0.0
C748 C 0.20252 0.33966 0.17054 0.0
C749 C 0.18319 0.34548 0.19044 0.0
C750 C 0.15428 0.35709 0.18684 0.0
C751 C 0.14408 0.36221 0.16368 0.0
C752 C 0.16341 0.35588 0.1444 0.0
C753 C 0.19231 0.34507 0.14768 0.0
C754 C 0.20799 0.33935 0.12412 0.0
C755 C 0.24347 0.34811 0.12123 0.0
C756 C 0.20916 0.31762 0.12152 0.0
C757 C 0.18286 0.34814 0.10695 0.0
C758 C 0.15733 0.35765 0.11894 0.0
C759 C 0.12974 0.36551 0.10686 0.0
C760 C 0.12801 0.36338 0.08201 0.0
C761 C 0.15387 0.35362 0.06944 0.0
C762 C 0.18189 0.34624 0.08213 0.0
H763 H 0.22891 0.92856 0.09436 0.0
H764 H 0.1407 0.90119 0.06354 0.0
H765 H 0.12094 0.89254 0.10404 0.0
H766 H 0.24107 0.89453 0.14406 0.0
H767 H 0.25428 0.91304 0.16415 0.0
H768 H 0.26284 0.91512 0.13276 0.0
H769 H 0.23191 0.94758 0.13199 0.0
H770 H 0.22312 0.94557 0.16328 0.0
H771 H 0.18877 0.94913 0.14252 0.0
H772 H 0.10728 0.89105 0.14834 0.0
H773 H 0.10276 0.89485 0.19201 0.0
H774 H 0.2017 0.92171 0.19341 0.0
C775 C 0.20573 0.92042 0.09607 0.0
C776 C 0.18628 0.91554 0.07581 0.0
C777 C 0.15611 0.90492 0.0788 0.0
C778 C 0.1447 0.90001 0.10174 0.0
C779 C 0.16412 0.9055 0.1214 0.0
C780 C 0.19433 0.91521 0.1187 0.0
C781 C 0.20983 0.92029 0.14255 0.0
C782 C 0.24403 0.91013 0.14608 0.0
C783 C 0.21361 0.94192 0.14523 0.0
C784 C 0.18309 0.91252 0.15923 0.0
C785 C 0.15693 0.904 0.14674 0.0
C786 C 0.12798 0.89731 0.15828 0.0
C787 C 0.12561 0.89956 0.18308 0.0
C788 C 0.15212 0.90829 0.19616 0.0
C789 C 0.18144 0.91452 0.18402 0.0
H790 H 0.81933 0.65819 0.8391 0.0
H791 H 0.92111 0.6502 0.81147 0.0
H792 H 0.9429 0.64712 0.85274 0.0
H793 H 0.84342 0.68804 0.88569 0.0
H794 H 0.81209 0.67945 0.9064 0.0
H795 H 0.80407 0.6782 0.87493 0.0
H796 H 0.79372 0.64201 0.87836 0.0
H797 H 0.80172 0.64315 0.90991 0.0
H798 H 0.82589 0.62711 0.89154 0.0
H799 H 0.95363 0.64656 0.89733 0.0
H800 H 0.95376 0.65175 0.94077 0.0
H801 H 0.84525 0.66243 0.93882 0.0
C802 C 0.8461 0.65529 0.84166 0.0
C803 C 0.86848 0.65405 0.82204 0.0
C804 C 0.90349 0.65096 0.82623 0.0
C805 C 0.91602 0.64915 0.8496 0.0
C806 C 0.89326 0.6507 0.86856 0.0
C807 C 0.85905 0.65387 0.86479 0.0
C808 C 0.84039 0.65701 0.88805 0.0
C809 C 0.82405 0.67685 0.8888 0.0
C810 C 0.81386 0.64138 0.89221 0.0
C811 C 0.86948 0.6554 0.90558 0.0
C812 C 0.89965 0.65136 0.89405 0.0
C813 C 0.93011 0.64964 0.90651 0.0
C814 C 0.92988 0.65254 0.93124 0.0
C815 C 0.89948 0.65747 0.94329 0.0
C816 C 0.86886 0.6586 0.93021 0.0
H817 H 0.83101 0.11771 0.92864 0.0
H818 H 0.93393 0.11193 0.95516 0.0
H819 H 0.95579 0.11489 0.91399 0.0
H820 H 0.84269 0.08862 0.87929 0.0
H821 H 0.81512 0.10184 0.85974 0.0
H822 H 0.80808 0.10234 0.89135 0.0
H823 H 0.81169 0.13903 0.89101 0.0
H824 H 0.81874 0.13866 0.85932 0.0
H825 H 0.84862 0.15043 0.87862 0.0
H826 H 0.96595 0.11613 0.86964 0.0
H827 H 0.96375 0.11285 0.82598 0.0
H828 H 0.8537 0.116 0.82834 0.0
C829 C 0.85822 0.11763 0.92588 0.0
C830 C 0.88087 0.11497 0.94516 0.0
C831 C 0.9162 0.1142 0.94068 0.0
C832 C 0.9288 0.11592 0.91737 0.0
C833 C 0.90572 0.11821 0.89871 0.0
C834 C 0.87113 0.11895 0.90272 0.0
C835 C 0.85148 0.11936 0.87949 0.0
C836 C 0.82797 0.10201 0.87735 0.0
C837 C 0.83145 0.13798 0.87696 0.0
C838 C 0.88035 0.1184 0.86172 0.0
C839 C 0.91145 0.11811 0.87316 0.0
C840 C 0.94174 0.1165 0.86052 0.0
C841 C 0.9402 0.11467 0.83565 0.0
C842 C 0.90853 0.11419 0.82359 0.0
C843 C 0.87832 0.11648 0.8369 0.0
H844 H 0.09815 0.83802 0.69471 0.0
H845 H 0.18892 0.87278 0.69699 0.0
H846 H 0.18552 0.87711 0.65332 0.0
H847 H 0.11995 0.81318 0.64396 0.0
H848 H 0.07743 0.81154 0.63225 0.0
H849 H 0.08402 0.81364 0.66381 0.0
H850 H 0.04537 0.8434 0.66493 0.0
H851 H 0.03839 0.84131 0.63333 0.0
H852 H 0.05448 0.86316 0.64559 0.0
H853 H 0.17465 0.87513 0.60847 0.0
H854 H 0.15811 0.86649 0.56729 0.0
H855 H 0.07602 0.8321 0.59519 0.0
C856 C 0.11682 0.84701 0.6862 0.0
C857 C 0.14359 0.85525 0.69939 0.0
C858 C 0.16797 0.86647 0.68733 0.0
C859 C 0.16624 0.86901 0.66251 0.0
C860 C 0.14001 0.8602 0.64997 0.0
C861 C 0.11568 0.84948 0.6615 0.0
C862 C 0.09185 0.84009 0.64396 0.0
C863 C 0.09343 0.81833 0.64613 0.0
C864 C 0.05536 0.84743 0.64714 0.0
C865 C 0.10693 0.84683 0.6207 0.0
C866 C 0.13439 0.85864 0.62442 0.0
C867 C 0.15298 0.86603 0.60541 0.0
C868 C 0.14341 0.86106 0.58206 0.0
C869 C 0.1158 0.84861 0.57798 0.0
C870 C 0.09724 0.84165 0.59765 0.0
H871 H 0.19205 0.42957 0.60255 0.0
H872 H 0.12479 0.39001 0.56681 0.0
H873 H 0.10109 0.38047 0.6058 0.0
H874 H 0.2087 0.40019 0.65497 0.0
H875 H 0.20927 0.42026 0.67484 0.0
H876 H 0.22218 0.42309 0.64428 0.0
H877 H 0.17772 0.44988 0.63878 0.0
H878 H 0.16482 0.44718 0.66929 0.0
H879 H 0.13383 0.44529 0.64578 0.0
H880 H 0.0816 0.37724 0.6487 0.0
H881 H 0.06835 0.38045 0.69154 0.0
H882 H 0.15 0.42127 0.69906 0.0
C883 C 0.17253 0.41877 0.60286 0.0
C884 C 0.16027 0.41055 0.58155 0.0
C885 C 0.13467 0.39648 0.58286 0.0
C886 C 0.12109 0.39095 0.60494 0.0
C887 C 0.13363 0.39947 0.62559 0.0
C888 C 0.15893 0.413 0.62471 0.0
C889 C 0.16723 0.4205 0.64931 0.0
C890 C 0.20403 0.41572 0.65626 0.0
C891 C 0.16048 0.44198 0.65087 0.0
C892 C 0.14215 0.40938 0.6642 0.0
C893 C 0.12305 0.39726 0.65023 0.0
C894 C 0.09676 0.38646 0.65983 0.0
C895 C 0.08942 0.38837 0.6842 0.0
C896 C 0.1084 0.4009 0.69876 0.0
C897 C 0.13552 0.41122 0.68859 0.0
H898 H 0.86435 0.20501 0.33705 0.0
H899 H 0.88248 0.14642 0.31717 0.0
H900 H 0.89496 0.13872 0.35948 0.0
H901 H 0.93043 0.20861 0.37953 0.0
H902 H 0.90642 0.22387 0.399 0.0
H903 H 0.89811 0.22401 0.36752 0.0
H904 H 0.83471 0.21657 0.37574 0.0
H905 H 0.84293 0.21619 0.40727 0.0
H906 H 0.82371 0.19594 0.39306 0.0
H907 H 0.90613 0.13813 0.40534 0.0
H908 H 0.91871 0.14531 0.44782 0.0
H909 H 0.89266 0.20424 0.43543 0.0
C910 C 0.87083 0.19049 0.34144 0.0
C911 C 0.87234 0.17631 0.32373 0.0
C912 C 0.8812 0.15755 0.33042 0.0
C913 C 0.88815 0.15304 0.35443 0.0
C914 C 0.88611 0.16746 0.37148 0.0
C915 C 0.87781 0.18582 0.36508 0.0
C916 C 0.87827 0.19905 0.3862 0.0
C917 C 0.9049 0.2148 0.38286 0.0
C918 C 0.84279 0.20742 0.39083 0.0
C919 C 0.88849 0.1854 0.40563 0.0
C920 C 0.89264 0.16716 0.39708 0.0
C921 C 0.9028 0.15238 0.41213 0.0
C922 C 0.90967 0.15652 0.43626 0.0
C923 C 0.90665 0.17532 0.44491 0.0
C924 C 0.89525 0.18972 0.42938 0.0
H925 H 0.97303 0.58364 0.34786 0.0
H926 H 0.8828 0.61113 0.31984 0.0
H927 H 0.86352 0.61766 0.36097 0.0
H928 H 0.93412 0.5608 0.39612 0.0
H929 H 0.96913 0.56408 0.41638 0.0
H930 H 0.9768 0.56286 0.38485 0.0
H931 H 1.00709 0.59545 0.38636 0.0
H932 H 0.99951 0.59678 0.41794 0.0
H933 H 0.98521 0.61565 0.39872 0.0
H934 H 0.85162 0.61831 0.40535 0.0
H935 H 0.84911 0.61413 0.44903 0.0
H936 H 0.94844 0.58754 0.44789 0.0
C937 C 0.94937 0.59124 0.35031 0.0
C938 C 0.92939 0.59687 0.33057 0.0
C939 C 0.89861 0.60675 0.33464 0.0
C940 C 0.88746 0.61051 0.35795 0.0
C941 C 0.9076 0.60453 0.37701 0.0
C942 C 0.93808 0.59526 0.37339 0.0
C943 C 0.95452 0.58975 0.39682 0.0
C944 C 0.95888 0.56809 0.39864 0.0
C945 C 0.9886 0.60002 0.40015 0.0
C946 C 0.92816 0.59695 0.41424 0.0
C947 C 0.90129 0.60545 0.40248 0.0
C948 C 0.8728 0.61197 0.41473 0.0
C949 C 0.87158 0.60953 0.43954 0.0
C950 C 0.8988 0.60078 0.45192 0.0
C951 C 0.92763 0.59471 0.43904 0.0
H952 H 0.69418 0.34016 0.57809 0.0
H953 H 0.59219 0.36343 0.57949 0.0
H954 H 0.59559 0.36608 0.62337 0.0
H955 H 0.68436 0.31113 0.62758 0.0
H956 H 0.72708 0.3141 0.63849 0.0
H957 H 0.71835 0.31655 0.60722 0.0
H958 H 0.74486 0.35018 0.60748 0.0
H959 H 0.75387 0.3478 0.63879 0.0
H960 H 0.72933 0.36768 0.62819 0.0
H961 H 0.6091 0.36395 0.6678 0.0
H962 H 0.63051 0.35607 0.70814 0.0
H963 H 0.72236 0.33303 0.67683 0.0
C964 C 0.67285 0.34629 0.58752 0.0
C965 C 0.64307 0.35181 0.5753 0.0
C966 C 0.61539 0.35925 0.58845 0.0
C967 C 0.61711 0.36083 0.61338 0.0
C968 C 0.64663 0.35484 0.62492 0.0
C969 C 0.67399 0.34772 0.61234 0.0
C970 C 0.70163 0.3407 0.62888 0.0
C971 C 0.70822 0.31936 0.62533 0.0
C972 C 0.73436 0.35229 0.62564 0.0
C973 C 0.68538 0.34465 0.65276 0.0
C974 C 0.65388 0.35306 0.65022 0.0
C975 C 0.63385 0.35749 0.66996 0.0
C976 C 0.6462 0.35299 0.69281 0.0
C977 C 0.67806 0.34391 0.69565 0.0
C978 C 0.69788 0.33995 0.6753 0.0
H979 H 0.65957 0.95639 0.69124 0.0
H980 H 0.62479 0.89898 0.70393 0.0
H981 H 0.64006 0.89039 0.66239 0.0
H982 H 0.6284 0.9613 0.63381 0.0
H983 H 0.66387 0.97483 0.62281 0.0
H984 H 0.6531 0.97572 0.65388 0.0
H985 H 0.7141 0.96514 0.66516 0.0
H986 H 0.72522 0.96444 0.63409 0.0
H987 H 0.73137 0.94374 0.65243 0.0
H988 H 0.65352 0.88961 0.6174 0.0
H989 H 0.66869 0.89583 0.57524 0.0
H990 H 0.69629 0.95349 0.59387 0.0
C991 C 0.65569 0.9419 0.68543 0.0
C992 C 0.641 0.92833 0.70074 0.0
C993 C 0.63633 0.90953 0.69252 0.0
C994 C 0.64476 0.90459 0.66893 0.0
C995 C 0.65834 0.91854 0.65405 0.0
C996 C 0.66433 0.93673 0.66223 0.0
C997 C 0.67828 0.94937 0.64284 0.0
C998 C 0.65448 0.96629 0.63806 0.0
C999 C 0.71439 0.95606 0.649 0.0
C1000 C 0.67848 0.93566 0.62218 0.0
C1001 C 0.66689 0.91793 0.62883 0.0
C1002 C 0.66314 0.90337 0.61217 0.0
C1003 C 0.67165 0.90704 0.58824 0.0
C1004 C 0.68395 0.92509 0.58127 0.0
C1005 C 0.68744 0.93945 0.59861 0.0
H1006 H 0.44636 0.67444 0.32768 0.0
H1007 H 0.34386 0.65217 0.3301 0.0
H1008 H 0.3475 0.65011 0.37401 0.0
H1009 H 0.48133 0.64746 0.37832 0.0
H1010 H 0.50628 0.66727 0.38854 0.0
H1011 H 0.49702 0.66466 0.3573 0.0
H1012 H 0.47104 0.69845 0.3566 0.0
H1013 H 0.48008 0.70113 0.38781 0.0
H1014 H 0.43733 0.70429 0.37702 0.0
H1015 H 0.36163 0.65214 0.41832 0.0
H1016 H 0.38366 0.65993 0.45854 0.0
H1017 H 0.47535 0.68246 0.4266 0.0
C1018 C 0.425 0.66867 0.33739 0.0
C1019 C 0.39501 0.66319 0.32542 0.0
C1020 C 0.36721 0.6563 0.33888 0.0
C1021 C 0.36907 0.65504 0.36383 0.0
C1022 C 0.39881 0.6609 0.37514 0.0
C1023 C 0.42623 0.66764 0.36231 0.0
C1024 C 0.4541 0.67462 0.3787 0.0
C1025 C 0.4866 0.66279 0.37552 0.0
C1026 C 0.46102 0.69588 0.3748 0.0
C1027 C 0.43795 0.67101 0.40274 0.0
C1028 C 0.4063 0.6628 0.40041 0.0
C1029 C 0.38647 0.6585 0.42031 0.0
C1030 C 0.39917 0.66292 0.44309 0.0
C1031 C 0.43114 0.67185 0.44574 0.0
C1032 C 0.45075 0.6757 0.42521 0.0
H1033 H 0.32422 0.07996 0.42508 0.0
H1034 H 0.40749 0.11251 0.45466 0.0
H1035 H 0.4248 0.12187 0.4138 0.0
H1036 H 0.36724 0.0613 0.37681 0.0
H1037 H 0.33183 0.06257 0.35652 0.0
H1038 H 0.32437 0.06032 0.38795 0.0
H1039 H 0.28728 0.09073 0.38722 0.0
H1040 H 0.29453 0.09303 0.35569 0.0
H1041 H 0.30462 0.11242 0.37538 0.0
H1042 H 0.43654 0.12418 0.36888 0.0
H1043 H 0.43993 0.12055 0.32509 0.0
H1044 H 0.34722 0.0874 0.32606 0.0
C1045 C 0.34581 0.08932 0.42305 0.0
C1046 C 0.36458 0.0955 0.44302 0.0
C1047 C 0.39262 0.10774 0.43959 0.0
C1048 C 0.40263 0.11307 0.41645 0.0
C1049 C 0.38393 0.1063 0.39706 0.0
C1050 C 0.35579 0.0949 0.40026 0.0
C1051 C 0.34071 0.08871 0.37674 0.0
C1052 C 0.34109 0.06694 0.37438 0.0
C1053 C 0.30465 0.0967 0.37358 0.0
C1054 C 0.36532 0.09789 0.35965 0.0
C1055 C 0.39005 0.10805 0.37158 0.0
C1056 C 0.41691 0.11655 0.3594 0.0
C1057 C 0.41866 0.11439 0.33451 0.0
C1058 C 0.39364 0.10387 0.32205 0.0
C1059 C 0.36641 0.09585 0.3349 0.0
H1060 H 0.72741 0.8369 0.17558 0.0
H1061 H 0.64028 0.8671 0.20377 0.0
H1062 H 0.62308 0.87573 0.1627 0.0
H1063 H 0.74472 0.86957 0.12554 0.0
H1064 H 0.7569 0.85037 0.10615 0.0
H1065 H 0.76395 0.84848 0.13776 0.0
H1066 H 0.72977 0.81708 0.13859 0.0
H1067 H 0.72262 0.81888 0.10707 0.0
H1068 H 0.68705 0.81675 0.12704 0.0
H1069 H 0.61198 0.87753 0.11797 0.0
H1070 H 0.60886 0.87305 0.07433 0.0
H1071 H 0.70467 0.84265 0.07617 0.0
C1072 C 0.70499 0.84561 0.17321 0.0
C1073 C 0.68516 0.85132 0.1929 0.0
C1074 C 0.65598 0.86266 0.18896 0.0
C1075 C 0.64603 0.86762 0.16569 0.0
C1076 C 0.66585 0.86138 0.14662 0.0
C1077 C 0.69496 0.8508 0.15023 0.0
C1078 C 0.71093 0.84488 0.12689 0.0
C1079 C 0.74622 0.85386 0.12392 0.0
C1080 C 0.71267 0.82311 0.12478 0.0
C1081 C 0.68571 0.85323 0.10947 0.0
C1082 C 0.65996 0.86282 0.12111 0.0
C1083 C 0.63237 0.87037 0.10869 0.0
C1084 C 0.63081 0.86776 0.08389 0.0
C1085 C 0.65672 0.85771 0.07173 0.0
C1086 C 0.68481 0.85077 0.08477 0.0
H1087 H 0.61047 0.39538 0.07977 0.0
H1088 H 0.71893 0.40624 0.08134 0.0
H1089 H 0.7189 0.40258 0.12495 0.0
H1090 H 0.59059 0.42154 0.13056 0.0
H1091 H 0.55816 0.40568 0.14127 0.0
H1092 H 0.56729 0.40688 0.10995 0.0
H1093 H 0.57837 0.37064 0.10923 0.0
H1094 H 0.56927 0.36933 0.14062 0.0
H1095 H 0.60911 0.36051 0.12936 0.0
H1096 H 0.70623 0.40135 0.16864 0.0
H1097 H 0.68163 0.40244 0.20907 0.0
H1098 H 0.58176 0.3916 0.17939 0.0
C1099 C 0.63435 0.39657 0.08922 0.0
C1100 C 0.66472 0.40103 0.07703 0.0
C1101 C 0.69531 0.4028 0.09019 0.0
C1102 C 0.6956 0.40068 0.11501 0.0
C1103 C 0.66515 0.39666 0.12652 0.0
C1104 C 0.6351 0.3945 0.11406 0.0
C1105 C 0.6055 0.39153 0.1309 0.0
C1106 C 0.57883 0.40735 0.12799 0.0
C1107 C 0.58963 0.37183 0.12731 0.0
C1108 C 0.62347 0.39287 0.15473 0.0
C1109 C 0.65792 0.39568 0.15181 0.0
C1110 C 0.67939 0.3988 0.17118 0.0
C1111 C 0.6652 0.3994 0.19408 0.0
C1112 C 0.62987 0.39684 0.19747 0.0
C1113 C 0.60898 0.39314 0.1775 0.0
H1114 H 0.45465 0.16157 0.82208 0.0
H1115 H 0.35115 0.14058 0.82239 0.0
H1116 H 0.35479 0.13574 0.8659 0.0
H1117 H 0.48795 0.13077 0.87088 0.0
H1118 H 0.51402 0.14968 0.88236 0.0
H1119 H 0.505 0.14838 0.85094 0.0
H1120 H 0.48134 0.1827 0.85207 0.0
H1121 H 0.49004 0.18406 0.88342 0.0
H1122 H 0.44767 0.18846 0.87256 0.0
H1123 H 0.36756 0.13722 0.91045 0.0
H1124 H 0.38827 0.14496 0.951 0.0
H1125 H 0.48288 0.16512 0.92074 0.0
C1126 C 0.43306 0.15539 0.83111 0.0
C1127 C 0.40271 0.15133 0.8187 0.0
C1128 C 0.37481 0.14367 0.83142 0.0
C1129 C 0.37664 0.14086 0.85618 0.0
C1130 C 0.4066 0.14566 0.86799 0.0
C1131 C 0.43441 0.15261 0.85577 0.0
C1132 C 0.46248 0.15843 0.87265 0.0
C1133 C 0.49424 0.14607 0.86899 0.0
C1134 C 0.47084 0.17967 0.87002 0.0
C1135 C 0.4458 0.15427 0.89633 0.0
C1136 C 0.41376 0.14666 0.8934 0.0
C1137 C 0.39284 0.14288 0.91291 0.0
C1138 C 0.4048 0.1473 0.9359 0.0
C1139 C 0.43722 0.15559 0.93912 0.0
C1140 C 0.45805 0.15868 0.919 0.0
H1141 H 0.34941 0.5896 0.82722 0.0
H1142 H 0.44427 0.62069 0.82786 0.0
H1143 H 0.44255 0.62178 0.8719 0.0
H1144 H 0.30997 0.61204 0.87977 0.0
H1145 H 0.29188 0.58996 0.88977 0.0
H1146 H 0.29832 0.59407 0.85845 0.0
H1147 H 0.33385 0.56318 0.8557 0.0
H1148 H 0.3277 0.55903 0.88698 0.0
H1149 H 0.37007 0.56013 0.87497 0.0
H1150 H 0.43165 0.61776 0.91656 0.0
H1151 H 0.41451 0.60725 0.95699 0.0
H1152 H 0.32914 0.57707 0.92633 0.0
C1153 C 0.36929 0.59713 0.83659 0.0
C1154 C 0.39663 0.6054 0.8241 0.0
C1155 C 0.42286 0.61448 0.83708 0.0
C1156 C 0.42206 0.61517 0.8621 0.0
C1157 C 0.39507 0.60653 0.87393 0.0
C1158 C 0.36923 0.59761 0.86154 0.0
C1159 C 0.34486 0.58779 0.87832 0.0
C1160 C 0.30914 0.59649 0.87646 0.0
C1161 C 0.3441 0.56626 0.87371 0.0
C1162 C 0.36119 0.59233 0.90207 0.0
C1163 C 0.38979 0.60342 0.8993 0.0
C1164 C 0.4092 0.60912 0.91889 0.0
C1165 C 0.39929 0.60313 0.94179 0.0
C1166 C 0.37063 0.59128 0.94483 0.0
C1167 C 0.35131 0.58605 0.92463 0.0
H1168 H 0.96289 0.22455 0.27085 0.0
H1169 H 0.93438 0.24645 0.20146 0.0
H1170 H 0.98777 0.26442 0.19952 0.0
H1171 H 1.00165 0.26728 0.29214 0.0
H1172 H 0.0357 0.25555 0.30777 0.0
H1173 H 0.99572 0.24362 0.30358 0.0
H1174 H 0.0267 0.21548 0.28344 0.0
H1175 H 0.0668 0.22732 0.28761 0.0
H1176 H 0.05392 0.21988 0.25827 0.0
H1177 H 0.04318 0.28091 0.20519 0.0
H1178 H 0.09762 0.29467 0.21812 0.0
H1179 H 0.0917 0.26265 0.28399 0.0
C1180 C 0.96813 0.23295 0.25515 0.0
C1181 C 0.94412 0.23414 0.23637 0.0
C1182 C 0.9519 0.24549 0.21626 0.0
C1183 C 0.98236 0.2557 0.2149 0.0
C1184 C 1.00516 0.25448 0.23378 0.0
C1185 C 0.99859 0.24338 0.25353 0.0
C1186 C 0.0273 0.24507 0.27155 0.0
C1187 C 1.01431 0.25338 0.29516 0.0
C1188 C 0.04471 0.22579 0.27544 0.0
C1189 C 0.05078 0.25891 0.25885 0.0
C1190 C 0.03743 0.26408 0.23707 0.0
C1191 C 0.05392 0.27694 0.22222 0.0
C1192 C 0.08482 0.2848 0.2298 0.0
C1193 C 0.09917 0.27987 0.25211 0.0
C1194 C 0.0818 0.2666 0.26672 0.0
H1195 H 0.22754 0.96686 0.25908 0.0
H1196 H 0.15594 0.01357 0.2579 0.0
H1197 H 0.20308 0.03616 0.25213 0.0
H1198 H 0.2908 0.99076 0.29256 0.0
H1199 H 0.32652 0.98062 0.27706 0.0
H1200 H 0.28712 0.96776 0.27876 0.0
H1201 H 0.28523 0.96534 0.2328 0.0
H1202 H 0.32475 0.97812 0.23096 0.0
H1203 H 0.28793 0.98664 0.21514 0.0
H1204 H 0.25753 0.05388 0.24878 0.0
H1205 H 0.31595 0.0659 0.24898 0.0
H1206 H 0.35412 0.00813 0.25272 0.0
C1207 C 0.22188 0.98181 0.25709 0.0
C1208 C 0.18802 0.98848 0.25878 0.0
C1209 C 0.18164 0.00819 0.2567 0.0
C1210 C 0.20825 0.02111 0.25333 0.0
C1211 C 0.24135 0.01417 0.25219 0.0
C1212 C 0.24838 0.99501 0.25401 0.0
C1213 C 0.28653 0.99157 0.25366 0.0
C1214 C 0.29843 0.98212 0.27689 0.0
C1215 C 0.29671 0.97971 0.23184 0.0
C1216 C 0.29972 0.01179 0.25168 0.0
C1217 C 0.27311 0.02453 0.25062 0.0
C1218 C 0.2786 0.04402 0.24935 0.0
C1219 C 0.31212 0.05073 0.24931 0.0
C1220 C 0.34011 0.03806 0.25064 0.0
C1221 C 0.33353 0.01827 0.25171 0.0
H1222 H 0.105 1.00607 0.99082 0.0
H1223 H 0.08203 0.95532 0.03162 0.0
H1224 H 1.02355 0.96658 0.03726 0.0
H1225 H 0.05456 0.0383 0.0271 0.0
H1226 H 0.0407 0.05236 1.0021 0.0
H1227 H 0.08115 0.04041 1.00114 0.0
H1228 H 0.06344 0.02363 0.96207 0.0
H1229 H 1.02294 0.03549 0.96293 0.0
H1230 H 0.02478 0.00998 0.96131 0.0
H1231 H 0.96702 0.98272 0.03785 0.0
H1232 H 0.91651 1.00318 0.03418 0.0
H1233 H 0.97538 0.04419 0.99413 0.0
C1234 C 0.08788 0.99737 1.00115 0.0
C1235 C 0.09849 0.97962 0.01056 0.0
C1236 C 0.07478 0.96873 0.02377 0.0
C1237 C 0.04139 0.97508 0.02725 0.0
C1238 C 0.03182 0.99248 0.01759 0.0
C1239 C 0.05435 1.00355 1.00492 0.0
C1240 C 0.0373 0.0217 0.99639 0.0
C1241 C 0.05445 0.03923 1.00734 0.0
C1242 C 0.03711 0.02275 0.96905 0.0
C1243 C 1.00166 0.01901 1.00615 0.0
C1244 C 0.99914 1.00201 0.01828 0.0
C1245 C 0.96871 0.99608 0.02844 0.0
C1246 C 0.94006 0.00777 0.02613 0.0
C1247 C 0.94182 0.0253 0.01382 0.0
C1248 C 0.97324 0.03099 1.00385 0.0
H1249 H 0.33755 0.23428 0.97549 0.0
H1250 H 0.35116 0.22547 0.05119 0.0
H1251 H 0.29653 0.242 0.05888 0.0
H1252 H 0.29999 0.28052 0.97841 0.0
H1253 H 0.27065 0.27618 0.95439 0.0
H1254 H 0.31075 0.2639 0.95522 0.0
H1255 H 0.2794 0.23165 0.95311 0.0
H1256 H 0.23919 0.24383 0.95228 0.0
H1257 H 0.24722 0.22621 0.97486 0.0
H1258 H 0.24101 0.26128 0.05791 0.0
H1259 H 0.188 0.27878 0.04821 0.0
H1260 H 0.21007 0.27304 0.97306 0.0
C1261 C 0.32916 0.23594 0.99371 0.0
C1262 C 0.34879 0.22878 0.0128 0.0
C1263 C 0.3365 0.23085 0.03634 0.0
C1264 C 0.30559 0.24028 0.04084 0.0
C1265 C 0.28697 0.2473 0.02156 0.0
C1266 C 0.2982 0.245 0.99844 0.0
C1267 C 0.27322 0.25331 0.98074 0.0
C1268 C 0.28964 0.26944 0.96635 0.0
C1269 C 0.25891 0.23782 0.96428 0.0
C1270 C 0.24621 0.26082 0.99745 0.0
C1271 C 0.25466 0.25742 0.02096 0.0
C1272 C 0.23406 0.2638 0.03954 0.0
C1273 C 0.20407 0.27378 0.03391 0.0
C1274 C 0.19466 0.27703 0.00991 0.0
C1275 C 0.21617 0.27042 0.99155 0.0
H1276 H 0.97213 0.71977 0.74961 0.0
H1277 H 0.90802 0.76363 0.77987 0.0
H1278 H 0.958 0.78421 0.78509 0.0
H1279 H 0.04633 0.72843 0.78782 0.0
H1280 H 0.07642 0.72413 0.76428 0.0
H1281 H 0.03588 0.71229 0.76403 0.0
H1282 H 1.02386 0.72556 0.72187 0.0
H1283 H 0.06429 0.73747 0.72202 0.0
H1284 H 0.02591 0.7508 0.71685 0.0
H1285 H 1.01411 0.80064 0.78557 0.0
H1286 H 0.07239 0.81216 0.78083 0.0
H1287 H 0.10175 0.75775 0.75076 0.0
C1288 C 0.96874 0.73358 0.75766 0.0
C1289 C 0.936 0.74007 0.76429 0.0
C1290 C 0.93265 0.7584 0.77439 0.0
C1291 C 0.96097 0.77017 0.77757 0.0
C1292 C 0.99271 0.76348 0.77058 0.0
C1293 C 0.99686 0.74563 0.76085 0.0
C1294 C 0.03374 0.7423 0.75401 0.0
C1295 C 0.04899 0.72581 0.7684 0.0
C1296 C 0.03713 0.73883 0.72709 0.0
C1297 C 0.04948 0.76114 0.76117 0.0
C1298 C 0.02532 0.77306 0.77083 0.0
C1299 C 0.03335 0.79136 0.77824 0.0
C1300 C 0.06685 0.79775 0.77558 0.0
C1301 C 0.0923 0.78594 0.76552 0.0
C1302 C 0.08322 0.76728 0.75842 0.0
H1303 H 0.71558 0.9755 0.76231 0.0
H1304 H 0.65479 0.02057 0.79348 0.0
H1305 H 0.70451 0.04151 0.7934 0.0
H1306 H 0.79233 0.98587 0.79597 0.0
H1307 H 0.82045 0.98037 0.77164 0.0
H1308 H 0.7799 0.96869 0.77386 0.0
H1309 H 0.76454 0.98003 0.73135 0.0
H1310 H 0.80498 0.99179 0.72902 0.0
H1311 H 0.7663 1.00498 0.72441 0.0
H1312 H 0.76027 0.05807 0.78943 0.0
H1313 H 0.81918 0.06867 0.78329 0.0
H1314 H 0.84549 0.01305 0.75577 0.0
C1315 C 0.71266 0.98969 0.76933 0.0
C1316 C 0.68071 0.99628 0.77767 0.0
C1317 C 0.67843 0.01511 0.78652 0.0
C1318 C 0.70673 0.02717 0.7867 0.0
C1319 C 0.73753 0.0203 0.77816 0.0
C1320 C 0.74084 1.00197 0.76979 0.0
C1321 C 0.7771 0.9982 0.76175 0.0
C1322 C 0.79341 0.98234 0.7767 0.0
C1323 C 0.77828 0.99347 0.73505 0.0
C1324 C 0.79352 0.01729 0.76687 0.0
C1325 C 0.77009 0.02982 0.77624 0.0
C1326 C 0.77885 0.04838 0.78211 0.0
C1327 C 0.81241 0.05433 0.77838 0.0
C1328 C 0.83713 0.04179 0.76893 0.0
C1329 C 0.82737 0.02297 0.76318 0.0
H1330 H 0.69516 0.75619 1.00731 0.0
H1331 H 0.73085 0.8137 0.0186 0.0
H1332 H 0.78979 0.80215 0.01996 0.0
H1333 H 0.75678 0.73295 0.04576 0.0
H1334 H 0.76245 0.71274 0.02651 0.0
H1335 H 0.72255 0.72528 0.02674 0.0
H1336 H 0.72693 0.73052 0.98124 0.0
H1337 H 0.76676 0.71794 0.98086 0.0
H1338 H 0.76426 0.74169 0.9691 0.0
H1339 H 0.84454 0.78483 0.02058 0.0
H1340 H 0.89282 0.76286 0.0183 0.0
H1341 H 0.82361 0.71606 1.00534 0.0
C1342 C 0.71543 0.76629 0.01014 0.0
C1343 C 0.7083 0.78591 0.01266 0.0
C1344 C 0.73558 0.7987 0.01619 0.0
C1345 C 0.7692 0.79225 0.0172 0.0
C1346 C 0.77537 0.77291 0.01458 0.0
C1347 C 0.7494 0.76008 0.01098 0.0
C1348 C 0.76349 0.7401 1.00807 0.0
C1349 C 0.75054 0.727 0.02796 0.0
C1350 C 0.75485 0.7321 0.98334 0.0
C1351 C 0.80137 0.74379 0.01059 0.0
C1352 C 0.80744 0.76283 0.01449 0.0
C1353 C 0.84014 0.76989 0.01736 0.0
C1354 C 0.86751 0.75726 0.01587 0.0
C1355 C 0.86232 0.73768 0.01132 0.0
C1356 C 0.82858 0.73087 1.00895 0.0
H1357 H 0.336 0.52757 0.72433 0.0
H1358 H 0.35683 0.53446 0.79956 0.0
H1359 H 0.30383 0.51707 0.80915 0.0
H1360 H 0.24619 0.5349 0.72847 0.0
H1361 H 0.23604 0.51786 0.70564 0.0
H1362 H 0.27611 0.53012 0.70495 0.0
H1363 H 0.30793 0.49794 0.70419 0.0
H1364 H 0.26795 0.48556 0.70483 0.0
H1365 H 0.2997 0.48067 0.72714 0.0
H1366 H 0.24861 0.49787 0.81014 0.0
H1367 H 0.19442 0.481 0.80249 0.0
H1368 H 0.20899 0.48834 0.72664 0.0
C1369 C 0.32964 0.52522 0.74283 0.0
C1370 C 0.35079 0.53216 0.76124 0.0
C1371 C 0.34103 0.52924 0.78522 0.0
C1372 C 0.31105 0.51932 0.79079 0.0
C1373 C 0.29082 0.51263 0.77218 0.0
C1374 C 0.29961 0.51565 0.74867 0.0
C1375 C 0.27297 0.50773 0.73192 0.0
C1376 C 0.25688 0.5236 0.71686 0.0
C1377 C 0.28804 0.49204 0.71609 0.0
C1378 C 0.2478 0.49969 0.74961 0.0
C1379 C 0.25864 0.50246 0.77276 0.0
C1380 C 0.23985 0.49576 0.79208 0.0
C1381 C 0.20919 0.48614 0.78759 0.0
C1382 C 0.19731 0.48352 0.76402 0.0
C1383 C 0.21707 0.49041 0.74487 0.0
H1384 H 0.95034 0.50872 0.54039 0.0
H1385 H 0.94063 0.53457 0.47053 0.0
H1386 H 0.99344 0.5188 0.45793 0.0
H1387 H 0.03987 0.51252 0.54515 0.0
H1388 H 0.04579 0.48996 0.55969 0.0
H1389 H 1.0064 0.50266 0.56317 0.0
H1390 H 0.97319 0.47341 0.54788 0.0
H1391 H 1.0125 0.46059 0.54443 0.0
H1392 H 0.98405 0.46318 0.51948 0.0
H1393 H 0.04867 0.5016 0.45332 0.0
H1394 H 0.10196 0.48341 0.45663 0.0
H1395 H 0.07601 0.46758 0.52892 0.0
C1396 C 0.95887 0.51086 0.52231 0.0
C1397 C 0.94103 0.52307 0.50653 0.0
C1398 C 0.95379 0.52559 0.48314 0.0
C1399 C 0.98377 0.51657 0.47573 0.0
C1400 C 1.00083 0.50488 0.4918 0.0
C1401 C 0.98879 0.50188 0.51456 0.0
C1402 C 1.01255 0.48891 0.52844 0.0
C1403 C 0.027 0.49913 0.55041 0.0
C1404 C 0.99449 0.47042 0.53547 0.0
C1405 C 0.03999 0.48527 0.51 0.0
C1406 C 0.03262 0.49466 0.48901 0.0
C1407 C 0.05458 0.49411 0.46962 0.0
C1408 C 0.08493 0.48382 0.47173 0.0
C1409 C 0.09325 0.47408 0.49303 0.0
C1410 C 0.07017 0.47468 0.51233 0.0
H1411 H 0.34279 0.72985 0.49604 0.0
H1412 H 0.36889 0.74998 0.56668 0.0
H1413 H 0.31616 0.76871 0.56794 0.0
H1414 H 0.30698 0.77361 0.47519 0.0
H1415 H 0.27335 0.76265 0.45835 0.0
H1416 H 0.31265 0.75012 0.46314 0.0
H1417 H 0.27964 0.72199 0.48158 0.0
H1418 H 0.24021 0.73443 0.47681 0.0
H1419 H 0.25131 0.72623 0.5062 0.0
H1420 H 0.26121 0.78582 0.56158 0.0
H1421 H 0.20768 0.80023 0.5479 0.0
H1422 H 0.21661 0.76983 0.48096 0.0
C1423 C 0.33717 0.73804 0.51184 0.0
C1424 C 0.36025 0.73849 0.53121 0.0
C1425 C 0.35205 0.74959 0.55146 0.0
C1426 C 0.32197 0.76022 0.55242 0.0
C1427 C 0.30006 0.7597 0.53299 0.0
C1428 C 0.30717 0.74891 0.51305 0.0
C1429 C 0.2795 0.75133 0.4944 0.0
C1430 C 0.29399 0.75994 0.47141 0.0
C1431 C 0.26161 0.73236 0.48946 0.0
C1432 C 0.25594 0.7652 0.50696 0.0
C1433 C 0.2683 0.76975 0.52923 0.0
C1434 C 0.25129 0.78238 0.54414 0.0
C1435 C 0.22091 0.79063 0.53611 0.0
C1436 C 0.20762 0.78635 0.51326 0.0
C1437 C 0.22559 0.77334 0.4986 0.0
H1438 H 0.83251 0.52855 0.2218 0.0
H1439 H 0.85575 0.53464 0.29673 0.0
H1440 H 0.80373 0.51653 0.30694 0.0
H1441 H 0.74198 0.53508 0.22823 0.0
H1442 H 0.7314 0.51841 0.20507 0.0
H1443 H 0.77097 0.53116 0.2039 0.0
H1444 H 0.80379 0.49935 0.20129 0.0
H1445 H 0.76433 0.48651 0.2025 0.0
H1446 H 0.79733 0.48155 0.22387 0.0
H1447 H 0.75007 0.49614 0.30853 0.0
H1448 H 0.69637 0.47852 0.3016 0.0
H1449 H 0.70608 0.4882 0.22583 0.0
C1450 C 0.82667 0.52595 0.24034 0.0
C1451 C 0.84827 0.53279 0.25853 0.0
C1452 C 0.83949 0.5295 0.2826 0.0
C1453 C 0.81011 0.51917 0.28851 0.0
C1454 C 0.78939 0.51253 0.27013 0.0
C1455 C 0.79706 0.51607 0.24653 0.0
C1456 C 0.76989 0.50817 0.23016 0.0
C1457 C 0.75253 0.52416 0.21601 0.0
C1458 C 0.78473 0.49299 0.21347 0.0
C1459 C 0.74584 0.49948 0.24816 0.0
C1460 C 0.75773 0.50189 0.27112 0.0
C1461 C 0.7404 0.49437 0.29064 0.0
C1462 C 0.71005 0.48434 0.28658 0.0
C1463 C 0.69696 0.48221 0.26327 0.0
C1464 C 0.71523 0.4899 0.24388 0.0
H1465 H 0.69713 0.25692 0.50171 0.0
H1466 H 0.72444 0.31436 0.52174 0.0
H1467 H 0.78387 0.30438 0.52704 0.0
H1468 H 0.75286 0.233 0.54288 0.0
H1469 H 0.76419 0.21423 0.5226 0.0
H1470 H 0.72351 0.22576 0.51998 0.0
H1471 H 0.7364 0.23401 0.476 0.0
H1472 H 0.77706 0.22243 0.47846 0.0
H1473 H 0.77467 0.24678 0.4688 0.0
H1474 H 0.83987 0.28821 0.53175 0.0
H1475 H 0.88968 0.26742 0.53342 0.0
H1476 H 0.82798 0.22017 0.5089 0.0
C1477 C 0.71566 0.26737 0.50718 0.0
C1478 C 0.70596 0.28651 0.51111 0.0
C1479 C 0.73112 0.29975 0.51817 0.0
C1480 C 0.765 0.29417 0.52143 0.0
C1481 C 0.77367 0.27527 0.51746 0.0
C1482 C 0.74987 0.26206 0.51031 0.0
C1483 C 0.76631 0.24268 0.50703 0.0
C1484 C 0.75079 0.22806 0.52415 0.0
C1485 C 0.76344 0.23609 0.48102 0.0
C1486 C 0.80294 0.24708 0.51364 0.0
C1487 C 0.80644 0.26596 0.51968 0.0
C1488 C 0.83752 0.27343 0.5268 0.0
C1489 C 0.86589 0.26141 0.52755 0.0
C1490 C 0.86347 0.24198 0.52102 0.0
C1491 C 0.8312 0.23482 0.51409 0.0
H1492 H 0.44817 0.2533 0.76575 0.0
H1493 H 0.48182 0.19555 0.75254 0.0
H1494 H 0.54094 0.20652 0.75103 0.0
H1495 H 0.51086 0.27664 0.72794 0.0
H1496 H 0.5168 0.29632 0.74799 0.0
H1497 H 0.47654 0.28422 0.74691 0.0
H1498 H 0.48003 0.27791 0.79224 0.0
H1499 H 0.52025 0.29 0.79347 0.0
H1500 H 0.51676 0.26601 0.8043 0.0
H1501 H 0.59692 0.22316 0.75308 0.0
H1502 H 0.64591 0.24462 0.75784 0.0
H1503 H 0.57739 0.29186 0.76973 0.0
C1504 C 0.4679 0.24294 0.76247 0.0
C1505 C 0.45987 0.22349 0.75907 0.0
C1506 C 0.48677 0.21053 0.75474 0.0
C1507 C 0.52067 0.21662 0.754 0.0
C1508 C 0.52761 0.23578 0.75754 0.0
C1509 C 0.50204 0.2488 0.76161 0.0
C1510 C 0.51671 0.26853 0.76539 0.0
C1511 C 0.50449 0.28224 0.74589 0.0
C1512 C 0.50791 0.27605 0.79033 0.0
C1513 C 0.5545 0.26449 0.76309 0.0
C1514 C 0.56012 0.24548 0.75855 0.0
C1515 C 0.59281 0.23809 0.7565 0.0
C1516 C 0.62052 0.25038 0.75935 0.0
C1517 C 0.61561 0.26994 0.76411 0.0
C1518 C 0.58201 0.27707 0.76574 0.0
H1519 H 0.44831 0.00621 0.527 0.0
H1520 H 0.4653 0.05485 0.48109 0.0
H1521 H 0.52318 0.04354 0.47292 0.0
H1522 H 0.53161 1.00432 0.5521 0.0
H1523 H 0.53404 0.97878 0.55256 0.0
H1524 H 0.4934 0.99041 0.55463 0.0
H1525 H 0.47199 0.97141 0.51816 0.0
H1526 H 0.51258 0.95971 0.51598 0.0
H1527 H 0.49557 0.97228 0.4907 0.0
H1528 H 0.57993 0.02775 0.47055 0.0
H1529 H 0.63161 0.00812 0.47363 0.0
H1530 H 0.5786 0.96891 0.51999 0.0
C1531 C 0.46398 0.0144 0.51501 0.0
C1532 C 0.45194 0.03161 0.50488 0.0
C1533 C 0.47376 0.04188 0.48949 0.0
C1534 C 0.50675 0.03548 0.48457 0.0
C1535 C 0.51782 0.01864 0.49499 0.0
C1536 C 0.49711 0.00816 0.5098 0.0
C1537 C 0.51563 0.99063 0.51889 0.0
C1538 C 0.51886 0.99107 0.54616 0.0
C1539 C 0.49788 0.97243 0.51042 0.0
C1540 C 0.55002 0.99301 0.50699 0.0
C1541 C 0.55062 0.0093 0.49331 0.0
C1542 C 0.57971 0.01493 0.48114 0.0
C1543 C 0.60903 1.00373 0.4831 0.0
C1544 C 0.60928 0.98697 0.49704 0.0
C1545 C 0.57913 0.98149 0.50896 0.0
H1546 H 0.60427 0.75786 0.25755 0.0
H1547 H 0.56854 0.81444 0.27575 0.0
H1548 H 0.51004 0.80283 0.27589 0.0
H1549 H 0.53612 0.74545 0.21904 0.0
H1550 H 0.5336 0.72112 0.22874 0.0
H1551 H 0.57337 0.73362 0.23041 0.0
H1552 H 0.57744 0.72602 0.27541 0.0
H1553 H 0.53764 0.71349 0.27389 0.0
H1554 H 0.54298 0.73262 0.29483 0.0
H1555 H 0.45482 0.78591 0.27202 0.0
H1556 H 0.40655 0.76413 0.26572 0.0
H1557 H 0.47651 0.71788 0.25245 0.0
C1558 C 0.58437 0.76786 0.26182 0.0
C1559 C 0.59172 0.78727 0.26637 0.0
C1560 C 0.56428 0.79966 0.27171 0.0
C1561 C 0.53065 0.79315 0.27203 0.0
C1562 C 0.52446 0.7741 0.26728 0.0
C1563 C 0.55048 0.76155 0.26246 0.0
C1564 C 0.53655 0.74177 0.25779 0.0
C1565 C 0.54544 0.7351 0.23249 0.0
C1566 C 0.54942 0.72764 0.2766 0.0
C1567 C 0.49863 0.74528 0.26041 0.0
C1568 C 0.49235 0.76408 0.26585 0.0
C1569 C 0.45943 0.77112 0.26802 0.0
C1570 C 0.43218 0.75868 0.26435 0.0
C1571 C 0.43781 0.73935 0.2588 0.0
C1572 C 0.47155 0.73252 0.2571 0.0
H1573 H 0.58945 0.49332 0.98558 0.0
H1574 H 0.584 0.45466 0.04578 0.0
H1575 H 0.52803 0.4676 0.05604 0.0
H1576 H 0.54989 0.53327 0.01555 0.0
H1577 H 0.52759 0.54114 0.98931 0.0
H1578 H 0.56752 0.52885 0.98648 0.0
H1579 H 0.53916 0.50402 0.95895 0.0
H1580 H 0.49915 0.5162 0.96172 0.0
H1581 H 0.50219 0.4914 0.96923 0.0
H1582 H 0.47165 0.48395 0.0593 0.0
H1583 H 0.41973 0.50337 0.05605 0.0
H1584 H 0.46199 0.5325 0.99493 0.0
C1585 C 0.57691 0.4876 1.00108 0.0
C1586 C 0.59166 0.4727 0.01466 0.0
C1587 C 0.57357 0.46575 0.03469 0.0
C1588 C 0.54163 0.47313 0.04082 0.0
C1589 C 0.52794 0.48763 0.02696 0.0
C1590 C 0.54507 0.49491 1.0076 0.0
C1591 C 0.52458 0.51055 0.99568 0.0
C1592 C 0.54353 0.52958 0.99683 0.0
C1593 C 0.51575 0.50521 0.96987 0.0
C1594 C 0.49312 0.5108 0.01128 0.0
C1595 C 0.49563 0.4974 0.02916 0.0
C1596 C 0.46948 0.49452 0.04542 0.0
C1597 C 0.43997 0.50556 0.04334 0.0
C1598 C 0.4367 0.51944 0.02522 0.0
C1599 C 0.46388 0.52215 1.0091 0.0
H1600 H 0.21999 0.40356 0.41865 0.0
H1601 H 0.1347 0.37977 0.45733 0.0
H1602 H 0.11615 0.36313 0.42084 0.0
H1603 H 0.17683 0.41115 0.36322 0.0
H1604 H 0.21274 0.40456 0.34515 0.0
H1605 H 0.21937 0.41461 0.37425 0.0
H1606 H 0.25548 0.38542 0.38639 0.0
H1607 H 0.24921 0.37536 0.35726 0.0
H1608 H 0.23778 0.36197 0.38337 0.0
H1609 H 0.10634 0.34955 0.37982 0.0
H1610 H 0.10814 0.33819 0.33834 0.0
H1611 H 0.20052 0.37041 0.32653 0.0
C1612 C 0.19744 0.39482 0.41951 0.0
C1613 C 0.17876 0.39301 0.44091 0.0
C1614 C 0.14949 0.38135 0.44121 0.0
C1615 C 0.13867 0.3719 0.42053 0.0
C1616 C 0.15747 0.37417 0.3997 0.0
C1617 C 0.18642 0.38521 0.39909 0.0
C1618 C 0.20245 0.38501 0.37455 0.0
C1619 C 0.20286 0.40502 0.36366 0.0
C1620 C 0.23835 0.37642 0.37546 0.0
C1621 C 0.17799 0.37214 0.36141 0.0
C1622 C 0.1521 0.36615 0.3762 0.0
C1623 C 0.12653 0.35413 0.36811 0.0
C1624 C 0.12774 0.3478 0.34444 0.0
C1625 C 0.15445 0.35338 0.32906 0.0
C1626 C 0.17967 0.36591 0.33772 0.0
H1627 H 0.09682 0.88766 0.32205 0.0
H1628 H 0.18992 0.91897 0.33494 0.0
H1629 H 0.1913 0.90696 0.37615 0.0
H1630 H 0.05959 0.89543 0.3788 0.0
H1631 H 0.0413 0.87207 0.38115 0.0
H1632 H 0.04813 0.88251 0.3523 0.0
H1633 H 0.084 0.85338 0.33963 0.0
H1634 H 0.07701 0.84278 0.36838 0.0
H1635 H 0.11968 0.84621 0.35765 0.0
H1636 H 0.18089 0.89296 0.41687 0.0
H1637 H 0.16171 0.87595 0.45295 0.0
H1638 H 0.07637 0.85314 0.4133 0.0
C1639 C 0.11772 0.89182 0.33343 0.0
C1640 C 0.14327 0.90428 0.32515 0.0
C1641 C 0.17007 0.90941 0.34075 0.0
C1642 C 0.17105 0.90271 0.36426 0.0
C1643 C 0.14517 0.89076 0.37198 0.0
C1644 C 0.11922 0.88517 0.35696 0.0
C1645 C 0.09447 0.87224 0.36974 0.0
C1646 C 0.05877 0.8811 0.37054 0.0
C1647 C 0.09377 0.85248 0.35816 0.0
C1648 C 0.11042 0.87157 0.39431 0.0
C1649 C 0.13955 0.88242 0.39528 0.0
C1650 C 0.15823 0.88431 0.41627 0.0
C1651 C 0.14706 0.87466 0.43671 0.0
C1652 C 0.11762 0.86315 0.43599 0.0
C1653 C 0.0991 0.86172 0.41445 0.0
H1654 H 0.20541 0.89352 0.83097 0.0
H1655 H 0.1443 0.8423 0.83148 0.0
H1656 H 0.13285 0.84687 0.87424 0.0
H1657 H 0.24398 0.88626 0.8873 0.0
H1658 H 0.24377 0.91094 0.89564 0.0
H1659 H 0.24548 0.90439 0.8647 0.0
H1660 H 0.19181 0.92462 0.85628 0.0
H1661 H 0.19003 0.93131 0.8872 0.0
H1662 H 0.15372 0.92043 0.87324 0.0
H1663 H 0.1301 0.85617 0.91756 0.0
H1664 H 0.13587 0.86978 0.9579 0.0
H1665 H 0.19893 0.9148 0.92926 0.0
C1666 C 0.18923 0.88341 0.83997 0.0
C1667 C 0.17568 0.86758 0.82775 0.0
C1668 C 0.15498 0.85456 0.84036 0.0
C1669 C 0.14828 0.85703 0.8647 0.0
C1670 C 0.16243 0.8726 0.87628 0.0
C1671 C 0.18237 0.88562 0.86433 0.0
C1672 C 0.19545 0.90077 0.88115 0.0
C1673 C 0.23448 0.90057 0.88226 0.0
C1674 C 0.18194 0.92044 0.87404 0.0
C1675 C 0.18001 0.89414 0.90442 0.0
C1676 C 0.16094 0.87791 0.90123 0.0
C1677 C 0.14481 0.86895 0.92024 0.0
C1678 C 0.14827 0.87678 0.94312 0.0
C1679 C 0.16778 0.89339 0.94684 0.0
C1680 C 0.1837 0.90214 0.92709 0.0
H1681 H 0.10119 0.37197 0.83368 0.0
H1682 H 0.14319 0.42885 0.83635 0.0
H1683 H 0.15393 0.42508 0.87934 0.0
H1684 H 0.0585 0.3736 0.88873 0.0
H1685 H 0.0675 0.34936 0.89678 0.0
H1686 H 0.06507 0.35601 0.8659 0.0
H1687 H 0.12553 0.34261 0.85889 0.0
H1688 H 0.12809 0.33584 0.88976 0.0
H1689 H 0.16024 0.35091 0.87703 0.0
H1690 H 0.15558 0.41615 0.9229 0.0
H1691 H 0.15097 0.40193 0.96305 0.0
H1692 H 0.11013 0.3505 0.93175 0.0
C1693 C 0.11308 0.38355 0.84321 0.0
C1694 C 0.12132 0.40071 0.83152 0.0
C1695 C 0.1367 0.41553 0.84478 0.0
C1696 C 0.14289 0.41354 0.86927 0.0
C1697 C 0.13393 0.39657 0.88031 0.0
C1698 C 0.11971 0.38174 0.86766 0.0
C1699 C 0.11169 0.36516 0.88389 0.0
C1700 C 0.07342 0.36079 0.88382 0.0
C1701 C 0.13264 0.34759 0.87698 0.0
C1702 C 0.12303 0.37311 0.90768 0.0
C1703 C 0.13575 0.39126 0.90526 0.0
C1704 C 0.1461 0.40184 0.92496 0.0
C1705 C 0.14332 0.39367 0.94771 0.0
C1706 C 0.13055 0.37504 0.95058 0.0
C1707 C 0.12056 0.36465 0.93017 0.0
H1708 H 0.8598 0.61971 0.68846 0.0
H1709 H 0.88851 0.67895 0.68204 0.0
H1710 H 0.89618 0.67481 0.63885 0.0
H1711 H 0.91894 0.60166 0.64301 0.0
H1712 H 0.88919 0.58426 0.63219 0.0
H1713 H 0.88802 0.59152 0.66293 0.0
H1714 H 0.8246 0.60063 0.65834 0.0
H1715 H 0.82561 0.59346 0.62761 0.0
H1716 H 0.81218 0.61711 0.63538 0.0
H1717 H 0.89601 0.66506 0.5958 0.0
H1718 H 0.89046 0.64987 0.55632 0.0
H1719 H 0.86399 0.59673 0.59057 0.0
C1720 C 0.86819 0.63175 0.67805 0.0
C1721 C 0.87356 0.64966 0.68878 0.0
C1722 C 0.88427 0.66506 0.67437 0.0
C1723 C 0.88872 0.66286 0.64975 0.0
C1724 C 0.88269 0.64513 0.6397 0.0
C1725 C 0.87297 0.62978 0.6534 0.0
C1726 C 0.86713 0.6124 0.638 0.0
C1727 C 0.89233 0.59652 0.64442 0.0
C1728 C 0.83019 0.6055 0.63995 0.0
C1729 C 0.87446 0.62049 0.61351 0.0
C1730 C 0.8834 0.6394 0.61489 0.0
C1731 C 0.8895 0.65019 0.59452 0.0
C1732 C 0.88622 0.64145 0.57216 0.0
C1733 C 0.87716 0.62208 0.57031 0.0
C1734 C 0.87157 0.61148 0.59136 0.0
H1735 H 0.95686 0.14515 0.68815 0.0
H1736 H 0.88683 0.09772 0.69165 0.0
H1737 H 0.87291 0.10215 0.64919 0.0
H1738 H 0.90712 0.17408 0.64676 0.0
H1739 H 0.9441 0.18257 0.6312 0.0
H1740 H 0.94702 0.17637 0.66224 0.0
H1741 H 0.99603 0.15304 0.65267 0.0
H1742 H 0.99312 0.15908 0.6216 0.0
H1743 H 0.98951 0.13467 0.63083 0.0
H1744 H 0.86805 0.11101 0.6057 0.0
H1745 H 0.87252 0.1238 0.56484 0.0
H1746 H 0.94638 0.16504 0.58951 0.0
C1747 C 0.93821 0.13587 0.68011 0.0
C1748 C 0.92283 0.12114 0.69338 0.0
C1749 C 0.89893 0.10914 0.68197 0.0
C1750 C 0.89083 0.11154 0.6578 0.0
C1751 C 0.90683 0.12599 0.64516 0.0
C1752 C 0.92995 0.13799 0.65593 0.0
C1753 C 0.9444 0.152 0.63813 0.0
C1754 C 0.9351 0.17247 0.64499 0.0
C1755 C 0.98305 0.14954 0.63567 0.0
C1756 C 0.92605 0.14588 0.61566 0.0
C1757 C 0.90435 0.13092 0.6201 0.0
C1758 C 0.88488 0.12277 0.60204 0.0
C1759 C 0.88761 0.13013 0.57885 0.0
C1760 C 0.90978 0.14543 0.57385 0.0
C1761 C 0.92919 0.15333 0.59263 0.0
H1762 H 0.84477 0.16228 0.17825 0.0
H1763 H 0.92105 0.12331 0.20516 0.0
H1764 H 0.92614 0.10901 0.16507 0.0
H1765 H 0.80371 0.13028 0.1375 0.0
H1766 H 0.79708 0.14815 0.11501 0.0
H1767 H 0.79889 0.15482 0.14592 0.0
H1768 H 0.84708 0.17864 0.13648 0.0
H1769 H 0.84556 0.17197 0.10555 0.0
H1770 H 0.88497 0.17037 0.12177 0.0
H1771 H 0.92211 0.09871 0.12196 0.0
H1772 H 0.91052 0.09368 0.07923 0.0
H1773 H 0.83878 0.14047 0.0801 0.0
C1774 C 0.86235 0.15062 0.17579 0.0
C1775 C 0.88234 0.14379 0.19492 0.0
C1776 C 0.90545 0.12874 0.19081 0.0
C1777 C 0.90849 0.12054 0.16809 0.0
C1778 C 0.88857 0.12771 0.1496 0.0
C1779 C 0.86608 0.14249 0.15319 0.0
C1780 C 0.84831 0.14796 0.13022 0.0
C1781 C 0.80971 0.14512 0.13229 0.0
C1782 C 0.85701 0.16845 0.12309 0.0
C1783 C 0.86399 0.1338 0.11315 0.0
C1784 C 0.88708 0.12222 0.12469 0.0
C1785 C 0.90423 0.10778 0.11274 0.0
C1786 C 0.89745 0.10504 0.08844 0.0
C1787 C 0.8739 0.11675 0.0762 0.0
C1788 C 0.8572 0.13141 0.08881 0.0
H1789 H 0.94207 0.63636 0.07369 0.0
H1790 H 0.89707 0.68949 0.09655 0.0
H1791 H 0.89095 0.67678 0.13727 0.0
H1792 H 0.89187 0.6047 0.11234 0.0
H1793 H 0.92751 0.58936 0.11835 0.0
H1794 H 0.92489 0.60186 0.09043 0.0
H1795 H 0.98417 0.61656 0.09813 0.0
H1796 H 0.98689 0.60418 0.12608 0.0
H1797 H 0.99157 0.62961 0.12523 0.0
H1798 H 0.89254 0.6589 0.17623 0.0
H1799 H 0.9036 0.63758 0.21041 0.0
H1800 H 0.94959 0.59666 0.16251 0.0
C1801 C 0.9302 0.64513 0.08715 0.0
C1802 C 0.91967 0.66384 0.08189 0.0
C1803 C 0.90516 0.67508 0.10016 0.0
C1804 C 0.90151 0.66797 0.12335 0.0
C1805 C 0.91272 0.64961 0.12811 0.0
C1806 C 0.92683 0.63834 0.11054 0.0
C1807 C 0.93918 0.61965 0.12077 0.0
C1808 C 0.91969 0.6029 0.10982 0.0
C1809 C 0.97773 0.61738 0.11735 0.0
C1810 C 0.93018 0.62229 0.14681 0.0
C1811 C 0.91457 0.63956 0.15066 0.0
C1812 C 0.90459 0.64528 0.1734 0.0
C1813 C 0.91096 0.63308 0.19272 0.0
C1814 C 0.92749 0.61545 0.18923 0.0
C1815 C 0.93691 0.61003 0.16587 0.0
H1816 H 0.71409 0.40992 0.91741 0.0
H1817 H 0.64601 0.37857 0.96362 0.0
H1818 H 0.62808 0.35891 0.92935 0.0
H1819 H 0.66049 0.4104 0.86546 0.0
H1820 H 0.69522 0.40734 0.84495 0.0
H1821 H 0.70214 0.41913 0.87298 0.0
H1822 H 0.75003 0.39524 0.88326 0.0
H1823 H 0.74342 0.38347 0.85521 0.0
H1824 H 0.74119 0.37016 0.88256 0.0
H1825 H 0.61775 0.34269 0.88982 0.0
H1826 H 0.61831 0.32983 0.84899 0.0
H1827 H 0.69389 0.37165 0.82885 0.0
C1828 C 0.69534 0.39895 0.92038 0.0
C1829 C 0.68135 0.39583 0.94323 0.0
C1830 C 0.65709 0.38122 0.94631 0.0
C1831 C 0.64667 0.37004 0.92692 0.0
C1832 C 0.66083 0.3736 0.90461 0.0
C1833 C 0.68482 0.38763 0.9013 0.0
C1834 C 0.69688 0.38827 0.8757 0.0
C1835 C 0.68815 0.40742 0.86409 0.0
C1836 C 0.73514 0.38403 0.8741 0.0
C1837 C 0.67601 0.37235 0.86507 0.0
C1838 C 0.6552 0.36416 0.88199 0.0
C1839 C 0.63393 0.34902 0.87644 0.0
C1840 C 0.63439 0.34184 0.85314 0.0
C1841 C 0.6561 0.34972 0.83562 0.0
C1842 C 0.67683 0.36536 0.84172 0.0
H1843 H 0.59434 0.89445 0.94184 0.0
H1844 H 0.65574 0.84327 0.93982 0.0
H1845 H 0.66689 0.84856 0.89716 0.0
H1846 H 0.55555 0.88822 0.88533 0.0
H1847 H 0.5557 0.91306 0.87771 0.0
H1848 H 0.55407 0.90594 0.90845 0.0
H1849 H 0.60772 0.92595 0.91741 0.0
H1850 H 0.60942 0.93322 0.8867 0.0
H1851 H 0.64577 0.92205 0.90029 0.0
H1852 H 0.66944 0.85862 0.85413 0.0
H1853 H 0.66381 0.87306 0.81424 0.0
H1854 H 0.60067 0.91759 0.84419 0.0
C1855 C 0.6105 0.88448 0.93253 0.0
C1856 C 0.62424 0.86846 0.94429 0.0
C1857 C 0.64493 0.85566 0.93129 0.0
C1858 C 0.65145 0.85854 0.907 0.0
C1859 C 0.63714 0.8743 0.89588 0.0
C1860 C 0.61721 0.88711 0.90822 0.0
C1861 C 0.60407 0.90258 0.89186 0.0
C1862 C 0.56503 0.90243 0.89078 0.0
C1863 C 0.61756 0.92211 0.89952 0.0
C1864 C 0.61947 0.89637 0.86839 0.0
C1865 C 0.63855 0.88006 0.87109 0.0
C1866 C 0.65472 0.87146 0.85183 0.0
C1867 C 0.65133 0.87976 0.82921 0.0
C1868 C 0.63188 0.89649 0.82599 0.0
C1869 C 0.61585 0.90485 0.84597 0.0
H1870 H 0.68767 0.92264 0.41303 0.0
H1871 H 0.65093 0.88067 0.46333 0.0
H1872 H 0.64086 0.85837 0.43014 0.0
H1873 H 0.6293 0.91057 0.36384 0.0
H1874 H 0.66132 0.91445 0.34148 0.0
H1875 H 0.66239 0.92776 0.36885 0.0
H1876 H 0.72395 0.91629 0.37654 0.0
H1877 H 0.72307 0.90293 0.34926 0.0
H1878 H 0.73291 0.8912 0.37693 0.0
H1879 H 0.64012 0.83966 0.39222 0.0
H1880 H 0.64818 0.82586 0.35231 0.0
H1881 H 0.6846 0.88007 0.32625 0.0
C1882 C 0.67692 0.90889 0.41708 0.0
C1883 C 0.66996 0.90344 0.44084 0.0
C1884 C 0.65633 0.88521 0.44531 0.0
C1885 C 0.65048 0.87245 0.42655 0.0
C1886 C 0.65818 0.87818 0.40341 0.0
C1887 C 0.67092 0.896 0.39858 0.0
C1888 C 0.67901 0.89824 0.37233 0.0
C1889 C 0.65667 0.91367 0.36096 0.0
C1890 C 0.71698 0.9024 0.36856 0.0
C1891 C 0.66961 0.87871 0.36319 0.0
C1892 C 0.65742 0.86742 0.38142 0.0
C1893 C 0.64916 0.84844 0.37777 0.0
C1894 C 0.65392 0.84072 0.35503 0.0
C1895 C 0.66675 0.85193 0.33613 0.0
C1896 C 0.67411 0.87127 0.34022 0.0
H1897 H 0.59775 0.33286 0.41538 0.0
H1898 H 0.63594 0.37998 0.45726 0.0
H1899 H 0.6431 0.39877 0.42035 0.0
H1900 H 0.65288 0.33932 0.36428 0.0
H1901 H 0.62028 0.33289 0.34324 0.0
H1902 H 0.61985 0.32299 0.3728 0.0
H1903 H 0.55855 0.33545 0.37894 0.0
H1904 H 0.55879 0.34539 0.34944 0.0
H1905 H 0.54969 0.36032 0.37468 0.0
H1906 H 0.64385 0.41278 0.37861 0.0
H1907 H 0.63788 0.42089 0.33604 0.0
H1908 H 0.59891 0.36443 0.32188 0.0
C1909 C 0.60794 0.34707 0.41687 0.0
C1910 C 0.61639 0.35492 0.43929 0.0
C1911 C 0.62938 0.37363 0.44032 0.0
C1912 C 0.63354 0.3844 0.41944 0.0
C1913 C 0.62465 0.37625 0.39766 0.0
C1914 C 0.61217 0.35798 0.39628 0.0
C1915 C 0.60343 0.35266 0.37088 0.0
C1916 C 0.62543 0.33598 0.3623 0.0
C1917 C 0.56536 0.3482 0.36835 0.0
C1918 C 0.61264 0.37085 0.3581 0.0
C1919 C 0.62498 0.38427 0.37382 0.0
C1920 C 0.63439 0.40232 0.36617 0.0
C1921 C 0.63088 0.4068 0.34192 0.0
C1922 C 0.618 0.3933 0.32552 0.0
C1923 C 0.60904 0.37505 0.33385 0.0
H1924 H 0.33339 0.67527 0.16607 0.0
H1925 H 0.38523 0.63277 0.20862 0.0
H1926 H 0.39646 0.61408 0.17208 0.0
H1927 H 0.29285 0.64346 0.12607 0.0
H1928 H 0.29757 0.65875 0.10058 0.0
H1929 H 0.29475 0.66883 0.12995 0.0
H1930 H 0.35182 0.6863 0.12329 0.0
H1931 H 0.35488 0.67622 0.09391 0.0
H1932 H 0.38894 0.67288 0.11496 0.0
H1933 H 0.39988 0.59951 0.13055 0.0
H1934 H 0.3952 0.59033 0.08822 0.0
H1935 H 0.34198 0.64294 0.07321 0.0
C1936 C 0.34723 0.66207 0.16781 0.0
C1937 C 0.35841 0.65549 0.19031 0.0
C1938 C 0.37643 0.63812 0.19163 0.0
C1939 C 0.38294 0.62742 0.17095 0.0
C1940 C 0.37145 0.63435 0.14907 0.0
C1941 C 0.35403 0.65131 0.14742 0.0
C1942 C 0.34381 0.65556 0.12195 0.0
C1943 C 0.30494 0.65671 0.11951 0.0
C1944 C 0.36089 0.67382 0.11301 0.0
C1945 C 0.35788 0.63824 0.10943 0.0
C1946 C 0.37379 0.62617 0.12534 0.0
C1947 C 0.38769 0.60895 0.11797 0.0
C1948 C 0.38491 0.60386 0.09385 0.0
C1949 C 0.36842 0.61595 0.07727 0.0
C1950 C 0.35513 0.63346 0.08528 0.0
H1951 H 0.47205 0.10993 0.1679 0.0
H1952 H 0.3722 0.11816 0.1987 0.0
H1953 H 0.35231 0.1324 0.16076 0.0
H1954 H 0.47351 0.15402 0.13471 0.0
H1955 H 0.49636 0.14376 0.11008 0.0
H1956 H 0.50216 0.13445 0.13966 0.0
H1957 H 0.48583 0.10094 0.12453 0.0
H1958 H 0.47968 0.11019 0.09497 0.0
H1959 H 0.4458 0.09755 0.10954 0.0
H1960 H 0.343 0.14419 0.11806 0.0
H1961 H 0.34659 0.15535 0.07632 0.0
H1962 H 0.45351 0.14051 0.07492 0.0
C1963 C 0.446 0.11479 0.16673 0.0
C1964 C 0.42358 0.11286 0.1862 0.0
C1965 C 0.38981 0.11957 0.18402 0.0
C1966 C 0.37829 0.12758 0.16251 0.0
C1967 C 0.40101 0.129 0.14351 0.0
C1968 C 0.43431 0.12304 0.14562 0.0
C1969 C 0.45399 0.12644 0.12289 0.0
C1970 C 0.48322 0.1405 0.12709 0.0
C1971 C 0.46708 0.10766 0.11237 0.0
C1972 C 0.42651 0.13505 0.10746 0.0
C1973 C 0.39602 0.1363 0.11953 0.0
C1974 C 0.36684 0.1434 0.10855 0.0
C1975 C 0.36907 0.14961 0.0848 0.0
C1976 C 0.40033 0.14888 0.07236 0.0
C1977 C 0.42927 0.14139 0.08395 0.0
H1978 H 0.34632 0.11729 0.68818 0.0
H1979 H 0.39853 0.1715 0.6865 0.0
H1980 H 0.40881 0.16755 0.64353 0.0
H1981 H 0.40093 0.0933 0.64485 0.0
H1982 H 0.36621 0.08042 0.6316 0.0
H1983 H 0.36449 0.08702 0.66256 0.0
H1984 H 0.30716 0.10413 0.65524 0.0
H1985 H 0.30877 0.09766 0.62427 0.0
H1986 H 0.30448 0.12223 0.63264 0.0
H1987 H 0.41065 0.15866 0.60015 0.0
H1988 H 0.4052 0.14492 0.55986 0.0
H1989 H 0.35252 0.09636 0.5897 0.0
C1990 C 0.3603 0.12822 0.67886 0.0
C1991 C 0.37163 0.1447 0.69083 0.0
C1992 C 0.38957 0.15873 0.67783 0.0
C1993 C 0.39558 0.15663 0.65337 0.0
C1994 C 0.38364 0.14037 0.64205 0.0
C1995 C 0.36656 0.12635 0.65438 0.0
C1996 C 0.35559 0.11052 0.6378 0.0
C1997 C 0.37284 0.0917 0.64461 0.0
C1998 C 0.31669 0.10853 0.63747 0.0
C1999 C 0.36881 0.11795 0.61424 0.0
C2000 C 0.38496 0.13518 0.61708 0.0
C2001 C 0.39831 0.14508 0.59774 0.0
C2002 C 0.39503 0.13718 0.5749 0.0
C2003 C 0.37861 0.11952 0.57155 0.0
C2004 C 0.36551 0.10981 0.59161 0.0
H2005 H 0.47199 0.64064 0.68941 0.0
H2006 H 0.37603 0.61156 0.69919 0.0
H2007 H 0.35992 0.61926 0.65774 0.0
H2008 H 0.4414 0.67832 0.65052 0.0
H2009 H 0.47888 0.67803 0.63215 0.0
H2010 H 0.4817 0.67135 0.66304 0.0
H2011 H 0.50837 0.63918 0.65086 0.0
H2012 H 0.50536 0.64569 0.61993 0.0
H2013 H 0.48609 0.62403 0.63027 0.0
H2014 H 0.35426 0.63024 0.61502 0.0
H2015 H 0.36035 0.64269 0.57407 0.0
H2016 H 0.46163 0.66262 0.59127 0.0
C2017 C 0.44733 0.6362 0.68295 0.0
C2018 C 0.42502 0.62573 0.69765 0.0
C2019 C 0.39339 0.61971 0.68831 0.0
C2020 C 0.38404 0.62401 0.66478 0.0
C2021 C 0.40681 0.63411 0.65064 0.0
C2022 C 0.43788 0.64005 0.65933 0.0
C2023 C 0.45837 0.64987 0.6401 0.0
C2024 C 0.4655 0.67063 0.64686 0.0
C2025 C 0.4915 0.63904 0.63499 0.0
C2026 C 0.43396 0.64858 0.61926 0.0
C2027 C 0.40423 0.63959 0.62576 0.0
C2028 C 0.37753 0.63721 0.60971 0.0
C2029 C 0.38121 0.64431 0.58647 0.0
C2030 C 0.41156 0.65344 0.57935 0.0
C2031 C 0.43831 0.65544 0.59602 0.0
H2032 H 0.34664 0.34756 0.23395 0.0
H2033 H 0.31313 0.3603 0.30551 0.0
H2034 H 0.36461 0.37997 0.31191 0.0
H2035 H 0.43679 0.34554 0.24525 0.0
H2036 H 0.44811 0.35722 0.21784 0.0
H2037 H 0.40969 0.34344 0.2195 0.0
H2038 H 0.37474 0.37256 0.20551 0.0
H2039 H 0.41306 0.38639 0.20375 0.0
H2040 H 0.37803 0.39458 0.22165 0.0
H2041 H 0.42166 0.39727 0.31068 0.0
H2042 H 0.47528 0.41388 0.30033 0.0
H2043 H 0.46839 0.39219 0.22843 0.0
C2044 C 0.3504 0.35441 0.25099 0.0
C2045 C 0.32627 0.35228 0.26939 0.0
C2046 C 0.33147 0.36176 0.29129 0.0
C2047 C 0.36066 0.37287 0.29506 0.0
C2048 C 0.38408 0.37466 0.27656 0.0
C2049 C 0.37893 0.36594 0.25481 0.0
C2050 C 0.40682 0.37103 0.23736 0.0
C2051 C 0.42651 0.35325 0.22953 0.0
C2052 C 0.39229 0.38178 0.2158 0.0
C2053 C 0.42865 0.38386 0.25269 0.0
C2054 C 0.41546 0.38555 0.27538 0.0
C2055 C 0.43197 0.39618 0.29289 0.0
C2056 C 0.46242 0.40549 0.28695 0.0
C2057 C 0.47565 0.40446 0.26359 0.0
C2058 C 0.4585 0.39343 0.24634 0.0
H2059 H 0.85629 0.84824 0.2864 0.0
H2060 H 0.79835 0.87322 0.22849 0.0
H2061 H 0.84599 0.89456 0.21963 0.0
H2062 H 0.89601 0.89081 0.30617 0.0
H2063 H 0.93643 0.87996 0.3127 0.0
H2064 H 0.89811 0.86611 0.31437 0.0
H2065 H 0.92334 0.84183 0.28466 0.0
H2066 H 0.96178 0.85559 0.28293 0.0
H2067 H 0.93863 0.84991 0.25618 0.0
H2068 H 0.89843 0.91418 0.21783 0.0
H2069 H 0.95346 0.93035 0.22251 0.0
H2070 H 0.97959 0.89246 0.28053 0.0
C2071 C 0.8537 0.858 0.27166 0.0
C2072 C 0.8231 0.85904 0.25832 0.0
C2073 C 0.82098 0.87227 0.23934 0.0
C2074 C 0.8481 0.88441 0.23401 0.0
C2075 C 0.87755 0.88317 0.24766 0.0
C2076 C 0.88072 0.87024 0.266 0.0
C2077 C 0.91519 0.87211 0.27803 0.0
C2078 C 0.91118 0.87758 0.30438 0.0
C2079 C 0.93596 0.85377 0.27528 0.0
C2080 C 0.93067 0.88824 0.26372 0.0
C2081 C 0.90838 0.89436 0.24632 0.0
C2082 C 0.91616 0.90945 0.23132 0.0
C2083 C 0.94744 0.91863 0.2342 0.0
C2084 C 0.97085 0.91273 0.25189 0.0
C2085 C 0.96239 0.89715 0.26669 0.0
H2086 H 0.35095 0.91385 0.0342 0.0
H2087 H 0.3193 0.9045 0.96138 0.0
H2088 H 0.37011 0.88432 0.9546 0.0
H2089 H 0.44163 0.91489 0.02448 0.0
H2090 H 0.45144 0.90202 0.05135 0.0
H2091 H 0.41378 0.9165 0.04985 0.0
H2092 H 0.37699 0.88751 0.06151 0.0
H2093 H 0.41453 0.87295 0.06306 0.0
H2094 H 0.37969 0.86607 0.04412 0.0
H2095 H 0.42611 0.86598 0.95576 0.0
H2096 H 0.47864 0.84816 0.966 0.0
H2097 H 0.47037 0.86726 0.03897 0.0
C2098 C 0.35503 0.90768 0.0168 0.0
C2099 C 0.33162 0.91088 0.99816 0.0
C2100 C 0.33714 0.90222 0.97578 0.0
C2101 C 0.36592 0.89083 0.9718 0.0
C2102 C 0.3886 0.88793 0.99056 0.0
C2103 C 0.38315 0.89589 0.01273 0.0
C2104 C 0.41016 0.88967 0.03033 0.0
C2105 C 0.43045 0.90679 0.03954 0.0
C2106 C 0.39439 0.87838 0.05097 0.0
C2107 C 0.43181 0.87707 0.01461 0.0
C2108 C 0.41933 0.87646 0.99162 0.0
C2109 C 0.43587 0.86622 0.97377 0.0
C2110 C 0.46566 0.85621 0.97966 0.0
C2111 C 0.47816 0.85618 1.00327 0.0
C2112 C 0.46098 0.86681 0.02087 0.0
H2113 H 0.94093 0.34372 0.99111 0.0
H2114 H 1.0094 0.38183 0.02833 0.0
H2115 H 0.96342 0.4052 0.03215 0.0
H2116 H 0.89538 0.37948 0.95862 0.0
H2117 H 0.85465 0.36806 0.9614 0.0
H2118 H 0.89292 0.35404 0.96146 0.0
H2119 H 0.87579 0.33929 1.00191 0.0
H2120 H 0.83743 0.35324 1.00195 0.0
H2121 H 0.86643 0.35463 0.02673 0.0
H2122 H 0.9107 0.42478 0.03169 0.0
H2123 H 0.854 0.43912 0.02765 0.0
H2124 H 0.81818 0.38856 0.99145 0.0
C2125 C 0.94625 0.35688 1.00025 0.0
C2126 C 0.97919 0.36086 1.00921 0.0
C2127 C 0.98484 0.37844 0.02085 0.0
C2128 C 0.95872 0.39183 0.02329 0.0
C2129 C 0.92681 0.38751 0.01412 0.0
C2130 C 0.92033 0.37046 1.00291 0.0
C2131 C 0.88359 0.3695 0.99465 0.0
C2132 C 0.88153 0.36766 0.96741 0.0
C2133 C 0.8647 0.3532 1.00705 0.0
C2134 C 0.87055 0.38869 1.00294 0.0
C2135 C 0.89603 0.39882 0.01408 0.0
C2136 C 0.89055 0.41699 0.02299 0.0
C2137 C 0.85822 0.42509 0.02044 0.0
C2138 C 0.83151 0.41507 1.00911 0.0
C2139 C 0.8379 0.39654 1.00036 0.0
H2140 H 0.7081 0.65529 0.78622 0.0
H2141 H 0.73171 0.65603 0.71101 0.0
H2142 H 0.6797 0.6372 0.70271 0.0
H2143 H 0.67746 0.60698 0.78739 0.0
H2144 H 0.64519 0.61189 0.80927 0.0
H2145 H 0.68363 0.62569 0.80883 0.0
H2146 H 0.64813 0.65654 0.80539 0.0
H2147 H 0.60958 0.64284 0.80576 0.0
H2148 H 0.61778 0.65896 0.78154 0.0
H2149 H 0.62238 0.6197 0.70295 0.0
H2150 H 0.56913 0.60224 0.71209 0.0
H2151 H 0.58633 0.61118 0.78736 0.0
C2152 C 0.7022 0.65154 0.76801 0.0
C2153 C 0.72362 0.65726 0.74918 0.0
C2154 C 0.71554 0.65176 0.72562 0.0
C2155 C 0.68602 0.64116 0.72079 0.0
C2156 C 0.66522 0.63587 0.73979 0.0
C2157 C 0.67333 0.64065 0.76297 0.0
C2158 C 0.64766 0.63269 0.78036 0.0
C2159 C 0.6645 0.61847 0.79747 0.0
C2160 C 0.62973 0.64872 0.79406 0.0
C2161 C 0.62354 0.62285 0.7634 0.0
C2162 C 0.63375 0.625 0.74002 0.0
C2163 C 0.61446 0.61775 0.72122 0.0
C2164 C 0.58425 0.60793 0.72651 0.0
C2165 C 0.57398 0.60514 0.75039 0.0
C2166 C 0.59397 0.61277 0.76896 0.0
H2167 H 0.08913 0.1072 0.7871 0.0
H2168 H 0.06641 0.10624 0.71171 0.0
H2169 H 0.11914 0.12447 0.70364 0.0
H2170 H 0.1208 0.15505 0.7881 0.0
H2171 H 0.15278 0.15012 0.81023 0.0
H2172 H 0.11418 0.13647 0.80964 0.0
H2173 H 0.1493 0.10546 0.80665 0.0
H2174 H 0.18801 0.11902 0.80721 0.0
H2175 H 0.17992 0.10282 0.78305 0.0
H2176 H 0.17657 0.14189 0.70417 0.0
H2177 H 0.22955 0.15951 0.71353 0.0
H2178 H 0.21173 0.15071 0.78875 0.0
C2179 C 0.09544 0.11069 0.76887 0.0
C2180 C 0.07397 0.10509 0.74994 0.0
C2181 C 0.08261 0.11036 0.7264 0.0
C2182 C 0.11254 0.12063 0.72169 0.0
C2183 C 0.13328 0.12585 0.74079 0.0
C2184 C 0.12477 0.12125 0.76395 0.0
C2185 C 0.15037 0.12919 0.78146 0.0
C2186 C 0.13352 0.14356 0.79835 0.0
C2187 C 0.16794 0.11317 0.79541 0.0
C2188 C 0.17485 0.13888 0.76461 0.0
C2189 C 0.16489 0.13663 0.74118 0.0
C2190 C 0.18434 0.14387 0.72248 0.0
C2191 C 0.21443 0.15378 0.72791 0.0
C2192 C 0.2245 0.15668 0.75183 0.0
C2193 C 0.20436 0.14903 0.77031 0.0
H2194 H 0.59738 0.16178 0.98283 0.0
H2195 H 0.56304 0.1478 0.05381 0.0
H2196 H 0.61533 0.12875 0.06042 0.0
H2197 H 0.63127 0.11528 0.97009 0.0
H2198 H 0.6662 0.12416 0.95266 0.0
H2199 H 0.62716 0.13742 0.95426 0.0
H2200 H 0.66035 0.16688 0.96902 0.0
H2201 H 0.69949 0.15369 0.96754 0.0
H2202 H 0.68703 0.16491 0.995 0.0
H2203 H 0.67332 0.11236 0.05952 0.0
H2204 H 0.72802 0.09668 0.04944 0.0
H2205 H 0.72129 0.11891 0.97779 0.0
C2206 C 0.60112 0.15476 0.99978 0.0
C2207 C 0.57658 0.15637 0.01797 0.0
C2208 C 0.58174 0.14671 0.03976 0.0
C2209 C 0.61136 0.13597 0.04365 0.0
C2210 C 0.63523 0.1347 0.02536 0.0
C2211 C 0.63008 0.14358 1.00369 0.0
C2212 C 0.65854 0.13908 0.98643 0.0
C2213 C 0.64497 0.12834 0.96457 0.0
C2214 C 0.67747 0.15722 0.97907 0.0
C2215 C 0.68069 0.12642 1.00178 0.0
C2216 C 0.66716 0.1243 0.02432 0.0
C2217 C 0.6839 0.11377 0.04185 0.0
C2218 C 0.71494 0.105 0.03606 0.0
C2219 C 0.7285 0.10646 0.01284 0.0
C2220 C 0.71113 0.11738 0.99558 0.0
H2221 H 0.2025 0.59814 0.98554 0.0
H2222 H 0.23369 0.60793 0.05839 0.0
H2223 H 0.18198 0.62746 0.06507 0.0
H2224 H 0.17111 0.64541 0.97546 0.0
H2225 H 0.13682 0.63774 0.95651 0.0
H2226 H 0.17531 0.62399 0.95817 0.0
H2227 H 0.1404 0.59428 0.9699 0.0
H2228 H 0.10181 0.60796 0.96838 0.0
H2229 H 0.1125 0.59536 0.99528 0.0
H2230 H 0.12469 0.64494 0.06374 0.0
H2231 H 0.07134 0.6619 0.05314 0.0
H2232 H 0.08099 0.6424 0.98044 0.0
C2233 C 0.19825 0.60431 1.00293 0.0
C2234 C 0.22173 0.6014 0.02158 0.0
C2235 C 0.21586 0.61003 0.04394 0.0
C2236 C 0.18654 0.62103 0.04788 0.0
C2237 C 0.16369 0.62352 0.02911 0.0
C2238 C 0.1696 0.61564 1.00696 0.0
C2239 C 0.14225 0.62121 0.98934 0.0
C2240 C 0.15728 0.63278 0.96865 0.0
C2241 C 0.12311 0.60366 0.98019 0.0
C2242 C 0.11981 0.63338 1.005 0.0
C2243 C 0.13221 0.63435 0.02799 0.0
C2244 C 0.115 0.64439 0.04572 0.0
C2245 C 0.08472 0.65389 0.03965 0.0
C2246 C 0.07242 0.65357 0.01599 0.0
C2247 C 0.09017 0.64307 0.99859 0.0
H2248 H 0.45755 0.90662 0.73133 0.0
H2249 H 0.47829 0.90975 0.80693 0.0
H2250 H 0.42652 0.89078 0.81506 0.0
H2251 H 0.36679 0.90983 0.73435 0.0
H2252 H 0.35975 0.89301 0.7107 0.0
H2253 H 0.39795 0.90702 0.71113 0.0
H2254 H 0.43426 0.87637 0.70958 0.0
H2255 H 0.39617 0.86226 0.7091 0.0
H2256 H 0.42787 0.85819 0.73169 0.0
H2257 H 0.37006 0.87257 0.81461 0.0
H2258 H 0.31779 0.85427 0.80541 0.0
H2259 H 0.33667 0.86162 0.73006 0.0
C2260 C 0.45107 0.90339 0.7496 0.0
C2261 C 0.47175 0.90981 0.76855 0.0
C2262 C 0.46282 0.90495 0.79219 0.0
C2263 C 0.4334 0.89426 0.79694 0.0
C2264 C 0.41341 0.88826 0.77782 0.0
C2265 C 0.42221 0.89246 0.7546 0.0
C2266 C 0.39725 0.88384 0.73713 0.0
C2267 C 0.37938 0.89935 0.72247 0.0
C2268 C 0.41495 0.8693 0.72092 0.0
C2269 C 0.3728 0.87425 0.7541 0.0
C2270 C 0.38225 0.87711 0.77753 0.0
C2271 C 0.3627 0.87011 0.79631 0.0
C2272 C 0.33301 0.8598 0.79097 0.0
C2273 C 0.32343 0.85632 0.76707 0.0
C2274 C 0.34369 0.86373 0.7485 0.0
H2275 H 0.86019 0.34484 0.75438 0.0
H2276 H 0.79061 0.38101 0.79367 0.0
H2277 H 0.83602 0.40456 0.79882 0.0
H2278 H 0.93449 0.35501 0.7907 0.0
H2279 H 0.96335 0.35462 0.76583 0.0
H2280 H 0.92538 0.34039 0.76516 0.0
H2281 H 0.90751 0.35626 0.7255 0.0
H2282 H 0.9454 0.37052 0.72604 0.0
H2283 H 0.90437 0.38175 0.72391 0.0
H2284 H 0.88845 0.42478 0.79891 0.0
H2285 H 0.94451 0.43995 0.79441 0.0
H2286 H 0.98133 0.39054 0.75636 0.0
C2287 C 0.85441 0.35758 0.76429 0.0
C2288 C 0.82133 0.36093 0.77346 0.0
C2289 C 0.81525 0.37805 0.78607 0.0
C2290 C 0.84107 0.39153 0.78926 0.0
C2291 C 0.87314 0.38778 0.77993 0.0
C2292 C 0.87999 0.37119 0.76779 0.0
C2293 C 0.91669 0.37075 0.75941 0.0
C2294 C 0.93612 0.35421 0.77097 0.0
C2295 C 0.91859 0.36977 0.7321 0.0
C2296 C 0.92931 0.38975 0.76861 0.0
C2297 C 0.90368 0.39933 0.78036 0.0
C2298 C 0.90872 0.41737 0.78983 0.0
C2299 C 0.94064 0.42592 0.78708 0.0
C2300 C 0.96739 0.41647 0.77506 0.0
C2301 C 0.96159 0.39803 0.76592 0.0
H2302 H 0.31198 0.3837 0.49191 0.0
H2303 H 0.33415 0.42089 0.55135 0.0
H2304 H 0.38968 0.40531 0.55672 0.0
H2305 H 0.35435 0.3412 0.51595 0.0
H2306 H 0.37082 0.33389 0.48747 0.0
H2307 H 0.33166 0.34709 0.48906 0.0
H2308 H 0.35636 0.37233 0.46045 0.0
H2309 H 0.39559 0.35924 0.45881 0.0
H2310 H 0.3959 0.38378 0.46783 0.0
H2311 H 0.4434 0.38679 0.55506 0.0
H2312 H 0.49276 0.36662 0.54618 0.0
H2313 H 0.438 0.34144 0.487 0.0
C2314 C 0.32839 0.3883 0.50625 0.0
C2315 C 0.31871 0.40355 0.52123 0.0
C2316 C 0.34112 0.4094 0.53955 0.0
C2317 C 0.37267 0.40056 0.54282 0.0
C2318 C 0.38174 0.38585 0.52757 0.0
C2319 C 0.36038 0.37971 0.50962 0.0
C2320 C 0.37732 0.36412 0.49511 0.0
C2321 C 0.35734 0.34547 0.49702 0.0
C2322 C 0.38154 0.37024 0.469 0.0
C2323 C 0.41152 0.36263 0.50763 0.0
C2324 C 0.4133 0.37524 0.52638 0.0
C2325 C 0.44232 0.37685 0.54041 0.0
C2326 C 0.47042 0.36538 0.53508 0.0
C2327 C 0.46966 0.35244 0.51577 0.0
C2328 C 0.43949 0.351 0.50202 0.0
H2329 H 0.98518 0.87421 0.49306 0.0
H2330 H 0.94896 0.82243 0.52614 0.0
H2331 H 0.89201 0.83649 0.53016 0.0
H2332 H 0.93504 0.9069 0.52944 0.0
H2333 H 0.92673 0.92294 0.50514 0.0
H2334 H 0.96519 0.90908 0.50548 0.0
H2335 H 0.95026 0.89548 0.46396 0.0
H2336 H 0.91173 0.90926 0.46352 0.0
H2337 H 0.90995 0.88391 0.45955 0.0
H2338 H 0.8384 0.85563 0.52959 0.0
H2339 H 0.79179 0.87833 0.52427 0.0
H2340 H 0.86219 0.91843 0.49241 0.0
C2341 C 0.96537 0.86593 0.5014 0.0
C2342 C 0.97169 0.84711 0.50916 0.0
C2343 C 0.94482 0.83671 0.5197 0.0
C2344 C 0.91234 0.84464 0.52223 0.0
C2345 C 0.90687 0.86307 0.51417 0.0
C2346 C 0.93259 0.87363 0.50401 0.0
C2347 C 0.9195 0.89297 0.49629 0.0
C2348 C 0.9377 0.90892 0.50991 0.0
C2349 C 0.92307 0.89555 0.46922 0.0
C2350 C 0.88242 0.89153 0.50358 0.0
C2351 C 0.87579 0.87418 0.51393 0.0
C2352 C 0.84335 0.86933 0.52165 0.0
C2353 C 0.8169 0.88249 0.51862 0.0
C2354 C 0.82276 0.90044 0.50791 0.0
C2355 C 0.85631 0.90492 0.5005 0.0
H2356 H 0.6018 0.1003 0.23634 0.0
H2357 H 0.5399 0.13126 0.28711 0.0
H2358 H 0.58695 0.15355 0.2939 0.0
H2359 H 0.68194 0.10552 0.26834 0.0
H2360 H 0.70682 0.10845 0.24169 0.0
H2361 H 0.66848 0.09454 0.24094 0.0
H2362 H 0.64524 0.11551 0.20675 0.0
H2363 H 0.68348 0.12948 0.20741 0.0
H2364 H 0.64274 0.14084 0.21078 0.0
H2365 H 0.63982 0.17293 0.29486 0.0
H2366 H 0.69542 0.1883 0.28995 0.0
H2367 H 0.7246 0.14517 0.23877 0.0
C2368 C 0.59824 0.11164 0.24907 0.0
C2369 C 0.56681 0.114 0.26108 0.0
C2370 C 0.56329 0.12924 0.27737 0.0
C2371 C 0.59004 0.14194 0.28149 0.0
C2372 C 0.62042 0.1393 0.26926 0.0
C2373 C 0.62479 0.12454 0.2534 0.0
C2374 C 0.66002 0.12523 0.24232 0.0
C2375 C 0.68052 0.10737 0.24871 0.0
C2376 C 0.65772 0.12793 0.21521 0.0
C2377 C 0.67462 0.14274 0.25437 0.0
C2378 C 0.65124 0.15057 0.26985 0.0
C2379 C 0.65832 0.16694 0.28277 0.0
C2380 C 0.68999 0.17566 0.27972 0.0
C2381 C 0.71449 0.16809 0.26385 0.0
C2382 C 0.70664 0.15125 0.25118 0.0
H2383 H 0.10403 0.59882 0.23832 0.0
H2384 H 0.04164 0.62956 0.28901 0.0
H2385 H 0.08855 0.65186 0.29611 0.0
H2386 H 0.18397 0.60408 0.27071 0.0
H2387 H 0.20905 0.60712 0.24417 0.0
H2388 H 0.1708 0.59313 0.24322 0.0
H2389 H 0.14771 0.61413 0.20901 0.0
H2390 H 0.18586 0.62819 0.20987 0.0
H2391 H 0.14501 0.63945 0.21312 0.0
H2392 H 0.14112 0.67128 0.29735 0.0
H2393 H 0.19654 0.68683 0.29269 0.0
H2394 H 0.22663 0.64397 0.24142 0.0
C2395 C 0.10035 0.61011 0.2511 0.0
C2396 C 0.06883 0.61243 0.26299 0.0
C2397 C 0.06512 0.62759 0.27936 0.0
C2398 C 0.09178 0.64029 0.28366 0.0
C2399 C 0.12226 0.63772 0.27153 0.0
C2400 C 0.12683 0.62302 0.25561 0.0
C2401 C 0.16214 0.62381 0.24467 0.0
C2402 C 0.18271 0.60597 0.25108 0.0
C2403 C 0.16004 0.62656 0.21756 0.0
C2404 C 0.17652 0.64131 0.25685 0.0
C2405 C 0.15297 0.64903 0.27229 0.0
C2406 C 0.15977 0.66538 0.2853 0.0
C2407 C 0.19133 0.6742 0.28239 0.0
C2408 C 0.216 0.66677 0.26654 0.0
C2409 C 0.20848 0.64993 0.25379 0.0
H2410 H 0.69122 0.59533 0.53595 0.0
H2411 H 0.75464 0.6232 0.48335 0.0
H2412 H 0.70939 0.64655 0.47601 0.0
H2413 H 0.61102 0.6019 0.50414 0.0
H2414 H 0.58685 0.60613 0.53085 0.0
H2415 H 0.62399 0.59119 0.53184 0.0
H2416 H 0.6495 0.61226 0.56508 0.0
H2417 H 0.61249 0.62727 0.56417 0.0
H2418 H 0.65408 0.63739 0.56009 0.0
H2419 H 0.65849 0.66756 0.47503 0.0
H2420 H 0.60448 0.68474 0.48009 0.0
H2421 H 0.57229 0.64341 0.53261 0.0
C2422 C 0.69548 0.60619 0.52269 0.0
C2423 C 0.72687 0.6074 0.51038 0.0
C2424 C 0.7313 0.62206 0.49337 0.0
C2425 C 0.70556 0.63536 0.48892 0.0
C2426 C 0.67524 0.63387 0.50149 0.0
C2427 C 0.66992 0.61965 0.51796 0.0
C2428 C 0.63499 0.62157 0.52926 0.0
C2429 C 0.61291 0.60416 0.52368 0.0
C2430 C 0.63796 0.62482 0.55625 0.0
C2431 C 0.6217 0.63917 0.51667 0.0
C2432 C 0.64544 0.64598 0.50073 0.0
C2433 C 0.63967 0.66233 0.48741 0.0
C2434 C 0.60894 0.67207 0.49052 0.0
C2435 C 0.58411 0.6655 0.5068 0.0
C2436 C 0.59058 0.64868 0.51986 0.0
H2437 H 0.08167 0.14572 0.47982 0.0
H2438 H 0.07106 0.16204 0.55371 0.0
H2439 H 0.12331 0.14392 0.56369 0.0
H2440 H 0.11021 0.09762 0.49199 0.0
H2441 H 0.13876 0.097 0.46695 0.0
H2442 H 0.10113 0.11153 0.46581 0.0
H2443 H 0.13802 0.14099 0.4564 0.0
H2444 H 0.17575 0.12657 0.45758 0.0
H2445 H 0.17222 0.14729 0.47622 0.0
H2446 H 0.17942 0.12574 0.56469 0.0
H2447 H 0.23058 0.1059 0.55764 0.0
H2448 H 0.20133 0.09903 0.48389 0.0
C2449 C 0.09046 0.14546 0.49808 0.0
C2450 C 0.07264 0.1554 0.51602 0.0
C2451 C 0.08443 0.1545 0.53979 0.0
C2452 C 0.1141 0.14432 0.54554 0.0
C2453 C 0.13127 0.13478 0.52739 0.0
C2454 C 0.1195 0.13499 0.5042 0.0
C2455 C 0.14185 0.12302 0.48813 0.0
C2456 C 0.12178 0.1063 0.4776 0.0
C2457 C 0.15791 0.1352 0.46842 0.0
C2458 C 0.16835 0.11623 0.50578 0.0
C2459 C 0.1621 0.12337 0.52828 0.0
C2460 C 0.18421 0.11986 0.54722 0.0
C2461 C 0.21321 0.10867 0.54309 0.0
C2462 C 0.2195 0.10079 0.52036 0.0
C2463 C 0.19668 0.10461 0.50153 0.0
loop_
_geom_bond_atom_site_label_1
_geom_bond_atom_site_label_2
_geom_bond_distance
_geom_bond_site_symmetry_2
_ccdc_geom_bond_type
Cu0 N1 1.999 . S
Cu0 O6 1.974 . S
Cu0 N11 1.985 . S
Cu0 O20 1.959 . S
N1 Cu0 1.999 . S
N1 C3 1.263 . S
N1 C5 1.389 . S
N2 C3 1.358 . S
N2 C4 1.400 . S
C3 N1 1.263 . S
C3 N2 1.358 . S
C3 H9 0.930 . S
C4 N2 1.400 . S
C4 C5 1.351 . S
C4 H21 0.930 . S
C5 N1 1.389 . S
C5 C4 1.351 . S
C5 H10 0.930 . S
O6 Cu0 1.974 . S
O6 C16 1.282 . S
C7 O8 1.261 . S
C7 O20 1.251 . S
O8 C7 1.261 . S
H9 C3 0.930 . S
H10 C5 0.930 . S
N11 Cu0 1.985 . S
N11 C13 1.335 . S
N11 C14 1.390 . S
N12 C13 1.345 . S
N12 C15 1.336 . S
C13 N11 1.335 . S
C13 N12 1.345 . S
C13 H18 0.930 . S
C14 N11 1.390 . S
C14 C15 1.346 . S
C14 H19 0.930 . S
C15 N12 1.336 . S
C15 C14 1.346 . S
C15 H22 0.929 . S
C16 O6 1.282 . S
C16 O17 1.216 . S
O17 C16 1.216 . S
H18 C13 0.930 . S
H19 C14 0.930 . S
O20 Cu0 1.959 . S
O20 C7 1.251 . S
H21 C4 0.930 . S
H22 C15 0.929 . S
Cu23 N24 1.999 . S
Cu23 O29 1.974 . S
Cu23 N34 1.985 . S
Cu23 O43 1.959 . S
N24 Cu23 1.999 . S
N24 C26 1.263 . S
N24 C28 1.389 . S
N25 C26 1.358 1_655 S
N25 C27 1.400 . S
C26 N24 1.263 . S
C26 N25 1.358 1_455 S
C26 H32 0.930 . S
C27 N25 1.400 . S
C27 C28 1.351 1_655 S
C27 H44 0.930 . S
C28 N24 1.389 . S
C28 C27 1.351 1_455 S
C28 H33 0.930 . S
O29 Cu23 1.974 . S
O29 C39 1.282 . S
C30 O31 1.261 . S
C30 O43 1.251 . S
O31 C30 1.261 . S
H32 C26 0.930 . S
H33 C28 0.930 . S
N34 Cu23 1.985 . S
N34 C36 1.335 . S
N34 C37 1.390 . S
N35 C36 1.345 . S
N35 C38 1.336 . S
C36 N34 1.335 . S
C36 N35 1.345 . S
C36 H41 0.930 . S
C37 N34 1.390 . S
C37 C38 1.346 . S
C37 H42 0.930 . S
C38 N35 1.336 . S
C38 C37 1.346 . S
C38 H45 0.929 . S
C39 O29 1.282 . S
C39 O40 1.216 . S
O40 C39 1.216 . S
H41 C36 0.930 . S
H42 C37 0.930 . S
O43 Cu23 1.959 . S
O43 C30 1.251 . S
H44 C27 0.930 . S
H45 C38 0.929 . S
Cu46 N47 1.991 1_556 S
Cu46 O52 1.974 . S
Cu46 N57 1.985 . S
Cu46 O66 1.959 1_556 S
N47 Cu46 1.991 1_554 S
N47 C49 1.241 1_554 S
N47 C51 1.424 . S
N48 C49 1.358 . S
N48 C50 1.400 1_556 S
C49 N47 1.241 1_556 S
C49 N48 1.358 . S
C49 H55 0.930 . S
C50 N48 1.400 1_554 S
C50 C51 1.351 . S
C50 H67 0.930 . S
C51 N47 1.424 . S
C51 C50 1.351 . S
C51 H56 0.930 . S
O52 Cu46 1.974 . S
O52 C62 1.282 . S
C53 O54 1.261 . S
C53 O66 1.251 . S
O54 C53 1.261 . S
H55 C49 0.930 . S
H56 C51 0.930 . S
N57 Cu46 1.985 . S
N57 C59 1.335 1_556 S
N57 C60 1.390 . S
N58 C59 1.345 1_556 S
N58 C61 1.336 . S
C59 N57 1.335 1_554 S
C59 N58 1.345 1_554 S
C59 H64 0.930 . S
C60 N57 1.390 . S
C60 C61 1.346 . S
C60 H65 0.930 . S
C61 N58 1.336 . S
C61 C60 1.346 . S
C61 H68 0.929 . S
C62 O52 1.282 . S
C62 O63 1.216 . S
O63 C62 1.216 . S
H64 C59 0.930 . S
H65 C60 0.930 . S
O66 Cu46 1.959 1_554 S
O66 C53 1.251 . S
H67 C50 0.930 . S
H68 C61 0.929 . S
Cu69 N70 1.991 1_556 S
Cu69 O75 1.974 . S
Cu69 N80 1.985 . S
Cu69 O89 1.959 1_556 S
N70 Cu69 1.991 1_554 S
N70 C72 1.241 1_554 S
N70 C74 1.423 . S
N71 C72 1.358 1_655 S
N71 C73 1.400 1_556 S
C72 N70 1.241 1_556 S
C72 N71 1.358 1_455 S
C72 H78 0.930 . S
C73 N71 1.400 1_554 S
C73 C74 1.351 1_655 S
C73 H90 0.930 . S
C74 N70 1.423 . S
C74 C73 1.351 1_455 S
C74 H79 0.930 . S
O75 Cu69 1.974 . S
O75 C85 1.282 . S
C76 O77 1.261 . S
C76 O89 1.251 . S
O77 C76 1.261 . S
H78 C72 0.930 . S
H79 C74 0.930 . S
N80 Cu69 1.985 . S
N80 C82 1.335 1_556 S
N80 C83 1.390 . S
N81 C82 1.345 1_556 S
N81 C84 1.336 . S
C82 N80 1.335 1_554 S
C82 N81 1.345 1_554 S
C82 H87 0.930 . S
C83 N80 1.390 . S
C83 C84 1.346 . S
C83 H88 0.930 . S
C84 N81 1.336 . S
C84 C83 1.346 . S
C84 H91 0.929 . S
C85 O75 1.282 . S
C85 O86 1.216 . S
O86 C85 1.216 . S
H87 C82 0.930 . S
H88 C83 0.930 . S
O89 Cu69 1.959 1_554 S
O89 C76 1.251 . S
H90 C73 0.930 . S
H91 C84 0.929 . S
Cu92 N93 1.999 . S
Cu92 O98 1.974 . S
Cu92 N103 1.985 . S
Cu92 O112 1.959 . S
N93 Cu92 1.999 . S
N93 C95 1.263 . S
N93 C97 1.389 . S
N94 C95 1.358 . S
N94 C96 1.400 . S
C95 N93 1.263 . S
C95 N94 1.358 . S
C95 H101 0.930 . S
C96 N94 1.400 . S
C96 C97 1.351 . S
C96 H113 0.930 . S
C97 N93 1.389 . S
C97 C96 1.351 . S
C97 H102 0.930 . S
O98 Cu92 1.974 . S
O98 C108 1.282 . S
C99 O100 1.261 . S
C99 O112 1.251 . S
O100 C99 1.261 . S
H101 C95 0.930 . S
H102 C97 0.930 . S
N103 Cu92 1.985 . S
N103 C105 1.335 . S
N103 C106 1.390 . S
N104 C105 1.345 . S
N104 C107 1.336 . S
C105 N103 1.335 . S
C105 N104 1.345 . S
C105 H110 0.930 . S
C106 N103 1.390 . S
C106 C107 1.346 . S
C106 H111 0.930 . S
C107 N104 1.336 . S
C107 C106 1.346 . S
C107 H114 0.929 . S
C108 O98 1.282 . S
C108 O109 1.216 . S
O109 C108 1.216 . S
H110 C105 0.930 . S
H111 C106 0.930 . S
O112 Cu92 1.959 . S
O112 C99 1.251 . S
H113 C96 0.930 . S
H114 C107 0.929 . S
Cu115 N116 1.999 . S
Cu115 O121 1.974 . S
Cu115 N126 1.985 . S
Cu115 O135 1.959 . S
N116 Cu115 1.999 . S
N116 C118 1.263 . S
N116 C120 1.389 . S
N117 C118 1.358 1_455 S
N117 C119 1.400 . S
C118 N116 1.263 . S
C118 N117 1.358 1_655 S
C118 H124 0.930 . S
C119 N117 1.400 . S
C119 C120 1.351 1_455 S
C119 H136 0.930 . S
C120 N116 1.389 . S
C120 C119 1.351 1_655 S
C120 H125 0.930 . S
O121 Cu115 1.974 . S
O121 C131 1.282 . S
C122 O123 1.261 . S
C122 O135 1.251 . S
O123 C122 1.261 . S
H124 C118 0.930 . S
H125 C120 0.930 . S
N126 Cu115 1.985 . S
N126 C128 1.335 . S
N126 C129 1.390 . S
N127 C128 1.345 . S
N127 C130 1.336 . S
C128 N126 1.335 . S
C128 N127 1.345 . S
C128 H133 0.930 . S
C129 N126 1.390 . S
C129 C130 1.346 . S
C129 H134 0.930 . S
C130 N127 1.336 . S
C130 C129 1.346 . S
C130 H137 0.929 . S
C131 O121 1.282 . S
C131 O132 1.216 . S
O132 C131 1.216 . S
H133 C128 0.930 . S
H134 C129 0.930 . S
O135 Cu115 1.959 . S
O135 C122 1.251 . S
H136 C119 0.930 . S
H137 C130 0.929 . S
Cu138 N139 1.991 1_554 S
Cu138 O144 1.974 . S
Cu138 N149 1.985 . S
Cu138 O158 1.959 1_554 S
N139 Cu138 1.991 1_556 S
N139 C141 1.241 1_556 S
N139 C143 1.424 . S
N140 C141 1.358 . S
N140 C142 1.400 1_554 S
C141 N139 1.241 1_554 S
C141 N140 1.358 . S
C141 H147 0.930 . S
C142 N140 1.400 1_556 S
C142 C143 1.351 . S
C142 H159 0.930 . S
C143 N139 1.424 . S
C143 C142 1.351 . S
C143 H148 0.930 . S
O144 Cu138 1.974 . S
O144 C154 1.282 . S
C145 O146 1.261 . S
C145 O158 1.251 . S
O146 C145 1.261 . S
H147 C141 0.930 . S
H148 C143 0.930 . S
N149 Cu138 1.985 . S
N149 C151 1.335 1_554 S
N149 C152 1.390 . S
N150 C151 1.345 1_554 S
N150 C153 1.336 . S
C151 N149 1.335 1_556 S
C151 N150 1.345 1_556 S
C151 H156 0.930 . S
C152 N149 1.390 . S
C152 C153 1.346 . S
C152 H157 0.930 . S
C153 N150 1.336 . S
C153 C152 1.346 . S
C153 H160 0.929 . S
C154 O144 1.282 . S
C154 O155 1.216 . S
O155 C154 1.216 . S
H156 C151 0.930 . S
H157 C152 0.930 . S
O158 Cu138 1.959 1_556 S
O158 C145 1.251 . S
H159 C142 0.930 . S
H160 C153 0.929 . S
Cu161 N162 1.991 1_554 S
Cu161 O167 1.974 . S
Cu161 N172 1.985 . S
Cu161 O181 1.959 1_554 S
N162 Cu161 1.991 1_556 S
N162 C164 1.241 1_556 S
N162 C166 1.423 . S
N163 C164 1.358 1_455 S
N163 C165 1.400 1_554 S
C164 N162 1.241 1_554 S
C164 N163 1.358 1_655 S
C164 H170 0.930 . S
C165 N163 1.400 1_556 S
C165 C166 1.351 1_455 S
C165 H182 0.930 . S
C166 N162 1.423 . S
C166 C165 1.351 1_655 S
C166 H171 0.930 . S
O167 Cu161 1.974 . S
O167 C177 1.282 . S
C168 O169 1.261 . S
C168 O181 1.251 . S
O169 C168 1.261 . S
H170 C164 0.930 . S
H171 C166 0.930 . S
N172 Cu161 1.985 . S
N172 C174 1.335 1_554 S
N172 C175 1.390 . S
N173 C174 1.345 1_554 S
N173 C176 1.336 . S
C174 N172 1.335 1_556 S
C174 N173 1.345 1_556 S
C174 H179 0.930 . S
C175 N172 1.390 . S
C175 C176 1.346 . S
C175 H180 0.930 . S
C176 N173 1.336 . S
C176 C175 1.346 . S
C176 H183 0.929 . S
C177 O167 1.282 . S
C177 O178 1.216 . S
O178 C177 1.216 . S
H179 C174 0.930 . S
H180 C175 0.930 . S
O181 Cu161 1.959 1_556 S
O181 C168 1.251 . S
H182 C165 0.930 . S
H183 C176 0.929 . S
Cu184 N185 1.999 . S
Cu184 O190 1.974 . S
Cu184 N195 1.985 . S
Cu184 O204 1.959 . S
N185 Cu184 1.999 . S
N185 C187 1.263 . S
N185 C189 1.389 . S
N186 C187 1.358 . S
N186 C188 1.400 . S
C187 N185 1.263 . S
C187 N186 1.358 . S
C187 H193 0.930 . S
C188 N186 1.400 . S
C188 C189 1.351 . S
C188 H205 0.930 . S
C189 N185 1.389 . S
C189 C188 1.351 . S
C189 H194 0.930 . S
O190 Cu184 1.974 . S
O190 C200 1.282 . S
C191 O192 1.261 . S
C191 O204 1.251 . S
O192 C191 1.261 . S
H193 C187 0.930 . S
H194 C189 0.930 . S
N195 Cu184 1.985 . S
N195 C197 1.335 . S
N195 C198 1.390 . S
N196 C197 1.345 . S
N196 C199 1.336 . S
C197 N195 1.335 . S
C197 N196 1.345 . S
C197 H202 0.930 . S
C198 N195 1.390 . S
C198 C199 1.346 . S
C198 H203 0.930 . S
C199 N196 1.336 . S
C199 C198 1.346 . S
C199 H206 0.929 . S
C200 O190 1.282 . S
C200 O201 1.216 . S
O201 C200 1.216 . S
H202 C197 0.930 . S
H203 C198 0.930 . S
O204 Cu184 1.959 . S
O204 C191 1.251 . S
H205 C188 0.930 . S
H206 C199 0.929 . S
Cu207 N208 1.999 . S
Cu207 O213 1.974 . S
Cu207 N218 1.985 . S
Cu207 O227 1.959 . S
N208 Cu207 1.999 . S
N208 C210 1.263 . S
N208 C212 1.389 . S
N209 C210 1.358 1_655 S
N209 C211 1.400 . S
C210 N208 1.263 . S
C210 N209 1.358 1_455 S
C210 H216 0.930 . S
C211 N209 1.400 . S
C211 C212 1.351 1_655 S
C211 H228 0.930 . S
C212 N208 1.389 . S
C212 C211 1.351 1_455 S
C212 H217 0.930 . S
O213 Cu207 1.974 . S
O213 C223 1.282 . S
C214 O215 1.261 . S
C214 O227 1.251 . S
O215 C214 1.261 . S
H216 C210 0.930 . S
H217 C212 0.930 . S
N218 Cu207 1.985 . S
N218 C220 1.335 . S
N218 C221 1.390 . S
N219 C220 1.345 . S
N219 C222 1.336 . S
C220 N218 1.335 . S
C220 N219 1.345 . S
C220 H225 0.930 . S
C221 N218 1.390 . S
C221 C222 1.346 . S
C221 H226 0.930 . S
C222 N219 1.336 . S
C222 C221 1.346 . S
C222 H229 0.929 . S
C223 O213 1.282 . S
C223 O224 1.216 . S
O224 C223 1.216 . S
H225 C220 0.930 . S
H226 C221 0.930 . S
O227 Cu207 1.959 . S
O227 C214 1.251 . S
H228 C211 0.930 . S
H229 C222 0.929 . S
Cu230 N231 1.999 . S
Cu230 O236 1.974 . S
Cu230 N241 1.985 . S
Cu230 O250 1.959 . S
N231 Cu230 1.999 . S
N231 C233 1.263 . S
N231 C235 1.389 . S
N232 C233 1.358 . S
N232 C234 1.400 . S
C233 N231 1.263 . S
C233 N232 1.358 . S
C233 H239 0.930 . S
C234 N232 1.400 . S
C234 C235 1.351 . S
C234 H251 0.930 . S
C235 N231 1.389 . S
C235 C234 1.351 . S
C235 H240 0.930 . S
O236 Cu230 1.974 . S
O236 C246 1.282 . S
C237 O238 1.261 . S
C237 O250 1.251 . S
O238 C237 1.261 . S
H239 C233 0.930 . S
H240 C235 0.930 . S
N241 Cu230 1.985 . S
N241 C243 1.335 . S
N241 C244 1.390 . S
N242 C243 1.345 . S
N242 C245 1.336 . S
C243 N241 1.335 . S
C243 N242 1.345 . S
C243 H248 0.930 . S
C244 N241 1.390 . S
C244 C245 1.346 . S
C244 H249 0.930 . S
C245 N242 1.336 . S
C245 C244 1.346 . S
C245 H252 0.929 . S
C246 O236 1.282 . S
C246 O247 1.216 . S
O247 C246 1.216 . S
H248 C243 0.930 . S
H249 C244 0.930 . S
O250 Cu230 1.959 . S
O250 C237 1.251 . S
H251 C234 0.930 . S
H252 C245 0.929 . S
Cu253 N254 1.999 . S
Cu253 O259 1.974 . S
Cu253 N264 1.985 . S
Cu253 O273 1.959 . S
N254 Cu253 1.999 . S
N254 C256 1.263 . S
N254 C258 1.389 . S
N255 C256 1.358 1_655 S
N255 C257 1.400 . S
C256 N254 1.263 . S
C256 N255 1.358 1_455 S
C256 H262 0.930 . S
C257 N255 1.400 . S
C257 C258 1.351 1_655 S
C257 H274 0.930 . S
C258 N254 1.389 . S
C258 C257 1.351 1_455 S
C258 H263 0.930 . S
O259 Cu253 1.974 . S
O259 C269 1.282 . S
C260 O261 1.261 . S
C260 O273 1.251 . S
O261 C260 1.261 . S
H262 C256 0.930 . S
H263 C258 0.930 . S
N264 Cu253 1.985 . S
N264 C266 1.335 . S
N264 C267 1.390 . S
N265 C266 1.345 . S
N265 C268 1.336 . S
C266 N264 1.335 . S
C266 N265 1.345 . S
C266 H271 0.930 . S
C267 N264 1.390 . S
C267 C268 1.346 . S
C267 H272 0.930 . S
C268 N265 1.336 . S
C268 C267 1.346 . S
C268 H275 0.929 . S
C269 O259 1.282 . S
C269 O270 1.216 . S
O270 C269 1.216 . S
H271 C266 0.930 . S
H272 C267 0.930 . S
O273 Cu253 1.959 . S
O273 C260 1.251 . S
H274 C257 0.930 . S
H275 C268 0.929 . S
Cu276 N277 1.999 . S
Cu276 O282 1.974 . S
Cu276 N287 1.985 . S
Cu276 O296 1.959 . S
N277 Cu276 1.999 . S
N277 C279 1.263 . S
N277 C281 1.389 . S
N278 C279 1.358 . S
N278 C280 1.400 . S
C279 N277 1.263 . S
C279 N278 1.358 . S
C279 H285 0.930 . S
C280 N278 1.400 . S
C280 C281 1.351 . S
C280 H297 0.930 . S
C281 N277 1.389 . S
C281 C280 1.351 . S
C281 H286 0.930 . S
O282 Cu276 1.974 . S
O282 C292 1.282 . S
C283 O284 1.261 . S
C283 O296 1.251 . S
O284 C283 1.261 . S
H285 C279 0.930 . S
H286 C281 0.930 . S
N287 Cu276 1.985 . S
N287 C289 1.335 . S
N287 C290 1.390 . S
N288 C289 1.345 . S
N288 C291 1.336 . S
C289 N287 1.335 . S
C289 N288 1.345 . S
C289 H294 0.930 . S
C290 N287 1.390 . S
C290 C291 1.346 . S
C290 H295 0.930 . S
C291 N288 1.336 . S
C291 C290 1.346 . S
C291 H298 0.929 . S
C292 O282 1.282 . S
C292 O293 1.216 . S
O293 C292 1.216 . S
H294 C289 0.930 . S
H295 C290 0.930 . S
O296 Cu276 1.959 . S
O296 C283 1.251 . S
H297 C280 0.930 . S
H298 C291 0.929 . S
Cu299 N300 1.999 . S
Cu299 O305 1.974 . S
Cu299 N310 1.985 . S
Cu299 O319 1.959 . S
N300 Cu299 1.999 . S
N300 C302 1.263 . S
N300 C304 1.389 . S
N301 C302 1.358 1_455 S
N301 C303 1.400 . S
C302 N300 1.263 . S
C302 N301 1.358 1_655 S
C302 H308 0.930 . S
C303 N301 1.400 . S
C303 C304 1.351 1_455 S
C303 H320 0.930 . S
C304 N300 1.389 . S
C304 C303 1.351 1_655 S
C304 H309 0.930 . S
O305 Cu299 1.974 . S
O305 C315 1.282 . S
C306 O307 1.261 . S
C306 O319 1.251 . S
O307 C306 1.261 . S
H308 C302 0.930 . S
H309 C304 0.930 . S
N310 Cu299 1.985 . S
N310 C312 1.335 . S
N310 C313 1.390 . S
N311 C312 1.345 . S
N311 C314 1.336 . S
C312 N310 1.335 . S
C312 N311 1.345 . S
C312 H317 0.930 . S
C313 N310 1.390 . S
C313 C314 1.346 . S
C313 H318 0.930 . S
C314 N311 1.336 . S
C314 C313 1.346 . S
C314 H321 0.929 . S
C315 O305 1.282 . S
C315 O316 1.216 . S
O316 C315 1.216 . S
H317 C312 0.930 . S
H318 C313 0.930 . S
O319 Cu299 1.959 . S
O319 C306 1.251 . S
H320 C303 0.930 . S
H321 C314 0.929 . S
Cu322 N323 1.999 . S
Cu322 O328 1.974 . S
Cu322 N333 1.985 . S
Cu322 O342 1.959 . S
N323 Cu322 1.999 . S
N323 C325 1.263 . S
N323 C327 1.389 . S
N324 C325 1.358 . S
N324 C326 1.400 . S
C325 N323 1.263 . S
C325 N324 1.358 . S
C325 H331 0.930 . S
C326 N324 1.400 . S
C326 C327 1.351 . S
C326 H343 0.930 . S
C327 N323 1.389 . S
C327 C326 1.351 . S
C327 H332 0.930 . S
O328 Cu322 1.974 . S
O328 C338 1.282 . S
C329 O330 1.261 . S
C329 O342 1.251 . S
O330 C329 1.261 . S
H331 C325 0.930 . S
H332 C327 0.930 . S
N333 Cu322 1.985 . S
N333 C335 1.335 . S
N333 C336 1.390 . S
N334 C335 1.345 . S
N334 C337 1.336 . S
C335 N333 1.335 . S
C335 N334 1.345 . S
C335 H340 0.930 . S
C336 N333 1.390 . S
C336 C337 1.346 . S
C336 H341 0.930 . S
C337 N334 1.336 . S
C337 C336 1.346 . S
C337 H344 0.929 . S
C338 O328 1.282 . S
C338 O339 1.216 . S
O339 C338 1.216 . S
H340 C335 0.930 . S
H341 C336 0.930 . S
O342 Cu322 1.959 . S
O342 C329 1.251 . S
H343 C326 0.930 . S
H344 C337 0.929 . S
Cu345 N346 1.999 . S
Cu345 O351 1.974 . S
Cu345 N356 1.985 . S
Cu345 O365 1.959 . S
N346 Cu345 1.999 . S
N346 C348 1.263 . S
N346 C350 1.389 . S
N347 C348 1.358 1_455 S
N347 C349 1.400 . S
C348 N346 1.263 . S
C348 N347 1.358 1_655 S
C348 H354 0.930 . S
C349 N347 1.400 . S
C349 C350 1.351 1_455 S
C349 H366 0.930 . S
C350 N346 1.389 . S
C350 C349 1.351 1_655 S
C350 H355 0.930 . S
O351 Cu345 1.974 . S
O351 C361 1.282 . S
C352 O353 1.261 . S
C352 O365 1.251 . S
O353 C352 1.261 . S
H354 C348 0.930 . S
H355 C350 0.930 . S
N356 Cu345 1.985 . S
N356 C358 1.335 . S
N356 C359 1.390 . S
N357 C358 1.345 . S
N357 C360 1.336 . S
C358 N356 1.335 . S
C358 N357 1.345 . S
C358 H363 0.930 . S
C359 N356 1.390 . S
C359 C360 1.346 . S
C359 H364 0.930 . S
C360 N357 1.336 . S
C360 C359 1.346 . S
C360 H367 0.929 . S
C361 O351 1.282 . S
C361 O362 1.216 . S
O362 C361 1.216 . S
H363 C358 0.930 . S
H364 C359 0.930 . S
O365 Cu345 1.959 . S
O365 C352 1.251 . S
H366 C349 0.930 . S
H367 C360 0.929 . S
Cu368 N369 1.999 . S
Cu368 O374 1.974 . S
Cu368 N379 1.985 . S
Cu368 O388 1.959 . S
N369 Cu368 1.999 . S
N369 C371 1.263 . S
N369 C373 1.389 . S
N370 C371 1.358 . S
N370 C372 1.400 . S
C371 N369 1.263 . S
C371 N370 1.358 . S
C371 H377 0.930 . S
C372 N370 1.400 . S
C372 C373 1.351 . S
C372 H389 0.930 . S
C373 N369 1.389 . S
C373 C372 1.351 . S
C373 H378 0.930 . S
O374 Cu368 1.974 . S
O374 C384 1.282 . S
C375 O376 1.261 . S
C375 O388 1.251 . S
O376 C375 1.261 . S
H377 C371 0.930 . S
H378 C373 0.930 . S
N379 Cu368 1.985 . S
N379 C381 1.335 . S
N379 C382 1.390 . S
N380 C381 1.345 . S
N380 C383 1.336 . S
C381 N379 1.335 . S
C381 N380 1.345 . S
C381 H386 0.930 . S
C382 N379 1.390 . S
C382 C383 1.346 . S
C382 H387 0.930 . S
C383 N380 1.336 . S
C383 C382 1.346 . S
C383 H390 0.929 . S
C384 O374 1.282 . S
C384 O385 1.216 . S
O385 C384 1.216 . S
H386 C381 0.930 . S
H387 C382 0.930 . S
O388 Cu368 1.959 . S
O388 C375 1.251 . S
H389 C372 0.930 . S
H390 C383 0.929 . S
Cu391 N392 1.999 . S
Cu391 O397 1.974 . S
Cu391 N402 1.985 . S
Cu391 O411 1.959 . S
N392 Cu391 1.999 . S
N392 C394 1.263 . S
N392 C396 1.389 . S
N393 C394 1.358 . S
N393 C395 1.400 . S
C394 N392 1.263 . S
C394 N393 1.358 . S
C394 H400 0.930 . S
C395 N393 1.400 . S
C395 C396 1.351 . S
C395 H412 0.930 . S
C396 N392 1.389 . S
C396 C395 1.351 . S
C396 H401 0.930 . S
O397 Cu391 1.974 . S
O397 C407 1.282 . S
C398 O399 1.261 . S
C398 O411 1.251 . S
O399 C398 1.261 . S
H400 C394 0.930 . S
H401 C396 0.930 . S
N402 Cu391 1.985 . S
N402 C404 1.335 . S
N402 C405 1.390 . S
N403 C404 1.345 . S
N403 C406 1.336 . S
C404 N402 1.335 . S
C404 N403 1.345 . S
C404 H409 0.930 . S
C405 N402 1.390 . S
C405 C406 1.346 . S
C405 H410 0.930 . S
C406 N403 1.336 . S
C406 C405 1.346 . S
C406 H413 0.929 . S
C407 O397 1.282 . S
C407 O408 1.216 . S
O408 C407 1.216 . S
H409 C404 0.930 . S
H410 C405 0.930 . S
O411 Cu391 1.959 . S
O411 C398 1.251 . S
H412 C395 0.930 . S
H413 C406 0.929 . S
Cu414 N415 1.999 . S
Cu414 O420 1.974 . S
Cu414 N425 1.985 . S
Cu414 O434 1.959 . S
N415 Cu414 1.999 . S
N415 C417 1.263 . S
N415 C419 1.389 . S
N416 C417 1.358 . S
N416 C418 1.400 . S
C417 N415 1.263 . S
C417 N416 1.358 . S
C417 H423 0.930 . S
C418 N416 1.400 . S
C418 C419 1.351 . S
C418 H435 0.930 . S
C419 N415 1.389 . S
C419 C418 1.351 . S
C419 H424 0.930 . S
O420 Cu414 1.974 . S
O420 C430 1.282 . S
C421 O422 1.261 . S
C421 O434 1.251 . S
O422 C421 1.261 . S
H423 C417 0.930 . S
H424 C419 0.930 . S
N425 Cu414 1.985 . S
N425 C427 1.335 . S
N425 C428 1.390 . S
N426 C427 1.345 . S
N426 C429 1.336 . S
C427 N425 1.335 . S
C427 N426 1.345 . S
C427 H432 0.930 . S
C428 N425 1.390 . S
C428 C429 1.346 . S
C428 H433 0.930 . S
C429 N426 1.336 . S
C429 C428 1.346 . S
C429 H436 0.929 . S
C430 O420 1.282 . S
C430 O431 1.216 . S
O431 C430 1.216 . S
H432 C427 0.930 . S
H433 C428 0.930 . S
O434 Cu414 1.959 . S
O434 C421 1.251 . S
H435 C418 0.930 . S
H436 C429 0.929 . S
Cu437 N438 1.999 . S
Cu437 O443 1.974 . S
Cu437 N448 1.985 . S
Cu437 O457 1.959 . S
N438 Cu437 1.999 . S
N438 C440 1.263 . S
N438 C442 1.389 . S
N439 C440 1.358 . S
N439 C441 1.400 . S
C440 N438 1.263 . S
C440 N439 1.358 . S
C440 H446 0.930 . S
C441 N439 1.400 . S
C441 C442 1.351 . S
C441 H458 0.930 . S
C442 N438 1.389 . S
C442 C441 1.351 . S
C442 H447 0.930 . S
O443 Cu437 1.974 . S
O443 C453 1.282 . S
C444 O445 1.261 . S
C444 O457 1.251 . S
O445 C444 1.261 . S
H446 C440 0.930 . S
H447 C442 0.930 . S
N448 Cu437 1.985 . S
N448 C450 1.335 . S
N448 C451 1.390 . S
N449 C450 1.345 . S
N449 C452 1.336 . S
C450 N448 1.335 . S
C450 N449 1.345 . S
C450 H455 0.930 . S
C451 N448 1.390 . S
C451 C452 1.346 . S
C451 H456 0.930 . S
C452 N449 1.336 . S
C452 C451 1.346 . S
C452 H459 0.929 . S
C453 O443 1.282 . S
C453 O454 1.216 . S
O454 C453 1.216 . S
H455 C450 0.930 . S
H456 C451 0.930 . S
O457 Cu437 1.959 . S
O457 C444 1.251 . S
H458 C441 0.930 . S
H459 C452 0.929 . S
Cu460 N461 1.999 . S
Cu460 O466 1.974 . S
Cu460 N471 1.985 . S
Cu460 O480 1.959 . S
N461 Cu460 1.999 . S
N461 C463 1.263 . S
N461 C465 1.389 . S
N462 C463 1.358 . S
N462 C464 1.400 . S
C463 N461 1.263 . S
C463 N462 1.358 . S
C463 H469 0.930 . S
C464 N462 1.400 . S
C464 C465 1.351 . S
C464 H481 0.930 . S
C465 N461 1.389 . S
C465 C464 1.351 . S
C465 H470 0.930 . S
O466 Cu460 1.974 . S
O466 C476 1.282 . S
C467 O468 1.261 . S
C467 O480 1.251 . S
O468 C467 1.261 . S
H469 C463 0.930 . S
H470 C465 0.930 . S
N471 Cu460 1.985 . S
N471 C473 1.335 . S
N471 C474 1.390 . S
N472 C473 1.345 . S
N472 C475 1.336 . S
C473 N471 1.335 . S
C473 N472 1.345 . S
C473 H478 0.930 . S
C474 N471 1.390 . S
C474 C475 1.346 . S
C474 H479 0.930 . S
C475 N472 1.336 . S
C475 C474 1.346 . S
C475 H482 0.929 . S
C476 O466 1.282 . S
C476 O477 1.216 . S
O477 C476 1.216 . S
H478 C473 0.930 . S
H479 C474 0.930 . S
O480 Cu460 1.959 . S
O480 C467 1.251 . S
H481 C464 0.930 . S
H482 C475 0.929 . S
Cu483 N484 1.999 . S
Cu483 O489 1.974 . S
Cu483 N494 1.985 . S
Cu483 O503 1.959 . S
N484 Cu483 1.999 . S
N484 C486 1.263 . S
N484 C488 1.389 . S
N485 C486 1.358 . S
N485 C487 1.400 . S
C486 N484 1.263 . S
C486 N485 1.358 . S
C486 H492 0.930 . S
C487 N485 1.400 . S
C487 C488 1.351 . S
C487 H504 0.930 . S
C488 N484 1.389 . S
C488 C487 1.351 . S
C488 H493 0.930 . S
O489 Cu483 1.974 . S
O489 C499 1.282 . S
C490 O491 1.261 . S
C490 O503 1.251 . S
O491 C490 1.261 . S
H492 C486 0.930 . S
H493 C488 0.930 . S
N494 Cu483 1.985 . S
N494 C496 1.335 . S
N494 C497 1.390 . S
N495 C496 1.345 . S
N495 C498 1.336 . S
C496 N494 1.335 . S
C496 N495 1.345 . S
C496 H501 0.930 . S
C497 N494 1.390 . S
C497 C498 1.346 . S
C497 H502 0.930 . S
C498 N495 1.336 . S
C498 C497 1.346 . S
C498 H505 0.929 . S
C499 O489 1.282 . S
C499 O500 1.216 . S
O500 C499 1.216 . S
H501 C496 0.930 . S
H502 C497 0.930 . S
O503 Cu483 1.959 . S
O503 C490 1.251 . S
H504 C487 0.930 . S
H505 C498 0.929 . S
Cu506 N507 1.999 . S
Cu506 O512 1.974 . S
Cu506 N517 1.985 . S
Cu506 O526 1.959 . S
N507 Cu506 1.999 . S
N507 C509 1.263 . S
N507 C511 1.389 . S
N508 C509 1.358 . S
N508 C510 1.400 . S
C509 N507 1.263 . S
C509 N508 1.358 . S
C509 H515 0.930 . S
C510 N508 1.400 . S
C510 C511 1.351 . S
C510 H527 0.930 . S
C511 N507 1.389 . S
C511 C510 1.351 . S
C511 H516 0.930 . S
O512 Cu506 1.974 . S
O512 C522 1.282 . S
C513 O514 1.261 . S
C513 O526 1.251 . S
O514 C513 1.261 . S
H515 C509 0.930 . S
H516 C511 0.930 . S
N517 Cu506 1.985 . S
N517 C519 1.335 . S
N517 C520 1.390 . S
N518 C519 1.345 . S
N518 C521 1.336 . S
C519 N517 1.335 . S
C519 N518 1.345 . S
C519 H524 0.930 . S
C520 N517 1.390 . S
C520 C521 1.346 . S
C520 H525 0.930 . S
C521 N518 1.336 . S
C521 C520 1.346 . S
C521 H528 0.929 . S
C522 O512 1.282 . S
C522 O523 1.216 . S
O523 C522 1.216 . S
H524 C519 0.930 . S
H525 C520 0.930 . S
O526 Cu506 1.959 . S
O526 C513 1.251 . S
H527 C510 0.930 . S
H528 C521 0.929 . S
Cu529 N530 1.999 . S
Cu529 O535 1.974 . S
Cu529 N540 1.985 . S
Cu529 O549 1.959 . S
N530 Cu529 1.999 . S
N530 C532 1.263 . S
N530 C534 1.389 . S
N531 C532 1.358 . S
N531 C533 1.400 . S
C532 N530 1.263 . S
C532 N531 1.358 . S
C532 H538 0.930 . S
C533 N531 1.400 . S
C533 C534 1.351 . S
C533 H550 0.930 . S
C534 N530 1.389 . S
C534 C533 1.351 . S
C534 H539 0.930 . S
O535 Cu529 1.974 . S
O535 C545 1.282 . S
C536 O537 1.261 . S
C536 O549 1.251 . S
O537 C536 1.261 . S
H538 C532 0.930 . S
H539 C534 0.930 . S
N540 Cu529 1.985 . S
N540 C542 1.335 . S
N540 C543 1.390 . S
N541 C542 1.345 . S
N541 C544 1.336 . S
C542 N540 1.335 . S
C542 N541 1.345 . S
C542 H547 0.930 . S
C543 N540 1.390 . S
C543 C544 1.346 . S
C543 H548 0.930 . S
C544 N541 1.336 . S
C544 C543 1.346 . S
C544 H551 0.929 . S
C545 O535 1.282 . S
C545 O546 1.216 . S
O546 C545 1.216 . S
H547 C542 0.930 . S
H548 C543 0.930 . S
O549 Cu529 1.959 . S
O549 C536 1.251 . S
H550 C533 0.930 . S
H551 C544 0.929 . S
Cu552 N553 1.999 . S
Cu552 O558 1.974 . S
Cu552 N563 1.985 . S
Cu552 O572 1.959 . S
N553 Cu552 1.999 . S
N553 C555 1.263 . S
N553 C557 1.389 . S
N554 C555 1.358 . S
N554 C556 1.400 . S
C555 N553 1.263 . S
C555 N554 1.358 . S
C555 H561 0.930 . S
C556 N554 1.400 . S
C556 C557 1.351 . S
C556 H573 0.930 . S
C557 N553 1.389 . S
C557 C556 1.351 . S
C557 H562 0.930 . S
O558 Cu552 1.974 . S
O558 C568 1.282 . S
C559 O560 1.261 . S
C559 O572 1.251 . S
O560 C559 1.261 . S
H561 C555 0.930 . S
H562 C557 0.930 . S
N563 Cu552 1.985 . S
N563 C565 1.335 . S
N563 C566 1.390 . S
N564 C565 1.345 . S
N564 C567 1.336 . S
C565 N563 1.335 . S
C565 N564 1.345 . S
C565 H570 0.930 . S
C566 N563 1.390 . S
C566 C567 1.346 . S
C566 H571 0.930 . S
C567 N564 1.336 . S
C567 C566 1.346 . S
C567 H574 0.929 . S
C568 O558 1.282 . S
C568 O569 1.216 . S
O569 C568 1.216 . S
H570 C565 0.930 . S
H571 C566 0.930 . S
O572 Cu552 1.959 . S
O572 C559 1.251 . S
H573 C556 0.930 . S
H574 C567 0.929 . S
Cu575 N576 1.999 . S
Cu575 O581 1.974 . S
Cu575 N586 1.985 . S
Cu575 O595 1.959 . S
N576 Cu575 1.999 . S
N576 C578 1.263 . S
N576 C580 1.389 . S
N577 C578 1.358 . S
N577 C579 1.400 . S
C578 N576 1.263 . S
C578 N577 1.358 . S
C578 H584 0.930 . S
C579 N577 1.400 . S
C579 C580 1.351 . S
C579 H596 0.930 . S
C580 N576 1.389 . S
C580 C579 1.351 . S
C580 H585 0.930 . S
O581 Cu575 1.974 . S
O581 C591 1.282 . S
C582 O583 1.261 . S
C582 O595 1.251 . S
O583 C582 1.261 . S
H584 C578 0.930 . S
H585 C580 0.930 . S
N586 Cu575 1.985 . S
N586 C588 1.335 . S
N586 C589 1.390 . S
N587 C588 1.345 . S
N587 C590 1.336 . S
C588 N586 1.335 . S
C588 N587 1.345 . S
C588 H593 0.930 . S
C589 N586 1.390 . S
C589 C590 1.346 . S
C589 H594 0.930 . S
C590 N587 1.336 . S
C590 C589 1.346 . S
C590 H597 0.929 . S
C591 O581 1.282 . S
C591 O592 1.216 . S
O592 C591 1.216 . S
H593 C588 0.930 . S
H594 C589 0.930 . S
O595 Cu575 1.959 . S
O595 C582 1.251 . S
H596 C579 0.930 . S
H597 C590 0.929 . S
Cu598 N599 1.991 1_556 S
Cu598 O604 1.974 . S
Cu598 N609 1.985 . S
Cu598 O618 1.959 1_556 S
N599 Cu598 1.991 1_554 S
N599 C601 1.241 1_554 S
N599 C603 1.424 . S
N600 C601 1.358 . S
N600 C602 1.400 1_556 S
C601 N599 1.241 1_556 S
C601 N600 1.358 . S
C601 H607 0.930 . S
C602 N600 1.400 1_554 S
C602 C603 1.351 . S
C602 H619 0.930 . S
C603 N599 1.424 . S
C603 C602 1.351 . S
C603 H608 0.930 . S
O604 Cu598 1.974 . S
O604 C614 1.282 . S
C605 O606 1.261 . S
C605 O618 1.251 . S
O606 C605 1.261 . S
H607 C601 0.930 . S
H608 C603 0.930 . S
N609 Cu598 1.985 . S
N609 C611 1.335 1_556 S
N609 C612 1.390 . S
N610 C611 1.345 1_556 S
N610 C613 1.336 . S
C611 N609 1.335 1_554 S
C611 N610 1.345 1_554 S
C611 H616 0.930 . S
C612 N609 1.390 . S
C612 C613 1.346 . S
C612 H617 0.930 . S
C613 N610 1.336 . S
C613 C612 1.346 . S
C613 H620 0.929 . S
C614 O604 1.282 . S
C614 O615 1.216 . S
O615 C614 1.216 . S
H616 C611 0.930 . S
H617 C612 0.930 . S
O618 Cu598 1.959 1_554 S
O618 C605 1.251 . S
H619 C602 0.930 . S
H620 C613 0.929 . S
Cu621 N622 1.991 1_556 S
Cu621 O627 1.974 . S
Cu621 N632 1.985 . S
Cu621 O641 1.959 1_556 S
N622 Cu621 1.991 1_554 S
N622 C624 1.241 1_554 S
N622 C626 1.423 . S
N623 C624 1.358 . S
N623 C625 1.400 1_556 S
C624 N622 1.241 1_556 S
C624 N623 1.358 . S
C624 H630 0.930 . S
C625 N623 1.400 1_554 S
C625 C626 1.351 . S
C625 H642 0.930 . S
C626 N622 1.423 . S
C626 C625 1.351 . S
C626 H631 0.930 . S
O627 Cu621 1.974 . S
O627 C637 1.282 . S
C628 O629 1.261 . S
C628 O641 1.251 . S
O629 C628 1.261 . S
H630 C624 0.930 . S
H631 C626 0.930 . S
N632 Cu621 1.985 . S
N632 C634 1.335 1_556 S
N632 C635 1.390 . S
N633 C634 1.345 1_556 S
N633 C636 1.336 . S
C634 N632 1.335 1_554 S
C634 N633 1.345 1_554 S
C634 H639 0.930 . S
C635 N632 1.390 . S
C635 C636 1.346 . S
C635 H640 0.930 . S
C636 N633 1.336 . S
C636 C635 1.346 . S
C636 H643 0.929 . S
C637 O627 1.282 . S
C637 O638 1.216 . S
O638 C637 1.216 . S
H639 C634 0.930 . S
H640 C635 0.930 . S
O641 Cu621 1.959 1_554 S
O641 C628 1.251 . S
H642 C625 0.930 . S
H643 C636 0.929 . S
Cu644 N645 1.999 . S
Cu644 O650 1.974 . S
Cu644 N655 1.985 . S
Cu644 O664 1.959 . S
N645 Cu644 1.999 . S
N645 C647 1.263 . S
N645 C649 1.389 . S
N646 C647 1.358 . S
N646 C648 1.400 . S
C647 N645 1.263 . S
C647 N646 1.358 . S
C647 H653 0.930 . S
C648 N646 1.400 . S
C648 C649 1.351 . S
C648 H665 0.930 . S
C649 N645 1.389 . S
C649 C648 1.351 . S
C649 H654 0.930 . S
O650 Cu644 1.974 . S
O650 C660 1.282 . S
C651 O652 1.261 . S
C651 O664 1.251 . S
O652 C651 1.261 . S
H653 C647 0.930 . S
H654 C649 0.930 . S
N655 Cu644 1.985 . S
N655 C657 1.335 . S
N655 C658 1.390 . S
N656 C657 1.345 . S
N656 C659 1.336 . S
C657 N655 1.335 . S
C657 N656 1.345 . S
C657 H662 0.930 . S
C658 N655 1.390 . S
C658 C659 1.346 . S
C658 H663 0.930 . S
C659 N656 1.336 . S
C659 C658 1.346 . S
C659 H666 0.929 . S
C660 O650 1.282 . S
C660 O661 1.216 . S
O661 C660 1.216 . S
H662 C657 0.930 . S
H663 C658 0.930 . S
O664 Cu644 1.959 . S
O664 C651 1.251 . S
H665 C648 0.930 . S
H666 C659 0.929 . S
Cu667 N668 1.999 . S
Cu667 O673 1.974 . S
Cu667 N678 1.985 . S
Cu667 O687 1.959 . S
N668 Cu667 1.999 . S
N668 C670 1.263 . S
N668 C672 1.389 . S
N669 C670 1.358 . S
N669 C671 1.400 . S
C670 N668 1.263 . S
C670 N669 1.358 . S
C670 H676 0.930 . S
C671 N669 1.400 . S
C671 C672 1.351 . S
C671 H688 0.930 . S
C672 N668 1.389 . S
C672 C671 1.351 . S
C672 H677 0.930 . S
O673 Cu667 1.974 . S
O673 C683 1.282 . S
C674 O675 1.261 . S
C674 O687 1.251 . S
O675 C674 1.261 . S
H676 C670 0.930 . S
H677 C672 0.930 . S
N678 Cu667 1.985 . S
N678 C680 1.335 . S
N678 C681 1.390 . S
N679 C680 1.345 . S
N679 C682 1.336 . S
C680 N678 1.335 . S
C680 N679 1.345 . S
C680 H685 0.930 . S
C681 N678 1.390 . S
C681 C682 1.346 . S
C681 H686 0.930 . S
C682 N679 1.336 . S
C682 C681 1.346 . S
C682 H689 0.929 . S
C683 O673 1.282 . S
C683 O684 1.216 . S
O684 C683 1.216 . S
H685 C680 0.930 . S
H686 C681 0.930 . S
O687 Cu667 1.959 . S
O687 C674 1.251 . S
H688 C671 0.930 . S
H689 C682 0.929 . S
Cu690 N691 1.991 1_554 S
Cu690 O696 1.974 . S
Cu690 N701 1.985 . S
Cu690 O710 1.959 1_554 S
N691 Cu690 1.991 1_556 S
N691 C693 1.241 1_556 S
N691 C695 1.424 . S
N692 C693 1.358 . S
N692 C694 1.400 1_554 S
C693 N691 1.241 1_554 S
C693 N692 1.358 . S
C693 H699 0.930 . S
C694 N692 1.400 1_556 S
C694 C695 1.351 . S
C694 H711 0.930 . S
C695 N691 1.424 . S
C695 C694 1.351 . S
C695 H700 0.930 . S
O696 Cu690 1.974 . S
O696 C706 1.282 . S
C697 O698 1.261 . S
C697 O710 1.251 . S
O698 C697 1.261 . S
H699 C693 0.930 . S
H700 C695 0.930 . S
N701 Cu690 1.985 . S
N701 C703 1.335 1_554 S
N701 C704 1.390 . S
N702 C703 1.345 1_554 S
N702 C705 1.336 . S
C703 N701 1.335 1_556 S
C703 N702 1.345 1_556 S
C703 H708 0.930 . S
C704 N701 1.390 . S
C704 C705 1.346 . S
C704 H709 0.930 . S
C705 N702 1.336 . S
C705 C704 1.346 . S
C705 H712 0.929 . S
C706 O696 1.282 . S
C706 O707 1.216 . S
O707 C706 1.216 . S
H708 C703 0.930 . S
H709 C704 0.930 . S
O710 Cu690 1.959 1_556 S
O710 C697 1.251 . S
H711 C694 0.930 . S
H712 C705 0.929 . S
Cu713 N714 1.991 1_554 S
Cu713 O719 1.974 . S
Cu713 N724 1.985 . S
Cu713 O733 1.959 1_554 S
N714 Cu713 1.991 1_556 S
N714 C716 1.241 1_556 S
N714 C718 1.423 . S
N715 C716 1.358 . S
N715 C717 1.400 1_554 S
C716 N714 1.241 1_554 S
C716 N715 1.358 . S
C716 H722 0.930 . S
C717 N715 1.400 1_556 S
C717 C718 1.351 . S
C717 H734 0.930 . S
C718 N714 1.423 . S
C718 C717 1.351 . S
C718 H723 0.930 . S
O719 Cu713 1.974 . S
O719 C729 1.282 . S
C720 O721 1.261 . S
C720 O733 1.251 . S
O721 C720 1.261 . S
H722 C716 0.930 . S
H723 C718 0.930 . S
N724 Cu713 1.985 . S
N724 C726 1.335 1_554 S
N724 C727 1.390 . S
N725 C726 1.345 1_554 S
N725 C728 1.336 . S
C726 N724 1.335 1_556 S
C726 N725 1.345 1_556 S
C726 H731 0.930 . S
C727 N724 1.390 . S
C727 C728 1.346 . S
C727 H732 0.930 . S
C728 N725 1.336 . S
C728 C727 1.346 . S
C728 H735 0.929 . S
C729 O719 1.282 . S
C729 O730 1.216 . S
O730 C729 1.216 . S
H731 C726 0.930 . S
H732 C727 0.930 . S
O733 Cu713 1.959 1_556 S
O733 C720 1.251 . S
H734 C717 0.930 . S
H735 C728 0.929 . S
H736 C748 0.930 . S
H737 C750 0.930 . S
H738 C751 0.930 . S
H739 C755 0.959 . S
H740 C755 0.959 . S
H741 C755 0.961 . S
H742 C756 0.960 . S
H743 C756 0.961 . S
H744 C756 0.959 . S
H745 C759 0.929 . S
H746 C760 0.931 . S
H747 C762 0.930 . S
C748 H736 0.930 . S
C748 C749 1.399 . S
C748 C753 1.399 . S
C749 C748 1.399 . S
C749 C750 1.376 . S
C750 H737 0.930 . S
C750 C749 1.376 . S
C750 C751 1.388 . S
C751 H738 0.930 . S
C751 C750 1.388 . S
C751 C752 1.390 . S
C752 C751 1.390 . S
C752 C753 1.394 . S
C752 C758 1.465 . S
C753 C748 1.399 . S
C753 C752 1.394 . S
C753 C754 1.516 . S
C754 C753 1.516 . S
C754 C755 1.502 . S
C754 C756 1.561 . S
C754 C757 1.526 . S
C755 H739 0.959 . S
C755 H740 0.959 . S
C755 H741 0.961 . S
C755 C754 1.502 . S
C756 H742 0.960 . S
C756 H743 0.961 . S
C756 H744 0.959 . S
C756 C754 1.561 . S
C757 C754 1.526 . S
C757 C758 1.396 . S
C757 C762 1.390 . S
C758 C752 1.465 . S
C758 C757 1.396 . S
C758 C759 1.399 . S
C759 H745 0.929 . S
C759 C758 1.399 . S
C759 C760 1.385 . S
C760 H746 0.931 . S
C760 C759 1.385 . S
C760 C761 1.389 . S
C761 C760 1.389 . S
C761 C762 1.387 . S
C762 H747 0.930 . S
C762 C757 1.390 . S
C762 C761 1.387 . S
H763 C775 0.930 . S
H764 C777 0.930 . S
H765 C778 0.930 . S
H766 C782 0.959 . S
H767 C782 0.959 . S
H768 C782 0.961 . S
H769 C783 0.960 . S
H770 C783 0.961 . S
H771 C783 0.959 . S
H772 C786 0.929 . S
H773 C787 0.931 . S
H774 C789 0.930 . S
C775 H763 0.930 . S
C775 C776 1.399 . S
C775 C780 1.399 . S
C776 C775 1.399 . S
C776 C777 1.376 . S
C777 H764 0.930 . S
C777 C776 1.376 . S
C777 C778 1.388 . S
C778 H765 0.930 . S
C778 C777 1.388 . S
C778 C779 1.390 . S
C779 C778 1.390 . S
C779 C780 1.394 . S
C779 C785 1.465 . S
C780 C775 1.399 . S
C780 C779 1.394 . S
C780 C781 1.516 . S
C781 C780 1.516 . S
C781 C782 1.502 . S
C781 C783 1.561 . S
C781 C784 1.526 . S
C782 H766 0.959 . S
C782 H767 0.959 . S
C782 H768 0.961 . S
C782 C781 1.502 . S
C783 H769 0.960 . S
C783 H770 0.961 . S
C783 H771 0.959 . S
C783 C781 1.561 . S
C784 C781 1.526 . S
C784 C785 1.396 . S
C784 C789 1.390 . S
C785 C779 1.465 . S
C785 C784 1.396 . S
C785 C786 1.399 . S
C786 H772 0.929 . S
C786 C785 1.399 . S
C786 C787 1.385 . S
C787 H773 0.931 . S
C787 C786 1.385 . S
C787 C788 1.389 . S
C788 C787 1.389 . S
C788 C789 1.387 . S
C789 H774 0.930 . S
C789 C784 1.390 . S
C789 C788 1.387 . S
H790 C802 0.930 . S
H791 C804 0.930 . S
H792 C805 0.930 . S
H793 C809 0.959 . S
H794 C809 0.959 . S
H795 C809 0.961 . S
H796 C810 0.960 . S
H797 C810 0.961 . S
H798 C810 0.959 . S
H799 C813 0.929 . S
H800 C814 0.931 . S
H801 C816 0.930 . S
C802 H790 0.930 . S
C802 C803 1.399 . S
C802 C807 1.399 . S
C803 C802 1.399 . S
C803 C804 1.376 . S
C804 H791 0.930 . S
C804 C803 1.376 . S
C804 C805 1.388 . S
C805 H792 0.930 . S
C805 C804 1.388 . S
C805 C806 1.390 . S
C806 C805 1.390 . S
C806 C807 1.394 . S
C806 C812 1.465 . S
C807 C802 1.399 . S
C807 C806 1.394 . S
C807 C808 1.516 . S
C808 C807 1.516 . S
C808 C809 1.502 . S
C808 C810 1.561 . S
C808 C811 1.526 . S
C809 H793 0.959 . S
C809 H794 0.959 . S
C809 H795 0.961 . S
C809 C808 1.502 . S
C810 H796 0.960 . S
C810 H797 0.961 . S
C810 H798 0.959 . S
C810 C808 1.561 . S
C811 C808 1.526 . S
C811 C812 1.396 . S
C811 C816 1.390 . S
C812 C806 1.465 . S
C812 C811 1.396 . S
C812 C813 1.399 . S
C813 H799 0.929 . S
C813 C812 1.399 . S
C813 C814 1.385 . S
C814 H800 0.931 . S
C814 C813 1.385 . S
C814 C815 1.389 . S
C815 C814 1.389 . S
C815 C816 1.387 . S
C816 H801 0.930 . S
C816 C811 1.390 . S
C816 C815 1.387 . S
H817 C829 0.930 . S
H818 C831 0.930 . S
H819 C832 0.930 . S
H820 C836 0.959 . S
H821 C836 0.959 . S
H822 C836 0.961 . S
H823 C837 0.960 . S
H824 C837 0.961 . S
H825 C837 0.959 . S
H826 C840 0.929 . S
H827 C841 0.931 . S
H828 C843 0.930 . S
C829 H817 0.930 . S
C829 C830 1.399 . S
C829 C834 1.399 . S
C830 C829 1.399 . S
C830 C831 1.376 . S
C831 H818 0.930 . S
C831 C830 1.376 . S
C831 C832 1.388 . S
C832 H819 0.930 . S
C832 C831 1.388 . S
C832 C833 1.390 . S
C833 C832 1.390 . S
C833 C834 1.394 . S
C833 C839 1.465 . S
C834 C829 1.399 . S
C834 C833 1.394 . S
C834 C835 1.516 . S
C835 C834 1.516 . S
C835 C836 1.502 . S
C835 C837 1.561 . S
C835 C838 1.526 . S
C836 H820 0.959 . S
C836 H821 0.959 . S
C836 H822 0.961 . S
C836 C835 1.502 . S
C837 H823 0.960 . S
C837 H824 0.961 . S
C837 H825 0.959 . S
C837 C835 1.561 . S
C838 C835 1.526 . S
C838 C839 1.396 . S
C838 C843 1.390 . S
C839 C833 1.465 . S
C839 C838 1.396 . S
C839 C840 1.399 . S
C840 H826 0.929 . S
C840 C839 1.399 . S
C840 C841 1.385 . S
C841 H827 0.931 . S
C841 C840 1.385 . S
C841 C842 1.389 . S
C842 C841 1.389 . S
C842 C843 1.387 . S
C843 H828 0.930 . S
C843 C838 1.390 . S
C843 C842 1.387 . S
H844 C856 0.930 . S
H845 C858 0.930 . S
H846 C859 0.930 . S
H847 C863 0.959 . S
H848 C863 0.959 . S
H849 C863 0.961 . S
H850 C864 0.960 . S
H851 C864 0.961 . S
H852 C864 0.959 . S
H853 C867 0.929 . S
H854 C868 0.931 . S
H855 C870 0.930 . S
C856 H844 0.930 . S
C856 C857 1.399 . S
C856 C861 1.399 . S
C857 C856 1.399 . S
C857 C858 1.376 . S
C858 H845 0.930 . S
C858 C857 1.376 . S
C858 C859 1.388 . S
C859 H846 0.930 . S
C859 C858 1.388 . S
C859 C860 1.390 . S
C860 C859 1.390 . S
C860 C861 1.394 . S
C860 C866 1.465 . S
C861 C856 1.399 . S
C861 C860 1.394 . S
C861 C862 1.516 . S
C862 C861 1.516 . S
C862 C863 1.502 . S
C862 C864 1.561 . S
C862 C865 1.526 . S
C863 H847 0.959 . S
C863 H848 0.959 . S
C863 H849 0.961 . S
C863 C862 1.502 . S
C864 H850 0.960 . S
C864 H851 0.961 . S
C864 H852 0.959 . S
C864 C862 1.561 . S
C865 C862 1.526 . S
C865 C866 1.396 . S
C865 C870 1.390 . S
C866 C860 1.465 . S
C866 C865 1.396 . S
C866 C867 1.399 . S
C867 H853 0.929 . S
C867 C866 1.399 . S
C867 C868 1.385 . S
C868 H854 0.931 . S
C868 C867 1.385 . S
C868 C869 1.389 . S
C869 C868 1.389 . S
C869 C870 1.387 . S
C870 H855 0.930 . S
C870 C865 1.390 . S
C870 C869 1.387 . S
H871 C883 0.930 . S
H872 C885 0.930 . S
H873 C886 0.930 . S
H874 C890 0.959 . S
H875 C890 0.959 . S
H876 C890 0.961 . S
H877 C891 0.960 . S
H878 C891 0.961 . S
H879 C891 0.959 . S
H880 C894 0.929 . S
H881 C895 0.931 . S
H882 C897 0.930 . S
C883 H871 0.930 . S
C883 C884 1.399 . S
C883 C888 1.399 . S
C884 C883 1.399 . S
C884 C885 1.376 . S
C885 H872 0.930 . S
C885 C884 1.376 . S
C885 C886 1.388 . S
C886 H873 0.930 . S
C886 C885 1.388 . S
C886 C887 1.390 . S
C887 C886 1.390 . S
C887 C888 1.394 . S
C887 C893 1.465 . S
C888 C883 1.399 . S
C888 C887 1.394 . S
C888 C889 1.516 . S
C889 C888 1.516 . S
C889 C890 1.502 . S
C889 C891 1.561 . S
C889 C892 1.526 . S
C890 H874 0.959 . S
C890 H875 0.959 . S
C890 H876 0.961 . S
C890 C889 1.502 . S
C891 H877 0.960 . S
C891 H878 0.961 . S
C891 H879 0.959 . S
C891 C889 1.561 . S
C892 C889 1.526 . S
C892 C893 1.396 . S
C892 C897 1.390 . S
C893 C887 1.465 . S
C893 C892 1.396 . S
C893 C894 1.399 . S
C894 H880 0.929 . S
C894 C893 1.399 . S
C894 C895 1.385 . S
C895 H881 0.931 . S
C895 C894 1.385 . S
C895 C896 1.389 . S
C896 C895 1.389 . S
C896 C897 1.387 . S
C897 H882 0.930 . S
C897 C892 1.390 . S
C897 C896 1.387 . S
H898 C910 0.930 . S
H899 C912 0.930 . S
H900 C913 0.930 . S
H901 C917 0.959 . S
H902 C917 0.959 . S
H903 C917 0.961 . S
H904 C918 0.960 . S
H905 C918 0.961 . S
H906 C918 0.959 . S
H907 C921 0.929 . S
H908 C922 0.931 . S
H909 C924 0.930 . S
C910 H898 0.930 . S
C910 C911 1.399 . S
C910 C915 1.399 . S
C911 C910 1.399 . S
C911 C912 1.376 . S
C912 H899 0.930 . S
C912 C911 1.376 . S
C912 C913 1.388 . S
C913 H900 0.930 . S
C913 C912 1.388 . S
C913 C914 1.390 . S
C914 C913 1.390 . S
C914 C915 1.394 . S
C914 C920 1.465 . S
C915 C910 1.399 . S
C915 C914 1.394 . S
C915 C916 1.516 . S
C916 C915 1.516 . S
C916 C917 1.502 . S
C916 C918 1.561 . S
C916 C919 1.526 . S
C917 H901 0.959 . S
C917 H902 0.959 . S
C917 H903 0.961 . S
C917 C916 1.502 . S
C918 H904 0.960 . S
C918 H905 0.961 . S
C918 H906 0.959 . S
C918 C916 1.561 . S
C919 C916 1.526 . S
C919 C920 1.396 . S
C919 C924 1.390 . S
C920 C914 1.465 . S
C920 C919 1.396 . S
C920 C921 1.399 . S
C921 H907 0.929 . S
C921 C920 1.399 . S
C921 C922 1.385 . S
C922 H908 0.931 . S
C922 C921 1.385 . S
C922 C923 1.389 . S
C923 C922 1.389 . S
C923 C924 1.387 . S
C924 H909 0.930 . S
C924 C919 1.390 . S
C924 C923 1.387 . S
H925 C937 0.930 . S
H926 C939 0.930 . S
H927 C940 0.930 . S
H928 C944 0.959 . S
H929 C944 0.959 . S
H930 C944 0.961 . S
H931 C945 0.960 . S
H932 C945 0.961 . S
H933 C945 0.959 . S
H934 C948 0.929 . S
H935 C949 0.931 . S
H936 C951 0.930 . S
C937 H925 0.930 . S
C937 C938 1.399 . S
C937 C942 1.399 . S
C938 C937 1.399 . S
C938 C939 1.376 . S
C939 H926 0.930 . S
C939 C938 1.376 . S
C939 C940 1.388 . S
C940 H927 0.930 . S
C940 C939 1.388 . S
C940 C941 1.390 . S
C941 C940 1.390 . S
C941 C942 1.394 . S
C941 C947 1.465 . S
C942 C937 1.399 . S
C942 C941 1.394 . S
C942 C943 1.516 . S
C943 C942 1.516 . S
C943 C944 1.502 . S
C943 C945 1.561 . S
C943 C946 1.526 . S
C944 H928 0.959 . S
C944 H929 0.959 . S
C944 H930 0.961 . S
C944 C943 1.502 . S
C945 H931 0.960 . S
C945 H932 0.961 . S
C945 H933 0.959 . S
C945 C943 1.561 . S
C946 C943 1.526 . S
C946 C947 1.396 . S
C946 C951 1.390 . S
C947 C941 1.465 . S
C947 C946 1.396 . S
C947 C948 1.399 . S
C948 H934 0.929 . S
C948 C947 1.399 . S
C948 C949 1.385 . S
C949 H935 0.931 . S
C949 C948 1.385 . S
C949 C950 1.389 . S
C950 C949 1.389 . S
C950 C951 1.387 . S
C951 H936 0.930 . S
C951 C946 1.390 . S
C951 C950 1.387 . S
H952 C964 0.930 . S
H953 C966 0.930 . S
H954 C967 0.930 . S
H955 C971 0.959 . S
H956 C971 0.959 . S
H957 C971 0.961 . S
H958 C972 0.960 . S
H959 C972 0.961 . S
H960 C972 0.959 . S
H961 C975 0.929 . S
H962 C976 0.931 . S
H963 C978 0.930 . S
C964 H952 0.930 . S
C964 C965 1.399 . S
C964 C969 1.399 . S
C965 C964 1.399 . S
C965 C966 1.376 . S
C966 H953 0.930 . S
C966 C965 1.376 . S
C966 C967 1.388 . S
C967 H954 0.930 . S
C967 C966 1.388 . S
C967 C968 1.390 . S
C968 C967 1.390 . S
C968 C969 1.394 . S
C968 C974 1.465 . S
C969 C964 1.399 . S
C969 C968 1.394 . S
C969 C970 1.516 . S
C970 C969 1.516 . S
C970 C971 1.502 . S
C970 C972 1.561 . S
C970 C973 1.526 . S
C971 H955 0.959 . S
C971 H956 0.959 . S
C971 H957 0.961 . S
C971 C970 1.502 . S
C972 H958 0.960 . S
C972 H959 0.961 . S
C972 H960 0.959 . S
C972 C970 1.561 . S
C973 C970 1.526 . S
C973 C974 1.396 . S
C973 C978 1.390 . S
C974 C968 1.465 . S
C974 C973 1.396 . S
C974 C975 1.399 . S
C975 H961 0.929 . S
C975 C974 1.399 . S
C975 C976 1.385 . S
C976 H962 0.931 . S
C976 C975 1.385 . S
C976 C977 1.389 . S
C977 C976 1.389 . S
C977 C978 1.387 . S
C978 H963 0.930 . S
C978 C973 1.390 . S
C978 C977 1.387 . S
H979 C991 0.930 . S
H980 C993 0.930 . S
H981 C994 0.930 . S
H982 C998 0.959 . S
H983 C998 0.959 . S
H984 C998 0.961 . S
H985 C999 0.960 . S
H986 C999 0.961 . S
H987 C999 0.959 . S
H988 C1002 0.929 . S
H989 C1003 0.931 . S
H990 C1005 0.930 . S
C991 H979 0.930 . S
C991 C992 1.399 . S
C991 C996 1.399 . S
C992 C991 1.399 . S
C992 C993 1.376 . S
C993 H980 0.930 . S
C993 C992 1.376 . S
C993 C994 1.388 . S
C994 H981 0.930 . S
C994 C993 1.388 . S
C994 C995 1.390 . S
C995 C994 1.390 . S
C995 C996 1.394 . S
C995 C1001 1.465 . S
C996 C991 1.399 . S
C996 C995 1.394 . S
C996 C997 1.516 . S
C997 C996 1.516 . S
C997 C998 1.502 . S
C997 C999 1.561 . S
C997 C1000 1.526 . S
C998 H982 0.959 . S
C998 H983 0.959 . S
C998 H984 0.961 . S
C998 C997 1.502 . S
C999 H985 0.960 . S
C999 H986 0.961 . S
C999 H987 0.959 . S
C999 C997 1.561 . S
C1000 C997 1.526 . S
C1000 C1001 1.396 . S
C1000 C1005 1.390 . S
C1001 C995 1.465 . S
C1001 C1000 1.396 . S
C1001 C1002 1.399 . S
C1002 H988 0.929 . S
C1002 C1001 1.399 . S
C1002 C1003 1.385 . S
C1003 H989 0.931 . S
C1003 C1002 1.385 . S
C1003 C1004 1.389 . S
C1004 C1003 1.389 . S
C1004 C1005 1.387 . S
C1005 H990 0.930 . S
C1005 C1000 1.390 . S
C1005 C1004 1.387 . S
H1006 C1018 0.930 . S
H1007 C1020 0.930 . S
H1008 C1021 0.930 . S
H1009 C1025 0.959 . S
H1010 C1025 0.959 . S
H1011 C1025 0.961 . S
H1012 C1026 0.960 . S
H1013 C1026 0.961 . S
H1014 C1026 0.959 . S
H1015 C1029 0.929 . S
H1016 C1030 0.931 . S
H1017 C1032 0.930 . S
C1018 H1006 0.930 . S
C1018 C1019 1.399 . S
C1018 C1023 1.399 . S
C1019 C1018 1.399 . S
C1019 C1020 1.376 . S
C1020 H1007 0.930 . S
C1020 C1019 1.376 . S
C1020 C1021 1.388 . S
C1021 H1008 0.930 . S
C1021 C1020 1.388 . S
C1021 C1022 1.390 . S
C1022 C1021 1.390 . S
C1022 C1023 1.394 . S
C1022 C1028 1.465 . S
C1023 C1018 1.399 . S
C1023 C1022 1.394 . S
C1023 C1024 1.516 . S
C1024 C1023 1.516 . S
C1024 C1025 1.502 . S
C1024 C1026 1.561 . S
C1024 C1027 1.526 . S
C1025 H1009 0.959 . S
C1025 H1010 0.959 . S
C1025 H1011 0.961 . S
C1025 C1024 1.502 . S
C1026 H1012 0.960 . S
C1026 H1013 0.961 . S
C1026 H1014 0.959 . S
C1026 C1024 1.561 . S
C1027 C1024 1.526 . S
C1027 C1028 1.396 . S
C1027 C1032 1.390 . S
C1028 C1022 1.465 . S
C1028 C1027 1.396 . S
C1028 C1029 1.399 . S
C1029 H1015 0.929 . S
C1029 C1028 1.399 . S
C1029 C1030 1.385 . S
C1030 H1016 0.931 . S
C1030 C1029 1.385 . S
C1030 C1031 1.389 . S
C1031 C1030 1.389 . S
C1031 C1032 1.387 . S
C1032 H1017 0.930 . S
C1032 C1027 1.390 . S
C1032 C1031 1.387 . S
H1033 C1045 0.930 . S
H1034 C1047 0.930 . S
H1035 C1048 0.930 . S
H1036 C1052 0.959 . S
H1037 C1052 0.959 . S
H1038 C1052 0.961 . S
H1039 C1053 0.960 . S
H1040 C1053 0.961 . S
H1041 C1053 0.959 . S
H1042 C1056 0.929 . S
H1043 C1057 0.931 . S
H1044 C1059 0.930 . S
C1045 H1033 0.930 . S
C1045 C1046 1.399 . S
C1045 C1050 1.399 . S
C1046 C1045 1.399 . S
C1046 C1047 1.376 . S
C1047 H1034 0.930 . S
C1047 C1046 1.376 . S
C1047 C1048 1.388 . S
C1048 H1035 0.930 . S
C1048 C1047 1.388 . S
C1048 C1049 1.390 . S
C1049 C1048 1.390 . S
C1049 C1050 1.394 . S
C1049 C1055 1.465 . S
C1050 C1045 1.399 . S
C1050 C1049 1.394 . S
C1050 C1051 1.516 . S
C1051 C1050 1.516 . S
C1051 C1052 1.502 . S
C1051 C1053 1.561 . S
C1051 C1054 1.526 . S
C1052 H1036 0.959 . S
C1052 H1037 0.959 . S
C1052 H1038 0.961 . S
C1052 C1051 1.502 . S
C1053 H1039 0.960 . S
C1053 H1040 0.961 . S
C1053 H1041 0.959 . S
C1053 C1051 1.561 . S
C1054 C1051 1.526 . S
C1054 C1055 1.396 . S
C1054 C1059 1.390 . S
C1055 C1049 1.465 . S
C1055 C1054 1.396 . S
C1055 C1056 1.399 . S
C1056 H1042 0.929 . S
C1056 C1055 1.399 . S
C1056 C1057 1.385 . S
C1057 H1043 0.931 . S
C1057 C1056 1.385 . S
C1057 C1058 1.389 . S
C1058 C1057 1.389 . S
C1058 C1059 1.387 . S
C1059 H1044 0.930 . S
C1059 C1054 1.390 . S
C1059 C1058 1.387 . S
H1060 C1072 0.930 . S
H1061 C1074 0.930 . S
H1062 C1075 0.930 . S
H1063 C1079 0.959 . S
H1064 C1079 0.959 . S
H1065 C1079 0.961 . S
H1066 C1080 0.960 . S
H1067 C1080 0.961 . S
H1068 C1080 0.959 . S
H1069 C1083 0.929 . S
H1070 C1084 0.931 . S
H1071 C1086 0.930 . S
C1072 H1060 0.930 . S
C1072 C1073 1.399 . S
C1072 C1077 1.399 . S
C1073 C1072 1.399 . S
C1073 C1074 1.376 . S
C1074 H1061 0.930 . S
C1074 C1073 1.376 . S
C1074 C1075 1.388 . S
C1075 H1062 0.930 . S
C1075 C1074 1.388 . S
C1075 C1076 1.390 . S
C1076 C1075 1.390 . S
C1076 C1077 1.394 . S
C1076 C1082 1.465 . S
C1077 C1072 1.399 . S
C1077 C1076 1.394 . S
C1077 C1078 1.516 . S
C1078 C1077 1.516 . S
C1078 C1079 1.502 . S
C1078 C1080 1.561 . S
C1078 C1081 1.526 . S
C1079 H1063 0.959 . S
C1079 H1064 0.959 . S
C1079 H1065 0.961 . S
C1079 C1078 1.502 . S
C1080 H1066 0.960 . S
C1080 H1067 0.961 . S
C1080 H1068 0.959 . S
C1080 C1078 1.561 . S
C1081 C1078 1.526 . S
C1081 C1082 1.396 . S
C1081 C1086 1.390 . S
C1082 C1076 1.465 . S
C1082 C1081 1.396 . S
C1082 C1083 1.399 . S
C1083 H1069 0.929 . S
C1083 C1082 1.399 . S
C1083 C1084 1.385 . S
C1084 H1070 0.931 . S
C1084 C1083 1.385 . S
C1084 C1085 1.389 . S
C1085 C1084 1.389 . S
C1085 C1086 1.387 . S
C1086 H1071 0.930 . S
C1086 C1081 1.390 . S
C1086 C1085 1.387 . S
H1087 C1099 0.930 . S
H1088 C1101 0.930 . S
H1089 C1102 0.930 . S
H1090 C1106 0.959 . S
H1091 C1106 0.959 . S
H1092 C1106 0.961 . S
H1093 C1107 0.960 . S
H1094 C1107 0.961 . S
H1095 C1107 0.959 . S
H1096 C1110 0.929 . S
H1097 C1111 0.931 . S
H1098 C1113 0.930 . S
C1099 H1087 0.930 . S
C1099 C1100 1.399 . S
C1099 C1104 1.399 . S
C1100 C1099 1.399 . S
C1100 C1101 1.376 . S
C1101 H1088 0.930 . S
C1101 C1100 1.376 . S
C1101 C1102 1.388 . S
C1102 H1089 0.930 . S
C1102 C1101 1.388 . S
C1102 C1103 1.390 . S
C1103 C1102 1.390 . S
C1103 C1104 1.394 . S
C1103 C1109 1.465 . S
C1104 C1099 1.399 . S
C1104 C1103 1.394 . S
C1104 C1105 1.516 . S
C1105 C1104 1.516 . S
C1105 C1106 1.502 . S
C1105 C1107 1.561 . S
C1105 C1108 1.526 . S
C1106 H1090 0.959 . S
C1106 H1091 0.959 . S
C1106 H1092 0.961 . S
C1106 C1105 1.502 . S
C1107 H1093 0.960 . S
C1107 H1094 0.961 . S
C1107 H1095 0.959 . S
C1107 C1105 1.561 . S
C1108 C1105 1.526 . S
C1108 C1109 1.396 . S
C1108 C1113 1.390 . S
C1109 C1103 1.465 . S
C1109 C1108 1.396 . S
C1109 C1110 1.399 . S
C1110 H1096 0.929 . S
C1110 C1109 1.399 . S
C1110 C1111 1.385 . S
C1111 H1097 0.931 . S
C1111 C1110 1.385 . S
C1111 C1112 1.389 . S
C1112 C1111 1.389 . S
C1112 C1113 1.387 . S
C1113 H1098 0.930 . S
C1113 C1108 1.390 . S
C1113 C1112 1.387 . S
H1114 C1126 0.930 . S
H1115 C1128 0.930 . S
H1116 C1129 0.930 . S
H1117 C1133 0.959 . S
H1118 C1133 0.959 . S
H1119 C1133 0.961 . S
H1120 C1134 0.960 . S
H1121 C1134 0.961 . S
H1122 C1134 0.959 . S
H1123 C1137 0.929 . S
H1124 C1138 0.931 . S
H1125 C1140 0.930 . S
C1126 H1114 0.930 . S
C1126 C1127 1.399 . S
C1126 C1131 1.399 . S
C1127 C1126 1.399 . S
C1127 C1128 1.376 . S
C1128 H1115 0.930 . S
C1128 C1127 1.376 . S
C1128 C1129 1.388 . S
C1129 H1116 0.930 . S
C1129 C1128 1.388 . S
C1129 C1130 1.390 . S
C1130 C1129 1.390 . S
C1130 C1131 1.394 . S
C1130 C1136 1.465 . S
C1131 C1126 1.399 . S
C1131 C1130 1.394 . S
C1131 C1132 1.516 . S
C1132 C1131 1.516 . S
C1132 C1133 1.502 . S
C1132 C1134 1.561 . S
C1132 C1135 1.526 . S
C1133 H1117 0.959 . S
C1133 H1118 0.959 . S
C1133 H1119 0.961 . S
C1133 C1132 1.502 . S
C1134 H1120 0.960 . S
C1134 H1121 0.961 . S
C1134 H1122 0.959 . S
C1134 C1132 1.561 . S
C1135 C1132 1.526 . S
C1135 C1136 1.396 . S
C1135 C1140 1.390 . S
C1136 C1130 1.465 . S
C1136 C1135 1.396 . S
C1136 C1137 1.399 . S
C1137 H1123 0.929 . S
C1137 C1136 1.399 . S
C1137 C1138 1.385 . S
C1138 H1124 0.931 . S
C1138 C1137 1.385 . S
C1138 C1139 1.389 . S
C1139 C1138 1.389 . S
C1139 C1140 1.387 . S
C1140 H1125 0.930 . S
C1140 C1135 1.390 . S
C1140 C1139 1.387 . S
H1141 C1153 0.930 . S
H1142 C1155 0.930 . S
H1143 C1156 0.930 . S
H1144 C1160 0.959 . S
H1145 C1160 0.959 . S
H1146 C1160 0.961 . S
H1147 C1161 0.960 . S
H1148 C1161 0.961 . S
H1149 C1161 0.959 . S
H1150 C1164 0.929 . S
H1151 C1165 0.931 . S
H1152 C1167 0.930 . S
C1153 H1141 0.930 . S
C1153 C1154 1.399 . S
C1153 C1158 1.399 . S
C1154 C1153 1.399 . S
C1154 C1155 1.376 . S
C1155 H1142 0.930 . S
C1155 C1154 1.376 . S
C1155 C1156 1.388 . S
C1156 H1143 0.930 . S
C1156 C1155 1.388 . S
C1156 C1157 1.390 . S
C1157 C1156 1.390 . S
C1157 C1158 1.394 . S
C1157 C1163 1.465 . S
C1158 C1153 1.399 . S
C1158 C1157 1.394 . S
C1158 C1159 1.516 . S
C1159 C1158 1.516 . S
C1159 C1160 1.502 . S
C1159 C1161 1.561 . S
C1159 C1162 1.526 . S
C1160 H1144 0.959 . S
C1160 H1145 0.959 . S
C1160 H1146 0.961 . S
C1160 C1159 1.502 . S
C1161 H1147 0.960 . S
C1161 H1148 0.961 . S
C1161 H1149 0.959 . S
C1161 C1159 1.561 . S
C1162 C1159 1.526 . S
C1162 C1163 1.396 . S
C1162 C1167 1.390 . S
C1163 C1157 1.465 . S
C1163 C1162 1.396 . S
C1163 C1164 1.399 . S
C1164 H1150 0.929 . S
C1164 C1163 1.399 . S
C1164 C1165 1.385 . S
C1165 H1151 0.931 . S
C1165 C1164 1.385 . S
C1165 C1166 1.389 . S
C1166 C1165 1.389 . S
C1166 C1167 1.387 . S
C1167 H1152 0.930 . S
C1167 C1162 1.390 . S
C1167 C1166 1.387 . S
H1168 C1180 0.930 . S
H1169 C1182 0.930 . S
H1170 C1183 0.930 . S
H1171 C1187 0.959 . S
H1172 C1187 0.959 . S
H1173 C1187 0.961 . S
H1174 C1188 0.960 1_655 S
H1175 C1188 0.961 . S
H1176 C1188 0.959 . S
H1177 C1191 0.929 . S
H1178 C1192 0.931 . S
H1179 C1194 0.930 . S
C1180 H1168 0.930 . S
C1180 C1181 1.399 . S
C1180 C1185 1.399 . S
C1181 C1180 1.399 . S
C1181 C1182 1.376 . S
C1182 H1169 0.930 . S
C1182 C1181 1.376 . S
C1182 C1183 1.388 . S
C1183 H1170 0.930 . S
C1183 C1182 1.388 . S
C1183 C1184 1.390 . S
C1184 C1183 1.390 . S
C1184 C1185 1.394 . S
C1184 C1190 1.465 1_655 S
C1185 C1180 1.399 . S
C1185 C1184 1.394 . S
C1185 C1186 1.516 . S
C1186 C1185 1.516 . S
C1186 C1187 1.502 . S
C1186 C1188 1.561 1_655 S
C1186 C1189 1.526 1_655 S
C1187 H1171 0.959 . S
C1187 H1172 0.959 . S
C1187 H1173 0.961 . S
C1187 C1186 1.502 . S
C1188 H1174 0.960 1_455 S
C1188 H1175 0.961 . S
C1188 H1176 0.959 . S
C1188 C1186 1.561 1_455 S
C1189 C1186 1.526 1_455 S
C1189 C1190 1.396 . S
C1189 C1194 1.390 . S
C1190 C1184 1.465 1_455 S
C1190 C1189 1.396 . S
C1190 C1191 1.399 . S
C1191 H1177 0.929 . S
C1191 C1190 1.399 . S
C1191 C1192 1.385 . S
C1192 H1178 0.931 . S
C1192 C1191 1.385 . S
C1192 C1193 1.389 . S
C1193 C1192 1.389 . S
C1193 C1194 1.387 . S
C1194 H1179 0.930 . S
C1194 C1189 1.390 . S
C1194 C1193 1.387 . S
H1195 C1207 0.930 . S
H1196 C1209 0.930 . S
H1197 C1210 0.930 1_545 S
H1198 C1214 0.959 . S
H1199 C1214 0.959 . S
H1200 C1214 0.961 . S
H1201 C1215 0.960 1_565 S
H1202 C1215 0.961 . S
H1203 C1215 0.959 . S
H1204 C1218 0.929 . S
H1205 C1219 0.931 . S
H1206 C1221 0.930 . S
C1207 H1195 0.930 . S
C1207 C1208 1.399 . S
C1207 C1212 1.399 . S
C1208 C1207 1.399 . S
C1208 C1209 1.376 . S
C1209 H1196 0.930 . S
C1209 C1208 1.376 . S
C1209 C1210 1.388 . S
C1210 H1197 0.930 1_565 S
C1210 C1209 1.388 . S
C1210 C1211 1.390 . S
C1211 C1210 1.390 . S
C1211 C1212 1.394 . S
C1211 C1217 1.465 1_565 S
C1212 C1207 1.399 . S
C1212 C1211 1.394 . S
C1212 C1213 1.516 . S
C1213 C1212 1.516 . S
C1213 C1214 1.502 . S
C1213 C1215 1.561 1_565 S
C1213 C1216 1.526 1_565 S
C1214 H1198 0.959 . S
C1214 H1199 0.959 . S
C1214 H1200 0.961 . S
C1214 C1213 1.502 . S
C1215 H1201 0.960 1_545 S
C1215 H1202 0.961 . S
C1215 H1203 0.959 . S
C1215 C1213 1.561 1_545 S
C1216 C1213 1.526 1_545 S
C1216 C1217 1.396 . S
C1216 C1221 1.390 . S
C1217 C1211 1.465 1_545 S
C1217 C1216 1.396 . S
C1217 C1218 1.399 . S
C1218 H1204 0.929 . S
C1218 C1217 1.399 . S
C1218 C1219 1.385 . S
C1219 H1205 0.931 . S
C1219 C1218 1.385 . S
C1219 C1220 1.389 . S
C1220 C1219 1.389 . S
C1220 C1221 1.387 . S
C1221 H1206 0.930 . S
C1221 C1216 1.390 . S
C1221 C1220 1.387 . S
H1222 C1234 0.930 . S
H1223 C1236 0.930 . S
H1224 C1237 0.930 1_655 S
H1225 C1241 0.959 1_554 S
H1226 C1241 0.959 . S
H1227 C1241 0.961 . S
H1228 C1242 0.960 . S
H1229 C1242 0.961 . S
H1230 C1242 0.959 . S
H1231 C1245 0.929 . S
H1232 C1246 0.931 . S
H1233 C1248 0.930 . S
C1234 H1222 0.930 . S
C1234 C1235 1.399 . S
C1234 C1239 1.399 . S
C1235 C1234 1.399 . S
C1235 C1236 1.376 1_556 S
C1236 H1223 0.930 . S
C1236 C1235 1.376 1_554 S
C1236 C1237 1.388 . S
C1237 H1224 0.930 1_455 S
C1237 C1236 1.388 . S
C1237 C1238 1.390 . S
C1238 C1237 1.390 . S
C1238 C1239 1.394 1_554 S
C1238 C1244 1.465 1_455 S
C1239 C1234 1.399 . S
C1239 C1238 1.394 1_556 S
C1239 C1240 1.516 1_565 S
C1240 C1239 1.516 1_545 S
C1240 C1241 1.502 . S
C1240 C1242 1.561 . S
C1240 C1243 1.526 1_455 S
C1241 H1225 0.959 1_556 S
C1241 H1226 0.959 . S
C1241 H1227 0.961 . S
C1241 C1240 1.502 . S
C1242 H1228 0.960 . S
C1242 H1229 0.961 . S
C1242 H1230 0.959 . S
C1242 C1240 1.561 . S
C1243 C1240 1.526 1_655 S
C1243 C1244 1.396 1_546 S
C1243 C1248 1.390 . S
C1244 C1238 1.465 1_655 S
C1244 C1243 1.396 1_564 S
C1244 C1245 1.399 . S
C1245 H1231 0.929 . S
C1245 C1244 1.399 . S
C1245 C1246 1.385 1_565 S
C1246 H1232 0.931 . S
C1246 C1245 1.385 1_545 S
C1246 C1247 1.389 . S
C1247 C1246 1.389 . S
C1247 C1248 1.387 1_554 S
C1248 H1233 0.930 . S
C1248 C1243 1.390 . S
C1248 C1247 1.387 1_556 S
H1249 C1261 0.930 . S
H1250 C1263 0.930 . S
H1251 C1264 0.930 . S
H1252 C1268 0.959 . S
H1253 C1268 0.959 . S
H1254 C1268 0.961 . S
H1255 C1269 0.960 . S
H1256 C1269 0.961 . S
H1257 C1269 0.959 . S
H1258 C1272 0.929 . S
H1259 C1273 0.931 . S
H1260 C1275 0.930 . S
C1261 H1249 0.930 . S
C1261 C1262 1.399 1_556 S
C1261 C1266 1.399 . S
C1262 C1261 1.399 1_554 S
C1262 C1263 1.376 . S
C1263 H1250 0.930 . S
C1263 C1262 1.376 . S
C1263 C1264 1.388 . S
C1264 H1251 0.930 . S
C1264 C1263 1.388 . S
C1264 C1265 1.390 . S
C1265 C1264 1.390 . S
C1265 C1266 1.394 1_554 S
C1265 C1271 1.465 . S
C1266 C1261 1.399 . S
C1266 C1265 1.394 1_556 S
C1266 C1267 1.516 . S
C1267 C1266 1.516 . S
C1267 C1268 1.502 . S
C1267 C1269 1.561 . S
C1267 C1270 1.526 . S
C1268 H1252 0.959 . S
C1268 H1253 0.959 . S
C1268 H1254 0.961 . S
C1268 C1267 1.502 . S
C1269 H1255 0.960 . S
C1269 H1256 0.961 . S
C1269 H1257 0.959 . S
C1269 C1267 1.561 . S
C1270 C1267 1.526 . S
C1270 C1271 1.396 1_556 S
C1270 C1275 1.390 . S
C1271 C1265 1.465 . S
C1271 C1270 1.396 1_554 S
C1271 C1272 1.399 . S
C1272 H1258 0.929 . S
C1272 C1271 1.399 . S
C1272 C1273 1.385 . S
C1273 H1259 0.931 . S
C1273 C1272 1.385 . S
C1273 C1274 1.370 1_554 S
C1274 C1273 1.370 1_556 S
C1274 C1275 1.402 . S
C1275 H1260 0.930 . S
C1275 C1270 1.390 . S
C1275 C1274 1.402 . S
H1276 C1288 0.930 . S
H1277 C1290 0.930 . S
H1278 C1291 0.930 . S
H1279 C1295 0.959 . S
H1280 C1295 0.959 . S
H1281 C1295 0.961 . S
H1282 C1296 0.975 . S
H1283 C1296 0.961 . S
H1284 C1296 0.959 . S
H1285 C1299 0.929 . S
H1286 C1300 0.931 . S
H1287 C1302 0.930 . S
C1288 H1276 0.930 . S
C1288 C1289 1.399 . S
C1288 C1293 1.399 . S
C1289 C1288 1.399 . S
C1289 C1290 1.376 . S
C1290 H1277 0.930 . S
C1290 C1289 1.376 . S
C1290 C1291 1.388 . S
C1291 H1278 0.930 . S
C1291 C1290 1.388 . S
C1291 C1292 1.390 . S
C1292 C1291 1.390 . S
C1292 C1293 1.394 . S
C1292 C1298 1.465 1_655 S
C1293 C1288 1.399 . S
C1293 C1292 1.394 . S
C1293 C1294 1.516 . S
C1294 C1293 1.516 . S
C1294 C1295 1.502 . S
C1294 C1296 1.561 1_655 S
C1294 C1297 1.526 1_655 S
C1295 H1279 0.959 . S
C1295 H1280 0.959 . S
C1295 H1281 0.961 . S
C1295 C1294 1.502 . S
C1296 H1282 0.975 . S
C1296 H1283 0.961 . S
C1296 H1284 0.959 . S
C1296 C1294 1.561 1_455 S
C1297 C1294 1.526 1_455 S
C1297 C1298 1.396 . S
C1297 C1302 1.390 . S
C1298 C1292 1.465 1_455 S
C1298 C1297 1.396 . S
C1298 C1299 1.399 . S
C1299 H1285 0.929 . S
C1299 C1298 1.399 . S
C1299 C1300 1.385 . S
C1300 H1286 0.931 . S
C1300 C1299 1.385 . S
C1300 C1301 1.389 . S
C1301 C1300 1.389 . S
C1301 C1302 1.387 . S
C1302 H1287 0.930 . S
C1302 C1297 1.390 . S
C1302 C1301 1.387 . S
H1303 C1315 0.930 . S
H1304 C1317 0.930 . S
H1305 C1318 0.937 . S
H1306 C1322 0.959 . S
H1307 C1322 0.959 . S
H1308 C1322 0.961 . S
H1309 C1323 0.954 1_565 S
H1310 C1323 0.961 . S
H1311 C1323 0.959 . S
H1312 C1326 0.929 . S
H1313 C1327 0.931 . S
H1314 C1329 0.930 . S
C1315 H1303 0.930 . S
C1315 C1316 1.399 . S
C1315 C1320 1.399 . S
C1316 C1315 1.399 . S
C1316 C1317 1.376 . S
C1317 H1304 0.930 . S
C1317 C1316 1.376 . S
C1317 C1318 1.388 . S
C1318 H1305 0.937 . S
C1318 C1317 1.388 . S
C1318 C1319 1.390 . S
C1319 C1318 1.390 . S
C1319 C1320 1.394 . S
C1319 C1325 1.465 1_565 S
C1320 C1315 1.399 . S
C1320 C1319 1.394 . S
C1320 C1321 1.516 . S
C1321 C1320 1.516 . S
C1321 C1322 1.502 . S
C1321 C1323 1.561 1_565 S
C1321 C1324 1.526 1_565 S
C1322 H1306 0.959 . S
C1322 H1307 0.959 . S
C1322 H1308 0.961 . S
C1322 C1321 1.502 . S
C1323 H1309 0.954 1_545 S
C1323 H1310 0.961 . S
C1323 H1311 0.959 . S
C1323 C1321 1.561 1_545 S
C1324 C1321 1.526 1_545 S
C1324 C1325 1.396 . S
C1324 C1329 1.390 . S
C1325 C1319 1.465 1_545 S
C1325 C1324 1.396 . S
C1325 C1326 1.399 . S
C1326 H1312 0.929 . S
C1326 C1325 1.399 . S
C1326 C1327 1.385 . S
C1327 H1313 0.931 . S
C1327 C1326 1.385 . S
C1327 C1328 1.389 . S
C1328 C1327 1.389 . S
C1328 C1329 1.387 . S
C1329 H1314 0.930 . S
C1329 C1324 1.390 . S
C1329 C1328 1.387 . S
H1330 C1342 0.930 . S
H1331 C1344 0.930 . S
H1332 C1345 0.930 . S
H1333 C1349 0.959 . S
H1334 C1349 0.959 . S
H1335 C1349 0.961 . S
H1336 C1350 0.960 . S
H1337 C1350 0.961 . S
H1338 C1350 0.959 . S
H1339 C1353 0.929 . S
H1340 C1354 0.931 . S
H1341 C1356 0.930 . S
C1342 H1330 0.930 . S
C1342 C1343 1.409 . S
C1342 C1347 1.399 . S
C1343 C1342 1.409 . S
C1343 C1344 1.364 1_556 S
C1344 H1331 0.930 . S
C1344 C1343 1.364 1_554 S
C1344 C1345 1.388 . S
C1345 H1332 0.930 . S
C1345 C1344 1.388 . S
C1345 C1346 1.390 . S
C1346 C1345 1.390 . S
C1346 C1347 1.394 1_554 S
C1346 C1352 1.465 . S
C1347 C1342 1.399 . S
C1347 C1346 1.394 1_556 S
C1347 C1348 1.516 . S
C1348 C1347 1.516 . S
C1348 C1349 1.502 . S
C1348 C1350 1.561 . S
C1348 C1351 1.526 . S
C1349 H1333 0.959 . S
C1349 H1334 0.959 . S
C1349 H1335 0.961 . S
C1349 C1348 1.502 . S
C1350 H1336 0.960 . S
C1350 H1337 0.961 . S
C1350 H1338 0.959 . S
C1350 C1348 1.561 . S
C1351 C1348 1.526 . S
C1351 C1352 1.396 1_556 S
C1351 C1356 1.390 . S
C1352 C1346 1.465 . S
C1352 C1351 1.396 1_554 S
C1352 C1353 1.399 . S
C1353 H1339 0.929 . S
C1353 C1352 1.399 . S
C1353 C1354 1.385 . S
C1354 H1340 0.931 . S
C1354 C1353 1.385 . S
C1354 C1355 1.389 . S
C1355 C1354 1.389 . S
C1355 C1356 1.387 1_554 S
C1356 H1341 0.930 . S
C1356 C1351 1.390 . S
C1356 C1355 1.387 1_556 S
H1357 C1369 0.930 . S
H1358 C1371 0.930 . S
H1359 C1372 0.930 . S
H1360 C1376 0.959 . S
H1361 C1376 0.959 . S
H1362 C1376 0.961 . S
H1363 C1377 0.960 . S
H1364 C1377 0.961 . S
H1365 C1377 0.959 . S
H1366 C1380 0.929 . S
H1367 C1381 0.931 . S
H1368 C1383 0.930 . S
C1369 H1357 0.930 . S
C1369 C1370 1.399 . S
C1369 C1374 1.399 . S
C1370 C1369 1.399 . S
C1370 C1371 1.376 . S
C1371 H1358 0.930 . S
C1371 C1370 1.376 . S
C1371 C1372 1.388 . S
C1372 H1359 0.930 . S
C1372 C1371 1.388 . S
C1372 C1373 1.390 . S
C1373 C1372 1.390 . S
C1373 C1374 1.394 . S
C1373 C1379 1.465 . S
C1374 C1369 1.399 . S
C1374 C1373 1.394 . S
C1374 C1375 1.516 . S
C1375 C1374 1.516 . S
C1375 C1376 1.502 . S
C1375 C1377 1.561 . S
C1375 C1378 1.526 . S
C1376 H1360 0.959 . S
C1376 H1361 0.959 . S
C1376 H1362 0.961 . S
C1376 C1375 1.502 . S
C1377 H1363 0.960 . S
C1377 H1364 0.961 . S
C1377 H1365 0.959 . S
C1377 C1375 1.561 . S
C1378 C1375 1.526 . S
C1378 C1379 1.396 . S
C1378 C1383 1.390 . S
C1379 C1373 1.465 . S
C1379 C1378 1.396 . S
C1379 C1380 1.399 . S
C1380 H1366 0.929 . S
C1380 C1379 1.399 . S
C1380 C1381 1.385 . S
C1381 H1367 0.931 . S
C1381 C1380 1.385 . S
C1381 C1382 1.389 . S
C1382 C1381 1.389 . S
C1382 C1383 1.387 . S
C1383 H1368 0.930 . S
C1383 C1378 1.390 . S
C1383 C1382 1.387 . S
H1384 C1396 0.930 . S
H1385 C1398 0.930 . S
H1386 C1399 0.930 . S
H1387 C1403 0.959 . S
H1388 C1403 0.959 . S
H1389 C1403 0.961 . S
H1390 C1404 0.960 . S
H1391 C1404 0.961 1_455 S
H1392 C1404 0.959 . S
H1393 C1407 0.929 . S
H1394 C1408 0.931 . S
H1395 C1410 0.930 . S
C1396 H1384 0.930 . S
C1396 C1397 1.399 . S
C1396 C1401 1.399 . S
C1397 C1396 1.399 . S
C1397 C1398 1.376 . S
C1398 H1385 0.930 . S
C1398 C1397 1.376 . S
C1398 C1399 1.388 . S
C1399 H1386 0.930 . S
C1399 C1398 1.388 . S
C1399 C1400 1.390 . S
C1400 C1399 1.390 . S
C1400 C1401 1.394 . S
C1400 C1406 1.465 1_655 S
C1401 C1396 1.399 . S
C1401 C1400 1.394 . S
C1401 C1402 1.516 1_655 S
C1402 C1401 1.516 1_455 S
C1402 C1403 1.502 . S
C1402 C1404 1.561 1_455 S
C1402 C1405 1.526 . S
C1403 H1387 0.959 . S
C1403 H1388 0.959 . S
C1403 H1389 0.961 . S
C1403 C1402 1.502 . S
C1404 H1390 0.960 . S
C1404 H1391 0.961 1_655 S
C1404 H1392 0.959 . S
C1404 C1402 1.561 1_655 S
C1405 C1402 1.526 . S
C1405 C1406 1.396 . S
C1405 C1410 1.390 . S
C1406 C1400 1.465 1_455 S
C1406 C1405 1.396 . S
C1406 C1407 1.399 . S
C1407 H1393 0.929 . S
C1407 C1406 1.399 . S
C1407 C1408 1.385 . S
C1408 H1394 0.931 . S
C1408 C1407 1.385 . S
C1408 C1409 1.389 . S
C1409 C1408 1.389 . S
C1409 C1410 1.387 . S
C1410 H1395 0.930 . S
C1410 C1405 1.390 . S
C1410 C1409 1.387 . S
H1411 C1423 0.930 . S
H1412 C1425 0.930 . S
H1413 C1426 0.930 . S
H1414 C1430 0.959 . S
H1415 C1430 0.959 . S
H1416 C1430 0.961 . S
H1417 C1431 0.960 . S
H1418 C1431 0.961 . S
H1419 C1431 0.959 . S
H1420 C1434 0.929 . S
H1421 C1435 0.931 . S
H1422 C1437 0.930 . S
C1423 H1411 0.930 . S
C1423 C1424 1.399 . S
C1423 C1428 1.399 . S
C1424 C1423 1.399 . S
C1424 C1425 1.376 . S
C1425 H1412 0.930 . S
C1425 C1424 1.376 . S
C1425 C1426 1.388 . S
C1426 H1413 0.930 . S
C1426 C1425 1.388 . S
C1426 C1427 1.390 . S
C1427 C1426 1.390 . S
C1427 C1428 1.394 . S
C1427 C1433 1.465 . S
C1428 C1423 1.399 . S
C1428 C1427 1.394 . S
C1428 C1429 1.516 . S
C1429 C1428 1.516 . S
C1429 C1430 1.502 . S
C1429 C1431 1.561 . S
C1429 C1432 1.526 . S
C1430 H1414 0.959 . S
C1430 H1415 0.959 . S
C1430 H1416 0.961 . S
C1430 C1429 1.502 . S
C1431 H1417 0.960 . S
C1431 H1418 0.961 . S
C1431 H1419 0.959 . S
C1431 C1429 1.561 . S
C1432 C1429 1.526 . S
C1432 C1433 1.396 . S
C1432 C1437 1.390 . S
C1433 C1427 1.465 . S
C1433 C1432 1.396 . S
C1433 C1434 1.399 . S
C1434 H1420 0.929 . S
C1434 C1433 1.399 . S
C1434 C1435 1.385 . S
C1435 H1421 0.931 . S
C1435 C1434 1.385 . S
C1435 C1436 1.389 . S
C1436 C1435 1.389 . S
C1436 C1437 1.387 . S
C1437 H1422 0.930 . S
C1437 C1432 1.390 . S
C1437 C1436 1.387 . S
H1438 C1450 0.930 . S
H1439 C1452 0.930 . S
H1440 C1453 0.930 . S
H1441 C1457 0.959 . S
H1442 C1457 0.959 . S
H1443 C1457 0.961 . S
H1444 C1458 0.960 . S
H1445 C1458 0.961 . S
H1446 C1458 0.959 . S
H1447 C1461 0.929 . S
H1448 C1462 0.931 . S
H1449 C1464 0.930 . S
C1450 H1438 0.930 . S
C1450 C1451 1.399 . S
C1450 C1455 1.399 . S
C1451 C1450 1.399 . S
C1451 C1452 1.376 . S
C1452 H1439 0.930 . S
C1452 C1451 1.376 . S
C1452 C1453 1.388 . S
C1453 H1440 0.930 . S
C1453 C1452 1.388 . S
C1453 C1454 1.390 . S
C1454 C1453 1.390 . S
C1454 C1455 1.394 . S
C1454 C1460 1.465 . S
C1455 C1450 1.399 . S
C1455 C1454 1.394 . S
C1455 C1456 1.516 . S
C1456 C1455 1.516 . S
C1456 C1457 1.502 . S
C1456 C1458 1.561 . S
C1456 C1459 1.526 . S
C1457 H1441 0.959 . S
C1457 H1442 0.959 . S
C1457 H1443 0.961 . S
C1457 C1456 1.502 . S
C1458 H1444 0.960 . S
C1458 H1445 0.961 . S
C1458 H1446 0.959 . S
C1458 C1456 1.561 . S
C1459 C1456 1.526 . S
C1459 C1460 1.396 . S
C1459 C1464 1.390 . S
C1460 C1454 1.465 . S
C1460 C1459 1.396 . S
C1460 C1461 1.399 . S
C1461 H1447 0.929 . S
C1461 C1460 1.399 . S
C1461 C1462 1.385 . S
C1462 H1448 0.931 . S
C1462 C1461 1.385 . S
C1462 C1463 1.389 . S
C1463 C1462 1.389 . S
C1463 C1464 1.387 . S
C1464 H1449 0.930 . S
C1464 C1459 1.390 . S
C1464 C1463 1.387 . S
H1465 C1477 0.930 . S
H1466 C1479 0.930 . S
H1467 C1480 0.930 . S
H1468 C1484 0.959 . S
H1469 C1484 0.959 . S
H1470 C1484 0.961 . S
H1471 C1485 0.960 . S
H1472 C1485 0.961 . S
H1473 C1485 0.959 . S
H1474 C1488 0.929 . S
H1475 C1489 0.931 . S
H1476 C1491 0.930 . S
C1477 H1465 0.930 . S
C1477 C1478 1.399 . S
C1477 C1482 1.399 . S
C1478 C1477 1.399 . S
C1478 C1479 1.376 . S
C1479 H1466 0.930 . S
C1479 C1478 1.376 . S
C1479 C1480 1.388 . S
C1480 H1467 0.930 . S
C1480 C1479 1.388 . S
C1480 C1481 1.390 . S
C1481 C1480 1.390 . S
C1481 C1482 1.394 . S
C1481 C1487 1.465 . S
C1482 C1477 1.399 . S
C1482 C1481 1.394 . S
C1482 C1483 1.516 . S
C1483 C1482 1.516 . S
C1483 C1484 1.502 . S
C1483 C1485 1.561 . S
C1483 C1486 1.526 . S
C1484 H1468 0.959 . S
C1484 H1469 0.959 . S
C1484 H1470 0.961 . S
C1484 C1483 1.502 . S
C1485 H1471 0.960 . S
C1485 H1472 0.961 . S
C1485 H1473 0.959 . S
C1485 C1483 1.561 . S
C1486 C1483 1.526 . S
C1486 C1487 1.396 . S
C1486 C1491 1.390 . S
C1487 C1481 1.465 . S
C1487 C1486 1.396 . S
C1487 C1488 1.399 . S
C1488 H1474 0.929 . S
C1488 C1487 1.399 . S
C1488 C1489 1.385 . S
C1489 H1475 0.931 . S
C1489 C1488 1.385 . S
C1489 C1490 1.389 . S
C1490 C1489 1.389 . S
C1490 C1491 1.387 . S
C1491 H1476 0.930 . S
C1491 C1486 1.390 . S
C1491 C1490 1.387 . S
H1492 C1504 0.930 . S
H1493 C1506 0.930 . S
H1494 C1507 0.930 . S
H1495 C1511 0.959 . S
H1496 C1511 0.959 . S
H1497 C1511 0.961 . S
H1498 C1512 0.960 . S
H1499 C1512 0.961 . S
H1500 C1512 0.959 . S
H1501 C1515 0.929 . S
H1502 C1516 0.931 . S
H1503 C1518 0.930 . S
C1504 H1492 0.930 . S
C1504 C1505 1.399 . S
C1504 C1509 1.399 . S
C1505 C1504 1.399 . S
C1505 C1506 1.376 . S
C1506 H1493 0.930 . S
C1506 C1505 1.376 . S
C1506 C1507 1.388 . S
C1507 H1494 0.930 . S
C1507 C1506 1.388 . S
C1507 C1508 1.390 . S
C1508 C1507 1.390 . S
C1508 C1509 1.394 . S
C1508 C1514 1.465 . S
C1509 C1504 1.399 . S
C1509 C1508 1.394 . S
C1509 C1510 1.516 . S
C1510 C1509 1.516 . S
C1510 C1511 1.502 . S
C1510 C1512 1.561 . S
C1510 C1513 1.526 . S
C1511 H1495 0.959 . S
C1511 H1496 0.959 . S
C1511 H1497 0.961 . S
C1511 C1510 1.502 . S
C1512 H1498 0.960 . S
C1512 H1499 0.961 . S
C1512 H1500 0.959 . S
C1512 C1510 1.561 . S
C1513 C1510 1.526 . S
C1513 C1514 1.396 . S
C1513 C1518 1.390 . S
C1514 C1508 1.465 . S
C1514 C1513 1.396 . S
C1514 C1515 1.399 . S
C1515 H1501 0.929 . S
C1515 C1514 1.399 . S
C1515 C1516 1.385 . S
C1516 H1502 0.931 . S
C1516 C1515 1.385 . S
C1516 C1517 1.389 . S
C1517 C1516 1.389 . S
C1517 C1518 1.387 . S
C1518 H1503 0.930 . S
C1518 C1513 1.390 . S
C1518 C1517 1.387 . S
H1519 C1531 0.930 . S
H1520 C1533 0.930 . S
H1521 C1534 0.914 1_565 S
H1522 C1538 0.959 . S
H1523 C1538 0.959 . S
H1524 C1538 0.961 . S
H1525 C1539 0.960 1_545 S
H1526 C1539 0.961 . S
H1527 C1539 0.959 . S
H1528 C1542 0.929 . S
H1529 C1543 0.931 . S
H1530 C1545 0.930 . S
C1531 H1519 0.930 . S
C1531 C1532 1.399 . S
C1531 C1536 1.399 . S
C1532 C1531 1.399 . S
C1532 C1533 1.376 . S
C1533 H1520 0.930 . S
C1533 C1532 1.376 . S
C1533 C1534 1.388 . S
C1534 H1521 0.914 1_545 S
C1534 C1533 1.388 . S
C1534 C1535 1.390 . S
C1535 C1534 1.390 . S
C1535 C1536 1.394 . S
C1535 C1541 1.465 1_545 S
C1536 C1531 1.399 . S
C1536 C1535 1.394 . S
C1536 C1537 1.516 . S
C1537 C1536 1.516 . S
C1537 C1538 1.502 . S
C1537 C1539 1.561 1_545 S
C1537 C1540 1.526 1_545 S
C1538 H1522 0.959 . S
C1538 H1523 0.959 . S
C1538 H1524 0.961 . S
C1538 C1537 1.502 . S
C1539 H1525 0.960 1_565 S
C1539 H1526 0.961 . S
C1539 H1527 0.959 . S
C1539 C1537 1.561 1_565 S
C1540 C1537 1.526 1_565 S
C1540 C1541 1.396 . S
C1540 C1545 1.390 . S
C1541 C1535 1.465 1_565 S
C1541 C1540 1.396 . S
C1541 C1542 1.399 . S
C1542 H1528 0.929 . S
C1542 C1541 1.399 . S
C1542 C1543 1.385 . S
C1543 H1529 0.931 . S
C1543 C1542 1.385 . S
C1543 C1544 1.389 . S
C1544 C1543 1.389 . S
C1544 C1545 1.387 . S
C1545 H1530 0.930 . S
C1545 C1540 1.390 . S
C1545 C1544 1.387 . S
H1546 C1558 0.930 . S
H1547 C1560 0.930 . S
H1548 C1561 0.930 . S
H1549 C1565 0.959 . S
H1550 C1565 0.959 . S
H1551 C1565 0.961 . S
H1552 C1566 0.960 . S
H1553 C1566 0.961 . S
H1554 C1566 0.959 . S
H1555 C1569 0.929 . S
H1556 C1570 0.931 . S
H1557 C1572 0.930 . S
C1558 H1546 0.930 . S
C1558 C1559 1.399 . S
C1558 C1563 1.399 . S
C1559 C1558 1.399 . S
C1559 C1560 1.376 . S
C1560 H1547 0.930 . S
C1560 C1559 1.376 . S
C1560 C1561 1.388 . S
C1561 H1548 0.930 . S
C1561 C1560 1.388 . S
C1561 C1562 1.390 . S
C1562 C1561 1.390 . S
C1562 C1563 1.394 . S
C1562 C1568 1.465 . S
C1563 C1558 1.399 . S
C1563 C1562 1.394 . S
C1563 C1564 1.516 . S
C1564 C1563 1.516 . S
C1564 C1565 1.502 . S
C1564 C1566 1.561 . S
C1564 C1567 1.526 . S
C1565 H1549 0.959 . S
C1565 H1550 0.959 . S
C1565 H1551 0.961 . S
C1565 C1564 1.502 . S
C1566 H1552 0.960 . S
C1566 H1553 0.961 . S
C1566 H1554 0.959 . S
C1566 C1564 1.561 . S
C1567 C1564 1.526 . S
C1567 C1568 1.396 . S
C1567 C1572 1.390 . S
C1568 C1562 1.465 . S
C1568 C1567 1.396 . S
C1568 C1569 1.399 . S
C1569 H1555 0.929 . S
C1569 C1568 1.399 . S
C1569 C1570 1.385 . S
C1570 H1556 0.931 . S
C1570 C1569 1.385 . S
C1570 C1571 1.389 . S
C1571 C1570 1.389 . S
C1571 C1572 1.387 . S
C1572 H1557 0.930 . S
C1572 C1567 1.390 . S
C1572 C1571 1.387 . S
H1573 C1585 0.930 . S
H1574 C1587 0.930 . S
H1575 C1588 0.930 . S
H1576 C1592 0.959 . S
H1577 C1592 0.959 . S
H1578 C1592 0.961 . S
H1579 C1593 0.960 . S
H1580 C1593 0.961 . S
H1581 C1593 0.959 . S
H1582 C1596 0.929 . S
H1583 C1597 0.931 . S
H1584 C1599 0.930 . S
C1585 H1573 0.930 . S
C1585 C1586 1.409 . S
C1585 C1590 1.399 . S
C1586 C1585 1.409 . S
C1586 C1587 1.364 1_556 S
C1587 H1574 0.930 . S
C1587 C1586 1.364 1_554 S
C1587 C1588 1.388 . S
C1588 H1575 0.930 . S
C1588 C1587 1.388 . S
C1588 C1589 1.390 . S
C1589 C1588 1.390 . S
C1589 C1590 1.394 1_554 S
C1589 C1595 1.465 . S
C1590 C1585 1.399 . S
C1590 C1589 1.394 1_556 S
C1590 C1591 1.516 . S
C1591 C1590 1.516 . S
C1591 C1592 1.502 . S
C1591 C1593 1.561 . S
C1591 C1594 1.526 . S
C1592 H1576 0.959 . S
C1592 H1577 0.959 . S
C1592 H1578 0.961 . S
C1592 C1591 1.502 . S
C1593 H1579 0.960 . S
C1593 H1580 0.961 . S
C1593 H1581 0.959 . S
C1593 C1591 1.561 . S
C1594 C1591 1.526 . S
C1594 C1595 1.396 1_556 S
C1594 C1599 1.390 . S
C1595 C1589 1.465 . S
C1595 C1594 1.396 1_554 S
C1595 C1596 1.399 . S
C1596 H1582 0.929 . S
C1596 C1595 1.399 . S
C1596 C1597 1.385 . S
C1597 H1583 0.931 . S
C1597 C1596 1.385 . S
C1597 C1598 1.389 . S
C1598 C1597 1.389 . S
C1598 C1599 1.387 1_554 S
C1599 H1584 0.930 . S
C1599 C1594 1.390 . S
C1599 C1598 1.387 1_556 S
H1600 C1612 0.930 . S
H1601 C1614 0.930 . S
H1602 C1615 0.930 . S
H1603 C1619 0.959 . S
H1604 C1619 0.959 . S
H1605 C1619 0.961 . S
H1606 C1620 0.960 . S
H1607 C1620 0.961 . S
H1608 C1620 0.959 . S
H1609 C1623 0.929 . S
H1610 C1624 0.931 . S
H1611 C1626 0.930 . S
C1612 H1600 0.930 . S
C1612 C1613 1.399 . S
C1612 C1617 1.399 . S
C1613 C1612 1.399 . S
C1613 C1614 1.376 . S
C1614 H1601 0.930 . S
C1614 C1613 1.376 . S
C1614 C1615 1.388 . S
C1615 H1602 0.930 . S
C1615 C1614 1.388 . S
C1615 C1616 1.390 . S
C1616 C1615 1.390 . S
C1616 C1617 1.394 . S
C1616 C1622 1.465 . S
C1617 C1612 1.399 . S
C1617 C1616 1.394 . S
C1617 C1618 1.516 . S
C1618 C1617 1.516 . S
C1618 C1619 1.502 . S
C1618 C1620 1.561 . S
C1618 C1621 1.526 . S
C1619 H1603 0.959 . S
C1619 H1604 0.959 . S
C1619 H1605 0.961 . S
C1619 C1618 1.502 . S
C1620 H1606 0.960 . S
C1620 H1607 0.961 . S
C1620 H1608 0.959 . S
C1620 C1618 1.561 . S
C1621 C1618 1.526 . S
C1621 C1622 1.396 . S
C1621 C1626 1.390 . S
C1622 C1616 1.465 . S
C1622 C1621 1.396 . S
C1622 C1623 1.399 . S
C1623 H1609 0.929 . S
C1623 C1622 1.399 . S
C1623 C1624 1.385 . S
C1624 H1610 0.931 . S
C1624 C1623 1.385 . S
C1624 C1625 1.389 . S
C1625 C1624 1.389 . S
C1625 C1626 1.387 . S
C1626 H1611 0.930 . S
C1626 C1621 1.390 . S
C1626 C1625 1.387 . S
H1627 C1639 0.930 . S
H1628 C1641 0.930 . S
H1629 C1642 0.930 . S
H1630 C1646 0.959 . S
H1631 C1646 0.959 . S
H1632 C1646 0.961 . S
H1633 C1647 0.960 . S
H1634 C1647 0.961 . S
H1635 C1647 0.959 . S
H1636 C1650 0.929 . S
H1637 C1651 0.931 . S
H1638 C1653 0.930 . S
C1639 H1627 0.930 . S
C1639 C1640 1.399 . S
C1639 C1644 1.399 . S
C1640 C1639 1.399 . S
C1640 C1641 1.376 . S
C1641 H1628 0.930 . S
C1641 C1640 1.376 . S
C1641 C1642 1.388 . S
C1642 H1629 0.930 . S
C1642 C1641 1.388 . S
C1642 C1643 1.390 . S
C1643 C1642 1.390 . S
C1643 C1644 1.394 . S
C1643 C1649 1.465 . S
C1644 C1639 1.399 . S
C1644 C1643 1.394 . S
C1644 C1645 1.516 . S
C1645 C1644 1.516 . S
C1645 C1646 1.502 . S
C1645 C1647 1.561 . S
C1645 C1648 1.526 . S
C1646 H1630 0.959 . S
C1646 H1631 0.959 . S
C1646 H1632 0.961 . S
C1646 C1645 1.502 . S
C1647 H1633 0.960 . S
C1647 H1634 0.961 . S
C1647 H1635 0.959 . S
C1647 C1645 1.561 . S
C1648 C1645 1.526 . S
C1648 C1649 1.396 . S
C1648 C1653 1.390 . S
C1649 C1643 1.465 . S
C1649 C1648 1.396 . S
C1649 C1650 1.399 . S
C1650 H1636 0.929 . S
C1650 C1649 1.399 . S
C1650 C1651 1.385 . S
C1651 H1637 0.931 . S
C1651 C1650 1.385 . S
C1651 C1652 1.389 . S
C1652 C1651 1.389 . S
C1652 C1653 1.387 . S
C1653 H1638 0.930 . S
C1653 C1648 1.390 . S
C1653 C1652 1.387 . S
H1654 C1666 0.930 . S
H1655 C1668 0.930 . S
H1656 C1669 0.930 . S
H1657 C1673 0.959 . S
H1658 C1673 0.959 . S
H1659 C1673 0.961 . S
H1660 C1674 0.960 . S
H1661 C1674 0.961 . S
H1662 C1674 0.959 . S
H1663 C1677 0.929 . S
H1664 C1678 0.931 . S
H1665 C1680 0.930 . S
C1666 H1654 0.930 . S
C1666 C1667 1.399 . S
C1666 C1671 1.399 . S
C1667 C1666 1.399 . S
C1667 C1668 1.376 . S
C1668 H1655 0.930 . S
C1668 C1667 1.376 . S
C1668 C1669 1.388 . S
C1669 H1656 0.930 . S
C1669 C1668 1.388 . S
C1669 C1670 1.390 . S
C1670 C1669 1.390 . S
C1670 C1671 1.394 . S
C1670 C1676 1.465 . S
C1671 C1666 1.399 . S
C1671 C1670 1.394 . S
C1671 C1672 1.516 . S
C1672 C1671 1.516 . S
C1672 C1673 1.502 . S
C1672 C1674 1.561 . S
C1672 C1675 1.526 . S
C1673 H1657 0.959 . S
C1673 H1658 0.959 . S
C1673 H1659 0.961 . S
C1673 C1672 1.502 . S
C1674 H1660 0.960 . S
C1674 H1661 0.961 . S
C1674 H1662 0.959 . S
C1674 C1672 1.561 . S
C1675 C1672 1.526 . S
C1675 C1676 1.396 . S
C1675 C1680 1.390 . S
C1676 C1670 1.465 . S
C1676 C1675 1.396 . S
C1676 C1677 1.399 . S
C1677 H1663 0.929 . S
C1677 C1676 1.399 . S
C1677 C1678 1.385 . S
C1678 H1664 0.931 . S
C1678 C1677 1.385 . S
C1678 C1679 1.389 . S
C1679 C1678 1.389 . S
C1679 C1680 1.387 . S
C1680 H1665 0.930 . S
C1680 C1675 1.390 . S
C1680 C1679 1.387 . S
H1681 C1693 0.930 . S
H1682 C1695 0.930 . S
H1683 C1696 0.930 . S
H1684 C1700 0.959 . S
H1685 C1700 0.959 . S
H1686 C1700 0.961 . S
H1687 C1701 0.960 . S
H1688 C1701 0.961 . S
H1689 C1701 0.959 . S
H1690 C1704 0.929 . S
H1691 C1705 0.931 . S
H1692 C1707 0.930 . S
C1693 H1681 0.930 . S
C1693 C1694 1.399 . S
C1693 C1698 1.399 . S
C1694 C1693 1.399 . S
C1694 C1695 1.376 . S
C1695 H1682 0.930 . S
C1695 C1694 1.376 . S
C1695 C1696 1.388 . S
C1696 H1683 0.930 . S
C1696 C1695 1.388 . S
C1696 C1697 1.390 . S
C1697 C1696 1.390 . S
C1697 C1698 1.394 . S
C1697 C1703 1.465 . S
C1698 C1693 1.399 . S
C1698 C1697 1.394 . S
C1698 C1699 1.516 . S
C1699 C1698 1.516 . S
C1699 C1700 1.502 . S
C1699 C1701 1.561 . S
C1699 C1702 1.526 . S
C1700 H1684 0.959 . S
C1700 H1685 0.959 . S
C1700 H1686 0.961 . S
C1700 C1699 1.502 . S
C1701 H1687 0.960 . S
C1701 H1688 0.961 . S
C1701 H1689 0.959 . S
C1701 C1699 1.561 . S
C1702 C1699 1.526 . S
C1702 C1703 1.396 . S
C1702 C1707 1.390 . S
C1703 C1697 1.465 . S
C1703 C1702 1.396 . S
C1703 C1704 1.399 . S
C1704 H1690 0.929 . S
C1704 C1703 1.399 . S
C1704 C1705 1.385 . S
C1705 H1691 0.931 . S
C1705 C1704 1.385 . S
C1705 C1706 1.389 . S
C1706 C1705 1.389 . S
C1706 C1707 1.387 . S
C1707 H1692 0.930 . S
C1707 C1702 1.390 . S
C1707 C1706 1.387 . S
H1708 C1720 0.930 . S
H1709 C1722 0.930 . S
H1710 C1723 0.930 . S
H1711 C1727 0.959 . S
H1712 C1727 0.959 . S
H1713 C1727 0.961 . S
H1714 C1728 0.960 . S
H1715 C1728 0.961 . S
H1716 C1728 0.959 . S
H1717 C1731 0.929 . S
H1718 C1732 0.931 . S
H1719 C1734 0.930 . S
C1720 H1708 0.930 . S
C1720 C1721 1.399 . S
C1720 C1725 1.399 . S
C1721 C1720 1.399 . S
C1721 C1722 1.376 . S
C1722 H1709 0.930 . S
C1722 C1721 1.376 . S
C1722 C1723 1.388 . S
C1723 H1710 0.930 . S
C1723 C1722 1.388 . S
C1723 C1724 1.390 . S
C1724 C1723 1.390 . S
C1724 C1725 1.394 . S
C1724 C1730 1.465 . S
C1725 C1720 1.399 . S
C1725 C1724 1.394 . S
C1725 C1726 1.516 . S
C1726 C1725 1.516 . S
C1726 C1727 1.502 . S
C1726 C1728 1.561 . S
C1726 C1729 1.526 . S
C1727 H1711 0.959 . S
C1727 H1712 0.959 . S
C1727 H1713 0.961 . S
C1727 C1726 1.502 . S
C1728 H1714 0.960 . S
C1728 H1715 0.961 . S
C1728 H1716 0.959 . S
C1728 C1726 1.561 . S
C1729 C1726 1.526 . S
C1729 C1730 1.396 . S
C1729 C1734 1.390 . S
C1730 C1724 1.465 . S
C1730 C1729 1.396 . S
C1730 C1731 1.399 . S
C1731 H1717 0.929 . S
C1731 C1730 1.399 . S
C1731 C1732 1.385 . S
C1732 H1718 0.931 . S
C1732 C1731 1.385 . S
C1732 C1733 1.389 . S
C1733 C1732 1.389 . S
C1733 C1734 1.387 . S
C1734 H1719 0.930 . S
C1734 C1729 1.390 . S
C1734 C1733 1.387 . S
H1735 C1747 0.930 . S
H1736 C1749 0.930 . S
H1737 C1750 0.930 . S
H1738 C1754 0.959 . S
H1739 C1754 0.959 . S
H1740 C1754 0.961 . S
H1741 C1755 0.960 . S
H1742 C1755 0.961 . S
H1743 C1755 0.959 . S
H1744 C1758 0.929 . S
H1745 C1759 0.931 . S
H1746 C1761 0.930 . S
C1747 H1735 0.930 . S
C1747 C1748 1.399 . S
C1747 C1752 1.399 . S
C1748 C1747 1.399 . S
C1748 C1749 1.376 . S
C1749 H1736 0.930 . S
C1749 C1748 1.376 . S
C1749 C1750 1.388 . S
C1750 H1737 0.930 . S
C1750 C1749 1.388 . S
C1750 C1751 1.390 . S
C1751 C1750 1.390 . S
C1751 C1752 1.394 . S
C1751 C1757 1.465 . S
C1752 C1747 1.399 . S
C1752 C1751 1.394 . S
C1752 C1753 1.516 . S
C1753 C1752 1.516 . S
C1753 C1754 1.502 . S
C1753 C1755 1.561 . S
C1753 C1756 1.526 . S
C1754 H1738 0.959 . S
C1754 H1739 0.959 . S
C1754 H1740 0.961 . S
C1754 C1753 1.502 . S
C1755 H1741 0.960 . S
C1755 H1742 0.961 . S
C1755 H1743 0.959 . S
C1755 C1753 1.561 . S
C1756 C1753 1.526 . S
C1756 C1757 1.396 . S
C1756 C1761 1.390 . S
C1757 C1751 1.465 . S
C1757 C1756 1.396 . S
C1757 C1758 1.399 . S
C1758 H1744 0.929 . S
C1758 C1757 1.399 . S
C1758 C1759 1.385 . S
C1759 H1745 0.931 . S
C1759 C1758 1.385 . S
C1759 C1760 1.389 . S
C1760 C1759 1.389 . S
C1760 C1761 1.387 . S
C1761 H1746 0.930 . S
C1761 C1756 1.390 . S
C1761 C1760 1.387 . S
H1762 C1774 0.930 . S
H1763 C1776 0.930 . S
H1764 C1777 0.930 . S
H1765 C1781 0.959 . S
H1766 C1781 0.959 . S
H1767 C1781 0.961 . S
H1768 C1782 0.960 . S
H1769 C1782 0.961 . S
H1770 C1782 0.959 . S
H1771 C1785 0.929 . S
H1772 C1786 0.931 . S
H1773 C1788 0.930 . S
C1774 H1762 0.930 . S
C1774 C1775 1.399 . S
C1774 C1779 1.399 . S
C1775 C1774 1.399 . S
C1775 C1776 1.376 . S
C1776 H1763 0.930 . S
C1776 C1775 1.376 . S
C1776 C1777 1.388 . S
C1777 H1764 0.930 . S
C1777 C1776 1.388 . S
C1777 C1778 1.390 . S
C1778 C1777 1.390 . S
C1778 C1779 1.394 . S
C1778 C1784 1.465 . S
C1779 C1774 1.399 . S
C1779 C1778 1.394 . S
C1779 C1780 1.516 . S
C1780 C1779 1.516 . S
C1780 C1781 1.502 . S
C1780 C1782 1.561 . S
C1780 C1783 1.526 . S
C1781 H1765 0.959 . S
C1781 H1766 0.959 . S
C1781 H1767 0.961 . S
C1781 C1780 1.502 . S
C1782 H1768 0.960 . S
C1782 H1769 0.961 . S
C1782 H1770 0.959 . S
C1782 C1780 1.561 . S
C1783 C1780 1.526 . S
C1783 C1784 1.396 . S
C1783 C1788 1.390 . S
C1784 C1778 1.465 . S
C1784 C1783 1.396 . S
C1784 C1785 1.399 . S
C1785 H1771 0.929 . S
C1785 C1784 1.399 . S
C1785 C1786 1.385 . S
C1786 H1772 0.931 . S
C1786 C1785 1.385 . S
C1786 C1787 1.389 . S
C1787 C1786 1.389 . S
C1787 C1788 1.387 . S
C1788 H1773 0.930 . S
C1788 C1783 1.390 . S
C1788 C1787 1.387 . S
H1789 C1801 0.930 . S
H1790 C1803 0.930 . S
H1791 C1804 0.930 . S
H1792 C1808 0.959 . S
H1793 C1808 0.959 . S
H1794 C1808 0.961 . S
H1795 C1809 0.960 . S
H1796 C1809 0.961 . S
H1797 C1809 0.959 . S
H1798 C1812 0.929 . S
H1799 C1813 0.931 . S
H1800 C1815 0.930 . S
C1801 H1789 0.930 . S
C1801 C1802 1.399 . S
C1801 C1806 1.399 . S
C1802 C1801 1.399 . S
C1802 C1803 1.376 . S
C1803 H1790 0.930 . S
C1803 C1802 1.376 . S
C1803 C1804 1.388 . S
C1804 H1791 0.930 . S
C1804 C1803 1.388 . S
C1804 C1805 1.390 . S
C1805 C1804 1.390 . S
C1805 C1806 1.394 . S
C1805 C1811 1.465 . S
C1806 C1801 1.399 . S
C1806 C1805 1.394 . S
C1806 C1807 1.516 . S
C1807 C1806 1.516 . S
C1807 C1808 1.502 . S
C1807 C1809 1.561 . S
C1807 C1810 1.526 . S
C1808 H1792 0.959 . S
C1808 H1793 0.959 . S
C1808 H1794 0.961 . S
C1808 C1807 1.502 . S
C1809 H1795 0.960 . S
C1809 H1796 0.961 . S
C1809 H1797 0.959 . S
C1809 C1807 1.561 . S
C1810 C1807 1.526 . S
C1810 C1811 1.396 . S
C1810 C1815 1.390 . S
C1811 C1805 1.465 . S
C1811 C1810 1.396 . S
C1811 C1812 1.399 . S
C1812 H1798 0.929 . S
C1812 C1811 1.399 . S
C1812 C1813 1.385 . S
C1813 H1799 0.931 . S
C1813 C1812 1.385 . S
C1813 C1814 1.389 . S
C1814 C1813 1.389 . S
C1814 C1815 1.387 . S
C1815 H1800 0.930 . S
C1815 C1810 1.390 . S
C1815 C1814 1.387 . S
H1816 C1828 0.930 . S
H1817 C1830 0.930 . S
H1818 C1831 0.930 . S
H1819 C1835 0.959 . S
H1820 C1835 0.959 . S
H1821 C1835 0.961 . S
H1822 C1836 0.960 . S
H1823 C1836 0.961 . S
H1824 C1836 0.959 . S
H1825 C1839 0.929 . S
H1826 C1840 0.931 . S
H1827 C1842 0.930 . S
C1828 H1816 0.930 . S
C1828 C1829 1.399 . S
C1828 C1833 1.399 . S
C1829 C1828 1.399 . S
C1829 C1830 1.376 . S
C1830 H1817 0.930 . S
C1830 C1829 1.376 . S
C1830 C1831 1.388 . S
C1831 H1818 0.930 . S
C1831 C1830 1.388 . S
C1831 C1832 1.390 . S
C1832 C1831 1.390 . S
C1832 C1833 1.394 . S
C1832 C1838 1.465 . S
C1833 C1828 1.399 . S
C1833 C1832 1.394 . S
C1833 C1834 1.516 . S
C1834 C1833 1.516 . S
C1834 C1835 1.502 . S
C1834 C1836 1.561 . S
C1834 C1837 1.526 . S
C1835 H1819 0.959 . S
C1835 H1820 0.959 . S
C1835 H1821 0.961 . S
C1835 C1834 1.502 . S
C1836 H1822 0.960 . S
C1836 H1823 0.961 . S
C1836 H1824 0.959 . S
C1836 C1834 1.561 . S
C1837 C1834 1.526 . S
C1837 C1838 1.396 . S
C1837 C1842 1.390 . S
C1838 C1832 1.465 . S
C1838 C1837 1.396 . S
C1838 C1839 1.399 . S
C1839 H1825 0.929 . S
C1839 C1838 1.399 . S
C1839 C1840 1.385 . S
C1840 H1826 0.931 . S
C1840 C1839 1.385 . S
C1840 C1841 1.389 . S
C1841 C1840 1.389 . S
C1841 C1842 1.387 . S
C1842 H1827 0.930 . S
C1842 C1837 1.390 . S
C1842 C1841 1.387 . S
H1843 C1855 0.930 . S
H1844 C1857 0.930 . S
H1845 C1858 0.930 . S
H1846 C1862 0.959 . S
H1847 C1862 0.959 . S
H1848 C1862 0.961 . S
H1849 C1863 0.960 . S
H1850 C1863 0.961 . S
H1851 C1863 0.959 . S
H1852 C1866 0.929 . S
H1853 C1867 0.931 . S
H1854 C1869 0.930 . S
C1855 H1843 0.930 . S
C1855 C1856 1.399 . S
C1855 C1860 1.399 . S
C1856 C1855 1.399 . S
C1856 C1857 1.376 . S
C1857 H1844 0.930 . S
C1857 C1856 1.376 . S
C1857 C1858 1.388 . S
C1858 H1845 0.930 . S
C1858 C1857 1.388 . S
C1858 C1859 1.390 . S
C1859 C1858 1.390 . S
C1859 C1860 1.394 . S
C1859 C1865 1.465 . S
C1860 C1855 1.399 . S
C1860 C1859 1.394 . S
C1860 C1861 1.516 . S
C1861 C1860 1.516 . S
C1861 C1862 1.502 . S
C1861 C1863 1.561 . S
C1861 C1864 1.526 . S
C1862 H1846 0.959 . S
C1862 H1847 0.959 . S
C1862 H1848 0.961 . S
C1862 C1861 1.502 . S
C1863 H1849 0.960 . S
C1863 H1850 0.961 . S
C1863 H1851 0.959 . S
C1863 C1861 1.561 . S
C1864 C1861 1.526 . S
C1864 C1865 1.396 . S
C1864 C1869 1.390 . S
C1865 C1859 1.465 . S
C1865 C1864 1.396 . S
C1865 C1866 1.399 . S
C1866 H1852 0.929 . S
C1866 C1865 1.399 . S
C1866 C1867 1.385 . S
C1867 H1853 0.931 . S
C1867 C1866 1.385 . S
C1867 C1868 1.389 . S
C1868 C1867 1.389 . S
C1868 C1869 1.387 . S
C1869 H1854 0.930 . S
C1869 C1864 1.390 . S
C1869 C1868 1.387 . S
H1870 C1882 0.930 . S
H1871 C1884 0.930 . S
H1872 C1885 0.930 . S
H1873 C1889 0.959 . S
H1874 C1889 0.959 . S
H1875 C1889 0.961 . S
H1876 C1890 0.960 . S
H1877 C1890 0.961 . S
H1878 C1890 0.959 . S
H1879 C1893 0.929 . S
H1880 C1894 0.931 . S
H1881 C1896 0.930 . S
C1882 H1870 0.930 . S
C1882 C1883 1.399 . S
C1882 C1887 1.399 . S
C1883 C1882 1.399 . S
C1883 C1884 1.376 . S
C1884 H1871 0.930 . S
C1884 C1883 1.376 . S
C1884 C1885 1.388 . S
C1885 H1872 0.930 . S
C1885 C1884 1.388 . S
C1885 C1886 1.390 . S
C1886 C1885 1.390 . S
C1886 C1887 1.394 . S
C1886 C1892 1.465 . S
C1887 C1882 1.399 . S
C1887 C1886 1.394 . S
C1887 C1888 1.516 . S
C1888 C1887 1.516 . S
C1888 C1889 1.502 . S
C1888 C1890 1.561 . S
C1888 C1891 1.526 . S
C1889 H1873 0.959 . S
C1889 H1874 0.959 . S
C1889 H1875 0.961 . S
C1889 C1888 1.502 . S
C1890 H1876 0.960 . S
C1890 H1877 0.961 . S
C1890 H1878 0.959 . S
C1890 C1888 1.561 . S
C1891 C1888 1.526 . S
C1891 C1892 1.396 . S
C1891 C1896 1.390 . S
C1892 C1886 1.465 . S
C1892 C1891 1.396 . S
C1892 C1893 1.399 . S
C1893 H1879 0.929 . S
C1893 C1892 1.399 . S
C1893 C1894 1.385 . S
C1894 H1880 0.931 . S
C1894 C1893 1.385 . S
C1894 C1895 1.389 . S
C1895 C1894 1.389 . S
C1895 C1896 1.387 . S
C1896 H1881 0.930 . S
C1896 C1891 1.390 . S
C1896 C1895 1.387 . S
H1897 C1909 0.930 . S
H1898 C1911 0.930 . S
H1899 C1912 0.930 . S
H1900 C1916 0.959 . S
H1901 C1916 0.959 . S
H1902 C1916 0.961 . S
H1903 C1917 0.960 . S
H1904 C1917 0.961 . S
H1905 C1917 0.959 . S
H1906 C1920 0.929 . S
H1907 C1921 0.931 . S
H1908 C1923 0.930 . S
C1909 H1897 0.930 . S
C1909 C1910 1.399 . S
C1909 C1914 1.399 . S
C1910 C1909 1.399 . S
C1910 C1911 1.376 . S
C1911 H1898 0.930 . S
C1911 C1910 1.376 . S
C1911 C1912 1.388 . S
C1912 H1899 0.930 . S
C1912 C1911 1.388 . S
C1912 C1913 1.390 . S
C1913 C1912 1.390 . S
C1913 C1914 1.394 . S
C1913 C1919 1.465 . S
C1914 C1909 1.399 . S
C1914 C1913 1.394 . S
C1914 C1915 1.516 . S
C1915 C1914 1.516 . S
C1915 C1916 1.502 . S
C1915 C1917 1.561 . S
C1915 C1918 1.526 . S
C1916 H1900 0.959 . S
C1916 H1901 0.959 . S
C1916 H1902 0.961 . S
C1916 C1915 1.502 . S
C1917 H1903 0.960 . S
C1917 H1904 0.961 . S
C1917 H1905 0.959 . S
C1917 C1915 1.561 . S
C1918 C1915 1.526 . S
C1918 C1919 1.396 . S
C1918 C1923 1.390 . S
C1919 C1913 1.465 . S
C1919 C1918 1.396 . S
C1919 C1920 1.399 . S
C1920 H1906 0.929 . S
C1920 C1919 1.399 . S
C1920 C1921 1.385 . S
C1921 H1907 0.931 . S
C1921 C1920 1.385 . S
C1921 C1922 1.389 . S
C1922 C1921 1.389 . S
C1922 C1923 1.387 . S
C1923 H1908 0.930 . S
C1923 C1918 1.390 . S
C1923 C1922 1.387 . S
H1924 C1936 0.930 . S
H1925 C1938 0.930 . S
H1926 C1939 0.930 . S
H1927 C1943 0.959 . S
H1928 C1943 0.959 . S
H1929 C1943 0.961 . S
H1930 C1944 0.960 . S
H1931 C1944 0.961 . S
H1932 C1944 0.959 . S
H1933 C1947 0.929 . S
H1934 C1948 0.931 . S
H1935 C1950 0.930 . S
C1936 H1924 0.930 . S
C1936 C1937 1.399 . S
C1936 C1941 1.399 . S
C1937 C1936 1.399 . S
C1937 C1938 1.376 . S
C1938 H1925 0.930 . S
C1938 C1937 1.376 . S
C1938 C1939 1.388 . S
C1939 H1926 0.930 . S
C1939 C1938 1.388 . S
C1939 C1940 1.390 . S
C1940 C1939 1.390 . S
C1940 C1941 1.394 . S
C1940 C1946 1.465 . S
C1941 C1936 1.399 . S
C1941 C1940 1.394 . S
C1941 C1942 1.516 . S
C1942 C1941 1.516 . S
C1942 C1943 1.502 . S
C1942 C1944 1.561 . S
C1942 C1945 1.526 . S
C1943 H1927 0.959 . S
C1943 H1928 0.959 . S
C1943 H1929 0.961 . S
C1943 C1942 1.502 . S
C1944 H1930 0.960 . S
C1944 H1931 0.961 . S
C1944 H1932 0.959 . S
C1944 C1942 1.561 . S
C1945 C1942 1.526 . S
C1945 C1946 1.396 . S
C1945 C1950 1.390 . S
C1946 C1940 1.465 . S
C1946 C1945 1.396 . S
C1946 C1947 1.399 . S
C1947 H1933 0.929 . S
C1947 C1946 1.399 . S
C1947 C1948 1.385 . S
C1948 H1934 0.931 . S
C1948 C1947 1.385 . S
C1948 C1949 1.389 . S
C1949 C1948 1.389 . S
C1949 C1950 1.387 . S
C1950 H1935 0.930 . S
C1950 C1945 1.390 . S
C1950 C1949 1.387 . S
H1951 C1963 0.930 . S
H1952 C1965 0.930 . S
H1953 C1966 0.930 . S
H1954 C1970 0.959 . S
H1955 C1970 0.959 . S
H1956 C1970 0.961 . S
H1957 C1971 0.960 . S
H1958 C1971 0.961 . S
H1959 C1971 0.959 . S
H1960 C1974 0.929 . S
H1961 C1975 0.931 . S
H1962 C1977 0.930 . S
C1963 H1951 0.930 . S
C1963 C1964 1.399 . S
C1963 C1968 1.399 . S
C1964 C1963 1.399 . S
C1964 C1965 1.376 . S
C1965 H1952 0.930 . S
C1965 C1964 1.376 . S
C1965 C1966 1.388 . S
C1966 H1953 0.930 . S
C1966 C1965 1.388 . S
C1966 C1967 1.390 . S
C1967 C1966 1.390 . S
C1967 C1968 1.394 . S
C1967 C1973 1.465 . S
C1968 C1963 1.399 . S
C1968 C1967 1.394 . S
C1968 C1969 1.516 . S
C1969 C1968 1.516 . S
C1969 C1970 1.502 . S
C1969 C1971 1.561 . S
C1969 C1972 1.526 . S
C1970 H1954 0.959 . S
C1970 H1955 0.959 . S
C1970 H1956 0.961 . S
C1970 C1969 1.502 . S
C1971 H1957 0.960 . S
C1971 H1958 0.961 . S
C1971 H1959 0.959 . S
C1971 C1969 1.561 . S
C1972 C1969 1.526 . S
C1972 C1973 1.396 . S
C1972 C1977 1.390 . S
C1973 C1967 1.465 . S
C1973 C1972 1.396 . S
C1973 C1974 1.399 . S
C1974 H1960 0.929 . S
C1974 C1973 1.399 . S
C1974 C1975 1.385 . S
C1975 H1961 0.931 . S
C1975 C1974 1.385 . S
C1975 C1976 1.389 . S
C1976 C1975 1.389 . S
C1976 C1977 1.387 . S
C1977 H1962 0.930 . S
C1977 C1972 1.390 . S
C1977 C1976 1.387 . S
H1978 C1990 0.930 . S
H1979 C1992 0.930 . S
H1980 C1993 0.930 . S
H1981 C1997 0.959 . S
H1982 C1997 0.959 . S
H1983 C1997 0.961 . S
H1984 C1998 0.960 . S
H1985 C1998 0.961 . S
H1986 C1998 0.959 . S
H1987 C2001 0.929 . S
H1988 C2002 0.931 . S
H1989 C2004 0.930 . S
C1990 H1978 0.930 . S
C1990 C1991 1.399 . S
C1990 C1995 1.399 . S
C1991 C1990 1.399 . S
C1991 C1992 1.376 . S
C1992 H1979 0.930 . S
C1992 C1991 1.376 . S
C1992 C1993 1.388 . S
C1993 H1980 0.930 . S
C1993 C1992 1.388 . S
C1993 C1994 1.390 . S
C1994 C1993 1.390 . S
C1994 C1995 1.394 . S
C1994 C2000 1.465 . S
C1995 C1990 1.399 . S
C1995 C1994 1.394 . S
C1995 C1996 1.516 . S
C1996 C1995 1.516 . S
C1996 C1997 1.502 . S
C1996 C1998 1.561 . S
C1996 C1999 1.526 . S
C1997 H1981 0.959 . S
C1997 H1982 0.959 . S
C1997 H1983 0.961 . S
C1997 C1996 1.502 . S
C1998 H1984 0.960 . S
C1998 H1985 0.961 . S
C1998 H1986 0.959 . S
C1998 C1996 1.561 . S
C1999 C1996 1.526 . S
C1999 C2000 1.396 . S
C1999 C2004 1.390 . S
C2000 C1994 1.465 . S
C2000 C1999 1.396 . S
C2000 C2001 1.399 . S
C2001 H1987 0.929 . S
C2001 C2000 1.399 . S
C2001 C2002 1.385 . S
C2002 H1988 0.931 . S
C2002 C2001 1.385 . S
C2002 C2003 1.389 . S
C2003 C2002 1.389 . S
C2003 C2004 1.387 . S
C2004 H1989 0.930 . S
C2004 C1999 1.390 . S
C2004 C2003 1.387 . S
H2005 C2017 0.930 . S
H2006 C2019 0.930 . S
H2007 C2020 0.930 . S
H2008 C2024 0.959 . S
H2009 C2024 0.959 . S
H2010 C2024 0.961 . S
H2011 C2025 0.960 . S
H2012 C2025 0.961 . S
H2013 C2025 0.959 . S
H2014 C2028 0.929 . S
H2015 C2029 0.931 . S
H2016 C2031 0.930 . S
C2017 H2005 0.930 . S
C2017 C2018 1.399 . S
C2017 C2022 1.399 . S
C2018 C2017 1.399 . S
C2018 C2019 1.376 . S
C2019 H2006 0.930 . S
C2019 C2018 1.376 . S
C2019 C2020 1.388 . S
C2020 H2007 0.930 . S
C2020 C2019 1.388 . S
C2020 C2021 1.390 . S
C2021 C2020 1.390 . S
C2021 C2022 1.394 . S
C2021 C2027 1.465 . S
C2022 C2017 1.399 . S
C2022 C2021 1.394 . S
C2022 C2023 1.516 . S
C2023 C2022 1.516 . S
C2023 C2024 1.502 . S
C2023 C2025 1.561 . S
C2023 C2026 1.526 . S
C2024 H2008 0.959 . S
C2024 H2009 0.959 . S
C2024 H2010 0.961 . S
C2024 C2023 1.502 . S
C2025 H2011 0.960 . S
C2025 H2012 0.961 . S
C2025 H2013 0.959 . S
C2025 C2023 1.561 . S
C2026 C2023 1.526 . S
C2026 C2027 1.396 . S
C2026 C2031 1.390 . S
C2027 C2021 1.465 . S
C2027 C2026 1.396 . S
C2027 C2028 1.399 . S
C2028 H2014 0.929 . S
C2028 C2027 1.399 . S
C2028 C2029 1.385 . S
C2029 H2015 0.931 . S
C2029 C2028 1.385 . S
C2029 C2030 1.389 . S
C2030 C2029 1.389 . S
C2030 C2031 1.387 . S
C2031 H2016 0.930 . S
C2031 C2026 1.390 . S
C2031 C2030 1.387 . S
H2032 C2044 0.930 . S
H2033 C2046 0.930 . S
H2034 C2047 0.930 . S
H2035 C2051 0.959 . S
H2036 C2051 0.959 . S
H2037 C2051 0.961 . S
H2038 C2052 0.960 . S
H2039 C2052 0.961 . S
H2040 C2052 0.959 . S
H2041 C2055 0.929 . S
H2042 C2056 0.931 . S
H2043 C2058 0.930 . S
C2044 H2032 0.930 . S
C2044 C2045 1.399 . S
C2044 C2049 1.399 . S
C2045 C2044 1.399 . S
C2045 C2046 1.376 . S
C2046 H2033 0.930 . S
C2046 C2045 1.376 . S
C2046 C2047 1.388 . S
C2047 H2034 0.930 . S
C2047 C2046 1.388 . S
C2047 C2048 1.390 . S
C2048 C2047 1.390 . S
C2048 C2049 1.394 . S
C2048 C2054 1.465 . S
C2049 C2044 1.399 . S
C2049 C2048 1.394 . S
C2049 C2050 1.516 . S
C2050 C2049 1.516 . S
C2050 C2051 1.502 . S
C2050 C2052 1.561 . S
C2050 C2053 1.526 . S
C2051 H2035 0.959 . S
C2051 H2036 0.959 . S
C2051 H2037 0.961 . S
C2051 C2050 1.502 . S
C2052 H2038 0.960 . S
C2052 H2039 0.961 . S
C2052 H2040 0.959 . S
C2052 C2050 1.561 . S
C2053 C2050 1.526 . S
C2053 C2054 1.396 . S
C2053 C2058 1.390 . S
C2054 C2048 1.465 . S
C2054 C2053 1.396 . S
C2054 C2055 1.399 . S
C2055 H2041 0.929 . S
C2055 C2054 1.399 . S
C2055 C2056 1.385 . S
C2056 H2042 0.931 . S
C2056 C2055 1.385 . S
C2056 C2057 1.389 . S
C2057 C2056 1.389 . S
C2057 C2058 1.387 . S
C2058 H2043 0.930 . S
C2058 C2053 1.390 . S
C2058 C2057 1.387 . S
H2059 C2071 0.930 . S
H2060 C2073 0.930 . S
H2061 C2074 0.930 . S
H2062 C2078 0.959 . S
H2063 C2078 0.959 . S
H2064 C2078 0.961 . S
H2065 C2079 0.960 . S
H2066 C2079 0.961 . S
H2067 C2079 0.959 . S
H2068 C2082 0.929 . S
H2069 C2083 0.931 . S
H2070 C2085 0.930 . S
C2071 H2059 0.930 . S
C2071 C2072 1.399 . S
C2071 C2076 1.399 . S
C2072 C2071 1.399 . S
C2072 C2073 1.376 . S
C2073 H2060 0.930 . S
C2073 C2072 1.376 . S
C2073 C2074 1.388 . S
C2074 H2061 0.930 . S
C2074 C2073 1.388 . S
C2074 C2075 1.390 . S
C2075 C2074 1.390 . S
C2075 C2076 1.394 . S
C2075 C2081 1.465 . S
C2076 C2071 1.399 . S
C2076 C2075 1.394 . S
C2076 C2077 1.516 . S
C2077 C2076 1.516 . S
C2077 C2078 1.502 . S
C2077 C2079 1.561 . S
C2077 C2080 1.526 . S
C2078 H2062 0.959 . S
C2078 H2063 0.959 . S
C2078 H2064 0.961 . S
C2078 C2077 1.502 . S
C2079 H2065 0.960 . S
C2079 H2066 0.961 . S
C2079 H2067 0.959 . S
C2079 C2077 1.561 . S
C2080 C2077 1.526 . S
C2080 C2081 1.396 . S
C2080 C2085 1.390 . S
C2081 C2075 1.465 . S
C2081 C2080 1.396 . S
C2081 C2082 1.399 . S
C2082 H2068 0.929 . S
C2082 C2081 1.399 . S
C2082 C2083 1.385 . S
C2083 H2069 0.931 . S
C2083 C2082 1.385 . S
C2083 C2084 1.389 . S
C2084 C2083 1.389 . S
C2084 C2085 1.387 . S
C2085 H2070 0.930 . S
C2085 C2080 1.390 . S
C2085 C2084 1.387 . S
H2086 C2098 0.930 . S
H2087 C2100 0.930 . S
H2088 C2101 0.930 . S
H2089 C2105 0.959 . S
H2090 C2105 0.959 . S
H2091 C2105 0.961 . S
H2092 C2106 0.960 . S
H2093 C2106 0.961 . S
H2094 C2106 0.959 . S
H2095 C2109 0.929 . S
H2096 C2110 0.931 . S
H2097 C2112 0.930 . S
C2098 H2086 0.930 . S
C2098 C2099 1.399 1_554 S
C2098 C2103 1.399 . S
C2099 C2098 1.399 1_556 S
C2099 C2100 1.376 . S
C2100 H2087 0.930 . S
C2100 C2099 1.376 . S
C2100 C2101 1.388 . S
C2101 H2088 0.930 . S
C2101 C2100 1.388 . S
C2101 C2102 1.390 . S
C2102 C2101 1.390 . S
C2102 C2103 1.394 1_556 S
C2102 C2108 1.465 . S
C2103 C2098 1.399 . S
C2103 C2102 1.394 1_554 S
C2103 C2104 1.516 . S
C2104 C2103 1.516 . S
C2104 C2105 1.502 . S
C2104 C2106 1.561 . S
C2104 C2107 1.526 . S
C2105 H2089 0.959 . S
C2105 H2090 0.959 . S
C2105 H2091 0.961 . S
C2105 C2104 1.502 . S
C2106 H2092 0.960 . S
C2106 H2093 0.961 . S
C2106 H2094 0.959 . S
C2106 C2104 1.561 . S
C2107 C2104 1.526 . S
C2107 C2108 1.396 1_554 S
C2107 C2112 1.390 . S
C2108 C2102 1.465 . S
C2108 C2107 1.396 1_556 S
C2108 C2109 1.399 . S
C2109 H2095 0.929 . S
C2109 C2108 1.399 . S
C2109 C2110 1.385 . S
C2110 H2096 0.931 . S
C2110 C2109 1.385 . S
C2110 C2111 1.389 . S
C2111 C2110 1.389 . S
C2111 C2112 1.387 1_556 S
C2112 H2097 0.930 . S
C2112 C2107 1.390 . S
C2112 C2111 1.387 1_554 S
H2113 C2125 0.930 . S
H2114 C2127 0.930 . S
H2115 C2128 0.930 . S
H2116 C2132 0.959 . S
H2117 C2132 0.959 . S
H2118 C2132 0.961 . S
H2119 C2133 0.960 . S
H2120 C2133 0.961 . S
H2121 C2133 0.959 . S
H2122 C2136 0.929 . S
H2123 C2137 0.931 . S
H2124 C2139 0.930 . S
C2125 H2113 0.930 . S
C2125 C2126 1.399 . S
C2125 C2130 1.399 . S
C2126 C2125 1.399 . S
C2126 C2127 1.376 1_556 S
C2127 H2114 0.930 . S
C2127 C2126 1.376 1_554 S
C2127 C2128 1.388 . S
C2128 H2115 0.930 . S
C2128 C2127 1.388 . S
C2128 C2129 1.390 . S
C2129 C2128 1.390 . S
C2129 C2130 1.394 1_554 S
C2129 C2135 1.465 . S
C2130 C2125 1.399 . S
C2130 C2129 1.394 1_556 S
C2130 C2131 1.516 . S
C2131 C2130 1.516 . S
C2131 C2132 1.502 . S
C2131 C2133 1.561 . S
C2131 C2134 1.526 . S
C2132 H2116 0.959 . S
C2132 H2117 0.959 . S
C2132 H2118 0.961 . S
C2132 C2131 1.502 . S
C2133 H2119 0.960 . S
C2133 H2120 0.961 . S
C2133 H2121 0.959 . S
C2133 C2131 1.561 . S
C2134 C2131 1.526 . S
C2134 C2135 1.396 1_556 S
C2134 C2139 1.390 . S
C2135 C2129 1.465 . S
C2135 C2134 1.396 1_554 S
C2135 C2136 1.399 . S
C2136 H2122 0.929 . S
C2136 C2135 1.399 . S
C2136 C2137 1.385 . S
C2137 H2123 0.931 . S
C2137 C2136 1.385 . S
C2137 C2138 1.389 1_554 S
C2138 C2137 1.389 1_556 S
C2138 C2139 1.387 . S
C2139 H2124 0.930 . S
C2139 C2134 1.390 . S
C2139 C2138 1.387 . S
H2140 C2152 0.930 . S
H2141 C2154 0.930 . S
H2142 C2155 0.930 . S
H2143 C2159 0.959 . S
H2144 C2159 0.959 . S
H2145 C2159 0.961 . S
H2146 C2160 0.960 . S
H2147 C2160 0.961 . S
H2148 C2160 0.959 . S
H2149 C2163 0.929 . S
H2150 C2164 0.931 . S
H2151 C2166 0.930 . S
C2152 H2140 0.930 . S
C2152 C2153 1.399 . S
C2152 C2157 1.399 . S
C2153 C2152 1.399 . S
C2153 C2154 1.376 . S
C2154 H2141 0.930 . S
C2154 C2153 1.376 . S
C2154 C2155 1.388 . S
C2155 H2142 0.930 . S
C2155 C2154 1.388 . S
C2155 C2156 1.390 . S
C2156 C2155 1.390 . S
C2156 C2157 1.394 . S
C2156 C2162 1.465 . S
C2157 C2152 1.399 . S
C2157 C2156 1.394 . S
C2157 C2158 1.516 . S
C2158 C2157 1.516 . S
C2158 C2159 1.502 . S
C2158 C2160 1.561 . S
C2158 C2161 1.526 . S
C2159 H2143 0.959 . S
C2159 H2144 0.959 . S
C2159 H2145 0.961 . S
C2159 C2158 1.502 . S
C2160 H2146 0.960 . S
C2160 H2147 0.961 . S
C2160 H2148 0.959 . S
C2160 C2158 1.561 . S
C2161 C2158 1.526 . S
C2161 C2162 1.396 . S
C2161 C2166 1.390 . S
C2162 C2156 1.465 . S
C2162 C2161 1.396 . S
C2162 C2163 1.399 . S
C2163 H2149 0.929 . S
C2163 C2162 1.399 . S
C2163 C2164 1.385 . S
C2164 H2150 0.931 . S
C2164 C2163 1.385 . S
C2164 C2165 1.389 . S
C2165 C2164 1.389 . S
C2165 C2166 1.387 . S
C2166 H2151 0.930 . S
C2166 C2161 1.390 . S
C2166 C2165 1.387 . S
H2167 C2179 0.930 . S
H2168 C2181 0.930 . S
H2169 C2182 0.930 . S
H2170 C2186 0.959 . S
H2171 C2186 0.959 . S
H2172 C2186 0.961 . S
H2173 C2187 0.960 . S
H2174 C2187 0.961 . S
H2175 C2187 0.959 . S
H2176 C2190 0.929 . S
H2177 C2191 0.931 . S
H2178 C2193 0.930 . S
C2179 H2167 0.930 . S
C2179 C2180 1.399 . S
C2179 C2184 1.399 . S
C2180 C2179 1.399 . S
C2180 C2181 1.376 . S
C2181 H2168 0.930 . S
C2181 C2180 1.376 . S
C2181 C2182 1.388 . S
C2182 H2169 0.930 . S
C2182 C2181 1.388 . S
C2182 C2183 1.390 . S
C2183 C2182 1.390 . S
C2183 C2184 1.394 . S
C2183 C2189 1.465 . S
C2184 C2179 1.399 . S
C2184 C2183 1.394 . S
C2184 C2185 1.516 . S
C2185 C2184 1.516 . S
C2185 C2186 1.502 . S
C2185 C2187 1.561 . S
C2185 C2188 1.526 . S
C2186 H2170 0.959 . S
C2186 H2171 0.959 . S
C2186 H2172 0.961 . S
C2186 C2185 1.502 . S
C2187 H2173 0.960 . S
C2187 H2174 0.961 . S
C2187 H2175 0.959 . S
C2187 C2185 1.561 . S
C2188 C2185 1.526 . S
C2188 C2189 1.396 . S
C2188 C2193 1.390 . S
C2189 C2183 1.465 . S
C2189 C2188 1.396 . S
C2189 C2190 1.399 . S
C2190 H2176 0.929 . S
C2190 C2189 1.399 . S
C2190 C2191 1.385 . S
C2191 H2177 0.931 . S
C2191 C2190 1.385 . S
C2191 C2192 1.389 . S
C2192 C2191 1.389 . S
C2192 C2193 1.387 . S
C2193 H2178 0.930 . S
C2193 C2188 1.390 . S
C2193 C2192 1.387 . S
H2194 C2206 0.930 . S
H2195 C2208 0.930 . S
H2196 C2209 0.930 . S
H2197 C2213 0.959 . S
H2198 C2213 0.959 . S
H2199 C2213 0.961 . S
H2200 C2214 0.960 . S
H2201 C2214 0.961 . S
H2202 C2214 0.959 . S
H2203 C2217 0.929 . S
H2204 C2218 0.931 . S
H2205 C2220 0.930 . S
C2206 H2194 0.930 . S
C2206 C2207 1.399 1_556 S
C2206 C2211 1.399 . S
C2207 C2206 1.399 1_554 S
C2207 C2208 1.376 . S
C2208 H2195 0.930 . S
C2208 C2207 1.376 . S
C2208 C2209 1.388 . S
C2209 H2196 0.930 . S
C2209 C2208 1.388 . S
C2209 C2210 1.390 . S
C2210 C2209 1.390 . S
C2210 C2211 1.394 1_554 S
C2210 C2216 1.465 . S
C2211 C2206 1.399 . S
C2211 C2210 1.394 1_556 S
C2211 C2212 1.516 . S
C2212 C2211 1.516 . S
C2212 C2213 1.502 . S
C2212 C2214 1.561 . S
C2212 C2215 1.526 . S
C2213 H2197 0.959 . S
C2213 H2198 0.959 . S
C2213 H2199 0.961 . S
C2213 C2212 1.502 . S
C2214 H2200 0.960 . S
C2214 H2201 0.961 . S
C2214 H2202 0.959 . S
C2214 C2212 1.561 . S
C2215 C2212 1.526 . S
C2215 C2216 1.396 1_556 S
C2215 C2220 1.390 . S
C2216 C2210 1.465 . S
C2216 C2215 1.396 1_554 S
C2216 C2217 1.399 . S
C2217 H2203 0.929 . S
C2217 C2216 1.399 . S
C2217 C2218 1.385 . S
C2218 H2204 0.931 . S
C2218 C2217 1.385 . S
C2218 C2219 1.389 . S
C2219 C2218 1.389 . S
C2219 C2220 1.387 1_554 S
C2220 H2205 0.930 . S
C2220 C2215 1.390 . S
C2220 C2219 1.387 1_556 S
H2221 C2233 0.930 . S
H2222 C2235 0.930 . S
H2223 C2236 0.930 . S
H2224 C2240 0.959 . S
H2225 C2240 0.959 . S
H2226 C2240 0.961 . S
H2227 C2241 0.960 . S
H2228 C2241 0.961 . S
H2229 C2241 0.959 . S
H2230 C2244 0.929 . S
H2231 C2245 0.931 . S
H2232 C2247 0.930 . S
C2233 H2221 0.930 . S
C2233 C2234 1.399 1_556 S
C2233 C2238 1.399 . S
C2234 C2233 1.399 1_554 S
C2234 C2235 1.376 . S
C2235 H2222 0.930 . S
C2235 C2234 1.376 . S
C2235 C2236 1.388 . S
C2236 H2223 0.930 . S
C2236 C2235 1.388 . S
C2236 C2237 1.390 . S
C2237 C2236 1.390 . S
C2237 C2238 1.394 1_554 S
C2237 C2243 1.465 . S
C2238 C2233 1.399 . S
C2238 C2237 1.394 1_556 S
C2238 C2239 1.516 . S
C2239 C2238 1.516 . S
C2239 C2240 1.502 . S
C2239 C2241 1.561 . S
C2239 C2242 1.526 . S
C2240 H2224 0.959 . S
C2240 H2225 0.959 . S
C2240 H2226 0.961 . S
C2240 C2239 1.502 . S
C2241 H2227 0.960 . S
C2241 H2228 0.961 . S
C2241 H2229 0.959 . S
C2241 C2239 1.561 . S
C2242 C2239 1.526 . S
C2242 C2243 1.396 1_556 S
C2242 C2247 1.390 . S
C2243 C2237 1.465 . S
C2243 C2242 1.396 1_554 S
C2243 C2244 1.399 . S
C2244 H2230 0.929 . S
C2244 C2243 1.399 . S
C2244 C2245 1.385 . S
C2245 H2231 0.931 . S
C2245 C2244 1.385 . S
C2245 C2246 1.389 . S
C2246 C2245 1.389 . S
C2246 C2247 1.387 1_554 S
C2247 H2232 0.930 . S
C2247 C2242 1.390 . S
C2247 C2246 1.387 1_556 S
H2248 C2260 0.930 . S
H2249 C2262 0.930 . S
H2250 C2263 0.930 . S
H2251 C2267 0.959 . S
H2252 C2267 0.959 . S
H2253 C2267 0.961 . S
H2254 C2268 0.960 . S
H2255 C2268 0.961 . S
H2256 C2268 0.959 . S
H2257 C2271 0.929 . S
H2258 C2272 0.931 . S
H2259 C2274 0.930 . S
C2260 H2248 0.930 . S
C2260 C2261 1.399 . S
C2260 C2265 1.399 . S
C2261 C2260 1.399 . S
C2261 C2262 1.376 . S
C2262 H2249 0.930 . S
C2262 C2261 1.376 . S
C2262 C2263 1.388 . S
C2263 H2250 0.930 . S
C2263 C2262 1.388 . S
C2263 C2264 1.390 . S
C2264 C2263 1.390 . S
C2264 C2265 1.394 . S
C2264 C2270 1.465 . S
C2265 C2260 1.399 . S
C2265 C2264 1.394 . S
C2265 C2266 1.516 . S
C2266 C2265 1.516 . S
C2266 C2267 1.502 . S
C2266 C2268 1.561 . S
C2266 C2269 1.526 . S
C2267 H2251 0.959 . S
C2267 H2252 0.959 . S
C2267 H2253 0.961 . S
C2267 C2266 1.502 . S
C2268 H2254 0.960 . S
C2268 H2255 0.961 . S
C2268 H2256 0.959 . S
C2268 C2266 1.561 . S
C2269 C2266 1.526 . S
C2269 C2270 1.396 . S
C2269 C2274 1.390 . S
C2270 C2264 1.465 . S
C2270 C2269 1.396 . S
C2270 C2271 1.399 . S
C2271 H2257 0.929 . S
C2271 C2270 1.399 . S
C2271 C2272 1.385 . S
C2272 H2258 0.931 . S
C2272 C2271 1.385 . S
C2272 C2273 1.389 . S
C2273 C2272 1.389 . S
C2273 C2274 1.387 . S
C2274 H2259 0.930 . S
C2274 C2269 1.390 . S
C2274 C2273 1.387 . S
H2275 C2287 0.930 . S
H2276 C2289 0.930 . S
H2277 C2290 0.930 . S
H2278 C2294 0.959 . S
H2279 C2294 0.959 . S
H2280 C2294 0.961 . S
H2281 C2295 0.960 . S
H2282 C2295 0.961 . S
H2283 C2295 0.959 . S
H2284 C2298 0.929 . S
H2285 C2299 0.931 . S
H2286 C2301 0.930 . S
C2287 H2275 0.930 . S
C2287 C2288 1.399 . S
C2287 C2292 1.399 . S
C2288 C2287 1.399 . S
C2288 C2289 1.376 . S
C2289 H2276 0.930 . S
C2289 C2288 1.376 . S
C2289 C2290 1.388 . S
C2290 H2277 0.930 . S
C2290 C2289 1.388 . S
C2290 C2291 1.390 . S
C2291 C2290 1.390 . S
C2291 C2292 1.394 . S
C2291 C2297 1.465 . S
C2292 C2287 1.399 . S
C2292 C2291 1.394 . S
C2292 C2293 1.516 . S
C2293 C2292 1.516 . S
C2293 C2294 1.502 . S
C2293 C2295 1.561 . S
C2293 C2296 1.526 . S
C2294 H2278 0.959 . S
C2294 H2279 0.959 . S
C2294 H2280 0.961 . S
C2294 C2293 1.502 . S
C2295 H2281 0.960 . S
C2295 H2282 0.961 . S
C2295 H2283 0.959 . S
C2295 C2293 1.561 . S
C2296 C2293 1.526 . S
C2296 C2297 1.396 . S
C2296 C2301 1.390 . S
C2297 C2291 1.465 . S
C2297 C2296 1.396 . S
C2297 C2298 1.399 . S
C2298 H2284 0.929 . S
C2298 C2297 1.399 . S
C2298 C2299 1.385 . S
C2299 H2285 0.931 . S
C2299 C2298 1.385 . S
C2299 C2300 1.389 . S
C2300 C2299 1.389 . S
C2300 C2301 1.387 . S
C2301 H2286 0.930 . S
C2301 C2296 1.390 . S
C2301 C2300 1.387 . S
H2302 C2314 0.930 . S
H2303 C2316 0.930 . S
H2304 C2317 0.930 . S
H2305 C2321 0.959 . S
H2306 C2321 0.959 . S
H2307 C2321 0.961 . S
H2308 C2322 0.960 . S
H2309 C2322 0.961 . S
H2310 C2322 0.959 . S
H2311 C2325 0.929 . S
H2312 C2326 0.931 . S
H2313 C2328 0.930 . S
C2314 H2302 0.930 . S
C2314 C2315 1.399 . S
C2314 C2319 1.399 . S
C2315 C2314 1.399 . S
C2315 C2316 1.376 . S
C2316 H2303 0.930 . S
C2316 C2315 1.376 . S
C2316 C2317 1.388 . S
C2317 H2304 0.930 . S
C2317 C2316 1.388 . S
C2317 C2318 1.390 . S
C2318 C2317 1.390 . S
C2318 C2319 1.394 . S
C2318 C2324 1.465 . S
C2319 C2314 1.399 . S
C2319 C2318 1.394 . S
C2319 C2320 1.516 . S
C2320 C2319 1.516 . S
C2320 C2321 1.502 . S
C2320 C2322 1.561 . S
C2320 C2323 1.526 . S
C2321 H2305 0.959 . S
C2321 H2306 0.959 . S
C2321 H2307 0.961 . S
C2321 C2320 1.502 . S
C2322 H2308 0.960 . S
C2322 H2309 0.961 . S
C2322 H2310 0.959 . S
C2322 C2320 1.561 . S
C2323 C2320 1.526 . S
C2323 C2324 1.396 . S
C2323 C2328 1.390 . S
C2324 C2318 1.465 . S
C2324 C2323 1.396 . S
C2324 C2325 1.399 . S
C2325 H2311 0.929 . S
C2325 C2324 1.399 . S
C2325 C2326 1.385 . S
C2326 H2312 0.931 . S
C2326 C2325 1.385 . S
C2326 C2327 1.389 . S
C2327 C2326 1.389 . S
C2327 C2328 1.387 . S
C2328 H2313 0.930 . S
C2328 C2323 1.390 . S
C2328 C2327 1.387 . S
H2329 C2341 0.930 . S
H2330 C2343 0.930 . S
H2331 C2344 0.930 . S
H2332 C2348 0.959 . S
H2333 C2348 0.959 . S
H2334 C2348 0.961 . S
H2335 C2349 0.960 . S
H2336 C2349 0.961 . S
H2337 C2349 0.959 . S
H2338 C2352 0.929 . S
H2339 C2353 0.931 . S
H2340 C2355 0.930 . S
C2341 H2329 0.930 . S
C2341 C2342 1.399 . S
C2341 C2346 1.399 . S
C2342 C2341 1.399 . S
C2342 C2343 1.376 . S
C2343 H2330 0.930 . S
C2343 C2342 1.376 . S
C2343 C2344 1.388 . S
C2344 H2331 0.930 . S
C2344 C2343 1.388 . S
C2344 C2345 1.390 . S
C2345 C2344 1.390 . S
C2345 C2346 1.394 . S
C2345 C2351 1.465 . S
C2346 C2341 1.399 . S
C2346 C2345 1.394 . S
C2346 C2347 1.516 . S
C2347 C2346 1.516 . S
C2347 C2348 1.502 . S
C2347 C2349 1.561 . S
C2347 C2350 1.526 . S
C2348 H2332 0.959 . S
C2348 H2333 0.959 . S
C2348 H2334 0.961 . S
C2348 C2347 1.502 . S
C2349 H2335 0.960 . S
C2349 H2336 0.961 . S
C2349 H2337 0.959 . S
C2349 C2347 1.561 . S
C2350 C2347 1.526 . S
C2350 C2351 1.396 . S
C2350 C2355 1.390 . S
C2351 C2345 1.465 . S
C2351 C2350 1.396 . S
C2351 C2352 1.399 . S
C2352 H2338 0.929 . S
C2352 C2351 1.399 . S
C2352 C2353 1.385 . S
C2353 H2339 0.931 . S
C2353 C2352 1.385 . S
C2353 C2354 1.389 . S
C2354 C2353 1.389 . S
C2354 C2355 1.387 . S
C2355 H2340 0.930 . S
C2355 C2350 1.390 . S
C2355 C2354 1.387 . S
H2356 C2368 0.930 . S
H2357 C2370 0.930 . S
H2358 C2371 0.930 . S
H2359 C2375 0.959 . S
H2360 C2375 0.959 . S
H2361 C2375 0.961 . S
H2362 C2376 0.960 . S
H2363 C2376 0.961 . S
H2364 C2376 0.959 . S
H2365 C2379 0.929 . S
H2366 C2380 0.931 . S
H2367 C2382 0.930 . S
C2368 H2356 0.930 . S
C2368 C2369 1.399 . S
C2368 C2373 1.399 . S
C2369 C2368 1.399 . S
C2369 C2370 1.376 . S
C2370 H2357 0.930 . S
C2370 C2369 1.376 . S
C2370 C2371 1.388 . S
C2371 H2358 0.930 . S
C2371 C2370 1.388 . S
C2371 C2372 1.390 . S
C2372 C2371 1.390 . S
C2372 C2373 1.394 . S
C2372 C2378 1.465 . S
C2373 C2368 1.399 . S
C2373 C2372 1.394 . S
C2373 C2374 1.516 . S
C2374 C2373 1.516 . S
C2374 C2375 1.502 . S
C2374 C2376 1.561 . S
C2374 C2377 1.526 . S
C2375 H2359 0.959 . S
C2375 H2360 0.959 . S
C2375 H2361 0.961 . S
C2375 C2374 1.502 . S
C2376 H2362 0.960 . S
C2376 H2363 0.961 . S
C2376 H2364 0.959 . S
C2376 C2374 1.561 . S
C2377 C2374 1.526 . S
C2377 C2378 1.396 . S
C2377 C2382 1.390 . S
C2378 C2372 1.465 . S
C2378 C2377 1.396 . S
C2378 C2379 1.399 . S
C2379 H2365 0.929 . S
C2379 C2378 1.399 . S
C2379 C2380 1.385 . S
C2380 H2366 0.931 . S
C2380 C2379 1.385 . S
C2380 C2381 1.389 . S
C2381 C2380 1.389 . S
C2381 C2382 1.387 . S
C2382 H2367 0.930 . S
C2382 C2377 1.390 . S
C2382 C2381 1.387 . S
H2383 C2395 0.930 . S
H2384 C2397 0.930 . S
H2385 C2398 0.930 . S
H2386 C2402 0.959 . S
H2387 C2402 0.959 . S
H2388 C2402 0.961 . S
H2389 C2403 0.960 . S
H2390 C2403 0.961 . S
H2391 C2403 0.959 . S
H2392 C2406 0.929 . S
H2393 C2407 0.931 . S
H2394 C2409 0.930 . S
C2395 H2383 0.930 . S
C2395 C2396 1.399 . S
C2395 C2400 1.399 . S
C2396 C2395 1.399 . S
C2396 C2397 1.376 . S
C2397 H2384 0.930 . S
C2397 C2396 1.376 . S
C2397 C2398 1.388 . S
C2398 H2385 0.930 . S
C2398 C2397 1.388 . S
C2398 C2399 1.390 . S
C2399 C2398 1.390 . S
C2399 C2400 1.394 . S
C2399 C2405 1.465 . S
C2400 C2395 1.399 . S
C2400 C2399 1.394 . S
C2400 C2401 1.516 . S
C2401 C2400 1.516 . S
C2401 C2402 1.502 . S
C2401 C2403 1.561 . S
C2401 C2404 1.526 . S
C2402 H2386 0.959 . S
C2402 H2387 0.959 . S
C2402 H2388 0.961 . S
C2402 C2401 1.502 . S
C2403 H2389 0.960 . S
C2403 H2390 0.961 . S
C2403 H2391 0.959 . S
C2403 C2401 1.561 . S
C2404 C2401 1.526 . S
C2404 C2405 1.396 . S
C2404 C2409 1.390 . S
C2405 C2399 1.465 . S
C2405 C2404 1.396 . S
C2405 C2406 1.399 . S
C2406 H2392 0.929 . S
C2406 C2405 1.399 . S
C2406 C2407 1.385 . S
C2407 H2393 0.931 . S
C2407 C2406 1.385 . S
C2407 C2408 1.389 . S
C2408 C2407 1.389 . S
C2408 C2409 1.387 . S
C2409 H2394 0.930 . S
C2409 C2404 1.390 . S
C2409 C2408 1.387 . S
H2410 C2422 0.930 . S
H2411 C2424 0.930 . S
H2412 C2425 0.930 . S
H2413 C2429 0.959 . S
H2414 C2429 0.959 . S
H2415 C2429 0.961 . S
H2416 C2430 0.960 . S
H2417 C2430 0.961 . S
H2418 C2430 0.959 . S
H2419 C2433 0.929 . S
H2420 C2434 0.931 . S
H2421 C2436 0.930 . S
C2422 H2410 0.930 . S
C2422 C2423 1.399 . S
C2422 C2427 1.399 . S
C2423 C2422 1.399 . S
C2423 C2424 1.376 . S
C2424 H2411 0.930 . S
C2424 C2423 1.376 . S
C2424 C2425 1.388 . S
C2425 H2412 0.930 . S
C2425 C2424 1.388 . S
C2425 C2426 1.390 . S
C2426 C2425 1.390 . S
C2426 C2427 1.394 . S
C2426 C2432 1.465 . S
C2427 C2422 1.399 . S
C2427 C2426 1.394 . S
C2427 C2428 1.516 . S
C2428 C2427 1.516 . S
C2428 C2429 1.502 . S
C2428 C2430 1.561 . S
C2428 C2431 1.526 . S
C2429 H2413 0.959 . S
C2429 H2414 0.959 . S
C2429 H2415 0.961 . S
C2429 C2428 1.502 . S
C2430 H2416 0.960 . S
C2430 H2417 0.961 . S
C2430 H2418 0.959 . S
C2430 C2428 1.561 . S
C2431 C2428 1.526 . S
C2431 C2432 1.396 . S
C2431 C2436 1.390 . S
C2432 C2426 1.465 . S
C2432 C2431 1.396 . S
C2432 C2433 1.399 . S
C2433 H2419 0.929 . S
C2433 C2432 1.399 . S
C2433 C2434 1.385 . S
C2434 H2420 0.931 . S
C2434 C2433 1.385 . S
C2434 C2435 1.389 . S
C2435 C2434 1.389 . S
C2435 C2436 1.387 . S
C2436 H2421 0.930 . S
C2436 C2431 1.390 . S
C2436 C2435 1.387 . S
H2437 C2449 0.930 . S
H2438 C2451 0.930 . S
H2439 C2452 0.930 . S
H2440 C2456 0.959 . S
H2441 C2456 0.959 . S
H2442 C2456 0.961 . S
H2443 C2457 0.960 . S
H2444 C2457 0.961 . S
H2445 C2457 0.959 . S
H2446 C2460 0.929 . S
H2447 C2461 0.931 . S
H2448 C2463 0.930 . S
C2449 H2437 0.930 . S
C2449 C2450 1.399 . S
C2449 C2454 1.399 . S
C2450 C2449 1.399 . S
C2450 C2451 1.376 . S
C2451 H2438 0.930 . S
C2451 C2450 1.376 . S
C2451 C2452 1.388 . S
C2452 H2439 0.930 . S
C2452 C2451 1.388 . S
C2452 C2453 1.390 . S
C2453 C2452 1.390 . S
C2453 C2454 1.394 . S
C2453 C2459 1.465 . S
C2454 C2449 1.399 . S
C2454 C2453 1.394 . S
C2454 C2455 1.516 . S
C2455 C2454 1.516 . S
C2455 C2456 1.502 . S
C2455 C2457 1.561 . S
C2455 C2458 1.526 . S
C2456 H2440 0.959 . S
C2456 H2441 0.959 . S
C2456 H2442 0.961 . S
C2456 C2455 1.502 . S
C2457 H2443 0.960 . S
C2457 H2444 0.961 . S
C2457 H2445 0.959 . S
C2457 C2455 1.561 . S
C2458 C2455 1.526 . S
C2458 C2459 1.396 . S
C2458 C2463 1.390 . S
C2459 C2453 1.465 . S
C2459 C2458 1.396 . S
C2459 C2460 1.399 . S
C2460 H2446 0.929 . S
C2460 C2459 1.399 . S
C2460 C2461 1.385 . S
C2461 H2447 0.931 . S
C2461 C2460 1.385 . S
C2461 C2462 1.389 . S
C2462 C2461 1.389 . S
C2462 C2463 1.387 . S
C2463 H2448 0.930 . S
C2463 C2458 1.390 . S
C2463 C2462 1.387 . S
C749 C7 1.636 . S
C761 C76 1.643 . S
C776 C53 1.637 . S
C788 C30 1.643 . S
C803 C99 1.659 . S
C815 C168 1.673 . S
C830 C145 1.652 . S
C842 C122 1.670 . S
C857 C191 1.671 . S
C869 C260 1.665 . S
C884 C237 1.635 . S
C896 C214 1.637 . S
C911 C283 1.645 . S
C923 C352 1.636 . S
C938 C306 1.662 . S
C950 C329 1.673 . S
C965 C444 1.672 . S
C977 C375 1.666 . S
C992 C398 1.636 . S
C1004 C421 1.643 . S
C1019 C467 1.651 . S
C1031 C536 1.636 . S
C1046 C513 1.662 . S
C1058 C490 1.673 . S
C1073 C559 1.636 . S
C1085 C628 1.643 . S
C1100 C605 1.672 . S
C1112 C582 1.666 . S
C1127 C651 1.648 . S
C1139 C720 1.636 . S
C1154 C674 1.648 . S
C1166 C697 1.636 . S
C1181 N288 1.446 . S
C1193 N12 1.491 . S
C1208 N35 1.452 . S
C1220 N495 1.487 . S
C1235 N58 1.463 . S
C1247 N150 1.462 . S
C1262 N725 1.454 . S
C1274 N81 1.493 . S
C1289 N104 1.442 . S
C1301 N196 1.492 . S
C1316 N403 1.449 . S
C1328 N127 1.488 . S
C1343 N633 1.486 . S
C1355 N173 1.445 . S
C1370 N679 1.467 . S
C1382 N219 1.458 . S
C1397 N334 1.488 . S
C1409 N242 1.441 . S
C1424 N541 1.440 . S
C1436 N265 1.493 . S
C1451 N311 1.482 . S
C1463 N587 1.445 . S
C1478 N449 1.486 . S
C1490 N357 1.443 . S
C1505 N656 1.490 . S
C1517 N380 1.440 . S
C1532 N518 1.487 . S
C1544 N426 1.442 . S
C1559 N564 1.487 . S
C1571 N472 1.442 . S
C1586 N610 1.486 . S
C1598 N702 1.445 . S
C1613 C246 1.689 . S
C1625 C16 1.654 . S
C1640 C39 1.688 . S
C1652 C269 1.719 . S
C1667 C200 1.698 . S
C1679 C62 1.656 . S
C1694 C223 1.683 . S
C1706 C85 1.653 . S
C1721 C108 1.719 . S
C1733 C338 1.676 . S
C1748 C131 1.718 . S
C1760 C361 1.678 . S
C1775 C292 1.652 . S
C1787 C154 1.706 . S
C1802 C177 1.652 . S
C1814 C315 1.701 . S
C1829 C614 1.714 . S
C1841 C384 1.671 . S
C1856 C637 1.687 . S
C1868 C407 1.653 . S
C1883 C430 1.698 . S
C1895 C568 1.657 . S
C1910 C453 1.663 . S
C1922 C591 1.660 . S
C1937 C476 1.711 . S
C1949 C706 1.693 . S
C1964 C499 1.718 . S
C1976 C729 1.678 . S
C1991 C660 1.719 . S
C2003 C522 1.673 . S
C2018 C683 1.716 . S
C2030 C545 1.683 . S
C2045 N2 1.508 . S
C2057 N577 1.472 . S
C2072 N554 1.471 . S
C2084 N25 1.429 . S
C2099 N48 1.510 . S
C2111 N623 1.461 . S
C2126 N71 1.441 . S
C2138 N600 1.447 . S
C2153 N94 1.458 . S
C2165 N669 1.503 . S
C2180 N117 1.459 . S
C2192 N646 1.502 . S
C2207 N715 1.469 . S
C2219 N140 1.495 . S
C2234 N692 1.457 . S
C2246 N163 1.503 . S
C2261 N393 1.507 . S
C2273 N186 1.474 . S
C2288 N370 1.481 . S
C2300 N209 1.428 . S
C2315 N232 1.430 . S
C2327 N439 1.466 . S
C2342 N255 1.433 . S
C2354 N416 1.459 . S
C2369 N485 1.501 . S
C2381 N278 1.428 . S
C2396 N301 1.469 . S
C2408 N462 1.443 . S
C2423 N324 1.484 . S
C2435 N531 1.434 . S
C2450 N347 1.459 . S
C2462 N508 1.502 . S
