# Generated by pormake.
# Topology ull, (4)-cn, num edge types: 1
# Building blocks:
#     Node 0, Type 0, BuildingBlock: CEKHIL_clean_sbu_0, # of connection points: 4
#     Node 1, Type 0, BuildingBlock: CEKHIL_clean_sbu_0, # of connection points: 4
#     Node 2, Type 0, BuildingBlock: CEKHIL_clean_sbu_0, # of connection points: 4
#     Node 3, Type 0, BuildingBlock: CEKHIL_clean_sbu_0, # of connection points: 4
#     Node 4, Type 0, BuildingBlock: CEKHIL_clean_sbu_0, # of connection points: 4
#     Node 5, Type 0, BuildingBlock: CEKHIL_clean_sbu_0, # of connection points: 4
#     Node 6, Type 0, BuildingBlock: CEKHIL_clean_sbu_0, # of connection points: 4
#     Node 7, Type 0, BuildingBlock: CEKHIL_clean_sbu_0, # of connection points: 4
#     Node 8, Type 0, BuildingBlock: CEKHIL_clean_sbu_0, # of connection points: 4
#     Node 9, Type 0, BuildingBlock: CEKHIL_clean_sbu_0, # of connection points: 4
#     Node 10, Type 0, BuildingBlock: CEKHIL_clean_sbu_0, # of connection points: 4
#     Node 11, Type 0, BuildingBlock: CEKHIL_clean_sbu_0, # of connection points: 4
#     Node 12, Type 0, BuildingBlock: CEKHIL_clean_sbu_0, # of connection points: 4
#     Node 13, Type 0, BuildingBlock: CEKHIL_clean_sbu_0, # of connection points: 4
#     Node 14, Type 0, BuildingBlock: CEKHIL_clean_sbu_0, # of connection points: 4
#     Node 15, Type 0, BuildingBlock: CEKHIL_clean_sbu_0, # of connection points: 4
#     Node 16, Type 0, BuildingBlock: CEKHIL_clean_sbu_0, # of connection points: 4
#     Node 17, Type 0, BuildingBlock: CEKHIL_clean_sbu_0, # of connection points: 4
#     Node 18, Type 0, BuildingBlock: CEKHIL_clean_sbu_0, # of connection points: 4
#     Node 19, Type 0, BuildingBlock: CEKHIL_clean_sbu_0, # of connection points: 4
#     Node 20, Type 0, BuildingBlock: CEKHIL_clean_sbu_0, # of connection points: 4
#     Node 21, Type 0, BuildingBlock: CEKHIL_clean_sbu_0, # of connection points: 4
#     Node 22, Type 0, BuildingBlock: CEKHIL_clean_sbu_0, # of connection points: 4
#     Node 23, Type 0, BuildingBlock: CEKHIL_clean_sbu_0, # of connection points: 4
#     Node 24, Type 0, BuildingBlock: CEKHIL_clean_sbu_0, # of connection points: 4
#     Node 25, Type 0, BuildingBlock: CEKHIL_clean_sbu_0, # of connection points: 4
#     Node 26, Type 0, BuildingBlock: CEKHIL_clean_sbu_0, # of connection points: 4
#     Node 27, Type 0, BuildingBlock: CEKHIL_clean_sbu_0, # of connection points: 4
#     Node 28, Type 0, BuildingBlock: CEKHIL_clean_sbu_0, # of connection points: 4
#     Node 29, Type 0, BuildingBlock: CEKHIL_clean_sbu_0, # of connection points: 4
#     Node 30, Type 0, BuildingBlock: CEKHIL_clean_sbu_0, # of connection points: 4
#     Node 31, Type 0, BuildingBlock: CEKHIL_clean_sbu_0, # of connection points: 4
#     Node 32, Type 0, BuildingBlock: CEKHIL_clean_sbu_0, # of connection points: 4
#     Node 33, Type 0, BuildingBlock: CEKHIL_clean_sbu_0, # of connection points: 4
#     Node 34, Type 0, BuildingBlock: CEKHIL_clean_sbu_0, # of connection points: 4
#     Node 35, Type 0, BuildingBlock: CEKHIL_clean_sbu_0, # of connection points: 4
#     Node 36, Type 0, BuildingBlock: CEKHIL_clean_sbu_0, # of connection points: 4
#     Node 37, Type 0, BuildingBlock: CEKHIL_clean_sbu_0, # of connection points: 4
#     Node 38, Type 0, BuildingBlock: CEKHIL_clean_sbu_0, # of connection points: 4
#     Node 39, Type 0, BuildingBlock: CEKHIL_clean_sbu_0, # of connection points: 4
#     Node 40, Type 0, BuildingBlock: CEKHIL_clean_sbu_0, # of connection points: 4
#     Node 41, Type 0, BuildingBlock: CEKHIL_clean_sbu_0, # of connection points: 4
#     Node 42, Type 0, BuildingBlock: CEKHIL_clean_sbu_0, # of connection points: 4
#     Node 43, Type 0, BuildingBlock: CEKHIL_clean_sbu_0, # of connection points: 4
#     Node 44, Type 0, BuildingBlock: CEKHIL_clean_sbu_0, # of connection points: 4
#     Node 45, Type 0, BuildingBlock: CEKHIL_clean_sbu_0, # of connection points: 4
#     Node 46, Type 0, BuildingBlock: CEKHIL_clean_sbu_0, # of connection points: 4
#     Node 47, Type 0, BuildingBlock: CEKHIL_clean_sbu_0, # of connection points: 4
#     Edge 48, Type (0, 0), BuildingBlock: TEMPAE_clean_linker_10, # of connection points: 2
#     Edge 49, Type (0, 0), BuildingBlock: TEMPAE_clean_linker_10, # of connection points: 2
#     Edge 50, Type (0, 0), BuildingBlock: TEMPAE_clean_linker_10, # of connection points: 2
#     Edge 51, Type (0, 0), BuildingBlock: TEMPAE_clean_linker_10, # of connection points: 2
#     Edge 52, Type (0, 0), BuildingBlock: TEMPAE_clean_linker_10, # of connection points: 2
#     Edge 53, Type (0, 0), BuildingBlock: TEMPAE_clean_linker_10, # of connection points: 2
#     Edge 54, Type (0, 0), BuildingBlock: TEMPAE_clean_linker_10, # of connection points: 2
#     Edge 55, Type (0, 0), BuildingBlock: TEMPAE_clean_linker_10, # of connection points: 2
#     Edge 56, Type (0, 0), BuildingBlock: TEMPAE_clean_linker_10, # of connection points: 2
#     Edge 57, Type (0, 0), BuildingBlock: TEMPAE_clean_linker_10, # of connection points: 2
#     Edge 58, Type (0, 0), BuildingBlock: TEMPAE_clean_linker_10, # of connection points: 2
#     Edge 59, Type (0, 0), BuildingBlock: TEMPAE_clean_linker_10, # of connection points: 2
#     Edge 60, Type (0, 0), BuildingBlock: TEMPAE_clean_linker_10, # of connection points: 2
#     Edge 61, Type (0, 0), BuildingBlock: TEMPAE_clean_linker_10, # of connection points: 2
#     Edge 62, Type (0, 0), BuildingBlock: TEMPAE_clean_linker_10, # of connection points: 2
#     Edge 63, Type (0, 0), BuildingBlock: TEMPAE_clean_linker_10, # of connection points: 2
#     Edge 64, Type (0, 0), BuildingBlock: TEMPAE_clean_linker_10, # of connection points: 2
#     Edge 65, Type (0, 0), BuildingBlock: TEMPAE_clean_linker_10, # of connection points: 2
#     Edge 66, Type (0, 0), BuildingBlock: TEMPAE_clean_linker_10, # of connection points: 2
#     Edge 67, Type (0, 0), BuildingBlock: TEMPAE_clean_linker_10, # of connection points: 2
#     Edge 68, Type (0, 0), BuildingBlock: TEMPAE_clean_linker_10, # of connection points: 2
#     Edge 69, Type (0, 0), BuildingBlock: TEMPAE_clean_linker_10, # of connection points: 2
#     Edge 70, Type (0, 0), BuildingBlock: TEMPAE_clean_linker_10, # of connection points: 2
#     Edge 71, Type (0, 0), BuildingBlock: TEMPAE_clean_linker_10, # of connection points: 2
#     Edge 72, Type (0, 0), BuildingBlock: TEMPAE_clean_linker_10, # of connection points: 2
#     Edge 73, Type (0, 0), BuildingBlock: TEMPAE_clean_linker_10, # of connection points: 2
#     Edge 74, Type (0, 0), BuildingBlock: TEMPAE_clean_linker_10, # of connection points: 2
#     Edge 75, Type (0, 0), BuildingBlock: TEMPAE_clean_linker_10, # of connection points: 2
#     Edge 76, Type (0, 0), BuildingBlock: TEMPAE_clean_linker_10, # of connection points: 2
#     Edge 77, Type (0, 0), BuildingBlock: TEMPAE_clean_linker_10, # of connection points: 2
#     Edge 78, Type (0, 0), BuildingBlock: TEMPAE_clean_linker_10, # of connection points: 2
#     Edge 79, Type (0, 0), BuildingBlock: TEMPAE_clean_linker_10, # of connection points: 2
#     Edge 80, Type (0, 0), BuildingBlock: TEMPAE_clean_linker_10, # of connection points: 2
#     Edge 81, Type (0, 0), BuildingBlock: TEMPAE_clean_linker_10, # of connection points: 2
#     Edge 82, Type (0, 0), BuildingBlock: TEMPAE_clean_linker_10, # of connection points: 2
#     Edge 83, Type (0, 0), BuildingBlock: TEMPAE_clean_linker_10, # of connection points: 2
#     Edge 84, Type (0, 0), BuildingBlock: TEMPAE_clean_linker_10, # of connection points: 2
#     Edge 85, Type (0, 0), BuildingBlock: TEMPAE_clean_linker_10, # of connection points: 2
#     Edge 86, Type (0, 0), BuildingBlock: TEMPAE_clean_linker_10, # of connection points: 2
#     Edge 87, Type (0, 0), BuildingBlock: TEMPAE_clean_linker_10, # of connection points: 2
#     Edge 88, Type (0, 0), BuildingBlock: TEMPAE_clean_linker_10, # of connection points: 2
#     Edge 89, Type (0, 0), BuildingBlock: TEMPAE_clean_linker_10, # of connection points: 2
#     Edge 90, Type (0, 0), BuildingBlock: TEMPAE_clean_linker_10, # of connection points: 2
#     Edge 91, Type (0, 0), BuildingBlock: TEMPAE_clean_linker_10, # of connection points: 2
#     Edge 92, Type (0, 0), BuildingBlock: TEMPAE_clean_linker_10, # of connection points: 2
#     Edge 93, Type (0, 0), BuildingBlock: TEMPAE_clean_linker_10, # of connection points: 2
#     Edge 94, Type (0, 0), BuildingBlock: TEMPAE_clean_linker_10, # of connection points: 2
#     Edge 95, Type (0, 0), BuildingBlock: TEMPAE_clean_linker_10, # of connection points: 2
#     Edge 96, Type (0, 0), BuildingBlock: TEMPAE_clean_linker_10, # of connection points: 2
#     Edge 97, Type (0, 0), BuildingBlock: TEMPAE_clean_linker_10, # of connection points: 2
#     Edge 98, Type (0, 0), BuildingBlock: TEMPAE_clean_linker_10, # of connection points: 2
#     Edge 99, Type (0, 0), BuildingBlock: TEMPAE_clean_linker_10, # of connection points: 2
#     Edge 100, Type (0, 0), BuildingBlock: TEMPAE_clean_linker_10, # of connection points: 2
#     Edge 101, Type (0, 0), BuildingBlock: TEMPAE_clean_linker_10, # of connection points: 2
#     Edge 102, Type (0, 0), BuildingBlock: TEMPAE_clean_linker_10, # of connection points: 2
#     Edge 103, Type (0, 0), BuildingBlock: TEMPAE_clean_linker_10, # of connection points: 2
#     Edge 104, Type (0, 0), BuildingBlock: TEMPAE_clean_linker_10, # of connection points: 2
#     Edge 105, Type (0, 0), BuildingBlock: TEMPAE_clean_linker_10, # of connection points: 2
#     Edge 106, Type (0, 0), BuildingBlock: TEMPAE_clean_linker_10, # of connection points: 2
#     Edge 107, Type (0, 0), BuildingBlock: TEMPAE_clean_linker_10, # of connection points: 2
#     Edge 108, Type (0, 0), BuildingBlock: TEMPAE_clean_linker_10, # of connection points: 2
#     Edge 109, Type (0, 0), BuildingBlock: TEMPAE_clean_linker_10, # of connection points: 2
#     Edge 110, Type (0, 0), BuildingBlock: TEMPAE_clean_linker_10, # of connection points: 2
#     Edge 111, Type (0, 0), BuildingBlock: TEMPAE_clean_linker_10, # of connection points: 2
#     Edge 112, Type (0, 0), BuildingBlock: TEMPAE_clean_linker_10, # of connection points: 2
#     Edge 113, Type (0, 0), BuildingBlock: TEMPAE_clean_linker_10, # of connection points: 2
#     Edge 114, Type (0, 0), BuildingBlock: TEMPAE_clean_linker_10, # of connection points: 2
#     Edge 115, Type (0, 0), BuildingBlock: TEMPAE_clean_linker_10, # of connection points: 2
#     Edge 116, Type (0, 0), BuildingBlock: TEMPAE_clean_linker_10, # of connection points: 2
#     Edge 117, Type (0, 0), BuildingBlock: TEMPAE_clean_linker_10, # of connection points: 2
#     Edge 118, Type (0, 0), BuildingBlock: TEMPAE_clean_linker_10, # of connection points: 2
#     Edge 119, Type (0, 0), BuildingBlock: TEMPAE_clean_linker_10, # of connection points: 2
#     Edge 120, Type (0, 0), BuildingBlock: TEMPAE_clean_linker_10, # of connection points: 2
#     Edge 121, Type (0, 0), BuildingBlock: TEMPAE_clean_linker_10, # of connection points: 2
#     Edge 122, Type (0, 0), BuildingBlock: TEMPAE_clean_linker_10, # of connection points: 2
#     Edge 123, Type (0, 0), BuildingBlock: TEMPAE_clean_linker_10, # of connection points: 2
#     Edge 124, Type (0, 0), BuildingBlock: TEMPAE_clean_linker_10, # of connection points: 2
#     Edge 125, Type (0, 0), BuildingBlock: TEMPAE_clean_linker_10, # of connection points: 2
#     Edge 126, Type (0, 0), BuildingBlock: TEMPAE_clean_linker_10, # of connection points: 2
#     Edge 127, Type (0, 0), BuildingBlock: TEMPAE_clean_linker_10, # of connection points: 2
#     Edge 128, Type (0, 0), BuildingBlock: TEMPAE_clean_linker_10, # of connection points: 2
#     Edge 129, Type (0, 0), BuildingBlock: TEMPAE_clean_linker_10, # of connection points: 2
#     Edge 130, Type (0, 0), BuildingBlock: TEMPAE_clean_linker_10, # of connection points: 2
#     Edge 131, Type (0, 0), BuildingBlock: TEMPAE_clean_linker_10, # of connection points: 2
#     Edge 132, Type (0, 0), BuildingBlock: TEMPAE_clean_linker_10, # of connection points: 2
#     Edge 133, Type (0, 0), BuildingBlock: TEMPAE_clean_linker_10, # of connection points: 2
#     Edge 134, Type (0, 0), BuildingBlock: TEMPAE_clean_linker_10, # of connection points: 2
#     Edge 135, Type (0, 0), BuildingBlock: TEMPAE_clean_linker_10, # of connection points: 2
#     Edge 136, Type (0, 0), BuildingBlock: TEMPAE_clean_linker_10, # of connection points: 2
#     Edge 137, Type (0, 0), BuildingBlock: TEMPAE_clean_linker_10, # of connection points: 2
#     Edge 138, Type (0, 0), BuildingBlock: TEMPAE_clean_linker_10, # of connection points: 2
#     Edge 139, Type (0, 0), BuildingBlock: TEMPAE_clean_linker_10, # of connection points: 2
#     Edge 140, Type (0, 0), BuildingBlock: TEMPAE_clean_linker_10, # of connection points: 2
#     Edge 141, Type (0, 0), BuildingBlock: TEMPAE_clean_linker_10, # of connection points: 2
#     Edge 142, Type (0, 0), BuildingBlock: TEMPAE_clean_linker_10, # of connection points: 2
#     Edge 143, Type (0, 0), BuildingBlock: TEMPAE_clean_linker_10, # of connection points: 2
# Relax obj value: 0.022
# Max RMSD: 0.082
# Mean RMSD: 0.082
data_MOF--net-ull--node1-CEKHIL_clean_sbu_0--edge1-TEMPAE_clean_linker_10
_symmetry_space_group_name_H-M    P1
_symmetry_Int_Tables_number       1
_symmetry_cell_setting            triclinic
loop_
_symmetry_equiv_pos_as_xyz
'x, y, z'
_cell_length_a     61.405306
_cell_length_b     61.399298
_cell_length_c     61.409286
_cell_angle_alpha  90.006627
_cell_angle_beta   90.015339
_cell_angle_gamma 90.002162
loop_
_atom_site_label
_atom_site_type_symbol
_atom_site_fract_x
_atom_site_fract_y
_atom_site_fract_z
_atom_type_partial_charge
Co0 Co 0.04547 0.3398 0.16654 0.0
O1 O 0.0697 0.3489 0.18395 0.0
O2 O 0.03658 0.36297 0.18627 0.0
C3 C 0.06397 0.34001 0.13476 0.0
O4 O 0.01696 0.33506 0.15009 0.0
Co5 Co 0.04766 0.29586 0.14164 0.0
O6 O 0.02246 0.30829 0.12566 0.0
C7 C 0.03828 0.29586 0.18882 0.0
C8 C 0.05684 0.36323 0.19256 0.0
C9 C 0.01096 0.32373 0.13345 0.0
O10 O 0.03714 0.31682 0.1887 0.0
O11 O 0.04401 0.28467 0.17217 0.0
O12 O 0.05587 0.35791 0.14256 0.0
O13 O 0.06228 0.32314 0.14721 0.0
Co14 Co 0.66095 0.04242 0.16866 0.0
O15 O 0.65192 0.06669 0.18609 0.0
O16 O 0.63783 0.03356 0.18849 0.0
C17 C 0.66074 0.06101 0.13693 0.0
O18 O 0.6656 0.01389 0.1521 0.0
Co19 Co 0.70485 0.0446 0.14365 0.0
O20 O 0.69215 0.01963 0.1275 0.0
C21 C 0.70494 0.03549 0.19088 0.0
C22 C 0.63764 0.05383 0.19476 0.0
C23 C 0.67675 0.00807 0.13527 0.0
O24 O 0.68399 0.03409 0.19077 0.0
O25 O 0.71606 0.04127 0.1742 0.0
O26 O 0.64282 0.05291 0.14469 0.0
O27 O 0.67761 0.05922 0.14937 0.0
Co28 Co 0.9569 0.66134 0.17259 0.0
O29 O 0.93495 0.65329 0.19338 0.0
O30 O 0.96777 0.63833 0.19127 0.0
C31 C 0.93506 0.66086 0.14299 0.0
O32 O 0.98337 0.66506 0.15287 0.0
Co33 Co 0.95292 0.70474 0.14698 0.0
O34 O 0.97655 0.69196 0.12896 0.0
C35 C 0.96697 0.70553 0.19301 0.0
C36 C 0.94873 0.63897 0.20051 0.0
C37 C 0.98825 0.67623 0.13579 0.0
O38 O 0.9682 0.68458 0.19308 0.0
O39 O 0.95949 0.71643 0.17686 0.0
O40 O 0.94343 0.64295 0.15046 0.0
O41 O 0.93833 0.67797 0.15481 0.0
Co42 Co 0.34015 0.95513 0.16825 0.0
O43 O 0.34884 0.93096 0.18595 0.0
O44 O 0.36302 0.96404 0.1883 0.0
C45 C 0.34071 0.93659 0.13652 0.0
O46 O 0.33582 0.98359 0.15162 0.0
Co47 Co 0.29654 0.95308 0.14269 0.0
O48 O 0.30945 0.97809 0.12675 0.0
C49 C 0.29594 0.96274 0.18981 0.0
C50 C 0.36306 0.94383 0.19475 0.0
C51 C 0.32481 0.98955 0.13476 0.0
O52 O 0.3169 0.96371 0.19 0.0
O53 O 0.28494 0.95701 0.17302 0.0
O54 O 0.35857 0.94452 0.1446 0.0
O55 O 0.32369 0.9384 0.14874 0.0
Co56 Co 0.0457 0.66529 0.83092 0.0
O57 O 0.06799 0.65838 0.81011 0.0
O58 O 0.03577 0.64214 0.8119 0.0
C59 C 0.06742 0.66518 0.86058 0.0
O60 O 0.0191 0.66768 0.85063 0.0
Co61 Co 0.04792 0.70845 0.85705 0.0
O62 O 0.02509 0.6943 0.87508 0.0
C63 C 0.03376 0.7093 0.81107 0.0
C64 C 0.05482 0.64361 0.80274 0.0
C65 C 0.01395 0.67827 0.86801 0.0
O66 O 0.03357 0.68832 0.81071 0.0
O67 O 0.04064 0.72032 0.8274 0.0
O68 O 0.05976 0.64708 0.85279 0.0
O69 O 0.0636 0.68235 0.849 0.0
Co70 Co 0.33825 0.04656 0.83511 0.0
O71 O 0.34586 0.07065 0.81684 0.0
O72 O 0.36123 0.03811 0.81502 0.0
C73 C 0.33863 0.06572 0.86649 0.0
O74 O 0.33504 0.01827 0.85223 0.0
Co75 Co 0.29494 0.04767 0.8612 0.0
O76 O 0.30855 0.02303 0.87711 0.0
C77 C 0.29406 0.03723 0.81425 0.0
C78 C 0.36048 0.05817 0.80814 0.0
C79 C 0.32423 0.01201 0.8691 0.0
O80 O 0.31504 0.03681 0.81382 0.0
O81 O 0.2831 0.04299 0.83104 0.0
O82 O 0.35661 0.05818 0.85833 0.0
O83 O 0.3215 0.06315 0.85454 0.0
Co84 Co 0.95426 0.33504 0.83252 0.0
O85 O 0.92985 0.34255 0.81458 0.0
O86 O 0.96238 0.35795 0.81222 0.0
C87 C 0.93547 0.33544 0.86415 0.0
O88 O 0.98279 0.33209 0.84935 0.0
Co89 Co 0.95392 0.29189 0.85872 0.0
O90 O 0.97808 0.30616 0.8748 0.0
C91 C 0.96436 0.29086 0.81174 0.0
C92 C 0.94221 0.35716 0.80569 0.0
C93 C 0.98901 0.32175 0.86652 0.0
O94 O 0.9639 0.31184 0.81113 0.0
O95 O 0.95927 0.27987 0.82874 0.0
O96 O 0.94285 0.35341 0.85581 0.0
O97 O 0.93797 0.31825 0.85226 0.0
Co98 Co 0.66443 0.95698 0.82976 0.0
O99 O 0.65732 0.93434 0.80936 0.0
O100 O 0.64124 0.96664 0.81061 0.0
C101 C 0.66435 0.93585 0.85989 0.0
O102 O 0.66712 0.98393 0.84902 0.0
Co103 Co 0.70787 0.95473 0.85553 0.0
O104 O 0.69444 0.97851 0.87284 0.0
C105 C 0.70843 0.96797 0.80932 0.0
C106 C 0.64262 0.94744 0.80175 0.0
C107 C 0.67826 0.98955 0.86592 0.0
O108 O 0.68745 0.96863 0.80923 0.0
O109 O 0.71951 0.96102 0.82558 0.0
O110 O 0.64626 0.9434 0.852 0.0
O111 O 0.68145 0.93932 0.84811 0.0
Co112 Co 0.17159 0.04292 0.33833 0.0
O113 O 0.19247 0.06496 0.34591 0.0
O114 O 0.19033 0.03241 0.36144 0.0
C115 C 0.142 0.06474 0.33856 0.0
O116 O 0.15179 0.01647 0.3352 0.0
Co117 Co 0.1458 0.04619 0.29496 0.0
O118 O 0.12774 0.0229 0.30831 0.0
C119 C 0.19181 0.03215 0.29426 0.0
C120 C 0.19962 0.05142 0.36044 0.0
C121 C 0.1346 0.01147 0.32423 0.0
O122 O 0.19193 0.03119 0.31522 0.0
O123 O 0.17565 0.0395 0.28329 0.0
O124 O 0.14959 0.05675 0.3566 0.0
O125 O 0.15376 0.0612 0.32146 0.0
Co126 Co 0.96136 0.17053 0.33822 0.0
O127 O 0.93851 0.19046 0.34601 0.0
O128 O 0.97122 0.18966 0.36134 0.0
C129 C 0.94062 0.14011 0.33848 0.0
O130 O 0.98865 0.1519 0.33481 0.0
Co131 Co 0.95888 0.14473 0.29485 0.0
O132 O 0.98311 0.12768 0.30787 0.0
C133 C 0.97116 0.19127 0.29415 0.0
C134 C 0.95184 0.19817 0.36045 0.0
C135 C 0.99436 0.13504 0.3237 0.0
O136 O 0.97211 0.19142 0.31511 0.0
O137 O 0.96444 0.17483 0.28318 0.0
O138 O 0.94856 0.14787 0.35647 0.0
O139 O 0.94364 0.15204 0.3214 0.0
Co140 Co 0.83188 0.96107 0.34022 0.0
O141 O 0.81154 0.93871 0.34839 0.0
O142 O 0.81317 0.9715 0.36345 0.0
C143 C 0.86176 0.93957 0.34036 0.0
O144 O 0.8511 0.98795 0.33641 0.0
Co145 Co 0.85721 0.95767 0.29665 0.0
O146 O 0.87478 0.98179 0.30915 0.0
C147 C 0.81083 0.97053 0.29625 0.0
C148 C 0.80424 0.9523 0.36279 0.0
C149 C 0.8679 0.99329 0.325 0.0
O150 O 0.81097 0.97199 0.31719 0.0
O151 O 0.82704 0.96333 0.28525 0.0
O152 O 0.85442 0.94788 0.35835 0.0
O153 O 0.84976 0.9428 0.32337 0.0
Co154 Co 0.04292 0.83375 0.34015 0.0
O155 O 0.06736 0.81646 0.34895 0.0
O156 O 0.03441 0.81393 0.36339 0.0
C157 C 0.06123 0.86564 0.3401 0.0
O158 O 0.01428 0.85013 0.33578 0.0
Co159 Co 0.04451 0.85852 0.29612 0.0
O160 O 0.01957 0.87459 0.30899 0.0
C161 C 0.03541 0.81131 0.29633 0.0
C162 C 0.0547 0.80773 0.36337 0.0
C163 C 0.00824 0.86685 0.32457 0.0
O164 O 0.03441 0.81153 0.3173 0.0
O165 O 0.04098 0.82794 0.28503 0.0
O166 O 0.05342 0.85782 0.35812 0.0
O167 O 0.05942 0.85313 0.32328 0.0
Co168 Co 0.16942 0.95486 0.66726 0.0
O169 O 0.18894 0.93141 0.66056 0.0
O170 O 0.18935 0.9636 0.64433 0.0
C171 C 0.13868 0.93471 0.6669 0.0
O172 O 0.15117 0.98253 0.66955 0.0
Co173 Co 0.14293 0.95386 0.71028 0.0
O174 O 0.12635 0.97773 0.69609 0.0
C175 C 0.18949 0.96583 0.71143 0.0
C176 C 0.19735 0.94402 0.64587 0.0
C177 C 0.13408 0.98856 0.68015 0.0
O178 O 0.19002 0.96594 0.69047 0.0
O179 O 0.17281 0.9597 0.72237 0.0
O180 O 0.14695 0.94199 0.64887 0.0
O181 O 0.15032 0.93796 0.68415 0.0
Co182 Co 0.0472 0.16844 0.66256 0.0
O183 O 0.07154 0.18657 0.65533 0.0
O184 O 0.03938 0.18833 0.63915 0.0
C185 C 0.06621 0.13695 0.66296 0.0
O186 O 0.01888 0.15129 0.66524 0.0
Co187 Co 0.0474 0.14298 0.70627 0.0
O188 O 0.02338 0.12664 0.69201 0.0
C189 C 0.03687 0.18987 0.7063 0.0
C190 C 0.05946 0.19509 0.64028 0.0
C191 C 0.01265 0.13435 0.67598 0.0
O192 O 0.03684 0.19 0.68531 0.0
O193 O 0.04252 0.17329 0.71763 0.0
O194 O 0.0592 0.14501 0.64472 0.0
O195 O 0.06336 0.14912 0.67989 0.0
Co196 Co 0.8333 0.04637 0.66041 0.0
O197 O 0.81528 0.07043 0.65211 0.0
O198 O 0.81329 0.03751 0.6375 0.0
C199 C 0.8648 0.06534 0.65992 0.0
O200 O 0.85031 0.01809 0.66425 0.0
Co201 Co 0.859 0.04815 0.7039 0.0
O202 O 0.87519 0.02351 0.69061 0.0
C203 C 0.81199 0.03802 0.70463 0.0
C204 C 0.80661 0.05765 0.63773 0.0
C205 C 0.8673 0.01219 0.67509 0.0
O206 O 0.81174 0.03723 0.68366 0.0
O207 O 0.82876 0.04383 0.71562 0.0
O208 O 0.85674 0.05749 0.64202 0.0
O209 O 0.8527 0.06318 0.67699 0.0
Co210 Co 0.95603 0.8329 0.66092 0.0
O211 O 0.93236 0.81512 0.65105 0.0
O212 O 0.966 0.81338 0.63806 0.0
C213 C 0.93704 0.8644 0.66024 0.0
O214 O 0.98413 0.84975 0.66643 0.0
Co215 Co 0.95237 0.85782 0.70476 0.0
O216 O 0.97779 0.87408 0.6931 0.0
C217 C 0.96269 0.81083 0.70503 0.0
C218 C 0.94587 0.80678 0.63718 0.0
C219 C 0.98973 0.86639 0.67795 0.0
O220 O 0.96418 0.8109 0.6841 0.0
O221 O 0.95642 0.82738 0.71609 0.0
O222 O 0.94573 0.85674 0.64255 0.0
O223 O 0.93849 0.85196 0.67714 0.0
Co224 Co 0.3366 0.17008 0.04811 0.0
O225 O 0.34407 0.18834 0.07226 0.0
O226 O 0.35954 0.19025 0.03975 0.0
C227 C 0.33699 0.13865 0.06722 0.0
O228 O 0.33364 0.15283 0.01988 0.0
Co229 Co 0.29329 0.14408 0.04898 0.0
O230 O 0.30747 0.12768 0.02499 0.0
C231 C 0.29245 0.19087 0.03791 0.0
C232 C 0.35872 0.19703 0.05983 0.0
C233 C 0.32314 0.13564 0.01394 0.0
O234 O 0.31343 0.19133 0.03811 0.0
O235 O 0.28138 0.17408 0.04346 0.0
O236 O 0.35496 0.14696 0.05983 0.0
O237 O 0.31981 0.15055 0.06463 0.0
Co238 Co 0.33728 0.83186 0.95549 0.0
O239 O 0.34414 0.8124 0.93207 0.0
O240 O 0.36009 0.81187 0.96439 0.0
C241 C 0.33785 0.86257 0.93531 0.0
O242 O 0.33492 0.85014 0.98309 0.0
Co243 Co 0.29439 0.85858 0.95426 0.0
O244 O 0.30887 0.87538 0.97781 0.0
C245 C 0.29296 0.81205 0.96643 0.0
C246 C 0.35881 0.80401 0.94473 0.0
C247 C 0.32463 0.86752 0.98881 0.0
O248 O 0.31393 0.81134 0.96646 0.0
O249 O 0.28214 0.82881 0.96031 0.0
O250 O 0.35581 0.85426 0.94271 0.0
O251 O 0.32054 0.851 0.93849 0.0
Co252 Co 0.16887 0.33782 0.95355 0.0
O253 O 0.18725 0.34552 0.92956 0.0
O254 O 0.18873 0.36099 0.9621 0.0
C255 C 0.1376 0.33784 0.93417 0.0
O256 O 0.15142 0.33468 0.98164 0.0
Co257 Co 0.1433 0.29422 0.95243 0.0
O258 O 0.12669 0.30812 0.97643 0.0
C259 C 0.19005 0.29386 0.96371 0.0
C260 C 0.19567 0.36027 0.94208 0.0
C261 C 0.13436 0.32393 0.98751 0.0
O262 O 0.19028 0.31486 0.96373 0.0
O263 O 0.17343 0.28265 0.95791 0.0
O264 O 0.14563 0.35592 0.94161 0.0
O265 O 0.14968 0.32082 0.93689 0.0
Co266 Co 0.661 0.16747 0.95697 0.0
O267 O 0.65202 0.18545 0.93313 0.0
O268 O 0.63767 0.18681 0.96621 0.0
C269 C 0.6611 0.13613 0.93773 0.0
O270 O 0.66545 0.15029 0.98503 0.0
Co271 Co 0.70503 0.14285 0.95471 0.0
O272 O 0.69208 0.12587 0.979 0.0
C273 C 0.70477 0.18973 0.96549 0.0
C274 C 0.63752 0.19358 0.94611 0.0
C275 C 0.67651 0.13333 0.99054 0.0
O276 O 0.68378 0.18953 0.96619 0.0
O277 O 0.71612 0.17327 0.95953 0.0
O278 O 0.6431 0.14368 0.94583 0.0
O279 O 0.67792 0.14863 0.93982 0.0
Co280 Co 0.83563 0.66162 0.95815 0.0
O281 O 0.81873 0.65331 0.93326 0.0
O282 O 0.81539 0.63849 0.96595 0.0
C283 C 0.86789 0.66158 0.94046 0.0
O284 O 0.85141 0.66549 0.9872 0.0
Co285 Co 0.861 0.70538 0.95764 0.0
O286 O 0.87614 0.69222 0.983 0.0
C287 C 0.81359 0.70561 0.96562 0.0
C288 C 0.80956 0.63884 0.94555 0.0
C289 C 0.86795 0.67656 0.99391 0.0
O290 O 0.81351 0.68464 0.96647 0.0
O291 O 0.83046 0.71675 0.96049 0.0
O292 O 0.85974 0.64354 0.94789 0.0
O293 O 0.85552 0.67849 0.94228 0.0
Co294 Co 0.66374 0.8311 0.04137 0.0
O295 O 0.65625 0.81102 0.06418 0.0
O296 O 0.64066 0.81183 0.03161 0.0
C297 C 0.66338 0.86135 0.06238 0.0
O298 O 0.6669 0.84985 0.0141 0.0
Co299 Co 0.70692 0.85721 0.04373 0.0
O300 O 0.69378 0.87417 0.01952 0.0
C301 C 0.70789 0.81068 0.03137 0.0
C302 C 0.64175 0.80325 0.05095 0.0
C303 C 0.67796 0.86673 0.00831 0.0
O304 O 0.68693 0.8104 0.03043 0.0
O305 O 0.71876 0.82718 0.03811 0.0
O306 O 0.64542 0.85356 0.05442 0.0
O307 O 0.68054 0.84959 0.05911 0.0
Co308 Co 0.16697 0.66447 0.04515 0.0
O309 O 0.18432 0.65617 0.06971 0.0
O310 O 0.18725 0.64153 0.0369 0.0
C311 C 0.13494 0.66404 0.06323 0.0
O312 O 0.15076 0.66842 0.01638 0.0
Co313 Co 0.14146 0.7081 0.04636 0.0
O314 O 0.1261 0.69515 0.02102 0.0
C315 C 0.18862 0.7086 0.03711 0.0
C316 C 0.19342 0.64184 0.05719 0.0
C317 C 0.13419 0.67958 0.0099 0.0
O318 O 0.18879 0.68763 0.03652 0.0
O319 O 0.17182 0.71972 0.04253 0.0
O320 O 0.14319 0.64613 0.05561 0.0
O321 O 0.14714 0.68108 0.06144 0.0
Co322 Co 0.83081 0.33677 0.04576 0.0
O323 O 0.81262 0.34483 0.06978 0.0
O324 O 0.81109 0.36005 0.03716 0.0
C325 C 0.8622 0.3368 0.06498 0.0
O326 O 0.84807 0.33319 0.01757 0.0
Co327 Co 0.85605 0.29304 0.04716 0.0
O328 O 0.87269 0.30658 0.02298 0.0
C329 C 0.80919 0.29288 0.03626 0.0
C330 C 0.80422 0.35955 0.05722 0.0
C331 C 0.86505 0.32228 0.01175 0.0
O332 O 0.80912 0.31387 0.03602 0.0
O333 O 0.8258 0.28162 0.04201 0.0
O334 O 0.85427 0.35483 0.05733 0.0
O335 O 0.85 0.31981 0.06254 0.0
Co336 Co 0.54329 0.84032 0.66958 0.0
O337 O 0.56619 0.84742 0.68974 0.0
O338 O 0.53352 0.86284 0.68943 0.0
C339 C 0.56404 0.84151 0.63921 0.0
O340 O 0.51593 0.83769 0.65088 0.0
Co341 Co 0.54533 0.79798 0.64215 0.0
O342 O 0.5214 0.81191 0.62546 0.0
C343 C 0.53271 0.79555 0.68861 0.0
C344 C 0.55291 0.86167 0.69787 0.0
C345 C 0.51019 0.82742 0.6335 0.0
O346 O 0.53251 0.81653 0.68974 0.0
O347 O 0.53891 0.78519 0.6716 0.0
O348 O 0.55615 0.85926 0.64754 0.0
O349 O 0.5609 0.82403 0.65052 0.0
Co350 Co 0.16075 0.54402 0.67093 0.0
O351 O 0.15431 0.56628 0.69199 0.0
O352 O 0.13833 0.53388 0.69063 0.0
C353 C 0.15945 0.56593 0.64142 0.0
O354 O 0.16255 0.5173 0.65119 0.0
Co355 Co 0.20243 0.54595 0.64257 0.0
O356 O 0.18697 0.52394 0.62477 0.0
C357 C 0.20529 0.52983 0.68795 0.0
C358 C 0.13988 0.55295 0.69972 0.0
C359 C 0.17178 0.51245 0.63298 0.0
O360 O 0.18458 0.53213 0.69038 0.0
O361 O 0.21548 0.53509 0.67053 0.0
O362 O 0.14172 0.55802 0.64976 0.0
O363 O 0.17711 0.56202 0.65224 0.0
Co364 Co 0.45652 0.16229 0.67027 0.0
O365 O 0.43281 0.15332 0.6884 0.0
O366 O 0.46618 0.13968 0.69025 0.0
C367 C 0.43747 0.16113 0.63883 0.0
O368 O 0.4845 0.16691 0.653 0.0
Co369 Co 0.45324 0.20575 0.6447 0.0
O370 O 0.47787 0.19297 0.6281 0.0
C371 C 0.46434 0.20677 0.69146 0.0
C372 C 0.44606 0.13931 0.69694 0.0
C373 C 0.48976 0.17781 0.63585 0.0
O374 O 0.46527 0.1858 0.69173 0.0
O375 O 0.45815 0.21768 0.67479 0.0
O376 O 0.44582 0.14351 0.64698 0.0
O377 O 0.4391 0.17832 0.65089 0.0
Co378 Co 0.8384 0.45524 0.6668 0.0
O379 O 0.84465 0.43061 0.68494 0.0
O380 O 0.86131 0.46249 0.68743 0.0
C381 C 0.83856 0.43631 0.63528 0.0
O382 O 0.83694 0.48386 0.64981 0.0
Co383 Co 0.79605 0.45695 0.63937 0.0
O384 O 0.81253 0.47923 0.62291 0.0
C385 C 0.79473 0.46968 0.68586 0.0
C386 C 0.85963 0.4424 0.694 0.0
C387 C 0.82793 0.4899 0.63182 0.0
O388 O 0.81526 0.46582 0.68782 0.0
O389 O 0.78407 0.4666 0.6682 0.0
O390 O 0.85666 0.44302 0.6439 0.0
O391 O 0.82124 0.43959 0.6468 0.0
Co392 Co 0.54224 0.1625 0.33161 0.0
O393 O 0.5665 0.15612 0.31299 0.0
O394 O 0.53471 0.13929 0.31139 0.0
C395 C 0.5619 0.16272 0.36272 0.0
O396 O 0.51386 0.16407 0.34909 0.0
Co397 Co 0.5409 0.205 0.35884 0.0
O398 O 0.51847 0.18897 0.37554 0.0
C399 C 0.52757 0.20603 0.31249 0.0
C400 C 0.55463 0.14097 0.30432 0.0
C401 C 0.50778 0.17344 0.36688 0.0
O402 O 0.53124 0.18545 0.31057 0.0
O403 O 0.53096 0.21678 0.33003 0.0
O404 O 0.55499 0.14452 0.35448 0.0
O405 O 0.55825 0.1799 0.35112 0.0
Co406 Co 0.8398 0.54105 0.33165 0.0
O407 O 0.84683 0.56387 0.31144 0.0
O408 O 0.86267 0.53142 0.31212 0.0
C409 C 0.8404 0.56209 0.36187 0.0
O410 O 0.83716 0.5138 0.35049 0.0
Co411 Co 0.79695 0.54304 0.35829 0.0
O412 O 0.81039 0.51882 0.37499 0.0
C413 C 0.79546 0.53072 0.31179 0.0
C414 C 0.86133 0.55073 0.30351 0.0
C415 C 0.8263 0.50783 0.36743 0.0
O416 O 0.81642 0.52988 0.31128 0.0
O417 O 0.78475 0.53741 0.32841 0.0
O418 O 0.85832 0.5543 0.35383 0.0
O419 O 0.82311 0.55865 0.35035 0.0
Co420 Co 0.45974 0.84136 0.33492 0.0
O421 O 0.43522 0.84873 0.31711 0.0
O422 O 0.46769 0.86414 0.31437 0.0
C423 C 0.44114 0.84197 0.36662 0.0
O424 O 0.48839 0.83847 0.35159 0.0
Co425 Co 0.45936 0.79829 0.36132 0.0
O426 O 0.48383 0.81246 0.37701 0.0
C427 C 0.46874 0.79701 0.31417 0.0
C428 C 0.44748 0.86326 0.30798 0.0
C429 C 0.49473 0.82806 0.3687 0.0
O430 O 0.46908 0.81799 0.31361 0.0
O431 O 0.46346 0.78616 0.33119 0.0
O432 O 0.4485 0.85989 0.35817 0.0
O433 O 0.44359 0.82473 0.35481 0.0
Co434 Co 0.16269 0.45829 0.33084 0.0
O435 O 0.15539 0.43443 0.31214 0.0
O436 O 0.1397 0.46685 0.31074 0.0
C437 C 0.16226 0.43851 0.36186 0.0
O438 O 0.16554 0.48626 0.34863 0.0
Co439 Co 0.20591 0.457 0.35702 0.0
O440 O 0.19164 0.48069 0.37377 0.0
C441 C 0.20691 0.46864 0.31036 0.0
C442 C 0.14062 0.44687 0.30366 0.0
C443 C 0.17599 0.49188 0.36596 0.0
O444 O 0.18592 0.46869 0.30984 0.0
O445 O 0.21788 0.46271 0.32709 0.0
O446 O 0.1443 0.44606 0.35368 0.0
O447 O 0.17946 0.44144 0.35009 0.0
Co448 Co 0.67064 0.54482 0.83799 0.0
O449 O 0.68929 0.56898 0.8447 0.0
O450 O 0.69093 0.53689 0.861 0.0
C451 C 0.63953 0.56445 0.83809 0.0
O452 O 0.65309 0.51654 0.83608 0.0
Co453 Co 0.64332 0.54414 0.79549 0.0
O454 O 0.62655 0.52166 0.81137 0.0
C455 C 0.68959 0.53049 0.79428 0.0
C456 C 0.69797 0.55684 0.85962 0.0
C457 C 0.63519 0.51072 0.82673 0.0
O458 O 0.69159 0.53405 0.81486 0.0
O459 O 0.67203 0.53405 0.7836 0.0
O460 O 0.64782 0.55736 0.85619 0.0
O461 O 0.65112 0.56106 0.82085 0.0
Co462 Co 0.45967 0.67088 0.84117 0.0
O463 O 0.43656 0.68964 0.85053 0.0
O464 O 0.47012 0.69019 0.86395 0.0
C465 C 0.43962 0.64004 0.842 0.0
O466 O 0.48719 0.65299 0.83621 0.0
Co467 Co 0.45568 0.64581 0.7975 0.0
O468 O 0.48046 0.62879 0.80953 0.0
C469 C 0.46688 0.69252 0.797 0.0
C470 C 0.45027 0.69759 0.86445 0.0
C471 C 0.4924 0.63613 0.82486 0.0
O472 O 0.46882 0.69235 0.81789 0.0
O473 O 0.45992 0.67621 0.78602 0.0
O474 O 0.44834 0.64767 0.85968 0.0
O475 O 0.44166 0.65222 0.82495 0.0
Co476 Co 0.33395 0.45835 0.83806 0.0
O477 O 0.31598 0.43374 0.84481 0.0
O478 O 0.31349 0.46584 0.86105 0.0
C479 C 0.36549 0.43947 0.83823 0.0
O480 O 0.35081 0.48706 0.8361 0.0
Co481 Co 0.36101 0.45968 0.79552 0.0
O482 O 0.37748 0.48234 0.81148 0.0
C483 C 0.31438 0.47174 0.7943 0.0
C484 C 0.307 0.44569 0.8597 0.0
C485 C 0.36866 0.49313 0.82684 0.0
O486 O 0.31267 0.46842 0.81494 0.0
O487 O 0.33196 0.46866 0.78353 0.0
O488 O 0.35706 0.44647 0.8563 0.0
O489 O 0.35384 0.44253 0.82095 0.0
Co490 Co 0.54538 0.33214 0.83885 0.0
O491 O 0.56901 0.31334 0.84655 0.0
O492 O 0.53631 0.3121 0.86166 0.0
C493 C 0.56518 0.36313 0.83968 0.0
O494 O 0.51756 0.35002 0.83551 0.0
Co495 Co 0.54751 0.35817 0.79563 0.0
O496 O 0.5236 0.37502 0.80939 0.0
C497 C 0.53556 0.31159 0.79449 0.0
C498 C 0.55625 0.30489 0.86107 0.0
C499 C 0.51214 0.36731 0.82489 0.0
O500 O 0.5353 0.31114 0.81547 0.0
O501 O 0.54168 0.32828 0.78355 0.0
O502 O 0.55731 0.35492 0.85748 0.0
O503 O 0.5626 0.35137 0.8224 0.0
Co504 Co 0.66812 0.45923 0.16139 0.0
O505 O 0.68527 0.43466 0.15274 0.0
O506 O 0.68842 0.46767 0.13854 0.0
C507 C 0.63608 0.44116 0.16067 0.0
O508 O 0.65202 0.48804 0.1657 0.0
Co509 Co 0.64247 0.45757 0.2049 0.0
O510 O 0.62723 0.48311 0.19223 0.0
C511 C 0.6898 0.46602 0.20568 0.0
C512 C 0.69433 0.44729 0.1385 0.0
C513 C 0.63538 0.4944 0.17683 0.0
O514 O 0.69 0.4673 0.18473 0.0
O515 O 0.6729 0.46048 0.21659 0.0
O516 O 0.64431 0.44909 0.14289 0.0
O517 O 0.64825 0.44278 0.17775 0.0
Co518 Co 0.54609 0.6733 0.16334 0.0
O519 O 0.56846 0.69375 0.15549 0.0
O520 O 0.53568 0.69235 0.14039 0.0
C521 C 0.56744 0.64333 0.16272 0.0
O522 O 0.51921 0.65408 0.16685 0.0
Co523 Co 0.54948 0.64727 0.20653 0.0
O524 O 0.52523 0.63002 0.19382 0.0
C525 C 0.5364 0.69357 0.20764 0.0
C526 C 0.5549 0.70124 0.14115 0.0
C527 C 0.51377 0.63719 0.17805 0.0
O528 O 0.53511 0.69382 0.18669 0.0
O529 O 0.54363 0.67723 0.21841 0.0
O530 O 0.55921 0.65104 0.14484 0.0
O531 O 0.5643 0.65508 0.1799 0.0
Co532 Co 0.33335 0.55005 0.16447 0.0
O533 O 0.31551 0.57424 0.15605 0.0
O534 O 0.31353 0.54139 0.14132 0.0
C535 C 0.36509 0.56867 0.16442 0.0
O536 O 0.35015 0.52166 0.16844 0.0
Co537 Co 0.35839 0.55154 0.20836 0.0
O538 O 0.37461 0.52683 0.19524 0.0
C539 C 0.31145 0.54114 0.20837 0.0
C540 C 0.30688 0.56154 0.14158 0.0
C541 C 0.36689 0.5156 0.17956 0.0
O542 O 0.31147 0.54083 0.18738 0.0
O543 O 0.32805 0.54677 0.21969 0.0
O544 O 0.35707 0.56105 0.1464 0.0
O545 O 0.35274 0.56667 0.18134 0.0
Co546 Co 0.45468 0.33595 0.16474 0.0
O547 O 0.4304 0.31759 0.15782 0.0
O548 O 0.46258 0.31581 0.14163 0.0
C549 C 0.43532 0.3672 0.1648 0.0
O550 O 0.48304 0.35329 0.16681 0.0
Co551 Co 0.45555 0.36276 0.20747 0.0
O552 O 0.47796 0.37969 0.19165 0.0
C553 C 0.46848 0.31631 0.20837 0.0
C554 C 0.44255 0.30896 0.14288 0.0
C555 C 0.48884 0.37118 0.17618 0.0
O556 O 0.46518 0.31469 0.18772 0.0
O557 O 0.46495 0.33376 0.21924 0.0
O558 O 0.44241 0.35898 0.14667 0.0
O559 O 0.43854 0.35546 0.18199 0.0
Co560 Co 0.83896 0.66873 0.54302 0.0
O561 O 0.84583 0.68727 0.56712 0.0
O562 O 0.86134 0.68957 0.5347 0.0
C563 C 0.84036 0.63743 0.56225 0.0
O564 O 0.83638 0.65137 0.5147 0.0
Co565 Co 0.79647 0.64147 0.54404 0.0
O566 O 0.81089 0.62554 0.51991 0.0
C567 C 0.79416 0.6884 0.53368 0.0
C568 C 0.86019 0.6965 0.55473 0.0
C569 C 0.82627 0.63392 0.50877 0.0
O570 O 0.81512 0.68935 0.53334 0.0
O571 O 0.78367 0.67122 0.5392 0.0
O572 O 0.85804 0.64618 0.5547 0.0
O573 O 0.82282 0.64877 0.55963 0.0
Co574 Co 0.8402 0.32879 0.45599 0.0
O575 O 0.84781 0.30829 0.43361 0.0
O576 O 0.863 0.30955 0.46635 0.0
C577 C 0.841 0.35883 0.43477 0.0
O578 O 0.83689 0.34808 0.48282 0.0
Co579 Co 0.79713 0.35511 0.4526 0.0
O580 O 0.81041 0.37259 0.47637 0.0
C581 C 0.79577 0.3089 0.46597 0.0
C582 C 0.8621 0.30065 0.44714 0.0
C583 C 0.82603 0.3653 0.48794 0.0
O584 O 0.81672 0.30848 0.46704 0.0
O585 O 0.78505 0.32532 0.45882 0.0
O586 O 0.85886 0.35092 0.44285 0.0
O587 O 0.82376 0.34716 0.43786 0.0
Co588 Co 0.67239 0.84307 0.45974 0.0
O589 O 0.69296 0.85011 0.43724 0.0
O590 O 0.69192 0.86585 0.46971 0.0
C591 C 0.64248 0.84385 0.43829 0.0
O592 O 0.65305 0.84033 0.48665 0.0
Co593 Co 0.64563 0.80022 0.45683 0.0
O594 O 0.62856 0.81368 0.4808 0.0
C595 C 0.69201 0.79856 0.46938 0.0
C596 C 0.70078 0.86455 0.45051 0.0
C597 C 0.63591 0.82949 0.4921 0.0
O598 O 0.69245 0.81948 0.47107 0.0
O599 O 0.67559 0.78803 0.46197 0.0
O600 O 0.65045 0.86175 0.44623 0.0
O601 O 0.65393 0.82656 0.4418 0.0
Co602 Co 0.16173 0.66932 0.45844 0.0
O603 O 0.15532 0.68778 0.43405 0.0
O604 O 0.13879 0.6898 0.46599 0.0
C605 C 0.16156 0.63804 0.43904 0.0
O606 O 0.1633 0.65212 0.48695 0.0
Co607 Co 0.20397 0.64179 0.45992 0.0
O608 O 0.18791 0.62539 0.48254 0.0
C609 C 0.20547 0.68827 0.47271 0.0
C610 C 0.14038 0.69668 0.446 0.0
C611 C 0.1725 0.63429 0.49319 0.0
O612 O 0.18491 0.69028 0.46909 0.0
O613 O 0.21608 0.6706 0.46951 0.0
O614 O 0.14348 0.64649 0.446 0.0
O615 O 0.17888 0.64952 0.44251 0.0
Co616 Co 0.33063 0.1597 0.45888 0.0
O617 O 0.30988 0.15292 0.43649 0.0
O618 O 0.31134 0.13674 0.46875 0.0
C619 C 0.36039 0.15921 0.43724 0.0
O620 O 0.35018 0.1621 0.48565 0.0
Co621 Co 0.35719 0.20264 0.4566 0.0
O622 O 0.37478 0.18863 0.47982 0.0
C623 C 0.31137 0.20386 0.47105 0.0
C624 C 0.30229 0.13826 0.44965 0.0
C625 C 0.36746 0.17275 0.49102 0.0
O626 O 0.31055 0.18292 0.47084 0.0
O627 O 0.32787 0.21485 0.46461 0.0
O628 O 0.3524 0.14125 0.44499 0.0
O629 O 0.34898 0.17653 0.44099 0.0
Co630 Co 0.16424 0.33357 0.54364 0.0
O631 O 0.15684 0.31538 0.56788 0.0
O632 O 0.14232 0.31236 0.535 0.0
C633 C 0.16205 0.36509 0.56246 0.0
O634 O 0.16713 0.35059 0.51516 0.0
Co635 Co 0.20602 0.36195 0.5449 0.0
O636 O 0.19112 0.37766 0.52098 0.0
C637 C 0.20946 0.31521 0.53346 0.0
C638 C 0.14281 0.30599 0.55523 0.0
C639 C 0.17643 0.36855 0.50948 0.0
O640 O 0.18859 0.31315 0.53468 0.0
O641 O 0.21944 0.33296 0.53804 0.0
O642 O 0.14463 0.35606 0.55461 0.0
O643 O 0.17979 0.35397 0.56031 0.0
Co644 Co 0.66737 0.16286 0.54381 0.0
O645 O 0.68533 0.15444 0.56787 0.0
O646 O 0.68701 0.1396 0.53505 0.0
C647 C 0.63598 0.16295 0.56292 0.0
O648 O 0.65032 0.16683 0.51554 0.0
Co649 Co 0.64235 0.20674 0.54543 0.0
O650 O 0.62581 0.19354 0.52098 0.0
C651 C 0.68936 0.20668 0.53528 0.0
C652 C 0.69375 0.13987 0.55516 0.0
C653 C 0.63344 0.17787 0.50969 0.0
O654 O 0.68925 0.18571 0.53453 0.0
O655 O 0.67279 0.21796 0.54107 0.0
O656 O 0.64371 0.14489 0.5551 0.0
O657 O 0.64832 0.17984 0.5606 0.0
Co658 Co 0.33115 0.84038 0.54481 0.0
O659 O 0.31132 0.84793 0.5678 0.0
O660 O 0.31144 0.863 0.53496 0.0
C661 C 0.36151 0.84128 0.56554 0.0
O662 O 0.34987 0.83759 0.51744 0.0
Co663 Co 0.3585 0.79798 0.5465 0.0
O664 O 0.37622 0.81311 0.52421 0.0
C665 C 0.31267 0.79608 0.53158 0.0
C666 C 0.30329 0.86219 0.55448 0.0
C667 C 0.368 0.82819 0.51257 0.0
O668 O 0.31068 0.81682 0.53406 0.0
O669 O 0.33006 0.78555 0.53622 0.0
O670 O 0.35337 0.8591 0.55761 0.0
O671 O 0.35007 0.82386 0.56238 0.0
C672 C 0.11369 0.45085 0.27293 0.0
C673 C 0.12488 0.43772 0.28788 0.0
C674 C 0.09982 0.44147 0.25722 0.0
C675 C 0.09685 0.41855 0.25684 0.0
C676 C 0.10726 0.40547 0.2727 0.0
C677 C 0.12126 0.41518 0.28782 0.0
C678 C 0.08919 0.45591 0.24043 0.0
C679 C 0.10436 0.38103 0.27315 0.0
C680 C 0.05318 0.38844 0.22466 0.0
C681 C 0.0657 0.37965 0.20775 0.0
C682 C 0.06275 0.40226 0.2403 0.0
C683 C 0.08515 0.40766 0.23858 0.0
C684 C 0.09735 0.39996 0.22061 0.0
C685 C 0.08755 0.38587 0.20561 0.0
C686 C 0.04927 0.40994 0.25934 0.0
C687 C 0.12116 0.40556 0.21787 0.0
H688 H 0.11638 0.4683 0.27302 0.0
H689 H 0.12955 0.40498 0.29962 0.0
H690 H 0.09683 0.45299 0.22431 0.0
H691 H 0.07164 0.45194 0.23884 0.0
H692 H 0.09089 0.47346 0.2445 0.0
H693 H 0.11173 0.37352 0.28787 0.0
H694 H 0.08681 0.37676 0.27268 0.0
H695 H 0.11211 0.37373 0.25856 0.0
H696 H 0.03625 0.38368 0.22627 0.0
H697 H 0.09718 0.3794 0.1923 0.0
H698 H 0.05196 0.42755 0.26237 0.0
H699 H 0.05437 0.40107 0.27423 0.0
H700 H 0.0316 0.40707 0.25672 0.0
H701 H 0.12375 0.42332 0.21991 0.0
H702 H 0.12751 0.4006 0.20168 0.0
H703 H 0.13085 0.39716 0.2306 0.0
C704 C 0.61552 0.0522 0.22912 0.0
C705 C 0.62118 0.06281 0.20976 0.0
C706 C 0.60224 0.06264 0.24467 0.0
C707 C 0.59409 0.08385 0.24035 0.0
C708 C 0.59854 0.09381 0.22006 0.0
C709 C 0.61229 0.08331 0.20519 0.0
C710 C 0.59817 0.05162 0.26624 0.0
C711 C 0.58987 0.11615 0.21452 0.0
C712 C 0.55125 0.11146 0.27596 0.0
C713 C 0.56421 0.1257 0.28825 0.0
C714 C 0.56071 0.0972 0.26065 0.0
C715 C 0.58363 0.097 0.25788 0.0
C716 C 0.59675 0.11091 0.27076 0.0
C717 C 0.5869 0.12515 0.2856 0.0
C718 C 0.54617 0.08282 0.24701 0.0
C719 C 0.62127 0.11115 0.26853 0.0
H720 H 0.62247 0.03635 0.23264 0.0
H721 H 0.61648 0.0914 0.19006 0.0
H722 H 0.60764 0.06004 0.27913 0.0
H723 H 0.58072 0.05275 0.27077 0.0
H724 H 0.60305 0.0342 0.26599 0.0
H725 H 0.5923 0.12027 0.19707 0.0
H726 H 0.57224 0.11722 0.21831 0.0
H727 H 0.59835 0.12858 0.22453 0.0
H728 H 0.53372 0.11175 0.27801 0.0
H729 H 0.59709 0.13588 0.29523 0.0
H730 H 0.55168 0.06564 0.24795 0.0
H731 H 0.54725 0.08784 0.22969 0.0
H732 H 0.52887 0.0837 0.25221 0.0
H733 H 0.62784 0.09439 0.27006 0.0
H734 H 0.62921 0.12162 0.28096 0.0
H735 H 0.62583 0.11728 0.25216 0.0
C736 C 0.94061 0.601 0.21183 0.0
C737 C 0.94193 0.62314 0.21711 0.0
C738 C 0.92959 0.58636 0.22556 0.0
C739 C 0.92031 0.59405 0.24525 0.0
C740 C 0.92316 0.61615 0.25132 0.0
C741 C 0.93351 0.63054 0.23692 0.0
C742 C 0.9264 0.56314 0.21817 0.0
C743 C 0.91417 0.6249 0.27247 0.0
C744 C 0.86844 0.5709 0.26928 0.0
C745 C 0.87643 0.55839 0.28655 0.0
C746 C 0.88268 0.58133 0.2548 0.0
C747 C 0.90546 0.57994 0.25825 0.0
C748 C 0.91362 0.56668 0.27529 0.0
C749 C 0.89894 0.55574 0.28908 0.0
C750 C 0.87326 0.59467 0.2364 0.0
C751 C 0.93771 0.56526 0.2799 0.0
H752 H 0.94682 0.59545 0.19626 0.0
H753 H 0.93449 0.64774 0.24084 0.0
H754 H 0.92992 0.55158 0.23159 0.0
H755 H 0.90913 0.56073 0.21338 0.0
H756 H 0.93689 0.55901 0.20402 0.0
H757 H 0.92049 0.64144 0.2762 0.0
H758 H 0.89615 0.62578 0.27148 0.0
H759 H 0.91834 0.61386 0.28615 0.0
H760 H 0.851 0.5729 0.26739 0.0
H761 H 0.90506 0.54629 0.30269 0.0
H762 H 0.88166 0.59081 0.22088 0.0
H763 H 0.8758 0.61225 0.23974 0.0
H764 H 0.85553 0.59179 0.23427 0.0
H765 H 0.94695 0.56195 0.26475 0.0
H766 H 0.94157 0.55238 0.29202 0.0
H767 H 0.94349 0.58112 0.28635 0.0
C768 C 0.41557 0.88264 0.29262 0.0
C769 C 0.43803 0.87861 0.29203 0.0
C770 C 0.40555 0.89607 0.27718 0.0
C771 C 0.41821 0.90542 0.26036 0.0
C772 C 0.44106 0.90206 0.26006 0.0
C773 C 0.45078 0.88881 0.2761 0.0
C774 C 0.38119 0.89945 0.27836 0.0
C775 C 0.45505 0.91153 0.24223 0.0
C776 C 0.38448 0.91294 0.20945 0.0
C777 C 0.37906 0.93509 0.21046 0.0
C778 C 0.39846 0.90349 0.22478 0.0
C779 C 0.4069 0.91639 0.24191 0.0
C780 C 0.40216 0.93899 0.24257 0.0
C781 C 0.38843 0.94817 0.22664 0.0
C782 C 0.40332 0.87941 0.2232 0.0
C783 C 0.41061 0.95321 0.26074 0.0
H784 H 0.40568 0.87509 0.30515 0.0
H785 H 0.46816 0.88577 0.27566 0.0
H786 H 0.3772 0.91702 0.27706 0.0
H787 H 0.37323 0.89104 0.26449 0.0
H788 H 0.37412 0.89304 0.29372 0.0
H789 H 0.4727 0.90963 0.2457 0.0
H790 H 0.45134 0.90319 0.22663 0.0
H791 H 0.45139 0.92907 0.23994 0.0
H792 H 0.37757 0.90283 0.19672 0.0
H793 H 0.38429 0.96531 0.22739 0.0
H794 H 0.39516 0.87068 0.23674 0.0
H795 H 0.42108 0.87645 0.22475 0.0
H796 H 0.39762 0.87229 0.20757 0.0
H797 H 0.40226 0.94883 0.27615 0.0
H798 H 0.40781 0.97079 0.25749 0.0
H799 H 0.42829 0.95047 0.26325 0.0
C800 C 0.10247 0.56289 0.7111 0.0
C801 C 0.12449 0.56041 0.71641 0.0
C802 C 0.08836 0.57448 0.7249 0.0
C803 C 0.09646 0.58314 0.74469 0.0
C804 C 0.11837 0.57915 0.75079 0.0
C805 C 0.13228 0.56825 0.7363 0.0
C806 C 0.06536 0.57893 0.71746 0.0
C807 C 0.12748 0.58746 0.77207 0.0
C808 C 0.07536 0.63581 0.76887 0.0
C809 C 0.06224 0.62826 0.78589 0.0
C810 C 0.08545 0.62124 0.7545 0.0
C811 C 0.08304 0.59852 0.75779 0.0
C812 C 0.0692 0.59082 0.77457 0.0
C813 C 0.05865 0.60586 0.78826 0.0
C814 C 0.09945 0.63018 0.73636 0.0
C815 C 0.06668 0.56677 0.77898 0.0
H816 H 0.09665 0.55712 0.69545 0.0
H817 H 0.1494 0.56638 0.74024 0.0
H818 H 0.05358 0.57572 0.73076 0.0
H819 H 0.06381 0.59638 0.713 0.0
H820 H 0.0608 0.56892 0.70309 0.0
H821 H 0.14366 0.58026 0.77579 0.0
H822 H 0.12928 0.60542 0.77129 0.0
H823 H 0.11618 0.5837 0.78566 0.0
H824 H 0.07807 0.65318 0.76708 0.0
H825 H 0.04873 0.60006 0.80167 0.0
H826 H 0.09532 0.62216 0.7207 0.0
H827 H 0.11683 0.6267 0.73983 0.0
H828 H 0.09749 0.64806 0.73441 0.0
H829 H 0.06294 0.55784 0.76374 0.0
H830 H 0.05364 0.5634 0.79106 0.0
H831 H 0.08227 0.56021 0.78536 0.0
C832 C 0.3773 0.08983 0.78942 0.0
C833 C 0.37608 0.06719 0.79211 0.0
C834 C 0.39157 0.09921 0.77434 0.0
C835 C 0.40486 0.08562 0.76131 0.0
C836 C 0.40414 0.06273 0.76425 0.0
C837 C 0.38979 0.05375 0.77975 0.0
C838 C 0.39188 0.12371 0.7719 0.0
C839 C 0.41793 0.04774 0.75052 0.0
C840 C 0.41703 0.11385 0.70817 0.0
C841 C 0.43762 0.12281 0.71217 0.0
C842 C 0.40704 0.10006 0.72331 0.0
C843 C 0.41764 0.09562 0.74328 0.0
C844 C 0.43899 0.10369 0.74693 0.0
C845 C 0.4489 0.11706 0.73112 0.0
C846 C 0.38449 0.09148 0.7185 0.0
C847 C 0.45071 0.09954 0.76812 0.0
H848 H 0.36699 0.10039 0.79911 0.0
H849 H 0.389 0.03624 0.78186 0.0
H850 H 0.40883 0.1299 0.77292 0.0
H851 H 0.3854 0.12828 0.75566 0.0
H852 H 0.38195 0.13201 0.78453 0.0
H853 H 0.41715 0.03059 0.75625 0.0
H854 H 0.41224 0.04833 0.73338 0.0
H855 H 0.43516 0.05316 0.75064 0.0
H856 H 0.40847 0.11806 0.6933 0.0
H857 H 0.46484 0.12401 0.73416 0.0
H858 H 0.37243 0.10015 0.72878 0.0
H859 H 0.3834 0.07389 0.72247 0.0
H860 H 0.37989 0.09379 0.70115 0.0
H861 H 0.44304 0.10937 0.7812 0.0
H862 H 0.46822 0.10398 0.76715 0.0
H863 H 0.44932 0.08217 0.77289 0.0
C864 C 0.87852 0.41001 0.709 0.0
C865 C 0.87478 0.43251 0.70987 0.0
C866 C 0.89211 0.39968 0.72412 0.0
C867 C 0.90184 0.41207 0.74094 0.0
C868 C 0.89862 0.43494 0.74161 0.0
C869 C 0.88529 0.44497 0.72584 0.0
C870 C 0.89537 0.37534 0.72252 0.0
C871 C 0.9084 0.44862 0.75952 0.0
C872 C 0.91067 0.37789 0.79138 0.0
C873 C 0.93289 0.37284 0.79 0.0
C874 C 0.90076 0.3918 0.77628 0.0
C875 C 0.91323 0.40049 0.75897 0.0
C876 C 0.93586 0.396 0.75784 0.0
C877 C 0.94553 0.38239 0.77359 0.0
C878 C 0.87668 0.39644 0.77839 0.0
C879 C 0.94961 0.40466 0.73941 0.0
H880 H 0.87072 0.40035 0.69643 0.0
H881 H 0.88246 0.46238 0.7265 0.0
H882 H 0.91295 0.37128 0.72343 0.0
H883 H 0.88721 0.3672 0.73643 0.0
H884 H 0.88864 0.36851 0.70718 0.0
H885 H 0.90625 0.46633 0.75653 0.0
H886 H 0.90053 0.44444 0.77524 0.0
H887 H 0.92603 0.4451 0.76126 0.0
H888 H 0.90092 0.37082 0.80429 0.0
H889 H 0.96272 0.37852 0.77255 0.0
H890 H 0.86774 0.38839 0.7649 0.0
H891 H 0.87356 0.41419 0.77713 0.0
H892 H 0.86991 0.39047 0.79407 0.0
H893 H 0.9447 0.39662 0.72399 0.0
H894 H 0.96725 0.40168 0.7421 0.0
H895 H 0.94693 0.4224 0.73731 0.0
C896 C 0.60489 0.94257 0.78748 0.0
C897 C 0.62738 0.93985 0.78485 0.0
C898 C 0.5901 0.93182 0.77365 0.0
C899 C 0.59812 0.91868 0.75645 0.0
C900 C 0.62088 0.91716 0.75294 0.0
C901 C 0.63523 0.92739 0.76748 0.0
C902 C 0.56603 0.93336 0.77833 0.0
C903 C 0.63015 0.90395 0.73438 0.0
C904 C 0.56906 0.86897 0.73418 0.0
C905 C 0.56056 0.87696 0.71463 0.0
C906 C 0.57986 0.88286 0.74877 0.0
C907 C 0.58308 0.90502 0.74315 0.0
C908 C 0.57384 0.91328 0.72368 0.0
C909 C 0.56237 0.89915 0.70977 0.0
C910 C 0.58881 0.87352 0.76969 0.0
C911 C 0.57745 0.93658 0.71672 0.0
H912 H 0.59887 0.95196 0.80117 0.0
H913 H 0.65266 0.92532 0.7655 0.0
H914 H 0.55682 0.93721 0.76328 0.0
H915 H 0.56008 0.91737 0.78431 0.0
H916 H 0.56231 0.94592 0.79082 0.0
H917 H 0.64792 0.90663 0.73232 0.0
H918 H 0.62736 0.88637 0.73744 0.0
H919 H 0.62182 0.90815 0.7189 0.0
H920 H 0.5677 0.85173 0.73778 0.0
H921 H 0.55608 0.90515 0.69439 0.0
H922 H 0.58483 0.88432 0.78362 0.0
H923 H 0.60681 0.87243 0.76863 0.0
H924 H 0.58228 0.85699 0.77308 0.0
H925 H 0.57389 0.94794 0.7303 0.0
H926 H 0.56722 0.9411 0.7025 0.0
H927 H 0.59481 0.93884 0.71225 0.0
C928 C 0.23536 0.06828 0.36862 0.0
C929 C 0.21627 0.05843 0.37614 0.0
C930 C 0.24973 0.07854 0.38312 0.0
C931 C 0.24429 0.07983 0.40552 0.0
C932 C 0.22534 0.06918 0.41328 0.0
C933 C 0.21169 0.05827 0.39847 0.0
C934 C 0.27014 0.08901 0.37425 0.0
C935 C 0.2186 0.07072 0.43686 0.0
C936 C 0.28875 0.10057 0.4434 0.0
C937 C 0.28537 0.12308 0.44213 0.0
C938 C 0.27503 0.08604 0.43219 0.0
C939 C 0.2572 0.09431 0.42008 0.0
C940 C 0.2529 0.11699 0.42017 0.0
C941 C 0.26733 0.13114 0.43081 0.0
C942 C 0.28057 0.06209 0.43198 0.0
C943 C 0.23367 0.12646 0.40811 0.0
H944 H 0.23878 0.06841 0.35129 0.0
H945 H 0.19666 0.05093 0.40414 0.0
H946 H 0.26834 0.10699 0.37453 0.0
H947 H 0.28438 0.08479 0.38454 0.0
H948 H 0.27354 0.08389 0.35723 0.0
H949 H 0.20499 0.05947 0.44078 0.0
H950 H 0.23252 0.06705 0.44776 0.0
H951 H 0.21329 0.08763 0.44043 0.0
H952 H 0.30297 0.09443 0.45189 0.0
H953 H 0.26481 0.1486 0.42984 0.0
H954 H 0.28665 0.05753 0.41558 0.0
H955 H 0.26589 0.05209 0.43523 0.0
H956 H 0.29328 0.05795 0.44417 0.0
H957 H 0.23646 0.12522 0.39031 0.0
H958 H 0.23094 0.14386 0.41225 0.0
H959 H 0.21864 0.11717 0.41191 0.0
C960 C 0.89999 0.28707 0.44207 0.0
C961 C 0.87752 0.28376 0.43998 0.0
C962 C 0.91487 0.27334 0.43133 0.0
C963 C 0.90699 0.25557 0.41887 0.0
C964 C 0.88431 0.25134 0.41814 0.0
C965 C 0.86983 0.26578 0.42832 0.0
C966 C 0.93882 0.2788 0.43202 0.0
C967 C 0.87522 0.23217 0.40569 0.0
C968 C 0.93478 0.23391 0.36825 0.0
C969 C 0.9443 0.21474 0.376 0.0
C970 C 0.92404 0.24822 0.38245 0.0
C971 C 0.92194 0.24267 0.40476 0.0
C972 C 0.93224 0.22364 0.41278 0.0
C973 C 0.94363 0.21002 0.39829 0.0
C974 C 0.91395 0.26871 0.37332 0.0
C975 C 0.92987 0.21678 0.43626 0.0
H976 H 0.90586 0.30123 0.45084 0.0
H977 H 0.85241 0.2633 0.42674 0.0
H978 H 0.94865 0.26406 0.43556 0.0
H979 H 0.94399 0.28495 0.41583 0.0
H980 H 0.94257 0.29143 0.44442 0.0
H981 H 0.85767 0.22949 0.40919 0.0
H982 H 0.87711 0.23501 0.38795 0.0
H983 H 0.88431 0.2171 0.4098 0.0
H984 H 0.93529 0.23742 0.35094 0.0
H985 H 0.95071 0.19493 0.40414 0.0
H986 H 0.91788 0.28289 0.3838 0.0
H987 H 0.89597 0.26698 0.373 0.0
H988 H 0.91963 0.27217 0.35649 0.0
H989 H 0.93317 0.23065 0.44735 0.0
H990 H 0.94096 0.20314 0.44051 0.0
H991 H 0.91285 0.21146 0.43921 0.0
C992 C 0.73528 0.87161 0.43075 0.0
C993 C 0.71788 0.87964 0.44305 0.0
C994 C 0.74986 0.8858 0.42038 0.0
C995 C 0.74638 0.90859 0.42159 0.0
C996 C 0.72921 0.9168 0.43465 0.0
C997 C 0.71532 0.90217 0.44554 0.0
C998 C 0.76838 0.87633 0.40725 0.0
C999 C 0.72456 0.9409 0.43589 0.0
C1000 C 0.79283 0.94392 0.40071 0.0
C1001 C 0.78767 0.94522 0.37855 0.0
C1002 C 0.77908 0.93281 0.41528 0.0
C1003 C 0.75949 0.92339 0.40749 0.0
C1004 C 0.75356 0.92614 0.38534 0.0
C1005 C 0.76798 0.93661 0.37104 0.0
C1006 C 0.78633 0.92972 0.43856 0.0
C1007 C 0.73253 0.917 0.37647 0.0
H1008 H 0.7372 0.85415 0.42885 0.0
H1009 H 0.7016 0.90833 0.4548 0.0
H1010 H 0.76518 0.87874 0.38964 0.0
H1011 H 0.78386 0.88479 0.41118 0.0
H1012 H 0.77052 0.85862 0.41028 0.0
H1013 H 0.71229 0.94482 0.4486 0.0
H1014 H 0.73967 0.95017 0.43933 0.0
H1015 H 0.71828 0.94658 0.41992 0.0
H1016 H 0.80831 0.95029 0.40636 0.0
H1017 H 0.76414 0.93756 0.35382 0.0
H1018 H 0.79104 0.91245 0.44109 0.0
H1019 H 0.77285 0.93334 0.45001 0.0
H1020 H 0.80049 0.9402 0.44272 0.0
H1021 H 0.73359 0.89898 0.37573 0.0
H1022 H 0.72891 0.92318 0.35985 0.0
H1023 H 0.71873 0.9212 0.38735 0.0
C1024 C 0.05243 0.77407 0.38653 0.0
C1025 C 0.06385 0.79254 0.37959 0.0
C1026 C 0.06264 0.75836 0.39979 0.0
C1027 C 0.08449 0.76162 0.4066 0.0
C1028 C 0.09542 0.78107 0.40081 0.0
C1029 C 0.08508 0.7961 0.38714 0.0
C1030 C 0.05056 0.7377 0.40533 0.0
C1031 C 0.11852 0.78548 0.40805 0.0
C1032 C 0.11229 0.72637 0.44957 0.0
C1033 C 0.12521 0.71284 0.43648 0.0
C1034 C 0.09834 0.74198 0.44015 0.0
C1035 C 0.09707 0.74375 0.41716 0.0
C1036 C 0.10953 0.72955 0.40396 0.0
C1037 C 0.12355 0.71446 0.41376 0.0
C1038 C 0.08556 0.75705 0.45475 0.0
C1039 C 0.10853 0.73066 0.37939 0.0
H1040 H 0.036 0.77135 0.38065 0.0
H1041 H 0.09381 0.81057 0.38202 0.0
H1042 H 0.05769 0.72393 0.39603 0.0
H1043 H 0.05231 0.73381 0.42288 0.0
H1044 H 0.03296 0.73883 0.40129 0.0
H1045 H 0.12362 0.80249 0.40459 0.0
H1046 H 0.1203 0.7824 0.42576 0.0
H1047 H 0.12979 0.77429 0.39944 0.0
H1048 H 0.11346 0.72511 0.46714 0.0
H1049 H 0.13324 0.70384 0.40351 0.0
H1050 H 0.06813 0.7571 0.45002 0.0
H1051 H 0.09168 0.77394 0.45282 0.0
H1052 H 0.08688 0.75241 0.47219 0.0
H1053 H 0.09137 0.72994 0.37378 0.0
H1054 H 0.11774 0.71721 0.37152 0.0
H1055 H 0.11544 0.74636 0.37373 0.0
C1056 C 0.21763 0.94487 0.61038 0.0
C1057 C 0.2143 0.93561 0.63098 0.0
C1058 C 0.23201 0.9352 0.59535 0.0
C1059 C 0.24347 0.91606 0.60127 0.0
C1060 C 0.2407 0.90717 0.62236 0.0
C1061 C 0.22605 0.91695 0.63686 0.0
C1062 C 0.23444 0.94504 0.57297 0.0
C1063 C 0.25289 0.88702 0.62952 0.0
C1064 C 0.2652 0.874 0.56154 0.0
C1065 C 0.28752 0.87829 0.56242 0.0
C1066 C 0.25036 0.88724 0.57289 0.0
C1067 C 0.25822 0.9049 0.58557 0.0
C1068 C 0.28073 0.90989 0.58544 0.0
C1069 C 0.29514 0.89643 0.57389 0.0
C1070 C 0.22648 0.88145 0.57249 0.0
C1071 C 0.28983 0.92843 0.59879 0.0
H1072 H 0.20843 0.9592 0.60571 0.0
H1073 H 0.22362 0.90979 0.65281 0.0
H1074 H 0.25186 0.94821 0.5694 0.0
H1075 H 0.22848 0.93336 0.56054 0.0
H1076 H 0.22523 0.96052 0.57125 0.0
H1077 H 0.24949 0.88267 0.64675 0.0
H1078 H 0.24826 0.87302 0.61907 0.0
H1079 H 0.27068 0.88952 0.62763 0.0
H1080 H 0.25946 0.85975 0.55283 0.0
H1081 H 0.31253 0.89946 0.57469 0.0
H1082 H 0.21644 0.89621 0.56967 0.0
H1083 H 0.22168 0.87462 0.58852 0.0
H1084 H 0.22266 0.86924 0.55969 0.0
H1085 H 0.28011 0.94345 0.59629 0.0
H1086 H 0.3071 0.93192 0.5947 0.0
H1087 H 0.28886 0.92422 0.61634 0.0
C1088 C 0.0561 0.22496 0.61233 0.0
C1089 C 0.06903 0.21067 0.62457 0.0
C1090 C 0.06574 0.24039 0.59833 0.0
C1091 C 0.08875 0.24117 0.59632 0.0
C1092 C 0.1017 0.22602 0.60787 0.0
C1093 C 0.09171 0.21114 0.62196 0.0
C1094 C 0.05142 0.25646 0.58649 0.0
C1095 C 0.12624 0.22603 0.60603 0.0
C1096 C 0.1193 0.27256 0.55233 0.0
C1097 C 0.1271 0.29027 0.5644 0.0
C1098 C 0.10584 0.25677 0.56216 0.0
C1099 C 0.09971 0.25919 0.58431 0.0
C1100 C 0.10649 0.27785 0.59602 0.0
C1101 C 0.12032 0.29295 0.58601 0.0
C1102 C 0.09922 0.23694 0.54926 0.0
C1103 C 0.10004 0.28137 0.6195 0.0
H1104 H 0.03856 0.22456 0.61423 0.0
H1105 H 0.1018 0.19988 0.63107 0.0
H1106 H 0.05386 0.27295 0.59346 0.0
H1107 H 0.05595 0.25729 0.56902 0.0
H1108 H 0.03389 0.2522 0.58779 0.0
H1109 H 0.13375 0.21178 0.61428 0.0
H1110 H 0.13125 0.22594 0.58868 0.0
H1111 H 0.13288 0.24108 0.61352 0.0
H1112 H 0.12449 0.27053 0.53558 0.0
H1113 H 0.12602 0.30689 0.59526 0.0
H1114 H 0.08157 0.23366 0.55124 0.0
H1115 H 0.1081 0.22249 0.55551 0.0
H1116 H 0.1029 0.23876 0.53164 0.0
H1117 H 0.08224 0.27904 0.62156 0.0
H1118 H 0.10444 0.2979 0.6254 0.0
H1119 H 0.10835 0.26919 0.62995 0.0
C1120 C 0.79163 0.0887 0.61677 0.0
C1121 C 0.79088 0.06645 0.6218 0.0
C1122 C 0.77627 0.0982 0.60288 0.0
C1123 C 0.75937 0.08523 0.5941 0.0
C1124 C 0.75899 0.06253 0.59837 0.0
C1125 C 0.77496 0.05332 0.61206 0.0
C1126 C 0.77754 0.12239 0.59852 0.0
C1127 C 0.7411 0.04823 0.5895 0.0
C1128 C 0.70856 0.11896 0.58631 0.0
C1129 C 0.70935 0.12384 0.56403 0.0
C1130 C 0.72389 0.10511 0.59592 0.0
C1131 C 0.74079 0.09621 0.58303 0.0
C1132 C 0.74116 0.1003 0.5603 0.0
C1133 C 0.72524 0.11396 0.55098 0.0
C1134 C 0.72262 0.10094 0.62014 0.0
C1135 C 0.75904 0.09129 0.54607 0.0
H1136 H 0.80418 0.09884 0.62395 0.0
H1137 H 0.77442 0.03609 0.61586 0.0
H1138 H 0.77605 0.1257 0.58082 0.0
H1139 H 0.76383 0.13076 0.60679 0.0
H1140 H 0.79303 0.12961 0.60446 0.0
H1141 H 0.74472 0.03064 0.59175 0.0
H1142 H 0.72562 0.05202 0.59802 0.0
H1143 H 0.73849 0.05146 0.57192 0.0
H1144 H 0.69604 0.12625 0.5964 0.0
H1145 H 0.7258 0.11766 0.53373 0.0
H1146 H 0.73632 0.10929 0.62845 0.0
H1147 H 0.72412 0.08327 0.62359 0.0
H1148 H 0.70712 0.10693 0.62731 0.0
H1149 H 0.77451 0.09986 0.54976 0.0
H1150 H 0.75539 0.09336 0.52847 0.0
H1151 H 0.76165 0.07374 0.54947 0.0
C1152 C 0.87411 0.71785 0.58619 0.0
C1153 C 0.8751 0.71315 0.56385 0.0
C1154 C 0.88819 0.73299 0.59576 0.0
C1155 C 0.90365 0.74399 0.58268 0.0
C1156 C 0.90489 0.73931 0.56011 0.0
C1157 C 0.89062 0.72383 0.55094 0.0
C1158 C 0.88626 0.73744 0.6199 0.0
C1159 C 0.92102 0.75089 0.54565 0.0
C1160 C 0.91862 0.79737 0.60916 0.0
C1161 C 0.93776 0.79187 0.62025 0.0
C1162 C 0.90845 0.78251 0.59516 0.0
C1163 C 0.91727 0.76136 0.59277 0.0
C1164 C 0.93731 0.75612 0.60304 0.0
C1165 C 0.94752 0.77163 0.61652 0.0
C1166 C 0.8874 0.78899 0.5842 0.0
C1167 C 0.94706 0.73365 0.60118 0.0
H1168 H 0.86229 0.7096 0.59637 0.0
H1169 H 0.89153 0.7202 0.53369 0.0
H1170 H 0.9023 0.73528 0.62794 0.0
H1171 H 0.88113 0.75455 0.62258 0.0
H1172 H 0.87427 0.72656 0.62797 0.0
H1173 H 0.9206 0.74475 0.52864 0.0
H1174 H 0.91745 0.7686 0.5455 0.0
H1175 H 0.93776 0.74888 0.55215 0.0
H1176 H 0.91123 0.81318 0.61194 0.0
H1177 H 0.96231 0.76743 0.62521 0.0
H1178 H 0.87356 0.78074 0.5924 0.0
H1179 H 0.88735 0.78379 0.5669 0.0
H1180 H 0.8846 0.80685 0.58491 0.0
H1181 H 0.93712 0.72202 0.61079 0.0
H1182 H 0.96406 0.73311 0.60736 0.0
H1183 H 0.94689 0.72801 0.58402 0.0
C1184 C 0.44584 0.2772 0.11723 0.0
C1185 C 0.43313 0.29325 0.12729 0.0
C1186 C 0.43615 0.26144 0.10365 0.0
C1187 C 0.4134 0.26219 0.09974 0.0
C1188 C 0.40082 0.27919 0.10891 0.0
C1189 C 0.41079 0.2943 0.12276 0.0
C1190 C 0.45003 0.24337 0.09445 0.0
C1191 C 0.3766 0.28089 0.10488 0.0
C1192 C 0.38434 0.22881 0.0562 0.0
C1193 C 0.37443 0.21276 0.06903 0.0
C1194 C 0.39796 0.24463 0.06575 0.0
C1195 C 0.40203 0.24396 0.08848 0.0
C1196 C 0.393 0.22698 0.10117 0.0
C1197 C 0.37914 0.21179 0.09134 0.0
C1198 C 0.40704 0.26267 0.05176 0.0
C1199 C 0.39718 0.22537 0.12537 0.0
H1200 H 0.46314 0.27644 0.12067 0.0
H1201 H 0.40097 0.30696 0.1302 0.0
H1202 H 0.44585 0.22783 0.10267 0.0
H1203 H 0.44673 0.24118 0.07683 0.0
H1204 H 0.4677 0.24652 0.09676 0.0
H1205 H 0.36971 0.29642 0.11109 0.0
H1206 H 0.37305 0.27965 0.08721 0.0
H1207 H 0.36812 0.26721 0.11309 0.0
H1208 H 0.38076 0.22952 0.03893 0.0
H1209 H 0.37182 0.19914 0.10125 0.0
H1210 H 0.42468 0.26489 0.05493 0.0
H1211 H 0.39882 0.27822 0.05595 0.0
H1212 H 0.40461 0.25947 0.03412 0.0
H1213 H 0.41487 0.2266 0.12881 0.0
H1214 H 0.39099 0.20987 0.13237 0.0
H1215 H 0.38904 0.23909 0.13385 0.0
C1216 C 0.39239 0.78078 0.94823 0.0
C1217 C 0.37407 0.78737 0.93627 0.0
C1218 C 0.40762 0.76613 0.93929 0.0
C1219 C 0.40435 0.75796 0.91796 0.0
C1220 C 0.38573 0.76439 0.90599 0.0
C1221 C 0.37086 0.77896 0.91528 0.0
C1222 C 0.42722 0.75952 0.95254 0.0
C1223 C 0.38149 0.75596 0.88325 0.0
C1224 C 0.4481 0.73456 0.88111 0.0
C1225 C 0.44245 0.71252 0.88138 0.0
C1226 C 0.43684 0.74958 0.89427 0.0
C1227 C 0.41982 0.74215 0.90803 0.0
C1228 C 0.41539 0.71958 0.90951 0.0
C1229 C 0.42659 0.70507 0.89593 0.0
C1230 C 0.44193 0.77352 0.89209 0.0
C1231 C 0.39761 0.7109 0.92411 0.0
H1232 H 0.39502 0.78731 0.96441 0.0
H1233 H 0.35675 0.78393 0.90592 0.0
H1234 H 0.4276 0.74156 0.95446 0.0
H1235 H 0.44235 0.76428 0.9439 0.0
H1236 H 0.42728 0.76712 0.96896 0.0
H1237 H 0.36643 0.76289 0.876 0.0
H1238 H 0.39542 0.75999 0.87247 0.0
H1239 H 0.37993 0.73796 0.88354 0.0
H1240 H 0.46024 0.74024 0.86962 0.0
H1241 H 0.42227 0.68793 0.89598 0.0
H1242 H 0.44288 0.78134 0.90835 0.0
H1243 H 0.42864 0.78165 0.88293 0.0
H1244 H 0.4575 0.77636 0.88331 0.0
H1245 H 0.39851 0.71849 0.94047 0.0
H1246 H 0.39855 0.69292 0.92597 0.0
H1247 H 0.3815 0.71505 0.91706 0.0
C1248 C 0.2754 0.44849 0.88564 0.0
C1249 C 0.29127 0.43594 0.87508 0.0
C1250 C 0.25969 0.43855 0.89911 0.0
C1251 C 0.2603 0.41569 0.90238 0.0
C1252 C 0.27706 0.40323 0.89266 0.0
C1253 C 0.29214 0.41346 0.87896 0.0
C1254 C 0.24188 0.45232 0.90892 0.0
C1255 C 0.27858 0.37889 0.89597 0.0
C1256 C 0.22754 0.38576 0.94579 0.0
C1257 C 0.21122 0.37622 0.93301 0.0
C1258 C 0.24325 0.39953 0.93629 0.0
C1259 C 0.24218 0.40417 0.91368 0.0
C1260 C 0.22491 0.39554 0.9011 0.0
C1261 C 0.20986 0.38148 0.91085 0.0
C1262 C 0.26161 0.40814 0.95016 0.0
C1263 C 0.22285 0.40035 0.87705 0.0
H1264 H 0.27476 0.46589 0.88272 0.0
H1265 H 0.30463 0.40374 0.87114 0.0
H1266 H 0.22616 0.44839 0.90091 0.0
H1267 H 0.24 0.44866 0.92651 0.0
H1268 H 0.24507 0.47002 0.90694 0.0
H1269 H 0.29392 0.37201 0.88928 0.0
H1270 H 0.27764 0.37486 0.91355 0.0
H1271 H 0.26467 0.37077 0.88778 0.0
H1272 H 0.22856 0.38174 0.96295 0.0
H1273 H 0.197 0.37443 0.90099 0.0
H1274 H 0.26388 0.42585 0.94741 0.0
H1275 H 0.27702 0.39996 0.94546 0.0
H1276 H 0.25874 0.40528 0.96779 0.0
H1277 H 0.22417 0.41811 0.87404 0.0
H1278 H 0.20717 0.39447 0.87021 0.0
H1279 H 0.23633 0.39231 0.86809 0.0
C1280 C 0.61353 0.20557 0.9161 0.0
C1281 C 0.62092 0.20862 0.93746 0.0
C1282 C 0.59956 0.22061 0.9062 0.0
C1283 C 0.59327 0.23953 0.91775 0.0
C1284 C 0.59973 0.24212 0.93979 0.0
C1285 C 0.61336 0.22642 0.94952 0.0
C1286 C 0.59275 0.21691 0.88284 0.0
C1287 C 0.59356 0.26217 0.95256 0.0
C1288 C 0.58759 0.28752 0.87971 0.0
C1289 C 0.56498 0.28893 0.87687 0.0
C1290 C 0.59681 0.27234 0.89396 0.0
C1291 C 0.58312 0.25783 0.9055 0.0
C1292 C 0.5602 0.25954 0.90326 0.0
C1293 C 0.55134 0.27525 0.88904 0.0
C1294 C 0.62132 0.2713 0.896 0.0
C1295 C 0.54511 0.24423 0.91514 0.0
H1296 H 0.61909 0.19156 0.90689 0.0
H1297 H 0.61904 0.22871 0.96608 0.0
H1298 H 0.57506 0.21995 0.88082 0.0
H1299 H 0.60153 0.2285 0.87211 0.0
H1300 H 0.59641 0.20009 0.87726 0.0
H1301 H 0.59679 0.26018 0.97025 0.0
H1302 H 0.60315 0.27626 0.94656 0.0
H1303 H 0.57609 0.26613 0.9502 0.0
H1304 H 0.59824 0.29831 0.87065 0.0
H1305 H 0.53385 0.27638 0.88697 0.0
H1306 H 0.62736 0.25585 0.88883 0.0
H1307 H 0.62621 0.27149 0.91339 0.0
H1308 H 0.6295 0.28506 0.88757 0.0
H1309 H 0.54675 0.22761 0.90821 0.0
H1310 H 0.52781 0.24933 0.9138 0.0
H1311 H 0.54958 0.24322 0.93261 0.0
C1312 C 0.72872 0.55306 0.88651 0.0
C1313 C 0.71399 0.56618 0.87503 0.0
C1314 C 0.74446 0.56243 0.90036 0.0
C1315 C 0.74506 0.58537 0.90307 0.0
C1316 C 0.72954 0.59851 0.89223 0.0
C1317 C 0.7144 0.58879 0.8782 0.0
C1318 C 0.76096 0.54793 0.91135 0.0
C1319 C 0.72932 0.62298 0.89488 0.0
C1320 C 0.77666 0.61453 0.94789 0.0
C1321 C 0.79415 0.62302 0.93597 0.0
C1322 C 0.7609 0.6013 0.93769 0.0
C1323 C 0.76311 0.59612 0.91528 0.0
C1324 C 0.78155 0.60357 0.90366 0.0
C1325 C 0.79665 0.61713 0.91406 0.0
C1326 C 0.74131 0.59394 0.95054 0.0
C1327 C 0.78483 0.59813 0.87989 0.0
H1328 H 0.72839 0.53556 0.88415 0.0
H1329 H 0.70281 0.59901 0.86966 0.0
H1330 H 0.77732 0.55102 0.90432 0.0
H1331 H 0.76192 0.55169 0.92899 0.0
H1332 H 0.75704 0.53038 0.90932 0.0
H1333 H 0.71489 0.6306 0.88707 0.0
H1334 H 0.7294 0.6274 0.9124 0.0
H1335 H 0.7442 0.63003 0.88745 0.0
H1336 H 0.77473 0.61906 0.96484 0.0
H1337 H 0.81039 0.62339 0.90489 0.0
H1338 H 0.73822 0.57634 0.94792 0.0
H1339 H 0.72668 0.60288 0.9448 0.0
H1340 H 0.74328 0.59696 0.96827 0.0
H1341 H 0.78263 0.58042 0.8771 0.0
H1342 H 0.80125 0.60293 0.87399 0.0
H1343 H 0.77246 0.60677 0.86994 0.0
C1344 C 0.56091 0.71378 0.10307 0.0
C1345 C 0.56205 0.71789 0.12547 0.0
C1346 C 0.57177 0.72735 0.08814 0.0
C1347 C 0.58336 0.74577 0.09585 0.0
C1348 C 0.58312 0.75075 0.11839 0.0
C1349 C 0.57288 0.73646 0.13298 0.0
C1350 C 0.57216 0.72107 0.06438 0.0
C1351 C 0.59461 0.7706 0.12727 0.0
C1352 C 0.63433 0.76797 0.0691 0.0
C1353 C 0.62638 0.78653 0.05857 0.0
C1354 C 0.62017 0.75365 0.07989 0.0
C1355 C 0.59765 0.75859 0.08098 0.0
C1356 C 0.58945 0.77697 0.06967 0.0
C1357 C 0.60395 0.79058 0.05827 0.0
C1358 C 0.62952 0.73384 0.09106 0.0
C1359 C 0.56571 0.78318 0.07093 0.0
H1360 H 0.55282 0.69915 0.09738 0.0
H1361 H 0.57375 0.73953 0.15035 0.0
H1362 H 0.56855 0.73534 0.05392 0.0
H1363 H 0.58872 0.71528 0.06003 0.0
H1364 H 0.56031 0.70793 0.06062 0.0
H1365 H 0.59035 0.77377 0.14456 0.0
H1366 H 0.61249 0.76826 0.12616 0.0
H1367 H 0.59042 0.78522 0.11749 0.0
H1368 H 0.65173 0.76495 0.06934 0.0
H1369 H 0.59792 0.8052 0.0504 0.0
H1370 H 0.61962 0.7192 0.08729 0.0
H1371 H 0.62911 0.73622 0.10897 0.0
H1372 H 0.64665 0.7307 0.08613 0.0
H1373 H 0.55516 0.76887 0.06774 0.0
H1374 H 0.56148 0.79629 0.05921 0.0
H1375 H 0.56197 0.789 0.08763 0.0
C1376 C 0.22595 0.61712 0.05384 0.0
C1377 C 0.20921 0.62618 0.06642 0.0
C1378 C 0.24205 0.60395 0.06356 0.0
C1379 C 0.241 0.59947 0.0862 0.0
C1380 C 0.22331 0.60753 0.09857 0.0
C1381 C 0.20782 0.62095 0.08859 0.0
C1382 C 0.26078 0.59586 0.04988 0.0
C1383 C 0.22129 0.60291 0.12265 0.0
C1384 C 0.27577 0.557 0.11525 0.0
C1385 C 0.29106 0.57036 0.12569 0.0
C1386 C 0.25981 0.56606 0.10145 0.0
C1387 C 0.25952 0.58886 0.09776 0.0
C1388 C 0.27573 0.60214 0.10737 0.0
C1389 C 0.29111 0.59277 0.12135 0.0
C1390 C 0.24266 0.55141 0.09171 0.0
C1391 C 0.27629 0.62647 0.10366 0.0
H1392 H 0.22701 0.62111 0.03668 0.0
H1393 H 0.19467 0.62763 0.0983 0.0
H1394 H 0.27581 0.60482 0.05442 0.0
H1395 H 0.26382 0.57833 0.05299 0.0
H1396 H 0.2578 0.59825 0.0322 0.0
H1397 H 0.20534 0.60823 0.12933 0.0
H1398 H 0.2233 0.58524 0.12587 0.0
H1399 H 0.23438 0.61158 0.13161 0.0
H1400 H 0.27574 0.53966 0.11853 0.0
H1401 H 0.30314 0.60313 0.12908 0.0
H1402 H 0.24065 0.55482 0.07409 0.0
H1403 H 0.22676 0.55469 0.09966 0.0
H1404 H 0.24665 0.53389 0.09387 0.0
H1405 H 0.27532 0.63017 0.08601 0.0
H1406 H 0.29128 0.63408 0.11036 0.0
H1407 H 0.26198 0.63414 0.1116 0.0
C1408 C 0.7062 0.41651 0.11537 0.0
C1409 C 0.70949 0.438 0.12232 0.0
C1410 C 0.72115 0.40611 0.10167 0.0
C1411 C 0.74022 0.41728 0.09516 0.0
C1412 C 0.74315 0.43938 0.10128 0.0
C1413 C 0.72755 0.44961 0.11465 0.0
C1414 C 0.7171 0.3827 0.09524 0.0
C1415 C 0.76339 0.45174 0.0949 0.0
C1416 C 0.7876 0.37847 0.08884 0.0
C1417 C 0.78862 0.37559 0.06622 0.0
C1418 C 0.77275 0.39296 0.09827 0.0
C1419 C 0.75818 0.40468 0.0848 0.0
C1420 C 0.7595 0.40236 0.06185 0.0
C1421 C 0.77488 0.38792 0.05278 0.0
C1422 C 0.77213 0.39508 0.12279 0.0
C1423 C 0.74408 0.41439 0.04698 0.0
H1424 H 0.69201 0.40762 0.121 0.0
H1425 H 0.73005 0.46625 0.12 0.0
H1426 H 0.71985 0.38043 0.07754 0.0
H1427 H 0.72871 0.37195 0.10398 0.0
H1428 H 0.70028 0.37734 0.09922 0.0
H1429 H 0.76183 0.46947 0.09818 0.0
H1430 H 0.77748 0.44541 0.10428 0.0
H1431 H 0.76707 0.44933 0.07738 0.0
H1432 H 0.79842 0.36928 0.09933 0.0
H1433 H 0.7757 0.38581 0.03528 0.0
H1434 H 0.75669 0.38813 0.12909 0.0
H1435 H 0.77261 0.41249 0.12761 0.0
H1436 H 0.78592 0.3865 0.13077 0.0
H1437 H 0.72737 0.40785 0.04908 0.0
H1438 H 0.74875 0.41276 0.02958 0.0
H1439 H 0.74356 0.43193 0.05128 0.0
C1440 C 0.97253 0.21401 0.26041 0.0
C1441 C 0.97955 0.2103 0.28183 0.0
C1442 C 0.98207 0.23026 0.24749 0.0
C1443 C 0.99939 0.24291 0.25602 0.0
C1444 C 0.00597 0.23987 0.27793 0.0
C1445 C 0.99583 0.22371 0.29064 0.0
C1446 C 0.97423 0.23324 0.22437 0.0
C1447 C 0.02448 0.25285 0.28756 0.0
C1448 C 0.03794 0.2623 0.21186 0.0
C1449 C 0.03084 0.28373 0.20836 0.0
C1450 C 0.02872 0.24931 0.22824 0.0
C1451 C 0.01169 0.2578 0.24127 0.0
C1452 C 0.00519 0.27978 0.23857 0.0
C1453 C 0.01497 0.29255 0.22224 0.0
C1454 C 0.03648 0.22611 0.23084 0.0
C1455 C 0.98698 0.28939 0.25198 0.0
H1456 H 0.95979 0.20388 0.25356 0.0
H1457 H 0.00142 0.22088 0.30715 0.0
H1458 H 0.97076 0.25067 0.22112 0.0
H1459 H 0.98717 0.22806 0.21287 0.0
H1460 H 0.9593 0.22362 0.2209 0.0
H1461 H 0.02603 0.25031 0.30541 0.0
H1462 H 0.03999 0.24792 0.2797 0.0
H1463 H 0.02221 0.27049 0.28437 0.0
H1464 H 0.05036 0.25543 0.20135 0.0
H1465 H 0.00932 0.30906 0.21959 0.0
H1466 H 0.02347 0.21475 0.22551 0.0
H1467 H 0.03999 0.22256 0.2482 0.0
H1468 H 0.05135 0.22274 0.22111 0.0
H1469 H 0.9713 0.28189 0.24704 0.0
H1470 H 0.98569 0.30732 0.24985 0.0
H1471 H 0.98939 0.28578 0.26951 0.0
C1472 C 0.78794 0.97154 0.2626 0.0
C1473 C 0.7917 0.97874 0.28395 0.0
C1474 C 0.7715 0.9808 0.24971 0.0
C1475 C 0.75866 0.99796 0.25822 0.0
C1476 C 0.76174 0.00472 0.28006 0.0
C1477 C 0.77813 0.99491 0.29274 0.0
C1478 C 0.76853 0.9728 0.22664 0.0
C1479 C 0.74851 0.02307 0.28968 0.0
C1480 C 0.7385 0.03591 0.21389 0.0
C1481 C 0.7172 0.02839 0.21046 0.0
C1482 C 0.75167 0.02704 0.23032 0.0
C1483 C 0.74351 0.00995 0.24348 0.0
C1484 C 0.72164 0.00304 0.24086 0.0
C1485 C 0.70867 0.01247 0.22447 0.0
C1486 C 0.77474 0.03521 0.23281 0.0
C1487 C 0.71237 0.98477 0.25442 0.0
H1488 H 0.79817 0.95888 0.25576 0.0
H1489 H 0.78096 1.00061 0.30921 0.0
H1490 H 0.75114 0.96901 0.2235 0.0
H1491 H 0.7734 0.98578 0.21505 0.0
H1492 H 0.77839 0.95804 0.22317 0.0
H1493 H 0.75115 0.02476 0.3075 0.0
H1494 H 0.75312 0.03861 0.2817 0.0
H1495 H 0.7309 0.02048 0.28661 0.0
H1496 H 0.74512 0.04838 0.20329 0.0
H1497 H 0.69226 0.0065 0.22186 0.0
H1498 H 0.7863 0.02237 0.2275 0.0
H1499 H 0.77829 0.03887 0.25014 0.0
H1500 H 0.77782 0.05009 0.223 0.0
H1501 H 0.72007 0.96917 0.24953 0.0
H1502 H 0.69446 0.9832 0.25238 0.0
H1503 H 0.71604 0.98733 0.27192 0.0
C1504 C 0.96893 0.73939 0.21554 0.0
C1505 C 0.97583 0.71794 0.21177 0.0
C1506 C 0.97879 0.75235 0.23157 0.0
C1507 C 0.99627 0.74382 0.24397 0.0
C1508 C 0.00277 0.7219 0.24087 0.0
C1509 C 0.99235 0.70915 0.22492 0.0
C1510 C 0.97105 0.77551 0.2346 0.0
C1511 C 0.02145 0.71226 0.25361 0.0
C1512 C 0.03493 0.78811 0.26288 0.0
C1513 C 0.02799 0.79167 0.28435 0.0
C1514 C 0.02567 0.77163 0.25004 0.0
C1515 C 0.00875 0.75858 0.25871 0.0
C1516 C 0.00244 0.76132 0.28074 0.0
C1517 C 0.01227 0.77774 0.29336 0.0
C1518 C 0.03322 0.76898 0.22679 0.0
C1519 C 0.98438 0.74787 0.29056 0.0
H1520 H 0.95602 0.74624 0.20563 0.0
H1521 H 0.99784 0.69261 0.22206 0.0
H1522 H 0.96775 0.77878 0.25205 0.0
H1523 H 0.98398 0.78697 0.2293 0.0
H1524 H 0.95605 0.77902 0.22511 0.0
H1525 H 0.02296 0.69441 0.25104 0.0
H1526 H 0.0369 0.72012 0.24848 0.0
H1527 H 0.01942 0.71546 0.27127 0.0
H1528 H 0.04724 0.79865 0.25587 0.0
H1529 H 0.00675 0.78044 0.30991 0.0
H1530 H 0.02013 0.77432 0.21553 0.0
H1531 H 0.03667 0.75161 0.22322 0.0
H1532 H 0.04809 0.77868 0.22328 0.0
H1533 H 0.9686 0.75278 0.28324 0.0
H1534 H 0.98329 0.75001 0.30849 0.0
H1535 H 0.98677 0.73034 0.28692 0.0
C1536 C 0.22344 0.00645 0.29081 0.0
C1537 C 0.21055 0.02312 0.28196 0.0
C1538 C 0.23939 0.99591 0.27818 0.0
C1539 C 0.24276 0.00247 0.25632 0.0
C1540 C 0.23061 0.0201 0.24774 0.0
C1541 C 0.21455 0.03006 0.26057 0.0
C1542 C 0.25183 0.97705 0.28785 0.0
C1543 C 0.23397 0.02793 0.22466 0.0
C1544 C 0.29253 0.98605 0.2232 0.0
C1545 C 0.28362 0.97039 0.20914 0.0
C1546 C 0.27972 0.99604 0.23936 0.0
C1547 C 0.25759 0.98995 0.24171 0.0
C1548 C 0.24896 0.97313 0.22849 0.0
C1549 C 0.262 0.9637 0.21228 0.0
C1550 C 0.28949 0.01402 0.25298 0.0
C1551 C 0.22558 0.96582 0.23072 0.0
H1552 H 0.22037 1.00093 0.3073 0.0
H1553 H 0.20482 0.04309 0.25369 0.0
H1554 H 0.24675 0.96171 0.27975 0.0
H1555 H 0.26956 0.97901 0.28499 0.0
H1556 H 0.24895 0.97538 0.30563 0.0
H1557 H 0.22466 0.04303 0.22112 0.0
H1558 H 0.25149 0.03108 0.2216 0.0
H1559 H 0.22868 0.01511 0.21307 0.0
H1560 H 0.30919 0.9914 0.22082 0.0
H1561 H 0.25506 0.95144 0.20163 0.0
H1562 H 0.28566 0.01157 0.27046 0.0
H1563 H 0.28228 0.02985 0.24806 0.0
H1564 H 0.30744 0.01505 0.25103 0.0
H1565 H 0.2217 0.96232 0.24802 0.0
H1566 H 0.22206 0.95104 0.22089 0.0
H1567 H 0.21455 0.97906 0.22528 0.0
C1568 C 0.02962 0.74351 0.78929 0.0
C1569 C 0.02445 0.72146 0.79233 0.0
C1570 C 0.01946 0.75591 0.77301 0.0
C1571 C 0.00343 0.74617 0.75957 0.0
C1572 C 0.99863 0.72374 0.76204 0.0
C1573 C 0.00932 0.7116 0.77829 0.0
C1574 C 0.02537 0.77968 0.77069 0.0
C1575 C 0.98151 0.71281 0.74819 0.0
C1576 C 0.96266 0.78745 0.73835 0.0
C1577 C 0.97061 0.79161 0.71735 0.0
C1578 C 0.97235 0.77164 0.75172 0.0
C1579 C 0.99076 0.76001 0.74412 0.0
C1580 C 0.99818 0.76335 0.72253 0.0
C1581 C 0.98787 0.77898 0.70931 0.0
C1582 C 0.96359 0.76826 0.77444 0.0
C1583 C 0.01789 0.75149 0.71386 0.0
H1584 H 0.04145 0.75121 0.79989 0.0
H1585 H 0.00515 0.6946 0.78055 0.0
H1586 H 0.0295 0.78344 0.75351 0.0
H1587 H 0.0112 0.78994 0.77521 0.0
H1588 H 0.03938 0.78432 0.78117 0.0
H1589 H 0.98107 0.6949 0.75074 0.0
H1590 H 0.96526 0.7196 0.75223 0.0
H1591 H 0.98449 0.71611 0.73068 0.0
H1592 H 0.94921 0.79703 0.74458 0.0
H1593 H 0.9942 0.78222 0.69315 0.0
H1594 H 0.97543 0.77463 0.78651 0.0
H1595 H 0.96139 0.75064 0.77779 0.0
H1596 H 0.94776 0.77666 0.77698 0.0
H1597 H 0.0327 0.75756 0.72226 0.0
H1598 H 0.02 0.75389 0.69606 0.0
H1599 H 0.01667 0.73378 0.71724 0.0
C1600 C 0.22189 0.99057 0.7144 0.0
C1601 C 0.20834 0.97468 0.7237 0.0
C1602 C 0.2379 0.0012 0.72689 0.0
C1603 C 0.24067 0.99551 0.74907 0.0
C1604 C 0.22785 0.97862 0.75816 0.0
C1605 C 0.21173 0.96858 0.74545 0.0
C1606 C 0.25103 0.01929 0.71667 0.0
C1607 C 0.23057 0.97171 0.78161 0.0
C1608 C 0.29042 0.01234 0.78207 0.0
C1609 C 0.28172 0.02887 0.79524 0.0
C1610 C 0.27753 0.00181 0.76632 0.0
C1611 C 0.25557 0.00827 0.76341 0.0
C1612 C 0.24718 0.02589 0.77571 0.0
C1613 C 0.26027 0.03581 0.79161 0.0
C1614 C 0.28701 0.98294 0.75375 0.0
C1615 C 0.22402 0.03364 0.7728 0.0
H1616 H 0.21929 0.99546 0.69764 0.0
H1617 H 0.20147 0.95617 0.75268 0.0
H1618 H 0.24625 0.03508 0.72403 0.0
H1619 H 0.26864 0.01697 0.71993 0.0
H1620 H 0.2485 0.02028 0.69878 0.0
H1621 H 0.22084 0.95698 0.78558 0.0
H1622 H 0.24795 0.9683 0.78517 0.0
H1623 H 0.22535 0.98513 0.79253 0.0
H1624 H 0.30695 0.00679 0.7849 0.0
H1625 H 0.25351 0.0487 0.8016 0.0
H1626 H 0.2836 0.98471 0.7361 0.0
H1627 H 0.27922 0.96758 0.75921 0.0
H1628 H 0.30489 0.98147 0.75612 0.0
H1629 H 0.22048 0.03646 0.75531 0.0
H1630 H 0.22072 0.04891 0.78193 0.0
H1631 H 0.2126 0.02091 0.77864 0.0
C1632 C 0.00971 0.22002 0.71029 0.0
C1633 C 0.02803 0.2089 0.71821 0.0
C1634 C 0.99875 0.23541 0.72328 0.0
C1635 C 0.00665 0.24015 0.74445 0.0
C1636 C 0.02603 0.23003 0.75186 0.0
C1637 C 0.03628 0.21432 0.73879 0.0
C1638 C 0.97797 0.2455 0.7149 0.0
C1639 C 0.03535 0.235 0.77406 0.0
C1640 C 0.98657 0.28881 0.77739 0.0
C1641 C 0.97283 0.27867 0.7926 0.0
C1642 C 0.99714 0.27666 0.76107 0.0
C1643 C 0.99367 0.25388 0.75975 0.0
C1644 C 0.97888 0.24381 0.7743 0.0
C1645 C 0.96878 0.25626 0.79059 0.0
C1646 C 0.0129 0.288 0.746 0.0
C1647 C 0.97438 0.21964 0.77326 0.0
H1648 H 0.00314 0.21571 0.69448 0.0
H1649 H 0.05051 0.20584 0.74491 0.0
H1650 H 0.96394 0.2389 0.72418 0.0
H1651 H 0.97812 0.26339 0.71739 0.0
H1652 H 0.97533 0.24208 0.69733 0.0
H1653 H 0.05176 0.22773 0.77636 0.0
H1654 H 0.03654 0.25286 0.77654 0.0
H1655 H 0.02437 0.22847 0.78684 0.0
H1656 H 0.98988 0.30609 0.77884 0.0
H1657 H 0.95804 0.24829 0.80212 0.0
H1658 H 0.00956 0.28354 0.72882 0.0
H1659 H 0.02973 0.28263 0.74978 0.0
H1660 H 0.01211 0.30601 0.7476 0.0
H1661 H 0.96999 0.21481 0.75641 0.0
H1662 H 0.96101 0.21467 0.78438 0.0
H1663 H 0.98928 0.21049 0.7778 0.0
C1664 C 0.78949 0.0369 0.73854 0.0
C1665 C 0.79277 0.03012 0.71698 0.0
C1666 C 0.77339 0.02733 0.75163 0.0
C1667 C 0.76044 0.01025 0.74312 0.0
C1668 C 0.76293 0.00403 0.72103 0.0
C1669 C 0.77896 0.01417 0.70816 0.0
C1670 C 0.771 0.0348 0.77495 0.0
C1671 C 0.7496 0.98577 0.71138 0.0
C1672 C 0.74208 0.97027 0.78653 0.0
C1673 C 0.72059 0.97693 0.79045 0.0
C1674 C 0.75479 0.98024 0.77036 0.0
C1675 C 0.74597 0.99762 0.75802 0.0
C1676 C 0.72401 0.0039 0.76132 0.0
C1677 C 0.71151 0.99334 0.77738 0.0
C1678 C 0.77798 0.97272 0.76711 0.0
C1679 C 0.71407 0.0225 0.74869 0.0
H1680 H 0.79994 0.04937 0.74541 0.0
H1681 H 0.78145 0.00876 0.69154 0.0
H1682 H 0.75364 0.03808 0.77875 0.0
H1683 H 0.7766 0.02173 0.78609 0.0
H1684 H 0.78061 0.04974 0.77837 0.0
H1685 H 0.7516 0.98463 0.69343 0.0
H1686 H 0.75474 0.97008 0.71872 0.0
H1687 H 0.73208 0.988 0.71515 0.0
H1688 H 0.74915 0.95744 0.7964 0.0
H1689 H 0.69495 0.99866 0.78038 0.0
H1690 H 0.78938 0.98574 0.77231 0.0
H1691 H 0.78111 0.96946 0.74961 0.0
H1692 H 0.78172 0.95774 0.77654 0.0
H1693 H 0.72191 0.038 0.75367 0.0
H1694 H 0.69626 0.0239 0.7515 0.0
H1695 H 0.71703 0.02043 0.73099 0.0
C1696 C 0.22184 0.29097 0.98923 0.0
C1697 C 0.20903 0.28185 0.97263 0.0
C1698 C 0.23752 0.27841 1.00027 0.0
C1699 C 0.24075 0.25635 0.99428 0.0
C1700 C 0.22881 0.24753 0.97661 0.0
C1701 C 0.21297 0.26029 0.96618 0.0
C1702 C 0.24969 0.28836 0.01918 0.0
C1703 C 0.23206 0.22426 0.96933 0.0
C1704 C 0.28979 0.22333 0.0132 0.0
C1705 C 0.28034 0.20984 0.02906 0.0
C1706 C 0.27734 0.23915 0.00223 0.0
C1707 C 0.25505 0.24182 0.00754 0.0
C1708 C 0.24583 0.22915 0.02447 0.0
C1709 C 0.2585 0.2132 0.03485 0.0
C1710 C 0.28773 0.25211 0.98411 0.0
C1711 C 0.22226 0.23177 0.031 0.0
H1712 H 0.21878 0.30756 0.99442 0.0
H1713 H 0.20326 0.2532 0.95324 0.0
H1714 H 0.24405 0.28078 0.03458 0.0
H1715 H 0.26739 0.2851 0.01777 0.0
H1716 H 0.24711 0.30623 0.02029 0.0
H1717 H 0.2232 0.22059 0.95399 0.0
H1718 H 0.24963 0.22086 0.96683 0.0
H1719 H 0.22615 0.21301 0.98217 0.0
H1720 H 0.30661 0.22074 0.00852 0.0
H1721 H 0.25114 0.20298 0.04722 0.0
H1722 H 0.28415 0.26971 0.98603 0.0
H1723 H 0.28077 0.24691 0.96827 0.0
H1724 H 0.30567 0.24985 0.98353 0.0
H1725 H 0.21848 0.24918 0.03401 0.0
H1726 H 0.2182 0.22229 0.04587 0.0
H1727 H 0.21158 0.22615 0.01755 0.0
C1728 C 0.22134 0.71189 0.01292 0.0
C1729 C 0.20795 0.72074 0.02919 0.0
C1730 C 0.23735 0.72463 0.00262 0.0
C1731 C 0.24031 0.74659 0.00905 0.0
C1732 C 0.22783 0.75511 0.02647 0.0
C1733 C 0.21166 0.74217 0.03615 0.0
C1734 C 0.25012 0.715 0.98395 0.0
C1735 C 0.23079 0.77827 0.0342 0.0
C1736 C 0.28966 0.77988 0.99144 0.0
C1737 C 0.28055 0.79333 0.97536 0.0
C1738 C 0.27699 0.76406 0.00215 0.0
C1739 C 0.25482 0.76138 0.99634 0.0
C1740 C 0.24592 0.77411 0.97928 0.0
C1741 C 0.25881 0.79004 0.96917 0.0
C1742 C 0.28701 0.75103 0.02042 0.0
C1743 C 0.2225 0.77148 0.97224 0.0
H1744 H 0.21847 0.69538 0.00734 0.0
H1745 H 0.2015 0.74905 0.04885 0.0
H1746 H 0.24483 0.7227 0.96848 0.0
H1747 H 0.26775 0.71838 0.98589 0.0
H1748 H 0.24773 0.69712 0.98257 0.0
H1749 H 0.22158 0.78163 0.04941 0.0
H1750 H 0.24828 0.78174 0.03713 0.0
H1751 H 0.22507 0.7897 0.02142 0.0
H1752 H 0.30641 0.78242 0.99642 0.0
H1753 H 0.25171 0.80024 0.95662 0.0
H1754 H 0.28368 0.73341 0.01822 0.0
H1755 H 0.27955 0.75598 0.03612 0.0
H1756 H 0.3049 0.75348 0.02154 0.0
H1757 H 0.21888 0.7541 0.96886 0.0
H1758 H 0.21866 0.78117 0.95745 0.0
H1759 H 0.21152 0.77681 0.98556 0.0
C1760 C 0.77616 0.29032 0.01221 0.0
C1761 C 0.78991 0.28089 0.02786 0.0
C1762 C 0.75997 0.27792 0.0017 0.0
C1763 C 0.75726 0.25568 0.00723 0.0
C1764 C 0.77021 0.2465 0.02397 0.0
C1765 C 0.78647 0.25913 0.03392 0.0
C1766 C 0.74666 0.28829 0.98383 0.0
C1767 C 0.7676 0.22299 0.03071 0.0
C1768 C 0.70787 0.22207 0.99035 0.0
C1769 C 0.71671 0.20908 0.97375 0.0
C1770 C 0.72054 0.23804 1.00085 0.0
C1771 C 0.74243 0.24133 0.99434 0.0
C1772 C 0.75092 0.22925 0.97661 0.0
C1773 C 0.73805 0.21316 0.9667 0.0
C1774 C 0.71092 0.2504 0.01979 0.0
C1775 C 0.774 0.23254 0.96879 0.0
H1776 H 0.77878 0.30709 0.00734 0.0
H1777 H 0.79687 0.25177 0.04614 0.0
H1778 H 0.75159 0.28134 0.9679 0.0
H1779 H 0.72911 0.28469 0.98607 0.0
H1780 H 0.7489 0.30624 0.98321 0.0
H1781 H 0.77738 0.21895 0.04539 0.0
H1782 H 0.75024 0.21933 0.03413 0.0
H1783 H 0.77284 0.21219 0.0172 0.0
H1784 H 0.69143 0.21892 0.99598 0.0
H1785 H 0.74493 0.20333 0.95374 0.0
H1786 H 0.7143 0.26808 0.01824 0.0
H1787 H 0.71863 0.24478 0.03514 0.0
H1788 H 0.69305 0.24797 0.02112 0.0
H1789 H 0.7773 0.2501 0.96611 0.0
H1790 H 0.77735 0.22359 0.95342 0.0
H1791 H 0.78555 0.22672 0.98141 0.0
C1792 C 0.77997 0.70916 0.98857 0.0
C1793 C 0.79398 0.71781 0.97272 0.0
C1794 C 0.7636 0.72205 0.99811 0.0
C1795 C 0.76098 0.74397 0.99136 0.0
C1796 C 0.77411 0.75225 0.97431 0.0
C1797 C 0.79056 0.73916 0.96536 0.0
C1798 C 0.75009 0.71266 0.01636 0.0
C1799 C 0.77158 0.77536 0.96628 0.0
C1800 C 0.71155 0.77818 0.0068 0.0
C1801 C 0.72031 0.79171 0.02302 0.0
C1802 C 0.72432 0.76197 0.9968 0.0
C1803 C 0.74621 0.75901 0.00345 0.0
C1804 C 0.75469 0.77181 0.02067 0.0
C1805 C 0.74173 0.7881 0.03008 0.0
C1806 C 0.71473 0.74884 0.97836 0.0
C1807 C 0.77781 0.76891 0.02858 0.0
H1808 H 0.78259 0.6927 0.99442 0.0
H1809 H 0.80118 0.74587 0.95296 0.0
H1810 H 0.75498 0.72032 0.03198 0.0
H1811 H 0.73258 0.71628 0.01384 0.0
H1812 H 0.75219 0.69475 0.01785 0.0
H1813 H 0.78134 0.77853 0.95138 0.0
H1814 H 0.75423 0.77891 0.9627 0.0
H1815 H 0.77692 0.78686 0.97915 0.0
H1816 H 0.69504 0.78093 0.00118 0.0
H1817 H 0.74854 0.79832 0.04277 0.0
H1818 H 0.71785 0.73122 0.98083 0.0
H1819 H 0.7227 0.75358 0.96285 0.0
H1820 H 0.6969 0.75143 0.97669 0.0
H1821 H 0.78104 0.75152 0.03225 0.0
H1822 H 0.78126 0.7787 0.04341 0.0
H1823 H 0.78934 0.77394 0.01561 0.0
C1824 C 0.4948 0.72133 0.79027 0.0
C1825 C 0.47492 0.71159 0.78467 0.0
C1826 C 0.50456 0.73686 0.77654 0.0
C1827 C 0.49384 0.74323 0.75711 0.0
C1828 C 0.47304 0.73451 0.75224 0.0
C1829 C 0.46401 0.71851 0.76587 0.0
C1830 C 0.52695 0.74535 0.78211 0.0
C1831 C 0.46076 0.74127 0.73204 0.0
C1832 C 0.51296 0.79255 0.72449 0.0
C1833 C 0.52433 0.78259 0.70732 0.0
C1834 C 0.50335 0.78005 0.74114 0.0
C1835 C 0.50526 0.75707 0.74071 0.0
C1836 C 0.51736 0.747 0.72386 0.0
C1837 C 0.52666 0.75983 0.7074 0.0
C1838 C 0.4905 0.79138 0.75877 0.0
C1839 C 0.52004 0.72256 0.72287 0.0
H1840 H 0.50338 0.71582 0.80469 0.0
H1841 H 0.44859 0.71106 0.76158 0.0
H1842 H 0.53896 0.73876 0.77031 0.0
H1843 H 0.52744 0.76335 0.78078 0.0
H1844 H 0.53211 0.74059 0.79878 0.0
H1845 H 0.44375 0.73512 0.73202 0.0
H1846 H 0.46042 0.75928 0.73061 0.0
H1847 H 0.46918 0.73484 0.7174 0.0
H1848 H 0.51102 0.81011 0.72462 0.0
H1849 H 0.53552 0.7519 0.69438 0.0
H1850 H 0.49628 0.78618 0.77507 0.0
H1851 H 0.47309 0.7867 0.75751 0.0
H1852 H 0.49173 0.8094 0.75764 0.0
H1853 H 0.52662 0.71637 0.73852 0.0
H1854 H 0.53109 0.71738 0.70951 0.0
H1855 H 0.50395 0.71475 0.72032 0.0
C1856 C 0.29852 0.49986 0.77011 0.0
C1857 C 0.29567 0.48083 0.78231 0.0
C1858 C 0.28171 0.5081 0.75704 0.0
C1859 C 0.26179 0.49655 0.75551 0.0
C1860 C 0.25862 0.47757 0.7683 0.0
C1861 C 0.27555 0.4701 0.78186 0.0
C1862 C 0.2856 0.52872 0.74422 0.0
C1863 C 0.23788 0.46449 0.76672 0.0
C1864 C 0.21478 0.52599 0.72752 0.0
C1865 C 0.21816 0.51999 0.70576 0.0
C1866 C 0.22847 0.51805 0.74413 0.0
C1867 C 0.24542 0.50327 0.73886 0.0
C1868 C 0.24802 0.49629 0.71703 0.0
C1869 C 0.23462 0.50501 0.70073 0.0
C1870 C 0.22551 0.52632 0.76708 0.0
C1871 C 0.26544 0.4801 0.71073 0.0
H1872 H 0.31407 0.50823 0.77066 0.0
H1873 H 0.27346 0.4553 0.79127 0.0
H1874 H 0.28681 0.5248 0.72662 0.0
H1875 H 0.27174 0.54013 0.74629 0.0
H1876 H 0.30082 0.53712 0.74925 0.0
H1877 H 0.23707 0.45146 0.77924 0.0
H1878 H 0.22346 0.47521 0.76851 0.0
H1879 H 0.23687 0.45683 0.75038 0.0
H1880 H 0.20208 0.53763 0.73139 0.0
H1881 H 0.23704 0.50014 0.68393 0.0
H1882 H 0.23966 0.53662 0.77161 0.0
H1883 H 0.22494 0.51257 0.77876 0.0
H1884 H 0.21043 0.53615 0.76889 0.0
H1885 H 0.28174 0.48766 0.71263 0.0
H1886 H 0.2637 0.4745 0.69361 0.0
H1887 H 0.26485 0.46569 0.72161 0.0
C1888 C 0.51089 0.27911 0.79143 0.0
C1889 C 0.5268 0.29269 0.78219 0.0
C1890 C 0.50025 0.26313 0.77888 0.0
C1891 C 0.50594 0.26041 0.75669 0.0
C1892 C 0.52284 0.27326 0.74766 0.0
C1893 C 0.53289 0.28935 0.76044 0.0
C1894 C 0.48215 0.24998 0.78906 0.0
C1895 C 0.52975 0.27061 0.72421 0.0
C1896 C 0.48923 0.21057 0.72366 0.0
C1897 C 0.47266 0.21919 0.71048 0.0
C1898 C 0.49973 0.22352 0.73941 0.0
C1899 C 0.49322 0.24547 0.7423 0.0
C1900 C 0.47557 0.25379 0.72998 0.0
C1901 C 0.46568 0.24064 0.71409 0.0
C1902 C 0.51861 0.21409 0.75201 0.0
C1903 C 0.46776 0.27693 0.73286 0.0
H1904 H 0.50597 0.28167 0.80819 0.0
H1905 H 0.5453 0.29963 0.75322 0.0
H1906 H 0.46637 0.25476 0.78166 0.0
H1907 H 0.4845 0.23237 0.78579 0.0
H1908 H 0.48111 0.2525 0.80694 0.0
H1909 H 0.54445 0.28039 0.72026 0.0
H1910 H 0.53322 0.25325 0.72062 0.0
H1911 H 0.51632 0.27581 0.71329 0.0
H1912 H 0.49483 0.19406 0.72087 0.0
H1913 H 0.45277 0.24736 0.7041 0.0
H1914 H 0.51679 0.21746 0.76966 0.0
H1915 H 0.53395 0.22196 0.7466 0.0
H1916 H 0.52017 0.19622 0.74961 0.0
H1917 H 0.46491 0.28046 0.75034 0.0
H1918 H 0.4525 0.28018 0.72371 0.0
H1919 H 0.48047 0.28838 0.72703 0.0
C1920 C 0.76818 0.49645 0.70042 0.0
C1921 C 0.78277 0.47936 0.70436 0.0
C1922 C 0.75556 0.50531 0.71725 0.0
C1923 C 0.75699 0.49638 0.73846 0.0
C1924 C 0.77215 0.47947 0.74269 0.0
C1925 C 0.78516 0.47136 0.7256 0.0
C1926 C 0.74009 0.52373 0.71208 0.0
C1927 C 0.77381 0.46916 0.76493 0.0
C1928 C 0.72891 0.52909 0.78319 0.0
C1929 C 0.70781 0.52048 0.78221 0.0
C1930 C 0.74551 0.5209 0.76962 0.0
C1931 C 0.74093 0.50333 0.75531 0.0
C1932 C 0.71994 0.49376 0.75542 0.0
C1933 C 0.70358 0.5027 0.76858 0.0
C1934 C 0.7675 0.53186 0.76964 0.0
C1935 C 0.71445 0.47466 0.74092 0.0
H1936 H 0.76658 0.50287 0.68405 0.0
H1937 H 0.79645 0.45813 0.72862 0.0
H1938 H 0.72305 0.51781 0.71307 0.0
H1939 H 0.74192 0.53705 0.72416 0.0
H1940 H 0.74281 0.53051 0.69553 0.0
H1941 H 0.78788 0.45786 0.76617 0.0
H1942 H 0.77535 0.48182 0.77771 0.0
H1943 H 0.75868 0.45988 0.76835 0.0
H1944 H 0.73213 0.54289 0.79373 0.0
H1945 H 0.68729 0.49587 0.76806 0.0
H1946 H 0.76968 0.54088 0.75413 0.0
H1947 H 0.78073 0.51961 0.77064 0.0
H1948 H 0.76927 0.54352 0.78336 0.0
H1949 H 0.71413 0.48003 0.72368 0.0
H1950 H 0.69836 0.46744 0.74494 0.0
H1951 H 0.72708 0.46181 0.74238 0.0
C1952 C 0.52763 0.21852 0.27361 0.0
C1953 C 0.51772 0.218 0.29414 0.0
C1954 C 0.51969 0.23242 0.25716 0.0
C1955 C 0.50109 0.24552 0.26127 0.0
C1956 C 0.49026 0.2438 0.28155 0.0
C1957 C 0.49893 0.23036 0.29784 0.0
C1958 C 0.53199 0.2341 0.23597 0.0
C1959 C 0.47008 0.25698 0.28648 0.0
C1960 C 0.49367 0.30147 0.23634 0.0
C1961 C 0.47789 0.29761 0.22031 0.0
C1962 C 0.50226 0.2844 0.24882 0.0
C1963 C 0.49439 0.26294 0.2457 0.0
C1964 C 0.47881 0.25883 0.22915 0.0
C1965 C 0.47097 0.27622 0.21638 0.0
C1966 C 0.51926 0.2895 0.26586 0.0
C1967 C 0.46965 0.2363 0.22565 0.0
H1968 H 0.54223 0.20899 0.27084 0.0
H1969 H 0.49118 0.22975 0.3137 0.0
H1970 H 0.52065 0.2333 0.22193 0.0
H1971 H 0.54038 0.2501 0.2352 0.0
H1972 H 0.54438 0.22103 0.23424 0.0
H1973 H 0.46203 0.25164 0.30178 0.0
H1974 H 0.4745 0.27442 0.28816 0.0
H1975 H 0.45821 0.25565 0.27292 0.0
H1976 H 0.49931 0.31797 0.23917 0.0
H1977 H 0.45875 0.27323 0.20398 0.0
H1978 H 0.53328 0.2782 0.26431 0.0
H1979 H 0.51224 0.28719 0.28234 0.0
H1980 H 0.52536 0.30649 0.26459 0.0
H1981 H 0.48297 0.22417 0.22427 0.0
H1982 H 0.45934 0.23535 0.21081 0.0
H1983 H 0.45961 0.23163 0.23993 0.0
C1984 C 0.79163 0.50644 0.27907 0.0
C1985 C 0.78286 0.52239 0.29291 0.0
C1986 C 0.77881 0.49658 0.26281 0.0
C1987 C 0.75685 0.50312 0.2601 0.0
C1988 C 0.74832 0.52003 0.27327 0.0
C1989 C 0.76134 0.52929 0.28961 0.0
C1990 C 0.78844 0.47846 0.24929 0.0
C1991 C 0.72512 0.52781 0.27066 0.0
C1992 C 0.72319 0.48919 0.20989 0.0
C1993 C 0.70928 0.47303 0.21814 0.0
C1994 C 0.73947 0.49856 0.22304 0.0
C1995 C 0.74212 0.49131 0.24479 0.0
C1996 C 0.72908 0.47399 0.25265 0.0
C1997 C 0.7127 0.46523 0.23933 0.0
C1998 C 0.75286 0.51713 0.2141 0.0
C1999 C 0.73166 0.46542 0.27556 0.0
H2000 H 0.80821 0.50094 0.28158 0.0
H2001 H 0.75451 0.54178 0.30007 0.0
H2002 H 0.78047 0.46283 0.25364 0.0
H2003 H 0.78536 0.48134 0.23173 0.0
H2004 H 0.80626 0.47674 0.25188 0.0
H2005 H 0.72159 0.54236 0.28082 0.0
H2006 H 0.72179 0.53189 0.25338 0.0
H2007 H 0.71372 0.51462 0.2754 0.0
H2008 H 0.72057 0.49539 0.19357 0.0
H2009 H 0.70215 0.4526 0.24573 0.0
H2010 H 0.7704 0.51457 0.21757 0.0
H2011 H 0.74796 0.53251 0.22222 0.0
H2012 H 0.75067 0.51912 0.19625 0.0
H2013 H 0.74903 0.46187 0.27904 0.0
H2014 H 0.72199 0.45039 0.27836 0.0
H2015 H 0.72624 0.47799 0.28736 0.0
C2016 C 0.53557 0.71644 0.24128 0.0
C2017 C 0.52779 0.71232 0.22021 0.0
C2018 C 0.52593 0.73238 0.25453 0.0
C2019 C 0.50774 0.74422 0.24671 0.0
C2020 C 0.50032 0.74074 0.22514 0.0
C2021 C 0.51058 0.72495 0.21206 0.0
C2022 C 0.53467 0.73588 0.27725 0.0
C2023 C 0.48083 0.75281 0.21629 0.0
C2024 C 0.47022 0.76276 0.29216 0.0
C2025 C 0.4764 0.78458 0.2949 0.0
C2026 C 0.47943 0.74983 0.27572 0.0
C2027 C 0.49554 0.75879 0.26187 0.0
C2028 C 0.50119 0.78107 0.26391 0.0
C2029 C 0.49141 0.79376 0.2803 0.0
C2030 C 0.4726 0.72627 0.27384 0.0
C2031 C 0.51844 0.79118 0.24963 0.0
H2032 H 0.549 0.70689 0.24761 0.0
H2033 H 0.5044 0.72176 0.19583 0.0
H2034 H 0.53754 0.75347 0.28023 0.0
H2035 H 0.52251 0.73025 0.28937 0.0
H2036 H 0.55014 0.72693 0.28009 0.0
H2037 H 0.47847 0.74993 0.19858 0.0
H2038 H 0.46595 0.74741 0.22501 0.0
H2039 H 0.48255 0.77057 0.21912 0.0
H2040 H 0.45847 0.7556 0.30322 0.0
H2041 H 0.49636 0.81058 0.28236 0.0
H2042 H 0.48633 0.71557 0.27869 0.0
H2043 H 0.46842 0.72229 0.25672 0.0
H2044 H 0.45836 0.72241 0.28432 0.0
H2045 H 0.53456 0.78417 0.25383 0.0
H2046 H 0.51929 0.80914 0.25164 0.0
H2047 H 0.5153 0.78741 0.23225 0.0
C2048 C 0.28833 0.53911 0.24185 0.0
C2049 C 0.29214 0.53273 0.22025 0.0
C2050 C 0.27213 0.52904 0.25446 0.0
C2051 C 0.25968 0.51183 0.24544 0.0
C2052 C 0.26277 0.50597 0.22334 0.0
C2053 C 0.27884 0.51663 0.21094 0.0
C2054 C 0.26907 0.53617 0.2778 0.0
C2055 C 0.25005 0.48756 0.21317 0.0
C2056 C 0.24089 0.47118 0.28806 0.0
C2057 C 0.21921 0.47749 0.29152 0.0
C2058 C 0.25382 0.48144 0.27225 0.0
C2059 C 0.24504 0.49879 0.25984 0.0
C2060 C 0.22289 0.50466 0.2626 0.0
C2061 C 0.21018 0.49379 0.27828 0.0
C2062 C 0.2772 0.47432 0.26952 0.0
C2063 C 0.21297 0.52321 0.2499 0.0
H2064 H 0.29841 0.55166 0.2491 0.0
H2065 H 0.28177 0.5115 0.19431 0.0
H2066 H 0.25157 0.53911 0.28123 0.0
H2067 H 0.27463 0.52305 0.28892 0.0
H2068 H 0.27834 0.55122 0.28163 0.0
H2069 H 0.25253 0.48663 0.19527 0.0
H2070 H 0.25527 0.47189 0.2205 0.0
H2071 H 0.23239 0.48943 0.2165 0.0
H2072 H 0.24793 0.45846 0.29809 0.0
H2073 H 0.19348 0.49887 0.28096 0.0
H2074 H 0.28825 0.48742 0.27526 0.0
H2075 H 0.28087 0.4714 0.25208 0.0
H2076 H 0.2809 0.45924 0.27882 0.0
H2077 H 0.22034 0.5388 0.25531 0.0
H2078 H 0.19506 0.52423 0.25218 0.0
H2079 H 0.2165 0.52144 0.23227 0.0
C2080 C 0.75888 0.70861 0.53013 0.0
C2081 C 0.78137 0.70754 0.52613 0.0
C2082 C 0.74607 0.72539 0.52137 0.0
C2083 C 0.75587 0.74147 0.50806 0.0
C2084 C 0.77866 0.74097 0.50456 0.0
C2085 C 0.79116 0.72408 0.51373 0.0
C2086 C 0.72187 0.72546 0.52579 0.0
C2087 C 0.78969 0.75771 0.49034 0.0
C2088 C 0.71626 0.76604 0.46749 0.0
C2089 C 0.71062 0.78568 0.47765 0.0
C2090 C 0.73199 0.75216 0.47657 0.0
C2091 C 0.74187 0.75773 0.49666 0.0
C2092 C 0.7368 0.77794 0.50661 0.0
C2093 C 0.72141 0.79182 0.49682 0.0
C2094 C 0.73731 0.73105 0.46512 0.0
C2095 C 0.74665 0.78432 0.52821 0.0
H2096 H 0.75115 0.69607 0.53985 0.0
H2097 H 0.8085 0.72342 0.51049 0.0
H2098 H 0.71667 0.74165 0.53189 0.0
H2099 H 0.71287 0.72234 0.51043 0.0
H2100 H 0.71706 0.71289 0.53788 0.0
H2101 H 0.80772 0.75619 0.49073 0.0
H2102 H 0.78412 0.75571 0.47326 0.0
H2103 H 0.78515 0.7744 0.49554 0.0
H2104 H 0.70806 0.76133 0.45258 0.0
H2105 H 0.71694 0.80692 0.50481 0.0
H2106 H 0.73102 0.71715 0.4748 0.0
H2107 H 0.7552 0.72901 0.4637 0.0
H2108 H 0.73005 0.73024 0.44856 0.0
H2109 H 0.74036 0.77337 0.54113 0.0
H2110 H 0.74272 0.80139 0.53272 0.0
H2111 H 0.7646 0.78238 0.52781 0.0
C2112 C 0.72259 0.20945 0.51165 0.0
C2113 C 0.70883 0.21864 0.52742 0.0
C2114 C 0.73898 0.22192 0.50161 0.0
C2115 C 0.74189 0.24397 0.50776 0.0
C2116 C 0.72897 0.25286 0.52467 0.0
C2117 C 0.71249 0.24017 0.53413 0.0
C2118 C 0.75227 0.21189 0.48353 0.0
C2119 C 0.73181 0.27616 0.53205 0.0
C2120 C 0.79175 0.27705 0.49131 0.0
C2121 C 0.78314 0.29026 0.47476 0.0
C2122 C 0.77878 0.2613 0.50177 0.0
C2123 C 0.75683 0.25848 0.49525 0.0
C2124 C 0.74848 0.27092 0.47771 0.0
C2125 C 0.76166 0.28676 0.46783 0.0
C2126 C 0.78823 0.24853 0.52052 0.0
C2127 C 0.72531 0.26816 0.46994 0.0
H2128 H 0.7198 0.19286 0.5063 0.0
H2129 H 0.70208 0.24732 0.54647 0.0
H2130 H 0.7475 0.21932 0.46776 0.0
H2131 H 0.76985 0.21525 0.48595 0.0
H2132 H 0.74984 0.194 0.48242 0.0
H2133 H 0.7221 0.27987 0.54686 0.0
H2134 H 0.74921 0.27957 0.53553 0.0
H2135 H 0.72662 0.28736 0.51886 0.0
H2136 H 0.80831 0.27972 0.49683 0.0
H2137 H 0.75496 0.29673 0.45489 0.0
H2138 H 0.78486 0.2309 0.51852 0.0
H2139 H 0.78037 0.25379 0.53592 0.0
H2140 H 0.80609 0.25091 0.52209 0.0
H2141 H 0.7218 0.25072 0.46675 0.0
H2142 H 0.72195 0.27759 0.45487 0.0
H2143 H 0.7139 0.27371 0.48281 0.0
C2144 C 0.29901 0.76823 0.50566 0.0
C2145 C 0.29452 0.7836 0.5219 0.0
C2146 C 0.2825 0.75506 0.49698 0.0
C2147 C 0.26105 0.75674 0.50529 0.0
C2148 C 0.25629 0.77264 0.52137 0.0
C2149 C 0.27308 0.78617 0.52925 0.0
C2150 C 0.28822 0.73881 0.47941 0.0
C2151 C 0.2338 0.77456 0.53106 0.0
C2152 C 0.21694 0.72749 0.47274 0.0
C2153 C 0.2176 0.70674 0.48219 0.0
C2154 C 0.23048 0.74431 0.4805 0.0
C2155 C 0.2444 0.74037 0.49853 0.0
C2156 C 0.244 0.71977 0.50888 0.0
C2157 C 0.23092 0.70312 0.50034 0.0
C2158 C 0.23082 0.76584 0.46866 0.0
C2159 C 0.25806 0.71499 0.5285 0.0
H2160 H 0.31556 0.76645 0.49977 0.0
H2161 H 0.26964 0.79804 0.54187 0.0
H2162 H 0.28715 0.72205 0.48605 0.0
H2163 H 0.27649 0.73998 0.46572 0.0
H2164 H 0.30493 0.74133 0.47296 0.0
H2165 H 0.23222 0.78904 0.5418 0.0
H2166 H 0.22133 0.77557 0.51804 0.0
H2167 H 0.2302 0.75976 0.54079 0.0
H2168 H 0.20666 0.73022 0.45864 0.0
H2169 H 0.2312 0.6871 0.50779 0.0
H2170 H 0.24666 0.76774 0.46017 0.0
H2171 H 0.22932 0.77954 0.48033 0.0
H2172 H 0.21755 0.7671 0.45643 0.0
H2173 H 0.27542 0.71447 0.52356 0.0
H2174 H 0.25385 0.69918 0.53622 0.0
H2175 H 0.25632 0.7281 0.54082 0.0
C2176 C 0.21468 0.27533 0.52494 0.0
C2177 C 0.22275 0.29673 0.52517 0.0
C2178 C 0.22729 0.25805 0.51661 0.0
C2179 C 0.24827 0.26235 0.50801 0.0
C2180 C 0.25637 0.28392 0.50807 0.0
C2181 C 0.24363 0.30075 0.51676 0.0
C2182 C 0.21821 0.23522 0.51706 0.0
C2183 C 0.27854 0.28932 0.49883 0.0
C2184 C 0.29298 0.21989 0.5032 0.0
C2185 C 0.29317 0.21602 0.48076 0.0
C2186 C 0.27761 0.23403 0.51253 0.0
C2187 C 0.26208 0.24448 0.49902 0.0
C2188 C 0.2616 0.23969 0.47643 0.0
C2189 C 0.27732 0.22561 0.46752 0.0
C2190 C 0.27881 0.23876 0.53663 0.0
C2191 C 0.24528 0.25036 0.46147 0.0
H2192 H 0.19859 0.27206 0.53141 0.0
H2193 H 0.24996 0.31723 0.51658 0.0
H2194 H 0.21754 0.22852 0.5003 0.0
H2195 H 0.22911 0.22447 0.52667 0.0
H2196 H 0.20163 0.23457 0.52425 0.0
H2197 H 0.28233 0.30698 0.49985 0.0
H2198 H 0.29132 0.28018 0.50775 0.0
H2199 H 0.27939 0.28426 0.48151 0.0
H2200 H 0.30544 0.21252 0.51333 0.0
H2201 H 0.27765 0.22262 0.45012 0.0
H2202 H 0.26245 0.23736 0.54415 0.0
H2203 H 0.28449 0.25572 0.53917 0.0
H2204 H 0.29016 0.22758 0.54521 0.0
H2205 H 0.22862 0.24907 0.46834 0.0
H2206 H 0.24535 0.24299 0.44495 0.0
H2207 H 0.24913 0.26795 0.45992 0.0
C2208 C 0.08577 0.32033 0.10666 0.0
C2209 C 0.07422 0.33896 0.11301 0.0
C2210 C 0.09586 0.31918 0.08619 0.0
C2211 C 0.0941 0.33698 0.07163 0.0
C2212 C 0.08241 0.35582 0.07794 0.0
C2213 C 0.0727 0.35664 0.09863 0.0
C2214 C 0.10833 0.29887 0.08013 0.0
C2215 C 0.07992 0.37498 0.06274 0.0
C2216 C 0.13516 0.3394 0.02531 0.0
C2217 C 0.12362 0.32917 0.00846 0.0
C2218 C 0.12562 0.34248 0.04589 0.0
C2219 C 0.10394 0.33547 0.04954 0.0
C2220 C 0.09194 0.32599 0.0323 0.0
C2221 C 0.10196 0.32282 0.01205 0.0
C2222 C 0.13898 0.3525 0.06394 0.0
C2223 C 0.06866 0.31863 0.03542 0.0
H2224 H 0.08707 0.30667 0.11776 0.0
H2225 H 0.06374 0.37106 0.10346 0.0
H2226 H 0.10071 0.29106 0.06573 0.0
H2227 H 0.12528 0.30316 0.07558 0.0
H2228 H 0.10883 0.28682 0.09361 0.0
H2229 H 0.07057 0.38854 0.07023 0.0
H2230 H 0.09618 0.38118 0.05787 0.0
H2231 H 0.07145 0.36977 0.04765 0.0
H2232 H 0.15192 0.34428 0.02268 0.0
H2233 H 0.09285 0.31513 0.99902 0.0
H2234 H 0.14144 0.34037 0.0771 0.0
H2235 H 0.1302 0.36655 0.07116 0.0
H2236 H 0.15518 0.35812 0.05817 0.0
H2237 H 0.0681 0.3051 0.04737 0.0
H2238 H 0.06112 0.31298 0.01998 0.0
H2239 H 0.0587 0.33213 0.04212 0.0
C2240 C 0.64426 0.07006 0.1008 0.0
C2241 C 0.66186 0.07144 0.11528 0.0
C2242 C 0.64518 0.07998 0.08022 0.0
C2243 C 0.66404 0.09178 0.07414 0.0
C2244 C 0.68177 0.09337 0.0888 0.0
C2245 C 0.68052 0.08305 0.10914 0.0
C2246 C 0.62609 0.07767 0.06489 0.0
C2247 C 0.70209 0.10595 0.08299 0.0
C2248 C 0.67827 0.10068 0.01472 0.0
C2249 C 0.67174 0.12234 0.01147 0.0
C2250 C 0.67516 0.09032 0.03482 0.0
C2251 C 0.66559 0.10199 0.05223 0.0
C2252 C 0.65851 0.1237 0.04894 0.0
C2253 C 0.66151 0.13358 0.02851 0.0
C2254 C 0.68259 0.06702 0.03757 0.0
C2255 C 0.64843 0.13673 0.06719 0.0
H2256 H 0.62982 0.06104 0.10547 0.0
H2257 H 0.69413 0.08425 0.12032 0.0
H2258 H 0.61982 0.09398 0.0603 0.0
H2259 H 0.6314 0.06951 0.04967 0.0
H2260 H 0.61256 0.0681 0.07215 0.0
H2261 H 0.71412 0.10623 0.09651 0.0
H2262 H 0.70993 0.09858 0.06848 0.0
H2263 H 0.69781 0.12298 0.07872 0.0
H2264 H 0.68594 0.0918 0.00153 0.0
H2265 H 0.65649 0.15033 0.02613 0.0
H2266 H 0.66909 0.05688 0.044 0.0
H2267 H 0.69605 0.06629 0.04959 0.0
H2268 H 0.68836 0.05978 0.02203 0.0
H2269 H 0.63432 0.12785 0.07414 0.0
H2270 H 0.6429 0.15306 0.06173 0.0
H2271 H 0.66049 0.13887 0.08049 0.0
C2272 C 0.91275 0.6806 0.11521 0.0
C2273 C 0.92411 0.66184 0.12155 0.0
C2274 C 0.90272 0.6819 0.09469 0.0
C2275 C 0.90439 0.66414 0.08005 0.0
C2276 C 0.91569 0.64509 0.08645 0.0
C2277 C 0.92529 0.64412 0.10719 0.0
C2278 C 0.89063 0.70241 0.08856 0.0
C2279 C 0.91812 0.62596 0.07119 0.0
C2280 C 0.86515 0.66196 0.03202 0.0
C2281 C 0.87755 0.6718 0.01555 0.0
C2282 C 0.87372 0.65915 0.05308 0.0
C2283 C 0.89528 0.666 0.05763 0.0
C2284 C 0.90809 0.67524 0.04086 0.0
C2285 C 0.89903 0.67817 0.0201 0.0
C2286 C 0.8595 0.64943 0.07062 0.0
C2287 C 0.93129 0.68239 0.04491 0.0
H2288 H 0.91171 0.6943 0.12629 0.0
H2289 H 0.93411 0.6296 0.11198 0.0
H2290 H 0.89886 0.71042 0.07462 0.0
H2291 H 0.87383 0.69836 0.08327 0.0
H2292 H 0.88972 0.7142 0.10225 0.0
H2293 H 0.92673 0.61205 0.07893 0.0
H2294 H 0.90189 0.62033 0.06561 0.0
H2295 H 0.92736 0.63101 0.05652 0.0
H2296 H 0.84852 0.65711 0.02865 0.0
H2297 H 0.90879 0.68558 0.0074 0.0
H2298 H 0.85696 0.66154 0.08379 0.0
H2299 H 0.86765 0.6351 0.07802 0.0
H2300 H 0.84335 0.64428 0.06429 0.0
H2301 H 0.93154 0.69572 0.0571 0.0
H2302 H 0.93941 0.68823 0.02984 0.0
H2303 H 0.94091 0.6687 0.05173 0.0
C2304 C 0.33952 0.86628 0.02676 0.0
C2305 C 0.33022 0.87823 0.00966 0.0
C2306 C 0.34265 0.87576 0.04735 0.0
C2307 C 0.33669 0.89779 0.05075 0.0
C2308 C 0.32828 0.9102 0.03324 0.0
C2309 C 0.32497 0.90022 0.01297 0.0
C2310 C 0.35146 0.86196 0.06568 0.0
C2311 C 0.32212 0.93385 0.0361 0.0
C2312 C 0.32078 0.91622 0.10756 0.0
C2313 C 0.3398 0.92668 0.11462 0.0
C2314 C 0.31969 0.90652 0.0869 0.0
C2315 C 0.33797 0.90752 0.07289 0.0
C2316 C 0.3572 0.91814 0.0799 0.0
C2317 C 0.35792 0.92751 0.10075 0.0
C2318 C 0.29893 0.89522 0.08007 0.0
C2319 C 0.37692 0.91976 0.06531 0.0
H2320 H 0.34352 0.84926 0.02432 0.0
H2321 H 0.31801 0.90961 0.99973 0.0
H2322 H 0.36566 0.87006 0.07337 0.0
H2323 H 0.33881 0.86005 0.07844 0.0
H2324 H 0.3565 0.84551 0.06007 0.0
H2325 H 0.31749 0.94167 0.02046 0.0
H2326 H 0.30818 0.93517 0.04751 0.0
H2327 H 0.33588 0.94307 0.04334 0.0
H2328 H 0.30675 0.91547 0.11824 0.0
H2329 H 0.37264 0.93564 0.10612 0.0
H2330 H 0.30243 0.87806 0.0756 0.0
H2331 H 0.29207 0.90329 0.06543 0.0
H2332 H 0.2864 0.89536 0.09311 0.0
H2333 H 0.38251 0.90323 0.06061 0.0
H2334 H 0.39064 0.92848 0.07324 0.0
H2335 H 0.37258 0.92846 0.05008 0.0
C2336 C 0.07698 0.64834 0.89634 0.0
C2337 C 0.07815 0.66617 0.88211 0.0
C2338 C 0.08645 0.64922 0.91713 0.0
C2339 C 0.09763 0.66828 0.92371 0.0
C2340 C 0.09925 0.68616 0.90923 0.0
C2341 C 0.08931 0.68497 0.88865 0.0
C2342 C 0.08403 0.62997 0.93224 0.0
C2343 C 0.11126 0.70667 0.91556 0.0
C2344 C 0.10305 0.68156 0.98382 0.0
C2345 C 0.12452 0.6751 0.98825 0.0
C2346 C 0.09397 0.67893 0.96303 0.0
C2347 C 0.10677 0.66992 0.94612 0.0
C2348 C 0.12833 0.663 0.95054 0.0
C2349 C 0.1369 0.6655 0.97163 0.0
C2350 C 0.07077 0.68612 0.9591 0.0
C2351 C 0.14253 0.65352 0.93285 0.0
H2352 H 0.06828 0.6338 0.89139 0.0
H2353 H 0.09033 0.69874 0.87766 0.0
H2354 H 0.10028 0.62425 0.93769 0.0
H2355 H 0.07487 0.63491 0.947 0.0
H2356 H 0.07535 0.61614 0.92442 0.0
H2357 H 0.11207 0.71862 0.902 0.0
H2358 H 0.10303 0.71448 0.92961 0.0
H2359 H 0.12809 0.70264 0.92075 0.0
H2360 H 0.09331 0.68879 0.99664 0.0
H2361 H 0.15354 0.66059 0.97492 0.0
H2362 H 0.06114 0.67251 0.95213 0.0
H2363 H 0.07049 0.6996 0.94707 0.0
H2364 H 0.06267 0.69178 0.97425 0.0
H2365 H 0.13441 0.63924 0.92533 0.0
H2366 H 0.15872 0.64838 0.93907 0.0
H2367 H 0.14498 0.66578 0.9198 0.0
C2368 C 0.35588 0.07543 0.90206 0.0
C2369 C 0.33776 0.0761 0.88818 0.0
C2370 C 0.35521 0.08515 0.92275 0.0
C2371 C 0.33604 0.09599 0.92957 0.0
C2372 C 0.31779 0.09692 0.91549 0.0
C2373 C 0.31883 0.08684 0.89501 0.0
C2374 C 0.37488 0.08355 0.93743 0.0
C2375 C 0.29711 0.10848 0.9221 0.0
C2376 C 0.32302 0.10319 0.98947 0.0
C2377 C 0.32848 0.12511 0.99292 0.0
C2378 C 0.32618 0.0933 0.96914 0.0
C2379 C 0.33468 0.10573 0.95171 0.0
C2380 C 0.34081 0.1277 0.95522 0.0
C2381 C 0.33781 0.13709 0.97587 0.0
C2382 C 0.31983 0.06972 0.96618 0.0
C2383 C 0.34975 0.14151 0.93695 0.0
H2384 H 0.37055 0.0671 0.89685 0.0
H2385 H 0.30481 0.08748 0.88429 0.0
H2386 H 0.38041 0.10007 0.94221 0.0
H2387 H 0.37048 0.07479 0.95261 0.0
H2388 H 0.38865 0.07488 0.92954 0.0
H2389 H 0.28471 0.10848 0.90893 0.0
H2390 H 0.29002 0.10049 0.93667 0.0
H2391 H 0.30077 0.1256 0.92661 0.0
H2392 H 0.31604 0.09377 0.00267 0.0
H2393 H 0.34197 0.15406 0.97842 0.0
H2394 H 0.33358 0.06039 0.95909 0.0
H2395 H 0.306 0.06854 0.95461 0.0
H2396 H 0.31496 0.06191 0.98175 0.0
H2397 H 0.36395 0.13336 0.92932 0.0
H2398 H 0.35483 0.15793 0.94261 0.0
H2399 H 0.33717 0.14347 0.92413 0.0
C2400 C 0.86396 0.3365 0.97346 0.0
C2401 C 0.87571 0.32715 0.99067 0.0
C2402 C 0.87346 0.33906 0.95279 0.0
C2403 C 0.89531 0.33247 0.9494 0.0
C2404 C 0.90751 0.32391 0.96698 0.0
C2405 C 0.89752 0.3212 0.98733 0.0
C2406 C 0.85988 0.34808 0.93438 0.0
C2407 C 0.93098 0.31707 0.96417 0.0
C2408 C 0.91417 0.31598 0.89283 0.0
C2409 C 0.92517 0.33473 0.8859 0.0
C2410 C 0.90402 0.3152 0.9133 0.0
C2411 C 0.90519 0.33351 0.92729 0.0
C2412 C 0.91636 0.35247 0.9204 0.0
C2413 C 0.9261 0.3529 0.89972 0.0
C2414 C 0.89211 0.29475 0.91998 0.0
C2415 C 0.91825 0.37218 0.93499 0.0
H2416 H 0.84708 0.34105 0.97592 0.0
H2417 H 0.90678 0.31419 1.00063 0.0
H2418 H 0.86828 0.36211 0.92671 0.0
H2419 H 0.85781 0.33544 0.92163 0.0
H2420 H 0.84351 0.35343 0.93992 0.0
H2421 H 0.93863 0.31216 0.97981 0.0
H2422 H 0.93194 0.30315 0.95269 0.0
H2423 H 0.9406 0.3306 0.95703 0.0
H2424 H 0.91332 0.30194 0.88216 0.0
H2425 H 0.93465 0.36742 0.89445 0.0
H2426 H 0.87503 0.29871 0.92435 0.0
H2427 H 0.8999 0.28763 0.93464 0.0
H2428 H 0.89199 0.28227 0.90689 0.0
H2429 H 0.90181 0.37808 0.9396 0.0
H2430 H 0.92726 0.38574 0.92709 0.0
H2431 H 0.9268 0.36769 0.95026 0.0
C2432 C 0.66495 0.86499 0.96969 0.0
C2433 C 0.67333 0.8772 0.98708 0.0
C2434 C 0.66272 0.87419 0.94885 0.0
C2435 C 0.66857 0.89626 0.94546 0.0
C2436 C 0.67622 0.90888 0.96317 0.0
C2437 C 0.67872 0.89914 0.9837 0.0
C2438 C 0.6548 0.86012 0.93031 0.0
C2439 C 0.68216 0.93259 0.96036 0.0
C2440 C 0.68462 0.91544 0.88878 0.0
C2441 C 0.66538 0.92541 0.88159 0.0
C2442 C 0.68577 0.90561 0.90941 0.0
C2443 C 0.66733 0.90601 0.92327 0.0
C2444 C 0.64788 0.91609 0.91609 0.0
C2445 C 0.64711 0.92555 0.89529 0.0
C2446 C 0.70674 0.89484 0.91639 0.0
C2447 C 0.62798 0.91713 0.9305 0.0
H2448 H 0.66093 0.84797 0.97217 0.0
H2449 H 0.68506 0.9087 0.99713 0.0
H2450 H 0.6404 0.86768 0.92244 0.0
H2451 H 0.6677 0.85881 0.91773 0.0
H2452 H 0.65033 0.84345 0.93575 0.0
H2453 H 0.68658 0.94047 0.97603 0.0
H2454 H 0.69615 0.93408 0.94904 0.0
H2455 H 0.66834 0.94164 0.95303 0.0
H2456 H 0.69877 0.91525 0.87824 0.0
H2457 H 0.63221 0.93331 0.88986 0.0
H2458 H 0.70364 0.8776 0.92085 0.0
H2459 H 0.71329 0.90309 0.93107 0.0
H2460 H 0.71935 0.8953 0.90343 0.0
H2461 H 0.62278 0.90045 0.9351 0.0
H2462 H 0.6141 0.92549 0.92246 0.0
H2463 H 0.63194 0.92591 0.94579 0.0
C2464 C 0.10644 0.07502 0.35547 0.0
C2465 C 0.12048 0.07551 0.33747 0.0
C2466 C 0.08573 0.08465 0.35453 0.0
C2467 C 0.07902 0.09526 0.3352 0.0
C2468 C 0.09326 0.09606 0.31706 0.0
C2469 C 0.11377 0.08603 0.31837 0.0
C2470 C 0.0709 0.08318 0.37408 0.0
C2471 C 0.08677 0.10741 0.29624 0.0
C2472 C 0.01892 0.10261 0.32258 0.0
C2473 C 0.0155 0.12444 0.3284 0.0
C2474 C 0.03935 0.09273 0.32534 0.0
C2475 C 0.05691 0.10511 0.3337 0.0
C2476 C 0.05347 0.12704 0.33998 0.0
C2477 C 0.03273 0.13639 0.33746 0.0
C2478 C 0.04223 0.06916 0.3189 0.0
C2479 C 0.07186 0.14084 0.3487 0.0
H2480 H 0.11151 0.06681 0.37026 0.0
H2481 H 0.12459 0.0865 0.30443 0.0
H2482 H 0.06617 0.09974 0.37954 0.0
H2483 H 0.0557 0.07449 0.3696 0.0
H2484 H 0.07864 0.07451 0.38795 0.0
H2485 H 0.10002 0.10728 0.28392 0.0
H2486 H 0.07224 0.09938 0.28913 0.0
H2487 H 0.08227 0.12457 0.2997 0.0
H2488 H 0.00561 0.09323 0.31574 0.0
H2489 H 0.03023 0.15331 0.34183 0.0
H2490 H 0.0492 0.05976 0.33266 0.0
H2491 H 0.05387 0.06797 0.30514 0.0
H2492 H 0.02663 0.06145 0.31392 0.0
H2493 H 0.07937 0.13288 0.36307 0.0
H2494 H 0.06637 0.15741 0.35346 0.0
H2495 H 0.08475 0.14244 0.33613 0.0
C2496 C 0.93153 0.10405 0.35507 0.0
C2497 C 0.9299 0.11855 0.3375 0.0
C2498 C 0.92166 0.08342 0.35429 0.0
C2499 C 0.90958 0.07729 0.33563 0.0
C2500 C 0.90768 0.09199 0.31794 0.0
C2501 C 0.91802 0.11238 0.31901 0.0
C2502 C 0.9244 0.06808 0.37331 0.0
C2503 C 0.89473 0.08618 0.29785 0.0
C2504 C 0.90049 0.01758 0.32218 0.0
C2505 C 0.87907 0.01426 0.32942 0.0
C2506 C 0.91081 0.03783 0.32467 0.0
C2507 C 0.89933 0.05533 0.33433 0.0
C2508 C 0.87786 0.05198 0.34208 0.0
C2509 C 0.86804 0.03143 0.3397 0.0
C2510 C 0.93388 0.04059 0.31658 0.0
C2511 C 0.865 0.07031 0.35225 0.0
H2512 H 0.94079 0.10871 0.36936 0.0
H2513 H 0.91665 0.12356 0.30543 0.0
H2514 H 0.90823 0.06346 0.37991 0.0
H2515 H 0.93247 0.05288 0.36781 0.0
H2516 H 0.93423 0.07535 0.38665 0.0
H2517 H 0.89419 0.09972 0.28587 0.0
H2518 H 0.90199 0.07169 0.28985 0.0
H2519 H 0.87781 0.08185 0.30246 0.0
H2520 H 0.9092 0.00434 0.3144 0.0
H2521 H 0.85145 0.02903 0.34522 0.0
H2522 H 0.94437 0.0471 0.32978 0.0
H2523 H 0.93421 0.05257 0.30306 0.0
H2524 H 0.94099 0.02504 0.31067 0.0
H2525 H 0.8741 0.07732 0.36619 0.0
H2526 H 0.84875 0.06489 0.35807 0.0
H2527 H 0.86268 0.08355 0.34017 0.0
C2528 C 0.8888 0.91651 0.3205 0.0
C2529 C 0.88294 0.92815 0.33923 0.0
C2530 C 0.90893 0.90574 0.31915 0.0
C2531 C 0.9237 0.90692 0.33685 0.0
C2532 C 0.91781 0.91858 0.35585 0.0
C2533 C 0.89744 0.92893 0.35687 0.0
C2534 C 0.91451 0.8933 0.29869 0.0
C2535 C 0.93323 0.92051 0.37491 0.0
C2536 C 0.97002 0.86568 0.33913 0.0
C2537 C 0.98697 0.87732 0.32919 0.0
C2538 C 0.94934 0.87516 0.34194 0.0
C2539 C 0.9457 0.89686 0.33498 0.0
C2540 C 0.96298 0.90889 0.32562 0.0
C2541 C 0.98332 0.89893 0.32269 0.0
C2542 C 0.93124 0.86176 0.35179 0.0
C2543 C 0.9599 0.93219 0.31834 0.0
H2544 H 0.87761 0.91576 0.30686 0.0
H2545 H 0.89302 0.93796 0.37138 0.0
H2546 H 0.92881 0.90087 0.29064 0.0
H2547 H 0.91904 0.87629 0.3028 0.0
H2548 H 0.90079 0.89296 0.2869 0.0
H2549 H 0.92595 0.92963 0.38874 0.0
H2550 H 0.93806 0.9041 0.3807 0.0
H2551 H 0.94831 0.92901 0.36972 0.0
H2552 H 0.9727 0.84896 0.34409 0.0
H2553 H 0.99641 0.90812 0.31522 0.0
H2554 H 0.91792 0.85974 0.33975 0.0
H2555 H 0.92427 0.87029 0.3661 0.0
H2556 H 0.93688 0.84537 0.35698 0.0
H2557 H 0.94769 0.93288 0.30504 0.0
H2558 H 0.97529 0.93963 0.31241 0.0
H2559 H 0.95355 0.94218 0.33199 0.0
C2560 C 0.10135 0.98804 0.32238 0.0
C2561 C 0.12294 0.99097 0.3293 0.0
C2562 C 0.0906 0.96811 0.32543 0.0
C2563 C 0.1018 0.95057 0.33533 0.0
C2564 C 0.12339 0.95359 0.34289 0.0
C2565 C 0.13365 0.97383 0.33995 0.0
C2566 C 0.06744 0.96565 0.3175 0.0
C2567 C 0.13593 0.93521 0.35335 0.0
C2568 C 0.0695 0.90208 0.3563 0.0
C2569 C 0.07134 0.88744 0.33887 0.0
C2570 C 0.07924 0.92275 0.35537 0.0
C2571 C 0.09133 0.92876 0.33669 0.0
C2572 C 0.0933 0.91399 0.31908 0.0
C2573 C 0.08313 0.89356 0.32032 0.0
C2574 C 0.07651 0.9382 0.3743 0.0
C2575 C 0.10624 0.91971 0.29897 0.0
H2576 H 0.09289 0.00129 0.31435 0.0
H2577 H 0.15035 0.97595 0.34526 0.0
H2578 H 0.06687 0.95373 0.30394 0.0
H2579 H 0.05696 0.95923 0.33074 0.0
H2580 H 0.06049 0.98131 0.31168 0.0
H2581 H 0.15218 0.9405 0.35931 0.0
H2582 H 0.12662 0.92837 0.36723 0.0
H2583 H 0.13825 0.92187 0.34137 0.0
H2584 H 0.06032 0.89743 0.37064 0.0
H2585 H 0.08466 0.88226 0.30684 0.0
H2586 H 0.06872 0.95351 0.36867 0.0
H2587 H 0.09267 0.9426 0.38107 0.0
H2588 H 0.06643 0.93112 0.38755 0.0
H2589 H 0.09916 0.93431 0.29104 0.0
H2590 H 0.10658 0.9062 0.28693 0.0
H2591 H 0.12324 0.92379 0.30354 0.0
C2592 C 0.01501 0.89812 0.68104 0.0
C2593 C 0.01128 0.87659 0.67432 0.0
C2594 C 0.03563 0.90773 0.67895 0.0
C2595 C 0.05306 0.89541 0.67027 0.0
C2596 C 0.04935 0.87378 0.66315 0.0
C2597 C 0.02844 0.86468 0.66508 0.0
C2598 C 0.03881 0.93099 0.68632 0.0
C2599 C 0.0676 0.86006 0.65403 0.0
C2600 C 0.10294 0.92571 0.64969 0.0
C2601 C 0.11693 0.92444 0.6677 0.0
C2602 C 0.08212 0.91629 0.65026 0.0
C2603 C 0.07527 0.90505 0.66918 0.0
C2604 C 0.08945 0.90349 0.68732 0.0
C2605 C 0.11005 0.91337 0.68642 0.0
C2606 C 0.06734 0.91863 0.63074 0.0
C2607 C 0.08282 0.89143 0.7077 0.0
H2608 H 0.00177 0.9075 0.68799 0.0
H2609 H 0.02569 0.848 0.65997 0.0
H2610 H 0.05052 0.93151 0.70007 0.0
H2611 H 0.04584 0.94085 0.67291 0.0
H2612 H 0.02334 0.93869 0.69166 0.0
H2613 H 0.06194 0.84369 0.64879 0.0
H2614 H 0.07517 0.86837 0.6399 0.0
H2615 H 0.08049 0.85798 0.66654 0.0
H2616 H 0.10816 0.93435 0.6352 0.0
H2617 H 0.12085 0.91228 0.70035 0.0
H2618 H 0.0522 0.92726 0.63552 0.0
H2619 H 0.0625 0.90233 0.62464 0.0
H2620 H 0.07518 0.92776 0.61724 0.0
H2621 H 0.06833 0.89932 0.71505 0.0
H2622 H 0.09604 0.89101 0.72004 0.0
H2623 H 0.07819 0.87445 0.70359 0.0
C2624 C 0.13553 0.02642 0.66496 0.0
C2625 C 0.12358 0.00959 0.67473 0.0
C2626 C 0.12632 0.04715 0.66192 0.0
C2627 C 0.10452 0.05098 0.66845 0.0
C2628 C 0.0921 0.03378 0.67745 0.0
C2629 C 0.10183 0.01336 0.68064 0.0
C2630 C 0.14014 0.06515 0.65248 0.0
C2631 C 0.06869 0.03709 0.68422 0.0
C2632 C 0.08678 0.10837 0.68331 0.0
C2633 C 0.07606 0.11503 0.66431 0.0
C2634 C 0.09641 0.08768 0.68473 0.0
C2635 C 0.09497 0.0732 0.66683 0.0
C2636 C 0.08404 0.07981 0.64764 0.0
C2637 C 0.07484 0.10072 0.64655 0.0
C2638 C 0.10812 0.08132 0.7054 0.0
C2639 C 0.08186 0.0647 0.62835 0.0
H2640 H 0.15238 0.02365 0.66047 0.0
H2641 H 0.09242 1.00035 0.68799 0.0
H2642 H 0.13189 0.07255 0.63822 0.0
H2643 H 0.14232 0.07822 0.66478 0.0
H2644 H 0.15647 0.05929 0.64734 0.0
H2645 H 0.06083 0.02167 0.68951 0.0
H2646 H 0.0679 0.04891 0.69786 0.0
H2647 H 0.05915 0.04404 0.67054 0.0
H2648 H 0.08783 0.11941 0.69705 0.0
H2649 H 0.06647 0.10577 0.63185 0.0
H2650 H 0.12515 0.07658 0.70164 0.0
H2651 H 0.10007 0.06696 0.71285 0.0
H2652 H 0.1084 0.09472 0.71756 0.0
H2653 H 0.09821 0.0597 0.62253 0.0
H2654 H 0.07291 0.07235 0.61461 0.0
H2655 H 0.07311 0.04968 0.63329 0.0
C2656 C 0.98791 0.10211 0.67649 0.0
C2657 C 0.99165 0.12384 0.67049 0.0
C2658 C 0.96756 0.0923 0.67322 0.0
C2659 C 0.95039 0.10461 0.66402 0.0
C2660 C 0.95421 0.12636 0.65732 0.0
C2661 C 0.97489 0.13567 0.66048 0.0
C2662 C 0.96426 0.06893 0.6802 0.0
C2663 C 0.93624 0.14005 0.64763 0.0
C2664 C 0.90074 0.07417 0.64294 0.0
C2665 C 0.88658 0.07554 0.66081 0.0
C2666 C 0.92153 0.08369 0.64365 0.0
C2667 C 0.92817 0.09504 0.66259 0.0
C2668 C 0.91382 0.09667 0.68057 0.0
C2669 C 0.89325 0.08677 0.67951 0.0
C2670 C 0.9365 0.08132 0.6243 0.0
C2671 C 0.92023 0.1088 0.70099 0.0
H2672 H 1.00089 0.09278 0.684 0.0
H2673 H 0.97766 0.15249 0.65588 0.0
H2674 H 0.95248 0.06827 0.69388 0.0
H2675 H 0.95728 0.05927 0.66662 0.0
H2676 H 0.97969 0.06113 0.68553 0.0
H2677 H 0.94216 0.15624 0.64213 0.0
H2678 H 0.92876 0.13152 0.63356 0.0
H2679 H 0.92323 0.14254 0.65991 0.0
H2680 H 0.89567 0.06544 0.62845 0.0
H2681 H 0.88233 0.08794 0.69333 0.0
H2682 H 0.95151 0.07255 0.62921 0.0
H2683 H 0.94153 0.09761 0.61833 0.0
H2684 H 0.92873 0.0723 0.61067 0.0
H2685 H 0.9346 0.10088 0.70856 0.0
H2686 H 0.90686 0.10931 0.71317 0.0
H2687 H 0.92496 0.12575 0.6969 0.0
C2688 C 0.91496 0.89248 0.67964 0.0
C2689 C 0.92659 0.88607 0.66109 0.0
C2690 C 0.90485 0.91295 0.68068 0.0
C2691 C 0.90665 0.92745 0.66284 0.0
C2692 C 0.91834 0.92104 0.64403 0.0
C2693 C 0.92809 0.90036 0.64334 0.0
C2694 C 0.89237 0.91912 0.70096 0.0
C2695 C 0.92084 0.93616 0.6248 0.0
C2696 C 0.86601 0.97416 0.66017 0.0
C2697 C 0.87774 0.99098 0.67023 0.0
C2698 C 0.87533 0.95345 0.65727 0.0
C2699 C 0.89698 0.94963 0.6643 0.0
C2700 C 0.90915 0.9668 0.67368 0.0
C2701 C 0.89934 0.9872 0.67667 0.0
C2702 C 0.86179 0.93547 0.64736 0.0
C2703 C 0.93239 0.96349 0.68106 0.0
H2704 H 0.91366 0.88145 0.69336 0.0
H2705 H 0.9371 0.89548 0.62897 0.0
H2706 H 0.9001 0.93346 0.70878 0.0
H2707 H 0.87547 0.92381 0.69663 0.0
H2708 H 0.89174 0.90564 0.71301 0.0
H2709 H 0.93003 0.92852 0.61122 0.0
H2710 H 0.90459 0.94117 0.6187 0.0
H2711 H 0.9295 0.95117 0.62991 0.0
H2712 H 0.84929 0.97695 0.65523 0.0
H2713 H 0.90861 1.0002 0.68422 0.0
H2714 H 0.85928 0.92236 0.65954 0.0
H2715 H 0.87046 0.92814 0.63331 0.0
H2716 H 0.84562 0.94134 0.64178 0.0
H2717 H 0.93285 0.9515 0.69457 0.0
H2718 H 0.94004 0.97886 0.68676 0.0
H2719 H 0.94231 0.95674 0.66756 0.0
C2720 C 0.32341 0.01471 0.10288 0.0
C2721 C 0.32918 0.01101 0.12467 0.0
C2722 C 0.32584 0.03533 0.09337 0.0
C2723 C 0.33389 0.0528 0.10606 0.0
C2724 C 0.3402 0.04909 0.12794 0.0
C2725 C 0.33795 0.02816 0.13695 0.0
C2726 C 0.31935 0.03851 0.06985 0.0
C2727 C 0.34865 0.06737 0.14204 0.0
C2728 C 0.35452 0.10314 0.07653 0.0
C2729 C 0.33624 0.1168 0.0773 0.0
C2730 C 0.35406 0.0823 0.08593 0.0
C2731 C 0.33494 0.07509 0.09658 0.0
C2732 C 0.3165 0.08892 0.0976 0.0
C2733 C 0.31733 0.10957 0.08782 0.0
C2734 C 0.37393 0.0679 0.08423 0.0
C2735 C 0.29586 0.08188 0.10896 0.0
H2736 H 0.31684 0.00146 0.09323 0.0
H2737 H 0.34233 0.02541 0.15383 0.0
H2738 H 0.30539 0.04994 0.06885 0.0
H2739 H 0.33299 0.04587 0.06057 0.0
H2740 H 0.31464 0.02297 0.06186 0.0
H2741 H 0.35361 0.06165 0.15847 0.0
H2742 H 0.36284 0.07529 0.13415 0.0
H2743 H 0.33585 0.07999 0.14394 0.0
H2744 H 0.36917 0.10863 0.06835 0.0
H2745 H 0.30319 0.12012 0.08853 0.0
H2746 H 0.36975 0.05274 0.07532 0.0
H2747 H 0.37951 0.06306 0.10071 0.0
H2748 H 0.38761 0.07606 0.07565 0.0
H2749 H 0.28902 0.0673 0.10077 0.0
H2750 H 0.28328 0.09487 0.10904 0.0
H2751 H 0.2995 0.07723 0.12605 0.0
C2752 C 0.32321 0.9865 0.90073 0.0
C2753 C 0.3291 0.99059 0.87904 0.0
C2754 C 0.32593 0.9658 0.90998 0.0
C2755 C 0.33442 0.94866 0.89713 0.0
C2756 C 0.34091 0.95279 0.87538 0.0
C2757 C 0.33834 0.97379 0.86664 0.0
C2758 C 0.31923 0.96216 0.93337 0.0
C2759 C 0.34982 0.93486 0.86112 0.0
C2760 C 0.35529 0.89818 0.92623 0.0
C2761 C 0.33713 0.88437 0.92514 0.0
C2762 C 0.35473 0.91911 0.91704 0.0
C2763 C 0.33564 0.92624 0.90626 0.0
C2764 C 0.31738 0.91221 0.90482 0.0
C2765 C 0.31829 0.89149 0.91443 0.0
C2766 C 0.37439 0.93371 0.91921 0.0
C2767 C 0.29681 0.91916 0.89326 0.0
H2768 H 0.31626 0.99948 0.91047 0.0
H2769 H 0.34281 0.97683 0.84983 0.0
H2770 H 0.30538 0.95058 0.93401 0.0
H2771 H 0.33285 0.95478 0.94268 0.0
H2772 H 0.31427 0.97752 0.94156 0.0
H2773 H 0.35498 0.94094 0.84488 0.0
H2774 H 0.36396 0.92696 0.86911 0.0
H2775 H 0.3372 0.92214 0.85876 0.0
H2776 H 0.36988 0.89276 0.93458 0.0
H2777 H 0.30425 0.88083 0.91347 0.0
H2778 H 0.36995 0.94863 0.92839 0.0
H2779 H 0.38005 0.93897 0.90288 0.0
H2780 H 0.38811 0.92556 0.92773 0.0
H2781 H 0.28963 0.93348 0.90161 0.0
H2782 H 0.28443 0.90598 0.89274 0.0
H2783 H 0.30063 0.92418 0.87632 0.0
C2784 C 0.0139 0.32235 0.89864 0.0
C2785 C 0.01026 0.32708 0.87659 0.0
C2786 C 0.03442 0.3255 0.90815 0.0
C2787 C 0.05186 0.33319 0.8952 0.0
C2788 C 0.04817 0.33852 0.87305 0.0
C2789 C 0.02733 0.3356 0.86405 0.0
C2790 C 0.03757 0.32005 0.93193 0.0
C2791 C 0.06643 0.34655 0.85868 0.0
C2792 C 0.10211 0.35503 0.92405 0.0
C2793 C 0.11581 0.33675 0.92398 0.0
C2794 C 0.0813 0.35419 0.91459 0.0
C2795 C 0.07413 0.33467 0.90466 0.0
C2796 C 0.088 0.31623 0.90434 0.0
C2797 C 0.10863 0.31746 0.91412 0.0
C2798 C 0.06688 0.37409 0.9155 0.0
C2799 C 0.081 0.29515 0.89378 0.0
H2800 H 1.00069 0.31598 0.90847 0.0
H2801 H 0.02462 0.33916 0.84697 0.0
H2802 H 0.04898 0.30614 0.93355 0.0
H2803 H 0.04492 0.33408 0.94063 0.0
H2804 H 0.02202 0.3157 0.94009 0.0
H2805 H 0.06068 0.35095 0.8421 0.0
H2806 H 0.07434 0.361 0.8661 0.0
H2807 H 0.07906 0.3337 0.85719 0.0
H2808 H 0.10756 0.36998 0.9317 0.0
H2809 H 0.11919 0.30331 0.91396 0.0
H2810 H 0.05174 0.37026 0.92458 0.0
H2811 H 0.06201 0.37899 0.89881 0.0
H2812 H 0.07503 0.38813 0.9235 0.0
H2813 H 0.06644 0.2886 0.90223 0.0
H2814 H 0.09402 0.2826 0.89418 0.0
H2815 H 0.07634 0.29811 0.87657 0.0
C2816 C 0.67992 0.10928 0.91375 0.0
C2817 C 0.66238 0.11447 0.92736 0.0
C2818 C 0.68121 0.08888 0.90353 0.0
C2819 C 0.6648 0.07314 0.90741 0.0
C2820 C 0.6471 0.07826 0.92127 0.0
C2821 C 0.64599 0.09898 0.93092 0.0
C2822 C 0.70018 0.08414 0.88861 0.0
C2823 C 0.62953 0.06177 0.92615 0.0
C2824 C 0.66045 0.02635 0.86701 0.0
C2825 C 0.67307 0.01027 0.87723 0.0
C2826 C 0.65721 0.04677 0.87685 0.0
C2827 C 0.66661 0.0511 0.89747 0.0
C2828 C 0.67863 0.03464 0.90822 0.0
C2829 C 0.68179 0.01449 0.89794 0.0
C2830 C 0.64438 0.06397 0.86484 0.0
C2831 C 0.68864 0.0385 0.93036 0.0
H2832 H 0.69254 0.12129 0.91086 0.0
H2833 H 0.63245 0.10292 0.94154 0.0
H2834 H 0.70989 0.0704 0.8952 0.0
H2835 H 0.69414 0.07913 0.87234 0.0
H2836 H 0.71108 0.09844 0.8866 0.0
H2837 H 0.61674 0.0684 0.93709 0.0
H2838 H 0.62173 0.05628 0.9108 0.0
H2839 H 0.63681 0.04719 0.93396 0.0
H2840 H 0.65369 0.02326 0.851 0.0
H2841 H 0.69137 0.0021 0.90609 0.0
H2842 H 0.65515 0.07795 0.86093 0.0
H2843 H 0.63104 0.07025 0.87527 0.0
H2844 H 0.63724 0.0577 0.84944 0.0
H2845 H 0.70127 0.05136 0.92919 0.0
H2846 H 0.69626 0.02357 0.93715 0.0
H2847 H 0.67608 0.04436 0.94195 0.0
C2848 C 0.97638 0.6624 0.86863 0.0
C2849 C 0.99355 0.67271 0.87961 0.0
C2850 C 0.95615 0.6592 0.87883 0.0
C2851 C 0.95318 0.66615 0.90063 0.0
C2852 C 0.97079 0.67562 0.9121 0.0
C2853 C 0.9907 0.67894 0.9014 0.0
C2854 C 0.93769 0.64925 0.86599 0.0
C2855 C 0.96841 0.68287 0.93548 0.0
C2856 C 0.8963 0.6815 0.91936 0.0
C2857 C 0.88981 0.66274 0.93062 0.0
C2858 C 0.91681 0.68271 0.90938 0.0
C2859 C 0.93131 0.66484 0.91098 0.0
C2860 C 0.92495 0.64594 0.92255 0.0
C2861 C 0.90418 0.64506 0.93212 0.0
C2862 C 0.92291 0.70308 0.89701 0.0
C2863 C 0.9401 0.62672 0.92488 0.0
H2864 H 0.97844 0.65761 0.85176 0.0
H2865 H 0.00399 0.68669 0.91007 0.0
H2866 H 0.93063 0.63527 0.87497 0.0
H2867 H 0.92454 0.66146 0.86385 0.0
H2868 H 0.94298 0.64356 0.84965 0.0
H2869 H 0.98415 0.68818 0.94265 0.0
H2870 H 0.95675 0.69664 0.93642 0.0
H2871 H 0.9617 0.66944 0.94555 0.0
H2872 H 0.88522 0.69518 0.91809 0.0
H2873 H 0.89926 0.63055 0.94088 0.0
H2874 H 0.92701 0.6989 0.87992 0.0
H2875 H 0.9376 0.71059 0.90438 0.0
H2876 H 0.9096 0.71533 0.89693 0.0
H2877 H 0.94444 0.62027 0.90858 0.0
H2878 H 0.93278 0.61334 0.93462 0.0
H2879 H 0.95546 0.63193 0.93284 0.0
C2880 C 0.66307 0.96951 0.13643 0.0
C2881 C 0.67237 0.98677 0.12474 0.0
C2882 C 0.66063 0.94881 0.12689 0.0
C2883 C 0.66729 0.94545 0.10505 0.0
C2884 C 0.67597 0.96305 0.09296 0.0
C2885 C 0.67855 0.98341 0.10299 0.0
C2886 C 0.65151 0.93038 0.14036 0.0
C2887 C 0.6829 0.96029 0.06952 0.0
C2888 C 0.683 0.889 0.08498 0.0
C2889 C 0.66422 0.88262 0.07369 0.0
C2890 C 0.684 0.90916 0.09574 0.0
C2891 C 0.66588 0.92344 0.09492 0.0
C2892 C 0.64684 0.91704 0.08358 0.0
C2893 C 0.64619 0.89665 0.07322 0.0
C2894 C 0.70452 0.91529 0.10782 0.0
C2895 C 0.62733 0.93192 0.08202 0.0
H2896 H 0.65836 0.97197 0.15327 0.0
H2897 H 0.68553 0.99674 0.09376 0.0
H2898 H 0.63726 0.92303 0.13203 0.0
H2899 H 0.66396 0.9174 0.14213 0.0
H2900 H 0.64643 0.9358 0.15686 0.0
H2901 H 0.68823 0.97588 0.06205 0.0
H2902 H 0.69654 0.94848 0.06852 0.0
H2903 H 0.66926 0.95357 0.05975 0.0
H2904 H 0.69694 0.87817 0.08548 0.0
H2905 H 0.63164 0.89183 0.06447 0.0
H2906 H 0.7006 0.91961 0.12492 0.0
H2907 H 0.712 0.92986 0.10019 0.0
H2908 H 0.71672 0.90193 0.10787 0.0
H2909 H 0.62166 0.9365 0.09855 0.0
H2910 H 0.61357 0.9243 0.07309 0.0
H2911 H 0.63195 0.94719 0.07354 0.0
C2912 C 0.02637 0.66166 0.1351 0.0
C2913 C 0.00897 0.67172 0.12426 0.0
C2914 C 0.04676 0.65934 0.12498 0.0
C2915 C 0.04968 0.66692 0.1034 0.0
C2916 C 0.03191 0.67624 0.09206 0.0
C2917 C 0.01183 0.67869 0.10268 0.0
C2918 C 0.06539 0.64951 0.13767 0.0
C2919 C 0.03424 0.68415 0.06889 0.0
C2920 C 0.10638 0.68331 0.08484 0.0
C2921 C 0.11304 0.66485 0.0732 0.0
C2922 C 0.08588 0.68409 0.09491 0.0
C2923 C 0.07157 0.6661 0.09301 0.0
C2924 C 0.07811 0.6475 0.08105 0.0
C2925 C 0.09885 0.64704 0.07141 0.0
C2926 C 0.07959 0.70413 0.10771 0.0
C2927 C 0.06318 0.62815 0.07837 0.0
H2928 H 0.02432 0.65634 0.15181 0.0
H2929 H 0.99838 0.68628 0.09412 0.0
H2930 H 0.07263 0.63574 0.12849 0.0
H2931 H 0.07838 0.66187 0.13994 0.0
H2932 H 0.06022 0.64353 0.15395 0.0
H2933 H 0.01847 0.68954 0.06185 0.0
H2934 H 0.04581 0.69802 0.06832 0.0
H2935 H 0.04105 0.67104 0.05848 0.0
H2936 H 0.11733 0.69708 0.08633 0.0
H2937 H 0.1039 0.63276 0.06234 0.0
H2938 H 0.07558 0.69956 0.12472 0.0
H2939 H 0.0648 0.71162 0.10053 0.0
H2940 H 0.09277 0.71653 0.108 0.0
H2941 H 0.05894 0.62134 0.09455 0.0
H2942 H 0.07063 0.61505 0.06836 0.0
H2943 H 0.04774 0.63333 0.07054 0.0
C2944 C 0.98561 0.3214 0.10174 0.0
C2945 C 0.98946 0.32789 0.12331 0.0
C2946 C 0.96501 0.32382 0.09216 0.0
C2947 C 0.94771 0.33264 0.10456 0.0
C2948 C 0.95155 0.33959 0.12622 0.0
C2949 C 0.97245 0.33731 0.1353 0.0
C2950 C 0.9617 0.3166 0.06888 0.0
C2951 C 0.93343 0.34886 0.14001 0.0
C2952 C 0.8981 0.35367 0.07407 0.0
C2953 C 0.88395 0.33577 0.07526 0.0
C2954 C 0.91884 0.35295 0.08366 0.0
C2955 C 0.92548 0.33398 0.09494 0.0
C2956 C 0.91116 0.31595 0.09641 0.0
C2957 C 0.89061 0.31701 0.08641 0.0
C2958 C 0.93377 0.37237 0.08144 0.0
C2959 C 0.91757 0.2955 0.10847 0.0
H2960 H 0.99873 0.31431 0.0923 0.0
H2961 H 0.97529 0.34225 0.15201 0.0
H2962 H 0.94986 0.30297 0.06832 0.0
H2963 H 0.95479 0.33012 0.0591 0.0
H2964 H 0.97711 0.31113 0.06112 0.0
H2965 H 0.93921 0.35407 0.15634 0.0
H2966 H 0.92594 0.36306 0.13172 0.0
H2967 H 0.92046 0.33646 0.14215 0.0
H2968 H 0.89305 0.3682 0.06541 0.0
H2969 H 0.8797 0.30317 0.08745 0.0
H2970 H 0.94886 0.36753 0.07276 0.0
H2971 H 0.93868 0.37832 0.09778 0.0
H2972 H 0.92603 0.386 0.07241 0.0
H2973 H 0.93199 0.288 0.10058 0.0
H2974 H 0.90423 0.28329 0.10887 0.0
H2975 H 0.92224 0.29955 0.12545 0.0
C2976 C 0.63639 0.84394 0.53031 0.0
C2977 C 0.62489 0.83443 0.51301 0.0
C2978 C 0.62673 0.8464 0.55092 0.0
C2979 C 0.60494 0.83954 0.55418 0.0
C2980 C 0.59296 0.83086 0.5365 0.0
C2981 C 0.60312 0.82824 0.5162 0.0
C2982 C 0.6401 0.85554 0.56941 0.0
C2983 C 0.56956 0.82376 0.53916 0.0
C2984 C 0.58606 0.82259 0.61066 0.0
C2985 C 0.5748 0.84117 0.61764 0.0
C2986 C 0.5963 0.82204 0.59022 0.0
C2987 C 0.59496 0.84038 0.57628 0.0
C2988 C 0.58359 0.85919 0.58326 0.0
C2989 C 0.57377 0.85941 0.60393 0.0
C2990 C 0.60847 0.80175 0.58348 0.0
C2991 C 0.5815 0.87894 0.56876 0.0
H2992 H 0.65325 0.84865 0.52799 0.0
H2993 H 0.59406 0.82108 0.50285 0.0
H2994 H 0.63148 0.86941 0.57713 0.0
H2995 H 0.64233 0.84288 0.58211 0.0
H2996 H 0.65641 0.86117 0.56397 0.0
H2997 H 0.56203 0.81888 0.52345 0.0
H2998 H 0.5687 0.80975 0.55053 0.0
H2999 H 0.55976 0.83713 0.54636 0.0
H3000 H 0.58697 0.80849 0.62123 0.0
H3001 H 0.56501 0.8738 0.60921 0.0
H3002 H 0.6255 0.80593 0.57913 0.0
H3003 H 0.60077 0.79457 0.5688 0.0
H3004 H 0.60874 0.78924 0.59654 0.0
H3005 H 0.59788 0.885 0.56414 0.0
H3006 H 0.57238 0.89238 0.57672 0.0
H3007 H 0.57297 0.87443 0.55348 0.0
C3008 C 0.14071 0.57741 0.60715 0.0
C3009 C 0.15956 0.57707 0.62007 0.0
C3010 C 0.14075 0.58724 0.5865 0.0
C3011 C 0.16004 0.59715 0.57869 0.0
C3012 C 0.17898 0.59726 0.59189 0.0
C3013 C 0.17854 0.58711 0.61237 0.0
C3014 C 0.12032 0.58654 0.57282 0.0
C3015 C 0.19983 0.6078 0.5842 0.0
C3016 C 0.17082 0.6023 0.51813 0.0
C3017 C 0.16658 0.62444 0.51438 0.0
C3018 C 0.16793 0.59305 0.5388 0.0
C3019 C 0.16088 0.60633 0.55627 0.0
C3020 C 0.15578 0.62851 0.55244 0.0
C3021 C 0.15853 0.63728 0.53146 0.0
C3022 C 0.17316 0.56923 0.54209 0.0
C3023 C 0.14835 0.64319 0.5707 0.0
H3024 H 0.12599 0.56964 0.613 0.0
H3025 H 0.19312 0.58697 0.62232 0.0
H3026 H 0.11567 0.60323 0.5677 0.0
H3027 H 0.12339 0.57699 0.55779 0.0
H3028 H 0.1064 0.57908 0.58165 0.0
H3029 H 0.21272 0.60759 0.5969 0.0
H3030 H 0.20601 0.59915 0.5696 0.0
H3031 H 0.19672 0.62494 0.57939 0.0
H3032 H 0.17683 0.59222 0.50493 0.0
H3033 H 0.15534 0.65442 0.52869 0.0
H3034 H 0.15929 0.56082 0.55004 0.0
H3035 H 0.18744 0.56759 0.55304 0.0
H3036 H 0.17687 0.56081 0.52651 0.0
H3037 H 0.13428 0.63585 0.57933 0.0
H3038 H 0.14361 0.65962 0.56478 0.0
H3039 H 0.16167 0.64504 0.58277 0.0
C3040 C 0.36702 0.158 0.52906 0.0
C3041 C 0.37851 0.16769 0.51186 0.0
C3042 C 0.3766 0.15562 0.54971 0.0
C3043 C 0.39827 0.16279 0.5531 0.0
C3044 C 0.41027 0.17161 0.53551 0.0
C3045 C 0.40019 0.1741 0.51516 0.0
C3046 C 0.36324 0.14628 0.56811 0.0
C3047 C 0.43354 0.17904 0.53836 0.0
C3048 C 0.41602 0.17996 0.60983 0.0
C3049 C 0.42742 0.16153 0.61696 0.0
C3050 C 0.40619 0.18044 0.5892 0.0
C3051 C 0.40806 0.16214 0.57526 0.0
C3052 C 0.41964 0.14351 0.58235 0.0
C3053 C 0.42908 0.14339 0.60317 0.0
C3054 C 0.39383 0.20055 0.58229 0.0
C3055 C 0.42223 0.12381 0.56786 0.0
H3056 H 0.35023 0.15311 0.52665 0.0
H3057 H 0.40924 0.1814 0.50188 0.0
H3058 H 0.37206 0.1326 0.57594 0.0
H3059 H 0.36067 0.15894 0.58075 0.0
H3060 H 0.34709 0.14034 0.56253 0.0
H3061 H 0.44112 0.18399 0.52269 0.0
H3062 H 0.4341 0.19311 0.54969 0.0
H3063 H 0.44348 0.16585 0.54568 0.0
H3064 H 0.41463 0.19399 0.62046 0.0
H3065 H 0.43795 0.12911 0.60858 0.0
H3066 H 0.37687 0.19614 0.57786 0.0
H3067 H 0.40151 0.20774 0.56761 0.0
H3068 H 0.39333 0.21313 0.59529 0.0
H3069 H 0.406 0.1174 0.56317 0.0
H3070 H 0.4316 0.11057 0.57587 0.0
H3071 H 0.43072 0.12849 0.55262 0.0
C3072 C 0.82487 0.39834 0.51167 0.0
C3073 C 0.83073 0.37644 0.50881 0.0
C3074 C 0.8274 0.40867 0.5319 0.0
C3075 C 0.83561 0.39669 0.5498 0.0
C3076 C 0.84207 0.37474 0.54688 0.0
C3077 C 0.83974 0.36492 0.52634 0.0
C3078 C 0.82076 0.43224 0.53423 0.0
C3079 C 0.85067 0.36137 0.56564 0.0
C3080 C 0.85603 0.42715 0.59969 0.0
C3081 C 0.83778 0.42634 0.61339 0.0
C3082 C 0.85555 0.41767 0.57889 0.0
C3083 C 0.83647 0.40686 0.57178 0.0
C3084 C 0.81803 0.40591 0.58561 0.0
C3085 C 0.81886 0.41582 0.60619 0.0
C3086 C 0.87539 0.41934 0.56446 0.0
C3087 C 0.79745 0.39434 0.5787 0.0
H3088 H 0.81809 0.40739 0.49811 0.0
H3089 H 0.84418 0.34796 0.52426 0.0
H3090 H 0.80663 0.43351 0.54542 0.0
H3091 H 0.83424 0.44184 0.54149 0.0
H3092 H 0.81622 0.43969 0.51838 0.0
H3093 H 0.85583 0.34481 0.56049 0.0
H3094 H 0.86475 0.36969 0.57332 0.0
H3095 H 0.83786 0.35974 0.57829 0.0
H3096 H 0.87067 0.43537 0.60515 0.0
H3097 H 0.80474 0.4151 0.61677 0.0
H3098 H 0.87106 0.4276 0.54899 0.0
H3099 H 0.88135 0.40282 0.56022 0.0
H3100 H 0.88886 0.4285 0.57234 0.0
H3101 H 0.79074 0.40207 0.56382 0.0
H3102 H 0.78475 0.39464 0.59157 0.0
H3103 H 0.80114 0.37713 0.57462 0.0
C3104 C 0.57203 0.1458 0.39834 0.0
C3105 C 0.57262 0.16376 0.38425 0.0
C3106 C 0.58201 0.14665 0.4189 0.0
C3107 C 0.59311 0.16581 0.42536 0.0
C3108 C 0.594 0.18388 0.41105 0.0
C3109 C 0.58358 0.1827 0.39073 0.0
C3110 C 0.58038 0.1272 0.43385 0.0
C3111 C 0.60588 0.20451 0.41724 0.0
C3112 C 0.60102 0.17905 0.48518 0.0
C3113 C 0.62282 0.17308 0.48856 0.0
C3114 C 0.59098 0.17612 0.46489 0.0
C3115 C 0.60313 0.16733 0.44739 0.0
C3116 C 0.62501 0.16084 0.45078 0.0
C3117 C 0.63455 0.1636 0.47142 0.0
C3118 C 0.56749 0.18286 0.46205 0.0
C3119 C 0.63855 0.15164 0.43244 0.0
H3120 H 0.56351 0.13115 0.39341 0.0
H3121 H 0.58417 0.19658 0.37984 0.0
H3122 H 0.59689 0.12153 0.43849 0.0
H3123 H 0.57187 0.1319 0.44909 0.0
H3124 H 0.57145 0.11342 0.42626 0.0
H3125 H 0.60589 0.21671 0.40388 0.0
H3126 H 0.59813 0.21192 0.43177 0.0
H3127 H 0.623 0.20071 0.42162 0.0
H3128 H 0.59178 0.18616 0.49844 0.0
H3129 H 0.65143 0.15906 0.47391 0.0
H3130 H 0.55785 0.16916 0.45528 0.0
H3131 H 0.56642 0.19652 0.45028 0.0
H3132 H 0.55993 0.18811 0.47763 0.0
H3133 H 0.63026 0.13735 0.42512 0.0
H3134 H 0.65503 0.1466 0.43794 0.0
H3135 H 0.64035 0.16404 0.41943 0.0
C3136 C 0.85828 0.57375 0.39658 0.0
C3137 C 0.83977 0.57333 0.38319 0.0
C3138 C 0.85782 0.58401 0.41702 0.0
C3139 C 0.83846 0.59429 0.42414 0.0
C3140 C 0.81983 0.59423 0.41051 0.0
C3141 C 0.82067 0.58363 0.39026 0.0
C3142 C 0.87792 0.58347 0.43118 0.0
C3143 C 0.79891 0.60514 0.41744 0.0
C3144 C 0.82687 0.6014 0.48441 0.0
C3145 C 0.8316 0.62353 0.48765 0.0
C3146 C 0.82975 0.59155 0.46401 0.0
C3147 C 0.83725 0.60419 0.44626 0.0
C3148 C 0.84265 0.6264 0.44954 0.0
C3149 C 0.83993 0.63577 0.47027 0.0
C3150 C 0.82421 0.56772 0.46134 0.0
C3151 C 0.85051 0.64044 0.43096 0.0
H3152 H 0.87309 0.56578 0.39121 0.0
H3153 H 0.80635 0.58344 0.37994 0.0
H3154 H 0.88277 0.60026 0.43575 0.0
H3155 H 0.87435 0.57458 0.4465 0.0
H3156 H 0.8919 0.57543 0.42297 0.0
H3157 H 0.78626 0.6046 0.40451 0.0
H3158 H 0.79238 0.59701 0.4322 0.0
H3159 H 0.80206 0.6224 0.42176 0.0
H3160 H 0.82064 0.59177 0.49783 0.0
H3161 H 0.84351 0.6529 0.47265 0.0
H3162 H 0.83814 0.55886 0.454 0.0
H3163 H 0.81018 0.56595 0.45009 0.0
H3164 H 0.81998 0.55985 0.47706 0.0
H3165 H 0.86479 0.6328 0.42296 0.0
H3166 H 0.8551 0.65707 0.43641 0.0
H3167 H 0.83749 0.64184 0.4185 0.0
C3168 C 0.40136 0.82894 0.48938 0.0
C3169 C 0.37915 0.83368 0.49192 0.0
C3170 C 0.41183 0.83188 0.46931 0.0
C3171 C 0.39973 0.83945 0.45123 0.0
C3172 C 0.37748 0.84498 0.45384 0.0
C3173 C 0.36747 0.84218 0.47423 0.0
C3174 C 0.43567 0.82617 0.4673 0.0
C3175 C 0.36401 0.85296 0.43488 0.0
C3176 C 0.43065 0.85989 0.40165 0.0
C3177 C 0.43067 0.84136 0.38828 0.0
C3178 C 0.42056 0.85957 0.42217 0.0
C3179 C 0.41009 0.84034 0.42935 0.0
C3180 C 0.40996 0.82163 0.41585 0.0
C3181 C 0.42037 0.82234 0.39552 0.0
C3182 C 0.42127 0.87973 0.43622 0.0
C3183 C 0.39886 0.80084 0.42289 0.0
H3184 H 0.41054 0.8226 0.50307 0.0
H3185 H 0.35029 0.84579 0.47607 0.0
H3186 H 0.43761 0.81193 0.45634 0.0
H3187 H 0.4448 0.83991 0.45994 0.0
H3188 H 0.44314 0.82216 0.48329 0.0
H3189 H 0.34733 0.85785 0.43989 0.0
H3190 H 0.37206 0.86708 0.42698 0.0
H3191 H 0.3627 0.83989 0.42246 0.0
H3192 H 0.43864 0.87463 0.39613 0.0
H3193 H 0.42027 0.808 0.38522 0.0
H3194 H 0.42958 0.87604 0.45184 0.0
H3195 H 0.40448 0.88507 0.44024 0.0
H3196 H 0.42992 0.89343 0.42817 0.0
H3197 H 0.40658 0.79456 0.43797 0.0
H3198 H 0.39967 0.78796 0.41021 0.0
H3199 H 0.3815 0.8041 0.4267 0.0
C3200 C 0.14441 0.42736 0.39669 0.0
C3201 C 0.16296 0.42772 0.38337 0.0
C3202 C 0.14485 0.41732 0.41723 0.0
C3203 C 0.16426 0.40726 0.42452 0.0
C3204 C 0.18296 0.40732 0.411 0.0
C3205 C 0.18211 0.41765 0.39063 0.0
C3206 C 0.12468 0.41783 0.43128 0.0
C3207 C 0.20393 0.39666 0.41816 0.0
C3208 C 0.17555 0.40084 0.48486 0.0
C3209 C 0.17112 0.37867 0.48824 0.0
C3210 C 0.17268 0.41047 0.46438 0.0
C3211 C 0.16544 0.39758 0.44671 0.0
C3212 C 0.16028 0.37534 0.45012 0.0
C3213 C 0.16304 0.36617 0.47093 0.0
C3214 C 0.17801 0.43433 0.46152 0.0
C3215 C 0.15263 0.36107 0.43162 0.0
H3216 H 0.12956 0.43514 0.39116 0.0
H3217 H 0.19646 0.41781 0.38035 0.0
H3218 H 0.11993 0.40103 0.43593 0.0
H3219 H 0.12811 0.42685 0.44656 0.0
H3220 H 0.11069 0.42571 0.42294 0.0
H3221 H 0.21667 0.39724 0.40532 0.0
H3222 H 0.21027 0.40493 0.43292 0.0
H3223 H 0.20093 0.37939 0.42254 0.0
H3224 H 0.18156 0.41068 0.49824 0.0
H3225 H 0.15966 0.34902 0.47341 0.0
H3226 H 0.16403 0.443 0.45404 0.0
H3227 H 0.19206 0.43614 0.45031 0.0
H3228 H 0.1821 0.44239 0.47719 0.0
H3229 H 0.13833 0.36851 0.42348 0.0
H3230 H 0.14816 0.34444 0.43719 0.0
H3231 H 0.16572 0.35967 0.41924 0.0
C3232 C 0.60378 0.57394 0.85509 0.0
C3233 C 0.61785 0.57485 0.83713 0.0
C3234 C 0.58309 0.58366 0.85433 0.0
C3235 C 0.57649 0.59484 0.83527 0.0
C3236 C 0.59074 0.59597 0.81717 0.0
C3237 C 0.61118 0.5858 0.81826 0.0
C3238 C 0.56821 0.58179 0.87381 0.0
C3239 C 0.5844 0.60794 0.79664 0.0
C3240 C 0.5166 0.60347 0.82265 0.0
C3241 C 0.51351 0.62521 0.82898 0.0
C3242 C 0.53683 0.59319 0.82525 0.0
C3243 C 0.55455 0.60505 0.83402 0.0
C3244 C 0.55146 0.62689 0.84081 0.0
C3245 C 0.5309 0.63665 0.83839 0.0
C3246 C 0.53935 0.56975 0.81823 0.0
C3247 C 0.57003 0.64013 0.84999 0.0
H3248 H 0.60884 0.56539 0.86969 0.0
H3249 H 0.62205 0.58662 0.80437 0.0
H3250 H 0.56381 0.59824 0.87983 0.0
H3251 H 0.55286 0.57355 0.86903 0.0
H3252 H 0.57578 0.57251 0.88737 0.0
H3253 H 0.5976 0.60787 0.78428 0.0
H3254 H 0.5697 0.60035 0.78938 0.0
H3255 H 0.58021 0.62508 0.80054 0.0
H3256 H 0.50316 0.59446 0.81559 0.0
H3257 H 0.52865 0.65349 0.84322 0.0
H3258 H 0.54614 0.55989 0.83177 0.0
H3259 H 0.55101 0.56871 0.80448 0.0
H3260 H 0.52365 0.56241 0.81302 0.0
H3261 H 0.57729 0.63168 0.8642 0.0
H3262 H 0.56479 0.65667 0.85514 0.0
H3263 H 0.58302 0.64182 0.83755 0.0
C3264 C 0.41838 0.61146 0.82226 0.0
C3265 C 0.42849 0.61869 0.8414 0.0
C3266 C 0.40786 0.59118 0.82145 0.0
C3267 C 0.40757 0.57774 0.84021 0.0
C3268 C 0.41757 0.58505 0.85965 0.0
C3269 C 0.42788 0.60547 0.86002 0.0
C3270 C 0.39733 0.58398 0.80042 0.0
C3271 C 0.41775 0.57113 0.87991 0.0
C3272 C 0.36631 0.53145 0.84086 0.0
C3273 C 0.37885 0.51414 0.83283 0.0
C3274 C 0.37554 0.55221 0.84386 0.0
C3275 C 0.39785 0.55556 0.83902 0.0
C3276 C 0.41078 0.53786 0.83193 0.0
C3277 C 0.4011 0.51743 0.8288 0.0
C3278 C 0.36122 0.57074 0.85133 0.0
C3279 C 0.43471 0.54064 0.82693 0.0
H3280 H 0.41872 0.62164 0.80784 0.0
H3281 H 0.43565 0.61098 0.87489 0.0
H3282 H 0.40562 0.56918 0.79419 0.0
H3283 H 0.38003 0.57964 0.80331 0.0
H3284 H 0.39804 0.59678 0.78765 0.0
H3285 H 0.42543 0.57956 0.89397 0.0
H3286 H 0.40089 0.56651 0.88444 0.0
H3287 H 0.42682 0.55583 0.87672 0.0
H3288 H 0.34909 0.52903 0.8439 0.0
H3289 H 0.41094 0.50404 0.82282 0.0
H3290 H 0.35983 0.58301 0.83813 0.0
H3291 H 0.36861 0.57903 0.86558 0.0
H3292 H 0.3446 0.56518 0.8558 0.0
H3293 H 0.43673 0.55178 0.81285 0.0
H3294 H 0.44278 0.52493 0.82302 0.0
H3295 H 0.44321 0.54816 0.84099 0.0
C3296 C 0.40086 0.42952 0.85574 0.0
C3297 C 0.38715 0.42901 0.83748 0.0
C3298 C 0.42144 0.41958 0.85528 0.0
C3299 C 0.42832 0.40863 0.8362 0.0
C3300 C 0.41445 0.40792 0.81778 0.0
C3301 C 0.39409 0.41827 0.81859 0.0
C3302 C 0.43592 0.42099 0.87511 0.0
C3303 C 0.42113 0.39626 0.79719 0.0
C3304 C 0.4883 0.40021 0.8242 0.0
C3305 C 0.49124 0.37825 0.82982 0.0
C3306 C 0.4681 0.41049 0.82693 0.0
C3307 C 0.45028 0.39844 0.83517 0.0
C3308 C 0.45326 0.37644 0.84145 0.0
C3309 C 0.47379 0.36664 0.83887 0.0
C3310 C 0.4657 0.4341 0.82044 0.0
C3311 C 0.43457 0.36302 0.85012 0.0
H3312 H 0.39558 0.43788 0.87037 0.0
H3313 H 0.3835 0.41775 0.80447 0.0
H3314 H 0.44022 0.4044 0.88083 0.0
H3315 H 0.45137 0.42934 0.87085 0.0
H3316 H 0.42808 0.42996 0.88873 0.0
H3317 H 0.40815 0.39655 0.78459 0.0
H3318 H 0.43598 0.40394 0.79033 0.0
H3319 H 0.42521 0.37904 0.80088 0.0
H3320 H 0.5018 0.40936 0.81742 0.0
H3321 H 0.47594 0.34965 0.84316 0.0
H3322 H 0.45859 0.44363 0.83404 0.0
H3323 H 0.45437 0.43545 0.80643 0.0
H3324 H 0.4815 0.44158 0.81578 0.0
H3325 H 0.42694 0.37131 0.86423 0.0
H3326 H 0.4398 0.34647 0.85524 0.0
H3327 H 0.42187 0.36136 0.83736 0.0
C3328 C 0.58619 0.39217 0.82035 0.0
C3329 C 0.57591 0.38469 0.83929 0.0
C3330 C 0.59645 0.41259 0.81984 0.0
C3331 C 0.59623 0.42594 0.83867 0.0
C3332 C 0.58595 0.41842 0.85787 0.0
C3333 C 0.57598 0.39784 0.85797 0.0
C3334 C 0.60734 0.42 0.79908 0.0
C3335 C 0.58516 0.43226 0.87818 0.0
C3336 C 0.63727 0.47236 0.84066 0.0
C3337 C 0.62487 0.48969 0.83245 0.0
C3338 C 0.62805 0.45156 0.84329 0.0
C3339 C 0.60587 0.44816 0.83786 0.0
C3340 C 0.59305 0.46588 0.83061 0.0
C3341 C 0.60273 0.48636 0.82788 0.0
C3342 C 0.64225 0.43303 0.85098 0.0
C3343 C 0.56926 0.46304 0.82501 0.0
H3344 H 0.58625 0.38203 0.8059 0.0
H3345 H 0.56804 0.39215 0.87267 0.0
H3346 H 0.59912 0.43482 0.79281 0.0
H3347 H 0.62457 0.42439 0.80235 0.0
H3348 H 0.60694 0.4073 0.7862 0.0
H3349 H 0.57712 0.42376 0.89198 0.0
H3350 H 0.60188 0.43691 0.8832 0.0
H3351 H 0.57614 0.44756 0.8748 0.0
H3352 H 0.65441 0.47481 0.84412 0.0
H3353 H 0.59299 0.49976 0.82174 0.0
H3354 H 0.64398 0.42084 0.83775 0.0
H3355 H 0.63457 0.42464 0.86501 0.0
H3356 H 0.65875 0.43861 0.85587 0.0
H3357 H 0.56762 0.45205 0.81077 0.0
H3358 H 0.56121 0.47876 0.82109 0.0
H3359 H 0.56047 0.45534 0.83879 0.0
C3360 C 0.51304 0.40377 0.17515 0.0
C3361 C 0.50966 0.38173 0.17014 0.0
C3362 C 0.53334 0.41365 0.17186 0.0
C3363 C 0.55081 0.40114 0.16356 0.0
C3364 C 0.54732 0.37909 0.15766 0.0
C3365 C 0.5267 0.36967 0.16089 0.0
C3366 C 0.5363 0.43729 0.17803 0.0
C3367 C 0.5656 0.36522 0.14886 0.0
C3368 C 0.60067 0.43153 0.14299 0.0
C3369 C 0.61434 0.43086 0.16128 0.0
C3370 C 0.58002 0.42171 0.14336 0.0
C3371 C 0.57299 0.41082 0.16242 0.0
C3372 C 0.58683 0.40991 0.18085 0.0
C3373 C 0.6073 0.42004 0.18009 0.0
C3374 C 0.56561 0.42324 0.12349 0.0
C3375 C 0.57997 0.39836 0.20145 0.0
H3376 H 0.49986 0.41328 0.18205 0.0
H3377 H 0.52421 0.35262 0.15704 0.0
H3378 H 0.54767 0.43855 0.19202 0.0
H3379 H 0.5436 0.44649 0.16431 0.0
H3380 H 0.52068 0.44518 0.18262 0.0
H3381 H 0.55987 0.34889 0.14358 0.0
H3382 H 0.5735 0.37341 0.13483 0.0
H3383 H 0.57822 0.36305 0.16161 0.0
H3384 H 0.60604 0.4399 0.1284 0.0
H3385 H 0.61784 0.41939 0.19424 0.0
H3386 H 0.55039 0.43206 0.12764 0.0
H3387 H 0.56086 0.4067 0.11798 0.0
H3388 H 0.5737 0.43182 0.10978 0.0
H3389 H 0.56531 0.40635 0.20835 0.0
H3390 H 0.59298 0.39838 0.21402 0.0
H3391 H 0.57553 0.38123 0.19776 0.0
C3392 C 0.60426 0.52049 0.17931 0.0
C3393 C 0.62561 0.51606 0.17244 0.0
C3394 C 0.59504 0.54121 0.17665 0.0
C3395 C 0.60754 0.55807 0.16714 0.0
C3396 C 0.62897 0.55365 0.1598 0.0
C3397 C 0.6377 0.53262 0.16238 0.0
C3398 C 0.572 0.54513 0.18435 0.0
C3399 C 0.64285 0.57127 0.14976 0.0
C3400 C 0.57683 0.60747 0.14588 0.0
C3401 C 0.57835 0.62186 0.16355 0.0
C3402 C 0.58651 0.58676 0.14667 0.0
C3403 C 0.59826 0.58043 0.16547 0.0
C3404 C 0.60024 0.5951 0.18318 0.0
C3405 C 0.5901 0.61558 0.18207 0.0
C3406 C 0.58371 0.57147 0.12762 0.0
C3407 C 0.61284 0.58905 0.20341 0.0
H3408 H 0.59472 0.50772 0.18689 0.0
H3409 H 0.65423 0.52935 0.15713 0.0
H3410 H 0.572 0.55734 0.19766 0.0
H3411 H 0.56201 0.55187 0.17088 0.0
H3412 H 0.56411 0.53002 0.1904 0.0
H3413 H 0.65894 0.56506 0.1443 0.0
H3414 H 0.63435 0.57859 0.13561 0.0
H3415 H 0.64555 0.58449 0.1618 0.0
H3416 H 0.56769 0.61223 0.13154 0.0
H3417 H 0.59142 0.62669 0.19572 0.0
H3418 H 0.57471 0.55672 0.13291 0.0
H3419 H 0.59984 0.56601 0.1216 0.0
H3420 H 0.57469 0.57912 0.11393 0.0
H3421 H 0.60489 0.57505 0.2116 0.0
H3422 H 0.61392 0.60275 0.21518 0.0
H3423 H 0.62958 0.58389 0.19899 0.0
C3424 C 0.48902 0.60492 0.1807 0.0
C3425 C 0.49268 0.62632 0.17355 0.0
C3426 C 0.4686 0.59496 0.17821 0.0
C3427 C 0.45128 0.60679 0.16864 0.0
C3428 C 0.45498 0.62822 0.16094 0.0
C3429 C 0.47569 0.63767 0.16332 0.0
C3430 C 0.46543 0.57193 0.18625 0.0
C3431 C 0.43686 0.64144 0.15085 0.0
C3432 C 0.40158 0.57611 0.14799 0.0
C3433 C 0.38714 0.5783 0.16554 0.0
C3434 C 0.42256 0.5852 0.1488 0.0
C3435 C 0.42911 0.59702 0.16747 0.0
C3436 C 0.41453 0.59937 0.1852 0.0
C3437 C 0.39377 0.58982 0.18409 0.0
C3438 C 0.43776 0.58203 0.12973 0.0
C3439 C 0.42082 0.61205 0.20531 0.0
H3440 H 0.50212 0.59596 0.18845 0.0
H3441 H 0.47835 0.65425 0.15786 0.0
H3442 H 0.45359 0.5718 0.19988 0.0
H3443 H 0.45857 0.56161 0.17309 0.0
H3444 H 0.48089 0.56447 0.19199 0.0
H3445 H 0.44258 0.65757 0.14499 0.0
H3446 H 0.4296 0.63247 0.13695 0.0
H3447 H 0.42374 0.64403 0.163 0.0
H3448 H 0.39657 0.56711 0.13366 0.0
H3449 H 0.38264 0.59161 0.19766 0.0
H3450 H 0.45285 0.57374 0.13521 0.0
H3451 H 0.44262 0.59806 0.12298 0.0
H3452 H 0.43025 0.57222 0.11651 0.0
H3453 H 0.43525 0.60447 0.2131 0.0
H3454 H 0.40743 0.61277 0.21745 0.0
H3455 H 0.42542 0.62893 0.20077 0.0
C3456 C 0.42658 0.40323 0.14806 0.0
C3457 C 0.42511 0.38895 0.16582 0.0
C3458 C 0.41714 0.42404 0.14889 0.0
C3459 C 0.40567 0.43055 0.1678 0.0
C3460 C 0.40389 0.41606 0.18565 0.0
C3461 C 0.4138 0.39549 0.18452 0.0
C3462 C 0.41973 0.43918 0.12969 0.0
C3463 C 0.39159 0.42231 0.206 0.0
C3464 C 0.39875 0.4904 0.18141 0.0
C3465 C 0.3772 0.49431 0.17486 0.0
C3466 C 0.40841 0.46991 0.17858 0.0
C3467 C 0.39613 0.45277 0.16927 0.0
C3468 C 0.37452 0.45671 0.16218 0.0
C3469 C 0.36537 0.47751 0.16489 0.0
C3470 C 0.43162 0.46648 0.18598 0.0
C3471 C 0.36086 0.43877 0.15238 0.0
H3472 H 0.4354 0.39827 0.1336 0.0
H3473 H 0.41254 0.38445 0.19823 0.0
H3474 H 0.40351 0.44427 0.12357 0.0
H3475 H 0.42844 0.45416 0.13483 0.0
H3476 H 0.4289 0.43154 0.1161 0.0
H3477 H 0.39093 0.40884 0.21806 0.0
H3478 H 0.39945 0.4366 0.21378 0.0
H3479 H 0.37469 0.42712 0.20178 0.0
H3480 H 0.40808 0.50338 0.18891 0.0
H3481 H 0.34868 0.4804 0.15989 0.0
H3482 H 0.44151 0.45963 0.1725 0.0
H3483 H 0.43202 0.45454 0.19953 0.0
H3484 H 0.43937 0.48183 0.19162 0.0
H3485 H 0.3694 0.43143 0.13825 0.0
H3486 H 0.34465 0.44467 0.14693 0.0
H3487 H 0.35842 0.42565 0.16456 0.0
C3488 C 0.83037 0.5141 0.59937 0.0
C3489 C 0.83409 0.51087 0.62168 0.0
C3490 C 0.83329 0.53458 0.58977 0.0
C3491 C 0.83985 0.55239 0.60284 0.0
C3492 C 0.84453 0.54907 0.6252 0.0
C3493 C 0.84174 0.52825 0.63435 0.0
C3494 C 0.8285 0.53734 0.56579 0.0
C3495 C 0.85146 0.5677 0.63966 0.0
C3496 C 0.85941 0.60327 0.57355 0.0
C3497 C 0.84035 0.61586 0.57295 0.0
C3498 C 0.85963 0.58272 0.58356 0.0
C3499 C 0.84037 0.57465 0.59331 0.0
C3500 C 0.82117 0.58745 0.59301 0.0
C3501 C 0.82137 0.60786 0.58274 0.0
C3502 C 0.88034 0.56947 0.58336 0.0
C3503 C 0.80032 0.57945 0.60331 0.0
H3504 H 0.82469 0.50064 0.58944 0.0
H3505 H 0.84454 0.52586 0.65161 0.0
H3506 H 0.814 0.54792 0.56367 0.0
H3507 H 0.84235 0.54548 0.55752 0.0
H3508 H 0.82532 0.52154 0.55757 0.0
H3509 H 0.85618 0.56212 0.65621 0.0
H3510 H 0.8654 0.57653 0.63232 0.0
H3511 H 0.83786 0.57949 0.64123 0.0
H3512 H 0.87414 0.60939 0.566 0.0
H3513 H 0.80663 0.61757 0.5824 0.0
H3514 H 0.87769 0.55414 0.57416 0.0
H3515 H 0.88494 0.56485 0.60021 0.0
H3516 H 0.89414 0.57841 0.57583 0.0
H3517 H 0.79467 0.5645 0.59488 0.0
H3518 H 0.78711 0.59179 0.60259 0.0
H3519 H 0.80323 0.57509 0.62061 0.0
C3520 C 0.82472 0.48252 0.3993 0.0
C3521 C 0.83133 0.48662 0.37781 0.0
C3522 C 0.82757 0.46193 0.4088 0.0
C3523 C 0.83693 0.4449 0.39641 0.0
C3524 C 0.84414 0.44905 0.3749 0.0
C3525 C 0.84142 0.46993 0.36591 0.0
C3526 C 0.82008 0.45828 0.43194 0.0
C3527 C 0.85399 0.43125 0.3611 0.0
C3528 C 0.85795 0.39485 0.42625 0.0
C3529 C 0.84019 0.38059 0.42449 0.0
C3530 C 0.85718 0.41581 0.41713 0.0
C3531 C 0.83832 0.42253 0.4057 0.0
C3532 C 0.82047 0.40805 0.40358 0.0
C3533 C 0.82156 0.38731 0.41316 0.0
C3534 C 0.87638 0.4309 0.42004 0.0
C3535 C 0.80017 0.41451 0.3913 0.0
H3536 H 0.81709 0.49539 0.40867 0.0
H3537 H 0.84645 0.47294 0.34926 0.0
H3538 H 0.80645 0.44642 0.43214 0.0
H3539 H 0.83348 0.45122 0.4418 0.0
H3540 H 0.8145 0.47357 0.43985 0.0
H3541 H 0.85961 0.43734 0.34502 0.0
H3542 H 0.86801 0.42374 0.36966 0.0
H3543 H 0.84177 0.41822 0.35837 0.0
H3544 H 0.87236 0.38977 0.4351 0.0
H3545 H 0.80783 0.37631 0.4117 0.0
H3546 H 0.87121 0.44573 0.42898 0.0
H3547 H 0.88256 0.43625 0.40394 0.0
H3548 H 0.88994 0.4231 0.42914 0.0
H3549 H 0.79238 0.42869 0.39935 0.0
H3550 H 0.7881 0.40106 0.3904 0.0
H3551 H 0.80446 0.41957 0.37449 0.0
C3552 C 0.53292 0.84243 0.36636 0.0
C3553 C 0.51599 0.83343 0.37876 0.0
C3554 C 0.55376 0.84547 0.37539 0.0
C3555 C 0.55758 0.83974 0.39742 0.0
C3556 C 0.54028 0.83154 0.41023 0.0
C3557 C 0.51977 0.82832 0.40071 0.0
C3558 C 0.57186 0.85405 0.36116 0.0
C3559 C 0.54355 0.82562 0.43389 0.0
C3560 C 0.61428 0.82407 0.41662 0.0
C3561 C 0.6211 0.84312 0.42719 0.0
C3562 C 0.59388 0.82299 0.40634 0.0
C3563 C 0.57985 0.8413 0.4069 0.0
C3564 C 0.58674 0.86064 0.41741 0.0
C3565 C 0.60735 0.86135 0.42732 0.0
C3566 C 0.58721 0.80212 0.39515 0.0
C3567 C 0.57214 0.88039 0.4186 0.0
H3568 H 0.53012 0.84631 0.34937 0.0
H3569 H 0.50668 0.82159 0.41046 0.0
H3570 H 0.57964 0.86841 0.3689 0.0
H3571 H 0.58463 0.8414 0.35931 0.0
H3572 H 0.566 0.85878 0.34471 0.0
H3573 H 0.52808 0.82084 0.44197 0.0
H3574 H 0.55518 0.81185 0.43518 0.0
H3575 H 0.5507 0.83956 0.44288 0.0
H3576 H 0.62489 0.80997 0.41638 0.0
H3577 H 0.61253 0.87611 0.43551 0.0
H3578 H 0.58243 0.80551 0.37805 0.0
H3579 H 0.57281 0.79506 0.40346 0.0
H3580 H 0.60046 0.7898 0.39513 0.0
H3581 H 0.56707 0.8854 0.40201 0.0
H3582 H 0.58022 0.89442 0.42669 0.0
H3583 H 0.55712 0.87631 0.42778 0.0
C3584 C 0.14394 0.60297 0.42815 0.0
C3585 C 0.16232 0.61653 0.42823 0.0
C3586 C 0.14445 0.5825 0.41795 0.0
C3587 C 0.16372 0.57557 0.40736 0.0
C3588 C 0.18225 0.58933 0.4072 0.0
C3589 C 0.18136 0.60958 0.41777 0.0
C3590 C 0.1245 0.56815 0.41877 0.0
C3591 C 0.20304 0.58261 0.39592 0.0
C3592 C 0.17578 0.51558 0.39897 0.0
C3593 C 0.17069 0.51273 0.37688 0.0
C3594 C 0.17281 0.53574 0.40927 0.0
C3595 C 0.16489 0.55363 0.3971 0.0
C3596 C 0.15913 0.55073 0.37494 0.0
C3597 C 0.16192 0.53023 0.36512 0.0
C3598 C 0.17874 0.53802 0.43304 0.0
C3599 C 0.15084 0.56949 0.36139 0.0
H3600 H 0.12918 0.60825 0.43627 0.0
H3601 H 0.19558 0.62005 0.4177 0.0
H3602 H 0.11921 0.56391 0.40203 0.0
H3603 H 0.12844 0.55267 0.42721 0.0
H3604 H 0.1107 0.57607 0.42737 0.0
H3605 H 0.21567 0.59556 0.39651 0.0
H3606 H 0.20971 0.56773 0.4037 0.0
H3607 H 0.19968 0.57859 0.37863 0.0
H3608 H 0.18234 0.50203 0.40821 0.0
H3609 H 0.15806 0.52814 0.34802 0.0
H3610 H 0.16495 0.54518 0.44226 0.0
H3611 H 0.19277 0.54927 0.43477 0.0
H3612 H 0.18313 0.52217 0.44057 0.0
H3613 H 0.13662 0.57721 0.36941 0.0
H3614 H 0.146 0.56431 0.34474 0.0
H3615 H 0.1637 0.58211 0.36 0.0
C3616 C 0.46941 0.15958 0.36447 0.0
C3617 C 0.48671 0.16757 0.37705 0.0
C3618 C 0.44855 0.15688 0.37357 0.0
C3619 C 0.44508 0.16197 0.39581 0.0
C3620 C 0.46277 0.16901 0.4088 0.0
C3621 C 0.4833 0.17186 0.39923 0.0
C3622 C 0.43005 0.14946 0.35918 0.0
C3623 C 0.45988 0.17422 0.43267 0.0
C3624 C 0.38907 0.17894 0.41605 0.0
C3625 C 0.38171 0.15979 0.42604 0.0
C3626 C 0.40943 0.17969 0.40563 0.0
C3627 C 0.42283 0.16089 0.40542 0.0
C3628 C 0.41539 0.14147 0.41534 0.0
C3629 C 0.39488 0.14112 0.42543 0.0
C3630 C 0.41672 0.20068 0.39511 0.0
C3631 C 0.4293 0.12119 0.41571 0.0
H3632 H 0.47191 0.15637 0.34729 0.0
H3633 H 0.49667 0.17784 0.4091 0.0
H3634 H 0.42168 0.13525 0.36656 0.0
H3635 H 0.41785 0.1627 0.3577 0.0
H3636 H 0.43567 0.14491 0.34259 0.0
H3637 H 0.47557 0.17807 0.44081 0.0
H3638 H 0.44884 0.1884 0.43452 0.0
H3639 H 0.45221 0.16027 0.44122 0.0
H3640 H 0.37893 0.19339 0.4164 0.0
H3641 H 0.3893 0.12626 0.43316 0.0
H3642 H 0.4212 0.19773 0.37785 0.0
H3643 H 0.43146 0.20692 0.40349 0.0
H3644 H 0.40393 0.21346 0.39568 0.0
H3645 H 0.43404 0.11657 0.3989 0.0
H3646 H 0.42082 0.10717 0.42338 0.0
H3647 H 0.44454 0.12442 0.42486 0.0
C3648 C 0.15766 0.47419 0.63377 0.0
C3649 C 0.1662 0.49175 0.62194 0.0
C3650 C 0.15522 0.45359 0.62409 0.0
C3651 C 0.16116 0.45064 0.602 0.0
C3652 C 0.16863 0.46862 0.58967 0.0
C3653 C 0.1712 0.48891 0.59983 0.0
C3654 C 0.14731 0.43477 0.63779 0.0
C3655 C 0.17477 0.46623 0.56597 0.0
C3656 C 0.18027 0.39495 0.58316 0.0
C3657 C 0.16171 0.38692 0.5726 0.0
C3658 C 0.18017 0.41554 0.59306 0.0
C3659 C 0.1611 0.4285 0.59216 0.0
C3660 C 0.14231 0.42049 0.58147 0.0
C3661 C 0.14281 0.39972 0.5719 0.0
C3662 C 0.2005 0.42345 0.60443 0.0
C3663 C 0.12179 0.43395 0.57996 0.0
H3664 H 0.15384 0.47624 0.65088 0.0
H3665 H 0.17758 0.50249 0.59052 0.0
H3666 H 0.13369 0.42626 0.62953 0.0
H3667 H 0.16068 0.42278 0.63985 0.0
H3668 H 0.14178 0.44008 0.65417 0.0
H3669 H 0.17838 0.48217 0.5582 0.0
H3670 H 0.18939 0.45571 0.56453 0.0
H3671 H 0.16143 0.4582 0.5568 0.0
H3672 H 0.19489 0.38508 0.58381 0.0
H3673 H 0.12842 0.39359 0.5637 0.0
H3674 H 0.19674 0.42762 0.62161 0.0
H3675 H 0.20653 0.4385 0.59645 0.0
H3676 H 0.21373 0.41112 0.60424 0.0
H3677 H 0.11601 0.4383 0.59652 0.0
H3678 H 0.1085 0.42526 0.57128 0.0
H3679 H 0.12522 0.44941 0.57127 0.0
C3680 C 0.60827 0.18291 0.58496 0.0
C3681 C 0.61445 0.16412 0.57356 0.0
C3682 C 0.58802 0.18414 0.59546 0.0
C3683 C 0.57349 0.16627 0.59426 0.0
C3684 C 0.5796 0.14729 0.58269 0.0
C3685 C 0.60009 0.14639 0.57258 0.0
C3686 C 0.58215 0.2046 0.60779 0.0
C3687 C 0.56441 0.12804 0.58078 0.0
C3688 C 0.52806 0.1636 0.63626 0.0
C3689 C 0.51079 0.17335 0.62493 0.0
C3690 C 0.54852 0.16089 0.62639 0.0
C3691 C 0.55164 0.16778 0.60459 0.0
C3692 C 0.53405 0.17691 0.59285 0.0
C3693 C 0.5139 0.17972 0.6032 0.0
C3694 C 0.56698 0.15126 0.63947 0.0
C3695 C 0.53661 0.18412 0.56947 0.0
H3696 H 0.61937 0.19662 0.58584 0.0
H3697 H 0.60478 0.13186 0.56373 0.0
H3698 H 0.56752 0.21222 0.60042 0.0
H3699 H 0.57804 0.20053 0.6249 0.0
H3700 H 0.59558 0.21673 0.60779 0.0
H3701 H 0.57171 0.11443 0.57137 0.0
H3702 H 0.56 0.12199 0.59722 0.0
H3703 H 0.54909 0.13311 0.57266 0.0
H3704 H 0.52578 0.15871 0.65307 0.0
H3705 H 0.50055 0.18703 0.59425 0.0
H3706 H 0.58017 0.16348 0.64128 0.0
H3707 H 0.574 0.13704 0.63081 0.0
H3708 H 0.5617 0.14598 0.65595 0.0
H3709 H 0.54854 0.19766 0.56853 0.0
H3710 H 0.52099 0.18973 0.56225 0.0
H3711 H 0.54307 0.17055 0.55944 0.0
C3712 C 0.47205 0.84184 0.63531 0.0
C3713 C 0.48902 0.83258 0.62314 0.0
C3714 C 0.45121 0.84456 0.62625 0.0
C3715 C 0.44738 0.83822 0.6044 0.0
C3716 C 0.46471 0.82979 0.59175 0.0
C3717 C 0.48526 0.82691 0.60132 0.0
C3718 C 0.43309 0.85342 0.6403 0.0
C3719 C 0.46141 0.82324 0.56827 0.0
C3720 C 0.3904 0.82188 0.58663 0.0
C3721 C 0.38323 0.84071 0.57593 0.0
C3722 C 0.41109 0.82102 0.59633 0.0
C3723 C 0.42505 0.83935 0.59503 0.0
C3724 C 0.41787 0.85843 0.58427 0.0
C3725 C 0.39698 0.85893 0.57496 0.0
C3726 C 0.41806 0.80045 0.60785 0.0
C3727 C 0.43238 0.87818 0.58228 0.0
H3728 H 0.47482 0.84616 0.6522 0.0
H3729 H 0.49836 0.81995 0.59175 0.0
H3730 H 0.42519 0.8675 0.6322 0.0
H3731 H 0.42042 0.84073 0.64255 0.0
H3732 H 0.43898 0.85865 0.65659 0.0
H3733 H 0.4769 0.81847 0.56024 0.0
H3734 H 0.44995 0.80929 0.56739 0.0
H3735 H 0.45402 0.83686 0.55897 0.0
H3736 H 0.3798 0.80778 0.58749 0.0
H3737 H 0.39155 0.87351 0.56662 0.0
H3738 H 0.4229 0.80421 0.62485 0.0
H3739 H 0.43251 0.7934 0.5996 0.0
H3740 H 0.40497 0.78797 0.60818 0.0
H3741 H 0.4375 0.88382 0.59866 0.0
H3742 H 0.42422 0.89188 0.57373 0.0
H3743 H 0.44739 0.87384 0.5732 0.0
loop_
_geom_bond_atom_site_label_1
_geom_bond_atom_site_label_2
_geom_bond_distance
_geom_bond_site_symmetry_2
_ccdc_geom_bond_type
Co0 O1 2.216 . S
Co0 O2 2.091 . S
Co0 O4 2.004 . S
Co0 O10 2.021 . S
Co0 O12 2.137 . S
Co0 O13 2.244 . S
O1 Co0 2.216 . S
O1 C8 1.247 . S
O2 Co0 2.091 . S
O2 C8 1.261 . S
C3 O12 1.247 . S
C3 O13 1.272 . S
O4 Co0 2.004 . S
O4 C9 1.259 1_455 S
Co5 O6 2.061 1_455 S
Co5 O11 2.052 . S
Co5 O13 2.135 . S
O6 Co5 2.061 1_655 S
O6 C9 1.235 . S
C7 O10 1.238 . S
C7 O11 1.241 . S
C8 O1 1.247 . S
C8 O2 1.261 . S
C9 O4 1.259 1_655 S
C9 O6 1.235 . S
O10 Co0 2.021 . S
O10 C7 1.238 . S
O11 Co5 2.052 . S
O11 C7 1.241 . S
O12 Co0 2.137 . S
O12 C3 1.247 . S
O13 Co0 2.244 . S
O13 C3 1.272 . S
O13 Co5 2.135 . S
Co14 O15 2.216 . S
Co14 O16 2.091 . S
Co14 O18 2.004 . S
Co14 O24 2.021 . S
Co14 O26 2.137 . S
Co14 O27 2.244 . S
O15 Co14 2.216 . S
O15 C22 1.247 . S
O16 Co14 2.091 . S
O16 C22 1.261 . S
C17 O26 1.247 . S
C17 O27 1.272 . S
O18 Co14 2.004 . S
O18 C23 1.259 1_545 S
Co19 O20 2.061 1_545 S
Co19 O25 2.052 . S
Co19 O27 2.135 . S
O20 Co19 2.061 1_565 S
O20 C23 1.235 . S
C21 O24 1.238 . S
C21 O25 1.241 . S
C22 O15 1.247 . S
C22 O16 1.261 . S
C23 O18 1.259 1_565 S
C23 O20 1.235 . S
O24 Co14 2.021 . S
O24 C21 1.238 . S
O25 Co19 2.052 . S
O25 C21 1.241 . S
O26 Co14 2.137 . S
O26 C17 1.247 . S
O27 Co14 2.244 . S
O27 C17 1.272 . S
O27 Co19 2.135 . S
Co28 O29 2.216 . S
Co28 O30 2.091 . S
Co28 O32 2.004 . S
Co28 O38 2.021 . S
Co28 O40 2.137 . S
Co28 O41 2.244 . S
O29 Co28 2.216 . S
O29 C36 1.247 . S
O30 Co28 2.091 . S
O30 C36 1.261 . S
C31 O40 1.247 . S
C31 O41 1.272 . S
O32 Co28 2.004 . S
O32 C37 1.259 1_655 S
Co33 O34 2.061 1_655 S
Co33 O39 2.052 . S
Co33 O41 2.135 . S
O34 Co33 2.061 1_455 S
O34 C37 1.235 . S
C35 O38 1.238 . S
C35 O39 1.241 . S
C36 O29 1.247 . S
C36 O30 1.261 . S
C37 O32 1.259 1_455 S
C37 O34 1.235 . S
O38 Co28 2.021 . S
O38 C35 1.238 . S
O39 Co33 2.052 . S
O39 C35 1.241 . S
O40 Co28 2.137 . S
O40 C31 1.247 . S
O41 Co28 2.244 . S
O41 C31 1.272 . S
O41 Co33 2.135 . S
Co42 O43 2.216 . S
Co42 O44 2.091 . S
Co42 O46 2.004 . S
Co42 O52 2.021 . S
Co42 O54 2.137 . S
Co42 O55 2.244 . S
O43 Co42 2.216 . S
O43 C50 1.247 . S
O44 Co42 2.091 . S
O44 C50 1.261 . S
C45 O54 1.247 . S
C45 O55 1.272 . S
O46 Co42 2.004 . S
O46 C51 1.259 1_565 S
Co47 O48 2.061 1_565 S
Co47 O53 2.052 . S
Co47 O55 2.135 . S
O48 Co47 2.061 1_545 S
O48 C51 1.235 . S
C49 O52 1.238 . S
C49 O53 1.241 . S
C50 O43 1.247 . S
C50 O44 1.261 . S
C51 O46 1.259 1_545 S
C51 O48 1.235 . S
O52 Co42 2.021 . S
O52 C49 1.238 . S
O53 Co47 2.052 . S
O53 C49 1.241 . S
O54 Co42 2.137 . S
O54 C45 1.247 . S
O55 Co42 2.244 . S
O55 C45 1.272 . S
O55 Co47 2.135 . S
Co56 O57 2.216 . S
Co56 O58 2.091 . S
Co56 O60 2.004 . S
Co56 O66 2.021 . S
Co56 O68 2.137 . S
Co56 O69 2.244 . S
O57 Co56 2.216 . S
O57 C64 1.247 . S
O58 Co56 2.091 . S
O58 C64 1.261 . S
C59 O68 1.247 . S
C59 O69 1.272 . S
O60 Co56 2.004 . S
O60 C65 1.259 1_455 S
Co61 O62 2.061 1_455 S
Co61 O67 2.052 . S
Co61 O69 2.135 . S
O62 Co61 2.061 1_655 S
O62 C65 1.235 . S
C63 O66 1.238 . S
C63 O67 1.241 . S
C64 O57 1.247 . S
C64 O58 1.261 . S
C65 O60 1.259 1_655 S
C65 O62 1.235 . S
O66 Co56 2.021 . S
O66 C63 1.238 . S
O67 Co61 2.052 . S
O67 C63 1.241 . S
O68 Co56 2.137 . S
O68 C59 1.247 . S
O69 Co56 2.244 . S
O69 C59 1.272 . S
O69 Co61 2.135 . S
Co70 O71 2.216 . S
Co70 O72 2.091 . S
Co70 O74 2.004 . S
Co70 O80 2.021 . S
Co70 O82 2.137 . S
Co70 O83 2.244 . S
O71 Co70 2.216 . S
O71 C78 1.247 . S
O72 Co70 2.091 . S
O72 C78 1.261 . S
C73 O82 1.247 . S
C73 O83 1.272 . S
O74 Co70 2.004 . S
O74 C79 1.259 1_545 S
Co75 O76 2.061 1_545 S
Co75 O81 2.052 . S
Co75 O83 2.135 . S
O76 Co75 2.061 1_565 S
O76 C79 1.235 . S
C77 O80 1.238 . S
C77 O81 1.241 . S
C78 O71 1.247 . S
C78 O72 1.261 . S
C79 O74 1.259 1_565 S
C79 O76 1.235 . S
O80 Co70 2.021 . S
O80 C77 1.238 . S
O81 Co75 2.052 . S
O81 C77 1.241 . S
O82 Co70 2.137 . S
O82 C73 1.247 . S
O83 Co70 2.244 . S
O83 C73 1.272 . S
O83 Co75 2.135 . S
Co84 O85 2.216 . S
Co84 O86 2.091 . S
Co84 O88 2.004 . S
Co84 O94 2.021 . S
Co84 O96 2.137 . S
Co84 O97 2.244 . S
O85 Co84 2.216 . S
O85 C92 1.247 . S
O86 Co84 2.091 . S
O86 C92 1.261 . S
C87 O96 1.247 . S
C87 O97 1.272 . S
O88 Co84 2.004 . S
O88 C93 1.259 1_655 S
Co89 O90 2.061 1_655 S
Co89 O95 2.052 . S
Co89 O97 2.135 . S
O90 Co89 2.061 1_455 S
O90 C93 1.235 . S
C91 O94 1.238 . S
C91 O95 1.241 . S
C92 O85 1.247 . S
C92 O86 1.261 . S
C93 O88 1.259 1_455 S
C93 O90 1.235 . S
O94 Co84 2.021 . S
O94 C91 1.238 . S
O95 Co89 2.052 . S
O95 C91 1.241 . S
O96 Co84 2.137 . S
O96 C87 1.247 . S
O97 Co84 2.244 . S
O97 C87 1.272 . S
O97 Co89 2.135 . S
Co98 O99 2.216 . S
Co98 O100 2.091 . S
Co98 O102 2.004 . S
Co98 O108 2.021 . S
Co98 O110 2.137 . S
Co98 O111 2.244 . S
O99 Co98 2.216 . S
O99 C106 1.247 . S
O100 Co98 2.091 . S
O100 C106 1.261 . S
C101 O110 1.247 . S
C101 O111 1.272 . S
O102 Co98 2.004 . S
O102 C107 1.259 1_565 S
Co103 O104 2.061 1_565 S
Co103 O109 2.052 . S
Co103 O111 2.135 . S
O104 Co103 2.061 1_545 S
O104 C107 1.235 . S
C105 O108 1.238 . S
C105 O109 1.241 . S
C106 O99 1.247 . S
C106 O100 1.261 . S
C107 O102 1.259 1_545 S
C107 O104 1.235 . S
O108 Co98 2.021 . S
O108 C105 1.238 . S
O109 Co103 2.052 . S
O109 C105 1.241 . S
O110 Co98 2.137 . S
O110 C101 1.247 . S
O111 Co98 2.244 . S
O111 C101 1.272 . S
O111 Co103 2.135 . S
Co112 O113 2.216 . S
Co112 O114 2.091 . S
Co112 O116 2.004 . S
Co112 O122 2.021 . S
Co112 O124 2.137 . S
Co112 O125 2.244 . S
O113 Co112 2.216 . S
O113 C120 1.247 . S
O114 Co112 2.091 . S
O114 C120 1.261 . S
C115 O124 1.247 . S
C115 O125 1.272 . S
O116 Co112 2.004 . S
O116 C121 1.259 1_545 S
Co117 O118 2.061 1_545 S
Co117 O123 2.052 . S
Co117 O125 2.135 . S
O118 Co117 2.061 1_565 S
O118 C121 1.235 . S
C119 O122 1.238 . S
C119 O123 1.241 . S
C120 O113 1.247 . S
C120 O114 1.261 . S
C121 O116 1.259 1_565 S
C121 O118 1.235 . S
O122 Co112 2.021 . S
O122 C119 1.238 . S
O123 Co117 2.052 . S
O123 C119 1.241 . S
O124 Co112 2.137 . S
O124 C115 1.247 . S
O125 Co112 2.244 . S
O125 C115 1.272 . S
O125 Co117 2.135 . S
Co126 O127 2.216 . S
Co126 O128 2.091 . S
Co126 O130 2.004 . S
Co126 O136 2.021 . S
Co126 O138 2.137 . S
Co126 O139 2.244 . S
O127 Co126 2.216 . S
O127 C134 1.247 . S
O128 Co126 2.091 . S
O128 C134 1.261 . S
C129 O138 1.247 . S
C129 O139 1.272 . S
O130 Co126 2.004 . S
O130 C135 1.259 1_655 S
Co131 O132 2.061 1_655 S
Co131 O137 2.052 . S
Co131 O139 2.135 . S
O132 Co131 2.061 1_455 S
O132 C135 1.235 . S
C133 O136 1.238 . S
C133 O137 1.241 . S
C134 O127 1.247 . S
C134 O128 1.261 . S
C135 O130 1.259 1_455 S
C135 O132 1.235 . S
O136 Co126 2.021 . S
O136 C133 1.238 . S
O137 Co131 2.052 . S
O137 C133 1.241 . S
O138 Co126 2.137 . S
O138 C129 1.247 . S
O139 Co126 2.244 . S
O139 C129 1.272 . S
O139 Co131 2.135 . S
Co140 O141 2.216 . S
Co140 O142 2.091 . S
Co140 O144 2.004 . S
Co140 O150 2.021 . S
Co140 O152 2.137 . S
Co140 O153 2.244 . S
O141 Co140 2.216 . S
O141 C148 1.247 . S
O142 Co140 2.091 . S
O142 C148 1.261 . S
C143 O152 1.247 . S
C143 O153 1.272 . S
O144 Co140 2.004 . S
O144 C149 1.259 1_565 S
Co145 O146 2.061 1_565 S
Co145 O151 2.052 . S
Co145 O153 2.135 . S
O146 Co145 2.061 1_545 S
O146 C149 1.235 . S
C147 O150 1.238 . S
C147 O151 1.241 . S
C148 O141 1.247 . S
C148 O142 1.261 . S
C149 O144 1.259 1_545 S
C149 O146 1.235 . S
O150 Co140 2.021 . S
O150 C147 1.238 . S
O151 Co145 2.052 . S
O151 C147 1.241 . S
O152 Co140 2.137 . S
O152 C143 1.247 . S
O153 Co140 2.244 . S
O153 C143 1.272 . S
O153 Co145 2.135 . S
Co154 O155 2.216 . S
Co154 O156 2.091 . S
Co154 O158 2.004 . S
Co154 O164 2.021 . S
Co154 O166 2.137 . S
Co154 O167 2.244 . S
O155 Co154 2.216 . S
O155 C162 1.247 . S
O156 Co154 2.091 . S
O156 C162 1.261 . S
C157 O166 1.247 . S
C157 O167 1.272 . S
O158 Co154 2.004 . S
O158 C163 1.259 1_455 S
Co159 O160 2.061 1_455 S
Co159 O165 2.052 . S
Co159 O167 2.135 . S
O160 Co159 2.061 1_655 S
O160 C163 1.235 . S
C161 O164 1.238 . S
C161 O165 1.241 . S
C162 O155 1.247 . S
C162 O156 1.261 . S
C163 O158 1.259 1_655 S
C163 O160 1.235 . S
O164 Co154 2.021 . S
O164 C161 1.238 . S
O165 Co159 2.052 . S
O165 C161 1.241 . S
O166 Co154 2.137 . S
O166 C157 1.247 . S
O167 Co154 2.244 . S
O167 C157 1.272 . S
O167 Co159 2.135 . S
Co168 O169 2.216 . S
Co168 O170 2.091 . S
Co168 O172 2.004 . S
Co168 O178 2.021 . S
Co168 O180 2.137 . S
Co168 O181 2.244 . S
O169 Co168 2.216 . S
O169 C176 1.247 . S
O170 Co168 2.091 . S
O170 C176 1.261 . S
C171 O180 1.247 . S
C171 O181 1.272 . S
O172 Co168 2.004 . S
O172 C177 1.259 1_565 S
Co173 O174 2.061 1_565 S
Co173 O179 2.052 . S
Co173 O181 2.135 . S
O174 Co173 2.061 1_545 S
O174 C177 1.235 . S
C175 O178 1.238 . S
C175 O179 1.241 . S
C176 O169 1.247 . S
C176 O170 1.261 . S
C177 O172 1.259 1_545 S
C177 O174 1.235 . S
O178 Co168 2.021 . S
O178 C175 1.238 . S
O179 Co173 2.052 . S
O179 C175 1.241 . S
O180 Co168 2.137 . S
O180 C171 1.247 . S
O181 Co168 2.244 . S
O181 C171 1.272 . S
O181 Co173 2.135 . S
Co182 O183 2.216 . S
Co182 O184 2.091 . S
Co182 O186 2.004 . S
Co182 O192 2.021 . S
Co182 O194 2.137 . S
Co182 O195 2.244 . S
O183 Co182 2.216 . S
O183 C190 1.247 . S
O184 Co182 2.091 . S
O184 C190 1.261 . S
C185 O194 1.247 . S
C185 O195 1.272 . S
O186 Co182 2.004 . S
O186 C191 1.259 1_455 S
Co187 O188 2.061 1_455 S
Co187 O193 2.052 . S
Co187 O195 2.135 . S
O188 Co187 2.061 1_655 S
O188 C191 1.235 . S
C189 O192 1.238 . S
C189 O193 1.241 . S
C190 O183 1.247 . S
C190 O184 1.261 . S
C191 O186 1.259 1_655 S
C191 O188 1.235 . S
O192 Co182 2.021 . S
O192 C189 1.238 . S
O193 Co187 2.052 . S
O193 C189 1.241 . S
O194 Co182 2.137 . S
O194 C185 1.247 . S
O195 Co182 2.244 . S
O195 C185 1.272 . S
O195 Co187 2.135 . S
Co196 O197 2.216 . S
Co196 O198 2.091 . S
Co196 O200 2.004 . S
Co196 O206 2.021 . S
Co196 O208 2.137 . S
Co196 O209 2.244 . S
O197 Co196 2.216 . S
O197 C204 1.247 . S
O198 Co196 2.091 . S
O198 C204 1.261 . S
C199 O208 1.247 . S
C199 O209 1.272 . S
O200 Co196 2.004 . S
O200 C205 1.259 1_545 S
Co201 O202 2.061 1_545 S
Co201 O207 2.052 . S
Co201 O209 2.135 . S
O202 Co201 2.061 1_565 S
O202 C205 1.235 . S
C203 O206 1.238 . S
C203 O207 1.241 . S
C204 O197 1.247 . S
C204 O198 1.261 . S
C205 O200 1.259 1_565 S
C205 O202 1.235 . S
O206 Co196 2.021 . S
O206 C203 1.238 . S
O207 Co201 2.052 . S
O207 C203 1.241 . S
O208 Co196 2.137 . S
O208 C199 1.247 . S
O209 Co196 2.244 . S
O209 C199 1.272 . S
O209 Co201 2.135 . S
Co210 O211 2.216 . S
Co210 O212 2.091 . S
Co210 O214 2.004 . S
Co210 O220 2.021 . S
Co210 O222 2.137 . S
Co210 O223 2.244 . S
O211 Co210 2.216 . S
O211 C218 1.247 . S
O212 Co210 2.091 . S
O212 C218 1.261 . S
C213 O222 1.247 . S
C213 O223 1.272 . S
O214 Co210 2.004 . S
O214 C219 1.259 1_655 S
Co215 O216 2.061 1_655 S
Co215 O221 2.052 . S
Co215 O223 2.135 . S
O216 Co215 2.061 1_455 S
O216 C219 1.235 . S
C217 O220 1.238 . S
C217 O221 1.241 . S
C218 O211 1.247 . S
C218 O212 1.261 . S
C219 O214 1.259 1_455 S
C219 O216 1.235 . S
O220 Co210 2.021 . S
O220 C217 1.238 . S
O221 Co215 2.052 . S
O221 C217 1.241 . S
O222 Co210 2.137 . S
O222 C213 1.247 . S
O223 Co210 2.244 . S
O223 C213 1.272 . S
O223 Co215 2.135 . S
Co224 O225 2.216 . S
Co224 O226 2.091 . S
Co224 O228 2.004 . S
Co224 O234 2.021 . S
Co224 O236 2.137 . S
Co224 O237 2.244 . S
O225 Co224 2.216 . S
O225 C232 1.247 . S
O226 Co224 2.091 . S
O226 C232 1.261 . S
C227 O236 1.247 . S
C227 O237 1.272 . S
O228 Co224 2.004 . S
O228 C233 1.259 1_554 S
Co229 O230 2.061 1_554 S
Co229 O235 2.052 . S
Co229 O237 2.135 . S
O230 Co229 2.061 1_556 S
O230 C233 1.235 . S
C231 O234 1.238 . S
C231 O235 1.241 . S
C232 O225 1.247 . S
C232 O226 1.261 . S
C233 O228 1.259 1_556 S
C233 O230 1.235 . S
O234 Co224 2.021 . S
O234 C231 1.238 . S
O235 Co229 2.052 . S
O235 C231 1.241 . S
O236 Co224 2.137 . S
O236 C227 1.247 . S
O237 Co224 2.244 . S
O237 C227 1.272 . S
O237 Co229 2.135 . S
Co238 O239 2.216 . S
Co238 O240 2.091 . S
Co238 O242 2.004 . S
Co238 O248 2.021 . S
Co238 O250 2.137 . S
Co238 O251 2.244 . S
O239 Co238 2.216 . S
O239 C246 1.247 . S
O240 Co238 2.091 . S
O240 C246 1.261 . S
C241 O250 1.247 . S
C241 O251 1.272 . S
O242 Co238 2.004 . S
O242 C247 1.259 1_556 S
Co243 O244 2.061 1_556 S
Co243 O249 2.052 . S
Co243 O251 2.135 . S
O244 Co243 2.061 1_554 S
O244 C247 1.235 . S
C245 O248 1.238 . S
C245 O249 1.241 . S
C246 O239 1.247 . S
C246 O240 1.261 . S
C247 O242 1.259 1_554 S
C247 O244 1.235 . S
O248 Co238 2.021 . S
O248 C245 1.238 . S
O249 Co243 2.052 . S
O249 C245 1.241 . S
O250 Co238 2.137 . S
O250 C241 1.247 . S
O251 Co238 2.244 . S
O251 C241 1.272 . S
O251 Co243 2.135 . S
Co252 O253 2.216 . S
Co252 O254 2.091 . S
Co252 O256 2.004 . S
Co252 O262 2.021 . S
Co252 O264 2.137 . S
Co252 O265 2.244 . S
O253 Co252 2.216 . S
O253 C260 1.247 . S
O254 Co252 2.091 . S
O254 C260 1.261 . S
C255 O264 1.247 . S
C255 O265 1.272 . S
O256 Co252 2.004 . S
O256 C261 1.259 1_556 S
Co257 O258 2.061 1_556 S
Co257 O263 2.052 . S
Co257 O265 2.135 . S
O258 Co257 2.061 1_554 S
O258 C261 1.235 . S
C259 O262 1.238 . S
C259 O263 1.241 . S
C260 O253 1.247 . S
C260 O254 1.261 . S
C261 O256 1.259 1_554 S
C261 O258 1.235 . S
O262 Co252 2.021 . S
O262 C259 1.238 . S
O263 Co257 2.052 . S
O263 C259 1.241 . S
O264 Co252 2.137 . S
O264 C255 1.247 . S
O265 Co252 2.244 . S
O265 C255 1.272 . S
O265 Co257 2.135 . S
Co266 O267 2.216 . S
Co266 O268 2.091 . S
Co266 O270 2.004 . S
Co266 O276 2.021 . S
Co266 O278 2.137 . S
Co266 O279 2.244 . S
O267 Co266 2.216 . S
O267 C274 1.247 . S
O268 Co266 2.091 . S
O268 C274 1.261 . S
C269 O278 1.247 . S
C269 O279 1.272 . S
O270 Co266 2.004 . S
O270 C275 1.259 1_556 S
Co271 O272 2.061 1_556 S
Co271 O277 2.052 . S
Co271 O279 2.135 . S
O272 Co271 2.061 1_554 S
O272 C275 1.235 . S
C273 O276 1.238 . S
C273 O277 1.241 . S
C274 O267 1.247 . S
C274 O268 1.261 . S
C275 O270 1.259 1_554 S
C275 O272 1.235 . S
O276 Co266 2.021 . S
O276 C273 1.238 . S
O277 Co271 2.052 . S
O277 C273 1.241 . S
O278 Co266 2.137 . S
O278 C269 1.247 . S
O279 Co266 2.244 . S
O279 C269 1.272 . S
O279 Co271 2.135 . S
Co280 O281 2.216 . S
Co280 O282 2.091 . S
Co280 O284 2.004 . S
Co280 O290 2.021 . S
Co280 O292 2.137 . S
Co280 O293 2.244 . S
O281 Co280 2.216 . S
O281 C288 1.247 . S
O282 Co280 2.091 . S
O282 C288 1.261 . S
C283 O292 1.247 . S
C283 O293 1.272 . S
O284 Co280 2.004 . S
O284 C289 1.259 1_556 S
Co285 O286 2.061 1_556 S
Co285 O291 2.052 . S
Co285 O293 2.135 . S
O286 Co285 2.061 1_554 S
O286 C289 1.235 . S
C287 O290 1.238 . S
C287 O291 1.241 . S
C288 O281 1.247 . S
C288 O282 1.261 . S
C289 O284 1.259 1_554 S
C289 O286 1.235 . S
O290 Co280 2.021 . S
O290 C287 1.238 . S
O291 Co285 2.052 . S
O291 C287 1.241 . S
O292 Co280 2.137 . S
O292 C283 1.247 . S
O293 Co280 2.244 . S
O293 C283 1.272 . S
O293 Co285 2.135 . S
Co294 O295 2.216 . S
Co294 O296 2.091 . S
Co294 O298 2.004 . S
Co294 O304 2.021 . S
Co294 O306 2.137 . S
Co294 O307 2.244 . S
O295 Co294 2.216 . S
O295 C302 1.247 . S
O296 Co294 2.091 . S
O296 C302 1.261 . S
C297 O306 1.247 . S
C297 O307 1.272 . S
O298 Co294 2.004 . S
O298 C303 1.259 1_554 S
Co299 O300 2.061 1_554 S
Co299 O305 2.052 . S
Co299 O307 2.135 . S
O300 Co299 2.061 1_556 S
O300 C303 1.235 . S
C301 O304 1.238 . S
C301 O305 1.241 . S
C302 O295 1.247 . S
C302 O296 1.261 . S
C303 O298 1.259 1_556 S
C303 O300 1.235 . S
O304 Co294 2.021 . S
O304 C301 1.238 . S
O305 Co299 2.052 . S
O305 C301 1.241 . S
O306 Co294 2.137 . S
O306 C297 1.247 . S
O307 Co294 2.244 . S
O307 C297 1.272 . S
O307 Co299 2.135 . S
Co308 O309 2.216 . S
Co308 O310 2.091 . S
Co308 O312 2.004 . S
Co308 O318 2.021 . S
Co308 O320 2.137 . S
Co308 O321 2.244 . S
O309 Co308 2.216 . S
O309 C316 1.247 . S
O310 Co308 2.091 . S
O310 C316 1.261 . S
C311 O320 1.247 . S
C311 O321 1.272 . S
O312 Co308 2.004 . S
O312 C317 1.259 1_554 S
Co313 O314 2.061 1_554 S
Co313 O319 2.052 . S
Co313 O321 2.135 . S
O314 Co313 2.061 1_556 S
O314 C317 1.235 . S
C315 O318 1.238 . S
C315 O319 1.241 . S
C316 O309 1.247 . S
C316 O310 1.261 . S
C317 O312 1.259 1_556 S
C317 O314 1.235 . S
O318 Co308 2.021 . S
O318 C315 1.238 . S
O319 Co313 2.052 . S
O319 C315 1.241 . S
O320 Co308 2.137 . S
O320 C311 1.247 . S
O321 Co308 2.244 . S
O321 C311 1.272 . S
O321 Co313 2.135 . S
Co322 O323 2.216 . S
Co322 O324 2.091 . S
Co322 O326 2.004 . S
Co322 O332 2.021 . S
Co322 O334 2.137 . S
Co322 O335 2.244 . S
O323 Co322 2.216 . S
O323 C330 1.247 . S
O324 Co322 2.091 . S
O324 C330 1.261 . S
C325 O334 1.247 . S
C325 O335 1.272 . S
O326 Co322 2.004 . S
O326 C331 1.259 1_554 S
Co327 O328 2.061 1_554 S
Co327 O333 2.052 . S
Co327 O335 2.135 . S
O328 Co327 2.061 1_556 S
O328 C331 1.235 . S
C329 O332 1.238 . S
C329 O333 1.241 . S
C330 O323 1.247 . S
C330 O324 1.261 . S
C331 O326 1.259 1_556 S
C331 O328 1.235 . S
O332 Co322 2.021 . S
O332 C329 1.238 . S
O333 Co327 2.052 . S
O333 C329 1.241 . S
O334 Co322 2.137 . S
O334 C325 1.247 . S
O335 Co322 2.244 . S
O335 C325 1.272 . S
O335 Co327 2.135 . S
Co336 O337 2.216 . S
Co336 O338 2.091 . S
Co336 O340 2.004 . S
Co336 O346 2.021 . S
Co336 O348 2.137 . S
Co336 O349 2.244 . S
O337 Co336 2.216 . S
O337 C344 1.247 . S
O338 Co336 2.091 . S
O338 C344 1.261 . S
C339 O348 1.247 . S
C339 O349 1.272 . S
O340 Co336 2.004 . S
O340 C345 1.259 . S
Co341 O342 2.061 . S
Co341 O347 2.052 . S
Co341 O349 2.135 . S
O342 Co341 2.061 . S
O342 C345 1.235 . S
C343 O346 1.238 . S
C343 O347 1.241 . S
C344 O337 1.247 . S
C344 O338 1.261 . S
C345 O340 1.259 . S
C345 O342 1.235 . S
O346 Co336 2.021 . S
O346 C343 1.238 . S
O347 Co341 2.052 . S
O347 C343 1.241 . S
O348 Co336 2.137 . S
O348 C339 1.247 . S
O349 Co336 2.244 . S
O349 C339 1.272 . S
O349 Co341 2.135 . S
Co350 O351 2.216 . S
Co350 O352 2.091 . S
Co350 O354 2.004 . S
Co350 O360 2.021 . S
Co350 O362 2.137 . S
Co350 O363 2.244 . S
O351 Co350 2.216 . S
O351 C358 1.247 . S
O352 Co350 2.091 . S
O352 C358 1.261 . S
C353 O362 1.247 . S
C353 O363 1.272 . S
O354 Co350 2.004 . S
O354 C359 1.259 . S
Co355 O356 2.061 . S
Co355 O361 2.052 . S
Co355 O363 2.135 . S
O356 Co355 2.061 . S
O356 C359 1.235 . S
C357 O360 1.238 . S
C357 O361 1.241 . S
C358 O351 1.247 . S
C358 O352 1.261 . S
C359 O354 1.259 . S
C359 O356 1.235 . S
O360 Co350 2.021 . S
O360 C357 1.238 . S
O361 Co355 2.052 . S
O361 C357 1.241 . S
O362 Co350 2.137 . S
O362 C353 1.247 . S
O363 Co350 2.244 . S
O363 C353 1.272 . S
O363 Co355 2.135 . S
Co364 O365 2.216 . S
Co364 O366 2.091 . S
Co364 O368 2.004 . S
Co364 O374 2.021 . S
Co364 O376 2.137 . S
Co364 O377 2.244 . S
O365 Co364 2.216 . S
O365 C372 1.247 . S
O366 Co364 2.091 . S
O366 C372 1.261 . S
C367 O376 1.247 . S
C367 O377 1.272 . S
O368 Co364 2.004 . S
O368 C373 1.259 . S
Co369 O370 2.061 . S
Co369 O375 2.052 . S
Co369 O377 2.135 . S
O370 Co369 2.061 . S
O370 C373 1.235 . S
C371 O374 1.238 . S
C371 O375 1.241 . S
C372 O365 1.247 . S
C372 O366 1.261 . S
C373 O368 1.259 . S
C373 O370 1.235 . S
O374 Co364 2.021 . S
O374 C371 1.238 . S
O375 Co369 2.052 . S
O375 C371 1.241 . S
O376 Co364 2.137 . S
O376 C367 1.247 . S
O377 Co364 2.244 . S
O377 C367 1.272 . S
O377 Co369 2.135 . S
Co378 O379 2.216 . S
Co378 O380 2.091 . S
Co378 O382 2.004 . S
Co378 O388 2.021 . S
Co378 O390 2.137 . S
Co378 O391 2.244 . S
O379 Co378 2.216 . S
O379 C386 1.247 . S
O380 Co378 2.091 . S
O380 C386 1.261 . S
C381 O390 1.247 . S
C381 O391 1.272 . S
O382 Co378 2.004 . S
O382 C387 1.259 . S
Co383 O384 2.061 . S
Co383 O389 2.052 . S
Co383 O391 2.135 . S
O384 Co383 2.061 . S
O384 C387 1.235 . S
C385 O388 1.238 . S
C385 O389 1.241 . S
C386 O379 1.247 . S
C386 O380 1.261 . S
C387 O382 1.259 . S
C387 O384 1.235 . S
O388 Co378 2.021 . S
O388 C385 1.238 . S
O389 Co383 2.052 . S
O389 C385 1.241 . S
O390 Co378 2.137 . S
O390 C381 1.247 . S
O391 Co378 2.244 . S
O391 C381 1.272 . S
O391 Co383 2.135 . S
Co392 O393 2.216 . S
Co392 O394 2.091 . S
Co392 O396 2.004 . S
Co392 O402 2.021 . S
Co392 O404 2.137 . S
Co392 O405 2.244 . S
O393 Co392 2.216 . S
O393 C400 1.247 . S
O394 Co392 2.091 . S
O394 C400 1.261 . S
C395 O404 1.247 . S
C395 O405 1.272 . S
O396 Co392 2.004 . S
O396 C401 1.259 . S
Co397 O398 2.061 . S
Co397 O403 2.052 . S
Co397 O405 2.135 . S
O398 Co397 2.061 . S
O398 C401 1.235 . S
C399 O402 1.238 . S
C399 O403 1.241 . S
C400 O393 1.247 . S
C400 O394 1.261 . S
C401 O396 1.259 . S
C401 O398 1.235 . S
O402 Co392 2.021 . S
O402 C399 1.238 . S
O403 Co397 2.052 . S
O403 C399 1.241 . S
O404 Co392 2.137 . S
O404 C395 1.247 . S
O405 Co392 2.244 . S
O405 C395 1.272 . S
O405 Co397 2.135 . S
Co406 O407 2.216 . S
Co406 O408 2.091 . S
Co406 O410 2.004 . S
Co406 O416 2.021 . S
Co406 O418 2.137 . S
Co406 O419 2.244 . S
O407 Co406 2.216 . S
O407 C414 1.247 . S
O408 Co406 2.091 . S
O408 C414 1.261 . S
C409 O418 1.247 . S
C409 O419 1.272 . S
O410 Co406 2.004 . S
O410 C415 1.259 . S
Co411 O412 2.061 . S
Co411 O417 2.052 . S
Co411 O419 2.135 . S
O412 Co411 2.061 . S
O412 C415 1.235 . S
C413 O416 1.238 . S
C413 O417 1.241 . S
C414 O407 1.247 . S
C414 O408 1.261 . S
C415 O410 1.259 . S
C415 O412 1.235 . S
O416 Co406 2.021 . S
O416 C413 1.238 . S
O417 Co411 2.052 . S
O417 C413 1.241 . S
O418 Co406 2.137 . S
O418 C409 1.247 . S
O419 Co406 2.244 . S
O419 C409 1.272 . S
O419 Co411 2.135 . S
Co420 O421 2.216 . S
Co420 O422 2.091 . S
Co420 O424 2.004 . S
Co420 O430 2.021 . S
Co420 O432 2.137 . S
Co420 O433 2.244 . S
O421 Co420 2.216 . S
O421 C428 1.247 . S
O422 Co420 2.091 . S
O422 C428 1.261 . S
C423 O432 1.247 . S
C423 O433 1.272 . S
O424 Co420 2.004 . S
O424 C429 1.259 . S
Co425 O426 2.061 . S
Co425 O431 2.052 . S
Co425 O433 2.135 . S
O426 Co425 2.061 . S
O426 C429 1.235 . S
C427 O430 1.238 . S
C427 O431 1.241 . S
C428 O421 1.247 . S
C428 O422 1.261 . S
C429 O424 1.259 . S
C429 O426 1.235 . S
O430 Co420 2.021 . S
O430 C427 1.238 . S
O431 Co425 2.052 . S
O431 C427 1.241 . S
O432 Co420 2.137 . S
O432 C423 1.247 . S
O433 Co420 2.244 . S
O433 C423 1.272 . S
O433 Co425 2.135 . S
Co434 O435 2.216 . S
Co434 O436 2.091 . S
Co434 O438 2.004 . S
Co434 O444 2.021 . S
Co434 O446 2.137 . S
Co434 O447 2.244 . S
O435 Co434 2.216 . S
O435 C442 1.247 . S
O436 Co434 2.091 . S
O436 C442 1.261 . S
C437 O446 1.247 . S
C437 O447 1.272 . S
O438 Co434 2.004 . S
O438 C443 1.259 . S
Co439 O440 2.061 . S
Co439 O445 2.052 . S
Co439 O447 2.135 . S
O440 Co439 2.061 . S
O440 C443 1.235 . S
C441 O444 1.238 . S
C441 O445 1.241 . S
C442 O435 1.247 . S
C442 O436 1.261 . S
C443 O438 1.259 . S
C443 O440 1.235 . S
O444 Co434 2.021 . S
O444 C441 1.238 . S
O445 Co439 2.052 . S
O445 C441 1.241 . S
O446 Co434 2.137 . S
O446 C437 1.247 . S
O447 Co434 2.244 . S
O447 C437 1.272 . S
O447 Co439 2.135 . S
Co448 O449 2.216 . S
Co448 O450 2.091 . S
Co448 O452 2.004 . S
Co448 O458 2.021 . S
Co448 O460 2.137 . S
Co448 O461 2.244 . S
O449 Co448 2.216 . S
O449 C456 1.247 . S
O450 Co448 2.091 . S
O450 C456 1.261 . S
C451 O460 1.247 . S
C451 O461 1.272 . S
O452 Co448 2.004 . S
O452 C457 1.259 . S
Co453 O454 2.061 . S
Co453 O459 2.052 . S
Co453 O461 2.135 . S
O454 Co453 2.061 . S
O454 C457 1.235 . S
C455 O458 1.238 . S
C455 O459 1.241 . S
C456 O449 1.247 . S
C456 O450 1.261 . S
C457 O452 1.259 . S
C457 O454 1.235 . S
O458 Co448 2.021 . S
O458 C455 1.238 . S
O459 Co453 2.052 . S
O459 C455 1.241 . S
O460 Co448 2.137 . S
O460 C451 1.247 . S
O461 Co448 2.244 . S
O461 C451 1.272 . S
O461 Co453 2.135 . S
Co462 O463 2.216 . S
Co462 O464 2.091 . S
Co462 O466 2.004 . S
Co462 O472 2.021 . S
Co462 O474 2.137 . S
Co462 O475 2.244 . S
O463 Co462 2.216 . S
O463 C470 1.247 . S
O464 Co462 2.091 . S
O464 C470 1.261 . S
C465 O474 1.247 . S
C465 O475 1.272 . S
O466 Co462 2.004 . S
O466 C471 1.259 . S
Co467 O468 2.061 . S
Co467 O473 2.052 . S
Co467 O475 2.135 . S
O468 Co467 2.061 . S
O468 C471 1.235 . S
C469 O472 1.238 . S
C469 O473 1.241 . S
C470 O463 1.247 . S
C470 O464 1.261 . S
C471 O466 1.259 . S
C471 O468 1.235 . S
O472 Co462 2.021 . S
O472 C469 1.238 . S
O473 Co467 2.052 . S
O473 C469 1.241 . S
O474 Co462 2.137 . S
O474 C465 1.247 . S
O475 Co462 2.244 . S
O475 C465 1.272 . S
O475 Co467 2.135 . S
Co476 O477 2.216 . S
Co476 O478 2.091 . S
Co476 O480 2.004 . S
Co476 O486 2.021 . S
Co476 O488 2.137 . S
Co476 O489 2.244 . S
O477 Co476 2.216 . S
O477 C484 1.247 . S
O478 Co476 2.091 . S
O478 C484 1.261 . S
C479 O488 1.247 . S
C479 O489 1.272 . S
O480 Co476 2.004 . S
O480 C485 1.259 . S
Co481 O482 2.061 . S
Co481 O487 2.052 . S
Co481 O489 2.135 . S
O482 Co481 2.061 . S
O482 C485 1.235 . S
C483 O486 1.238 . S
C483 O487 1.241 . S
C484 O477 1.247 . S
C484 O478 1.261 . S
C485 O480 1.259 . S
C485 O482 1.235 . S
O486 Co476 2.021 . S
O486 C483 1.238 . S
O487 Co481 2.052 . S
O487 C483 1.241 . S
O488 Co476 2.137 . S
O488 C479 1.247 . S
O489 Co476 2.244 . S
O489 C479 1.272 . S
O489 Co481 2.135 . S
Co490 O491 2.216 . S
Co490 O492 2.091 . S
Co490 O494 2.004 . S
Co490 O500 2.021 . S
Co490 O502 2.137 . S
Co490 O503 2.244 . S
O491 Co490 2.216 . S
O491 C498 1.247 . S
O492 Co490 2.091 . S
O492 C498 1.261 . S
C493 O502 1.247 . S
C493 O503 1.272 . S
O494 Co490 2.004 . S
O494 C499 1.259 . S
Co495 O496 2.061 . S
Co495 O501 2.052 . S
Co495 O503 2.135 . S
O496 Co495 2.061 . S
O496 C499 1.235 . S
C497 O500 1.238 . S
C497 O501 1.241 . S
C498 O491 1.247 . S
C498 O492 1.261 . S
C499 O494 1.259 . S
C499 O496 1.235 . S
O500 Co490 2.021 . S
O500 C497 1.238 . S
O501 Co495 2.052 . S
O501 C497 1.241 . S
O502 Co490 2.137 . S
O502 C493 1.247 . S
O503 Co490 2.244 . S
O503 C493 1.272 . S
O503 Co495 2.135 . S
Co504 O505 2.216 . S
Co504 O506 2.091 . S
Co504 O508 2.004 . S
Co504 O514 2.021 . S
Co504 O516 2.137 . S
Co504 O517 2.244 . S
O505 Co504 2.216 . S
O505 C512 1.247 . S
O506 Co504 2.091 . S
O506 C512 1.261 . S
C507 O516 1.247 . S
C507 O517 1.272 . S
O508 Co504 2.004 . S
O508 C513 1.259 . S
Co509 O510 2.061 . S
Co509 O515 2.052 . S
Co509 O517 2.135 . S
O510 Co509 2.061 . S
O510 C513 1.235 . S
C511 O514 1.238 . S
C511 O515 1.241 . S
C512 O505 1.247 . S
C512 O506 1.261 . S
C513 O508 1.259 . S
C513 O510 1.235 . S
O514 Co504 2.021 . S
O514 C511 1.238 . S
O515 Co509 2.052 . S
O515 C511 1.241 . S
O516 Co504 2.137 . S
O516 C507 1.247 . S
O517 Co504 2.244 . S
O517 C507 1.272 . S
O517 Co509 2.135 . S
Co518 O519 2.216 . S
Co518 O520 2.091 . S
Co518 O522 2.004 . S
Co518 O528 2.021 . S
Co518 O530 2.137 . S
Co518 O531 2.244 . S
O519 Co518 2.216 . S
O519 C526 1.247 . S
O520 Co518 2.091 . S
O520 C526 1.261 . S
C521 O530 1.247 . S
C521 O531 1.272 . S
O522 Co518 2.004 . S
O522 C527 1.259 . S
Co523 O524 2.061 . S
Co523 O529 2.052 . S
Co523 O531 2.135 . S
O524 Co523 2.061 . S
O524 C527 1.235 . S
C525 O528 1.238 . S
C525 O529 1.241 . S
C526 O519 1.247 . S
C526 O520 1.261 . S
C527 O522 1.259 . S
C527 O524 1.235 . S
O528 Co518 2.021 . S
O528 C525 1.238 . S
O529 Co523 2.052 . S
O529 C525 1.241 . S
O530 Co518 2.137 . S
O530 C521 1.247 . S
O531 Co518 2.244 . S
O531 C521 1.272 . S
O531 Co523 2.135 . S
Co532 O533 2.216 . S
Co532 O534 2.091 . S
Co532 O536 2.004 . S
Co532 O542 2.021 . S
Co532 O544 2.137 . S
Co532 O545 2.244 . S
O533 Co532 2.216 . S
O533 C540 1.247 . S
O534 Co532 2.091 . S
O534 C540 1.261 . S
C535 O544 1.247 . S
C535 O545 1.272 . S
O536 Co532 2.004 . S
O536 C541 1.259 . S
Co537 O538 2.061 . S
Co537 O543 2.052 . S
Co537 O545 2.135 . S
O538 Co537 2.061 . S
O538 C541 1.235 . S
C539 O542 1.238 . S
C539 O543 1.241 . S
C540 O533 1.247 . S
C540 O534 1.261 . S
C541 O536 1.259 . S
C541 O538 1.235 . S
O542 Co532 2.021 . S
O542 C539 1.238 . S
O543 Co537 2.052 . S
O543 C539 1.241 . S
O544 Co532 2.137 . S
O544 C535 1.247 . S
O545 Co532 2.244 . S
O545 C535 1.272 . S
O545 Co537 2.135 . S
Co546 O547 2.216 . S
Co546 O548 2.091 . S
Co546 O550 2.004 . S
Co546 O556 2.021 . S
Co546 O558 2.137 . S
Co546 O559 2.244 . S
O547 Co546 2.216 . S
O547 C554 1.247 . S
O548 Co546 2.091 . S
O548 C554 1.261 . S
C549 O558 1.247 . S
C549 O559 1.272 . S
O550 Co546 2.004 . S
O550 C555 1.259 . S
Co551 O552 2.061 . S
Co551 O557 2.052 . S
Co551 O559 2.135 . S
O552 Co551 2.061 . S
O552 C555 1.235 . S
C553 O556 1.238 . S
C553 O557 1.241 . S
C554 O547 1.247 . S
C554 O548 1.261 . S
C555 O550 1.259 . S
C555 O552 1.235 . S
O556 Co546 2.021 . S
O556 C553 1.238 . S
O557 Co551 2.052 . S
O557 C553 1.241 . S
O558 Co546 2.137 . S
O558 C549 1.247 . S
O559 Co546 2.244 . S
O559 C549 1.272 . S
O559 Co551 2.135 . S
Co560 O561 2.216 . S
Co560 O562 2.091 . S
Co560 O564 2.004 . S
Co560 O570 2.021 . S
Co560 O572 2.137 . S
Co560 O573 2.244 . S
O561 Co560 2.216 . S
O561 C568 1.247 . S
O562 Co560 2.091 . S
O562 C568 1.261 . S
C563 O572 1.247 . S
C563 O573 1.272 . S
O564 Co560 2.004 . S
O564 C569 1.259 . S
Co565 O566 2.061 . S
Co565 O571 2.052 . S
Co565 O573 2.135 . S
O566 Co565 2.061 . S
O566 C569 1.235 . S
C567 O570 1.238 . S
C567 O571 1.241 . S
C568 O561 1.247 . S
C568 O562 1.261 . S
C569 O564 1.259 . S
C569 O566 1.235 . S
O570 Co560 2.021 . S
O570 C567 1.238 . S
O571 Co565 2.052 . S
O571 C567 1.241 . S
O572 Co560 2.137 . S
O572 C563 1.247 . S
O573 Co560 2.244 . S
O573 C563 1.272 . S
O573 Co565 2.135 . S
Co574 O575 2.216 . S
Co574 O576 2.091 . S
Co574 O578 2.004 . S
Co574 O584 2.021 . S
Co574 O586 2.137 . S
Co574 O587 2.244 . S
O575 Co574 2.216 . S
O575 C582 1.247 . S
O576 Co574 2.091 . S
O576 C582 1.261 . S
C577 O586 1.247 . S
C577 O587 1.272 . S
O578 Co574 2.004 . S
O578 C583 1.259 . S
Co579 O580 2.061 . S
Co579 O585 2.052 . S
Co579 O587 2.135 . S
O580 Co579 2.061 . S
O580 C583 1.235 . S
C581 O584 1.238 . S
C581 O585 1.241 . S
C582 O575 1.247 . S
C582 O576 1.261 . S
C583 O578 1.259 . S
C583 O580 1.235 . S
O584 Co574 2.021 . S
O584 C581 1.238 . S
O585 Co579 2.052 . S
O585 C581 1.241 . S
O586 Co574 2.137 . S
O586 C577 1.247 . S
O587 Co574 2.244 . S
O587 C577 1.272 . S
O587 Co579 2.135 . S
Co588 O589 2.216 . S
Co588 O590 2.091 . S
Co588 O592 2.004 . S
Co588 O598 2.021 . S
Co588 O600 2.137 . S
Co588 O601 2.244 . S
O589 Co588 2.216 . S
O589 C596 1.247 . S
O590 Co588 2.091 . S
O590 C596 1.261 . S
C591 O600 1.247 . S
C591 O601 1.272 . S
O592 Co588 2.004 . S
O592 C597 1.259 . S
Co593 O594 2.061 . S
Co593 O599 2.052 . S
Co593 O601 2.135 . S
O594 Co593 2.061 . S
O594 C597 1.235 . S
C595 O598 1.238 . S
C595 O599 1.241 . S
C596 O589 1.247 . S
C596 O590 1.261 . S
C597 O592 1.259 . S
C597 O594 1.235 . S
O598 Co588 2.021 . S
O598 C595 1.238 . S
O599 Co593 2.052 . S
O599 C595 1.241 . S
O600 Co588 2.137 . S
O600 C591 1.247 . S
O601 Co588 2.244 . S
O601 C591 1.272 . S
O601 Co593 2.135 . S
Co602 O603 2.216 . S
Co602 O604 2.091 . S
Co602 O606 2.004 . S
Co602 O612 2.021 . S
Co602 O614 2.137 . S
Co602 O615 2.244 . S
O603 Co602 2.216 . S
O603 C610 1.247 . S
O604 Co602 2.091 . S
O604 C610 1.261 . S
C605 O614 1.247 . S
C605 O615 1.272 . S
O606 Co602 2.004 . S
O606 C611 1.259 . S
Co607 O608 2.061 . S
Co607 O613 2.052 . S
Co607 O615 2.135 . S
O608 Co607 2.061 . S
O608 C611 1.235 . S
C609 O612 1.238 . S
C609 O613 1.241 . S
C610 O603 1.247 . S
C610 O604 1.261 . S
C611 O606 1.259 . S
C611 O608 1.235 . S
O612 Co602 2.021 . S
O612 C609 1.238 . S
O613 Co607 2.052 . S
O613 C609 1.241 . S
O614 Co602 2.137 . S
O614 C605 1.247 . S
O615 Co602 2.244 . S
O615 C605 1.272 . S
O615 Co607 2.135 . S
Co616 O617 2.216 . S
Co616 O618 2.091 . S
Co616 O620 2.004 . S
Co616 O626 2.021 . S
Co616 O628 2.137 . S
Co616 O629 2.244 . S
O617 Co616 2.216 . S
O617 C624 1.247 . S
O618 Co616 2.091 . S
O618 C624 1.261 . S
C619 O628 1.247 . S
C619 O629 1.272 . S
O620 Co616 2.004 . S
O620 C625 1.259 . S
Co621 O622 2.061 . S
Co621 O627 2.052 . S
Co621 O629 2.135 . S
O622 Co621 2.061 . S
O622 C625 1.235 . S
C623 O626 1.238 . S
C623 O627 1.241 . S
C624 O617 1.247 . S
C624 O618 1.261 . S
C625 O620 1.259 . S
C625 O622 1.235 . S
O626 Co616 2.021 . S
O626 C623 1.238 . S
O627 Co621 2.052 . S
O627 C623 1.241 . S
O628 Co616 2.137 . S
O628 C619 1.247 . S
O629 Co616 2.244 . S
O629 C619 1.272 . S
O629 Co621 2.135 . S
Co630 O631 2.216 . S
Co630 O632 2.091 . S
Co630 O634 2.004 . S
Co630 O640 2.021 . S
Co630 O642 2.137 . S
Co630 O643 2.244 . S
O631 Co630 2.216 . S
O631 C638 1.247 . S
O632 Co630 2.091 . S
O632 C638 1.261 . S
C633 O642 1.247 . S
C633 O643 1.272 . S
O634 Co630 2.004 . S
O634 C639 1.259 . S
Co635 O636 2.061 . S
Co635 O641 2.052 . S
Co635 O643 2.135 . S
O636 Co635 2.061 . S
O636 C639 1.235 . S
C637 O640 1.238 . S
C637 O641 1.241 . S
C638 O631 1.247 . S
C638 O632 1.261 . S
C639 O634 1.259 . S
C639 O636 1.235 . S
O640 Co630 2.021 . S
O640 C637 1.238 . S
O641 Co635 2.052 . S
O641 C637 1.241 . S
O642 Co630 2.137 . S
O642 C633 1.247 . S
O643 Co630 2.244 . S
O643 C633 1.272 . S
O643 Co635 2.135 . S
Co644 O645 2.216 . S
Co644 O646 2.091 . S
Co644 O648 2.004 . S
Co644 O654 2.021 . S
Co644 O656 2.137 . S
Co644 O657 2.244 . S
O645 Co644 2.216 . S
O645 C652 1.247 . S
O646 Co644 2.091 . S
O646 C652 1.261 . S
C647 O656 1.247 . S
C647 O657 1.272 . S
O648 Co644 2.004 . S
O648 C653 1.259 . S
Co649 O650 2.061 . S
Co649 O655 2.052 . S
Co649 O657 2.135 . S
O650 Co649 2.061 . S
O650 C653 1.235 . S
C651 O654 1.238 . S
C651 O655 1.241 . S
C652 O645 1.247 . S
C652 O646 1.261 . S
C653 O648 1.259 . S
C653 O650 1.235 . S
O654 Co644 2.021 . S
O654 C651 1.238 . S
O655 Co649 2.052 . S
O655 C651 1.241 . S
O656 Co644 2.137 . S
O656 C647 1.247 . S
O657 Co644 2.244 . S
O657 C647 1.272 . S
O657 Co649 2.135 . S
Co658 O659 2.216 . S
Co658 O660 2.091 . S
Co658 O662 2.004 . S
Co658 O668 2.021 . S
Co658 O670 2.137 . S
Co658 O671 2.244 . S
O659 Co658 2.216 . S
O659 C666 1.247 . S
O660 Co658 2.091 . S
O660 C666 1.261 . S
C661 O670 1.247 . S
C661 O671 1.272 . S
O662 Co658 2.004 . S
O662 C667 1.259 . S
Co663 O664 2.061 . S
Co663 O669 2.052 . S
Co663 O671 2.135 . S
O664 Co663 2.061 . S
O664 C667 1.235 . S
C665 O668 1.238 . S
C665 O669 1.241 . S
C666 O659 1.247 . S
C666 O660 1.261 . S
C667 O662 1.259 . S
C667 O664 1.235 . S
O668 Co658 2.021 . S
O668 C665 1.238 . S
O669 Co663 2.052 . S
O669 C665 1.241 . S
O670 Co658 2.137 . S
O670 C661 1.247 . S
O671 Co658 2.244 . S
O671 C661 1.272 . S
O671 Co663 2.135 . S
C672 C673 1.391 . S
C672 C674 1.394 . S
C672 H688 0.931 . S
C673 C672 1.391 . S
C673 C677 1.376 . S
C674 C672 1.394 . S
C674 C675 1.369 . S
C674 C678 1.531 . S
C675 C674 1.369 . S
C675 C676 1.410 . S
C675 C683 1.503 . S
C676 C675 1.410 . S
C676 C677 1.392 . S
C676 C679 1.511 . S
C677 C673 1.376 . S
C677 C676 1.392 . S
C677 H689 0.929 . S
C678 C674 1.531 . S
C678 H690 0.960 . S
C678 H691 0.962 . S
C678 H692 0.960 . S
C679 C676 1.511 . S
C679 H693 0.961 . S
C679 H694 0.961 . S
C679 H695 0.961 . S
C680 C681 1.370 . S
C680 C682 1.363 . S
C680 H696 0.931 . S
C681 C680 1.370 . S
C681 C685 1.408 . S
C682 C680 1.363 . S
C682 C683 1.370 . S
C682 C686 1.524 . S
C683 C675 1.503 . S
C683 C682 1.370 . S
C683 C684 1.403 . S
C684 C683 1.403 . S
C684 C685 1.404 . S
C684 C687 1.539 . S
C685 C681 1.408 . S
C685 C684 1.404 . S
C685 H697 0.930 . S
C686 C682 1.524 . S
C686 H698 0.956 . S
C686 H699 0.961 . S
C686 H700 0.961 . S
C687 C684 1.539 . S
C687 H701 0.958 . S
C687 H702 0.961 . S
C687 H703 0.960 . S
H688 C672 0.931 . S
H689 C677 0.929 . S
H690 C678 0.960 . S
H691 C678 0.962 . S
H692 C678 0.960 . S
H693 C679 0.961 . S
H694 C679 0.961 . S
H695 C679 0.961 . S
H696 C680 0.931 . S
H697 C685 0.930 . S
H698 C686 0.956 . S
H699 C686 0.961 . S
H700 C686 0.961 . S
H701 C687 0.958 . S
H702 C687 0.961 . S
H703 C687 0.960 . S
C704 C705 1.391 . S
C704 C706 1.394 . S
C704 H720 0.931 . S
C705 C704 1.391 . S
C705 C709 1.376 . S
C706 C704 1.394 . S
C706 C707 1.369 . S
C706 C710 1.531 . S
C707 C706 1.369 . S
C707 C708 1.410 . S
C707 C715 1.503 . S
C708 C707 1.410 . S
C708 C709 1.392 . S
C708 C711 1.511 . S
C709 C705 1.376 . S
C709 C708 1.392 . S
C709 H721 0.929 . S
C710 C706 1.531 . S
C710 H722 0.960 . S
C710 H723 0.962 . S
C710 H724 0.960 . S
C711 C708 1.511 . S
C711 H725 0.961 . S
C711 H726 0.961 . S
C711 H727 0.961 . S
C712 C713 1.370 . S
C712 C714 1.363 . S
C712 H728 0.931 . S
C713 C712 1.370 . S
C713 C717 1.408 . S
C714 C712 1.363 . S
C714 C715 1.370 . S
C714 C718 1.524 . S
C715 C707 1.503 . S
C715 C714 1.370 . S
C715 C716 1.403 . S
C716 C715 1.403 . S
C716 C717 1.404 . S
C716 C719 1.539 . S
C717 C713 1.408 . S
C717 C716 1.404 . S
C717 H729 0.930 . S
C718 C714 1.524 . S
C718 H730 0.956 . S
C718 H731 0.961 . S
C718 H732 0.961 . S
C719 C716 1.539 . S
C719 H733 0.958 . S
C719 H734 0.961 . S
C719 H735 0.960 . S
H720 C704 0.931 . S
H721 C709 0.929 . S
H722 C710 0.960 . S
H723 C710 0.962 . S
H724 C710 0.960 . S
H725 C711 0.961 . S
H726 C711 0.961 . S
H727 C711 0.961 . S
H728 C712 0.931 . S
H729 C717 0.930 . S
H730 C718 0.956 . S
H731 C718 0.961 . S
H732 C718 0.961 . S
H733 C719 0.958 . S
H734 C719 0.961 . S
H735 C719 0.960 . S
C736 C737 1.391 . S
C736 C738 1.394 . S
C736 H752 0.931 . S
C737 C736 1.391 . S
C737 C741 1.376 . S
C738 C736 1.394 . S
C738 C739 1.369 . S
C738 C742 1.531 . S
C739 C738 1.369 . S
C739 C740 1.410 . S
C739 C747 1.503 . S
C740 C739 1.410 . S
C740 C741 1.392 . S
C740 C743 1.511 . S
C741 C737 1.376 . S
C741 C740 1.392 . S
C741 H753 0.929 . S
C742 C738 1.531 . S
C742 H754 0.960 . S
C742 H755 0.962 . S
C742 H756 0.960 . S
C743 C740 1.511 . S
C743 H757 0.961 . S
C743 H758 0.961 . S
C743 H759 0.961 . S
C744 C745 1.370 . S
C744 C746 1.363 . S
C744 H760 0.931 . S
C745 C744 1.370 . S
C745 C749 1.408 . S
C746 C744 1.363 . S
C746 C747 1.370 . S
C746 C750 1.524 . S
C747 C739 1.503 . S
C747 C746 1.370 . S
C747 C748 1.403 . S
C748 C747 1.403 . S
C748 C749 1.404 . S
C748 C751 1.539 . S
C749 C745 1.408 . S
C749 C748 1.404 . S
C749 H761 0.930 . S
C750 C746 1.524 . S
C750 H762 0.956 . S
C750 H763 0.961 . S
C750 H764 0.961 . S
C751 C748 1.539 . S
C751 H765 0.958 . S
C751 H766 0.961 . S
C751 H767 0.960 . S
H752 C736 0.931 . S
H753 C741 0.929 . S
H754 C742 0.960 . S
H755 C742 0.962 . S
H756 C742 0.960 . S
H757 C743 0.961 . S
H758 C743 0.961 . S
H759 C743 0.961 . S
H760 C744 0.931 . S
H761 C749 0.930 . S
H762 C750 0.956 . S
H763 C750 0.961 . S
H764 C750 0.961 . S
H765 C751 0.958 . S
H766 C751 0.961 . S
H767 C751 0.960 . S
C768 C769 1.391 . S
C768 C770 1.394 . S
C768 H784 0.931 . S
C769 C768 1.391 . S
C769 C773 1.376 . S
C770 C768 1.394 . S
C770 C771 1.369 . S
C770 C774 1.531 . S
C771 C770 1.369 . S
C771 C772 1.410 . S
C771 C779 1.503 . S
C772 C771 1.410 . S
C772 C773 1.392 . S
C772 C775 1.511 . S
C773 C769 1.376 . S
C773 C772 1.392 . S
C773 H785 0.929 . S
C774 C770 1.531 . S
C774 H786 0.960 . S
C774 H787 0.962 . S
C774 H788 0.960 . S
C775 C772 1.511 . S
C775 H789 0.961 . S
C775 H790 0.961 . S
C775 H791 0.961 . S
C776 C777 1.370 . S
C776 C778 1.363 . S
C776 H792 0.931 . S
C777 C776 1.370 . S
C777 C781 1.408 . S
C778 C776 1.363 . S
C778 C779 1.370 . S
C778 C782 1.524 . S
C779 C771 1.503 . S
C779 C778 1.370 . S
C779 C780 1.403 . S
C780 C779 1.403 . S
C780 C781 1.404 . S
C780 C783 1.539 . S
C781 C777 1.408 . S
C781 C780 1.404 . S
C781 H793 0.930 . S
C782 C778 1.524 . S
C782 H794 0.956 . S
C782 H795 0.961 . S
C782 H796 0.961 . S
C783 C780 1.539 . S
C783 H797 0.958 . S
C783 H798 0.961 . S
C783 H799 0.960 . S
H784 C768 0.931 . S
H785 C773 0.929 . S
H786 C774 0.960 . S
H787 C774 0.962 . S
H788 C774 0.960 . S
H789 C775 0.961 . S
H790 C775 0.961 . S
H791 C775 0.961 . S
H792 C776 0.931 . S
H793 C781 0.930 . S
H794 C782 0.956 . S
H795 C782 0.961 . S
H796 C782 0.961 . S
H797 C783 0.958 . S
H798 C783 0.961 . S
H799 C783 0.960 . S
C800 C801 1.391 . S
C800 C802 1.394 . S
C800 H816 0.931 . S
C801 C800 1.391 . S
C801 C805 1.376 . S
C802 C800 1.394 . S
C802 C803 1.369 . S
C802 C806 1.531 . S
C803 C802 1.369 . S
C803 C804 1.410 . S
C803 C811 1.503 . S
C804 C803 1.410 . S
C804 C805 1.392 . S
C804 C807 1.511 . S
C805 C801 1.376 . S
C805 C804 1.392 . S
C805 H817 0.929 . S
C806 C802 1.531 . S
C806 H818 0.960 . S
C806 H819 0.962 . S
C806 H820 0.960 . S
C807 C804 1.511 . S
C807 H821 0.961 . S
C807 H822 0.961 . S
C807 H823 0.961 . S
C808 C809 1.370 . S
C808 C810 1.363 . S
C808 H824 0.931 . S
C809 C808 1.370 . S
C809 C813 1.408 . S
C810 C808 1.363 . S
C810 C811 1.370 . S
C810 C814 1.524 . S
C811 C803 1.503 . S
C811 C810 1.370 . S
C811 C812 1.403 . S
C812 C811 1.403 . S
C812 C813 1.404 . S
C812 C815 1.539 . S
C813 C809 1.408 . S
C813 C812 1.404 . S
C813 H825 0.930 . S
C814 C810 1.524 . S
C814 H826 0.956 . S
C814 H827 0.961 . S
C814 H828 0.961 . S
C815 C812 1.539 . S
C815 H829 0.958 . S
C815 H830 0.961 . S
C815 H831 0.960 . S
H816 C800 0.931 . S
H817 C805 0.929 . S
H818 C806 0.960 . S
H819 C806 0.962 . S
H820 C806 0.960 . S
H821 C807 0.961 . S
H822 C807 0.961 . S
H823 C807 0.961 . S
H824 C808 0.931 . S
H825 C813 0.930 . S
H826 C814 0.956 . S
H827 C814 0.961 . S
H828 C814 0.961 . S
H829 C815 0.958 . S
H830 C815 0.961 . S
H831 C815 0.960 . S
C832 C833 1.391 . S
C832 C834 1.394 . S
C832 H848 0.931 . S
C833 C832 1.391 . S
C833 C837 1.376 . S
C834 C832 1.394 . S
C834 C835 1.369 . S
C834 C838 1.531 . S
C835 C834 1.369 . S
C835 C836 1.410 . S
C835 C843 1.503 . S
C836 C835 1.410 . S
C836 C837 1.392 . S
C836 C839 1.511 . S
C837 C833 1.376 . S
C837 C836 1.392 . S
C837 H849 0.929 . S
C838 C834 1.531 . S
C838 H850 0.960 . S
C838 H851 0.962 . S
C838 H852 0.960 . S
C839 C836 1.511 . S
C839 H853 0.961 . S
C839 H854 0.961 . S
C839 H855 0.961 . S
C840 C841 1.370 . S
C840 C842 1.363 . S
C840 H856 0.931 . S
C841 C840 1.370 . S
C841 C845 1.408 . S
C842 C840 1.363 . S
C842 C843 1.370 . S
C842 C846 1.524 . S
C843 C835 1.503 . S
C843 C842 1.370 . S
C843 C844 1.403 . S
C844 C843 1.403 . S
C844 C845 1.404 . S
C844 C847 1.539 . S
C845 C841 1.408 . S
C845 C844 1.404 . S
C845 H857 0.930 . S
C846 C842 1.524 . S
C846 H858 0.956 . S
C846 H859 0.961 . S
C846 H860 0.961 . S
C847 C844 1.539 . S
C847 H861 0.958 . S
C847 H862 0.961 . S
C847 H863 0.960 . S
H848 C832 0.931 . S
H849 C837 0.929 . S
H850 C838 0.960 . S
H851 C838 0.962 . S
H852 C838 0.960 . S
H853 C839 0.961 . S
H854 C839 0.961 . S
H855 C839 0.961 . S
H856 C840 0.931 . S
H857 C845 0.930 . S
H858 C846 0.956 . S
H859 C846 0.961 . S
H860 C846 0.961 . S
H861 C847 0.958 . S
H862 C847 0.961 . S
H863 C847 0.960 . S
C864 C865 1.391 . S
C864 C866 1.394 . S
C864 H880 0.931 . S
C865 C864 1.391 . S
C865 C869 1.376 . S
C866 C864 1.394 . S
C866 C867 1.369 . S
C866 C870 1.531 . S
C867 C866 1.369 . S
C867 C868 1.410 . S
C867 C875 1.503 . S
C868 C867 1.410 . S
C868 C869 1.392 . S
C868 C871 1.511 . S
C869 C865 1.376 . S
C869 C868 1.392 . S
C869 H881 0.929 . S
C870 C866 1.531 . S
C870 H882 0.960 . S
C870 H883 0.962 . S
C870 H884 0.960 . S
C871 C868 1.511 . S
C871 H885 0.961 . S
C871 H886 0.961 . S
C871 H887 0.961 . S
C872 C873 1.370 . S
C872 C874 1.363 . S
C872 H888 0.931 . S
C873 C872 1.370 . S
C873 C877 1.408 . S
C874 C872 1.363 . S
C874 C875 1.370 . S
C874 C878 1.524 . S
C875 C867 1.503 . S
C875 C874 1.370 . S
C875 C876 1.403 . S
C876 C875 1.403 . S
C876 C877 1.404 . S
C876 C879 1.539 . S
C877 C873 1.408 . S
C877 C876 1.404 . S
C877 H889 0.930 . S
C878 C874 1.524 . S
C878 H890 0.956 . S
C878 H891 0.961 . S
C878 H892 0.961 . S
C879 C876 1.539 . S
C879 H893 0.958 . S
C879 H894 0.961 . S
C879 H895 0.960 . S
H880 C864 0.931 . S
H881 C869 0.929 . S
H882 C870 0.960 . S
H883 C870 0.962 . S
H884 C870 0.960 . S
H885 C871 0.961 . S
H886 C871 0.961 . S
H887 C871 0.961 . S
H888 C872 0.931 . S
H889 C877 0.930 . S
H890 C878 0.956 . S
H891 C878 0.961 . S
H892 C878 0.961 . S
H893 C879 0.958 . S
H894 C879 0.961 . S
H895 C879 0.960 . S
C896 C897 1.391 . S
C896 C898 1.394 . S
C896 H912 0.931 . S
C897 C896 1.391 . S
C897 C901 1.376 . S
C898 C896 1.394 . S
C898 C899 1.369 . S
C898 C902 1.531 . S
C899 C898 1.369 . S
C899 C900 1.410 . S
C899 C907 1.503 . S
C900 C899 1.410 . S
C900 C901 1.392 . S
C900 C903 1.511 . S
C901 C897 1.376 . S
C901 C900 1.392 . S
C901 H913 0.929 . S
C902 C898 1.531 . S
C902 H914 0.960 . S
C902 H915 0.962 . S
C902 H916 0.960 . S
C903 C900 1.511 . S
C903 H917 0.961 . S
C903 H918 0.961 . S
C903 H919 0.961 . S
C904 C905 1.370 . S
C904 C906 1.363 . S
C904 H920 0.931 . S
C905 C904 1.370 . S
C905 C909 1.408 . S
C906 C904 1.363 . S
C906 C907 1.370 . S
C906 C910 1.524 . S
C907 C899 1.503 . S
C907 C906 1.370 . S
C907 C908 1.403 . S
C908 C907 1.403 . S
C908 C909 1.404 . S
C908 C911 1.539 . S
C909 C905 1.408 . S
C909 C908 1.404 . S
C909 H921 0.930 . S
C910 C906 1.524 . S
C910 H922 0.956 . S
C910 H923 0.961 . S
C910 H924 0.961 . S
C911 C908 1.539 . S
C911 H925 0.958 . S
C911 H926 0.961 . S
C911 H927 0.960 . S
H912 C896 0.931 . S
H913 C901 0.929 . S
H914 C902 0.960 . S
H915 C902 0.962 . S
H916 C902 0.960 . S
H917 C903 0.961 . S
H918 C903 0.961 . S
H919 C903 0.961 . S
H920 C904 0.931 . S
H921 C909 0.930 . S
H922 C910 0.956 . S
H923 C910 0.961 . S
H924 C910 0.961 . S
H925 C911 0.958 . S
H926 C911 0.961 . S
H927 C911 0.960 . S
C928 C929 1.391 . S
C928 C930 1.394 . S
C928 H944 0.931 . S
C929 C928 1.391 . S
C929 C933 1.376 . S
C930 C928 1.394 . S
C930 C931 1.369 . S
C930 C934 1.531 . S
C931 C930 1.369 . S
C931 C932 1.410 . S
C931 C939 1.503 . S
C932 C931 1.410 . S
C932 C933 1.392 . S
C932 C935 1.511 . S
C933 C929 1.376 . S
C933 C932 1.392 . S
C933 H945 0.929 . S
C934 C930 1.531 . S
C934 H946 0.960 . S
C934 H947 0.962 . S
C934 H948 0.960 . S
C935 C932 1.511 . S
C935 H949 0.961 . S
C935 H950 0.961 . S
C935 H951 0.961 . S
C936 C937 1.370 . S
C936 C938 1.363 . S
C936 H952 0.931 . S
C937 C936 1.370 . S
C937 C941 1.408 . S
C938 C936 1.363 . S
C938 C939 1.370 . S
C938 C942 1.524 . S
C939 C931 1.503 . S
C939 C938 1.370 . S
C939 C940 1.403 . S
C940 C939 1.403 . S
C940 C941 1.404 . S
C940 C943 1.539 . S
C941 C937 1.408 . S
C941 C940 1.404 . S
C941 H953 0.930 . S
C942 C938 1.524 . S
C942 H954 0.956 . S
C942 H955 0.961 . S
C942 H956 0.961 . S
C943 C940 1.539 . S
C943 H957 0.958 . S
C943 H958 0.961 . S
C943 H959 0.960 . S
H944 C928 0.931 . S
H945 C933 0.929 . S
H946 C934 0.960 . S
H947 C934 0.962 . S
H948 C934 0.960 . S
H949 C935 0.961 . S
H950 C935 0.961 . S
H951 C935 0.961 . S
H952 C936 0.931 . S
H953 C941 0.930 . S
H954 C942 0.956 . S
H955 C942 0.961 . S
H956 C942 0.961 . S
H957 C943 0.958 . S
H958 C943 0.961 . S
H959 C943 0.960 . S
C960 C961 1.391 . S
C960 C962 1.394 . S
C960 H976 0.931 . S
C961 C960 1.391 . S
C961 C965 1.376 . S
C962 C960 1.394 . S
C962 C963 1.369 . S
C962 C966 1.531 . S
C963 C962 1.369 . S
C963 C964 1.410 . S
C963 C971 1.503 . S
C964 C963 1.410 . S
C964 C965 1.392 . S
C964 C967 1.511 . S
C965 C961 1.376 . S
C965 C964 1.392 . S
C965 H977 0.929 . S
C966 C962 1.531 . S
C966 H978 0.960 . S
C966 H979 0.962 . S
C966 H980 0.960 . S
C967 C964 1.511 . S
C967 H981 0.961 . S
C967 H982 0.961 . S
C967 H983 0.961 . S
C968 C969 1.370 . S
C968 C970 1.363 . S
C968 H984 0.931 . S
C969 C968 1.370 . S
C969 C973 1.408 . S
C970 C968 1.363 . S
C970 C971 1.370 . S
C970 C974 1.524 . S
C971 C963 1.503 . S
C971 C970 1.370 . S
C971 C972 1.403 . S
C972 C971 1.403 . S
C972 C973 1.404 . S
C972 C975 1.539 . S
C973 C969 1.408 . S
C973 C972 1.404 . S
C973 H985 0.930 . S
C974 C970 1.524 . S
C974 H986 0.956 . S
C974 H987 0.961 . S
C974 H988 0.961 . S
C975 C972 1.539 . S
C975 H989 0.958 . S
C975 H990 0.961 . S
C975 H991 0.960 . S
H976 C960 0.931 . S
H977 C965 0.929 . S
H978 C966 0.960 . S
H979 C966 0.962 . S
H980 C966 0.960 . S
H981 C967 0.961 . S
H982 C967 0.961 . S
H983 C967 0.961 . S
H984 C968 0.931 . S
H985 C973 0.930 . S
H986 C974 0.956 . S
H987 C974 0.961 . S
H988 C974 0.961 . S
H989 C975 0.958 . S
H990 C975 0.961 . S
H991 C975 0.960 . S
C992 C993 1.391 . S
C992 C994 1.394 . S
C992 H1008 0.931 . S
C993 C992 1.391 . S
C993 C997 1.376 . S
C994 C992 1.394 . S
C994 C995 1.369 . S
C994 C998 1.531 . S
C995 C994 1.369 . S
C995 C996 1.410 . S
C995 C1003 1.503 . S
C996 C995 1.410 . S
C996 C997 1.392 . S
C996 C999 1.511 . S
C997 C993 1.376 . S
C997 C996 1.392 . S
C997 H1009 0.929 . S
C998 C994 1.531 . S
C998 H1010 0.960 . S
C998 H1011 0.962 . S
C998 H1012 0.960 . S
C999 C996 1.511 . S
C999 H1013 0.961 . S
C999 H1014 0.961 . S
C999 H1015 0.961 . S
C1000 C1001 1.370 . S
C1000 C1002 1.363 . S
C1000 H1016 0.931 . S
C1001 C1000 1.370 . S
C1001 C1005 1.408 . S
C1002 C1000 1.363 . S
C1002 C1003 1.370 . S
C1002 C1006 1.524 . S
C1003 C995 1.503 . S
C1003 C1002 1.370 . S
C1003 C1004 1.403 . S
C1004 C1003 1.403 . S
C1004 C1005 1.404 . S
C1004 C1007 1.539 . S
C1005 C1001 1.408 . S
C1005 C1004 1.404 . S
C1005 H1017 0.930 . S
C1006 C1002 1.524 . S
C1006 H1018 0.956 . S
C1006 H1019 0.961 . S
C1006 H1020 0.961 . S
C1007 C1004 1.539 . S
C1007 H1021 0.958 . S
C1007 H1022 0.961 . S
C1007 H1023 0.960 . S
H1008 C992 0.931 . S
H1009 C997 0.929 . S
H1010 C998 0.960 . S
H1011 C998 0.962 . S
H1012 C998 0.960 . S
H1013 C999 0.961 . S
H1014 C999 0.961 . S
H1015 C999 0.961 . S
H1016 C1000 0.931 . S
H1017 C1005 0.930 . S
H1018 C1006 0.956 . S
H1019 C1006 0.961 . S
H1020 C1006 0.961 . S
H1021 C1007 0.958 . S
H1022 C1007 0.961 . S
H1023 C1007 0.960 . S
C1024 C1025 1.391 . S
C1024 C1026 1.394 . S
C1024 H1040 0.931 . S
C1025 C1024 1.391 . S
C1025 C1029 1.376 . S
C1026 C1024 1.394 . S
C1026 C1027 1.369 . S
C1026 C1030 1.531 . S
C1027 C1026 1.369 . S
C1027 C1028 1.410 . S
C1027 C1035 1.503 . S
C1028 C1027 1.410 . S
C1028 C1029 1.392 . S
C1028 C1031 1.511 . S
C1029 C1025 1.376 . S
C1029 C1028 1.392 . S
C1029 H1041 0.929 . S
C1030 C1026 1.531 . S
C1030 H1042 0.960 . S
C1030 H1043 0.962 . S
C1030 H1044 0.960 . S
C1031 C1028 1.511 . S
C1031 H1045 0.961 . S
C1031 H1046 0.961 . S
C1031 H1047 0.961 . S
C1032 C1033 1.370 . S
C1032 C1034 1.363 . S
C1032 H1048 0.931 . S
C1033 C1032 1.370 . S
C1033 C1037 1.408 . S
C1034 C1032 1.363 . S
C1034 C1035 1.370 . S
C1034 C1038 1.524 . S
C1035 C1027 1.503 . S
C1035 C1034 1.370 . S
C1035 C1036 1.403 . S
C1036 C1035 1.403 . S
C1036 C1037 1.404 . S
C1036 C1039 1.539 . S
C1037 C1033 1.408 . S
C1037 C1036 1.404 . S
C1037 H1049 0.930 . S
C1038 C1034 1.524 . S
C1038 H1050 0.956 . S
C1038 H1051 0.961 . S
C1038 H1052 0.961 . S
C1039 C1036 1.539 . S
C1039 H1053 0.958 . S
C1039 H1054 0.961 . S
C1039 H1055 0.960 . S
H1040 C1024 0.931 . S
H1041 C1029 0.929 . S
H1042 C1030 0.960 . S
H1043 C1030 0.962 . S
H1044 C1030 0.960 . S
H1045 C1031 0.961 . S
H1046 C1031 0.961 . S
H1047 C1031 0.961 . S
H1048 C1032 0.931 . S
H1049 C1037 0.930 . S
H1050 C1038 0.956 . S
H1051 C1038 0.961 . S
H1052 C1038 0.961 . S
H1053 C1039 0.958 . S
H1054 C1039 0.961 . S
H1055 C1039 0.960 . S
C1056 C1057 1.391 . S
C1056 C1058 1.394 . S
C1056 H1072 0.931 . S
C1057 C1056 1.391 . S
C1057 C1061 1.376 . S
C1058 C1056 1.394 . S
C1058 C1059 1.369 . S
C1058 C1062 1.531 . S
C1059 C1058 1.369 . S
C1059 C1060 1.410 . S
C1059 C1067 1.503 . S
C1060 C1059 1.410 . S
C1060 C1061 1.392 . S
C1060 C1063 1.511 . S
C1061 C1057 1.376 . S
C1061 C1060 1.392 . S
C1061 H1073 0.929 . S
C1062 C1058 1.531 . S
C1062 H1074 0.960 . S
C1062 H1075 0.962 . S
C1062 H1076 0.960 . S
C1063 C1060 1.511 . S
C1063 H1077 0.961 . S
C1063 H1078 0.961 . S
C1063 H1079 0.961 . S
C1064 C1065 1.370 . S
C1064 C1066 1.363 . S
C1064 H1080 0.931 . S
C1065 C1064 1.370 . S
C1065 C1069 1.408 . S
C1066 C1064 1.363 . S
C1066 C1067 1.370 . S
C1066 C1070 1.524 . S
C1067 C1059 1.503 . S
C1067 C1066 1.370 . S
C1067 C1068 1.403 . S
C1068 C1067 1.403 . S
C1068 C1069 1.404 . S
C1068 C1071 1.539 . S
C1069 C1065 1.408 . S
C1069 C1068 1.404 . S
C1069 H1081 0.930 . S
C1070 C1066 1.524 . S
C1070 H1082 0.956 . S
C1070 H1083 0.961 . S
C1070 H1084 0.961 . S
C1071 C1068 1.539 . S
C1071 H1085 0.958 . S
C1071 H1086 0.961 . S
C1071 H1087 0.960 . S
H1072 C1056 0.931 . S
H1073 C1061 0.929 . S
H1074 C1062 0.960 . S
H1075 C1062 0.962 . S
H1076 C1062 0.960 . S
H1077 C1063 0.961 . S
H1078 C1063 0.961 . S
H1079 C1063 0.961 . S
H1080 C1064 0.931 . S
H1081 C1069 0.930 . S
H1082 C1070 0.956 . S
H1083 C1070 0.961 . S
H1084 C1070 0.961 . S
H1085 C1071 0.958 . S
H1086 C1071 0.961 . S
H1087 C1071 0.960 . S
C1088 C1089 1.391 . S
C1088 C1090 1.394 . S
C1088 H1104 0.931 . S
C1089 C1088 1.391 . S
C1089 C1093 1.376 . S
C1090 C1088 1.394 . S
C1090 C1091 1.369 . S
C1090 C1094 1.531 . S
C1091 C1090 1.369 . S
C1091 C1092 1.410 . S
C1091 C1099 1.503 . S
C1092 C1091 1.410 . S
C1092 C1093 1.392 . S
C1092 C1095 1.511 . S
C1093 C1089 1.376 . S
C1093 C1092 1.392 . S
C1093 H1105 0.929 . S
C1094 C1090 1.531 . S
C1094 H1106 0.960 . S
C1094 H1107 0.962 . S
C1094 H1108 0.960 . S
C1095 C1092 1.511 . S
C1095 H1109 0.961 . S
C1095 H1110 0.961 . S
C1095 H1111 0.961 . S
C1096 C1097 1.370 . S
C1096 C1098 1.363 . S
C1096 H1112 0.931 . S
C1097 C1096 1.370 . S
C1097 C1101 1.408 . S
C1098 C1096 1.363 . S
C1098 C1099 1.370 . S
C1098 C1102 1.524 . S
C1099 C1091 1.503 . S
C1099 C1098 1.370 . S
C1099 C1100 1.403 . S
C1100 C1099 1.403 . S
C1100 C1101 1.404 . S
C1100 C1103 1.539 . S
C1101 C1097 1.408 . S
C1101 C1100 1.404 . S
C1101 H1113 0.930 . S
C1102 C1098 1.524 . S
C1102 H1114 0.956 . S
C1102 H1115 0.961 . S
C1102 H1116 0.961 . S
C1103 C1100 1.539 . S
C1103 H1117 0.958 . S
C1103 H1118 0.961 . S
C1103 H1119 0.960 . S
H1104 C1088 0.931 . S
H1105 C1093 0.929 . S
H1106 C1094 0.960 . S
H1107 C1094 0.962 . S
H1108 C1094 0.960 . S
H1109 C1095 0.961 . S
H1110 C1095 0.961 . S
H1111 C1095 0.961 . S
H1112 C1096 0.931 . S
H1113 C1101 0.930 . S
H1114 C1102 0.956 . S
H1115 C1102 0.961 . S
H1116 C1102 0.961 . S
H1117 C1103 0.958 . S
H1118 C1103 0.961 . S
H1119 C1103 0.960 . S
C1120 C1121 1.391 . S
C1120 C1122 1.394 . S
C1120 H1136 0.931 . S
C1121 C1120 1.391 . S
C1121 C1125 1.376 . S
C1122 C1120 1.394 . S
C1122 C1123 1.369 . S
C1122 C1126 1.531 . S
C1123 C1122 1.369 . S
C1123 C1124 1.410 . S
C1123 C1131 1.503 . S
C1124 C1123 1.410 . S
C1124 C1125 1.392 . S
C1124 C1127 1.511 . S
C1125 C1121 1.376 . S
C1125 C1124 1.392 . S
C1125 H1137 0.929 . S
C1126 C1122 1.531 . S
C1126 H1138 0.960 . S
C1126 H1139 0.962 . S
C1126 H1140 0.960 . S
C1127 C1124 1.511 . S
C1127 H1141 0.961 . S
C1127 H1142 0.961 . S
C1127 H1143 0.961 . S
C1128 C1129 1.370 . S
C1128 C1130 1.363 . S
C1128 H1144 0.931 . S
C1129 C1128 1.370 . S
C1129 C1133 1.408 . S
C1130 C1128 1.363 . S
C1130 C1131 1.370 . S
C1130 C1134 1.524 . S
C1131 C1123 1.503 . S
C1131 C1130 1.370 . S
C1131 C1132 1.403 . S
C1132 C1131 1.403 . S
C1132 C1133 1.404 . S
C1132 C1135 1.539 . S
C1133 C1129 1.408 . S
C1133 C1132 1.404 . S
C1133 H1145 0.930 . S
C1134 C1130 1.524 . S
C1134 H1146 0.956 . S
C1134 H1147 0.961 . S
C1134 H1148 0.961 . S
C1135 C1132 1.539 . S
C1135 H1149 0.958 . S
C1135 H1150 0.961 . S
C1135 H1151 0.960 . S
H1136 C1120 0.931 . S
H1137 C1125 0.929 . S
H1138 C1126 0.960 . S
H1139 C1126 0.962 . S
H1140 C1126 0.960 . S
H1141 C1127 0.961 . S
H1142 C1127 0.961 . S
H1143 C1127 0.961 . S
H1144 C1128 0.931 . S
H1145 C1133 0.930 . S
H1146 C1134 0.956 . S
H1147 C1134 0.961 . S
H1148 C1134 0.961 . S
H1149 C1135 0.958 . S
H1150 C1135 0.961 . S
H1151 C1135 0.960 . S
C1152 C1153 1.391 . S
C1152 C1154 1.394 . S
C1152 H1168 0.931 . S
C1153 C1152 1.391 . S
C1153 C1157 1.376 . S
C1154 C1152 1.394 . S
C1154 C1155 1.369 . S
C1154 C1158 1.531 . S
C1155 C1154 1.369 . S
C1155 C1156 1.410 . S
C1155 C1163 1.503 . S
C1156 C1155 1.410 . S
C1156 C1157 1.392 . S
C1156 C1159 1.511 . S
C1157 C1153 1.376 . S
C1157 C1156 1.392 . S
C1157 H1169 0.929 . S
C1158 C1154 1.531 . S
C1158 H1170 0.960 . S
C1158 H1171 0.962 . S
C1158 H1172 0.960 . S
C1159 C1156 1.511 . S
C1159 H1173 0.961 . S
C1159 H1174 0.961 . S
C1159 H1175 0.961 . S
C1160 C1161 1.370 . S
C1160 C1162 1.363 . S
C1160 H1176 0.931 . S
C1161 C1160 1.370 . S
C1161 C1165 1.408 . S
C1162 C1160 1.363 . S
C1162 C1163 1.370 . S
C1162 C1166 1.524 . S
C1163 C1155 1.503 . S
C1163 C1162 1.370 . S
C1163 C1164 1.403 . S
C1164 C1163 1.403 . S
C1164 C1165 1.404 . S
C1164 C1167 1.539 . S
C1165 C1161 1.408 . S
C1165 C1164 1.404 . S
C1165 H1177 0.930 . S
C1166 C1162 1.524 . S
C1166 H1178 0.956 . S
C1166 H1179 0.961 . S
C1166 H1180 0.961 . S
C1167 C1164 1.539 . S
C1167 H1181 0.958 . S
C1167 H1182 0.961 . S
C1167 H1183 0.960 . S
H1168 C1152 0.931 . S
H1169 C1157 0.929 . S
H1170 C1158 0.960 . S
H1171 C1158 0.962 . S
H1172 C1158 0.960 . S
H1173 C1159 0.961 . S
H1174 C1159 0.961 . S
H1175 C1159 0.961 . S
H1176 C1160 0.931 . S
H1177 C1165 0.930 . S
H1178 C1166 0.956 . S
H1179 C1166 0.961 . S
H1180 C1166 0.961 . S
H1181 C1167 0.958 . S
H1182 C1167 0.961 . S
H1183 C1167 0.960 . S
C1184 C1185 1.391 . S
C1184 C1186 1.394 . S
C1184 H1200 0.931 . S
C1185 C1184 1.391 . S
C1185 C1189 1.376 . S
C1186 C1184 1.394 . S
C1186 C1187 1.369 . S
C1186 C1190 1.531 . S
C1187 C1186 1.369 . S
C1187 C1188 1.410 . S
C1187 C1195 1.503 . S
C1188 C1187 1.410 . S
C1188 C1189 1.392 . S
C1188 C1191 1.511 . S
C1189 C1185 1.376 . S
C1189 C1188 1.392 . S
C1189 H1201 0.929 . S
C1190 C1186 1.531 . S
C1190 H1202 0.960 . S
C1190 H1203 0.962 . S
C1190 H1204 0.960 . S
C1191 C1188 1.511 . S
C1191 H1205 0.961 . S
C1191 H1206 0.961 . S
C1191 H1207 0.961 . S
C1192 C1193 1.370 . S
C1192 C1194 1.363 . S
C1192 H1208 0.931 . S
C1193 C1192 1.370 . S
C1193 C1197 1.408 . S
C1194 C1192 1.363 . S
C1194 C1195 1.370 . S
C1194 C1198 1.524 . S
C1195 C1187 1.503 . S
C1195 C1194 1.370 . S
C1195 C1196 1.403 . S
C1196 C1195 1.403 . S
C1196 C1197 1.404 . S
C1196 C1199 1.539 . S
C1197 C1193 1.408 . S
C1197 C1196 1.404 . S
C1197 H1209 0.930 . S
C1198 C1194 1.524 . S
C1198 H1210 0.956 . S
C1198 H1211 0.961 . S
C1198 H1212 0.961 . S
C1199 C1196 1.539 . S
C1199 H1213 0.958 . S
C1199 H1214 0.961 . S
C1199 H1215 0.960 . S
H1200 C1184 0.931 . S
H1201 C1189 0.929 . S
H1202 C1190 0.960 . S
H1203 C1190 0.962 . S
H1204 C1190 0.960 . S
H1205 C1191 0.961 . S
H1206 C1191 0.961 . S
H1207 C1191 0.961 . S
H1208 C1192 0.931 . S
H1209 C1197 0.930 . S
H1210 C1198 0.956 . S
H1211 C1198 0.961 . S
H1212 C1198 0.961 . S
H1213 C1199 0.958 . S
H1214 C1199 0.961 . S
H1215 C1199 0.960 . S
C1216 C1217 1.391 . S
C1216 C1218 1.394 . S
C1216 H1232 0.931 . S
C1217 C1216 1.391 . S
C1217 C1221 1.376 . S
C1218 C1216 1.394 . S
C1218 C1219 1.369 . S
C1218 C1222 1.531 . S
C1219 C1218 1.369 . S
C1219 C1220 1.410 . S
C1219 C1227 1.503 . S
C1220 C1219 1.410 . S
C1220 C1221 1.392 . S
C1220 C1223 1.511 . S
C1221 C1217 1.376 . S
C1221 C1220 1.392 . S
C1221 H1233 0.929 . S
C1222 C1218 1.531 . S
C1222 H1234 0.960 . S
C1222 H1235 0.962 . S
C1222 H1236 0.960 . S
C1223 C1220 1.511 . S
C1223 H1237 0.961 . S
C1223 H1238 0.961 . S
C1223 H1239 0.961 . S
C1224 C1225 1.370 . S
C1224 C1226 1.363 . S
C1224 H1240 0.931 . S
C1225 C1224 1.370 . S
C1225 C1229 1.408 . S
C1226 C1224 1.363 . S
C1226 C1227 1.370 . S
C1226 C1230 1.524 . S
C1227 C1219 1.503 . S
C1227 C1226 1.370 . S
C1227 C1228 1.403 . S
C1228 C1227 1.403 . S
C1228 C1229 1.404 . S
C1228 C1231 1.539 . S
C1229 C1225 1.408 . S
C1229 C1228 1.404 . S
C1229 H1241 0.930 . S
C1230 C1226 1.524 . S
C1230 H1242 0.956 . S
C1230 H1243 0.961 . S
C1230 H1244 0.961 . S
C1231 C1228 1.539 . S
C1231 H1245 0.958 . S
C1231 H1246 0.961 . S
C1231 H1247 0.960 . S
H1232 C1216 0.931 . S
H1233 C1221 0.929 . S
H1234 C1222 0.960 . S
H1235 C1222 0.962 . S
H1236 C1222 0.960 . S
H1237 C1223 0.961 . S
H1238 C1223 0.961 . S
H1239 C1223 0.961 . S
H1240 C1224 0.931 . S
H1241 C1229 0.930 . S
H1242 C1230 0.956 . S
H1243 C1230 0.961 . S
H1244 C1230 0.961 . S
H1245 C1231 0.958 . S
H1246 C1231 0.961 . S
H1247 C1231 0.960 . S
C1248 C1249 1.391 . S
C1248 C1250 1.394 . S
C1248 H1264 0.931 . S
C1249 C1248 1.391 . S
C1249 C1253 1.376 . S
C1250 C1248 1.394 . S
C1250 C1251 1.369 . S
C1250 C1254 1.531 . S
C1251 C1250 1.369 . S
C1251 C1252 1.410 . S
C1251 C1259 1.503 . S
C1252 C1251 1.410 . S
C1252 C1253 1.392 . S
C1252 C1255 1.511 . S
C1253 C1249 1.376 . S
C1253 C1252 1.392 . S
C1253 H1265 0.929 . S
C1254 C1250 1.531 . S
C1254 H1266 0.960 . S
C1254 H1267 0.962 . S
C1254 H1268 0.960 . S
C1255 C1252 1.511 . S
C1255 H1269 0.961 . S
C1255 H1270 0.961 . S
C1255 H1271 0.961 . S
C1256 C1257 1.370 . S
C1256 C1258 1.363 . S
C1256 H1272 0.931 . S
C1257 C1256 1.370 . S
C1257 C1261 1.408 . S
C1258 C1256 1.363 . S
C1258 C1259 1.370 . S
C1258 C1262 1.524 . S
C1259 C1251 1.503 . S
C1259 C1258 1.370 . S
C1259 C1260 1.403 . S
C1260 C1259 1.403 . S
C1260 C1261 1.404 . S
C1260 C1263 1.539 . S
C1261 C1257 1.408 . S
C1261 C1260 1.404 . S
C1261 H1273 0.930 . S
C1262 C1258 1.524 . S
C1262 H1274 0.956 . S
C1262 H1275 0.961 . S
C1262 H1276 0.961 . S
C1263 C1260 1.539 . S
C1263 H1277 0.958 . S
C1263 H1278 0.961 . S
C1263 H1279 0.960 . S
H1264 C1248 0.931 . S
H1265 C1253 0.929 . S
H1266 C1254 0.960 . S
H1267 C1254 0.962 . S
H1268 C1254 0.960 . S
H1269 C1255 0.961 . S
H1270 C1255 0.961 . S
H1271 C1255 0.961 . S
H1272 C1256 0.931 . S
H1273 C1261 0.930 . S
H1274 C1262 0.956 . S
H1275 C1262 0.961 . S
H1276 C1262 0.961 . S
H1277 C1263 0.958 . S
H1278 C1263 0.961 . S
H1279 C1263 0.960 . S
C1280 C1281 1.391 . S
C1280 C1282 1.394 . S
C1280 H1296 0.931 . S
C1281 C1280 1.391 . S
C1281 C1285 1.376 . S
C1282 C1280 1.394 . S
C1282 C1283 1.369 . S
C1282 C1286 1.531 . S
C1283 C1282 1.369 . S
C1283 C1284 1.410 . S
C1283 C1291 1.503 . S
C1284 C1283 1.410 . S
C1284 C1285 1.392 . S
C1284 C1287 1.511 . S
C1285 C1281 1.376 . S
C1285 C1284 1.392 . S
C1285 H1297 0.929 . S
C1286 C1282 1.531 . S
C1286 H1298 0.960 . S
C1286 H1299 0.962 . S
C1286 H1300 0.960 . S
C1287 C1284 1.511 . S
C1287 H1301 0.961 . S
C1287 H1302 0.961 . S
C1287 H1303 0.961 . S
C1288 C1289 1.370 . S
C1288 C1290 1.363 . S
C1288 H1304 0.931 . S
C1289 C1288 1.370 . S
C1289 C1293 1.408 . S
C1290 C1288 1.363 . S
C1290 C1291 1.370 . S
C1290 C1294 1.524 . S
C1291 C1283 1.503 . S
C1291 C1290 1.370 . S
C1291 C1292 1.403 . S
C1292 C1291 1.403 . S
C1292 C1293 1.404 . S
C1292 C1295 1.539 . S
C1293 C1289 1.408 . S
C1293 C1292 1.404 . S
C1293 H1305 0.930 . S
C1294 C1290 1.524 . S
C1294 H1306 0.956 . S
C1294 H1307 0.961 . S
C1294 H1308 0.961 . S
C1295 C1292 1.539 . S
C1295 H1309 0.958 . S
C1295 H1310 0.961 . S
C1295 H1311 0.960 . S
H1296 C1280 0.931 . S
H1297 C1285 0.929 . S
H1298 C1286 0.960 . S
H1299 C1286 0.962 . S
H1300 C1286 0.960 . S
H1301 C1287 0.961 . S
H1302 C1287 0.961 . S
H1303 C1287 0.961 . S
H1304 C1288 0.931 . S
H1305 C1293 0.930 . S
H1306 C1294 0.956 . S
H1307 C1294 0.961 . S
H1308 C1294 0.961 . S
H1309 C1295 0.958 . S
H1310 C1295 0.961 . S
H1311 C1295 0.960 . S
C1312 C1313 1.391 . S
C1312 C1314 1.394 . S
C1312 H1328 0.931 . S
C1313 C1312 1.391 . S
C1313 C1317 1.376 . S
C1314 C1312 1.394 . S
C1314 C1315 1.369 . S
C1314 C1318 1.531 . S
C1315 C1314 1.369 . S
C1315 C1316 1.410 . S
C1315 C1323 1.503 . S
C1316 C1315 1.410 . S
C1316 C1317 1.392 . S
C1316 C1319 1.511 . S
C1317 C1313 1.376 . S
C1317 C1316 1.392 . S
C1317 H1329 0.929 . S
C1318 C1314 1.531 . S
C1318 H1330 0.960 . S
C1318 H1331 0.962 . S
C1318 H1332 0.960 . S
C1319 C1316 1.511 . S
C1319 H1333 0.961 . S
C1319 H1334 0.961 . S
C1319 H1335 0.961 . S
C1320 C1321 1.370 . S
C1320 C1322 1.363 . S
C1320 H1336 0.931 . S
C1321 C1320 1.370 . S
C1321 C1325 1.408 . S
C1322 C1320 1.363 . S
C1322 C1323 1.370 . S
C1322 C1326 1.524 . S
C1323 C1315 1.503 . S
C1323 C1322 1.370 . S
C1323 C1324 1.403 . S
C1324 C1323 1.403 . S
C1324 C1325 1.404 . S
C1324 C1327 1.539 . S
C1325 C1321 1.408 . S
C1325 C1324 1.404 . S
C1325 H1337 0.930 . S
C1326 C1322 1.524 . S
C1326 H1338 0.956 . S
C1326 H1339 0.961 . S
C1326 H1340 0.961 . S
C1327 C1324 1.539 . S
C1327 H1341 0.958 . S
C1327 H1342 0.961 . S
C1327 H1343 0.960 . S
H1328 C1312 0.931 . S
H1329 C1317 0.929 . S
H1330 C1318 0.960 . S
H1331 C1318 0.962 . S
H1332 C1318 0.960 . S
H1333 C1319 0.961 . S
H1334 C1319 0.961 . S
H1335 C1319 0.961 . S
H1336 C1320 0.931 . S
H1337 C1325 0.930 . S
H1338 C1326 0.956 . S
H1339 C1326 0.961 . S
H1340 C1326 0.961 . S
H1341 C1327 0.958 . S
H1342 C1327 0.961 . S
H1343 C1327 0.960 . S
C1344 C1345 1.391 . S
C1344 C1346 1.394 . S
C1344 H1360 0.931 . S
C1345 C1344 1.391 . S
C1345 C1349 1.376 . S
C1346 C1344 1.394 . S
C1346 C1347 1.369 . S
C1346 C1350 1.531 . S
C1347 C1346 1.369 . S
C1347 C1348 1.410 . S
C1347 C1355 1.503 . S
C1348 C1347 1.410 . S
C1348 C1349 1.392 . S
C1348 C1351 1.511 . S
C1349 C1345 1.376 . S
C1349 C1348 1.392 . S
C1349 H1361 0.929 . S
C1350 C1346 1.531 . S
C1350 H1362 0.960 . S
C1350 H1363 0.962 . S
C1350 H1364 0.960 . S
C1351 C1348 1.511 . S
C1351 H1365 0.961 . S
C1351 H1366 0.961 . S
C1351 H1367 0.961 . S
C1352 C1353 1.370 . S
C1352 C1354 1.363 . S
C1352 H1368 0.931 . S
C1353 C1352 1.370 . S
C1353 C1357 1.408 . S
C1354 C1352 1.363 . S
C1354 C1355 1.370 . S
C1354 C1358 1.524 . S
C1355 C1347 1.503 . S
C1355 C1354 1.370 . S
C1355 C1356 1.403 . S
C1356 C1355 1.403 . S
C1356 C1357 1.404 . S
C1356 C1359 1.539 . S
C1357 C1353 1.408 . S
C1357 C1356 1.404 . S
C1357 H1369 0.930 . S
C1358 C1354 1.524 . S
C1358 H1370 0.956 . S
C1358 H1371 0.961 . S
C1358 H1372 0.961 . S
C1359 C1356 1.539 . S
C1359 H1373 0.958 . S
C1359 H1374 0.961 . S
C1359 H1375 0.960 . S
H1360 C1344 0.931 . S
H1361 C1349 0.929 . S
H1362 C1350 0.960 . S
H1363 C1350 0.962 . S
H1364 C1350 0.960 . S
H1365 C1351 0.961 . S
H1366 C1351 0.961 . S
H1367 C1351 0.961 . S
H1368 C1352 0.931 . S
H1369 C1357 0.930 . S
H1370 C1358 0.956 . S
H1371 C1358 0.961 . S
H1372 C1358 0.961 . S
H1373 C1359 0.958 . S
H1374 C1359 0.961 . S
H1375 C1359 0.960 . S
C1376 C1377 1.391 . S
C1376 C1378 1.394 . S
C1376 H1392 0.931 . S
C1377 C1376 1.391 . S
C1377 C1381 1.376 . S
C1378 C1376 1.394 . S
C1378 C1379 1.369 . S
C1378 C1382 1.531 . S
C1379 C1378 1.369 . S
C1379 C1380 1.410 . S
C1379 C1387 1.503 . S
C1380 C1379 1.410 . S
C1380 C1381 1.392 . S
C1380 C1383 1.511 . S
C1381 C1377 1.376 . S
C1381 C1380 1.392 . S
C1381 H1393 0.929 . S
C1382 C1378 1.531 . S
C1382 H1394 0.960 . S
C1382 H1395 0.962 . S
C1382 H1396 0.960 . S
C1383 C1380 1.511 . S
C1383 H1397 0.961 . S
C1383 H1398 0.961 . S
C1383 H1399 0.961 . S
C1384 C1385 1.370 . S
C1384 C1386 1.363 . S
C1384 H1400 0.931 . S
C1385 C1384 1.370 . S
C1385 C1389 1.408 . S
C1386 C1384 1.363 . S
C1386 C1387 1.370 . S
C1386 C1390 1.524 . S
C1387 C1379 1.503 . S
C1387 C1386 1.370 . S
C1387 C1388 1.403 . S
C1388 C1387 1.403 . S
C1388 C1389 1.404 . S
C1388 C1391 1.539 . S
C1389 C1385 1.408 . S
C1389 C1388 1.404 . S
C1389 H1401 0.930 . S
C1390 C1386 1.524 . S
C1390 H1402 0.956 . S
C1390 H1403 0.961 . S
C1390 H1404 0.961 . S
C1391 C1388 1.539 . S
C1391 H1405 0.958 . S
C1391 H1406 0.961 . S
C1391 H1407 0.960 . S
H1392 C1376 0.931 . S
H1393 C1381 0.929 . S
H1394 C1382 0.960 . S
H1395 C1382 0.962 . S
H1396 C1382 0.960 . S
H1397 C1383 0.961 . S
H1398 C1383 0.961 . S
H1399 C1383 0.961 . S
H1400 C1384 0.931 . S
H1401 C1389 0.930 . S
H1402 C1390 0.956 . S
H1403 C1390 0.961 . S
H1404 C1390 0.961 . S
H1405 C1391 0.958 . S
H1406 C1391 0.961 . S
H1407 C1391 0.960 . S
C1408 C1409 1.391 . S
C1408 C1410 1.394 . S
C1408 H1424 0.931 . S
C1409 C1408 1.391 . S
C1409 C1413 1.376 . S
C1410 C1408 1.394 . S
C1410 C1411 1.369 . S
C1410 C1414 1.531 . S
C1411 C1410 1.369 . S
C1411 C1412 1.410 . S
C1411 C1419 1.503 . S
C1412 C1411 1.410 . S
C1412 C1413 1.392 . S
C1412 C1415 1.511 . S
C1413 C1409 1.376 . S
C1413 C1412 1.392 . S
C1413 H1425 0.929 . S
C1414 C1410 1.531 . S
C1414 H1426 0.960 . S
C1414 H1427 0.962 . S
C1414 H1428 0.960 . S
C1415 C1412 1.511 . S
C1415 H1429 0.961 . S
C1415 H1430 0.961 . S
C1415 H1431 0.961 . S
C1416 C1417 1.370 . S
C1416 C1418 1.363 . S
C1416 H1432 0.931 . S
C1417 C1416 1.370 . S
C1417 C1421 1.408 . S
C1418 C1416 1.363 . S
C1418 C1419 1.370 . S
C1418 C1422 1.524 . S
C1419 C1411 1.503 . S
C1419 C1418 1.370 . S
C1419 C1420 1.403 . S
C1420 C1419 1.403 . S
C1420 C1421 1.404 . S
C1420 C1423 1.539 . S
C1421 C1417 1.408 . S
C1421 C1420 1.404 . S
C1421 H1433 0.930 . S
C1422 C1418 1.524 . S
C1422 H1434 0.956 . S
C1422 H1435 0.961 . S
C1422 H1436 0.961 . S
C1423 C1420 1.539 . S
C1423 H1437 0.958 . S
C1423 H1438 0.961 . S
C1423 H1439 0.960 . S
H1424 C1408 0.931 . S
H1425 C1413 0.929 . S
H1426 C1414 0.960 . S
H1427 C1414 0.962 . S
H1428 C1414 0.960 . S
H1429 C1415 0.961 . S
H1430 C1415 0.961 . S
H1431 C1415 0.961 . S
H1432 C1416 0.931 . S
H1433 C1421 0.930 . S
H1434 C1422 0.956 . S
H1435 C1422 0.961 . S
H1436 C1422 0.961 . S
H1437 C1423 0.958 . S
H1438 C1423 0.961 . S
H1439 C1423 0.960 . S
C1440 C1441 1.391 . S
C1440 C1442 1.394 . S
C1440 H1456 0.931 . S
C1441 C1440 1.391 . S
C1441 C1445 1.376 1_655 S
C1442 C1440 1.394 . S
C1442 C1443 1.369 . S
C1442 C1446 1.531 . S
C1443 C1442 1.369 . S
C1443 C1444 1.410 1_655 S
C1443 C1451 1.503 1_655 S
C1444 C1443 1.410 1_455 S
C1444 C1445 1.392 . S
C1444 C1447 1.511 . S
C1445 C1441 1.376 1_455 S
C1445 C1444 1.392 . S
C1445 H1457 0.929 . S
C1446 C1442 1.531 . S
C1446 H1458 0.960 . S
C1446 H1459 0.962 . S
C1446 H1460 0.960 . S
C1447 C1444 1.511 . S
C1447 H1461 0.961 . S
C1447 H1462 0.961 . S
C1447 H1463 0.961 . S
C1448 C1449 1.370 . S
C1448 C1450 1.363 . S
C1448 H1464 0.931 . S
C1449 C1448 1.370 . S
C1449 C1453 1.408 . S
C1450 C1448 1.363 . S
C1450 C1451 1.370 . S
C1450 C1454 1.524 1_455 S
C1451 C1443 1.503 1_455 S
C1451 C1450 1.370 . S
C1451 C1452 1.403 . S
C1452 C1451 1.403 . S
C1452 C1453 1.404 . S
C1452 C1455 1.539 . S
C1453 C1449 1.408 . S
C1453 C1452 1.404 . S
C1453 H1465 0.930 . S
C1454 C1450 1.524 1_655 S
C1454 H1466 0.956 . S
C1454 H1467 0.954 1_655 S
C1454 H1468 0.961 . S
C1455 C1452 1.539 . S
C1455 H1469 0.958 . S
C1455 H1470 0.961 . S
C1455 H1471 0.960 . S
H1456 C1440 0.931 . S
H1457 C1445 0.929 . S
H1458 C1446 0.960 . S
H1459 C1446 0.962 . S
H1460 C1446 0.960 . S
H1461 C1447 0.961 . S
H1462 C1447 0.961 . S
H1463 C1447 0.961 . S
H1464 C1448 0.931 . S
H1465 C1453 0.930 . S
H1466 C1454 0.956 . S
H1467 C1454 0.954 1_455 S
H1468 C1454 0.961 . S
H1469 C1455 0.958 . S
H1470 C1455 0.961 . S
H1471 C1455 0.960 . S
C1472 C1473 1.391 . S
C1472 C1474 1.394 . S
C1472 H1488 0.931 . S
C1473 C1472 1.391 . S
C1473 C1477 1.376 1_565 S
C1474 C1472 1.394 . S
C1474 C1475 1.369 . S
C1474 C1478 1.531 . S
C1475 C1474 1.369 . S
C1475 C1476 1.410 1_565 S
C1475 C1483 1.503 1_565 S
C1476 C1475 1.410 1_545 S
C1476 C1477 1.392 . S
C1476 C1479 1.511 . S
C1477 C1473 1.376 1_545 S
C1477 C1476 1.392 . S
C1477 H1489 0.929 . S
C1478 C1474 1.531 . S
C1478 H1490 0.960 . S
C1478 H1491 0.962 . S
C1478 H1492 0.960 . S
C1479 C1476 1.511 . S
C1479 H1493 0.961 . S
C1479 H1494 0.961 . S
C1479 H1495 0.961 . S
C1480 C1481 1.370 . S
C1480 C1482 1.363 . S
C1480 H1496 0.931 . S
C1481 C1480 1.370 . S
C1481 C1485 1.408 . S
C1482 C1480 1.363 . S
C1482 C1483 1.370 . S
C1482 C1486 1.524 . S
C1483 C1475 1.503 1_545 S
C1483 C1482 1.370 . S
C1483 C1484 1.403 . S
C1484 C1483 1.403 . S
C1484 C1485 1.404 . S
C1484 C1487 1.539 1_545 S
C1485 C1481 1.408 . S
C1485 C1484 1.404 . S
C1485 H1497 0.930 . S
C1486 C1482 1.524 . S
C1486 H1498 0.956 1_545 S
C1486 H1499 0.961 . S
C1486 H1500 0.961 . S
C1487 C1484 1.539 1_565 S
C1487 H1501 0.958 . S
C1487 H1502 0.961 1_565 S
C1487 H1503 0.960 . S
H1488 C1472 0.931 . S
H1489 C1477 0.929 . S
H1490 C1478 0.960 . S
H1491 C1478 0.962 . S
H1492 C1478 0.960 . S
H1493 C1479 0.961 . S
H1494 C1479 0.961 . S
H1495 C1479 0.961 . S
H1496 C1480 0.931 . S
H1497 C1485 0.930 . S
H1498 C1486 0.956 1_565 S
H1499 C1486 0.961 . S
H1500 C1486 0.961 . S
H1501 C1487 0.958 . S
H1502 C1487 0.961 1_545 S
H1503 C1487 0.960 . S
C1504 C1505 1.391 . S
C1504 C1506 1.394 . S
C1504 H1520 0.931 . S
C1505 C1504 1.391 . S
C1505 C1509 1.376 1_655 S
C1506 C1504 1.394 . S
C1506 C1507 1.369 . S
C1506 C1510 1.531 . S
C1507 C1506 1.369 . S
C1507 C1508 1.410 1_655 S
C1507 C1515 1.503 1_655 S
C1508 C1507 1.410 1_455 S
C1508 C1509 1.392 . S
C1508 C1511 1.511 . S
C1509 C1505 1.376 1_455 S
C1509 C1508 1.392 . S
C1509 H1521 0.929 . S
C1510 C1506 1.531 . S
C1510 H1522 0.960 . S
C1510 H1523 0.962 . S
C1510 H1524 0.960 . S
C1511 C1508 1.511 . S
C1511 H1525 0.961 . S
C1511 H1526 0.961 . S
C1511 H1527 0.961 . S
C1512 C1513 1.370 . S
C1512 C1514 1.363 . S
C1512 H1528 0.931 . S
C1513 C1512 1.370 . S
C1513 C1517 1.408 . S
C1514 C1512 1.363 . S
C1514 C1515 1.370 . S
C1514 C1518 1.524 . S
C1515 C1507 1.503 1_455 S
C1515 C1514 1.370 . S
C1515 C1516 1.400 1_455 S
C1516 C1515 1.400 1_655 S
C1516 C1517 1.396 1_655 S
C1516 C1519 1.548 . S
C1517 C1513 1.408 . S
C1517 C1516 1.396 1_455 S
C1517 H1529 0.930 . S
C1518 C1514 1.524 . S
C1518 H1530 0.954 1_455 S
C1518 H1531 0.961 . S
C1518 H1532 0.961 . S
C1519 C1516 1.548 . S
C1519 H1533 0.958 . S
C1519 H1534 0.961 . S
C1519 H1535 0.960 . S
H1520 C1504 0.931 . S
H1521 C1509 0.929 . S
H1522 C1510 0.960 . S
H1523 C1510 0.962 . S
H1524 C1510 0.960 . S
H1525 C1511 0.961 . S
H1526 C1511 0.961 . S
H1527 C1511 0.961 . S
H1528 C1512 0.931 . S
H1529 C1517 0.930 . S
H1530 C1518 0.954 1_655 S
H1531 C1518 0.961 . S
H1532 C1518 0.961 . S
H1533 C1519 0.958 . S
H1534 C1519 0.961 . S
H1535 C1519 0.960 . S
C1536 C1537 1.391 1_565 S
C1536 C1538 1.394 . S
C1536 H1552 0.931 . S
C1537 C1536 1.391 1_545 S
C1537 C1541 1.376 . S
C1538 C1536 1.394 . S
C1538 C1539 1.369 1_565 S
C1538 C1542 1.531 . S
C1539 C1538 1.369 1_545 S
C1539 C1540 1.410 . S
C1539 C1547 1.503 1_545 S
C1540 C1539 1.410 . S
C1540 C1541 1.392 . S
C1540 C1543 1.511 . S
C1541 C1537 1.376 . S
C1541 C1540 1.392 . S
C1541 H1553 0.929 . S
C1542 C1538 1.531 . S
C1542 H1554 0.960 . S
C1542 H1555 0.962 . S
C1542 H1556 0.960 . S
C1543 C1540 1.511 . S
C1543 H1557 0.961 . S
C1543 H1558 0.961 . S
C1543 H1559 0.961 . S
C1544 C1545 1.370 . S
C1544 C1546 1.363 . S
C1544 H1560 0.931 . S
C1545 C1544 1.370 . S
C1545 C1549 1.408 . S
C1546 C1544 1.363 . S
C1546 C1547 1.370 . S
C1546 C1550 1.524 . S
C1547 C1539 1.503 1_565 S
C1547 C1546 1.370 . S
C1547 C1548 1.403 . S
C1548 C1547 1.403 . S
C1548 C1549 1.404 . S
C1548 C1551 1.539 . S
C1549 C1545 1.408 . S
C1549 C1548 1.404 . S
C1549 H1561 0.930 . S
C1550 C1546 1.524 . S
C1550 H1562 0.956 . S
C1550 H1563 0.961 1_565 S
C1550 H1564 0.961 . S
C1551 C1548 1.539 . S
C1551 H1565 0.958 . S
C1551 H1566 0.961 1_565 S
C1551 H1567 0.960 1_565 S
H1552 C1536 0.931 . S
H1553 C1541 0.929 . S
H1554 C1542 0.960 . S
H1555 C1542 0.962 . S
H1556 C1542 0.960 . S
H1557 C1543 0.961 . S
H1558 C1543 0.961 . S
H1559 C1543 0.961 . S
H1560 C1544 0.931 . S
H1561 C1549 0.930 . S
H1562 C1550 0.956 . S
H1563 C1550 0.961 1_545 S
H1564 C1550 0.961 . S
H1565 C1551 0.958 . S
H1566 C1551 0.961 1_545 S
H1567 C1551 0.960 1_545 S
C1568 C1569 1.391 . S
C1568 C1570 1.394 . S
C1568 H1584 0.931 . S
C1569 C1568 1.391 . S
C1569 C1573 1.376 . S
C1570 C1568 1.394 . S
C1570 C1571 1.369 . S
C1570 C1574 1.531 1_455 S
C1571 C1570 1.369 . S
C1571 C1572 1.410 . S
C1571 C1579 1.504 1_455 S
C1572 C1571 1.410 . S
C1572 C1573 1.392 . S
C1572 C1575 1.511 . S
C1573 C1569 1.376 . S
C1573 C1572 1.392 . S
C1573 H1585 0.929 . S
C1574 C1570 1.531 1_655 S
C1574 H1586 0.960 . S
C1574 H1587 0.962 . S
C1574 H1588 0.977 . S
C1575 C1572 1.511 . S
C1575 H1589 0.961 . S
C1575 H1590 0.961 . S
C1575 H1591 0.961 . S
C1576 C1577 1.370 . S
C1576 C1578 1.363 . S
C1576 H1592 0.931 . S
C1577 C1576 1.370 . S
C1577 C1581 1.408 1_655 S
C1578 C1576 1.363 . S
C1578 C1579 1.368 . S
C1578 C1582 1.524 . S
C1579 C1571 1.504 1_655 S
C1579 C1578 1.368 . S
C1579 C1580 1.404 1_655 S
C1580 C1579 1.404 1_455 S
C1580 C1581 1.404 . S
C1580 C1583 1.539 . S
C1581 C1577 1.408 1_455 S
C1581 C1580 1.404 . S
C1581 H1593 0.930 . S
C1582 C1578 1.524 . S
C1582 H1594 0.956 . S
C1582 H1595 0.961 . S
C1582 H1596 0.961 . S
C1583 C1580 1.539 . S
C1583 H1597 0.958 . S
C1583 H1598 0.961 . S
C1583 H1599 0.960 . S
H1584 C1568 0.931 . S
H1585 C1573 0.929 . S
H1586 C1574 0.960 . S
H1587 C1574 0.962 . S
H1588 C1574 0.977 . S
H1589 C1575 0.961 . S
H1590 C1575 0.961 . S
H1591 C1575 0.961 . S
H1592 C1576 0.931 . S
H1593 C1581 0.930 . S
H1594 C1582 0.956 . S
H1595 C1582 0.961 . S
H1596 C1582 0.961 . S
H1597 C1583 0.958 . S
H1598 C1583 0.961 . S
H1599 C1583 0.960 . S
C1600 C1601 1.391 . S
C1600 C1602 1.394 . S
C1600 H1616 0.931 . S
C1601 C1600 1.391 . S
C1601 C1605 1.376 . S
C1602 C1600 1.394 . S
C1602 C1603 1.369 1_565 S
C1602 C1606 1.531 . S
C1603 C1602 1.369 1_545 S
C1603 C1604 1.410 . S
C1603 C1611 1.503 . S
C1604 C1603 1.410 . S
C1604 C1605 1.392 1_545 S
C1604 C1607 1.511 . S
C1605 C1601 1.376 . S
C1605 C1604 1.392 1_565 S
C1605 H1617 0.929 . S
C1606 C1602 1.531 . S
C1606 H1618 0.960 1_565 S
C1606 H1619 0.962 . S
C1606 H1620 0.960 . S
C1607 C1604 1.511 . S
C1607 H1621 0.961 . S
C1607 H1622 0.961 . S
C1607 H1623 0.961 . S
C1608 C1609 1.370 1_565 S
C1608 C1610 1.363 . S
C1608 H1624 0.931 . S
C1609 C1608 1.370 1_545 S
C1609 C1613 1.408 . S
C1610 C1608 1.363 . S
C1610 C1611 1.370 1_565 S
C1610 C1614 1.524 . S
C1611 C1603 1.503 . S
C1611 C1610 1.370 1_545 S
C1611 C1612 1.403 . S
C1612 C1611 1.403 . S
C1612 C1613 1.404 . S
C1612 C1615 1.539 . S
C1613 C1609 1.408 . S
C1613 C1612 1.404 . S
C1613 H1625 0.930 . S
C1614 C1610 1.524 . S
C1614 H1626 0.956 . S
C1614 H1627 0.961 . S
C1614 H1628 0.961 . S
C1615 C1612 1.539 . S
C1615 H1629 0.958 . S
C1615 H1630 0.961 . S
C1615 H1631 0.960 . S
H1616 C1600 0.931 . S
H1617 C1605 0.929 . S
H1618 C1606 0.960 1_545 S
H1619 C1606 0.962 . S
H1620 C1606 0.960 . S
H1621 C1607 0.961 . S
H1622 C1607 0.961 . S
H1623 C1607 0.961 . S
H1624 C1608 0.931 . S
H1625 C1613 0.930 . S
H1626 C1614 0.956 . S
H1627 C1614 0.961 . S
H1628 C1614 0.961 . S
H1629 C1615 0.958 . S
H1630 C1615 0.961 . S
H1631 C1615 0.960 . S
C1632 C1633 1.391 1_655 S
C1632 C1634 1.394 . S
C1632 H1648 0.931 . S
C1633 C1632 1.391 1_455 S
C1633 C1637 1.376 . S
C1634 C1632 1.394 . S
C1634 C1635 1.369 1_655 S
C1634 C1638 1.531 . S
C1635 C1634 1.369 1_455 S
C1635 C1636 1.410 . S
C1635 C1643 1.503 1_455 S
C1636 C1635 1.410 . S
C1636 C1637 1.392 . S
C1636 C1639 1.511 . S
C1637 C1633 1.376 . S
C1637 C1636 1.392 . S
C1637 H1649 0.929 . S
C1638 C1634 1.531 . S
C1638 H1650 0.960 . S
C1638 H1651 0.962 . S
C1638 H1652 0.960 . S
C1639 C1636 1.511 . S
C1639 H1653 0.961 . S
C1639 H1654 0.961 . S
C1639 H1655 0.961 . S
C1640 C1641 1.370 . S
C1640 C1642 1.363 . S
C1640 H1656 0.931 . S
C1641 C1640 1.370 . S
C1641 C1645 1.408 . S
C1642 C1640 1.363 . S
C1642 C1643 1.370 . S
C1642 C1646 1.524 . S
C1643 C1635 1.503 1_655 S
C1643 C1642 1.370 . S
C1643 C1644 1.399 1_655 S
C1644 C1643 1.399 1_455 S
C1644 C1645 1.396 1_455 S
C1644 C1647 1.552 . S
C1645 C1641 1.408 . S
C1645 C1644 1.396 1_655 S
C1645 H1657 0.930 . S
C1646 C1642 1.524 . S
C1646 H1658 0.956 . S
C1646 H1659 0.961 . S
C1646 H1660 0.961 . S
C1647 C1644 1.552 . S
C1647 H1661 0.958 . S
C1647 H1662 0.961 . S
C1647 H1663 0.960 . S
H1648 C1632 0.931 . S
H1649 C1637 0.929 . S
H1650 C1638 0.960 . S
H1651 C1638 0.962 . S
H1652 C1638 0.960 . S
H1653 C1639 0.961 . S
H1654 C1639 0.961 . S
H1655 C1639 0.961 . S
H1656 C1640 0.931 . S
H1657 C1645 0.930 . S
H1658 C1646 0.956 . S
H1659 C1646 0.961 . S
H1660 C1646 0.961 . S
H1661 C1647 0.958 . S
H1662 C1647 0.961 . S
H1663 C1647 0.960 . S
C1664 C1665 1.391 . S
C1664 C1666 1.394 . S
C1664 H1680 0.931 . S
C1665 C1664 1.391 . S
C1665 C1669 1.376 . S
C1666 C1664 1.394 . S
C1666 C1667 1.369 . S
C1666 C1670 1.531 . S
C1667 C1666 1.369 . S
C1667 C1668 1.403 1_545 S
C1667 C1675 1.499 1_545 S
C1668 C1667 1.403 1_565 S
C1668 C1669 1.388 1_565 S
C1668 C1671 1.523 . S
C1669 C1665 1.376 . S
C1669 C1668 1.388 1_545 S
C1669 H1681 0.917 1_545 S
C1670 C1666 1.531 . S
C1670 H1682 0.960 . S
C1670 H1683 0.962 . S
C1670 H1684 0.960 . S
C1671 C1668 1.523 . S
C1671 H1685 0.961 . S
C1671 H1686 0.961 . S
C1671 H1687 0.961 . S
C1672 C1673 1.370 . S
C1672 C1674 1.363 . S
C1672 H1688 0.931 . S
C1673 C1672 1.370 . S
C1673 C1677 1.408 1_565 S
C1674 C1672 1.363 . S
C1674 C1675 1.382 . S
C1674 C1678 1.524 . S
C1675 C1667 1.499 1_565 S
C1675 C1674 1.382 . S
C1675 C1676 1.396 1_565 S
C1676 C1675 1.396 1_545 S
C1676 C1677 1.404 . S
C1676 C1679 1.539 . S
C1677 C1673 1.408 1_545 S
C1677 C1676 1.404 . S
C1677 H1689 0.930 . S
C1678 C1674 1.524 . S
C1678 H1690 0.956 . S
C1678 H1691 0.961 . S
C1678 H1692 0.961 . S
C1679 C1676 1.539 . S
C1679 H1693 0.958 . S
C1679 H1694 0.961 . S
C1679 H1695 0.960 . S
H1680 C1664 0.931 . S
H1681 C1669 0.917 1_565 S
H1682 C1670 0.960 . S
H1683 C1670 0.962 . S
H1684 C1670 0.960 . S
H1685 C1671 0.961 . S
H1686 C1671 0.961 . S
H1687 C1671 0.961 . S
H1688 C1672 0.931 . S
H1689 C1677 0.930 . S
H1690 C1678 0.956 . S
H1691 C1678 0.961 . S
H1692 C1678 0.961 . S
H1693 C1679 0.958 . S
H1694 C1679 0.961 . S
H1695 C1679 0.960 . S
C1696 C1697 1.391 1_554 S
C1696 C1698 1.394 . S
C1696 H1712 0.931 . S
C1697 C1696 1.391 1_556 S
C1697 C1701 1.376 . S
C1698 C1696 1.394 . S
C1698 C1699 1.369 1_554 S
C1698 C1702 1.531 . S
C1699 C1698 1.369 1_556 S
C1699 C1700 1.410 . S
C1699 C1707 1.503 1_556 S
C1700 C1699 1.410 . S
C1700 C1701 1.392 . S
C1700 C1703 1.511 . S
C1701 C1697 1.376 . S
C1701 C1700 1.392 . S
C1701 H1713 0.929 . S
C1702 C1698 1.531 . S
C1702 H1714 0.960 . S
C1702 H1715 0.962 . S
C1702 H1716 0.960 . S
C1703 C1700 1.511 . S
C1703 H1717 0.961 . S
C1703 H1718 0.961 . S
C1703 H1719 0.961 . S
C1704 C1705 1.370 . S
C1704 C1706 1.363 . S
C1704 H1720 0.931 . S
C1705 C1704 1.370 . S
C1705 C1709 1.408 . S
C1706 C1704 1.363 . S
C1706 C1707 1.370 . S
C1706 C1710 1.524 . S
C1707 C1699 1.503 1_554 S
C1707 C1706 1.370 . S
C1707 C1708 1.403 . S
C1708 C1707 1.403 . S
C1708 C1709 1.404 . S
C1708 C1711 1.539 1_554 S
C1709 C1705 1.408 . S
C1709 C1708 1.404 . S
C1709 H1721 0.930 . S
C1710 C1706 1.524 . S
C1710 H1722 0.956 . S
C1710 H1723 0.961 1_554 S
C1710 H1724 0.961 . S
C1711 C1708 1.539 1_556 S
C1711 H1725 0.958 1_556 S
C1711 H1726 0.961 . S
C1711 H1727 0.960 . S
H1712 C1696 0.931 . S
H1713 C1701 0.929 . S
H1714 C1702 0.960 . S
H1715 C1702 0.962 . S
H1716 C1702 0.960 . S
H1717 C1703 0.961 . S
H1718 C1703 0.961 . S
H1719 C1703 0.961 . S
H1720 C1704 0.931 . S
H1721 C1709 0.930 . S
H1722 C1710 0.956 . S
H1723 C1710 0.961 1_556 S
H1724 C1710 0.961 . S
H1725 C1711 0.958 1_554 S
H1726 C1711 0.961 . S
H1727 C1711 0.960 . S
C1728 C1729 1.391 . S
C1728 C1730 1.394 1_554 S
C1728 H1744 0.931 . S
C1729 C1728 1.391 . S
C1729 C1733 1.376 . S
C1730 C1728 1.394 1_556 S
C1730 C1731 1.369 . S
C1730 C1734 1.531 . S
C1731 C1730 1.369 . S
C1731 C1732 1.410 1_556 S
C1731 C1739 1.503 . S
C1732 C1731 1.410 1_554 S
C1732 C1733 1.392 . S
C1732 C1735 1.511 . S
C1733 C1729 1.376 . S
C1733 C1732 1.392 . S
C1733 H1745 0.929 . S
C1734 C1730 1.531 . S
C1734 H1746 0.960 . S
C1734 H1747 0.962 . S
C1734 H1748 0.960 . S
C1735 C1732 1.511 . S
C1735 H1749 0.961 . S
C1735 H1750 0.961 . S
C1735 H1751 0.961 1_554 S
C1736 C1737 1.370 1_554 S
C1736 C1738 1.363 . S
C1736 H1752 0.931 . S
C1737 C1736 1.370 1_556 S
C1737 C1741 1.408 . S
C1738 C1736 1.363 . S
C1738 C1739 1.370 1_554 S
C1738 C1742 1.524 . S
C1739 C1731 1.503 . S
C1739 C1738 1.370 1_556 S
C1739 C1740 1.403 . S
C1740 C1739 1.403 . S
C1740 C1741 1.404 . S
C1740 C1743 1.539 . S
C1741 C1737 1.408 . S
C1741 C1740 1.404 . S
C1741 H1753 0.930 . S
C1742 C1738 1.524 . S
C1742 H1754 0.956 . S
C1742 H1755 0.961 . S
C1742 H1756 0.961 . S
C1743 C1740 1.539 . S
C1743 H1757 0.958 . S
C1743 H1758 0.961 . S
C1743 H1759 0.960 . S
H1744 C1728 0.931 . S
H1745 C1733 0.929 . S
H1746 C1734 0.960 . S
H1747 C1734 0.962 . S
H1748 C1734 0.960 . S
H1749 C1735 0.961 . S
H1750 C1735 0.961 . S
H1751 C1735 0.961 1_556 S
H1752 C1736 0.931 . S
H1753 C1741 0.930 . S
H1754 C1742 0.956 . S
H1755 C1742 0.961 . S
H1756 C1742 0.961 . S
H1757 C1743 0.958 . S
H1758 C1743 0.961 . S
H1759 C1743 0.960 . S
C1760 C1761 1.391 . S
C1760 C1762 1.394 . S
C1760 H1776 0.931 . S
C1761 C1760 1.391 . S
C1761 C1765 1.376 . S
C1762 C1760 1.394 . S
C1762 C1763 1.369 1_554 S
C1762 C1766 1.531 1_554 S
C1763 C1762 1.369 1_556 S
C1763 C1764 1.410 1_556 S
C1763 C1771 1.503 . S
C1764 C1763 1.410 1_554 S
C1764 C1765 1.392 . S
C1764 C1767 1.511 1_554 S
C1765 C1761 1.376 . S
C1765 C1764 1.392 . S
C1765 H1777 0.929 . S
C1766 C1762 1.531 1_556 S
C1766 H1778 0.960 . S
C1766 H1779 0.962 1_556 S
C1766 H1780 0.960 . S
C1767 C1764 1.511 1_556 S
C1767 H1781 0.961 1_556 S
C1767 H1782 0.966 . S
C1767 H1783 0.961 . S
C1768 C1769 1.370 1_554 S
C1768 C1770 1.363 . S
C1768 H1784 0.931 . S
C1769 C1768 1.370 1_556 S
C1769 C1773 1.408 . S
C1770 C1768 1.363 . S
C1770 C1771 1.370 1_554 S
C1770 C1774 1.524 . S
C1771 C1763 1.503 . S
C1771 C1770 1.370 1_556 S
C1771 C1772 1.403 . S
C1772 C1771 1.403 . S
C1772 C1773 1.404 . S
C1772 C1775 1.539 . S
C1773 C1769 1.408 . S
C1773 C1772 1.404 . S
C1773 H1785 0.930 . S
C1774 C1770 1.524 . S
C1774 H1786 0.956 . S
C1774 H1787 0.961 . S
C1774 H1788 0.961 . S
C1775 C1772 1.539 . S
C1775 H1789 0.958 . S
C1775 H1790 0.961 . S
C1775 H1791 0.960 . S
H1776 C1760 0.931 . S
H1777 C1765 0.929 . S
H1778 C1766 0.960 . S
H1779 C1766 0.962 1_554 S
H1780 C1766 0.960 . S
H1781 C1767 0.961 1_554 S
H1782 C1767 0.966 . S
H1783 C1767 0.961 . S
H1784 C1768 0.931 . S
H1785 C1773 0.930 . S
H1786 C1774 0.956 . S
H1787 C1774 0.961 . S
H1788 C1774 0.961 . S
H1789 C1775 0.958 . S
H1790 C1775 0.961 . S
H1791 C1775 0.960 . S
C1792 C1793 1.391 . S
C1792 C1794 1.394 . S
C1792 H1808 0.931 . S
C1793 C1792 1.391 . S
C1793 C1797 1.376 . S
C1794 C1792 1.394 . S
C1794 C1795 1.369 1_556 S
C1794 C1798 1.531 1_556 S
C1795 C1794 1.369 1_554 S
C1795 C1796 1.410 1_554 S
C1795 C1803 1.503 . S
C1796 C1795 1.410 1_556 S
C1796 C1797 1.392 . S
C1796 C1799 1.511 1_556 S
C1797 C1793 1.376 . S
C1797 C1796 1.392 . S
C1797 H1809 0.929 . S
C1798 C1794 1.531 1_554 S
C1798 H1810 0.960 . S
C1798 H1811 0.962 1_554 S
C1798 H1812 0.960 . S
C1799 C1796 1.511 1_554 S
C1799 H1813 0.961 1_554 S
C1799 H1814 0.961 1_554 S
C1799 H1815 0.961 . S
C1800 C1801 1.370 1_556 S
C1800 C1802 1.363 . S
C1800 H1816 0.931 . S
C1801 C1800 1.370 1_554 S
C1801 C1805 1.408 . S
C1802 C1800 1.363 . S
C1802 C1803 1.370 1_556 S
C1802 C1806 1.524 . S
C1803 C1795 1.503 . S
C1803 C1802 1.370 1_554 S
C1803 C1804 1.403 . S
C1804 C1803 1.403 . S
C1804 C1805 1.404 . S
C1804 C1807 1.539 . S
C1805 C1801 1.408 . S
C1805 C1804 1.404 . S
C1805 H1817 0.930 . S
C1806 C1802 1.524 . S
C1806 H1818 0.956 . S
C1806 H1819 0.961 . S
C1806 H1820 0.961 . S
C1807 C1804 1.539 . S
C1807 H1821 0.958 . S
C1807 H1822 0.961 . S
C1807 H1823 0.960 . S
H1808 C1792 0.931 . S
H1809 C1797 0.929 . S
H1810 C1798 0.960 . S
H1811 C1798 0.962 1_556 S
H1812 C1798 0.960 . S
H1813 C1799 0.961 1_556 S
H1814 C1799 0.961 1_556 S
H1815 C1799 0.961 . S
H1816 C1800 0.931 . S
H1817 C1805 0.930 . S
H1818 C1806 0.956 . S
H1819 C1806 0.961 . S
H1820 C1806 0.961 . S
H1821 C1807 0.958 . S
H1822 C1807 0.961 . S
H1823 C1807 0.960 . S
C1824 C1825 1.391 . S
C1824 C1826 1.394 . S
C1824 H1840 0.931 . S
C1825 C1824 1.391 . S
C1825 C1829 1.376 . S
C1826 C1824 1.394 . S
C1826 C1827 1.369 . S
C1826 C1830 1.531 . S
C1827 C1826 1.369 . S
C1827 C1828 1.410 . S
C1827 C1835 1.503 . S
C1828 C1827 1.410 . S
C1828 C1829 1.392 . S
C1828 C1831 1.511 . S
C1829 C1825 1.376 . S
C1829 C1828 1.392 . S
C1829 H1841 0.929 . S
C1830 C1826 1.531 . S
C1830 H1842 0.960 . S
C1830 H1843 0.962 . S
C1830 H1844 0.960 . S
C1831 C1828 1.511 . S
C1831 H1845 0.961 . S
C1831 H1846 0.961 . S
C1831 H1847 0.961 . S
C1832 C1833 1.370 . S
C1832 C1834 1.363 . S
C1832 H1848 0.931 . S
C1833 C1832 1.370 . S
C1833 C1837 1.408 . S
C1834 C1832 1.363 . S
C1834 C1835 1.370 . S
C1834 C1838 1.524 . S
C1835 C1827 1.503 . S
C1835 C1834 1.370 . S
C1835 C1836 1.403 . S
C1836 C1835 1.403 . S
C1836 C1837 1.404 . S
C1836 C1839 1.539 . S
C1837 C1833 1.408 . S
C1837 C1836 1.404 . S
C1837 H1849 0.930 . S
C1838 C1834 1.524 . S
C1838 H1850 0.956 . S
C1838 H1851 0.961 . S
C1838 H1852 0.961 . S
C1839 C1836 1.539 . S
C1839 H1853 0.958 . S
C1839 H1854 0.961 . S
C1839 H1855 0.960 . S
H1840 C1824 0.931 . S
H1841 C1829 0.929 . S
H1842 C1830 0.960 . S
H1843 C1830 0.962 . S
H1844 C1830 0.960 . S
H1845 C1831 0.961 . S
H1846 C1831 0.961 . S
H1847 C1831 0.961 . S
H1848 C1832 0.931 . S
H1849 C1837 0.930 . S
H1850 C1838 0.956 . S
H1851 C1838 0.961 . S
H1852 C1838 0.961 . S
H1853 C1839 0.958 . S
H1854 C1839 0.961 . S
H1855 C1839 0.960 . S
C1856 C1857 1.391 . S
C1856 C1858 1.394 . S
C1856 H1872 0.931 . S
C1857 C1856 1.391 . S
C1857 C1861 1.376 . S
C1858 C1856 1.394 . S
C1858 C1859 1.369 . S
C1858 C1862 1.531 . S
C1859 C1858 1.369 . S
C1859 C1860 1.410 . S
C1859 C1867 1.503 . S
C1860 C1859 1.410 . S
C1860 C1861 1.392 . S
C1860 C1863 1.511 . S
C1861 C1857 1.376 . S
C1861 C1860 1.392 . S
C1861 H1873 0.929 . S
C1862 C1858 1.531 . S
C1862 H1874 0.960 . S
C1862 H1875 0.962 . S
C1862 H1876 0.960 . S
C1863 C1860 1.511 . S
C1863 H1877 0.961 . S
C1863 H1878 0.961 . S
C1863 H1879 0.961 . S
C1864 C1865 1.370 . S
C1864 C1866 1.363 . S
C1864 H1880 0.931 . S
C1865 C1864 1.370 . S
C1865 C1869 1.408 . S
C1866 C1864 1.363 . S
C1866 C1867 1.370 . S
C1866 C1870 1.524 . S
C1867 C1859 1.503 . S
C1867 C1866 1.370 . S
C1867 C1868 1.403 . S
C1868 C1867 1.403 . S
C1868 C1869 1.404 . S
C1868 C1871 1.539 . S
C1869 C1865 1.408 . S
C1869 C1868 1.404 . S
C1869 H1881 0.930 . S
C1870 C1866 1.524 . S
C1870 H1882 0.956 . S
C1870 H1883 0.961 . S
C1870 H1884 0.961 . S
C1871 C1868 1.539 . S
C1871 H1885 0.958 . S
C1871 H1886 0.961 . S
C1871 H1887 0.960 . S
H1872 C1856 0.931 . S
H1873 C1861 0.929 . S
H1874 C1862 0.960 . S
H1875 C1862 0.962 . S
H1876 C1862 0.960 . S
H1877 C1863 0.961 . S
H1878 C1863 0.961 . S
H1879 C1863 0.961 . S
H1880 C1864 0.931 . S
H1881 C1869 0.930 . S
H1882 C1870 0.956 . S
H1883 C1870 0.961 . S
H1884 C1870 0.961 . S
H1885 C1871 0.958 . S
H1886 C1871 0.961 . S
H1887 C1871 0.960 . S
C1888 C1889 1.391 . S
C1888 C1890 1.394 . S
C1888 H1904 0.931 . S
C1889 C1888 1.391 . S
C1889 C1893 1.376 . S
C1890 C1888 1.394 . S
C1890 C1891 1.369 . S
C1890 C1894 1.531 . S
C1891 C1890 1.369 . S
C1891 C1892 1.410 . S
C1891 C1899 1.503 . S
C1892 C1891 1.410 . S
C1892 C1893 1.392 . S
C1892 C1895 1.511 . S
C1893 C1889 1.376 . S
C1893 C1892 1.392 . S
C1893 H1905 0.929 . S
C1894 C1890 1.531 . S
C1894 H1906 0.960 . S
C1894 H1907 0.962 . S
C1894 H1908 0.960 . S
C1895 C1892 1.511 . S
C1895 H1909 0.961 . S
C1895 H1910 0.961 . S
C1895 H1911 0.961 . S
C1896 C1897 1.370 . S
C1896 C1898 1.363 . S
C1896 H1912 0.931 . S
C1897 C1896 1.370 . S
C1897 C1901 1.408 . S
C1898 C1896 1.363 . S
C1898 C1899 1.370 . S
C1898 C1902 1.524 . S
C1899 C1891 1.503 . S
C1899 C1898 1.370 . S
C1899 C1900 1.403 . S
C1900 C1899 1.403 . S
C1900 C1901 1.404 . S
C1900 C1903 1.539 . S
C1901 C1897 1.408 . S
C1901 C1900 1.404 . S
C1901 H1913 0.930 . S
C1902 C1898 1.524 . S
C1902 H1914 0.956 . S
C1902 H1915 0.961 . S
C1902 H1916 0.961 . S
C1903 C1900 1.539 . S
C1903 H1917 0.958 . S
C1903 H1918 0.961 . S
C1903 H1919 0.960 . S
H1904 C1888 0.931 . S
H1905 C1893 0.929 . S
H1906 C1894 0.960 . S
H1907 C1894 0.962 . S
H1908 C1894 0.960 . S
H1909 C1895 0.961 . S
H1910 C1895 0.961 . S
H1911 C1895 0.961 . S
H1912 C1896 0.931 . S
H1913 C1901 0.930 . S
H1914 C1902 0.956 . S
H1915 C1902 0.961 . S
H1916 C1902 0.961 . S
H1917 C1903 0.958 . S
H1918 C1903 0.961 . S
H1919 C1903 0.960 . S
C1920 C1921 1.391 . S
C1920 C1922 1.394 . S
C1920 H1936 0.931 . S
C1921 C1920 1.391 . S
C1921 C1925 1.376 . S
C1922 C1920 1.394 . S
C1922 C1923 1.369 . S
C1922 C1926 1.531 . S
C1923 C1922 1.369 . S
C1923 C1924 1.410 . S
C1923 C1931 1.503 . S
C1924 C1923 1.410 . S
C1924 C1925 1.392 . S
C1924 C1927 1.511 . S
C1925 C1921 1.376 . S
C1925 C1924 1.392 . S
C1925 H1937 0.929 . S
C1926 C1922 1.531 . S
C1926 H1938 0.960 . S
C1926 H1939 0.962 . S
C1926 H1940 0.960 . S
C1927 C1924 1.511 . S
C1927 H1941 0.961 . S
C1927 H1942 0.961 . S
C1927 H1943 0.961 . S
C1928 C1929 1.370 . S
C1928 C1930 1.363 . S
C1928 H1944 0.931 . S
C1929 C1928 1.370 . S
C1929 C1933 1.408 . S
C1930 C1928 1.363 . S
C1930 C1931 1.370 . S
C1930 C1934 1.524 . S
C1931 C1923 1.503 . S
C1931 C1930 1.370 . S
C1931 C1932 1.403 . S
C1932 C1931 1.403 . S
C1932 C1933 1.404 . S
C1932 C1935 1.539 . S
C1933 C1929 1.408 . S
C1933 C1932 1.404 . S
C1933 H1945 0.930 . S
C1934 C1930 1.524 . S
C1934 H1946 0.956 . S
C1934 H1947 0.961 . S
C1934 H1948 0.961 . S
C1935 C1932 1.539 . S
C1935 H1949 0.958 . S
C1935 H1950 0.961 . S
C1935 H1951 0.960 . S
H1936 C1920 0.931 . S
H1937 C1925 0.929 . S
H1938 C1926 0.960 . S
H1939 C1926 0.962 . S
H1940 C1926 0.960 . S
H1941 C1927 0.961 . S
H1942 C1927 0.961 . S
H1943 C1927 0.961 . S
H1944 C1928 0.931 . S
H1945 C1933 0.930 . S
H1946 C1934 0.956 . S
H1947 C1934 0.961 . S
H1948 C1934 0.961 . S
H1949 C1935 0.958 . S
H1950 C1935 0.961 . S
H1951 C1935 0.960 . S
C1952 C1953 1.391 . S
C1952 C1954 1.394 . S
C1952 H1968 0.931 . S
C1953 C1952 1.391 . S
C1953 C1957 1.376 . S
C1954 C1952 1.394 . S
C1954 C1955 1.369 . S
C1954 C1958 1.531 . S
C1955 C1954 1.369 . S
C1955 C1956 1.410 . S
C1955 C1963 1.503 . S
C1956 C1955 1.410 . S
C1956 C1957 1.392 . S
C1956 C1959 1.511 . S
C1957 C1953 1.376 . S
C1957 C1956 1.392 . S
C1957 H1969 0.929 . S
C1958 C1954 1.531 . S
C1958 H1970 0.960 . S
C1958 H1971 0.962 . S
C1958 H1972 0.960 . S
C1959 C1956 1.511 . S
C1959 H1973 0.961 . S
C1959 H1974 0.961 . S
C1959 H1975 0.961 . S
C1960 C1961 1.370 . S
C1960 C1962 1.363 . S
C1960 H1976 0.931 . S
C1961 C1960 1.370 . S
C1961 C1965 1.408 . S
C1962 C1960 1.363 . S
C1962 C1963 1.370 . S
C1962 C1966 1.524 . S
C1963 C1955 1.503 . S
C1963 C1962 1.370 . S
C1963 C1964 1.403 . S
C1964 C1963 1.403 . S
C1964 C1965 1.404 . S
C1964 C1967 1.539 . S
C1965 C1961 1.408 . S
C1965 C1964 1.404 . S
C1965 H1977 0.930 . S
C1966 C1962 1.524 . S
C1966 H1978 0.956 . S
C1966 H1979 0.961 . S
C1966 H1980 0.961 . S
C1967 C1964 1.539 . S
C1967 H1981 0.958 . S
C1967 H1982 0.961 . S
C1967 H1983 0.960 . S
H1968 C1952 0.931 . S
H1969 C1957 0.929 . S
H1970 C1958 0.960 . S
H1971 C1958 0.962 . S
H1972 C1958 0.960 . S
H1973 C1959 0.961 . S
H1974 C1959 0.961 . S
H1975 C1959 0.961 . S
H1976 C1960 0.931 . S
H1977 C1965 0.930 . S
H1978 C1966 0.956 . S
H1979 C1966 0.961 . S
H1980 C1966 0.961 . S
H1981 C1967 0.958 . S
H1982 C1967 0.961 . S
H1983 C1967 0.960 . S
C1984 C1985 1.391 . S
C1984 C1986 1.394 . S
C1984 H2000 0.931 . S
C1985 C1984 1.391 . S
C1985 C1989 1.376 . S
C1986 C1984 1.394 . S
C1986 C1987 1.369 . S
C1986 C1990 1.531 . S
C1987 C1986 1.369 . S
C1987 C1988 1.410 . S
C1987 C1995 1.503 . S
C1988 C1987 1.410 . S
C1988 C1989 1.392 . S
C1988 C1991 1.511 . S
C1989 C1985 1.376 . S
C1989 C1988 1.392 . S
C1989 H2001 0.929 . S
C1990 C1986 1.531 . S
C1990 H2002 0.960 . S
C1990 H2003 0.962 . S
C1990 H2004 0.960 . S
C1991 C1988 1.511 . S
C1991 H2005 0.961 . S
C1991 H2006 0.961 . S
C1991 H2007 0.961 . S
C1992 C1993 1.370 . S
C1992 C1994 1.363 . S
C1992 H2008 0.931 . S
C1993 C1992 1.370 . S
C1993 C1997 1.408 . S
C1994 C1992 1.363 . S
C1994 C1995 1.370 . S
C1994 C1998 1.524 . S
C1995 C1987 1.503 . S
C1995 C1994 1.370 . S
C1995 C1996 1.403 . S
C1996 C1995 1.403 . S
C1996 C1997 1.404 . S
C1996 C1999 1.539 . S
C1997 C1993 1.408 . S
C1997 C1996 1.404 . S
C1997 H2009 0.930 . S
C1998 C1994 1.524 . S
C1998 H2010 0.956 . S
C1998 H2011 0.961 . S
C1998 H2012 0.961 . S
C1999 C1996 1.539 . S
C1999 H2013 0.958 . S
C1999 H2014 0.961 . S
C1999 H2015 0.960 . S
H2000 C1984 0.931 . S
H2001 C1989 0.929 . S
H2002 C1990 0.960 . S
H2003 C1990 0.962 . S
H2004 C1990 0.960 . S
H2005 C1991 0.961 . S
H2006 C1991 0.961 . S
H2007 C1991 0.961 . S
H2008 C1992 0.931 . S
H2009 C1997 0.930 . S
H2010 C1998 0.956 . S
H2011 C1998 0.961 . S
H2012 C1998 0.961 . S
H2013 C1999 0.958 . S
H2014 C1999 0.961 . S
H2015 C1999 0.960 . S
C2016 C2017 1.391 . S
C2016 C2018 1.394 . S
C2016 H2032 0.931 . S
C2017 C2016 1.391 . S
C2017 C2021 1.376 . S
C2018 C2016 1.394 . S
C2018 C2019 1.369 . S
C2018 C2022 1.531 . S
C2019 C2018 1.369 . S
C2019 C2020 1.410 . S
C2019 C2027 1.503 . S
C2020 C2019 1.410 . S
C2020 C2021 1.392 . S
C2020 C2023 1.511 . S
C2021 C2017 1.376 . S
C2021 C2020 1.392 . S
C2021 H2033 0.929 . S
C2022 C2018 1.531 . S
C2022 H2034 0.960 . S
C2022 H2035 0.962 . S
C2022 H2036 0.960 . S
C2023 C2020 1.511 . S
C2023 H2037 0.961 . S
C2023 H2038 0.961 . S
C2023 H2039 0.961 . S
C2024 C2025 1.370 . S
C2024 C2026 1.363 . S
C2024 H2040 0.931 . S
C2025 C2024 1.370 . S
C2025 C2029 1.408 . S
C2026 C2024 1.363 . S
C2026 C2027 1.370 . S
C2026 C2030 1.524 . S
C2027 C2019 1.503 . S
C2027 C2026 1.370 . S
C2027 C2028 1.403 . S
C2028 C2027 1.403 . S
C2028 C2029 1.404 . S
C2028 C2031 1.539 . S
C2029 C2025 1.408 . S
C2029 C2028 1.404 . S
C2029 H2041 0.930 . S
C2030 C2026 1.524 . S
C2030 H2042 0.956 . S
C2030 H2043 0.961 . S
C2030 H2044 0.961 . S
C2031 C2028 1.539 . S
C2031 H2045 0.958 . S
C2031 H2046 0.961 . S
C2031 H2047 0.960 . S
H2032 C2016 0.931 . S
H2033 C2021 0.929 . S
H2034 C2022 0.960 . S
H2035 C2022 0.962 . S
H2036 C2022 0.960 . S
H2037 C2023 0.961 . S
H2038 C2023 0.961 . S
H2039 C2023 0.961 . S
H2040 C2024 0.931 . S
H2041 C2029 0.930 . S
H2042 C2030 0.956 . S
H2043 C2030 0.961 . S
H2044 C2030 0.961 . S
H2045 C2031 0.958 . S
H2046 C2031 0.961 . S
H2047 C2031 0.960 . S
C2048 C2049 1.391 . S
C2048 C2050 1.394 . S
C2048 H2064 0.931 . S
C2049 C2048 1.391 . S
C2049 C2053 1.376 . S
C2050 C2048 1.394 . S
C2050 C2051 1.369 . S
C2050 C2054 1.531 . S
C2051 C2050 1.369 . S
C2051 C2052 1.410 . S
C2051 C2059 1.503 . S
C2052 C2051 1.410 . S
C2052 C2053 1.392 . S
C2052 C2055 1.511 . S
C2053 C2049 1.376 . S
C2053 C2052 1.392 . S
C2053 H2065 0.929 . S
C2054 C2050 1.531 . S
C2054 H2066 0.960 . S
C2054 H2067 0.962 . S
C2054 H2068 0.960 . S
C2055 C2052 1.511 . S
C2055 H2069 0.961 . S
C2055 H2070 0.961 . S
C2055 H2071 0.961 . S
C2056 C2057 1.370 . S
C2056 C2058 1.363 . S
C2056 H2072 0.931 . S
C2057 C2056 1.370 . S
C2057 C2061 1.408 . S
C2058 C2056 1.363 . S
C2058 C2059 1.370 . S
C2058 C2062 1.524 . S
C2059 C2051 1.503 . S
C2059 C2058 1.370 . S
C2059 C2060 1.403 . S
C2060 C2059 1.403 . S
C2060 C2061 1.404 . S
C2060 C2063 1.539 . S
C2061 C2057 1.408 . S
C2061 C2060 1.404 . S
C2061 H2073 0.930 . S
C2062 C2058 1.524 . S
C2062 H2074 0.956 . S
C2062 H2075 0.961 . S
C2062 H2076 0.961 . S
C2063 C2060 1.539 . S
C2063 H2077 0.958 . S
C2063 H2078 0.961 . S
C2063 H2079 0.960 . S
H2064 C2048 0.931 . S
H2065 C2053 0.929 . S
H2066 C2054 0.960 . S
H2067 C2054 0.962 . S
H2068 C2054 0.960 . S
H2069 C2055 0.961 . S
H2070 C2055 0.961 . S
H2071 C2055 0.961 . S
H2072 C2056 0.931 . S
H2073 C2061 0.930 . S
H2074 C2062 0.956 . S
H2075 C2062 0.961 . S
H2076 C2062 0.961 . S
H2077 C2063 0.958 . S
H2078 C2063 0.961 . S
H2079 C2063 0.960 . S
C2080 C2081 1.391 . S
C2080 C2082 1.394 . S
C2080 H2096 0.931 . S
C2081 C2080 1.391 . S
C2081 C2085 1.376 . S
C2082 C2080 1.394 . S
C2082 C2083 1.369 . S
C2082 C2086 1.531 . S
C2083 C2082 1.369 . S
C2083 C2084 1.410 . S
C2083 C2091 1.503 . S
C2084 C2083 1.410 . S
C2084 C2085 1.392 . S
C2084 C2087 1.511 . S
C2085 C2081 1.376 . S
C2085 C2084 1.392 . S
C2085 H2097 0.929 . S
C2086 C2082 1.531 . S
C2086 H2098 0.960 . S
C2086 H2099 0.962 . S
C2086 H2100 0.960 . S
C2087 C2084 1.511 . S
C2087 H2101 0.961 . S
C2087 H2102 0.961 . S
C2087 H2103 0.961 . S
C2088 C2089 1.370 . S
C2088 C2090 1.363 . S
C2088 H2104 0.931 . S
C2089 C2088 1.370 . S
C2089 C2093 1.408 . S
C2090 C2088 1.363 . S
C2090 C2091 1.370 . S
C2090 C2094 1.524 . S
C2091 C2083 1.503 . S
C2091 C2090 1.370 . S
C2091 C2092 1.403 . S
C2092 C2091 1.403 . S
C2092 C2093 1.404 . S
C2092 C2095 1.539 . S
C2093 C2089 1.408 . S
C2093 C2092 1.404 . S
C2093 H2105 0.930 . S
C2094 C2090 1.524 . S
C2094 H2106 0.956 . S
C2094 H2107 0.961 . S
C2094 H2108 0.961 . S
C2095 C2092 1.539 . S
C2095 H2109 0.958 . S
C2095 H2110 0.961 . S
C2095 H2111 0.960 . S
H2096 C2080 0.931 . S
H2097 C2085 0.929 . S
H2098 C2086 0.960 . S
H2099 C2086 0.962 . S
H2100 C2086 0.960 . S
H2101 C2087 0.961 . S
H2102 C2087 0.961 . S
H2103 C2087 0.961 . S
H2104 C2088 0.931 . S
H2105 C2093 0.930 . S
H2106 C2094 0.956 . S
H2107 C2094 0.961 . S
H2108 C2094 0.961 . S
H2109 C2095 0.958 . S
H2110 C2095 0.961 . S
H2111 C2095 0.960 . S
C2112 C2113 1.391 . S
C2112 C2114 1.394 . S
C2112 H2128 0.931 . S
C2113 C2112 1.391 . S
C2113 C2117 1.376 . S
C2114 C2112 1.394 . S
C2114 C2115 1.369 . S
C2114 C2118 1.531 . S
C2115 C2114 1.369 . S
C2115 C2116 1.410 . S
C2115 C2123 1.503 . S
C2116 C2115 1.410 . S
C2116 C2117 1.392 . S
C2116 C2119 1.511 . S
C2117 C2113 1.376 . S
C2117 C2116 1.392 . S
C2117 H2129 0.929 . S
C2118 C2114 1.531 . S
C2118 H2130 0.960 . S
C2118 H2131 0.962 . S
C2118 H2132 0.960 . S
C2119 C2116 1.511 . S
C2119 H2133 0.961 . S
C2119 H2134 0.961 . S
C2119 H2135 0.961 . S
C2120 C2121 1.370 . S
C2120 C2122 1.363 . S
C2120 H2136 0.931 . S
C2121 C2120 1.370 . S
C2121 C2125 1.408 . S
C2122 C2120 1.363 . S
C2122 C2123 1.370 . S
C2122 C2126 1.524 . S
C2123 C2115 1.503 . S
C2123 C2122 1.370 . S
C2123 C2124 1.403 . S
C2124 C2123 1.403 . S
C2124 C2125 1.404 . S
C2124 C2127 1.539 . S
C2125 C2121 1.408 . S
C2125 C2124 1.404 . S
C2125 H2137 0.930 . S
C2126 C2122 1.524 . S
C2126 H2138 0.956 . S
C2126 H2139 0.961 . S
C2126 H2140 0.961 . S
C2127 C2124 1.539 . S
C2127 H2141 0.958 . S
C2127 H2142 0.961 . S
C2127 H2143 0.960 . S
H2128 C2112 0.931 . S
H2129 C2117 0.929 . S
H2130 C2118 0.960 . S
H2131 C2118 0.962 . S
H2132 C2118 0.960 . S
H2133 C2119 0.961 . S
H2134 C2119 0.961 . S
H2135 C2119 0.961 . S
H2136 C2120 0.931 . S
H2137 C2125 0.930 . S
H2138 C2126 0.956 . S
H2139 C2126 0.961 . S
H2140 C2126 0.961 . S
H2141 C2127 0.958 . S
H2142 C2127 0.961 . S
H2143 C2127 0.960 . S
C2144 C2145 1.391 . S
C2144 C2146 1.394 . S
C2144 H2160 0.931 . S
C2145 C2144 1.391 . S
C2145 C2149 1.376 . S
C2146 C2144 1.394 . S
C2146 C2147 1.369 . S
C2146 C2150 1.531 . S
C2147 C2146 1.369 . S
C2147 C2148 1.410 . S
C2147 C2155 1.503 . S
C2148 C2147 1.410 . S
C2148 C2149 1.392 . S
C2148 C2151 1.511 . S
C2149 C2145 1.376 . S
C2149 C2148 1.392 . S
C2149 H2161 0.929 . S
C2150 C2146 1.531 . S
C2150 H2162 0.960 . S
C2150 H2163 0.962 . S
C2150 H2164 0.960 . S
C2151 C2148 1.511 . S
C2151 H2165 0.961 . S
C2151 H2166 0.961 . S
C2151 H2167 0.961 . S
C2152 C2153 1.370 . S
C2152 C2154 1.363 . S
C2152 H2168 0.931 . S
C2153 C2152 1.370 . S
C2153 C2157 1.408 . S
C2154 C2152 1.363 . S
C2154 C2155 1.370 . S
C2154 C2158 1.524 . S
C2155 C2147 1.503 . S
C2155 C2154 1.370 . S
C2155 C2156 1.403 . S
C2156 C2155 1.403 . S
C2156 C2157 1.404 . S
C2156 C2159 1.539 . S
C2157 C2153 1.408 . S
C2157 C2156 1.404 . S
C2157 H2169 0.930 . S
C2158 C2154 1.524 . S
C2158 H2170 0.956 . S
C2158 H2171 0.961 . S
C2158 H2172 0.961 . S
C2159 C2156 1.539 . S
C2159 H2173 0.958 . S
C2159 H2174 0.961 . S
C2159 H2175 0.960 . S
H2160 C2144 0.931 . S
H2161 C2149 0.929 . S
H2162 C2150 0.960 . S
H2163 C2150 0.962 . S
H2164 C2150 0.960 . S
H2165 C2151 0.961 . S
H2166 C2151 0.961 . S
H2167 C2151 0.961 . S
H2168 C2152 0.931 . S
H2169 C2157 0.930 . S
H2170 C2158 0.956 . S
H2171 C2158 0.961 . S
H2172 C2158 0.961 . S
H2173 C2159 0.958 . S
H2174 C2159 0.961 . S
H2175 C2159 0.960 . S
C2176 C2177 1.391 . S
C2176 C2178 1.394 . S
C2176 H2192 0.931 . S
C2177 C2176 1.391 . S
C2177 C2181 1.376 . S
C2178 C2176 1.394 . S
C2178 C2179 1.369 . S
C2178 C2182 1.531 . S
C2179 C2178 1.369 . S
C2179 C2180 1.410 . S
C2179 C2187 1.503 . S
C2180 C2179 1.410 . S
C2180 C2181 1.392 . S
C2180 C2183 1.511 . S
C2181 C2177 1.376 . S
C2181 C2180 1.392 . S
C2181 H2193 0.929 . S
C2182 C2178 1.531 . S
C2182 H2194 0.960 . S
C2182 H2195 0.962 . S
C2182 H2196 0.960 . S
C2183 C2180 1.511 . S
C2183 H2197 0.961 . S
C2183 H2198 0.961 . S
C2183 H2199 0.961 . S
C2184 C2185 1.370 . S
C2184 C2186 1.363 . S
C2184 H2200 0.931 . S
C2185 C2184 1.370 . S
C2185 C2189 1.408 . S
C2186 C2184 1.363 . S
C2186 C2187 1.370 . S
C2186 C2190 1.524 . S
C2187 C2179 1.503 . S
C2187 C2186 1.370 . S
C2187 C2188 1.403 . S
C2188 C2187 1.403 . S
C2188 C2189 1.404 . S
C2188 C2191 1.539 . S
C2189 C2185 1.408 . S
C2189 C2188 1.404 . S
C2189 H2201 0.930 . S
C2190 C2186 1.524 . S
C2190 H2202 0.956 . S
C2190 H2203 0.961 . S
C2190 H2204 0.961 . S
C2191 C2188 1.539 . S
C2191 H2205 0.958 . S
C2191 H2206 0.961 . S
C2191 H2207 0.960 . S
H2192 C2176 0.931 . S
H2193 C2181 0.929 . S
H2194 C2182 0.960 . S
H2195 C2182 0.962 . S
H2196 C2182 0.960 . S
H2197 C2183 0.961 . S
H2198 C2183 0.961 . S
H2199 C2183 0.961 . S
H2200 C2184 0.931 . S
H2201 C2189 0.930 . S
H2202 C2190 0.956 . S
H2203 C2190 0.961 . S
H2204 C2190 0.961 . S
H2205 C2191 0.958 . S
H2206 C2191 0.961 . S
H2207 C2191 0.960 . S
C2208 C2209 1.391 . S
C2208 C2210 1.394 . S
C2208 H2224 0.931 . S
C2209 C2208 1.391 . S
C2209 C2213 1.376 . S
C2210 C2208 1.394 . S
C2210 C2211 1.369 . S
C2210 C2214 1.531 . S
C2211 C2210 1.369 . S
C2211 C2212 1.410 . S
C2211 C2219 1.503 . S
C2212 C2211 1.410 . S
C2212 C2213 1.392 . S
C2212 C2215 1.511 . S
C2213 C2209 1.376 . S
C2213 C2212 1.392 . S
C2213 H2225 0.929 . S
C2214 C2210 1.531 . S
C2214 H2226 0.960 . S
C2214 H2227 0.962 . S
C2214 H2228 0.960 . S
C2215 C2212 1.511 . S
C2215 H2229 0.961 . S
C2215 H2230 0.961 . S
C2215 H2231 0.961 . S
C2216 C2217 1.370 . S
C2216 C2218 1.363 . S
C2216 H2232 0.931 . S
C2217 C2216 1.370 . S
C2217 C2221 1.408 . S
C2218 C2216 1.363 . S
C2218 C2219 1.370 . S
C2218 C2222 1.524 . S
C2219 C2211 1.503 . S
C2219 C2218 1.370 . S
C2219 C2220 1.403 . S
C2220 C2219 1.403 . S
C2220 C2221 1.404 . S
C2220 C2223 1.539 . S
C2221 C2217 1.408 . S
C2221 C2220 1.404 . S
C2221 H2233 0.930 . S
C2222 C2218 1.524 . S
C2222 H2234 0.956 . S
C2222 H2235 0.961 . S
C2222 H2236 0.961 . S
C2223 C2220 1.539 . S
C2223 H2237 0.958 . S
C2223 H2238 0.961 . S
C2223 H2239 0.960 . S
H2224 C2208 0.931 . S
H2225 C2213 0.929 . S
H2226 C2214 0.960 . S
H2227 C2214 0.962 . S
H2228 C2214 0.960 . S
H2229 C2215 0.961 . S
H2230 C2215 0.961 . S
H2231 C2215 0.961 . S
H2232 C2216 0.931 . S
H2233 C2221 0.930 . S
H2234 C2222 0.956 . S
H2235 C2222 0.961 . S
H2236 C2222 0.961 . S
H2237 C2223 0.958 . S
H2238 C2223 0.961 . S
H2239 C2223 0.960 . S
C2240 C2241 1.391 . S
C2240 C2242 1.394 . S
C2240 H2256 0.931 . S
C2241 C2240 1.391 . S
C2241 C2245 1.376 . S
C2242 C2240 1.394 . S
C2242 C2243 1.369 . S
C2242 C2246 1.531 . S
C2243 C2242 1.369 . S
C2243 C2244 1.410 . S
C2243 C2251 1.503 . S
C2244 C2243 1.410 . S
C2244 C2245 1.392 . S
C2244 C2247 1.511 . S
C2245 C2241 1.376 . S
C2245 C2244 1.392 . S
C2245 H2257 0.929 . S
C2246 C2242 1.531 . S
C2246 H2258 0.960 . S
C2246 H2259 0.962 . S
C2246 H2260 0.960 . S
C2247 C2244 1.511 . S
C2247 H2261 0.961 . S
C2247 H2262 0.961 . S
C2247 H2263 0.961 . S
C2248 C2249 1.370 . S
C2248 C2250 1.363 . S
C2248 H2264 0.931 . S
C2249 C2248 1.370 . S
C2249 C2253 1.408 . S
C2250 C2248 1.363 . S
C2250 C2251 1.370 . S
C2250 C2254 1.524 . S
C2251 C2243 1.503 . S
C2251 C2250 1.370 . S
C2251 C2252 1.403 . S
C2252 C2251 1.403 . S
C2252 C2253 1.404 . S
C2252 C2255 1.539 . S
C2253 C2249 1.408 . S
C2253 C2252 1.404 . S
C2253 H2265 0.930 . S
C2254 C2250 1.524 . S
C2254 H2266 0.956 . S
C2254 H2267 0.961 . S
C2254 H2268 0.961 . S
C2255 C2252 1.539 . S
C2255 H2269 0.958 . S
C2255 H2270 0.961 . S
C2255 H2271 0.960 . S
H2256 C2240 0.931 . S
H2257 C2245 0.929 . S
H2258 C2246 0.960 . S
H2259 C2246 0.962 . S
H2260 C2246 0.960 . S
H2261 C2247 0.961 . S
H2262 C2247 0.961 . S
H2263 C2247 0.961 . S
H2264 C2248 0.931 . S
H2265 C2253 0.930 . S
H2266 C2254 0.956 . S
H2267 C2254 0.961 . S
H2268 C2254 0.961 . S
H2269 C2255 0.958 . S
H2270 C2255 0.961 . S
H2271 C2255 0.960 . S
C2272 C2273 1.391 . S
C2272 C2274 1.394 . S
C2272 H2288 0.931 . S
C2273 C2272 1.391 . S
C2273 C2277 1.376 . S
C2274 C2272 1.394 . S
C2274 C2275 1.369 . S
C2274 C2278 1.531 . S
C2275 C2274 1.369 . S
C2275 C2276 1.410 . S
C2275 C2283 1.503 . S
C2276 C2275 1.410 . S
C2276 C2277 1.392 . S
C2276 C2279 1.511 . S
C2277 C2273 1.376 . S
C2277 C2276 1.392 . S
C2277 H2289 0.929 . S
C2278 C2274 1.531 . S
C2278 H2290 0.960 . S
C2278 H2291 0.962 . S
C2278 H2292 0.960 . S
C2279 C2276 1.511 . S
C2279 H2293 0.961 . S
C2279 H2294 0.961 . S
C2279 H2295 0.961 . S
C2280 C2281 1.370 . S
C2280 C2282 1.363 . S
C2280 H2296 0.931 . S
C2281 C2280 1.370 . S
C2281 C2285 1.408 . S
C2282 C2280 1.363 . S
C2282 C2283 1.370 . S
C2282 C2286 1.524 . S
C2283 C2275 1.503 . S
C2283 C2282 1.370 . S
C2283 C2284 1.403 . S
C2284 C2283 1.403 . S
C2284 C2285 1.404 . S
C2284 C2287 1.539 . S
C2285 C2281 1.408 . S
C2285 C2284 1.404 . S
C2285 H2297 0.930 . S
C2286 C2282 1.524 . S
C2286 H2298 0.956 . S
C2286 H2299 0.961 . S
C2286 H2300 0.961 . S
C2287 C2284 1.539 . S
C2287 H2301 0.958 . S
C2287 H2302 0.961 . S
C2287 H2303 0.960 . S
H2288 C2272 0.931 . S
H2289 C2277 0.929 . S
H2290 C2278 0.960 . S
H2291 C2278 0.962 . S
H2292 C2278 0.960 . S
H2293 C2279 0.961 . S
H2294 C2279 0.961 . S
H2295 C2279 0.961 . S
H2296 C2280 0.931 . S
H2297 C2285 0.930 . S
H2298 C2286 0.956 . S
H2299 C2286 0.961 . S
H2300 C2286 0.961 . S
H2301 C2287 0.958 . S
H2302 C2287 0.961 . S
H2303 C2287 0.960 . S
C2304 C2305 1.391 . S
C2304 C2306 1.394 . S
C2304 H2320 0.931 . S
C2305 C2304 1.391 . S
C2305 C2309 1.376 . S
C2306 C2304 1.394 . S
C2306 C2307 1.369 . S
C2306 C2310 1.531 . S
C2307 C2306 1.369 . S
C2307 C2308 1.410 . S
C2307 C2315 1.503 . S
C2308 C2307 1.410 . S
C2308 C2309 1.392 . S
C2308 C2311 1.511 . S
C2309 C2305 1.376 . S
C2309 C2308 1.392 . S
C2309 H2321 0.929 . S
C2310 C2306 1.531 . S
C2310 H2322 0.960 . S
C2310 H2323 0.962 . S
C2310 H2324 0.960 . S
C2311 C2308 1.511 . S
C2311 H2325 0.961 . S
C2311 H2326 0.961 . S
C2311 H2327 0.961 . S
C2312 C2313 1.370 . S
C2312 C2314 1.363 . S
C2312 H2328 0.931 . S
C2313 C2312 1.370 . S
C2313 C2317 1.408 . S
C2314 C2312 1.363 . S
C2314 C2315 1.370 . S
C2314 C2318 1.524 . S
C2315 C2307 1.503 . S
C2315 C2314 1.370 . S
C2315 C2316 1.403 . S
C2316 C2315 1.403 . S
C2316 C2317 1.404 . S
C2316 C2319 1.539 . S
C2317 C2313 1.408 . S
C2317 C2316 1.404 . S
C2317 H2329 0.930 . S
C2318 C2314 1.524 . S
C2318 H2330 0.956 . S
C2318 H2331 0.961 . S
C2318 H2332 0.961 . S
C2319 C2316 1.539 . S
C2319 H2333 0.958 . S
C2319 H2334 0.961 . S
C2319 H2335 0.960 . S
H2320 C2304 0.931 . S
H2321 C2309 0.929 . S
H2322 C2310 0.960 . S
H2323 C2310 0.962 . S
H2324 C2310 0.960 . S
H2325 C2311 0.961 . S
H2326 C2311 0.961 . S
H2327 C2311 0.961 . S
H2328 C2312 0.931 . S
H2329 C2317 0.930 . S
H2330 C2318 0.956 . S
H2331 C2318 0.961 . S
H2332 C2318 0.961 . S
H2333 C2319 0.958 . S
H2334 C2319 0.961 . S
H2335 C2319 0.960 . S
C2336 C2337 1.391 . S
C2336 C2338 1.394 . S
C2336 H2352 0.931 . S
C2337 C2336 1.391 . S
C2337 C2341 1.376 . S
C2338 C2336 1.394 . S
C2338 C2339 1.369 . S
C2338 C2342 1.531 . S
C2339 C2338 1.369 . S
C2339 C2340 1.410 . S
C2339 C2347 1.503 . S
C2340 C2339 1.410 . S
C2340 C2341 1.392 . S
C2340 C2343 1.511 . S
C2341 C2337 1.376 . S
C2341 C2340 1.392 . S
C2341 H2353 0.929 . S
C2342 C2338 1.531 . S
C2342 H2354 0.960 . S
C2342 H2355 0.962 . S
C2342 H2356 0.960 . S
C2343 C2340 1.511 . S
C2343 H2357 0.961 . S
C2343 H2358 0.961 . S
C2343 H2359 0.961 . S
C2344 C2345 1.370 . S
C2344 C2346 1.363 . S
C2344 H2360 0.931 . S
C2345 C2344 1.370 . S
C2345 C2349 1.408 . S
C2346 C2344 1.363 . S
C2346 C2347 1.370 . S
C2346 C2350 1.524 . S
C2347 C2339 1.503 . S
C2347 C2346 1.370 . S
C2347 C2348 1.403 . S
C2348 C2347 1.403 . S
C2348 C2349 1.404 . S
C2348 C2351 1.539 . S
C2349 C2345 1.408 . S
C2349 C2348 1.404 . S
C2349 H2361 0.930 . S
C2350 C2346 1.524 . S
C2350 H2362 0.956 . S
C2350 H2363 0.961 . S
C2350 H2364 0.961 . S
C2351 C2348 1.539 . S
C2351 H2365 0.958 . S
C2351 H2366 0.961 . S
C2351 H2367 0.960 . S
H2352 C2336 0.931 . S
H2353 C2341 0.929 . S
H2354 C2342 0.960 . S
H2355 C2342 0.962 . S
H2356 C2342 0.960 . S
H2357 C2343 0.961 . S
H2358 C2343 0.961 . S
H2359 C2343 0.961 . S
H2360 C2344 0.931 . S
H2361 C2349 0.930 . S
H2362 C2350 0.956 . S
H2363 C2350 0.961 . S
H2364 C2350 0.961 . S
H2365 C2351 0.958 . S
H2366 C2351 0.961 . S
H2367 C2351 0.960 . S
C2368 C2369 1.391 . S
C2368 C2370 1.394 . S
C2368 H2384 0.931 . S
C2369 C2368 1.391 . S
C2369 C2373 1.376 . S
C2370 C2368 1.394 . S
C2370 C2371 1.369 . S
C2370 C2374 1.531 . S
C2371 C2370 1.369 . S
C2371 C2372 1.410 . S
C2371 C2379 1.503 . S
C2372 C2371 1.410 . S
C2372 C2373 1.392 . S
C2372 C2375 1.511 . S
C2373 C2369 1.376 . S
C2373 C2372 1.392 . S
C2373 H2385 0.929 . S
C2374 C2370 1.531 . S
C2374 H2386 0.960 . S
C2374 H2387 0.962 . S
C2374 H2388 0.960 . S
C2375 C2372 1.511 . S
C2375 H2389 0.961 . S
C2375 H2390 0.961 . S
C2375 H2391 0.961 . S
C2376 C2377 1.370 . S
C2376 C2378 1.363 . S
C2376 H2392 0.931 . S
C2377 C2376 1.370 . S
C2377 C2381 1.408 . S
C2378 C2376 1.363 . S
C2378 C2379 1.370 . S
C2378 C2382 1.524 . S
C2379 C2371 1.503 . S
C2379 C2378 1.370 . S
C2379 C2380 1.403 . S
C2380 C2379 1.403 . S
C2380 C2381 1.404 . S
C2380 C2383 1.539 . S
C2381 C2377 1.408 . S
C2381 C2380 1.404 . S
C2381 H2393 0.930 . S
C2382 C2378 1.524 . S
C2382 H2394 0.956 . S
C2382 H2395 0.961 . S
C2382 H2396 0.961 . S
C2383 C2380 1.539 . S
C2383 H2397 0.958 . S
C2383 H2398 0.961 . S
C2383 H2399 0.960 . S
H2384 C2368 0.931 . S
H2385 C2373 0.929 . S
H2386 C2374 0.960 . S
H2387 C2374 0.962 . S
H2388 C2374 0.960 . S
H2389 C2375 0.961 . S
H2390 C2375 0.961 . S
H2391 C2375 0.961 . S
H2392 C2376 0.931 . S
H2393 C2381 0.930 . S
H2394 C2382 0.956 . S
H2395 C2382 0.961 . S
H2396 C2382 0.961 . S
H2397 C2383 0.958 . S
H2398 C2383 0.961 . S
H2399 C2383 0.960 . S
C2400 C2401 1.391 . S
C2400 C2402 1.394 . S
C2400 H2416 0.931 . S
C2401 C2400 1.391 . S
C2401 C2405 1.376 . S
C2402 C2400 1.394 . S
C2402 C2403 1.369 . S
C2402 C2406 1.531 . S
C2403 C2402 1.369 . S
C2403 C2404 1.410 . S
C2403 C2411 1.503 . S
C2404 C2403 1.410 . S
C2404 C2405 1.392 . S
C2404 C2407 1.511 . S
C2405 C2401 1.376 . S
C2405 C2404 1.392 . S
C2405 H2417 0.929 . S
C2406 C2402 1.531 . S
C2406 H2418 0.960 . S
C2406 H2419 0.962 . S
C2406 H2420 0.960 . S
C2407 C2404 1.511 . S
C2407 H2421 0.961 . S
C2407 H2422 0.961 . S
C2407 H2423 0.961 . S
C2408 C2409 1.370 . S
C2408 C2410 1.363 . S
C2408 H2424 0.931 . S
C2409 C2408 1.370 . S
C2409 C2413 1.408 . S
C2410 C2408 1.363 . S
C2410 C2411 1.370 . S
C2410 C2414 1.524 . S
C2411 C2403 1.503 . S
C2411 C2410 1.370 . S
C2411 C2412 1.403 . S
C2412 C2411 1.403 . S
C2412 C2413 1.404 . S
C2412 C2415 1.539 . S
C2413 C2409 1.408 . S
C2413 C2412 1.404 . S
C2413 H2425 0.930 . S
C2414 C2410 1.524 . S
C2414 H2426 0.956 . S
C2414 H2427 0.961 . S
C2414 H2428 0.961 . S
C2415 C2412 1.539 . S
C2415 H2429 0.958 . S
C2415 H2430 0.961 . S
C2415 H2431 0.960 . S
H2416 C2400 0.931 . S
H2417 C2405 0.929 . S
H2418 C2406 0.960 . S
H2419 C2406 0.962 . S
H2420 C2406 0.960 . S
H2421 C2407 0.961 . S
H2422 C2407 0.961 . S
H2423 C2407 0.961 . S
H2424 C2408 0.931 . S
H2425 C2413 0.930 . S
H2426 C2414 0.956 . S
H2427 C2414 0.961 . S
H2428 C2414 0.961 . S
H2429 C2415 0.958 . S
H2430 C2415 0.961 . S
H2431 C2415 0.960 . S
C2432 C2433 1.391 . S
C2432 C2434 1.394 . S
C2432 H2448 0.931 . S
C2433 C2432 1.391 . S
C2433 C2437 1.376 . S
C2434 C2432 1.394 . S
C2434 C2435 1.369 . S
C2434 C2438 1.531 . S
C2435 C2434 1.369 . S
C2435 C2436 1.410 . S
C2435 C2443 1.503 . S
C2436 C2435 1.410 . S
C2436 C2437 1.392 . S
C2436 C2439 1.511 . S
C2437 C2433 1.376 . S
C2437 C2436 1.392 . S
C2437 H2449 0.929 . S
C2438 C2434 1.531 . S
C2438 H2450 0.960 . S
C2438 H2451 0.962 . S
C2438 H2452 0.960 . S
C2439 C2436 1.511 . S
C2439 H2453 0.961 . S
C2439 H2454 0.961 . S
C2439 H2455 0.961 . S
C2440 C2441 1.370 . S
C2440 C2442 1.363 . S
C2440 H2456 0.931 . S
C2441 C2440 1.370 . S
C2441 C2445 1.408 . S
C2442 C2440 1.363 . S
C2442 C2443 1.370 . S
C2442 C2446 1.524 . S
C2443 C2435 1.503 . S
C2443 C2442 1.370 . S
C2443 C2444 1.403 . S
C2444 C2443 1.403 . S
C2444 C2445 1.404 . S
C2444 C2447 1.539 . S
C2445 C2441 1.408 . S
C2445 C2444 1.404 . S
C2445 H2457 0.930 . S
C2446 C2442 1.524 . S
C2446 H2458 0.956 . S
C2446 H2459 0.961 . S
C2446 H2460 0.961 . S
C2447 C2444 1.539 . S
C2447 H2461 0.958 . S
C2447 H2462 0.961 . S
C2447 H2463 0.960 . S
H2448 C2432 0.931 . S
H2449 C2437 0.929 . S
H2450 C2438 0.960 . S
H2451 C2438 0.962 . S
H2452 C2438 0.960 . S
H2453 C2439 0.961 . S
H2454 C2439 0.961 . S
H2455 C2439 0.961 . S
H2456 C2440 0.931 . S
H2457 C2445 0.930 . S
H2458 C2446 0.956 . S
H2459 C2446 0.961 . S
H2460 C2446 0.961 . S
H2461 C2447 0.958 . S
H2462 C2447 0.961 . S
H2463 C2447 0.960 . S
C2464 C2465 1.391 . S
C2464 C2466 1.394 . S
C2464 H2480 0.931 . S
C2465 C2464 1.391 . S
C2465 C2469 1.376 . S
C2466 C2464 1.394 . S
C2466 C2467 1.369 . S
C2466 C2470 1.531 . S
C2467 C2466 1.369 . S
C2467 C2468 1.410 . S
C2467 C2475 1.503 . S
C2468 C2467 1.410 . S
C2468 C2469 1.392 . S
C2468 C2471 1.511 . S
C2469 C2465 1.376 . S
C2469 C2468 1.392 . S
C2469 H2481 0.929 . S
C2470 C2466 1.531 . S
C2470 H2482 0.960 . S
C2470 H2483 0.962 . S
C2470 H2484 0.960 . S
C2471 C2468 1.511 . S
C2471 H2485 0.961 . S
C2471 H2486 0.961 . S
C2471 H2487 0.961 . S
C2472 C2473 1.370 . S
C2472 C2474 1.363 . S
C2472 H2488 0.931 . S
C2473 C2472 1.370 . S
C2473 C2477 1.408 . S
C2474 C2472 1.363 . S
C2474 C2475 1.370 . S
C2474 C2478 1.524 . S
C2475 C2467 1.503 . S
C2475 C2474 1.370 . S
C2475 C2476 1.403 . S
C2476 C2475 1.403 . S
C2476 C2477 1.404 . S
C2476 C2479 1.539 . S
C2477 C2473 1.408 . S
C2477 C2476 1.404 . S
C2477 H2489 0.930 . S
C2478 C2474 1.524 . S
C2478 H2490 0.956 . S
C2478 H2491 0.961 . S
C2478 H2492 0.961 . S
C2479 C2476 1.539 . S
C2479 H2493 0.958 . S
C2479 H2494 0.961 . S
C2479 H2495 0.960 . S
H2480 C2464 0.931 . S
H2481 C2469 0.929 . S
H2482 C2470 0.960 . S
H2483 C2470 0.962 . S
H2484 C2470 0.960 . S
H2485 C2471 0.961 . S
H2486 C2471 0.961 . S
H2487 C2471 0.961 . S
H2488 C2472 0.931 . S
H2489 C2477 0.930 . S
H2490 C2478 0.956 . S
H2491 C2478 0.961 . S
H2492 C2478 0.961 . S
H2493 C2479 0.958 . S
H2494 C2479 0.961 . S
H2495 C2479 0.960 . S
C2496 C2497 1.391 . S
C2496 C2498 1.394 . S
C2496 H2512 0.931 . S
C2497 C2496 1.391 . S
C2497 C2501 1.376 . S
C2498 C2496 1.394 . S
C2498 C2499 1.369 . S
C2498 C2502 1.531 . S
C2499 C2498 1.369 . S
C2499 C2500 1.410 . S
C2499 C2507 1.503 . S
C2500 C2499 1.410 . S
C2500 C2501 1.392 . S
C2500 C2503 1.511 . S
C2501 C2497 1.376 . S
C2501 C2500 1.392 . S
C2501 H2513 0.929 . S
C2502 C2498 1.531 . S
C2502 H2514 0.960 . S
C2502 H2515 0.962 . S
C2502 H2516 0.960 . S
C2503 C2500 1.511 . S
C2503 H2517 0.961 . S
C2503 H2518 0.961 . S
C2503 H2519 0.961 . S
C2504 C2505 1.370 . S
C2504 C2506 1.363 . S
C2504 H2520 0.931 . S
C2505 C2504 1.370 . S
C2505 C2509 1.408 . S
C2506 C2504 1.363 . S
C2506 C2507 1.370 . S
C2506 C2510 1.524 . S
C2507 C2499 1.503 . S
C2507 C2506 1.370 . S
C2507 C2508 1.403 . S
C2508 C2507 1.403 . S
C2508 C2509 1.404 . S
C2508 C2511 1.539 . S
C2509 C2505 1.408 . S
C2509 C2508 1.404 . S
C2509 H2521 0.930 . S
C2510 C2506 1.524 . S
C2510 H2522 0.956 . S
C2510 H2523 0.961 . S
C2510 H2524 0.961 . S
C2511 C2508 1.539 . S
C2511 H2525 0.958 . S
C2511 H2526 0.961 . S
C2511 H2527 0.960 . S
H2512 C2496 0.931 . S
H2513 C2501 0.929 . S
H2514 C2502 0.960 . S
H2515 C2502 0.962 . S
H2516 C2502 0.960 . S
H2517 C2503 0.961 . S
H2518 C2503 0.961 . S
H2519 C2503 0.961 . S
H2520 C2504 0.931 . S
H2521 C2509 0.930 . S
H2522 C2510 0.956 . S
H2523 C2510 0.961 . S
H2524 C2510 0.961 . S
H2525 C2511 0.958 . S
H2526 C2511 0.961 . S
H2527 C2511 0.960 . S
C2528 C2529 1.391 . S
C2528 C2530 1.394 . S
C2528 H2544 0.931 . S
C2529 C2528 1.391 . S
C2529 C2533 1.376 . S
C2530 C2528 1.394 . S
C2530 C2531 1.369 . S
C2530 C2534 1.531 . S
C2531 C2530 1.369 . S
C2531 C2532 1.410 . S
C2531 C2539 1.503 . S
C2532 C2531 1.410 . S
C2532 C2533 1.392 . S
C2532 C2535 1.511 . S
C2533 C2529 1.376 . S
C2533 C2532 1.392 . S
C2533 H2545 0.929 . S
C2534 C2530 1.531 . S
C2534 H2546 0.960 . S
C2534 H2547 0.962 . S
C2534 H2548 0.960 . S
C2535 C2532 1.511 . S
C2535 H2549 0.961 . S
C2535 H2550 0.961 . S
C2535 H2551 0.961 . S
C2536 C2537 1.370 . S
C2536 C2538 1.363 . S
C2536 H2552 0.931 . S
C2537 C2536 1.370 . S
C2537 C2541 1.408 . S
C2538 C2536 1.363 . S
C2538 C2539 1.370 . S
C2538 C2542 1.524 . S
C2539 C2531 1.503 . S
C2539 C2538 1.370 . S
C2539 C2540 1.403 . S
C2540 C2539 1.403 . S
C2540 C2541 1.404 . S
C2540 C2543 1.539 . S
C2541 C2537 1.408 . S
C2541 C2540 1.404 . S
C2541 H2553 0.930 . S
C2542 C2538 1.524 . S
C2542 H2554 0.956 . S
C2542 H2555 0.961 . S
C2542 H2556 0.961 . S
C2543 C2540 1.539 . S
C2543 H2557 0.958 . S
C2543 H2558 0.961 . S
C2543 H2559 0.960 . S
H2544 C2528 0.931 . S
H2545 C2533 0.929 . S
H2546 C2534 0.960 . S
H2547 C2534 0.962 . S
H2548 C2534 0.960 . S
H2549 C2535 0.961 . S
H2550 C2535 0.961 . S
H2551 C2535 0.961 . S
H2552 C2536 0.931 . S
H2553 C2541 0.930 . S
H2554 C2542 0.956 . S
H2555 C2542 0.961 . S
H2556 C2542 0.961 . S
H2557 C2543 0.958 . S
H2558 C2543 0.961 . S
H2559 C2543 0.960 . S
C2560 C2561 1.391 . S
C2560 C2562 1.394 . S
C2560 H2576 0.931 . S
C2561 C2560 1.391 . S
C2561 C2565 1.376 . S
C2562 C2560 1.394 . S
C2562 C2563 1.369 . S
C2562 C2566 1.531 . S
C2563 C2562 1.369 . S
C2563 C2564 1.410 . S
C2563 C2571 1.503 . S
C2564 C2563 1.410 . S
C2564 C2565 1.392 . S
C2564 C2567 1.511 . S
C2565 C2561 1.376 . S
C2565 C2564 1.392 . S
C2565 H2577 0.929 . S
C2566 C2562 1.531 . S
C2566 H2578 0.960 . S
C2566 H2579 0.962 . S
C2566 H2580 0.960 . S
C2567 C2564 1.511 . S
C2567 H2581 0.961 . S
C2567 H2582 0.961 . S
C2567 H2583 0.961 . S
C2568 C2569 1.370 . S
C2568 C2570 1.363 . S
C2568 H2584 0.931 . S
C2569 C2568 1.370 . S
C2569 C2573 1.408 . S
C2570 C2568 1.363 . S
C2570 C2571 1.370 . S
C2570 C2574 1.524 . S
C2571 C2563 1.503 . S
C2571 C2570 1.370 . S
C2571 C2572 1.403 . S
C2572 C2571 1.403 . S
C2572 C2573 1.404 . S
C2572 C2575 1.539 . S
C2573 C2569 1.408 . S
C2573 C2572 1.404 . S
C2573 H2585 0.930 . S
C2574 C2570 1.524 . S
C2574 H2586 0.956 . S
C2574 H2587 0.961 . S
C2574 H2588 0.961 . S
C2575 C2572 1.539 . S
C2575 H2589 0.958 . S
C2575 H2590 0.961 . S
C2575 H2591 0.960 . S
H2576 C2560 0.931 . S
H2577 C2565 0.929 . S
H2578 C2566 0.960 . S
H2579 C2566 0.962 . S
H2580 C2566 0.960 . S
H2581 C2567 0.961 . S
H2582 C2567 0.961 . S
H2583 C2567 0.961 . S
H2584 C2568 0.931 . S
H2585 C2573 0.930 . S
H2586 C2574 0.956 . S
H2587 C2574 0.961 . S
H2588 C2574 0.961 . S
H2589 C2575 0.958 . S
H2590 C2575 0.961 . S
H2591 C2575 0.960 . S
C2592 C2593 1.391 . S
C2592 C2594 1.394 . S
C2592 H2608 0.931 . S
C2593 C2592 1.391 . S
C2593 C2597 1.376 . S
C2594 C2592 1.394 . S
C2594 C2595 1.369 . S
C2594 C2598 1.531 . S
C2595 C2594 1.369 . S
C2595 C2596 1.410 . S
C2595 C2603 1.503 . S
C2596 C2595 1.410 . S
C2596 C2597 1.392 . S
C2596 C2599 1.511 . S
C2597 C2593 1.376 . S
C2597 C2596 1.392 . S
C2597 H2609 0.929 . S
C2598 C2594 1.531 . S
C2598 H2610 0.960 . S
C2598 H2611 0.962 . S
C2598 H2612 0.960 . S
C2599 C2596 1.511 . S
C2599 H2613 0.961 . S
C2599 H2614 0.961 . S
C2599 H2615 0.961 . S
C2600 C2601 1.370 . S
C2600 C2602 1.363 . S
C2600 H2616 0.931 . S
C2601 C2600 1.370 . S
C2601 C2605 1.408 . S
C2602 C2600 1.363 . S
C2602 C2603 1.370 . S
C2602 C2606 1.524 . S
C2603 C2595 1.503 . S
C2603 C2602 1.370 . S
C2603 C2604 1.403 . S
C2604 C2603 1.403 . S
C2604 C2605 1.404 . S
C2604 C2607 1.539 . S
C2605 C2601 1.408 . S
C2605 C2604 1.404 . S
C2605 H2617 0.930 . S
C2606 C2602 1.524 . S
C2606 H2618 0.956 . S
C2606 H2619 0.961 . S
C2606 H2620 0.961 . S
C2607 C2604 1.539 . S
C2607 H2621 0.958 . S
C2607 H2622 0.961 . S
C2607 H2623 0.960 . S
H2608 C2592 0.931 . S
H2609 C2597 0.929 . S
H2610 C2598 0.960 . S
H2611 C2598 0.962 . S
H2612 C2598 0.960 . S
H2613 C2599 0.961 . S
H2614 C2599 0.961 . S
H2615 C2599 0.961 . S
H2616 C2600 0.931 . S
H2617 C2605 0.930 . S
H2618 C2606 0.956 . S
H2619 C2606 0.961 . S
H2620 C2606 0.961 . S
H2621 C2607 0.958 . S
H2622 C2607 0.961 . S
H2623 C2607 0.960 . S
C2624 C2625 1.391 . S
C2624 C2626 1.394 . S
C2624 H2640 0.931 . S
C2625 C2624 1.391 . S
C2625 C2629 1.376 . S
C2626 C2624 1.394 . S
C2626 C2627 1.369 . S
C2626 C2630 1.531 . S
C2627 C2626 1.369 . S
C2627 C2628 1.410 . S
C2627 C2635 1.503 . S
C2628 C2627 1.410 . S
C2628 C2629 1.392 . S
C2628 C2631 1.511 . S
C2629 C2625 1.376 . S
C2629 C2628 1.392 . S
C2629 H2641 0.929 . S
C2630 C2626 1.531 . S
C2630 H2642 0.960 . S
C2630 H2643 0.962 . S
C2630 H2644 0.960 . S
C2631 C2628 1.511 . S
C2631 H2645 0.961 . S
C2631 H2646 0.961 . S
C2631 H2647 0.961 . S
C2632 C2633 1.370 . S
C2632 C2634 1.363 . S
C2632 H2648 0.931 . S
C2633 C2632 1.370 . S
C2633 C2637 1.408 . S
C2634 C2632 1.363 . S
C2634 C2635 1.370 . S
C2634 C2638 1.524 . S
C2635 C2627 1.503 . S
C2635 C2634 1.370 . S
C2635 C2636 1.403 . S
C2636 C2635 1.403 . S
C2636 C2637 1.404 . S
C2636 C2639 1.539 . S
C2637 C2633 1.408 . S
C2637 C2636 1.404 . S
C2637 H2649 0.930 . S
C2638 C2634 1.524 . S
C2638 H2650 0.956 . S
C2638 H2651 0.961 . S
C2638 H2652 0.961 . S
C2639 C2636 1.539 . S
C2639 H2653 0.958 . S
C2639 H2654 0.961 . S
C2639 H2655 0.960 . S
H2640 C2624 0.931 . S
H2641 C2629 0.929 . S
H2642 C2630 0.960 . S
H2643 C2630 0.962 . S
H2644 C2630 0.960 . S
H2645 C2631 0.961 . S
H2646 C2631 0.961 . S
H2647 C2631 0.961 . S
H2648 C2632 0.931 . S
H2649 C2637 0.930 . S
H2650 C2638 0.956 . S
H2651 C2638 0.961 . S
H2652 C2638 0.961 . S
H2653 C2639 0.958 . S
H2654 C2639 0.961 . S
H2655 C2639 0.960 . S
C2656 C2657 1.391 . S
C2656 C2658 1.394 . S
C2656 H2672 0.931 . S
C2657 C2656 1.391 . S
C2657 C2661 1.376 . S
C2658 C2656 1.394 . S
C2658 C2659 1.369 . S
C2658 C2662 1.531 . S
C2659 C2658 1.369 . S
C2659 C2660 1.410 . S
C2659 C2667 1.503 . S
C2660 C2659 1.410 . S
C2660 C2661 1.392 . S
C2660 C2663 1.511 . S
C2661 C2657 1.376 . S
C2661 C2660 1.392 . S
C2661 H2673 0.929 . S
C2662 C2658 1.531 . S
C2662 H2674 0.960 . S
C2662 H2675 0.962 . S
C2662 H2676 0.960 . S
C2663 C2660 1.511 . S
C2663 H2677 0.961 . S
C2663 H2678 0.961 . S
C2663 H2679 0.961 . S
C2664 C2665 1.370 . S
C2664 C2666 1.363 . S
C2664 H2680 0.931 . S
C2665 C2664 1.370 . S
C2665 C2669 1.408 . S
C2666 C2664 1.363 . S
C2666 C2667 1.370 . S
C2666 C2670 1.524 . S
C2667 C2659 1.503 . S
C2667 C2666 1.370 . S
C2667 C2668 1.403 . S
C2668 C2667 1.403 . S
C2668 C2669 1.404 . S
C2668 C2671 1.539 . S
C2669 C2665 1.408 . S
C2669 C2668 1.404 . S
C2669 H2681 0.930 . S
C2670 C2666 1.524 . S
C2670 H2682 0.956 . S
C2670 H2683 0.961 . S
C2670 H2684 0.961 . S
C2671 C2668 1.539 . S
C2671 H2685 0.958 . S
C2671 H2686 0.961 . S
C2671 H2687 0.960 . S
H2672 C2656 0.931 . S
H2673 C2661 0.929 . S
H2674 C2662 0.960 . S
H2675 C2662 0.962 . S
H2676 C2662 0.960 . S
H2677 C2663 0.961 . S
H2678 C2663 0.961 . S
H2679 C2663 0.961 . S
H2680 C2664 0.931 . S
H2681 C2669 0.930 . S
H2682 C2670 0.956 . S
H2683 C2670 0.961 . S
H2684 C2670 0.961 . S
H2685 C2671 0.958 . S
H2686 C2671 0.961 . S
H2687 C2671 0.960 . S
C2688 C2689 1.391 . S
C2688 C2690 1.394 . S
C2688 H2704 0.931 . S
C2689 C2688 1.391 . S
C2689 C2693 1.376 . S
C2690 C2688 1.394 . S
C2690 C2691 1.369 . S
C2690 C2694 1.531 . S
C2691 C2690 1.369 . S
C2691 C2692 1.410 . S
C2691 C2699 1.503 . S
C2692 C2691 1.410 . S
C2692 C2693 1.392 . S
C2692 C2695 1.511 . S
C2693 C2689 1.376 . S
C2693 C2692 1.392 . S
C2693 H2705 0.929 . S
C2694 C2690 1.531 . S
C2694 H2706 0.960 . S
C2694 H2707 0.962 . S
C2694 H2708 0.960 . S
C2695 C2692 1.511 . S
C2695 H2709 0.961 . S
C2695 H2710 0.961 . S
C2695 H2711 0.961 . S
C2696 C2697 1.370 . S
C2696 C2698 1.363 . S
C2696 H2712 0.931 . S
C2697 C2696 1.370 . S
C2697 C2701 1.408 . S
C2698 C2696 1.363 . S
C2698 C2699 1.370 . S
C2698 C2702 1.524 . S
C2699 C2691 1.503 . S
C2699 C2698 1.370 . S
C2699 C2700 1.403 . S
C2700 C2699 1.403 . S
C2700 C2701 1.404 . S
C2700 C2703 1.539 . S
C2701 C2697 1.408 . S
C2701 C2700 1.404 . S
C2701 H2713 0.930 . S
C2702 C2698 1.524 . S
C2702 H2714 0.956 . S
C2702 H2715 0.961 . S
C2702 H2716 0.961 . S
C2703 C2700 1.539 . S
C2703 H2717 0.958 . S
C2703 H2718 0.961 . S
C2703 H2719 0.960 . S
H2704 C2688 0.931 . S
H2705 C2693 0.929 . S
H2706 C2694 0.960 . S
H2707 C2694 0.962 . S
H2708 C2694 0.960 . S
H2709 C2695 0.961 . S
H2710 C2695 0.961 . S
H2711 C2695 0.961 . S
H2712 C2696 0.931 . S
H2713 C2701 0.930 . S
H2714 C2702 0.956 . S
H2715 C2702 0.961 . S
H2716 C2702 0.961 . S
H2717 C2703 0.958 . S
H2718 C2703 0.961 . S
H2719 C2703 0.960 . S
C2720 C2721 1.391 . S
C2720 C2722 1.394 . S
C2720 H2736 0.931 . S
C2721 C2720 1.391 . S
C2721 C2725 1.376 . S
C2722 C2720 1.394 . S
C2722 C2723 1.369 . S
C2722 C2726 1.531 . S
C2723 C2722 1.369 . S
C2723 C2724 1.410 . S
C2723 C2731 1.503 . S
C2724 C2723 1.410 . S
C2724 C2725 1.392 . S
C2724 C2727 1.511 . S
C2725 C2721 1.376 . S
C2725 C2724 1.392 . S
C2725 H2737 0.929 . S
C2726 C2722 1.531 . S
C2726 H2738 0.960 . S
C2726 H2739 0.962 . S
C2726 H2740 0.960 . S
C2727 C2724 1.511 . S
C2727 H2741 0.961 . S
C2727 H2742 0.961 . S
C2727 H2743 0.961 . S
C2728 C2729 1.370 . S
C2728 C2730 1.363 . S
C2728 H2744 0.931 . S
C2729 C2728 1.370 . S
C2729 C2733 1.408 . S
C2730 C2728 1.363 . S
C2730 C2731 1.370 . S
C2730 C2734 1.524 . S
C2731 C2723 1.503 . S
C2731 C2730 1.370 . S
C2731 C2732 1.403 . S
C2732 C2731 1.403 . S
C2732 C2733 1.404 . S
C2732 C2735 1.539 . S
C2733 C2729 1.408 . S
C2733 C2732 1.404 . S
C2733 H2745 0.930 . S
C2734 C2730 1.524 . S
C2734 H2746 0.956 . S
C2734 H2747 0.961 . S
C2734 H2748 0.961 . S
C2735 C2732 1.539 . S
C2735 H2749 0.958 . S
C2735 H2750 0.961 . S
C2735 H2751 0.960 . S
H2736 C2720 0.931 . S
H2737 C2725 0.929 . S
H2738 C2726 0.960 . S
H2739 C2726 0.962 . S
H2740 C2726 0.960 . S
H2741 C2727 0.961 . S
H2742 C2727 0.961 . S
H2743 C2727 0.961 . S
H2744 C2728 0.931 . S
H2745 C2733 0.930 . S
H2746 C2734 0.956 . S
H2747 C2734 0.961 . S
H2748 C2734 0.961 . S
H2749 C2735 0.958 . S
H2750 C2735 0.961 . S
H2751 C2735 0.960 . S
C2752 C2753 1.391 . S
C2752 C2754 1.394 . S
C2752 H2768 0.931 . S
C2753 C2752 1.391 . S
C2753 C2757 1.376 . S
C2754 C2752 1.394 . S
C2754 C2755 1.369 . S
C2754 C2758 1.531 . S
C2755 C2754 1.369 . S
C2755 C2756 1.410 . S
C2755 C2763 1.503 . S
C2756 C2755 1.410 . S
C2756 C2757 1.392 . S
C2756 C2759 1.511 . S
C2757 C2753 1.376 . S
C2757 C2756 1.392 . S
C2757 H2769 0.929 . S
C2758 C2754 1.531 . S
C2758 H2770 0.960 . S
C2758 H2771 0.962 . S
C2758 H2772 0.960 . S
C2759 C2756 1.511 . S
C2759 H2773 0.961 . S
C2759 H2774 0.961 . S
C2759 H2775 0.961 . S
C2760 C2761 1.370 . S
C2760 C2762 1.363 . S
C2760 H2776 0.931 . S
C2761 C2760 1.370 . S
C2761 C2765 1.408 . S
C2762 C2760 1.363 . S
C2762 C2763 1.370 . S
C2762 C2766 1.524 . S
C2763 C2755 1.503 . S
C2763 C2762 1.370 . S
C2763 C2764 1.403 . S
C2764 C2763 1.403 . S
C2764 C2765 1.404 . S
C2764 C2767 1.539 . S
C2765 C2761 1.408 . S
C2765 C2764 1.404 . S
C2765 H2777 0.930 . S
C2766 C2762 1.524 . S
C2766 H2778 0.956 . S
C2766 H2779 0.961 . S
C2766 H2780 0.961 . S
C2767 C2764 1.539 . S
C2767 H2781 0.958 . S
C2767 H2782 0.961 . S
C2767 H2783 0.960 . S
H2768 C2752 0.931 . S
H2769 C2757 0.929 . S
H2770 C2758 0.960 . S
H2771 C2758 0.962 . S
H2772 C2758 0.960 . S
H2773 C2759 0.961 . S
H2774 C2759 0.961 . S
H2775 C2759 0.961 . S
H2776 C2760 0.931 . S
H2777 C2765 0.930 . S
H2778 C2766 0.956 . S
H2779 C2766 0.961 . S
H2780 C2766 0.961 . S
H2781 C2767 0.958 . S
H2782 C2767 0.961 . S
H2783 C2767 0.960 . S
C2784 C2785 1.391 . S
C2784 C2786 1.394 . S
C2784 H2800 0.931 . S
C2785 C2784 1.391 . S
C2785 C2789 1.376 . S
C2786 C2784 1.394 . S
C2786 C2787 1.369 . S
C2786 C2790 1.531 . S
C2787 C2786 1.369 . S
C2787 C2788 1.410 . S
C2787 C2795 1.503 . S
C2788 C2787 1.410 . S
C2788 C2789 1.392 . S
C2788 C2791 1.511 . S
C2789 C2785 1.376 . S
C2789 C2788 1.392 . S
C2789 H2801 0.929 . S
C2790 C2786 1.531 . S
C2790 H2802 0.960 . S
C2790 H2803 0.962 . S
C2790 H2804 0.960 . S
C2791 C2788 1.511 . S
C2791 H2805 0.961 . S
C2791 H2806 0.961 . S
C2791 H2807 0.961 . S
C2792 C2793 1.370 . S
C2792 C2794 1.363 . S
C2792 H2808 0.931 . S
C2793 C2792 1.370 . S
C2793 C2797 1.408 . S
C2794 C2792 1.363 . S
C2794 C2795 1.370 . S
C2794 C2798 1.524 . S
C2795 C2787 1.503 . S
C2795 C2794 1.370 . S
C2795 C2796 1.403 . S
C2796 C2795 1.403 . S
C2796 C2797 1.404 . S
C2796 C2799 1.539 . S
C2797 C2793 1.408 . S
C2797 C2796 1.404 . S
C2797 H2809 0.930 . S
C2798 C2794 1.524 . S
C2798 H2810 0.956 . S
C2798 H2811 0.961 . S
C2798 H2812 0.961 . S
C2799 C2796 1.539 . S
C2799 H2813 0.958 . S
C2799 H2814 0.961 . S
C2799 H2815 0.960 . S
H2800 C2784 0.931 . S
H2801 C2789 0.929 . S
H2802 C2790 0.960 . S
H2803 C2790 0.962 . S
H2804 C2790 0.960 . S
H2805 C2791 0.961 . S
H2806 C2791 0.961 . S
H2807 C2791 0.961 . S
H2808 C2792 0.931 . S
H2809 C2797 0.930 . S
H2810 C2798 0.956 . S
H2811 C2798 0.961 . S
H2812 C2798 0.961 . S
H2813 C2799 0.958 . S
H2814 C2799 0.961 . S
H2815 C2799 0.960 . S
C2816 C2817 1.391 . S
C2816 C2818 1.394 . S
C2816 H2832 0.931 . S
C2817 C2816 1.391 . S
C2817 C2821 1.376 . S
C2818 C2816 1.394 . S
C2818 C2819 1.369 . S
C2818 C2822 1.531 . S
C2819 C2818 1.369 . S
C2819 C2820 1.410 . S
C2819 C2827 1.503 . S
C2820 C2819 1.410 . S
C2820 C2821 1.392 . S
C2820 C2823 1.511 . S
C2821 C2817 1.376 . S
C2821 C2820 1.392 . S
C2821 H2833 0.929 . S
C2822 C2818 1.531 . S
C2822 H2834 0.960 . S
C2822 H2835 0.962 . S
C2822 H2836 0.960 . S
C2823 C2820 1.511 . S
C2823 H2837 0.961 . S
C2823 H2838 0.961 . S
C2823 H2839 0.961 . S
C2824 C2825 1.370 . S
C2824 C2826 1.363 . S
C2824 H2840 0.931 . S
C2825 C2824 1.370 . S
C2825 C2829 1.408 . S
C2826 C2824 1.363 . S
C2826 C2827 1.370 . S
C2826 C2830 1.524 . S
C2827 C2819 1.503 . S
C2827 C2826 1.370 . S
C2827 C2828 1.403 . S
C2828 C2827 1.403 . S
C2828 C2829 1.404 . S
C2828 C2831 1.539 . S
C2829 C2825 1.408 . S
C2829 C2828 1.404 . S
C2829 H2841 0.930 . S
C2830 C2826 1.524 . S
C2830 H2842 0.956 . S
C2830 H2843 0.961 . S
C2830 H2844 0.961 . S
C2831 C2828 1.539 . S
C2831 H2845 0.958 . S
C2831 H2846 0.961 . S
C2831 H2847 0.960 . S
H2832 C2816 0.931 . S
H2833 C2821 0.929 . S
H2834 C2822 0.960 . S
H2835 C2822 0.962 . S
H2836 C2822 0.960 . S
H2837 C2823 0.961 . S
H2838 C2823 0.961 . S
H2839 C2823 0.961 . S
H2840 C2824 0.931 . S
H2841 C2829 0.930 . S
H2842 C2830 0.956 . S
H2843 C2830 0.961 . S
H2844 C2830 0.961 . S
H2845 C2831 0.958 . S
H2846 C2831 0.961 . S
H2847 C2831 0.960 . S
C2848 C2849 1.391 . S
C2848 C2850 1.394 . S
C2848 H2864 0.931 . S
C2849 C2848 1.391 . S
C2849 C2853 1.376 . S
C2850 C2848 1.394 . S
C2850 C2851 1.369 . S
C2850 C2854 1.531 . S
C2851 C2850 1.369 . S
C2851 C2852 1.410 . S
C2851 C2859 1.503 . S
C2852 C2851 1.410 . S
C2852 C2853 1.392 . S
C2852 C2855 1.511 . S
C2853 C2849 1.376 . S
C2853 C2852 1.392 . S
C2853 H2865 0.929 . S
C2854 C2850 1.531 . S
C2854 H2866 0.960 . S
C2854 H2867 0.962 . S
C2854 H2868 0.960 . S
C2855 C2852 1.511 . S
C2855 H2869 0.961 . S
C2855 H2870 0.961 . S
C2855 H2871 0.961 . S
C2856 C2857 1.370 . S
C2856 C2858 1.363 . S
C2856 H2872 0.931 . S
C2857 C2856 1.370 . S
C2857 C2861 1.408 . S
C2858 C2856 1.363 . S
C2858 C2859 1.370 . S
C2858 C2862 1.524 . S
C2859 C2851 1.503 . S
C2859 C2858 1.370 . S
C2859 C2860 1.403 . S
C2860 C2859 1.403 . S
C2860 C2861 1.404 . S
C2860 C2863 1.539 . S
C2861 C2857 1.408 . S
C2861 C2860 1.404 . S
C2861 H2873 0.930 . S
C2862 C2858 1.524 . S
C2862 H2874 0.956 . S
C2862 H2875 0.961 . S
C2862 H2876 0.961 . S
C2863 C2860 1.539 . S
C2863 H2877 0.958 . S
C2863 H2878 0.961 . S
C2863 H2879 0.960 . S
H2864 C2848 0.931 . S
H2865 C2853 0.929 . S
H2866 C2854 0.960 . S
H2867 C2854 0.962 . S
H2868 C2854 0.960 . S
H2869 C2855 0.961 . S
H2870 C2855 0.961 . S
H2871 C2855 0.961 . S
H2872 C2856 0.931 . S
H2873 C2861 0.930 . S
H2874 C2862 0.956 . S
H2875 C2862 0.961 . S
H2876 C2862 0.961 . S
H2877 C2863 0.958 . S
H2878 C2863 0.961 . S
H2879 C2863 0.960 . S
C2880 C2881 1.391 . S
C2880 C2882 1.394 . S
C2880 H2896 0.931 . S
C2881 C2880 1.391 . S
C2881 C2885 1.376 . S
C2882 C2880 1.394 . S
C2882 C2883 1.369 . S
C2882 C2886 1.531 . S
C2883 C2882 1.369 . S
C2883 C2884 1.410 . S
C2883 C2891 1.503 . S
C2884 C2883 1.410 . S
C2884 C2885 1.392 . S
C2884 C2887 1.511 . S
C2885 C2881 1.376 . S
C2885 C2884 1.392 . S
C2885 H2897 0.929 . S
C2886 C2882 1.531 . S
C2886 H2898 0.960 . S
C2886 H2899 0.962 . S
C2886 H2900 0.960 . S
C2887 C2884 1.511 . S
C2887 H2901 0.961 . S
C2887 H2902 0.961 . S
C2887 H2903 0.961 . S
C2888 C2889 1.370 . S
C2888 C2890 1.363 . S
C2888 H2904 0.931 . S
C2889 C2888 1.370 . S
C2889 C2893 1.408 . S
C2890 C2888 1.363 . S
C2890 C2891 1.370 . S
C2890 C2894 1.524 . S
C2891 C2883 1.503 . S
C2891 C2890 1.370 . S
C2891 C2892 1.403 . S
C2892 C2891 1.403 . S
C2892 C2893 1.404 . S
C2892 C2895 1.539 . S
C2893 C2889 1.408 . S
C2893 C2892 1.404 . S
C2893 H2905 0.930 . S
C2894 C2890 1.524 . S
C2894 H2906 0.956 . S
C2894 H2907 0.961 . S
C2894 H2908 0.961 . S
C2895 C2892 1.539 . S
C2895 H2909 0.958 . S
C2895 H2910 0.961 . S
C2895 H2911 0.960 . S
H2896 C2880 0.931 . S
H2897 C2885 0.929 . S
H2898 C2886 0.960 . S
H2899 C2886 0.962 . S
H2900 C2886 0.960 . S
H2901 C2887 0.961 . S
H2902 C2887 0.961 . S
H2903 C2887 0.961 . S
H2904 C2888 0.931 . S
H2905 C2893 0.930 . S
H2906 C2894 0.956 . S
H2907 C2894 0.961 . S
H2908 C2894 0.961 . S
H2909 C2895 0.958 . S
H2910 C2895 0.961 . S
H2911 C2895 0.960 . S
C2912 C2913 1.391 . S
C2912 C2914 1.394 . S
C2912 H2928 0.931 . S
C2913 C2912 1.391 . S
C2913 C2917 1.376 . S
C2914 C2912 1.394 . S
C2914 C2915 1.369 . S
C2914 C2918 1.531 . S
C2915 C2914 1.369 . S
C2915 C2916 1.410 . S
C2915 C2923 1.503 . S
C2916 C2915 1.410 . S
C2916 C2917 1.392 . S
C2916 C2919 1.511 . S
C2917 C2913 1.376 . S
C2917 C2916 1.392 . S
C2917 H2929 0.929 . S
C2918 C2914 1.531 . S
C2918 H2930 0.960 . S
C2918 H2931 0.962 . S
C2918 H2932 0.960 . S
C2919 C2916 1.511 . S
C2919 H2933 0.961 . S
C2919 H2934 0.961 . S
C2919 H2935 0.961 . S
C2920 C2921 1.370 . S
C2920 C2922 1.363 . S
C2920 H2936 0.931 . S
C2921 C2920 1.370 . S
C2921 C2925 1.408 . S
C2922 C2920 1.363 . S
C2922 C2923 1.370 . S
C2922 C2926 1.524 . S
C2923 C2915 1.503 . S
C2923 C2922 1.370 . S
C2923 C2924 1.403 . S
C2924 C2923 1.403 . S
C2924 C2925 1.404 . S
C2924 C2927 1.539 . S
C2925 C2921 1.408 . S
C2925 C2924 1.404 . S
C2925 H2937 0.930 . S
C2926 C2922 1.524 . S
C2926 H2938 0.956 . S
C2926 H2939 0.961 . S
C2926 H2940 0.961 . S
C2927 C2924 1.539 . S
C2927 H2941 0.958 . S
C2927 H2942 0.961 . S
C2927 H2943 0.960 . S
H2928 C2912 0.931 . S
H2929 C2917 0.929 . S
H2930 C2918 0.960 . S
H2931 C2918 0.962 . S
H2932 C2918 0.960 . S
H2933 C2919 0.961 . S
H2934 C2919 0.961 . S
H2935 C2919 0.961 . S
H2936 C2920 0.931 . S
H2937 C2925 0.930 . S
H2938 C2926 0.956 . S
H2939 C2926 0.961 . S
H2940 C2926 0.961 . S
H2941 C2927 0.958 . S
H2942 C2927 0.961 . S
H2943 C2927 0.960 . S
C2944 C2945 1.391 . S
C2944 C2946 1.394 . S
C2944 H2960 0.931 . S
C2945 C2944 1.391 . S
C2945 C2949 1.376 . S
C2946 C2944 1.394 . S
C2946 C2947 1.369 . S
C2946 C2950 1.531 . S
C2947 C2946 1.369 . S
C2947 C2948 1.410 . S
C2947 C2955 1.503 . S
C2948 C2947 1.410 . S
C2948 C2949 1.392 . S
C2948 C2951 1.511 . S
C2949 C2945 1.376 . S
C2949 C2948 1.392 . S
C2949 H2961 0.929 . S
C2950 C2946 1.531 . S
C2950 H2962 0.960 . S
C2950 H2963 0.962 . S
C2950 H2964 0.960 . S
C2951 C2948 1.511 . S
C2951 H2965 0.961 . S
C2951 H2966 0.961 . S
C2951 H2967 0.961 . S
C2952 C2953 1.370 . S
C2952 C2954 1.363 . S
C2952 H2968 0.931 . S
C2953 C2952 1.370 . S
C2953 C2957 1.408 . S
C2954 C2952 1.363 . S
C2954 C2955 1.370 . S
C2954 C2958 1.524 . S
C2955 C2947 1.503 . S
C2955 C2954 1.370 . S
C2955 C2956 1.403 . S
C2956 C2955 1.403 . S
C2956 C2957 1.404 . S
C2956 C2959 1.539 . S
C2957 C2953 1.408 . S
C2957 C2956 1.404 . S
C2957 H2969 0.930 . S
C2958 C2954 1.524 . S
C2958 H2970 0.956 . S
C2958 H2971 0.961 . S
C2958 H2972 0.961 . S
C2959 C2956 1.539 . S
C2959 H2973 0.958 . S
C2959 H2974 0.961 . S
C2959 H2975 0.960 . S
H2960 C2944 0.931 . S
H2961 C2949 0.929 . S
H2962 C2950 0.960 . S
H2963 C2950 0.962 . S
H2964 C2950 0.960 . S
H2965 C2951 0.961 . S
H2966 C2951 0.961 . S
H2967 C2951 0.961 . S
H2968 C2952 0.931 . S
H2969 C2957 0.930 . S
H2970 C2958 0.956 . S
H2971 C2958 0.961 . S
H2972 C2958 0.961 . S
H2973 C2959 0.958 . S
H2974 C2959 0.961 . S
H2975 C2959 0.960 . S
C2976 C2977 1.391 . S
C2976 C2978 1.394 . S
C2976 H2992 0.931 . S
C2977 C2976 1.391 . S
C2977 C2981 1.376 . S
C2978 C2976 1.394 . S
C2978 C2979 1.369 . S
C2978 C2982 1.531 . S
C2979 C2978 1.369 . S
C2979 C2980 1.410 . S
C2979 C2987 1.503 . S
C2980 C2979 1.410 . S
C2980 C2981 1.392 . S
C2980 C2983 1.511 . S
C2981 C2977 1.376 . S
C2981 C2980 1.392 . S
C2981 H2993 0.929 . S
C2982 C2978 1.531 . S
C2982 H2994 0.960 . S
C2982 H2995 0.962 . S
C2982 H2996 0.960 . S
C2983 C2980 1.511 . S
C2983 H2997 0.961 . S
C2983 H2998 0.961 . S
C2983 H2999 0.961 . S
C2984 C2985 1.370 . S
C2984 C2986 1.363 . S
C2984 H3000 0.931 . S
C2985 C2984 1.370 . S
C2985 C2989 1.408 . S
C2986 C2984 1.363 . S
C2986 C2987 1.370 . S
C2986 C2990 1.524 . S
C2987 C2979 1.503 . S
C2987 C2986 1.370 . S
C2987 C2988 1.403 . S
C2988 C2987 1.403 . S
C2988 C2989 1.404 . S
C2988 C2991 1.539 . S
C2989 C2985 1.408 . S
C2989 C2988 1.404 . S
C2989 H3001 0.930 . S
C2990 C2986 1.524 . S
C2990 H3002 0.956 . S
C2990 H3003 0.961 . S
C2990 H3004 0.961 . S
C2991 C2988 1.539 . S
C2991 H3005 0.958 . S
C2991 H3006 0.961 . S
C2991 H3007 0.960 . S
H2992 C2976 0.931 . S
H2993 C2981 0.929 . S
H2994 C2982 0.960 . S
H2995 C2982 0.962 . S
H2996 C2982 0.960 . S
H2997 C2983 0.961 . S
H2998 C2983 0.961 . S
H2999 C2983 0.961 . S
H3000 C2984 0.931 . S
H3001 C2989 0.930 . S
H3002 C2990 0.956 . S
H3003 C2990 0.961 . S
H3004 C2990 0.961 . S
H3005 C2991 0.958 . S
H3006 C2991 0.961 . S
H3007 C2991 0.960 . S
C3008 C3009 1.391 . S
C3008 C3010 1.394 . S
C3008 H3024 0.931 . S
C3009 C3008 1.391 . S
C3009 C3013 1.376 . S
C3010 C3008 1.394 . S
C3010 C3011 1.369 . S
C3010 C3014 1.531 . S
C3011 C3010 1.369 . S
C3011 C3012 1.410 . S
C3011 C3019 1.503 . S
C3012 C3011 1.410 . S
C3012 C3013 1.392 . S
C3012 C3015 1.511 . S
C3013 C3009 1.376 . S
C3013 C3012 1.392 . S
C3013 H3025 0.929 . S
C3014 C3010 1.531 . S
C3014 H3026 0.960 . S
C3014 H3027 0.962 . S
C3014 H3028 0.960 . S
C3015 C3012 1.511 . S
C3015 H3029 0.961 . S
C3015 H3030 0.961 . S
C3015 H3031 0.961 . S
C3016 C3017 1.370 . S
C3016 C3018 1.363 . S
C3016 H3032 0.931 . S
C3017 C3016 1.370 . S
C3017 C3021 1.408 . S
C3018 C3016 1.363 . S
C3018 C3019 1.370 . S
C3018 C3022 1.524 . S
C3019 C3011 1.503 . S
C3019 C3018 1.370 . S
C3019 C3020 1.403 . S
C3020 C3019 1.403 . S
C3020 C3021 1.404 . S
C3020 C3023 1.539 . S
C3021 C3017 1.408 . S
C3021 C3020 1.404 . S
C3021 H3033 0.930 . S
C3022 C3018 1.524 . S
C3022 H3034 0.956 . S
C3022 H3035 0.961 . S
C3022 H3036 0.961 . S
C3023 C3020 1.539 . S
C3023 H3037 0.958 . S
C3023 H3038 0.961 . S
C3023 H3039 0.960 . S
H3024 C3008 0.931 . S
H3025 C3013 0.929 . S
H3026 C3014 0.960 . S
H3027 C3014 0.962 . S
H3028 C3014 0.960 . S
H3029 C3015 0.961 . S
H3030 C3015 0.961 . S
H3031 C3015 0.961 . S
H3032 C3016 0.931 . S
H3033 C3021 0.930 . S
H3034 C3022 0.956 . S
H3035 C3022 0.961 . S
H3036 C3022 0.961 . S
H3037 C3023 0.958 . S
H3038 C3023 0.961 . S
H3039 C3023 0.960 . S
C3040 C3041 1.391 . S
C3040 C3042 1.394 . S
C3040 H3056 0.931 . S
C3041 C3040 1.391 . S
C3041 C3045 1.376 . S
C3042 C3040 1.394 . S
C3042 C3043 1.369 . S
C3042 C3046 1.531 . S
C3043 C3042 1.369 . S
C3043 C3044 1.410 . S
C3043 C3051 1.503 . S
C3044 C3043 1.410 . S
C3044 C3045 1.392 . S
C3044 C3047 1.511 . S
C3045 C3041 1.376 . S
C3045 C3044 1.392 . S
C3045 H3057 0.929 . S
C3046 C3042 1.531 . S
C3046 H3058 0.960 . S
C3046 H3059 0.962 . S
C3046 H3060 0.960 . S
C3047 C3044 1.511 . S
C3047 H3061 0.961 . S
C3047 H3062 0.961 . S
C3047 H3063 0.961 . S
C3048 C3049 1.370 . S
C3048 C3050 1.363 . S
C3048 H3064 0.931 . S
C3049 C3048 1.370 . S
C3049 C3053 1.408 . S
C3050 C3048 1.363 . S
C3050 C3051 1.370 . S
C3050 C3054 1.524 . S
C3051 C3043 1.503 . S
C3051 C3050 1.370 . S
C3051 C3052 1.403 . S
C3052 C3051 1.403 . S
C3052 C3053 1.404 . S
C3052 C3055 1.539 . S
C3053 C3049 1.408 . S
C3053 C3052 1.404 . S
C3053 H3065 0.930 . S
C3054 C3050 1.524 . S
C3054 H3066 0.956 . S
C3054 H3067 0.961 . S
C3054 H3068 0.961 . S
C3055 C3052 1.539 . S
C3055 H3069 0.958 . S
C3055 H3070 0.961 . S
C3055 H3071 0.960 . S
H3056 C3040 0.931 . S
H3057 C3045 0.929 . S
H3058 C3046 0.960 . S
H3059 C3046 0.962 . S
H3060 C3046 0.960 . S
H3061 C3047 0.961 . S
H3062 C3047 0.961 . S
H3063 C3047 0.961 . S
H3064 C3048 0.931 . S
H3065 C3053 0.930 . S
H3066 C3054 0.956 . S
H3067 C3054 0.961 . S
H3068 C3054 0.961 . S
H3069 C3055 0.958 . S
H3070 C3055 0.961 . S
H3071 C3055 0.960 . S
C3072 C3073 1.391 . S
C3072 C3074 1.394 . S
C3072 H3088 0.931 . S
C3073 C3072 1.391 . S
C3073 C3077 1.376 . S
C3074 C3072 1.394 . S
C3074 C3075 1.369 . S
C3074 C3078 1.531 . S
C3075 C3074 1.369 . S
C3075 C3076 1.410 . S
C3075 C3083 1.503 . S
C3076 C3075 1.410 . S
C3076 C3077 1.392 . S
C3076 C3079 1.511 . S
C3077 C3073 1.376 . S
C3077 C3076 1.392 . S
C3077 H3089 0.929 . S
C3078 C3074 1.531 . S
C3078 H3090 0.960 . S
C3078 H3091 0.962 . S
C3078 H3092 0.960 . S
C3079 C3076 1.511 . S
C3079 H3093 0.961 . S
C3079 H3094 0.961 . S
C3079 H3095 0.961 . S
C3080 C3081 1.370 . S
C3080 C3082 1.363 . S
C3080 H3096 0.931 . S
C3081 C3080 1.370 . S
C3081 C3085 1.408 . S
C3082 C3080 1.363 . S
C3082 C3083 1.370 . S
C3082 C3086 1.524 . S
C3083 C3075 1.503 . S
C3083 C3082 1.370 . S
C3083 C3084 1.403 . S
C3084 C3083 1.403 . S
C3084 C3085 1.404 . S
C3084 C3087 1.539 . S
C3085 C3081 1.408 . S
C3085 C3084 1.404 . S
C3085 H3097 0.930 . S
C3086 C3082 1.524 . S
C3086 H3098 0.956 . S
C3086 H3099 0.961 . S
C3086 H3100 0.961 . S
C3087 C3084 1.539 . S
C3087 H3101 0.958 . S
C3087 H3102 0.961 . S
C3087 H3103 0.960 . S
H3088 C3072 0.931 . S
H3089 C3077 0.929 . S
H3090 C3078 0.960 . S
H3091 C3078 0.962 . S
H3092 C3078 0.960 . S
H3093 C3079 0.961 . S
H3094 C3079 0.961 . S
H3095 C3079 0.961 . S
H3096 C3080 0.931 . S
H3097 C3085 0.930 . S
H3098 C3086 0.956 . S
H3099 C3086 0.961 . S
H3100 C3086 0.961 . S
H3101 C3087 0.958 . S
H3102 C3087 0.961 . S
H3103 C3087 0.960 . S
C3104 C3105 1.391 . S
C3104 C3106 1.394 . S
C3104 H3120 0.931 . S
C3105 C3104 1.391 . S
C3105 C3109 1.376 . S
C3106 C3104 1.394 . S
C3106 C3107 1.369 . S
C3106 C3110 1.531 . S
C3107 C3106 1.369 . S
C3107 C3108 1.410 . S
C3107 C3115 1.503 . S
C3108 C3107 1.410 . S
C3108 C3109 1.392 . S
C3108 C3111 1.511 . S
C3109 C3105 1.376 . S
C3109 C3108 1.392 . S
C3109 H3121 0.929 . S
C3110 C3106 1.531 . S
C3110 H3122 0.960 . S
C3110 H3123 0.962 . S
C3110 H3124 0.960 . S
C3111 C3108 1.511 . S
C3111 H3125 0.961 . S
C3111 H3126 0.961 . S
C3111 H3127 0.961 . S
C3112 C3113 1.370 . S
C3112 C3114 1.363 . S
C3112 H3128 0.931 . S
C3113 C3112 1.370 . S
C3113 C3117 1.408 . S
C3114 C3112 1.363 . S
C3114 C3115 1.370 . S
C3114 C3118 1.524 . S
C3115 C3107 1.503 . S
C3115 C3114 1.370 . S
C3115 C3116 1.403 . S
C3116 C3115 1.403 . S
C3116 C3117 1.404 . S
C3116 C3119 1.539 . S
C3117 C3113 1.408 . S
C3117 C3116 1.404 . S
C3117 H3129 0.930 . S
C3118 C3114 1.524 . S
C3118 H3130 0.956 . S
C3118 H3131 0.961 . S
C3118 H3132 0.961 . S
C3119 C3116 1.539 . S
C3119 H3133 0.958 . S
C3119 H3134 0.961 . S
C3119 H3135 0.960 . S
H3120 C3104 0.931 . S
H3121 C3109 0.929 . S
H3122 C3110 0.960 . S
H3123 C3110 0.962 . S
H3124 C3110 0.960 . S
H3125 C3111 0.961 . S
H3126 C3111 0.961 . S
H3127 C3111 0.961 . S
H3128 C3112 0.931 . S
H3129 C3117 0.930 . S
H3130 C3118 0.956 . S
H3131 C3118 0.961 . S
H3132 C3118 0.961 . S
H3133 C3119 0.958 . S
H3134 C3119 0.961 . S
H3135 C3119 0.960 . S
C3136 C3137 1.391 . S
C3136 C3138 1.394 . S
C3136 H3152 0.931 . S
C3137 C3136 1.391 . S
C3137 C3141 1.376 . S
C3138 C3136 1.394 . S
C3138 C3139 1.369 . S
C3138 C3142 1.531 . S
C3139 C3138 1.369 . S
C3139 C3140 1.410 . S
C3139 C3147 1.503 . S
C3140 C3139 1.410 . S
C3140 C3141 1.392 . S
C3140 C3143 1.511 . S
C3141 C3137 1.376 . S
C3141 C3140 1.392 . S
C3141 H3153 0.929 . S
C3142 C3138 1.531 . S
C3142 H3154 0.960 . S
C3142 H3155 0.962 . S
C3142 H3156 0.960 . S
C3143 C3140 1.511 . S
C3143 H3157 0.961 . S
C3143 H3158 0.961 . S
C3143 H3159 0.961 . S
C3144 C3145 1.370 . S
C3144 C3146 1.363 . S
C3144 H3160 0.931 . S
C3145 C3144 1.370 . S
C3145 C3149 1.408 . S
C3146 C3144 1.363 . S
C3146 C3147 1.370 . S
C3146 C3150 1.524 . S
C3147 C3139 1.503 . S
C3147 C3146 1.370 . S
C3147 C3148 1.403 . S
C3148 C3147 1.403 . S
C3148 C3149 1.404 . S
C3148 C3151 1.539 . S
C3149 C3145 1.408 . S
C3149 C3148 1.404 . S
C3149 H3161 0.930 . S
C3150 C3146 1.524 . S
C3150 H3162 0.956 . S
C3150 H3163 0.961 . S
C3150 H3164 0.961 . S
C3151 C3148 1.539 . S
C3151 H3165 0.958 . S
C3151 H3166 0.961 . S
C3151 H3167 0.960 . S
H3152 C3136 0.931 . S
H3153 C3141 0.929 . S
H3154 C3142 0.960 . S
H3155 C3142 0.962 . S
H3156 C3142 0.960 . S
H3157 C3143 0.961 . S
H3158 C3143 0.961 . S
H3159 C3143 0.961 . S
H3160 C3144 0.931 . S
H3161 C3149 0.930 . S
H3162 C3150 0.956 . S
H3163 C3150 0.961 . S
H3164 C3150 0.961 . S
H3165 C3151 0.958 . S
H3166 C3151 0.961 . S
H3167 C3151 0.960 . S
C3168 C3169 1.391 . S
C3168 C3170 1.394 . S
C3168 H3184 0.931 . S
C3169 C3168 1.391 . S
C3169 C3173 1.376 . S
C3170 C3168 1.394 . S
C3170 C3171 1.369 . S
C3170 C3174 1.531 . S
C3171 C3170 1.369 . S
C3171 C3172 1.410 . S
C3171 C3179 1.503 . S
C3172 C3171 1.410 . S
C3172 C3173 1.392 . S
C3172 C3175 1.511 . S
C3173 C3169 1.376 . S
C3173 C3172 1.392 . S
C3173 H3185 0.929 . S
C3174 C3170 1.531 . S
C3174 H3186 0.960 . S
C3174 H3187 0.962 . S
C3174 H3188 0.960 . S
C3175 C3172 1.511 . S
C3175 H3189 0.961 . S
C3175 H3190 0.961 . S
C3175 H3191 0.961 . S
C3176 C3177 1.370 . S
C3176 C3178 1.363 . S
C3176 H3192 0.931 . S
C3177 C3176 1.370 . S
C3177 C3181 1.408 . S
C3178 C3176 1.363 . S
C3178 C3179 1.370 . S
C3178 C3182 1.524 . S
C3179 C3171 1.503 . S
C3179 C3178 1.370 . S
C3179 C3180 1.403 . S
C3180 C3179 1.403 . S
C3180 C3181 1.404 . S
C3180 C3183 1.539 . S
C3181 C3177 1.408 . S
C3181 C3180 1.404 . S
C3181 H3193 0.930 . S
C3182 C3178 1.524 . S
C3182 H3194 0.956 . S
C3182 H3195 0.961 . S
C3182 H3196 0.961 . S
C3183 C3180 1.539 . S
C3183 H3197 0.958 . S
C3183 H3198 0.961 . S
C3183 H3199 0.960 . S
H3184 C3168 0.931 . S
H3185 C3173 0.929 . S
H3186 C3174 0.960 . S
H3187 C3174 0.962 . S
H3188 C3174 0.960 . S
H3189 C3175 0.961 . S
H3190 C3175 0.961 . S
H3191 C3175 0.961 . S
H3192 C3176 0.931 . S
H3193 C3181 0.930 . S
H3194 C3182 0.956 . S
H3195 C3182 0.961 . S
H3196 C3182 0.961 . S
H3197 C3183 0.958 . S
H3198 C3183 0.961 . S
H3199 C3183 0.960 . S
C3200 C3201 1.391 . S
C3200 C3202 1.394 . S
C3200 H3216 0.931 . S
C3201 C3200 1.391 . S
C3201 C3205 1.376 . S
C3202 C3200 1.394 . S
C3202 C3203 1.369 . S
C3202 C3206 1.531 . S
C3203 C3202 1.369 . S
C3203 C3204 1.410 . S
C3203 C3211 1.503 . S
C3204 C3203 1.410 . S
C3204 C3205 1.392 . S
C3204 C3207 1.511 . S
C3205 C3201 1.376 . S
C3205 C3204 1.392 . S
C3205 H3217 0.929 . S
C3206 C3202 1.531 . S
C3206 H3218 0.960 . S
C3206 H3219 0.962 . S
C3206 H3220 0.960 . S
C3207 C3204 1.511 . S
C3207 H3221 0.961 . S
C3207 H3222 0.961 . S
C3207 H3223 0.961 . S
C3208 C3209 1.370 . S
C3208 C3210 1.363 . S
C3208 H3224 0.931 . S
C3209 C3208 1.370 . S
C3209 C3213 1.408 . S
C3210 C3208 1.363 . S
C3210 C3211 1.370 . S
C3210 C3214 1.524 . S
C3211 C3203 1.503 . S
C3211 C3210 1.370 . S
C3211 C3212 1.403 . S
C3212 C3211 1.403 . S
C3212 C3213 1.404 . S
C3212 C3215 1.539 . S
C3213 C3209 1.408 . S
C3213 C3212 1.404 . S
C3213 H3225 0.930 . S
C3214 C3210 1.524 . S
C3214 H3226 0.956 . S
C3214 H3227 0.961 . S
C3214 H3228 0.961 . S
C3215 C3212 1.539 . S
C3215 H3229 0.958 . S
C3215 H3230 0.961 . S
C3215 H3231 0.960 . S
H3216 C3200 0.931 . S
H3217 C3205 0.929 . S
H3218 C3206 0.960 . S
H3219 C3206 0.962 . S
H3220 C3206 0.960 . S
H3221 C3207 0.961 . S
H3222 C3207 0.961 . S
H3223 C3207 0.961 . S
H3224 C3208 0.931 . S
H3225 C3213 0.930 . S
H3226 C3214 0.956 . S
H3227 C3214 0.961 . S
H3228 C3214 0.961 . S
H3229 C3215 0.958 . S
H3230 C3215 0.961 . S
H3231 C3215 0.960 . S
C3232 C3233 1.391 . S
C3232 C3234 1.394 . S
C3232 H3248 0.931 . S
C3233 C3232 1.391 . S
C3233 C3237 1.376 . S
C3234 C3232 1.394 . S
C3234 C3235 1.369 . S
C3234 C3238 1.531 . S
C3235 C3234 1.369 . S
C3235 C3236 1.410 . S
C3235 C3243 1.503 . S
C3236 C3235 1.410 . S
C3236 C3237 1.392 . S
C3236 C3239 1.511 . S
C3237 C3233 1.376 . S
C3237 C3236 1.392 . S
C3237 H3249 0.929 . S
C3238 C3234 1.531 . S
C3238 H3250 0.960 . S
C3238 H3251 0.962 . S
C3238 H3252 0.960 . S
C3239 C3236 1.511 . S
C3239 H3253 0.961 . S
C3239 H3254 0.961 . S
C3239 H3255 0.961 . S
C3240 C3241 1.370 . S
C3240 C3242 1.363 . S
C3240 H3256 0.931 . S
C3241 C3240 1.370 . S
C3241 C3245 1.408 . S
C3242 C3240 1.363 . S
C3242 C3243 1.370 . S
C3242 C3246 1.524 . S
C3243 C3235 1.503 . S
C3243 C3242 1.370 . S
C3243 C3244 1.403 . S
C3244 C3243 1.403 . S
C3244 C3245 1.404 . S
C3244 C3247 1.539 . S
C3245 C3241 1.408 . S
C3245 C3244 1.404 . S
C3245 H3257 0.930 . S
C3246 C3242 1.524 . S
C3246 H3258 0.956 . S
C3246 H3259 0.961 . S
C3246 H3260 0.961 . S
C3247 C3244 1.539 . S
C3247 H3261 0.958 . S
C3247 H3262 0.961 . S
C3247 H3263 0.960 . S
H3248 C3232 0.931 . S
H3249 C3237 0.929 . S
H3250 C3238 0.960 . S
H3251 C3238 0.962 . S
H3252 C3238 0.960 . S
H3253 C3239 0.961 . S
H3254 C3239 0.961 . S
H3255 C3239 0.961 . S
H3256 C3240 0.931 . S
H3257 C3245 0.930 . S
H3258 C3246 0.956 . S
H3259 C3246 0.961 . S
H3260 C3246 0.961 . S
H3261 C3247 0.958 . S
H3262 C3247 0.961 . S
H3263 C3247 0.960 . S
C3264 C3265 1.391 . S
C3264 C3266 1.394 . S
C3264 H3280 0.931 . S
C3265 C3264 1.391 . S
C3265 C3269 1.376 . S
C3266 C3264 1.394 . S
C3266 C3267 1.369 . S
C3266 C3270 1.531 . S
C3267 C3266 1.369 . S
C3267 C3268 1.410 . S
C3267 C3275 1.503 . S
C3268 C3267 1.410 . S
C3268 C3269 1.392 . S
C3268 C3271 1.511 . S
C3269 C3265 1.376 . S
C3269 C3268 1.392 . S
C3269 H3281 0.929 . S
C3270 C3266 1.531 . S
C3270 H3282 0.960 . S
C3270 H3283 0.962 . S
C3270 H3284 0.960 . S
C3271 C3268 1.511 . S
C3271 H3285 0.961 . S
C3271 H3286 0.961 . S
C3271 H3287 0.961 . S
C3272 C3273 1.370 . S
C3272 C3274 1.363 . S
C3272 H3288 0.931 . S
C3273 C3272 1.370 . S
C3273 C3277 1.408 . S
C3274 C3272 1.363 . S
C3274 C3275 1.370 . S
C3274 C3278 1.524 . S
C3275 C3267 1.503 . S
C3275 C3274 1.370 . S
C3275 C3276 1.403 . S
C3276 C3275 1.403 . S
C3276 C3277 1.404 . S
C3276 C3279 1.539 . S
C3277 C3273 1.408 . S
C3277 C3276 1.404 . S
C3277 H3289 0.930 . S
C3278 C3274 1.524 . S
C3278 H3290 0.956 . S
C3278 H3291 0.961 . S
C3278 H3292 0.961 . S
C3279 C3276 1.539 . S
C3279 H3293 0.958 . S
C3279 H3294 0.961 . S
C3279 H3295 0.960 . S
H3280 C3264 0.931 . S
H3281 C3269 0.929 . S
H3282 C3270 0.960 . S
H3283 C3270 0.962 . S
H3284 C3270 0.960 . S
H3285 C3271 0.961 . S
H3286 C3271 0.961 . S
H3287 C3271 0.961 . S
H3288 C3272 0.931 . S
H3289 C3277 0.930 . S
H3290 C3278 0.956 . S
H3291 C3278 0.961 . S
H3292 C3278 0.961 . S
H3293 C3279 0.958 . S
H3294 C3279 0.961 . S
H3295 C3279 0.960 . S
C3296 C3297 1.391 . S
C3296 C3298 1.394 . S
C3296 H3312 0.931 . S
C3297 C3296 1.391 . S
C3297 C3301 1.376 . S
C3298 C3296 1.394 . S
C3298 C3299 1.369 . S
C3298 C3302 1.531 . S
C3299 C3298 1.369 . S
C3299 C3300 1.410 . S
C3299 C3307 1.503 . S
C3300 C3299 1.410 . S
C3300 C3301 1.392 . S
C3300 C3303 1.511 . S
C3301 C3297 1.376 . S
C3301 C3300 1.392 . S
C3301 H3313 0.929 . S
C3302 C3298 1.531 . S
C3302 H3314 0.960 . S
C3302 H3315 0.962 . S
C3302 H3316 0.960 . S
C3303 C3300 1.511 . S
C3303 H3317 0.961 . S
C3303 H3318 0.961 . S
C3303 H3319 0.961 . S
C3304 C3305 1.370 . S
C3304 C3306 1.363 . S
C3304 H3320 0.931 . S
C3305 C3304 1.370 . S
C3305 C3309 1.408 . S
C3306 C3304 1.363 . S
C3306 C3307 1.370 . S
C3306 C3310 1.524 . S
C3307 C3299 1.503 . S
C3307 C3306 1.370 . S
C3307 C3308 1.403 . S
C3308 C3307 1.403 . S
C3308 C3309 1.404 . S
C3308 C3311 1.539 . S
C3309 C3305 1.408 . S
C3309 C3308 1.404 . S
C3309 H3321 0.930 . S
C3310 C3306 1.524 . S
C3310 H3322 0.956 . S
C3310 H3323 0.961 . S
C3310 H3324 0.961 . S
C3311 C3308 1.539 . S
C3311 H3325 0.958 . S
C3311 H3326 0.961 . S
C3311 H3327 0.960 . S
H3312 C3296 0.931 . S
H3313 C3301 0.929 . S
H3314 C3302 0.960 . S
H3315 C3302 0.962 . S
H3316 C3302 0.960 . S
H3317 C3303 0.961 . S
H3318 C3303 0.961 . S
H3319 C3303 0.961 . S
H3320 C3304 0.931 . S
H3321 C3309 0.930 . S
H3322 C3310 0.956 . S
H3323 C3310 0.961 . S
H3324 C3310 0.961 . S
H3325 C3311 0.958 . S
H3326 C3311 0.961 . S
H3327 C3311 0.960 . S
C3328 C3329 1.391 . S
C3328 C3330 1.394 . S
C3328 H3344 0.931 . S
C3329 C3328 1.391 . S
C3329 C3333 1.376 . S
C3330 C3328 1.394 . S
C3330 C3331 1.369 . S
C3330 C3334 1.531 . S
C3331 C3330 1.369 . S
C3331 C3332 1.410 . S
C3331 C3339 1.503 . S
C3332 C3331 1.410 . S
C3332 C3333 1.392 . S
C3332 C3335 1.511 . S
C3333 C3329 1.376 . S
C3333 C3332 1.392 . S
C3333 H3345 0.929 . S
C3334 C3330 1.531 . S
C3334 H3346 0.960 . S
C3334 H3347 0.962 . S
C3334 H3348 0.960 . S
C3335 C3332 1.511 . S
C3335 H3349 0.961 . S
C3335 H3350 0.961 . S
C3335 H3351 0.961 . S
C3336 C3337 1.370 . S
C3336 C3338 1.363 . S
C3336 H3352 0.931 . S
C3337 C3336 1.370 . S
C3337 C3341 1.408 . S
C3338 C3336 1.363 . S
C3338 C3339 1.370 . S
C3338 C3342 1.524 . S
C3339 C3331 1.503 . S
C3339 C3338 1.370 . S
C3339 C3340 1.403 . S
C3340 C3339 1.403 . S
C3340 C3341 1.404 . S
C3340 C3343 1.539 . S
C3341 C3337 1.408 . S
C3341 C3340 1.404 . S
C3341 H3353 0.930 . S
C3342 C3338 1.524 . S
C3342 H3354 0.956 . S
C3342 H3355 0.961 . S
C3342 H3356 0.961 . S
C3343 C3340 1.539 . S
C3343 H3357 0.958 . S
C3343 H3358 0.961 . S
C3343 H3359 0.960 . S
H3344 C3328 0.931 . S
H3345 C3333 0.929 . S
H3346 C3334 0.960 . S
H3347 C3334 0.962 . S
H3348 C3334 0.960 . S
H3349 C3335 0.961 . S
H3350 C3335 0.961 . S
H3351 C3335 0.961 . S
H3352 C3336 0.931 . S
H3353 C3341 0.930 . S
H3354 C3342 0.956 . S
H3355 C3342 0.961 . S
H3356 C3342 0.961 . S
H3357 C3343 0.958 . S
H3358 C3343 0.961 . S
H3359 C3343 0.960 . S
C3360 C3361 1.391 . S
C3360 C3362 1.394 . S
C3360 H3376 0.931 . S
C3361 C3360 1.391 . S
C3361 C3365 1.376 . S
C3362 C3360 1.394 . S
C3362 C3363 1.369 . S
C3362 C3366 1.531 . S
C3363 C3362 1.369 . S
C3363 C3364 1.410 . S
C3363 C3371 1.503 . S
C3364 C3363 1.410 . S
C3364 C3365 1.392 . S
C3364 C3367 1.511 . S
C3365 C3361 1.376 . S
C3365 C3364 1.392 . S
C3365 H3377 0.929 . S
C3366 C3362 1.531 . S
C3366 H3378 0.960 . S
C3366 H3379 0.962 . S
C3366 H3380 0.960 . S
C3367 C3364 1.511 . S
C3367 H3381 0.961 . S
C3367 H3382 0.961 . S
C3367 H3383 0.961 . S
C3368 C3369 1.370 . S
C3368 C3370 1.363 . S
C3368 H3384 0.931 . S
C3369 C3368 1.370 . S
C3369 C3373 1.408 . S
C3370 C3368 1.363 . S
C3370 C3371 1.370 . S
C3370 C3374 1.524 . S
C3371 C3363 1.503 . S
C3371 C3370 1.370 . S
C3371 C3372 1.403 . S
C3372 C3371 1.403 . S
C3372 C3373 1.404 . S
C3372 C3375 1.539 . S
C3373 C3369 1.408 . S
C3373 C3372 1.404 . S
C3373 H3385 0.930 . S
C3374 C3370 1.524 . S
C3374 H3386 0.956 . S
C3374 H3387 0.961 . S
C3374 H3388 0.961 . S
C3375 C3372 1.539 . S
C3375 H3389 0.958 . S
C3375 H3390 0.961 . S
C3375 H3391 0.960 . S
H3376 C3360 0.931 . S
H3377 C3365 0.929 . S
H3378 C3366 0.960 . S
H3379 C3366 0.962 . S
H3380 C3366 0.960 . S
H3381 C3367 0.961 . S
H3382 C3367 0.961 . S
H3383 C3367 0.961 . S
H3384 C3368 0.931 . S
H3385 C3373 0.930 . S
H3386 C3374 0.956 . S
H3387 C3374 0.961 . S
H3388 C3374 0.961 . S
H3389 C3375 0.958 . S
H3390 C3375 0.961 . S
H3391 C3375 0.960 . S
C3392 C3393 1.391 . S
C3392 C3394 1.394 . S
C3392 H3408 0.931 . S
C3393 C3392 1.391 . S
C3393 C3397 1.376 . S
C3394 C3392 1.394 . S
C3394 C3395 1.369 . S
C3394 C3398 1.531 . S
C3395 C3394 1.369 . S
C3395 C3396 1.410 . S
C3395 C3403 1.503 . S
C3396 C3395 1.410 . S
C3396 C3397 1.392 . S
C3396 C3399 1.511 . S
C3397 C3393 1.376 . S
C3397 C3396 1.392 . S
C3397 H3409 0.929 . S
C3398 C3394 1.531 . S
C3398 H3410 0.960 . S
C3398 H3411 0.962 . S
C3398 H3412 0.960 . S
C3399 C3396 1.511 . S
C3399 H3413 0.961 . S
C3399 H3414 0.961 . S
C3399 H3415 0.961 . S
C3400 C3401 1.370 . S
C3400 C3402 1.363 . S
C3400 H3416 0.931 . S
C3401 C3400 1.370 . S
C3401 C3405 1.408 . S
C3402 C3400 1.363 . S
C3402 C3403 1.370 . S
C3402 C3406 1.524 . S
C3403 C3395 1.503 . S
C3403 C3402 1.370 . S
C3403 C3404 1.403 . S
C3404 C3403 1.403 . S
C3404 C3405 1.404 . S
C3404 C3407 1.539 . S
C3405 C3401 1.408 . S
C3405 C3404 1.404 . S
C3405 H3417 0.930 . S
C3406 C3402 1.524 . S
C3406 H3418 0.956 . S
C3406 H3419 0.961 . S
C3406 H3420 0.961 . S
C3407 C3404 1.539 . S
C3407 H3421 0.958 . S
C3407 H3422 0.961 . S
C3407 H3423 0.960 . S
H3408 C3392 0.931 . S
H3409 C3397 0.929 . S
H3410 C3398 0.960 . S
H3411 C3398 0.962 . S
H3412 C3398 0.960 . S
H3413 C3399 0.961 . S
H3414 C3399 0.961 . S
H3415 C3399 0.961 . S
H3416 C3400 0.931 . S
H3417 C3405 0.930 . S
H3418 C3406 0.956 . S
H3419 C3406 0.961 . S
H3420 C3406 0.961 . S
H3421 C3407 0.958 . S
H3422 C3407 0.961 . S
H3423 C3407 0.960 . S
C3424 C3425 1.391 . S
C3424 C3426 1.394 . S
C3424 H3440 0.931 . S
C3425 C3424 1.391 . S
C3425 C3429 1.376 . S
C3426 C3424 1.394 . S
C3426 C3427 1.369 . S
C3426 C3430 1.531 . S
C3427 C3426 1.369 . S
C3427 C3428 1.410 . S
C3427 C3435 1.503 . S
C3428 C3427 1.410 . S
C3428 C3429 1.392 . S
C3428 C3431 1.511 . S
C3429 C3425 1.376 . S
C3429 C3428 1.392 . S
C3429 H3441 0.929 . S
C3430 C3426 1.531 . S
C3430 H3442 0.960 . S
C3430 H3443 0.962 . S
C3430 H3444 0.960 . S
C3431 C3428 1.511 . S
C3431 H3445 0.961 . S
C3431 H3446 0.961 . S
C3431 H3447 0.961 . S
C3432 C3433 1.370 . S
C3432 C3434 1.363 . S
C3432 H3448 0.931 . S
C3433 C3432 1.370 . S
C3433 C3437 1.408 . S
C3434 C3432 1.363 . S
C3434 C3435 1.370 . S
C3434 C3438 1.524 . S
C3435 C3427 1.503 . S
C3435 C3434 1.370 . S
C3435 C3436 1.403 . S
C3436 C3435 1.403 . S
C3436 C3437 1.404 . S
C3436 C3439 1.539 . S
C3437 C3433 1.408 . S
C3437 C3436 1.404 . S
C3437 H3449 0.930 . S
C3438 C3434 1.524 . S
C3438 H3450 0.956 . S
C3438 H3451 0.961 . S
C3438 H3452 0.961 . S
C3439 C3436 1.539 . S
C3439 H3453 0.958 . S
C3439 H3454 0.961 . S
C3439 H3455 0.960 . S
H3440 C3424 0.931 . S
H3441 C3429 0.929 . S
H3442 C3430 0.960 . S
H3443 C3430 0.962 . S
H3444 C3430 0.960 . S
H3445 C3431 0.961 . S
H3446 C3431 0.961 . S
H3447 C3431 0.961 . S
H3448 C3432 0.931 . S
H3449 C3437 0.930 . S
H3450 C3438 0.956 . S
H3451 C3438 0.961 . S
H3452 C3438 0.961 . S
H3453 C3439 0.958 . S
H3454 C3439 0.961 . S
H3455 C3439 0.960 . S
C3456 C3457 1.391 . S
C3456 C3458 1.394 . S
C3456 H3472 0.931 . S
C3457 C3456 1.391 . S
C3457 C3461 1.376 . S
C3458 C3456 1.394 . S
C3458 C3459 1.369 . S
C3458 C3462 1.531 . S
C3459 C3458 1.369 . S
C3459 C3460 1.410 . S
C3459 C3467 1.503 . S
C3460 C3459 1.410 . S
C3460 C3461 1.392 . S
C3460 C3463 1.511 . S
C3461 C3457 1.376 . S
C3461 C3460 1.392 . S
C3461 H3473 0.929 . S
C3462 C3458 1.531 . S
C3462 H3474 0.960 . S
C3462 H3475 0.962 . S
C3462 H3476 0.960 . S
C3463 C3460 1.511 . S
C3463 H3477 0.961 . S
C3463 H3478 0.961 . S
C3463 H3479 0.961 . S
C3464 C3465 1.370 . S
C3464 C3466 1.363 . S
C3464 H3480 0.931 . S
C3465 C3464 1.370 . S
C3465 C3469 1.408 . S
C3466 C3464 1.363 . S
C3466 C3467 1.370 . S
C3466 C3470 1.524 . S
C3467 C3459 1.503 . S
C3467 C3466 1.370 . S
C3467 C3468 1.403 . S
C3468 C3467 1.403 . S
C3468 C3469 1.404 . S
C3468 C3471 1.539 . S
C3469 C3465 1.408 . S
C3469 C3468 1.404 . S
C3469 H3481 0.930 . S
C3470 C3466 1.524 . S
C3470 H3482 0.956 . S
C3470 H3483 0.961 . S
C3470 H3484 0.961 . S
C3471 C3468 1.539 . S
C3471 H3485 0.958 . S
C3471 H3486 0.961 . S
C3471 H3487 0.960 . S
H3472 C3456 0.931 . S
H3473 C3461 0.929 . S
H3474 C3462 0.960 . S
H3475 C3462 0.962 . S
H3476 C3462 0.960 . S
H3477 C3463 0.961 . S
H3478 C3463 0.961 . S
H3479 C3463 0.961 . S
H3480 C3464 0.931 . S
H3481 C3469 0.930 . S
H3482 C3470 0.956 . S
H3483 C3470 0.961 . S
H3484 C3470 0.961 . S
H3485 C3471 0.958 . S
H3486 C3471 0.961 . S
H3487 C3471 0.960 . S
C3488 C3489 1.391 . S
C3488 C3490 1.394 . S
C3488 H3504 0.931 . S
C3489 C3488 1.391 . S
C3489 C3493 1.376 . S
C3490 C3488 1.394 . S
C3490 C3491 1.369 . S
C3490 C3494 1.531 . S
C3491 C3490 1.369 . S
C3491 C3492 1.410 . S
C3491 C3499 1.503 . S
C3492 C3491 1.410 . S
C3492 C3493 1.392 . S
C3492 C3495 1.511 . S
C3493 C3489 1.376 . S
C3493 C3492 1.392 . S
C3493 H3505 0.929 . S
C3494 C3490 1.531 . S
C3494 H3506 0.960 . S
C3494 H3507 0.962 . S
C3494 H3508 0.960 . S
C3495 C3492 1.511 . S
C3495 H3509 0.961 . S
C3495 H3510 0.961 . S
C3495 H3511 0.961 . S
C3496 C3497 1.370 . S
C3496 C3498 1.363 . S
C3496 H3512 0.931 . S
C3497 C3496 1.370 . S
C3497 C3501 1.408 . S
C3498 C3496 1.363 . S
C3498 C3499 1.370 . S
C3498 C3502 1.524 . S
C3499 C3491 1.503 . S
C3499 C3498 1.370 . S
C3499 C3500 1.403 . S
C3500 C3499 1.403 . S
C3500 C3501 1.404 . S
C3500 C3503 1.539 . S
C3501 C3497 1.408 . S
C3501 C3500 1.404 . S
C3501 H3513 0.930 . S
C3502 C3498 1.524 . S
C3502 H3514 0.956 . S
C3502 H3515 0.961 . S
C3502 H3516 0.961 . S
C3503 C3500 1.539 . S
C3503 H3517 0.958 . S
C3503 H3518 0.961 . S
C3503 H3519 0.960 . S
H3504 C3488 0.931 . S
H3505 C3493 0.929 . S
H3506 C3494 0.960 . S
H3507 C3494 0.962 . S
H3508 C3494 0.960 . S
H3509 C3495 0.961 . S
H3510 C3495 0.961 . S
H3511 C3495 0.961 . S
H3512 C3496 0.931 . S
H3513 C3501 0.930 . S
H3514 C3502 0.956 . S
H3515 C3502 0.961 . S
H3516 C3502 0.961 . S
H3517 C3503 0.958 . S
H3518 C3503 0.961 . S
H3519 C3503 0.960 . S
C3520 C3521 1.391 . S
C3520 C3522 1.394 . S
C3520 H3536 0.931 . S
C3521 C3520 1.391 . S
C3521 C3525 1.376 . S
C3522 C3520 1.394 . S
C3522 C3523 1.369 . S
C3522 C3526 1.531 . S
C3523 C3522 1.369 . S
C3523 C3524 1.410 . S
C3523 C3531 1.503 . S
C3524 C3523 1.410 . S
C3524 C3525 1.392 . S
C3524 C3527 1.511 . S
C3525 C3521 1.376 . S
C3525 C3524 1.392 . S
C3525 H3537 0.929 . S
C3526 C3522 1.531 . S
C3526 H3538 0.960 . S
C3526 H3539 0.962 . S
C3526 H3540 0.960 . S
C3527 C3524 1.511 . S
C3527 H3541 0.961 . S
C3527 H3542 0.961 . S
C3527 H3543 0.961 . S
C3528 C3529 1.370 . S
C3528 C3530 1.363 . S
C3528 H3544 0.931 . S
C3529 C3528 1.370 . S
C3529 C3533 1.408 . S
C3530 C3528 1.363 . S
C3530 C3531 1.370 . S
C3530 C3534 1.524 . S
C3531 C3523 1.503 . S
C3531 C3530 1.370 . S
C3531 C3532 1.403 . S
C3532 C3531 1.403 . S
C3532 C3533 1.404 . S
C3532 C3535 1.539 . S
C3533 C3529 1.408 . S
C3533 C3532 1.404 . S
C3533 H3545 0.930 . S
C3534 C3530 1.524 . S
C3534 H3546 0.956 . S
C3534 H3547 0.961 . S
C3534 H3548 0.961 . S
C3535 C3532 1.539 . S
C3535 H3549 0.958 . S
C3535 H3550 0.961 . S
C3535 H3551 0.960 . S
H3536 C3520 0.931 . S
H3537 C3525 0.929 . S
H3538 C3526 0.960 . S
H3539 C3526 0.962 . S
H3540 C3526 0.960 . S
H3541 C3527 0.961 . S
H3542 C3527 0.961 . S
H3543 C3527 0.961 . S
H3544 C3528 0.931 . S
H3545 C3533 0.930 . S
H3546 C3534 0.956 . S
H3547 C3534 0.961 . S
H3548 C3534 0.961 . S
H3549 C3535 0.958 . S
H3550 C3535 0.961 . S
H3551 C3535 0.960 . S
C3552 C3553 1.391 . S
C3552 C3554 1.394 . S
C3552 H3568 0.931 . S
C3553 C3552 1.391 . S
C3553 C3557 1.376 . S
C3554 C3552 1.394 . S
C3554 C3555 1.369 . S
C3554 C3558 1.531 . S
C3555 C3554 1.369 . S
C3555 C3556 1.410 . S
C3555 C3563 1.503 . S
C3556 C3555 1.410 . S
C3556 C3557 1.392 . S
C3556 C3559 1.511 . S
C3557 C3553 1.376 . S
C3557 C3556 1.392 . S
C3557 H3569 0.929 . S
C3558 C3554 1.531 . S
C3558 H3570 0.960 . S
C3558 H3571 0.962 . S
C3558 H3572 0.960 . S
C3559 C3556 1.511 . S
C3559 H3573 0.961 . S
C3559 H3574 0.961 . S
C3559 H3575 0.961 . S
C3560 C3561 1.370 . S
C3560 C3562 1.363 . S
C3560 H3576 0.931 . S
C3561 C3560 1.370 . S
C3561 C3565 1.408 . S
C3562 C3560 1.363 . S
C3562 C3563 1.370 . S
C3562 C3566 1.524 . S
C3563 C3555 1.503 . S
C3563 C3562 1.370 . S
C3563 C3564 1.403 . S
C3564 C3563 1.403 . S
C3564 C3565 1.404 . S
C3564 C3567 1.539 . S
C3565 C3561 1.408 . S
C3565 C3564 1.404 . S
C3565 H3577 0.930 . S
C3566 C3562 1.524 . S
C3566 H3578 0.956 . S
C3566 H3579 0.961 . S
C3566 H3580 0.961 . S
C3567 C3564 1.539 . S
C3567 H3581 0.958 . S
C3567 H3582 0.961 . S
C3567 H3583 0.960 . S
H3568 C3552 0.931 . S
H3569 C3557 0.929 . S
H3570 C3558 0.960 . S
H3571 C3558 0.962 . S
H3572 C3558 0.960 . S
H3573 C3559 0.961 . S
H3574 C3559 0.961 . S
H3575 C3559 0.961 . S
H3576 C3560 0.931 . S
H3577 C3565 0.930 . S
H3578 C3566 0.956 . S
H3579 C3566 0.961 . S
H3580 C3566 0.961 . S
H3581 C3567 0.958 . S
H3582 C3567 0.961 . S
H3583 C3567 0.960 . S
C3584 C3585 1.391 . S
C3584 C3586 1.394 . S
C3584 H3600 0.931 . S
C3585 C3584 1.391 . S
C3585 C3589 1.376 . S
C3586 C3584 1.394 . S
C3586 C3587 1.369 . S
C3586 C3590 1.531 . S
C3587 C3586 1.369 . S
C3587 C3588 1.410 . S
C3587 C3595 1.503 . S
C3588 C3587 1.410 . S
C3588 C3589 1.392 . S
C3588 C3591 1.511 . S
C3589 C3585 1.376 . S
C3589 C3588 1.392 . S
C3589 H3601 0.929 . S
C3590 C3586 1.531 . S
C3590 H3602 0.960 . S
C3590 H3603 0.962 . S
C3590 H3604 0.960 . S
C3591 C3588 1.511 . S
C3591 H3605 0.961 . S
C3591 H3606 0.961 . S
C3591 H3607 0.961 . S
C3592 C3593 1.370 . S
C3592 C3594 1.363 . S
C3592 H3608 0.931 . S
C3593 C3592 1.370 . S
C3593 C3597 1.408 . S
C3594 C3592 1.363 . S
C3594 C3595 1.370 . S
C3594 C3598 1.524 . S
C3595 C3587 1.503 . S
C3595 C3594 1.370 . S
C3595 C3596 1.403 . S
C3596 C3595 1.403 . S
C3596 C3597 1.404 . S
C3596 C3599 1.539 . S
C3597 C3593 1.408 . S
C3597 C3596 1.404 . S
C3597 H3609 0.930 . S
C3598 C3594 1.524 . S
C3598 H3610 0.956 . S
C3598 H3611 0.961 . S
C3598 H3612 0.961 . S
C3599 C3596 1.539 . S
C3599 H3613 0.958 . S
C3599 H3614 0.961 . S
C3599 H3615 0.960 . S
H3600 C3584 0.931 . S
H3601 C3589 0.929 . S
H3602 C3590 0.960 . S
H3603 C3590 0.962 . S
H3604 C3590 0.960 . S
H3605 C3591 0.961 . S
H3606 C3591 0.961 . S
H3607 C3591 0.961 . S
H3608 C3592 0.931 . S
H3609 C3597 0.930 . S
H3610 C3598 0.956 . S
H3611 C3598 0.961 . S
H3612 C3598 0.961 . S
H3613 C3599 0.958 . S
H3614 C3599 0.961 . S
H3615 C3599 0.960 . S
C3616 C3617 1.391 . S
C3616 C3618 1.394 . S
C3616 H3632 0.931 . S
C3617 C3616 1.391 . S
C3617 C3621 1.376 . S
C3618 C3616 1.394 . S
C3618 C3619 1.369 . S
C3618 C3622 1.531 . S
C3619 C3618 1.369 . S
C3619 C3620 1.410 . S
C3619 C3627 1.503 . S
C3620 C3619 1.410 . S
C3620 C3621 1.392 . S
C3620 C3623 1.511 . S
C3621 C3617 1.376 . S
C3621 C3620 1.392 . S
C3621 H3633 0.929 . S
C3622 C3618 1.531 . S
C3622 H3634 0.960 . S
C3622 H3635 0.962 . S
C3622 H3636 0.960 . S
C3623 C3620 1.511 . S
C3623 H3637 0.961 . S
C3623 H3638 0.961 . S
C3623 H3639 0.961 . S
C3624 C3625 1.370 . S
C3624 C3626 1.363 . S
C3624 H3640 0.931 . S
C3625 C3624 1.370 . S
C3625 C3629 1.408 . S
C3626 C3624 1.363 . S
C3626 C3627 1.370 . S
C3626 C3630 1.524 . S
C3627 C3619 1.503 . S
C3627 C3626 1.370 . S
C3627 C3628 1.403 . S
C3628 C3627 1.403 . S
C3628 C3629 1.404 . S
C3628 C3631 1.539 . S
C3629 C3625 1.408 . S
C3629 C3628 1.404 . S
C3629 H3641 0.930 . S
C3630 C3626 1.524 . S
C3630 H3642 0.956 . S
C3630 H3643 0.961 . S
C3630 H3644 0.961 . S
C3631 C3628 1.539 . S
C3631 H3645 0.958 . S
C3631 H3646 0.961 . S
C3631 H3647 0.960 . S
H3632 C3616 0.931 . S
H3633 C3621 0.929 . S
H3634 C3622 0.960 . S
H3635 C3622 0.962 . S
H3636 C3622 0.960 . S
H3637 C3623 0.961 . S
H3638 C3623 0.961 . S
H3639 C3623 0.961 . S
H3640 C3624 0.931 . S
H3641 C3629 0.930 . S
H3642 C3630 0.956 . S
H3643 C3630 0.961 . S
H3644 C3630 0.961 . S
H3645 C3631 0.958 . S
H3646 C3631 0.961 . S
H3647 C3631 0.960 . S
C3648 C3649 1.391 . S
C3648 C3650 1.394 . S
C3648 H3664 0.931 . S
C3649 C3648 1.391 . S
C3649 C3653 1.376 . S
C3650 C3648 1.394 . S
C3650 C3651 1.369 . S
C3650 C3654 1.531 . S
C3651 C3650 1.369 . S
C3651 C3652 1.410 . S
C3651 C3659 1.503 . S
C3652 C3651 1.410 . S
C3652 C3653 1.392 . S
C3652 C3655 1.511 . S
C3653 C3649 1.376 . S
C3653 C3652 1.392 . S
C3653 H3665 0.929 . S
C3654 C3650 1.531 . S
C3654 H3666 0.960 . S
C3654 H3667 0.962 . S
C3654 H3668 0.960 . S
C3655 C3652 1.511 . S
C3655 H3669 0.961 . S
C3655 H3670 0.961 . S
C3655 H3671 0.961 . S
C3656 C3657 1.370 . S
C3656 C3658 1.363 . S
C3656 H3672 0.931 . S
C3657 C3656 1.370 . S
C3657 C3661 1.408 . S
C3658 C3656 1.363 . S
C3658 C3659 1.370 . S
C3658 C3662 1.524 . S
C3659 C3651 1.503 . S
C3659 C3658 1.370 . S
C3659 C3660 1.403 . S
C3660 C3659 1.403 . S
C3660 C3661 1.404 . S
C3660 C3663 1.539 . S
C3661 C3657 1.408 . S
C3661 C3660 1.404 . S
C3661 H3673 0.930 . S
C3662 C3658 1.524 . S
C3662 H3674 0.956 . S
C3662 H3675 0.961 . S
C3662 H3676 0.961 . S
C3663 C3660 1.539 . S
C3663 H3677 0.958 . S
C3663 H3678 0.961 . S
C3663 H3679 0.960 . S
H3664 C3648 0.931 . S
H3665 C3653 0.929 . S
H3666 C3654 0.960 . S
H3667 C3654 0.962 . S
H3668 C3654 0.960 . S
H3669 C3655 0.961 . S
H3670 C3655 0.961 . S
H3671 C3655 0.961 . S
H3672 C3656 0.931 . S
H3673 C3661 0.930 . S
H3674 C3662 0.956 . S
H3675 C3662 0.961 . S
H3676 C3662 0.961 . S
H3677 C3663 0.958 . S
H3678 C3663 0.961 . S
H3679 C3663 0.960 . S
C3680 C3681 1.391 . S
C3680 C3682 1.394 . S
C3680 H3696 0.931 . S
C3681 C3680 1.391 . S
C3681 C3685 1.376 . S
C3682 C3680 1.394 . S
C3682 C3683 1.369 . S
C3682 C3686 1.531 . S
C3683 C3682 1.369 . S
C3683 C3684 1.410 . S
C3683 C3691 1.503 . S
C3684 C3683 1.410 . S
C3684 C3685 1.392 . S
C3684 C3687 1.511 . S
C3685 C3681 1.376 . S
C3685 C3684 1.392 . S
C3685 H3697 0.929 . S
C3686 C3682 1.531 . S
C3686 H3698 0.960 . S
C3686 H3699 0.962 . S
C3686 H3700 0.960 . S
C3687 C3684 1.511 . S
C3687 H3701 0.961 . S
C3687 H3702 0.961 . S
C3687 H3703 0.961 . S
C3688 C3689 1.370 . S
C3688 C3690 1.363 . S
C3688 H3704 0.931 . S
C3689 C3688 1.370 . S
C3689 C3693 1.408 . S
C3690 C3688 1.363 . S
C3690 C3691 1.370 . S
C3690 C3694 1.524 . S
C3691 C3683 1.503 . S
C3691 C3690 1.370 . S
C3691 C3692 1.403 . S
C3692 C3691 1.403 . S
C3692 C3693 1.404 . S
C3692 C3695 1.539 . S
C3693 C3689 1.408 . S
C3693 C3692 1.404 . S
C3693 H3705 0.930 . S
C3694 C3690 1.524 . S
C3694 H3706 0.956 . S
C3694 H3707 0.961 . S
C3694 H3708 0.961 . S
C3695 C3692 1.539 . S
C3695 H3709 0.958 . S
C3695 H3710 0.961 . S
C3695 H3711 0.960 . S
H3696 C3680 0.931 . S
H3697 C3685 0.929 . S
H3698 C3686 0.960 . S
H3699 C3686 0.962 . S
H3700 C3686 0.960 . S
H3701 C3687 0.961 . S
H3702 C3687 0.961 . S
H3703 C3687 0.961 . S
H3704 C3688 0.931 . S
H3705 C3693 0.930 . S
H3706 C3694 0.956 . S
H3707 C3694 0.961 . S
H3708 C3694 0.961 . S
H3709 C3695 0.958 . S
H3710 C3695 0.961 . S
H3711 C3695 0.960 . S
C3712 C3713 1.391 . S
C3712 C3714 1.394 . S
C3712 H3728 0.931 . S
C3713 C3712 1.391 . S
C3713 C3717 1.376 . S
C3714 C3712 1.394 . S
C3714 C3715 1.369 . S
C3714 C3718 1.531 . S
C3715 C3714 1.369 . S
C3715 C3716 1.410 . S
C3715 C3723 1.503 . S
C3716 C3715 1.410 . S
C3716 C3717 1.392 . S
C3716 C3719 1.511 . S
C3717 C3713 1.376 . S
C3717 C3716 1.392 . S
C3717 H3729 0.929 . S
C3718 C3714 1.531 . S
C3718 H3730 0.960 . S
C3718 H3731 0.962 . S
C3718 H3732 0.960 . S
C3719 C3716 1.511 . S
C3719 H3733 0.961 . S
C3719 H3734 0.961 . S
C3719 H3735 0.961 . S
C3720 C3721 1.370 . S
C3720 C3722 1.363 . S
C3720 H3736 0.931 . S
C3721 C3720 1.370 . S
C3721 C3725 1.408 . S
C3722 C3720 1.363 . S
C3722 C3723 1.370 . S
C3722 C3726 1.524 . S
C3723 C3715 1.503 . S
C3723 C3722 1.370 . S
C3723 C3724 1.403 . S
C3724 C3723 1.403 . S
C3724 C3725 1.404 . S
C3724 C3727 1.539 . S
C3725 C3721 1.408 . S
C3725 C3724 1.404 . S
C3725 H3737 0.930 . S
C3726 C3722 1.524 . S
C3726 H3738 0.956 . S
C3726 H3739 0.961 . S
C3726 H3740 0.961 . S
C3727 C3724 1.539 . S
C3727 H3741 0.958 . S
C3727 H3742 0.961 . S
C3727 H3743 0.960 . S
H3728 C3712 0.931 . S
H3729 C3717 0.929 . S
H3730 C3718 0.960 . S
H3731 C3718 0.962 . S
H3732 C3718 0.960 . S
H3733 C3719 0.961 . S
H3734 C3719 0.961 . S
H3735 C3719 0.961 . S
H3736 C3720 0.931 . S
H3737 C3725 0.930 . S
H3738 C3726 0.956 . S
H3739 C3726 0.961 . S
H3740 C3726 0.961 . S
H3741 C3727 0.958 . S
H3742 C3727 0.961 . S
H3743 C3727 0.960 . S
C673 C442 1.378 . S
C681 C8 1.380 . S
C705 C22 1.375 . S
C713 C400 1.380 . S
C737 C36 1.380 . S
C745 C414 1.381 . S
C769 C428 1.376 . S
C777 C50 1.382 . S
C801 C358 1.380 . S
C809 C64 1.382 . S
C833 C78 1.376 . S
C841 C372 1.382 . S
C865 C386 1.377 . S
C873 C92 1.382 . S
C897 C106 1.380 . S
C905 C344 1.381 . S
C929 C120 1.375 . S
C937 C624 1.381 . S
C961 C582 1.380 . S
C969 C134 1.381 . S
C993 C596 1.375 . S
C1001 C148 1.381 . S
C1025 C162 1.375 . S
C1033 C610 1.380 . S
C1057 C176 1.380 . S
C1065 C666 1.381 . S
C1089 C190 1.379 . S
C1097 C638 1.380 . S
C1121 C204 1.378 . S
C1129 C652 1.382 . S
C1153 C568 1.375 . S
C1161 C218 1.381 . S
C1185 C554 1.376 . S
C1193 C232 1.380 . S
C1217 C246 1.380 . S
C1225 C470 1.381 . S
C1249 C484 1.378 . S
C1257 C260 1.380 . S
C1281 C274 1.380 . S
C1289 C498 1.382 . S
C1313 C456 1.378 . S
C1321 C288 1.380 . S
C1345 C526 1.380 . S
C1353 C302 1.381 . S
C1377 C316 1.375 . S
C1385 C540 1.380 . S
C1409 C512 1.380 . S
C1417 C330 1.382 . S
C1441 C133 1.327 . S
C1449 C7 1.322 . S
C1473 C147 1.331 . S
C1481 C21 1.321 . S
C1505 C35 1.332 . S
C1513 C161 1.320 . S
C1537 C119 1.288 . S
C1545 C49 1.303 . S
C1569 C63 1.309 . S
C1577 C217 1.307 . S
C1601 C175 1.305 . S
C1609 C77 1.316 . S
C1633 C189 1.292 . S
C1641 C91 1.303 . S
C1665 C203 1.328 . S
C1673 C105 1.316 . S
C1697 C259 1.289 . S
C1705 C231 1.303 . S
C1729 C315 1.294 . S
C1737 C245 1.311 . S
C1761 C329 1.301 . S
C1769 C273 1.314 . S
C1793 C287 1.300 . S
C1801 C301 1.314 . S
C1825 C469 1.292 . S
C1833 C343 1.303 . S
C1857 C483 1.294 . S
C1865 C357 1.303 . S
C1889 C497 1.293 . S
C1897 C371 1.310 . S
C1921 C385 1.299 . S
C1929 C455 1.304 . S
C1953 C399 1.323 . S
C1961 C553 1.321 . S
C1985 C413 1.289 . S
C1993 C511 1.308 . S
C2017 C525 1.329 . S
C2025 C427 1.322 . S
C2049 C539 1.324 . S
C2057 C441 1.314 . S
C2081 C567 1.309 . S
C2089 C595 1.307 . S
C2113 C651 1.292 . S
C2121 C581 1.310 . S
C2145 C665 1.301 . S
C2153 C609 1.305 . S
C2177 C637 1.309 . S
C2185 C623 1.317 . S
C2209 C3 1.441 . S
C2217 C261 1.397 . S
C2241 C17 1.436 . S
C2249 C275 1.410 . S
C2273 C31 1.442 . S
C2281 C289 1.397 . S
C2305 C247 1.428 . S
C2313 C45 1.432 . S
C2337 C59 1.417 . S
C2345 C317 1.418 . S
C2369 C73 1.440 . S
C2377 C233 1.406 . S
C2401 C331 1.406 . S
C2409 C87 1.431 . S
C2433 C303 1.428 . S
C2441 C101 1.432 . S
C2465 C115 1.443 . S
C2473 C135 1.402 . S
C2497 C129 1.418 . S
C2505 C149 1.419 . S
C2529 C143 1.441 . S
C2537 C163 1.397 . S
C2561 C121 1.404 . S
C2569 C157 1.437 . S
C2593 C219 1.381 . S
C2601 C171 1.440 . S
C2625 C177 1.399 . S
C2633 C185 1.432 . S
C2657 C191 1.388 . S
C2665 C199 1.439 . S
C2689 C213 1.423 . S
C2697 C205 1.408 . S
C2721 C51 1.380 . S
C2729 C227 1.437 . S
C2753 C79 1.388 . S
C2761 C241 1.439 . S
C2785 C93 1.381 . S
C2793 C255 1.436 . S
C2817 C269 1.443 . S
C2825 C107 1.401 . S
C2849 C65 1.410 . S
C2857 C283 1.430 . S
C2881 C23 1.430 . S
C2889 C297 1.429 . S
C2913 C37 1.426 . S
C2921 C311 1.429 . S
C2945 C9 1.382 . S
C2953 C325 1.440 . S
C2977 C597 1.424 . S
C2985 C339 1.429 . S
C3009 C353 1.429 . S
C3017 C611 1.416 . S
C3041 C625 1.425 . S
C3049 C367 1.429 . S
C3073 C583 1.378 . S
C3081 C381 1.437 . S
C3105 C395 1.419 . S
C3113 C653 1.419 . S
C3137 C409 1.443 . S
C3145 C569 1.402 . S
C3169 C667 1.377 . S
C3177 C423 1.438 . S
C3201 C437 1.440 . S
C3209 C639 1.407 . S
C3233 C451 1.441 . S
C3241 C471 1.405 . S
C3265 C465 1.417 . S
C3273 C485 1.415 . S
C3297 C479 1.426 . S
C3305 C499 1.417 . S
C3329 C493 1.438 . S
C3337 C457 1.398 . S
C3361 C555 1.398 . S
C3369 C507 1.438 . S
C3393 C513 1.423 . S
C3401 C521 1.433 . S
C3425 C527 1.395 . S
C3433 C535 1.439 . S
C3457 C549 1.417 . S
C3465 C541 1.418 . S
C3489 C387 1.377 . S
C3497 C563 1.439 . S
C3521 C415 1.404 . S
C3529 C577 1.438 . S
C3553 C429 1.430 . S
C3561 C591 1.431 . S
C3585 C605 1.440 . S
C3593 C443 1.407 . S
C3617 C401 1.427 . S
C3625 C619 1.429 . S
C3649 C359 1.430 . S
C3657 C633 1.431 . S
C3681 C647 1.435 . S
C3689 C373 1.399 . S
C3713 C345 1.424 . S
C3721 C661 1.429 . S
