# Generated by pormake.
# Topology uou, (4)-cn, num edge types: 1
# Building blocks:
#     Node 0, Type 0, BuildingBlock: QUQFOY_clean_sbu_3, # of connection points: 4
#     Node 1, Type 0, BuildingBlock: QUQFOY_clean_sbu_3, # of connection points: 4
#     Node 2, Type 0, BuildingBlock: QUQFOY_clean_sbu_3, # of connection points: 4
#     Node 3, Type 0, BuildingBlock: QUQFOY_clean_sbu_3, # of connection points: 4
#     Node 4, Type 0, BuildingBlock: QUQFOY_clean_sbu_3, # of connection points: 4
#     Node 5, Type 0, BuildingBlock: QUQFOY_clean_sbu_3, # of connection points: 4
#     Node 6, Type 0, BuildingBlock: QUQFOY_clean_sbu_3, # of connection points: 4
#     Node 7, Type 0, BuildingBlock: QUQFOY_clean_sbu_3, # of connection points: 4
#     Node 8, Type 0, BuildingBlock: QUQFOY_clean_sbu_3, # of connection points: 4
#     Node 9, Type 0, BuildingBlock: QUQFOY_clean_sbu_3, # of connection points: 4
#     Node 10, Type 0, BuildingBlock: QUQFOY_clean_sbu_3, # of connection points: 4
#     Node 11, Type 0, BuildingBlock: QUQFOY_clean_sbu_3, # of connection points: 4
#     Node 12, Type 0, BuildingBlock: QUQFOY_clean_sbu_3, # of connection points: 4
#     Node 13, Type 0, BuildingBlock: QUQFOY_clean_sbu_3, # of connection points: 4
#     Node 14, Type 0, BuildingBlock: QUQFOY_clean_sbu_3, # of connection points: 4
#     Node 15, Type 0, BuildingBlock: QUQFOY_clean_sbu_3, # of connection points: 4
#     Edge 16, Type (0, 0), BuildingBlock: ZUJKAS_clean_linker_0, # of connection points: 2
#     Edge 17, Type (0, 0), BuildingBlock: ZUJKAS_clean_linker_0, # of connection points: 2
#     Edge 18, Type (0, 0), BuildingBlock: ZUJKAS_clean_linker_0, # of connection points: 2
#     Edge 19, Type (0, 0), BuildingBlock: ZUJKAS_clean_linker_0, # of connection points: 2
#     Edge 20, Type (0, 0), BuildingBlock: ZUJKAS_clean_linker_0, # of connection points: 2
#     Edge 21, Type (0, 0), BuildingBlock: ZUJKAS_clean_linker_0, # of connection points: 2
#     Edge 22, Type (0, 0), BuildingBlock: ZUJKAS_clean_linker_0, # of connection points: 2
#     Edge 23, Type (0, 0), BuildingBlock: ZUJKAS_clean_linker_0, # of connection points: 2
#     Edge 24, Type (0, 0), BuildingBlock: ZUJKAS_clean_linker_0, # of connection points: 2
#     Edge 25, Type (0, 0), BuildingBlock: ZUJKAS_clean_linker_0, # of connection points: 2
#     Edge 26, Type (0, 0), BuildingBlock: ZUJKAS_clean_linker_0, # of connection points: 2
#     Edge 27, Type (0, 0), BuildingBlock: ZUJKAS_clean_linker_0, # of connection points: 2
#     Edge 28, Type (0, 0), BuildingBlock: ZUJKAS_clean_linker_0, # of connection points: 2
#     Edge 29, Type (0, 0), BuildingBlock: ZUJKAS_clean_linker_0, # of connection points: 2
#     Edge 30, Type (0, 0), BuildingBlock: ZUJKAS_clean_linker_0, # of connection points: 2
#     Edge 31, Type (0, 0), BuildingBlock: ZUJKAS_clean_linker_0, # of connection points: 2
#     Edge 32, Type (0, 0), BuildingBlock: ZUJKAS_clean_linker_0, # of connection points: 2
#     Edge 33, Type (0, 0), BuildingBlock: ZUJKAS_clean_linker_0, # of connection points: 2
#     Edge 34, Type (0, 0), BuildingBlock: ZUJKAS_clean_linker_0, # of connection points: 2
#     Edge 35, Type (0, 0), BuildingBlock: ZUJKAS_clean_linker_0, # of connection points: 2
#     Edge 36, Type (0, 0), BuildingBlock: ZUJKAS_clean_linker_0, # of connection points: 2
#     Edge 37, Type (0, 0), BuildingBlock: ZUJKAS_clean_linker_0, # of connection points: 2
#     Edge 38, Type (0, 0), BuildingBlock: ZUJKAS_clean_linker_0, # of connection points: 2
#     Edge 39, Type (0, 0), BuildingBlock: ZUJKAS_clean_linker_0, # of connection points: 2
#     Edge 40, Type (0, 0), BuildingBlock: ZUJKAS_clean_linker_0, # of connection points: 2
#     Edge 41, Type (0, 0), BuildingBlock: ZUJKAS_clean_linker_0, # of connection points: 2
#     Edge 42, Type (0, 0), BuildingBlock: ZUJKAS_clean_linker_0, # of connection points: 2
#     Edge 43, Type (0, 0), BuildingBlock: ZUJKAS_clean_linker_0, # of connection points: 2
#     Edge 44, Type (0, 0), BuildingBlock: ZUJKAS_clean_linker_0, # of connection points: 2
#     Edge 45, Type (0, 0), BuildingBlock: ZUJKAS_clean_linker_0, # of connection points: 2
#     Edge 46, Type (0, 0), BuildingBlock: ZUJKAS_clean_linker_0, # of connection points: 2
#     Edge 47, Type (0, 0), BuildingBlock: ZUJKAS_clean_linker_0, # of connection points: 2
# Relax obj value: 0.038
# Max RMSD: 0.067
# Mean RMSD: 0.067
data_MOF--net-uou--node1-QUQFOY_clean_sbu_3--edge1-ZUJKAS_clean_linker_0
_symmetry_space_group_name_H-M    P1
_symmetry_Int_Tables_number       1
_symmetry_cell_setting            triclinic
loop_
_symmetry_equiv_pos_as_xyz
'x, y, z'
_cell_length_a     51.488406
_cell_length_b     51.907726
_cell_length_c     72.524924
_cell_angle_alpha  89.932193
_cell_angle_beta   89.988494
_cell_angle_gamma 89.970979
loop_
_atom_site_label
_atom_site_type_symbol
_atom_site_fract_x
_atom_site_fract_y
_atom_site_fract_z
_atom_type_partial_charge
C0 C 0.01022 0.03883 0.13551 0.0
O1 O -0.00868 0.03858 0.12427 0.0
Cd2 Cd -0.00361 0.0495 0.09233 0.0
O3 O 0.03297 0.04481 0.13013 0.0
Cd4 Cd 0.05741 0.05699 0.10238 0.0
C5 C 0.02115 0.1109 0.09737 0.0
O6 O 0.03459 0.02765 0.08251 0.0
O7 O 0.05946 0.05474 0.06856 0.0
O8 O 0.09014 0.02847 0.11488 0.0
C9 C 0.04419 0.03564 0.0675 0.0
O10 O 0.00321 0.09601 0.09167 0.0
C11 C 0.10932 0.04324 0.11193 0.0
O12 O 0.04252 0.10192 0.10355 0.0
O13 O 0.10436 0.06513 0.10486 0.0
C14 C 0.46555 0.95173 0.13968 0.0
O15 O 0.485 0.95316 0.12896 0.0
Cd16 Cd 0.48262 0.94206 0.09698 0.0
O17 O 0.44343 0.94473 0.13365 0.0
Cd18 Cd 0.42087 0.93224 0.10514 0.0
C19 C 0.45954 0.87964 0.10123 0.0
O20 O 0.44409 0.9623 0.08606 0.0
O21 O 0.4201 0.93527 0.07135 0.0
O22 O 0.38679 0.95972 0.11693 0.0
C23 C 0.43537 0.9544 0.07078 0.0
O24 O 0.47753 0.89533 0.09681 0.0
C25 C 0.36822 0.94432 0.11372 0.0
O26 O 0.43711 0.88778 0.10595 0.0
O27 O 0.37412 0.92261 0.10676 0.0
C28 C 0.51052 0.95218 0.33272 0.0
O29 O 0.49279 0.95322 0.34487 0.0
Cd30 Cd 0.4999 0.94232 0.3765 0.0
O31 O 0.53367 0.94594 0.33705 0.0
Cd32 Cd 0.56072 0.93472 0.36394 0.0
C33 C 0.52473 0.88076 0.37036 0.0
O34 O 0.53905 0.96374 0.38445 0.0
O35 O 0.56535 0.93733 0.3977 0.0
O36 O 0.59227 0.96428 0.35125 0.0
C37 C 0.54973 0.95611 0.39917 0.0
O38 O 0.50687 0.8958 0.37604 0.0
C39 C 0.61164 0.94928 0.35252 0.0
O40 O 0.54613 0.88967 0.36419 0.0
O41 O 0.60729 0.92672 0.35867 0.0
C42 C 0.96993 0.03675 0.32939 0.0
O43 O 0.98887 0.03504 0.34054 0.0
Cd44 Cd 0.98595 0.0474 0.37218 0.0
O45 O 0.94767 0.04421 0.33491 0.0
Cd46 Cd 0.92411 0.05691 0.3631 0.0
C47 C 0.96265 0.10969 0.36641 0.0
O48 O 0.94705 0.02799 0.38302 0.0
O49 O 0.92286 0.05563 0.39701 0.0
O50 O 0.89031 0.02768 0.35343 0.0
C51 C 0.93819 0.03655 0.39809 0.0
O52 O 0.98077 0.09411 0.37082 0.0
C53 C 0.87181 0.04376 0.3543 0.0
O54 O 0.94006 0.10147 0.36221 0.0
O55 O 0.8776 0.06666 0.35902 0.0
C56 C 0.9677 0.95424 0.82816 0.0
O57 O 0.98594 0.95803 0.83961 0.0
Cd58 Cd 0.98302 0.9437 0.87084 0.0
O59 O 0.94604 0.94477 0.8333 0.0
Cd60 Cd 0.92206 0.93174 0.86129 0.0
C61 C 0.96236 0.8805 0.8641 0.0
O62 O 0.94331 0.96171 0.8814 0.0
O63 O 0.92018 0.93302 0.89518 0.0
O64 O 0.88816 0.95908 0.84907 0.0
C65 C 0.93455 0.95277 0.89638 0.0
O66 O 0.97985 0.89664 0.86872 0.0
C67 C 0.86962 0.94347 0.85183 0.0
O68 O 0.93948 0.88798 0.85999 0.0
O69 O 0.87548 0.92164 0.85867 0.0
C70 C 0.51314 0.03757 0.83174 0.0
O71 O 0.49407 0.03654 0.84283 0.0
Cd72 Cd 0.49776 0.04945 0.87434 0.0
O73 O 0.53548 0.04478 0.83724 0.0
Cd74 Cd 0.55974 0.05818 0.8649 0.0
C75 C 0.52162 0.11135 0.8675 0.0
O76 O 0.53664 0.02944 0.88488 0.0
O77 O 0.56179 0.05629 0.89875 0.0
O78 O 0.59228 0.02938 0.85258 0.0
C79 C 0.54604 0.03759 0.89989 0.0
O80 O 0.50347 0.09604 0.87227 0.0
C81 C 0.61156 0.04409 0.8553 0.0
O82 O 0.54412 0.10285 0.8633 0.0
O83 O 0.60679 0.0661 0.86222 0.0
C84 C 0.47115 0.03543 0.63835 0.0
O85 O 0.48977 0.03395 0.62691 0.0
Cd86 Cd 0.48592 0.04646 0.59538 0.0
O87 O 0.44865 0.04275 0.6332 0.0
Cd88 Cd 0.42401 0.0555 0.60541 0.0
C89 C 0.46226 0.10849 0.60218 0.0
O90 O 0.44684 0.02652 0.58555 0.0
O91 O 0.42197 0.05343 0.57148 0.0
O92 O 0.39086 0.02719 0.61761 0.0
C93 C 0.43759 0.0346 0.57048 0.0
O94 O 0.48031 0.09312 0.5973 0.0
C95 C 0.37193 0.04237 0.6149 0.0
O96 O 0.43983 0.10005 0.6066 0.0
O97 O 0.37722 0.06435 0.6081 0.0
C98 C 0.01505 0.95394 0.63667 0.0
O99 O -0.003 0.95802 0.62511 0.0
Cd100 Cd 0.00032 0.94382 0.59391 0.0
O101 O 0.0367 0.94431 0.63166 0.0
Cd102 Cd 0.0611 0.9313 0.60386 0.0
C103 C 0.02054 0.8804 0.60089 0.0
O104 O 0.04029 0.96163 0.58373 0.0
O105 O 0.06337 0.93292 0.56995 0.0
O106 O 0.09452 0.95853 0.61668 0.0
C107 C 0.04917 0.95281 0.56876 0.0
O108 O 0.00331 0.89677 0.59614 0.0
C109 C 0.11328 0.94321 0.61382 0.0
O110 O 0.04345 0.88759 0.60515 0.0
O111 O 0.10778 0.92153 0.60665 0.0
C112 C 0.51057 0.53746 0.13446 0.0
O113 O 0.49265 0.53577 0.12249 0.0
Cd114 Cd 0.49886 0.54724 0.0909 0.0
O115 O 0.53335 0.54463 0.1299 0.0
Cd116 Cd 0.55955 0.55702 0.10285 0.0
C117 C 0.52127 0.60961 0.09752 0.0
O118 O 0.53863 0.52714 0.08256 0.0
O119 O 0.56366 0.55445 0.06905 0.0
O120 O 0.59219 0.52951 0.11658 0.0
C121 C 0.54872 0.53513 0.06773 0.0
O122 O 0.50391 0.59402 0.09185 0.0
C123 C 0.61114 0.5447 0.11405 0.0
O124 O 0.54317 0.60139 0.1033 0.0
O125 O 0.60606 0.56637 0.10667 0.0
C126 C 0.96983 0.45221 0.13573 0.0
O127 O 0.98815 0.45295 0.12402 0.0
Cd128 Cd 0.98156 0.44274 0.09212 0.0
O129 O 0.94689 0.4461 0.13087 0.0
Cd130 Cd 0.92123 0.43417 0.10366 0.0
C131 C 0.95821 0.38091 0.09747 0.0
O132 O 0.94255 0.46438 0.08358 0.0
O133 O 0.91743 0.4373 0.06993 0.0
O134 O 0.88831 0.46154 0.11725 0.0
C135 C 0.93228 0.4567 0.06873 0.0
O136 O 0.97565 0.39608 0.09136 0.0
C137 C 0.86947 0.44624 0.11464 0.0
O138 O 0.93702 0.38957 0.10415 0.0
O139 O 0.87476 0.42465 0.10725 0.0
C140 C 0.01448 0.45001 0.3295 0.0
O141 O -0.00444 0.45224 0.34062 0.0
Cd142 Cd -0.00077 0.44265 0.37266 0.0
O143 O 0.03689 0.44331 0.33523 0.0
Cd144 Cd 0.06075 0.4329 0.36384 0.0
C145 C 0.02276 0.38016 0.3691 0.0
O146 O 0.03776 0.46464 0.3816 0.0
O147 O 0.06221 0.43934 0.39745 0.0
O148 O 0.09414 0.45786 0.34842 0.0
C149 C 0.04697 0.45851 0.39715 0.0
O150 O 0.00461 0.39587 0.37316 0.0
C151 C 0.11312 0.4445 0.35415 0.0
O152 O 0.04521 0.38829 0.36447 0.0
O153 O 0.1078 0.42498 0.36405 0.0
C154 C 0.46718 0.54054 0.32787 0.0
O155 O 0.48638 0.53824 0.33873 0.0
Cd156 Cd 0.48294 0.54776 0.37087 0.0
O157 O 0.44509 0.54777 0.33386 0.0
Cd158 Cd 0.42216 0.55972 0.36239 0.0
C159 C 0.46197 0.61104 0.36788 0.0
O160 O 0.44382 0.52689 0.38022 0.0
O161 O 0.42041 0.55333 0.39592 0.0
O162 O 0.38788 0.53625 0.34686 0.0
C163 C 0.4347 0.53345 0.39571 0.0
O164 O 0.47938 0.59463 0.37215 0.0
C165 C 0.36936 0.55004 0.3528 0.0
O166 O 0.43944 0.60377 0.36278 0.0
O167 O 0.37536 0.56916 0.36287 0.0
C168 C 0.47057 0.45491 0.82856 0.0
O169 O 0.48913 0.45654 0.84003 0.0
Cd170 Cd 0.48527 0.44439 0.87164 0.0
O171 O 0.4481 0.44749 0.8337 0.0
Cd172 Cd 0.42386 0.4348 0.86169 0.0
C173 C 0.46233 0.38204 0.86579 0.0
O174 O 0.44615 0.46423 0.8816 0.0
O175 O 0.42188 0.43668 0.89559 0.0
O176 O 0.39024 0.46345 0.85071 0.0
C177 C 0.43693 0.45595 0.89664 0.0
O178 O 0.48021 0.39767 0.8705 0.0
C179 C 0.37155 0.44776 0.8526 0.0
O180 O 0.43989 0.39021 0.86111 0.0
O181 O 0.3772 0.42526 0.85832 0.0
C182 C 0.01345 0.53499 0.82615 0.0
O183 O -0.00652 0.53498 0.83643 0.0
Cd184 Cd -0.00551 0.54858 0.86791 0.0
O185 O 0.03553 0.54164 0.83248 0.0
Cd186 Cd 0.05692 0.55521 0.86127 0.0
C187 C 0.02042 0.60964 0.86205 0.0
O188 O 0.03143 0.52814 0.88117 0.0
O189 O 0.05563 0.55587 0.89507 0.0
O190 O 0.09074 0.52449 0.85408 0.0
C191 C 0.03964 0.53737 0.89622 0.0
O192 O 0.00142 0.59495 0.86606 0.0
C193 C 0.1095 0.54025 0.85499 0.0
O194 O 0.04292 0.60038 0.85881 0.0
O195 O 0.10389 0.56357 0.8586 0.0
C196 C 0.97072 0.53577 0.63362 0.0
O197 O 0.98862 0.53565 0.62156 0.0
Cd198 Cd 0.98229 0.54968 0.59053 0.0
O199 O 0.94771 0.54274 0.62944 0.0
Cd200 Cd 0.92115 0.5568 0.60287 0.0
C201 C 0.95788 0.61083 0.59938 0.0
O202 O 0.943 0.5296 0.58128 0.0
O203 O 0.91705 0.55722 0.56898 0.0
O204 O 0.88904 0.5266 0.61405 0.0
C205 C 0.93272 0.5386 0.56681 0.0
O206 O 0.9758 0.5961 0.59339 0.0
C207 C 0.86987 0.54192 0.61329 0.0
O208 O 0.93612 0.60166 0.60467 0.0
O209 O 0.87457 0.56487 0.6081 0.0
C210 C 0.51138 0.45589 0.63535 0.0
O211 O 0.49211 0.45595 0.62443 0.0
Cd212 Cd 0.4951 0.44076 0.59336 0.0
O213 O 0.53366 0.4484 0.62992 0.0
Cd214 Cd 0.55707 0.43299 0.60244 0.0
C215 C 0.51922 0.37948 0.60182 0.0
O216 O 0.53361 0.45942 0.58101 0.0
O217 O 0.55828 0.43065 0.56864 0.0
O218 O 0.59079 0.46338 0.61038 0.0
C219 C 0.54263 0.4493 0.56649 0.0
O220 O 0.50084 0.39433 0.59674 0.0
C221 C 0.60933 0.44729 0.61047 0.0
O222 O 0.54168 0.38843 0.60558 0.0
O223 O 0.60362 0.42394 0.60703 0.0
H224 H 0.35117 0.98814 0.13044 0.0
H225 H 0.30651 0.00347 0.13306 0.0
H226 H 0.27902 0.93412 0.10686 0.0
H227 H 0.32384 0.91861 0.10403 0.0
H228 H 0.2609 0.98021 0.09074 0.0
H229 H 0.24627 0.98034 0.16656 0.0
H230 H 0.27539 -0.00373 0.15906 0.0
H231 H 0.27184 0.9622 0.1555 0.0
C232 C 0.33562 0.97594 0.12546 0.0
C233 C 0.34102 0.95217 0.11699 0.0
C234 C 0.31009 0.98469 0.12708 0.0
C235 C 0.28949 0.96981 0.12033 0.0
C236 C 0.29471 0.9458 0.11224 0.0
H237 H 0.12448 -0.00112 0.12894 0.0
H238 H 0.16854 0.98181 0.13174 0.0
C239 C 0.32028 0.93696 0.11067 0.0
C240 C 0.26278 0.98031 0.12039 0.0
H241 H 0.21474 0.00277 0.14859 0.0
C242 C 0.25073 0.98501 0.10337 0.0
C243 C 0.24959 0.98644 0.13692 0.0
C244 C 0.2613 0.98086 0.15557 0.0
C245 C 0.22594 -0.00388 0.10242 0.0
C246 C 0.21307 0.00297 0.11892 0.0
C247 C 0.22488 -0.00219 0.13597 0.0
C248 C 0.18685 0.01458 0.11868 0.0
C249 C 0.21358 0.00017 0.08377 0.0
C250 C 0.18272 0.039 0.11088 0.0
C251 C 0.15754 0.04887 0.10928 0.0
C252 C 0.13615 0.03441 0.11545 0.0
C253 C 0.14054 0.01043 0.12395 0.0
C254 C 0.16569 0.00065 0.1256 0.0
H255 H 0.22357 0.98899 0.07281 0.0
H256 H 0.19278 0.99452 0.08405 0.0
H257 H 0.21465 0.02089 0.08007 0.0
H258 H 0.19892 0.05017 0.1057 0.0
H259 H 0.15478 0.06743 0.10273 0.0
H260 H 0.62595 -0.00234 0.34213 0.0
H261 H 0.66997 0.01449 0.33862 0.0
H262 H 0.70136 0.93915 0.35004 0.0
H263 H 0.65725 0.92204 0.35373 0.0
H264 H 0.70838 0.0092 0.36933 0.0
H265 H 0.74083 0.96762 0.30248 0.0
H266 H 0.70694 0.97232 0.30806 0.0
H267 H 0.72468 0.94632 0.3184 0.0
C268 C 0.64217 0.98453 0.34363 0.0
C269 C 0.63814 0.95851 0.34829 0.0
C270 C 0.66728 0.99421 0.34161 0.0
C271 C 0.68879 0.97802 0.34398 0.0
C272 C 0.68491 0.95184 0.34797 0.0
H273 H 0.8542 0.99491 0.34913 0.0
H274 H 0.80936 0.98066 0.34568 0.0
C275 C 0.65974 0.94214 0.35012 0.0
C276 C 0.71522 0.98904 0.3439 0.0
H277 H 0.7724 0.98963 0.32018 0.0
C278 C 0.72239 0.00512 0.35855 0.0
C279 C 0.73329 0.98347 0.32983 0.0
C280 C 0.72616 0.96662 0.31369 0.0
C281 C 0.74756 0.01529 0.35981 0.0
C282 C 0.76575 0.0098 0.34571 0.0
C283 C 0.75839 0.99394 0.33091 0.0
C284 C 0.79296 0.01903 0.34666 0.0
C285 C 0.75465 0.03092 0.37662 0.0
C286 C 0.79872 0.04543 0.34795 0.0
C287 C 0.82441 0.05365 0.35018 0.0
C288 C 0.84475 0.03562 0.35082 0.0
C289 C 0.83897 0.0093 0.34874 0.0
C290 C 0.81334 0.00111 0.34673 0.0
H291 H 0.74085 0.02765 0.38816 0.0
H292 H 0.77454 0.02618 0.38146 0.0
H293 H 0.75405 0.05171 0.37306 0.0
H294 H 0.78334 0.05964 0.34746 0.0
H295 H 0.8283 0.07407 0.35155 0.0
H296 H 0.82514 0.91762 0.86116 0.0
H297 H 0.78038 0.93333 0.85844 0.0
H298 H 0.80812 0.00289 0.83254 0.0
H299 H 0.85272 0.98736 0.83507 0.0
H300 H 0.76286 0.97928 0.875 0.0
H301 H 0.74723 0.98093 0.79929 0.0
H302 H 0.77279 0.96236 0.81003 0.0
H303 H 0.7766 -0.00354 0.8067 0.0
C304 C 0.82165 0.93604 0.85458 0.0
C305 C 0.84245 0.95127 0.84837 0.0
C306 C 0.79611 0.945 0.85307 0.0
C307 C 0.79097 0.96915 0.84514 0.0
C308 C 0.81163 0.98401 0.83841 0.0
H309 H 0.65737 0.06778 0.86434 0.0
H310 H 0.70133 0.0502 0.86094 0.0
C311 C 0.83713 0.97514 0.83997 0.0
C312 C 0.76435 0.97988 0.84534 0.0
H313 H 0.71617 0.00336 0.81766 0.0
C314 C 0.75257 0.98441 0.86247 0.0
C315 C 0.75101 0.98647 0.82895 0.0
C316 C 0.76241 0.98112 0.81018 0.0
C317 C 0.72792 -0.00423 0.86369 0.0
C318 C 0.7149 0.00306 0.84733 0.0
C319 C 0.72643 -0.00192 0.83017 0.0
C320 C 0.68879 0.01489 0.84785 0.0
C321 C 0.71585 -0.00038 0.88245 0.0
C322 C 0.6674 0.00122 0.84104 0.0
C323 C 0.64236 0.01117 0.84294 0.0
C324 C 0.63829 0.03509 0.85159 0.0
C325 C 0.65988 0.04929 0.85767 0.0
C326 C 0.68496 0.03923 0.85582 0.0
H327 H 0.72592 0.9882 0.89327 0.0
H328 H 0.71711 0.02027 0.88627 0.0
H329 H 0.69501 0.99411 0.88229 0.0
H330 H 0.67001 0.98245 0.83478 0.0
H331 H 0.62614 -0.00018 0.83802 0.0
H332 H 0.12934 0.98651 0.63164 0.0
H333 H 0.17366 0.00276 0.63449 0.0
H334 H 0.20273 0.93491 0.60713 0.0
H335 H 0.15828 0.91846 0.60412 0.0
H336 H 0.21997 0.98073 0.65057 0.0
H337 H 0.2273 -0.00303 0.57492 0.0
H338 H 0.1967 0.99137 0.58639 0.0
H339 H 0.21828 0.96494 0.58187 0.0
C340 C 0.14516 0.97487 0.6264 0.0
C341 C 0.14031 0.95129 0.61749 0.0
C342 C 0.17047 0.98418 0.62808 0.0
C343 C 0.19134 0.9702 0.62079 0.0
C344 C 0.18676 0.94612 0.61262 0.0
H345 H 0.35607 -0.0023 0.63114 0.0
H346 H 0.31175 0.98152 0.63404 0.0
C347 C 0.16141 0.9367 0.61099 0.0
C348 C 0.21768 0.98154 0.62093 0.0
H349 H 0.2648 0.00549 0.59263 0.0
C350 C 0.22984 0.98612 0.63793 0.0
C351 C 0.23019 0.98898 0.60441 0.0
C352 C 0.21744 0.98556 0.58584 0.0
C353 C 0.25452 -0.00242 0.63881 0.0
C354 C 0.2673 0.0044 0.62225 0.0
C355 C 0.25493 0.00017 0.60529 0.0
C356 C 0.29382 0.01533 0.62209 0.0
C357 C 0.26657 0.00259 0.65741 0.0
C358 C 0.29843 0.03973 0.61437 0.0
C359 C 0.32379 0.04905 0.61265 0.0
C360 C 0.34495 0.03397 0.61845 0.0
C361 C 0.34018 0.00981 0.62658 0.0
C362 C 0.31485 0.00057 0.62834 0.0
H363 H 0.25181 0.00243 0.66859 0.0
H364 H 0.28101 0.98729 0.66044 0.0
H365 H 0.27679 0.02142 0.65757 0.0
H366 H 0.2824 0.05133 0.60937 0.0
H367 H 0.32685 0.06769 0.60629 0.0
H368 H 0.85356 0.49015 0.13186 0.0
H369 H 0.80913 0.50583 0.13544 0.0
H370 H 0.77999 0.43637 0.1103 0.0
H371 H 0.82451 0.42054 0.10652 0.0
H372 H 0.76228 0.48228 0.09391 0.0
H373 H 0.74924 0.48438 0.16988 0.0
H374 H 0.77839 0.49971 0.1618 0.0
H375 H 0.77431 0.4656 0.15878 0.0
C376 C 0.8377 0.47799 0.12736 0.0
C377 C 0.84253 0.45413 0.11884 0.0
C378 C 0.81231 0.48693 0.12953 0.0
C379 C 0.7913 0.47215 0.12329 0.0
C380 C 0.79599 0.44798 0.11529 0.0
H381 H 0.62651 0.50103 0.13186 0.0
H382 H 0.67074 0.48457 0.13523 0.0
C383 C 0.8214 0.43896 0.11316 0.0
C384 C 0.76474 0.483 0.12354 0.0
H385 H 0.71735 0.50632 0.15194 0.0
C386 C 0.75239 0.48742 0.10659 0.0
C387 C 0.75194 0.48961 0.14012 0.0
C388 C 0.764 0.4844 0.15871 0.0
C389 C 0.72765 0.49862 0.10575 0.0
C390 C 0.71512 0.50587 0.1223 0.0
C391 C 0.72724 0.50106 0.13928 0.0
C392 C 0.68887 0.51739 0.12213 0.0
C393 C 0.71494 0.50231 0.08718 0.0
C394 C 0.68459 0.54168 0.11416 0.0
C395 C 0.65932 0.5512 0.11223 0.0
C396 C 0.638 0.5365 0.11822 0.0
C397 C 0.64252 0.51274 0.12701 0.0
C398 C 0.66776 0.50332 0.12899 0.0
H399 H 0.72482 0.49105 0.07621 0.0
H400 H 0.6942 0.49651 0.08768 0.0
H401 H 0.71578 0.52299 0.08332 0.0
H402 H 0.70074 0.55293 0.10899 0.0
H403 H 0.65645 0.56959 0.10546 0.0
H404 H 0.32678 0.56264 0.37326 0.0
H405 H 0.28309 0.54457 0.37048 0.0
H406 H 0.30661 0.50321 0.32165 0.0
H407 H 0.35066 0.52022 0.32494 0.0
H408 H 0.24573 0.54556 0.34595 0.0
H409 H 0.28072 0.44495 0.35241 0.0
H410 H 0.30169 0.47227 0.35597 0.0
H411 H 0.29447 0.46137 0.33296 0.0
C412 C 0.32253 0.5499 0.36183 0.0
C413 C 0.34214 0.54256 0.34945 0.0
C414 C 0.29759 0.53954 0.36027 0.0
C415 C 0.29176 0.52192 0.34616 0.0
C416 C 0.31088 0.51601 0.33303 0.0
H417 H 0.13057 0.47579 0.32663 0.0
H418 H 0.1743 0.49342 0.32292 0.0
C419 C 0.33596 0.52594 0.33481 0.0
C420 C 0.26594 0.50925 0.3456 0.0
H421 H 0.23612 0.45049 0.34551 0.0
C422 C 0.24362 0.52477 0.34586 0.0
C423 C 0.26319 0.48208 0.34581 0.0
C424 C 0.28628 0.4642 0.34697 0.0
C425 C 0.21866 0.51395 0.34642 0.0
C426 C 0.21591 0.48679 0.34598 0.0
C427 C 0.23823 0.47128 0.34561 0.0
C428 C 0.19012 0.47407 0.3469 0.0
C429 C 0.19563 0.53179 0.34823 0.0
C430 C 0.18491 0.45598 0.36084 0.0
C431 C 0.16014 0.44527 0.36264 0.0
C432 C 0.14009 0.45274 0.35065 0.0
C433 C 0.14561 0.46995 0.3362 0.0
C434 C 0.17052 0.48024 0.33419 0.0
H435 H 0.20139 0.55089 0.35379 0.0
H436 H 0.18693 0.53498 0.33442 0.0
H437 H 0.18055 0.52347 0.35742 0.0
H438 H 0.19979 0.45075 0.37073 0.0
H439 H 0.15641 0.43208 0.37391 0.0
H440 H 0.12653 0.49078 0.85195 0.0
H441 H 0.17127 0.47564 0.84956 0.0
H442 H 0.19844 0.55425 0.84944 0.0
H443 H 0.15362 0.56959 0.85242 0.0
H444 H 0.20845 0.48303 0.82384 0.0
H445 H 0.24047 0.52339 0.89093 0.0
H446 H 0.20675 0.52202 0.88428 0.0
H447 H 0.22744 0.54711 0.87547 0.0
C448 C 0.14201 0.50489 0.85141 0.0
C449 C 0.13658 0.5314 0.85254 0.0
C450 C 0.16757 0.49618 0.85001 0.0
C451 C 0.18822 0.51378 0.84966 0.0
C452 C 0.18284 0.54031 0.85017 0.0
H453 H 0.35483 0.49561 0.8428 0.0
H454 H 0.31008 0.51089 0.84059 0.0
C455 C 0.15723 0.54906 0.85176 0.0
C456 C 0.21532 0.50417 0.84893 0.0
H457 H 0.2731 0.50501 0.87201 0.0
C458 C 0.22257 0.48779 0.83439 0.0
C459 C 0.23366 0.51024 0.8628 0.0
C460 C 0.22668 0.52644 0.87935 0.0
C461 C 0.24779 0.47759 0.83324 0.0
C462 C 0.26609 0.48393 0.84698 0.0
C463 C 0.25893 0.50032 0.86147 0.0
C464 C 0.29291 0.47384 0.84666 0.0
C465 C 0.25486 0.46036 0.81728 0.0
C466 C 0.29796 0.44786 0.85065 0.0
C467 C 0.32358 0.43904 0.85204 0.0
C468 C 0.34446 0.45611 0.84943 0.0
C469 C 0.3392 0.48195 0.84489 0.0
C470 C 0.31366 0.49075 0.84362 0.0
H471 H 0.2398 0.46057 0.80631 0.0
H472 H 0.27371 0.46639 0.81121 0.0
H473 H 0.25708 0.44028 0.82231 0.0
H474 H 0.28212 0.43462 0.85323 0.0
H475 H 0.32702 0.41905 0.8556 0.0
H476 H 0.62677 0.49656 0.61379 0.0
H477 H 0.67152 0.51116 0.61717 0.0
H478 H 0.69775 0.43224 0.61851 0.0
H479 H 0.6529 0.4174 0.61456 0.0
H480 H 0.70791 0.50358 0.6437 0.0
H481 H 0.74117 0.46199 0.57722 0.0
H482 H 0.7073 0.46396 0.5834 0.0
H483 H 0.72741 0.43881 0.59278 0.0
C484 C 0.64203 0.48225 0.61484 0.0
C485 C 0.63634 0.45581 0.61372 0.0
C486 C 0.6676 0.49066 0.61681 0.0
C487 C 0.68801 0.47282 0.61777 0.0
C488 C 0.68234 0.44635 0.61735 0.0
H489 H 0.85501 0.49329 0.62267 0.0
H490 H 0.81084 0.47674 0.62575 0.0
C491 C 0.65672 0.4379 0.6152 0.0
C492 C 0.71518 0.48214 0.61879 0.0
H493 H 0.77318 0.48131 0.59599 0.0
C494 C 0.7222 0.4987 0.63328 0.0
C495 C 0.73374 0.47588 0.60511 0.0
C496 C 0.72703 0.45939 0.58865 0.0
C497 C 0.74733 0.50905 0.63449 0.0
C498 C 0.76579 0.50273 0.62082 0.0
C499 C 0.75891 0.48599 0.60647 0.0
C500 C 0.79235 0.51352 0.62089 0.0
C501 C 0.75408 0.5265 0.65039 0.0
C502 C 0.7965 0.53978 0.61731 0.0
C503 C 0.82177 0.54933 0.61544 0.0
C504 C 0.84323 0.53273 0.61711 0.0
C505 C 0.83892 0.5066 0.62129 0.0
C506 C 0.81371 0.49708 0.62306 0.0
H507 H 0.73945 0.52538 0.66163 0.0
H508 H 0.77346 0.52151 0.65609 0.0
H509 H 0.7549 0.54671 0.64542 0.0
H510 H 0.78019 0.55268 0.61534 0.0
H511 H 0.82447 0.56952 0.61217 0.0
H512 H 0.01527 0.02343 0.31219 0.0
H513 H 0.0224 0.01783 0.2791 0.0
H514 H 0.9411 0.03167 0.26886 0.0
H515 H 0.93363 0.03718 0.3019 0.0
H516 H 0.96565 0.98909 0.24784 0.0
H517 H 0.01821 0.08271 0.2446 0.0
H518 H 0.02942 0.06013 0.26166 0.0
H519 H -0.0024 0.07397 0.26375 0.0
C520 C -0.00117 0.02503 0.30294 0.0
C521 C 0.97394 0.03107 0.30965 0.0
C522 C 0.00297 0.02184 0.28407 0.0
C523 C 0.9823 0.02464 0.27166 0.0
C524 C 0.95725 0.0295 0.27832 0.0
H525 H 0.96381 0.03313 0.15352 0.0
H526 H 0.95716 0.02666 0.18659 0.0
C527 C 0.95308 0.03274 0.29717 0.0
C528 C 0.98709 0.02428 0.25165 0.0
H529 H 0.01556 0.05877 0.21716 0.0
C530 C 0.97661 0.00423 0.24107 0.0
C531 C 0.0013 0.04417 0.243 0.0
C532 C 0.01216 0.06662 0.25375 0.0
C533 C 0.98029 0.0034 0.2219 0.0
C534 C -0.00564 0.02343 0.21324 0.0
C535 C 0.00488 0.04339 0.2239 0.0
C536 C -0.00186 0.02456 0.19309 0.0
C537 C 0.96942 0.981 0.21116 0.0
C538 C 0.02336 0.02573 0.18587 0.0
C539 C 0.02723 0.02978 0.16708 0.0
C540 C 0.00591 0.03275 0.15516 0.0
C541 C 0.98062 0.03083 0.16235 0.0
C542 C 0.97678 0.02693 0.18121 0.0
H543 H 0.96563 0.96412 0.22019 0.0
H544 H 0.95074 0.98682 0.20477 0.0
H545 H 0.9829 0.97509 0.19998 0.0
H546 H 0.04008 0.02406 0.19487 0.0
H547 H 0.04696 0.031 0.16197 0.0
H548 H 0.4272 0.95657 0.16542 0.0
H549 H 0.43225 0.96361 0.19849 0.0
H550 H 0.51546 0.9666 0.19188 0.0
H551 H 0.51063 0.9601 0.15871 0.0
H552 H 0.45765 0.93097 0.2215 0.0
H553 H 0.50205 0.02805 0.22514 0.0
H554 H 0.48642 0.01605 0.20458 0.0
H555 H 0.5192 0.00666 0.21 0.0
C556 C 0.44658 0.95905 0.17095 0.0
C557 C 0.46854 0.95768 0.15946 0.0
C558 C 0.4494 0.96314 0.18984 0.0
C559 C 0.47418 0.96597 0.19756 0.0
C560 C 0.49612 0.9651 0.18611 0.0
H561 H 0.54396 0.95396 0.30353 0.0
H562 H 0.53312 0.9599 0.27103 0.0
C563 C 0.49333 0.96116 0.16718 0.0
C564 C 0.47721 0.96729 0.21777 0.0
H565 H 0.50507 0.002 0.25244 0.0
C566 C 0.46766 0.94669 0.22832 0.0
C567 C 0.49033 0.98781 0.22655 0.0
C568 C 0.49987 0.01102 0.216 0.0
C569 C 0.47175 0.94555 0.24737 0.0
C570 C 0.48548 0.96571 0.25607 0.0
C571 C 0.49454 0.98661 0.24563 0.0
C572 C 0.49192 0.96451 0.27582 0.0
C573 C 0.46226 0.92233 0.25797 0.0
C574 C 0.47232 0.96568 0.2892 0.0
C575 C 0.47839 0.96223 0.30779 0.0
C576 C 0.5042 0.95758 0.31324 0.0
C577 C 0.52387 0.95732 0.29979 0.0
C578 C 0.51777 0.96082 0.28123 0.0
H579 H 0.45603 0.90648 0.24869 0.0
H580 H 0.4777 0.91497 0.26728 0.0
H581 H 0.44541 0.92796 0.26662 0.0
H582 H 0.45228 0.96878 0.28521 0.0
H583 H 0.46281 0.9627 0.31782 0.0
H584 H 0.98457 0.99195 0.65102 0.0
H585 H 0.9779 0.00205 0.68367 0.0
H586 H 0.02816 0.93881 0.69875 0.0
H587 H 0.03612 0.92981 0.66627 0.0
H588 H 0.95608 0.97682 0.70903 0.0
H589 H 0.05672 0.9913 0.73203 0.0
H590 H 0.04844 0.98921 0.70792 0.0
H591 H 0.05457 0.96041 0.72124 0.0
C592 C -0.00559 0.98048 0.66137 0.0
C593 C 0.01099 0.96024 0.65621 0.0
C594 C 0.99064 0.98627 0.67998 0.0
C595 C 0.00304 0.97162 0.6937 0.0
C596 C 0.01923 0.9511 0.68848 0.0
H597 H 0.94613 0.93041 0.79868 0.0
H598 H 0.95399 0.93934 0.76616 0.0
C599 C 0.02355 0.94576 0.66991 0.0
C600 C -0.00248 0.97626 0.71347 0.0
H601 H 0.02641 0.97661 0.75572 0.0
C602 C 0.9715 0.97735 0.71921 0.0
C603 C 0.01753 0.97782 0.7268 0.0
C604 C 0.04583 0.97995 0.7216 0.0
C605 C 0.96497 0.97809 0.73795 0.0
C606 C 0.98496 0.97642 0.75129 0.0
C607 C 0.01099 0.97723 0.74554 0.0
C608 C 0.97941 0.9719 0.77108 0.0
C609 C 0.93668 0.98051 0.74314 0.0
C610 C -0.00801 0.98645 0.78474 0.0
C611 C 0.98829 0.98069 0.80337 0.0
C612 C 0.97159 0.96059 0.80861 0.0
C613 C 0.95881 0.94625 0.79498 0.0
C614 C 0.96306 0.95155 0.77639 0.0
H615 H 0.9259 0.99193 0.73267 0.0
H616 H 0.92777 0.96105 0.74357 0.0
H617 H 0.93416 0.98983 0.75679 0.0
H618 H 0.00487 0.0021 0.78099 0.0
H619 H -0.0017 0.99205 0.81367 0.0
H620 H 0.43573 0.03523 0.66642 0.0
H621 H 0.44431 0.02935 0.6993 0.0
H622 H 0.5254 0.01647 0.68767 0.0
H623 H 0.51717 0.02242 0.65474 0.0
H624 H 0.4703 0.98643 0.71955 0.0
H625 H 0.52134 0.08091 0.72269 0.0
H626 H 0.50012 0.07227 0.70387 0.0
H627 H 0.53216 0.05877 0.70525 0.0
C628 C 0.45537 0.03092 0.67081 0.0
C629 C 0.47584 0.0296 0.65799 0.0
C630 C 0.46018 0.02747 0.68958 0.0
C631 C 0.48548 0.02275 0.69579 0.0
C632 C 0.50578 0.02034 0.68304 0.0
H633 H 0.55057 0.03082 0.80558 0.0
H634 H 0.54436 0.02335 0.77267 0.0
C635 C 0.50101 0.02374 0.66426 0.0
C636 C 0.49089 0.02211 0.71571 0.0
H637 H 0.51923 0.0568 0.75008 0.0
C638 C 0.48108 0.0017 0.72629 0.0
C639 C 0.50492 0.04215 0.7243 0.0
C640 C 0.51513 0.06491 0.71353 0.0
C641 C 0.48511 0.00073 0.74541 0.0
C642 C 0.49882 0.02099 0.75404 0.0
C643 C 0.50882 0.04124 0.74337 0.0
C644 C 0.50241 0.02227 0.77421 0.0
C645 C 0.4749 0.97797 0.75613 0.0
C646 C 0.48083 0.0239 0.78596 0.0
C647 C 0.48429 0.02807 0.80481 0.0
C648 C 0.50939 0.03103 0.81213 0.0
C649 C 0.53097 0.02878 0.80036 0.0
C650 C 0.52749 0.02444 0.78156 0.0
H651 H 0.47189 0.96096 0.74709 0.0
H652 H 0.48838 0.97253 0.76744 0.0
H653 H 0.45589 0.9831 0.76233 0.0
H654 H 0.4613 0.0229 0.78047 0.0
H655 H 0.46729 0.02982 0.81352 0.0
H656 H 0.46338 0.52647 0.14998 0.0
H657 H 0.45365 0.52104 0.18278 0.0
H658 H 0.53472 0.53076 0.1959 0.0
H659 H 0.54477 0.53612 0.16321 0.0
H660 H 0.5065 0.48881 0.21549 0.0
H661 H 0.45885 0.58515 0.2181 0.0
H662 H 0.44793 0.56332 0.20049 0.0
H663 H 0.48037 0.57588 0.1996 0.0
C664 C 0.47919 0.52721 0.15981 0.0
C665 C 0.50481 0.53202 0.15402 0.0
C666 C 0.47357 0.52412 0.17851 0.0
C667 C 0.49347 0.52577 0.19163 0.0
C668 C 0.51916 0.52948 0.18589 0.0
H669 H 0.51239 0.53194 0.30903 0.0
H670 H 0.5175 0.52538 0.27587 0.0
C671 C 0.52481 0.53264 0.16722 0.0
C672 C 0.48742 0.52529 0.21146 0.0
H673 H 0.46048 0.56145 0.24565 0.0
C674 C 0.49629 0.50455 0.22214 0.0
C675 C 0.47413 0.54593 0.21993 0.0
C676 C 0.46487 0.56897 0.20903 0.0
C677 C 0.49222 0.50394 0.24125 0.0
C678 C 0.47947 0.5249 0.2498 0.0
C679 C 0.47021 0.5454 0.23901 0.0
C680 C 0.47629 0.52664 0.26998 0.0
C681 C 0.50144 0.48084 0.25207 0.0
C682 C 0.45148 0.52995 0.27757 0.0
C683 C 0.44851 0.53409 0.29643 0.0
C684 C 0.47036 0.53501 0.30805 0.0
C685 C 0.49518 0.53121 0.30045 0.0
C686 C 0.49813 0.52724 0.28154 0.0
H687 H 0.50344 0.46358 0.24313 0.0
H688 H 0.5208 0.48508 0.25806 0.0
H689 H 0.48789 0.47624 0.26353 0.0
H690 H 0.43441 0.5297 0.26882 0.0
H691 H 0.42911 0.53683 0.30186 0.0
H692 H 0.96902 0.46223 0.31208 0.0
H693 H 0.96195 0.46741 0.27896 0.0
H694 H 0.04328 0.45358 0.26886 0.0
H695 H 0.05071 0.44848 0.30196 0.0
H696 H 0.01901 0.49659 0.24819 0.0
H697 H 0.96594 0.40341 0.24383 0.0
H698 H 0.95472 0.4255 0.26117 0.0
H699 H 0.98653 0.41158 0.2631 0.0
C700 C 0.98547 0.46045 0.30285 0.0
C701 C 0.01039 0.45468 0.30963 0.0
C702 C 0.98136 0.4634 0.28396 0.0
C703 C 0.00207 0.46059 0.27159 0.0
C704 C 0.0271 0.45574 0.27829 0.0
H705 H 0.01708 0.45675 0.15275 0.0
H706 H 0.02525 0.46156 0.18579 0.0
C707 C 0.03125 0.45274 0.29717 0.0
C708 C -0.00264 0.46143 0.25159 0.0
H709 H 0.96785 0.42856 0.2168 0.0
C710 C 0.00784 0.48178 0.24126 0.0
C711 C 0.98286 0.44197 0.24273 0.0
C712 C 0.97199 0.41923 0.25319 0.0
C713 C 0.00374 0.48341 0.22216 0.0
C714 C 0.98923 0.4639 0.21331 0.0
C715 C 0.97885 0.44355 0.2237 0.0
C716 C 0.9846 0.46385 0.19324 0.0
C717 C 0.01453 0.50615 0.21172 0.0
C718 C 0.95907 0.46341 0.18656 0.0
C719 C 0.95433 0.46032 0.16779 0.0
C720 C 0.97508 0.4576 0.15534 0.0
C721 C 0.0007 0.45889 0.16199 0.0
C722 C 0.00541 0.46182 0.18084 0.0
H723 H 0.01898 0.52254 0.22104 0.0
H724 H 0.03284 0.50036 0.20479 0.0
H725 H 0.0007 0.51281 0.20097 0.0
H726 H 0.94277 0.46487 0.19596 0.0
H727 H 0.93437 0.45959 0.1631 0.0
H728 H 0.46569 0.46341 0.65383 0.0
H729 H 0.46009 0.47052 0.68687 0.0
H730 H 0.54326 0.47241 0.69391 0.0
H731 H 0.54909 0.46475 0.66097 0.0
H732 H 0.51975 0.43787 0.71637 0.0
H733 H 0.46905 0.53188 0.7209 0.0
H734 H 0.45347 0.50963 0.70555 0.0
H735 H 0.4855 0.52131 0.70024 0.0
C736 C 0.48279 0.46581 0.66235 0.0
C737 C 0.50783 0.46331 0.65482 0.0
C738 C 0.47954 0.47007 0.68121 0.0
C739 C 0.50127 0.47229 0.69277 0.0
C740 C 0.52626 0.47085 0.68517 0.0
H741 H 0.51637 0.46903 0.81233 0.0
H742 H 0.52455 0.47599 0.7795 0.0
C743 C 0.52954 0.4664 0.66637 0.0
C744 C 0.49799 0.47303 0.71299 0.0
H745 H 0.46831 0.50547 0.74806 0.0
C746 C 0.50882 0.45285 0.72333 0.0
C747 C 0.48357 0.49252 0.72197 0.0
C748 C 0.47244 0.5152 0.71162 0.0
C749 C 0.50501 0.45122 0.7424 0.0
C750 C 0.49024 0.47044 0.75132 0.0
C751 C 0.47965 0.49082 0.74107 0.0
C752 C 0.48483 0.46895 0.77123 0.0
C753 C 0.5161 0.42849 0.75277 0.0
C754 C 0.45964 0.46342 0.77735 0.0
C755 C 0.45486 0.4594 0.79607 0.0
C756 C 0.47524 0.46095 0.80894 0.0
C757 C 0.50029 0.4675 0.80277 0.0
C758 C 0.50503 0.47148 0.78404 0.0
H759 H 0.52281 0.413 0.74334 0.0
H760 H 0.53296 0.43495 0.76109 0.0
H761 H 0.50142 0.42033 0.76236 0.0
H762 H 0.44385 0.46143 0.76758 0.0
H763 H 0.43532 0.45455 0.80037 0.0
H764 H 0.05253 0.52608 0.8015 0.0
H765 H 0.04845 0.51869 0.76836 0.0
H766 H 0.965 0.52185 0.77305 0.0
H767 H 0.96881 0.52867 0.80628 0.0
H768 H 0.98268 0.48323 0.74912 0.0
H769 H 0.02853 0.57803 0.73417 0.0
H770 H 0.04784 0.55653 0.7479 0.0
H771 H 0.01789 0.56901 0.75697 0.0
C772 C 0.03329 0.525 0.79552 0.0
C773 C 0.01098 0.52831 0.80646 0.0
C774 C 0.03102 0.52083 0.77659 0.0
C775 C 0.00646 0.52025 0.76828 0.0
C776 C 0.98413 0.52236 0.77926 0.0
H777 H 0.93682 0.53071 0.66237 0.0
H778 H 0.94731 0.52265 0.69467 0.0
C779 C 0.98636 0.52632 0.79821 0.0
C780 C 0.00392 0.51894 0.74804 0.0
H781 H 0.01641 0.55278 0.7087 0.0
C782 C 0.99018 0.49832 0.74024 0.0
C783 C 0.01373 0.53874 0.73657 0.0
C784 C 0.02763 0.56196 0.74428 0.0
C785 C 0.98574 0.49711 0.72118 0.0
C786 C -0.0049 0.51716 0.7098 0.0
C787 C 0.00943 0.53739 0.71754 0.0
C788 C 0.98864 0.51876 0.69003 0.0
C789 C 0.97096 0.47454 0.71338 0.0
C790 C 0.00847 0.51933 0.6768 0.0
C791 C 0.00259 0.52407 0.65832 0.0
C792 C 0.97678 0.52861 0.65285 0.0
C793 C 0.9569 0.52734 0.66612 0.0
C794 C 0.96281 0.52251 0.68457 0.0
H795 H 0.97144 0.4577 0.72284 0.0
H796 H 0.95036 0.48015 0.71136 0.0
H797 H 0.97899 0.46868 0.6998 0.0
H798 H 0.02856 0.51671 0.68085 0.0
H799 H 0.01835 0.52491 0.64844 0.0
H800 H 0.99007 0.13745 0.07382 0.0
H801 H 0.98062 0.18352 0.07385 0.0
H802 H 0.03074 0.19352 0.12101 0.0
H803 H 0.04136 0.14752 0.12037 0.0
H804 H 0.95714 0.21131 0.09802 0.0
H805 H 0.05635 0.25077 0.0897 0.0
H806 H 0.04934 0.21697 0.08696 0.0
H807 H 0.05364 0.23048 0.10963 0.0
C808 C -0.00067 0.14954 0.08405 0.0
C809 C 0.01656 0.13897 0.09703 0.0
C810 C -0.00613 0.17587 0.08409 0.0
C811 C 0.0052 0.19214 0.09728 0.0
C812 C 0.02233 0.18156 0.11035 0.0
H813 H 0.93898 0.34411 0.12078 0.0
H814 H 0.95006 0.29825 0.1214 0.0
C815 C 0.02828 0.15525 0.11005 0.0
C816 C -0.00191 0.21989 0.09767 0.0
H817 H 0.02322 0.2807 0.09768 0.0
C818 C 0.97161 0.22648 0.09784 0.0
C819 C 0.01693 0.23973 0.09722 0.0
C820 C 0.04562 0.23416 0.09567 0.0
C821 C 0.96343 0.25227 0.09745 0.0
C822 C 0.98227 0.27211 0.09771 0.0
C823 C 0.00875 0.26552 0.09764 0.0
C824 C 0.97511 0.29984 0.0974 0.0
C825 C 0.93471 0.25782 0.09612 0.0
C826 C 0.98606 0.31622 0.08409 0.0
C827 C 0.98033 0.3425 0.08405 0.0
C828 C 0.96321 0.3529 0.09716 0.0
C829 C 0.95194 0.33652 0.11034 0.0
C830 C 0.95816 0.31028 0.11064 0.0
H831 H 0.92391 0.24123 0.09023 0.0
H832 H 0.92689 0.26143 0.11014 0.0
H833 H 0.93084 0.27503 0.08744 0.0
H834 H -0.00082 0.30868 0.07373 0.0
H835 H 0.98927 0.35467 0.0737 0.0
H836 H 0.50381 0.85599 0.08929 0.0
H837 H 0.51341 0.81 0.08875 0.0
H838 H 0.43801 0.79362 0.11178 0.0
H839 H 0.4281 0.83984 0.11247 0.0
H840 H 0.48185 0.76747 0.12912 0.0
H841 H 0.48021 0.75675 0.0529 0.0
H842 H 0.50009 0.78261 0.06136 0.0
H843 H 0.46552 0.78379 0.06459 0.0
C844 C 0.48917 0.84269 0.09423 0.0
C845 C 0.46511 0.85164 0.10087 0.0
C846 C 0.49469 0.81639 0.09383 0.0
C847 C 0.47631 0.79849 0.10002 0.0
C848 C 0.45239 0.80723 0.10686 0.0
H849 H 0.4781 0.63361 0.08398 0.0
H850 H 0.46746 0.67937 0.08513 0.0
C851 C 0.44675 0.8336 0.1072 0.0
C852 C 0.48233 0.77065 0.09953 0.0
H853 H 0.4961 0.7212 0.07014 0.0
C854 C 0.48488 0.75728 0.11625 0.0
C855 C 0.48609 0.75748 0.08269 0.0
C856 C 0.48265 0.77077 0.06433 0.0
C857 C 0.49153 0.73105 0.11657 0.0
C858 C 0.49595 0.71805 0.09974 0.0
C859 C 0.49296 0.73134 0.08302 0.0
C860 C 0.50282 0.69039 0.09912 0.0
C861 C 0.49345 0.71734 0.13488 0.0
C862 C 0.52644 0.68151 0.1064 0.0
C863 C 0.53268 0.65529 0.10574 0.0
C864 C 0.51537 0.63755 0.09777 0.0
C865 C 0.49187 0.64668 0.09029 0.0
C866 C 0.48573 0.67284 0.09091 0.0
H867 H 0.48415 0.72852 0.14615 0.0
H868 H 0.48419 0.69805 0.13415 0.0
H869 H 0.51422 0.71456 0.13845 0.0
H870 H 0.54008 0.69488 0.11254 0.0
H871 H 0.55095 0.64893 0.11159 0.0
H872 H 0.43196 0.65211 0.35701 0.0
H873 H 0.44382 0.69782 0.35743 0.0
H874 H 0.51857 0.67848 0.38038 0.0
H875 H 0.50696 0.63294 0.38017 0.0
H876 H 0.49296 0.71954 0.39844 0.0
H877 H 0.49669 0.73318 0.32247 0.0
H878 H 0.46709 0.71934 0.33111 0.0
H879 H 0.49699 0.70174 0.33315 0.0
C880 C 0.45091 0.65758 0.36216 0.0
C881 C 0.46853 0.63882 0.36848 0.0
C882 C 0.45771 0.68368 0.36228 0.0
C883 C 0.4822 0.69143 0.36869 0.0
C884 C 0.49963 0.67285 0.37529 0.0
H885 H 0.55519 0.84218 0.35601 0.0
H886 H 0.54612 0.79579 0.35603 0.0
C887 C 0.49292 0.64681 0.37513 0.0
C888 C 0.48965 0.71896 0.36885 0.0
H889 H 0.50096 0.77071 0.34088 0.0
C890 C 0.49477 0.73074 0.38587 0.0
C891 C 0.49237 0.73334 0.35239 0.0
C892 C 0.48824 0.72128 0.3337 0.0
C893 C 0.502 0.75675 0.3869 0.0
C894 C 0.50391 0.77134 0.37048 0.0
C895 C 0.49935 0.75944 0.35343 0.0
C896 C 0.50977 0.79923 0.37079 0.0
C897 C 0.50771 0.76837 0.40552 0.0
C898 C 0.49224 0.81641 0.37897 0.0
C899 C 0.49729 0.84281 0.37895 0.0
C900 C 0.52 0.8526 0.37071 0.0
C901 C 0.5376 0.83528 0.36254 0.0
C902 C 0.53243 0.80881 0.3625 0.0
H903 H 0.51179 0.75334 0.41605 0.0
H904 H 0.52458 0.78165 0.40476 0.0
H905 H 0.49059 0.7796 0.41018 0.0
H906 H 0.47445 0.80942 0.38518 0.0
H907 H 0.48327 0.85554 0.38534 0.0
H908 H 0.97562 0.35686 0.37351 0.0
H909 H 0.96591 0.31084 0.37297 0.0
H910 H 0.04696 0.29386 0.3644 0.0
H911 H 0.05702 0.34003 0.36483 0.0
H912 H 0.98 0.27484 0.34207 0.0
H913 H 0.0219 0.24949 0.41052 0.0
H914 H 0.01209 0.28193 0.4047 0.0
H915 H 0.0415 0.26886 0.39532 0.0
C916 C -0.00852 0.34341 0.37159 0.0
C917 C 0.01715 0.35216 0.36925 0.0
C918 C 0.98583 0.31712 0.37125 0.0
C919 C 0.00573 0.29907 0.36876 0.0
C920 C 0.03139 0.30759 0.36649 0.0
H921 H 0.01009 0.13283 0.36862 0.0
H922 H 0.01982 0.17877 0.36842 0.0
C923 C 0.03707 0.33395 0.3667 0.0
C924 C -0.00055 0.27132 0.36821 0.0
H925 H 0.00543 0.2154 0.39256 0.0
C926 C 0.98551 0.26177 0.35308 0.0
C927 C 0.00674 0.25449 0.38261 0.0
C928 C 0.02126 0.26409 0.39931 0.0
C929 C 0.979 0.23557 0.35181 0.0
C930 C 0.98606 0.2187 0.36632 0.0
C931 C -1e-05 0.22836 0.38147 0.0
C932 C 0.97975 0.19084 0.36595 0.0
C933 C 0.96526 0.22613 0.33473 0.0
C934 C 0.95391 0.18231 0.36471 0.0
C935 C 0.94825 0.15594 0.36464 0.0
C936 C 0.96832 0.13766 0.36611 0.0
C937 C -0.00587 0.14634 0.3675 0.0
C938 C -0.00024 0.17263 0.3674 0.0
H939 H 0.9678 0.23964 0.32297 0.0
H940 H 0.97249 0.20685 0.33055 0.0
H941 H 0.94415 0.22457 0.33761 0.0
H942 H 0.9381 0.19603 0.36402 0.0
H943 H 0.92816 0.1499 0.3637 0.0
H944 H 0.97389 0.63467 0.86242 0.0
H945 H 0.96602 0.68093 0.86194 0.0
H946 H 0.04854 0.69495 0.86009 0.0
H947 H 0.05666 0.64842 0.86011 0.0
H948 H 0.98091 0.7165 0.88704 0.0
H949 H 0.02258 0.74032 0.81846 0.0
H950 H 0.01611 0.70763 0.8256 0.0
H951 H 0.04464 0.72405 0.8337 0.0
C952 C 0.99043 0.64752 0.86179 0.0
C953 C 0.01594 0.63782 0.86126 0.0
C954 C 0.98586 0.674 0.86152 0.0
C955 C 0.00665 0.6914 0.86076 0.0
C956 C 0.03218 0.68186 0.86026 0.0
H957 H 0.01036 0.85848 0.86759 0.0
H958 H 0.0213 0.81267 0.86693 0.0
C959 C 0.03679 0.65527 0.86038 0.0
C960 C 0.00135 0.71947 0.8612 0.0
H961 H 0.00917 0.77548 0.83705 0.0
C962 C 0.98704 0.72937 0.87608 0.0
C963 C 0.00939 0.73623 0.84689 0.0
C964 C 0.02383 0.72654 0.83017 0.0
C965 C 0.9806 0.75558 0.87707 0.0
C966 C 0.98853 0.77226 0.86275 0.0
C967 C 0.00312 0.76252 0.84798 0.0
C968 C 0.98176 0.79993 0.86287 0.0
C969 C 0.96557 0.76535 0.8935 0.0
C970 C 0.9559 0.80785 0.86059 0.0
C971 C 0.94954 0.83404 0.86088 0.0
C972 C 0.96896 0.85273 0.8635 0.0
C973 C -0.00511 0.84462 0.86563 0.0
C974 C 0.00123 0.81847 0.86521 0.0
H975 H 0.96533 0.75117 0.90499 0.0
H976 H 0.97398 0.7837 0.89861 0.0
H977 H 0.94519 0.76919 0.88933 0.0
H978 H 0.94066 0.79375 0.85857 0.0
H979 H 0.9294 0.8396 0.85917 0.0
H980 H 0.42832 0.34174 0.86129 0.0
H981 H 0.43847 0.29559 0.86172 0.0
H982 H 0.51954 0.31311 0.8698 0.0
H983 H 0.5096 0.35898 0.86984 0.0
H984 H 0.47011 0.26724 0.83922 0.0
H985 H 0.50626 0.26259 0.91114 0.0
H986 H 0.48876 0.29006 0.90227 0.0
H987 H 0.52285 0.28626 0.89749 0.0
C988 C 0.44829 0.33575 0.86324 0.0
C989 C 0.4681 0.35407 0.86569 0.0
C990 C 0.45405 0.30939 0.86347 0.0
C991 C 0.47969 0.30092 0.86617 0.0
C992 C 0.49953 0.31917 0.86822 0.0
H993 H 0.55616 0.1513 0.86341 0.0
H994 H 0.54623 0.19755 0.86249 0.0
C995 C 0.49379 0.34544 0.86812 0.0
C996 C 0.48589 0.27303 0.86641 0.0
H997 H 0.51443 0.22584 0.89232 0.0
C998 C 0.47965 0.25816 0.85087 0.0
C999 C 0.49834 0.26121 0.88164 0.0
C1000 C 0.50422 0.27579 0.89915 0.0
C1001 C 0.48592 0.23187 0.85005 0.0
C1002 C 0.49868 0.22024 0.86515 0.0
C1003 C 0.50489 0.235 0.8807 0.0
C1004 C 0.50474 0.19243 0.86538 0.0
C1005 C 0.47913 0.21668 0.833 0.0
C1006 C 0.48469 0.17446 0.86747 0.0
C1007 C 0.49026 0.14817 0.86814 0.0
C1008 C 0.51603 0.13933 0.86667 0.0
C1009 C 0.53612 0.15746 0.86452 0.0
C1010 C 0.53051 0.18384 0.86401 0.0
H1011 H 0.47331 0.22936 0.82136 0.0
H1012 H 0.49588 0.20466 0.82862 0.0
H1013 H 0.46273 0.20353 0.83616 0.0
H1014 H 0.46472 0.18081 0.86872 0.0
H1015 H 0.47429 0.13479 0.86978 0.0
H1016 H 0.5095 0.13189 0.59908 0.0
H1017 H 0.51922 0.17778 0.60054 0.0
H1018 H 0.43783 0.19454 0.60797 0.0
H1019 H 0.42792 0.14843 0.60701 0.0
H1020 H 0.50336 0.21607 0.57819 0.0
H1021 H 0.46999 0.2352 0.64962 0.0
H1022 H 0.47428 0.203 0.64077 0.0
H1023 H 0.44548 0.22107 0.63525 0.0
C1024 C 0.49361 0.14527 0.60111 0.0
C1025 C 0.4679 0.13645 0.603 0.0
C1026 C 0.49924 0.17153 0.60194 0.0
C1027 C 0.47933 0.18957 0.60465 0.0
C1028 C 0.45359 0.18091 0.60633 0.0
H1029 H 0.47227 0.35522 0.60033 0.0
H1030 H 0.46364 0.30901 0.60151 0.0
C1031 C 0.44793 0.15456 0.60565 0.0
C1032 C 0.48559 0.21744 0.60507 0.0
H1033 H 0.48056 0.27184 0.6313 0.0
C1034 C 0.49853 0.22822 0.58986 0.0
C1035 C 0.47936 0.23323 0.62035 0.0
C1036 C 0.46674 0.22252 0.6375 0.0
C1037 C 0.50498 0.25446 0.58936 0.0
C1038 C 0.49841 0.27025 0.6045 0.0
C1039 C 0.48555 0.25956 0.61973 0.0
C1040 C 0.50395 0.29816 0.60444 0.0
C1041 C 0.51828 0.26531 0.57252 0.0
C1042 C 0.52952 0.30727 0.60594 0.0
C1043 C 0.53458 0.33375 0.60536 0.0
C1044 C 0.51412 0.35146 0.60317 0.0
C1045 C 0.48851 0.34214 0.60192 0.0
C1046 C 0.48349 0.31575 0.60264 0.0
H1047 H 0.51861 0.25137 0.56091 0.0
H1048 H 0.50838 0.2832 0.56788 0.0
H1049 H 0.53862 0.27038 0.57604 0.0
H1050 H 0.54552 0.29389 0.60747 0.0
H1051 H 0.5545 0.34029 0.60638 0.0
H1052 H 0.97255 0.85906 0.59595 0.0
H1053 H 0.9607 0.8136 0.59714 0.0
H1054 H 0.04048 0.79342 0.60813 0.0
H1055 H 0.05251 0.83901 0.60732 0.0
H1056 H 0.97768 0.77413 0.57544 0.0
H1057 H 0.00212 0.75496 0.6487 0.0
H1058 H -0.00034 0.78717 0.63943 0.0
H1059 H 0.02851 0.76834 0.63567 0.0
C1060 C 0.98762 0.84502 0.59871 0.0
C1061 C 0.0135 0.85273 0.60162 0.0
C1062 C 0.98077 0.81902 0.59939 0.0
C1063 C -0.00039 0.80017 0.60301 0.0
C1064 C 0.02551 0.80771 0.60574 0.0
H1065 H 0.00285 0.63605 0.59091 0.0
H1066 H 0.01134 0.68226 0.59221 0.0
C1067 C 0.03239 0.83377 0.60516 0.0
C1068 C -0.00781 0.77259 0.60329 0.0
H1069 H -0.00726 0.71833 0.63001 0.0
C1070 C 0.98078 0.76199 0.58742 0.0
C1071 C -0.0039 0.75683 0.61899 0.0
C1072 C 0.00703 0.76742 0.63673 0.0
C1073 C 0.9738 0.7359 0.5867 0.0
C1074 C 0.97834 0.7201 0.6022 0.0
C1075 C 0.98935 0.73066 0.61816 0.0
C1076 C 0.97286 0.69224 0.6017 0.0
C1077 C 0.96199 0.7251 0.56933 0.0
C1078 C 0.94836 0.68272 0.60668 0.0
C1079 C 0.94336 0.65623 0.60597 0.0
C1080 C 0.96282 0.63894 0.60026 0.0
C1081 C 0.98737 0.64875 0.59534 0.0
C1082 C -0.00768 0.67514 0.59609 0.0
H1083 H 0.95922 0.74007 0.55854 0.0
H1084 H 0.97471 0.70969 0.56374 0.0
H1085 H 0.94288 0.71624 0.57253 0.0
H1086 H 0.93315 0.69578 0.61103 0.0
H1087 H 0.92426 0.64934 0.60984 0.0
H1088 H 0.96825 0.99226 0.90233 0.0
H1089 H 0.98677 0.00599 0.93172 0.0
H1090 H 0.94092 0.9489 0.96018 0.0
H1091 H 0.92245 0.93477 0.93076 0.0
H1092 H 0.96185 0.02413 0.96389 0.0
H1093 H 0.01623 0.93312 0.97611 0.0
H1094 H 0.00264 0.94141 0.95393 0.0
H1095 H 0.98205 0.92924 0.97194 0.0
C1096 C 0.96201 0.98268 0.91484 0.0
C1097 C 0.94408 0.96229 0.91426 0.0
C1098 C 0.9726 0.99056 0.93159 0.0
C1099 C 0.96551 0.97813 0.94799 0.0
C1100 C 0.94697 0.95835 0.94757 0.0
H1101 H 0.0098 -0.00332 0.06172 0.0
H1102 H -0.0087 0.98284 0.03235 0.0
C1103 C 0.93636 0.95042 0.9308 0.0
C1104 C 0.97775 0.98582 0.96549 0.0
H1105 H 0.01691 0.96403 9e-05 0.0
C1106 C 0.97395 0.01106 0.97181 0.0
C1107 C -0.00644 0.96865 0.97566 0.0
C1108 C -0.00089 0.94165 0.96904 0.0
C1109 C 0.98524 0.01951 -0.0117 0.0
C1110 C 0.00101 0.00233 -0.00153 0.0
C1111 C 0.00481 0.97709 -0.00784 0.0
C1112 C 0.01324 0.01004 0.01597 0.0
C1113 C 0.9798 0.04655 -0.0051 0.0
C1114 C 0.03213 0.02948 0.01632 0.0
C1115 C 0.04277 0.03744 0.03307 0.0
C1116 C 0.03466 0.02599 0.04966 0.0
C1117 C 0.01634 0.00594 0.04916 0.0
C1118 C 0.00575 -0.002 0.03242 0.0
H1119 H 0.96289 0.05525 -0.01231 0.0
H1120 H 0.976 0.04676 0.00997 0.0
H1121 H -0.00297 0.05881 -0.00781 0.0
H1122 H 0.03844 0.03863 0.00366 0.0
H1123 H 0.05697 0.05283 0.03304 0.0
H1124 H 0.51044 -0.00027 0.90574 0.0
H1125 H 0.4919 0.98609 0.93517 0.0
H1126 H 0.54035 0.04079 0.96374 0.0
H1127 H 0.55929 0.05445 0.93432 0.0
H1128 H 0.53827 0.99033 0.9798 0.0
H1129 H 0.44031 0.03046 0.96522 0.0
H1130 H 0.45285 0.00942 0.94769 0.0
H1131 H 0.46878 0.03956 0.9522 0.0
C1132 C 0.51725 0.0088 0.91829 0.0
C1133 C 0.53616 0.0283 0.91775 0.0
C1134 C 0.50653 0.00108 0.93504 0.0
C1135 C 0.51445 0.01282 0.95149 0.0
C1136 C 0.5339 0.0317 0.9511 0.0
H1137 H 0.47085 0.99273 0.066 0.0
H1138 H 0.48999 0.00745 0.03701 0.0
C1139 C 0.54467 0.03946 0.93432 0.0
C1140 C 0.50233 0.00535 0.96909 0.0
H1141 H 0.44442 0.0043 -0.00808 0.0
C1142 C 0.5178 0.9935 0.98255 0.0
C1143 C 0.47563 0.00956 0.97249 0.0
C1144 C 0.45841 0.02315 0.95872 0.0
C1145 C 0.50708 0.98515 -0.00073 0.0
C1146 C 0.48035 0.98924 0.00262 0.0
C1147 C 0.46491 0.00121 -0.01079 0.0
C1148 C 0.46801 0.98111 0.02 0.0
C1149 C 0.52427 0.97153 0.01303 0.0
C1150 C 0.44873 0.96205 0.01986 0.0
C1151 C 0.43764 0.95369 0.03636 0.0
C1152 C 0.44564 0.96438 0.05322 0.0
C1153 C 0.46442 0.98403 0.05323 0.0
C1154 C 0.47548 0.99236 0.03673 0.0
H1155 H 0.54261 0.96464 0.00664 0.0
H1156 H 0.52939 0.98507 0.02429 0.0
H1157 H 0.51404 0.95481 0.01926 0.0
H1158 H 0.44264 0.95333 0.007 0.0
H1159 H 0.42314 0.93858 0.03594 0.0
H1160 H 0.47352 -0.00306 0.56503 0.0
H1161 H 0.49344 0.98405 0.5359 0.0
H1162 H 0.44527 0.03854 0.50675 0.0
H1163 H 0.42535 0.05183 0.53591 0.0
H1164 H 0.46987 0.96446 0.5036 0.0
H1165 H 0.52012 0.05771 0.49138 0.0
H1166 H 0.50665 0.04895 0.51351 0.0
H1167 H 0.48575 0.06011 0.49534 0.0
C1168 C 0.46707 0.00612 0.55242 0.0
C1169 C 0.44803 0.02554 0.55273 0.0
C1170 C 0.47847 -0.00126 0.53582 0.0
C1171 C 0.4711 0.01069 0.51931 0.0
C1172 C 0.45153 0.02949 0.51946 0.0
H1173 H 0.51467 0.9942 0.40572 0.0
H1174 H 0.49685 0.00739 0.43545 0.0
C1175 C 0.44008 0.03692 0.53608 0.0
C1176 C 0.484 0.00342 0.50195 0.0
H1177 H 0.52225 0.02682 0.46738 0.0
C1178 C 0.48143 0.97801 0.49569 0.0
C1179 C 0.49909 0.02123 0.49181 0.0
C1180 C 0.50332 0.04848 0.49838 0.0
C1181 C 0.49312 0.97002 0.47923 0.0
C1182 C 0.50809 0.98786 0.46903 0.0
C1183 C 0.51079 0.01324 0.47534 0.0
C1184 C 0.52023 0.9808 0.45135 0.0
C1185 C 0.48884 0.94278 0.47263 0.0
C1186 C 0.53973 0.96196 0.45061 0.0
C1187 C 0.54996 0.95434 0.43364 0.0
C1188 C 0.54084 0.96556 0.41723 0.0
C1189 C 0.52199 0.98511 0.41813 0.0
C1190 C 0.5118 0.99269 0.43507 0.0
H1191 H 0.47246 0.93331 0.47995 0.0
H1192 H 0.48485 0.94244 0.45759 0.0
H1193 H 0.50666 0.93129 0.4752 0.0
H1194 H 0.54676 0.95293 0.46312 0.0
H1195 H 0.56459 0.93934 0.43335 0.0
H1196 H 0.01593 0.99275 0.56286 0.0
H1197 H -0.00232 0.00696 0.53348 0.0
H1198 H 0.04319 0.94974 0.50492 0.0
H1199 H 0.06138 0.93512 0.53434 0.0
H1200 H 0.02267 0.02514 0.50126 0.0
H1201 H 0.96771 0.93454 0.48912 0.0
H1202 H 0.98142 0.94265 0.51128 0.0
H1203 H 0.00188 0.93044 0.49322 0.0
C1204 C 0.02217 0.98325 0.55032 0.0
C1205 C 0.0399 0.96266 0.55088 0.0
C1206 C 0.01174 0.99141 0.53358 0.0
C1207 C 0.0188 0.97908 0.51716 0.0
C1208 C 0.03717 0.95913 0.51755 0.0
H1209 H 0.97282 -0.00226 0.40372 0.0
H1210 H -0.00795 0.98415 0.43293 0.0
C1211 C 0.04763 0.95091 0.53432 0.0
C1212 C 0.00655 0.98695 0.49967 0.0
H1213 H 0.96695 0.96563 0.46524 0.0
C1214 C 0.01044 0.0122 0.49337 0.0
C1215 C 0.99056 0.96994 0.48955 0.0
C1216 C 0.98489 0.94294 0.49617 0.0
C1217 C -0.00095 0.02082 0.47694 0.0
C1218 C 0.98308 0.00381 0.46682 0.0
C1219 C 0.9792 0.97856 0.47312 0.0
C1220 C 0.97068 0.01167 0.44939 0.0
C1221 C 0.00458 0.04786 0.47035 0.0
C1222 C 0.95192 0.03126 0.44914 0.0
C1223 C 0.94086 0.03908 0.43247 0.0
C1224 C 0.9484 0.02733 0.41587 0.0
C1225 C 0.96669 0.00722 0.41628 0.0
C1226 C 0.9777 -0.00057 0.43293 0.0
H1227 H 0.02166 0.05637 0.47745 0.0
H1228 H 0.00814 0.04815 0.45525 0.0
H1229 H 0.98748 0.06024 0.47323 0.0
H1230 H 0.94596 0.04057 0.46182 0.0
H1231 H 0.92671 0.05453 0.43257 0.0
H1232 H 0.51522 0.49562 0.06149 0.0
H1233 H 0.49719 0.48191 0.03195 0.0
H1234 H 0.54311 0.53937 0.00393 0.0
H1235 H 0.56153 0.55308 0.03346 0.0
H1236 H 0.46881 0.51432 0.00808 0.0
H1237 H 0.55618 0.47313 0.97402 0.0
H1238 H 0.55447 0.4786 -0.00143 0.0
H1239 H 0.5602 0.50507 -0.01688 0.0
C1240 C 0.52175 0.50513 0.04903 0.0
C1241 C 0.53974 0.52546 0.04976 0.0
C1242 C 0.51141 0.49729 0.0322 0.0
C1243 C 0.51899 0.50953 0.01584 0.0
C1244 C 0.53736 0.52945 0.01643 0.0
H1245 H 0.47102 0.49518 0.90226 0.0
H1246 H 0.48966 0.50922 0.93154 0.0
C1247 C 0.54777 0.53731 0.03329 0.0
C1248 C 0.50645 0.5024 -0.00169 0.0
H1249 H 0.51836 0.47754 0.95567 0.0
C1250 C 0.47957 0.50619 -0.00338 0.0
C1251 C 0.52068 0.49191 -0.01654 0.0
C1252 C 0.54945 0.4867 -0.01515 0.0
C1253 C 0.4665 0.49999 0.98028 0.0
C1254 C 0.4807 0.48941 0.96545 0.0
C1255 C 0.5076 0.4857 0.96712 0.0
C1256 C 0.46806 0.48191 0.94805 0.0
C1257 C 0.43774 0.50525 0.97889 0.0
C1258 C 0.44966 0.462 0.94775 0.0
C1259 C 0.43891 0.45395 0.93106 0.0
C1260 C 0.4466 0.4656 0.91444 0.0
C1261 C 0.46472 0.48583 0.91485 0.0
C1262 C 0.47542 0.49386 0.93153 0.0
H1263 H 0.4311 0.51908 -0.01041 0.0
H1264 H 0.43266 0.51305 0.96509 0.0
H1265 H 0.42694 0.48696 0.98088 0.0
H1266 H 0.44408 0.45229 0.96038 0.0
H1267 H 0.42505 0.43825 0.93114 0.0
H1268 H 0.91823 0.44019 0.03437 0.0
H1269 H 0.93567 0.45507 0.00477 0.0
H1270 H 0.98258 0.51137 0.03304 0.0
H1271 H 0.96553 0.49654 0.06263 0.0
H1272 H 0.93616 0.50586 -0.01144 0.0
H1273 H 0.0351 0.46788 0.00294 0.0
H1274 H 0.00691 0.45813 0.01601 0.0
H1275 H 0.02205 0.48868 0.02043 0.0
C1276 C 0.93213 0.45585 0.03426 0.0
C1277 C 0.94075 0.46703 0.0508 0.0
C1278 C 0.94203 0.46431 0.01738 0.0
C1279 C 0.96069 0.48394 0.01686 0.0
C1280 C 0.96853 0.49584 0.03326 0.0
H1281 H 0.05142 0.55563 0.93052 0.0
H1282 H 0.03154 0.543 0.95985 0.0
C1283 C 0.95869 0.48741 0.05012 0.0
C1284 C 0.97248 0.49165 -0.00081 0.0
H1285 H 0.03006 0.49311 0.97596 0.0
C1286 C 0.95665 0.50302 -0.01427 0.0
C1287 C -0.00078 0.48785 -0.00434 0.0
C1288 C 0.01683 0.47477 0.00944 0.0
C1289 C 0.96702 0.51118 0.96884 0.0
C1290 C -0.00623 0.5074 0.96533 0.0
C1291 C 0.00957 0.49601 0.97879 0.0
C1292 C 0.00572 0.51489 0.94766 0.0
C1293 C 0.94943 0.52418 0.95503 0.0
C1294 C -0.00195 0.50285 0.93127 0.0
C1295 C 0.00935 0.50996 0.91455 0.0
C1296 C 0.02859 0.52915 0.91401 0.0
C1297 C 0.03659 0.54084 0.93053 0.0
C1298 C 0.02527 0.53369 0.94725 0.0
H1299 H 0.93124 0.53126 0.96154 0.0
H1300 H 0.95941 0.54067 0.94832 0.0
H1301 H 0.94406 0.51016 0.94415 0.0
H1302 H 0.98336 0.48792 0.93142 0.0
H1303 H 0.00288 0.50054 0.90205 0.0
H1304 H 0.9193 0.55892 0.53329 0.0
H1305 H 0.93804 0.54801 0.50321 0.0
H1306 H 0.98603 0.49012 0.52895 0.0
H1307 H 0.96769 0.50096 0.55898 0.0
H1308 H 0.01293 0.52582 0.50572 0.0
H1309 H 0.92655 0.48225 0.47171 0.0
H1310 H 0.92191 0.5134 0.48203 0.0
H1311 H 0.92882 0.48608 0.4964 0.0
C1312 C 0.93363 0.54368 0.53249 0.0
C1313 C 0.94209 0.53082 0.54846 0.0
C1314 C 0.94423 0.53745 0.51533 0.0
C1315 C 0.96327 0.51821 0.51395 0.0
C1316 C 0.97135 0.50504 0.52981 0.0
H1317 H 0.05913 0.44566 0.43263 0.0
H1318 H 0.03959 0.46283 0.46079 0.0
C1319 C 0.9608 0.51123 0.54692 0.0
C1320 C 0.97572 0.5124 0.49615 0.0
H1321 H 0.96464 0.48606 0.45387 0.0
C1322 C 0.00241 0.5172 0.49433 0.0
C1323 C 0.9618 0.50132 0.48139 0.0
C1324 C 0.93322 0.49524 0.48292 0.0
C1325 C 0.01568 0.51098 0.47808 0.0
C1326 C 0.0019 0.49929 0.46348 0.0
C1327 C 0.97509 0.49503 0.46515 0.0
C1328 C 0.01507 0.49035 0.44661 0.0
C1329 C 0.04427 0.51705 0.47664 0.0
C1330 C 0.00756 0.50005 0.42938 0.0
C1331 C 0.01854 0.49018 0.4133 0.0
C1332 C 0.03708 0.47033 0.41421 0.0
C1333 C 0.04496 0.46101 0.43152 0.0
C1334 C 0.03393 0.47089 0.44761 0.0
H1335 H 0.05012 0.53224 0.48659 0.0
H1336 H 0.05564 0.49943 0.47982 0.0
H1337 H 0.04944 0.52348 0.4625 0.0
H1338 H -0.00707 0.515 0.42839 0.0
H1339 H 0.01209 0.49774 0.40014 0.0
H1340 H 0.55519 0.4282 0.53313 0.0
H1341 H 0.5366 0.43909 0.50302 0.0
H1342 H 0.48901 0.49748 0.52848 0.0
H1343 H 0.5072 0.48661 0.5586 0.0
H1344 H 0.462 0.46313 0.50448 0.0
H1345 H 0.55071 0.50489 0.47232 0.0
H1346 H 0.55426 0.47335 0.48228 0.0
H1347 H 0.54756 0.50043 0.49691 0.0
C1348 C 0.5409 0.44348 0.53228 0.0
C1349 C 0.53265 0.45659 0.54819 0.0
C1350 C 0.53038 0.4497 0.5151 0.0
C1351 C 0.51163 0.46918 0.51361 0.0
C1352 C 0.5035 0.48239 0.52943 0.0
H1353 H 0.42152 0.54599 0.43103 0.0
H1354 H 0.4391 0.52748 0.45942 0.0
C1355 C 0.51397 0.4762 0.54658 0.0
C1356 C 0.49992 0.47557 0.49564 0.0
H1357 H 0.51333 0.502 0.45368 0.0
C1358 C 0.47318 0.47155 0.49332 0.0
C1359 C 0.5147 0.48642 0.48119 0.0
C1360 C 0.54337 0.49175 0.48324 0.0
C1361 C 0.46071 0.47831 0.47685 0.0
C1362 C 0.47537 0.48972 0.46255 0.0
C1363 C 0.50221 0.4932 0.46472 0.0
C1364 C 0.46313 0.49932 0.4455 0.0
C1365 C 0.43201 0.47313 0.47486 0.0
C1366 C 0.471 0.48968 0.42835 0.0
C1367 C 0.46113 0.50031 0.41213 0.0
C1368 C 0.4434 0.52088 0.41284 0.0
C1369 C 0.43512 0.53012 0.43007 0.0
C1370 C 0.44501 0.51947 0.44628 0.0
H1371 H 0.42533 0.45804 0.48465 0.0
H1372 H 0.42107 0.49106 0.47788 0.0
H1373 H 0.42718 0.46698 0.46061 0.0
H1374 H 0.48509 0.47421 0.42752 0.0
H1375 H 0.46786 0.49278 0.39905 0.0
loop_
_geom_bond_atom_site_label_1
_geom_bond_atom_site_label_2
_geom_bond_distance
_geom_bond_site_symmetry_2
_ccdc_geom_bond_type
C0 O1 1.306 . S
C0 O3 1.160 . S
O1 C0 1.306 . S
O1 Cd2 2.217 1_455 S
Cd2 O1 2.217 1_655 S
Cd2 O6 2.255 1_655 S
Cd2 O10 2.263 1_655 S
O3 C0 1.160 . S
O3 Cd4 2.203 . S
Cd4 O3 2.203 . S
Cd4 O6 2.411 . S
Cd4 O7 2.333 . S
Cd4 O8 2.352 . S
Cd4 O12 2.277 . S
Cd4 O13 2.356 . S
C5 O10 1.209 . S
C5 O12 1.226 . S
O6 Cd2 2.255 1_455 S
O6 Cd4 2.411 . S
O6 C9 1.320 . S
O7 Cd4 2.333 . S
O7 C9 1.214 . S
O8 Cd4 2.352 . S
O8 C11 1.258 . S
C9 O6 1.320 . S
C9 O7 1.214 . S
O10 Cd2 2.263 1_455 S
O10 C5 1.209 . S
C11 O8 1.258 . S
C11 O13 1.282 . S
O12 Cd4 2.277 . S
O12 C5 1.226 . S
O13 Cd4 2.356 . S
O13 C11 1.282 . S
C14 O15 1.306 . S
C14 O17 1.160 . S
O15 C14 1.306 . S
O15 Cd16 2.228 . S
Cd16 O15 2.228 . S
Cd16 O20 2.273 . S
Cd16 O24 2.277 . S
O17 C14 1.160 . S
O17 Cd18 2.203 . S
Cd18 O17 2.203 . S
Cd18 O20 2.411 . S
Cd18 O21 2.333 . S
Cd18 O22 2.352 . S
Cd18 O26 2.277 . S
Cd18 O27 2.356 . S
C19 O24 1.209 . S
C19 O26 1.226 . S
O20 Cd16 2.273 . S
O20 Cd18 2.411 . S
O20 C23 1.320 . S
O21 Cd18 2.333 . S
O21 C23 1.214 . S
O22 Cd18 2.352 . S
O22 C25 1.258 . S
C23 O20 1.320 . S
C23 O21 1.214 . S
O24 Cd16 2.277 . S
O24 C19 1.209 . S
C25 O22 1.258 . S
C25 O27 1.282 . S
O26 Cd18 2.277 . S
O26 C19 1.226 . S
O27 Cd18 2.356 . S
O27 C25 1.282 . S
C28 O29 1.306 . S
C28 O31 1.160 . S
O29 C28 1.306 . S
O29 Cd30 2.228 . S
Cd30 O29 2.228 . S
Cd30 O34 2.273 . S
Cd30 O38 2.277 . S
O31 C28 1.160 . S
O31 Cd32 2.203 . S
Cd32 O31 2.203 . S
Cd32 O34 2.411 . S
Cd32 O35 2.333 . S
Cd32 O36 2.352 . S
Cd32 O40 2.277 . S
Cd32 O41 2.356 . S
C33 O38 1.209 . S
C33 O40 1.226 . S
O34 Cd30 2.273 . S
O34 Cd32 2.411 . S
O34 C37 1.320 . S
O35 Cd32 2.333 . S
O35 C37 1.214 . S
O36 Cd32 2.352 . S
O36 C39 1.258 . S
C37 O34 1.320 . S
C37 O35 1.214 . S
O38 Cd30 2.277 . S
O38 C33 1.209 . S
C39 O36 1.258 . S
C39 O41 1.282 . S
O40 Cd32 2.277 . S
O40 C33 1.226 . S
O41 Cd32 2.356 . S
O41 C39 1.282 . S
C42 O43 1.306 . S
C42 O45 1.160 . S
O43 C42 1.306 . S
O43 Cd44 2.217 1_655 S
Cd44 O43 2.217 1_455 S
Cd44 O48 2.255 1_455 S
Cd44 O52 2.263 1_455 S
O45 C42 1.160 . S
O45 Cd46 2.203 . S
Cd46 O45 2.203 . S
Cd46 O48 2.411 . S
Cd46 O49 2.333 . S
Cd46 O50 2.352 . S
Cd46 O54 2.277 . S
Cd46 O55 2.356 . S
C47 O52 1.209 . S
C47 O54 1.226 . S
O48 Cd44 2.255 1_655 S
O48 Cd46 2.411 . S
O48 C51 1.320 . S
O49 Cd46 2.333 . S
O49 C51 1.214 . S
O50 Cd46 2.352 . S
O50 C53 1.258 . S
C51 O48 1.320 . S
C51 O49 1.214 . S
O52 Cd44 2.263 1_655 S
O52 C47 1.209 . S
C53 O50 1.258 . S
C53 O55 1.282 . S
O54 Cd46 2.277 . S
O54 C47 1.226 . S
O55 Cd46 2.356 . S
O55 C53 1.282 . S
C56 O57 1.306 . S
C56 O59 1.160 . S
O57 C56 1.306 . S
O57 Cd58 2.217 1_655 S
Cd58 O57 2.217 1_455 S
Cd58 O62 2.255 1_455 S
Cd58 O66 2.263 1_455 S
O59 C56 1.160 . S
O59 Cd60 2.203 . S
Cd60 O59 2.203 . S
Cd60 O62 2.411 . S
Cd60 O63 2.333 . S
Cd60 O64 2.352 . S
Cd60 O68 2.277 . S
Cd60 O69 2.356 . S
C61 O66 1.209 . S
C61 O68 1.226 . S
O62 Cd58 2.255 1_655 S
O62 Cd60 2.411 . S
O62 C65 1.320 . S
O63 Cd60 2.333 . S
O63 C65 1.214 . S
O64 Cd60 2.352 . S
O64 C67 1.258 . S
C65 O62 1.320 . S
C65 O63 1.214 . S
O66 Cd58 2.263 1_655 S
O66 C61 1.209 . S
C67 O64 1.258 . S
C67 O69 1.282 . S
O68 Cd60 2.277 . S
O68 C61 1.226 . S
O69 Cd60 2.356 . S
O69 C67 1.282 . S
C70 O71 1.306 . S
C70 O73 1.160 . S
O71 C70 1.306 . S
O71 Cd72 2.228 . S
Cd72 O71 2.228 . S
Cd72 O76 2.273 . S
Cd72 O80 2.277 . S
O73 C70 1.160 . S
O73 Cd74 2.203 . S
Cd74 O73 2.203 . S
Cd74 O76 2.411 . S
Cd74 O77 2.333 . S
Cd74 O78 2.352 . S
Cd74 O82 2.277 . S
Cd74 O83 2.356 . S
C75 O80 1.209 . S
C75 O82 1.226 . S
O76 Cd72 2.273 . S
O76 Cd74 2.411 . S
O76 C79 1.320 . S
O77 Cd74 2.333 . S
O77 C79 1.214 . S
O78 Cd74 2.352 . S
O78 C81 1.258 . S
C79 O76 1.320 . S
C79 O77 1.214 . S
O80 Cd72 2.277 . S
O80 C75 1.209 . S
C81 O78 1.258 . S
C81 O83 1.282 . S
O82 Cd74 2.277 . S
O82 C75 1.226 . S
O83 Cd74 2.356 . S
O83 C81 1.282 . S
C84 O85 1.306 . S
C84 O87 1.160 . S
O85 C84 1.306 . S
O85 Cd86 2.228 . S
Cd86 O85 2.228 . S
Cd86 O90 2.273 . S
Cd86 O94 2.277 . S
O87 C84 1.160 . S
O87 Cd88 2.203 . S
Cd88 O87 2.203 . S
Cd88 O90 2.411 . S
Cd88 O91 2.333 . S
Cd88 O92 2.352 . S
Cd88 O96 2.277 . S
Cd88 O97 2.356 . S
C89 O94 1.209 . S
C89 O96 1.226 . S
O90 Cd86 2.273 . S
O90 Cd88 2.411 . S
O90 C93 1.320 . S
O91 Cd88 2.333 . S
O91 C93 1.214 . S
O92 Cd88 2.352 . S
O92 C95 1.258 . S
C93 O90 1.320 . S
C93 O91 1.214 . S
O94 Cd86 2.277 . S
O94 C89 1.209 . S
C95 O92 1.258 . S
C95 O97 1.282 . S
O96 Cd88 2.277 . S
O96 C89 1.226 . S
O97 Cd88 2.356 . S
O97 C95 1.282 . S
C98 O99 1.306 . S
C98 O101 1.160 . S
O99 C98 1.306 . S
O99 Cd100 2.217 1_455 S
Cd100 O99 2.217 1_655 S
Cd100 O104 2.255 1_655 S
Cd100 O108 2.263 1_655 S
O101 C98 1.160 . S
O101 Cd102 2.203 . S
Cd102 O101 2.203 . S
Cd102 O104 2.411 . S
Cd102 O105 2.333 . S
Cd102 O106 2.352 . S
Cd102 O110 2.277 . S
Cd102 O111 2.356 . S
C103 O108 1.209 . S
C103 O110 1.226 . S
O104 Cd100 2.255 1_455 S
O104 Cd102 2.411 . S
O104 C107 1.320 . S
O105 Cd102 2.333 . S
O105 C107 1.214 . S
O106 Cd102 2.352 . S
O106 C109 1.258 . S
C107 O104 1.320 . S
C107 O105 1.214 . S
O108 Cd100 2.263 1_455 S
O108 C103 1.209 . S
C109 O106 1.258 . S
C109 O111 1.282 . S
O110 Cd102 2.277 . S
O110 C103 1.226 . S
O111 Cd102 2.356 . S
O111 C109 1.282 . S
C112 O113 1.306 . S
C112 O115 1.160 . S
O113 C112 1.306 . S
O113 Cd114 2.228 . S
Cd114 O113 2.228 . S
Cd114 O118 2.273 . S
Cd114 O122 2.277 . S
O115 C112 1.160 . S
O115 Cd116 2.203 . S
Cd116 O115 2.203 . S
Cd116 O118 2.411 . S
Cd116 O119 2.333 . S
Cd116 O120 2.352 . S
Cd116 O124 2.277 . S
Cd116 O125 2.356 . S
C117 O122 1.209 . S
C117 O124 1.226 . S
O118 Cd114 2.273 . S
O118 Cd116 2.411 . S
O118 C121 1.320 . S
O119 Cd116 2.333 . S
O119 C121 1.214 . S
O120 Cd116 2.352 . S
O120 C123 1.258 . S
C121 O118 1.320 . S
C121 O119 1.214 . S
O122 Cd114 2.277 . S
O122 C117 1.209 . S
C123 O120 1.258 . S
C123 O125 1.282 . S
O124 Cd116 2.277 . S
O124 C117 1.226 . S
O125 Cd116 2.356 . S
O125 C123 1.282 . S
C126 O127 1.306 . S
C126 O129 1.160 . S
O127 C126 1.306 . S
O127 Cd128 2.217 1_655 S
Cd128 O127 2.217 1_455 S
Cd128 O132 2.255 1_455 S
Cd128 O136 2.263 1_455 S
O129 C126 1.160 . S
O129 Cd130 2.203 . S
Cd130 O129 2.203 . S
Cd130 O132 2.411 . S
Cd130 O133 2.333 . S
Cd130 O134 2.352 . S
Cd130 O138 2.277 . S
Cd130 O139 2.356 . S
C131 O136 1.209 . S
C131 O138 1.226 . S
O132 Cd128 2.255 1_655 S
O132 Cd130 2.411 . S
O132 C135 1.320 . S
O133 Cd130 2.333 . S
O133 C135 1.214 . S
O134 Cd130 2.352 . S
O134 C137 1.258 . S
C135 O132 1.320 . S
C135 O133 1.214 . S
O136 Cd128 2.263 1_655 S
O136 C131 1.209 . S
C137 O134 1.258 . S
C137 O139 1.282 . S
O138 Cd130 2.277 . S
O138 C131 1.226 . S
O139 Cd130 2.356 . S
O139 C137 1.282 . S
C140 O141 1.306 . S
C140 O143 1.160 . S
O141 C140 1.306 . S
O141 Cd142 2.217 1_455 S
Cd142 O141 2.217 1_655 S
Cd142 O146 2.255 1_655 S
Cd142 O150 2.263 1_655 S
O143 C140 1.160 . S
O143 Cd144 2.203 . S
Cd144 O143 2.203 . S
Cd144 O146 2.411 . S
Cd144 O147 2.333 . S
Cd144 O148 2.352 . S
Cd144 O152 2.277 . S
Cd144 O153 2.356 . S
C145 O150 1.209 . S
C145 O152 1.226 . S
O146 Cd142 2.255 1_455 S
O146 Cd144 2.411 . S
O146 C149 1.320 . S
O147 Cd144 2.333 . S
O147 C149 1.214 . S
O148 Cd144 2.352 . S
O148 C151 1.258 . S
C149 O146 1.320 . S
C149 O147 1.214 . S
O150 Cd142 2.263 1_455 S
O150 C145 1.209 . S
C151 O148 1.258 . S
C151 O153 1.282 . S
O152 Cd144 2.277 . S
O152 C145 1.226 . S
O153 Cd144 2.356 . S
O153 C151 1.282 . S
C154 O155 1.306 . S
C154 O157 1.160 . S
O155 C154 1.306 . S
O155 Cd156 2.228 . S
Cd156 O155 2.228 . S
Cd156 O160 2.273 . S
Cd156 O164 2.277 . S
O157 C154 1.160 . S
O157 Cd158 2.203 . S
Cd158 O157 2.203 . S
Cd158 O160 2.411 . S
Cd158 O161 2.333 . S
Cd158 O162 2.352 . S
Cd158 O166 2.277 . S
Cd158 O167 2.356 . S
C159 O164 1.209 . S
C159 O166 1.226 . S
O160 Cd156 2.273 . S
O160 Cd158 2.411 . S
O160 C163 1.320 . S
O161 Cd158 2.333 . S
O161 C163 1.214 . S
O162 Cd158 2.352 . S
O162 C165 1.258 . S
C163 O160 1.320 . S
C163 O161 1.214 . S
O164 Cd156 2.277 . S
O164 C159 1.209 . S
C165 O162 1.258 . S
C165 O167 1.282 . S
O166 Cd158 2.277 . S
O166 C159 1.226 . S
O167 Cd158 2.356 . S
O167 C165 1.282 . S
C168 O169 1.306 . S
C168 O171 1.160 . S
O169 C168 1.306 . S
O169 Cd170 2.228 . S
Cd170 O169 2.228 . S
Cd170 O174 2.273 . S
Cd170 O178 2.277 . S
O171 C168 1.160 . S
O171 Cd172 2.203 . S
Cd172 O171 2.203 . S
Cd172 O174 2.411 . S
Cd172 O175 2.333 . S
Cd172 O176 2.352 . S
Cd172 O180 2.277 . S
Cd172 O181 2.356 . S
C173 O178 1.209 . S
C173 O180 1.226 . S
O174 Cd170 2.273 . S
O174 Cd172 2.411 . S
O174 C177 1.320 . S
O175 Cd172 2.333 . S
O175 C177 1.214 . S
O176 Cd172 2.352 . S
O176 C179 1.258 . S
C177 O174 1.320 . S
C177 O175 1.214 . S
O178 Cd170 2.277 . S
O178 C173 1.209 . S
C179 O176 1.258 . S
C179 O181 1.282 . S
O180 Cd172 2.277 . S
O180 C173 1.226 . S
O181 Cd172 2.356 . S
O181 C179 1.282 . S
C182 O183 1.306 . S
C182 O185 1.160 . S
O183 C182 1.306 . S
O183 Cd184 2.217 1_455 S
Cd184 O183 2.217 1_655 S
Cd184 O188 2.255 1_655 S
Cd184 O192 2.263 1_655 S
O185 C182 1.160 . S
O185 Cd186 2.203 . S
Cd186 O185 2.203 . S
Cd186 O188 2.411 . S
Cd186 O189 2.333 . S
Cd186 O190 2.352 . S
Cd186 O194 2.277 . S
Cd186 O195 2.356 . S
C187 O192 1.209 . S
C187 O194 1.226 . S
O188 Cd184 2.255 1_455 S
O188 Cd186 2.411 . S
O188 C191 1.320 . S
O189 Cd186 2.333 . S
O189 C191 1.214 . S
O190 Cd186 2.352 . S
O190 C193 1.258 . S
C191 O188 1.320 . S
C191 O189 1.214 . S
O192 Cd184 2.263 1_455 S
O192 C187 1.209 . S
C193 O190 1.258 . S
C193 O195 1.282 . S
O194 Cd186 2.277 . S
O194 C187 1.226 . S
O195 Cd186 2.356 . S
O195 C193 1.282 . S
C196 O197 1.306 . S
C196 O199 1.160 . S
O197 C196 1.306 . S
O197 Cd198 2.217 1_655 S
Cd198 O197 2.217 1_455 S
Cd198 O202 2.255 1_455 S
Cd198 O206 2.263 1_455 S
O199 C196 1.160 . S
O199 Cd200 2.203 . S
Cd200 O199 2.203 . S
Cd200 O202 2.411 . S
Cd200 O203 2.333 . S
Cd200 O204 2.352 . S
Cd200 O208 2.277 . S
Cd200 O209 2.356 . S
C201 O206 1.209 . S
C201 O208 1.226 . S
O202 Cd198 2.255 1_655 S
O202 Cd200 2.411 . S
O202 C205 1.320 . S
O203 Cd200 2.333 . S
O203 C205 1.214 . S
O204 Cd200 2.352 . S
O204 C207 1.258 . S
C205 O202 1.320 . S
C205 O203 1.214 . S
O206 Cd198 2.263 1_655 S
O206 C201 1.209 . S
C207 O204 1.258 . S
C207 O209 1.282 . S
O208 Cd200 2.277 . S
O208 C201 1.226 . S
O209 Cd200 2.356 . S
O209 C207 1.282 . S
C210 O211 1.306 . S
C210 O213 1.160 . S
O211 C210 1.306 . S
O211 Cd212 2.228 . S
Cd212 O211 2.228 . S
Cd212 O216 2.273 . S
Cd212 O220 2.277 . S
O213 C210 1.160 . S
O213 Cd214 2.203 . S
Cd214 O213 2.203 . S
Cd214 O216 2.411 . S
Cd214 O217 2.333 . S
Cd214 O218 2.352 . S
Cd214 O222 2.277 . S
Cd214 O223 2.356 . S
C215 O220 1.209 . S
C215 O222 1.226 . S
O216 Cd212 2.273 . S
O216 Cd214 2.411 . S
O216 C219 1.320 . S
O217 Cd214 2.333 . S
O217 C219 1.214 . S
O218 Cd214 2.352 . S
O218 C221 1.258 . S
C219 O216 1.320 . S
C219 O217 1.214 . S
O220 Cd212 2.277 . S
O220 C215 1.209 . S
C221 O218 1.258 . S
C221 O223 1.282 . S
O222 Cd214 2.277 . S
O222 C215 1.226 . S
O223 Cd214 2.356 . S
O223 C221 1.282 . S
H224 C232 0.929 1_545 S
H225 C234 0.965 . S
H226 C236 0.930 . S
H227 C239 0.929 . S
H228 C242 0.930 . S
H229 C244 0.960 . S
H230 C244 0.960 . S
H231 C244 0.960 . S
C232 H224 0.929 1_565 S
C232 C233 1.377 . S
C232 C234 1.372 1_565 S
C233 C232 1.377 . S
C233 C239 1.390 . S
C234 H225 0.965 . S
C234 C232 1.372 1_545 S
C234 C235 1.349 1_545 S
C235 C234 1.349 1_565 S
C235 C236 1.400 . S
C235 C240 1.490 . S
C236 H226 0.930 . S
C236 C235 1.400 . S
C236 C239 1.386 . S
H237 C253 0.930 1_565 S
H238 C254 0.931 1_565 S
C239 H227 0.929 . S
C239 C233 1.390 . S
C239 C236 1.386 . S
C240 C235 1.490 . S
C240 C242 1.395 1_565 S
C240 C243 1.403 . S
H241 C247 0.934 . S
C242 H228 0.930 . S
C242 C240 1.395 1_545 S
C242 C245 1.403 . S
C243 C240 1.403 . S
C243 C244 1.524 . S
C243 C247 1.410 . S
C244 H229 0.960 . S
C244 H230 0.960 . S
C244 H231 0.960 . S
C244 C243 1.524 . S
C245 C242 1.403 . S
C245 C246 1.392 . S
C245 C249 1.495 . S
C246 C245 1.392 . S
C246 C247 1.372 1_545 S
C246 C248 1.478 . S
C247 H241 0.934 . S
C247 C243 1.410 . S
C247 C246 1.372 1_565 S
C248 C246 1.478 . S
C248 C250 1.381 . S
C248 C254 1.383 . S
C249 C245 1.495 . S
C249 H255 0.959 . S
C249 H256 0.961 . S
C249 H257 0.960 . S
C250 C248 1.381 . S
C250 C251 1.394 . S
C250 H258 0.930 . S
C251 C250 1.394 . S
C251 C252 1.383 . S
C251 H259 0.929 . S
C252 C251 1.383 . S
C252 C253 1.377 . S
C253 H237 0.930 1_545 S
C253 C252 1.377 . S
C253 C254 1.379 . S
C254 H238 0.931 1_545 S
C254 C248 1.383 . S
C254 C253 1.379 . S
H255 C249 0.959 . S
H256 C249 0.961 . S
H257 C249 0.960 . S
H258 C250 0.930 . S
H259 C251 0.929 . S
H260 C268 0.929 1_545 S
H261 C270 0.939 . S
H262 C272 0.930 . S
H263 C275 0.929 . S
H264 C278 0.930 . S
H265 C280 0.960 . S
H266 C280 0.960 . S
H267 C280 0.960 . S
C268 H260 0.929 1_565 S
C268 C269 1.377 . S
C268 C270 1.381 1_565 S
C269 C268 1.377 . S
C269 C275 1.390 . S
C270 H261 0.939 . S
C270 C268 1.381 1_545 S
C270 C271 1.366 1_545 S
C271 C270 1.366 1_565 S
C271 C272 1.400 . S
C271 C276 1.490 . S
C272 H262 0.930 . S
C272 C271 1.400 . S
C272 C275 1.386 . S
H273 C289 0.912 1_565 S
H274 C290 0.931 1_565 S
C275 H263 0.929 . S
C275 C269 1.390 . S
C275 C272 1.386 . S
C276 C271 1.490 . S
C276 C278 1.395 1_565 S
C276 C279 1.403 . S
H277 C283 0.930 . S
C278 H264 0.930 . S
C278 C276 1.395 1_545 S
C278 C281 1.403 . S
C279 C276 1.403 . S
C279 C280 1.524 . S
C279 C283 1.400 . S
C280 H265 0.960 . S
C280 H266 0.960 . S
C280 H267 0.960 . S
C280 C279 1.524 . S
C281 C278 1.403 . S
C281 C282 1.392 . S
C281 C285 1.495 . S
C282 C281 1.392 . S
C282 C283 1.385 1_545 S
C282 C284 1.478 . S
C283 H277 0.930 . S
C283 C279 1.400 . S
C283 C282 1.385 1_565 S
C284 C282 1.478 . S
C284 C286 1.381 . S
C284 C290 1.383 . S
C285 C281 1.495 . S
C285 H291 0.959 . S
C285 H292 0.961 . S
C285 H293 0.960 . S
C286 C284 1.381 . S
C286 C287 1.394 . S
C286 H294 0.930 . S
C287 C286 1.394 . S
C287 C288 1.383 . S
C287 H295 0.929 . S
C288 C287 1.383 . S
C288 C289 1.377 . S
C289 H273 0.912 1_545 S
C289 C288 1.377 . S
C289 C290 1.379 . S
C290 H274 0.931 1_545 S
C290 C284 1.383 . S
C290 C289 1.379 . S
H291 C285 0.959 . S
H292 C285 0.961 . S
H293 C285 0.960 . S
H294 C286 0.930 . S
H295 C287 0.929 . S
H296 C304 0.929 . S
H297 C306 0.930 . S
H298 C308 0.930 1_545 S
H299 C311 0.929 . S
H300 C314 0.930 . S
H301 C316 0.960 . S
H302 C316 0.960 . S
H303 C316 0.960 . S
C304 H296 0.929 . S
C304 C305 1.377 . S
C304 C306 1.384 . S
C305 C304 1.377 . S
C305 C311 1.390 . S
C306 H297 0.930 . S
C306 C304 1.384 . S
C306 C307 1.372 . S
C307 C306 1.372 . S
C307 C308 1.400 . S
C307 C312 1.490 . S
C308 H298 0.930 1_565 S
C308 C307 1.400 . S
C308 C311 1.386 . S
H309 C325 0.930 . S
H310 C326 0.931 . S
C311 H299 0.929 . S
C311 C305 1.390 . S
C311 C308 1.386 . S
C312 C307 1.490 . S
C312 C314 1.395 . S
C312 C315 1.403 . S
H313 C319 0.930 . S
C314 H300 0.930 . S
C314 C312 1.395 . S
C314 C317 1.403 1_565 S
C315 C312 1.403 . S
C315 C316 1.524 . S
C315 C319 1.400 1_565 S
C316 H301 0.960 . S
C316 H302 0.960 . S
C316 H303 0.960 . S
C316 C315 1.524 . S
C317 C314 1.403 1_545 S
C317 C318 1.392 . S
C317 C321 1.495 . S
C318 C317 1.392 . S
C318 C319 1.385 . S
C318 C320 1.478 . S
C319 H313 0.930 . S
C319 C315 1.400 1_545 S
C319 C318 1.385 . S
C320 C318 1.478 . S
C320 C322 1.381 . S
C320 C326 1.383 . S
C321 C317 1.495 . S
C321 H327 0.959 . S
C321 H328 0.961 . S
C321 H329 0.960 . S
C322 C320 1.381 . S
C322 C323 1.394 . S
C322 H330 0.930 1_545 S
C323 C322 1.394 . S
C323 C324 1.383 . S
C323 H331 0.929 . S
C324 C323 1.383 . S
C324 C325 1.377 . S
C325 H309 0.930 . S
C325 C324 1.377 . S
C325 C326 1.379 . S
C326 H310 0.931 . S
C326 C320 1.383 . S
C326 C325 1.379 . S
H327 C321 0.959 . S
H328 C321 0.961 . S
H329 C321 0.960 . S
H330 C322 0.930 1_565 S
H331 C323 0.929 . S
H332 C340 0.929 . S
H333 C342 0.930 1_545 S
H334 C344 0.930 . S
H335 C347 0.929 . S
H336 C350 0.930 . S
H337 C352 0.960 . S
H338 C352 0.960 . S
H339 C352 0.960 1_565 S
C340 H332 0.929 . S
C340 C341 1.377 . S
C340 C342 1.384 . S
C341 C340 1.377 . S
C341 C347 1.390 . S
C342 H333 0.930 1_565 S
C342 C340 1.384 . S
C342 C343 1.372 . S
C343 C342 1.372 . S
C343 C344 1.400 . S
C343 C348 1.490 . S
C344 H334 0.930 . S
C344 C343 1.400 . S
C344 C347 1.386 . S
H345 C361 0.930 . S
H346 C362 0.931 1_565 S
C347 H335 0.929 . S
C347 C341 1.390 . S
C347 C344 1.386 . S
C348 C343 1.490 . S
C348 C350 1.395 . S
C348 C351 1.403 1_565 S
H349 C355 0.930 . S
C350 H336 0.930 . S
C350 C348 1.395 . S
C350 C353 1.412 . S
C351 C348 1.403 1_545 S
C351 C352 1.524 . S
C351 C355 1.400 . S
C352 H337 0.960 . S
C352 H338 0.960 . S
C352 H339 0.960 1_545 S
C352 C351 1.524 . S
C353 C350 1.412 . S
C353 C354 1.383 1_565 S
C353 C357 1.497 . S
C354 C353 1.383 1_545 S
C354 C355 1.385 . S
C354 C356 1.478 . S
C355 H349 0.930 . S
C355 C351 1.400 . S
C355 C354 1.385 . S
C356 C354 1.478 . S
C356 C358 1.381 . S
C356 C362 1.383 . S
C357 C353 1.497 . S
C357 H363 0.959 . S
C357 H364 0.961 . S
C357 H365 0.960 1_565 S
C358 C356 1.381 . S
C358 C359 1.394 . S
C358 H366 0.930 . S
C359 C358 1.394 . S
C359 C360 1.383 . S
C359 H367 0.929 . S
C360 C359 1.383 . S
C360 C361 1.377 . S
C361 H345 0.930 . S
C361 C360 1.377 . S
C361 C362 1.379 . S
C362 H346 0.931 1_545 S
C362 C356 1.383 . S
C362 C361 1.379 . S
H363 C357 0.959 . S
H364 C357 0.961 . S
H365 C357 0.960 1_545 S
H366 C358 0.930 . S
H367 C359 0.929 . S
H368 C376 0.929 . S
H369 C378 0.930 . S
H370 C380 0.930 . S
H371 C383 0.929 . S
H372 C386 0.930 . S
H373 C388 0.960 . S
H374 C388 0.960 . S
H375 C388 0.960 . S
C376 H368 0.929 . S
C376 C377 1.377 . S
C376 C378 1.384 . S
C377 C376 1.377 . S
C377 C383 1.390 . S
C378 H369 0.930 . S
C378 C376 1.384 . S
C378 C379 1.372 . S
C379 C378 1.372 . S
C379 C380 1.400 . S
C379 C384 1.490 . S
C380 H370 0.930 . S
C380 C379 1.400 . S
C380 C383 1.386 . S
H381 C397 0.930 . S
H382 C398 0.931 . S
C383 H371 0.929 . S
C383 C377 1.390 . S
C383 C380 1.386 . S
C384 C379 1.490 . S
C384 C386 1.395 . S
C384 C387 1.403 . S
H385 C391 0.930 . S
C386 H372 0.930 . S
C386 C384 1.395 . S
C386 C389 1.403 . S
C387 C384 1.403 . S
C387 C388 1.524 . S
C387 C391 1.400 . S
C388 H373 0.960 . S
C388 H374 0.960 . S
C388 H375 0.960 . S
C388 C387 1.524 . S
C389 C386 1.403 . S
C389 C390 1.392 . S
C389 C393 1.495 . S
C390 C389 1.392 . S
C390 C391 1.385 . S
C390 C392 1.478 . S
C391 H385 0.930 . S
C391 C387 1.400 . S
C391 C390 1.385 . S
C392 C390 1.478 . S
C392 C394 1.381 . S
C392 C398 1.383 . S
C393 C389 1.495 . S
C393 H399 0.959 . S
C393 H400 0.961 . S
C393 H401 0.960 . S
C394 C392 1.381 . S
C394 C395 1.394 . S
C394 H402 0.930 . S
C395 C394 1.394 . S
C395 C396 1.383 . S
C395 H403 0.929 . S
C396 C395 1.383 . S
C396 C397 1.377 . S
C397 H381 0.930 . S
C397 C396 1.377 . S
C397 C398 1.379 . S
C398 H382 0.931 . S
C398 C392 1.383 . S
C398 C397 1.379 . S
H399 C393 0.959 . S
H400 C393 0.961 . S
H401 C393 0.960 . S
H402 C394 0.930 . S
H403 C395 0.929 . S
H404 C412 0.929 . S
H405 C414 0.930 . S
H406 C416 0.930 . S
H407 C419 0.929 . S
H408 C422 0.930 . S
H409 C424 0.960 . S
H410 C424 0.960 . S
H411 C424 0.960 . S
C412 H404 0.929 . S
C412 C413 1.377 . S
C412 C414 1.384 . S
C413 C412 1.377 . S
C413 C419 1.390 . S
C414 H405 0.930 . S
C414 C412 1.384 . S
C414 C415 1.372 . S
C415 C414 1.372 . S
C415 C416 1.400 . S
C415 C420 1.490 . S
C416 H406 0.930 . S
C416 C415 1.400 . S
C416 C419 1.386 . S
H417 C433 0.930 . S
H418 C434 0.931 . S
C419 H407 0.929 . S
C419 C413 1.390 . S
C419 C416 1.386 . S
C420 C415 1.490 . S
C420 C422 1.395 . S
C420 C423 1.403 . S
H421 C427 0.930 . S
C422 H408 0.930 . S
C422 C420 1.395 . S
C422 C425 1.403 . S
C423 C420 1.403 . S
C423 C424 1.524 . S
C423 C427 1.400 . S
C424 H409 0.960 . S
C424 H410 0.960 . S
C424 H411 0.960 . S
C424 C423 1.524 . S
C425 C422 1.403 . S
C425 C426 1.392 . S
C425 C429 1.495 . S
C426 C425 1.392 . S
C426 C427 1.385 . S
C426 C428 1.478 . S
C427 H421 0.930 . S
C427 C423 1.400 . S
C427 C426 1.385 . S
C428 C426 1.478 . S
C428 C430 1.381 . S
C428 C434 1.383 . S
C429 C425 1.495 . S
C429 H435 0.959 . S
C429 H436 0.961 . S
C429 H437 0.960 . S
C430 C428 1.381 . S
C430 C431 1.394 . S
C430 H438 0.930 . S
C431 C430 1.394 . S
C431 C432 1.383 . S
C431 H439 0.929 . S
C432 C431 1.383 . S
C432 C433 1.377 . S
C433 H417 0.930 . S
C433 C432 1.377 . S
C433 C434 1.379 . S
C434 H418 0.931 . S
C434 C428 1.383 . S
C434 C433 1.379 . S
H435 C429 0.959 . S
H436 C429 0.961 . S
H437 C429 0.960 . S
H438 C430 0.930 . S
H439 C431 0.929 . S
H440 C448 0.929 . S
H441 C450 0.930 . S
H442 C452 0.930 . S
H443 C455 0.929 . S
H444 C458 0.930 . S
H445 C460 0.960 . S
H446 C460 0.960 . S
H447 C460 0.960 . S
C448 H440 0.929 . S
C448 C449 1.377 . S
C448 C450 1.384 . S
C449 C448 1.377 . S
C449 C455 1.390 . S
C450 H441 0.930 . S
C450 C448 1.384 . S
C450 C451 1.372 . S
C451 C450 1.372 . S
C451 C452 1.400 . S
C451 C456 1.490 . S
C452 H442 0.930 . S
C452 C451 1.400 . S
C452 C455 1.386 . S
H453 C469 0.930 . S
H454 C470 0.931 . S
C455 H443 0.929 . S
C455 C449 1.390 . S
C455 C452 1.386 . S
C456 C451 1.490 . S
C456 C458 1.395 . S
C456 C459 1.403 . S
H457 C463 0.930 . S
C458 H444 0.930 . S
C458 C456 1.395 . S
C458 C461 1.403 . S
C459 C456 1.403 . S
C459 C460 1.524 . S
C459 C463 1.400 . S
C460 H445 0.960 . S
C460 H446 0.960 . S
C460 H447 0.960 . S
C460 C459 1.524 . S
C461 C458 1.403 . S
C461 C462 1.392 . S
C461 C465 1.495 . S
C462 C461 1.392 . S
C462 C463 1.385 . S
C462 C464 1.478 . S
C463 H457 0.930 . S
C463 C459 1.400 . S
C463 C462 1.385 . S
C464 C462 1.478 . S
C464 C466 1.381 . S
C464 C470 1.383 . S
C465 C461 1.495 . S
C465 H471 0.959 . S
C465 H472 0.961 . S
C465 H473 0.960 . S
C466 C464 1.381 . S
C466 C467 1.394 . S
C466 H474 0.930 . S
C467 C466 1.394 . S
C467 C468 1.383 . S
C467 H475 0.929 . S
C468 C467 1.383 . S
C468 C469 1.377 . S
C469 H453 0.930 . S
C469 C468 1.377 . S
C469 C470 1.379 . S
C470 H454 0.931 . S
C470 C464 1.383 . S
C470 C469 1.379 . S
H471 C465 0.959 . S
H472 C465 0.961 . S
H473 C465 0.960 . S
H474 C466 0.930 . S
H475 C467 0.929 . S
H476 C484 0.929 . S
H477 C486 0.930 . S
H478 C488 0.930 . S
H479 C491 0.929 . S
H480 C494 0.930 . S
H481 C496 0.960 . S
H482 C496 0.960 . S
H483 C496 0.960 . S
C484 H476 0.929 . S
C484 C485 1.377 . S
C484 C486 1.384 . S
C485 C484 1.377 . S
C485 C491 1.390 . S
C486 H477 0.930 . S
C486 C484 1.384 . S
C486 C487 1.372 . S
C487 C486 1.372 . S
C487 C488 1.400 . S
C487 C492 1.490 . S
C488 H478 0.930 . S
C488 C487 1.400 . S
C488 C491 1.386 . S
H489 C505 0.930 . S
H490 C506 0.931 . S
C491 H479 0.929 . S
C491 C485 1.390 . S
C491 C488 1.386 . S
C492 C487 1.490 . S
C492 C494 1.395 . S
C492 C495 1.403 . S
H493 C499 0.930 . S
C494 H480 0.930 . S
C494 C492 1.395 . S
C494 C497 1.403 . S
C495 C492 1.403 . S
C495 C496 1.524 . S
C495 C499 1.400 . S
C496 H481 0.960 . S
C496 H482 0.960 . S
C496 H483 0.960 . S
C496 C495 1.524 . S
C497 C494 1.403 . S
C497 C498 1.392 . S
C497 C501 1.495 . S
C498 C497 1.392 . S
C498 C499 1.385 . S
C498 C500 1.478 . S
C499 H493 0.930 . S
C499 C495 1.400 . S
C499 C498 1.385 . S
C500 C498 1.478 . S
C500 C502 1.381 . S
C500 C506 1.383 . S
C501 C497 1.495 . S
C501 H507 0.959 . S
C501 H508 0.961 . S
C501 H509 0.960 . S
C502 C500 1.381 . S
C502 C503 1.394 . S
C502 H510 0.930 . S
C503 C502 1.394 . S
C503 C504 1.383 . S
C503 H511 0.929 . S
C504 C503 1.383 . S
C504 C505 1.377 . S
C505 H489 0.930 . S
C505 C504 1.377 . S
C505 C506 1.379 . S
C506 H490 0.931 . S
C506 C500 1.383 . S
C506 C505 1.379 . S
H507 C501 0.959 . S
H508 C501 0.961 . S
H509 C501 0.960 . S
H510 C502 0.930 . S
H511 C503 0.929 . S
H512 C520 0.929 . S
H513 C522 0.930 1_455 S
H514 C524 0.930 . S
H515 C527 0.929 . S
H516 C530 0.930 . S
H517 C532 0.960 . S
H518 C532 0.960 . S
H519 C532 0.960 1_655 S
C520 H512 0.929 . S
C520 C521 1.377 . S
C520 C522 1.384 . S
C521 C520 1.377 . S
C521 C527 1.390 . S
C522 H513 0.930 1_655 S
C522 C520 1.384 . S
C522 C523 1.372 . S
C523 C522 1.372 . S
C523 C524 1.400 . S
C523 C528 1.490 . S
C524 H514 0.930 . S
C524 C523 1.400 . S
C524 C527 1.386 . S
H525 C541 0.930 . S
H526 C542 0.931 1_655 S
C527 H515 0.929 . S
C527 C521 1.390 . S
C527 C524 1.386 . S
C528 C523 1.490 . S
C528 C530 1.395 . S
C528 C531 1.403 1_655 S
H529 C535 0.930 . S
C530 H516 0.930 . S
C530 C528 1.395 . S
C530 C533 1.407 . S
C531 C528 1.403 1_455 S
C531 C532 1.524 . S
C531 C535 1.400 . S
C532 H517 0.960 . S
C532 H518 0.960 . S
C532 H519 0.960 1_455 S
C532 C531 1.524 . S
C533 C530 1.407 . S
C533 C534 1.388 1_655 S
C533 C537 1.496 . S
C534 C533 1.388 1_455 S
C534 C535 1.385 . S
C534 C536 1.478 . S
C535 H529 0.930 . S
C535 C531 1.400 . S
C535 C534 1.385 . S
C536 C534 1.478 . S
C536 C538 1.381 . S
C536 C542 1.383 . S
C537 C533 1.496 . S
C537 H543 0.959 1_545 S
C537 H544 0.961 . S
C537 H545 0.949 1_645 S
C538 C536 1.381 . S
C538 C539 1.394 . S
C538 H546 0.930 . S
C539 C538 1.394 . S
C539 C540 1.383 . S
C539 H547 0.929 . S
C540 C539 1.383 . S
C540 C541 1.377 . S
C541 H525 0.930 . S
C541 C540 1.377 . S
C541 C542 1.379 . S
C542 H526 0.931 1_455 S
C542 C536 1.383 . S
C542 C541 1.379 . S
H543 C537 0.959 1_565 S
H544 C537 0.961 . S
H545 C537 0.949 1_465 S
H546 C538 0.930 . S
H547 C539 0.929 . S
H548 C556 0.929 . S
H549 C558 0.930 . S
H550 C560 0.930 . S
H551 C563 0.929 . S
H552 C566 0.930 . S
H553 C568 0.960 . S
H554 C568 0.960 . S
H555 C568 0.960 . S
C556 H548 0.929 . S
C556 C557 1.377 . S
C556 C558 1.384 . S
C557 C556 1.377 . S
C557 C563 1.390 . S
C558 H549 0.930 . S
C558 C556 1.384 . S
C558 C559 1.372 . S
C559 C558 1.372 . S
C559 C560 1.400 . S
C559 C564 1.490 . S
C560 H550 0.930 . S
C560 C559 1.400 . S
C560 C563 1.386 . S
H561 C577 0.930 . S
H562 C578 0.931 . S
C563 H551 0.929 . S
C563 C557 1.390 . S
C563 C560 1.386 . S
C564 C559 1.490 . S
C564 C566 1.395 . S
C564 C567 1.403 . S
H565 C571 0.930 . S
C566 H552 0.930 . S
C566 C564 1.395 . S
C566 C569 1.403 . S
C567 C564 1.403 . S
C567 C568 1.524 . S
C567 C571 1.400 . S
C568 H553 0.960 . S
C568 H554 0.960 . S
C568 H555 0.960 . S
C568 C567 1.524 . S
C569 C566 1.403 . S
C569 C570 1.392 . S
C569 C573 1.495 . S
C570 C569 1.392 . S
C570 C571 1.385 . S
C570 C572 1.478 . S
C571 H565 0.930 . S
C571 C567 1.400 . S
C571 C570 1.385 . S
C572 C570 1.478 . S
C572 C574 1.381 . S
C572 C578 1.383 . S
C573 C569 1.495 . S
C573 H579 0.959 . S
C573 H580 0.961 . S
C573 H581 0.960 . S
C574 C572 1.381 . S
C574 C575 1.394 . S
C574 H582 0.930 . S
C575 C574 1.394 . S
C575 C576 1.383 . S
C575 H583 0.929 . S
C576 C575 1.383 . S
C576 C577 1.377 . S
C577 H561 0.930 . S
C577 C576 1.377 . S
C577 C578 1.379 . S
C578 H562 0.931 . S
C578 C572 1.383 . S
C578 C577 1.379 . S
H579 C573 0.959 . S
H580 C573 0.961 . S
H581 C573 0.960 . S
H582 C574 0.930 . S
H583 C575 0.929 . S
H584 C592 0.929 . S
H585 C594 0.930 . S
H586 C596 0.930 . S
H587 C599 0.929 . S
H588 C602 0.930 . S
H589 C604 0.960 . S
H590 C604 0.960 . S
H591 C604 0.960 . S
C592 H584 0.929 . S
C592 C593 1.377 . S
C592 C594 1.384 . S
C593 C592 1.377 . S
C593 C599 1.390 . S
C594 H585 0.930 . S
C594 C592 1.384 . S
C594 C595 1.372 . S
C595 C594 1.372 . S
C595 C596 1.400 . S
C595 C600 1.490 . S
C596 H586 0.930 . S
C596 C595 1.400 . S
C596 C599 1.386 . S
H597 C613 0.930 . S
H598 C614 0.931 . S
C599 H587 0.929 . S
C599 C593 1.390 . S
C599 C596 1.386 . S
C600 C595 1.490 . S
C600 C602 1.395 1_455 S
C600 C603 1.403 . S
H601 C607 0.930 . S
C602 H588 0.930 . S
C602 C600 1.395 1_655 S
C602 C605 1.403 . S
C603 C600 1.403 . S
C603 C604 1.524 . S
C603 C607 1.400 . S
C604 H589 0.960 . S
C604 H590 0.960 . S
C604 H591 0.960 . S
C604 C603 1.524 . S
C605 C602 1.403 . S
C605 C606 1.392 . S
C605 C609 1.495 . S
C606 C605 1.392 . S
C606 C607 1.385 1_655 S
C606 C608 1.478 . S
C607 H601 0.930 . S
C607 C603 1.400 . S
C607 C606 1.385 1_455 S
C608 C606 1.478 . S
C608 C610 1.381 . S
C608 C614 1.383 . S
C609 C605 1.495 . S
C609 H615 0.959 . S
C609 H616 0.961 . S
C609 H617 0.960 . S
C610 C608 1.381 . S
C610 C611 1.394 . S
C610 H618 0.930 . S
C611 C610 1.394 . S
C611 C612 1.383 . S
C611 H619 0.929 . S
C612 C611 1.383 . S
C612 C613 1.377 . S
C613 H597 0.930 . S
C613 C612 1.377 . S
C613 C614 1.379 . S
C614 H598 0.931 . S
C614 C608 1.383 . S
C614 C613 1.379 . S
H615 C609 0.959 . S
H616 C609 0.961 . S
H617 C609 0.960 . S
H618 C610 0.930 . S
H619 C611 0.929 . S
H620 C628 0.929 . S
H621 C630 0.930 . S
H622 C632 0.930 . S
H623 C635 0.929 . S
H624 C638 0.930 . S
H625 C640 0.960 . S
H626 C640 0.960 . S
H627 C640 0.960 . S
C628 H620 0.929 . S
C628 C629 1.377 . S
C628 C630 1.384 . S
C629 C628 1.377 . S
C629 C635 1.390 . S
C630 H621 0.930 . S
C630 C628 1.384 . S
C630 C631 1.372 . S
C631 C630 1.372 . S
C631 C632 1.400 . S
C631 C636 1.490 . S
C632 H622 0.930 . S
C632 C631 1.400 . S
C632 C635 1.386 . S
H633 C649 0.930 . S
H634 C650 0.931 . S
C635 H623 0.929 . S
C635 C629 1.390 . S
C635 C632 1.386 . S
C636 C631 1.490 . S
C636 C638 1.395 . S
C636 C639 1.403 . S
H637 C643 0.930 . S
C638 H624 0.930 . S
C638 C636 1.395 . S
C638 C641 1.403 . S
C639 C636 1.403 . S
C639 C640 1.524 . S
C639 C643 1.400 . S
C640 H625 0.960 . S
C640 H626 0.960 . S
C640 H627 0.960 . S
C640 C639 1.524 . S
C641 C638 1.403 . S
C641 C642 1.392 . S
C641 C645 1.495 . S
C642 C641 1.392 . S
C642 C643 1.385 . S
C642 C644 1.478 . S
C643 H637 0.930 . S
C643 C639 1.400 . S
C643 C642 1.385 . S
C644 C642 1.478 . S
C644 C646 1.381 . S
C644 C650 1.383 . S
C645 C641 1.495 . S
C645 H651 0.959 . S
C645 H652 0.961 . S
C645 H653 0.960 . S
C646 C644 1.381 . S
C646 C647 1.394 . S
C646 H654 0.930 . S
C647 C646 1.394 . S
C647 C648 1.383 . S
C647 H655 0.929 . S
C648 C647 1.383 . S
C648 C649 1.377 . S
C649 H633 0.930 . S
C649 C648 1.377 . S
C649 C650 1.379 . S
C650 H634 0.931 . S
C650 C644 1.383 . S
C650 C649 1.379 . S
H651 C645 0.959 . S
H652 C645 0.961 . S
H653 C645 0.960 . S
H654 C646 0.930 . S
H655 C647 0.929 . S
H656 C664 0.929 . S
H657 C666 0.930 . S
H658 C668 0.930 . S
H659 C671 0.929 . S
H660 C674 0.930 . S
H661 C676 0.960 . S
H662 C676 0.960 . S
H663 C676 0.960 . S
C664 H656 0.929 . S
C664 C665 1.377 . S
C664 C666 1.384 . S
C665 C664 1.377 . S
C665 C671 1.390 . S
C666 H657 0.930 . S
C666 C664 1.384 . S
C666 C667 1.372 . S
C667 C666 1.372 . S
C667 C668 1.400 . S
C667 C672 1.490 . S
C668 H658 0.930 . S
C668 C667 1.400 . S
C668 C671 1.386 . S
H669 C685 0.930 . S
H670 C686 0.931 . S
C671 H659 0.929 . S
C671 C665 1.390 . S
C671 C668 1.386 . S
C672 C667 1.490 . S
C672 C674 1.395 . S
C672 C675 1.403 . S
H673 C679 0.930 . S
C674 H660 0.930 . S
C674 C672 1.395 . S
C674 C677 1.403 . S
C675 C672 1.403 . S
C675 C676 1.524 . S
C675 C679 1.400 . S
C676 H661 0.960 . S
C676 H662 0.960 . S
C676 H663 0.960 . S
C676 C675 1.524 . S
C677 C674 1.403 . S
C677 C678 1.392 . S
C677 C681 1.495 . S
C678 C677 1.392 . S
C678 C679 1.385 . S
C678 C680 1.478 . S
C679 H673 0.930 . S
C679 C675 1.400 . S
C679 C678 1.385 . S
C680 C678 1.478 . S
C680 C682 1.381 . S
C680 C686 1.383 . S
C681 C677 1.495 . S
C681 H687 0.959 . S
C681 H688 0.961 . S
C681 H689 0.960 . S
C682 C680 1.381 . S
C682 C683 1.394 . S
C682 H690 0.930 . S
C683 C682 1.394 . S
C683 C684 1.383 . S
C683 H691 0.929 . S
C684 C683 1.383 . S
C684 C685 1.377 . S
C685 H669 0.930 . S
C685 C684 1.377 . S
C685 C686 1.379 . S
C686 H670 0.931 . S
C686 C680 1.383 . S
C686 C685 1.379 . S
H687 C681 0.959 . S
H688 C681 0.961 . S
H689 C681 0.960 . S
H690 C682 0.930 . S
H691 C683 0.929 . S
H692 C700 0.929 . S
H693 C702 0.930 . S
H694 C704 0.930 . S
H695 C707 0.929 . S
H696 C710 0.930 . S
H697 C712 0.960 . S
H698 C712 0.960 . S
H699 C712 0.960 . S
C700 H692 0.929 . S
C700 C701 1.377 . S
C700 C702 1.384 . S
C701 C700 1.377 . S
C701 C707 1.390 . S
C702 H693 0.930 . S
C702 C700 1.384 . S
C702 C703 1.372 . S
C703 C702 1.372 . S
C703 C704 1.400 . S
C703 C708 1.490 . S
C704 H694 0.930 . S
C704 C703 1.400 . S
C704 C707 1.386 . S
H705 C721 0.930 . S
H706 C722 0.931 . S
C707 H695 0.929 . S
C707 C701 1.390 . S
C707 C704 1.386 . S
C708 C703 1.490 . S
C708 C710 1.395 . S
C708 C711 1.403 1_455 S
H709 C715 0.930 . S
C710 H696 0.930 . S
C710 C708 1.395 . S
C710 C713 1.403 . S
C711 C708 1.403 1_655 S
C711 C712 1.524 . S
C711 C715 1.400 . S
C712 H697 0.960 . S
C712 H698 0.960 . S
C712 H699 0.960 . S
C712 C711 1.524 . S
C713 C710 1.403 . S
C713 C714 1.392 1_455 S
C713 C717 1.495 . S
C714 C713 1.392 1_655 S
C714 C715 1.385 . S
C714 C716 1.478 . S
C715 H709 0.930 . S
C715 C711 1.400 . S
C715 C714 1.385 . S
C716 C714 1.478 . S
C716 C718 1.381 . S
C716 C722 1.383 . S
C717 C713 1.495 . S
C717 H723 0.959 . S
C717 H724 0.961 . S
C717 H725 0.960 . S
C718 C716 1.381 . S
C718 C719 1.394 . S
C718 H726 0.930 . S
C719 C718 1.394 . S
C719 C720 1.383 . S
C719 H727 0.929 . S
C720 C719 1.383 . S
C720 C721 1.377 . S
C721 H705 0.930 . S
C721 C720 1.377 . S
C721 C722 1.379 . S
C722 H706 0.931 . S
C722 C716 1.383 . S
C722 C721 1.379 . S
H723 C717 0.959 . S
H724 C717 0.961 . S
H725 C717 0.960 . S
H726 C718 0.930 . S
H727 C719 0.929 . S
H728 C736 0.929 . S
H729 C738 0.930 . S
H730 C740 0.930 . S
H731 C743 0.929 . S
H732 C746 0.930 . S
H733 C748 0.960 . S
H734 C748 0.960 . S
H735 C748 0.960 . S
C736 H728 0.929 . S
C736 C737 1.377 . S
C736 C738 1.384 . S
C737 C736 1.377 . S
C737 C743 1.390 . S
C738 H729 0.930 . S
C738 C736 1.384 . S
C738 C739 1.372 . S
C739 C738 1.372 . S
C739 C740 1.400 . S
C739 C744 1.490 . S
C740 H730 0.930 . S
C740 C739 1.400 . S
C740 C743 1.386 . S
H741 C757 0.930 . S
H742 C758 0.931 . S
C743 H731 0.929 . S
C743 C737 1.390 . S
C743 C740 1.386 . S
C744 C739 1.490 . S
C744 C746 1.395 . S
C744 C747 1.403 . S
H745 C751 0.930 . S
C746 H732 0.930 . S
C746 C744 1.395 . S
C746 C749 1.403 . S
C747 C744 1.403 . S
C747 C748 1.524 . S
C747 C751 1.400 . S
C748 H733 0.960 . S
C748 H734 0.960 . S
C748 H735 0.960 . S
C748 C747 1.524 . S
C749 C746 1.403 . S
C749 C750 1.392 . S
C749 C753 1.495 . S
C750 C749 1.392 . S
C750 C751 1.385 . S
C750 C752 1.478 . S
C751 H745 0.930 . S
C751 C747 1.400 . S
C751 C750 1.385 . S
C752 C750 1.478 . S
C752 C754 1.381 . S
C752 C758 1.383 . S
C753 C749 1.495 . S
C753 H759 0.959 . S
C753 H760 0.961 . S
C753 H761 0.960 . S
C754 C752 1.381 . S
C754 C755 1.394 . S
C754 H762 0.930 . S
C755 C754 1.394 . S
C755 C756 1.383 . S
C755 H763 0.929 . S
C756 C755 1.383 . S
C756 C757 1.377 . S
C757 H741 0.930 . S
C757 C756 1.377 . S
C757 C758 1.379 . S
C758 H742 0.931 . S
C758 C752 1.383 . S
C758 C757 1.379 . S
H759 C753 0.959 . S
H760 C753 0.961 . S
H761 C753 0.960 . S
H762 C754 0.930 . S
H763 C755 0.929 . S
H764 C772 0.929 . S
H765 C774 0.930 . S
H766 C776 0.930 . S
H767 C779 0.929 . S
H768 C782 0.930 . S
H769 C784 0.960 . S
H770 C784 0.960 . S
H771 C784 0.960 . S
C772 H764 0.929 . S
C772 C773 1.377 . S
C772 C774 1.384 . S
C773 C772 1.377 . S
C773 C779 1.390 . S
C774 H765 0.930 . S
C774 C772 1.384 . S
C774 C775 1.372 . S
C775 C774 1.372 . S
C775 C776 1.400 . S
C775 C780 1.490 . S
C776 H766 0.930 . S
C776 C775 1.400 . S
C776 C779 1.386 . S
H777 C793 0.930 . S
H778 C794 0.931 . S
C779 H767 0.929 . S
C779 C773 1.390 . S
C779 C776 1.386 . S
C780 C775 1.490 . S
C780 C782 1.395 1_455 S
C780 C783 1.403 . S
H781 C787 0.930 . S
C782 H768 0.930 . S
C782 C780 1.395 1_655 S
C782 C785 1.403 . S
C783 C780 1.403 . S
C783 C784 1.524 . S
C783 C787 1.400 . S
C784 H769 0.960 . S
C784 H770 0.960 . S
C784 H771 0.960 . S
C784 C783 1.524 . S
C785 C782 1.403 . S
C785 C786 1.392 . S
C785 C789 1.495 . S
C786 C785 1.392 . S
C786 C787 1.385 1_655 S
C786 C788 1.478 . S
C787 H781 0.930 . S
C787 C783 1.400 . S
C787 C786 1.385 1_455 S
C788 C786 1.478 . S
C788 C790 1.381 . S
C788 C794 1.383 . S
C789 C785 1.495 . S
C789 H795 0.959 . S
C789 H796 0.961 . S
C789 H797 0.960 . S
C790 C788 1.381 . S
C790 C791 1.394 . S
C790 H798 0.930 . S
C791 C790 1.394 . S
C791 C792 1.383 . S
C791 H799 0.929 . S
C792 C791 1.383 . S
C792 C793 1.377 . S
C793 H777 0.930 . S
C793 C792 1.377 . S
C793 C794 1.379 . S
C794 H778 0.931 . S
C794 C788 1.383 . S
C794 C793 1.379 . S
H795 C789 0.959 . S
H796 C789 0.961 . S
H797 C789 0.960 . S
H798 C790 0.930 . S
H799 C791 0.929 . S
H800 C808 0.929 . S
H801 C810 0.930 . S
H802 C812 0.930 . S
H803 C815 0.929 . S
H804 C818 0.930 . S
H805 C820 0.960 . S
H806 C820 0.960 . S
H807 C820 0.960 . S
C808 H800 0.929 . S
C808 C809 1.377 . S
C808 C810 1.384 . S
C809 C808 1.377 . S
C809 C815 1.390 . S
C810 H801 0.930 . S
C810 C808 1.384 . S
C810 C811 1.372 . S
C811 C810 1.372 . S
C811 C812 1.400 . S
C811 C816 1.490 . S
C812 H802 0.930 . S
C812 C811 1.400 . S
C812 C815 1.386 . S
H813 C829 0.930 . S
H814 C830 0.931 . S
C815 H803 0.929 . S
C815 C809 1.390 . S
C815 C812 1.386 . S
C816 C811 1.490 . S
C816 C818 1.395 1_455 S
C816 C819 1.403 . S
H817 C823 0.930 . S
C818 H804 0.930 . S
C818 C816 1.395 1_655 S
C818 C821 1.403 . S
C819 C816 1.403 . S
C819 C820 1.524 . S
C819 C823 1.400 . S
C820 H805 0.960 . S
C820 H806 0.960 . S
C820 H807 0.960 . S
C820 C819 1.524 . S
C821 C818 1.403 . S
C821 C822 1.392 . S
C821 C825 1.495 . S
C822 C821 1.392 . S
C822 C823 1.385 1_655 S
C822 C824 1.478 . S
C823 H817 0.930 . S
C823 C819 1.400 . S
C823 C822 1.385 1_455 S
C824 C822 1.478 . S
C824 C826 1.381 . S
C824 C830 1.383 . S
C825 C821 1.495 . S
C825 H831 0.959 . S
C825 H832 0.961 . S
C825 H833 0.960 . S
C826 C824 1.381 . S
C826 C827 1.394 . S
C826 H834 0.930 . S
C827 C826 1.394 . S
C827 C828 1.383 . S
C827 H835 0.929 . S
C828 C827 1.383 . S
C828 C829 1.377 . S
C829 H813 0.930 . S
C829 C828 1.377 . S
C829 C830 1.379 . S
C830 H814 0.931 . S
C830 C824 1.383 . S
C830 C829 1.379 . S
H831 C825 0.959 . S
H832 C825 0.961 . S
H833 C825 0.960 . S
H834 C826 0.930 . S
H835 C827 0.929 . S
H836 C844 0.929 . S
H837 C846 0.930 . S
H838 C848 0.930 . S
H839 C851 0.929 . S
H840 C854 0.930 . S
H841 C856 0.960 . S
H842 C856 0.960 . S
H843 C856 0.960 . S
C844 H836 0.929 . S
C844 C845 1.377 . S
C844 C846 1.384 . S
C845 C844 1.377 . S
C845 C851 1.390 . S
C846 H837 0.930 . S
C846 C844 1.384 . S
C846 C847 1.372 . S
C847 C846 1.372 . S
C847 C848 1.400 . S
C847 C852 1.490 . S
C848 H838 0.930 . S
C848 C847 1.400 . S
C848 C851 1.386 . S
H849 C865 0.930 . S
H850 C866 0.931 . S
C851 H839 0.929 . S
C851 C845 1.390 . S
C851 C848 1.386 . S
C852 C847 1.490 . S
C852 C854 1.395 . S
C852 C855 1.403 . S
H853 C859 0.930 . S
C854 H840 0.930 . S
C854 C852 1.395 . S
C854 C857 1.403 . S
C855 C852 1.403 . S
C855 C856 1.524 . S
C855 C859 1.400 . S
C856 H841 0.960 . S
C856 H842 0.960 . S
C856 H843 0.960 . S
C856 C855 1.524 . S
C857 C854 1.403 . S
C857 C858 1.392 . S
C857 C861 1.495 . S
C858 C857 1.392 . S
C858 C859 1.385 . S
C858 C860 1.478 . S
C859 H853 0.930 . S
C859 C855 1.400 . S
C859 C858 1.385 . S
C860 C858 1.478 . S
C860 C862 1.381 . S
C860 C866 1.383 . S
C861 C857 1.495 . S
C861 H867 0.959 . S
C861 H868 0.961 . S
C861 H869 0.960 . S
C862 C860 1.381 . S
C862 C863 1.394 . S
C862 H870 0.930 . S
C863 C862 1.394 . S
C863 C864 1.383 . S
C863 H871 0.929 . S
C864 C863 1.383 . S
C864 C865 1.377 . S
C865 H849 0.930 . S
C865 C864 1.377 . S
C865 C866 1.379 . S
C866 H850 0.931 . S
C866 C860 1.383 . S
C866 C865 1.379 . S
H867 C861 0.959 . S
H868 C861 0.961 . S
H869 C861 0.960 . S
H870 C862 0.930 . S
H871 C863 0.929 . S
H872 C880 0.929 . S
H873 C882 0.930 . S
H874 C884 0.930 . S
H875 C887 0.929 . S
H876 C890 0.930 . S
H877 C892 0.960 . S
H878 C892 0.960 . S
H879 C892 0.960 . S
C880 H872 0.929 . S
C880 C881 1.377 . S
C880 C882 1.384 . S
C881 C880 1.377 . S
C881 C887 1.390 . S
C882 H873 0.930 . S
C882 C880 1.384 . S
C882 C883 1.372 . S
C883 C882 1.372 . S
C883 C884 1.400 . S
C883 C888 1.490 . S
C884 H874 0.930 . S
C884 C883 1.400 . S
C884 C887 1.386 . S
H885 C901 0.930 . S
H886 C902 0.931 . S
C887 H875 0.929 . S
C887 C881 1.390 . S
C887 C884 1.386 . S
C888 C883 1.490 . S
C888 C890 1.395 . S
C888 C891 1.403 . S
H889 C895 0.930 . S
C890 H876 0.930 . S
C890 C888 1.395 . S
C890 C893 1.403 . S
C891 C888 1.403 . S
C891 C892 1.524 . S
C891 C895 1.400 . S
C892 H877 0.960 . S
C892 H878 0.960 . S
C892 H879 0.960 . S
C892 C891 1.524 . S
C893 C890 1.403 . S
C893 C894 1.392 . S
C893 C897 1.495 . S
C894 C893 1.392 . S
C894 C895 1.385 . S
C894 C896 1.478 . S
C895 H889 0.930 . S
C895 C891 1.400 . S
C895 C894 1.385 . S
C896 C894 1.478 . S
C896 C898 1.381 . S
C896 C902 1.383 . S
C897 C893 1.495 . S
C897 H903 0.959 . S
C897 H904 0.961 . S
C897 H905 0.960 . S
C898 C896 1.381 . S
C898 C899 1.394 . S
C898 H906 0.930 . S
C899 C898 1.394 . S
C899 C900 1.383 . S
C899 H907 0.929 . S
C900 C899 1.383 . S
C900 C901 1.377 . S
C901 H885 0.930 . S
C901 C900 1.377 . S
C901 C902 1.379 . S
C902 H886 0.931 . S
C902 C896 1.383 . S
C902 C901 1.379 . S
H903 C897 0.959 . S
H904 C897 0.961 . S
H905 C897 0.960 . S
H906 C898 0.930 . S
H907 C899 0.929 . S
H908 C916 0.929 . S
H909 C918 0.930 1_655 S
H910 C920 0.930 . S
H911 C923 0.929 . S
H912 C926 0.930 . S
H913 C928 0.960 . S
H914 C928 0.960 . S
H915 C928 0.960 . S
C916 H908 0.929 . S
C916 C917 1.377 . S
C916 C918 1.384 . S
C917 C916 1.377 . S
C917 C923 1.390 . S
C918 H909 0.930 1_455 S
C918 C916 1.384 . S
C918 C919 1.372 . S
C919 C918 1.372 . S
C919 C920 1.400 . S
C919 C924 1.490 . S
C920 H910 0.930 . S
C920 C919 1.400 . S
C920 C923 1.386 . S
H921 C937 0.930 . S
H922 C938 0.931 1_455 S
C923 H911 0.929 . S
C923 C917 1.390 . S
C923 C920 1.386 . S
C924 C919 1.490 . S
C924 C926 1.395 1_455 S
C924 C927 1.403 . S
H925 C931 0.930 . S
C926 H912 0.930 . S
C926 C924 1.395 1_655 S
C926 C929 1.403 . S
C927 C924 1.403 . S
C927 C928 1.524 . S
C927 C931 1.400 . S
C928 H913 0.960 . S
C928 H914 0.960 . S
C928 H915 0.960 . S
C928 C927 1.524 . S
C929 C926 1.403 . S
C929 C930 1.392 . S
C929 C933 1.495 . S
C930 C929 1.392 . S
C930 C931 1.385 1_655 S
C930 C932 1.478 . S
C931 H925 0.930 . S
C931 C927 1.400 . S
C931 C930 1.385 1_455 S
C932 C930 1.478 . S
C932 C934 1.381 . S
C932 C938 1.383 . S
C933 C929 1.495 . S
C933 H939 0.959 . S
C933 H940 0.961 . S
C933 H941 0.960 . S
C934 C932 1.381 . S
C934 C935 1.394 . S
C934 H942 0.930 . S
C935 C934 1.394 . S
C935 C936 1.383 . S
C935 H943 0.929 . S
C936 C935 1.383 . S
C936 C937 1.377 . S
C937 H921 0.930 . S
C937 C936 1.377 . S
C937 C938 1.379 . S
C938 H922 0.931 1_655 S
C938 C932 1.383 . S
C938 C937 1.379 . S
H939 C933 0.959 . S
H940 C933 0.961 . S
H941 C933 0.960 . S
H942 C934 0.930 . S
H943 C935 0.929 . S
H944 C952 0.929 . S
H945 C954 0.930 . S
H946 C956 0.930 . S
H947 C959 0.929 . S
H948 C962 0.930 . S
H949 C964 0.960 . S
H950 C964 0.960 . S
H951 C964 0.960 . S
C952 H944 0.929 . S
C952 C953 1.377 . S
C952 C954 1.384 . S
C953 C952 1.377 . S
C953 C959 1.390 . S
C954 H945 0.930 . S
C954 C952 1.384 . S
C954 C955 1.372 . S
C955 C954 1.372 . S
C955 C956 1.400 . S
C955 C960 1.490 . S
C956 H946 0.930 . S
C956 C955 1.400 . S
C956 C959 1.386 . S
H957 C973 0.930 . S
H958 C974 0.931 . S
C959 H947 0.929 . S
C959 C953 1.390 . S
C959 C956 1.386 . S
C960 C955 1.490 . S
C960 C962 1.395 1_455 S
C960 C963 1.403 . S
H961 C967 0.930 . S
C962 H948 0.930 . S
C962 C960 1.395 1_655 S
C962 C965 1.403 . S
C963 C960 1.403 . S
C963 C964 1.524 . S
C963 C967 1.400 . S
C964 H949 0.960 . S
C964 H950 0.960 . S
C964 H951 0.960 . S
C964 C963 1.524 . S
C965 C962 1.403 . S
C965 C966 1.392 . S
C965 C969 1.495 . S
C966 C965 1.392 . S
C966 C967 1.385 1_655 S
C966 C968 1.478 . S
C967 H961 0.930 . S
C967 C963 1.400 . S
C967 C966 1.385 1_455 S
C968 C966 1.478 . S
C968 C970 1.381 . S
C968 C974 1.383 . S
C969 C965 1.495 . S
C969 H975 0.959 . S
C969 H976 0.961 . S
C969 H977 0.960 . S
C970 C968 1.381 . S
C970 C971 1.394 . S
C970 H978 0.930 . S
C971 C970 1.394 . S
C971 C972 1.383 . S
C971 H979 0.929 . S
C972 C971 1.383 . S
C972 C973 1.377 . S
C973 H957 0.930 . S
C973 C972 1.377 . S
C973 C974 1.379 . S
C974 H958 0.931 . S
C974 C968 1.383 . S
C974 C973 1.379 . S
H975 C969 0.959 . S
H976 C969 0.961 . S
H977 C969 0.960 . S
H978 C970 0.930 . S
H979 C971 0.929 . S
H980 C988 0.929 . S
H981 C990 0.930 . S
H982 C992 0.930 . S
H983 C995 0.929 . S
H984 C998 0.930 . S
H985 C1000 0.960 . S
H986 C1000 0.960 . S
H987 C1000 0.960 . S
C988 H980 0.929 . S
C988 C989 1.377 . S
C988 C990 1.384 . S
C989 C988 1.377 . S
C989 C995 1.390 . S
C990 H981 0.930 . S
C990 C988 1.384 . S
C990 C991 1.372 . S
C991 C990 1.372 . S
C991 C992 1.400 . S
C991 C996 1.490 . S
C992 H982 0.930 . S
C992 C991 1.400 . S
C992 C995 1.386 . S
H993 C1009 0.930 . S
H994 C1010 0.931 . S
C995 H983 0.929 . S
C995 C989 1.390 . S
C995 C992 1.386 . S
C996 C991 1.490 . S
C996 C998 1.395 . S
C996 C999 1.403 . S
H997 C1003 0.930 . S
C998 H984 0.930 . S
C998 C996 1.395 . S
C998 C1001 1.403 . S
C999 C996 1.403 . S
C999 C1000 1.524 . S
C999 C1003 1.400 . S
C1000 H985 0.960 . S
C1000 H986 0.960 . S
C1000 H987 0.960 . S
C1000 C999 1.524 . S
C1001 C998 1.403 . S
C1001 C1002 1.392 . S
C1001 C1005 1.495 . S
C1002 C1001 1.392 . S
C1002 C1003 1.385 . S
C1002 C1004 1.478 . S
C1003 H997 0.930 . S
C1003 C999 1.400 . S
C1003 C1002 1.385 . S
C1004 C1002 1.478 . S
C1004 C1006 1.381 . S
C1004 C1010 1.383 . S
C1005 C1001 1.495 . S
C1005 H1011 0.959 . S
C1005 H1012 0.961 . S
C1005 H1013 0.960 . S
C1006 C1004 1.381 . S
C1006 C1007 1.394 . S
C1006 H1014 0.930 . S
C1007 C1006 1.394 . S
C1007 C1008 1.383 . S
C1007 H1015 0.929 . S
C1008 C1007 1.383 . S
C1008 C1009 1.377 . S
C1009 H993 0.930 . S
C1009 C1008 1.377 . S
C1009 C1010 1.379 . S
C1010 H994 0.931 . S
C1010 C1004 1.383 . S
C1010 C1009 1.379 . S
H1011 C1005 0.959 . S
H1012 C1005 0.961 . S
H1013 C1005 0.960 . S
H1014 C1006 0.930 . S
H1015 C1007 0.929 . S
H1016 C1024 0.929 . S
H1017 C1026 0.930 . S
H1018 C1028 0.930 . S
H1019 C1031 0.929 . S
H1020 C1034 0.930 . S
H1021 C1036 0.960 . S
H1022 C1036 0.960 . S
H1023 C1036 0.960 . S
C1024 H1016 0.929 . S
C1024 C1025 1.377 . S
C1024 C1026 1.384 . S
C1025 C1024 1.377 . S
C1025 C1031 1.390 . S
C1026 H1017 0.930 . S
C1026 C1024 1.384 . S
C1026 C1027 1.372 . S
C1027 C1026 1.372 . S
C1027 C1028 1.400 . S
C1027 C1032 1.490 . S
C1028 H1018 0.930 . S
C1028 C1027 1.400 . S
C1028 C1031 1.386 . S
H1029 C1045 0.930 . S
H1030 C1046 0.931 . S
C1031 H1019 0.929 . S
C1031 C1025 1.390 . S
C1031 C1028 1.386 . S
C1032 C1027 1.490 . S
C1032 C1034 1.395 . S
C1032 C1035 1.403 . S
H1033 C1039 0.930 . S
C1034 H1020 0.930 . S
C1034 C1032 1.395 . S
C1034 C1037 1.403 . S
C1035 C1032 1.403 . S
C1035 C1036 1.524 . S
C1035 C1039 1.400 . S
C1036 H1021 0.960 . S
C1036 H1022 0.960 . S
C1036 H1023 0.960 . S
C1036 C1035 1.524 . S
C1037 C1034 1.403 . S
C1037 C1038 1.392 . S
C1037 C1041 1.495 . S
C1038 C1037 1.392 . S
C1038 C1039 1.385 . S
C1038 C1040 1.478 . S
C1039 H1033 0.930 . S
C1039 C1035 1.400 . S
C1039 C1038 1.385 . S
C1040 C1038 1.478 . S
C1040 C1042 1.381 . S
C1040 C1046 1.383 . S
C1041 C1037 1.495 . S
C1041 H1047 0.959 . S
C1041 H1048 0.961 . S
C1041 H1049 0.960 . S
C1042 C1040 1.381 . S
C1042 C1043 1.394 . S
C1042 H1050 0.930 . S
C1043 C1042 1.394 . S
C1043 C1044 1.383 . S
C1043 H1051 0.929 . S
C1044 C1043 1.383 . S
C1044 C1045 1.377 . S
C1045 H1029 0.930 . S
C1045 C1044 1.377 . S
C1045 C1046 1.379 . S
C1046 H1030 0.931 . S
C1046 C1040 1.383 . S
C1046 C1045 1.379 . S
H1047 C1041 0.959 . S
H1048 C1041 0.961 . S
H1049 C1041 0.960 . S
H1050 C1042 0.930 . S
H1051 C1043 0.929 . S
H1052 C1060 0.932 1_655 S
H1053 C1062 0.930 1_655 S
H1054 C1064 0.930 . S
H1055 C1067 0.929 . S
H1056 C1070 0.930 . S
H1057 C1072 0.960 . S
H1058 C1072 0.960 . S
H1059 C1072 0.960 . S
C1060 H1052 0.932 1_455 S
C1060 C1061 1.377 . S
C1060 C1062 1.384 . S
C1061 C1060 1.377 . S
C1061 C1067 1.390 . S
C1062 H1053 0.930 1_455 S
C1062 C1060 1.384 . S
C1062 C1063 1.372 . S
C1063 C1062 1.372 . S
C1063 C1064 1.400 . S
C1063 C1068 1.490 . S
C1064 H1054 0.930 . S
C1064 C1063 1.400 . S
C1064 C1067 1.386 . S
H1065 C1081 0.930 . S
H1066 C1082 0.931 1_455 S
C1067 H1055 0.929 . S
C1067 C1061 1.390 . S
C1067 C1064 1.386 . S
C1068 C1063 1.490 . S
C1068 C1070 1.395 1_455 S
C1068 C1071 1.403 . S
H1069 C1075 0.930 . S
C1070 H1056 0.930 . S
C1070 C1068 1.395 1_655 S
C1070 C1073 1.403 . S
C1071 C1068 1.403 . S
C1071 C1072 1.524 . S
C1071 C1075 1.400 . S
C1072 H1057 0.960 . S
C1072 H1058 0.960 . S
C1072 H1059 0.960 . S
C1072 C1071 1.524 . S
C1073 C1070 1.403 . S
C1073 C1074 1.392 . S
C1073 C1077 1.495 . S
C1074 C1073 1.392 . S
C1074 C1075 1.385 1_655 S
C1074 C1076 1.478 . S
C1075 H1069 0.930 . S
C1075 C1071 1.400 . S
C1075 C1074 1.385 1_455 S
C1076 C1074 1.478 . S
C1076 C1078 1.381 . S
C1076 C1082 1.383 . S
C1077 C1073 1.495 . S
C1077 H1083 0.959 . S
C1077 H1084 0.961 . S
C1077 H1085 0.960 . S
C1078 C1076 1.381 . S
C1078 C1079 1.394 . S
C1078 H1086 0.930 . S
C1079 C1078 1.394 . S
C1079 C1080 1.383 . S
C1079 H1087 0.929 . S
C1080 C1079 1.383 . S
C1080 C1081 1.377 . S
C1081 H1065 0.930 . S
C1081 C1080 1.377 . S
C1081 C1082 1.379 . S
C1082 H1066 0.931 1_655 S
C1082 C1076 1.383 . S
C1082 C1081 1.379 . S
H1083 C1077 0.959 . S
H1084 C1077 0.961 . S
H1085 C1077 0.960 . S
H1086 C1078 0.930 . S
H1087 C1079 0.929 . S
H1088 C1096 0.941 . S
H1089 C1098 0.930 1_545 S
H1090 C1100 0.930 . S
H1091 C1103 0.929 . S
H1092 C1106 0.930 . S
H1093 C1108 0.960 . S
H1094 C1108 0.960 . S
H1095 C1108 0.960 . S
C1096 H1088 0.941 . S
C1096 C1097 1.377 . S
C1096 C1098 1.384 . S
C1097 C1096 1.377 . S
C1097 C1103 1.390 . S
C1098 H1089 0.930 1_565 S
C1098 C1096 1.384 . S
C1098 C1099 1.372 . S
C1099 C1098 1.372 . S
C1099 C1100 1.400 . S
C1099 C1104 1.490 . S
C1100 H1090 0.930 . S
C1100 C1099 1.400 . S
C1100 C1103 1.386 . S
H1101 C1117 0.930 . S
H1102 C1118 0.931 1_565 S
C1103 H1091 0.929 . S
C1103 C1097 1.390 . S
C1103 C1100 1.386 . S
C1104 C1099 1.490 . S
C1104 C1106 1.395 1_565 S
C1104 C1107 1.403 1_655 S
H1105 C1111 0.930 . S
C1106 H1092 0.930 . S
C1106 C1104 1.395 1_545 S
C1106 C1109 1.403 1_556 S
C1107 C1104 1.403 1_455 S
C1107 C1108 1.524 . S
C1107 C1111 1.400 1_556 S
C1108 H1093 0.960 . S
C1108 H1094 0.960 . S
C1108 H1095 0.960 . S
C1108 C1107 1.524 . S
C1109 C1106 1.403 1_554 S
C1109 C1110 1.392 1_655 S
C1109 C1113 1.495 . S
C1110 C1109 1.392 1_455 S
C1110 C1111 1.385 1_545 S
C1110 C1112 1.478 . S
C1111 H1105 0.930 . S
C1111 C1107 1.400 1_554 S
C1111 C1110 1.385 1_565 S
C1112 C1110 1.478 . S
C1112 C1114 1.381 . S
C1112 C1118 1.383 . S
C1113 C1109 1.495 . S
C1113 H1119 0.959 . S
C1113 H1120 0.961 . S
C1113 H1121 0.960 . S
C1114 C1112 1.381 . S
C1114 C1115 1.394 . S
C1114 H1122 0.930 . S
C1115 C1114 1.394 . S
C1115 C1116 1.383 . S
C1115 H1123 0.929 . S
C1116 C1115 1.383 . S
C1116 C1117 1.377 . S
C1117 H1101 0.930 . S
C1117 C1116 1.377 . S
C1117 C1118 1.379 . S
C1118 H1102 0.931 1_545 S
C1118 C1112 1.383 . S
C1118 C1117 1.379 . S
H1119 C1113 0.959 . S
H1120 C1113 0.961 . S
H1121 C1113 0.960 . S
H1122 C1114 0.930 . S
H1123 C1115 0.929 . S
H1124 C1132 0.929 . S
H1125 C1134 0.930 1_565 S
H1126 C1136 0.930 . S
H1127 C1139 0.929 . S
H1128 C1142 0.930 . S
H1129 C1144 0.950 1_565 S
H1130 C1144 0.960 1_565 S
H1131 C1144 0.960 . S
C1132 H1124 0.929 . S
C1132 C1133 1.377 . S
C1132 C1134 1.384 . S
C1133 C1132 1.377 . S
C1133 C1139 1.390 . S
C1134 H1125 0.930 1_545 S
C1134 C1132 1.384 . S
C1134 C1135 1.372 . S
C1135 C1134 1.372 . S
C1135 C1136 1.400 . S
C1135 C1140 1.490 . S
C1136 H1126 0.930 . S
C1136 C1135 1.400 . S
C1136 C1139 1.386 . S
H1137 C1153 0.930 . S
H1138 C1154 0.931 1_545 S
C1139 H1127 0.929 . S
C1139 C1133 1.390 . S
C1139 C1136 1.386 . S
C1140 C1135 1.490 . S
C1140 C1142 1.395 . S
C1140 C1143 1.403 . S
H1141 C1147 0.930 . S
C1142 H1128 0.930 . S
C1142 C1140 1.395 . S
C1142 C1145 1.403 1_546 S
C1143 C1140 1.403 . S
C1143 C1144 1.524 . S
C1143 C1147 1.400 1_546 S
C1144 H1129 0.950 1_545 S
C1144 H1130 0.960 1_545 S
C1144 H1131 0.960 . S
C1144 C1143 1.524 . S
C1145 C1142 1.403 1_564 S
C1145 C1146 1.392 . S
C1145 C1149 1.495 . S
C1146 C1145 1.392 . S
C1146 C1147 1.385 . S
C1146 C1148 1.478 . S
C1147 H1141 0.930 . S
C1147 C1143 1.400 1_564 S
C1147 C1146 1.385 . S
C1148 C1146 1.478 . S
C1148 C1150 1.381 . S
C1148 C1154 1.383 . S
C1149 C1145 1.495 . S
C1149 H1155 0.959 . S
C1149 H1156 0.961 1_565 S
C1149 H1157 0.960 . S
C1150 C1148 1.381 . S
C1150 C1151 1.394 . S
C1150 H1158 0.930 . S
C1151 C1150 1.394 . S
C1151 C1152 1.383 . S
C1151 H1159 0.929 . S
C1152 C1151 1.383 . S
C1152 C1153 1.377 . S
C1153 H1137 0.930 . S
C1153 C1152 1.377 . S
C1153 C1154 1.379 . S
C1154 H1138 0.931 1_565 S
C1154 C1148 1.383 . S
C1154 C1153 1.379 . S
H1155 C1149 0.959 . S
H1156 C1149 0.961 1_545 S
H1157 C1149 0.960 . S
H1158 C1150 0.930 . S
H1159 C1151 0.929 . S
H1160 C1168 0.929 . S
H1161 C1170 0.930 . S
H1162 C1172 0.930 . S
H1163 C1175 0.929 . S
H1164 C1178 0.930 . S
H1165 C1180 0.960 . S
H1166 C1180 0.960 . S
H1167 C1180 0.960 . S
C1168 H1160 0.929 . S
C1168 C1169 1.377 . S
C1168 C1170 1.384 . S
C1169 C1168 1.377 . S
C1169 C1175 1.390 . S
C1170 H1161 0.930 . S
C1170 C1168 1.384 . S
C1170 C1171 1.372 . S
C1171 C1170 1.372 . S
C1171 C1172 1.400 . S
C1171 C1176 1.490 . S
C1172 H1162 0.930 . S
C1172 C1171 1.400 . S
C1172 C1175 1.386 . S
H1173 C1189 0.930 . S
H1174 C1190 0.931 . S
C1175 H1163 0.929 . S
C1175 C1169 1.390 . S
C1175 C1172 1.386 . S
C1176 C1171 1.490 . S
C1176 C1178 1.395 1_545 S
C1176 C1179 1.403 . S
H1177 C1183 0.930 . S
C1178 H1164 0.930 . S
C1178 C1176 1.395 1_565 S
C1178 C1181 1.403 . S
C1179 C1176 1.403 . S
C1179 C1180 1.524 . S
C1179 C1183 1.400 . S
C1180 H1165 0.960 . S
C1180 H1166 0.960 . S
C1180 H1167 0.960 . S
C1180 C1179 1.524 . S
C1181 C1178 1.403 . S
C1181 C1182 1.392 . S
C1181 C1185 1.495 . S
C1182 C1181 1.392 . S
C1182 C1183 1.385 1_565 S
C1182 C1184 1.478 . S
C1183 H1177 0.930 . S
C1183 C1179 1.400 . S
C1183 C1182 1.385 1_545 S
C1184 C1182 1.478 . S
C1184 C1186 1.381 . S
C1184 C1190 1.383 . S
C1185 C1181 1.495 . S
C1185 H1191 0.959 . S
C1185 H1192 0.961 . S
C1185 H1193 0.960 . S
C1186 C1184 1.381 . S
C1186 C1187 1.394 . S
C1186 H1194 0.930 . S
C1187 C1186 1.394 . S
C1187 C1188 1.383 . S
C1187 H1195 0.929 . S
C1188 C1187 1.383 . S
C1188 C1189 1.377 . S
C1189 H1173 0.930 . S
C1189 C1188 1.377 . S
C1189 C1190 1.379 . S
C1190 H1174 0.931 . S
C1190 C1184 1.383 . S
C1190 C1189 1.379 . S
H1191 C1185 0.959 . S
H1192 C1185 0.961 . S
H1193 C1185 0.960 . S
H1194 C1186 0.930 . S
H1195 C1187 0.929 . S
H1196 C1204 0.942 . S
H1197 C1206 0.930 1_545 S
H1198 C1208 0.930 . S
H1199 C1211 0.929 . S
H1200 C1214 0.930 . S
H1201 C1216 0.960 . S
H1202 C1216 0.960 . S
H1203 C1216 0.960 . S
C1204 H1196 0.942 . S
C1204 C1205 1.377 . S
C1204 C1206 1.384 . S
C1205 C1204 1.377 . S
C1205 C1211 1.390 . S
C1206 H1197 0.930 1_565 S
C1206 C1204 1.384 . S
C1206 C1207 1.372 . S
C1207 C1206 1.372 . S
C1207 C1208 1.400 . S
C1207 C1212 1.490 . S
C1208 H1198 0.930 . S
C1208 C1207 1.400 . S
C1208 C1211 1.386 . S
H1209 C1225 0.930 . S
H1210 C1226 0.931 1_565 S
C1211 H1199 0.929 . S
C1211 C1205 1.390 . S
C1211 C1208 1.386 . S
C1212 C1207 1.490 . S
C1212 C1214 1.395 1_565 S
C1212 C1215 1.403 1_455 S
H1213 C1219 0.930 . S
C1214 H1200 0.930 . S
C1214 C1212 1.395 1_545 S
C1214 C1217 1.403 . S
C1215 C1212 1.403 1_655 S
C1215 C1216 1.524 . S
C1215 C1219 1.400 . S
C1216 H1201 0.960 . S
C1216 H1202 0.960 . S
C1216 H1203 0.960 . S
C1216 C1215 1.524 . S
C1217 C1214 1.403 . S
C1217 C1218 1.392 1_455 S
C1217 C1221 1.495 . S
C1218 C1217 1.392 1_655 S
C1218 C1219 1.385 1_545 S
C1218 C1220 1.478 . S
C1219 H1213 0.930 . S
C1219 C1215 1.400 . S
C1219 C1218 1.385 1_565 S
C1220 C1218 1.478 . S
C1220 C1222 1.381 . S
C1220 C1226 1.383 . S
C1221 C1217 1.495 . S
C1221 H1227 0.959 . S
C1221 H1228 0.961 . S
C1221 H1229 0.960 . S
C1222 C1220 1.381 . S
C1222 C1223 1.394 . S
C1222 H1230 0.930 . S
C1223 C1222 1.394 . S
C1223 C1224 1.383 . S
C1223 H1231 0.929 . S
C1224 C1223 1.383 . S
C1224 C1225 1.377 . S
C1225 H1209 0.930 . S
C1225 C1224 1.377 . S
C1225 C1226 1.379 . S
C1226 H1210 0.931 1_545 S
C1226 C1220 1.383 . S
C1226 C1225 1.379 . S
H1227 C1221 0.959 . S
H1228 C1221 0.961 . S
H1229 C1221 0.960 . S
H1230 C1222 0.930 . S
H1231 C1223 0.929 . S
H1232 C1240 0.929 . S
H1233 C1242 0.930 . S
H1234 C1244 0.930 . S
H1235 C1247 0.929 . S
H1236 C1250 0.930 . S
H1237 C1252 0.960 1_556 S
H1238 C1252 0.960 . S
H1239 C1252 0.960 . S
C1240 H1232 0.929 . S
C1240 C1241 1.377 . S
C1240 C1242 1.384 . S
C1241 C1240 1.377 . S
C1241 C1247 1.390 . S
C1242 H1233 0.930 . S
C1242 C1240 1.384 . S
C1242 C1243 1.372 . S
C1243 C1242 1.372 . S
C1243 C1244 1.400 . S
C1243 C1248 1.490 . S
C1244 H1234 0.930 . S
C1244 C1243 1.400 . S
C1244 C1247 1.386 . S
H1245 C1261 0.930 . S
H1246 C1262 0.931 . S
C1247 H1235 0.929 . S
C1247 C1241 1.390 . S
C1247 C1244 1.386 . S
C1248 C1243 1.490 . S
C1248 C1250 1.395 . S
C1248 C1251 1.403 . S
H1249 C1255 0.930 . S
C1250 H1236 0.930 . S
C1250 C1248 1.395 . S
C1250 C1253 1.403 1_554 S
C1251 C1248 1.403 . S
C1251 C1252 1.524 . S
C1251 C1255 1.400 1_554 S
C1252 H1237 0.960 1_554 S
C1252 H1238 0.960 . S
C1252 H1239 0.960 . S
C1252 C1251 1.524 . S
C1253 C1250 1.403 1_556 S
C1253 C1254 1.392 . S
C1253 C1257 1.495 . S
C1254 C1253 1.392 . S
C1254 C1255 1.385 . S
C1254 C1256 1.478 . S
C1255 H1249 0.930 . S
C1255 C1251 1.400 1_556 S
C1255 C1254 1.385 . S
C1256 C1254 1.478 . S
C1256 C1258 1.381 . S
C1256 C1262 1.383 . S
C1257 C1253 1.495 . S
C1257 H1263 0.959 1_556 S
C1257 H1264 0.961 . S
C1257 H1265 0.960 . S
C1258 C1256 1.381 . S
C1258 C1259 1.394 . S
C1258 H1266 0.930 . S
C1259 C1258 1.394 . S
C1259 C1260 1.383 . S
C1259 H1267 0.929 . S
C1260 C1259 1.383 . S
C1260 C1261 1.377 . S
C1261 H1245 0.930 . S
C1261 C1260 1.377 . S
C1261 C1262 1.379 . S
C1262 H1246 0.931 . S
C1262 C1256 1.383 . S
C1262 C1261 1.379 . S
H1263 C1257 0.959 1_554 S
H1264 C1257 0.961 . S
H1265 C1257 0.960 . S
H1266 C1258 0.930 . S
H1267 C1259 0.929 . S
H1268 C1276 0.929 . S
H1269 C1278 0.930 . S
H1270 C1280 0.930 . S
H1271 C1283 0.929 . S
H1272 C1286 0.930 . S
H1273 C1288 0.960 . S
H1274 C1288 0.960 . S
H1275 C1288 0.960 . S
C1276 H1268 0.929 . S
C1276 C1277 1.377 . S
C1276 C1278 1.384 . S
C1277 C1276 1.377 . S
C1277 C1283 1.390 . S
C1278 H1269 0.930 . S
C1278 C1276 1.384 . S
C1278 C1279 1.372 . S
C1279 C1278 1.372 . S
C1279 C1280 1.400 . S
C1279 C1284 1.490 . S
C1280 H1270 0.930 . S
C1280 C1279 1.400 . S
C1280 C1283 1.386 . S
H1281 C1297 0.930 . S
H1282 C1298 0.931 . S
C1283 H1271 0.929 . S
C1283 C1277 1.390 . S
C1283 C1280 1.386 . S
C1284 C1279 1.490 . S
C1284 C1286 1.395 . S
C1284 C1287 1.403 1_655 S
H1285 C1291 0.930 . S
C1286 H1272 0.930 . S
C1286 C1284 1.395 . S
C1286 C1289 1.403 1_554 S
C1287 C1284 1.403 1_455 S
C1287 C1288 1.524 . S
C1287 C1291 1.400 1_554 S
C1288 H1273 0.960 . S
C1288 H1274 0.960 . S
C1288 H1275 0.960 . S
C1288 C1287 1.524 . S
C1289 C1286 1.403 1_556 S
C1289 C1290 1.392 1_655 S
C1289 C1293 1.495 . S
C1290 C1289 1.392 1_455 S
C1290 C1291 1.385 . S
C1290 C1292 1.478 . S
C1291 H1285 0.930 . S
C1291 C1287 1.400 1_556 S
C1291 C1290 1.385 . S
C1292 C1290 1.478 . S
C1292 C1294 1.381 . S
C1292 C1298 1.383 . S
C1293 C1289 1.495 . S
C1293 H1299 0.959 . S
C1293 H1300 0.961 . S
C1293 H1301 0.960 . S
C1294 C1292 1.381 . S
C1294 C1295 1.394 . S
C1294 H1302 0.930 . S
C1295 C1294 1.394 . S
C1295 C1296 1.383 . S
C1295 H1303 0.929 . S
C1296 C1295 1.383 . S
C1296 C1297 1.377 . S
C1297 H1281 0.930 . S
C1297 C1296 1.377 . S
C1297 C1298 1.379 . S
C1298 H1282 0.931 . S
C1298 C1292 1.383 . S
C1298 C1297 1.379 . S
H1299 C1293 0.959 . S
H1300 C1293 0.961 . S
H1301 C1293 0.960 . S
H1302 C1294 0.930 . S
H1303 C1295 0.929 . S
H1304 C1312 0.929 . S
H1305 C1314 0.930 1_455 S
H1306 C1316 0.930 . S
H1307 C1319 0.929 . S
H1308 C1322 0.930 . S
H1309 C1324 0.960 . S
H1310 C1324 0.960 . S
H1311 C1324 0.960 . S
C1312 H1304 0.929 . S
C1312 C1313 1.377 . S
C1312 C1314 1.384 . S
C1313 C1312 1.377 . S
C1313 C1319 1.390 . S
C1314 H1305 0.930 1_655 S
C1314 C1312 1.384 . S
C1314 C1315 1.372 . S
C1315 C1314 1.372 . S
C1315 C1316 1.400 . S
C1315 C1320 1.490 . S
C1316 H1306 0.930 . S
C1316 C1315 1.400 . S
C1316 C1319 1.386 . S
H1317 C1333 0.930 . S
H1318 C1334 0.931 . S
C1319 H1307 0.929 . S
C1319 C1313 1.390 . S
C1319 C1316 1.386 . S
C1320 C1315 1.490 . S
C1320 C1322 1.395 1_655 S
C1320 C1323 1.403 . S
H1321 C1327 0.930 . S
C1322 H1308 0.930 . S
C1322 C1320 1.395 1_455 S
C1322 C1325 1.403 . S
C1323 C1320 1.403 . S
C1323 C1324 1.524 . S
C1323 C1327 1.400 . S
C1324 H1309 0.960 . S
C1324 H1310 0.960 . S
C1324 H1311 0.960 . S
C1324 C1323 1.524 . S
C1325 C1322 1.403 . S
C1325 C1326 1.392 . S
C1325 C1329 1.495 . S
C1326 C1325 1.392 . S
C1326 C1327 1.385 1_455 S
C1326 C1328 1.478 . S
C1327 H1321 0.930 . S
C1327 C1323 1.400 . S
C1327 C1326 1.385 1_655 S
C1328 C1326 1.478 . S
C1328 C1330 1.381 . S
C1328 C1334 1.383 . S
C1329 C1325 1.495 . S
C1329 H1335 0.959 . S
C1329 H1336 0.961 . S
C1329 H1337 0.960 . S
C1330 C1328 1.381 . S
C1330 C1331 1.394 . S
C1330 H1338 0.930 . S
C1331 C1330 1.394 . S
C1331 C1332 1.383 . S
C1331 H1339 0.929 . S
C1332 C1331 1.383 . S
C1332 C1333 1.377 . S
C1333 H1317 0.930 . S
C1333 C1332 1.377 . S
C1333 C1334 1.379 . S
C1334 H1318 0.931 . S
C1334 C1328 1.383 . S
C1334 C1333 1.379 . S
H1335 C1329 0.959 . S
H1336 C1329 0.961 . S
H1337 C1329 0.960 . S
H1338 C1330 0.930 . S
H1339 C1331 0.929 . S
H1340 C1348 0.929 . S
H1341 C1350 0.930 . S
H1342 C1352 0.930 . S
H1343 C1355 0.929 . S
H1344 C1358 0.930 . S
H1345 C1360 0.960 . S
H1346 C1360 0.960 . S
H1347 C1360 0.960 . S
C1348 H1340 0.929 . S
C1348 C1349 1.377 . S
C1348 C1350 1.384 . S
C1349 C1348 1.377 . S
C1349 C1355 1.390 . S
C1350 H1341 0.930 . S
C1350 C1348 1.384 . S
C1350 C1351 1.372 . S
C1351 C1350 1.372 . S
C1351 C1352 1.400 . S
C1351 C1356 1.490 . S
C1352 H1342 0.930 . S
C1352 C1351 1.400 . S
C1352 C1355 1.386 . S
H1353 C1369 0.930 . S
H1354 C1370 0.931 . S
C1355 H1343 0.929 . S
C1355 C1349 1.390 . S
C1355 C1352 1.386 . S
C1356 C1351 1.490 . S
C1356 C1358 1.395 . S
C1356 C1359 1.403 . S
H1357 C1363 0.930 . S
C1358 H1344 0.930 . S
C1358 C1356 1.395 . S
C1358 C1361 1.403 . S
C1359 C1356 1.403 . S
C1359 C1360 1.524 . S
C1359 C1363 1.400 . S
C1360 H1345 0.960 . S
C1360 H1346 0.960 . S
C1360 H1347 0.960 . S
C1360 C1359 1.524 . S
C1361 C1358 1.403 . S
C1361 C1362 1.392 . S
C1361 C1365 1.495 . S
C1362 C1361 1.392 . S
C1362 C1363 1.385 . S
C1362 C1364 1.478 . S
C1363 H1357 0.930 . S
C1363 C1359 1.400 . S
C1363 C1362 1.385 . S
C1364 C1362 1.478 . S
C1364 C1366 1.381 . S
C1364 C1370 1.383 . S
C1365 C1361 1.495 . S
C1365 H1371 0.959 . S
C1365 H1372 0.961 . S
C1365 H1373 0.960 . S
C1366 C1364 1.381 . S
C1366 C1367 1.394 . S
C1366 H1374 0.930 . S
C1367 C1366 1.394 . S
C1367 C1368 1.383 . S
C1367 H1375 0.929 . S
C1368 C1367 1.383 . S
C1368 C1369 1.377 . S
C1369 H1353 0.930 . S
C1369 C1368 1.377 . S
C1369 C1370 1.379 . S
C1370 H1354 0.931 . S
C1370 C1364 1.383 . S
C1370 C1369 1.379 . S
H1371 C1365 0.959 . S
H1372 C1365 0.961 . S
H1373 C1365 0.960 . S
H1374 C1366 0.930 . S
H1375 C1367 0.929 . S
C233 C25 1.502 . S
C252 C11 1.491 . S
C269 C39 1.501 . S
C288 C53 1.489 . S
C305 C67 1.499 . S
C324 C81 1.491 . S
C341 C109 1.502 . S
C360 C95 1.503 . S
C377 C137 1.502 . S
C396 C123 1.491 . S
C413 C165 1.500 . S
C432 C151 1.504 . S
C449 C193 1.499 . S
C468 C179 1.489 . S
C485 C221 1.498 . S
C504 C207 1.488 . S
C521 C42 1.352 . S
C540 C0 1.359 . S
C557 C14 1.357 . S
C576 C28 1.336 . S
C593 C98 1.357 . S
C612 C56 1.361 . S
C629 C84 1.351 . S
C648 C70 1.344 . S
C665 C112 1.353 . S
C684 C154 1.351 . S
C701 C140 1.353 . S
C720 C126 1.350 . S
C737 C210 1.352 . S
C756 C168 1.336 . S
C773 C182 1.357 . S
C792 C196 1.366 . S
C809 C5 1.496 . S
C828 C131 1.496 . S
C845 C19 1.496 . S
C864 C117 1.487 . S
C881 C159 1.495 . S
C900 C33 1.497 . S
C917 C145 1.496 . S
C936 C47 1.490 . S
C953 C187 1.494 . S
C972 C61 1.493 . S
C989 C173 1.496 . S
C1008 C75 1.491 . S
C1025 C89 1.494 . S
C1044 C215 1.496 . S
C1061 C103 1.494 . S
C1080 C201 1.496 . S
C1097 C65 1.292 . S
C1116 C9 1.297 . S
C1133 C79 1.291 . S
C1152 C23 1.300 . S
C1169 C93 1.290 . S
C1188 C37 1.276 . S
C1205 C107 1.292 . S
C1224 C51 1.297 . S
C1241 C121 1.289 . S
C1260 C177 1.275 . S
C1277 C135 1.291 . S
C1296 C191 1.300 . S
C1313 C205 1.288 . S
C1332 C149 1.274 . S
C1349 C219 1.288 . S
C1368 C163 1.274 . S
