# Generated by pormake.
# Topology cds-f, (5)-cn, num edge types: 1
# Building blocks:
#     Node 0, Type 0, BuildingBlock: XOMCOT_clean_sbu_0, # of connection points: 5
#     Node 1, Type 0, BuildingBlock: XOMCOT_clean_sbu_0, # of connection points: 5
#     Node 2, Type 0, BuildingBlock: XOMCOT_clean_sbu_0, # of connection points: 5
#     Node 3, Type 0, BuildingBlock: XOMCOT_clean_sbu_0, # of connection points: 5
#     Node 4, Type 0, BuildingBlock: XOMCOT_clean_sbu_0, # of connection points: 5
#     Node 5, Type 0, BuildingBlock: XOMCOT_clean_sbu_0, # of connection points: 5
#     Node 6, Type 0, BuildingBlock: XOMCOT_clean_sbu_0, # of connection points: 5
#     Node 7, Type 0, BuildingBlock: XOMCOT_clean_sbu_0, # of connection points: 5
#     Node 8, Type 0, BuildingBlock: XOMCOT_clean_sbu_0, # of connection points: 5
#     Node 9, Type 0, BuildingBlock: XOMCOT_clean_sbu_0, # of connection points: 5
#     Node 10, Type 0, BuildingBlock: XOMCOT_clean_sbu_0, # of connection points: 5
#     Node 11, Type 0, BuildingBlock: XOMCOT_clean_sbu_0, # of connection points: 5
#     Node 12, Type 0, BuildingBlock: XOMCOT_clean_sbu_0, # of connection points: 5
#     Node 13, Type 0, BuildingBlock: XOMCOT_clean_sbu_0, # of connection points: 5
#     Node 14, Type 0, BuildingBlock: XOMCOT_clean_sbu_0, # of connection points: 5
#     Node 15, Type 0, BuildingBlock: XOMCOT_clean_sbu_0, # of connection points: 5
#     Edge 16, Type (0, 0), None
#     Edge 17, Type (0, 0), None
#     Edge 18, Type (0, 0), None
#     Edge 19, Type (0, 0), None
#     Edge 20, Type (0, 0), None
#     Edge 21, Type (0, 0), None
#     Edge 22, Type (0, 0), None
#     Edge 23, Type (0, 0), None
#     Edge 24, Type (0, 0), None
#     Edge 25, Type (0, 0), None
#     Edge 26, Type (0, 0), None
#     Edge 27, Type (0, 0), None
#     Edge 28, Type (0, 0), None
#     Edge 29, Type (0, 0), None
#     Edge 30, Type (0, 0), None
#     Edge 31, Type (0, 0), None
#     Edge 32, Type (0, 0), None
#     Edge 33, Type (0, 0), None
#     Edge 34, Type (0, 0), None
#     Edge 35, Type (0, 0), None
#     Edge 36, Type (0, 0), None
#     Edge 37, Type (0, 0), None
#     Edge 38, Type (0, 0), None
#     Edge 39, Type (0, 0), None
#     Edge 40, Type (0, 0), None
#     Edge 41, Type (0, 0), None
#     Edge 42, Type (0, 0), None
#     Edge 43, Type (0, 0), None
#     Edge 44, Type (0, 0), None
#     Edge 45, Type (0, 0), None
#     Edge 46, Type (0, 0), None
#     Edge 47, Type (0, 0), None
#     Edge 48, Type (0, 0), None
#     Edge 49, Type (0, 0), None
#     Edge 50, Type (0, 0), None
#     Edge 51, Type (0, 0), None
#     Edge 52, Type (0, 0), None
#     Edge 53, Type (0, 0), None
#     Edge 54, Type (0, 0), None
#     Edge 55, Type (0, 0), None
# Relax obj value: 0.249
# Max RMSD: 0.196
# Mean RMSD: 0.192
data_MOF--net-cds-f--node1-XOMCOT_clean_sbu_0--edge1-none
_symmetry_space_group_name_H-M    P1
_symmetry_Int_Tables_number       1
_symmetry_cell_setting            triclinic
loop_
_symmetry_equiv_pos_as_xyz
'x, y, z'
_cell_length_a     19.107691
_cell_length_b     19.13004
_cell_length_c     24.746487
_cell_angle_alpha  89.998832
_cell_angle_beta   90.000601
_cell_angle_gamma 90.871894
loop_
_atom_site_label
_atom_site_type_symbol
_atom_site_fract_x
_atom_site_fract_y
_atom_site_fract_z
_atom_type_partial_charge
Co0 Co 0.25214 0.26654 0.17739 0.0
C1 C 0.09754 0.28102 0.18615 0.0
C2 C 0.12405 0.20437 0.12666 0.0
C3 C 0.05201 0.20813 0.12948 0.0
N4 N 0.15288 0.2508 0.16174 0.0
N5 N 0.03615 0.25629 0.1669 0.0
H6 H 0.10129 0.3197 0.21785 0.0
H7 H 0.15267 0.16995 0.10046 0.0
C8 C 0.29308 0.17399 0.06979 0.0
O9 O 0.3201 0.11188 0.07621 0.0
N10 N 0.35086 0.28216 0.1948 0.0
C11 C 0.37825 0.33771 0.22165 0.0
C12 C 0.4499 0.33036 0.22599 0.0
C13 C 0.40601 0.24132 0.18366 0.0
N14 N 0.46701 0.26979 0.20204 0.0
C15 C 0.21151 0.40596 0.15256 0.0
C16 C 0.32011 0.43344 0.08154 0.0
C17 C 0.27843 0.48831 0.09907 0.0
C18 C 0.22222 0.47375 0.13363 0.0
C19 C 0.30632 0.36566 0.10028 0.0
N20 N 0.2535 0.35286 0.13632 0.0
H21 H 0.17354 0.39812 0.184 0.0
H22 H 0.34227 0.3248 0.08983 0.0
H23 H 0.34833 0.38151 0.23603 0.0
H24 H 0.40167 0.19265 0.16164 0.0
O25 O 0.22821 0.30479 0.24633 0.0
O26 O 0.24874 0.19249 0.23042 0.0
O27 O 0.27697 0.21045 0.1112 0.0
C28 C 0.23339 0.24165 0.26475 0.0
H29 H 1.0145 0.17979 0.10472 0.0
H30 H 0.48653 0.36779 0.24328 0.0
H31 H 0.36585 0.44394 0.05688 0.0
H32 H 0.1911 0.51556 0.15017 0.0
Co33 Co 0.81294 0.27464 0.65447 0.0
C34 C 0.81481 0.43166 0.63973 0.0
C35 C 0.85796 0.40331 0.71628 0.0
C36 C 0.85446 0.47537 0.71396 0.0
N37 N 0.83224 0.37504 0.66994 0.0
N38 N 0.82661 0.49282 0.6661 0.0
H39 H 0.79051 0.4284 0.60031 0.0
H40 H 0.87522 0.3745 0.75117 0.0
C41 C 0.83843 0.20666 0.76581 0.0
O42 O 0.86252 0.24866 0.72871 0.0
N43 N 0.79386 0.17682 0.63756 0.0
C44 C 0.73763 0.1506 0.61081 0.0
C45 C 0.74354 0.07911 0.60671 0.0
C46 C 0.83394 0.12137 0.64841 0.0
N47 N 0.80414 0.06132 0.63037 0.0
C48 C 0.67757 0.33007 0.66361 0.0
C49 C 0.61817 0.21807 0.71842 0.0
C50 C 0.57572 0.26795 0.69485 0.0
C51 C 0.60562 0.32505 0.6682 0.0
C52 C 0.69036 0.225 0.71271 0.0
N53 N 0.71972 0.28042 0.68519 0.0
H54 H 0.69794 0.36988 0.63737 0.0
H55 H 0.72111 0.18136 0.72534 0.0
H56 H 0.6936 0.18099 0.59786 0.0
H57 H 0.88283 0.12467 0.67031 0.0
O58 O 0.78737 0.2967 0.58185 0.0
O59 O 0.89428 0.26882 0.60759 0.0
O60 O 0.85961 0.24777 0.72758 0.0
C61 C 0.8507 0.28115 0.56823 0.0
H62 H 0.86693 0.51159 0.74628 0.0
H63 H 0.70461 0.04293 0.59081 0.0
H64 H 0.5958 0.17251 0.73835 0.0
H65 H 0.57335 0.36314 0.64795 0.0
Co66 Co 0.80278 0.78531 0.17739 0.0
C67 C 0.95738 0.77083 0.18615 0.0
C68 C 0.93087 0.84748 0.12665 0.0
C69 C 1.00292 0.84372 0.12948 0.0
N70 N 0.90204 0.80105 0.16174 0.0
N71 N 1.01878 0.79556 0.1669 0.0
H72 H 0.95363 0.73215 0.21785 0.0
H73 H 0.90225 0.8819 0.10046 0.0
C74 C 0.76183 0.87786 0.06979 0.0
O75 O 0.73483 0.93998 0.07622 0.0
N76 N 0.70407 0.76969 0.1948 0.0
C77 C 0.67668 0.71414 0.22166 0.0
C78 C 0.60503 0.7215 0.22599 0.0
C79 C 0.64891 0.81053 0.18366 0.0
N80 N 0.58791 0.78206 0.20204 0.0
C81 C 0.84341 0.64589 0.15256 0.0
C82 C 0.73481 0.61841 0.08154 0.0
C83 C 0.77649 0.56354 0.09907 0.0
C84 C 0.83271 0.5781 0.13364 0.0
C85 C 0.7486 0.68619 0.10028 0.0
N86 N 0.80142 0.69899 0.13633 0.0
H87 H 0.88139 0.65373 0.184 0.0
H88 H 0.71265 0.72705 0.08984 0.0
H89 H 0.7066 0.67034 0.23604 0.0
H90 H 0.65326 0.8592 0.16164 0.0
O91 O 0.82672 0.74707 0.24633 0.0
O92 O 0.80618 0.85936 0.23041 0.0
O93 O 0.77795 0.8414 0.1112 0.0
C94 C 0.82153 0.8102 0.26475 0.0
H95 H 0.04043 0.87206 0.10472 0.0
H96 H 0.5684 0.68406 0.24329 0.0
H97 H 0.68907 0.60791 0.05688 0.0
H98 H 0.86383 0.53629 0.15018 0.0
Co99 Co 0.24202 0.77718 0.65449 0.0
C100 C 0.24016 0.62015 0.63964 0.0
C101 C 0.19698 0.64842 0.71619 0.0
C102 C 0.20047 0.57637 0.71383 0.0
N103 N 0.22275 0.67674 0.66989 0.0
N104 N 0.22834 0.55896 0.66597 0.0
H105 H 0.26445 0.62344 0.60022 0.0
H106 H 0.17968 0.67717 0.75109 0.0
C107 C 0.21728 0.84521 0.76572 0.0
O108 O 0.19289 0.80294 0.72892 0.0
N109 N 0.26098 0.87504 0.63764 0.0
C110 C 0.31713 0.90128 0.61082 0.0
C111 C 0.31118 0.97277 0.60674 0.0
C112 C 0.22089 0.93047 0.64856 0.0
N113 N 0.25063 0.99053 0.63048 0.0
C114 C 0.37742 0.72167 0.66354 0.0
C115 C 0.43693 0.83366 0.71829 0.0
C116 C 0.47931 0.78369 0.6948 0.0
C117 C 0.44937 0.72659 0.66818 0.0
C118 C 0.36477 0.82685 0.71253 0.0
N119 N 0.33533 0.77141 0.68506 0.0
H120 H 0.35701 0.68186 0.63733 0.0
H121 H 0.33415 0.87063 0.72504 0.0
H122 H 0.36114 0.87091 0.59781 0.0
H123 H 0.17205 0.92714 0.67052 0.0
O124 O 0.26741 0.75524 0.58184 0.0
O125 O 0.16055 0.78308 0.6077 0.0
O126 O 0.19578 0.80385 0.72776 0.0
C127 C 0.20406 0.77079 0.56829 0.0
H128 H 0.18797 0.54011 0.74612 0.0
H129 H 0.35007 1.00895 0.5908 0.0
H130 H 0.45936 0.87923 0.73817 0.0
H131 H 0.48161 0.68844 0.64797 0.0
Co132 Co 0.27701 0.80792 0.93339 0.0
C133 C 0.43351 0.80659 0.94609 0.0
C134 C 0.40466 0.86117 0.87423 0.0
C135 C 0.47705 0.85806 0.87628 0.0
N136 N 0.3768 0.82711 0.91731 0.0
N137 N 0.49462 0.82314 0.9213 0.0
H138 H 0.43075 0.77977 0.98447 0.0
H139 H 0.37509 0.88606 0.84267 0.0
C140 C 0.25658 0.81847 0.81247 0.0
O141 O 0.29888 0.76572 0.80578 0.0
N142 N 0.17935 0.79011 0.95064 0.0
C143 C 0.15163 0.73574 0.97858 0.0
C144 C 0.08016 0.7434 0.9818 0.0
C145 C 0.12486 0.83035 0.93746 0.0
N146 N 0.06396 0.80298 0.956 0.0
C147 C 0.32966 0.67038 0.93244 0.0
C148 C 0.22157 0.61233 0.87215 0.0
C149 C 0.26957 0.56967 0.89769 0.0
C150 C 0.3245 0.59865 0.92747 0.0
C151 C 0.22865 0.68418 0.87821 0.0
N152 N 0.28271 0.71276 0.90772 0.0
H153 H 0.36744 0.69052 0.96048 0.0
H154 H 0.18784 0.7166 0.86211 0.0
H155 H 0.18079 0.69158 0.99268 0.0
H156 H 0.12957 0.87757 0.91363 0.0
O157 O 0.3001 0.78842 1.00669 0.0
O158 O 0.26995 0.89266 0.97671 0.0
O159 O 0.24674 0.84458 0.85956 0.0
C160 C 0.28322 0.85197 1.01778 0.0
H161 H 0.51347 0.87756 0.84616 0.0
H162 H 0.04291 0.70619 0.99863 0.0
H163 H 0.17773 0.59035 0.84979 0.0
H164 H 0.36068 0.56587 0.94933 0.0
Co165 Co 0.26815 0.25134 0.40954 0.0
C166 C 0.28255 0.09691 0.40015 0.0
C167 C 0.20639 0.12291 0.46022 0.0
C168 C 0.21008 0.05091 0.45694 0.0
N169 N 0.25255 0.15202 0.42504 0.0
N170 N 0.25794 0.03538 0.41914 0.0
H171 H 0.32102 0.10091 0.36828 0.0
H172 H 0.17222 0.15133 0.48676 0.0
C173 C 0.17712 0.29225 0.51795 0.0
O174 O 0.11477 0.31919 0.51241 0.0
N175 N 0.28373 0.35007 0.39216 0.0
C176 C 0.33938 0.37738 0.36532 0.0
C177 C 0.33217 0.44899 0.36104 0.0
C178 C 0.24298 0.40531 0.40339 0.0
N179 N 0.2716 0.46624 0.38501 0.0
C180 C 0.40757 0.21035 0.43435 0.0
C181 C 0.4352 0.31881 0.50538 0.0
C182 C 0.48994 0.27683 0.48809 0.0
C183 C 0.47534 0.22071 0.4535 0.0
C184 C 0.36748 0.30543 0.48636 0.0
N185 N 0.35459 0.25261 0.4504 0.0
H186 H 0.39967 0.17241 0.40292 0.0
H187 H 0.32675 0.34164 0.49659 0.0
H188 H 0.38319 0.34743 0.35094 0.0
H189 H 0.19429 0.40107 0.42546 0.0
O190 O 0.3061 0.22752 0.34048 0.0
O191 O 0.19373 0.24803 0.35676 0.0
O192 O 0.2125 0.27635 0.47592 0.0
C193 C 0.24277 0.23267 0.32229 0.0
H194 H 0.18189 1.01322 0.48161 0.0
H195 H 0.36974 0.48551 0.34377 0.0
H196 H 0.44583 0.36451 0.52998 0.0
H197 H 0.51714 0.18942 0.4371 0.0
Co198 Co 0.77786 0.24403 0.93339 0.0
C199 C 0.62136 0.24533 0.94611 0.0
C200 C 0.65024 0.19076 0.87424 0.0
C201 C 0.57785 0.1938 0.87631 0.0
N202 N 0.67808 0.22483 0.91732 0.0
N203 N 0.56026 0.22873 0.92133 0.0
H204 H 0.62411 0.27217 0.98448 0.0
H205 H 0.67985 0.16592 0.84268 0.0
C206 C 0.79871 0.23349 0.81236 0.0
O207 O 0.75657 0.28631 0.80544 0.0
N208 N 0.87551 0.26185 0.95065 0.0
C209 C 0.90325 0.3162 0.9786 0.0
C210 C 0.97472 0.30852 0.9818 0.0
C211 C 0.92999 0.22159 0.93747 0.0
N212 N 0.9909 0.24894 0.95601 0.0
C213 C 0.72518 0.38157 0.9325 0.0
C214 C 0.83324 0.43957 0.87215 0.0
C215 C 0.78529 0.48224 0.89771 0.0
C216 C 0.73038 0.4533 0.92754 0.0
C217 C 0.82615 0.36774 0.87822 0.0
N218 N 0.7721 0.33918 0.90775 0.0
H219 H 0.68743 0.36144 0.96056 0.0
H220 H 0.86697 0.33532 0.86214 0.0
H221 H 0.87412 0.36038 0.99269 0.0
H222 H 0.92525 0.17438 0.91364 0.0
O223 O 0.75474 0.26348 1.00672 0.0
O224 O 0.78494 0.15928 0.9767 0.0
O225 O 0.8082 0.20741 0.85952 0.0
C226 C 0.77165 0.19994 1.01779 0.0
H227 H 0.54143 0.17426 0.8462 0.0
H228 H 1.01199 0.34571 0.99864 0.0
H229 H 0.87707 0.46153 0.84976 0.0
H230 H 0.69424 0.4861 0.94942 0.0
Co231 Co 0.78677 0.80052 0.40954 0.0
C232 C 0.77237 0.95495 0.40016 0.0
C233 C 0.84854 0.92895 0.46022 0.0
C234 C 0.84484 1.00094 0.45694 0.0
N235 N 0.80238 0.89984 0.42504 0.0
N236 N 0.79698 1.01648 0.41914 0.0
H237 H 0.7339 0.95095 0.36828 0.0
H238 H 0.88271 0.90052 0.48676 0.0
C239 C 0.87781 0.75959 0.51795 0.0
O240 O 0.94015 0.73263 0.51239 0.0
N241 N 0.77118 0.70179 0.39216 0.0
C242 C 0.71553 0.67448 0.36532 0.0
C243 C 0.72274 0.60288 0.36103 0.0
C244 C 0.81193 0.64655 0.40338 0.0
N245 N 0.78332 0.58563 0.38499 0.0
C246 C 0.64735 0.84151 0.43434 0.0
C247 C 0.61972 0.73306 0.50539 0.0
C248 C 0.56498 0.77504 0.4881 0.0
C249 C 0.57958 0.83115 0.4535 0.0
C250 C 0.68744 0.74643 0.48637 0.0
N251 N 0.70033 0.79925 0.4504 0.0
H252 H 0.65524 0.87944 0.40291 0.0
H253 H 0.72817 0.71022 0.49659 0.0
H254 H 0.67172 0.70444 0.35094 0.0
H255 H 0.86063 0.65078 0.42544 0.0
O256 O 0.74883 0.82434 0.34048 0.0
O257 O 0.8612 0.80383 0.35676 0.0
O258 O 0.84241 0.7755 0.47593 0.0
C259 C 0.81215 0.81919 0.32229 0.0
H260 H 0.87304 0.03863 0.48161 0.0
H261 H 0.68517 0.56637 0.34376 0.0
H262 H 0.6091 0.68736 0.53 0.0
H263 H 0.53778 0.86244 0.4371 0.0
Co264 Co 0.77958 0.7981 0.93288 0.0
C265 C 0.93469 0.79989 0.96029 0.0
C266 C 0.91034 0.85937 0.88968 0.0
C267 C 0.98142 0.86178 0.89665 0.0
N268 N 0.88043 0.81821 0.92814 0.0
N269 N 0.99647 0.82373 0.94051 0.0
H270 H 0.92985 0.77103 0.99767 0.0
H271 H 0.88321 0.88675 0.85806 0.0
C272 C 0.75005 0.79486 0.81175 0.0
O273 O 0.68178 0.78932 0.80857 0.0
N274 N 0.67804 0.78349 0.93801 0.0
C275 C 0.64619 0.73411 0.96874 0.0
C276 C 0.57485 0.74277 0.96681 0.0
C277 C 0.62521 0.82281 0.91841 0.0
N278 N 0.56181 0.79849 0.93533 0.0
C279 C 0.83991 0.66123 0.93863 0.0
C280 C 0.74168 0.59647 0.87332 0.0
C281 C 0.79368 0.55735 0.8971 0.0
C282 C 0.84336 0.58953 0.9303 0.0
C283 C 0.74003 0.66742 0.88311 0.0
N284 N 0.79069 0.70044 0.91311 0.0
H285 H 0.87265 0.68287 0.96942 0.0
H286 H 0.6953 0.69431 0.86819 0.0
H287 H 0.67328 0.69405 0.99069 0.0
H288 H 0.633 0.86855 0.89328 0.0
O289 O 0.78574 0.78402 1.00945 0.0
O290 O 0.76757 0.88664 0.97084 0.0
O291 O 0.77607 0.82647 0.85287 0.0
C292 C 0.77332 0.84974 1.01518 0.0
H293 H 1.01909 0.88747 0.87041 0.0
H294 H 0.53572 0.71005 0.98637 0.0
H295 H 0.70013 0.57174 0.85 0.0
H296 H 0.88067 0.55893 0.95288 0.0
Co297 Co 0.27696 0.75287 0.41246 0.0
C298 C 0.27684 0.59709 0.38129 0.0
C299 C 0.20421 0.62038 0.44427 0.0
C300 C 0.203 0.5496 0.43655 0.0
N301 N 0.25135 0.65158 0.41056 0.0
N302 N 0.249 0.53457 0.39757 0.0
H303 H 0.31703 0.60257 0.35071 0.0
H304 H 0.17314 0.64534 0.47477 0.0
C305 C 0.19413 0.79988 0.51412 0.0
O306 O 0.2045 0.86739 0.51012 0.0
N307 N 0.29851 0.85316 0.41288 0.0
C308 C 0.362 0.88355 0.40461 0.0
C309 C 0.35483 0.95515 0.40337 0.0
C310 C 0.25304 0.90668 0.41268 0.0
N311 N 0.28646 0.96906 0.40913 0.0
C312 C 0.4006 0.68664 0.4482 0.0
C313 C 0.44145 0.79554 0.51474 0.0
C314 C 0.49191 0.75118 0.49358 0.0
C315 C 0.47033 0.69307 0.46355 0.0
C316 C 0.37149 0.78582 0.4997 0.0
N317 N 0.3529 0.73559 0.46295 0.0
H318 H 0.3887 0.64847 0.41784 0.0
H319 H 0.33525 0.82608 0.51023 0.0
H320 H 0.41033 0.85546 0.40003 0.0
H321 H 0.19674 0.90031 0.41488 0.0
O322 O 0.33358 0.74623 0.34929 0.0
O323 O 0.22034 0.77084 0.34823 0.0
O324 O 0.20744 0.75955 0.47449 0.0
C325 C 0.2798 0.76583 0.32212 0.0
H326 H 0.17335 0.51192 0.46019 0.0
H327 H 0.39653 0.99386 0.40023 0.0
H328 H 0.45698 0.84173 0.53731 0.0
H329 H 0.50833 0.65858 0.44552 0.0
Co330 Co 0.27529 0.25376 0.93287 0.0
C331 C 0.12017 0.25198 0.96029 0.0
C332 C 0.14451 0.1925 0.88969 0.0
C333 C 0.07343 0.1901 0.89665 0.0
N334 N 0.17443 0.23366 0.92813 0.0
N335 N 0.05839 0.22816 0.94052 0.0
H336 H 0.12503 0.28085 0.99766 0.0
H337 H 0.17164 0.16512 0.85806 0.0
C338 C 0.30486 0.257 0.81175 0.0
O339 O 0.37314 0.26251 0.8086 0.0
N340 N 0.37683 0.26837 0.93801 0.0
C341 C 0.40867 0.31775 0.96874 0.0
C342 C 0.48001 0.3091 0.96682 0.0
C343 C 0.42966 0.22904 0.91842 0.0
N344 N 0.49306 0.25337 0.93534 0.0
C345 C 0.21498 0.39065 0.93862 0.0
C346 C 0.31324 0.45542 0.87334 0.0
C347 C 0.26123 0.49454 0.8971 0.0
C348 C 0.21155 0.46235 0.9303 0.0
C349 C 0.31487 0.38446 0.88312 0.0
N350 N 0.2642 0.35143 0.9131 0.0
H351 H 0.18224 0.369 0.9694 0.0
H352 H 0.35959 0.35756 0.86819 0.0
H353 H 0.38158 0.35781 0.99068 0.0
H354 H 0.42188 0.1833 0.8933 0.0
O355 O 0.26914 0.26783 1.00945 0.0
O356 O 0.2873 0.16521 0.97084 0.0
O357 O 0.2788 0.22541 0.85287 0.0
C358 C 0.28156 0.20212 1.01517 0.0
H359 H 0.03575 0.16442 0.87041 0.0
H360 H 0.51913 0.34183 0.98638 0.0
H361 H 0.35479 0.48015 0.85002 0.0
H362 H 0.17423 0.49294 0.95288 0.0
Co363 Co 0.77794 0.29899 0.41242 0.0
C364 C 0.77807 0.45478 0.38126 0.0
C365 C 0.85069 0.43148 0.44425 0.0
C366 C 0.8519 0.50226 0.43654 0.0
N367 N 0.80355 0.40028 0.41054 0.0
N368 N 0.80592 0.5173 0.39755 0.0
H369 H 0.73788 0.44931 0.35068 0.0
H370 H 0.88174 0.40653 0.47476 0.0
C371 C 0.8606 0.25202 0.51409 0.0
O372 O 0.85021 0.1845 0.51011 0.0
N373 N 0.7564 0.1987 0.41284 0.0
C374 C 0.69292 0.1683 0.40458 0.0
C375 C 0.70009 0.0967 0.40336 0.0
C376 C 0.80188 0.14518 0.41266 0.0
N377 N 0.76846 0.0828 0.40913 0.0
C378 C 0.65433 0.36523 0.44821 0.0
C379 C 0.61347 0.25631 0.51471 0.0
C380 C 0.56301 0.30068 0.49357 0.0
C381 C 0.58459 0.3588 0.46355 0.0
C382 C 0.68342 0.26602 0.49967 0.0
N383 N 0.70202 0.31627 0.46293 0.0
H384 H 0.66623 0.40342 0.41785 0.0
H385 H 0.71963 0.22574 0.51019 0.0
H386 H 0.64458 0.19639 0.40001 0.0
H387 H 0.85818 0.15155 0.41488 0.0
O388 O 0.7213 0.30565 0.34927 0.0
O389 O 0.83455 0.28104 0.3482 0.0
O390 O 0.8475 0.29231 0.4744 0.0
C391 C 0.77508 0.28605 0.3221 0.0
H392 H 0.88154 0.53994 0.46018 0.0
H393 H 0.65839 0.05799 0.40024 0.0
H394 H 0.59793 0.21011 0.53728 0.0
H395 H 0.54659 0.3933 0.44553 0.0
Co396 Co 0.75342 0.27518 0.17354 0.0
C397 C 0.5979 0.27525 0.20523 0.0
C398 C 0.62093 0.20152 0.143 0.0
C399 C 0.55015 0.20039 0.15095 0.0
N400 N 0.65223 0.24942 0.17598 0.0
N401 N 0.5353 0.24704 0.18947 0.0
H402 H 0.60353 0.31579 0.23547 0.0
H403 H 0.64579 0.16966 0.11296 0.0
C404 C 0.79889 0.18746 0.07227 0.0
O405 O 0.867 0.19094 0.07722 0.0
N406 N 0.85372 0.29679 0.17256 0.0
C407 C 0.88409 0.36015 0.18124 0.0
C408 C 0.95575 0.35306 0.18249 0.0
C409 C 0.90731 0.25145 0.17236 0.0
N410 N 0.96968 0.28484 0.17629 0.0
C411 C 0.68717 0.39931 0.13868 0.0
C412 C 0.79633 0.4399 0.07221 0.0
C413 C 0.75237 0.49052 0.09368 0.0
C414 C 0.69414 0.4691 0.12373 0.0
C415 C 0.78585 0.36983 0.08668 0.0
N416 N 0.73567 0.3514 0.12351 0.0
H417 H 0.64895 0.38742 0.16903 0.0
H418 H 0.82555 0.333 0.0759 0.0
H419 H 0.85591 0.40831 0.18632 0.0
H420 H 0.90102 0.1952 0.17082 0.0
O421 O 0.74722 0.33147 0.23683 0.0
O422 O 0.77191 0.2184 0.23764 0.0
O423 O 0.7591 0.20677 0.11074 0.0
C424 C 0.76679 0.27772 0.26389 0.0
H425 H 0.51233 0.17021 0.12783 0.0
H426 H 0.99449 0.39465 0.18618 0.0
H427 H 0.84263 0.45531 0.04968 0.0
H428 H 0.65993 0.50716 0.14199 0.0
Co429 Co 0.79618 0.77682 0.65444 0.0
C430 C 0.7974 0.93204 0.62671 0.0
C431 C 0.85953 0.90698 0.6958 0.0
C432 C 0.86306 0.9778 0.68856 0.0
N433 N 0.81609 0.87763 0.65858 0.0
N434 N 0.82354 0.99338 0.64561 0.0
H435 H 0.76707 0.92755 0.58999 0.0
H436 H 0.88819 0.87954 0.72657 0.0
C437 C 0.79413 0.74952 0.77584 0.0
O438 O 0.78676 0.68148 0.77894 0.0
N439 N 0.78237 0.67506 0.64998 0.0
C440 C 0.73387 0.64223 0.61895 0.0
C441 C 0.74443 0.57113 0.6204 0.0
C442 C 0.82285 0.62303 0.66946 0.0
N443 N 0.80038 0.55929 0.65194 0.0
C444 C 0.65826 0.83716 0.64999 0.0
C445 C 0.5948 0.73955 0.71651 0.0
C446 C 0.55496 0.79185 0.69378 0.0
C447 C 0.58665 0.84123 0.6599 0.0
C448 C 0.66551 0.73719 0.70509 0.0
N449 N 0.69808 0.78761 0.67458 0.0
H450 H 0.67933 0.87003 0.61903 0.0
H451 H 0.69255 0.69228 0.71936 0.0
H452 H 0.69343 0.66848 0.59678 0.0
H453 H 0.86835 0.63166 0.69477 0.0
O454 O 0.78235 0.78215 0.57768 0.0
O455 O 0.88498 0.76514 0.6168 0.0
O456 O 0.82521 0.77468 0.73426 0.0
C457 C 0.84841 0.77049 0.57229 0.0
H458 H 0.89079 1.015 0.71395 0.0
H459 H 0.71293 0.53133 0.60048 0.0
H460 H 0.57064 0.69825 0.74039 0.0
H461 H 0.55562 0.8789 0.63807 0.0
Co462 Co 0.3015 0.77667 0.17355 0.0
C463 C 0.45702 0.7766 0.20523 0.0
C464 C 0.43399 0.85034 0.14301 0.0
C465 C 0.50477 0.85146 0.15095 0.0
N466 N 0.40269 0.80243 0.17599 0.0
N467 N 0.51962 0.80481 0.18947 0.0
H468 H 0.4514 0.73605 0.23546 0.0
H469 H 0.40912 0.88222 0.11298 0.0
C470 C 0.25602 0.86441 0.07227 0.0
O471 O 0.18791 0.86094 0.07725 0.0
N472 N 0.20121 0.75505 0.17255 0.0
C473 C 0.17084 0.69169 0.18123 0.0
C474 C 0.09917 0.69879 0.18248 0.0
C475 C 0.14762 0.8004 0.17236 0.0
N476 N 0.08524 0.767 0.17629 0.0
C477 C 0.36775 0.65252 0.1387 0.0
C478 C 0.25861 0.61196 0.0722 0.0
C479 C 0.30257 0.56133 0.09368 0.0
C480 C 0.36078 0.58274 0.12374 0.0
C481 C 0.26909 0.68202 0.08668 0.0
N482 N 0.31925 0.70044 0.12352 0.0
H483 H 0.40597 0.66441 0.16906 0.0
H484 H 0.22939 0.71885 0.07589 0.0
H485 H 0.19901 0.64353 0.18631 0.0
H486 H 0.1539 0.85664 0.17083 0.0
O487 O 0.30768 0.7204 0.23685 0.0
O488 O 0.28299 0.83346 0.23763 0.0
O489 O 0.29583 0.84503 0.11071 0.0
C490 C 0.2881 0.77415 0.2639 0.0
H491 H 0.54258 0.88166 0.12784 0.0
H492 H 0.06043 0.6572 0.18617 0.0
H493 H 0.21232 0.59655 0.04966 0.0
H494 H 0.39499 0.54468 0.142 0.0
Co495 Co 0.25878 0.27502 0.65443 0.0
C496 C 0.25745 0.11979 0.62679 0.0
C497 C 0.19532 0.14494 0.69585 0.0
C498 C 0.19173 0.07411 0.68863 0.0
N499 N 0.2388 0.17423 0.65863 0.0
N500 N 0.23125 0.05848 0.6457 0.0
H501 H 0.2878 0.12424 0.59008 0.0
H502 H 0.16667 0.17242 0.7266 0.0
C503 C 0.26084 0.30237 0.77583 0.0
O504 O 0.26824 0.37041 0.77892 0.0
N505 N 0.27264 0.37675 0.64994 0.0
C506 C 0.32114 0.40957 0.61891 0.0
C507 C 0.31054 0.48066 0.62029 0.0
C508 C 0.23212 0.42877 0.66936 0.0
N509 N 0.25456 0.49251 0.6518 0.0
C510 C 0.3967 0.21461 0.64999 0.0
C511 C 0.46022 0.31214 0.71655 0.0
C512 C 0.50004 0.25979 0.69384 0.0
C513 C 0.46831 0.21047 0.65993 0.0
C514 C 0.38951 0.31457 0.70509 0.0
N515 N 0.3569 0.26418 0.67458 0.0
H516 H 0.37561 0.18176 0.61902 0.0
H517 H 0.3625 0.35951 0.71935 0.0
H518 H 0.36161 0.3833 0.59677 0.0
H519 H 0.18662 0.42015 0.69466 0.0
O520 O 0.27258 0.26963 0.57768 0.0
O521 O 0.16998 0.28673 0.61681 0.0
O522 O 0.22974 0.27722 0.73425 0.0
C523 C 0.20653 0.28133 0.57229 0.0
H524 H 0.16396 0.03694 0.71403 0.0
H525 H 0.34204 0.52046 0.60037 0.0
H526 H 0.4844 0.35343 0.74042 0.0
H527 H 0.49932 0.17279 0.63809 0.0
loop_
_geom_bond_atom_site_label_1
_geom_bond_atom_site_label_2
_geom_bond_distance
_geom_bond_site_symmetry_2
_ccdc_geom_bond_type
Co0 N4 2.148 . S
Co0 N10 2.128 . S
Co0 N20 2.194 . S
Co0 O25 2.351 . S
Co0 O26 2.155 . S
Co0 O27 2.096 . S
C1 N4 1.301 . S
C1 N5 1.328 . S
C1 H6 0.930 . S
C2 C3 1.333 . S
C2 N4 1.317 . S
C2 H7 0.930 . S
C3 C2 1.333 . S
C3 N5 1.350 . S
C3 H29 0.931 1_455 S
N4 Co0 2.148 . S
N4 C1 1.301 . S
N4 C2 1.317 . S
N5 C1 1.328 . S
N5 C3 1.350 . S
H6 C1 0.930 . S
H7 C2 0.930 . S
C8 O9 1.224 . S
C8 O27 1.247 . S
O9 C8 1.224 . S
N10 Co0 2.128 . S
N10 C11 1.355 . S
N10 C13 1.311 . S
C11 N10 1.355 . S
C11 C12 1.363 . S
C11 H23 0.929 . S
C12 C11 1.363 . S
C12 N14 1.375 . S
C12 H30 0.931 . S
C13 N10 1.311 . S
C13 N14 1.347 . S
C13 H24 0.929 . S
N14 C12 1.375 . S
N14 C13 1.347 . S
C15 C18 1.365 . S
C15 N20 1.328 . S
C15 H21 0.929 . S
C16 C17 1.362 . S
C16 C19 1.378 . S
C16 H31 0.929 . S
C17 C16 1.362 . S
C17 C18 1.366 . S
C18 C15 1.365 . S
C18 C17 1.366 . S
C18 H32 0.930 . S
C19 C16 1.378 . S
C19 N20 1.315 . S
C19 H22 0.930 . S
N20 Co0 2.194 . S
N20 C15 1.328 . S
N20 C19 1.315 . S
H21 C15 0.929 . S
H22 C19 0.930 . S
H23 C11 0.929 . S
H24 C13 0.929 . S
O25 Co0 2.351 . S
O25 C28 1.244 . S
O26 Co0 2.155 . S
O26 C28 1.240 . S
O27 Co0 2.096 . S
O27 C8 1.247 . S
C28 O25 1.244 . S
C28 O26 1.240 . S
H29 C3 0.931 1_655 S
H30 C12 0.931 . S
H31 C16 0.929 . S
H32 C18 0.930 . S
Co33 N37 2.148 . S
Co33 N43 2.128 . S
Co33 N53 2.194 . S
Co33 O58 2.351 . S
Co33 O59 2.155 . S
Co33 O60 2.096 . S
C34 N37 1.301 . S
C34 N38 1.328 . S
C34 H39 0.930 . S
C35 C36 1.333 . S
C35 N37 1.317 . S
C35 H40 0.930 . S
C36 C35 1.333 . S
C36 N38 1.350 . S
C36 H62 0.931 . S
N37 Co33 2.148 . S
N37 C34 1.301 . S
N37 C35 1.317 . S
N38 C34 1.328 . S
N38 C36 1.350 . S
H39 C34 0.930 . S
H40 C35 0.930 . S
C41 O42 1.224 . S
C41 O60 1.247 . S
O42 C41 1.224 . S
N43 Co33 2.128 . S
N43 C44 1.355 . S
N43 C46 1.311 . S
C44 N43 1.355 . S
C44 C45 1.363 . S
C44 H56 0.929 . S
C45 C44 1.363 . S
C45 N47 1.375 . S
C45 H63 0.931 . S
C46 N43 1.311 . S
C46 N47 1.347 . S
C46 H57 0.929 . S
N47 C45 1.375 . S
N47 C46 1.347 . S
C48 C51 1.365 . S
C48 N53 1.328 . S
C48 H54 0.929 . S
C49 C50 1.362 . S
C49 C52 1.378 . S
C49 H64 0.929 . S
C50 C49 1.362 . S
C50 C51 1.366 . S
C51 C48 1.365 . S
C51 C50 1.366 . S
C51 H65 0.930 . S
C52 C49 1.378 . S
C52 N53 1.315 . S
C52 H55 0.930 . S
N53 Co33 2.194 . S
N53 C48 1.328 . S
N53 C52 1.315 . S
H54 C48 0.929 . S
H55 C52 0.930 . S
H56 C44 0.929 . S
H57 C46 0.929 . S
O58 Co33 2.351 . S
O58 C61 1.244 . S
O59 Co33 2.155 . S
O59 C61 1.240 . S
O60 Co33 2.096 . S
O60 C41 1.247 . S
C61 O58 1.244 . S
C61 O59 1.240 . S
H62 C36 0.931 . S
H63 C45 0.931 . S
H64 C49 0.929 . S
H65 C51 0.930 . S
Co66 N70 2.148 . S
Co66 N76 2.128 . S
Co66 N86 2.194 . S
Co66 O91 2.351 . S
Co66 O92 2.155 . S
Co66 O93 2.096 . S
C67 N70 1.301 . S
C67 N71 1.328 . S
C67 H72 0.930 . S
C68 C69 1.333 . S
C68 N70 1.317 . S
C68 H73 0.930 . S
C69 C68 1.333 . S
C69 N71 1.350 . S
C69 H95 0.931 1_655 S
N70 Co66 2.148 . S
N70 C67 1.301 . S
N70 C68 1.317 . S
N71 C67 1.328 . S
N71 C69 1.350 . S
H72 C67 0.930 . S
H73 C68 0.930 . S
C74 O75 1.224 . S
C74 O93 1.247 . S
O75 C74 1.224 . S
N76 Co66 2.128 . S
N76 C77 1.355 . S
N76 C79 1.311 . S
C77 N76 1.355 . S
C77 C78 1.363 . S
C77 H89 0.929 . S
C78 C77 1.363 . S
C78 N80 1.375 . S
C78 H96 0.931 . S
C79 N76 1.311 . S
C79 N80 1.347 . S
C79 H90 0.929 . S
N80 C78 1.375 . S
N80 C79 1.347 . S
C81 C84 1.365 . S
C81 N86 1.328 . S
C81 H87 0.929 . S
C82 C83 1.362 . S
C82 C85 1.378 . S
C82 H97 0.929 . S
C83 C82 1.362 . S
C83 C84 1.366 . S
C84 C81 1.365 . S
C84 C83 1.366 . S
C84 H98 0.930 . S
C85 C82 1.378 . S
C85 N86 1.315 . S
C85 H88 0.930 . S
N86 Co66 2.194 . S
N86 C81 1.328 . S
N86 C85 1.315 . S
H87 C81 0.929 . S
H88 C85 0.930 . S
H89 C77 0.929 . S
H90 C79 0.929 . S
O91 Co66 2.351 . S
O91 C94 1.244 . S
O92 Co66 2.155 . S
O92 C94 1.240 . S
O93 Co66 2.096 . S
O93 C74 1.247 . S
C94 O91 1.244 . S
C94 O92 1.240 . S
H95 C69 0.931 1_455 S
H96 C78 0.931 . S
H97 C82 0.929 . S
H98 C84 0.930 . S
Co99 N103 2.148 . S
Co99 N109 2.128 . S
Co99 N119 2.194 . S
Co99 O124 2.351 . S
Co99 O125 2.155 . S
Co99 O126 2.096 . S
C100 N103 1.301 . S
C100 N104 1.328 . S
C100 H105 0.930 . S
C101 C102 1.333 . S
C101 N103 1.317 . S
C101 H106 0.930 . S
C102 C101 1.333 . S
C102 N104 1.350 . S
C102 H128 0.931 . S
N103 Co99 2.148 . S
N103 C100 1.301 . S
N103 C101 1.317 . S
N104 C100 1.328 . S
N104 C102 1.350 . S
H105 C100 0.930 . S
H106 C101 0.930 . S
C107 O108 1.224 . S
C107 O126 1.247 . S
O108 C107 1.224 . S
N109 Co99 2.128 . S
N109 C110 1.355 . S
N109 C112 1.311 . S
C110 N109 1.355 . S
C110 C111 1.363 . S
C110 H122 0.929 . S
C111 C110 1.363 . S
C111 N113 1.375 . S
C111 H129 0.931 . S
C112 N109 1.311 . S
C112 N113 1.347 . S
C112 H123 0.929 . S
N113 C111 1.375 . S
N113 C112 1.347 . S
C114 C117 1.365 . S
C114 N119 1.328 . S
C114 H120 0.929 . S
C115 C116 1.362 . S
C115 C118 1.378 . S
C115 H130 0.929 . S
C116 C115 1.362 . S
C116 C117 1.366 . S
C117 C114 1.365 . S
C117 C116 1.366 . S
C117 H131 0.930 . S
C118 C115 1.378 . S
C118 N119 1.315 . S
C118 H121 0.930 . S
N119 Co99 2.194 . S
N119 C114 1.328 . S
N119 C118 1.315 . S
H120 C114 0.929 . S
H121 C118 0.930 . S
H122 C110 0.929 . S
H123 C112 0.929 . S
O124 Co99 2.351 . S
O124 C127 1.244 . S
O125 Co99 2.155 . S
O125 C127 1.240 . S
O126 Co99 2.096 . S
O126 C107 1.247 . S
C127 O124 1.244 . S
C127 O125 1.240 . S
H128 C102 0.931 . S
H129 C111 0.931 . S
H130 C115 0.929 . S
H131 C117 0.930 . S
Co132 N136 2.148 . S
Co132 N142 2.128 . S
Co132 N152 2.194 . S
Co132 O157 2.351 . S
Co132 O158 2.155 . S
Co132 O159 2.096 . S
C133 N136 1.301 . S
C133 N137 1.328 . S
C133 H138 0.930 . S
C134 C135 1.333 . S
C134 N136 1.317 . S
C134 H139 0.930 . S
C135 C134 1.333 . S
C135 N137 1.350 . S
C135 H161 0.931 . S
N136 Co132 2.148 . S
N136 C133 1.301 . S
N136 C134 1.317 . S
N137 C133 1.328 . S
N137 C135 1.350 . S
H138 C133 0.930 . S
H139 C134 0.930 . S
C140 O141 1.224 . S
C140 O159 1.247 . S
O141 C140 1.224 . S
N142 Co132 2.128 . S
N142 C143 1.355 . S
N142 C145 1.311 . S
C143 N142 1.355 . S
C143 C144 1.363 . S
C143 H155 0.929 . S
C144 C143 1.363 . S
C144 N146 1.375 . S
C144 H162 0.931 . S
C145 N142 1.311 . S
C145 N146 1.347 . S
C145 H156 0.929 . S
N146 C144 1.375 . S
N146 C145 1.347 . S
C147 C150 1.365 . S
C147 N152 1.328 . S
C147 H153 0.929 . S
C148 C149 1.362 . S
C148 C151 1.378 . S
C148 H163 0.929 . S
C149 C148 1.362 . S
C149 C150 1.366 . S
C150 C147 1.365 . S
C150 C149 1.366 . S
C150 H164 0.930 . S
C151 C148 1.378 . S
C151 N152 1.315 . S
C151 H154 0.930 . S
N152 Co132 2.194 . S
N152 C147 1.328 . S
N152 C151 1.315 . S
H153 C147 0.929 . S
H154 C151 0.930 . S
H155 C143 0.929 . S
H156 C145 0.929 . S
O157 Co132 2.351 . S
O157 C160 1.244 . S
O158 Co132 2.155 . S
O158 C160 1.240 . S
O159 Co132 2.096 . S
O159 C140 1.247 . S
C160 O157 1.244 . S
C160 O158 1.240 . S
H161 C135 0.931 . S
H162 C144 0.931 . S
H163 C148 0.929 . S
H164 C150 0.930 . S
Co165 N169 2.148 . S
Co165 N175 2.128 . S
Co165 N185 2.194 . S
Co165 O190 2.351 . S
Co165 O191 2.155 . S
Co165 O192 2.096 . S
C166 N169 1.301 . S
C166 N170 1.328 . S
C166 H171 0.930 . S
C167 C168 1.333 . S
C167 N169 1.317 . S
C167 H172 0.930 . S
C168 C167 1.333 . S
C168 N170 1.350 . S
C168 H194 0.931 1_545 S
N169 Co165 2.148 . S
N169 C166 1.301 . S
N169 C167 1.317 . S
N170 C166 1.328 . S
N170 C168 1.350 . S
H171 C166 0.930 . S
H172 C167 0.930 . S
C173 O174 1.224 . S
C173 O192 1.247 . S
O174 C173 1.224 . S
N175 Co165 2.128 . S
N175 C176 1.355 . S
N175 C178 1.311 . S
C176 N175 1.355 . S
C176 C177 1.363 . S
C176 H188 0.929 . S
C177 C176 1.363 . S
C177 N179 1.375 . S
C177 H195 0.931 . S
C178 N175 1.311 . S
C178 N179 1.347 . S
C178 H189 0.929 . S
N179 C177 1.375 . S
N179 C178 1.347 . S
C180 C183 1.365 . S
C180 N185 1.328 . S
C180 H186 0.929 . S
C181 C182 1.362 . S
C181 C184 1.378 . S
C181 H196 0.929 . S
C182 C181 1.362 . S
C182 C183 1.366 . S
C183 C180 1.365 . S
C183 C182 1.366 . S
C183 H197 0.930 . S
C184 C181 1.378 . S
C184 N185 1.315 . S
C184 H187 0.930 . S
N185 Co165 2.194 . S
N185 C180 1.328 . S
N185 C184 1.315 . S
H186 C180 0.929 . S
H187 C184 0.930 . S
H188 C176 0.929 . S
H189 C178 0.929 . S
O190 Co165 2.351 . S
O190 C193 1.244 . S
O191 Co165 2.155 . S
O191 C193 1.240 . S
O192 Co165 2.096 . S
O192 C173 1.247 . S
C193 O190 1.244 . S
C193 O191 1.240 . S
H194 C168 0.931 1_565 S
H195 C177 0.931 . S
H196 C181 0.929 . S
H197 C183 0.930 . S
Co198 N202 2.148 . S
Co198 N208 2.128 . S
Co198 N218 2.194 . S
Co198 O223 2.351 . S
Co198 O224 2.155 . S
Co198 O225 2.096 . S
C199 N202 1.301 . S
C199 N203 1.328 . S
C199 H204 0.930 . S
C200 C201 1.333 . S
C200 N202 1.317 . S
C200 H205 0.930 . S
C201 C200 1.333 . S
C201 N203 1.350 . S
C201 H227 0.931 . S
N202 Co198 2.148 . S
N202 C199 1.301 . S
N202 C200 1.317 . S
N203 C199 1.328 . S
N203 C201 1.350 . S
H204 C199 0.930 . S
H205 C200 0.930 . S
C206 O207 1.224 . S
C206 O225 1.247 . S
O207 C206 1.224 . S
N208 Co198 2.128 . S
N208 C209 1.355 . S
N208 C211 1.311 . S
C209 N208 1.355 . S
C209 C210 1.363 . S
C209 H221 0.929 . S
C210 C209 1.363 . S
C210 N212 1.375 . S
C210 H228 0.931 . S
C211 N208 1.311 . S
C211 N212 1.347 . S
C211 H222 0.929 . S
N212 C210 1.375 . S
N212 C211 1.347 . S
C213 C216 1.365 . S
C213 N218 1.328 . S
C213 H219 0.929 . S
C214 C215 1.362 . S
C214 C217 1.378 . S
C214 H229 0.929 . S
C215 C214 1.362 . S
C215 C216 1.366 . S
C216 C213 1.365 . S
C216 C215 1.366 . S
C216 H230 0.930 . S
C217 C214 1.378 . S
C217 N218 1.315 . S
C217 H220 0.930 . S
N218 Co198 2.194 . S
N218 C213 1.328 . S
N218 C217 1.315 . S
H219 C213 0.929 . S
H220 C217 0.930 . S
H221 C209 0.929 . S
H222 C211 0.929 . S
O223 Co198 2.351 . S
O223 C226 1.244 . S
O224 Co198 2.155 . S
O224 C226 1.240 . S
O225 Co198 2.096 . S
O225 C206 1.247 . S
C226 O223 1.244 . S
C226 O224 1.240 . S
H227 C201 0.931 . S
H228 C210 0.931 . S
H229 C214 0.929 . S
H230 C216 0.930 . S
Co231 N235 2.148 . S
Co231 N241 2.128 . S
Co231 N251 2.194 . S
Co231 O256 2.351 . S
Co231 O257 2.155 . S
Co231 O258 2.096 . S
C232 N235 1.301 . S
C232 N236 1.328 . S
C232 H237 0.930 . S
C233 C234 1.333 . S
C233 N235 1.317 . S
C233 H238 0.930 . S
C234 C233 1.333 . S
C234 N236 1.350 . S
C234 H260 0.931 1_565 S
N235 Co231 2.148 . S
N235 C232 1.301 . S
N235 C233 1.317 . S
N236 C232 1.328 . S
N236 C234 1.350 . S
H237 C232 0.930 . S
H238 C233 0.930 . S
C239 O240 1.224 . S
C239 O258 1.247 . S
O240 C239 1.224 . S
N241 Co231 2.128 . S
N241 C242 1.355 . S
N241 C244 1.311 . S
C242 N241 1.355 . S
C242 C243 1.363 . S
C242 H254 0.929 . S
C243 C242 1.363 . S
C243 N245 1.375 . S
C243 H261 0.931 . S
C244 N241 1.311 . S
C244 N245 1.347 . S
C244 H255 0.929 . S
N245 C243 1.375 . S
N245 C244 1.347 . S
C246 C249 1.365 . S
C246 N251 1.328 . S
C246 H252 0.929 . S
C247 C248 1.362 . S
C247 C250 1.378 . S
C247 H262 0.929 . S
C248 C247 1.362 . S
C248 C249 1.366 . S
C249 C246 1.365 . S
C249 C248 1.366 . S
C249 H263 0.930 . S
C250 C247 1.378 . S
C250 N251 1.315 . S
C250 H253 0.930 . S
N251 Co231 2.194 . S
N251 C246 1.328 . S
N251 C250 1.315 . S
H252 C246 0.929 . S
H253 C250 0.930 . S
H254 C242 0.929 . S
H255 C244 0.929 . S
O256 Co231 2.351 . S
O256 C259 1.244 . S
O257 Co231 2.155 . S
O257 C259 1.240 . S
O258 Co231 2.096 . S
O258 C239 1.247 . S
C259 O256 1.244 . S
C259 O257 1.240 . S
H260 C234 0.931 1_545 S
H261 C243 0.931 . S
H262 C247 0.929 . S
H263 C249 0.930 . S
Co264 N268 2.148 . S
Co264 N274 2.128 . S
Co264 N284 2.194 . S
Co264 O289 2.351 . S
Co264 O290 2.155 . S
Co264 O291 2.096 . S
C265 N268 1.301 . S
C265 N269 1.328 . S
C265 H270 0.930 . S
C266 C267 1.333 . S
C266 N268 1.317 . S
C266 H271 0.930 . S
C267 C266 1.333 . S
C267 N269 1.350 . S
C267 H293 0.931 . S
N268 Co264 2.148 . S
N268 C265 1.301 . S
N268 C266 1.317 . S
N269 C265 1.328 . S
N269 C267 1.350 . S
H270 C265 0.930 . S
H271 C266 0.930 . S
C272 O273 1.224 . S
C272 O291 1.247 . S
O273 C272 1.224 . S
N274 Co264 2.128 . S
N274 C275 1.355 . S
N274 C277 1.311 . S
C275 N274 1.355 . S
C275 C276 1.363 . S
C275 H287 0.929 . S
C276 C275 1.363 . S
C276 N278 1.375 . S
C276 H294 0.931 . S
C277 N274 1.311 . S
C277 N278 1.347 . S
C277 H288 0.929 . S
N278 C276 1.375 . S
N278 C277 1.347 . S
C279 C282 1.365 . S
C279 N284 1.328 . S
C279 H285 0.929 . S
C280 C281 1.362 . S
C280 C283 1.378 . S
C280 H295 0.929 . S
C281 C280 1.362 . S
C281 C282 1.366 . S
C282 C279 1.365 . S
C282 C281 1.366 . S
C282 H296 0.930 . S
C283 C280 1.378 . S
C283 N284 1.315 . S
C283 H286 0.930 . S
N284 Co264 2.194 . S
N284 C279 1.328 . S
N284 C283 1.315 . S
H285 C279 0.929 . S
H286 C283 0.930 . S
H287 C275 0.929 . S
H288 C277 0.929 . S
O289 Co264 2.351 . S
O289 C292 1.244 . S
O290 Co264 2.155 . S
O290 C292 1.240 . S
O291 Co264 2.096 . S
O291 C272 1.247 . S
C292 O289 1.244 . S
C292 O290 1.240 . S
H293 C267 0.931 . S
H294 C276 0.931 . S
H295 C280 0.929 . S
H296 C282 0.930 . S
Co297 N301 2.148 . S
Co297 N307 2.128 . S
Co297 N317 2.194 . S
Co297 O322 2.351 . S
Co297 O323 2.155 . S
Co297 O324 2.096 . S
C298 N301 1.301 . S
C298 N302 1.328 . S
C298 H303 0.930 . S
C299 C300 1.333 . S
C299 N301 1.317 . S
C299 H304 0.930 . S
C300 C299 1.333 . S
C300 N302 1.350 . S
C300 H326 0.931 . S
N301 Co297 2.148 . S
N301 C298 1.301 . S
N301 C299 1.317 . S
N302 C298 1.328 . S
N302 C300 1.350 . S
H303 C298 0.930 . S
H304 C299 0.930 . S
C305 O306 1.224 . S
C305 O324 1.247 . S
O306 C305 1.224 . S
N307 Co297 2.128 . S
N307 C308 1.355 . S
N307 C310 1.311 . S
C308 N307 1.355 . S
C308 C309 1.363 . S
C308 H320 0.929 . S
C309 C308 1.363 . S
C309 N311 1.375 . S
C309 H327 0.931 . S
C310 N307 1.311 . S
C310 N311 1.347 . S
C310 H321 0.929 . S
N311 C309 1.375 . S
N311 C310 1.347 . S
C312 C315 1.365 . S
C312 N317 1.328 . S
C312 H318 0.929 . S
C313 C314 1.362 . S
C313 C316 1.378 . S
C313 H328 0.929 . S
C314 C313 1.362 . S
C314 C315 1.366 . S
C315 C312 1.365 . S
C315 C314 1.366 . S
C315 H329 0.930 . S
C316 C313 1.378 . S
C316 N317 1.315 . S
C316 H319 0.930 . S
N317 Co297 2.194 . S
N317 C312 1.328 . S
N317 C316 1.315 . S
H318 C312 0.929 . S
H319 C316 0.930 . S
H320 C308 0.929 . S
H321 C310 0.929 . S
O322 Co297 2.351 . S
O322 C325 1.244 . S
O323 Co297 2.155 . S
O323 C325 1.240 . S
O324 Co297 2.096 . S
O324 C305 1.247 . S
C325 O322 1.244 . S
C325 O323 1.240 . S
H326 C300 0.931 . S
H327 C309 0.931 . S
H328 C313 0.929 . S
H329 C315 0.930 . S
Co330 N334 2.148 . S
Co330 N340 2.128 . S
Co330 N350 2.194 . S
Co330 O355 2.351 . S
Co330 O356 2.155 . S
Co330 O357 2.096 . S
C331 N334 1.301 . S
C331 N335 1.328 . S
C331 H336 0.930 . S
C332 C333 1.333 . S
C332 N334 1.317 . S
C332 H337 0.930 . S
C333 C332 1.333 . S
C333 N335 1.350 . S
C333 H359 0.931 . S
N334 Co330 2.148 . S
N334 C331 1.301 . S
N334 C332 1.317 . S
N335 C331 1.328 . S
N335 C333 1.350 . S
H336 C331 0.930 . S
H337 C332 0.930 . S
C338 O339 1.224 . S
C338 O357 1.247 . S
O339 C338 1.224 . S
N340 Co330 2.128 . S
N340 C341 1.355 . S
N340 C343 1.311 . S
C341 N340 1.355 . S
C341 C342 1.363 . S
C341 H353 0.929 . S
C342 C341 1.363 . S
C342 N344 1.375 . S
C342 H360 0.931 . S
C343 N340 1.311 . S
C343 N344 1.347 . S
C343 H354 0.929 . S
N344 C342 1.375 . S
N344 C343 1.347 . S
C345 C348 1.365 . S
C345 N350 1.328 . S
C345 H351 0.929 . S
C346 C347 1.362 . S
C346 C349 1.378 . S
C346 H361 0.929 . S
C347 C346 1.362 . S
C347 C348 1.366 . S
C348 C345 1.365 . S
C348 C347 1.366 . S
C348 H362 0.930 . S
C349 C346 1.378 . S
C349 N350 1.315 . S
C349 H352 0.930 . S
N350 Co330 2.194 . S
N350 C345 1.328 . S
N350 C349 1.315 . S
H351 C345 0.929 . S
H352 C349 0.930 . S
H353 C341 0.929 . S
H354 C343 0.929 . S
O355 Co330 2.351 . S
O355 C358 1.244 . S
O356 Co330 2.155 . S
O356 C358 1.240 . S
O357 Co330 2.096 . S
O357 C338 1.247 . S
C358 O355 1.244 . S
C358 O356 1.240 . S
H359 C333 0.931 . S
H360 C342 0.931 . S
H361 C346 0.929 . S
H362 C348 0.930 . S
Co363 N367 2.148 . S
Co363 N373 2.128 . S
Co363 N383 2.194 . S
Co363 O388 2.351 . S
Co363 O389 2.155 . S
Co363 O390 2.096 . S
C364 N367 1.301 . S
C364 N368 1.328 . S
C364 H369 0.930 . S
C365 C366 1.333 . S
C365 N367 1.317 . S
C365 H370 0.930 . S
C366 C365 1.333 . S
C366 N368 1.350 . S
C366 H392 0.931 . S
N367 Co363 2.148 . S
N367 C364 1.301 . S
N367 C365 1.317 . S
N368 C364 1.328 . S
N368 C366 1.350 . S
H369 C364 0.930 . S
H370 C365 0.930 . S
C371 O372 1.224 . S
C371 O390 1.247 . S
O372 C371 1.224 . S
N373 Co363 2.128 . S
N373 C374 1.355 . S
N373 C376 1.311 . S
C374 N373 1.355 . S
C374 C375 1.363 . S
C374 H386 0.929 . S
C375 C374 1.363 . S
C375 N377 1.375 . S
C375 H393 0.931 . S
C376 N373 1.311 . S
C376 N377 1.347 . S
C376 H387 0.929 . S
N377 C375 1.375 . S
N377 C376 1.347 . S
C378 C381 1.365 . S
C378 N383 1.328 . S
C378 H384 0.929 . S
C379 C380 1.362 . S
C379 C382 1.378 . S
C379 H394 0.929 . S
C380 C379 1.362 . S
C380 C381 1.366 . S
C381 C378 1.365 . S
C381 C380 1.366 . S
C381 H395 0.930 . S
C382 C379 1.378 . S
C382 N383 1.315 . S
C382 H385 0.930 . S
N383 Co363 2.194 . S
N383 C378 1.328 . S
N383 C382 1.315 . S
H384 C378 0.929 . S
H385 C382 0.930 . S
H386 C374 0.929 . S
H387 C376 0.929 . S
O388 Co363 2.351 . S
O388 C391 1.244 . S
O389 Co363 2.155 . S
O389 C391 1.240 . S
O390 Co363 2.096 . S
O390 C371 1.247 . S
C391 O388 1.244 . S
C391 O389 1.240 . S
H392 C366 0.931 . S
H393 C375 0.931 . S
H394 C379 0.929 . S
H395 C381 0.930 . S
Co396 N400 2.148 . S
Co396 N406 2.128 . S
Co396 N416 2.194 . S
Co396 O421 2.351 . S
Co396 O422 2.155 . S
Co396 O423 2.096 . S
C397 N400 1.301 . S
C397 N401 1.328 . S
C397 H402 0.930 . S
C398 C399 1.333 . S
C398 N400 1.317 . S
C398 H403 0.930 . S
C399 C398 1.333 . S
C399 N401 1.350 . S
C399 H425 0.931 . S
N400 Co396 2.148 . S
N400 C397 1.301 . S
N400 C398 1.317 . S
N401 C397 1.328 . S
N401 C399 1.350 . S
H402 C397 0.930 . S
H403 C398 0.930 . S
C404 O405 1.224 . S
C404 O423 1.247 . S
O405 C404 1.224 . S
N406 Co396 2.128 . S
N406 C407 1.355 . S
N406 C409 1.311 . S
C407 N406 1.355 . S
C407 C408 1.363 . S
C407 H419 0.929 . S
C408 C407 1.363 . S
C408 N410 1.375 . S
C408 H426 0.931 . S
C409 N406 1.311 . S
C409 N410 1.347 . S
C409 H420 0.929 . S
N410 C408 1.375 . S
N410 C409 1.347 . S
C411 C414 1.365 . S
C411 N416 1.328 . S
C411 H417 0.929 . S
C412 C413 1.362 . S
C412 C415 1.378 . S
C412 H427 0.929 . S
C413 C412 1.362 . S
C413 C414 1.366 . S
C414 C411 1.365 . S
C414 C413 1.366 . S
C414 H428 0.930 . S
C415 C412 1.378 . S
C415 N416 1.315 . S
C415 H418 0.930 . S
N416 Co396 2.194 . S
N416 C411 1.328 . S
N416 C415 1.315 . S
H417 C411 0.929 . S
H418 C415 0.930 . S
H419 C407 0.929 . S
H420 C409 0.929 . S
O421 Co396 2.351 . S
O421 C424 1.244 . S
O422 Co396 2.155 . S
O422 C424 1.240 . S
O423 Co396 2.096 . S
O423 C404 1.247 . S
C424 O421 1.244 . S
C424 O422 1.240 . S
H425 C399 0.931 . S
H426 C408 0.931 . S
H427 C412 0.929 . S
H428 C414 0.930 . S
Co429 N433 2.148 . S
Co429 N439 2.128 . S
Co429 N449 2.194 . S
Co429 O454 2.351 . S
Co429 O455 2.155 . S
Co429 O456 2.096 . S
C430 N433 1.301 . S
C430 N434 1.328 . S
C430 H435 0.930 . S
C431 C432 1.333 . S
C431 N433 1.317 . S
C431 H436 0.930 . S
C432 C431 1.333 . S
C432 N434 1.350 . S
C432 H458 0.931 . S
N433 Co429 2.148 . S
N433 C430 1.301 . S
N433 C431 1.317 . S
N434 C430 1.328 . S
N434 C432 1.350 . S
H435 C430 0.930 . S
H436 C431 0.930 . S
C437 O438 1.224 . S
C437 O456 1.247 . S
O438 C437 1.224 . S
N439 Co429 2.128 . S
N439 C440 1.355 . S
N439 C442 1.311 . S
C440 N439 1.355 . S
C440 C441 1.363 . S
C440 H452 0.929 . S
C441 C440 1.363 . S
C441 N443 1.375 . S
C441 H459 0.931 . S
C442 N439 1.311 . S
C442 N443 1.347 . S
C442 H453 0.929 . S
N443 C441 1.375 . S
N443 C442 1.347 . S
C444 C447 1.365 . S
C444 N449 1.328 . S
C444 H450 0.929 . S
C445 C446 1.362 . S
C445 C448 1.378 . S
C445 H460 0.929 . S
C446 C445 1.362 . S
C446 C447 1.366 . S
C447 C444 1.365 . S
C447 C446 1.366 . S
C447 H461 0.930 . S
C448 C445 1.378 . S
C448 N449 1.315 . S
C448 H451 0.930 . S
N449 Co429 2.194 . S
N449 C444 1.328 . S
N449 C448 1.315 . S
H450 C444 0.929 . S
H451 C448 0.930 . S
H452 C440 0.929 . S
H453 C442 0.929 . S
O454 Co429 2.351 . S
O454 C457 1.244 . S
O455 Co429 2.155 . S
O455 C457 1.240 . S
O456 Co429 2.096 . S
O456 C437 1.247 . S
C457 O454 1.244 . S
C457 O455 1.240 . S
H458 C432 0.931 . S
H459 C441 0.931 . S
H460 C445 0.929 . S
H461 C447 0.930 . S
Co462 N466 2.148 . S
Co462 N472 2.128 . S
Co462 N482 2.194 . S
Co462 O487 2.351 . S
Co462 O488 2.155 . S
Co462 O489 2.096 . S
C463 N466 1.301 . S
C463 N467 1.328 . S
C463 H468 0.930 . S
C464 C465 1.333 . S
C464 N466 1.317 . S
C464 H469 0.930 . S
C465 C464 1.333 . S
C465 N467 1.350 . S
C465 H491 0.931 . S
N466 Co462 2.148 . S
N466 C463 1.301 . S
N466 C464 1.317 . S
N467 C463 1.328 . S
N467 C465 1.350 . S
H468 C463 0.930 . S
H469 C464 0.930 . S
C470 O471 1.224 . S
C470 O489 1.247 . S
O471 C470 1.224 . S
N472 Co462 2.128 . S
N472 C473 1.355 . S
N472 C475 1.311 . S
C473 N472 1.355 . S
C473 C474 1.363 . S
C473 H485 0.929 . S
C474 C473 1.363 . S
C474 N476 1.375 . S
C474 H492 0.931 . S
C475 N472 1.311 . S
C475 N476 1.347 . S
C475 H486 0.929 . S
N476 C474 1.375 . S
N476 C475 1.347 . S
C477 C480 1.365 . S
C477 N482 1.328 . S
C477 H483 0.929 . S
C478 C479 1.362 . S
C478 C481 1.378 . S
C478 H493 0.929 . S
C479 C478 1.362 . S
C479 C480 1.366 . S
C480 C477 1.365 . S
C480 C479 1.366 . S
C480 H494 0.930 . S
C481 C478 1.378 . S
C481 N482 1.315 . S
C481 H484 0.930 . S
N482 Co462 2.194 . S
N482 C477 1.328 . S
N482 C481 1.315 . S
H483 C477 0.929 . S
H484 C481 0.930 . S
H485 C473 0.929 . S
H486 C475 0.929 . S
O487 Co462 2.351 . S
O487 C490 1.244 . S
O488 Co462 2.155 . S
O488 C490 1.240 . S
O489 Co462 2.096 . S
O489 C470 1.247 . S
C490 O487 1.244 . S
C490 O488 1.240 . S
H491 C465 0.931 . S
H492 C474 0.931 . S
H493 C478 0.929 . S
H494 C480 0.930 . S
Co495 N499 2.148 . S
Co495 N505 2.128 . S
Co495 N515 2.194 . S
Co495 O520 2.351 . S
Co495 O521 2.155 . S
Co495 O522 2.096 . S
C496 N499 1.301 . S
C496 N500 1.328 . S
C496 H501 0.930 . S
C497 C498 1.333 . S
C497 N499 1.317 . S
C497 H502 0.930 . S
C498 C497 1.333 . S
C498 N500 1.350 . S
C498 H524 0.931 . S
N499 Co495 2.148 . S
N499 C496 1.301 . S
N499 C497 1.317 . S
N500 C496 1.328 . S
N500 C498 1.350 . S
H501 C496 0.930 . S
H502 C497 0.930 . S
C503 O504 1.224 . S
C503 O522 1.247 . S
O504 C503 1.224 . S
N505 Co495 2.128 . S
N505 C506 1.355 . S
N505 C508 1.311 . S
C506 N505 1.355 . S
C506 C507 1.363 . S
C506 H518 0.929 . S
C507 C506 1.363 . S
C507 N509 1.375 . S
C507 H525 0.931 . S
C508 N505 1.311 . S
C508 N509 1.347 . S
C508 H519 0.929 . S
N509 C507 1.375 . S
N509 C508 1.347 . S
C510 C513 1.365 . S
C510 N515 1.328 . S
C510 H516 0.929 . S
C511 C512 1.362 . S
C511 C514 1.378 . S
C511 H526 0.929 . S
C512 C511 1.362 . S
C512 C513 1.366 . S
C513 C510 1.365 . S
C513 C512 1.366 . S
C513 H527 0.930 . S
C514 C511 1.378 . S
C514 N515 1.315 . S
C514 H517 0.930 . S
N515 Co495 2.194 . S
N515 C510 1.328 . S
N515 C514 1.315 . S
H516 C510 0.929 . S
H517 C514 0.930 . S
H518 C506 0.929 . S
H519 C508 0.929 . S
O520 Co495 2.351 . S
O520 C523 1.244 . S
O521 Co495 2.155 . S
O521 C523 1.240 . S
O522 Co495 2.096 . S
O522 C503 1.247 . S
C523 O520 1.244 . S
C523 O521 1.240 . S
H524 C498 0.931 . S
H525 C507 0.931 . S
H526 C511 0.929 . S
H527 C513 0.930 . S
N410 N5 1.557 1_655 S
N47 N434 1.363 1_545 S
N71 N476 1.557 1_655 S
N113 N500 1.363 1_565 S
N269 N146 1.363 1_655 S
N311 N170 1.557 1_565 S
N212 N335 1.363 1_655 S
N377 N236 1.557 1_545 S
C17 C479 1.175 . S
C512 C50 1.087 . S
C413 C83 1.175 . S
C446 C116 1.087 . S
C347 C149 1.087 . S
C380 C182 1.175 . S
C281 C215 1.087 . S
C314 C248 1.175 . S
C8 C358 1.730 1_554 S
C371 C61 1.833 . S
C292 C74 1.730 1_556 S
C305 C127 1.833 . S
C160 C470 1.833 1_556 S
C173 C523 1.730 . S
C404 C226 1.833 1_554 S
C239 C457 1.730 . S
N401 N14 1.777 . S
N38 N443 1.968 . S
N80 N467 1.777 . S
N509 N104 1.968 . S
N278 N137 1.968 . S
N179 N302 1.777 . S
N344 N203 1.968 . S
N368 N245 1.777 . S
C193 C28 2.644 . S
C206 C41 2.444 . S
C94 C259 2.644 . S
C140 C107 2.444 . S
C272 C437 2.667 . S
C490 C325 2.856 . S
C503 C338 2.667 . S
C391 C424 2.856 . S
