# Generated by pormake.
# Topology wfa, (4)-cn, num edge types: 1
# Building blocks:
#     Node 0, Type 0, BuildingBlock: ESEHIV_clean_sbu_0, # of connection points: 4
#     Node 1, Type 0, BuildingBlock: ESEHIV_clean_sbu_0, # of connection points: 4
#     Node 2, Type 0, BuildingBlock: ESEHIV_clean_sbu_0, # of connection points: 4
#     Node 3, Type 0, BuildingBlock: ESEHIV_clean_sbu_0, # of connection points: 4
#     Node 4, Type 0, BuildingBlock: ESEHIV_clean_sbu_0, # of connection points: 4
#     Node 5, Type 0, BuildingBlock: ESEHIV_clean_sbu_0, # of connection points: 4
#     Node 6, Type 0, BuildingBlock: ESEHIV_clean_sbu_0, # of connection points: 4
#     Node 7, Type 0, BuildingBlock: ESEHIV_clean_sbu_0, # of connection points: 4
#     Node 8, Type 0, BuildingBlock: ESEHIV_clean_sbu_0, # of connection points: 4
#     Node 9, Type 0, BuildingBlock: ESEHIV_clean_sbu_0, # of connection points: 4
#     Node 10, Type 0, BuildingBlock: ESEHIV_clean_sbu_0, # of connection points: 4
#     Node 11, Type 0, BuildingBlock: ESEHIV_clean_sbu_0, # of connection points: 4
#     Node 12, Type 0, BuildingBlock: ESEHIV_clean_sbu_0, # of connection points: 4
#     Node 13, Type 0, BuildingBlock: ESEHIV_clean_sbu_0, # of connection points: 4
#     Node 14, Type 0, BuildingBlock: ESEHIV_clean_sbu_0, # of connection points: 4
#     Node 15, Type 0, BuildingBlock: ESEHIV_clean_sbu_0, # of connection points: 4
#     Edge 16, Type (0, 0), BuildingBlock: UVAHIK_clean_linker_0, # of connection points: 2
#     Edge 17, Type (0, 0), BuildingBlock: UVAHIK_clean_linker_0, # of connection points: 2
#     Edge 18, Type (0, 0), BuildingBlock: UVAHIK_clean_linker_0, # of connection points: 2
#     Edge 19, Type (0, 0), BuildingBlock: UVAHIK_clean_linker_0, # of connection points: 2
#     Edge 20, Type (0, 0), BuildingBlock: UVAHIK_clean_linker_0, # of connection points: 2
#     Edge 21, Type (0, 0), BuildingBlock: UVAHIK_clean_linker_0, # of connection points: 2
#     Edge 22, Type (0, 0), BuildingBlock: UVAHIK_clean_linker_0, # of connection points: 2
#     Edge 23, Type (0, 0), BuildingBlock: UVAHIK_clean_linker_0, # of connection points: 2
#     Edge 24, Type (0, 0), BuildingBlock: UVAHIK_clean_linker_0, # of connection points: 2
#     Edge 25, Type (0, 0), BuildingBlock: UVAHIK_clean_linker_0, # of connection points: 2
#     Edge 26, Type (0, 0), BuildingBlock: UVAHIK_clean_linker_0, # of connection points: 2
#     Edge 27, Type (0, 0), BuildingBlock: UVAHIK_clean_linker_0, # of connection points: 2
#     Edge 28, Type (0, 0), BuildingBlock: UVAHIK_clean_linker_0, # of connection points: 2
#     Edge 29, Type (0, 0), BuildingBlock: UVAHIK_clean_linker_0, # of connection points: 2
#     Edge 30, Type (0, 0), BuildingBlock: UVAHIK_clean_linker_0, # of connection points: 2
#     Edge 31, Type (0, 0), BuildingBlock: UVAHIK_clean_linker_0, # of connection points: 2
#     Edge 32, Type (0, 0), BuildingBlock: UVAHIK_clean_linker_0, # of connection points: 2
#     Edge 33, Type (0, 0), BuildingBlock: UVAHIK_clean_linker_0, # of connection points: 2
#     Edge 34, Type (0, 0), BuildingBlock: UVAHIK_clean_linker_0, # of connection points: 2
#     Edge 35, Type (0, 0), BuildingBlock: UVAHIK_clean_linker_0, # of connection points: 2
#     Edge 36, Type (0, 0), BuildingBlock: UVAHIK_clean_linker_0, # of connection points: 2
#     Edge 37, Type (0, 0), BuildingBlock: UVAHIK_clean_linker_0, # of connection points: 2
#     Edge 38, Type (0, 0), BuildingBlock: UVAHIK_clean_linker_0, # of connection points: 2
#     Edge 39, Type (0, 0), BuildingBlock: UVAHIK_clean_linker_0, # of connection points: 2
#     Edge 40, Type (0, 0), BuildingBlock: UVAHIK_clean_linker_0, # of connection points: 2
#     Edge 41, Type (0, 0), BuildingBlock: UVAHIK_clean_linker_0, # of connection points: 2
#     Edge 42, Type (0, 0), BuildingBlock: UVAHIK_clean_linker_0, # of connection points: 2
#     Edge 43, Type (0, 0), BuildingBlock: UVAHIK_clean_linker_0, # of connection points: 2
#     Edge 44, Type (0, 0), BuildingBlock: UVAHIK_clean_linker_0, # of connection points: 2
#     Edge 45, Type (0, 0), BuildingBlock: UVAHIK_clean_linker_0, # of connection points: 2
#     Edge 46, Type (0, 0), BuildingBlock: UVAHIK_clean_linker_0, # of connection points: 2
#     Edge 47, Type (0, 0), BuildingBlock: UVAHIK_clean_linker_0, # of connection points: 2
# Relax obj value: 0.136
# Max RMSD: 0.160
# Mean RMSD: 0.152
data_MOF--net-wfa--node1-ESEHIV_clean_sbu_0--edge1-UVAHIK_clean_linker_0
_symmetry_space_group_name_H-M    P1
_symmetry_Int_Tables_number       1
_symmetry_cell_setting            triclinic
loop_
_symmetry_equiv_pos_as_xyz
'x, y, z'
_cell_length_a     67.646817
_cell_length_b     67.73973
_cell_length_c     29.163677
_cell_angle_alpha  88.412811
_cell_angle_beta   88.398226
_cell_angle_gamma 88.728339
loop_
_atom_site_label
_atom_site_type_symbol
_atom_site_fract_x
_atom_site_fract_y
_atom_site_fract_z
_atom_type_partial_charge
Cu0 Cu 0.67019 0.9996 0.05942 0.0
N1 N 0.66572 0.98002 0.10422 0.0
N2 N 0.65835 0.97385 0.17838 0.0
C3 C 0.65362 0.98425 0.14005 0.0
C4 C 0.67384 0.96209 0.16575 0.0
C5 C 0.67834 0.96591 0.11984 0.0
O6 O 0.64367 1.01016 0.0448 0.0
C7 C 0.706 1.0101 0.09353 0.0
O8 O 0.71104 0.99401 0.07159 0.0
H9 H 0.64382 0.99712 0.13996 0.0
H10 H 0.69146 0.96079 0.10131 0.0
N11 N 0.68288 0.99014 1.00601 0.0
N12 N 0.70246 0.9894 0.94284 0.0
C13 C 0.69474 1.00059 0.97687 0.0
C14 C 0.68308 0.97172 0.98988 0.0
C15 C 0.69505 0.97124 0.9508 0.0
C16 C 0.63216 0.99748 0.02874 0.0
O17 O 0.63934 0.97963 0.02147 0.0
H18 H 0.69783 0.01604 0.98096 0.0
H19 H 0.67538 0.95941 1.00594 0.0
O20 O 0.68825 0.01683 0.0906 0.0
H21 H 0.68263 0.95308 0.18907 0.0
H22 H 0.69852 0.95838 0.93065 0.0
Cu23 Cu 0.51318 0.65155 0.02822 0.0
N24 N 0.48732 0.64339 0.04023 0.0
N25 N 0.46249 0.62399 0.06375 0.0
C26 C 0.48194 0.62493 0.05252 0.0
C27 C 0.45531 0.64263 0.05791 0.0
C28 C 0.47067 0.65456 0.04325 0.0
O29 O 0.52982 0.62742 0.02956 0.0
C30 C 0.51289 0.6712 0.11382 0.0
O31 O 0.50203 0.65634 0.1284 0.0
H32 H 0.49228 0.61259 0.05535 0.0
H33 H 0.46992 0.67036 0.03682 0.0
N34 N 0.51491 0.66278 0.96879 0.0
N35 N 0.51671 0.68415 0.90877 0.0
C36 C 0.51419 0.68198 0.9549 0.0
C37 C 0.51784 0.65253 0.93031 0.0
C38 C 0.51896 0.66559 0.89338 0.0
C39 C 0.53287 0.61699 0.06583 0.0
O40 O 0.52691 0.6239 0.10562 0.0
H41 H 0.51224 0.69408 0.9782 0.0
H42 H 0.51915 0.6366 0.9293 0.0
O43 O 0.51977 0.67147 0.07261 0.0
H44 H 0.44016 0.6474 0.06461 0.0
H45 H 0.52107 0.66166 0.85783 0.0
Cu46 Cu 0.86117 0.48795 0.02573 0.0
N47 N 0.87048 0.46461 0.05363 0.0
N48 N 0.89206 0.44238 0.08203 0.0
C49 C 0.88954 0.46053 0.0627 0.0
C50 C 0.87378 0.43477 0.08565 0.0
C51 C 0.86048 0.44853 0.06787 0.0
O52 O 0.885 0.50387 0.01628 0.0
C53 C 0.84286 0.50062 0.1094 0.0
O54 O 0.85973 0.4947 0.12696 0.0
H55 H 0.90132 0.47083 0.05602 0.0
H56 H 0.84468 0.44692 0.06529 0.0
N57 N 0.8497 0.48134 0.97043 0.0
N58 N 0.82917 0.47969 0.91157 0.0
C59 C 0.83424 0.48994 0.94865 0.0
C60 C 0.85439 0.46508 0.9467 0.0
C61 C 0.84191 0.46406 0.91048 0.0
C62 C 0.89768 0.49938 0.98477 0.0
O63 O 0.89295 0.48638 0.95461 0.0
H64 H 0.82675 0.50326 0.96017 0.0
H65 H 0.86583 0.45439 0.9559 0.0
O66 O 0.84084 0.49981 0.06616 0.0
H67 H 0.87031 0.42025 0.09962 0.0
H68 H 0.84185 0.45227 0.88621 0.0
Cu69 Cu 0.01586 0.87358 0.02217 0.0
N70 N 0.03894 0.88322 0.04652 0.0
N71 N 0.05939 0.90358 0.08003 0.0
C72 C 0.04073 0.90073 0.06667 0.0
C73 C 0.06974 0.88722 0.06755 0.0
C74 C 0.05707 0.87468 0.04696 0.0
O75 O 0.99963 0.89724 0.00862 0.0
C76 C 1.00702 0.85499 0.10904 0.0
O77 O 0.0168 0.86982 0.12461 0.0
H78 H 0.0286 0.91124 0.07109 0.0
H79 H 0.06079 0.86035 0.03326 0.0
N80 N 0.02299 0.8609 0.96734 0.0
N81 N 0.02669 0.83887 0.91145 0.0
C82 C 0.01678 0.84369 0.95079 0.0
C83 C 0.03712 0.86714 0.93733 0.0
C84 C 0.03946 0.85365 0.90304 0.0
C85 C 0.98824 0.90593 0.03763 0.0
O86 O 0.9847 0.89737 0.07788 0.0
H87 H 1.00565 0.83465 0.96784 0.0
H88 H 0.04539 0.88049 0.94064 0.0
O89 O 1.00398 0.85441 0.0661 0.0
H90 H 0.08527 0.88435 0.07356 0.0
H91 H 0.04973 0.8547 0.87398 0.0
Cu92 Cu 0.16836 0.01385 0.47417 0.0
N93 N 0.16028 0.03397 0.43342 0.0
N94 N 0.14513 0.04067 0.36728 0.0
C95 C 0.14411 0.03133 0.40862 0.0
C96 C 0.16248 0.05016 0.36642 0.0
C97 C 0.17176 0.04608 0.40737 0.0
O98 O 0.14344 1.00066 0.4905 0.0
C99 C 0.20518 1.0063 0.43396 0.0
O100 O 0.2087 0.02214 0.45709 0.0
H101 H 0.13351 0.01999 0.41714 0.0
H102 H 0.18691 0.04939 0.41451 0.0
N103 N 0.18054 0.02272 0.52688 0.0
N104 N 0.20052 0.0228 0.58686 0.0
C105 C 0.19366 1.01222 0.55231 0.0
C106 C 0.17909 0.04058 0.54596 0.0
C107 C 0.19127 0.04061 0.58321 0.0
C108 C 0.13178 1.00904 0.51958 0.0
O109 O 0.1385 0.02355 0.54319 0.0
H110 H 0.19826 0.99718 0.54521 0.0
H111 H 0.17 0.05277 0.53332 0.0
O112 O 0.18803 0.99877 0.43784 0.0
H113 H 0.169 0.05756 0.33648 0.0
H114 H 0.19358 0.05295 0.6051 0.0
Cu115 Cu 0.55409 0.15684 0.49782 0.0
N116 N 0.57955 0.14766 0.48226 0.0
N117 N 0.60363 0.12639 0.46086 0.0
C118 C 0.58542 0.12857 0.48041 0.0
C119 C 0.60961 0.14497 0.45092 0.0
C120 C 0.59472 0.15805 0.46422 0.0
O121 O 0.53807 0.13311 0.50256 0.0
C122 C 0.53196 0.18833 0.45151 0.0
O123 O 0.52053 0.18871 0.48865 0.0
H124 H 0.57598 0.11644 0.49045 0.0
H125 H 0.59455 0.17392 0.45898 0.0
N126 N 0.55493 0.16818 0.55572 0.0
N127 N 0.55609 0.18893 0.61407 0.0
C128 C 0.55323 0.18719 0.56856 0.0
C129 C 0.5589 0.15769 0.59431 0.0
C130 C 0.55964 0.17037 0.63021 0.0
C131 C 0.53702 0.12165 0.46881 0.0
O132 O 0.54394 0.12774 0.42841 0.0
H133 H 0.55052 0.19952 0.545 0.0
H134 H 0.56134 0.14185 0.59599 0.0
O135 O 0.5462 0.17574 0.44927 0.0
H136 H 0.6234 0.14886 0.43367 0.0
H137 H 0.56246 0.16624 0.66558 0.0
Cu138 Cu 0.35953 0.50379 0.48033 0.0
N139 N 0.36626 0.48611 0.43453 0.0
N140 N 0.37878 0.48187 0.36358 0.0
C141 C 0.38092 0.4905 0.40417 0.0
C142 C 0.36221 0.47117 0.36898 0.0
C143 C 0.3545 0.47383 0.41287 0.0
O144 O 0.38509 0.51442 0.49677 0.0
C145 C 0.32373 0.51709 0.44426 0.0
O146 O 0.3177 0.50087 0.46544 0.0
H147 H 0.39114 0.50226 0.40933 0.0
H148 H 0.34012 0.46923 0.42573 0.0
N149 N 0.34638 0.49182 0.53128 0.0
N150 N 0.32502 0.48736 0.59084 0.0
C151 C 0.33345 0.50055 0.56094 0.0
C152 C 0.3463 0.47249 0.54304 0.0
C153 C 0.33324 0.4697 0.57969 0.0
C154 C 0.39704 0.50276 0.518 0.0
O155 O 0.39061 0.48555 0.53306 0.0
H156 H 0.32959 0.51613 0.55895 0.0
H157 H 0.35477 0.46115 0.52537 0.0
O158 O 0.34158 0.52234 0.44865 0.0
H159 H 0.35512 0.46361 0.34188 0.0
H160 H 0.32991 0.45565 0.59636 0.0
Cu161 Cu 1.01064 0.36683 0.4704 0.0
N162 N 0.03185 0.37171 0.43004 0.0
N163 N 0.04171 0.38091 0.35903 0.0
C164 C 0.02946 0.38473 0.39503 0.0
C165 C 0.05271 0.36501 0.37244 0.0
C166 C 0.04665 0.35941 0.4165 0.0
O167 O 0.9989 0.39329 0.48161 0.0
C168 C 1.00217 0.3308 0.43327 0.0
O169 O 0.01784 0.32601 0.45708 0.0
H170 H 0.01674 0.39469 0.39311 0.0
H171 H 0.05092 0.34591 0.43461 0.0
N172 N 0.01883 0.35453 0.52549 0.0
N173 N 0.0199 0.33371 0.58663 0.0
C174 C 1.00881 0.3413 0.55215 0.0
C175 C 0.03676 0.35549 0.54392 0.0
C176 C 0.03745 0.34279 0.58158 0.0
C177 C 1.01036 0.40551 0.49963 0.0
O178 O 0.02786 0.39903 0.51237 0.0
H179 H 0.99408 0.33656 0.54482 0.0
H180 H 0.04874 0.36435 0.53005 0.0
O181 O 0.99496 0.34836 0.43598 0.0
H182 H 0.06278 0.35676 0.3503 0.0
H183 H 0.05009 0.34022 0.60304 0.0
Cu184 Cu 0.38092 0.01665 0.95776 0.0
N185 N 0.383 0.03698 0.91377 0.0
N186 N 0.38665 0.04354 0.83851 0.0
C187 C 0.39383 0.03365 0.87532 0.0
C188 C 0.37078 0.05387 0.85457 0.0
C189 C 0.36868 0.04998 0.9012 0.0
O190 O 0.40821 1.00739 0.9689 0.0
C191 C 0.34525 1.00433 0.92631 0.0
O192 O 0.33955 0.01962 0.95042 0.0
H193 H 0.40436 0.02141 0.87272 0.0
H194 H 0.3559 0.05385 0.92246 0.0
N195 N 0.36876 0.02477 0.01307 0.0
N196 N 0.34972 0.02409 0.07713 0.0
C197 C 0.35707 0.01372 0.04136 0.0
C198 C 0.36886 0.04272 0.03169 0.0
C199 C 0.35723 0.04232 0.07134 0.0
C200 C 0.41961 0.0205 0.98353 0.0
O201 O 0.41205 0.03818 0.99107 0.0
H202 H 0.35374 0.99847 0.03534 0.0
H203 H 0.37647 0.05534 0.0169 0.0
O204 O 0.3634 0.99869 0.92717 0.0
H205 H 0.36004 0.06151 0.83328 0.0
H206 H 0.35399 0.05466 0.09333 0.0
Cu207 Cu 0.52659 0.3766 0.99192 0.0
N208 N 0.50986 0.3932 0.95747 0.0
N209 N 0.50426 0.41846 0.90823 0.0
C210 C 0.51755 0.40506 0.92417 0.0
C211 C 0.48733 0.41488 0.93225 0.0
C212 C 0.49079 0.39914 0.96251 0.0
O213 O 0.54591 0.39581 0.01012 0.0
C214 C 0.52483 0.34851 0.92466 0.0
O215 O 0.50607 0.35378 0.92879 0.0
H216 H 0.53307 0.40469 0.91401 0.0
H217 H 0.48028 0.39308 0.98728 0.0
N218 N 0.51417 0.36391 0.04314 0.0
N219 N 0.50887 0.34261 0.10257 0.0
C220 C 0.52075 0.3475 0.06593 0.0
C221 C 0.49759 0.36958 0.06612 0.0
C222 C 0.49425 0.35653 0.10239 0.0
C223 C 0.54247 0.40602 0.0457 0.0
O224 O 0.52904 0.40002 0.07598 0.0
H225 H 0.53428 0.33965 0.05637 0.0
H226 H 0.48882 0.38266 0.05822 0.0
O227 O 0.53721 0.35652 0.95023 0.0
H228 H 0.47364 0.42331 0.92894 0.0
H229 H 0.48195 0.35742 0.1268 0.0
Cu230 Cu 0.14416 0.54063 0.99413 0.0
N231 N 0.13349 0.56368 0.96751 0.0
N232 N 0.10992 0.58326 0.93709 0.0
C233 C 0.11597 0.56452 0.94686 0.0
C234 C 0.12453 0.59465 0.95167 0.0
C235 C 0.13903 0.58252 0.97055 0.0
O236 O 0.12095 0.52363 1.00155 0.0
C237 C 0.16286 0.52871 0.91022 0.0
O238 O 0.14563 0.53356 0.89297 0.0
H239 H 0.10766 0.5515 0.9403 0.0
H240 H 0.15217 0.58714 0.98723 0.0
N241 N 0.15506 0.54697 0.0505 0.0
N242 N 0.17491 0.54868 0.11049 0.0
C243 C 0.17156 0.53967 0.07062 0.0
C244 C 0.14813 0.56129 0.07815 0.0
C245 C 0.16015 0.56223 0.11521 0.0
C246 C 0.10744 0.5281 0.03121 0.0
O247 O 0.11106 0.54162 0.06101 0.0
H248 H 0.18091 0.52806 0.05637 0.0
H249 H 0.13536 0.57069 0.07141 0.0
O250 O 0.16503 0.52999 0.9533 0.0
H251 H 0.12444 0.61063 0.95074 0.0
H252 H 0.15849 0.5725 0.14291 0.0
Cu253 Cu 0.99002 0.14862 0.98839 0.0
N254 N 1.00735 0.13162 0.95653 0.0
N255 N 0.01374 0.10499 0.91435 0.0
C256 C 0.99977 0.11732 0.93176 0.0
C257 C 0.0311 0.11209 0.92778 0.0
C258 C 0.0271 0.12855 0.95416 0.0
O259 O 0.97006 0.12937 0.00846 0.0
C260 C 0.99727 0.17939 0.92922 0.0
O261 O 0.01458 0.17526 0.94695 0.0
H262 H 0.98405 0.11579 0.92739 0.0
H263 H 0.03776 0.13726 0.97115 0.0
N264 N 1.00098 0.16088 0.0389 0.0
N265 N 1.00436 0.18163 0.09679 0.0
C266 C 0.99316 0.17653 0.06141 0.0
C267 C 0.01781 0.15608 0.06049 0.0
C268 C 0.01988 0.16873 0.09622 0.0
C269 C 0.97675 0.1162 0.03655 0.0
O270 O 0.99249 0.12035 0.05946 0.0
H271 H 0.97931 0.18378 0.0525 0.0
H272 H 0.02776 0.14403 0.05134 0.0
O273 O 0.9825 0.16933 0.94358 0.0
H274 H 0.04552 0.10547 0.92054 0.0
H275 H 0.03196 0.16852 0.1198 0.0
Cu276 Cu 0.88598 1.00751 0.54099 0.0
N277 N 0.89859 0.98732 0.5751 0.0
N278 N 0.92068 0.97848 0.62822 0.0
C279 C 0.91691 0.98977 0.59061 0.0
C280 C 0.90413 0.96801 0.63627 0.0
C281 C 0.89053 0.97346 0.60339 0.0
O282 O 0.90803 0.02504 0.52486 0.0
C283 C 0.84954 1.00809 0.58658 0.0
O284 O 0.84822 0.99219 0.56217 0.0
H285 H 0.9262 1.00173 0.579 0.0
H286 H 0.87518 0.96935 0.6037 0.0
N287 N 0.87398 0.99873 0.48794 0.0
N288 N 0.85373 0.99799 0.42848 0.0
C289 C 0.85952 1.00831 0.46461 0.0
C290 C 0.87736 0.98172 0.46601 0.0
C291 C 0.86501 0.98129 0.42915 0.0
C292 C 0.91946 0.02039 0.49104 0.0
O293 O 0.91314 1.00782 0.4616 0.0
H294 H 0.85339 0.02258 0.47399 0.0
H295 H 0.88803 0.97042 0.47622 0.0
O296 O 0.8652 0.01825 0.58215 0.0
H297 H 0.90131 0.95859 0.66623 0.0
H298 H 0.86412 0.96942 0.40525 0.0
Cu299 Cu 0.50771 0.87462 0.51481 0.0
N300 N 0.48093 0.88216 0.51748 0.0
N301 N 0.45466 0.90197 0.53215 0.0
C302 C 0.47437 0.9008 0.52383 0.0
C303 C 0.44849 0.88317 0.53012 0.0
C304 C 0.46473 0.87099 0.52095 0.0
O305 O 0.52224 0.89933 0.51648 0.0
C306 C 0.50433 0.85513 0.60337 0.0
O307 O 0.49051 0.86858 0.61169 0.0
H308 H 0.48411 0.91314 0.52532 0.0
H309 H 0.46488 0.85505 0.51946 0.0
N310 N 0.5142 0.86276 0.45885 0.0
N311 N 0.51904 0.84079 0.40339 0.0
C312 C 0.50976 0.84468 0.44403 0.0
C313 C 0.52648 0.8705 0.42639 0.0
C314 C 0.52951 0.85703 0.3923 0.0
C315 C 0.52184 0.91063 0.55077 0.0
O316 O 0.51383 0.90423 0.58979 0.0
H317 H 0.50059 0.83434 0.46339 0.0
H318 H 0.53318 0.88481 0.42804 0.0
O319 O 0.51378 0.85572 0.5649 0.0
H320 H 0.43349 0.87839 0.53659 0.0
H321 H 0.53884 0.85896 0.3618 0.0
Cu322 Cu 0.64356 0.52503 0.53369 0.0
N323 N 0.6302 0.54343 0.57081 0.0
N324 N 0.60678 0.55079 0.62382 0.0
C325 C 0.61163 0.54025 0.58656 0.0
C326 C 0.62296 0.56135 0.63182 0.0
C327 C 0.63738 0.55685 0.59888 0.0
O328 O 0.62188 0.50859 0.51441 0.0
C329 C 0.67842 0.52193 0.58116 0.0
O330 O 0.68032 0.53925 0.56036 0.0
H331 H 0.60274 0.52841 0.57498 0.0
H332 H 0.65256 0.5615 0.59854 0.0
N333 N 0.65688 0.53672 0.48265 0.0
N334 N 0.67903 0.54105 0.42467 0.0
C335 C 0.67112 0.52816 0.45603 0.0
C336 C 0.65567 0.55564 0.46761 0.0
C337 C 0.66924 0.55835 0.4319 0.0
C338 C 0.6101 0.51643 0.48524 0.0
O339 O 0.61565 0.53253 0.46277 0.0
H340 H 0.6761 0.51298 0.4609 0.0
H341 H 0.64587 0.56677 0.48225 0.0
O342 O 0.66319 0.51188 0.5731 0.0
H343 H 0.62482 0.57034 0.66146 0.0
H344 H 0.67175 0.57206 0.41294 0.0
Cu345 Cu 0.98166 0.6569 0.53805 0.0
N346 N 0.96185 0.65068 0.58133 0.0
N347 N 0.95508 0.64158 0.65417 0.0
C348 C 0.96625 0.63815 0.61623 0.0
C349 C 0.94278 0.65672 0.6425 0.0
C350 C 0.94679 0.66215 0.59719 0.0
O351 O 0.99355 0.63095 0.52251 0.0
C352 C 0.98952 0.69126 0.58192 0.0
O353 O 0.97267 0.69579 0.56255 0.0
H354 H 0.97968 0.62913 0.61635 0.0
H355 H 0.94107 0.67522 0.57956 0.0
N356 N 0.97163 0.67027 0.48591 0.0
N357 N 0.96889 0.69163 0.42614 0.0
C358 C 0.98061 0.68443 0.45986 0.0
C359 C 0.95361 0.66856 0.46823 0.0
C360 C 0.95192 0.68159 0.4313 0.0
C361 C 0.98188 0.61873 0.5052 0.0
O362 O 0.96393 0.62496 0.49538 0.0
H363 H 0.99536 0.68946 0.46586 0.0
H364 H 0.94231 0.65882 0.48188 0.0
O365 O 0.99809 0.67482 0.57217 0.0
H366 H 0.93336 0.66479 0.66641 0.0
H367 H 0.93894 0.68394 0.4108 0.0
C368 C 0.60774 0.09001 0.4682 0.0
C369 C 0.61277 0.10805 0.44626 0.0
C370 C 0.61462 0.07204 0.45063 0.0
C371 C 0.65114 0.05 0.36767 0.0
H372 H 0.6115 1.01008 0.35645 0.0
C373 C 0.6337 0.98747 0.23302 0.0
C374 C 0.65299 0.98026 0.22382 0.0
C375 C 0.62952 0.99885 0.27143 0.0
C376 C 0.62279 0.02102 0.35949 0.0
H377 H 0.62961 0.12119 0.38931 0.0
H378 H 0.64156 0.09003 0.3588 0.0
H379 H 0.60381 0.03926 0.40117 0.0
H380 H 0.68266 0.9779 0.24983 0.0
H381 H 0.67529 0.99737 0.31767 0.0
H382 H 0.66968 0.03244 0.32369 0.0
C383 C 0.63248 0.08972 0.38997 0.0
C384 C 0.61845 0.03768 0.38554 0.0
C385 C 0.6256 0.10767 0.40752 0.0
C386 C 0.66762 0.98312 0.25614 0.0
C387 C 0.66344 0.99454 0.29466 0.0
C388 C 0.65546 0.03338 0.34156 0.0
C389 C 0.62678 0.07166 0.41075 0.0
C390 C 0.63238 0.05267 0.38882 0.0
C391 C 0.64456 1.00328 0.30162 0.0
C392 C 0.64114 0.01895 0.33603 0.0
H393 H 0.59818 0.08973 0.49858 0.0
H394 H 0.6102 0.05842 0.46793 0.0
H395 H 0.66233 0.06109 0.3701 0.0
H396 H 0.62219 0.98545 0.20862 0.0
H397 H 0.61484 1.00539 0.27538 0.0
C398 C 0.40793 0.49487 0.32139 0.0
C399 C 0.38826 0.48864 0.3213 0.0
C400 C 0.4159 0.50581 0.2843 0.0
C401 C 0.43182 0.52557 0.19688 0.0
H402 H 0.39609 0.56704 0.15314 0.0
C403 C 0.45899 0.58778 0.07277 0.0
C404 C 0.45234 0.60703 0.08301 0.0
C405 C 0.45028 0.57133 0.09438 0.0
C406 C 0.40629 0.55559 0.16502 0.0
H407 H 0.362 0.48777 0.28056 0.0
H408 H 0.37608 0.5064 0.21513 0.0
H409 H 0.38347 0.54078 0.20365 0.0
H410 H 0.43104 0.62398 0.12351 0.0
H411 H 0.41599 0.5954 0.16153 0.0
H412 H 0.45486 0.541 0.16035 0.0
C413 C 0.38522 0.50318 0.24442 0.0
C414 C 0.39898 0.54032 0.19349 0.0
C415 C 0.37723 0.49223 0.28165 0.0
C416 C 0.43637 0.60939 0.11436 0.0
C417 C 0.42771 0.59294 0.13615 0.0
C418 C 0.43915 0.54089 0.16855 0.0
C419 C 0.40441 0.51074 0.24603 0.0
C420 C 0.41173 0.52533 0.21062 0.0
C421 C 0.43473 0.5737 0.12694 0.0
C422 C 0.42655 0.55634 0.15305 0.0
H423 H 0.41678 0.49223 0.35141 0.0
H424 H 0.43067 0.51144 0.28705 0.0
H425 H 0.44203 0.51416 0.20894 0.0
H426 H 0.47104 0.58543 0.04821 0.0
H427 H 0.45583 0.55674 0.08579 0.0
C428 C 0.92849 0.43903 0.07514 0.0
C429 C 0.91049 0.43355 0.09672 0.0
C430 C 0.9465 0.43166 0.09144 0.0
C431 C 0.96865 0.39312 0.16901 0.0
H432 H 1.00955 0.43164 0.18201 0.0
C433 C 0.03107 0.40698 0.30464 0.0
C434 C 0.03737 0.38736 0.31293 0.0
C435 C 0.02045 0.41212 0.26559 0.0
C436 C 0.99835 0.42065 0.17837 0.0
H437 H 0.89733 0.41566 0.15167 0.0
H438 H 0.92871 0.40297 0.18058 0.0
H439 H 0.97998 0.44073 0.13988 0.0
H440 H 0.03945 0.35817 0.28444 0.0
H441 H 0.02136 0.36722 0.2154 0.0
H442 H 0.98633 0.37349 0.2101 0.0
C443 C 0.92893 0.41271 0.1505 0.0
C444 C 0.98144 0.4258 0.15384 0.0
C445 C 0.9109 0.42002 0.13404 0.0
C446 C 0.03485 0.37344 0.27885 0.0
C447 C 0.02422 0.37857 0.23965 0.0
C448 C 0.9855 0.38801 0.19368 0.0
C449 C 0.94697 0.41866 0.1298 0.0
C450 C 0.9661 0.41229 0.1501 0.0
C451 C 0.01595 0.39771 0.23389 0.0
C452 C 1.00028 0.40191 0.1999 0.0
H453 H 0.92867 0.44912 0.0457 0.0
H454 H 0.96008 0.43629 0.07418 0.0
H455 H 0.95731 0.38223 0.16604 0.0
H456 H 0.03286 0.41793 0.33048 0.0
H457 H 0.0143 0.42697 0.26256 0.0
C458 C 0.08649 0.92575 0.09887 0.0
C459 C 0.06657 0.92034 0.10366 0.0
C460 C 0.09353 0.94173 0.12262 0.0
C461 C 0.08328 0.97008 0.22629 0.0
H462 H 0.11959 1.00772 0.17016 0.0
C463 C 0.11383 0.03138 0.33371 0.0
C464 C 0.13422 0.03453 0.32862 0.0
C465 C 0.10392 0.02076 0.3013 0.0
C466 C 0.10957 0.99727 0.18649 0.0
H467 H 0.03845 0.92758 0.13724 0.0
H468 H 0.0507 0.95541 0.17863 0.0
H469 H 0.10587 0.98211 0.12375 0.0
H470 H 0.16005 0.02988 0.28444 0.0
H471 H 0.14296 1.0111 0.22819 0.0
H472 H 0.08742 0.98455 0.28927 0.0
C473 C 0.06088 0.94728 0.15648 0.0
C474 C 0.1017 0.98261 0.15984 0.0
C475 C 0.05382 0.93142 0.13244 0.0
C476 C 0.14425 0.02799 0.28885 0.0
C477 C 0.13441 0.01713 0.25666 0.0
C478 C 0.09125 0.98459 0.25298 0.0
C479 C 0.08084 0.95256 0.15207 0.0
C480 C 0.08857 0.96876 0.17954 0.0
C481 C 0.11426 0.01273 0.26335 0.0
C482 C 0.10463 0.99834 0.2336 0.0
H483 H 0.09665 0.91767 0.07662 0.0
H484 H 0.10902 0.94531 0.11877 0.0
H485 H 0.07345 0.95946 0.2427 0.0
H486 H 0.1058 0.03628 0.36413 0.0
H487 H 0.0883 0.01815 0.30706 0.0
C488 C 0.40739 0.03945 0.76895 0.0
C489 C 0.38946 0.03642 0.7929 0.0
C490 C 0.41232 0.02851 0.73011 0.0
C491 C 0.39315 0.99003 0.65204 0.0
H492 H 0.44864 0.97451 0.64573 0.0
C493 C 0.42646 0.91737 0.57565 0.0
C494 C 0.44379 0.91922 0.54809 0.0
C495 C 0.41786 0.93387 0.59699 0.0
C496 C 0.43313 0.97887 0.64668 0.0
H497 H 0.36234 0.0202 0.79506 0.0
H498 H 0.37109 1.00035 0.72892 0.0
H499 H 0.43759 0.99982 0.69824 0.0
H500 H 0.4644 0.94043 0.51807 0.0
H501 H 0.44984 0.96884 0.55666 0.0
H502 H 0.38882 0.96779 0.6023 0.0
C503 C 0.38119 1.01163 0.7383 0.0
C504 C 0.42673 0.99357 0.6766 0.0
C505 C 0.37609 0.02298 0.77633 0.0
C506 C 0.45147 0.93822 0.5401 0.0
C507 C 0.44306 0.95458 0.56194 0.0
C508 C 0.39954 0.97496 0.62276 0.0
C509 C 0.39971 0.01373 0.71549 0.0
C510 C 0.40661 0.99932 0.68011 0.0
C511 C 0.4265 0.95248 0.59153 0.0
C512 C 0.41958 0.96919 0.62005 0.0
H513 H 0.41794 0.04963 0.78163 0.0
H514 H 0.42642 0.03109 0.71281 0.0
H515 H 0.37761 0.9942 0.65293 0.0
H516 H 0.4201 0.90307 0.58278 0.0
H517 H 0.40511 0.93186 0.61982 0.0
C518 C 0.59352 0.54323 0.70202 0.0
C519 C 0.59049 0.54612 0.65483 0.0
C520 C 0.57938 0.5336 0.73002 0.0
C521 C 0.54175 0.49609 0.71737 0.0
H522 H 0.53331 0.50225 0.84828 0.0
C523 C 0.52208 0.43144 0.83959 0.0
C524 C 0.50856 0.43447 0.87624 0.0
C525 C 0.52816 0.44722 0.81127 0.0
C526 C 0.53526 0.5005 0.81162 0.0
H527 H 0.56956 0.54302 0.60089 0.0
H528 H 0.54465 0.52669 0.64976 0.0
H529 H 0.55044 0.52788 0.8028 0.0
H530 H 0.49052 0.45635 0.91162 0.0
H531 H 0.50126 0.48421 0.86193 0.0
H532 H 0.52699 0.46858 0.72621 0.0
C533 C 0.55814 0.53133 0.66504 0.0
C534 C 0.54524 0.51509 0.78563 0.0
C535 C 0.5723 0.54083 0.63711 0.0
C536 C 0.50081 0.4536 0.88329 0.0
C537 C 0.50709 0.46953 0.85518 0.0
C538 C 0.53186 0.48154 0.74329 0.0
C539 C 0.56189 0.52675 0.71138 0.0
C540 C 0.54898 0.51285 0.73832 0.0
C541 C 0.521 0.46651 0.81911 0.0
C542 C 0.52894 0.48332 0.79088 0.0
H543 H 0.60747 0.54694 0.71653 0.0
H544 H 0.58285 0.53024 0.76545 0.0
H545 H 0.54454 0.49368 0.68118 0.0
H546 H 0.52823 0.41683 0.83338 0.0
H547 H 0.53905 0.4444 0.78417 0.0
C548 C 0.97248 0.65076 0.72253 0.0
C549 C 0.96203 0.6367 0.69911 0.0
C550 C 0.98488 0.64487 0.75816 0.0
C551 C 0.01331 0.6 0.79429 0.0
H552 H 0.03132 0.63418 0.88838 0.0
C553 C 0.08843 0.60884 0.89966 0.0
C554 C 0.09122 0.58954 0.9179 0.0
C555 C 0.07049 0.61465 0.88002 0.0
C556 C 0.02639 0.62451 0.86223 0.0
H557 H 0.95502 0.60587 0.69618 0.0
H558 H 0.9755 0.59555 0.7607 0.0
H559 H 1.00203 0.64375 0.84509 0.0
H560 H 0.07655 0.5616 0.93143 0.0
H561 H 0.04583 0.57157 0.89579 0.0
H562 H 0.0376 0.58072 0.81183 0.0
C563 C 0.97485 0.61105 0.75065 0.0
C564 C 1.00965 0.62998 0.83729 0.0
C565 C 0.9628 0.61692 0.71433 0.0
C566 C 0.07539 0.57639 0.91677 0.0
C567 C 0.05761 0.58212 0.89663 0.0
C568 C 0.02978 0.5944 0.81973 0.0
C569 C 0.98689 0.62478 0.77143 0.0
C570 C 1.00308 0.61797 0.80231 0.0
C571 C 0.05503 0.60123 0.87773 0.0
C572 C 0.0367 0.60674 0.85336 0.0
H573 H 0.97244 0.66602 0.71041 0.0
H574 H 0.99399 0.65592 0.77267 0.0
H575 H 1.00918 0.59052 0.76703 0.0
H576 H 0.10021 0.61938 0.89954 0.0
H577 H 0.06893 0.62944 0.86528 0.0
C578 C 0.02296 0.08103 0.85399 0.0
C579 C 1.01006 0.08736 0.8895 0.0
C580 C 0.01805 0.06502 0.82718 0.0
C581 C 0.98531 0.02185 0.82419 0.0
H582 H 0.98396 0.03294 0.69327 0.0
C583 C 0.93135 0.98414 0.7071 0.0
C584 C 0.93591 0.98269 0.66001 0.0
C585 C 0.94455 0.99283 0.73623 0.0
C586 C 0.98463 0.02925 0.72955 0.0
H587 H 0.98242 0.08121 0.92606 0.0
H588 H 0.97401 0.05353 0.87996 0.0
H589 H 1.00012 0.0557 0.74248 0.0
H590 H 0.95854 0.98767 0.60732 0.0
H591 H 0.98191 1.00222 0.65825 0.0
H592 H 0.96952 0.9956 0.81161 0.0
C593 C 0.98791 0.06079 0.87269 0.0
C594 C 0.99391 0.04239 0.7578 0.0
C595 C 0.99265 0.07683 0.89887 0.0
C596 C 0.9546 0.98871 0.64344 0.0
C597 C 0.96789 0.99724 0.6726 0.0
C598 C 0.97621 1.00859 0.79592 0.0
C599 C 1.00035 0.05485 0.83608 0.0
C600 C 0.9938 0.03916 0.80557 0.0
C601 C 0.96274 1.00014 0.71907 0.0
C602 C 0.97517 0.01242 0.74834 0.0
H603 H 0.03641 0.08891 0.84586 0.0
H604 H 0.02792 0.06076 0.79912 0.0
H605 H 0.98522 0.01883 0.86088 0.0
H606 H 0.91697 0.97993 0.72083 0.0
H607 H 0.93986 0.99495 0.77157 0.0
C608 C 0.73057 1.00967 0.91428 0.0
C609 C 0.71642 0.99525 0.90686 0.0
C610 C 0.74455 0.01477 0.8798 0.0
C611 C 0.75395 0.01341 0.75448 0.0
H612 H 0.80948 0.01415 0.78379 0.0
C613 C 0.81524 1.00324 0.61734 0.0
C614 C 0.83349 0.01254 0.62077 0.0
C615 C 0.8006 1.00498 0.65169 0.0
C616 C 0.79403 0.01443 0.77505 0.0
H617 H 0.70563 0.97525 0.85709 0.0
H618 H 0.72987 0.9842 0.79692 0.0
H619 H 0.78454 1.00969 0.84527 0.0
H620 H 0.85038 0.03162 0.66255 0.0
H621 H 0.82455 0.03486 0.72298 0.0
H622 H 0.76328 0.01797 0.6844 0.0
C623 C 0.73019 0.99156 0.82938 0.0
C624 C 0.77972 1.0118 0.81034 0.0
C625 C 0.7164 0.98629 0.86398 0.0
C626 C 0.83646 0.02432 0.65882 0.0
C627 C 0.82172 0.02602 0.6936 0.0
C628 C 0.76819 0.01621 0.71933 0.0
C629 C 0.74451 1.00578 0.83691 0.0
C630 C 0.75956 1.01073 0.80029 0.0
C631 C 0.80369 0.01611 0.69072 0.0
C632 C 0.78848 0.01619 0.72892 0.0
H633 H 0.7311 0.0167 0.94708 0.0
H634 H 0.75534 0.02582 0.88663 0.0
H635 H 0.73851 0.01308 0.74568 0.0
H636 H 0.81238 0.99408 0.58848 0.0
H637 H 0.78712 0.99688 0.64838 0.0
C638 C 0.49759 0.83832 0.68003 0.0
C639 C 0.50776 0.83862 0.63725 0.0
C640 C 0.49975 0.82226 0.71092 0.0
C641 C 0.51374 0.76915 0.71458 0.0
H642 H 0.51601 0.77617 0.84582 0.0
C643 C 0.52774 0.70292 0.83892 0.0
C644 C 0.5171 0.70222 0.88106 0.0
C645 C 0.52743 0.71996 0.81073 0.0
C646 C 0.51516 0.77391 0.80933 0.0
H647 H 0.52855 0.82229 0.59401 0.0
H648 H 0.53239 0.79432 0.64793 0.0
H649 H 0.51428 0.80507 0.79399 0.0
H650 H 0.498 0.7192 0.92676 0.0
H651 H 0.49724 0.74896 0.87733 0.0
H652 H 0.51434 0.73807 0.72969 0.0
C653 C 0.52256 0.80646 0.6574 0.0
C654 C 0.51421 0.79051 0.77954 0.0
C655 C 0.52046 0.82258 0.62657 0.0
C656 C 0.50647 0.71925 0.89473 0.0
C657 C 0.50607 0.73634 0.86632 0.0
C658 C 0.51462 0.75258 0.74431 0.0
C659 C 0.51208 0.80598 0.69983 0.0
C660 C 0.5135 0.78836 0.73173 0.0
C661 C 0.51638 0.73686 0.82363 0.0
C662 C 0.51538 0.75469 0.79214 0.0
H663 H 0.48767 0.85039 0.68949 0.0
H664 H 0.4913 0.82236 0.743 0.0
H665 H 0.51282 0.76687 0.6781 0.0
H666 H 0.53645 0.69028 0.82769 0.0
H667 H 0.53596 0.71989 0.77876 0.0
C668 C 0.81349 0.47552 0.83665 0.0
C669 C 0.8131 0.48371 0.88054 0.0
C670 C 0.79774 0.47867 0.80705 0.0
C671 C 0.75581 0.51269 0.78281 0.0
H672 H 0.73874 0.47024 0.70751 0.0
C673 C 0.70916 0.52782 0.62378 0.0
C674 C 0.69318 0.51553 0.61578 0.0
C675 C 0.7226 0.52304 0.658 0.0
C676 C 0.74319 0.4822 0.72859 0.0
H677 H 0.79557 0.50182 0.92725 0.0
H678 H 0.76819 0.50754 0.87531 0.0
H679 H 0.76414 0.46372 0.7644 0.0
H680 H 0.67913 0.48822 0.63722 0.0
H681 H 0.70292 0.4797 0.69722 0.0
H682 H 0.73497 0.5312 0.74693 0.0
C683 C 0.7808 0.49866 0.86387 0.0
C684 C 0.7579 0.47852 0.76088 0.0
C685 C 0.79656 0.49543 0.89366 0.0
C686 C 0.69127 0.498 0.64241 0.0
C687 C 0.7049 0.49313 0.67673 0.0
C688 C 0.74121 0.51639 0.75039 0.0
C689 C 0.78115 0.49023 0.82025 0.0
C690 C 0.76458 0.49379 0.788 0.0
C691 C 0.72057 0.50578 0.68532 0.0
C692 C 0.73492 0.50127 0.72236 0.0
H693 H 0.82607 0.46677 0.82474 0.0
H694 H 0.79875 0.47231 0.77338 0.0
H695 H 0.76063 0.52483 0.80284 0.0
H696 H 0.71126 0.54139 0.6039 0.0
H697 H 0.7347 0.53291 0.66291 0.0
C698 C 1.00607 0.81296 0.87936 0.0
C699 C 0.02457 0.82163 0.88385 0.0
C700 C 1.00391 0.79712 0.84997 0.0
C701 C 0.02929 0.77199 0.75066 0.0
H702 H 0.9892 0.73289 0.77584 0.0
C703 C 0.01582 0.70506 0.63206 0.0
C704 C 0.99597 0.70382 0.61957 0.0
C705 C 0.0211 0.71783 0.6669 0.0
C706 C 1.00051 0.74367 0.76838 0.0
H707 H 0.05548 0.81975 0.86263 0.0
H708 H 0.05192 0.79191 0.81277 0.0
H709 H 0.99485 0.75798 0.83203 0.0
H710 H 0.96607 0.7144 0.63525 0.0
H711 H 0.97516 0.736 0.69579 0.0
H712 H 0.03492 0.7574 0.68694 0.0
C713 C 0.03885 0.79769 0.83048 0.0
C714 C 1.00366 0.75822 0.80047 0.0
C715 C 0.04094 0.81366 0.85934 0.0
C716 C 0.98155 0.71511 0.6435 0.0
C717 C 0.98672 0.72741 0.67862 0.0
C718 C 0.0263 0.75724 0.71881 0.0
C719 C 0.02025 0.7893 0.82473 0.0
C720 C 0.01783 0.77289 0.7918 0.0
C721 C 1.00653 0.72911 0.69062 0.0
C722 C 1.0116 0.74315 0.72687 0.0
H723 H 0.99315 0.81886 0.8974 0.0
H724 H 0.98925 0.79139 0.84617 0.0
H725 H 0.04016 0.78308 0.74211 0.0
H726 H 0.02725 0.69654 0.61434 0.0
H727 H 0.03651 0.7188 0.6755 0.0
C728 C 0.21375 0.02298 0.66503 0.0
C729 C 0.21526 0.01671 0.61953 0.0
C730 C 0.22812 0.01726 0.6967 0.0
C731 C 0.2801 1.0034 0.70693 0.0
H732 H 0.26408 0.98266 0.82713 0.0
C733 C 0.33742 0.99016 0.84983 0.0
C734 C 0.33113 0.99693 0.89308 0.0
C735 C 0.32369 0.98802 0.81501 0.0
C736 C 0.26888 0.98859 0.79391 0.0
H737 H 0.23318 0.9998 0.57134 0.0
H738 H 0.25865 0.9902 0.62656 0.0
H739 H 0.23931 0.98905 0.76917 0.0
H740 H 0.30546 1.00539 0.93467 0.0
H741 H 0.28186 1.00189 0.87497 0.0
H742 H 0.3095 1.00405 0.73225 0.0
C743 C 0.24617 0.99931 0.63776 0.0
C744 C 0.25464 0.99217 0.76063 0.0
C745 C 0.23155 1.00469 0.60629 0.0
C746 C 0.3108 1.00014 0.90172 0.0
C747 C 0.29718 0.99801 0.86728 0.0
C748 C 0.29436 1.00015 0.74054 0.0
C749 C 0.24455 1.00546 0.68338 0.0
C750 C 0.26001 0.99997 0.71708 0.0
C751 C 0.30341 0.99249 0.82293 0.0
C752 C 0.28888 0.99313 0.78495 0.0
H753 H 0.20133 0.03216 0.67621 0.0
H754 H 0.22655 0.02235 0.73153 0.0
H755 H 0.28467 1.00947 0.67365 0.0
H756 H 0.35302 0.98772 0.84201 0.0
H757 H 0.32907 0.98346 0.78155 0.0
C758 C 0.56806 0.20807 0.67826 0.0
C759 C 0.55561 0.2066 0.64078 0.0
C760 C 0.56677 0.22444 0.70647 0.0
C761 C 0.54519 0.27573 0.71471 0.0
H762 H 0.55269 0.26617 0.8449 0.0
C763 C 0.51831 0.33004 0.85383 0.0
C764 C 0.53093 0.3337 0.89004 0.0
C765 C 0.52318 0.31562 0.82183 0.0
C766 C 0.55081 0.26915 0.80858 0.0
H767 H 0.53223 0.22135 0.60308 0.0
H768 H 0.52946 0.24975 0.65299 0.0
H769 H 0.5571 0.23907 0.79221 0.0
H770 H 0.55873 0.32511 0.9207 0.0
H771 H 0.56711 0.29945 0.86499 0.0
H772 H 0.5381 0.30571 0.7318 0.0
C773 C 0.54061 0.23847 0.66016 0.0
C774 C 0.55339 0.25359 0.77815 0.0
C775 C 0.54212 0.22215 0.63149 0.0
C776 C 0.54872 0.32268 0.89317 0.0
C777 C 0.55346 0.30794 0.86143 0.0
C778 C 0.54237 0.29123 0.74526 0.0
C779 C 0.55277 0.23975 0.69848 0.0
C780 C 0.55054 0.25659 0.73071 0.0
C781 C 0.54068 0.30422 0.82544 0.0
C782 C 0.54504 0.2881 0.7926 0.0
H783 H 0.57886 0.19648 0.68582 0.0
H784 H 0.57679 0.22502 0.73467 0.0
H785 H 0.54323 0.27883 0.67849 0.0
H786 H 0.50452 0.3383 0.85022 0.0
H787 H 0.51292 0.31302 0.79487 0.0
C788 C 0.29676 0.47585 0.64012 0.0
C789 C 0.30943 0.49105 0.62491 0.0
C790 C 0.2814 0.47944 0.67218 0.0
C791 C 0.2637 0.51455 0.76104 0.0
H792 H 0.21317 0.49029 0.74375 0.0
C793 C 0.19892 0.51971 0.8961 0.0
C794 C 0.17981 0.52301 0.87919 0.0
C795 C 0.21495 0.51531 0.86621 0.0
C796 C 0.22713 0.49729 0.74905 0.0
H797 H 0.31583 0.52198 0.63266 0.0
H798 H 0.28887 0.52832 0.68803 0.0
H799 H 0.24049 0.4842 0.68948 0.0
H800 H 0.16267 0.52405 0.81737 0.0
H801 H 0.19047 0.51649 0.76557 0.0
H802 H 0.25015 0.52797 0.82015 0.0
C803 C 0.29096 0.51353 0.67534 0.0
C804 C 0.24291 0.4936 0.71813 0.0
C805 C 0.30633 0.50994 0.64312 0.0
C806 C 0.17713 0.52154 0.83175 0.0
C807 C 0.1931 0.5171 0.80195 0.0
C808 C 0.2479 0.51819 0.79209 0.0
C809 C 0.27819 0.49835 0.69014 0.0
C810 C 0.26142 0.50221 0.72356 0.0
C811 C 0.21228 0.51401 0.81866 0.0
C812 C 0.22935 0.50969 0.78642 0.0
H813 H 0.29845 0.46116 0.62673 0.0
H814 H 0.27206 0.46731 0.68309 0.0
H815 H 0.27776 0.52129 0.76667 0.0
H816 H 0.20156 0.52072 0.93241 0.0
H817 H 0.22943 0.5128 0.88044 0.0
C818 C 0.02989 0.30594 0.63862 0.0
C819 C 0.01491 0.31792 0.61915 0.0
C820 C 0.02526 0.29044 0.66939 0.0
C821 C 0.9865 0.27139 0.74982 0.0
H822 H 0.01836 0.22326 0.74168 0.0
C823 C 0.9779 0.20184 0.8745 0.0
C824 C 0.99601 0.19477 0.89187 0.0
C825 C 0.97757 0.21636 0.83894 0.0
C826 C 1.00931 0.23659 0.74447 0.0
H827 H 0.98317 0.32297 0.61767 0.0
H828 H 0.97505 0.29569 0.67136 0.0
H829 H 0.0227 0.24951 0.68388 0.0
H830 H 0.02792 0.19757 0.88534 0.0
H831 H 0.02727 0.22235 0.82412 0.0
H832 H 0.97335 0.25833 0.81115 0.0
C833 C 0.99043 0.29844 0.66275 0.0
C834 C 1.01186 0.2517 0.7114 0.0
C835 C 0.99509 0.31397 0.63165 0.0
C836 C 0.01365 0.20254 0.87297 0.0
C837 C 0.01333 0.21673 0.83749 0.0
C838 C 0.98391 0.25615 0.78303 0.0
C839 C 1.00549 0.28637 0.68173 0.0
C840 C 1.00092 0.26954 0.71429 0.0
C841 C 0.99536 0.22378 0.81974 0.0
C842 C 0.99571 0.23881 0.7814 0.0
H843 H 0.04529 0.30827 0.62961 0.0
H844 H 0.03728 0.2817 0.68383 0.0
H845 H 0.97784 0.28493 0.75316 0.0
H846 H 0.96405 0.19621 0.88837 0.0
H847 H 0.96348 0.22153 0.82596 0.0
C848 C 0.21544 0.99048 0.35927 0.0
C849 C 0.22042 0.99964 0.39991 0.0
C850 C 0.22968 0.98803 0.32368 0.0
C851 C 0.28422 0.99169 0.29681 0.0
H852 H 0.26729 1.00695 0.17473 0.0
C853 C 0.33672 0.02469 0.15713 0.0
C854 C 0.33579 0.01759 0.11246 0.0
C855 C 0.32291 0.01886 0.19119 0.0
C856 C 0.27221 1.00241 0.20851 0.0
H857 H 0.24445 1.01224 0.4362 0.0
H858 H 0.26889 1.00823 0.37496 0.0
H859 H 0.24261 1.00211 0.23656 0.0
H860 H 0.31951 0.99895 0.06835 0.0
H861 H 0.29507 0.98902 0.12783 0.0
H862 H 0.31386 0.99302 0.26913 0.0
C863 C 0.25423 1.00271 0.37007 0.0
C864 C 0.25806 0.99951 0.24399 0.0
C865 C 0.2401 1.00516 0.40529 0.0
C866 C 0.32071 1.0045 0.1026 0.0
C867 C 0.30665 0.99893 0.1365 0.0
C868 C 0.29833 0.99484 0.26155 0.0
C869 C 0.24917 0.99459 0.32824 0.0
C870 C 0.26389 0.9946 0.28895 0.0
C871 C 0.30762 1.00604 0.18121 0.0
C872 C 0.29252 1.00065 0.21726 0.0
H873 H 0.20036 0.98618 0.354 0.0
H874 H 0.22529 0.98148 0.29219 0.0
H875 H 0.28931 0.98743 0.33061 0.0
H876 H 0.34821 0.0347 0.16576 0.0
H877 H 0.32393 0.02473 0.2252 0.0
C878 C 0.5404 0.20214 0.37236 0.0
C879 C 0.52897 0.20311 0.41334 0.0
C880 C 0.53805 0.21644 0.3371 0.0
C881 C 0.50339 0.25632 0.29517 0.0
H882 H 0.54967 0.27454 0.22637 0.0
C883 C 0.50131 0.32678 0.17886 0.0
C884 C 0.5114 0.32647 0.13592 0.0
C885 C 0.50344 0.31119 0.21096 0.0
C886 C 0.53656 0.26946 0.24487 0.0
H887 H 0.50602 0.22001 0.44904 0.0
H888 H 0.50218 0.24504 0.38821 0.0
H889 H 0.55325 0.24856 0.28538 0.0
H890 H 0.53177 0.30908 0.09379 0.0
H891 H 0.53564 0.28201 0.1501 0.0
H892 H 0.48676 0.27748 0.25515 0.0
C893 C 0.51273 0.23303 0.38278 0.0
C894 C 0.53859 0.2545 0.27877 0.0
C895 C 0.51502 0.21869 0.41793 0.0
C896 C 0.52389 0.31007 0.12644 0.0
C897 C 0.52611 0.29448 0.15881 0.0
C898 C 0.50138 0.27134 0.2615 0.0
C899 C 0.52426 0.23218 0.34184 0.0
C900 C 0.52205 0.24777 0.30466 0.0
C901 C 0.51581 0.29479 0.20142 0.0
C902 C 0.51795 0.27822 0.23608 0.0
H903 H 0.55124 0.19033 0.36747 0.0
H904 H 0.54699 0.21503 0.30593 0.0
H905 H 0.49022 0.25131 0.31354 0.0
H906 H 0.49188 0.3392 0.18825 0.0
H907 H 0.49557 0.31215 0.24371 0.0
C908 C 0.29014 0.52763 0.41956 0.0
C909 C 0.3106 0.52663 0.41013 0.0
C910 C 0.27695 0.5328 0.38497 0.0
C911 C 0.27094 0.52851 0.26256 0.0
H912 H 0.22632 0.56456 0.28086 0.0
C913 C 0.21038 0.54161 0.12535 0.0
C914 C 0.19096 0.54543 0.14163 0.0
C915 C 0.22612 0.54044 0.15582 0.0
C916 C 0.23851 0.5542 0.27528 0.0
H917 H 0.33338 0.53047 0.35719 0.0
H918 H 0.31016 0.53921 0.29606 0.0
H919 H 0.25179 0.56176 0.33816 0.0
H920 H 0.17267 0.5499 0.20263 0.0
H921 H 0.1997 0.54711 0.25573 0.0
H922 H 0.25728 0.52022 0.20075 0.0
C923 C 0.30442 0.53627 0.33055 0.0
C924 C 0.25322 0.55277 0.30805 0.0
C925 C 0.3177 0.53152 0.36558 0.0
C926 C 0.18752 0.54729 0.18903 0.0
C927 C 0.20312 0.54585 0.21944 0.0
C928 C 0.25605 0.52972 0.22998 0.0
C929 C 0.28388 0.53664 0.33978 0.0
C930 C 0.26947 0.53973 0.30242 0.0
C931 C 0.22275 0.54283 0.20334 0.0
C932 C 0.23941 0.54234 0.23626 0.0
H933 H 0.28428 0.52369 0.45347 0.0
H934 H 0.26123 0.53281 0.3931 0.0
H935 H 0.2832 0.51817 0.25752 0.0
H936 H 0.21347 0.54027 0.08893 0.0
H937 H 0.24098 0.53823 0.1419 0.0
C938 C 1.00704 0.19502 0.17454 0.0
C939 C 1.00049 0.19714 0.12929 0.0
C940 C 1.00357 0.21 0.20609 0.0
C941 C 0.99415 0.26353 0.2154 0.0
H942 H 0.97847 0.2492 0.34056 0.0
C943 C 0.98663 0.32212 0.35855 0.0
C944 C 0.99523 0.31626 0.40027 0.0
C945 C 0.98365 0.30818 0.32454 0.0
C946 C 0.98298 0.25352 0.30587 0.0
H947 H 0.98525 0.21691 0.08178 0.0
H948 H 0.97933 0.24326 0.13693 0.0
H949 H 0.98091 0.22389 0.28288 0.0
H950 H 1.00657 0.29109 0.43966 0.0
H951 H 1.00145 0.26714 0.38132 0.0
H952 H 0.9969 0.29308 0.23882 0.0
C953 C 0.98711 0.22988 0.14793 0.0
C954 C 0.98435 0.23896 0.27272 0.0
C955 C 0.99036 0.21473 0.11643 0.0
C956 C 0.99986 0.29613 0.40799 0.0
C957 C 0.99681 0.2823 0.37442 0.0
C958 C 0.99293 0.27813 0.24875 0.0
C959 C 0.99361 0.22767 0.19326 0.0
C960 C 0.99036 0.24366 0.22725 0.0
C961 C 0.98903 0.2881 0.33177 0.0
C962 C 0.98777 0.27325 0.29476 0.0
H963 H 0.01472 0.18164 0.1858 0.0
H964 H 1.00899 0.20784 0.24051 0.0
H965 H 0.99889 0.26767 0.18074 0.0
H966 H 0.9831 0.33754 0.35133 0.0
H967 H 0.97746 0.3132 0.29231 0.0
C968 C 0.74061 0.01417 0.11717 0.0
C969 C 0.72034 0.01768 0.126 0.0
C970 C 0.75443 0.01683 0.15097 0.0
C971 C 0.75817 0.0166 0.2773 0.0
H972 H 0.8127 0.02895 0.24604 0.0
C973 C 0.82148 0.01416 0.4102 0.0
C974 C 0.83855 1.00341 0.39624 0.0
C975 C 0.80653 0.01887 0.37903 0.0
C976 C 0.79754 0.02545 0.25534 0.0
H977 H 0.69872 0.02762 0.17692 0.0
H978 H 0.72303 0.03273 0.23627 0.0
H979 H 0.78746 0.03379 0.18858 0.0
H980 H 0.85344 0.98959 0.3384 0.0
H981 H 0.82758 0.99805 0.28393 0.0
H982 H 0.76847 1.00827 0.34427 0.0
C983 C 0.7282 0.02766 0.20307 0.0
C984 C 0.78302 0.02818 0.22235 0.0
C985 C 0.71428 0.02504 0.16887 0.0
C986 C 0.84043 0.99776 0.35029 0.0
C987 C 0.82568 1.00275 0.31901 0.0
C988 C 0.77271 0.01411 0.31055 0.0
C989 C 0.74844 0.02309 0.19491 0.0
C990 C 0.7632 0.02323 0.23233 0.0
C991 C 0.8085 0.01328 0.333 0.0
C992 C 0.79265 0.01799 0.29955 0.0
H993 H 0.74575 1.00839 0.08456 0.0
H994 H 0.76972 0.01284 0.14323 0.0
H995 H 0.74318 0.01242 0.28633 0.0
H996 H 0.81952 0.01858 0.44545 0.0
H997 H 0.7935 0.02703 0.39084 0.0
C998 C 0.50142 0.81219 0.37405 0.0
C999 C 0.51883 0.82287 0.37766 0.0
C1000 C 0.50108 0.79557 0.34636 0.0
C1001 C 0.53017 0.77077 0.25163 0.0
H1002 H 0.49518 0.72756 0.28169 0.0
C1003 C 0.52001 0.70698 0.12604 0.0
C1004 C 0.51561 0.68812 0.14427 0.0
C1005 C 0.52076 0.72322 0.15472 0.0
C1006 C 0.5053 0.73931 0.27292 0.0
H1007 H 0.54977 0.82395 0.35702 0.0
H1008 H 0.54954 0.79468 0.31066 0.0
H1009 H 0.49609 0.75533 0.33228 0.0
H1010 H 0.50931 0.6714 0.2072 0.0
H1011 H 0.51157 0.69932 0.2573 0.0
H1012 H 0.54011 0.75434 0.19353 0.0
C1013 C 0.53583 0.79946 0.32732 0.0
C1014 C 0.50555 0.75553 0.30173 0.0
C1015 C 0.53604 0.81622 0.35424 0.0
C1016 C 0.51259 0.68577 0.19197 0.0
C1017 C 0.51368 0.7019 0.22072 0.0
C1018 C 0.53014 0.75443 0.22322 0.0
C1019 C 0.51828 0.78901 0.32224 0.0
C1020 C 0.51798 0.77157 0.29156 0.0
C1021 C 0.51746 0.72099 0.20257 0.0
C1022 C 0.51767 0.73842 0.23328 0.0
H1023 H 0.48791 0.81709 0.39144 0.0
H1024 H 0.48718 0.7882 0.34307 0.0
H1025 H 0.53971 0.78288 0.24182 0.0
H1026 H 0.52221 0.70934 0.08938 0.0
H1027 H 0.52341 0.73762 0.13904 0.0
C1028 C 0.70726 0.55297 0.3759 0.0
C1029 C 0.69518 0.53745 0.39201 0.0
C1030 C 0.72299 0.54951 0.34466 0.0
C1031 C 0.7421 0.51409 0.25831 0.0
H1032 H 0.79191 0.53989 0.2746 0.0
C1033 C 0.80686 0.50987 0.12324 0.0
C1034 C 0.82596 0.50665 0.14024 0.0
C1035 C 0.79079 0.51424 0.15304 0.0
C1036 C 0.77814 0.53249 0.26959 0.0
H1037 H 0.69022 0.50609 0.38703 0.0
H1038 H 0.71773 0.50003 0.33283 0.0
H1039 H 0.76433 0.54573 0.32854 0.0
H1040 H 0.84309 0.50589 0.20207 0.0
H1041 H 0.81522 0.51354 0.25372 0.0
H1042 H 0.75603 0.50062 0.1997 0.0
C1043 C 0.71494 0.51493 0.34425 0.0
C1044 C 0.76223 0.536 0.30032 0.0
C1045 C 0.69926 0.51837 0.37575 0.0
C1046 C 0.82863 0.5083 0.18765 0.0
C1047 C 0.81261 0.51279 0.21734 0.0
C1048 C 0.75799 0.51067 0.22738 0.0
C1049 C 0.72708 0.53045 0.32836 0.0
C1050 C 0.74399 0.5268 0.29524 0.0
C1051 C 0.79343 0.51565 0.20057 0.0
C1052 C 0.77627 0.51976 0.2327 0.0
H1053 H 0.70477 0.56781 0.3879 0.0
H1054 H 0.73187 0.56187 0.33292 0.0
H1055 H 0.72824 0.50689 0.253 0.0
H1056 H 0.80422 0.50869 0.08696 0.0
H1057 H 0.77629 0.51658 0.13878 0.0
C1058 C 0.99066 0.82228 0.12618 0.0
C1059 C 1.00124 0.83845 0.14105 0.0
C1060 C 0.98632 0.80634 0.1564 0.0
C1061 C 0.98467 0.79189 0.28153 0.0
H1062 H 0.98691 0.73857 0.23644 0.0
C1063 C 0.98543 0.72294 0.40375 0.0
C1064 C 0.97299 0.70745 0.39308 0.0
C1065 C 0.98859 0.73873 0.37248 0.0
C1066 C 0.98608 0.75338 0.24952 0.0
H1067 H 0.01548 0.85044 0.19963 0.0
H1068 H 1.00839 0.82276 0.25145 0.0
H1069 H 0.99234 0.76647 0.18313 0.0
H1070 H 0.95462 0.69619 0.34045 0.0
H1071 H 0.9602 0.72365 0.28586 0.0
H1072 H 0.97881 0.77872 0.34806 0.0
C1073 C 1.00298 0.82243 0.21689 0.0
C1074 C 0.98911 0.76943 0.21888 0.0
C1075 C 1.00718 0.83835 0.18691 0.0
C1076 C 0.96413 0.70796 0.34996 0.0
C1077 C 0.96746 0.72362 0.31849 0.0
C1078 C 0.98184 0.77584 0.31216 0.0
C1079 C 0.99253 0.80612 0.20219 0.0
C1080 C 0.98854 0.78895 0.23444 0.0
C1081 C 0.97958 0.73932 0.3295 0.0
C1082 C 0.98257 0.75638 0.29663 0.0
H1083 H 0.98584 0.82185 0.09113 0.0
H1084 H 0.97801 0.79423 0.14384 0.0
H1085 H 0.98367 0.80664 0.29487 0.0
H1086 H 0.99236 0.72312 0.43673 0.0
H1087 H 0.99816 0.75048 0.38191 0.0
C1088 C 0.4513 1.00004 0.97384 0.0
C1089 C 0.44121 0.01693 0.99011 0.0
C1090 C 0.47194 0.99792 0.97787 0.0
C1091 C 0.51691 0.02774 0.99574 0.0
H1092 H 0.54172 0.97692 0.02356 0.0
C1093 C 0.6007 0.01837 0.0381 0.0
C1094 C 0.61071 1.00154 0.02116 0.0
C1095 C 0.58008 0.02071 0.03379 0.0
C1096 C 0.53509 0.99123 0.01528 0.0
H1097 H 0.445 0.0445 0.02478 0.0
H1098 H 0.48046 0.04065 0.03241 0.0
H1099 H 0.50591 0.97945 0.01695 0.0
H1100 H 0.60681 0.97441 0.98481 0.0
H1101 H 0.5714 0.97862 0.97688 0.0
H1102 H 0.54611 0.03951 0.9942 0.0
C1103 C 0.47269 0.02922 0.01549 0.0
C1104 C 0.51448 0.99266 0.01141 0.0
C1105 C 0.4522 0.03135 0.01138 0.0
C1106 C 0.59967 0.98749 0.99875 0.0
C1107 C 0.57922 0.98982 0.99446 0.0
C1108 C 0.53752 0.02631 0.99967 0.0
C1109 C 0.48297 0.01263 0.9983 0.0
C1110 C 0.50505 1.01094 1.00162 0.0
C1111 C 0.56902 1.00627 0.0125 0.0
C1112 C 0.54695 1.00802 0.00937 0.0
H1113 H 0.44334 0.98869 0.95712 0.0
H1114 H 0.47932 0.98497 0.96394 0.0
H1115 H 0.5103 0.04205 0.98739 0.0
H1116 H 0.60869 0.02943 0.05571 0.0
H1117 H 0.57275 0.03356 0.04829 0.0
C1118 C 0.5488 0.4363 0.08963 0.0
C1119 C 0.54909 0.42676 0.04746 0.0
C1120 C 0.5507 0.4568 0.09124 0.0
C1121 C 0.56291 0.50254 0.02174 0.0
H1122 H 0.52736 0.52704 0.11101 0.0
C1123 C 0.54228 0.58689 0.02008 0.0
C1124 C 0.53959 0.59593 0.06278 0.0
C1125 C 0.54597 0.56645 0.0177 0.0
C1126 C 0.53761 0.52051 0.08628 0.0
H1127 H 0.55242 0.43127 0.9738 0.0
H1128 H 0.55542 0.46711 0.97645 0.0
H1129 H 0.5296 0.49133 0.10789 0.0
H1130 H 0.53967 0.59054 0.13644 0.0
H1131 H 0.54627 0.55516 0.13228 0.0
H1132 H 0.57048 0.532 0.99959 0.0
C1133 C 0.55408 0.45873 0.00849 0.0
C1134 C 0.53894 0.49991 0.08453 0.0
C1135 C 0.55242 0.43811 1.00694 0.0
C1136 C 0.54153 0.58414 0.10293 0.0
C1137 C 0.54518 0.56376 0.10055 0.0
C1138 C 0.56149 0.52325 0.02339 0.0
C1139 C 0.55261 0.46843 0.05064 0.0
C1140 C 0.55168 0.49055 0.05243 0.0
C1141 C 0.547 0.55453 0.05795 0.0
C1142 C 0.54887 0.53251 0.05587 0.0
H1143 H 0.54632 0.42798 0.12146 0.0
H1144 H 0.55007 0.46358 0.12445 0.0
H1145 H 0.57297 0.49594 0.99673 0.0
H1146 H 0.54083 0.59547 0.98841 0.0
H1147 H 0.5472 0.55987 0.98429 0.0
C1148 C 0.93202 0.50111 0.95034 0.0
C1149 C 0.91874 0.50526 0.987 0.0
C1150 C 0.95237 0.50376 0.95424 0.0
C1151 C 0.99005 0.52761 0.02415 0.0
H1152 H 0.02532 0.48771 0.97194 0.0
C1153 C 0.07306 0.5248 0.06391 0.0
C1154 C 0.08669 0.52153 0.02744 0.0
C1155 C 0.05283 0.52199 0.05876 0.0
C1156 C 0.01573 0.4991 0.98632 0.0
H1157 H 0.91659 0.51597 0.05632 0.0
H1158 H 0.95211 0.52054 0.06331 0.0
H1159 H 0.98968 0.48544 0.96318 0.0
H1160 H 0.08964 0.51207 0.95718 0.0
H1161 H 0.0542 0.50708 0.9481 0.0
H1162 H 0.01608 0.54119 0.0475 0.0
C1163 C 0.94676 0.51542 0.03118 0.0
C1164 C 0.99522 0.49783 0.98124 0.0
C1165 C 0.92633 0.51283 0.02719 0.0
C1166 C 0.07961 0.51451 0.98616 0.0
C1167 C 0.05925 0.51172 0.98094 0.0
C1168 C 1.01053 0.52884 0.02931 0.0
C1169 C 0.96013 0.51056 0.99504 0.0
C1170 C 0.98206 0.51206 1.00012 0.0
C1171 C 0.04553 0.51589 0.01688 0.0
C1172 C 0.02368 0.51456 0.01066 0.0
H1173 H 0.92674 0.49532 0.91876 0.0
H1174 H 0.96206 0.50028 0.92525 0.0
H1175 H 0.98051 0.53903 0.03852 0.0
H1176 H 0.07796 0.53012 0.0963 0.0
H1177 H 0.04284 0.52489 0.08758 0.0
C1178 C 0.95392 0.08718 0.02992 0.0
C1179 C 0.97301 0.09496 0.02989 0.0
C1180 C 0.95145 0.06667 0.02614 0.0
C1181 C 0.97232 0.02218 0.97892 0.0
H1182 H 0.95904 0.9923 0.09026 0.0
C1183 C 0.99239 0.93902 0.99779 0.0
C1184 C 0.98181 0.92686 0.02916 0.0
C1185 C 0.98804 0.95932 0.99393 0.0
C1186 C 0.9623 1.00023 0.05833 0.0
H1187 H 1.00433 0.08758 0.02349 0.0
H1188 H 0.99992 0.05228 0.0153 0.0
H1189 H 0.9562 0.02826 0.08925 0.0
H1190 H 0.9577 0.92643 0.07957 0.0
H1191 H 0.94934 0.96151 0.07118 0.0
H1192 H 0.97829 0.9945 0.94742 0.0
C1193 C 0.98695 0.06181 0.01937 0.0
C1194 C 0.96069 0.02093 0.05797 0.0
C1195 C 0.98943 0.08202 0.02435 0.0
C1196 C 0.96621 0.93539 0.0552 0.0
C1197 C 0.96157 0.95564 0.05068 0.0
C1198 C 0.97352 1.00149 0.97887 0.0
C1199 C 0.968 0.05386 0.02081 0.0
C1200 C 0.9661 0.0321 0.01858 0.0
C1201 C 0.97269 0.96809 0.02069 0.0
C1202 C 0.96909 0.99013 0.019 0.0
H1203 H 0.94105 0.0968 0.03413 0.0
H1204 H 0.93667 0.0608 0.02741 0.0
H1205 H 0.97673 0.03048 0.94821 0.0
H1206 H 1.00468 0.93303 0.9776 0.0
H1207 H 0.99732 0.9682 0.9711 0.0
C1208 C 0.09825 0.0132 0.55687 0.0
C1209 C 0.11003 1.00606 0.52013 0.0
C1210 C 0.07762 0.01422 0.55442 0.0
C1211 C 0.0384 0.01872 0.46913 0.0
H1212 H 1.0032 1.00873 0.57403 0.0
C1213 C 0.95329 0.01804 0.45433 0.0
C1214 C 0.94113 0.024 0.49159 0.0
C1215 C 0.97388 0.01712 0.45761 0.0
C1216 C 0.01281 1.01192 0.54455 0.0
H1217 H 0.10916 0.9936 0.45261 0.0
H1218 H 0.07304 0.99526 0.44836 0.0
H1219 H 0.03867 1.00247 0.5807 0.0
H1220 H 0.9414 0.03494 0.56074 0.0
H1221 H 0.97742 0.03362 0.56631 0.0
H1222 H 1.01264 0.02835 0.43305 0.0
C1223 C 0.07985 1.00025 0.47902 0.0
C1224 C 0.03319 1.00819 0.54831 0.0
C1225 C 0.10056 0.99905 0.48167 0.0
C1226 C 0.95025 0.03026 0.53133 0.0
C1227 C 0.97094 0.02924 0.53472 0.0
C1228 C 0.01804 0.02253 0.46541 0.0
C1229 C 0.06813 1.00827 0.51497 0.0
C1230 C 0.04628 1.01149 0.51061 0.0
C1231 C 0.98302 0.02218 0.49826 0.0
C1232 C 1.00491 0.01913 0.50301 0.0
H1233 H 0.10505 0.01878 0.58699 0.0
H1234 H 0.06918 0.0206 0.58266 0.0
H1235 H 0.04802 0.02185 0.43964 0.0
H1236 H 0.94686 0.01312 0.42313 0.0
H1237 H 0.98254 1.01147 0.42887 0.0
C1238 C 0.53111 0.93995 0.50015 0.0
C1239 C 0.52614 0.93203 0.54397 0.0
C1240 C 0.53256 0.96042 0.49265 0.0
C1241 C 0.51567 1.0081 0.54262 0.0
H1242 H 0.55445 0.03044 0.45692 0.0
C1243 C 0.52831 0.0927 0.52134 0.0
C1244 C 0.53259 0.10034 0.47689 0.0
C1245 C 0.52686 0.07226 0.52963 0.0
C1246 C 0.54335 0.02445 0.48057 0.0
H1247 H 0.51949 0.93958 0.61461 0.0
H1248 H 0.52239 0.97511 0.60176 0.0
H1249 H 0.55432 0.99485 0.47173 0.0
H1250 H 0.53802 0.09232 0.40605 0.0
H1251 H 0.53528 0.05689 0.4204 0.0
H1252 H 0.50476 0.03775 0.55153 0.0
C1253 C 0.52478 0.96555 0.57289 0.0
C1254 C 0.54329 1.00398 0.48912 0.0
C1255 C 0.52333 0.9451 0.58038 0.0
C1256 C 0.53471 0.08704 0.44075 0.0
C1257 C 0.53334 0.06664 0.44906 0.0
C1258 C 0.51576 0.02858 0.53414 0.0
C1259 C 0.52909 0.97356 0.52877 0.0
C1260 C 0.52943 0.99548 0.52023 0.0
C1261 C 0.52974 0.05892 0.49372 0.0
C1262 C 0.52956 0.03705 0.50287 0.0
H1263 H 0.53326 0.9304 0.47118 0.0
H1264 H 0.53573 0.96596 0.45811 0.0
H1265 H 0.50452 1.00213 0.56617 0.0
H1266 H 0.5267 0.10245 0.55008 0.0
H1267 H 0.52419 0.06689 0.56451 0.0
C1268 C 0.57999 0.49994 0.5212 0.0
C1269 C 0.58877 0.51128 0.48526 0.0
C1270 C 0.55929 0.49855 0.52538 0.0
C1271 C 0.5136 0.526 0.49202 0.0
H1272 H 0.48697 0.47766 0.52728 0.0
C1273 C 0.42795 0.51942 0.48744 0.0
C1274 C 0.4186 0.50662 0.51958 0.0
C1275 C 0.44869 0.52047 0.48485 0.0
C1276 C 0.49411 0.49142 0.51812 0.0
H1277 H 0.58256 0.52907 0.42413 0.0
H1278 H 0.5468 0.52637 0.43101 0.0
H1279 H 0.52294 0.47754 0.51924 0.0
H1280 H 0.42375 0.48566 0.57571 0.0
H1281 H 0.45958 0.48802 0.57243 0.0
H1282 H 0.48489 0.53998 0.49137 0.0
C1283 C 0.5558 0.51892 0.4566 0.0
C1284 C 0.51482 0.49129 0.51335 0.0
C1285 C 0.57638 0.52029 0.45241 0.0
C1286 C 0.43044 0.4956 0.55032 0.0
C1287 C 0.45109 0.49679 0.54808 0.0
C1288 C 0.49291 0.52617 0.4971 0.0
C1289 C 0.54691 0.50846 0.49374 0.0
C1290 C 0.52485 0.50855 0.4999 0.0
C1291 C 0.46061 0.50888 0.51461 0.0
C1292 C 0.4828 0.50886 0.51005 0.0
H1293 H 0.58901 0.49297 0.5474 0.0
H1294 H 0.55297 0.49041 0.55452 0.0
H1295 H 0.52081 0.53967 0.48243 0.0
H1296 H 0.41931 0.52793 0.46285 0.0
H1297 H 0.45536 0.52984 0.4583 0.0
C1298 C 1.00266 0.58797 0.52377 0.0
C1299 C 0.98696 0.59729 0.50037 0.0
C1300 C 1.00544 0.5673 0.52299 0.0
C1301 C 0.97773 0.52138 0.50089 0.0
H1302 H 0.02975 0.49637 0.49824 0.0
C1303 C 0.99009 0.43632 0.47832 0.0
C1304 C 1.00557 0.42709 0.50268 0.0
C1305 C 0.98743 0.45702 0.47815 0.0
C1306 C 0.01506 0.50305 0.49952 0.0
H1307 H 0.96247 0.59209 0.45606 0.0
H1308 H 0.96752 0.55655 0.45395 0.0
H1309 H 0.02666 0.5323 0.49737 0.0
H1310 H 0.02986 0.43255 0.54743 0.0
H1311 H 0.02503 0.46812 0.54774 0.0
H1312 H 0.96613 0.49213 0.50306 0.0
C1313 C 0.97742 0.56497 0.474 0.0
C1314 C 0.01331 0.52375 0.49904 0.0
C1315 C 0.97463 0.58549 0.4749 0.0
C1316 C 0.01786 0.43905 0.52788 0.0
C1317 C 0.0152 0.45959 0.52777 0.0
C1318 C 0.97948 0.50068 0.50135 0.0
C1319 C 0.9926 0.55544 0.49873 0.0
C1320 C 0.99461 0.53328 0.49968 0.0
C1321 C 1.00018 0.469 0.50231 0.0
C1322 C 0.99818 0.49116 0.50082 0.0
H1323 H 1.01235 0.59654 0.544 0.0
H1324 H 0.01725 0.56056 0.54268 0.0
H1325 H 0.96304 0.52805 0.50226 0.0
H1326 H 0.98043 0.42763 0.45829 0.0
H1327 H 0.97573 0.46367 0.45793 0.0
loop_
_geom_bond_atom_site_label_1
_geom_bond_atom_site_label_2
_geom_bond_distance
_geom_bond_site_symmetry_2
_ccdc_geom_bond_type
Cu0 N1 1.999 . S
Cu0 O6 1.974 . S
Cu0 N11 1.985 1_545 S
Cu0 O20 1.959 . S
N1 Cu0 1.999 . S
N1 C3 1.263 . S
N1 C5 1.389 . S
N2 C3 1.358 . S
N2 C4 1.400 . S
C3 N1 1.263 . S
C3 N2 1.358 . S
C3 H9 0.930 . S
C4 N2 1.400 . S
C4 C5 1.351 . S
C4 H21 0.930 . S
C5 N1 1.389 . S
C5 C4 1.351 . S
C5 H10 0.930 . S
O6 Cu0 1.974 . S
O6 C16 1.282 1_545 S
C7 O8 1.261 . S
C7 O20 1.251 1_565 S
O8 C7 1.261 . S
H9 C3 0.930 . S
H10 C5 0.930 . S
N11 Cu0 1.985 1_565 S
N11 C13 1.335 1_554 S
N11 C14 1.390 1_554 S
N12 C13 1.345 . S
N12 C15 1.336 . S
C13 N11 1.335 1_556 S
C13 N12 1.345 . S
C13 H18 0.930 1_566 S
C14 N11 1.390 1_556 S
C14 C15 1.346 . S
C14 H19 0.930 . S
C15 N12 1.336 . S
C15 C14 1.346 . S
C15 H22 0.929 . S
C16 O6 1.282 1_565 S
C16 O17 1.216 . S
O17 C16 1.216 . S
H18 C13 0.930 1_544 S
H19 C14 0.930 . S
O20 Cu0 1.959 . S
O20 C7 1.251 1_545 S
H21 C4 0.930 . S
H22 C15 0.929 . S
Cu23 N24 1.999 . S
Cu23 O29 1.974 . S
Cu23 N34 1.985 . S
Cu23 O43 1.959 . S
N24 Cu23 1.999 . S
N24 C26 1.263 . S
N24 C28 1.389 . S
N25 C26 1.358 . S
N25 C27 1.400 . S
C26 N24 1.263 . S
C26 N25 1.358 . S
C26 H32 0.930 . S
C27 N25 1.400 . S
C27 C28 1.351 . S
C27 H44 0.930 . S
C28 N24 1.389 . S
C28 C27 1.351 . S
C28 H33 0.930 . S
O29 Cu23 1.974 . S
O29 C39 1.282 . S
C30 O31 1.261 . S
C30 O43 1.251 . S
O31 C30 1.261 . S
H32 C26 0.930 . S
H33 C28 0.930 . S
N34 Cu23 1.985 . S
N34 C36 1.335 . S
N34 C37 1.390 1_554 S
N35 C36 1.345 1_556 S
N35 C38 1.336 . S
C36 N34 1.335 . S
C36 N35 1.345 1_554 S
C36 H41 0.930 . S
C37 N34 1.390 1_556 S
C37 C38 1.346 . S
C37 H42 0.930 . S
C38 N35 1.336 . S
C38 C37 1.346 . S
C38 H45 0.929 . S
C39 O29 1.282 . S
C39 O40 1.216 . S
O40 C39 1.216 . S
H41 C36 0.930 . S
H42 C37 0.930 . S
O43 Cu23 1.959 . S
O43 C30 1.251 . S
H44 C27 0.930 . S
H45 C38 0.929 . S
Cu46 N47 1.999 . S
Cu46 O52 1.974 . S
Cu46 N57 1.985 . S
Cu46 O66 1.959 . S
N47 Cu46 1.999 . S
N47 C49 1.263 . S
N47 C51 1.389 . S
N48 C49 1.358 . S
N48 C50 1.400 . S
C49 N47 1.263 . S
C49 N48 1.358 . S
C49 H55 0.930 . S
C50 N48 1.400 . S
C50 C51 1.351 . S
C50 H67 0.930 . S
C51 N47 1.389 . S
C51 C50 1.351 . S
C51 H56 0.930 . S
O52 Cu46 1.974 . S
O52 C62 1.282 . S
C53 O54 1.261 . S
C53 O66 1.251 . S
O54 C53 1.261 . S
H55 C49 0.930 . S
H56 C51 0.930 . S
N57 Cu46 1.985 . S
N57 C59 1.335 . S
N57 C60 1.390 1_554 S
N58 C59 1.345 1_556 S
N58 C61 1.336 . S
C59 N57 1.335 . S
C59 N58 1.345 1_554 S
C59 H64 0.930 . S
C60 N57 1.390 1_556 S
C60 C61 1.346 . S
C60 H65 0.930 . S
C61 N58 1.336 . S
C61 C60 1.346 . S
C61 H68 0.929 . S
C62 O52 1.282 . S
C62 O63 1.216 . S
O63 C62 1.216 . S
H64 C59 0.930 . S
H65 C60 0.930 . S
O66 Cu46 1.959 . S
O66 C53 1.251 . S
H67 C50 0.930 . S
H68 C61 0.929 . S
Cu69 N70 1.999 . S
Cu69 O75 1.974 . S
Cu69 N80 1.986 1_454 S
Cu69 O89 1.959 . S
N70 Cu69 1.999 . S
N70 C72 1.263 . S
N70 C74 1.389 . S
N71 C72 1.358 . S
N71 C73 1.400 . S
C72 N70 1.263 . S
C72 N71 1.358 . S
C72 H78 0.930 . S
C73 N71 1.400 . S
C73 C74 1.351 . S
C73 H90 0.930 . S
C74 N70 1.389 . S
C74 C73 1.351 . S
C74 H79 0.930 . S
O75 Cu69 1.974 . S
O75 C85 1.282 1_455 S
C76 O77 1.261 . S
C76 O89 1.251 1_655 S
O77 C76 1.261 . S
H78 C72 0.930 . S
H79 C74 0.930 . S
N80 Cu69 1.986 1_656 S
N80 C82 1.335 . S
N80 C83 1.389 . S
N81 C82 1.345 . S
N81 C84 1.336 . S
C82 N80 1.335 . S
C82 N81 1.345 . S
C82 H87 0.930 1_656 S
C83 N80 1.389 . S
C83 C84 1.346 . S
C83 H88 0.930 . S
C84 N81 1.336 . S
C84 C83 1.346 . S
C84 H91 0.929 . S
C85 O75 1.282 1_655 S
C85 O86 1.216 . S
O86 C85 1.216 . S
H87 C82 0.930 1_454 S
H88 C83 0.930 . S
O89 Cu69 1.959 . S
O89 C76 1.251 1_455 S
H90 C73 0.930 . S
H91 C84 0.929 . S
Cu92 N93 1.999 . S
Cu92 O98 1.974 . S
Cu92 N103 1.985 1_565 S
Cu92 O112 1.959 . S
N93 Cu92 1.999 . S
N93 C95 1.263 . S
N93 C97 1.389 . S
N94 C95 1.358 . S
N94 C96 1.400 . S
C95 N93 1.263 . S
C95 N94 1.358 . S
C95 H101 0.930 . S
C96 N94 1.400 . S
C96 C97 1.351 . S
C96 H113 0.930 . S
C97 N93 1.389 . S
C97 C96 1.351 . S
C97 H102 0.930 . S
O98 Cu92 1.974 . S
O98 C108 1.282 1_565 S
C99 O100 1.261 . S
C99 O112 1.251 1_545 S
O100 C99 1.261 . S
H101 C95 0.930 . S
H102 C97 0.930 . S
N103 Cu92 1.985 1_545 S
N103 C105 1.335 . S
N103 C106 1.390 . S
N104 C105 1.345 . S
N104 C107 1.336 . S
C105 N103 1.335 . S
C105 N104 1.345 . S
C105 H110 0.930 1_545 S
C106 N103 1.390 . S
C106 C107 1.346 . S
C106 H111 0.930 . S
C107 N104 1.336 . S
C107 C106 1.346 . S
C107 H114 0.929 . S
C108 O98 1.282 1_545 S
C108 O109 1.216 . S
O109 C108 1.216 . S
H110 C105 0.930 1_565 S
H111 C106 0.930 . S
O112 Cu92 1.959 . S
O112 C99 1.251 1_565 S
H113 C96 0.930 . S
H114 C107 0.929 . S
Cu115 N116 1.999 . S
Cu115 O121 1.974 . S
Cu115 N126 1.985 . S
Cu115 O135 1.959 . S
N116 Cu115 1.999 . S
N116 C118 1.263 . S
N116 C120 1.389 . S
N117 C118 1.358 . S
N117 C119 1.400 . S
C118 N116 1.263 . S
C118 N117 1.358 . S
C118 H124 0.930 . S
C119 N117 1.400 . S
C119 C120 1.351 . S
C119 H136 0.930 . S
C120 N116 1.389 . S
C120 C119 1.351 . S
C120 H125 0.930 . S
O121 Cu115 1.974 . S
O121 C131 1.282 . S
C122 O123 1.261 . S
C122 O135 1.251 . S
O123 C122 1.261 . S
H124 C118 0.930 . S
H125 C120 0.930 . S
N126 Cu115 1.985 . S
N126 C128 1.335 . S
N126 C129 1.390 . S
N127 C128 1.345 . S
N127 C130 1.336 . S
C128 N126 1.335 . S
C128 N127 1.345 . S
C128 H133 0.930 . S
C129 N126 1.390 . S
C129 C130 1.346 . S
C129 H134 0.930 . S
C130 N127 1.336 . S
C130 C129 1.346 . S
C130 H137 0.929 . S
C131 O121 1.282 . S
C131 O132 1.216 . S
O132 C131 1.216 . S
H133 C128 0.930 . S
H134 C129 0.930 . S
O135 Cu115 1.959 . S
O135 C122 1.251 . S
H136 C119 0.930 . S
H137 C130 0.929 . S
Cu138 N139 1.999 . S
Cu138 O144 1.974 . S
Cu138 N149 1.985 . S
Cu138 O158 1.959 . S
N139 Cu138 1.999 . S
N139 C141 1.263 . S
N139 C143 1.389 . S
N140 C141 1.358 . S
N140 C142 1.400 . S
C141 N139 1.263 . S
C141 N140 1.358 . S
C141 H147 0.930 . S
C142 N140 1.400 . S
C142 C143 1.351 . S
C142 H159 0.930 . S
C143 N139 1.389 . S
C143 C142 1.351 . S
C143 H148 0.930 . S
O144 Cu138 1.974 . S
O144 C154 1.282 . S
C145 O146 1.261 . S
C145 O158 1.251 . S
O146 C145 1.261 . S
H147 C141 0.930 . S
H148 C143 0.930 . S
N149 Cu138 1.985 . S
N149 C151 1.335 . S
N149 C152 1.390 . S
N150 C151 1.345 . S
N150 C153 1.336 . S
C151 N149 1.335 . S
C151 N150 1.345 . S
C151 H156 0.930 . S
C152 N149 1.390 . S
C152 C153 1.346 . S
C152 H157 0.930 . S
C153 N150 1.336 . S
C153 C152 1.346 . S
C153 H160 0.929 . S
C154 O144 1.282 . S
C154 O155 1.216 . S
O155 C154 1.216 . S
H156 C151 0.930 . S
H157 C152 0.930 . S
O158 Cu138 1.959 . S
O158 C145 1.251 . S
H159 C142 0.930 . S
H160 C153 0.929 . S
Cu161 N162 1.999 . S
Cu161 O167 1.974 . S
Cu161 N172 1.985 1_655 S
Cu161 O181 1.959 . S
N162 Cu161 1.999 . S
N162 C164 1.263 . S
N162 C166 1.389 . S
N163 C164 1.358 . S
N163 C165 1.400 . S
C164 N162 1.263 . S
C164 N163 1.358 . S
C164 H170 0.930 . S
C165 N163 1.400 . S
C165 C166 1.351 . S
C165 H182 0.930 . S
C166 N162 1.389 . S
C166 C165 1.351 . S
C166 H171 0.930 . S
O167 Cu161 1.974 . S
O167 C177 1.282 1_655 S
C168 O169 1.261 . S
C168 O181 1.251 1_455 S
O169 C168 1.261 . S
H170 C164 0.930 . S
H171 C166 0.930 . S
N172 Cu161 1.985 1_455 S
N172 C174 1.335 . S
N172 C175 1.390 . S
N173 C174 1.345 . S
N173 C176 1.336 . S
C174 N172 1.335 . S
C174 N173 1.345 . S
C174 H179 0.930 1_455 S
C175 N172 1.390 . S
C175 C176 1.346 . S
C175 H180 0.930 . S
C176 N173 1.336 . S
C176 C175 1.346 . S
C176 H183 0.929 . S
C177 O167 1.282 1_455 S
C177 O178 1.216 . S
O178 C177 1.216 . S
H179 C174 0.930 1_655 S
H180 C175 0.930 . S
O181 Cu161 1.959 . S
O181 C168 1.251 1_655 S
H182 C165 0.930 . S
H183 C176 0.929 . S
Cu184 N185 1.999 . S
Cu184 O190 1.974 . S
Cu184 N195 1.985 1_565 S
Cu184 O204 1.959 . S
N185 Cu184 1.999 . S
N185 C187 1.263 . S
N185 C189 1.389 . S
N186 C187 1.358 . S
N186 C188 1.400 . S
C187 N185 1.263 . S
C187 N186 1.358 . S
C187 H193 0.930 . S
C188 N186 1.400 . S
C188 C189 1.351 . S
C188 H205 0.930 . S
C189 N185 1.389 . S
C189 C188 1.351 . S
C189 H194 0.930 . S
O190 Cu184 1.974 . S
O190 C200 1.282 1_565 S
C191 O192 1.261 . S
C191 O204 1.251 1_545 S
O192 C191 1.261 . S
H193 C187 0.930 . S
H194 C189 0.930 . S
N195 Cu184 1.985 1_545 S
N195 C197 1.335 1_556 S
N195 C198 1.390 1_556 S
N196 C197 1.345 . S
N196 C199 1.336 . S
C197 N195 1.335 1_554 S
C197 N196 1.345 . S
C197 H202 0.930 1_544 S
C198 N195 1.390 1_554 S
C198 C199 1.346 . S
C198 H203 0.930 . S
C199 N196 1.336 . S
C199 C198 1.346 . S
C199 H206 0.929 . S
C200 O190 1.282 1_545 S
C200 O201 1.216 . S
O201 C200 1.216 . S
H202 C197 0.930 1_566 S
H203 C198 0.930 . S
O204 Cu184 1.959 . S
O204 C191 1.251 1_565 S
H205 C188 0.930 . S
H206 C199 0.929 . S
Cu207 N208 1.999 . S
Cu207 O213 1.974 . S
Cu207 N218 1.985 . S
Cu207 O227 1.959 . S
N208 Cu207 1.999 . S
N208 C210 1.263 . S
N208 C212 1.389 . S
N209 C210 1.358 . S
N209 C211 1.400 . S
C210 N208 1.263 . S
C210 N209 1.358 . S
C210 H216 0.930 . S
C211 N209 1.400 . S
C211 C212 1.351 . S
C211 H228 0.930 . S
C212 N208 1.389 . S
C212 C211 1.351 . S
C212 H217 0.930 . S
O213 Cu207 1.974 . S
O213 C223 1.282 . S
C214 O215 1.261 . S
C214 O227 1.251 . S
O215 C214 1.261 . S
H216 C210 0.930 . S
H217 C212 0.930 . S
N218 Cu207 1.985 . S
N218 C220 1.335 . S
N218 C221 1.390 1_556 S
N219 C220 1.345 1_554 S
N219 C222 1.336 . S
C220 N218 1.335 . S
C220 N219 1.345 1_556 S
C220 H225 0.930 . S
C221 N218 1.390 1_554 S
C221 C222 1.346 . S
C221 H226 0.930 . S
C222 N219 1.336 . S
C222 C221 1.346 . S
C222 H229 0.929 . S
C223 O213 1.282 . S
C223 O224 1.216 . S
O224 C223 1.216 . S
H225 C220 0.930 . S
H226 C221 0.930 . S
O227 Cu207 1.959 . S
O227 C214 1.251 . S
H228 C211 0.930 . S
H229 C222 0.929 . S
Cu230 N231 1.999 . S
Cu230 O236 1.974 . S
Cu230 N241 1.985 . S
Cu230 O250 1.959 . S
N231 Cu230 1.999 . S
N231 C233 1.263 . S
N231 C235 1.389 . S
N232 C233 1.358 . S
N232 C234 1.400 . S
C233 N231 1.263 . S
C233 N232 1.358 . S
C233 H239 0.930 . S
C234 N232 1.400 . S
C234 C235 1.351 . S
C234 H251 0.930 . S
C235 N231 1.389 . S
C235 C234 1.351 . S
C235 H240 0.930 . S
O236 Cu230 1.974 . S
O236 C246 1.282 . S
C237 O238 1.261 . S
C237 O250 1.251 . S
O238 C237 1.261 . S
H239 C233 0.930 . S
H240 C235 0.930 . S
N241 Cu230 1.985 . S
N241 C243 1.335 . S
N241 C244 1.390 1_556 S
N242 C243 1.345 1_554 S
N242 C245 1.336 . S
C243 N241 1.335 . S
C243 N242 1.345 1_556 S
C243 H248 0.930 . S
C244 N241 1.390 1_554 S
C244 C245 1.346 . S
C244 H249 0.930 . S
C245 N242 1.336 . S
C245 C244 1.346 . S
C245 H252 0.929 . S
C246 O236 1.282 . S
C246 O247 1.216 . S
O247 C246 1.216 . S
H248 C243 0.930 . S
H249 C244 0.930 . S
O250 Cu230 1.959 . S
O250 C237 1.251 . S
H251 C234 0.930 . S
H252 C245 0.929 . S
Cu253 N254 1.999 . S
Cu253 O259 1.974 . S
Cu253 N264 1.986 1_656 S
Cu253 O273 1.959 . S
N254 Cu253 1.999 . S
N254 C256 1.263 . S
N254 C258 1.389 . S
N255 C256 1.358 . S
N255 C257 1.400 . S
C256 N254 1.263 . S
C256 N255 1.358 . S
C256 H262 0.930 . S
C257 N255 1.400 . S
C257 C258 1.351 . S
C257 H274 0.930 . S
C258 N254 1.389 . S
C258 C257 1.351 . S
C258 H263 0.930 . S
O259 Cu253 1.974 . S
O259 C269 1.282 1_655 S
C260 O261 1.261 . S
C260 O273 1.251 1_455 S
O261 C260 1.261 . S
H262 C256 0.930 . S
H263 C258 0.930 . S
N264 Cu253 1.986 1_454 S
N264 C266 1.335 . S
N264 C267 1.389 . S
N265 C266 1.345 . S
N265 C268 1.336 . S
C266 N264 1.335 . S
C266 N265 1.345 . S
C266 H271 0.930 1_454 S
C267 N264 1.389 . S
C267 C268 1.346 . S
C267 H272 0.930 . S
C268 N265 1.336 . S
C268 C267 1.346 . S
C268 H275 0.929 . S
C269 O259 1.282 1_455 S
C269 O270 1.216 . S
O270 C269 1.216 . S
H271 C266 0.930 1_656 S
H272 C267 0.930 . S
O273 Cu253 1.959 . S
O273 C260 1.251 1_655 S
H274 C257 0.930 . S
H275 C268 0.929 . S
Cu276 N277 1.999 . S
Cu276 O282 1.974 . S
Cu276 N287 1.985 1_545 S
Cu276 O296 1.959 . S
N277 Cu276 1.999 . S
N277 C279 1.263 . S
N277 C281 1.389 . S
N278 C279 1.358 . S
N278 C280 1.400 . S
C279 N277 1.263 . S
C279 N278 1.358 . S
C279 H285 0.930 . S
C280 N278 1.400 . S
C280 C281 1.351 . S
C280 H297 0.930 . S
C281 N277 1.389 . S
C281 C280 1.351 . S
C281 H286 0.930 . S
O282 Cu276 1.974 . S
O282 C292 1.282 1_545 S
C283 O284 1.261 . S
C283 O296 1.251 1_565 S
O284 C283 1.261 . S
H285 C279 0.930 . S
H286 C281 0.930 . S
N287 Cu276 1.985 1_565 S
N287 C289 1.335 . S
N287 C290 1.390 . S
N288 C289 1.345 . S
N288 C291 1.336 . S
C289 N287 1.335 . S
C289 N288 1.345 . S
C289 H294 0.930 1_565 S
C290 N287 1.390 . S
C290 C291 1.346 . S
C290 H295 0.930 . S
C291 N288 1.336 . S
C291 C290 1.346 . S
C291 H298 0.929 . S
C292 O282 1.282 1_565 S
C292 O293 1.216 . S
O293 C292 1.216 . S
H294 C289 0.930 1_545 S
H295 C290 0.930 . S
O296 Cu276 1.959 . S
O296 C283 1.251 1_545 S
H297 C280 0.930 . S
H298 C291 0.929 . S
Cu299 N300 1.999 . S
Cu299 O305 1.974 . S
Cu299 N310 1.985 . S
Cu299 O319 1.959 . S
N300 Cu299 1.999 . S
N300 C302 1.263 . S
N300 C304 1.389 . S
N301 C302 1.358 . S
N301 C303 1.400 . S
C302 N300 1.263 . S
C302 N301 1.358 . S
C302 H308 0.930 . S
C303 N301 1.400 . S
C303 C304 1.351 . S
C303 H320 0.930 . S
C304 N300 1.389 . S
C304 C303 1.351 . S
C304 H309 0.930 . S
O305 Cu299 1.974 . S
O305 C315 1.282 . S
C306 O307 1.261 . S
C306 O319 1.251 . S
O307 C306 1.261 . S
H308 C302 0.930 . S
H309 C304 0.930 . S
N310 Cu299 1.985 . S
N310 C312 1.335 . S
N310 C313 1.390 . S
N311 C312 1.345 . S
N311 C314 1.336 . S
C312 N310 1.335 . S
C312 N311 1.345 . S
C312 H317 0.930 . S
C313 N310 1.390 . S
C313 C314 1.346 . S
C313 H318 0.930 . S
C314 N311 1.336 . S
C314 C313 1.346 . S
C314 H321 0.929 . S
C315 O305 1.282 . S
C315 O316 1.216 . S
O316 C315 1.216 . S
H317 C312 0.930 . S
H318 C313 0.930 . S
O319 Cu299 1.959 . S
O319 C306 1.251 . S
H320 C303 0.930 . S
H321 C314 0.929 . S
Cu322 N323 1.999 . S
Cu322 O328 1.974 . S
Cu322 N333 1.985 . S
Cu322 O342 1.959 . S
N323 Cu322 1.999 . S
N323 C325 1.263 . S
N323 C327 1.389 . S
N324 C325 1.358 . S
N324 C326 1.400 . S
C325 N323 1.263 . S
C325 N324 1.358 . S
C325 H331 0.930 . S
C326 N324 1.400 . S
C326 C327 1.351 . S
C326 H343 0.930 . S
C327 N323 1.389 . S
C327 C326 1.351 . S
C327 H332 0.930 . S
O328 Cu322 1.974 . S
O328 C338 1.282 . S
C329 O330 1.261 . S
C329 O342 1.251 . S
O330 C329 1.261 . S
H331 C325 0.930 . S
H332 C327 0.930 . S
N333 Cu322 1.985 . S
N333 C335 1.335 . S
N333 C336 1.390 . S
N334 C335 1.345 . S
N334 C337 1.336 . S
C335 N333 1.335 . S
C335 N334 1.345 . S
C335 H340 0.930 . S
C336 N333 1.390 . S
C336 C337 1.346 . S
C336 H341 0.930 . S
C337 N334 1.336 . S
C337 C336 1.346 . S
C337 H344 0.929 . S
C338 O328 1.282 . S
C338 O339 1.216 . S
O339 C338 1.216 . S
H340 C335 0.930 . S
H341 C336 0.930 . S
O342 Cu322 1.959 . S
O342 C329 1.251 . S
H343 C326 0.930 . S
H344 C337 0.929 . S
Cu345 N346 1.999 . S
Cu345 O351 1.974 . S
Cu345 N356 1.985 1_455 S
Cu345 O365 1.959 . S
N346 Cu345 1.999 . S
N346 C348 1.263 . S
N346 C350 1.389 . S
N347 C348 1.358 . S
N347 C349 1.400 . S
C348 N346 1.263 . S
C348 N347 1.358 . S
C348 H354 0.930 . S
C349 N347 1.400 . S
C349 C350 1.351 . S
C349 H366 0.930 . S
C350 N346 1.389 . S
C350 C349 1.351 . S
C350 H355 0.930 . S
O351 Cu345 1.974 . S
O351 C361 1.282 1_455 S
C352 O353 1.261 . S
C352 O365 1.251 1_655 S
O353 C352 1.261 . S
H354 C348 0.930 . S
H355 C350 0.930 . S
N356 Cu345 1.985 1_655 S
N356 C358 1.335 . S
N356 C359 1.390 . S
N357 C358 1.345 . S
N357 C360 1.336 . S
C358 N356 1.335 . S
C358 N357 1.345 . S
C358 H363 0.930 1_655 S
C359 N356 1.390 . S
C359 C360 1.346 . S
C359 H364 0.930 . S
C360 N357 1.336 . S
C360 C359 1.346 . S
C360 H367 0.929 . S
C361 O351 1.282 1_655 S
C361 O362 1.216 . S
O362 C361 1.216 . S
H363 C358 0.930 1_455 S
H364 C359 0.930 . S
O365 Cu345 1.959 . S
O365 C352 1.251 1_455 S
H366 C349 0.930 . S
H367 C360 0.929 . S
C368 C369 1.349 . S
C368 C370 1.327 . S
C368 H393 0.950 . S
C369 C368 1.349 . S
C369 C385 1.349 . S
C370 C368 1.327 . S
C370 C389 1.429 . S
C370 H394 0.950 . S
C371 C388 1.574 . S
C371 C390 1.368 . S
C371 H395 0.949 . S
H372 C376 0.949 . S
C373 C374 1.349 . S
C373 C375 1.327 . S
C373 H396 0.950 . S
C374 C373 1.349 . S
C374 C386 1.349 . S
C375 C373 1.327 . S
C375 C391 1.429 . S
C375 H397 0.950 . S
C376 H372 0.949 . S
C376 C384 1.574 . S
C376 C392 1.368 . S
H377 C385 0.950 . S
H378 C383 0.950 . S
H379 C384 0.949 . S
H380 C386 0.950 1_565 S
H381 C387 0.950 . S
H382 C388 0.949 . S
C383 H378 0.950 . S
C383 C385 1.327 . S
C383 C389 1.429 . S
C384 C376 1.574 . S
C384 H379 0.949 . S
C384 C390 1.368 . S
C385 C369 1.349 . S
C385 H377 0.950 . S
C385 C383 1.327 . S
C386 C374 1.349 . S
C386 H380 0.950 1_545 S
C386 C387 1.327 . S
C387 H381 0.950 . S
C387 C386 1.327 . S
C387 C391 1.429 . S
C388 C371 1.574 . S
C388 H382 0.949 . S
C388 C392 1.368 . S
C389 C370 1.429 . S
C389 C383 1.429 . S
C389 C390 1.523 . S
C390 C371 1.368 . S
C390 C384 1.368 . S
C390 C389 1.523 . S
C391 C375 1.429 . S
C391 C387 1.429 . S
C391 C392 1.523 . S
C392 C376 1.368 . S
C392 C388 1.368 . S
C392 C391 1.523 . S
H393 C368 0.950 . S
H394 C370 0.950 . S
H395 C371 0.949 . S
H396 C373 0.950 . S
H397 C375 0.950 . S
C398 C399 1.349 . S
C398 C400 1.327 . S
C398 H423 0.950 . S
C399 C398 1.349 . S
C399 C415 1.349 . S
C400 C398 1.327 . S
C400 C419 1.429 . S
C400 H424 0.950 . S
C401 C418 1.574 . S
C401 C420 1.368 . S
C401 H425 0.949 . S
H402 C406 0.949 . S
C403 C404 1.349 . S
C403 C405 1.327 . S
C403 H426 0.950 . S
C404 C403 1.349 . S
C404 C416 1.349 . S
C405 C403 1.327 . S
C405 C421 1.429 . S
C405 H427 0.950 . S
C406 H402 0.949 . S
C406 C414 1.574 . S
C406 C422 1.368 . S
H407 C415 0.950 . S
H408 C413 0.950 . S
H409 C414 0.949 . S
H410 C416 0.950 . S
H411 C417 0.950 . S
H412 C418 0.949 . S
C413 H408 0.950 . S
C413 C415 1.327 . S
C413 C419 1.429 . S
C414 C406 1.574 . S
C414 H409 0.949 . S
C414 C420 1.368 . S
C415 C399 1.349 . S
C415 H407 0.950 . S
C415 C413 1.327 . S
C416 C404 1.349 . S
C416 H410 0.950 . S
C416 C417 1.327 . S
C417 H411 0.950 . S
C417 C416 1.327 . S
C417 C421 1.429 . S
C418 C401 1.574 . S
C418 H412 0.949 . S
C418 C422 1.368 . S
C419 C400 1.429 . S
C419 C413 1.429 . S
C419 C420 1.523 . S
C420 C401 1.368 . S
C420 C414 1.368 . S
C420 C419 1.523 . S
C421 C405 1.429 . S
C421 C417 1.429 . S
C421 C422 1.523 . S
C422 C406 1.368 . S
C422 C418 1.368 . S
C422 C421 1.523 . S
H423 C398 0.950 . S
H424 C400 0.950 . S
H425 C401 0.949 . S
H426 C403 0.950 . S
H427 C405 0.950 . S
C428 C429 1.349 . S
C428 C430 1.327 . S
C428 H453 0.950 . S
C429 C428 1.349 . S
C429 C445 1.349 . S
C430 C428 1.327 . S
C430 C449 1.429 . S
C430 H454 0.950 . S
C431 C448 1.574 . S
C431 C450 1.368 . S
C431 H455 0.949 . S
H432 C436 0.949 . S
C433 C434 1.349 . S
C433 C435 1.327 . S
C433 H456 0.950 . S
C434 C433 1.349 . S
C434 C446 1.349 . S
C435 C433 1.327 . S
C435 C451 1.429 . S
C435 H457 0.950 . S
C436 H432 0.949 . S
C436 C444 1.574 . S
C436 C452 1.368 . S
H437 C445 0.950 . S
H438 C443 0.950 . S
H439 C444 0.949 . S
H440 C446 0.950 1_455 S
H441 C447 0.950 . S
H442 C448 0.949 . S
C443 H438 0.950 . S
C443 C445 1.327 . S
C443 C449 1.429 . S
C444 C436 1.574 . S
C444 H439 0.949 . S
C444 C450 1.368 . S
C445 C429 1.349 . S
C445 H437 0.950 . S
C445 C443 1.327 . S
C446 C434 1.349 . S
C446 H440 0.950 1_655 S
C446 C447 1.327 . S
C447 H441 0.950 . S
C447 C446 1.327 . S
C447 C451 1.429 . S
C448 C431 1.574 . S
C448 H442 0.949 . S
C448 C452 1.368 . S
C449 C430 1.429 . S
C449 C443 1.429 . S
C449 C450 1.523 . S
C450 C431 1.368 . S
C450 C444 1.368 . S
C450 C449 1.523 . S
C451 C435 1.429 . S
C451 C447 1.429 . S
C451 C452 1.523 . S
C452 C436 1.368 . S
C452 C448 1.368 . S
C452 C451 1.523 . S
H453 C428 0.950 . S
H454 C430 0.950 . S
H455 C431 0.949 . S
H456 C433 0.950 . S
H457 C435 0.950 . S
C458 C459 1.349 . S
C458 C460 1.327 . S
C458 H483 0.950 . S
C459 C458 1.349 . S
C459 C475 1.349 . S
C460 C458 1.327 . S
C460 C479 1.429 . S
C460 H484 0.950 . S
C461 C478 1.574 . S
C461 C480 1.368 . S
C461 H485 0.949 . S
H462 C466 0.949 . S
C463 C464 1.349 . S
C463 C465 1.327 . S
C463 H486 0.950 1_565 S
C464 C463 1.349 . S
C464 C476 1.349 . S
C465 C463 1.327 . S
C465 C481 1.429 . S
C465 H487 0.950 . S
C466 H462 0.949 . S
C466 C474 1.574 . S
C466 C482 1.368 . S
H467 C475 0.950 . S
H468 C473 0.950 . S
H469 C474 0.949 . S
H470 C476 0.950 . S
H471 C477 0.950 . S
H472 C478 0.949 . S
C473 H468 0.950 . S
C473 C475 1.327 . S
C473 C479 1.429 . S
C474 C466 1.574 . S
C474 H469 0.949 . S
C474 C480 1.368 . S
C475 C459 1.349 . S
C475 H467 0.950 . S
C475 C473 1.327 . S
C476 C464 1.349 . S
C476 H470 0.950 . S
C476 C477 1.327 . S
C477 H471 0.950 . S
C477 C476 1.327 . S
C477 C481 1.429 . S
C478 C461 1.574 . S
C478 H472 0.949 . S
C478 C482 1.368 . S
C479 C460 1.429 . S
C479 C473 1.429 . S
C479 C480 1.523 . S
C480 C461 1.368 . S
C480 C474 1.368 . S
C480 C479 1.523 . S
C481 C465 1.429 . S
C481 C477 1.429 . S
C481 C482 1.523 . S
C482 C466 1.368 . S
C482 C478 1.368 . S
C482 C481 1.523 . S
H483 C458 0.950 . S
H484 C460 0.950 . S
H485 C461 0.949 . S
H486 C463 0.950 1_545 S
H487 C465 0.950 . S
C488 C489 1.349 . S
C488 C490 1.327 . S
C488 H513 0.950 1_565 S
C489 C488 1.349 . S
C489 C505 1.349 . S
C490 C488 1.327 . S
C490 C509 1.429 . S
C490 H514 0.950 . S
C491 C508 1.574 . S
C491 C510 1.368 . S
C491 H515 0.949 . S
H492 C496 0.949 . S
C493 C494 1.349 . S
C493 C495 1.327 . S
C493 H516 0.950 . S
C494 C493 1.349 . S
C494 C506 1.349 . S
C495 C493 1.327 . S
C495 C511 1.429 . S
C495 H517 0.950 . S
C496 H492 0.949 . S
C496 C504 1.574 . S
C496 C512 1.368 . S
H497 C505 0.950 . S
H498 C503 0.950 . S
H499 C504 0.949 . S
H500 C506 0.950 . S
H501 C507 0.950 . S
H502 C508 0.949 . S
C503 H498 0.950 . S
C503 C505 1.327 . S
C503 C509 1.429 . S
C504 C496 1.574 . S
C504 H499 0.949 . S
C504 C510 1.368 . S
C505 C489 1.349 . S
C505 H497 0.950 . S
C505 C503 1.327 . S
C506 C494 1.349 . S
C506 H500 0.950 . S
C506 C507 1.327 . S
C507 H501 0.950 . S
C507 C506 1.327 . S
C507 C511 1.429 . S
C508 C491 1.574 . S
C508 H502 0.949 . S
C508 C512 1.368 . S
C509 C490 1.429 . S
C509 C503 1.429 . S
C509 C510 1.523 . S
C510 C491 1.368 . S
C510 C504 1.368 . S
C510 C509 1.523 . S
C511 C495 1.429 . S
C511 C507 1.429 . S
C511 C512 1.523 . S
C512 C496 1.368 . S
C512 C508 1.368 . S
C512 C511 1.523 . S
H513 C488 0.950 1_545 S
H514 C490 0.950 . S
H515 C491 0.949 . S
H516 C493 0.950 . S
H517 C495 0.950 . S
C518 C519 1.349 . S
C518 C520 1.327 . S
C518 H543 0.950 . S
C519 C518 1.349 . S
C519 C535 1.349 . S
C520 C518 1.327 . S
C520 C539 1.429 . S
C520 H544 0.950 . S
C521 C538 1.574 . S
C521 C540 1.368 . S
C521 H545 0.949 . S
H522 C526 0.949 . S
C523 C524 1.349 . S
C523 C525 1.327 . S
C523 H546 0.950 . S
C524 C523 1.349 . S
C524 C536 1.349 . S
C525 C523 1.327 . S
C525 C541 1.429 . S
C525 H547 0.950 . S
C526 H522 0.949 . S
C526 C534 1.574 . S
C526 C542 1.368 . S
H527 C535 0.950 . S
H528 C533 0.950 . S
H529 C534 0.949 . S
H530 C536 0.950 . S
H531 C537 0.950 . S
H532 C538 0.949 . S
C533 H528 0.950 . S
C533 C535 1.327 . S
C533 C539 1.429 . S
C534 C526 1.574 . S
C534 H529 0.949 . S
C534 C540 1.368 . S
C535 C519 1.349 . S
C535 H527 0.950 . S
C535 C533 1.327 . S
C536 C524 1.349 . S
C536 H530 0.950 . S
C536 C537 1.327 . S
C537 H531 0.950 . S
C537 C536 1.327 . S
C537 C541 1.429 . S
C538 C521 1.574 . S
C538 H532 0.949 . S
C538 C542 1.368 . S
C539 C520 1.429 . S
C539 C533 1.429 . S
C539 C540 1.523 . S
C540 C521 1.368 . S
C540 C534 1.368 . S
C540 C539 1.523 . S
C541 C525 1.429 . S
C541 C537 1.429 . S
C541 C542 1.523 . S
C542 C526 1.368 . S
C542 C538 1.368 . S
C542 C541 1.523 . S
H543 C518 0.950 . S
H544 C520 0.950 . S
H545 C521 0.949 . S
H546 C523 0.950 . S
H547 C525 0.950 . S
C548 C549 1.349 . S
C548 C550 1.327 . S
C548 H573 0.950 . S
C549 C548 1.349 . S
C549 C565 1.349 . S
C550 C548 1.327 . S
C550 C569 1.429 . S
C550 H574 0.950 . S
C551 C568 1.574 . S
C551 C570 1.368 . S
C551 H575 0.949 . S
H552 C556 0.949 . S
C553 C554 1.349 . S
C553 C555 1.327 . S
C553 H576 0.950 . S
C554 C553 1.349 . S
C554 C566 1.349 . S
C555 C553 1.327 . S
C555 C571 1.429 . S
C555 H577 0.950 . S
C556 H552 0.949 . S
C556 C564 1.574 . S
C556 C572 1.368 . S
H557 C565 0.950 . S
H558 C563 0.950 . S
H559 C564 0.949 . S
H560 C566 0.950 . S
H561 C567 0.950 . S
H562 C568 0.949 . S
C563 H558 0.950 . S
C563 C565 1.327 . S
C563 C569 1.429 . S
C564 C556 1.574 . S
C564 H559 0.949 . S
C564 C570 1.368 . S
C565 C549 1.349 . S
C565 H557 0.950 . S
C565 C563 1.327 . S
C566 C554 1.349 . S
C566 H560 0.950 . S
C566 C567 1.327 . S
C567 H561 0.950 . S
C567 C566 1.327 . S
C567 C571 1.429 . S
C568 C551 1.574 . S
C568 H562 0.949 . S
C568 C572 1.368 . S
C569 C550 1.429 . S
C569 C563 1.429 . S
C569 C570 1.523 . S
C570 C551 1.368 . S
C570 C564 1.368 . S
C570 C569 1.523 . S
C571 C555 1.429 . S
C571 C567 1.429 . S
C571 C572 1.523 . S
C572 C556 1.368 . S
C572 C568 1.368 . S
C572 C571 1.523 . S
H573 C548 0.950 . S
H574 C550 0.950 . S
H575 C551 0.949 . S
H576 C553 0.950 . S
H577 C555 0.950 . S
C578 C579 1.349 . S
C578 C580 1.327 . S
C578 H603 0.950 . S
C579 C578 1.349 . S
C579 C595 1.349 . S
C580 C578 1.327 . S
C580 C599 1.429 . S
C580 H604 0.950 . S
C581 C598 1.574 . S
C581 C600 1.368 . S
C581 H605 0.949 . S
H582 C586 0.949 . S
C583 C584 1.349 . S
C583 C585 1.327 . S
C583 H606 0.950 . S
C584 C583 1.349 . S
C584 C596 1.349 . S
C585 C583 1.327 . S
C585 C601 1.429 . S
C585 H607 0.950 . S
C586 H582 0.949 . S
C586 C594 1.574 . S
C586 C602 1.368 . S
H587 C595 0.950 . S
H588 C593 0.950 . S
H589 C594 0.949 . S
H590 C596 0.950 . S
H591 C597 0.950 . S
H592 C598 0.949 . S
C593 H588 0.950 . S
C593 C595 1.327 . S
C593 C599 1.429 . S
C594 C586 1.574 . S
C594 H589 0.949 . S
C594 C600 1.368 . S
C595 C579 1.349 . S
C595 H587 0.950 . S
C595 C593 1.327 . S
C596 C584 1.349 . S
C596 H590 0.950 . S
C596 C597 1.327 . S
C597 H591 0.950 . S
C597 C596 1.327 . S
C597 C601 1.429 . S
C598 C581 1.574 . S
C598 H592 0.949 . S
C598 C602 1.368 . S
C599 C580 1.429 . S
C599 C593 1.429 . S
C599 C600 1.523 . S
C600 C581 1.368 . S
C600 C594 1.368 . S
C600 C599 1.523 . S
C601 C585 1.429 . S
C601 C597 1.429 . S
C601 C602 1.523 . S
C602 C586 1.368 . S
C602 C598 1.368 . S
C602 C601 1.523 . S
H603 C578 0.950 . S
H604 C580 0.950 . S
H605 C581 0.949 . S
H606 C583 0.950 . S
H607 C585 0.950 . S
C608 C609 1.349 1_545 S
C608 C610 1.327 . S
C608 H633 0.950 . S
C609 C608 1.349 1_565 S
C609 C625 1.349 . S
C610 C608 1.327 . S
C610 C629 1.429 1_545 S
C610 H634 0.950 . S
C611 C628 1.574 . S
C611 C630 1.368 . S
C611 H635 0.949 . S
H612 C616 0.949 . S
C613 C614 1.349 . S
C613 C615 1.327 . S
C613 H636 0.950 . S
C614 C613 1.349 . S
C614 C626 1.349 1_565 S
C615 C613 1.327 . S
C615 C631 1.429 . S
C615 H637 0.950 . S
C616 H612 0.949 . S
C616 C624 1.574 . S
C616 C632 1.368 1_545 S
H617 C625 0.950 . S
H618 C623 0.950 . S
H619 C624 0.949 . S
H620 C626 0.950 . S
H621 C627 0.950 . S
H622 C628 0.949 . S
C623 H618 0.950 . S
C623 C625 1.327 . S
C623 C629 1.429 . S
C624 C616 1.574 . S
C624 H619 0.949 . S
C624 C630 1.368 1_545 S
C625 C609 1.349 . S
C625 H617 0.950 . S
C625 C623 1.327 . S
C626 C614 1.349 1_545 S
C626 H620 0.950 . S
C626 C627 1.327 . S
C627 H621 0.950 . S
C627 C626 1.327 . S
C627 C631 1.429 1_545 S
C628 C611 1.574 . S
C628 H622 0.949 . S
C628 C632 1.368 . S
C629 C610 1.429 1_565 S
C629 C623 1.429 . S
C629 C630 1.523 . S
C630 C611 1.368 . S
C630 C624 1.368 1_565 S
C630 C629 1.523 . S
C631 C615 1.429 . S
C631 C627 1.429 1_565 S
C631 C632 1.523 . S
C632 C616 1.368 1_565 S
C632 C628 1.368 . S
C632 C631 1.523 . S
H633 C608 0.950 . S
H634 C610 0.950 . S
H635 C611 0.949 . S
H636 C613 0.950 . S
H637 C615 0.950 . S
C638 C639 1.349 . S
C638 C640 1.327 . S
C638 H663 0.950 . S
C639 C638 1.349 . S
C639 C655 1.349 . S
C640 C638 1.327 . S
C640 C659 1.429 . S
C640 H664 0.950 . S
C641 C658 1.574 . S
C641 C660 1.368 . S
C641 H665 0.949 . S
H642 C646 0.949 . S
C643 C644 1.349 . S
C643 C645 1.327 . S
C643 H666 0.950 . S
C644 C643 1.349 . S
C644 C656 1.349 . S
C645 C643 1.327 . S
C645 C661 1.429 . S
C645 H667 0.950 . S
C646 H642 0.949 . S
C646 C654 1.574 . S
C646 C662 1.368 . S
H647 C655 0.950 . S
H648 C653 0.950 . S
H649 C654 0.949 . S
H650 C656 0.950 . S
H651 C657 0.950 . S
H652 C658 0.949 . S
C653 H648 0.950 . S
C653 C655 1.327 . S
C653 C659 1.429 . S
C654 C646 1.574 . S
C654 H649 0.949 . S
C654 C660 1.368 . S
C655 C639 1.349 . S
C655 H647 0.950 . S
C655 C653 1.327 . S
C656 C644 1.349 . S
C656 H650 0.950 . S
C656 C657 1.327 . S
C657 H651 0.950 . S
C657 C656 1.327 . S
C657 C661 1.429 . S
C658 C641 1.574 . S
C658 H652 0.949 . S
C658 C662 1.368 . S
C659 C640 1.429 . S
C659 C653 1.429 . S
C659 C660 1.523 . S
C660 C641 1.368 . S
C660 C654 1.368 . S
C660 C659 1.523 . S
C661 C645 1.429 . S
C661 C657 1.429 . S
C661 C662 1.523 . S
C662 C646 1.368 . S
C662 C658 1.368 . S
C662 C661 1.523 . S
H663 C638 0.950 . S
H664 C640 0.950 . S
H665 C641 0.949 . S
H666 C643 0.950 . S
H667 C645 0.950 . S
C668 C669 1.349 . S
C668 C670 1.327 . S
C668 H693 0.950 . S
C669 C668 1.349 . S
C669 C685 1.349 . S
C670 C668 1.327 . S
C670 C689 1.429 . S
C670 H694 0.950 . S
C671 C688 1.574 . S
C671 C690 1.368 . S
C671 H695 0.949 . S
H672 C676 0.949 . S
C673 C674 1.349 . S
C673 C675 1.327 . S
C673 H696 0.950 . S
C674 C673 1.349 . S
C674 C686 1.349 . S
C675 C673 1.327 . S
C675 C691 1.429 . S
C675 H697 0.950 . S
C676 H672 0.949 . S
C676 C684 1.574 . S
C676 C692 1.368 . S
H677 C685 0.950 . S
H678 C683 0.950 . S
H679 C684 0.949 . S
H680 C686 0.950 . S
H681 C687 0.950 . S
H682 C688 0.949 . S
C683 H678 0.950 . S
C683 C685 1.327 . S
C683 C689 1.429 . S
C684 C676 1.574 . S
C684 H679 0.949 . S
C684 C690 1.368 . S
C685 C669 1.349 . S
C685 H677 0.950 . S
C685 C683 1.327 . S
C686 C674 1.349 . S
C686 H680 0.950 . S
C686 C687 1.327 . S
C687 H681 0.950 . S
C687 C686 1.327 . S
C687 C691 1.429 . S
C688 C671 1.574 . S
C688 H682 0.949 . S
C688 C692 1.368 . S
C689 C670 1.429 . S
C689 C683 1.429 . S
C689 C690 1.523 . S
C690 C671 1.368 . S
C690 C684 1.368 . S
C690 C689 1.523 . S
C691 C675 1.429 . S
C691 C687 1.429 . S
C691 C692 1.523 . S
C692 C676 1.368 . S
C692 C688 1.368 . S
C692 C691 1.523 . S
H693 C668 0.950 . S
H694 C670 0.950 . S
H695 C671 0.949 . S
H696 C673 0.950 . S
H697 C675 0.950 . S
C698 C699 1.349 . S
C698 C700 1.327 . S
C698 H723 0.950 . S
C699 C698 1.349 . S
C699 C715 1.349 . S
C700 C698 1.327 . S
C700 C719 1.429 . S
C700 H724 0.950 . S
C701 C718 1.574 . S
C701 C720 1.368 1_455 S
C701 H725 0.949 . S
H702 C706 0.949 . S
C703 C704 1.349 1_455 S
C703 C705 1.327 . S
C703 H726 0.950 . S
C704 C703 1.349 1_655 S
C704 C716 1.349 . S
C705 C703 1.327 . S
C705 C721 1.429 1_455 S
C705 H727 0.950 . S
C706 H702 0.949 . S
C706 C714 1.574 . S
C706 C722 1.368 . S
H707 C715 0.950 1_455 S
H708 C713 0.917 1_455 S
H709 C714 0.949 . S
H710 C716 0.950 . S
H711 C717 0.950 . S
H712 C718 0.949 . S
C713 H708 0.917 1_655 S
C713 C715 1.330 . S
C713 C719 1.459 . S
C714 C706 1.574 . S
C714 H709 0.949 . S
C714 C720 1.368 . S
C715 C699 1.349 . S
C715 H707 0.950 1_655 S
C715 C713 1.330 . S
C716 C704 1.349 . S
C716 H710 0.950 . S
C716 C717 1.327 . S
C717 H711 0.950 . S
C717 C716 1.327 . S
C717 C721 1.429 . S
C718 C701 1.574 . S
C718 H712 0.949 . S
C718 C722 1.368 1_455 S
C719 C700 1.429 . S
C719 C713 1.459 . S
C719 C720 1.523 . S
C720 C701 1.368 1_655 S
C720 C714 1.368 . S
C720 C719 1.523 . S
C721 C705 1.429 1_655 S
C721 C717 1.429 . S
C721 C722 1.523 . S
C722 C706 1.368 . S
C722 C718 1.368 1_655 S
C722 C721 1.523 . S
H723 C698 0.950 . S
H724 C700 0.950 . S
H725 C701 0.949 . S
H726 C703 0.950 . S
H727 C705 0.950 . S
C728 C729 1.349 . S
C728 C730 1.327 . S
C728 H753 0.950 . S
C729 C728 1.349 . S
C729 C745 1.349 . S
C730 C728 1.327 . S
C730 C749 1.429 . S
C730 H754 0.950 . S
C731 C748 1.574 . S
C731 C750 1.368 1_565 S
C731 H755 0.949 . S
H732 C736 0.949 . S
C733 C734 1.349 1_565 S
C733 C735 1.327 . S
C733 H756 0.950 . S
C734 C733 1.349 1_545 S
C734 C746 1.349 . S
C735 C733 1.327 . S
C735 C751 1.429 1_565 S
C735 H757 0.950 . S
C736 H732 0.949 . S
C736 C744 1.574 . S
C736 C752 1.368 . S
H737 C745 0.950 1_565 S
H738 C743 0.956 . S
H739 C744 0.949 . S
H740 C746 0.950 . S
H741 C747 0.950 . S
H742 C748 0.949 . S
C743 H738 0.956 . S
C743 C745 1.327 1_565 S
C743 C749 1.423 1_565 S
C744 C736 1.574 . S
C744 H739 0.949 . S
C744 C750 1.368 . S
C745 C729 1.349 . S
C745 H737 0.950 1_545 S
C745 C743 1.327 1_545 S
C746 C734 1.349 . S
C746 H740 0.950 . S
C746 C747 1.327 . S
C747 H741 0.950 . S
C747 C746 1.327 . S
C747 C751 1.429 . S
C748 C731 1.574 . S
C748 H742 0.949 . S
C748 C752 1.368 1_565 S
C749 C730 1.429 . S
C749 C743 1.423 1_545 S
C749 C750 1.523 . S
C750 C731 1.368 1_545 S
C750 C744 1.368 . S
C750 C749 1.523 . S
C751 C735 1.429 1_545 S
C751 C747 1.429 . S
C751 C752 1.523 . S
C752 C736 1.368 . S
C752 C748 1.368 1_545 S
C752 C751 1.523 . S
H753 C728 0.950 . S
H754 C730 0.950 . S
H755 C731 0.949 . S
H756 C733 0.950 . S
H757 C735 0.950 . S
C758 C759 1.349 . S
C758 C760 1.327 . S
C758 H783 0.950 . S
C759 C758 1.349 . S
C759 C775 1.349 . S
C760 C758 1.327 . S
C760 C779 1.429 . S
C760 H784 0.950 . S
C761 C778 1.574 . S
C761 C780 1.368 . S
C761 H785 0.949 . S
H762 C766 0.949 . S
C763 C764 1.349 . S
C763 C765 1.327 . S
C763 H786 0.950 . S
C764 C763 1.349 . S
C764 C776 1.349 . S
C765 C763 1.327 . S
C765 C781 1.429 . S
C765 H787 0.950 . S
C766 H762 0.949 . S
C766 C774 1.574 . S
C766 C782 1.368 . S
H767 C775 0.950 . S
H768 C773 0.950 . S
H769 C774 0.949 . S
H770 C776 0.950 . S
H771 C777 0.950 . S
H772 C778 0.949 . S
C773 H768 0.950 . S
C773 C775 1.327 . S
C773 C779 1.429 . S
C774 C766 1.574 . S
C774 H769 0.949 . S
C774 C780 1.368 . S
C775 C759 1.349 . S
C775 H767 0.950 . S
C775 C773 1.327 . S
C776 C764 1.349 . S
C776 H770 0.950 . S
C776 C777 1.327 . S
C777 H771 0.950 . S
C777 C776 1.327 . S
C777 C781 1.429 . S
C778 C761 1.574 . S
C778 H772 0.949 . S
C778 C782 1.368 . S
C779 C760 1.429 . S
C779 C773 1.429 . S
C779 C780 1.523 . S
C780 C761 1.368 . S
C780 C774 1.368 . S
C780 C779 1.523 . S
C781 C765 1.429 . S
C781 C777 1.429 . S
C781 C782 1.523 . S
C782 C766 1.368 . S
C782 C778 1.368 . S
C782 C781 1.523 . S
H783 C758 0.950 . S
H784 C760 0.950 . S
H785 C761 0.949 . S
H786 C763 0.950 . S
H787 C765 0.950 . S
C788 C789 1.349 . S
C788 C790 1.327 . S
C788 H813 0.950 . S
C789 C788 1.349 . S
C789 C805 1.349 . S
C790 C788 1.327 . S
C790 C809 1.429 . S
C790 H814 0.950 . S
C791 C808 1.574 . S
C791 C810 1.368 . S
C791 H815 0.949 . S
H792 C796 0.949 . S
C793 C794 1.349 . S
C793 C795 1.327 . S
C793 H816 0.950 . S
C794 C793 1.349 . S
C794 C806 1.349 . S
C795 C793 1.327 . S
C795 C811 1.429 . S
C795 H817 0.950 . S
C796 H792 0.949 . S
C796 C804 1.574 . S
C796 C812 1.368 . S
H797 C805 0.950 . S
H798 C803 0.950 . S
H799 C804 0.949 . S
H800 C806 0.950 . S
H801 C807 0.950 . S
H802 C808 0.949 . S
C803 H798 0.950 . S
C803 C805 1.327 . S
C803 C809 1.429 . S
C804 C796 1.574 . S
C804 H799 0.949 . S
C804 C810 1.368 . S
C805 C789 1.349 . S
C805 H797 0.950 . S
C805 C803 1.327 . S
C806 C794 1.349 . S
C806 H800 0.950 . S
C806 C807 1.327 . S
C807 H801 0.950 . S
C807 C806 1.327 . S
C807 C811 1.429 . S
C808 C791 1.574 . S
C808 H802 0.949 . S
C808 C812 1.368 . S
C809 C790 1.429 . S
C809 C803 1.429 . S
C809 C810 1.523 . S
C810 C791 1.368 . S
C810 C804 1.368 . S
C810 C809 1.523 . S
C811 C795 1.429 . S
C811 C807 1.429 . S
C811 C812 1.523 . S
C812 C796 1.368 . S
C812 C808 1.368 . S
C812 C811 1.523 . S
H813 C788 0.950 . S
H814 C790 0.950 . S
H815 C791 0.949 . S
H816 C793 0.950 . S
H817 C795 0.950 . S
C818 C819 1.349 . S
C818 C820 1.327 . S
C818 H843 0.950 . S
C819 C818 1.349 . S
C819 C835 1.354 . S
C820 C818 1.327 . S
C820 C839 1.429 . S
C820 H844 0.950 . S
C821 C838 1.574 . S
C821 C840 1.368 1_655 S
C821 H845 0.949 . S
H822 C826 0.949 . S
C823 C824 1.349 1_655 S
C823 C825 1.327 . S
C823 H846 0.950 . S
C824 C823 1.349 1_455 S
C824 C836 1.349 . S
C825 C823 1.327 . S
C825 C841 1.429 1_655 S
C825 H847 0.950 . S
C826 H822 0.949 . S
C826 C834 1.574 . S
C826 C842 1.368 . S
H827 C835 0.945 1_655 S
H828 C833 0.950 . S
H829 C834 0.949 . S
H830 C836 0.950 . S
H831 C837 0.950 . S
H832 C838 0.949 . S
C833 H828 0.950 . S
C833 C835 1.327 1_655 S
C833 C839 1.429 1_655 S
C834 C826 1.574 . S
C834 H829 0.949 . S
C834 C840 1.368 . S
C835 C819 1.354 . S
C835 H827 0.945 1_455 S
C835 C833 1.327 1_455 S
C836 C824 1.349 . S
C836 H830 0.950 . S
C836 C837 1.327 . S
C837 H831 0.950 . S
C837 C836 1.327 . S
C837 C841 1.429 . S
C838 C821 1.574 . S
C838 H832 0.949 . S
C838 C842 1.368 1_655 S
C839 C820 1.429 . S
C839 C833 1.429 1_455 S
C839 C840 1.523 . S
C840 C821 1.368 1_455 S
C840 C834 1.368 . S
C840 C839 1.523 . S
C841 C825 1.429 1_455 S
C841 C837 1.429 . S
C841 C842 1.523 . S
C842 C826 1.368 . S
C842 C838 1.368 1_455 S
C842 C841 1.523 . S
H843 C818 0.950 . S
H844 C820 0.950 . S
H845 C821 0.949 . S
H846 C823 0.950 . S
H847 C825 0.950 . S
C848 C849 1.349 1_565 S
C848 C850 1.327 . S
C848 H873 0.950 . S
C849 C848 1.349 1_545 S
C849 C865 1.349 . S
C850 C848 1.327 . S
C850 C869 1.429 1_565 S
C850 H874 0.950 . S
C851 C868 1.574 . S
C851 C870 1.368 . S
C851 H875 0.949 . S
H852 C856 0.949 . S
C853 C854 1.349 . S
C853 C855 1.327 . S
C853 H876 0.950 . S
C854 C853 1.349 . S
C854 C866 1.360 . S
C855 C853 1.327 . S
C855 C871 1.429 . S
C855 H877 0.950 . S
C856 H852 0.949 . S
C856 C864 1.574 . S
C856 C872 1.368 1_565 S
H857 C865 0.950 . S
H858 C863 0.950 . S
H859 C864 0.949 . S
H860 C866 0.939 1_565 S
H861 C867 0.950 . S
H862 C868 0.949 . S
C863 H858 0.950 . S
C863 C865 1.327 . S
C863 C869 1.429 . S
C864 C856 1.574 . S
C864 H859 0.949 . S
C864 C870 1.368 1_565 S
C865 C849 1.349 . S
C865 H857 0.950 . S
C865 C863 1.327 . S
C866 C854 1.360 . S
C866 H860 0.939 1_545 S
C866 C867 1.326 1_545 S
C867 H861 0.950 . S
C867 C866 1.326 1_565 S
C867 C871 1.429 1_565 S
C868 C851 1.574 . S
C868 H862 0.949 . S
C868 C872 1.368 . S
C869 C850 1.429 1_545 S
C869 C863 1.429 . S
C869 C870 1.523 . S
C870 C851 1.368 . S
C870 C864 1.368 1_545 S
C870 C869 1.523 . S
C871 C855 1.429 . S
C871 C867 1.429 1_545 S
C871 C872 1.523 . S
C872 C856 1.368 1_545 S
C872 C868 1.368 . S
C872 C871 1.523 . S
H873 C848 0.950 . S
H874 C850 0.950 . S
H875 C851 0.949 . S
H876 C853 0.950 . S
H877 C855 0.950 . S
C878 C879 1.349 . S
C878 C880 1.327 . S
C878 H903 0.950 . S
C879 C878 1.349 . S
C879 C895 1.349 . S
C880 C878 1.327 . S
C880 C899 1.429 . S
C880 H904 0.950 . S
C881 C898 1.574 . S
C881 C900 1.368 . S
C881 H905 0.949 . S
H882 C886 0.949 . S
C883 C884 1.349 . S
C883 C885 1.327 . S
C883 H906 0.950 . S
C884 C883 1.349 . S
C884 C896 1.349 . S
C885 C883 1.327 . S
C885 C901 1.429 . S
C885 H907 0.950 . S
C886 H882 0.949 . S
C886 C894 1.574 . S
C886 C902 1.368 . S
H887 C895 0.950 . S
H888 C893 0.950 . S
H889 C894 0.949 . S
H890 C896 0.950 . S
H891 C897 0.950 . S
H892 C898 0.949 . S
C893 H888 0.950 . S
C893 C895 1.327 . S
C893 C899 1.429 . S
C894 C886 1.574 . S
C894 H889 0.949 . S
C894 C900 1.368 . S
C895 C879 1.349 . S
C895 H887 0.950 . S
C895 C893 1.327 . S
C896 C884 1.349 . S
C896 H890 0.950 . S
C896 C897 1.327 . S
C897 H891 0.950 . S
C897 C896 1.327 . S
C897 C901 1.429 . S
C898 C881 1.574 . S
C898 H892 0.949 . S
C898 C902 1.368 . S
C899 C880 1.429 . S
C899 C893 1.429 . S
C899 C900 1.523 . S
C900 C881 1.368 . S
C900 C894 1.368 . S
C900 C899 1.523 . S
C901 C885 1.429 . S
C901 C897 1.429 . S
C901 C902 1.523 . S
C902 C886 1.368 . S
C902 C898 1.368 . S
C902 C901 1.523 . S
H903 C878 0.950 . S
H904 C880 0.950 . S
H905 C881 0.949 . S
H906 C883 0.950 . S
H907 C885 0.950 . S
C908 C909 1.349 . S
C908 C910 1.327 . S
C908 H933 0.950 . S
C909 C908 1.349 . S
C909 C925 1.349 . S
C910 C908 1.327 . S
C910 C929 1.429 . S
C910 H934 0.950 . S
C911 C928 1.574 . S
C911 C930 1.368 . S
C911 H935 0.949 . S
H912 C916 0.949 . S
C913 C914 1.349 . S
C913 C915 1.327 . S
C913 H936 0.950 . S
C914 C913 1.349 . S
C914 C926 1.349 . S
C915 C913 1.327 . S
C915 C931 1.429 . S
C915 H937 0.950 . S
C916 H912 0.949 . S
C916 C924 1.574 . S
C916 C932 1.368 . S
H917 C925 0.950 . S
H918 C923 0.950 . S
H919 C924 0.949 . S
H920 C926 0.950 . S
H921 C927 0.950 . S
H922 C928 0.949 . S
C923 H918 0.950 . S
C923 C925 1.327 . S
C923 C929 1.429 . S
C924 C916 1.574 . S
C924 H919 0.949 . S
C924 C930 1.368 . S
C925 C909 1.349 . S
C925 H917 0.950 . S
C925 C923 1.327 . S
C926 C914 1.349 . S
C926 H920 0.950 . S
C926 C927 1.327 . S
C927 H921 0.950 . S
C927 C926 1.327 . S
C927 C931 1.429 . S
C928 C911 1.574 . S
C928 H922 0.949 . S
C928 C932 1.368 . S
C929 C910 1.429 . S
C929 C923 1.429 . S
C929 C930 1.523 . S
C930 C911 1.368 . S
C930 C924 1.368 . S
C930 C929 1.523 . S
C931 C915 1.429 . S
C931 C927 1.429 . S
C931 C932 1.523 . S
C932 C916 1.368 . S
C932 C928 1.368 . S
C932 C931 1.523 . S
H933 C908 0.950 . S
H934 C910 0.950 . S
H935 C911 0.949 . S
H936 C913 0.950 . S
H937 C915 0.950 . S
C938 C939 1.349 . S
C938 C940 1.327 . S
C938 H963 0.950 . S
C939 C938 1.349 . S
C939 C955 1.349 . S
C940 C938 1.327 . S
C940 C959 1.429 . S
C940 H964 0.950 . S
C941 C958 1.574 . S
C941 C960 1.368 1_655 S
C941 H965 0.949 . S
H942 C946 0.949 . S
C943 C944 1.349 1_655 S
C943 C945 1.327 . S
C943 H966 0.950 . S
C944 C943 1.349 1_455 S
C944 C956 1.349 . S
C945 C943 1.327 . S
C945 C961 1.429 1_655 S
C945 H967 0.950 . S
C946 H942 0.949 . S
C946 C954 1.574 . S
C946 C962 1.368 . S
H947 C955 0.950 1_655 S
H948 C953 0.966 . S
H949 C954 0.949 . S
H950 C956 0.950 . S
H951 C957 0.950 . S
H952 C958 0.949 . S
C953 H948 0.966 . S
C953 C955 1.326 1_655 S
C953 C959 1.414 1_655 S
C954 C946 1.574 . S
C954 H949 0.949 . S
C954 C960 1.368 . S
C955 C939 1.349 . S
C955 H947 0.950 1_455 S
C955 C953 1.326 1_455 S
C956 C944 1.349 . S
C956 H950 0.950 . S
C956 C957 1.327 . S
C957 H951 0.950 . S
C957 C956 1.327 . S
C957 C961 1.429 . S
C958 C941 1.574 . S
C958 H952 0.949 . S
C958 C962 1.368 1_655 S
C959 C940 1.429 . S
C959 C953 1.414 1_455 S
C959 C960 1.523 . S
C960 C941 1.368 1_455 S
C960 C954 1.368 . S
C960 C959 1.523 . S
C961 C945 1.429 1_455 S
C961 C957 1.429 . S
C961 C962 1.523 . S
C962 C946 1.368 . S
C962 C958 1.368 1_455 S
C962 C961 1.523 . S
H963 C938 0.950 . S
H964 C940 0.950 . S
H965 C941 0.949 . S
H966 C943 0.950 . S
H967 C945 0.950 . S
C968 C969 1.349 . S
C968 C970 1.327 . S
C968 H993 0.950 . S
C969 C968 1.349 . S
C969 C985 1.349 1_565 S
C970 C968 1.327 . S
C970 C989 1.429 . S
C970 H994 0.950 . S
C971 C988 1.574 . S
C971 C990 1.368 1_545 S
C971 H995 0.949 . S
H972 C976 0.949 . S
C973 C974 1.349 . S
C973 C975 1.327 . S
C973 H996 0.950 1_565 S
C974 C973 1.349 . S
C974 C986 1.349 . S
C975 C973 1.327 . S
C975 C991 1.425 . S
C975 H997 0.953 1_565 S
C976 H972 0.949 . S
C976 C984 1.574 . S
C976 C992 1.368 . S
H977 C985 0.950 . S
H978 C983 0.950 . S
H979 C984 0.949 . S
H980 C986 0.950 . S
H981 C987 0.950 . S
H982 C988 0.949 . S
C983 H978 0.950 . S
C983 C985 1.327 . S
C983 C989 1.429 1_545 S
C984 C976 1.574 . S
C984 H979 0.949 . S
C984 C990 1.368 . S
C985 C969 1.349 1_545 S
C985 H977 0.950 . S
C985 C983 1.327 . S
C986 C974 1.349 . S
C986 H980 0.950 . S
C986 C987 1.327 . S
C987 H981 0.950 . S
C987 C986 1.327 . S
C987 C991 1.429 . S
C988 C971 1.574 . S
C988 H982 0.949 . S
C988 C992 1.368 1_545 S
C989 C970 1.429 . S
C989 C983 1.429 1_565 S
C989 C990 1.523 . S
C990 C971 1.368 1_565 S
C990 C984 1.368 . S
C990 C989 1.523 . S
C991 C975 1.425 . S
C991 C987 1.429 . S
C991 C992 1.523 . S
C992 C976 1.368 . S
C992 C988 1.368 1_565 S
C992 C991 1.523 . S
H993 C968 0.950 . S
H994 C970 0.950 . S
H995 C971 0.949 . S
H996 C973 0.950 1_545 S
H997 C975 0.953 1_545 S
C998 C999 1.349 . S
C998 C1000 1.327 . S
C998 H1023 0.950 . S
C999 C998 1.349 . S
C999 C1015 1.349 . S
C1000 C998 1.327 . S
C1000 C1019 1.429 . S
C1000 H1024 0.950 . S
C1001 C1018 1.574 . S
C1001 C1020 1.368 . S
C1001 H1025 0.949 . S
H1002 C1006 0.949 . S
C1003 C1004 1.349 . S
C1003 C1005 1.327 . S
C1003 H1026 0.950 . S
C1004 C1003 1.349 . S
C1004 C1016 1.349 . S
C1005 C1003 1.327 . S
C1005 C1021 1.429 . S
C1005 H1027 0.950 . S
C1006 H1002 0.949 . S
C1006 C1014 1.574 . S
C1006 C1022 1.368 . S
H1007 C1015 0.950 . S
H1008 C1013 0.950 . S
H1009 C1014 0.949 . S
H1010 C1016 0.950 . S
H1011 C1017 0.950 . S
H1012 C1018 0.949 . S
C1013 H1008 0.950 . S
C1013 C1015 1.327 . S
C1013 C1019 1.429 . S
C1014 C1006 1.574 . S
C1014 H1009 0.949 . S
C1014 C1020 1.368 . S
C1015 C999 1.349 . S
C1015 H1007 0.950 . S
C1015 C1013 1.327 . S
C1016 C1004 1.349 . S
C1016 H1010 0.950 . S
C1016 C1017 1.327 . S
C1017 H1011 0.950 . S
C1017 C1016 1.327 . S
C1017 C1021 1.429 . S
C1018 C1001 1.574 . S
C1018 H1012 0.949 . S
C1018 C1022 1.368 . S
C1019 C1000 1.429 . S
C1019 C1013 1.429 . S
C1019 C1020 1.523 . S
C1020 C1001 1.368 . S
C1020 C1014 1.368 . S
C1020 C1019 1.523 . S
C1021 C1005 1.429 . S
C1021 C1017 1.429 . S
C1021 C1022 1.523 . S
C1022 C1006 1.368 . S
C1022 C1018 1.368 . S
C1022 C1021 1.523 . S
H1023 C998 0.950 . S
H1024 C1000 0.950 . S
H1025 C1001 0.949 . S
H1026 C1003 0.950 . S
H1027 C1005 0.950 . S
C1028 C1029 1.349 . S
C1028 C1030 1.327 . S
C1028 H1053 0.950 . S
C1029 C1028 1.349 . S
C1029 C1045 1.349 . S
C1030 C1028 1.327 . S
C1030 C1049 1.429 . S
C1030 H1054 0.950 . S
C1031 C1048 1.574 . S
C1031 C1050 1.368 . S
C1031 H1055 0.949 . S
H1032 C1036 0.949 . S
C1033 C1034 1.349 . S
C1033 C1035 1.327 . S
C1033 H1056 0.950 . S
C1034 C1033 1.349 . S
C1034 C1046 1.349 . S
C1035 C1033 1.327 . S
C1035 C1051 1.429 . S
C1035 H1057 0.950 . S
C1036 H1032 0.949 . S
C1036 C1044 1.574 . S
C1036 C1052 1.368 . S
H1037 C1045 0.950 . S
H1038 C1043 0.950 . S
H1039 C1044 0.949 . S
H1040 C1046 0.950 . S
H1041 C1047 0.950 . S
H1042 C1048 0.949 . S
C1043 H1038 0.950 . S
C1043 C1045 1.327 . S
C1043 C1049 1.429 . S
C1044 C1036 1.574 . S
C1044 H1039 0.949 . S
C1044 C1050 1.368 . S
C1045 C1029 1.349 . S
C1045 H1037 0.950 . S
C1045 C1043 1.327 . S
C1046 C1034 1.349 . S
C1046 H1040 0.950 . S
C1046 C1047 1.327 . S
C1047 H1041 0.950 . S
C1047 C1046 1.327 . S
C1047 C1051 1.429 . S
C1048 C1031 1.574 . S
C1048 H1042 0.949 . S
C1048 C1052 1.368 . S
C1049 C1030 1.429 . S
C1049 C1043 1.429 . S
C1049 C1050 1.523 . S
C1050 C1031 1.368 . S
C1050 C1044 1.368 . S
C1050 C1049 1.523 . S
C1051 C1035 1.429 . S
C1051 C1047 1.429 . S
C1051 C1052 1.523 . S
C1052 C1036 1.368 . S
C1052 C1048 1.368 . S
C1052 C1051 1.523 . S
H1053 C1028 0.950 . S
H1054 C1030 0.950 . S
H1055 C1031 0.949 . S
H1056 C1033 0.950 . S
H1057 C1035 0.950 . S
C1058 C1059 1.349 1_455 S
C1058 C1060 1.327 . S
C1058 H1083 0.950 . S
C1059 C1058 1.349 1_655 S
C1059 C1075 1.349 . S
C1060 C1058 1.327 . S
C1060 C1079 1.429 1_455 S
C1060 H1084 0.950 . S
C1061 C1078 1.574 . S
C1061 C1080 1.368 . S
C1061 H1085 0.949 . S
H1062 C1066 0.974 . S
C1063 C1064 1.349 . S
C1063 C1065 1.327 . S
C1063 H1086 0.950 . S
C1064 C1063 1.349 . S
C1064 C1076 1.349 . S
C1065 C1063 1.327 . S
C1065 C1081 1.429 . S
C1065 H1087 0.950 . S
C1066 H1062 0.974 . S
C1066 C1074 1.577 . S
C1066 C1082 1.341 1_455 S
H1067 C1075 0.950 . S
H1068 C1073 0.950 . S
H1069 C1074 0.949 . S
H1070 C1076 0.950 1_455 S
H1071 C1077 0.950 1_455 S
H1072 C1078 0.949 . S
C1073 H1068 0.950 . S
C1073 C1075 1.327 . S
C1073 C1079 1.429 . S
C1074 C1066 1.577 . S
C1074 H1069 0.949 . S
C1074 C1080 1.368 1_455 S
C1075 C1059 1.349 . S
C1075 H1067 0.950 . S
C1075 C1073 1.327 . S
C1076 C1064 1.349 . S
C1076 H1070 0.950 1_655 S
C1076 C1077 1.327 . S
C1077 H1071 0.950 1_655 S
C1077 C1076 1.327 . S
C1077 C1081 1.429 . S
C1078 C1061 1.574 . S
C1078 H1072 0.949 . S
C1078 C1082 1.368 . S
C1079 C1060 1.429 1_655 S
C1079 C1073 1.429 . S
C1079 C1080 1.523 . S
C1080 C1061 1.368 . S
C1080 C1074 1.368 1_655 S
C1080 C1079 1.523 . S
C1081 C1065 1.429 . S
C1081 C1077 1.429 . S
C1081 C1082 1.523 . S
C1082 C1066 1.341 1_655 S
C1082 C1078 1.368 . S
C1082 C1081 1.523 . S
H1083 C1058 0.950 . S
H1084 C1060 0.950 . S
H1085 C1061 0.949 . S
H1086 C1063 0.950 . S
H1087 C1065 0.950 . S
C1088 C1089 1.349 . S
C1088 C1090 1.327 . S
C1088 H1113 0.950 . S
C1089 C1088 1.349 . S
C1089 C1105 1.349 1_556 S
C1090 C1088 1.327 . S
C1090 C1109 1.429 . S
C1090 H1114 0.950 . S
C1091 C1108 1.574 1_545 S
C1091 C1110 1.368 1_554 S
C1091 H1115 0.949 . S
H1092 C1096 0.949 . S
C1093 C1094 1.349 . S
C1093 C1095 1.327 . S
C1093 H1116 0.950 . S
C1094 C1093 1.349 . S
C1094 C1106 1.349 1_554 S
C1095 C1093 1.327 . S
C1095 C1111 1.429 . S
C1095 H1117 0.950 . S
C1096 H1092 0.949 . S
C1096 C1104 1.574 . S
C1096 C1112 1.368 1_556 S
H1097 C1105 0.950 . S
H1098 C1103 0.950 . S
H1099 C1104 0.949 . S
H1100 C1106 0.950 . S
H1101 C1107 0.950 . S
H1102 C1108 0.949 . S
C1103 H1098 0.950 . S
C1103 C1105 1.327 . S
C1103 C1109 1.429 1_554 S
C1104 C1096 1.574 . S
C1104 H1099 0.949 . S
C1104 C1110 1.368 1_565 S
C1105 C1089 1.349 1_554 S
C1105 H1097 0.950 . S
C1105 C1103 1.327 . S
C1106 C1094 1.349 1_556 S
C1106 H1100 0.950 . S
C1106 C1107 1.327 . S
C1107 H1101 0.950 . S
C1107 C1106 1.327 . S
C1107 C1111 1.429 1_556 S
C1108 C1091 1.574 1_565 S
C1108 H1102 0.949 . S
C1108 C1112 1.368 . S
C1109 C1090 1.429 . S
C1109 C1103 1.429 1_556 S
C1109 C1110 1.523 . S
C1110 C1091 1.368 1_556 S
C1110 C1104 1.368 1_545 S
C1110 C1109 1.523 . S
C1111 C1095 1.429 . S
C1111 C1107 1.429 1_554 S
C1111 C1112 1.523 . S
C1112 C1096 1.368 1_554 S
C1112 C1108 1.368 . S
C1112 C1111 1.523 . S
H1113 C1088 0.950 . S
H1114 C1090 0.950 . S
H1115 C1091 0.949 . S
H1116 C1093 0.950 . S
H1117 C1095 0.950 . S
C1118 C1119 1.349 1_554 S
C1118 C1120 1.327 . S
C1118 H1143 0.950 . S
C1119 C1118 1.349 1_556 S
C1119 C1135 1.349 . S
C1120 C1118 1.327 . S
C1120 C1139 1.429 1_554 S
C1120 H1144 0.950 . S
C1121 C1138 1.574 . S
C1121 C1140 1.368 . S
C1121 H1145 0.949 . S
H1122 C1126 0.949 . S
C1123 C1124 1.349 1_556 S
C1123 C1125 1.327 . S
C1123 H1146 0.950 . S
C1124 C1123 1.349 1_554 S
C1124 C1136 1.349 . S
C1125 C1123 1.327 . S
C1125 C1141 1.429 1_556 S
C1125 H1147 0.950 . S
C1126 H1122 0.949 . S
C1126 C1134 1.574 . S
C1126 C1142 1.368 . S
H1127 C1135 0.950 . S
H1128 C1133 0.950 . S
H1129 C1134 0.949 . S
H1130 C1136 0.950 . S
H1131 C1137 0.950 . S
H1132 C1138 0.949 . S
C1133 H1128 0.950 . S
C1133 C1135 1.327 . S
C1133 C1139 1.429 . S
C1134 C1126 1.574 . S
C1134 H1129 0.949 . S
C1134 C1140 1.368 1_554 S
C1135 C1119 1.349 . S
C1135 H1127 0.950 . S
C1135 C1133 1.327 . S
C1136 C1124 1.349 . S
C1136 H1130 0.950 . S
C1136 C1137 1.327 . S
C1137 H1131 0.950 . S
C1137 C1136 1.327 . S
C1137 C1141 1.429 . S
C1138 C1121 1.574 . S
C1138 H1132 0.949 . S
C1138 C1142 1.368 1_556 S
C1139 C1120 1.429 1_556 S
C1139 C1133 1.429 . S
C1139 C1140 1.523 . S
C1140 C1121 1.368 . S
C1140 C1134 1.368 1_556 S
C1140 C1139 1.523 . S
C1141 C1125 1.429 1_554 S
C1141 C1137 1.429 . S
C1141 C1142 1.523 . S
C1142 C1126 1.368 . S
C1142 C1138 1.368 1_554 S
C1142 C1141 1.523 . S
H1143 C1118 0.950 . S
H1144 C1120 0.950 . S
H1145 C1121 0.949 . S
H1146 C1123 0.950 . S
H1147 C1125 0.950 . S
C1148 C1149 1.349 1_556 S
C1148 C1150 1.327 . S
C1148 H1173 0.950 . S
C1149 C1148 1.349 1_554 S
C1149 C1165 1.349 . S
C1150 C1148 1.327 . S
C1150 C1169 1.429 1_556 S
C1150 H1174 0.950 . S
C1151 C1168 1.574 1_655 S
C1151 C1170 1.368 . S
C1151 H1175 0.949 . S
H1152 C1156 0.949 . S
C1153 C1154 1.349 1_554 S
C1153 C1155 1.327 . S
C1153 H1176 0.950 . S
C1154 C1153 1.349 1_556 S
C1154 C1166 1.349 . S
C1155 C1153 1.327 . S
C1155 C1171 1.429 1_554 S
C1155 H1177 0.950 . S
C1156 H1152 0.949 . S
C1156 C1164 1.574 1_455 S
C1156 C1172 1.368 . S
H1157 C1165 0.950 . S
H1158 C1163 0.950 . S
H1159 C1164 0.949 . S
H1160 C1166 0.950 . S
H1161 C1167 0.950 . S
H1162 C1168 0.949 . S
C1163 H1158 0.950 . S
C1163 C1165 1.327 . S
C1163 C1169 1.429 . S
C1164 C1156 1.574 1_655 S
C1164 H1159 0.949 . S
C1164 C1170 1.368 1_556 S
C1165 C1149 1.349 . S
C1165 H1157 0.950 . S
C1165 C1163 1.327 . S
C1166 C1154 1.349 . S
C1166 H1160 0.950 . S
C1166 C1167 1.327 . S
C1167 H1161 0.950 . S
C1167 C1166 1.327 . S
C1167 C1171 1.429 . S
C1168 C1151 1.574 1_455 S
C1168 H1162 0.949 . S
C1168 C1172 1.368 1_554 S
C1169 C1150 1.429 1_554 S
C1169 C1163 1.429 . S
C1169 C1170 1.523 . S
C1170 C1151 1.368 . S
C1170 C1164 1.368 1_554 S
C1170 C1169 1.523 . S
C1171 C1155 1.429 1_556 S
C1171 C1167 1.429 . S
C1171 C1172 1.523 . S
C1172 C1156 1.368 . S
C1172 C1168 1.368 1_556 S
C1172 C1171 1.523 . S
H1173 C1148 0.950 . S
H1174 C1150 0.950 . S
H1175 C1151 0.949 . S
H1176 C1153 0.950 . S
H1177 C1155 0.950 . S
C1178 C1179 1.349 1_654 S
C1178 C1180 1.327 . S
C1178 H1203 0.950 . S
C1179 C1178 1.349 1_456 S
C1179 C1195 1.349 . S
C1180 C1178 1.327 . S
C1180 C1199 1.429 1_654 S
C1180 H1204 0.950 . S
C1181 C1198 1.574 1_545 S
C1181 C1200 1.398 . S
C1181 H1205 0.949 . S
H1182 C1186 0.949 . S
C1183 C1184 1.349 1_456 S
C1183 C1185 1.327 . S
C1183 H1206 0.950 . S
C1184 C1183 1.349 1_654 S
C1184 C1196 1.349 . S
C1185 C1183 1.327 . S
C1185 C1201 1.429 1_456 S
C1185 H1207 0.950 . S
C1186 H1182 0.949 . S
C1186 C1194 1.574 1_565 S
C1186 C1202 1.368 . S
H1187 C1195 0.950 . S
H1188 C1193 0.950 . S
H1189 C1194 0.949 . S
H1190 C1196 0.950 . S
H1191 C1197 0.950 . S
H1192 C1198 0.949 . S
C1193 H1188 0.950 . S
C1193 C1195 1.327 . S
C1193 C1199 1.429 . S
C1194 C1186 1.574 1_545 S
C1194 H1189 0.949 . S
C1194 C1200 1.337 1_654 S
C1195 C1179 1.349 . S
C1195 H1187 0.950 . S
C1195 C1193 1.327 . S
C1196 C1184 1.349 . S
C1196 H1190 0.950 . S
C1196 C1197 1.327 . S
C1197 H1191 0.950 . S
C1197 C1196 1.327 . S
C1197 C1201 1.429 . S
C1198 C1181 1.574 1_565 S
C1198 H1192 0.949 . S
C1198 C1202 1.368 1_456 S
C1199 C1180 1.429 1_456 S
C1199 C1193 1.429 . S
C1199 C1200 1.529 . S
C1200 C1181 1.398 . S
C1200 C1194 1.337 1_456 S
C1200 C1199 1.529 . S
C1201 C1185 1.429 1_654 S
C1201 C1197 1.429 . S
C1201 C1202 1.523 . S
C1202 C1186 1.368 . S
C1202 C1198 1.368 1_654 S
C1202 C1201 1.523 . S
H1203 C1178 0.950 . S
H1204 C1180 0.950 . S
H1205 C1181 0.949 . S
H1206 C1183 0.950 . S
H1207 C1185 0.950 . S
C1208 C1209 1.349 . S
C1208 C1210 1.327 . S
C1208 H1233 0.950 . S
C1209 C1208 1.349 . S
C1209 C1225 1.349 1_545 S
C1210 C1208 1.327 . S
C1210 C1229 1.429 . S
C1210 H1234 0.950 . S
C1211 C1228 1.574 1_455 S
C1211 C1230 1.314 1_565 S
C1211 H1235 0.949 . S
H1212 C1216 0.949 . S
C1213 C1214 1.349 . S
C1213 C1215 1.327 . S
C1213 H1236 0.950 . S
C1214 C1213 1.349 . S
C1214 C1226 1.349 1_565 S
C1215 C1213 1.327 . S
C1215 C1231 1.429 . S
C1215 H1237 0.950 . S
C1216 H1212 0.949 . S
C1216 C1224 1.574 1_655 S
C1216 C1232 1.368 1_545 S
H1217 C1225 0.950 . S
H1218 C1223 0.950 . S
H1219 C1224 0.949 . S
H1220 C1226 0.950 . S
H1221 C1227 0.950 . S
H1222 C1228 0.949 . S
C1223 H1218 0.950 . S
C1223 C1225 1.327 . S
C1223 C1229 1.429 1_565 S
C1224 C1216 1.574 1_455 S
C1224 H1219 0.949 . S
C1224 C1230 1.419 . S
C1225 C1209 1.349 1_565 S
C1225 H1217 0.950 . S
C1225 C1223 1.327 . S
C1226 C1214 1.349 1_545 S
C1226 H1220 0.950 . S
C1226 C1227 1.327 . S
C1227 H1221 0.950 . S
C1227 C1226 1.327 . S
C1227 C1231 1.429 1_545 S
C1228 C1211 1.574 1_655 S
C1228 H1222 0.949 . S
C1228 C1232 1.368 . S
C1229 C1210 1.429 . S
C1229 C1223 1.429 1_545 S
C1229 C1230 1.529 . S
C1230 C1211 1.314 1_545 S
C1230 C1224 1.419 . S
C1230 C1229 1.529 . S
C1231 C1215 1.429 . S
C1231 C1227 1.429 1_565 S
C1231 C1232 1.523 . S
C1232 C1216 1.368 1_565 S
C1232 C1228 1.368 . S
C1232 C1231 1.523 . S
H1233 C1208 0.950 . S
H1234 C1210 0.950 . S
H1235 C1211 0.949 . S
H1236 C1213 0.950 . S
H1237 C1215 0.950 . S
C1238 C1239 1.349 . S
C1238 C1240 1.327 . S
C1238 H1263 0.950 . S
C1239 C1238 1.349 . S
C1239 C1255 1.349 . S
C1240 C1238 1.327 . S
C1240 C1259 1.429 . S
C1240 H1264 0.950 . S
C1241 C1258 1.574 1_565 S
C1241 C1260 1.368 . S
C1241 H1265 0.949 . S
H1242 C1246 0.949 . S
C1243 C1244 1.349 . S
C1243 C1245 1.327 . S
C1243 H1266 0.950 . S
C1244 C1243 1.349 . S
C1244 C1256 1.349 . S
C1245 C1243 1.327 . S
C1245 C1261 1.429 . S
C1245 H1267 0.950 . S
C1246 H1242 0.949 . S
C1246 C1254 1.574 1_545 S
C1246 C1262 1.368 . S
H1247 C1255 0.950 . S
H1248 C1253 0.950 . S
H1249 C1254 0.949 . S
H1250 C1256 0.950 . S
H1251 C1257 0.950 . S
H1252 C1258 0.949 . S
C1253 H1248 0.950 . S
C1253 C1255 1.327 . S
C1253 C1259 1.429 . S
C1254 C1246 1.574 1_565 S
C1254 H1249 0.949 . S
C1254 C1260 1.368 . S
C1255 C1239 1.349 . S
C1255 H1247 0.950 . S
C1255 C1253 1.327 . S
C1256 C1244 1.349 . S
C1256 H1250 0.950 . S
C1256 C1257 1.327 . S
C1257 H1251 0.950 . S
C1257 C1256 1.327 . S
C1257 C1261 1.429 . S
C1258 C1241 1.574 1_545 S
C1258 H1252 0.949 . S
C1258 C1262 1.368 . S
C1259 C1240 1.429 . S
C1259 C1253 1.429 . S
C1259 C1260 1.523 . S
C1260 C1241 1.368 . S
C1260 C1254 1.368 . S
C1260 C1259 1.523 . S
C1261 C1245 1.429 . S
C1261 C1257 1.429 . S
C1261 C1262 1.523 . S
C1262 C1246 1.368 . S
C1262 C1258 1.368 . S
C1262 C1261 1.523 . S
H1263 C1238 0.950 . S
H1264 C1240 0.950 . S
H1265 C1241 0.949 . S
H1266 C1243 0.950 . S
H1267 C1245 0.950 . S
C1268 C1269 1.349 . S
C1268 C1270 1.327 . S
C1268 H1293 0.950 . S
C1269 C1268 1.349 . S
C1269 C1285 1.349 . S
C1270 C1268 1.327 . S
C1270 C1289 1.429 . S
C1270 H1294 0.950 . S
C1271 C1288 1.574 . S
C1271 C1290 1.368 . S
C1271 H1295 0.949 . S
H1272 C1276 0.949 . S
C1273 C1274 1.349 . S
C1273 C1275 1.327 . S
C1273 H1296 0.950 . S
C1274 C1273 1.349 . S
C1274 C1286 1.349 . S
C1275 C1273 1.327 . S
C1275 C1291 1.429 . S
C1275 H1297 0.950 . S
C1276 H1272 0.949 . S
C1276 C1284 1.574 . S
C1276 C1292 1.368 . S
H1277 C1285 0.950 . S
H1278 C1283 0.950 . S
H1279 C1284 0.949 . S
H1280 C1286 0.950 . S
H1281 C1287 0.950 . S
H1282 C1288 0.949 . S
C1283 H1278 0.950 . S
C1283 C1285 1.327 . S
C1283 C1289 1.429 . S
C1284 C1276 1.574 . S
C1284 H1279 0.949 . S
C1284 C1290 1.368 . S
C1285 C1269 1.349 . S
C1285 H1277 0.950 . S
C1285 C1283 1.327 . S
C1286 C1274 1.349 . S
C1286 H1280 0.950 . S
C1286 C1287 1.327 . S
C1287 H1281 0.950 . S
C1287 C1286 1.327 . S
C1287 C1291 1.429 . S
C1288 C1271 1.574 . S
C1288 H1282 0.949 . S
C1288 C1292 1.368 . S
C1289 C1270 1.429 . S
C1289 C1283 1.429 . S
C1289 C1290 1.523 . S
C1290 C1271 1.368 . S
C1290 C1284 1.368 . S
C1290 C1289 1.523 . S
C1291 C1275 1.429 . S
C1291 C1287 1.429 . S
C1291 C1292 1.523 . S
C1292 C1276 1.368 . S
C1292 C1288 1.368 . S
C1292 C1291 1.523 . S
H1293 C1268 0.950 . S
H1294 C1270 0.950 . S
H1295 C1271 0.949 . S
H1296 C1273 0.950 . S
H1297 C1275 0.950 . S
C1298 C1299 1.349 1_455 S
C1298 C1300 1.327 . S
C1298 H1323 0.950 . S
C1299 C1298 1.349 1_655 S
C1299 C1315 1.349 . S
C1300 C1298 1.327 . S
C1300 C1319 1.429 1_455 S
C1300 H1324 0.950 . S
C1301 C1318 1.574 . S
C1301 C1320 1.368 . S
C1301 H1325 0.949 . S
H1302 C1306 0.949 . S
C1303 C1304 1.349 1_655 S
C1303 C1305 1.327 . S
C1303 H1326 0.950 . S
C1304 C1303 1.349 1_455 S
C1304 C1316 1.349 . S
C1305 C1303 1.327 . S
C1305 C1321 1.429 1_655 S
C1305 H1327 0.950 . S
C1306 H1302 0.949 . S
C1306 C1314 1.574 . S
C1306 C1322 1.368 . S
H1307 C1315 0.950 . S
H1308 C1313 0.950 . S
H1309 C1314 0.949 . S
H1310 C1316 0.950 . S
H1311 C1317 0.950 . S
H1312 C1318 0.949 . S
C1313 H1308 0.950 . S
C1313 C1315 1.327 . S
C1313 C1319 1.429 . S
C1314 C1306 1.574 . S
C1314 H1309 0.949 . S
C1314 C1320 1.368 1_455 S
C1315 C1299 1.349 . S
C1315 H1307 0.950 . S
C1315 C1313 1.327 . S
C1316 C1304 1.349 . S
C1316 H1310 0.950 . S
C1316 C1317 1.327 . S
C1317 H1311 0.950 . S
C1317 C1316 1.327 . S
C1317 C1321 1.429 . S
C1318 C1301 1.574 . S
C1318 H1312 0.949 . S
C1318 C1322 1.368 1_655 S
C1319 C1300 1.429 1_655 S
C1319 C1313 1.429 . S
C1319 C1320 1.523 . S
C1320 C1301 1.368 . S
C1320 C1314 1.368 1_655 S
C1320 C1319 1.523 . S
C1321 C1305 1.429 1_455 S
C1321 C1317 1.429 . S
C1321 C1322 1.523 . S
C1322 C1306 1.368 . S
C1322 C1318 1.368 1_455 S
C1322 C1321 1.523 . S
H1323 C1298 0.950 . S
H1324 C1300 0.950 . S
H1325 C1301 0.949 . S
H1326 C1303 0.950 . S
H1327 C1305 0.950 . S
C369 N117 0.553 . S
C374 N2 0.431 . S
C399 N140 0.725 . S
C404 N25 0.725 . S
C429 N48 0.553 . S
C434 N163 0.431 . S
C459 N71 0.648 . S
C464 N94 0.654 . S
C489 N186 0.426 . S
C494 N301 0.548 . S
C519 N324 0.725 . S
C524 N209 0.725 . S
C549 N347 0.426 . S
C554 N232 0.548 . S
C579 N255 0.648 . S
C584 N278 0.654 . S
C609 N12 1.765 . S
C614 C283 1.778 . S
C639 C306 2.202 . S
C644 N35 2.173 . S
C669 N58 2.464 . S
C674 C329 2.501 . S
C699 N81 1.987 . S
C704 C352 2.002 . S
C729 N104 1.987 . S
C734 C191 2.002 . S
C759 N127 2.464 . S
C764 C214 2.502 . S
C789 N150 2.173 . S
C794 C237 2.203 . S
C819 N173 1.765 . S
C824 C260 1.779 . S
C849 C99 1.778 . S
C854 N196 1.765 . S
C879 C122 2.202 . S
C884 N219 2.173 . S
C909 C145 2.501 . S
C914 N242 2.464 . S
C939 N265 1.987 . S
C944 C168 2.002 . S
C969 C7 2.002 . S
C974 N288 1.987 . S
C999 N311 2.464 . S
C1004 C30 2.502 . S
C1029 N334 2.173 . S
C1034 C53 2.203 . S
C1059 C76 1.779 . S
C1064 N357 1.765 . S
C1089 C200 1.397 . S
C1094 C16 1.396 . S
C1119 C223 1.971 . S
C1124 C39 1.971 . S
C1149 C62 2.516 . S
C1154 C246 2.516 . S
C1179 C269 1.859 . S
C1184 C85 1.857 . S
C1209 C108 1.858 . S
C1214 C292 1.856 . S
C1239 C315 2.516 . S
C1244 C131 2.516 . S
C1269 C338 1.971 . S
C1274 C154 1.971 . S
C1299 C361 1.398 . S
C1304 C177 1.396 . S
