# Generated by pormake.
# Topology lcy-e, (6)-cn, num edge types: 1
# Building blocks:
#     Node 0, Type 0, BuildingBlock: BETFEN_clean_sbu_0, # of connection points: 6
#     Node 1, Type 0, BuildingBlock: BETFEN_clean_sbu_0, # of connection points: 6
#     Node 2, Type 0, BuildingBlock: BETFEN_clean_sbu_0, # of connection points: 6
#     Node 3, Type 0, BuildingBlock: BETFEN_clean_sbu_0, # of connection points: 6
#     Node 4, Type 0, BuildingBlock: BETFEN_clean_sbu_0, # of connection points: 6
#     Node 5, Type 0, BuildingBlock: BETFEN_clean_sbu_0, # of connection points: 6
#     Node 6, Type 0, BuildingBlock: BETFEN_clean_sbu_0, # of connection points: 6
#     Node 7, Type 0, BuildingBlock: BETFEN_clean_sbu_0, # of connection points: 6
#     Node 8, Type 0, BuildingBlock: BETFEN_clean_sbu_0, # of connection points: 6
#     Node 9, Type 0, BuildingBlock: BETFEN_clean_sbu_0, # of connection points: 6
#     Node 10, Type 0, BuildingBlock: BETFEN_clean_sbu_0, # of connection points: 6
#     Node 11, Type 0, BuildingBlock: BETFEN_clean_sbu_0, # of connection points: 6
#     Edge 12, Type (0, 0), BuildingBlock: AJUNOK_clean_linker_0, # of connection points: 2
#     Edge 13, Type (0, 0), BuildingBlock: AJUNOK_clean_linker_0, # of connection points: 2
#     Edge 14, Type (0, 0), BuildingBlock: AJUNOK_clean_linker_0, # of connection points: 2
#     Edge 15, Type (0, 0), BuildingBlock: AJUNOK_clean_linker_0, # of connection points: 2
#     Edge 16, Type (0, 0), BuildingBlock: AJUNOK_clean_linker_0, # of connection points: 2
#     Edge 17, Type (0, 0), BuildingBlock: AJUNOK_clean_linker_0, # of connection points: 2
#     Edge 18, Type (0, 0), BuildingBlock: AJUNOK_clean_linker_0, # of connection points: 2
#     Edge 19, Type (0, 0), BuildingBlock: AJUNOK_clean_linker_0, # of connection points: 2
#     Edge 20, Type (0, 0), BuildingBlock: AJUNOK_clean_linker_0, # of connection points: 2
#     Edge 21, Type (0, 0), BuildingBlock: AJUNOK_clean_linker_0, # of connection points: 2
#     Edge 22, Type (0, 0), BuildingBlock: AJUNOK_clean_linker_0, # of connection points: 2
#     Edge 23, Type (0, 0), BuildingBlock: AJUNOK_clean_linker_0, # of connection points: 2
#     Edge 24, Type (0, 0), BuildingBlock: AJUNOK_clean_linker_0, # of connection points: 2
#     Edge 25, Type (0, 0), BuildingBlock: AJUNOK_clean_linker_0, # of connection points: 2
#     Edge 26, Type (0, 0), BuildingBlock: AJUNOK_clean_linker_0, # of connection points: 2
#     Edge 27, Type (0, 0), BuildingBlock: AJUNOK_clean_linker_0, # of connection points: 2
#     Edge 28, Type (0, 0), BuildingBlock: AJUNOK_clean_linker_0, # of connection points: 2
#     Edge 29, Type (0, 0), BuildingBlock: AJUNOK_clean_linker_0, # of connection points: 2
#     Edge 30, Type (0, 0), BuildingBlock: AJUNOK_clean_linker_0, # of connection points: 2
#     Edge 31, Type (0, 0), BuildingBlock: AJUNOK_clean_linker_0, # of connection points: 2
#     Edge 32, Type (0, 0), BuildingBlock: AJUNOK_clean_linker_0, # of connection points: 2
#     Edge 33, Type (0, 0), BuildingBlock: AJUNOK_clean_linker_0, # of connection points: 2
#     Edge 34, Type (0, 0), BuildingBlock: AJUNOK_clean_linker_0, # of connection points: 2
#     Edge 35, Type (0, 0), BuildingBlock: AJUNOK_clean_linker_0, # of connection points: 2
#     Edge 36, Type (0, 0), BuildingBlock: AJUNOK_clean_linker_0, # of connection points: 2
#     Edge 37, Type (0, 0), BuildingBlock: AJUNOK_clean_linker_0, # of connection points: 2
#     Edge 38, Type (0, 0), BuildingBlock: AJUNOK_clean_linker_0, # of connection points: 2
#     Edge 39, Type (0, 0), BuildingBlock: AJUNOK_clean_linker_0, # of connection points: 2
#     Edge 40, Type (0, 0), BuildingBlock: AJUNOK_clean_linker_0, # of connection points: 2
#     Edge 41, Type (0, 0), BuildingBlock: AJUNOK_clean_linker_0, # of connection points: 2
#     Edge 42, Type (0, 0), BuildingBlock: AJUNOK_clean_linker_0, # of connection points: 2
#     Edge 43, Type (0, 0), BuildingBlock: AJUNOK_clean_linker_0, # of connection points: 2
#     Edge 44, Type (0, 0), BuildingBlock: AJUNOK_clean_linker_0, # of connection points: 2
#     Edge 45, Type (0, 0), BuildingBlock: AJUNOK_clean_linker_0, # of connection points: 2
#     Edge 46, Type (0, 0), BuildingBlock: AJUNOK_clean_linker_0, # of connection points: 2
#     Edge 47, Type (0, 0), BuildingBlock: AJUNOK_clean_linker_0, # of connection points: 2
# Relax obj value: 0.213
# Max RMSD: 0.315
# Mean RMSD: 0.302
data_MOF--net-lcy-e--node1-BETFEN_clean_sbu_0--edge1-AJUNOK_clean_linker_0
_symmetry_space_group_name_H-M    P1
_symmetry_Int_Tables_number       1
_symmetry_cell_setting            triclinic
loop_
_symmetry_equiv_pos_as_xyz
'x, y, z'
_cell_length_a     35.137246
_cell_length_b     34.250078
_cell_length_c     35.949413
_cell_angle_alpha  89.701928
_cell_angle_beta   88.54448
_cell_angle_gamma 88.386725
loop_
_atom_site_label
_atom_site_type_symbol
_atom_site_fract_x
_atom_site_fract_y
_atom_site_fract_z
_atom_type_partial_charge
Pr0 Pr 0.14264 0.25133 0.52923 0.0
Pr1 Pr 0.1262 0.314 0.47101 0.0
C2 C 0.15069 0.20001 0.58618 0.0
C3 C 0.13366 0.16235 0.59754 0.0
C4 C 0.1562 0.12787 0.59835 0.0
C5 C 0.14093 0.0929 0.61156 0.0
C6 C 0.10291 0.09173 0.62486 0.0
C7 C 0.07991 0.12582 0.62248 0.0
C8 C 0.09505 0.16068 0.609 0.0
C9 C 0.18148 0.23843 0.46086 0.0
C10 C 0.07311 0.23538 0.4733 0.0
C11 C 0.11567 0.35433 0.40676 0.0
C12 C 0.13416 0.36701 0.37111 0.0
C13 C 0.12037 0.35335 0.33733 0.0
C14 C 0.13495 0.36689 0.30314 0.0
C15 C 0.16381 0.39453 0.30171 0.0
C16 C 0.17813 0.40776 0.33555 0.0
C17 C 0.16348 0.39419 0.36985 0.0
C18 C 0.091 0.32863 0.54132 0.0
C19 C 0.19082 0.3343 0.52556 0.0
O20 O 0.12813 0.23079 0.58748 0.0
O21 O 0.17391 0.20013 0.55719 0.0
O22 O 0.17784 0.27108 0.47695 0.0
O23 O 0.16281 0.21216 0.47925 0.0
O24 O 0.08795 0.26317 0.45265 0.0
O25 O 0.08571 0.22787 0.50684 0.0
O26 O 0.10904 0.31717 0.41068 0.0
O27 O 0.12492 0.37086 0.43789 0.0
O28 O 0.09389 0.29593 0.52534 0.0
O29 O 0.1015 0.35605 0.51859 0.0
O30 O 0.17616 0.30744 0.54812 0.0
O31 O 0.18445 0.33383 0.48977 0.0
H32 H 0.18588 0.12811 0.58942 0.0
H33 H 0.15919 0.0669 0.61213 0.0
H34 H 0.05057 0.12597 0.63249 0.0
H35 H 0.07661 0.18654 0.60852 0.0
H36 H 0.09761 0.33264 0.33733 0.0
H37 H 0.12329 0.35603 0.27771 0.0
H38 H 0.19977 0.42966 0.33556 0.0
H39 H 0.17457 0.4056 0.39532 0.0
Pr40 Pr 0.97311 0.89599 0.73432 0.0
Pr41 Pr 0.03769 0.90931 0.78565 0.0
C42 C 0.91914 0.89358 0.68193 0.0
C43 C 0.90527 0.91277 0.64743 0.0
C44 C 0.90604 0.89101 0.61438 0.0
C45 C 0.89152 0.90688 0.58159 0.0
C46 C 0.87543 0.94489 0.58094 0.0
C47 C 0.87567 0.9673 0.61368 0.0
C48 C 0.89033 0.95134 0.64671 0.0
C49 C 0.02447 0.83241 0.73692 0.0
C50 C 0.03867 0.96248 0.71036 0.0
C51 C 0.10608 0.91129 0.81895 0.0
C52 C 0.13629 0.88805 0.83822 0.0
C53 C 0.13899 0.88988 0.87712 0.0
C54 C 0.1699 0.87214 0.89518 0.0
C55 C 0.19912 0.85219 0.87486 0.0
C56 C 0.19602 0.84955 0.83601 0.0
C57 C 0.16504 0.86727 0.81792 0.0
C58 C 0.97081 0.95462 0.8026 0.0
C59 C 0.97195 0.85636 0.81814 0.0
O60 O 0.91327 0.91067 0.71415 0.0
O61 O 0.95208 0.87512 0.67924 0.0
O62 O 0.0341 0.86779 0.73508 0.0
O63 O 0.98782 0.82981 0.73988 0.0
O64 O 0.05236 0.95779 0.74371 0.0
O65 O 1.00959 0.94194 0.69935 0.0
O66 O 0.10221 0.90604 0.78328 0.0
O67 O 0.07362 0.91846 0.83654 0.0
O68 O 0.98454 0.94835 0.77034 0.0
O69 O 0.99367 0.93989 0.82722 0.0
O70 O 0.94965 0.87514 0.79413 0.0
O71 O 1.00917 0.85596 0.81315 0.0
H72 H 0.91744 0.86128 0.61402 0.0
H73 H 0.89239 0.88911 0.55673 0.0
H74 H 0.86345 0.99669 0.61401 0.0
H75 H 0.88942 0.96892 0.67169 0.0
H76 H 0.11769 0.90599 0.89362 0.0
H77 H 0.17127 0.87461 0.92514 0.0
H78 H 0.21831 0.8351 0.81939 0.0
H79 H 0.16428 0.86568 0.78787 0.0
Pr80 Pr 0.39895 0.73547 0.9869 0.0
Pr81 Pr 0.37765 0.79882 0.03615 0.0
C82 C 0.41365 0.67165 0.94496 0.0
C83 C 0.39407 0.65753 0.91197 0.0
C84 C 0.37834 0.68409 0.88616 0.0
C85 C 0.36022 0.67064 0.85466 0.0
C86 C 0.35739 0.63041 0.84847 0.0
C87 C 0.37151 0.60398 0.87528 0.0
C88 C 0.38982 0.61744 0.90667 0.0
C89 C 0.44204 0.80221 0.97239 0.0
C90 C 0.33131 0.79432 0.9575 0.0
C91 C 0.36557 0.86823 0.07048 0.0
C92 C 0.38719 0.89884 0.08915 0.0
C93 C 0.3793 0.90731 0.12677 0.0
C94 C 0.39773 0.93755 0.14439 0.0
C95 C 0.42442 0.96023 0.12479 0.0
C96 C 0.43272 0.95143 0.08724 0.0
C97 C 0.41439 0.92102 0.06963 0.0
C98 C 0.33377 0.73126 0.0486 0.0
C99 C 0.43417 0.73849 0.07217 0.0
O100 O 0.39441 0.67039 0.97637 0.0
O101 O 0.43205 0.70397 0.9407 0.0
O102 O 0.43558 0.78811 1.00455 0.0
O103 O 0.42371 0.78351 0.94763 0.0
O104 O 0.34422 0.8178 0.98288 0.0
O105 O 0.34432 0.75787 0.95576 0.0
O106 O 0.37046 0.86457 0.03446 0.0
O107 O 0.36213 0.8347 0.08767 0.0
O108 O 0.34228 0.74571 1.0173 0.0
O109 O 0.34604 0.75315 0.07485 0.0
O110 O 0.42079 0.71508 0.04665 0.0
O111 O 0.4305 0.7763 0.06748 0.0
H112 H 0.3805 0.71529 0.89008 0.0
H113 H 0.34951 0.69164 0.83457 0.0
H114 H 0.36892 0.5728 0.87164 0.0
H115 H 0.40093 0.59652 0.92663 0.0
H116 H 0.35842 0.89085 0.14247 0.0
H117 H 0.39084 0.9434 0.17341 0.0
H118 H 0.45254 0.96876 0.07112 0.0
H119 H 0.42109 0.9154 0.04054 0.0
Pr120 Pr 0.54848 0.15606 0.22975 0.0
Pr121 Pr 0.48186 0.14404 0.28171 0.0
C122 C 0.61228 0.1589 0.18644 0.0
C123 C 0.62353 0.14176 0.14951 0.0
C124 C 0.60752 0.15575 0.11627 0.0
C125 C 0.61782 0.13868 0.08188 0.0
C126 C 0.64416 0.107 0.07979 0.0
C127 C 0.66023 0.09316 0.11303 0.0
C128 C 0.65006 0.11028 0.14736 0.0
C129 C 0.48417 0.20282 0.21254 0.0
C130 C 0.48796 0.09063 0.2048 0.0
C131 C 0.41278 0.13617 0.31524 0.0
C132 C 0.38152 0.1543 0.33781 0.0
C133 C 0.35675 0.12981 0.35737 0.0
C134 C 0.32545 0.14541 0.37748 0.0
C135 C 0.31838 0.18601 0.37881 0.0
C136 C 0.34314 0.21066 0.35895 0.0
C137 C 0.37459 0.19491 0.33863 0.0
C138 C 0.54795 0.09843 0.29722 0.0
C139 C 0.5423 0.20102 0.31314 0.0
O140 O 0.60845 0.13442 0.2142 0.0
O141 O 0.58613 0.18685 0.1872 0.0
O142 O 0.4965 0.19759 0.24504 0.0
O143 O 0.50427 0.18242 0.1885 0.0
O144 O 0.46534 0.10642 0.23065 0.0
O145 O 0.52358 0.10132 0.20096 0.0
O146 O 0.41763 0.14869 0.28108 0.0
O147 O 0.44466 0.12687 0.33154 0.0
O148 O 0.53379 0.104 0.26577 0.0
O149 O 0.52607 0.11482 0.32266 0.0
O150 O 0.56597 0.18421 0.28804 0.0
O151 O 0.50533 0.19826 0.30979 0.0
H152 H 0.58694 0.17989 0.11672 0.0
H153 H 0.60505 0.15021 0.05686 0.0
H154 H 0.68143 0.06959 0.11247 0.0
H155 H 0.66309 0.0989 0.17232 0.0
H156 H 0.36129 0.09839 0.35665 0.0
H157 H 0.30643 0.12556 0.39164 0.0
H158 H 0.33836 0.24204 0.35941 0.0
H159 H 0.39328 0.21432 0.32344 0.0
Pr160 Pr 0.63937 0.24072 0.54159 0.0
Pr161 Pr 0.64453 0.3123 0.48738 0.0
C162 C 0.64391 0.17453 0.58327 0.0
C163 C 0.65159 0.16238 0.62211 0.0
C164 C 0.66794 0.18799 0.64729 0.0
C165 C 0.67944 0.17465 0.68245 0.0
C166 C 0.67462 0.13549 0.69324 0.0
C167 C 0.65806 0.1101 0.66793 0.0
C168 C 0.6467 0.1234 0.63284 0.0
C169 C 0.59271 0.30533 0.56138 0.0
C170 C 0.69911 0.30978 0.56191 0.0
C171 C 0.644 0.38353 0.45481 0.0
C172 C 0.62342 0.41392 0.43314 0.0
C173 C 0.64199 0.43051 0.40216 0.0
C174 C 0.6257 0.46259 0.38369 0.0
C175 C 0.59047 0.479 0.39589 0.0
C176 C 0.57099 0.4614 0.42595 0.0
C177 C 0.58744 0.42926 0.44461 0.0
C178 C 0.68833 0.24568 0.46593 0.0
C179 C 0.59115 0.24589 0.46094 0.0
O180 O 0.67276 0.1894 0.56519 0.0
O181 O 0.61148 0.19262 0.57622 0.0
O182 O 0.59767 0.29243 0.52878 0.0
O183 O 0.61171 0.28425 0.58499 0.0
O184 O 0.68359 0.33105 0.53542 0.0
O185 O 0.69019 0.27304 0.56757 0.0
O186 O 0.63313 0.37749 0.48941 0.0
O187 O 0.65658 0.35188 0.43771 0.0
O188 O 0.68382 0.2586 0.49862 0.0
O189 O 0.67356 0.27032 0.44237 0.0
O190 O 0.6102 0.22246 0.48421 0.0
O191 O 0.59127 0.28404 0.46466 0.0
H192 H 0.67257 0.2181 0.63943 0.0
H193 H 0.69206 0.19494 0.70123 0.0
H194 H 0.65465 0.07958 0.67494 0.0
H195 H 0.63496 0.1029 0.61367 0.0
H196 H 0.66975 0.41933 0.39284 0.0
H197 H 0.64098 0.475 0.3601 0.0
H198 H 0.54372 0.47334 0.4358 0.0
H199 H 0.57253 0.41715 0.46853 0.0
Pr200 Pr 0.98638 0.40571 0.72201 0.0
Pr201 Pr 0.04993 0.38796 0.77434 0.0
C202 C 0.93867 0.41408 0.66451 0.0
C203 C 0.90017 0.40509 0.65227 0.0
C204 C 0.86714 0.41222 0.67436 0.0
C205 C 0.83195 0.39844 0.66307 0.0
C206 C 0.82974 0.3768 0.63007 0.0
C207 C 0.86266 0.37042 0.60791 0.0
C208 C 0.89741 0.38466 0.61875 0.0
C209 C 0.97381 0.44073 0.79174 0.0
C210 C 0.9743 0.33059 0.77878 0.0
C211 C 0.09528 0.37853 0.83359 0.0
C212 C 0.11148 0.40095 0.86439 0.0
C213 C 0.14852 0.39162 0.8758 0.0
C214 C 0.16327 0.40944 0.90708 0.0
C215 C 0.14128 0.437 0.92785 0.0
C216 C 0.1048 0.44776 0.91542 0.0
C217 C 0.08994 0.42974 0.88409 0.0
C218 C 0.06313 0.35848 0.70114 0.0
C219 C 0.06527 0.45896 0.72337 0.0
O220 O 0.96034 0.38329 0.67034 0.0
O221 O 0.9437 0.44221 0.68833 0.0
O222 O 1.00537 0.43927 0.774 0.0
O223 O 0.9479 0.42312 0.77354 0.0
O224 O 1.00573 0.3415 0.79462 0.0
O225 O 0.96188 0.34865 0.74877 0.0
O226 O 0.05853 0.37324 0.83494 0.0
O227 O 0.10868 0.38462 0.79982 0.0
O228 O 0.03215 0.35759 0.71973 0.0
O229 O 0.08991 0.37061 0.72207 0.0
O230 O 0.04092 0.44201 0.70132 0.0
O231 O 0.06281 0.45164 0.75907 0.0
H232 H 0.86868 0.42747 0.70057 0.0
H233 H 0.80675 0.40368 0.68051 0.0
H234 H 0.86152 0.35409 0.58224 0.0
H235 H 0.92257 0.37858 0.60143 0.0
H236 H 0.16575 0.36969 0.86105 0.0
H237 H 0.19172 0.40104 0.91557 0.0
H238 H 0.08722 0.46892 0.93078 0.0
H239 H 0.06127 0.43754 0.87591 0.0
Pr240 Pr 0.87567 0.8049 0.04826 0.0
Pr241 Pr 0.87078 0.72998 0.99233 0.0
C242 C 0.86073 0.87113 0.08698 0.0
C243 C 0.855 0.88423 0.12593 0.0
C244 C 0.86655 0.92143 0.13603 0.0
C245 C 0.85828 0.93585 0.17176 0.0
C246 C 0.83806 0.91345 0.19818 0.0
C247 C 0.82708 0.87583 0.18826 0.0
C248 C 0.83554 0.86131 0.15249 0.0
C249 C 0.93042 0.74693 0.06716 0.0
C250 C 0.81491 0.73362 0.06942 0.0
C251 C 0.8745 0.65817 0.9614 0.0
C252 C 0.89443 0.63032 0.93538 0.0
C253 C 0.87851 0.62212 0.90091 0.0
C254 C 0.89389 0.59209 0.87839 0.0
C255 C 0.92549 0.56933 0.88978 0.0
C256 C 0.94205 0.57812 0.92383 0.0
C257 C 0.92668 0.60822 0.94639 0.0
C258 C 0.8279 0.79798 0.97441 0.0
C259 C 0.92289 0.80066 0.96519 0.0
O260 O 0.83457 0.84879 0.07428 0.0
O261 O 0.89525 0.86077 0.07547 0.0
O262 O 0.90708 0.74594 0.04121 0.0
O263 O 0.92497 0.7791 0.08566 0.0
O264 O 0.82567 0.71499 0.03863 0.0
O265 O 0.8295 0.7672 0.07935 0.0
O266 O 0.89112 0.66681 0.9924 0.0
O267 O 0.85416 0.68729 0.94774 0.0
O268 O 0.83322 0.78397 1.00641 0.0
O269 O 0.84285 0.77431 0.94934 0.0
O270 O 0.9037 0.82373 0.98945 0.0
O271 O 0.92298 0.76224 0.96857 0.0
H272 H 0.8813 0.93972 0.11599 0.0
H273 H 0.86698 0.96502 0.17848 0.0
H274 H 0.81207 0.85763 0.20815 0.0
H275 H 0.82634 0.83241 0.14542 0.0
H276 H 0.85339 0.63815 0.8918 0.0
H277 H 0.88058 0.5862 0.85222 0.0
H278 H 0.96597 0.56074 0.93376 0.0
H279 H 0.93936 0.61325 0.97303 0.0
Pr280 Pr 0.52103 0.64931 0.24103 0.0
Pr281 Pr 0.46163 0.6666 0.29974 0.0
C282 C 0.56668 0.63718 0.18042 0.0
C283 C 0.60444 0.65095 0.16703 0.0
C284 C 0.63816 0.6301 0.17573 0.0
C285 C 0.67366 0.64313 0.16308 0.0
C286 C 0.67628 0.67712 0.14118 0.0
C287 C 0.64265 0.69812 0.1327 0.0
C288 C 0.60715 0.68512 0.1453 0.0
C289 C 0.53604 0.61174 0.3087 0.0
C290 C 0.53874 0.72114 0.29599 0.0
C291 C 0.42192 0.67942 0.3642 0.0
C292 C 0.40943 0.65901 0.39888 0.0
C293 C 0.43021 0.66287 0.43156 0.0
C294 C 0.41759 0.64616 0.46509 0.0
C295 C 0.38357 0.62554 0.46701 0.0
C296 C 0.36324 0.62077 0.43419 0.0
C297 C 0.37592 0.63744 0.40052 0.0
C298 C 0.44883 0.70322 0.23019 0.0
C299 C 0.44035 0.59932 0.24717 0.0
O300 O 0.53846 0.66289 0.18137 0.0
O301 O 0.56609 0.61348 0.20904 0.0
O302 O 0.50374 0.61367 0.29389 0.0
O303 O 0.56105 0.63062 0.28906 0.0
O304 O 0.51104 0.70674 0.31673 0.0
O305 O 0.54688 0.7069 0.26266 0.0
O306 O 0.45836 0.68526 0.35992 0.0
O307 O 0.40565 0.6712 0.33294 0.0
O308 O 0.47973 0.70112 0.24698 0.0
O309 O 0.42197 0.68846 0.25085 0.0
O310 O 0.46562 0.61546 0.22416 0.0
O311 O 0.44109 0.60644 0.28288 0.0
H312 H 0.63719 0.60366 0.19233 0.0
H313 H 0.69911 0.62659 0.17049 0.0
H314 H 0.64375 0.72424 0.11562 0.0
H315 H 0.58181 0.7018 0.13784 0.0
H316 H 0.45605 0.6794 0.43139 0.0
H317 H 0.4343 0.64975 0.48969 0.0
H318 H 0.33684 0.60516 0.43479 0.0
H319 H 0.35907 0.63404 0.376 0.0
Pr320 Pr 0.22159 0.55151 0.13564 0.0
Pr321 Pr 0.28452 0.49303 0.11241 0.0
C322 C 0.17338 0.61336 0.14696 0.0
C323 C 0.13401 0.62544 0.13721 0.0
C324 C 0.11511 0.65568 0.15697 0.0
C325 C 0.07961 0.67042 0.14562 0.0
C326 C 0.06199 0.65512 0.11426 0.0
C327 C 0.08082 0.62441 0.09475 0.0
C328 C 0.11638 0.60963 0.10618 0.0
C329 C 0.20908 0.47644 0.16516 0.0
C330 C 0.20927 0.49578 0.06292 0.0
C331 C 0.33732 0.43439 0.10417 0.0
C332 C 0.35818 0.40356 0.1253 0.0
C333 C 0.39547 0.39279 0.11398 0.0
C334 C 0.41467 0.36127 0.13088 0.0
C335 C 0.39711 0.33971 0.15968 0.0
C336 C 0.36011 0.35132 0.17188 0.0
C337 C 0.34081 0.38291 0.15482 0.0
C338 C 0.2892 0.56999 0.08089 0.0
C339 C 0.30111 0.54202 0.18547 0.0
O340 O 0.19773 0.6105 0.1189 0.0
O341 O 0.17799 0.58556 0.17183 0.0
O342 O 0.2409 0.4927 0.1625 0.0
O343 O 0.18299 0.49859 0.15023 0.0
O344 O 0.23372 0.47186 0.07888 0.0
O345 O 0.20491 0.53213 0.07486 0.0
O346 O 0.3008 0.43004 0.09993 0.0
O347 O 0.34626 0.47075 0.10926 0.0
O348 O 0.28122 0.55997 0.11337 0.0
O349 O 0.29691 0.53855 0.06157 0.0
O350 O 0.2729 0.5664 0.17559 0.0
O351 O 0.30453 0.50688 0.17125 0.0
H352 H 0.12834 0.66874 0.18061 0.0
H353 H 0.06653 0.69475 0.16077 0.0
H354 H 0.06817 0.61199 0.07049 0.0
H355 H 0.13053 0.58643 0.09025 0.0
H356 H 0.40948 0.40818 0.09131 0.0
H357 H 0.44321 0.35335 0.12099 0.0
H358 H 0.34554 0.33513 0.19364 0.0
H359 H 0.31199 0.39052 0.16404 0.0
Pr360 Pr 0.78795 0.04762 0.90316 0.0
Pr361 Pr 0.73454 0.98626 0.87987 0.0
C362 C 0.84301 0.10158 0.90642 0.0
C363 C 0.85821 0.13613 0.88626 0.0
C364 C 0.8723 0.16724 0.90661 0.0
C365 C 0.88924 0.19895 0.88843 0.0
C366 C 0.89255 0.20049 0.84931 0.0
C367 C 0.87789 0.16949 0.82891 0.0
C368 C 0.86086 0.13774 0.84715 0.0
C369 C 0.72481 0.04626 0.95095 0.0
C370 C 0.72779 0.06523 0.83268 0.0
C371 C 0.68313 0.92886 0.87349 0.0
C372 C 0.64775 0.91318 0.89068 0.0
C373 C 0.62863 0.88411 0.8719 0.0
C374 C 0.59504 0.86867 0.88693 0.0
C375 C 0.57938 0.88202 0.92117 0.0
C376 C 0.59903 0.91065 0.94048 0.0
C377 C 0.63283 0.92621 0.9253 0.0
C378 C 0.80946 0.9841 0.84496 0.0
C379 C 0.78498 0.96205 0.94784 0.0
O380 O 0.84782 0.06756 0.89045 0.0
O381 O 0.81003 0.1055 0.92387 0.0
O382 O 0.72261 0.0432 0.91561 0.0
O383 O 0.75952 0.0508 0.96136 0.0
O384 O 0.70758 0.03682 0.84647 0.0
O385 O 0.76182 0.07196 0.84612 0.0
O386 O 0.68053 0.96231 0.85599 0.0
O387 O 0.71446 0.92488 0.89205 0.0
O388 O 0.7999 0.98904 0.87809 0.0
O389 O 0.7788 0.97749 0.82671 0.0
O390 O 0.80842 0.9888 0.93443 0.0
O391 O 0.74901 0.96515 0.93949 0.0
H392 H 0.87074 0.16673 0.93675 0.0
H393 H 0.89995 0.2223 0.90508 0.0
H394 H 0.88051 0.16918 0.79884 0.0
H395 H 0.8504 0.11412 0.83067 0.0
H396 H 0.63972 0.87326 0.8454 0.0
H397 H 0.58132 0.84602 0.87169 0.0
H398 H 0.5879 0.92149 0.96695 0.0
H399 H 0.64717 0.9485 0.94045 0.0
Pr400 Pr 0.78625 0.06651 0.37717 0.0
Pr401 Pr 0.72295 1.00592 0.39464 0.0
C402 C 0.82745 0.13163 0.38068 0.0
C403 C 0.86644 0.14252 0.38909 0.0
C404 C 0.89223 0.11522 0.40447 0.0
C405 C 0.92746 0.12719 0.417 0.0
C406 C 0.9373 0.16666 0.41446 0.0
C407 C 0.91176 0.19357 0.39799 0.0
C408 C 0.8766 0.1816 0.38552 0.0
C409 C 0.80359 1.00251 0.33175 0.0
C410 C 0.79991 1.00459 0.44774 0.0
C411 C 0.68098 0.94246 0.40819 0.0
C412 C 0.66326 0.90984 0.38941 0.0
C413 C 0.6527 0.87729 0.41056 0.0
C414 C 0.63418 0.84658 0.39405 0.0
C415 C 0.62573 0.84794 0.35605 0.0
C416 C 0.63762 0.87995 0.33449 0.0
C417 C 0.65619 0.91085 0.35112 0.0
C418 C 0.7101 0.08184 0.42317 0.0
C419 C 0.70681 0.05969 0.32682 0.0
O420 O 0.8079 0.11752 0.40879 0.0
O421 O 0.82197 0.11344 0.3494 0.0
O422 O 0.77521 1.0044 0.35435 0.0
O423 O 0.82485 0.03264 0.33452 0.0
O424 O 0.76556 0.99167 0.4419 0.0
O425 O 0.81527 0.03196 0.42647 0.0
O426 O 0.71818 0.94173 0.40882 0.0
O427 O 0.66607 0.97742 0.40284 0.0
O428 O 0.74093 0.06241 0.42236 0.0
O429 O 0.68267 0.06033 0.41231 0.0
O430 O 0.73007 0.08384 0.34318 0.0
O431 O 0.70952 0.02224 0.33407 0.0
H432 H 0.88468 0.0849 0.40765 0.0
H433 H 0.94683 0.10569 0.42893 0.0
H434 H 0.91848 0.22418 0.3958 0.0
H435 H 0.85685 0.20311 0.37414 0.0
H436 H 0.65828 0.87588 0.44005 0.0
H437 H 0.62593 0.82192 0.41113 0.0
H438 H 0.6315 0.88162 0.30513 0.0
H439 H 0.6644 0.93573 0.33433 0.0
Pr440 Pr 0.24091 0.55674 0.64204 0.0
Pr441 Pr 0.29758 0.49398 0.65469 0.0
C442 C 0.17937 0.60412 0.63066 0.0
C443 C 0.16039 0.63917 0.64695 0.0
C444 C 0.13594 0.66197 0.62498 0.0
C445 C 0.11625 0.6944 0.64011 0.0
C446 C 0.1206 0.70462 0.67756 0.0
C447 C 0.14622 0.68264 0.69923 0.0
C448 C 0.16595 0.65003 0.68404 0.0
C449 C 0.30981 0.57049 0.60386 0.0
C450 C 0.29751 0.56992 0.71047 0.0
C451 C 0.35989 0.44828 0.66697 0.0
C452 C 0.394 0.43136 0.64742 0.0
C453 C 0.43022 0.4419 0.65878 0.0
C454 C 0.46307 0.42511 0.64215 0.0
C455 C 0.46045 0.39724 0.61385 0.0
C456 C 0.42417 0.3871 0.60204 0.0
C457 C 0.39123 0.40407 0.61859 0.0
C458 C 0.22545 0.48171 0.68872 0.0
C459 C 0.24758 0.47677 0.58811 0.0
O460 O 0.1781 0.5719 0.6502 0.0
O461 O 0.21236 0.60899 0.61413 0.0
O462 O 0.2938 0.53784 0.60539 0.0
O463 O 0.29148 0.59604 0.62458 0.0
O464 O 0.3183 0.54347 0.69246 0.0
O465 O 0.26268 0.57869 0.69962 0.0
O466 O 0.3589 0.4861 0.67154 0.0
O467 O 0.32662 0.4343 0.65974 0.0
O468 O 0.2435 0.51289 0.68939 0.0
O469 O 0.24573 0.45474 0.67181 0.0
O470 O 0.22371 0.50205 0.60512 0.0
O471 O 0.28381 0.47686 0.59541 0.0
H472 H 0.1316 0.6543 0.59622 0.0
H473 H 0.09703 0.71117 0.62269 0.0
H474 H 0.15 0.68991 0.72817 0.0
H475 H 0.18501 0.63294 0.70136 0.0
H476 H 0.43314 0.4628 0.68099 0.0
H477 H 0.4906 0.43356 0.65179 0.0
H478 H 0.42119 0.3651 0.58086 0.0
H479 H 0.36369 0.39528 0.60926 0.0
C480 C 0.23427 0.36962 0.56738 0.0
C481 C 0.20584 0.37066 0.54076 0.0
C482 C 0.24829 0.4044 0.58152 0.0
C483 C 0.23343 0.44133 0.57049 0.0
H484 H 0.24599 0.34187 0.57698 0.0
H485 H 0.27032 0.40232 0.60205 0.0
S486 S 0.15709 0.45969 0.50324 0.0
N487 N 0.16284 0.41168 0.50427 0.0
N488 N 0.18795 0.47667 0.5326 0.0
C489 C 0.20445 0.44271 0.54462 0.0
C490 C 0.191 0.40744 0.5293 0.0
C491 C 0.86267 0.9751 0.79518 0.0
C492 C 0.85081 0.97929 0.83275 0.0
C493 C 0.90179 0.96962 0.78495 0.0
C494 C 0.93037 0.96686 0.81191 0.0
H495 H 0.84172 0.97601 0.77359 0.0
H496 H 0.90962 0.96706 0.75585 0.0
S497 S 0.91564 0.98003 0.91353 0.0
N498 N 0.87267 0.98376 0.89643 0.0
N499 N 0.94431 0.97257 0.8772 0.0
C500 C 0.91906 0.97284 0.84909 0.0
C501 C 0.87984 0.979 0.85947 0.0
C502 C 0.3189 0.66261 0.02708 0.0
C503 C 0.3175 0.69161 0.05497 0.0
C504 C 0.30944 0.62337 0.03497 0.0
C505 C 0.2966 0.61194 0.07075 0.0
H506 H 0.3281 0.67005 0.99913 0.0
H507 H 0.31258 0.60188 1.01304 0.0
S508 S 0.27931 0.67902 0.15121 0.0
N509 N 0.29729 0.70715 0.11821 0.0
N510 N 0.27759 0.63517 0.13268 0.0
C511 C 0.2918 0.64176 0.09779 0.0
C512 C 0.30251 0.68109 0.09 0.0
C513 C 0.60755 0.10485 0.3332 0.0
C514 C 0.58914 0.08901 0.3027 0.0
C515 C 0.64679 0.09875 0.33823 0.0
C516 C 0.66895 0.07434 0.31432 0.0
H517 H 0.59143 0.12206 0.35357 0.0
H518 H 0.65928 0.11152 0.36236 0.0
S519 S 0.63451 0.0245 0.23076 0.0
N520 N 0.59646 0.04862 0.24746 0.0
N521 N 0.66943 0.0338 0.2591 0.0
C522 C 0.6509 0.05787 0.28387 0.0
C523 C 0.61122 0.06582 0.27763 0.0
C524 C 0.68194 0.17338 0.47771 0.0
C525 C 0.69675 0.20407 0.45611 0.0
C526 C 0.68634 0.13411 0.46682 0.0
C527 C 0.70606 0.1238 0.4338 0.0
H528 H 0.66482 0.17965 0.50207 0.0
H529 H 0.67391 0.11169 0.48427 0.0
S530 S 0.74787 0.19354 0.36539 0.0
N531 N 0.73007 0.22164 0.39903 0.0
N532 N 0.73904 0.14836 0.37844 0.0
C533 C 0.72077 0.15432 0.41161 0.0
C534 C 0.71586 0.19428 0.42269 0.0
C535 C 0.1258 0.49481 0.73248 0.0
C536 C 0.10294 0.47283 0.70902 0.0
C537 C 0.16511 0.49888 0.7251 0.0
C538 C 0.18344 0.47987 0.69476 0.0
H539 H 0.11354 0.50752 0.75775 0.0
H540 H 0.18158 0.51538 0.7443 0.0
S541 S 0.13639 0.42346 0.62196 0.0
N542 N 0.10143 0.43667 0.65115 0.0
N543 N 0.17526 0.44134 0.63921 0.0
C544 C 0.16075 0.4595 0.67015 0.0
C545 C 0.12055 0.45688 0.67671 0.0
C546 C 0.79132 0.90333 0.99012 0.0
C547 C 0.79959 0.92166 0.95588 0.0
C548 C 0.79959 0.86314 0.99562 0.0
C549 C 0.81632 0.83964 0.96716 0.0
H550 H 0.77759 0.91994 1.01251 0.0
H551 H 0.79171 0.85007 0.022 0.0
S552 S 0.83485 0.87141 0.86978 0.0
N553 N 0.81989 0.91145 0.89153 0.0
N554 N 0.83514 0.83673 0.90179 0.0
C555 C 0.8225 0.85715 0.93222 0.0
C556 C 0.81439 0.89792 0.9267 0.0
C557 C 0.37063 0.58534 0.25248 0.0
C558 C 0.40577 0.58154 0.23247 0.0
C559 C 0.3363 0.57346 0.23724 0.0
C560 C 0.33612 0.55686 0.20173 0.0
H561 H 0.36936 0.5987 0.27975 0.0
H562 H 0.30998 0.57696 0.25337 0.0
S563 S 0.4198 0.54102 0.13769 0.0
N564 N 0.4377 0.56022 0.17522 0.0
N565 N 0.37367 0.53799 0.14661 0.0
C566 C 0.37101 0.55268 0.18165 0.0
C567 C 0.40572 0.56492 0.197 0.0
C568 C 0.59155 0.20311 0.36333 0.0
C569 C 0.55596 0.21561 0.34962 0.0
C570 C 0.60154 0.21023 0.40045 0.0
C571 C 0.57695 0.23144 0.42501 0.0
H572 H 0.61167 0.18708 0.34551 0.0
H573 H 0.62932 0.20029 0.40949 0.0
S574 S 0.4827 0.2752 0.40209 0.0
N575 N 0.49716 0.25267 0.36355 0.0
N576 N 0.51695 0.2676 0.43211 0.0
C577 C 0.54217 0.24568 0.41121 0.0
C578 C 0.53152 0.23758 0.37389 0.0
C579 C 0.10339 0.31578 0.60953 0.0
C580 C 0.08218 0.335 0.58181 0.0
C581 C 0.09638 0.32276 0.64782 0.0
C582 C 0.06822 0.35001 0.6602 0.0
H583 H 0.12722 0.29707 0.6017 0.0
H584 H 0.11375 0.30729 0.66788 0.0
S585 S 1.01305 0.41672 0.59811 0.0
N586 N 0.03654 0.38707 0.56915 0.0
N587 N 0.02493 0.40219 0.64021 0.0
C588 C 0.0487 0.37141 0.63244 0.0
C589 C 0.05555 0.36375 0.59356 0.0
C590 C 0.93299 0.86379 0.87755 0.0
C591 C 0.95728 0.8408 0.85427 0.0
C592 C 0.92398 0.85211 0.91439 0.0
C593 C 0.93829 0.81654 0.92913 0.0
H594 H 0.92157 0.89142 0.86752 0.0
H595 H 0.90482 0.87063 0.93102 0.0
S596 S 1.00536 0.74713 0.87998 0.0
N597 N 0.99728 0.78213 0.84922 0.0
N598 N 0.97996 0.75961 0.91753 0.0
C599 C 0.96334 0.79381 0.90615 0.0
C600 C 0.97282 0.806 0.86902 0.0
C601 C 0.46974 0.7376 0.17142 0.0
C602 C 0.44646 0.71007 0.18928 0.0
C603 C 0.46732 0.74511 0.13293 0.0
C604 C 0.44272 0.7242 0.11044 0.0
H605 H 0.48904 0.75445 0.18753 0.0
H606 H 0.48418 0.76818 0.12084 0.0
S607 S 0.37897 0.64596 0.14299 0.0
N608 N 0.39943 0.66046 0.18114 0.0
N609 N 0.39667 0.67274 0.10879 0.0
C610 C 0.42101 0.695 0.12767 0.0
C611 C 0.42237 0.68844 0.16705 0.0
C612 C 0.14967 0.42444 0.23926 0.0
C613 C 0.17676 0.41144 0.26513 0.0
C614 C 0.16058 0.44334 0.20602 0.0
C615 C 0.19911 0.45015 0.19705 0.0
H616 H 0.11956 0.42134 0.24537 0.0
H617 H 0.13839 0.45404 0.18791 0.0
S618 S 0.28169 0.41713 0.25279 0.0
N619 N 0.24419 0.40323 0.27759 0.0
N620 N 0.2647 0.43886 0.21535 0.0
C621 C 0.22666 0.43539 0.22169 0.0
C622 C 0.21551 0.4162 0.25566 0.0
C623 C 0.8661 0.99609 0.53066 0.0
C624 C 0.85661 0.95988 0.54667 0.0
C625 C 0.84867 1.00995 0.49799 0.0
C626 C 0.82063 0.9884 0.48047 0.0
H627 H 0.88733 0.0137 0.54332 0.0
H628 H 0.85663 0.03812 0.48691 0.0
S629 S 0.78557 0.8918 0.51161 0.0
N630 N 0.81728 0.90297 0.54263 0.0
N631 N 0.78486 0.92848 0.48169 0.0
C632 C 0.81113 0.95204 0.49628 0.0
C633 C 0.82898 0.93795 0.52921 0.0
C634 C 0.29283 0.61518 0.76597 0.0
C635 C 0.3136 0.58713 0.74458 0.0
C636 C 0.30712 0.62951 0.79941 0.0
C637 C 0.34243 0.61588 0.81289 0.0
H638 H 0.2652 0.62588 0.75708 0.0
H639 H 0.29013 0.65082 0.81518 0.0
S640 S 0.40934 0.54469 0.76675 0.0
N641 N 0.37262 0.54781 0.73914 0.0
N642 N 0.39875 0.57474 0.80139 0.0
C643 C 0.36376 0.5886 0.79148 0.0
C644 C 0.34956 0.57425 0.75753 0.0
C645 C 0.66843 0.11493 1.01363 0.0
C646 C 0.65692 0.0901 0.04299 0.0
C647 C 0.68662 0.09997 0.98117 0.0
C648 C 0.69356 0.05961 0.97655 0.0
H649 H 0.66581 0.14633 1.0168 0.0
H650 H 0.69797 0.12033 0.96085 0.0
S651 S 0.66405 0.98172 0.04211 0.0
N652 N 0.64965 0.02265 0.0629 0.0
N653 N 0.68451 0.99493 1.0023 0.0
C654 C 0.67978 0.03437 1.00432 0.0
C655 C 0.66126 0.04948 0.03738 0.0
C656 C 0.72383 0.12713 0.74337 0.0
C657 C 0.68688 0.12075 0.73056 0.0
C658 C 0.7366 0.11046 0.77705 0.0
C659 C 0.71284 0.08691 0.79941 0.0
H660 H 0.74349 0.14403 0.72661 0.0
H661 H 0.76566 0.11509 0.78495 0.0
S662 S 0.61175 0.06568 0.78052 0.0
N663 N 0.6257 0.09234 0.74462 0.0
N664 N 0.64903 0.06135 0.80738 0.0
C665 C 0.67517 0.08204 0.78761 0.0
C666 C 0.6624 0.0988 0.7534 0.0
C667 C 0.17328 0.50686 1.00331 0.0
C668 C 0.18835 0.48113 0.03031 0.0
C669 C 0.1572 0.49265 0.97056 0.0
C670 C 0.15575 0.45224 0.96358 0.0
H671 H 0.17498 0.53813 1.00691 0.0
H672 H 0.1469 0.51341 0.95006 0.0
S673 S 0.18593 0.37265 0.02765 0.0
N674 N 0.19683 0.41309 0.04922 0.0
N675 N 0.16699 0.38694 0.98815 0.0
C676 C 0.169 0.42639 0.99113 0.0
C677 C 0.18516 0.44067 0.02432 0.0
C678 C 0.84916 0.96911 0.28796 0.0
C679 C 0.81176 0.9725 0.30281 0.0
C680 C 0.85756 0.94824 0.25528 0.0
C681 C 0.82889 0.92992 0.2358 0.0
H682 H 0.87207 0.98419 0.30085 0.0
H683 H 0.88662 0.94762 0.24443 0.0
S684 S 0.72667 0.92724 0.26442 0.0
N685 N 0.74616 0.95327 0.29711 0.0
N686 N 0.76173 0.91441 0.23508 0.0
C687 C 0.79166 0.931 0.25148 0.0
C688 C 0.78314 0.95219 0.28515 0.0
C689 C 0.33854 0.55854 0.54 0.0
C690 C 0.33347 0.58301 0.57123 0.0
C691 C 0.35543 0.57217 0.50667 0.0
C692 C 0.36833 0.61063 0.50338 0.0
H693 H 0.32806 0.5291 0.54075 0.0
H694 H 0.35793 0.5526 0.4831 0.0
S695 S 0.36356 0.68576 0.57756 0.0
N696 N 0.34446 0.64701 0.59717 0.0
N697 N 0.37575 0.6726 0.53469 0.0
C698 C 0.36471 0.63488 0.53484 0.0
C699 C 0.34746 0.62107 0.56869 0.0
C700 C 0.22559 0.24149 0.40477 0.0
C701 C 0.21713 0.22694 0.44056 0.0
C702 C 0.25897 0.22904 0.38513 0.0
C703 C 0.28502 0.20197 0.4009 0.0
H704 H 0.20589 0.26179 0.39156 0.0
H705 H 0.26387 0.23981 0.35708 0.0
S706 S 0.27841 0.16027 0.49627 0.0
N707 N 0.23902 0.18722 0.49237 0.0
N708 N 0.30181 0.1647 0.45613 0.0
C709 C 0.27758 0.18895 0.43746 0.0
C710 C 0.24363 0.20123 0.45713 0.0
C711 C 0.05176 0.04215 0.63651 0.0
C712 C 0.08808 0.0563 0.64416 0.0
C713 C 0.03632 1.01075 0.65685 0.0
C714 C 0.05644 0.99266 0.68593 0.0
H715 H 0.03495 0.05579 0.61493 0.0
H716 H 1.00798 1.0015 0.65055 0.0
S717 S 0.15317 0.01797 0.71631 0.0
N718 N 0.14377 0.0493 0.68257 0.0
N719 N 0.11564 0.99022 0.71992 0.0
C720 C 0.09326 1.00591 0.69304 0.0
C721 C 0.10883 0.03769 0.67243 0.0
C722 C 0.25174 0.8602 0.91993 0.0
C723 C 0.23369 0.8366 0.89415 0.0
C724 C 0.28372 0.84656 0.93923 0.0
C725 C 0.29922 0.80851 0.9339 0.0
H726 H 0.24108 0.88968 0.92526 0.0
H727 H 0.29597 0.86607 0.95899 0.0
S728 S 0.26304 0.73493 0.86893 0.0
N729 N 0.23402 0.77328 0.86388 0.0
N730 N 0.29419 0.74759 0.9 0.0
C731 C 0.28187 0.78471 0.90766 0.0
C732 C 0.24922 0.79875 0.88785 0.0
C733 C 0.43362 0.05163 0.18319 0.0
C734 C 0.47296 0.05869 0.18178 0.0
C735 C 0.41843 0.02016 0.16439 0.0
C736 C 0.44178 0.99415 0.14326 0.0
H737 H 0.41418 0.07038 0.19929 0.0
H738 H 0.38797 0.01618 0.16647 0.0
S739 S 0.5467 0.99932 0.13009 0.0
N740 N 0.53504 0.03704 0.15688 0.0
N741 N 0.50642 0.97758 0.12184 0.0
C742 C 0.48112 1.00111 0.14095 0.0
C743 C 0.49669 0.03337 0.16011 0.0
C744 C 0.79059 0.3196 0.61467 0.0
C745 C 0.79356 0.36028 0.61812 0.0
C746 C 0.7589 0.30331 0.59826 0.0
C747 C 0.72946 0.32723 0.58393 0.0
H748 H 0.81351 0.30029 0.62378 0.0
H749 H 0.7584 0.27188 0.59518 0.0
S750 S 0.72281 0.43557 0.58856 0.0
N751 N 0.76368 0.424 0.6081 0.0
N752 N 0.70429 0.39376 0.57668 0.0
C753 C 0.73152 0.36797 0.58857 0.0
C754 C 0.76352 0.38442 0.60581 0.0
C755 C 0.92493 0.4774 0.83067 0.0
C756 C 0.96343 0.47124 0.81989 0.0
C757 C 0.91321 0.50877 0.85356 0.0
C758 C 0.93946 0.53526 0.86698 0.0
H759 H 0.90335 0.45841 0.82059 0.0
H760 H 0.88317 0.51242 0.86064 0.0
S761 S 0.04397 0.53111 0.8488 0.0
N762 N 0.02813 0.49345 0.82588 0.0
N763 N 1.00607 0.5524 0.86887 0.0
C764 C 0.97826 0.52871 0.85756 0.0
C765 C 0.99023 0.49676 0.83405 0.0
C766 C 0.75804 0.74276 0.11263 0.0
C767 C 0.78248 0.71764 0.09156 0.0
C768 C 0.72418 0.7293 0.12927 0.0
C769 C 0.71373 0.69009 0.12596 0.0
H770 H 0.76423 0.77344 0.11505 0.0
H771 H 0.70574 0.74989 0.14441 0.0
S772 S 0.76904 0.61178 0.07607 0.0
N773 N 0.79479 0.65102 0.07023 0.0
N774 N 0.73128 0.62601 0.10125 0.0
C775 C 0.73865 0.66435 0.10627 0.0
C776 C 0.77294 0.67805 0.08914 0.0
C777 C 0.53787 0.51628 0.36357 0.0
C778 C 0.57494 0.51497 0.37759 0.0
C779 C 0.52451 0.54862 0.34282 0.0
C780 C 0.54777 0.58076 0.33546 0.0
H781 H 0.51966 0.4915 0.36736 0.0
H782 H 0.49641 0.54766 0.33119 0.0
S783 S 0.64471 0.59419 0.3711 0.0
N784 N 0.63288 0.55052 0.38637 0.0
N785 N 0.60801 0.61095 0.34743 0.0
C786 C 0.58396 0.5807 0.35129 0.0
C787 C 0.5975 0.54791 0.37229 0.0
C788 C 0.43359 0.2764 0.14994 0.0
C789 C 0.41683 0.30387 0.1748 0.0
C790 C 0.45401 0.24338 0.16265 0.0
C791 C 0.45899 0.2363 0.20088 0.0
H792 H 0.43105 0.28053 0.1202 0.0
H793 H 0.46669 0.22364 0.1421 0.0
S794 S 0.41958 0.29818 0.2779 0.0
N795 N 0.40553 0.321 0.2398 0.0
N796 N 0.44403 0.25888 0.26371 0.0
C797 C 0.44153 0.26288 0.22623 0.0
C798 C 0.42043 0.29659 0.21322 0.0
C799 C 0.96704 0.2772 0.82687 0.0
C800 C 0.95272 0.29728 0.79559 0.0
C801 C 0.94749 0.24623 0.84379 0.0
C802 C 0.91263 0.23359 0.83031 0.0
H803 H 0.99374 0.28539 0.83861 0.0
H804 H 0.96011 0.23177 0.86754 0.0
S805 S 0.86163 0.2767 0.74998 0.0
N806 N 0.90066 0.30225 0.75222 0.0
N807 N 0.86401 0.24443 0.7842 0.0
C808 C 0.89783 0.25332 0.7991 0.0
C809 C 0.91775 0.28499 0.7818 0.0
C810 C 0.02064 0.68319 0.0634 0.0
C811 C 0.02511 0.67271 0.10114 0.0
C812 C 0.98824 0.7047 0.0516 0.0
C813 C 0.95935 0.71664 0.0772 0.0
H814 H 0.04321 0.67652 0.04316 0.0
H815 H 0.98696 0.71412 0.02283 0.0
S816 S 0.95381 0.69115 0.17745 0.0
N817 N 0.99485 0.6714 0.1627 0.0
N818 N 0.93509 0.71286 0.1408 0.0
C819 C 0.96232 0.70433 0.11434 0.0
C820 C 0.99486 0.6821 0.12625 0.0
C821 C 0.61574 0.79626 0.30794 0.0
C822 C 0.60278 0.81682 0.3398 0.0
C823 C 0.59485 0.76549 0.29365 0.0
C824 C 0.56022 0.75432 0.3107 0.0
H825 H 0.64257 0.80347 0.29444 0.0
H826 H 0.60622 0.75003 0.26943 0.0
S827 S 0.51216 0.80234 0.39251 0.0
N828 N 0.552 0.82612 0.38619 0.0
N829 N 0.51279 0.7687 0.3598 0.0
C830 C 0.54653 0.77568 0.34197 0.0
C831 C 0.56778 0.80681 0.35638 0.0
C832 C 0.5543 0.3395 0.61121 0.0
C833 C 0.56081 0.3321 0.5731 0.0
C834 C 0.5223 0.3613 0.62388 0.0
C835 C 0.49544 0.37668 0.59897 0.0
H836 H 0.57358 0.32751 0.63165 0.0
H837 H 0.51797 0.36509 0.6536 0.0
S838 S 0.50108 0.36894 0.49604 0.0
N839 N 0.53903 0.34412 0.51024 0.0
N840 N 0.47892 0.38543 0.53412 0.0
C841 C 0.50227 0.37076 0.56064 0.0
C842 C 0.535 0.34852 0.54769 0.0
C843 C 0.11217 0.76871 0.71159 0.0
C844 C 0.09621 0.7364 0.69432 0.0
C845 C 0.08892 0.79974 0.72566 0.0
C846 C 0.04897 0.79899 0.72361 0.0
H847 H 0.1428 0.77042 0.71344 0.0
H848 H 0.10226 0.82445 0.73812 0.0
S849 S 0.99345 0.71981 0.68246 0.0
N850 N 0.0383 0.70496 0.67696 0.0
N851 N 0.99468 0.76238 0.70359 0.0
C852 C 0.03283 0.76622 0.70722 0.0
C853 C 0.05643 0.73517 0.69251 0.0
C854 C 0.50572 0.83225 0.98517 0.0
C855 C 0.47477 0.82733 0.96156 0.0
C856 C 0.53896 0.85126 0.97261 0.0
C857 C 0.54253 0.86601 0.93596 0.0
H858 H 0.50495 0.81997 1.01299 0.0
H859 H 0.5626 0.853 0.99123 0.0
S860 S 0.46736 0.86604 0.86522 0.0
N861 N 0.44851 0.84265 0.90115 0.0
N862 N 0.51021 0.87825 0.87795 0.0
C863 C 0.51085 0.86322 0.91301 0.0
C864 C 0.47725 0.84398 0.92569 0.0
C865 C 0.99648 0.20515 0.40748 0.0
C866 C 0.97371 0.18042 0.42931 0.0
C867 C 0.0291 0.22156 0.42168 0.0
C868 C 0.04039 0.21413 0.45847 0.0
H869 H 0.98874 0.21233 0.37922 0.0
H870 H 0.04512 0.24091 0.40367 0.0
S871 S 0.99108 0.15009 0.52686 0.0
N872 N 0.96506 0.14833 0.48931 0.0
N873 N 0.02663 0.17892 0.51605 0.0
C874 C 0.01852 0.18838 0.48031 0.0
C875 C 0.98516 0.17159 0.46573 0.0
loop_
_geom_bond_atom_site_label_1
_geom_bond_atom_site_label_2
_geom_bond_distance
_geom_bond_site_symmetry_2
_ccdc_geom_bond_type
Pr0 C2 2.880 . S
Pr0 O20 2.562 . S
Pr0 O21 2.490 . S
Pr0 O22 2.695 . S
Pr0 O23 2.512 . S
Pr0 O25 2.437 . S
Pr0 O28 2.436 . S
Pr0 O30 2.438 . S
Pr1 C11 2.880 . S
Pr1 O22 2.436 . S
Pr1 O24 2.438 . S
Pr1 O26 2.562 . S
Pr1 O27 2.490 . S
Pr1 O28 2.695 . S
Pr1 O29 2.512 . S
Pr1 O31 2.437 . S
C2 Pr0 2.880 . S
C2 C3 1.491 . S
C2 O20 1.254 . S
C2 O21 1.225 . S
C3 C2 1.491 . S
C3 C4 1.392 . S
C3 C8 1.356 . S
C4 C3 1.392 . S
C4 C5 1.368 . S
C4 H32 0.929 . S
C5 C4 1.368 . S
C5 C6 1.386 . S
C5 H33 0.929 . S
C6 C5 1.386 . S
C6 C7 1.373 . S
C7 C6 1.373 . S
C7 C8 1.409 . S
C7 H34 0.931 . S
C8 C3 1.356 . S
C8 C7 1.409 . S
C8 H35 0.930 . S
C9 O22 1.270 . S
C9 O23 1.248 . S
C10 O24 1.267 . S
C10 O25 1.278 . S
C11 Pr1 2.880 . S
C11 C12 1.491 . S
C11 O26 1.254 . S
C11 O27 1.225 . S
C12 C11 1.491 . S
C12 C13 1.392 . S
C12 C17 1.356 . S
C13 C12 1.392 . S
C13 C14 1.368 . S
C13 H36 0.929 . S
C14 C13 1.368 . S
C14 C15 1.386 . S
C14 H37 0.929 . S
C15 C14 1.386 . S
C15 C16 1.373 . S
C16 C15 1.373 . S
C16 C17 1.409 . S
C16 H38 0.931 . S
C17 C12 1.356 . S
C17 C16 1.409 . S
C17 H39 0.930 . S
C18 O28 1.270 . S
C18 O29 1.248 . S
C19 O30 1.267 . S
C19 O31 1.278 . S
O20 Pr0 2.562 . S
O20 C2 1.254 . S
O21 Pr0 2.490 . S
O21 C2 1.225 . S
O22 Pr0 2.695 . S
O22 Pr1 2.436 . S
O22 C9 1.270 . S
O23 Pr0 2.512 . S
O23 C9 1.248 . S
O24 Pr1 2.438 . S
O24 C10 1.267 . S
O25 Pr0 2.437 . S
O25 C10 1.278 . S
O26 Pr1 2.562 . S
O26 C11 1.254 . S
O27 Pr1 2.490 . S
O27 C11 1.225 . S
O28 Pr0 2.436 . S
O28 Pr1 2.695 . S
O28 C18 1.270 . S
O29 Pr1 2.512 . S
O29 C18 1.248 . S
O30 Pr0 2.438 . S
O30 C19 1.267 . S
O31 Pr1 2.437 . S
O31 C19 1.278 . S
H32 C4 0.929 . S
H33 C5 0.929 . S
H34 C7 0.931 . S
H35 C8 0.930 . S
H36 C13 0.929 . S
H37 C14 0.929 . S
H38 C16 0.931 . S
H39 C17 0.930 . S
Pr40 C42 2.880 . S
Pr40 O60 2.562 . S
Pr40 O61 2.490 . S
Pr40 O62 2.695 1_655 S
Pr40 O63 2.512 1_655 S
Pr40 O65 2.437 1_655 S
Pr40 O68 2.436 . S
Pr40 O70 2.438 . S
Pr41 C51 2.880 . S
Pr41 O62 2.436 . S
Pr41 O64 2.438 . S
Pr41 O66 2.562 . S
Pr41 O67 2.490 . S
Pr41 O68 2.695 1_455 S
Pr41 O69 2.512 1_455 S
Pr41 O71 2.437 1_455 S
C42 Pr40 2.880 . S
C42 C43 1.491 . S
C42 O60 1.254 . S
C42 O61 1.225 . S
C43 C42 1.491 . S
C43 C44 1.392 . S
C43 C48 1.356 . S
C44 C43 1.392 . S
C44 C45 1.368 . S
C44 H72 0.929 . S
C45 C44 1.368 . S
C45 C46 1.386 . S
C45 H73 0.929 . S
C46 C45 1.386 . S
C46 C47 1.373 . S
C47 C46 1.373 . S
C47 C48 1.409 . S
C47 H74 0.931 . S
C48 C43 1.356 . S
C48 C47 1.409 . S
C48 H75 0.930 . S
C49 O62 1.270 . S
C49 O63 1.248 . S
C50 O64 1.267 . S
C50 O65 1.278 . S
C51 Pr41 2.880 . S
C51 C52 1.491 . S
C51 O66 1.254 . S
C51 O67 1.225 . S
C52 C51 1.491 . S
C52 C53 1.392 . S
C52 C57 1.356 . S
C53 C52 1.392 . S
C53 C54 1.368 . S
C53 H76 0.929 . S
C54 C53 1.368 . S
C54 C55 1.386 . S
C54 H77 0.929 . S
C55 C54 1.386 . S
C55 C56 1.373 . S
C56 C55 1.373 . S
C56 C57 1.409 . S
C56 H78 0.931 . S
C57 C52 1.356 . S
C57 C56 1.409 . S
C57 H79 0.930 . S
C58 O68 1.270 . S
C58 O69 1.248 . S
C59 O70 1.267 . S
C59 O71 1.278 . S
O60 Pr40 2.562 . S
O60 C42 1.254 . S
O61 Pr40 2.490 . S
O61 C42 1.225 . S
O62 Pr40 2.695 1_455 S
O62 Pr41 2.436 . S
O62 C49 1.270 . S
O63 Pr40 2.512 1_455 S
O63 C49 1.248 . S
O64 Pr41 2.438 . S
O64 C50 1.267 . S
O65 Pr40 2.437 1_455 S
O65 C50 1.278 . S
O66 Pr41 2.562 . S
O66 C51 1.254 . S
O67 Pr41 2.490 . S
O67 C51 1.225 . S
O68 Pr40 2.436 . S
O68 Pr41 2.695 1_655 S
O68 C58 1.270 . S
O69 Pr41 2.512 1_655 S
O69 C58 1.248 . S
O70 Pr40 2.438 . S
O70 C59 1.267 . S
O71 Pr41 2.437 1_655 S
O71 C59 1.278 . S
H72 C44 0.929 . S
H73 C45 0.929 . S
H74 C47 0.931 . S
H75 C48 0.930 . S
H76 C53 0.929 . S
H77 C54 0.929 . S
H78 C56 0.931 . S
H79 C57 0.930 . S
Pr80 C82 2.880 . S
Pr80 O100 2.562 . S
Pr80 O101 2.490 . S
Pr80 O102 2.695 . S
Pr80 O103 2.512 . S
Pr80 O105 2.437 . S
Pr80 O108 2.436 1_556 S
Pr80 O110 2.438 1_556 S
Pr81 C91 2.880 . S
Pr81 O102 2.436 1_554 S
Pr81 O104 2.438 1_554 S
Pr81 O106 2.562 . S
Pr81 O107 2.490 . S
Pr81 O108 2.695 . S
Pr81 O109 2.512 . S
Pr81 O111 2.437 . S
C82 Pr80 2.880 . S
C82 C83 1.491 . S
C82 O100 1.254 . S
C82 O101 1.225 . S
C83 C82 1.491 . S
C83 C84 1.392 . S
C83 C88 1.356 . S
C84 C83 1.392 . S
C84 C85 1.368 . S
C84 H112 0.929 . S
C85 C84 1.368 . S
C85 C86 1.386 . S
C85 H113 0.929 . S
C86 C85 1.386 . S
C86 C87 1.373 . S
C87 C86 1.373 . S
C87 C88 1.409 . S
C87 H114 0.931 . S
C88 C83 1.356 . S
C88 C87 1.409 . S
C88 H115 0.930 . S
C89 O102 1.270 . S
C89 O103 1.248 . S
C90 O104 1.267 . S
C90 O105 1.278 . S
C91 Pr81 2.880 . S
C91 C92 1.491 . S
C91 O106 1.254 . S
C91 O107 1.225 . S
C92 C91 1.491 . S
C92 C93 1.392 . S
C92 C97 1.356 . S
C93 C92 1.392 . S
C93 C94 1.368 . S
C93 H116 0.929 . S
C94 C93 1.368 . S
C94 C95 1.386 . S
C94 H117 0.929 . S
C95 C94 1.386 . S
C95 C96 1.373 . S
C96 C95 1.373 . S
C96 C97 1.409 . S
C96 H118 0.931 . S
C97 C92 1.356 . S
C97 C96 1.409 . S
C97 H119 0.930 . S
C98 O108 1.270 . S
C98 O109 1.248 . S
C99 O110 1.267 . S
C99 O111 1.278 . S
O100 Pr80 2.562 . S
O100 C82 1.254 . S
O101 Pr80 2.490 . S
O101 C82 1.225 . S
O102 Pr80 2.695 . S
O102 Pr81 2.436 1_556 S
O102 C89 1.270 . S
O103 Pr80 2.512 . S
O103 C89 1.248 . S
O104 Pr81 2.438 1_556 S
O104 C90 1.267 . S
O105 Pr80 2.437 . S
O105 C90 1.278 . S
O106 Pr81 2.562 . S
O106 C91 1.254 . S
O107 Pr81 2.490 . S
O107 C91 1.225 . S
O108 Pr80 2.436 1_554 S
O108 Pr81 2.695 . S
O108 C98 1.270 . S
O109 Pr81 2.512 . S
O109 C98 1.248 . S
O110 Pr80 2.438 1_554 S
O110 C99 1.267 . S
O111 Pr81 2.437 . S
O111 C99 1.278 . S
H112 C84 0.929 . S
H113 C85 0.929 . S
H114 C87 0.931 . S
H115 C88 0.930 . S
H116 C93 0.929 . S
H117 C94 0.929 . S
H118 C96 0.931 . S
H119 C97 0.930 . S
Pr120 C122 2.880 . S
Pr120 O140 2.562 . S
Pr120 O141 2.490 . S
Pr120 O142 2.695 . S
Pr120 O143 2.512 . S
Pr120 O145 2.437 . S
Pr120 O148 2.436 . S
Pr120 O150 2.438 . S
Pr121 C131 2.880 . S
Pr121 O142 2.436 . S
Pr121 O144 2.438 . S
Pr121 O146 2.562 . S
Pr121 O147 2.490 . S
Pr121 O148 2.695 . S
Pr121 O149 2.512 . S
Pr121 O151 2.437 . S
C122 Pr120 2.880 . S
C122 C123 1.491 . S
C122 O140 1.254 . S
C122 O141 1.225 . S
C123 C122 1.491 . S
C123 C124 1.392 . S
C123 C128 1.356 . S
C124 C123 1.392 . S
C124 C125 1.368 . S
C124 H152 0.929 . S
C125 C124 1.368 . S
C125 C126 1.386 . S
C125 H153 0.929 . S
C126 C125 1.386 . S
C126 C127 1.373 . S
C127 C126 1.373 . S
C127 C128 1.409 . S
C127 H154 0.931 . S
C128 C123 1.356 . S
C128 C127 1.409 . S
C128 H155 0.930 . S
C129 O142 1.270 . S
C129 O143 1.248 . S
C130 O144 1.267 . S
C130 O145 1.278 . S
C131 Pr121 2.880 . S
C131 C132 1.491 . S
C131 O146 1.254 . S
C131 O147 1.225 . S
C132 C131 1.491 . S
C132 C133 1.392 . S
C132 C137 1.356 . S
C133 C132 1.392 . S
C133 C134 1.368 . S
C133 H156 0.929 . S
C134 C133 1.368 . S
C134 C135 1.386 . S
C134 H157 0.929 . S
C135 C134 1.386 . S
C135 C136 1.373 . S
C136 C135 1.373 . S
C136 C137 1.409 . S
C136 H158 0.931 . S
C137 C132 1.356 . S
C137 C136 1.409 . S
C137 H159 0.930 . S
C138 O148 1.270 . S
C138 O149 1.248 . S
C139 O150 1.267 . S
C139 O151 1.278 . S
O140 Pr120 2.562 . S
O140 C122 1.254 . S
O141 Pr120 2.490 . S
O141 C122 1.225 . S
O142 Pr120 2.695 . S
O142 Pr121 2.436 . S
O142 C129 1.270 . S
O143 Pr120 2.512 . S
O143 C129 1.248 . S
O144 Pr121 2.438 . S
O144 C130 1.267 . S
O145 Pr120 2.437 . S
O145 C130 1.278 . S
O146 Pr121 2.562 . S
O146 C131 1.254 . S
O147 Pr121 2.490 . S
O147 C131 1.225 . S
O148 Pr120 2.436 . S
O148 Pr121 2.695 . S
O148 C138 1.270 . S
O149 Pr121 2.512 . S
O149 C138 1.248 . S
O150 Pr120 2.438 . S
O150 C139 1.267 . S
O151 Pr121 2.437 . S
O151 C139 1.278 . S
H152 C124 0.929 . S
H153 C125 0.929 . S
H154 C127 0.931 . S
H155 C128 0.930 . S
H156 C133 0.929 . S
H157 C134 0.929 . S
H158 C136 0.931 . S
H159 C137 0.930 . S
Pr160 C162 2.880 . S
Pr160 O180 2.562 . S
Pr160 O181 2.490 . S
Pr160 O182 2.695 . S
Pr160 O183 2.512 . S
Pr160 O185 2.437 . S
Pr160 O188 2.436 . S
Pr160 O190 2.438 . S
Pr161 C171 2.880 . S
Pr161 O182 2.436 . S
Pr161 O184 2.438 . S
Pr161 O186 2.562 . S
Pr161 O187 2.490 . S
Pr161 O188 2.695 . S
Pr161 O189 2.512 . S
Pr161 O191 2.437 . S
C162 Pr160 2.880 . S
C162 C163 1.491 . S
C162 O180 1.254 . S
C162 O181 1.225 . S
C163 C162 1.491 . S
C163 C164 1.392 . S
C163 C168 1.356 . S
C164 C163 1.392 . S
C164 C165 1.368 . S
C164 H192 0.929 . S
C165 C164 1.368 . S
C165 C166 1.386 . S
C165 H193 0.929 . S
C166 C165 1.386 . S
C166 C167 1.373 . S
C167 C166 1.373 . S
C167 C168 1.409 . S
C167 H194 0.931 . S
C168 C163 1.356 . S
C168 C167 1.409 . S
C168 H195 0.930 . S
C169 O182 1.270 . S
C169 O183 1.248 . S
C170 O184 1.267 . S
C170 O185 1.278 . S
C171 Pr161 2.880 . S
C171 C172 1.491 . S
C171 O186 1.254 . S
C171 O187 1.225 . S
C172 C171 1.491 . S
C172 C173 1.392 . S
C172 C177 1.356 . S
C173 C172 1.392 . S
C173 C174 1.368 . S
C173 H196 0.929 . S
C174 C173 1.368 . S
C174 C175 1.386 . S
C174 H197 0.929 . S
C175 C174 1.386 . S
C175 C176 1.373 . S
C176 C175 1.373 . S
C176 C177 1.409 . S
C176 H198 0.931 . S
C177 C172 1.356 . S
C177 C176 1.409 . S
C177 H199 0.930 . S
C178 O188 1.270 . S
C178 O189 1.248 . S
C179 O190 1.267 . S
C179 O191 1.278 . S
O180 Pr160 2.562 . S
O180 C162 1.254 . S
O181 Pr160 2.490 . S
O181 C162 1.225 . S
O182 Pr160 2.695 . S
O182 Pr161 2.436 . S
O182 C169 1.270 . S
O183 Pr160 2.512 . S
O183 C169 1.248 . S
O184 Pr161 2.438 . S
O184 C170 1.267 . S
O185 Pr160 2.437 . S
O185 C170 1.278 . S
O186 Pr161 2.562 . S
O186 C171 1.254 . S
O187 Pr161 2.490 . S
O187 C171 1.225 . S
O188 Pr160 2.436 . S
O188 Pr161 2.695 . S
O188 C178 1.270 . S
O189 Pr161 2.512 . S
O189 C178 1.248 . S
O190 Pr160 2.438 . S
O190 C179 1.267 . S
O191 Pr161 2.437 . S
O191 C179 1.278 . S
H192 C164 0.929 . S
H193 C165 0.929 . S
H194 C167 0.931 . S
H195 C168 0.930 . S
H196 C173 0.929 . S
H197 C174 0.929 . S
H198 C176 0.931 . S
H199 C177 0.930 . S
Pr200 C202 2.880 . S
Pr200 O220 2.562 . S
Pr200 O221 2.490 . S
Pr200 O222 2.695 . S
Pr200 O223 2.512 . S
Pr200 O225 2.437 . S
Pr200 O228 2.436 1_655 S
Pr200 O230 2.438 1_655 S
Pr201 C211 2.880 . S
Pr201 O222 2.436 1_455 S
Pr201 O224 2.438 1_455 S
Pr201 O226 2.562 . S
Pr201 O227 2.490 . S
Pr201 O228 2.695 . S
Pr201 O229 2.512 . S
Pr201 O231 2.437 . S
C202 Pr200 2.880 . S
C202 C203 1.491 . S
C202 O220 1.254 . S
C202 O221 1.225 . S
C203 C202 1.491 . S
C203 C204 1.392 . S
C203 C208 1.356 . S
C204 C203 1.392 . S
C204 C205 1.368 . S
C204 H232 0.929 . S
C205 C204 1.368 . S
C205 C206 1.386 . S
C205 H233 0.929 . S
C206 C205 1.386 . S
C206 C207 1.373 . S
C207 C206 1.373 . S
C207 C208 1.409 . S
C207 H234 0.931 . S
C208 C203 1.356 . S
C208 C207 1.409 . S
C208 H235 0.930 . S
C209 O222 1.270 . S
C209 O223 1.248 . S
C210 O224 1.267 . S
C210 O225 1.278 . S
C211 Pr201 2.880 . S
C211 C212 1.491 . S
C211 O226 1.254 . S
C211 O227 1.225 . S
C212 C211 1.491 . S
C212 C213 1.392 . S
C212 C217 1.356 . S
C213 C212 1.392 . S
C213 C214 1.368 . S
C213 H236 0.929 . S
C214 C213 1.368 . S
C214 C215 1.386 . S
C214 H237 0.929 . S
C215 C214 1.386 . S
C215 C216 1.373 . S
C216 C215 1.373 . S
C216 C217 1.409 . S
C216 H238 0.931 . S
C217 C212 1.356 . S
C217 C216 1.409 . S
C217 H239 0.930 . S
C218 O228 1.270 . S
C218 O229 1.248 . S
C219 O230 1.267 . S
C219 O231 1.278 . S
O220 Pr200 2.562 . S
O220 C202 1.254 . S
O221 Pr200 2.490 . S
O221 C202 1.225 . S
O222 Pr200 2.695 . S
O222 Pr201 2.436 1_655 S
O222 C209 1.270 . S
O223 Pr200 2.512 . S
O223 C209 1.248 . S
O224 Pr201 2.438 1_655 S
O224 C210 1.267 . S
O225 Pr200 2.437 . S
O225 C210 1.278 . S
O226 Pr201 2.562 . S
O226 C211 1.254 . S
O227 Pr201 2.490 . S
O227 C211 1.225 . S
O228 Pr200 2.436 1_455 S
O228 Pr201 2.695 . S
O228 C218 1.270 . S
O229 Pr201 2.512 . S
O229 C218 1.248 . S
O230 Pr200 2.438 1_455 S
O230 C219 1.267 . S
O231 Pr201 2.437 . S
O231 C219 1.278 . S
H232 C204 0.929 . S
H233 C205 0.929 . S
H234 C207 0.931 . S
H235 C208 0.930 . S
H236 C213 0.929 . S
H237 C214 0.929 . S
H238 C216 0.931 . S
H239 C217 0.930 . S
Pr240 C242 2.880 . S
Pr240 O260 2.562 . S
Pr240 O261 2.490 . S
Pr240 O262 2.695 . S
Pr240 O263 2.512 . S
Pr240 O265 2.437 . S
Pr240 O268 2.436 1_554 S
Pr240 O270 2.438 1_554 S
Pr241 C251 2.880 . S
Pr241 O262 2.436 1_556 S
Pr241 O264 2.438 1_556 S
Pr241 O266 2.562 . S
Pr241 O267 2.490 . S
Pr241 O268 2.695 . S
Pr241 O269 2.512 . S
Pr241 O271 2.437 . S
C242 Pr240 2.880 . S
C242 C243 1.491 . S
C242 O260 1.254 . S
C242 O261 1.225 . S
C243 C242 1.491 . S
C243 C244 1.392 . S
C243 C248 1.356 . S
C244 C243 1.392 . S
C244 C245 1.368 . S
C244 H272 0.929 . S
C245 C244 1.368 . S
C245 C246 1.386 . S
C245 H273 0.929 . S
C246 C245 1.386 . S
C246 C247 1.373 . S
C247 C246 1.373 . S
C247 C248 1.409 . S
C247 H274 0.931 . S
C248 C243 1.356 . S
C248 C247 1.409 . S
C248 H275 0.930 . S
C249 O262 1.270 . S
C249 O263 1.248 . S
C250 O264 1.267 . S
C250 O265 1.278 . S
C251 Pr241 2.880 . S
C251 C252 1.491 . S
C251 O266 1.254 . S
C251 O267 1.225 . S
C252 C251 1.491 . S
C252 C253 1.392 . S
C252 C257 1.356 . S
C253 C252 1.392 . S
C253 C254 1.368 . S
C253 H276 0.929 . S
C254 C253 1.368 . S
C254 C255 1.386 . S
C254 H277 0.929 . S
C255 C254 1.386 . S
C255 C256 1.373 . S
C256 C255 1.373 . S
C256 C257 1.409 . S
C256 H278 0.931 . S
C257 C252 1.356 . S
C257 C256 1.409 . S
C257 H279 0.930 . S
C258 O268 1.270 . S
C258 O269 1.248 . S
C259 O270 1.267 . S
C259 O271 1.278 . S
O260 Pr240 2.562 . S
O260 C242 1.254 . S
O261 Pr240 2.490 . S
O261 C242 1.225 . S
O262 Pr240 2.695 . S
O262 Pr241 2.436 1_554 S
O262 C249 1.270 . S
O263 Pr240 2.512 . S
O263 C249 1.248 . S
O264 Pr241 2.438 1_554 S
O264 C250 1.267 . S
O265 Pr240 2.437 . S
O265 C250 1.278 . S
O266 Pr241 2.562 . S
O266 C251 1.254 . S
O267 Pr241 2.490 . S
O267 C251 1.225 . S
O268 Pr240 2.436 1_556 S
O268 Pr241 2.695 . S
O268 C258 1.270 . S
O269 Pr241 2.512 . S
O269 C258 1.248 . S
O270 Pr240 2.438 1_556 S
O270 C259 1.267 . S
O271 Pr241 2.437 . S
O271 C259 1.278 . S
H272 C244 0.929 . S
H273 C245 0.929 . S
H274 C247 0.931 . S
H275 C248 0.930 . S
H276 C253 0.929 . S
H277 C254 0.929 . S
H278 C256 0.931 . S
H279 C257 0.930 . S
Pr280 C282 2.880 . S
Pr280 O300 2.562 . S
Pr280 O301 2.490 . S
Pr280 O302 2.695 . S
Pr280 O303 2.512 . S
Pr280 O305 2.437 . S
Pr280 O308 2.436 . S
Pr280 O310 2.438 . S
Pr281 C291 2.880 . S
Pr281 O302 2.436 . S
Pr281 O304 2.438 . S
Pr281 O306 2.562 . S
Pr281 O307 2.490 . S
Pr281 O308 2.695 . S
Pr281 O309 2.512 . S
Pr281 O311 2.437 . S
C282 Pr280 2.880 . S
C282 C283 1.491 . S
C282 O300 1.254 . S
C282 O301 1.225 . S
C283 C282 1.491 . S
C283 C284 1.392 . S
C283 C288 1.356 . S
C284 C283 1.392 . S
C284 C285 1.368 . S
C284 H312 0.929 . S
C285 C284 1.368 . S
C285 C286 1.386 . S
C285 H313 0.929 . S
C286 C285 1.386 . S
C286 C287 1.373 . S
C287 C286 1.373 . S
C287 C288 1.409 . S
C287 H314 0.931 . S
C288 C283 1.356 . S
C288 C287 1.409 . S
C288 H315 0.930 . S
C289 O302 1.270 . S
C289 O303 1.248 . S
C290 O304 1.267 . S
C290 O305 1.278 . S
C291 Pr281 2.880 . S
C291 C292 1.491 . S
C291 O306 1.254 . S
C291 O307 1.225 . S
C292 C291 1.491 . S
C292 C293 1.392 . S
C292 C297 1.356 . S
C293 C292 1.392 . S
C293 C294 1.368 . S
C293 H316 0.929 . S
C294 C293 1.368 . S
C294 C295 1.386 . S
C294 H317 0.929 . S
C295 C294 1.386 . S
C295 C296 1.373 . S
C296 C295 1.373 . S
C296 C297 1.409 . S
C296 H318 0.931 . S
C297 C292 1.356 . S
C297 C296 1.409 . S
C297 H319 0.930 . S
C298 O308 1.270 . S
C298 O309 1.248 . S
C299 O310 1.267 . S
C299 O311 1.278 . S
O300 Pr280 2.562 . S
O300 C282 1.254 . S
O301 Pr280 2.490 . S
O301 C282 1.225 . S
O302 Pr280 2.695 . S
O302 Pr281 2.436 . S
O302 C289 1.270 . S
O303 Pr280 2.512 . S
O303 C289 1.248 . S
O304 Pr281 2.438 . S
O304 C290 1.267 . S
O305 Pr280 2.437 . S
O305 C290 1.278 . S
O306 Pr281 2.562 . S
O306 C291 1.254 . S
O307 Pr281 2.490 . S
O307 C291 1.225 . S
O308 Pr280 2.436 . S
O308 Pr281 2.695 . S
O308 C298 1.270 . S
O309 Pr281 2.512 . S
O309 C298 1.248 . S
O310 Pr280 2.438 . S
O310 C299 1.267 . S
O311 Pr281 2.437 . S
O311 C299 1.278 . S
H312 C284 0.929 . S
H313 C285 0.929 . S
H314 C287 0.931 . S
H315 C288 0.930 . S
H316 C293 0.929 . S
H317 C294 0.929 . S
H318 C296 0.931 . S
H319 C297 0.930 . S
Pr320 C322 2.880 . S
Pr320 O340 2.562 . S
Pr320 O341 2.490 . S
Pr320 O342 2.695 . S
Pr320 O343 2.512 . S
Pr320 O345 2.437 . S
Pr320 O348 2.436 . S
Pr320 O350 2.438 . S
Pr321 C331 2.880 . S
Pr321 O342 2.436 . S
Pr321 O344 2.438 . S
Pr321 O346 2.562 . S
Pr321 O347 2.490 . S
Pr321 O348 2.695 . S
Pr321 O349 2.512 . S
Pr321 O351 2.437 . S
C322 Pr320 2.880 . S
C322 C323 1.491 . S
C322 O340 1.254 . S
C322 O341 1.225 . S
C323 C322 1.491 . S
C323 C324 1.392 . S
C323 C328 1.356 . S
C324 C323 1.392 . S
C324 C325 1.368 . S
C324 H352 0.929 . S
C325 C324 1.368 . S
C325 C326 1.386 . S
C325 H353 0.929 . S
C326 C325 1.386 . S
C326 C327 1.373 . S
C327 C326 1.373 . S
C327 C328 1.409 . S
C327 H354 0.931 . S
C328 C323 1.356 . S
C328 C327 1.409 . S
C328 H355 0.930 . S
C329 O342 1.270 . S
C329 O343 1.248 . S
C330 O344 1.267 . S
C330 O345 1.278 . S
C331 Pr321 2.880 . S
C331 C332 1.491 . S
C331 O346 1.254 . S
C331 O347 1.225 . S
C332 C331 1.491 . S
C332 C333 1.392 . S
C332 C337 1.356 . S
C333 C332 1.392 . S
C333 C334 1.368 . S
C333 H356 0.929 . S
C334 C333 1.368 . S
C334 C335 1.386 . S
C334 H357 0.929 . S
C335 C334 1.386 . S
C335 C336 1.373 . S
C336 C335 1.373 . S
C336 C337 1.409 . S
C336 H358 0.931 . S
C337 C332 1.356 . S
C337 C336 1.409 . S
C337 H359 0.930 . S
C338 O348 1.270 . S
C338 O349 1.248 . S
C339 O350 1.267 . S
C339 O351 1.278 . S
O340 Pr320 2.562 . S
O340 C322 1.254 . S
O341 Pr320 2.490 . S
O341 C322 1.225 . S
O342 Pr320 2.695 . S
O342 Pr321 2.436 . S
O342 C329 1.270 . S
O343 Pr320 2.512 . S
O343 C329 1.248 . S
O344 Pr321 2.438 . S
O344 C330 1.267 . S
O345 Pr320 2.437 . S
O345 C330 1.278 . S
O346 Pr321 2.562 . S
O346 C331 1.254 . S
O347 Pr321 2.490 . S
O347 C331 1.225 . S
O348 Pr320 2.436 . S
O348 Pr321 2.695 . S
O348 C338 1.270 . S
O349 Pr321 2.512 . S
O349 C338 1.248 . S
O350 Pr320 2.438 . S
O350 C339 1.267 . S
O351 Pr321 2.437 . S
O351 C339 1.278 . S
H352 C324 0.929 . S
H353 C325 0.929 . S
H354 C327 0.931 . S
H355 C328 0.930 . S
H356 C333 0.929 . S
H357 C334 0.929 . S
H358 C336 0.931 . S
H359 C337 0.930 . S
Pr360 C362 2.880 . S
Pr360 O380 2.562 . S
Pr360 O381 2.490 . S
Pr360 O382 2.695 . S
Pr360 O383 2.512 . S
Pr360 O385 2.437 . S
Pr360 O388 2.436 1_545 S
Pr360 O390 2.438 1_545 S
Pr361 C371 2.880 . S
Pr361 O382 2.436 1_565 S
Pr361 O384 2.438 1_565 S
Pr361 O386 2.562 . S
Pr361 O387 2.490 . S
Pr361 O388 2.695 . S
Pr361 O389 2.512 . S
Pr361 O391 2.437 . S
C362 Pr360 2.880 . S
C362 C363 1.491 . S
C362 O380 1.254 . S
C362 O381 1.225 . S
C363 C362 1.491 . S
C363 C364 1.392 . S
C363 C368 1.356 . S
C364 C363 1.392 . S
C364 C365 1.368 . S
C364 H392 0.929 . S
C365 C364 1.368 . S
C365 C366 1.386 . S
C365 H393 0.929 . S
C366 C365 1.386 . S
C366 C367 1.373 . S
C367 C366 1.373 . S
C367 C368 1.409 . S
C367 H394 0.931 . S
C368 C363 1.356 . S
C368 C367 1.409 . S
C368 H395 0.930 . S
C369 O382 1.270 . S
C369 O383 1.248 . S
C370 O384 1.267 . S
C370 O385 1.278 . S
C371 Pr361 2.880 . S
C371 C372 1.491 . S
C371 O386 1.254 . S
C371 O387 1.225 . S
C372 C371 1.491 . S
C372 C373 1.392 . S
C372 C377 1.356 . S
C373 C372 1.392 . S
C373 C374 1.368 . S
C373 H396 0.929 . S
C374 C373 1.368 . S
C374 C375 1.386 . S
C374 H397 0.929 . S
C375 C374 1.386 . S
C375 C376 1.373 . S
C376 C375 1.373 . S
C376 C377 1.409 . S
C376 H398 0.931 . S
C377 C372 1.356 . S
C377 C376 1.409 . S
C377 H399 0.930 . S
C378 O388 1.270 . S
C378 O389 1.248 . S
C379 O390 1.267 . S
C379 O391 1.278 . S
O380 Pr360 2.562 . S
O380 C362 1.254 . S
O381 Pr360 2.490 . S
O381 C362 1.225 . S
O382 Pr360 2.695 . S
O382 Pr361 2.436 1_545 S
O382 C369 1.270 . S
O383 Pr360 2.512 . S
O383 C369 1.248 . S
O384 Pr361 2.438 1_545 S
O384 C370 1.267 . S
O385 Pr360 2.437 . S
O385 C370 1.278 . S
O386 Pr361 2.562 . S
O386 C371 1.254 . S
O387 Pr361 2.490 . S
O387 C371 1.225 . S
O388 Pr360 2.436 1_565 S
O388 Pr361 2.695 . S
O388 C378 1.270 . S
O389 Pr361 2.512 . S
O389 C378 1.248 . S
O390 Pr360 2.438 1_565 S
O390 C379 1.267 . S
O391 Pr361 2.437 . S
O391 C379 1.278 . S
H392 C364 0.929 . S
H393 C365 0.929 . S
H394 C367 0.931 . S
H395 C368 0.930 . S
H396 C373 0.929 . S
H397 C374 0.929 . S
H398 C376 0.931 . S
H399 C377 0.930 . S
Pr400 C402 2.880 . S
Pr400 O420 2.562 . S
Pr400 O421 2.490 . S
Pr400 O422 2.695 1_545 S
Pr400 O423 2.512 1_545 S
Pr400 O425 2.437 1_545 S
Pr400 O428 2.436 . S
Pr400 O430 2.438 . S
Pr401 C411 2.880 . S
Pr401 O422 2.436 . S
Pr401 O424 2.438 . S
Pr401 O426 2.562 . S
Pr401 O427 2.490 . S
Pr401 O428 2.695 1_565 S
Pr401 O429 2.512 1_565 S
Pr401 O431 2.437 1_565 S
C402 Pr400 2.880 . S
C402 C403 1.491 . S
C402 O420 1.254 . S
C402 O421 1.225 . S
C403 C402 1.491 . S
C403 C404 1.392 . S
C403 C408 1.356 . S
C404 C403 1.392 . S
C404 C405 1.368 . S
C404 H432 0.929 . S
C405 C404 1.368 . S
C405 C406 1.386 . S
C405 H433 0.929 . S
C406 C405 1.386 . S
C406 C407 1.373 . S
C407 C406 1.373 . S
C407 C408 1.409 . S
C407 H434 0.931 . S
C408 C403 1.356 . S
C408 C407 1.409 . S
C408 H435 0.930 . S
C409 O422 1.270 . S
C409 O423 1.248 . S
C410 O424 1.267 . S
C410 O425 1.278 . S
C411 Pr401 2.880 . S
C411 C412 1.491 . S
C411 O426 1.254 . S
C411 O427 1.225 . S
C412 C411 1.491 . S
C412 C413 1.392 . S
C412 C417 1.356 . S
C413 C412 1.392 . S
C413 C414 1.368 . S
C413 H436 0.929 . S
C414 C413 1.368 . S
C414 C415 1.386 . S
C414 H437 0.929 . S
C415 C414 1.386 . S
C415 C416 1.373 . S
C416 C415 1.373 . S
C416 C417 1.409 . S
C416 H438 0.931 . S
C417 C412 1.356 . S
C417 C416 1.409 . S
C417 H439 0.930 . S
C418 O428 1.270 . S
C418 O429 1.248 . S
C419 O430 1.267 . S
C419 O431 1.278 . S
O420 Pr400 2.562 . S
O420 C402 1.254 . S
O421 Pr400 2.490 . S
O421 C402 1.225 . S
O422 Pr400 2.695 1_565 S
O422 Pr401 2.436 . S
O422 C409 1.270 . S
O423 Pr400 2.512 1_565 S
O423 C409 1.248 . S
O424 Pr401 2.438 . S
O424 C410 1.267 . S
O425 Pr400 2.437 1_565 S
O425 C410 1.278 . S
O426 Pr401 2.562 . S
O426 C411 1.254 . S
O427 Pr401 2.490 . S
O427 C411 1.225 . S
O428 Pr400 2.436 . S
O428 Pr401 2.695 1_545 S
O428 C418 1.270 . S
O429 Pr401 2.512 1_545 S
O429 C418 1.248 . S
O430 Pr400 2.438 . S
O430 C419 1.267 . S
O431 Pr401 2.437 1_545 S
O431 C419 1.278 . S
H432 C404 0.929 . S
H433 C405 0.929 . S
H434 C407 0.931 . S
H435 C408 0.930 . S
H436 C413 0.929 . S
H437 C414 0.929 . S
H438 C416 0.931 . S
H439 C417 0.930 . S
Pr440 C442 2.880 . S
Pr440 O460 2.562 . S
Pr440 O461 2.490 . S
Pr440 O462 2.695 . S
Pr440 O463 2.512 . S
Pr440 O465 2.437 . S
Pr440 O468 2.436 . S
Pr440 O470 2.438 . S
Pr441 C451 2.880 . S
Pr441 O462 2.436 . S
Pr441 O464 2.438 . S
Pr441 O466 2.562 . S
Pr441 O467 2.490 . S
Pr441 O468 2.695 . S
Pr441 O469 2.512 . S
Pr441 O471 2.437 . S
C442 Pr440 2.880 . S
C442 C443 1.491 . S
C442 O460 1.254 . S
C442 O461 1.225 . S
C443 C442 1.491 . S
C443 C444 1.392 . S
C443 C448 1.356 . S
C444 C443 1.392 . S
C444 C445 1.368 . S
C444 H472 0.929 . S
C445 C444 1.368 . S
C445 C446 1.386 . S
C445 H473 0.929 . S
C446 C445 1.386 . S
C446 C447 1.373 . S
C447 C446 1.373 . S
C447 C448 1.409 . S
C447 H474 0.931 . S
C448 C443 1.356 . S
C448 C447 1.409 . S
C448 H475 0.930 . S
C449 O462 1.270 . S
C449 O463 1.248 . S
C450 O464 1.267 . S
C450 O465 1.278 . S
C451 Pr441 2.880 . S
C451 C452 1.491 . S
C451 O466 1.254 . S
C451 O467 1.225 . S
C452 C451 1.491 . S
C452 C453 1.392 . S
C452 C457 1.356 . S
C453 C452 1.392 . S
C453 C454 1.368 . S
C453 H476 0.929 . S
C454 C453 1.368 . S
C454 C455 1.386 . S
C454 H477 0.929 . S
C455 C454 1.386 . S
C455 C456 1.373 . S
C456 C455 1.373 . S
C456 C457 1.409 . S
C456 H478 0.931 . S
C457 C452 1.356 . S
C457 C456 1.409 . S
C457 H479 0.930 . S
C458 O468 1.270 . S
C458 O469 1.248 . S
C459 O470 1.267 . S
C459 O471 1.278 . S
O460 Pr440 2.562 . S
O460 C442 1.254 . S
O461 Pr440 2.490 . S
O461 C442 1.225 . S
O462 Pr440 2.695 . S
O462 Pr441 2.436 . S
O462 C449 1.270 . S
O463 Pr440 2.512 . S
O463 C449 1.248 . S
O464 Pr441 2.438 . S
O464 C450 1.267 . S
O465 Pr440 2.437 . S
O465 C450 1.278 . S
O466 Pr441 2.562 . S
O466 C451 1.254 . S
O467 Pr441 2.490 . S
O467 C451 1.225 . S
O468 Pr440 2.436 . S
O468 Pr441 2.695 . S
O468 C458 1.270 . S
O469 Pr441 2.512 . S
O469 C458 1.248 . S
O470 Pr440 2.438 . S
O470 C459 1.267 . S
O471 Pr441 2.437 . S
O471 C459 1.278 . S
H472 C444 0.929 . S
H473 C445 0.929 . S
H474 C447 0.931 . S
H475 C448 0.930 . S
H476 C453 0.929 . S
H477 C454 0.929 . S
H478 C456 0.931 . S
H479 C457 0.930 . S
C480 C481 1.369 . S
C480 C482 1.419 . S
C480 H484 0.930 . S
C481 C480 1.369 . S
C481 C490 1.429 . S
C482 C480 1.419 . S
C482 C483 1.363 . S
C482 H485 0.929 . S
C483 C482 1.363 . S
C483 C489 1.428 . S
H484 C480 0.930 . S
H485 C482 0.929 . S
S486 N487 1.613 . S
S486 N488 1.610 . S
N487 S486 1.613 . S
N487 C490 1.350 . S
N488 S486 1.610 . S
N488 C489 1.351 . S
C489 C483 1.428 . S
C489 N488 1.351 . S
C489 C490 1.434 . S
C490 C481 1.429 . S
C490 N487 1.350 . S
C490 C489 1.434 . S
C491 C492 1.369 . S
C491 C493 1.419 . S
C491 H495 0.930 . S
C492 C491 1.369 . S
C492 C501 1.429 . S
C493 C491 1.419 . S
C493 C494 1.363 . S
C493 H496 0.929 . S
C494 C493 1.363 . S
C494 C500 1.428 . S
H495 C491 0.930 . S
H496 C493 0.929 . S
S497 N498 1.613 . S
S497 N499 1.610 . S
N498 S497 1.613 . S
N498 C501 1.350 . S
N499 S497 1.610 . S
N499 C500 1.351 . S
C500 C494 1.428 . S
C500 N499 1.351 . S
C500 C501 1.434 . S
C501 C492 1.429 . S
C501 N498 1.350 . S
C501 C500 1.434 . S
C502 C503 1.369 . S
C502 C504 1.419 . S
C502 H506 0.931 . S
C503 C502 1.369 . S
C503 C512 1.429 . S
C504 C502 1.419 . S
C504 C505 1.363 . S
C504 H507 0.929 . S
C505 C504 1.363 . S
C505 C511 1.428 . S
H506 C502 0.931 . S
H507 C504 0.929 . S
S508 N509 1.613 . S
S508 N510 1.610 . S
N509 S508 1.613 . S
N509 C512 1.350 . S
N510 S508 1.610 . S
N510 C511 1.351 . S
C511 C505 1.428 . S
C511 N510 1.351 . S
C511 C512 1.434 . S
C512 C503 1.429 . S
C512 N509 1.350 . S
C512 C511 1.434 . S
C513 C514 1.369 . S
C513 C515 1.419 . S
C513 H517 0.930 . S
C514 C513 1.369 . S
C514 C523 1.429 . S
C515 C513 1.419 . S
C515 C516 1.363 . S
C515 H518 0.929 . S
C516 C515 1.363 . S
C516 C522 1.428 . S
H517 C513 0.930 . S
H518 C515 0.929 . S
S519 N520 1.613 . S
S519 N521 1.610 . S
N520 S519 1.613 . S
N520 C523 1.350 . S
N521 S519 1.610 . S
N521 C522 1.351 . S
C522 C516 1.428 . S
C522 N521 1.351 . S
C522 C523 1.434 . S
C523 C514 1.429 . S
C523 N520 1.350 . S
C523 C522 1.434 . S
C524 C525 1.369 . S
C524 C526 1.419 . S
C524 H528 0.930 . S
C525 C524 1.369 . S
C525 C534 1.429 . S
C526 C524 1.419 . S
C526 C527 1.363 . S
C526 H529 0.929 . S
C527 C526 1.363 . S
C527 C533 1.428 . S
H528 C524 0.930 . S
H529 C526 0.929 . S
S530 N531 1.613 . S
S530 N532 1.610 . S
N531 S530 1.613 . S
N531 C534 1.350 . S
N532 S530 1.610 . S
N532 C533 1.351 . S
C533 C527 1.428 . S
C533 N532 1.351 . S
C533 C534 1.434 . S
C534 C525 1.429 . S
C534 N531 1.350 . S
C534 C533 1.434 . S
C535 C536 1.369 . S
C535 C537 1.419 . S
C535 H539 0.930 . S
C536 C535 1.369 . S
C536 C545 1.429 . S
C537 C535 1.419 . S
C537 C538 1.363 . S
C537 H540 0.929 . S
C538 C537 1.363 . S
C538 C544 1.428 . S
H539 C535 0.930 . S
H540 C537 0.929 . S
S541 N542 1.613 . S
S541 N543 1.610 . S
N542 S541 1.613 . S
N542 C545 1.350 . S
N543 S541 1.610 . S
N543 C544 1.351 . S
C544 C538 1.428 . S
C544 N543 1.351 . S
C544 C545 1.434 . S
C545 C536 1.429 . S
C545 N542 1.350 . S
C545 C544 1.434 . S
C546 C547 1.369 . S
C546 C548 1.419 . S
C546 H550 0.930 . S
C547 C546 1.369 . S
C547 C556 1.429 . S
C548 C546 1.419 . S
C548 C549 1.363 . S
C548 H551 0.929 . S
C549 C548 1.363 . S
C549 C555 1.428 . S
H550 C546 0.930 . S
H551 C548 0.929 . S
S552 N553 1.613 . S
S552 N554 1.610 . S
N553 S552 1.613 . S
N553 C556 1.350 . S
N554 S552 1.610 . S
N554 C555 1.351 . S
C555 C549 1.428 . S
C555 N554 1.351 . S
C555 C556 1.434 . S
C556 C547 1.429 . S
C556 N553 1.350 . S
C556 C555 1.434 . S
C557 C558 1.369 . S
C557 C559 1.419 . S
C557 H561 0.930 . S
C558 C557 1.369 . S
C558 C567 1.429 . S
C559 C557 1.419 . S
C559 C560 1.363 . S
C559 H562 0.929 . S
C560 C559 1.363 . S
C560 C566 1.428 . S
H561 C557 0.930 . S
H562 C559 0.929 . S
S563 N564 1.613 . S
S563 N565 1.610 . S
N564 S563 1.613 . S
N564 C567 1.350 . S
N565 S563 1.610 . S
N565 C566 1.351 . S
C566 C560 1.428 . S
C566 N565 1.351 . S
C566 C567 1.434 . S
C567 C558 1.429 . S
C567 N564 1.350 . S
C567 C566 1.434 . S
C568 C569 1.369 . S
C568 C570 1.419 . S
C568 H572 0.930 . S
C569 C568 1.369 . S
C569 C578 1.429 . S
C570 C568 1.419 . S
C570 C571 1.363 . S
C570 H573 0.929 . S
C571 C570 1.363 . S
C571 C577 1.428 . S
H572 C568 0.930 . S
H573 C570 0.929 . S
S574 N575 1.613 . S
S574 N576 1.610 . S
N575 S574 1.613 . S
N575 C578 1.350 . S
N576 S574 1.610 . S
N576 C577 1.351 . S
C577 C571 1.428 . S
C577 N576 1.351 . S
C577 C578 1.434 . S
C578 C569 1.429 . S
C578 N575 1.350 . S
C578 C577 1.434 . S
C579 C580 1.369 . S
C579 C581 1.419 . S
C579 H583 0.930 . S
C580 C579 1.369 . S
C580 C589 1.429 . S
C581 C579 1.419 . S
C581 C582 1.363 . S
C581 H584 0.929 . S
C582 C581 1.363 . S
C582 C588 1.428 . S
H583 C579 0.930 . S
H584 C581 0.929 . S
S585 N586 1.613 . S
S585 N587 1.610 . S
N586 S585 1.613 . S
N586 C589 1.350 . S
N587 S585 1.610 . S
N587 C588 1.351 . S
C588 C582 1.428 . S
C588 N587 1.351 . S
C588 C589 1.434 . S
C589 C580 1.429 . S
C589 N586 1.350 . S
C589 C588 1.434 . S
C590 C591 1.369 . S
C590 C592 1.419 . S
C590 H594 0.930 . S
C591 C590 1.369 . S
C591 C600 1.429 . S
C592 C590 1.419 . S
C592 C593 1.363 . S
C592 H595 0.929 . S
C593 C592 1.363 . S
C593 C599 1.428 . S
H594 C590 0.930 . S
H595 C592 0.929 . S
S596 N597 1.613 . S
S596 N598 1.610 1_455 S
N597 S596 1.613 . S
N597 C600 1.350 1_455 S
N598 S596 1.610 1_655 S
N598 C599 1.351 . S
C599 C593 1.428 . S
C599 N598 1.351 . S
C599 C600 1.434 . S
C600 C591 1.429 . S
C600 N597 1.350 1_655 S
C600 C599 1.434 . S
C601 C602 1.369 . S
C601 C603 1.419 . S
C601 H605 0.930 . S
C602 C601 1.369 . S
C602 C611 1.429 . S
C603 C601 1.419 . S
C603 C604 1.363 . S
C603 H606 0.929 . S
C604 C603 1.363 . S
C604 C610 1.428 . S
H605 C601 0.930 . S
H606 C603 0.929 . S
S607 N608 1.613 . S
S607 N609 1.610 . S
N608 S607 1.613 . S
N608 C611 1.350 . S
N609 S607 1.610 . S
N609 C610 1.351 . S
C610 C604 1.428 . S
C610 N609 1.351 . S
C610 C611 1.434 . S
C611 C602 1.429 . S
C611 N608 1.350 . S
C611 C610 1.434 . S
C612 C613 1.369 . S
C612 C614 1.419 . S
C612 H616 0.930 . S
C613 C612 1.369 . S
C613 C622 1.429 . S
C614 C612 1.419 . S
C614 C615 1.363 . S
C614 H617 0.929 . S
C615 C614 1.363 . S
C615 C621 1.428 . S
H616 C612 0.930 . S
H617 C614 0.929 . S
S618 N619 1.613 . S
S618 N620 1.610 . S
N619 S618 1.613 . S
N619 C622 1.350 . S
N620 S618 1.610 . S
N620 C621 1.351 . S
C621 C615 1.428 . S
C621 N620 1.351 . S
C621 C622 1.434 . S
C622 C613 1.429 . S
C622 N619 1.350 . S
C622 C621 1.434 . S
C623 C624 1.369 . S
C623 C625 1.419 . S
C623 H627 0.930 . S
C624 C623 1.369 . S
C624 C633 1.429 . S
C625 C623 1.419 . S
C625 C626 1.363 . S
C625 H628 0.929 1_565 S
C626 C625 1.363 . S
C626 C632 1.428 . S
H627 C623 0.930 . S
H628 C625 0.929 1_545 S
S629 N630 1.613 . S
S629 N631 1.610 . S
N630 S629 1.613 . S
N630 C633 1.350 . S
N631 S629 1.610 . S
N631 C632 1.351 . S
C632 C626 1.428 . S
C632 N631 1.351 . S
C632 C633 1.434 . S
C633 C624 1.429 . S
C633 N630 1.350 . S
C633 C632 1.434 . S
C634 C635 1.369 . S
C634 C636 1.419 . S
C634 H638 0.930 . S
C635 C634 1.369 . S
C635 C644 1.429 . S
C636 C634 1.419 . S
C636 C637 1.363 . S
C636 H639 0.929 . S
C637 C636 1.363 . S
C637 C643 1.428 . S
H638 C634 0.930 . S
H639 C636 0.929 . S
S640 N641 1.613 . S
S640 N642 1.610 . S
N641 S640 1.613 . S
N641 C644 1.350 . S
N642 S640 1.610 . S
N642 C643 1.351 . S
C643 C637 1.428 . S
C643 N642 1.351 . S
C643 C644 1.434 . S
C644 C635 1.429 . S
C644 N641 1.350 . S
C644 C643 1.434 . S
C645 C646 1.369 1_556 S
C645 C647 1.419 . S
C645 H649 0.930 1_556 S
C646 C645 1.369 1_554 S
C646 C655 1.429 1_554 S
C647 C645 1.419 . S
C647 C648 1.363 . S
C647 H650 0.929 . S
C648 C647 1.363 . S
C648 C654 1.428 . S
H649 C645 0.930 1_554 S
H650 C647 0.929 . S
S651 N652 1.613 1_556 S
S651 N653 1.610 . S
N652 S651 1.613 1_554 S
N652 C655 1.350 1_554 S
N653 S651 1.610 . S
N653 C654 1.351 . S
C654 C648 1.428 . S
C654 N653 1.351 . S
C654 C655 1.434 . S
C655 C646 1.429 1_556 S
C655 N652 1.350 1_556 S
C655 C654 1.434 . S
C656 C657 1.369 . S
C656 C658 1.419 . S
C656 H660 0.930 . S
C657 C656 1.369 . S
C657 C666 1.429 . S
C658 C656 1.419 . S
C658 C659 1.363 . S
C658 H661 0.929 . S
C659 C658 1.363 . S
C659 C665 1.428 . S
H660 C656 0.930 . S
H661 C658 0.929 . S
S662 N663 1.613 . S
S662 N664 1.610 . S
N663 S662 1.613 . S
N663 C666 1.350 . S
N664 S662 1.610 . S
N664 C665 1.351 . S
C665 C659 1.428 . S
C665 N664 1.351 . S
C665 C666 1.434 . S
C666 C657 1.429 . S
C666 N663 1.350 . S
C666 C665 1.434 . S
C667 C668 1.354 1_556 S
C667 C669 1.419 . S
C667 H671 0.930 . S
C668 C667 1.354 1_554 S
C668 C677 1.420 1_554 S
C669 C667 1.419 . S
C669 C670 1.363 . S
C669 H672 0.929 . S
C670 C669 1.363 . S
C670 C676 1.428 . S
H671 C667 0.930 . S
H672 C669 0.929 . S
S673 N674 1.613 1_556 S
S673 N675 1.610 . S
N674 S673 1.613 1_554 S
N674 C677 1.350 1_554 S
N675 S673 1.610 . S
N675 C676 1.351 . S
C676 C670 1.428 . S
C676 N675 1.351 . S
C676 C677 1.434 . S
C677 C668 1.420 1_556 S
C677 N674 1.350 1_556 S
C677 C676 1.434 . S
C678 C679 1.369 . S
C678 C680 1.419 . S
C678 H682 0.930 . S
C679 C678 1.369 . S
C679 C688 1.429 . S
C680 C678 1.419 . S
C680 C681 1.363 . S
C680 H683 0.929 . S
C681 C680 1.363 . S
C681 C687 1.428 . S
H682 C678 0.930 . S
H683 C680 0.929 . S
S684 N685 1.613 1_545 S
S684 N686 1.610 1_545 S
N685 S684 1.613 1_565 S
N685 C688 1.350 . S
N686 S684 1.610 1_565 S
N686 C687 1.351 . S
C687 C681 1.428 . S
C687 N686 1.351 . S
C687 C688 1.434 . S
C688 C679 1.429 . S
C688 N685 1.350 . S
C688 C687 1.434 . S
C689 C690 1.369 . S
C689 C691 1.419 . S
C689 H693 0.930 . S
C690 C689 1.369 . S
C690 C699 1.429 . S
C691 C689 1.419 . S
C691 C692 1.363 . S
C691 H694 0.929 . S
C692 C691 1.363 . S
C692 C698 1.428 . S
H693 C689 0.930 . S
H694 C691 0.929 . S
S695 N696 1.613 . S
S695 N697 1.610 . S
N696 S695 1.613 . S
N696 C699 1.350 . S
N697 S695 1.610 . S
N697 C698 1.351 . S
C698 C692 1.428 . S
C698 N697 1.351 . S
C698 C699 1.434 . S
C699 C690 1.429 . S
C699 N696 1.350 . S
C699 C698 1.434 . S
C700 C701 1.369 . S
C700 C702 1.419 . S
C700 H704 0.930 . S
C701 C700 1.369 . S
C701 C710 1.429 . S
C702 C700 1.419 . S
C702 C703 1.363 . S
C702 H705 0.929 . S
C703 C702 1.363 . S
C703 C709 1.428 . S
H704 C700 0.930 . S
H705 C702 0.929 . S
S706 N707 1.613 . S
S706 N708 1.610 . S
N707 S706 1.613 . S
N707 C710 1.350 . S
N708 S706 1.610 . S
N708 C709 1.351 . S
C709 C703 1.428 . S
C709 N708 1.351 . S
C709 C710 1.434 . S
C710 C701 1.429 . S
C710 N707 1.350 . S
C710 C709 1.434 . S
C711 C712 1.369 . S
C711 C713 1.419 1_545 S
C711 H715 0.930 . S
C712 C711 1.369 . S
C712 C721 1.429 . S
C713 C711 1.419 1_565 S
C713 C714 1.363 . S
C713 H716 0.929 1_455 S
C714 C713 1.363 . S
C714 C720 1.428 . S
H715 C711 0.930 . S
H716 C713 0.929 1_655 S
S717 N718 1.613 1_565 S
S717 N719 1.610 . S
N718 S717 1.613 1_545 S
N718 C721 1.350 . S
N719 S717 1.610 . S
N719 C720 1.351 . S
C720 C714 1.428 . S
C720 N719 1.351 . S
C720 C721 1.434 1_565 S
C721 C712 1.429 . S
C721 N718 1.350 . S
C721 C720 1.434 1_545 S
C722 C723 1.369 . S
C722 C724 1.419 . S
C722 H726 0.930 . S
C723 C722 1.369 . S
C723 C732 1.429 . S
C724 C722 1.419 . S
C724 C725 1.363 . S
C724 H727 0.929 . S
C725 C724 1.363 . S
C725 C731 1.428 . S
H726 C722 0.930 . S
H727 C724 0.929 . S
S728 N729 1.613 . S
S728 N730 1.610 . S
N729 S728 1.613 . S
N729 C732 1.350 . S
N730 S728 1.610 . S
N730 C731 1.351 . S
C731 C725 1.428 . S
C731 N730 1.351 . S
C731 C732 1.434 . S
C732 C723 1.429 . S
C732 N729 1.350 . S
C732 C731 1.434 . S
C733 C734 1.369 . S
C733 C735 1.419 1_545 S
C733 H737 0.930 . S
C734 C733 1.369 . S
C734 C743 1.429 1_545 S
C735 C733 1.419 1_565 S
C735 C736 1.363 . S
C735 H738 0.929 . S
C736 C735 1.363 . S
C736 C742 1.428 . S
H737 C733 0.930 . S
H738 C735 0.929 . S
S739 N740 1.613 . S
S739 N741 1.610 . S
N740 S739 1.613 . S
N740 C743 1.350 . S
N741 S739 1.610 . S
N741 C742 1.351 . S
C742 C736 1.428 . S
C742 N741 1.351 . S
C742 C743 1.434 . S
C743 C734 1.429 1_565 S
C743 N740 1.350 . S
C743 C742 1.434 . S
C744 C745 1.369 . S
C744 C746 1.419 . S
C744 H748 0.930 . S
C745 C744 1.369 . S
C745 C754 1.429 . S
C746 C744 1.419 . S
C746 C747 1.363 . S
C746 H749 0.929 . S
C747 C746 1.363 . S
C747 C753 1.428 . S
H748 C744 0.930 . S
H749 C746 0.929 . S
S750 N751 1.613 . S
S750 N752 1.610 . S
N751 S750 1.613 . S
N751 C754 1.350 . S
N752 S750 1.610 . S
N752 C753 1.351 . S
C753 C747 1.428 . S
C753 N752 1.351 . S
C753 C754 1.434 . S
C754 C745 1.429 . S
C754 N751 1.350 . S
C754 C753 1.434 . S
C755 C756 1.369 . S
C755 C757 1.419 . S
C755 H759 0.930 . S
C756 C755 1.369 . S
C756 C765 1.429 . S
C757 C755 1.419 . S
C757 C758 1.363 . S
C757 H760 0.929 . S
C758 C757 1.363 . S
C758 C764 1.428 . S
H759 C755 0.930 . S
H760 C757 0.929 . S
S761 N762 1.616 . S
S761 N763 1.610 1_455 S
N762 S761 1.616 . S
N762 C765 1.344 1_455 S
N763 S761 1.610 1_655 S
N763 C764 1.351 . S
C764 C758 1.428 . S
C764 N763 1.351 . S
C764 C765 1.434 . S
C765 C756 1.429 . S
C765 N762 1.344 1_655 S
C765 C764 1.434 . S
C766 C767 1.369 . S
C766 C768 1.419 . S
C766 H770 0.930 . S
C767 C766 1.369 . S
C767 C776 1.429 . S
C768 C766 1.419 . S
C768 C769 1.363 . S
C768 H771 0.929 . S
C769 C768 1.363 . S
C769 C775 1.428 . S
H770 C766 0.930 . S
H771 C768 0.929 . S
S772 N773 1.613 . S
S772 N774 1.610 . S
N773 S772 1.613 . S
N773 C776 1.350 . S
N774 S772 1.610 . S
N774 C775 1.351 . S
C775 C769 1.428 . S
C775 N774 1.351 . S
C775 C776 1.434 . S
C776 C767 1.429 . S
C776 N773 1.350 . S
C776 C775 1.434 . S
C777 C778 1.369 . S
C777 C779 1.419 . S
C777 H781 0.930 . S
C778 C777 1.369 . S
C778 C787 1.429 . S
C779 C777 1.419 . S
C779 C780 1.363 . S
C779 H782 0.929 . S
C780 C779 1.363 . S
C780 C786 1.428 . S
H781 C777 0.930 . S
H782 C779 0.929 . S
S783 N784 1.613 . S
S783 N785 1.610 . S
N784 S783 1.613 . S
N784 C787 1.350 . S
N785 S783 1.610 . S
N785 C786 1.351 . S
C786 C780 1.428 . S
C786 N785 1.351 . S
C786 C787 1.434 . S
C787 C778 1.429 . S
C787 N784 1.350 . S
C787 C786 1.434 . S
C788 C789 1.369 . S
C788 C790 1.419 . S
C788 H792 0.930 . S
C789 C788 1.369 . S
C789 C798 1.429 . S
C790 C788 1.419 . S
C790 C791 1.363 . S
C790 H793 0.929 . S
C791 C790 1.363 . S
C791 C797 1.428 . S
H792 C788 0.930 . S
H793 C790 0.929 . S
S794 N795 1.613 . S
S794 N796 1.610 . S
N795 S794 1.613 . S
N795 C798 1.350 . S
N796 S794 1.610 . S
N796 C797 1.351 . S
C797 C791 1.428 . S
C797 N796 1.351 . S
C797 C798 1.434 . S
C798 C789 1.429 . S
C798 N795 1.350 . S
C798 C797 1.434 . S
C799 C800 1.369 . S
C799 C801 1.419 . S
C799 H803 0.930 . S
C800 C799 1.369 . S
C800 C809 1.429 . S
C801 C799 1.419 . S
C801 C802 1.363 . S
C801 H804 0.929 . S
C802 C801 1.363 . S
C802 C808 1.428 . S
H803 C799 0.930 . S
H804 C801 0.929 . S
S805 N806 1.613 . S
S805 N807 1.610 . S
N806 S805 1.613 . S
N806 C809 1.350 . S
N807 S805 1.610 . S
N807 C808 1.351 . S
C808 C802 1.428 . S
C808 N807 1.351 . S
C808 C809 1.434 . S
C809 C800 1.429 . S
C809 N806 1.350 . S
C809 C808 1.434 . S
C810 C811 1.369 . S
C810 C812 1.419 1_455 S
C810 H814 0.930 . S
C811 C810 1.369 . S
C811 C820 1.429 1_455 S
C812 C810 1.419 1_655 S
C812 C813 1.363 . S
C812 H815 0.929 . S
C813 C812 1.363 . S
C813 C819 1.428 . S
H814 C810 0.930 . S
H815 C812 0.929 . S
S816 N817 1.613 . S
S816 N818 1.610 . S
N817 S816 1.613 . S
N817 C820 1.350 . S
N818 S816 1.610 . S
N818 C819 1.351 . S
C819 C813 1.428 . S
C819 N818 1.351 . S
C819 C820 1.434 . S
C820 C811 1.429 1_655 S
C820 N817 1.350 . S
C820 C819 1.434 . S
C821 C822 1.369 . S
C821 C823 1.419 . S
C821 H825 0.930 . S
C822 C821 1.369 . S
C822 C831 1.429 . S
C823 C821 1.419 . S
C823 C824 1.363 . S
C823 H826 0.929 . S
C824 C823 1.363 . S
C824 C830 1.428 . S
H825 C821 0.930 . S
H826 C823 0.929 . S
S827 N828 1.613 . S
S827 N829 1.610 . S
N828 S827 1.613 . S
N828 C831 1.350 . S
N829 S827 1.610 . S
N829 C830 1.351 . S
C830 C824 1.428 . S
C830 N829 1.351 . S
C830 C831 1.434 . S
C831 C822 1.429 . S
C831 N828 1.350 . S
C831 C830 1.434 . S
C832 C833 1.369 . S
C832 C834 1.419 . S
C832 H836 0.930 . S
C833 C832 1.369 . S
C833 C842 1.429 . S
C834 C832 1.419 . S
C834 C835 1.363 . S
C834 H837 0.929 . S
C835 C834 1.363 . S
C835 C841 1.428 . S
H836 C832 0.930 . S
H837 C834 0.929 . S
S838 N839 1.613 . S
S838 N840 1.610 . S
N839 S838 1.613 . S
N839 C842 1.350 . S
N840 S838 1.610 . S
N840 C841 1.351 . S
C841 C835 1.428 . S
C841 N840 1.351 . S
C841 C842 1.434 . S
C842 C833 1.429 . S
C842 N839 1.350 . S
C842 C841 1.434 . S
C843 C844 1.369 . S
C843 C845 1.419 . S
C843 H847 0.930 . S
C844 C843 1.369 . S
C844 C853 1.429 . S
C845 C843 1.419 . S
C845 C846 1.363 . S
C845 H848 0.929 . S
C846 C845 1.363 . S
C846 C852 1.428 . S
H847 C843 0.930 . S
H848 C845 0.929 . S
S849 N850 1.613 . S
S849 N851 1.610 . S
N850 S849 1.613 . S
N850 C853 1.350 . S
N851 S849 1.610 . S
N851 C852 1.351 . S
C852 C846 1.428 . S
C852 N851 1.351 . S
C852 C853 1.434 . S
C853 C844 1.429 . S
C853 N850 1.350 . S
C853 C852 1.434 . S
C854 C855 1.369 . S
C854 C856 1.419 . S
C854 H858 0.930 . S
C855 C854 1.369 . S
C855 C864 1.429 . S
C856 C854 1.419 . S
C856 C857 1.363 . S
C856 H859 0.929 . S
C857 C856 1.363 . S
C857 C863 1.428 . S
H858 C854 0.930 . S
H859 C856 0.929 . S
S860 N861 1.613 . S
S860 N862 1.610 . S
N861 S860 1.613 . S
N861 C864 1.350 . S
N862 S860 1.610 . S
N862 C863 1.351 . S
C863 C857 1.428 . S
C863 N862 1.351 . S
C863 C864 1.434 . S
C864 C855 1.429 . S
C864 N861 1.350 . S
C864 C863 1.434 . S
C865 C866 1.369 . S
C865 C867 1.419 1_655 S
C865 H869 0.930 . S
C866 C865 1.369 . S
C866 C875 1.429 1_655 S
C867 C865 1.419 1_455 S
C867 C868 1.363 . S
C867 H870 0.929 . S
C868 C867 1.363 . S
C868 C874 1.428 . S
H869 C865 0.930 . S
H870 C867 0.929 . S
S871 N872 1.613 . S
S871 N873 1.610 . S
N872 S871 1.613 . S
N872 C875 1.350 . S
N873 S871 1.610 . S
N873 C874 1.351 . S
C874 C868 1.428 . S
C874 N873 1.351 . S
C874 C875 1.434 . S
C875 C866 1.429 1_455 S
C875 N872 1.350 . S
C875 C874 1.434 . S
C481 C19 1.455 . S
C483 C459 1.460 . S
C492 C378 2.258 . S
C494 C58 2.270 . S
C503 C98 1.601 . S
C505 C338 1.612 . S
C514 C138 1.853 . S
C516 C419 1.731 . S
C525 C178 2.107 . S
C527 C418 2.100 . S
C536 C219 1.669 . S
C538 C458 1.833 . S
C547 C379 1.859 . S
C549 C258 1.947 . S
C558 C299 1.369 . S
C560 C339 1.387 . S
C569 C139 1.526 . S
C571 C179 1.504 . S
C580 C18 2.072 . S
C582 C218 2.074 . S
C591 C59 1.908 . S
C593 C259 1.924 . S
C602 C298 1.953 . S
C604 C99 1.822 . S
C613 C15 2.126 . S
C615 C329 2.083 . S
C624 C46 1.503 . S
C626 C410 1.469 . S
C635 C450 1.793 . S
C637 C86 1.838 . S
C646 C126 1.693 . S
C648 C369 1.571 . S
C657 C166 1.412 . S
C659 C370 1.383 . S
C668 C330 2.831 . S
C670 C215 2.666 . S
C679 C409 1.290 . S
C681 C246 1.365 . S
C690 C449 1.923 . S
C692 C295 1.991 . S
C701 C9 2.035 . S
C703 C135 2.085 . S
C712 C6 1.557 . S
C714 C50 1.510 . S
C723 C55 2.143 . S
C725 C90 2.253 . S
C734 C130 2.300 . S
C736 C95 2.203 . S
C745 C206 1.737 . S
C747 C170 1.694 . S
C756 C209 1.505 . S
C758 C255 1.574 . S
C767 C250 1.504 . S
C769 C286 1.519 . S
C778 C175 2.228 . S
C780 C289 2.166 . S
C789 C335 2.121 . S
C791 C129 2.078 . S
C800 C210 1.646 . S
C802 C366 1.666 . S
C811 C326 1.325 . S
C813 C249 1.239 . S
C822 C415 1.647 . S
C824 C290 1.727 . S
C833 C169 1.883 . S
C835 C455 1.920 . S
C844 C446 0.879 . S
C846 C49 0.853 . S
C855 C89 1.981 . S
C857 C375 2.043 . S
C866 C406 1.644 . S
C868 C10 1.614 . S
