# Generated by pormake.
# Topology wnd, (6)-cn, num edge types: 1
# Building blocks:
#     Node 0, Type 0, BuildingBlock: BETDIP_clean_sbu_0, # of connection points: 6
#     Node 1, Type 0, BuildingBlock: BETDIP_clean_sbu_0, # of connection points: 6
#     Node 2, Type 0, BuildingBlock: BETDIP_clean_sbu_0, # of connection points: 6
#     Node 3, Type 0, BuildingBlock: BETDIP_clean_sbu_0, # of connection points: 6
#     Node 4, Type 0, BuildingBlock: BETDIP_clean_sbu_0, # of connection points: 6
#     Node 5, Type 0, BuildingBlock: BETDIP_clean_sbu_0, # of connection points: 6
#     Node 6, Type 0, BuildingBlock: BETDIP_clean_sbu_0, # of connection points: 6
#     Node 7, Type 0, BuildingBlock: BETDIP_clean_sbu_0, # of connection points: 6
#     Node 8, Type 0, BuildingBlock: BETDIP_clean_sbu_0, # of connection points: 6
#     Node 9, Type 0, BuildingBlock: BETDIP_clean_sbu_0, # of connection points: 6
#     Node 10, Type 0, BuildingBlock: BETDIP_clean_sbu_0, # of connection points: 6
#     Node 11, Type 0, BuildingBlock: BETDIP_clean_sbu_0, # of connection points: 6
#     Node 12, Type 0, BuildingBlock: BETDIP_clean_sbu_0, # of connection points: 6
#     Node 13, Type 0, BuildingBlock: BETDIP_clean_sbu_0, # of connection points: 6
#     Node 14, Type 0, BuildingBlock: BETDIP_clean_sbu_0, # of connection points: 6
#     Node 15, Type 0, BuildingBlock: BETDIP_clean_sbu_0, # of connection points: 6
#     Node 16, Type 0, BuildingBlock: BETDIP_clean_sbu_0, # of connection points: 6
#     Node 17, Type 0, BuildingBlock: BETDIP_clean_sbu_0, # of connection points: 6
#     Node 18, Type 0, BuildingBlock: BETDIP_clean_sbu_0, # of connection points: 6
#     Node 19, Type 0, BuildingBlock: BETDIP_clean_sbu_0, # of connection points: 6
#     Node 20, Type 0, BuildingBlock: BETDIP_clean_sbu_0, # of connection points: 6
#     Node 21, Type 0, BuildingBlock: BETDIP_clean_sbu_0, # of connection points: 6
#     Node 22, Type 0, BuildingBlock: BETDIP_clean_sbu_0, # of connection points: 6
#     Node 23, Type 0, BuildingBlock: BETDIP_clean_sbu_0, # of connection points: 6
#     Node 24, Type 0, BuildingBlock: BETDIP_clean_sbu_0, # of connection points: 6
#     Node 25, Type 0, BuildingBlock: BETDIP_clean_sbu_0, # of connection points: 6
#     Node 26, Type 0, BuildingBlock: BETDIP_clean_sbu_0, # of connection points: 6
#     Node 27, Type 0, BuildingBlock: BETDIP_clean_sbu_0, # of connection points: 6
#     Node 28, Type 0, BuildingBlock: BETDIP_clean_sbu_0, # of connection points: 6
#     Node 29, Type 0, BuildingBlock: BETDIP_clean_sbu_0, # of connection points: 6
#     Node 30, Type 0, BuildingBlock: BETDIP_clean_sbu_0, # of connection points: 6
#     Node 31, Type 0, BuildingBlock: BETDIP_clean_sbu_0, # of connection points: 6
#     Node 32, Type 0, BuildingBlock: BETDIP_clean_sbu_0, # of connection points: 6
#     Node 33, Type 0, BuildingBlock: BETDIP_clean_sbu_0, # of connection points: 6
#     Node 34, Type 0, BuildingBlock: BETDIP_clean_sbu_0, # of connection points: 6
#     Node 35, Type 0, BuildingBlock: BETDIP_clean_sbu_0, # of connection points: 6
#     Edge 36, Type (0, 0), BuildingBlock: CIFDUS_clean_linker_0, # of connection points: 2
#     Edge 37, Type (0, 0), BuildingBlock: CIFDUS_clean_linker_0, # of connection points: 2
#     Edge 38, Type (0, 0), BuildingBlock: CIFDUS_clean_linker_0, # of connection points: 2
#     Edge 39, Type (0, 0), BuildingBlock: CIFDUS_clean_linker_0, # of connection points: 2
#     Edge 40, Type (0, 0), BuildingBlock: CIFDUS_clean_linker_0, # of connection points: 2
#     Edge 41, Type (0, 0), BuildingBlock: CIFDUS_clean_linker_0, # of connection points: 2
#     Edge 42, Type (0, 0), BuildingBlock: CIFDUS_clean_linker_0, # of connection points: 2
#     Edge 43, Type (0, 0), BuildingBlock: CIFDUS_clean_linker_0, # of connection points: 2
#     Edge 44, Type (0, 0), BuildingBlock: CIFDUS_clean_linker_0, # of connection points: 2
#     Edge 45, Type (0, 0), BuildingBlock: CIFDUS_clean_linker_0, # of connection points: 2
#     Edge 46, Type (0, 0), BuildingBlock: CIFDUS_clean_linker_0, # of connection points: 2
#     Edge 47, Type (0, 0), BuildingBlock: CIFDUS_clean_linker_0, # of connection points: 2
#     Edge 48, Type (0, 0), BuildingBlock: CIFDUS_clean_linker_0, # of connection points: 2
#     Edge 49, Type (0, 0), BuildingBlock: CIFDUS_clean_linker_0, # of connection points: 2
#     Edge 50, Type (0, 0), BuildingBlock: CIFDUS_clean_linker_0, # of connection points: 2
#     Edge 51, Type (0, 0), BuildingBlock: CIFDUS_clean_linker_0, # of connection points: 2
#     Edge 52, Type (0, 0), BuildingBlock: CIFDUS_clean_linker_0, # of connection points: 2
#     Edge 53, Type (0, 0), BuildingBlock: CIFDUS_clean_linker_0, # of connection points: 2
#     Edge 54, Type (0, 0), BuildingBlock: CIFDUS_clean_linker_0, # of connection points: 2
#     Edge 55, Type (0, 0), BuildingBlock: CIFDUS_clean_linker_0, # of connection points: 2
#     Edge 56, Type (0, 0), BuildingBlock: CIFDUS_clean_linker_0, # of connection points: 2
#     Edge 57, Type (0, 0), BuildingBlock: CIFDUS_clean_linker_0, # of connection points: 2
#     Edge 58, Type (0, 0), BuildingBlock: CIFDUS_clean_linker_0, # of connection points: 2
#     Edge 59, Type (0, 0), BuildingBlock: CIFDUS_clean_linker_0, # of connection points: 2
#     Edge 60, Type (0, 0), BuildingBlock: CIFDUS_clean_linker_0, # of connection points: 2
#     Edge 61, Type (0, 0), BuildingBlock: CIFDUS_clean_linker_0, # of connection points: 2
#     Edge 62, Type (0, 0), BuildingBlock: CIFDUS_clean_linker_0, # of connection points: 2
#     Edge 63, Type (0, 0), BuildingBlock: CIFDUS_clean_linker_0, # of connection points: 2
#     Edge 64, Type (0, 0), BuildingBlock: CIFDUS_clean_linker_0, # of connection points: 2
#     Edge 65, Type (0, 0), BuildingBlock: CIFDUS_clean_linker_0, # of connection points: 2
#     Edge 66, Type (0, 0), BuildingBlock: CIFDUS_clean_linker_0, # of connection points: 2
#     Edge 67, Type (0, 0), BuildingBlock: CIFDUS_clean_linker_0, # of connection points: 2
#     Edge 68, Type (0, 0), BuildingBlock: CIFDUS_clean_linker_0, # of connection points: 2
#     Edge 69, Type (0, 0), BuildingBlock: CIFDUS_clean_linker_0, # of connection points: 2
#     Edge 70, Type (0, 0), BuildingBlock: CIFDUS_clean_linker_0, # of connection points: 2
#     Edge 71, Type (0, 0), BuildingBlock: CIFDUS_clean_linker_0, # of connection points: 2
#     Edge 72, Type (0, 0), BuildingBlock: CIFDUS_clean_linker_0, # of connection points: 2
#     Edge 73, Type (0, 0), BuildingBlock: CIFDUS_clean_linker_0, # of connection points: 2
#     Edge 74, Type (0, 0), BuildingBlock: CIFDUS_clean_linker_0, # of connection points: 2
#     Edge 75, Type (0, 0), BuildingBlock: CIFDUS_clean_linker_0, # of connection points: 2
#     Edge 76, Type (0, 0), BuildingBlock: CIFDUS_clean_linker_0, # of connection points: 2
#     Edge 77, Type (0, 0), BuildingBlock: CIFDUS_clean_linker_0, # of connection points: 2
#     Edge 78, Type (0, 0), BuildingBlock: CIFDUS_clean_linker_0, # of connection points: 2
#     Edge 79, Type (0, 0), BuildingBlock: CIFDUS_clean_linker_0, # of connection points: 2
#     Edge 80, Type (0, 0), BuildingBlock: CIFDUS_clean_linker_0, # of connection points: 2
#     Edge 81, Type (0, 0), BuildingBlock: CIFDUS_clean_linker_0, # of connection points: 2
#     Edge 82, Type (0, 0), BuildingBlock: CIFDUS_clean_linker_0, # of connection points: 2
#     Edge 83, Type (0, 0), BuildingBlock: CIFDUS_clean_linker_0, # of connection points: 2
#     Edge 84, Type (0, 0), BuildingBlock: CIFDUS_clean_linker_0, # of connection points: 2
#     Edge 85, Type (0, 0), BuildingBlock: CIFDUS_clean_linker_0, # of connection points: 2
#     Edge 86, Type (0, 0), BuildingBlock: CIFDUS_clean_linker_0, # of connection points: 2
#     Edge 87, Type (0, 0), BuildingBlock: CIFDUS_clean_linker_0, # of connection points: 2
#     Edge 88, Type (0, 0), BuildingBlock: CIFDUS_clean_linker_0, # of connection points: 2
#     Edge 89, Type (0, 0), BuildingBlock: CIFDUS_clean_linker_0, # of connection points: 2
#     Edge 90, Type (0, 0), BuildingBlock: CIFDUS_clean_linker_0, # of connection points: 2
#     Edge 91, Type (0, 0), BuildingBlock: CIFDUS_clean_linker_0, # of connection points: 2
#     Edge 92, Type (0, 0), BuildingBlock: CIFDUS_clean_linker_0, # of connection points: 2
#     Edge 93, Type (0, 0), BuildingBlock: CIFDUS_clean_linker_0, # of connection points: 2
#     Edge 94, Type (0, 0), BuildingBlock: CIFDUS_clean_linker_0, # of connection points: 2
#     Edge 95, Type (0, 0), BuildingBlock: CIFDUS_clean_linker_0, # of connection points: 2
#     Edge 96, Type (0, 0), BuildingBlock: CIFDUS_clean_linker_0, # of connection points: 2
#     Edge 97, Type (0, 0), BuildingBlock: CIFDUS_clean_linker_0, # of connection points: 2
#     Edge 98, Type (0, 0), BuildingBlock: CIFDUS_clean_linker_0, # of connection points: 2
#     Edge 99, Type (0, 0), BuildingBlock: CIFDUS_clean_linker_0, # of connection points: 2
#     Edge 100, Type (0, 0), BuildingBlock: CIFDUS_clean_linker_0, # of connection points: 2
#     Edge 101, Type (0, 0), BuildingBlock: CIFDUS_clean_linker_0, # of connection points: 2
#     Edge 102, Type (0, 0), BuildingBlock: CIFDUS_clean_linker_0, # of connection points: 2
#     Edge 103, Type (0, 0), BuildingBlock: CIFDUS_clean_linker_0, # of connection points: 2
#     Edge 104, Type (0, 0), BuildingBlock: CIFDUS_clean_linker_0, # of connection points: 2
#     Edge 105, Type (0, 0), BuildingBlock: CIFDUS_clean_linker_0, # of connection points: 2
#     Edge 106, Type (0, 0), BuildingBlock: CIFDUS_clean_linker_0, # of connection points: 2
#     Edge 107, Type (0, 0), BuildingBlock: CIFDUS_clean_linker_0, # of connection points: 2
#     Edge 108, Type (0, 0), BuildingBlock: CIFDUS_clean_linker_0, # of connection points: 2
#     Edge 109, Type (0, 0), BuildingBlock: CIFDUS_clean_linker_0, # of connection points: 2
#     Edge 110, Type (0, 0), BuildingBlock: CIFDUS_clean_linker_0, # of connection points: 2
#     Edge 111, Type (0, 0), BuildingBlock: CIFDUS_clean_linker_0, # of connection points: 2
#     Edge 112, Type (0, 0), BuildingBlock: CIFDUS_clean_linker_0, # of connection points: 2
#     Edge 113, Type (0, 0), BuildingBlock: CIFDUS_clean_linker_0, # of connection points: 2
#     Edge 114, Type (0, 0), BuildingBlock: CIFDUS_clean_linker_0, # of connection points: 2
#     Edge 115, Type (0, 0), BuildingBlock: CIFDUS_clean_linker_0, # of connection points: 2
#     Edge 116, Type (0, 0), BuildingBlock: CIFDUS_clean_linker_0, # of connection points: 2
#     Edge 117, Type (0, 0), BuildingBlock: CIFDUS_clean_linker_0, # of connection points: 2
#     Edge 118, Type (0, 0), BuildingBlock: CIFDUS_clean_linker_0, # of connection points: 2
#     Edge 119, Type (0, 0), BuildingBlock: CIFDUS_clean_linker_0, # of connection points: 2
#     Edge 120, Type (0, 0), BuildingBlock: CIFDUS_clean_linker_0, # of connection points: 2
#     Edge 121, Type (0, 0), BuildingBlock: CIFDUS_clean_linker_0, # of connection points: 2
#     Edge 122, Type (0, 0), BuildingBlock: CIFDUS_clean_linker_0, # of connection points: 2
#     Edge 123, Type (0, 0), BuildingBlock: CIFDUS_clean_linker_0, # of connection points: 2
#     Edge 124, Type (0, 0), BuildingBlock: CIFDUS_clean_linker_0, # of connection points: 2
#     Edge 125, Type (0, 0), BuildingBlock: CIFDUS_clean_linker_0, # of connection points: 2
#     Edge 126, Type (0, 0), BuildingBlock: CIFDUS_clean_linker_0, # of connection points: 2
#     Edge 127, Type (0, 0), BuildingBlock: CIFDUS_clean_linker_0, # of connection points: 2
#     Edge 128, Type (0, 0), BuildingBlock: CIFDUS_clean_linker_0, # of connection points: 2
#     Edge 129, Type (0, 0), BuildingBlock: CIFDUS_clean_linker_0, # of connection points: 2
#     Edge 130, Type (0, 0), BuildingBlock: CIFDUS_clean_linker_0, # of connection points: 2
#     Edge 131, Type (0, 0), BuildingBlock: CIFDUS_clean_linker_0, # of connection points: 2
#     Edge 132, Type (0, 0), BuildingBlock: CIFDUS_clean_linker_0, # of connection points: 2
#     Edge 133, Type (0, 0), BuildingBlock: CIFDUS_clean_linker_0, # of connection points: 2
#     Edge 134, Type (0, 0), BuildingBlock: CIFDUS_clean_linker_0, # of connection points: 2
#     Edge 135, Type (0, 0), BuildingBlock: CIFDUS_clean_linker_0, # of connection points: 2
#     Edge 136, Type (0, 0), BuildingBlock: CIFDUS_clean_linker_0, # of connection points: 2
#     Edge 137, Type (0, 0), BuildingBlock: CIFDUS_clean_linker_0, # of connection points: 2
#     Edge 138, Type (0, 0), BuildingBlock: CIFDUS_clean_linker_0, # of connection points: 2
#     Edge 139, Type (0, 0), BuildingBlock: CIFDUS_clean_linker_0, # of connection points: 2
#     Edge 140, Type (0, 0), BuildingBlock: CIFDUS_clean_linker_0, # of connection points: 2
#     Edge 141, Type (0, 0), BuildingBlock: CIFDUS_clean_linker_0, # of connection points: 2
#     Edge 142, Type (0, 0), BuildingBlock: CIFDUS_clean_linker_0, # of connection points: 2
#     Edge 143, Type (0, 0), BuildingBlock: CIFDUS_clean_linker_0, # of connection points: 2
# Relax obj value: 0.104
# Max RMSD: 0.207
# Mean RMSD: 0.207
data_MOF--net-wnd--node1-BETDIP_clean_sbu_0--edge1-CIFDUS_clean_linker_0
_symmetry_space_group_name_H-M    P1
_symmetry_Int_Tables_number       1
_symmetry_cell_setting            triclinic
loop_
_symmetry_equiv_pos_as_xyz
'x, y, z'
_cell_length_a     36.301845
_cell_length_b     36.293399
_cell_length_c     131.77858
_cell_angle_alpha  90.134997
_cell_angle_beta   89.797608
_cell_angle_gamma 120.08742
loop_
_atom_site_label
_atom_site_type_symbol
_atom_site_fract_x
_atom_site_fract_y
_atom_site_fract_z
_atom_type_partial_charge
Tb0 Tb 0.49406 0.08358 0.06348 0.0
Tb1 Tb 0.53646 0.03144 0.07069 0.0
C2 C 0.46589 0.13394 0.06503 0.0
C3 C 0.4842 0.18046 0.06377 0.0
C4 C 0.52113 0.20984 0.06904 0.0
C5 C 0.53546 0.25351 0.06863 0.0
C6 C 0.51339 0.26888 0.06291 0.0
C7 C 0.47778 0.23955 0.05723 0.0
C8 C 0.46323 0.19585 0.05771 0.0
C9 C 0.52415 0.06223 0.04757 0.0
C10 C 0.59552 0.12742 0.0654 0.0
C11 C 0.5664 0.98341 0.07436 0.0
C12 C 0.5684 0.94497 0.07165 0.0
C13 C 0.59666 0.93666 0.07704 0.0
C14 C 0.60027 0.90094 0.07479 0.0
C15 C 0.57568 0.87251 0.06706 0.0
C16 C 0.54733 0.88106 0.06161 0.0
C17 C 0.54378 0.91706 0.06387 0.0
C18 C 0.51529 0.07119 0.08471 0.0
C19 C 0.4396 0.98272 0.06378 0.0
O20 O 0.48063 0.1222 0.07264 0.0
O21 O 0.46076 0.11122 0.05684 0.0
O22 O 0.52547 0.0536 0.0568 0.0
O23 O 0.50446 0.08372 0.04709 0.0
O24 O 0.56184 0.13283 0.06571 0.0
O25 O 0.59204 0.08953 0.06601 0.0
O26 O 0.58385 1.01559 0.06805 0.0
O27 O 0.53127 0.97847 0.07847 0.0
O28 O 0.4954 0.05222 0.07687 0.0
O29 O 0.54721 0.06487 0.08549 0.0
O30 O 0.47569 0.98202 0.06462 0.0
O31 O 0.43838 1.01887 0.06409 0.0
H32 H 0.53834 0.19908 0.07372 0.0
H33 H 0.56276 0.27497 0.07316 0.0
H34 H 0.46049 0.25026 0.05255 0.0
H35 H 0.43493 0.17397 0.05352 0.0
H36 H 0.61595 0.95783 0.08307 0.0
H37 H 0.62176 0.89516 0.0793 0.0
H38 H 0.52808 0.86008 0.05555 0.0
H39 H 0.52193 0.92307 0.05958 0.0
Tb40 Tb 1.02769 0.44909 0.06516 0.0
Tb41 Tb 0.08353 0.54187 0.0716 0.0
C42 C 0.9822 0.36939 0.06455 0.0
C43 C 0.93629 0.33988 0.063 0.0
C44 C 0.9195 0.29629 0.06468 0.0
C45 C 0.87569 0.26806 0.0639 0.0
C46 C 0.84752 0.28275 0.0614 0.0
C47 C 0.86451 0.32669 0.05978 0.0
C48 C 0.90851 0.35499 0.06057 0.0
C49 C 0.0408 0.50465 0.05072 0.0
C50 C 0.98614 0.50535 0.06994 0.0
C51 C 0.13426 0.62082 0.07359 0.0
C52 C 0.17455 0.65906 0.07021 0.0
C53 C 0.17278 0.69034 0.06428 0.0
C54 C 0.20954 0.72964 0.06235 0.0
C55 C 0.2492 0.73895 0.06635 0.0
C56 C 0.2511 0.70716 0.07208 0.0
C57 C 0.21432 0.66786 0.07401 0.0
C58 C 0.04484 0.48438 0.08634 0.0
C59 C 0.12905 0.49131 0.06455 0.0
O60 O 0.99161 0.39172 0.07292 0.0
O61 O 1.00415 0.39242 0.05673 0.0
O62 O 0.06749 0.50809 0.05736 0.0
O63 O 1.00642 0.46809 0.05179 0.0
O64 O 0.98062 0.46637 0.07037 0.0
O65 O 1.02403 0.5392 0.06871 0.0
O66 O 0.10196 0.60446 0.06729 0.0
O67 O 0.13639 0.5916 0.079 0.0
O68 O 0.06118 0.48072 0.07832 0.0
O69 O 0.0542 0.5237 0.08697 0.0
O70 O 0.13242 0.52858 0.06654 0.0
O71 O 0.09152 0.45539 0.06408 0.0
H72 H 0.94026 0.28409 0.06675 0.0
H73 H 0.86382 0.23464 0.06541 0.0
H74 H 0.8439 0.33913 0.05779 0.0
H75 H 0.92084 0.3887 0.05936 0.0
H76 H 0.14261 0.68495 0.06136 0.0
H77 H 0.20674 0.75288 0.05779 0.0
H78 H 0.2808 0.71314 0.07542 0.0
H79 H 0.21692 0.64496 0.07876 0.0
Tb80 Tb 0.66583 0.62203 0.06629 0.0
Tb81 Tb 0.56897 0.58157 0.07167 0.0
C82 C 0.74286 0.6473 0.06946 0.0
C83 C 0.77152 0.62994 0.06786 0.0
C84 C 0.75852 0.58747 0.07039 0.0
C85 C 0.78777 0.57314 0.07039 0.0
C86 C 0.83057 0.60085 0.06778 0.0
C87 C 0.84274 0.64253 0.06462 0.0
C88 C 0.81356 0.65699 0.06473 0.0
C89 C 0.6197 0.5936 0.04961 0.0
C90 C 0.60472 0.52048 0.06782 0.0
C91 C 0.49017 0.55375 0.07346 0.0
C92 C 0.45178 0.55387 0.06962 0.0
C93 C 0.42057 0.51817 0.06431 0.0
C94 C 0.381 0.51411 0.06205 0.0
C95 C 0.37149 0.54559 0.06509 0.0
C96 C 0.40323 0.58189 0.07016 0.0
C97 C 0.44281 0.58594 0.07242 0.0
C98 C 0.62419 0.60173 0.0869 0.0
C99 C 0.62223 0.67865 0.06516 0.0
O100 O 0.7125 0.62666 0.07611 0.0
O101 O 0.7297 0.65872 0.06142 0.0
O102 O 0.6071 0.59232 0.05861 0.0
O103 O 0.66095 0.61222 0.04979 0.0
O104 O 0.64422 0.5535 0.06831 0.0
O105 O 0.57095 0.5251 0.06785 0.0
O106 O 0.5065 0.53581 0.06778 0.0
O107 O 0.51935 0.58724 0.07835 0.0
O108 O 0.62879 0.62167 0.07881 0.0
O109 O 0.58616 0.56889 0.08691 0.0
O110 O 0.58463 0.64307 0.06527 0.0
O111 O 0.65869 0.67873 0.06651 0.0
H112 H 0.72616 0.56575 0.07281 0.0
H113 H 0.77722 0.54098 0.07292 0.0
H114 H 0.87519 0.66445 0.0623 0.0
H115 H 0.82421 0.68974 0.0627 0.0
H116 H 0.42619 0.49255 0.06218 0.0
H117 H 0.35767 0.48602 0.05803 0.0
H118 H 0.39699 0.60658 0.07275 0.0
H119 H 0.46573 0.61351 0.07667 0.0
Tb120 Tb 0.08633 0.48049 0.47748 0.0
Tb121 Tb 0.03717 0.52208 0.47079 0.0
C122 C 0.14053 0.45658 0.47782 0.0
C123 C 0.18737 0.4768 0.47875 0.0
C124 C 0.21541 0.5104 0.47237 0.0
C125 C 0.25942 0.52595 0.47274 0.0
C126 C 0.27621 0.5082 0.4795 0.0
C127 C 0.24816 0.47614 0.48622 0.0
C128 C 0.20432 0.46054 0.48581 0.0
C129 C 0.05507 0.50316 0.49278 0.0
C130 C 0.13432 0.58206 0.47365 0.0
C131 C 0.98884 0.55297 0.46843 0.0
C132 C 0.94863 0.55199 0.47135 0.0
C133 C 0.95086 0.58612 0.47696 0.0
C134 C 0.91446 0.58943 0.47866 0.0
C135 C 0.87468 0.55876 0.47477 0.0
C136 C 0.87232 0.5241 0.46931 0.0
C137 C 0.9088 0.52082 0.4676 0.0
C138 C 0.07252 0.49919 0.45611 0.0
C139 C 0.98757 0.42479 0.47684 0.0
O140 O 0.12601 0.46418 0.46948 0.0
O141 O 0.11959 0.45713 0.48586 0.0
O142 O 0.06973 0.52353 0.48456 0.0
O143 O 0.05933 0.4697 0.49264 0.0
O144 O 0.13741 0.54776 0.47552 0.0
O145 O 0.09735 0.57959 0.47214 0.0
O146 O 1.01901 0.56627 0.47524 0.0
O147 O 0.98715 0.52239 0.46277 0.0
O148 O 0.05429 0.47893 0.46401 0.0
O149 O 0.06941 0.53319 0.45589 0.0
O150 O 0.98777 0.46134 0.47694 0.0
O151 O 1.0234 0.42375 0.47567 0.0
H152 H 0.20331 0.52385 0.46688 0.0
H153 H 0.28001 0.55049 0.46744 0.0
H154 H 0.26003 0.46231 0.49166 0.0
H155 H 0.18347 0.43489 0.49085 0.0
H156 H 0.98114 0.61104 0.47982 0.0
H157 H 0.91761 0.61622 0.483 0.0
H158 H 0.84245 0.50006 0.46608 0.0
H159 H 0.90592 0.49447 0.46311 0.0
Tb160 Tb 0.62919 0.6576 0.47724 0.0
Tb161 Tb 0.58794 0.56075 0.47083 0.0
C162 C 0.65589 0.73579 0.47499 0.0
C163 C 0.63859 0.76498 0.47625 0.0
C164 C 0.6 0.75631 0.47168 0.0
C165 C 0.58654 0.7864 0.47196 0.0
C166 C 0.61125 0.8259 0.47683 0.0
C167 C 0.64891 0.83363 0.48175 0.0
C168 C 0.66246 0.80365 0.48142 0.0
C169 C 0.59978 0.60724 0.49336 0.0
C170 C 0.52771 0.59769 0.47502 0.0
C171 C 0.55996 0.48178 0.46898 0.0
C172 C 0.5596 0.44342 0.47317 0.0
C173 C 0.52403 0.41304 0.4787 0.0
C174 C 0.51986 0.37369 0.48137 0.0
C175 C 0.55108 0.36345 0.47855 0.0
C176 C 0.58719 0.39434 0.47322 0.0
C177 C 0.59133 0.43367 0.47055 0.0
C178 C 0.60857 0.61903 0.45624 0.0
C179 C 0.68505 0.61271 0.47746 0.0
O180 O 0.63896 0.70751 0.46774 0.0
O181 O 0.66315 0.72003 0.48321 0.0
O182 O 0.59874 0.59713 0.48416 0.0
O183 O 0.6187 0.64852 0.49373 0.0
O184 O 0.56108 0.63712 0.47496 0.0
O185 O 0.53172 0.56352 0.4746 0.0
O186 O 0.54088 0.49807 0.47426 0.0
O187 O 0.59435 0.51112 0.46438 0.0
O188 O 0.62799 0.62212 0.46431 0.0
O189 O 0.57826 0.57977 0.45548 0.0
O190 O 0.6492 0.57539 0.47714 0.0
O191 O 0.68563 0.64971 0.47664 0.0
H192 H 0.58071 0.72675 0.46763 0.0
H193 H 0.5576 0.7793 0.46802 0.0
H194 H 0.66839 0.86324 0.48577 0.0
H195 H 0.69223 0.81115 0.48502 0.0
H196 H 0.49863 0.41915 0.48072 0.0
H197 H 0.49191 0.35115 0.48558 0.0
H198 H 0.6117 0.3876 0.47076 0.0
H199 H 0.6188 0.45584 0.46614 0.0
Tb200 Tb 0.45372 1.02035 0.48021 0.0
Tb201 Tb 0.54396 0.07954 0.47165 0.0
C202 C 0.37651 0.96487 0.47921 0.0
C203 C 0.34827 0.91975 0.48183 0.0
C204 C 0.36288 0.8905 0.48122 0.0
C205 C 0.33393 0.84673 0.48082 0.0
C206 C 0.28989 0.83148 0.48113 0.0
C207 C 0.27576 0.86078 0.48281 0.0
C208 C 0.30469 0.90452 0.48306 0.0
C209 C 0.50806 0.03785 0.49509 0.0
C210 C 0.5163 0.98423 0.47493 0.0
C211 C 0.6193 0.1348 0.46695 0.0
C212 C 0.66147 0.16833 0.47059 0.0
C213 C 0.69785 0.17257 0.46574 0.0
C214 C 0.73836 0.20626 0.46813 0.0
C215 C 0.74363 0.23668 0.47548 0.0
C216 C 0.70707 0.23149 0.4806 0.0
C217 C 0.66636 0.1977 0.47817 0.0
C218 C 0.47877 0.04783 0.45844 0.0
C219 C 0.49521 0.12015 0.48214 0.0
O220 O 0.40473 0.97132 0.47216 0.0
O221 O 0.39203 0.99315 0.48657 0.0
O222 O 0.51706 0.051 0.486 0.0
O223 O 0.46704 1.01479 0.49597 0.0
O224 O 0.47647 0.97616 0.47584 0.0
O225 O 0.54865 1.02346 0.47436 0.0
O226 O 0.60751 0.09538 0.46926 0.0
O227 O 0.58753 0.14225 0.46718 0.0
O228 O 0.48001 0.05969 0.46737 0.0
O229 O 0.51667 0.05547 0.45623 0.0
O230 O 0.53247 0.12213 0.48106 0.0
O231 O 0.45862 0.08352 0.48097 0.0
H232 H 0.39647 0.90158 0.4803 0.0
H233 H 0.34603 0.82522 0.47955 0.0
H234 H 0.2421 0.85005 0.48339 0.0
H235 H 0.29275 0.9265 0.48356 0.0
H236 H 0.69481 0.15043 0.45982 0.0
H237 H 0.76536 0.20934 0.46388 0.0
H238 H 0.70982 0.25386 0.48642 0.0
H239 H 0.63878 0.19506 0.48205 0.0
Tb240 Tb 0.59742 0.06907 0.97111 0.0
Tb241 Tb 0.6363 1.0119 0.97734 0.0
C242 C 0.57033 0.12068 0.96937 0.0
C243 C 0.57019 0.15873 0.97361 0.0
C244 C 0.53512 0.15351 0.97937 0.0
C245 C 0.53091 0.18865 0.98206 0.0
C246 C 0.56158 0.23006 0.97903 0.0
C247 C 0.59725 0.23535 0.9735 0.0
C248 C 0.60143 0.20019 0.9708 0.0
C249 C 0.61716 0.03113 0.95635 0.0
C250 C 0.69433 0.11296 0.97776 0.0
C251 C 0.66209 0.95979 0.97498 0.0
C252 C 0.64458 0.91333 0.97627 0.0
C253 C 0.60416 0.8834 0.97249 0.0
C254 C 0.59037 0.83973 0.97262 0.0
C255 C 0.61663 0.82495 0.97654 0.0
C256 C 0.65617 0.85493 0.98075 0.0
C257 C 0.67001 0.89855 0.98057 0.0
C258 C 0.60688 0.03218 0.99359 0.0
C259 C 0.53505 0.97182 0.97474 0.0
O260 O 0.55089 0.08522 0.97459 0.0
O261 O 0.60468 0.12559 0.96478 0.0
O262 O 0.63669 0.04694 0.96446 0.0
O263 O 0.58743 0.04082 0.95568 0.0
O264 O 0.65904 0.11535 0.97742 0.0
O265 O 0.69374 0.07594 0.97691 0.0
O266 O 0.64472 0.97087 0.96781 0.0
O267 O 0.67007 0.98321 0.98318 0.0
O268 O 0.60661 0.04245 0.98446 0.0
O269 O 0.62503 1.00915 0.9938 0.0
O270 O 0.56792 0.96503 0.9748 0.0
O271 O 0.54009 1.01043 0.97452 0.0
H272 H 0.51007 0.122 0.98154 0.0
H273 H 0.50332 0.18327 0.98642 0.0
H274 H 0.62131 0.26658 0.9709 0.0
H275 H 0.62846 0.20545 0.96621 0.0
H276 H 0.58369 0.89377 0.96913 0.0
H277 H 0.5599 0.81779 0.96926 0.0
H278 H 0.67692 0.84476 0.98404 0.0
H279 H 0.7012 0.92087 0.98355 0.0
Tb280 Tb 0.04247 0.55711 0.97235 0.0
Tb281 Tb 0.09897 0.6469 0.97892 0.0
C282 C 1.00293 0.47709 0.96953 0.0
C283 C 0.96341 0.43598 0.97157 0.0
C284 C 0.93385 0.43148 0.97907 0.0
C285 C 0.89749 0.39148 0.9809 0.0
C286 C 0.88994 0.35504 0.97531 0.0
C287 C 0.91995 0.35999 0.96785 0.0
C288 C 0.95607 0.39986 0.96602 0.0
C289 C 0.07758 0.61625 0.95768 0.0
C290 C 0.99698 0.60668 0.97762 0.0
C291 C 0.14624 0.72649 0.97943 0.0
C292 C 0.19282 0.75531 0.9782 0.0
C293 C 0.20778 0.78895 0.97123 0.0
C294 C 0.25146 0.8174 0.97014 0.0
C295 C 0.28145 0.81314 0.97604 0.0
C296 C 0.2665 0.77843 0.98275 0.0
C297 C 0.22267 0.74979 0.98382 0.0
C298 C 0.07486 0.59279 0.99404 0.0
C299 C 0.14045 0.59 0.97665 0.0
O300 O 1.02841 0.4962 0.97716 0.0
O301 O 1.00059 0.50419 0.96342 0.0
O302 O 0.09418 0.61286 0.96563 0.0
O303 O 0.03895 0.5845 0.95744 0.0
O304 O 0.99334 0.5687 0.97776 0.0
O305 O 1.0352 0.64185 0.97701 0.0
O306 O 0.12556 0.70566 0.97132 0.0
O307 O 0.13329 0.70259 0.98756 0.0
O308 O 0.05135 0.59019 0.98662 0.0
O309 O 0.1111 0.62771 0.99335 0.0
O310 O 0.14819 0.62975 0.97662 0.0
O311 O 0.1014 0.55745 0.97568 0.0
H312 H 0.93893 0.45876 0.98352 0.0
H313 H 0.87548 0.38907 0.98678 0.0
H314 H 0.91518 0.33317 0.96326 0.0
H315 H 0.97847 0.40246 0.96021 0.0
H316 H 0.18557 0.79352 0.96669 0.0
H317 H 0.26174 0.84314 0.96473 0.0
H318 H 0.28854 0.77419 0.98744 0.0
H319 H 0.21218 0.72373 0.98914 0.0
Tb320 Tb 0.55255 0.50567 0.97206 0.0
Tb321 Tb 0.46109 0.47275 0.98021 0.0
C322 C 0.62938 0.52837 0.96824 0.0
C323 C 0.67044 0.53461 0.97227 0.0
C324 C 0.67957 0.50128 0.97213 0.0
C325 C 0.72051 0.50897 0.97444 0.0
C326 C 0.75363 0.55024 0.97692 0.0
C327 C 0.74422 0.5834 0.97725 0.0
C328 C 0.70325 0.5757 0.97493 0.0
C329 C 0.48833 0.47089 0.9586 0.0
C330 C 0.50369 0.41576 0.98237 0.0
C331 C 0.38384 0.45018 0.979 0.0
C332 C 0.35592 0.46737 0.98176 0.0
C333 C 0.36697 0.5092 0.9791 0.0
C334 C 0.33705 0.52253 0.97977 0.0
C335 C 0.29552 0.49456 0.98326 0.0
C336 C 0.28574 0.45388 0.98671 0.0
C337 C 0.31554 0.44031 0.98588 0.0
C338 C 0.51399 0.5099 0.99533 0.0
C339 C 0.52224 0.57176 0.97473 0.0
O340 O 0.61651 0.5542 0.97146 0.0
O341 O 0.59761 0.48957 0.96683 0.0
O342 O 0.48916 0.46067 0.96757 0.0
O343 O 0.52618 0.50174 0.95647 0.0
O344 O 0.54081 0.4514 0.98138 0.0
O345 O 0.4669 0.41511 0.98106 0.0
O346 O 0.41215 0.4717 0.97195 0.0
O347 O 0.39908 0.43711 0.98633 0.0
O348 O 0.52395 0.50631 0.98628 0.0
O349 O 0.47289 0.49134 0.996 0.0
O350 O 0.48282 0.5396 0.97603 0.0
O351 O 0.55504 0.56581 0.97391 0.0
H352 H 0.65547 0.46942 0.96991 0.0
H353 H 0.7265 0.48264 0.97393 0.0
H354 H 0.76859 0.61545 0.97923 0.0
H355 H 0.69761 0.60231 0.97494 0.0
H356 H 0.398 0.53098 0.97594 0.0
H357 H 0.34588 0.55393 0.97697 0.0
H358 H 0.25449 0.43183 0.98972 0.0
H359 H 0.30638 0.40802 0.98803 0.0
Tb360 Tb 0.08755 0.57431 0.57133 0.0
Tb361 Tb 1.03583 0.6127 0.5644 0.0
C362 C 0.13618 0.54419 0.57417 0.0
C363 C 0.1768 0.54517 0.57217 0.0
C364 C 0.18666 0.51933 0.57813 0.0
C365 C 0.22256 0.51578 0.57603 0.0
C366 C 0.24975 0.53813 0.56788 0.0
C367 C 0.24019 0.56472 0.56199 0.0
C368 C 0.2039 0.56803 0.56407 0.0
C369 C 0.05225 0.59812 0.58583 0.0
C370 C 0.13466 0.6711 0.56476 0.0
C371 C 0.97893 0.63298 0.56366 0.0
C372 C 0.93157 0.60876 0.56409 0.0
C373 C 0.90997 0.59848 0.57347 0.0
C374 C 0.8654 0.57634 0.57385 0.0
C375 C 0.84121 0.56408 0.56488 0.0
C376 C 0.86286 0.57407 0.55551 0.0
C377 C 0.90742 0.59622 0.55512 0.0
C378 C 0.06759 0.58963 0.5493 0.0
C379 C 0.99072 0.51228 0.56963 0.0
O380 O 0.10915 0.53317 0.56666 0.0
O381 O 0.13619 0.57361 0.57995 0.0
O382 O 0.06952 0.61732 0.57776 0.0
O383 O 0.05578 0.56439 0.58628 0.0
O384 O 0.13589 0.63528 0.56505 0.0
O385 O 0.09809 0.67095 0.56568 0.0
O386 O 0.99897 0.63388 0.57197 0.0
O387 O 0.99696 0.62775 0.55559 0.0
O388 O 0.05326 0.56979 0.55761 0.0
O389 O 0.06307 0.62293 0.54931 0.0
O390 O 0.98633 0.54588 0.56783 0.0
O391 O 1.02838 0.51573 0.57043 0.0
H392 H 0.16605 0.50119 0.58438 0.0
H393 H 0.22918 0.49568 0.58085 0.0
H394 H 0.26028 0.58229 0.55563 0.0
H395 H 0.19669 0.58785 0.5593 0.0
H396 H 0.92745 0.60791 0.58054 0.0
H397 H 0.84992 0.56986 0.5812 0.0
H398 H 0.84535 0.56478 0.54844 0.0
H399 H 0.92296 0.60371 0.54777 0.0
Tb400 Tb 0.53777 0.537 0.56997 0.0
Tb401 Tb 0.49555 0.4412 0.56319 0.0
C402 C 0.56479 0.61525 0.57278 0.0
C403 C 0.56295 0.65335 0.56936 0.0
C404 C 0.59604 0.68447 0.56335 0.0
C405 C 0.59864 0.72367 0.56142 0.0
C406 C 0.56832 0.73298 0.56549 0.0
C407 C 0.53452 0.70132 0.57125 0.0
C408 C 0.53193 0.66211 0.57319 0.0
C409 C 0.51912 0.47773 0.58419 0.0
C410 C 0.43988 0.48588 0.56383 0.0
C411 C 0.47075 0.36346 0.56528 0.0
C412 C 0.48999 0.33616 0.56353 0.0
C413 C 0.51198 0.32939 0.57143 0.0
C414 C 0.52928 0.30291 0.57004 0.0
C415 C 0.52476 0.2821 0.56073 0.0
C416 C 0.50322 0.28922 0.55278 0.0
C417 C 0.48599 0.31588 0.55416 0.0
C418 C 0.52299 0.49176 0.54712 0.0
C419 C 0.59712 0.50121 0.56417 0.0
O420 O 0.58329 0.6005 0.56678 0.0
O421 O 0.53178 0.58476 0.57755 0.0
O422 O 0.49823 0.47547 0.57645 0.0
O423 O 0.5506 0.51646 0.58478 0.0
O424 O 0.47582 0.52314 0.5642 0.0
O425 O 0.43923 0.44881 0.56435 0.0
O426 O 0.48816 0.39172 0.57252 0.0
O427 O 0.46101 0.37876 0.55734 0.0
O428 O 0.52514 0.50188 0.55635 0.0
O429 O 0.50386 0.45047 0.54668 0.0
O430 O 0.56403 0.46178 0.56468 0.0
O431 O 0.59335 0.53542 0.56489 0.0
H432 H 0.62083 0.67908 0.5604 0.0
H433 H 0.62476 0.74691 0.55683 0.0
H434 H 0.51084 0.70738 0.57463 0.0
H435 H 0.50641 0.6393 0.57799 0.0
H436 H 0.51535 0.34412 0.57877 0.0
H437 H 0.54493 0.2976 0.57638 0.0
H438 H 0.49936 0.27388 0.54549 0.0
H439 H 0.46918 0.32024 0.54793 0.0
Tb440 Tb 0.57465 0.02568 0.57041 0.0
Tb441 Tb 0.67171 0.07755 0.56416 0.0
C442 C 0.49569 0.97658 0.57277 0.0
C443 C 0.45716 0.93679 0.56942 0.0
C444 C 0.42463 0.93942 0.56429 0.0
C445 C 0.38528 0.90283 0.5624 0.0
C446 C 0.37727 0.86254 0.56562 0.0
C447 C 0.41034 0.85983 0.57051 0.0
C448 C 0.44971 0.89644 0.5724 0.0
C449 C 0.6326 0.06467 0.58489 0.0
C450 C 0.62388 0.97682 0.56404 0.0
C451 C 0.7503 0.1259 0.56661 0.0
C452 C 0.77874 0.17246 0.56649 0.0
C453 C 0.76363 0.20011 0.56915 0.0
C454 C 0.79171 0.24397 0.56997 0.0
C455 C 0.83545 0.26095 0.56819 0.0
C456 C 0.85015 0.23328 0.56517 0.0
C457 C 0.82205 0.18946 0.56434 0.0
C458 C 0.6226 0.05733 0.54793 0.0
C459 C 0.61463 0.12219 0.56541 0.0
O460 O 0.51214 1.00898 0.5665 0.0
O461 O 0.52484 0.97361 0.57799 0.0
O462 O 0.63517 0.04594 0.57717 0.0
O463 O 0.59432 0.05864 0.58531 0.0
O464 O 0.5871 0.97633 0.56477 0.0
O465 O 0.66151 1.01263 0.56448 0.0
O466 O 0.72256 0.11149 0.57402 0.0
O467 O 0.73364 0.10732 0.55794 0.0
O468 O 0.61176 0.0484 0.5571 0.0
O469 O 0.66391 0.07863 0.54764 0.0
O470 O 0.65339 0.12695 0.5662 0.0
O471 O 0.57953 0.08459 0.56566 0.0
H472 H 0.42914 0.97008 0.56201 0.0
H473 H 0.36098 0.90623 0.55848 0.0
H474 H 0.40535 0.82953 0.57323 0.0
H475 H 0.47376 0.89319 0.57649 0.0
H476 H 0.73034 0.18772 0.57091 0.0
H477 H 0.77944 0.26432 0.57238 0.0
H478 H 0.88359 0.24546 0.56358 0.0
H479 H 0.83433 0.16873 0.56226 0.0
Tb480 Tb 0.15096 0.41671 0.3968 0.0
Tb481 Tb 0.19338 0.36226 0.4031 0.0
C482 C 0.12119 0.46562 0.39929 0.0
C483 C 0.13806 0.51219 0.39984 0.0
C484 C 0.12674 0.52855 0.40817 0.0
C485 C 0.14181 0.57222 0.40904 0.0
C486 C 0.16846 0.60083 0.40153 0.0
C487 C 0.18063 0.58451 0.39327 0.0
C488 C 0.16562 0.54061 0.39243 0.0
C489 C 0.17997 0.3956 0.3806 0.0
C490 C 0.25203 0.45945 0.39868 0.0
C491 C 0.22388 0.31385 0.40563 0.0
C492 C 0.22696 0.27635 0.40241 0.0
C493 C 0.20449 0.25069 0.39411 0.0
C494 C 0.20928 0.21578 0.39135 0.0
C495 C 0.23677 0.20603 0.39682 0.0
C496 C 0.25927 0.23225 0.40508 0.0
C497 C 0.25439 0.26685 0.40782 0.0
C498 C 0.17324 0.40055 0.41773 0.0
C499 C 0.09614 0.31566 0.39628 0.0
O500 O 0.13266 0.44977 0.4067 0.0
O501 O 0.12149 0.44873 0.3905 0.0
O502 O 0.18128 0.38662 0.38978 0.0
O503 O 0.16082 0.4177 0.38029 0.0
O504 O 0.21852 0.46501 0.39938 0.0
O505 O 0.24857 0.42144 0.39871 0.0
O506 O 0.24092 0.34732 0.3997 0.0
O507 O 0.18864 0.30765 0.40997 0.0
O508 O 0.15338 0.3834 0.40974 0.0
O509 O 0.2041 0.39249 0.41834 0.0
O510 O 0.13188 0.31415 0.39705 0.0
O511 O 0.09533 0.35201 0.39683 0.0
H512 H 0.10602 0.50741 0.41405 0.0
H513 H 0.13245 0.58355 0.41562 0.0
H514 H 0.2009 0.6055 0.38732 0.0
H515 H 0.17531 0.52895 0.38598 0.0
H516 H 0.18338 0.25762 0.38978 0.0
H517 H 0.19164 0.19659 0.3849 0.0
H518 H 0.28005 0.22554 0.4096 0.0
H519 H 0.27211 0.28627 0.41425 0.0
Tb520 Tb 0.68924 0.77933 0.39741 0.0
Tb521 Tb 0.74118 0.87615 0.40337 0.0
C522 C 0.63777 0.70167 0.40028 0.0
C523 C 0.59158 0.67271 0.39843 0.0
C524 C 0.57586 0.65497 0.38882 0.0
C525 C 0.53207 0.62778 0.38734 0.0
C526 C 0.50304 0.61789 0.39541 0.0
C527 C 0.51882 0.63587 0.40498 0.0
C528 C 0.5625 0.66265 0.40649 0.0
C529 C 0.70684 0.82708 0.38096 0.0
C530 C 0.64372 0.83584 0.3998 0.0
C531 C 0.78889 0.95524 0.4058 0.0
C532 C 0.8285 0.99518 0.40333 0.0
C533 C 0.83632 0.03241 0.4084 0.0
C534 C 0.87267 0.07146 0.40625 0.0
C535 C 0.90232 0.07441 0.39893 0.0
C536 C 0.89443 0.03683 0.39383 0.0
C537 C 0.85774 0.99754 0.39599 0.0
C538 C 0.70595 0.81869 0.41819 0.0
C539 C 0.79008 0.827 0.39714 0.0
O540 O 0.64657 0.73141 0.40704 0.0
O541 O 0.66379 0.71588 0.39244 0.0
O542 O 0.71631 0.839 0.39006 0.0
O543 O 0.68625 0.78573 0.38092 0.0
O544 O 0.63968 0.79736 0.39941 0.0
O545 O 0.68076 0.87134 0.40036 0.0
O546 O 0.75955 0.93834 0.39877 0.0
O547 O 0.79149 0.92655 0.4113 0.0
O548 O 0.72331 0.81607 0.41019 0.0
O549 O 0.70889 0.85576 0.41832 0.0
O550 O 0.79029 0.86369 0.39756 0.0
O551 O 0.75431 0.78934 0.39796 0.0
H552 H 0.5973 0.66194 0.38245 0.0
H553 H 0.52089 0.61448 0.37986 0.0
H554 H 0.49748 0.62828 0.4114 0.0
H555 H 0.57355 0.67538 0.41402 0.0
H556 H 0.81415 0.03129 0.41409 0.0
H557 H 0.87788 0.09927 0.41048 0.0
H558 H 0.91637 0.03784 0.38811 0.0
H559 H 0.85217 0.9692 0.39194 0.0
Tb560 Tb 0.32311 0.9526 0.39348 0.0
Tb561 Tb 0.23511 0.92149 0.40149 0.0
C562 C 0.3996 0.96975 0.39316 0.0
C563 C 0.42485 0.94901 0.39106 0.0
C564 C 0.40609 0.90704 0.38739 0.0
C565 C 0.42959 0.88589 0.38707 0.0
C566 C 0.47194 0.90623 0.39055 0.0
C567 C 0.49081 0.94873 0.39387 0.0
C568 C 0.46751 0.96982 0.39412 0.0
C569 C 0.26698 0.92667 0.37893 0.0
C570 C 0.26447 0.85432 0.4006 0.0
C571 C 0.15718 0.89692 0.40453 0.0
C572 C 0.11779 0.89675 0.40124 0.0
C573 C 0.10846 0.92782 0.40474 0.0
C574 C 0.06826 0.92343 0.40308 0.0
C575 C 1.03604 0.88769 0.39793 0.0
C576 C 0.0458 0.85717 0.39422 0.0
C577 C 0.086 0.86159 0.39588 0.0
C578 C 0.29825 0.95614 0.41516 0.0
C579 C 0.28572 1.01385 0.39265 0.0
O580 O 0.3744 0.95448 0.40102 0.0
O581 O 0.38134 0.97745 0.38553 0.0
O582 O 0.26065 0.9096 0.38768 0.0
O583 O 0.30629 0.95708 0.37814 0.0
O584 O 0.30098 0.88473 0.39676 0.0
O585 O 0.23363 0.86167 0.40311 0.0
O586 O 0.1709 0.87645 0.39893 0.0
O587 O 0.18853 0.93138 0.40857 0.0
O588 O 0.29798 0.9671 0.40622 0.0
O589 O 0.26025 0.92516 0.41717 0.0
O590 O 0.24826 0.97843 0.39298 0.0
O591 O 0.32133 1.01257 0.39429 0.0
H592 H 0.37298 0.89025 0.38512 0.0
H593 H 0.41417 0.85314 0.3845 0.0
H594 H 0.52353 0.96553 0.39644 0.0
H595 H 0.48243 1.00202 0.39706 0.0
H596 H 0.1317 0.95485 0.40909 0.0
H597 H 0.06199 0.9474 0.40618 0.0
H598 H 1.0222 0.82953 0.39011 0.0
H599 H 0.0917 0.8366 0.39322 0.0
Tb600 Tb 0.75156 0.80972 0.80883 0.0
Tb601 Tb 0.69724 0.85053 0.80225 0.0
C602 C 0.80377 0.78406 0.80673 0.0
C603 C 0.8502 0.80271 0.80851 0.0
C604 C 0.88032 0.83264 0.80171 0.0
C605 C 0.9239 0.84824 0.80304 0.0
C606 C 0.9386 0.83429 0.8112 0.0
C607 C 0.90854 0.80524 0.81816 0.0
C608 C 0.8649 0.78952 0.81681 0.0
C609 C 0.73189 0.83958 0.82503 0.0
C610 C 0.79319 0.911 0.80709 0.0
C611 C 0.64757 0.87894 0.79897 0.0
C612 C 0.61021 0.88234 0.80208 0.0
C613 C 0.58063 0.85557 0.80936 0.0
C614 C 0.5452 0.85989 0.81182 0.0
C615 C 0.53874 0.89104 0.80704 0.0
C616 C 0.56899 0.91792 0.79984 0.0
C617 C 0.60419 0.91362 0.79743 0.0
C618 C 0.73573 0.82979 0.78781 0.0
C619 C 0.65115 0.75426 0.80946 0.0
O620 O 0.79326 0.80158 0.79948 0.0
O621 O 0.77871 0.77466 0.81469 0.0
O622 O 0.72177 0.84059 0.81591 0.0
O623 O 0.75393 0.82042 0.82522 0.0
O624 O 0.79938 0.87786 0.80662 0.0
O625 O 0.75491 0.90666 0.80676 0.0
O626 O 0.68187 0.89852 0.80456 0.0
O627 O 0.64136 0.8425 0.79541 0.0
O628 O 0.718 0.80993 0.79575 0.0
O629 O 0.72902 0.86149 0.78719 0.0
O630 O 0.64986 0.79012 0.80891 0.0
O631 O 0.68736 0.75346 0.80853 0.0
H632 H 0.87032 0.84351 0.79519 0.0
H633 H 0.94592 0.87004 0.79745 0.0
H634 H 0.91871 0.79417 0.82461 0.0
H635 H 0.84261 0.76652 0.82217 0.0
H636 H 0.58477 0.83132 0.81309 0.0
H637 H 0.5229 0.83883 0.81747 0.0
H638 H 0.56495 0.94167 0.79584 0.0
H639 H 0.62661 0.93458 0.79177 0.0
Tb640 Tb 0.29177 0.98652 0.80975 0.0
Tb641 Tb 0.25056 0.89082 0.80309 0.0
C642 C 0.31692 0.06433 0.80766 0.0
C643 C 0.2977 0.09166 0.80941 0.0
C644 C 0.27132 0.09458 0.80202 0.0
C645 C 0.2547 0.12168 0.80339 0.0
C646 C 0.26415 0.14682 0.81218 0.0
C647 C 0.28979 0.14324 0.81967 0.0
C648 C 0.30647 0.11613 0.81829 0.0
C649 C 0.26269 0.93665 0.82587 0.0
C650 C 0.19028 0.92656 0.80801 0.0
C651 C 0.22185 0.81254 0.79988 0.0
C652 C 0.21925 0.772 0.8028 0.0
C653 C 0.18824 0.73458 0.79808 0.0
C654 C 0.18436 0.69521 0.80039 0.0
C655 C 0.2114 0.6921 0.80753 0.0
C656 C 0.2424 0.72984 0.81234 0.0
C657 C 0.24627 0.76947 0.81 0.0
C658 C 0.27082 0.95007 0.78875 0.0
C659 C 0.34733 0.94159 0.80995 0.0
O660 O 0.29981 0.03617 0.80039 0.0
O661 O 0.32637 0.04892 0.81562 0.0
O662 O 0.26127 0.9259 0.81669 0.0
O663 O 0.2817 0.97791 0.82619 0.0
O664 O 0.22354 0.96596 0.80769 0.0
O665 O 0.19442 0.89251 0.80754 0.0
O666 O 0.20342 0.82744 0.80585 0.0
O667 O 0.25741 0.84273 0.79591 0.0
O668 O 0.29084 0.95229 0.79665 0.0
O669 O 0.23943 0.9114 0.78807 0.0
O670 O 0.31145 0.90432 0.80944 0.0
O671 O 0.34807 0.97865 0.80919 0.0
H672 H 0.26401 0.07647 0.79504 0.0
H673 H 0.2357 0.12405 0.79739 0.0
H674 H 0.29739 0.1618 0.82659 0.0
H675 H 0.32669 0.11475 0.82412 0.0
H676 H 0.1671 0.73585 0.79249 0.0
H677 H 0.16073 0.66731 0.79636 0.0
H678 H 0.26359 0.72876 0.81794 0.0
H679 H 0.27031 0.79797 0.81377 0.0
Tb680 Tb 0.11378 0.34904 0.80987 0.0
Tb681 Tb 0.21029 0.40245 0.80369 0.0
C682 C 1.03602 0.29774 0.80726 0.0
C683 C 1.00783 0.25118 0.80878 0.0
C684 C 1.00687 0.22185 0.80161 0.0
C685 C 0.97906 0.17813 0.80279 0.0
C686 C 0.95131 0.1625 0.81115 0.0
C687 C 0.95288 0.19175 0.81844 0.0
C688 C 0.98068 0.23555 0.81725 0.0
C689 C 0.16206 0.3681 0.82618 0.0
C690 C 0.17237 0.30593 0.80839 0.0
C691 C 0.28895 0.45079 0.80074 0.0
C692 C 0.32941 0.48941 0.80337 0.0
C693 C 0.36632 0.4967 0.79822 0.0
C694 C 0.40573 0.53248 0.80039 0.0
C695 C 0.40934 0.56203 0.80781 0.0
C696 C 0.3721 0.55454 0.81302 0.0
C697 C 0.33245 0.51845 0.81083 0.0
C698 C 0.15214 0.36463 0.78915 0.0
C699 C 0.16032 0.44985 0.81026 0.0
O700 O 0.06491 0.30876 0.80014 0.0
O701 O 0.05087 0.32199 0.81536 0.0
O702 O 0.17358 0.37793 0.81707 0.0
O703 O 0.12075 0.34633 0.82634 0.0
O704 O 0.13328 0.30046 0.80786 0.0
O705 O 0.20693 0.34386 0.80806 0.0
O706 O 0.2731 0.41934 0.80727 0.0
O707 O 0.25952 0.4552 0.79608 0.0
O708 O 0.14978 0.38272 0.797 0.0
O709 O 0.19015 0.37003 0.78871 0.0
O710 O 0.19738 0.45084 0.80976 0.0
O711 O 0.123 0.41373 0.80947 0.0
H712 H 1.02709 0.23261 0.79494 0.0
H713 H 0.97829 0.15671 0.79695 0.0
H714 H 0.93226 0.18081 0.82504 0.0
H715 H 0.98055 0.25721 0.8229 0.0
H716 H 0.36465 0.47466 0.79243 0.0
H717 H 0.43325 0.5374 0.79607 0.0
H718 H 0.37364 0.57641 0.81883 0.0
H719 H 0.30432 0.51326 0.81493 0.0
Tb720 Tb 0.25246 0.39783 0.30395 0.0
Tb721 Tb 0.29457 0.34473 0.31087 0.0
C722 C 0.22332 0.44675 0.30052 0.0
C723 C 0.22213 0.48586 0.30303 0.0
C724 C 0.18899 0.49043 0.29898 0.0
C725 C 0.18705 0.52746 0.30067 0.0
C726 C 0.21821 0.56105 0.30652 0.0
C727 C 0.25123 0.55607 0.31073 0.0
C728 C 0.2532 0.51881 0.30899 0.0
C729 C 0.27313 0.3586 0.28974 0.0
C730 C 0.34935 0.44543 0.31093 0.0
C731 C 0.32235 0.29405 0.30904 0.0
C732 C 0.30282 0.24765 0.31038 0.0
C733 C 0.26576 0.22459 0.31623 0.0
C734 C 0.2447 0.17999 0.31647 0.0
C735 C 0.26004 0.15762 0.31076 0.0
C736 C 0.29746 0.18104 0.30499 0.0
C737 C 0.31854 0.22556 0.30479 0.0
C738 C 0.26389 0.36515 0.32684 0.0
C739 C 0.19328 0.30148 0.30877 0.0
O740 O 0.20626 0.41513 0.307 0.0
O741 O 0.25761 0.45067 0.29615 0.0
O742 O 0.29332 0.37698 0.29761 0.0
O743 O 0.2413 0.36511 0.28907 0.0
O744 O 0.31345 0.44652 0.31009 0.0
O745 O 0.35036 0.40921 0.31046 0.0
O746 O 0.30623 0.30502 0.30159 0.0
O747 O 0.32836 0.31722 0.3172 0.0
O748 O 0.26311 0.37433 0.31764 0.0
O749 O 0.28323 0.34329 0.32728 0.0
O750 O 0.22691 0.29606 0.30842 0.0
O751 O 0.19663 0.33937 0.30838 0.0
H752 H 0.16479 0.46546 0.29431 0.0
H753 H 0.16165 0.53015 0.29711 0.0
H754 H 0.2756 0.58096 0.31537 0.0
H755 H 0.27903 0.51589 0.31222 0.0
H756 H 0.25255 0.24101 0.32043 0.0
H757 H 0.21578 0.16298 0.32091 0.0
H758 H 0.3105 0.16493 0.30061 0.0
H759 H 0.3467 0.24275 0.3001 0.0
Tb760 Tb 0.70425 0.88489 0.30345 0.0
Tb761 Tb 0.758 0.98087 0.3098 0.0
C762 C 0.65482 0.80634 0.30062 0.0
C763 C 0.61665 0.76608 0.30366 0.0
C764 C 0.58526 0.76451 0.31019 0.0
C765 C 0.54886 0.7252 0.31248 0.0
C766 C 0.54323 0.68681 0.30829 0.0
C767 C 0.5753 0.68895 0.30187 0.0
C768 C 0.61147 0.72801 0.29962 0.0
C769 C 0.73865 0.94374 0.28889 0.0
C770 C 0.65765 0.93366 0.31105 0.0
C771 C 0.8082 0.05934 0.30763 0.0
C772 C 0.85365 0.08854 0.30986 0.0
C773 C 0.88168 0.07299 0.31147 0.0
C774 C 0.9254 0.10112 0.31273 0.0
C775 C 0.94193 0.14543 0.31249 0.0
C776 C 0.9135 0.16074 0.311 0.0
C777 C 0.86989 0.13259 0.3097 0.0
C778 C 0.74125 0.93191 0.326 0.0
C779 C 0.80176 0.92325 0.30635 0.0
O780 O 0.68805 0.82182 0.3066 0.0
O781 O 0.64958 0.83611 0.2964 0.0
O782 O 0.72226 0.94583 0.29707 0.0
O783 O 0.7331 0.90575 0.28812 0.0
O784 O 0.65756 0.89708 0.3108 0.0
O785 O 0.6929 0.97109 0.30951 0.0
O786 O 0.80088 0.03086 0.30062 0.0
O787 O 0.78217 0.04322 0.31541 0.0
O788 O 0.73072 0.92056 0.31691 0.0
O789 O 0.76254 0.9732 0.32616 0.0
O790 O 0.80653 0.96207 0.30681 0.0
O791 O 0.76411 0.88835 0.3062 0.0
H792 H 0.58871 0.79355 0.31342 0.0
H793 H 0.52514 0.72492 0.31754 0.0
H794 H 0.57201 0.66052 0.29832 0.0
H795 H 0.63526 0.72852 0.29454 0.0
H796 H 0.86986 0.03909 0.3116 0.0
H797 H 0.94617 0.08816 0.31396 0.0
H798 H 0.92506 0.19461 0.31062 0.0
H799 H 0.84892 0.14527 0.30837 0.0
Tb800 Tb 0.22137 0.85498 0.30146 0.0
Tb801 Tb 0.1297 0.81238 0.30843 0.0
C802 C 0.30087 0.88825 0.29916 0.0
C803 C 0.34166 0.88871 0.30071 0.0
C804 C 0.35789 0.8895 0.31045 0.0
C805 C 0.40005 0.89837 0.31169 0.0
C806 C 0.42705 0.90717 0.30322 0.0
C807 C 0.41003 0.90453 0.29349 0.0
C808 C 0.36798 0.89545 0.29227 0.0
C809 C 0.16245 0.82974 0.28704 0.0
C810 C 0.17342 0.75682 0.30769 0.0
C811 C 0.05136 0.78757 0.30927 0.0
C812 C 1.0243 0.8071 0.30769 0.0
C813 C 1.00098 0.7991 0.29867 0.0
C814 C 0.97317 0.81482 0.29732 0.0
C815 C 0.96766 0.83873 0.30499 0.0
C816 C 0.99202 0.84795 0.31388 0.0
C817 C 1.01993 0.83221 0.31524 0.0
C818 C 0.18485 0.83658 0.32334 0.0
C819 C 0.1816 0.91277 0.30311 0.0
O820 O 0.28285 0.89523 0.30698 0.0
O821 O 0.27309 0.86168 0.29261 0.0
O822 O 0.16097 0.81073 0.29509 0.0
O823 O 0.19935 0.86413 0.28651 0.0
O824 O 0.21014 0.79307 0.30688 0.0
O825 O 0.13633 0.75581 0.30737 0.0
O826 O 0.07028 0.78359 0.30122 0.0
O827 O 0.07622 0.79966 0.31723 0.0
O828 O 0.18946 0.85646 0.31511 0.0
O829 O 0.14742 0.8026 0.32345 0.0
O830 O 0.14423 0.87798 0.30475 0.0
O831 O 0.21729 0.91193 0.30241 0.0
H832 H 0.33863 0.88493 0.31714 0.0
H833 H 0.41205 0.90021 0.31929 0.0
H834 H 0.42953 0.91031 0.28679 0.0
H835 H 0.35658 0.89551 0.28468 0.0
H836 H 1.0036 0.77994 0.2927 0.0
H837 H 0.95536 0.80758 0.29031 0.0
H838 H 0.98826 0.86588 0.31998 0.0
H839 H 0.03733 0.83896 0.3223 0.0
Tb840 Tb 0.7455 0.90822 0.90165 0.0
Tb841 Tb 0.693 0.95279 0.89623 0.0
C842 C 0.79533 0.87898 0.9036 0.0
C843 C 0.83433 0.87915 0.89993 0.0
C844 C 0.87533 0.91155 0.9027 0.0
C845 C 0.91119 0.90777 0.90052 0.0
C846 C 0.90713 0.87141 0.89556 0.0
C847 C 0.86617 0.83954 0.89258 0.0
C848 C 0.83033 0.84334 0.89476 0.0
C849 C 0.70939 0.92816 0.91678 0.0
C850 C 0.79353 1.0065 0.89572 0.0
C851 C 0.64138 0.9785 0.89935 0.0
C852 C 0.5951 0.9611 0.89776 0.0
C853 C 0.56484 0.92065 0.90149 0.0
C854 C 0.52124 0.90668 0.90106 0.0
C855 C 0.50674 0.93267 0.89684 0.0
C856 C 0.53706 0.97217 0.89263 0.0
C857 C 0.58069 0.98629 0.89315 0.0
C858 C 0.71147 0.92453 0.87951 0.0
C859 C 0.64922 0.85084 0.89673 0.0
O860 O 0.76181 0.86208 0.8977 0.0
O861 O 0.79932 0.912 0.90865 0.0
O862 O 0.72685 0.94915 0.90893 0.0
O863 O 0.71252 0.89412 0.91658 0.0
O864 O 0.79375 0.96999 0.89573 0.0
O865 O 0.75782 1.00817 0.89686 0.0
O866 O 0.65135 0.95861 0.90611 0.0
O867 O 0.66615 0.98956 0.8913 0.0
O868 O 0.72121 0.92206 0.88856 0.0
O869 O 0.69028 0.94463 0.87964 0.0
O870 O 0.64423 0.88455 0.89782 0.0
O871 O 0.68691 0.85371 0.89683 0.0
H872 H 0.87968 0.93928 0.90683 0.0
H873 H 0.94201 0.93281 0.90307 0.0
H874 H 0.86165 0.81138 0.88864 0.0
H875 H 0.79919 0.81748 0.89264 0.0
H876 H 0.57481 0.90023 0.90506 0.0
H877 H 0.4991 0.87629 0.90444 0.0
H878 H 0.52716 0.99269 0.88909 0.0
H879 H 0.60325 1.01743 0.89017 0.0
Tb880 Tb 0.18925 0.86871 0.90274 0.0
Tb881 Tb 0.15316 0.77402 0.89569 0.0
C882 C 0.21421 0.9466 0.90597 0.0
C883 C 0.22074 0.98804 0.90217 0.0
C884 C 0.19592 0.99133 0.89447 0.0
C885 C 0.20246 0.03154 0.89154 0.0
C886 C 0.23387 0.06939 0.89627 0.0
C887 C 0.25906 0.0656 0.90384 0.0
C888 C 0.25258 0.02559 0.90671 0.0
C889 C 0.15985 0.80702 0.91684 0.0
C890 C 0.09612 0.81703 0.89381 0.0
C891 C 0.1302 0.6967 0.89812 0.0
C892 C 0.14993 0.67 0.89643 0.0
C893 C 0.19212 0.68788 0.89297 0.0
C894 C 0.21218 0.66336 0.89259 0.0
C895 C 0.19048 0.62034 0.89565 0.0
C896 C 0.14774 0.6024 0.89884 0.0
C897 C 0.12784 0.62699 0.89926 0.0
C898 C 0.18656 0.82523 0.87996 0.0
C899 C 0.25358 0.83666 0.89935 0.0
O900 O 0.23833 0.93269 0.90217 0.0
O901 O 0.17545 0.91561 0.90788 0.0
O902 O 0.14595 0.8064 0.90818 0.0
O903 O 0.19182 0.84498 0.91829 0.0
O904 O 0.13172 0.85453 0.89444 0.0
O905 O 0.09576 0.78031 0.89515 0.0
O906 O 0.14848 0.72581 0.90518 0.0
O907 O 0.12021 0.71122 0.89007 0.0
O908 O 0.18504 0.83546 0.88907 0.0
O909 O 0.1682 0.78399 0.87951 0.0
O910 O 0.22113 0.79684 0.899 0.0
O911 O 0.24792 0.86978 0.89964 0.0
H912 H 0.17129 0.96292 0.89079 0.0
H913 H 0.18271 0.03288 0.88558 0.0
H914 H 0.28299 0.09345 0.90781 0.0
H915 H 0.27213 1.02394 0.91269 0.0
H916 H 0.2099 0.72111 0.89081 0.0
H917 H 0.24512 0.67855 0.89017 0.0
H918 H 0.12956 0.56926 0.90106 0.0
H919 H 0.09536 0.61256 0.902 0.0
Tb920 Tb 0.2379 0.35179 0.90315 0.0
Tb921 Tb 0.32854 0.41313 0.89455 0.0
C922 C 0.16169 0.29692 0.90725 0.0
C923 C 0.12 0.26207 0.90368 0.0
C924 C 0.08308 0.25773 0.90826 0.0
C925 C 0.04283 0.22389 0.90573 0.0
C926 C 0.03826 0.19334 0.89849 0.0
C927 C 0.07545 0.19839 0.8937 0.0
C928 C 0.11593 0.23237 0.89628 0.0
C929 C 0.30348 0.38238 0.91626 0.0
C930 C 0.2876 0.31278 0.89244 0.0
C931 C 0.40564 0.46928 0.89557 0.0
C932 C 0.43415 0.51374 0.89243 0.0
C933 C 0.41851 0.54148 0.89048 0.0
C934 C 0.44671 0.58516 0.88906 0.0
C935 C 0.49101 0.60178 0.88952 0.0
C936 C 0.5063 0.57347 0.89119 0.0
C937 C 0.47817 0.53 0.89263 0.0
C938 C 0.27376 0.39543 0.8798 0.0
C939 C 0.26603 0.44824 0.90127 0.0
O940 O 0.1737 0.33539 0.90401 0.0
O941 O 0.19364 0.28991 0.90813 0.0
O942 O 0.30227 0.37255 0.90716 0.0
O943 O 0.26506 0.37237 0.91876 0.0
O944 O 0.25013 0.31031 0.89353 0.0
O945 O 0.324 0.34978 0.89364 0.0
O946 O 0.37698 0.46412 0.90239 0.0
O947 O 0.39052 0.43964 0.8885 0.0
O948 O 0.26505 0.38194 0.88888 0.0
O949 O 0.31473 0.41897 0.87889 0.0
O950 O 0.30519 0.45693 0.89891 0.0
O951 O 0.23429 0.40914 0.90257 0.0
H952 H 0.08545 0.28016 0.91402 0.0
H953 H 1.01541 0.22096 0.90974 0.0
H954 H 0.07334 0.17592 0.88799 0.0
H955 H 0.14394 0.23511 0.8926 0.0
H956 H 0.38453 0.52959 0.89037 0.0
H957 H 0.43385 0.60594 0.8877 0.0
H958 H 0.54013 0.5851 0.89177 0.0
H959 H 0.49087 0.50927 0.89428 0.0
Tb960 Tb 0.82552 0.74624 0.72911 0.0
Tb961 Tb 0.86579 0.69718 0.73639 0.0
C962 C 0.80183 0.80046 0.72821 0.0
C963 C 0.82249 0.84728 0.72706 0.0
C964 C 0.84924 0.87533 0.73462 0.0
C965 C 0.86526 0.91925 0.73379 0.0
C966 C 0.85487 0.93604 0.72538 0.0
C967 C 0.82973 0.90806 0.71762 0.0
C968 C 0.81357 0.86422 0.71848 0.0
C969 C 0.84841 0.71373 0.71416 0.0
C970 C 0.92692 0.79392 0.73349 0.0
C971 C 0.89476 0.64764 0.73929 0.0
C972 C 0.89121 0.60625 0.73646 0.0
C973 C 0.92226 0.60594 0.7301 0.0
C974 C 0.92348 0.56843 0.72845 0.0
C975 C 0.89381 0.53013 0.73317 0.0
C976 C 0.86199 0.53019 0.73933 0.0
C977 C 0.86078 0.56779 0.74099 0.0
C978 C 0.84168 0.73307 0.75064 0.0
C979 C 0.76893 0.64761 0.73022 0.0
O980 O 0.80855 0.78626 0.73671 0.0
O981 O 0.8028 0.77895 0.72033 0.0
O982 O 0.86865 0.72898 0.72236 0.0
O983 O 0.81501 0.71804 0.71412 0.0
O984 O 0.89292 0.79725 0.73135 0.0
O985 O 0.92392 0.7568 0.73514 0.0
O986 O 0.90905 0.67739 0.73235 0.0
O987 O 0.86491 0.6477 0.74491 0.0
O988 O 0.82213 0.71439 0.74273 0.0
O989 O 0.87602 0.73063 0.7511 0.0
O990 O 0.80532 0.64756 0.73021 0.0
O991 O 0.76832 0.68373 0.73114 0.0
H992 H 0.85688 0.86334 0.74134 0.0
H993 H 0.88421 0.93978 0.73994 0.0
H994 H 0.82169 0.91996 0.71095 0.0
H995 H 0.7932 0.84341 0.71253 0.0
H996 H 0.94654 0.63511 0.7266 0.0
H997 H 0.94802 0.5696 0.72354 0.0
H998 H 0.83885 0.50147 0.7432 0.0
H999 H 0.8368 0.5669 0.74605 0.0
Tb1000 Tb 0.35879 0.11724 0.72999 0.0
Tb1001 Tb 0.41253 0.20852 0.73658 0.0
C1002 C 0.31312 0.03755 0.72952 0.0
C1003 C 0.26697 1.00833 0.72835 0.0
C1004 C 0.23813 1.02328 0.72935 0.0
C1005 C 0.19427 0.99466 0.72999 0.0
C1006 C 0.17842 0.9505 0.72961 0.0
C1007 C 0.2074 0.9359 0.72798 0.0
C1008 C 0.25122 0.96453 0.72741 0.0
C1009 C 0.37441 0.1724 0.71526 0.0
C1010 C 0.31646 0.17362 0.73368 0.0
C1011 C 0.4626 0.28706 0.73932 0.0
C1012 C 0.50337 0.32519 0.73626 0.0
C1013 C 0.50247 0.35674 0.73026 0.0
C1014 C 0.53955 0.39581 0.7285 0.0
C1015 C 0.57862 0.40456 0.73274 0.0
C1016 C 0.57972 0.3725 0.73853 0.0
C1017 C 0.54257 0.33338 0.7403 0.0
C1018 C 0.37224 0.15065 0.75115 0.0
C1019 C 0.4599 0.15896 0.73009 0.0
O1020 O 0.32362 0.06017 0.73786 0.0
O1021 O 0.33417 0.06023 0.72159 0.0
O1022 O 0.4001 0.17606 0.72219 0.0
O1023 O 0.33959 0.13617 0.71627 0.0
O1024 O 0.31097 0.13478 0.7346 0.0
O1025 O 0.35461 0.20696 0.73247 0.0
O1026 O 0.43157 0.27152 0.73269 0.0
O1027 O 0.46365 0.2572 0.7447 0.0
O1028 O 0.39067 0.14783 0.74344 0.0
O1029 O 0.37651 0.18823 0.75117 0.0
O1030 O 0.46285 0.19597 0.73222 0.0
O1031 O 0.42244 0.12329 0.72913 0.0
H1032 H 0.24964 0.05701 0.7301 0.0
H1033 H 0.17306 1.00709 0.73129 0.0
H1034 H 0.1963 0.90215 0.72741 0.0
H1035 H 0.2729 0.95233 0.72663 0.0
H1036 H 0.47271 0.35174 0.72715 0.0
H1037 H 0.53748 0.41934 0.72388 0.0
H1038 H 0.60906 0.37816 0.74203 0.0
H1039 H 0.5444 0.31015 0.74509 0.0
Tb1040 Tb 0.99325 0.28656 0.73044 0.0
Tb1041 Tb 0.89658 0.24058 0.7364 0.0
C1042 C 0.07128 0.31463 0.73301 0.0
C1043 C 0.09987 0.29694 0.73163 0.0
C1044 C 0.1399 0.32182 0.72712 0.0
C1045 C 0.16911 0.30738 0.72682 0.0
C1046 C 0.1591 0.2679 0.73114 0.0
C1047 C 0.11817 0.24215 0.73522 0.0
C1048 C 0.08885 0.25645 0.73544 0.0
C1049 C 0.94549 0.25805 0.71394 0.0
C1050 C 0.937 0.18469 0.73128 0.0
C1051 C 0.81758 0.20797 0.73922 0.0
C1052 C 0.77769 0.20714 0.73663 0.0
C1053 C 0.73992 0.17606 0.74122 0.0
C1054 C 0.70104 0.17346 0.73904 0.0
C1055 C 0.69892 0.20194 0.73218 0.0
C1056 C 0.73701 0.23305 0.7275 0.0
C1057 C 0.77609 0.23559 0.7297 0.0
C1058 C 0.95381 0.26042 0.75109 0.0
C1059 C 0.94547 0.33926 0.73074 0.0
O1060 O 0.04252 0.29656 0.74013 0.0
O1061 O 0.05609 0.32285 0.72483 0.0
O1062 O 0.93366 0.25512 0.72306 0.0
O1063 O 0.98681 0.27869 0.71389 0.0
O1064 O 0.97552 0.21894 0.73209 0.0
O1065 O 0.90182 0.18688 0.73153 0.0
O1066 O 0.83437 0.19494 0.73227 0.0
O1067 O 0.84634 0.24036 0.74446 0.0
O1068 O 0.95633 0.2818 0.74341 0.0
O1069 O 0.91714 0.22575 0.75093 0.0
O1070 O 0.90868 0.30273 0.73113 0.0
O1071 O 0.98308 0.34116 0.73131 0.0
H1072 H 0.14903 0.35297 0.72408 0.0
H1073 H 0.19998 0.32767 0.72339 0.0
H1074 H 0.10935 0.21177 0.73867 0.0
H1075 H 0.05807 0.23633 0.73893 0.0
H1076 H 0.74052 0.15378 0.74658 0.0
H1077 H 0.67277 0.14968 0.74294 0.0
H1078 H 0.7366 0.25533 0.72212 0.0
H1079 H 0.80491 0.25965 0.72603 0.0
Tb1080 Tb 0.42864 0.14816 0.14312 0.0
Tb1081 Tb 0.37388 0.18927 0.13705 0.0
C1082 C 0.47967 0.12128 0.14064 0.0
C1083 C 0.52419 0.13581 0.14336 0.0
C1084 C 0.55122 0.17735 0.14695 0.0
C1085 C 0.59462 0.19211 0.14848 0.0
C1086 C 0.61161 0.16544 0.14652 0.0
C1087 C 0.58409 0.12366 0.14307 0.0
C1088 C 0.54089 0.10907 0.14149 0.0
C1089 C 0.40891 0.17691 0.15957 0.0
C1090 C 0.47077 0.24982 0.14093 0.0
C1091 C 0.32305 0.21701 0.13482 0.0
C1092 C 0.28299 0.21519 0.13822 0.0
C1093 C 0.28519 0.24907 0.14392 0.0
C1094 C 0.2486 0.25174 0.14586 0.0
C1095 C 0.2087 0.22067 0.14211 0.0
C1096 C 0.20634 0.18612 0.13662 0.0
C1097 C 0.24298 0.18348 0.13468 0.0
C1098 C 0.41128 0.169 0.12229 0.0
C1099 C 0.32798 0.09183 0.1432 0.0
O1100 O 0.47476 0.14575 0.13415 0.0
O1101 O 0.45168 0.10837 0.14807 0.0
O1102 O 0.39906 0.17846 0.15047 0.0
O1103 O 0.43127 0.15804 0.15962 0.0
O1104 O 0.47654 0.21637 0.14096 0.0
O1105 O 0.43263 0.24587 0.14069 0.0
O1106 O 0.35551 0.23373 0.14106 0.0
O1107 O 0.32076 0.18508 0.12959 0.0
O1108 O 0.3942 0.14884 0.13025 0.0
O1109 O 0.40657 0.2021 0.1221 0.0
O1110 O 0.32637 0.12754 0.14308 0.0
O1111 O 0.3645 0.09171 0.14218 0.0
H1112 H 0.5389 0.19856 0.14838 0.0
H1113 H 0.61483 0.22428 0.15122 0.0
H1114 H 0.59618 0.10247 0.14133 0.0
H1115 H 0.52067 0.07715 0.13859 0.0
H1116 H 0.31557 0.2744 0.14664 0.0
H1117 H 0.25169 0.27846 0.15023 0.0
H1118 H 0.17636 0.1618 0.13349 0.0
H1119 H 0.24009 0.15729 0.13012 0.0
Tb1120 Tb 0.96437 0.32004 0.14451 0.0
Tb1121 Tb 0.92174 0.2243 0.1381 0.0
C1122 C 0.9913 0.39802 0.14206 0.0
C1123 C 0.97681 0.42822 0.14461 0.0
C1124 C 0.93483 0.41388 0.14785 0.0
C1125 C 0.91989 0.4426 0.14894 0.0
C1126 C 0.94678 0.48614 0.14685 0.0
C1127 C 0.98901 0.50025 0.14377 0.0
C1128 C 1.00379 0.47157 0.14265 0.0
C1129 C 0.93541 0.27092 0.16079 0.0
C1130 C 0.8627 0.26086 0.14338 0.0
C1131 C 0.89253 0.14616 0.13472 0.0
C1132 C 0.8918 0.10634 0.13735 0.0
C1133 C 0.86113 0.06867 0.13268 0.0
C1134 C 0.85882 0.02989 0.13479 0.0
C1135 C 0.88715 0.02771 0.14168 0.0
C1136 C 0.91794 0.06571 0.14642 0.0
C1137 C 0.92021 0.10475 0.14428 0.0
C1138 C 0.94197 0.28265 0.12359 0.0
C1139 C 1.01906 0.27422 0.14433 0.0
O1140 O 0.96693 0.36844 0.13558 0.0
O1141 O 1.00394 0.3831 0.14953 0.0
O1142 O 0.93377 0.25991 0.15165 0.0
O1143 O 0.95481 0.31224 0.16102 0.0
O1144 O 0.89616 0.30001 0.14275 0.0
O1145 O 0.8663 0.2265 0.14295 0.0
O1146 O 0.87584 0.1609 0.14126 0.0
O1147 O 0.92655 0.17643 0.13023 0.0
O1148 O 0.96254 0.28516 0.13142 0.0
O1149 O 0.90824 0.24526 0.12346 0.0
O1150 O 0.98289 0.23717 0.14413 0.0
O1151 O 1.02009 0.31136 0.14344 0.0
H1152 H 0.91334 0.38037 0.1493 0.0
H1153 H 0.88737 0.43076 0.1514 0.0
H1154 H 1.01041 0.53341 0.14194 0.0
H1155 H 1.036 0.48311 0.13997 0.0
H1156 H 0.83896 0.06928 0.12728 0.0
H1157 H 0.83531 1.0017 0.13083 0.0
H1158 H 0.94012 0.06525 0.15182 0.0
H1159 H 0.94403 0.13353 0.148 0.0
Tb1160 Tb 0.79798 0.68823 0.14557 0.0
Tb1161 Tb 0.88792 0.73802 0.13771 0.0
C1162 C 0.71951 0.63572 0.14725 0.0
C1163 C 0.69081 0.58926 0.14659 0.0
C1164 C 0.70216 0.5627 0.1413 0.0
C1165 C 0.67306 0.51892 0.14037 0.0
C1166 C 0.63214 0.50118 0.14469 0.0
C1167 C 0.62165 0.52784 0.15024 0.0
C1168 C 0.65065 0.57135 0.15117 0.0
C1169 C 0.85485 0.72387 0.16007 0.0
C1170 C 0.85218 0.64156 0.14148 0.0
C1171 C 0.96637 0.78554 0.13395 0.0
C1172 C 1.00627 0.82586 0.13598 0.0
C1173 C 0.04215 0.83546 0.13006 0.0
C1174 C 0.08157 0.8716 0.13207 0.0
C1175 C 0.08616 0.89925 0.14008 0.0
C1176 C 0.04985 0.8898 0.14597 0.0
C1177 C 1.01027 0.85331 0.14396 0.0
C1178 C 0.82629 0.69894 0.12397 0.0
C1179 C 0.8407 0.78737 0.14433 0.0
O1180 O 0.73776 0.65538 0.13881 0.0
O1181 O 0.7457 0.64959 0.15495 0.0
O1182 O 0.85931 0.70774 0.15194 0.0
O1183 O 0.81694 0.71912 0.16024 0.0
O1184 O 0.81389 0.63743 0.14261 0.0
O1185 O 0.88658 0.67899 0.14024 0.0
O1186 O 0.95133 0.75743 0.14126 0.0
O1187 O 0.93616 0.78681 0.12884 0.0
O1188 O 0.82597 0.71826 0.1318 0.0
O1189 O 0.8644 0.70502 0.12293 0.0
O1190 O 0.87748 0.78812 0.14375 0.0
O1191 O 0.80382 0.75099 0.14392 0.0
H1192 H 0.73311 0.57586 0.13773 0.0
H1193 H 0.682 0.49928 0.13601 0.0
H1194 H 0.59066 0.51509 0.15379 0.0
H1195 H 0.64139 0.5912 0.15535 0.0
H1196 H 0.03981 0.8146 0.12389 0.0
H1197 H 0.10839 0.87811 0.12726 0.0
H1198 H 0.05217 0.9102 0.15223 0.0
H1199 H 0.98305 0.84631 0.14868 0.0
Tb1200 Tb 0.92046 0.73513 0.63557 0.0
Tb1201 Tb 0.95791 0.68385 0.64347 0.0
C1202 C 0.89264 0.78572 0.63284 0.0
C1203 C 0.89624 0.8269 0.63591 0.0
C1204 C 0.86474 0.82679 0.64218 0.0
C1205 C 0.8636 0.86426 0.64397 0.0
C1206 C 0.8938 0.90295 0.63949 0.0
C1207 C 0.92608 0.90329 0.63343 0.0
C1208 C 0.92721 0.86574 0.63164 0.0
C1209 C 0.94611 0.69925 0.62167 0.0
C1210 C 1.01663 0.78281 0.64267 0.0
C1211 C 0.97957 0.62817 0.64483 0.0
C1212 C 0.9568 0.58101 0.64399 0.0
C1213 C 0.96065 0.5618 0.63509 0.0
C1214 C 0.93906 0.51747 0.63409 0.0
C1215 C 0.91367 0.49119 0.64205 0.0
C1216 C 0.91011 0.51033 0.65101 0.0
C1217 C 0.93131 0.55474 0.65196 0.0
C1218 C 0.93426 0.71748 0.65796 0.0
C1219 C 0.85829 0.63812 0.63724 0.0
O1220 O 0.87704 0.75487 0.63952 0.0
O1221 O 0.92314 0.78618 0.62739 0.0
O1222 O 0.96387 0.71636 0.62986 0.0
O1223 O 0.91497 0.7065 0.62035 0.0
O1224 O 0.98092 0.78404 0.64198 0.0
O1225 O 1.01633 0.74607 0.64224 0.0
O1226 O 0.98265 0.64894 0.63647 0.0
O1227 O 0.97092 0.64463 0.6527 0.0
O1228 O 0.91473 0.70221 0.64965 0.0
O1229 O 0.96756 0.71297 0.65828 0.0
O1230 O 0.89114 0.63404 0.6401 0.0
O1231 O 0.86191 0.6754 0.63546 0.0
H1232 H 0.84004 0.79734 0.64548 0.0
H1233 H 0.83867 0.86277 0.6488 0.0
H1234 H 0.94964 0.9323 0.62975 0.0
H1235 H 0.95156 0.86698 0.62665 0.0
H1236 H 0.98064 0.58116 0.62891 0.0
H1237 H 0.94308 0.50374 0.62716 0.0
H1238 H 0.89073 0.49092 0.65727 0.0
H1239 H 0.92775 0.5684 0.65896 0.0
Tb1240 Tb 0.37566 0.22099 0.63681 0.0
Tb1241 Tb 0.42882 0.31265 0.64322 0.0
C1242 C 0.32683 0.14249 0.63359 0.0
C1243 C 0.28628 0.10283 0.63566 0.0
C1244 C 0.25709 0.10009 0.64306 0.0
C1245 C 0.21998 0.06088 0.645 0.0
C1246 C 0.21162 1.02369 0.63965 0.0
C1247 C 0.24113 0.02701 0.63224 0.0
C1248 C 0.27788 0.06603 0.63029 0.0
C1249 C 0.41758 0.27841 0.62221 0.0
C1250 C 0.32778 0.27114 0.64251 0.0
C1251 C 0.4766 0.39213 0.64333 0.0
C1252 C 0.52287 0.41942 0.64497 0.0
C1253 C 0.54686 0.40263 0.6492 0.0
C1254 C 0.59146 0.42688 0.64941 0.0
C1255 C 0.61301 0.46824 0.64529 0.0
C1256 C 0.58867 0.48516 0.64127 0.0
C1257 C 0.54413 0.46097 0.6411 0.0
C1258 C 0.41167 0.2582 0.65823 0.0
C1259 C 0.47104 0.25556 0.64083 0.0
O1260 O 0.35502 0.15776 0.64089 0.0
O1261 O 0.32606 0.1725 0.62823 0.0
O1262 O 0.39824 0.28148 0.62971 0.0
O1263 O 0.41391 0.24111 0.62251 0.0
O1264 O 0.32499 0.23393 0.64066 0.0
O1265 O 0.36522 0.30691 0.64349 0.0
O1266 O 0.4669 0.36872 0.63513 0.0
O1267 O 0.45315 0.37067 0.65114 0.0
O1268 O 0.38673 0.25419 0.65107 0.0
O1269 O 0.44641 0.29454 0.6573 0.0
O1270 O 0.47667 0.29418 0.6393 0.0
O1271 O 0.43266 0.2223 0.64176 0.0
H1272 H 0.26312 0.12806 0.64735 0.0
H1273 H 0.19814 0.05956 0.6508 0.0
H1274 H 0.23557 0.99949 0.62783 0.0
H1275 H 0.30004 0.06739 0.62456 0.0
H1276 H 0.53115 0.37029 0.65205 0.0
H1277 H 0.60911 0.41268 0.65247 0.0
H1278 H 0.6041 0.51708 0.63817 0.0
H1279 H 0.5263 0.47432 0.63769 0.0
Tb1280 Tb 0.89079 0.19285 0.63696 0.0
Tb1281 Tb 0.79391 0.14601 0.64285 0.0
C1282 C 0.96988 0.22532 0.63414 0.0
C1283 C 1.00989 0.22589 0.63655 0.0
C1284 C 0.04774 0.25779 0.63216 0.0
C1285 C 0.08661 0.25986 0.63407 0.0
C1286 C 0.08872 0.23001 0.64047 0.0
C1287 C 0.05055 0.19813 0.64497 0.0
C1288 C 1.01147 0.1961 0.64303 0.0
C1289 C 0.83346 0.17266 0.62224 0.0
C1290 C 0.84227 0.09391 0.64222 0.0
C1291 C 0.71576 0.11709 0.64011 0.0
C1292 C 0.68504 0.13095 0.64265 0.0
C1293 C 0.6989 0.1727 0.64598 0.0
C1294 C 0.66989 0.18722 0.6471 0.0
C1295 C 0.62648 0.1601 0.64497 0.0
C1296 C 0.61274 0.11803 0.64184 0.0
C1297 C 0.64177 0.10369 0.64066 0.0
C1298 C 0.84124 0.17424 0.65941 0.0
C1299 C 0.84991 0.24787 0.64244 0.0
O1300 O 0.95319 0.23796 0.6412 0.0
O1301 O 0.94099 0.1934 0.6288 0.0
O1302 O 0.83108 0.15135 0.62991 0.0
O1303 O 0.87002 0.20752 0.62242 0.0
O1304 O 0.87895 0.1306 0.64212 0.0
O1305 O 0.80468 0.09191 0.64148 0.0
O1306 O 0.74541 0.14197 0.63369 0.0
O1307 O 0.7308 0.10475 0.64762 0.0
O1308 O 0.85329 0.17745 0.6503 0.0
O1309 O 0.7999 0.15351 0.65942 0.0
O1310 O 0.81153 0.21363 0.64154 0.0
O1311 O 0.88543 0.24636 0.64209 0.0
H1312 H 0.04721 0.28109 0.62712 0.0
H1313 H 0.11488 0.28432 0.63031 0.0
H1314 H 0.05086 0.17479 0.65002 0.0
H1315 H 0.98263 0.17133 0.64655 0.0
H1316 H 0.73228 0.19437 0.6475 0.0
H1317 H 0.68139 0.21961 0.64961 0.0
H1318 H 0.57962 0.09648 0.64002 0.0
H1319 H 0.63057 0.07161 0.63793 0.0
Tb1320 Tb 0.40962 0.2374 0.23698 0.0
Tb1321 Tb 0.35449 0.27785 0.23092 0.0
C1322 C 0.46086 0.21028 0.23927 0.0
C1323 C 0.50138 0.21307 0.23595 0.0
C1324 C 0.54083 0.24443 0.23984 0.0
C1325 C 0.57785 0.24243 0.23798 0.0
C1326 C 0.57639 0.2089 0.23223 0.0
C1327 C 0.53711 0.17832 0.2281 0.0
C1328 C 0.50013 0.18033 0.22995 0.0
C1329 C 0.37245 0.25768 0.25176 0.0
C1330 C 0.4551 0.33479 0.23081 0.0
C1331 C 0.30354 0.30476 0.23343 0.0
C1332 C 0.25899 0.29009 0.23076 0.0
C1333 C 0.23177 0.24817 0.22744 0.0
C1334 C 0.18835 0.23335 0.22594 0.0
C1335 C 0.17159 0.26035 0.22768 0.0
C1336 C 0.1993 0.30252 0.23084 0.0
C1337 C 0.24252 0.31717 0.23239 0.0
C1338 C 0.37424 0.24924 0.21446 0.0
C1339 C 0.31281 0.17624 0.23315 0.0
O1340 O 0.42878 0.19362 0.23293 0.0
O1341 O 0.46242 0.24166 0.24459 0.0
O1342 O 0.38931 0.27783 0.24378 0.0
O1343 O 0.37701 0.2245 0.25193 0.0
O1344 O 0.45705 0.29927 0.23099 0.0
O1345 O 0.4184 0.33457 0.23179 0.0
O1346 O 0.30866 0.28052 0.23995 0.0
O1347 O 0.3313 0.31747 0.22595 0.0
O1348 O 0.38428 0.24782 0.22355 0.0
O1349 O 0.35164 0.26785 0.21443 0.0
O1350 O 0.30681 0.20957 0.23317 0.0
O1351 O 0.35108 0.18052 0.23337 0.0
H1352 H 0.54295 0.26972 0.24462 0.0
H1353 H 0.60735 0.26632 0.2414 0.0
H1354 H 0.53478 0.15242 0.22352 0.0
H1355 H 0.47018 0.15531 0.22695 0.0
H1356 H 0.24394 0.22672 0.22618 0.0
H1357 H 0.16795 0.20086 0.22343 0.0
H1358 H 0.18734 0.32396 0.2324 0.0
H1359 H 0.26293 0.34941 0.23507 0.0
Tb1360 Tb 0.86383 0.20468 0.23736 0.0
Tb1361 Tb 0.81975 0.10895 0.23072 0.0
C1362 C 0.89448 0.28283 0.24097 0.0
C1363 C 0.89648 0.32414 0.23936 0.0
C1364 C 0.8957 0.33971 0.22964 0.0
C1365 C 0.90471 0.38192 0.2284 0.0
C1366 C 0.9153 0.40937 0.23683 0.0
C1367 C 0.91453 0.39303 0.24653 0.0
C1368 C 0.90515 0.35096 0.24777 0.0
C1369 C 0.84338 0.14564 0.25165 0.0
C1370 C 0.76604 0.15566 0.23101 0.0
C1371 C 0.7917 0.03057 0.23295 0.0
C1372 C 0.80895 1.0017 0.23164 0.0
C1373 C 0.85304 1.01721 0.2321 0.0
C1374 C 0.86871 0.98907 0.23284 0.0
C1375 C 0.84056 0.94487 0.23314 0.0
C1376 C 0.79662 0.92954 0.232 0.0
C1377 C 0.78099 0.9577 0.23132 0.0
C1378 C 0.84913 0.15886 0.21457 0.0
C1379 C 0.92146 0.16684 0.23189 0.0
O1380 O 0.9081 0.26788 0.23371 0.0
O1381 O 0.86253 0.25282 0.24611 0.0
O1382 O 0.82244 0.14374 0.24394 0.0
O1383 O 0.87801 0.18235 0.2517 0.0
O1384 O 0.80224 0.19259 0.23175 0.0
O1385 O 0.7645 0.11819 0.23145 0.0
O1386 O 0.80995 0.05888 0.24013 0.0
O1387 O 0.78461 0.04665 0.22477 0.0
O1388 O 0.85104 0.16947 0.22376 0.0
O1389 O 0.82912 0.11754 0.21423 0.0
O1390 O 0.88765 0.12794 0.23255 0.0
O1391 O 0.91858 0.2016 0.23238 0.0
H1392 H 0.88949 0.31978 0.223 0.0
H1393 H 0.90504 0.39358 0.22082 0.0
H1394 H 0.9218 0.41303 0.25319 0.0
H1395 H 0.90627 0.33982 0.25533 0.0
H1396 H 0.87529 0.05107 0.23239 0.0
H1397 H 0.90265 1.00203 0.23374 0.0
H1398 H 0.77408 0.89565 0.23196 0.0
H1399 H 0.74691 0.94505 0.23098 0.0
Tb1400 Tb 0.89327 0.69013 0.23822 0.0
Tb1401 Tb 0.98385 0.73766 0.23103 0.0
C1402 C 0.81417 0.64375 0.24128 0.0
C1403 C 0.77441 0.60381 0.2389 0.0
C1404 C 0.77177 0.57598 0.23116 0.0
C1405 C 0.7326 0.5393 0.22897 0.0
C1406 C 0.69537 0.52996 0.23444 0.0
C1407 C 0.69857 0.55811 0.2422 0.0
C1408 C 0.73756 0.59449 0.24439 0.0
C1409 C 0.95309 0.72196 0.25245 0.0
C1410 C 0.93718 0.63861 0.23092 0.0
C1411 C 0.0628 0.78904 0.23015 0.0
C1412 C 0.09135 0.83575 0.22994 0.0
C1413 C 0.08253 0.86354 0.23554 0.0
C1414 C 0.11187 0.90744 0.23573 0.0
C1415 C 0.15052 0.92424 0.23035 0.0
C1416 C 0.15825 0.89638 0.22445 0.0
C1417 C 0.12905 0.8527 0.22427 0.0
C1418 C 0.92854 0.70895 0.21611 0.0
C1419 C 0.93348 0.78788 0.23638 0.0
O1420 O 0.83078 0.67238 0.23409 0.0
O1421 O 0.84318 0.64146 0.24667 0.0
O1422 O 0.95351 0.70425 0.24433 0.0
O1423 O 0.91639 0.71936 0.25336 0.0
O1424 O 0.90164 0.64027 0.23122 0.0
O1425 O 0.97492 0.67332 0.23225 0.0
O1426 O 0.042 0.77268 0.2386 0.0
O1427 O 0.03911 0.77174 0.22214 0.0
O1428 O 0.92428 0.72384 0.22447 0.0
O1429 O 0.96542 0.71129 0.21594 0.0
O1430 O 0.97023 0.78997 0.23413 0.0
O1431 O 0.89814 0.75132 0.23767 0.0
H1432 H 0.79979 0.58274 0.22678 0.0
H1433 H 0.73137 0.51854 0.2229 0.0
H1434 H 0.67102 0.55173 0.24671 0.0
H1435 H 0.73888 0.61559 0.25039 0.0
H1436 H 0.0535 0.85127 0.23994 0.0
H1437 H 0.10503 0.92795 0.24038 0.0
H1438 H 0.18735 0.90832 0.22008 0.0
H1439 H 0.13637 0.83197 0.21984 0.0
H1440 H 0.40528 0.09184 0.1193 0.0
H1441 H 0.47124 0.22128 0.10848 0.0
H1442 H 0.5122 0.20363 0.09656 0.0
H1443 H 0.52899 0.1508 0.08906 0.0
H1444 H 0.45851 1.02027 0.09892 0.0
H1445 H 0.42085 0.03895 0.11158 0.0
C1446 C 0.42866 0.11619 0.11433 0.0
C1447 C 0.4353 0.15794 0.11482 0.0
C1448 C 0.4518 0.10563 0.10742 0.0
C1449 C 0.46545 0.18897 0.10827 0.0
C1450 C 0.48906 0.1789 0.10148 0.0
C1451 C 0.50544 0.12657 0.09401 0.0
C1452 C 0.49655 0.08418 0.09308 0.0
C1453 C 0.48256 0.13732 0.10098 0.0
C1454 C 0.46608 0.0531 0.09955 0.0
C1455 C 0.44432 0.06376 0.10673 0.0
H1456 H 1.01832 0.35589 0.12168 0.0
H1457 H 0.89331 0.28709 0.10837 0.0
H1458 H 0.91301 0.34471 0.09608 0.0
H1459 H 0.96622 0.41501 0.08905 0.0
H1460 H 0.0913 0.48304 0.10225 0.0
H1461 H 0.07078 0.42652 0.11491 0.0
C1462 C 0.99531 0.35361 0.11611 0.0
C1463 C 0.95423 0.3173 0.116 0.0
C1464 C 1.00674 0.38716 0.10916 0.0
C1465 C 0.92503 0.31466 0.10866 0.0
C1466 C 0.93624 0.34773 0.10166 0.0
C1467 C 0.98885 0.41736 0.09473 0.0
C1468 C 1.03025 0.45303 0.09473 0.0
C1469 C 0.977 0.3842 0.10184 0.0
C1470 C 0.05919 0.45604 0.10217 0.0
C1471 C 0.04754 0.42354 0.10934 0.0
H1472 H 0.69761 0.67742 0.08917 0.0
H1473 H 0.62567 0.55249 0.10244 0.0
H1474 H 0.68243 0.57077 0.11489 0.0
H1475 H 0.75366 0.62236 0.12183 0.0
H1476 H 0.82575 0.74643 0.10822 0.0
H1477 H 0.76881 0.72808 0.09583 0.0
C1478 C 0.69442 0.65413 0.09477 0.0
C1479 C 0.65761 0.61342 0.09479 0.0
C1480 C 0.72769 0.66454 0.10172 0.0
C1481 C 0.65371 0.5839 0.1022 0.0
C1482 C 0.68631 0.59429 0.10929 0.0
C1483 C 0.75684 0.64515 0.1161 0.0
C1484 C 0.79387 0.68561 0.11587 0.0
C1485 C 0.72366 0.6344 0.10907 0.0
C1486 C 0.79774 0.71498 0.10844 0.0
C1487 C 0.76504 0.70458 0.10143 0.0
H1488 H 0.06646 0.42159 0.45316 0.0
H1489 H 0.13158 0.55082 0.44218 0.0
H1490 H 0.17143 0.53299 0.43001 0.0
H1491 H 0.18707 0.48006 0.42217 0.0
H1492 H 0.11808 0.34976 0.43226 0.0
H1493 H 0.08163 0.36858 0.44523 0.0
C1494 C 0.0895 0.44586 0.44812 0.0
C1495 C 0.09613 0.4876 0.44864 0.0
C1496 C 0.11204 0.43518 0.44104 0.0
C1497 C 0.12579 0.5185 0.44197 0.0
C1498 C 0.14877 0.50834 0.43502 0.0
C1499 C 0.16421 0.45592 0.42727 0.0
C1500 C 0.1553 0.41354 0.42628 0.0
C1501 C 0.14214 0.46676 0.43446 0.0
C1502 C 0.12563 0.38259 0.43292 0.0
C1503 C 0.10457 0.39332 0.44028 0.0
H1504 H 0.59041 0.68128 0.4513 0.0
H1505 H 0.66831 0.62791 0.44255 0.0
H1506 H 0.70485 0.68431 0.42987 0.0
H1507 H 0.71713 0.75103 0.42181 0.0
H1508 H 0.64326 0.80781 0.43148 0.0
H1509 H 0.60372 0.74905 0.44343 0.0
C1510 C 0.61527 0.682 0.44656 0.0
C1511 C 0.62661 0.6504 0.44782 0.0
C1512 C 0.63739 0.71569 0.43958 0.0
C1513 C 0.65885 0.65168 0.44166 0.0
C1514 C 0.67995 0.68414 0.43447 0.0
C1515 C 0.69237 0.7505 0.42655 0.0
C1516 C 0.68305 0.78373 0.42572 0.0
C1517 C 0.66997 0.7167 0.43346 0.0
C1518 C 0.65112 0.78274 0.43197 0.0
C1519 C 0.62831 0.74897 0.43876 0.0
H1520 H 0.29978 0.9572 0.43615 0.0
H1521 H 0.38039 1.01335 0.41013 0.0
H1522 H 0.44382 0.03893 0.42059 0.0
H1523 H 0.47668 0.04471 0.43756 0.0
H1524 H 0.39681 1.02471 0.4635 0.0
H1525 H 0.33302 0.98622 0.45309 0.0
C1526 C 0.33123 0.97477 0.43278 0.0
C1527 C 0.33548 0.9783 0.42215 0.0
C1528 C 0.3677 0.99562 0.43905 0.0
C1529 C 0.37633 1.00501 0.41807 0.0
C1530 C 0.41274 1.021 0.42413 0.0
C1531 C 0.4453 0.03169 0.44093 0.0
C1532 C 0.44123 0.03238 0.45154 0.0
C1533 C 0.40889 1.0157 0.43466 0.0
C1534 C 0.40058 1.01936 0.45559 0.0
C1535 C 0.36402 0.99854 0.44956 0.0
H1536 H 0.59854 0.95047 0.95123 0.0
H1537 H 0.67606 0.08189 0.94249 0.0
H1538 H 0.71101 0.06182 0.92942 0.0
H1539 H 0.72171 1.00714 0.92089 0.0
H1540 H 0.64817 0.87625 0.93042 0.0
H1541 H 0.61055 0.89572 0.94293 0.0
C1542 C 0.62308 0.97461 0.94644 0.0
C1543 C 0.63472 1.01767 0.94781 0.0
C1544 C 0.64422 0.9629 0.93918 0.0
C1545 C 0.66639 0.04859 0.94154 0.0
C1546 C 0.68658 0.03711 0.93411 0.0
C1547 C 0.69744 0.98288 0.92571 0.0
C1548 C 0.68763 0.94018 0.92467 0.0
C1549 C 0.67617 0.99444 0.93294 0.0
C1550 C 0.65638 0.90926 0.93105 0.0
C1551 C 0.63468 0.9204 0.93817 0.0
H1552 H 0.19525 0.78605 0.93278 0.0
H1553 H 0.07726 0.74514 0.91696 0.0
H1554 H 0.04111 0.6827 0.92788 0.0
H1555 H 0.04244 0.63866 0.94204 0.0
H1556 H 0.16142 0.67659 0.95709 0.0
H1557 H 0.19723 0.74021 0.94651 0.0
C1558 C 0.16159 0.76364 0.93181 0.0
C1559 C 0.139 0.77067 0.92411 0.0
C1560 C 0.14097 0.72674 0.93799 0.0
C1561 C 0.09547 0.74075 0.92284 0.0
C1562 C 0.07468 0.70481 0.92908 0.0
C1563 C 0.07623 0.66071 0.94295 0.0
C1564 C 0.0989 0.653 0.9505 0.0
C1565 C 0.09703 0.69723 0.93667 0.0
C1566 C 0.14289 0.68186 0.95146 0.0
C1567 C 0.16353 0.71842 0.94539 0.0
H1568 H 0.48449 0.47403 0.93766 0.0
H1569 H 0.40751 0.4101 0.96373 0.0
H1570 H 0.34268 0.38417 0.95373 0.0
H1571 H 0.30748 0.38083 0.93719 0.0
H1572 H 0.3855 0.40996 0.91054 0.0
H1573 H 0.45003 0.44814 0.9207 0.0
C1574 C 0.45353 0.45462 0.94115 0.0
C1575 C 0.45051 0.44872 0.95174 0.0
C1576 C 0.41651 0.43409 0.93504 0.0
C1577 C 0.41041 0.41978 0.95588 0.0
C1578 C 0.37325 0.40382 0.95009 0.0
C1579 C 0.3386 0.39582 0.93362 0.0
C1580 C 0.3417 0.39784 0.92295 0.0
C1581 C 0.37578 0.4116 0.93963 0.0
C1582 C 0.38225 0.4134 0.91857 0.0
C1583 C 0.41929 0.43393 0.92444 0.0
H1584 H 0.93602 0.62033 0.61872 0.0
H1585 H 1.00169 0.74828 0.60701 0.0
H1586 H 0.04026 0.72853 0.59486 0.0
H1587 H 0.05742 0.67541 0.58798 0.0
H1588 H 0.99265 0.54758 0.59984 0.0
H1589 H 0.95165 0.56637 0.61142 0.0
C1590 C 0.95857 0.64369 0.61344 0.0
C1591 C 0.96594 0.68569 0.61371 0.0
C1592 C 0.98109 0.63214 0.60656 0.0
C1593 C 0.99529 0.71573 0.60687 0.0
C1594 C 1.0175 0.70447 0.59997 0.0
C1595 C 1.03433 0.65169 0.59311 0.0
C1596 C 1.02817 0.6101 0.59304 0.0
C1597 C 1.01106 0.66291 0.59982 0.0
C1598 C 0.99828 0.57985 0.59978 0.0
C1599 C 0.97476 0.59062 0.6064 0.0
H1600 H 0.53746 0.41575 0.5895 0.0
H1601 H 0.45894 0.46925 0.59758 0.0
H1602 H 0.42124 0.41289 0.61017 0.0
H1603 H 0.40781 0.34619 0.61824 0.0
H1604 H 0.48245 0.28908 0.60952 0.0
H1605 H 0.5239 0.34821 0.59775 0.0
C1606 C 0.51241 0.41519 0.59412 0.0
C1607 C 0.5012 0.44685 0.5927 0.0
C1608 C 0.48967 0.38153 0.60109 0.0
C1609 C 0.4684 0.44555 0.59863 0.0
C1610 C 0.44662 0.41311 0.60576 0.0
C1611 C 0.43318 0.34669 0.61376 0.0
C1612 C 0.44207 0.31326 0.61477 0.0
C1613 C 0.45647 0.38054 0.60694 0.0
C1614 C 0.47481 0.31425 0.60885 0.0
C1615 C 0.49862 0.3482 0.60215 0.0
H1616 H 0.76613 0.09374 0.61901 0.0
H1617 H 0.82267 0.22322 0.60848 0.0
H1618 H 0.76339 0.20218 0.59659 0.0
H1619 H 0.69509 0.14618 0.58908 0.0
H1620 H 0.64171 1.01638 0.59909 0.0
H1621 H 0.69895 0.03833 0.61154 0.0
C1622 C 0.76545 0.11739 0.61412 0.0
C1623 C 0.79868 0.16009 0.61468 0.0
C1624 C 0.73125 0.10501 0.60735 0.0
C1625 C 0.79753 0.19021 0.60821 0.0
C1626 C 0.76345 0.17819 0.60146 0.0
C1627 C 0.69583 0.12295 0.59411 0.0
C1628 C 0.66399 0.07974 0.59328 0.0
C1629 C 0.72997 0.13567 0.60098 0.0
C1630 C 0.66557 0.04979 0.59969 0.0
C1631 C 0.69852 0.06232 0.60674 0.0
H1632 H 0.76229 0.72157 0.7538 0.0
H1633 H 0.89257 0.7978 0.7635 0.0
H1634 H 0.87228 0.83781 0.77503 0.0
H1635 H 0.81677 0.85003 0.78275 0.0
H1636 H 0.68566 0.76859 0.77435 0.0
H1637 H 0.70676 0.73264 0.76178 0.0
C1638 C 0.78621 0.74699 0.75844 0.0
C1639 C 0.82895 0.75672 0.75778 0.0
C1640 C 0.77408 0.76927 0.76523 0.0
C1641 C 0.85949 0.78953 0.76389 0.0
C1642 C 0.84789 0.81256 0.77046 0.0
C1643 C 0.79296 0.82457 0.77811 0.0
C1644 C 0.7497 0.81208 0.77942 0.0
C1645 C 0.80524 0.80264 0.77123 0.0
C1646 C 0.71912 0.77895 0.77341 0.0
C1647 C 0.73119 0.7582 0.76628 0.0
H1648 H 0.25222 1.01177 0.7835 0.0
H1649 H 0.33169 0.95935 0.77544 0.0
H1650 H 0.36929 1.01605 0.76291 0.0
H1651 H 0.38232 0.08282 0.7549 0.0
H1652 H 0.30747 0.13936 0.76389 0.0
H1653 H 0.26605 0.07977 0.77553 0.0
C1654 C 0.27757 1.01273 0.77892 0.0
C1655 C 0.28907 0.98129 0.78032 0.0
C1656 C 0.30037 0.04668 0.77204 0.0
C1657 C 0.32208 0.98294 0.77441 0.0
C1658 C 0.34379 1.01557 0.76732 0.0
C1659 C 0.3569 0.08206 0.75941 0.0
C1660 C 0.3479 0.11545 0.75851 0.0
C1661 C 0.33371 0.048 0.76618 0.0
C1662 C 0.31515 0.1142 0.76447 0.0
C1663 C 0.29134 0.07998 0.7711 0.0
H1664 H 1.01673 0.33987 0.75593 0.0
H1665 H 0.96893 0.20776 0.76305 0.0
H1666 H 1.02872 0.22781 0.77471 0.0
H1667 H 0.09467 0.28369 0.78311 0.0
H1668 H 0.13838 0.41569 0.77682 0.0
H1669 H 0.0812 0.3952 0.76443 0.0
C1670 C 1.0194 0.3155 0.76006 0.0
C1671 C 0.98854 0.27236 0.7586 0.0
C1672 C 0.05366 0.32735 0.76678 0.0
C1673 C 0.99218 0.24115 0.76406 0.0
C1674 C 1.02655 0.25263 0.77067 0.0
C1675 C 0.0919 0.30779 0.77888 0.0
C1676 C 0.12105 0.35117 0.78073 0.0
C1677 C 0.05762 0.29568 0.77208 0.0
C1678 C 0.11667 0.38218 0.7754 0.0
C1679 C 0.08375 0.37045 0.76839 0.0
H1680 H 0.25807 0.27847 0.28544 0.0
H1681 H 0.32919 0.40864 0.27532 0.0
H1682 H 0.36533 0.38887 0.26249 0.0
H1683 H 0.37943 0.33517 0.25469 0.0
H1684 H 0.31332 0.2062 0.26583 0.0
H1685 H 0.27368 0.22488 0.27791 0.0
C1686 C 0.28148 0.3024 0.28041 0.0
C1687 C 0.29102 0.34501 0.28131 0.0
C1688 C 0.30356 0.29105 0.27335 0.0
C1689 C 0.32119 0.37566 0.27472 0.0
C1690 C 0.34207 0.36439 0.26744 0.0
C1691 C 0.3563 0.31115 0.25977 0.0
C1692 C 0.34921 0.26924 0.25932 0.0
C1693 C 0.33401 0.32232 0.26678 0.0
C1694 C 0.31942 0.23862 0.26601 0.0
C1695 C 0.29658 0.24928 0.27289 0.0
H1696 H 0.81956 1.00255 0.28312 0.0
H1697 H 0.68765 0.95841 0.27672 0.0
H1698 H 0.70826 1.01645 0.26452 0.0
H1699 H 0.76375 0.08166 0.25617 0.0
H1700 H 0.89561 0.12994 0.26359 0.0
H1701 H 0.87539 0.06942 0.27504 0.0
C1702 C 0.79548 1.00552 0.27895 0.0
C1703 C 0.75212 0.97597 0.28069 0.0
C1704 C 0.80764 0.04024 0.27227 0.0
C1705 C 0.72117 0.98047 0.27539 0.0
C1706 C 0.73297 1.01385 0.26848 0.0
C1707 C 0.78803 0.07892 0.26032 0.0
C1708 C 0.83118 0.11018 0.259 0.0
C1709 C 0.77606 0.04427 0.26696 0.0
C1710 C 0.86223 0.10641 0.26448 0.0
C1711 C 0.85066 0.07163 0.27098 0.0
H1712 H 1.01893 0.80248 0.25545 0.0
H1713 H 0.96349 0.67407 0.2666 0.0
H1714 H 1.0232 0.69604 0.27834 0.0
H1715 H 0.09288 0.75113 0.28489 0.0
H1716 H 0.15052 0.87909 0.27326 0.0
H1717 H 0.08928 0.85797 0.26204 0.0
C1718 C 1.01993 0.77954 0.26053 0.0
C1719 C 0.9868 0.7368 0.26026 0.0
C1720 C 0.05516 0.79225 0.26703 0.0
C1721 C 0.98845 0.70719 0.26678 0.0
C1722 C 1.02274 0.71971 0.27343 0.0
C1723 C 0.0919 0.77444 0.27994 0.0
C1724 C 0.12608 0.81672 0.27997 0.0
C1725 C 0.05655 0.76201 0.27353 0.0
C1726 C 0.12467 0.84637 0.27338 0.0
C1727 C 0.08951 0.83434 0.26701 0.0
H1728 H 0.52339 0.08653 0.02835 0.0
H1729 H 0.56576 1.01634 0.04657 0.0
H1730 H 0.59537 1.00141 0.03134 0.0
H1731 H 0.60864 1.00826 1.01287 0.0
H1732 H 0.56647 0.0789 0.99475 0.0
H1733 H 0.53717 0.09393 1.00998 0.0
C1734 C 0.53909 0.0679 0.02901 0.0
C1735 C 0.54236 0.05243 0.03858 0.0
C1736 C 0.55597 0.05968 1.02025 0.0
C1737 C 0.56287 0.02852 0.0393 0.0
C1738 C 0.57974 1.02005 0.03059 0.0
C1739 C 0.59307 0.02703 1.01225 0.0
C1740 C 0.58961 0.04245 1.00268 0.0
C1741 C 0.57642 0.03546 0.02104 0.0
C1742 C 0.56943 0.06668 1.002 0.0
C1743 C 0.55272 0.07522 1.01071 0.0
H1744 H 0.12149 0.61083 1.011 0.0
H1745 H 0.99602 0.52534 0.99928 0.0
H1746 H 0.97374 0.49182 1.01609 0.0
H1747 H 0.99078 0.48702 0.03406 0.0
H1748 H 0.11659 0.57373 0.04546 0.0
H1749 H 0.13778 0.60753 0.02878 0.0
C1750 C 0.08916 0.58484 1.01208 0.0
C1751 C 0.06036 0.5705 1.0039 0.0
C1752 C 0.07668 0.56641 0.02172 0.0
C1753 C 1.01871 0.53683 1.00545 0.0
C1754 C 1.00603 0.51786 1.01506 0.0
C1755 C 1.02274 0.51355 0.0329 0.0
C1756 C 0.05221 0.52786 0.04097 0.0
C1757 C 1.03478 0.53249 0.02325 0.0
C1758 C 0.09343 0.56222 0.03938 0.0
C1759 C 0.10556 0.58136 0.02984 0.0
H1760 H 0.64856 0.59322 0.03072 0.0
H1761 H 0.53334 0.55588 0.04772 0.0
H1762 H 0.4913 0.52731 0.03222 0.0
H1763 H 0.48753 0.51286 1.01408 0.0
H1764 H 0.60179 0.54894 0.99678 0.0
H1765 H 0.64458 0.57856 1.01226 0.0
C1766 C 0.61421 0.57885 0.03102 0.0
C1767 C 0.59388 0.57654 0.04034 0.0
C1768 C 0.59042 0.56247 0.02208 0.0
C1769 C 0.54952 0.55787 0.04065 0.0
C1770 C 0.52561 0.54163 0.0318 0.0
C1771 C 0.52186 0.52721 1.01365 0.0
C1772 C 0.5416 0.52873 1.0043 0.0
C1773 C 0.54576 0.54373 0.02251 0.0
C1774 C 0.58599 0.54744 1.00388 0.0
C1775 C 0.61029 0.56427 1.01273 0.0
H1776 H 0.07331 0.62009 0.53023 0.0
H1777 H 0.06047 0.51146 0.54662 0.0
H1778 H 0.05322 0.47428 0.53055 0.0
H1779 H 0.04946 0.47237 0.51186 0.0
H1780 H 0.06206 0.58105 0.49554 0.0
H1781 H 0.0694 0.61815 0.5116 0.0
C1782 C 0.06924 0.58837 0.5303 0.0
C1783 C 0.06757 0.5686 0.53963 0.0
C1784 C 0.06433 0.56698 0.52105 0.0
C1785 C 0.0621 0.52746 0.53956 0.0
C1786 C 0.05766 0.50611 0.53037 0.0
C1787 C 0.05346 0.50405 0.51182 0.0
C1788 C 0.05505 0.52388 0.5025 0.0
C1789 C 0.05834 0.52542 0.52108 0.0
C1790 C 0.06048 0.565 0.50259 0.0
C1791 C 0.06497 0.58632 0.51177 0.0
H1792 H 0.60264 0.63183 0.51279 0.0
H1793 H 0.55987 0.51999 0.49412 0.0
H1794 H 0.53218 0.4747 0.50923 0.0
H1795 H 0.52026 0.46728 0.5277 0.0
H1796 H 0.56336 0.57908 0.54639 0.0
H1797 H 0.59104 0.62441 0.53128 0.0
C1798 C 0.58727 0.5975 0.51202 0.0
C1799 C 0.58316 0.57915 0.50235 0.0
C1800 C 0.5716 0.5719 0.52073 0.0
C1801 C 0.56325 0.53475 0.50147 0.0
C1802 C 0.54749 0.50896 0.51011 0.0
C1803 C 0.53569 0.50161 0.52847 0.0
C1804 C 0.53977 0.51993 0.53815 0.0
C1805 C 0.55147 0.52722 0.51977 0.0
C1806 C 0.55988 0.56434 0.53904 0.0
C1807 C 0.57566 0.59016 0.5304 0.0
H1808 H 0.6483 0.08533 0.52883 0.0
H1809 H 0.53569 1.01177 0.54703 0.0
H1810 H 0.49096 1.0001 0.53213 0.0
H1811 H 0.48419 1.01075 0.51411 0.0
H1812 H 0.59599 0.08435 0.49565 0.0
H1813 H 0.6413 0.09634 0.51058 0.0
C1814 C 0.61392 0.06666 0.52952 0.0
C1815 C 0.59512 0.04936 0.53901 0.0
C1816 C 0.5886 0.06029 0.52092 0.0
C1817 C 0.55071 0.02542 0.53983 0.0
C1818 C 0.52526 1.01877 0.53131 0.0
C1819 C 0.51852 0.02952 0.51331 0.0
C1820 C 0.53686 0.04672 0.50379 0.0
C1821 C 0.54391 0.03609 0.52185 0.0
C1822 C 0.58127 0.0709 0.5029 0.0
C1823 C 0.60702 0.07763 0.51142 0.0
H1824 H 0.26446 0.34104 0.34611 0.0
H1825 H 0.2222 0.41084 0.32771 0.0
H1826 H 0.19219 0.42582 0.34285 0.0
H1827 H 0.17851 0.41915 0.36128 0.0
H1828 H 0.22076 0.34922 0.37963 0.0
H1829 H 0.25043 0.334 0.36449 0.0
C1830 C 0.24869 0.35958 0.3454 0.0
C1831 C 0.24553 0.37491 0.3358 0.0
C1832 C 0.23163 0.36792 0.35411 0.0
C1833 C 0.22498 0.39875 0.335 0.0
C1834 C 0.20788 0.40726 0.34366 0.0
C1835 C 0.19418 0.40051 0.36197 0.0
C1836 C 0.19758 0.38534 0.37157 0.0
C1837 C 0.21107 0.39202 0.35324 0.0
C1838 C 0.21791 0.36129 0.37235 0.0
C1839 C 0.23481 0.35262 0.36369 0.0
H1840 H 0.6825 0.79868 0.36187 0.0
H1841 H 0.7545 0.91408 0.37919 0.0
H1842 H 0.7713 0.9562 0.36356 0.0
H1843 H 0.7655 0.95985 0.34506 0.0
H1844 H 0.6935 0.84465 0.32767 0.0
H1845 H 0.67664 0.80237 0.34331 0.0
C1846 C 0.70188 0.8331 0.36223 0.0
C1847 C 0.71723 0.85338 0.37168 0.0
C1848 C 0.71136 0.85687 0.35323 0.0
C1849 C 0.74222 0.89787 0.37203 0.0
C1850 C 0.75185 0.92184 0.3631 0.0
C1851 C 0.74611 0.92543 0.34468 0.0
C1852 C 0.73077 0.90527 0.33522 0.0
C1853 C 0.73659 0.90164 0.35367 0.0
C1854 C 0.70572 0.86078 0.33485 0.0
C1855 C 0.69609 0.83673 0.34379 0.0
H1856 H 0.16221 0.80629 0.34256 0.0
H1857 H 0.25493 0.91517 0.32553 0.0
H1858 H 0.28621 0.95334 0.34134 0.0
H1859 H 0.28672 0.95608 0.35985 0.0
H1860 H 0.19516 0.84758 0.37714 0.0
H1861 H 0.16278 0.8092 0.36131 0.0
C1862 C 0.1895 0.83825 0.34231 0.0
C1863 C 0.20644 0.85786 0.33288 0.0
C1864 C 0.20687 0.86023 0.35144 0.0
C1865 C 0.24158 0.89932 0.33268 0.0
C1866 C 0.25923 0.92124 0.34171 0.0
C1867 C 0.25949 0.92407 0.36018 0.0
C1868 C 0.24333 0.90462 0.36965 0.0
C1869 C 0.24192 0.90211 0.35111 0.0
C1870 C 0.20799 0.86327 0.36994 0.0
C1871 C 0.18978 0.84127 0.3609 0.0
H1872 H 0.75622 0.83636 0.84406 0.0
H1873 H 0.68863 0.88377 0.82653 0.0
H1874 H 0.67685 0.91455 0.842 0.0
H1875 H 0.68628 0.92791 0.86046 0.0
H1876 H 0.75408 0.88031 0.87782 0.0
H1877 H 0.76551 0.8495 0.86238 0.0
C1878 C 0.7388 0.85338 0.8436 0.0
C1879 C 0.72322 0.85781 0.83417 0.0
C1880 C 0.7324 0.87091 0.85248 0.0
C1881 C 0.70082 0.87993 0.8337 0.0
C1882 C 0.69419 0.89752 0.84254 0.0
C1883 C 0.70364 0.91084 0.86086 0.0
C1884 C 0.71943 0.90636 0.87027 0.0
C1885 C 0.70993 0.89324 0.85195 0.0
C1886 C 0.74172 0.88414 0.87069 0.0
C1887 C 0.74818 0.86655 0.86186 0.0
H1888 H 0.18572 0.79968 0.86079 0.0
H1889 H 0.22471 0.91249 0.87887 0.0
H1890 H 0.25176 0.95665 0.86353 0.0
H1891 H 0.26398 0.9626 0.84506 0.0
H1892 H 0.22442 0.84959 0.82702 0.0
H1893 H 0.19759 0.80556 0.84236 0.0
C1894 C 0.20015 0.83398 0.86139 0.0
C1895 C 0.20332 0.85295 0.87094 0.0
C1896 C 0.21536 0.85882 0.85258 0.0
C1897 C 0.22202 0.8973 0.87161 0.0
C1898 C 0.2374 0.92241 0.86285 0.0
C1899 C 0.24948 0.92829 0.84448 0.0
C1900 C 0.24611 0.90921 0.83493 0.0
C1901 C 0.2342 0.90345 0.85331 0.0
C1902 C 0.22725 0.86485 0.83428 0.0
C1903 C 0.21201 0.83981 0.84304 0.0
H1904 H 0.13539 0.33973 0.84522 0.0
H1905 H 0.24866 0.41678 0.82749 0.0
H1906 H 0.29241 0.43156 0.84272 0.0
H1907 H 0.29814 0.42274 0.86085 0.0
H1908 H 0.1859 0.34528 0.87887 0.0
H1909 H 0.14144 0.3303 0.86363 0.0
C1910 C 0.1697 0.35979 0.8447 0.0
C1911 C 0.18897 0.37726 0.83525 0.0
C1912 C 0.19447 0.36794 0.85348 0.0
C1913 C 0.23329 0.40301 0.83466 0.0
C1914 C 0.25817 0.41144 0.84336 0.0
C1915 C 0.26389 0.40249 0.8615 0.0
C1916 C 0.24519 0.3851 0.87098 0.0
C1917 C 0.23905 0.39408 0.85278 0.0
C1918 C 0.2009 0.35899 0.87166 0.0
C1919 C 0.17565 0.35051 0.86296 0.0
H1920 H 0.81727 0.70501 0.69502 0.0
H1921 H 0.92639 0.72072 0.71166 0.0
H1922 H 0.96326 0.72568 0.69569 0.0
H1923 H 0.96488 0.7266 0.67707 0.0
H1924 H 0.85578 0.71027 0.66031 0.0
H1925 H 0.8188 0.70558 0.67629 0.0
C1926 C 0.84901 0.70919 0.69516 0.0
C1927 C 0.86905 0.71239 0.70453 0.0
C1928 C 0.87021 0.71261 0.68593 0.0
C1929 C 0.91021 0.71796 0.70457 0.0
C1930 C 0.93138 0.72108 0.69543 0.0
C1931 C 0.93309 0.7223 0.67689 0.0
C1932 C 0.91313 0.71892 0.66749 0.0
C1933 C 0.91183 0.71882 0.68608 0.0
C1934 C 0.87191 0.71321 0.66743 0.0
C1935 C 0.85069 0.71024 0.67656 0.0
H1936 H 0.45847 0.27787 0.67538 0.0
H1937 H 0.33483 0.18892 0.66327 0.0
H1938 H 0.31193 0.15573 0.68003 0.0
H1939 H 0.32706 0.1527 0.69813 0.0
H1940 H 0.45078 0.24181 0.71018 0.0
H1941 H 0.4735 0.275 0.69344 0.0
C1942 C 0.42653 0.25108 0.67639 0.0
C1943 C 0.39832 0.23581 0.6681 0.0
C1944 C 0.41355 0.23265 0.68605 0.0
C1945 C 0.3571 0.20115 0.66953 0.0
C1946 C 0.34399 0.18235 0.67912 0.0
C1947 C 0.35894 0.17956 0.69711 0.0
C1948 C 0.38726 0.19484 0.70539 0.0
C1949 C 0.37187 0.19804 0.68744 0.0
C1950 C 0.42843 0.22957 0.70394 0.0
C1951 C 0.44145 0.24837 0.69436 0.0
H1952 H 0.8126 0.16978 0.67851 0.0
H1953 H 0.92833 0.21968 0.66097 0.0
H1954 H 0.97043 0.2504 0.67641 0.0
H1955 H 0.97396 0.26275 0.69483 0.0
H1956 H 0.85829 0.21285 0.7124 0.0
H1957 H 0.81614 0.18227 0.69695 0.0
C1958 C 0.84708 0.18734 0.67806 0.0
C1959 C 0.86746 0.19251 0.66861 0.0
C1960 C 0.87084 0.20483 0.68695 0.0
C1961 C 0.91204 0.21535 0.66814 0.0
C1962 C 0.93601 0.23287 0.67696 0.0
C1963 C 0.93948 0.24523 0.69529 0.0
C1964 C 0.91914 0.23998 0.70474 0.0
C1965 C 0.91571 0.22781 0.6864 0.0
C1966 C 0.87456 0.21722 0.70522 0.0
C1967 C 0.85057 0.19978 0.69639 0.0
H1968 H 0.34999 0.25237 0.19532 0.0
H1969 H 0.42241 0.21045 0.21279 0.0
H1970 H 0.43921 0.18444 0.19723 0.0
H1971 H 0.43317 0.17385 0.17871 0.0
H1972 H 0.36079 0.21579 0.16123 0.0
H1973 H 0.34399 0.24181 0.17679 0.0
C1974 C 0.36949 0.23753 0.19573 0.0
C1975 C 0.38496 0.23325 0.2052 0.0
C1976 C 0.37893 0.2228 0.18676 0.0
C1977 C 0.41011 0.214 0.20561 0.0
C1978 C 0.41969 0.1992 0.19671 0.0
C1979 C 0.41369 0.1887 0.1783 0.0
C1980 C 0.39822 0.19297 0.16882 0.0
C1981 C 0.40426 0.20345 0.18726 0.0
C1982 C 0.37309 0.21225 0.16841 0.0
C1983 C 0.36351 0.22705 0.17731 0.0
H1984 H 0.9377 0.2969 0.18008 0.0
H1985 H 0.8921 0.18368 0.16178 0.0
H1986 H 0.86113 0.13935 0.17693 0.0
H1987 H 0.8471 0.13314 0.1953 0.0
H1988 H 0.8927 0.24626 0.21363 0.0
H1989 H 0.92376 0.29067 0.19849 0.0
C1990 C 0.92103 0.26248 0.17941 0.0
C1991 C 0.91713 0.24346 0.16983 0.0
C1992 C 0.90337 0.23742 0.18813 0.0
C1993 C 0.89546 0.19894 0.16906 0.0
C1994 C 0.87778 0.1737 0.17772 0.0
C1995 C 0.8638 0.16756 0.19599 0.0
C1996 C 0.86765 0.18652 0.20557 0.0
C1997 C 0.88151 0.19263 0.18728 0.0
C1998 C 0.88939 0.23104 0.20635 0.0
C1999 C 0.9071 0.25632 0.1977 0.0
H2000 H 0.83238 0.73299 0.17916 0.0
H2001 H 0.92458 0.71483 0.16247 0.0
H2002 H 0.95392 0.70636 0.17842 0.0
H2003 H 0.95196 0.70209 0.19701 0.0
H2004 H 0.85999 0.7203 0.21377 0.0
H2005 H 0.83103 0.7296 0.19782 0.0
C2006 C 0.8592 0.72762 0.17901 0.0
C2007 C 0.87638 0.72463 0.16964 0.0
C2008 C 0.8753 0.72195 0.18819 0.0
C2009 C 0.911 0.71752 0.16958 0.0
C2010 C 0.92752 0.71232 0.17869 0.0
C2011 C 0.92537 0.70782 0.19718 0.0
C2012 C 0.90798 0.71033 0.20656 0.0
C2013 C 0.90955 0.71393 0.18802 0.0
C2014 C 0.8737 0.71795 0.20665 0.0
C2015 C 0.8574 0.72358 0.19754 0.0
H2016 H 0.64688 0.86424 0.06699 0.0
H2017 H 0.51066 0.79207 0.06279 0.0
H2018 H 0.51385 0.72683 0.06101 0.0
H2019 H 0.55413 0.68942 0.06184 0.0
H2020 H 0.69003 0.76044 0.06665 0.0
H2021 H 0.68798 0.82682 0.06701 0.0
C2022 C 0.61783 0.83426 0.0657 0.0
C2023 C 0.5785 0.83333 0.06509 0.0
C2024 C 0.61977 0.79653 0.06483 0.0
C2025 C 0.54142 0.79412 0.0632 0.0
C2026 C 0.54317 0.75661 0.06225 0.0
C2027 C 0.58352 0.71936 0.06288 0.0
C2028 C 0.62222 0.71964 0.06427 0.0
C2029 C 0.58203 0.75734 0.06321 0.0
C2030 C 0.65979 0.75902 0.06556 0.0
C2031 C 0.6586 0.79706 0.06581 0.0
H2032 H 0.25581 0.81801 0.06624 0.0
H2033 H 0.33107 0.75687 0.06288 0.0
H2034 H 0.3955 0.8262 0.06137 0.0
H2035 H 0.43114 0.90404 0.0616 0.0
H2036 H 0.35681 0.9662 0.06478 0.0
H2037 H 0.2915 0.89668 0.06549 0.0
C2038 C 0.28617 0.8197 0.06502 0.0
C2039 C 0.28824 0.7818 0.06478 0.0
C2040 C 0.32343 0.85999 0.0641 0.0
C2041 C 0.32824 0.78515 0.06332 0.0
C2042 C 0.36523 0.82492 0.06238 0.0
C2043 C 0.40071 0.90264 0.06238 0.0
C2044 C 0.39923 0.94071 0.06317 0.0
C2045 C 0.3633 0.86255 0.06287 0.0
C2046 C 0.3592 0.93772 0.06413 0.0
C2047 C 0.32175 0.89785 0.06458 0.0
H2048 H 0.20562 0.55844 0.05952 0.0
H2049 H 0.14454 0.42464 0.06673 0.0
H2050 H 0.21428 0.429 0.06698 0.0
H2051 H 0.29316 0.47273 0.06666 0.0
H2052 H 0.35254 0.60654 0.05939 0.0
H2053 H 0.28279 0.60027 0.05784 0.0
C2054 C 0.20732 0.52998 0.06107 0.0
C2055 C 0.16978 0.49128 0.0632 0.0
C2056 C 0.24736 0.53292 0.06135 0.0
C2057 C 0.17281 0.45478 0.06504 0.0
C2058 C 0.21275 0.45738 0.06526 0.0
C2059 C 0.29089 0.50039 0.06456 0.0
C2060 C 0.3284 0.54027 0.06328 0.0
C2061 C 0.25036 0.49655 0.06364 0.0
C2062 C 0.32452 0.57571 0.06065 0.0
C2063 C 0.28455 0.5721 0.05969 0.0
H2064 H 0.86848 0.63146 0.47427 0.0
H2065 H 0.79307 0.49549 0.47875 0.0
H2066 H 0.72909 0.50087 0.48047 0.0
H2067 H 0.69389 0.54315 0.48018 0.0
H2068 H 0.76787 0.67917 0.47571 0.0
H2069 H 0.83304 0.67478 0.4748 0.0
C2070 C 0.83818 0.60303 0.47575 0.0
C2071 C 0.83591 0.56298 0.47628 0.0
C2072 C 0.80115 0.60634 0.47679 0.0
C2073 C 0.79601 0.52659 0.4781 0.0
C2074 C 0.7593 0.52967 0.47916 0.0
C2075 C 0.7242 0.5721 0.47908 0.0
C2076 C 0.72563 0.61154 0.478 0.0
C2077 C 0.76141 0.56926 0.47843 0.0
C2078 C 0.76554 0.64842 0.47661 0.0
C2079 C 0.80288 0.64587 0.47603 0.0
H2080 H 0.56356 0.1979 0.48634 0.0
H2081 H 0.42906 0.13628 0.47994 0.0
H2082 H 0.43392 0.20598 0.47879 0.0
H2083 H 0.4779 0.28474 0.47805 0.0
H2084 H 0.61245 0.34509 0.48441 0.0
H2085 H 0.60597 0.2756 0.48693 0.0
C2086 C 0.53503 0.19945 0.48482 0.0
C2087 C 0.49595 0.16154 0.48319 0.0
C2088 C 0.53823 0.23963 0.48397 0.0
C2089 C 0.45951 0.16466 0.48128 0.0
C2090 C 0.46237 0.20464 0.48053 0.0
C2091 C 0.50573 0.28283 0.48015 0.0
C2092 C 0.54581 0.32055 0.48089 0.0
C2093 C 0.50178 0.24242 0.48164 0.0
C2094 C 0.5814 0.31695 0.48354 0.0
C2095 C 0.57768 0.27709 0.48507 0.0
H2096 H 0.90979 0.4173 0.47956 0.0
H2097 H 0.97041 0.34186 0.4756 0.0
H2098 H 0.90053 0.27685 0.47547 0.0
H2099 H 0.82194 0.24177 0.47569 0.0
H2100 H 0.76255 0.31873 0.47895 0.0
H2101 H 0.83225 0.38252 0.48035 0.0
C2102 C 0.90798 0.3867 0.47873 0.0
C2103 C 0.9456 0.38471 0.47754 0.0
C2104 C 0.86774 0.34955 0.47856 0.0
C2105 C 0.94219 0.34454 0.47652 0.0
C2106 C 0.90214 0.3073 0.47642 0.0
C2107 C 0.82415 0.27247 0.47669 0.0
C2108 C 0.7866 0.27507 0.4772 0.0
C2109 C 0.86464 0.30946 0.4773 0.0
C2110 C 0.79048 0.31528 0.47869 0.0
C2111 C 0.83049 0.352 0.47939 0.0
H2112 H 0.57265 0.40763 0.98651 0.0
H2113 H 0.43796 0.33295 0.98041 0.0
H2114 H 0.44346 0.26844 0.97939 0.0
H2115 H 0.488 0.23444 0.97867 0.0
H2116 H 0.62276 0.31045 0.98465 0.0
H2117 H 0.61569 0.37321 0.98708 0.0
C2118 C 0.54421 0.37723 0.98508 0.0
C2119 C 0.50489 0.37543 0.98349 0.0
C2120 C 0.54779 0.34047 0.9843 0.0
C2121 C 0.46859 0.33549 0.98171 0.0
C2122 C 0.47182 0.29857 0.98104 0.0
C2123 C 0.51574 0.26453 0.98068 0.0
C2124 C 0.55604 0.26751 0.98134 0.0
C2125 C 0.51146 0.30081 0.9821 0.0
C2126 C 0.59155 0.30711 0.98386 0.0
C2127 C 0.58749 0.34309 0.98533 0.0
H2128 H 0.88084 0.27468 0.97502 0.0
H2129 H 0.80898 0.33903 0.97913 0.0
H2130 H 0.74367 0.27065 0.98095 0.0
H2131 H 0.70597 0.19274 0.98053 0.0
H2132 H 0.7763 0.12707 0.97604 0.0
H2133 H 0.84283 0.19562 0.97523 0.0
C2134 C 0.85092 0.27385 0.97629 0.0
C2135 C 0.8503 0.31252 0.97692 0.0
C2136 C 0.81298 0.23402 0.97725 0.0
C2137 C 0.81099 0.31029 0.97874 0.0
C2138 C 0.77338 0.271 0.97971 0.0
C2139 C 0.73578 0.1931 0.97945 0.0
C2140 C 0.73571 0.15429 0.97833 0.0
C2141 C 0.77389 0.23268 0.97889 0.0
C2142 C 0.77504 0.15607 0.97697 0.0
C2143 C 0.81319 0.19542 0.97645 0.0
H2144 H 0.8308 0.61952 0.97136 0.0
H2145 H 0.77622 0.49942 0.98726 0.0
H2146 H 0.84677 0.50839 0.98946 0.0
H2147 H 0.92303 0.54749 0.98605 0.0
H2148 H 0.97976 0.66793 0.97041 0.0
H2149 H 0.90951 0.66234 0.96923 0.0
C2150 C 0.83433 0.59561 0.97545 0.0
C2151 C 0.79773 0.55837 0.97898 0.0
C2152 C 0.87545 0.60109 0.97677 0.0
C2153 C 0.80333 0.5278 0.98422 0.0
C2154 C 0.84382 0.53305 0.98555 0.0
C2155 C 0.92026 0.57285 0.98245 0.0
C2156 C 0.95667 0.60797 0.97824 0.0
C2157 C 0.87993 0.5691 0.98171 0.0
C2158 C 0.95239 0.64068 0.97375 0.0
C2159 C 0.91211 0.63725 0.97301 0.0
H2160 H 0.43022 0.55488 0.56078 0.0
H2161 H 0.35781 0.41955 0.56639 0.0
H2162 H 0.29257 0.42347 0.56774 0.0
H2163 H 0.25661 0.46612 0.56823 0.0
H2164 H 0.32998 0.60152 0.56283 0.0
H2165 H 0.39408 0.59657 0.56042 0.0
C2166 C 0.40019 0.52602 0.56222 0.0
C2167 C 0.39925 0.48691 0.56353 0.0
C2168 C 0.36285 0.52857 0.56307 0.0
C2169 C 0.35974 0.45005 0.56532 0.0
C2170 C 0.32236 0.45233 0.56615 0.0
C2171 C 0.28663 0.49459 0.56653 0.0
C2172 C 0.28827 0.53425 0.56577 0.0
C2173 C 0.32363 0.49155 0.5652 0.0
C2174 C 0.32745 0.57056 0.56338 0.0
C2175 C 0.36427 0.56779 0.56206 0.0
H2176 H 0.64112 0.81148 0.5657 0.0
H2177 H 0.50489 0.75138 0.56202 0.0
H2178 H 0.51051 0.82105 0.56083 0.0
H2179 H 0.55329 0.89874 0.56148 0.0
H2180 H 0.68966 0.95979 0.56501 0.0
H2181 H 0.68474 0.89003 0.56535 0.0
C2182 C 0.61268 0.81351 0.56447 0.0
C2183 C 0.57253 0.77588 0.56404 0.0
C2184 C 0.61613 0.85392 0.56375 0.0
C2185 C 0.53611 0.77953 0.56258 0.0
C2186 C 0.53931 0.81946 0.56183 0.0
C2187 C 0.58214 0.89705 0.56225 0.0
C2188 C 0.62185 0.93481 0.56326 0.0
C2189 C 0.57906 0.85684 0.56253 0.0
C2190 C 0.65868 0.9315 0.5642 0.0
C2191 C 0.65586 0.89152 0.56444 0.0
H2192 H 0.29826 0.85504 0.56743 0.0
H2193 H 0.35944 0.78205 0.56051 0.0
H2194 H 0.29015 0.71749 0.55921 0.0
H2195 H 0.2126 0.68104 0.56066 0.0
H2196 H 0.15028 0.75303 0.56739 0.0
H2197 H 0.21957 0.81875 0.56786 0.0
C2198 C 0.29652 0.82518 0.56548 0.0
C2199 C 0.33442 0.82366 0.56417 0.0
C2200 C 0.2563 0.7879 0.56468 0.0
C2201 C 0.33115 0.78432 0.56177 0.0
C2202 C 0.29141 0.7473 0.56095 0.0
C2203 C 0.21393 0.71108 0.56217 0.0
C2204 C 0.17602 0.71186 0.56404 0.0
C2205 C 0.25384 0.74861 0.56251 0.0
C2206 C 0.17875 0.75131 0.5659 0.0
C2207 C 0.21846 0.78894 0.56622 0.0
H2208 H 0.21857 0.02544 0.38875 0.0
H2209 H 0.35298 0.09531 0.39541 0.0
H2210 H 0.35027 0.16128 0.39671 0.0
H2211 H 0.30852 0.19827 0.3971 0.0
H2212 H 0.17362 0.12683 0.39097 0.0
H2213 H 0.178 0.06269 0.38821 0.0
C2214 C 0.24752 0.0551 0.39038 0.0
C2215 C 0.28598 0.0551 0.39202 0.0
C2216 C 0.24558 0.09278 0.39127 0.0
C2217 C 0.32299 0.09413 0.39408 0.0
C2218 C 0.32137 0.1319 0.39489 0.0
C2219 C 0.28002 0.16869 0.39517 0.0
C2220 C 0.24068 0.16771 0.39431 0.0
C2221 C 0.28264 0.13148 0.3937 0.0
C2222 C 0.2044 0.12903 0.39159 0.0
C2223 C 0.20681 0.0921 0.39008 0.0
H2224 H 0.08617 0.23626 0.39413 0.0
H2225 H 1.01406 0.30102 0.39671 0.0
H2226 H 0.94787 0.23236 0.39716 0.0
H2227 H 0.91063 0.15381 0.39782 0.0
H2228 H 0.98348 0.08973 0.39573 0.0
H2229 H 0.04893 0.15821 0.39394 0.0
C2230 C 0.05604 0.2356 0.39471 0.0
C2231 C 0.05543 0.27415 0.39544 0.0
C2232 C 1.01806 0.19596 0.39508 0.0
C2233 C 1.01579 0.27215 0.39613 0.0
C2234 C 0.97782 0.23278 0.39643 0.0
C2235 C 0.94081 0.15474 0.39699 0.0
C2236 C 0.94185 0.11632 0.39698 0.0
C2237 C 0.97861 0.19446 0.39609 0.0
C2238 C 0.98135 0.11844 0.39568 0.0
C2239 C 1.01896 0.15774 0.39472 0.0
H2240 H 0.86734 0.89762 0.39369 0.0
H2241 H 0.80887 0.76246 0.39905 0.0
H2242 H 0.87938 0.76891 0.39942 0.0
H2243 H 0.95808 0.81387 0.39919 0.0
H2244 H 1.01522 0.94889 0.39372 0.0
H2245 H 0.94481 0.94143 0.39258 0.0
C2246 C 0.86972 0.86933 0.39488 0.0
C2247 C 0.83244 0.82953 0.39638 0.0
C2248 C 0.91035 0.87335 0.39518 0.0
C2249 C 0.83672 0.79347 0.39785 0.0
C2250 C 0.87716 0.7972 0.39811 0.0
C2251 C 0.95523 0.84163 0.39761 0.0
C2252 C 0.99239 0.88206 0.39664 0.0
C2253 C 0.91429 0.83711 0.39691 0.0
C2254 C 0.98759 0.91755 0.3947 0.0
C2255 C 0.94719 0.91327 0.39398 0.0
H2256 H 0.35643 0.87187 0.81214 0.0
H2257 H 0.42988 1.00874 0.80932 0.0
H2258 H 0.49559 1.00541 0.80881 0.0
H2259 H 0.5319 0.96318 0.80821 0.0
H2260 H 0.45712 0.82611 0.81032 0.0
H2261 H 0.39253 0.83027 0.81224 0.0
C2262 C 0.38674 0.90119 0.81149 0.0
C2263 C 0.38789 0.94058 0.81071 0.0
C2264 C 0.42435 0.89899 0.81107 0.0
C2265 C 0.42776 0.97799 0.80993 0.0
C2266 C 0.46543 0.97607 0.8096 0.0
C2267 C 0.5015 0.93414 0.80907 0.0
C2268 C 0.49975 0.8943 0.80907 0.0
C2269 C 0.46407 0.93667 0.80999 0.0
C2270 C 0.45991 0.85724 0.81041 0.0
C2271 C 0.42274 0.85956 0.81142 0.0
H2272 H 0.13937 0.61311 0.80884 0.0
H2273 H 0.27645 0.67561 0.81056 0.0
H2274 H 0.27226 0.60676 0.81235 0.0
H2275 H 0.23047 0.52884 0.81225 0.0
H2276 H 0.0935 0.46546 0.80988 0.0
H2277 H 0.09706 0.53458 0.80947 0.0
C2278 C 0.16841 0.61177 0.80958 0.0
C2279 C 0.20825 0.64991 0.8095 0.0
C2280 C 0.16584 0.5718 0.81044 0.0
C2281 C 0.24533 0.64719 0.8107 0.0
C2282 C 0.24299 0.60766 0.81164 0.0
C2283 C 0.2012 0.52988 0.81172 0.0
C2284 C 0.1617 0.4916 0.81104 0.0
C2285 C 0.2035 0.56976 0.81137 0.0
C2286 C 0.12434 0.49411 0.81041 0.0
C2287 C 0.12638 0.53375 0.81014 0.0
H2288 H 0.5724 0.74493 0.81222 0.0
H2289 H 0.63595 0.67196 0.80882 0.0
H2290 H 0.56696 0.60605 0.80866 0.0
H2291 H 0.4884 0.56941 0.80847 0.0
H2292 H 0.42564 0.64332 0.81128 0.0
H2293 H 0.49453 0.70835 0.81286 0.0
C2294 C 0.57142 0.71467 0.81152 0.0
C2295 C 0.60966 0.7137 0.81046 0.0
C2296 C 0.53161 0.67691 0.81132 0.0
C2297 C 0.60728 0.67392 0.80964 0.0
C2298 C 0.56773 0.63614 0.80951 0.0
C2299 C 0.48971 0.59972 0.80942 0.0
C2300 C 0.45154 0.6012 0.80969 0.0
C2301 C 0.52965 0.63729 0.81016 0.0
C2302 C 0.45416 0.64086 0.81114 0.0
C2303 C 0.49368 0.67823 0.81196 0.0
H2304 H 0.14832 0.57084 0.30898 0.0
H2305 H 0.28545 0.64309 0.30675 0.0
H2306 H 0.28365 0.7093 0.30751 0.0
H2307 H 0.24329 0.74698 0.30781 0.0
H2308 H 0.10601 0.67512 0.30936 0.0
H2309 H 0.10789 0.60873 0.30971 0.0
C2310 C 0.17789 0.60101 0.30861 0.0
C2311 C 0.217 0.60156 0.30776 0.0
C2312 C 0.17663 0.63922 0.30885 0.0
C2313 C 0.25488 0.64127 0.30753 0.0
C2314 C 0.25388 0.67932 0.30787 0.0
C2315 C 0.21367 0.71688 0.30829 0.0
C2316 C 0.1745 0.71633 0.30852 0.0
C2317 C 0.21494 0.67871 0.3084 0.0
C2318 C 0.13663 0.67677 0.30915 0.0
C2319 C 0.13767 0.63868 0.30934 0.0
H2320 H 0.35875 0.52488 0.31167 0.0
H2321 H 0.43151 0.46042 0.31197 0.0
H2322 H 0.49765 0.52922 0.31184 0.0
H2323 H 0.53485 0.60768 0.31077 0.0
H2324 H 0.46121 0.67116 0.30974 0.0
H2325 H 0.39564 0.60278 0.31125 0.0
C2326 C 0.38898 0.52562 0.31179 0.0
C2327 C 0.38984 0.48712 0.31178 0.0
C2328 C 0.42692 0.5653 0.31159 0.0
C2329 C 0.4296 0.48925 0.31196 0.0
C2330 C 0.46754 0.5287 0.31186 0.0
C2331 C 0.5045 0.60667 0.31084 0.0
C2332 C 0.50336 0.64496 0.31009 0.0
C2333 C 0.46659 0.56694 0.31152 0.0
C2334 C 0.4635 0.64266 0.31043 0.0
C2335 C 0.4258 0.60338 0.3112 0.0
H2336 H 0.4628 0.87417 0.31599 0.0
H2337 H 0.49543 0.97106 0.29324 0.0
H2338 H 0.5704 0.99147 0.29447 0.0
H2339 H 0.62666 0.97871 0.30119 0.0
H2340 H 0.59308 0.87946 0.3233 0.0
H2341 H 0.51937 0.86395 0.32333 0.0
C2342 C 0.48636 0.90009 0.31139 0.0
C2343 C 0.47316 0.92065 0.30445 0.0
C2344 C 0.52962 0.91151 0.31206 0.0
C2345 C 0.50434 0.95401 0.29851 0.0
C2346 C 0.54741 0.96597 0.29925 0.0
C2347 C 0.60338 0.95446 0.30619 0.0
C2348 C 0.61549 0.93059 0.31231 0.0
C2349 C 0.56045 0.94459 0.3059 0.0
C2350 C 0.58467 0.89848 0.31856 0.0
C2351 C 0.54238 0.88939 0.31854 0.0
H2352 H 0.08678 0.88513 0.88932 0.0
H2353 H 1.01369 0.75096 0.89622 0.0
H2354 H 0.94857 0.75542 0.89693 0.0
H2355 H 0.9133 0.79885 0.89693 0.0
H2356 H 0.9876 0.93302 0.89001 0.0
H2357 H 0.05122 0.92706 0.88816 0.0
C2358 C 0.05662 0.85659 0.89088 0.0
C2359 C 0.05546 0.81771 0.89275 0.0
C2360 C 1.01943 0.85954 0.89143 0.0
C2361 C 1.01578 0.78126 0.8947 0.0
C2362 C 0.97848 0.78389 0.89518 0.0
C2363 C 0.94322 0.82671 0.89486 0.0
C2364 C 0.94536 0.86652 0.89374 0.0
C2365 C 0.98002 0.82306 0.89375 0.0
C2366 C 0.98481 0.90218 0.89115 0.0
C2367 C 1.0213 0.89875 0.89001 0.0
H2368 H 0.21896 0.23419 0.88896 0.0
H2369 H 0.35457 0.29716 0.89393 0.0
H2370 H 0.35046 0.22769 0.89494 0.0
H2371 H 0.30726 0.1487 0.89567 0.0
H2372 H 0.17109 0.08748 0.89154 0.0
H2373 H 0.17686 0.15647 0.88885 0.0
C2374 C 0.24792 0.23304 0.89015 0.0
C2375 C 0.28712 0.27135 0.89139 0.0
C2376 C 0.24515 0.19299 0.89094 0.0
C2377 C 0.32401 0.26857 0.89289 0.0
C2378 C 0.32158 0.22869 0.89354 0.0
C2379 C 0.27875 0.1503 0.89419 0.0
C2380 C 0.23867 0.11222 0.89384 0.0
C2381 C 0.28214 0.1906 0.89281 0.0
C2382 C 0.20245 0.11556 0.89172 0.0
C2383 C 0.20565 0.15527 0.89026 0.0
H2384 H 0.87145 1.0136 0.89332 0.0
H2385 H 0.81143 0.08983 0.89682 0.0
H2386 H 0.8816 0.15443 0.89734 0.0
H2387 H 0.96018 0.18892 0.89768 0.0
H2388 H 1.01883 0.11107 0.89495 0.0
H2389 H 0.94901 0.0478 0.89305 0.0
C2390 C 0.8734 0.04427 0.89412 0.0
C2391 C 0.83579 0.04652 0.89507 0.0
C2392 C 0.91382 0.0812 0.89454 0.0
C2393 C 0.83955 0.08686 0.89607 0.0
C2394 C 0.87979 0.12389 0.8964 0.0
C2395 C 0.95781 0.15815 0.89669 0.0
C2396 C 0.99525 0.1552 0.89649 0.0
C2397 C 0.91719 0.1214 0.8958 0.0
C2398 C 0.99108 0.11486 0.895 0.0
C2399 C 0.95097 0.07841 0.894 0.0
H2400 H 0.87479 0.34729 0.72947 0.0
H2401 H 1.01192 0.42194 0.73112 0.0
H2402 H 1.00807 0.48728 0.73172 0.0
H2403 H 0.96559 0.52308 0.73263 0.0
H2404 H 0.82855 0.44792 0.73091 0.0
H2405 H 0.83272 0.38302 0.72964 0.0
C2406 C 0.904 0.37779 0.72989 0.0
C2407 C 0.94366 0.3794 0.73027 0.0
C2408 C 0.90156 0.41526 0.73033 0.0
C2409 C 0.98096 0.41947 0.73081 0.0
C2410 C 0.97877 0.45694 0.73118 0.0
C2411 C 0.93661 0.49261 0.73183 0.0
C2412 C 0.89675 0.49065 0.73192 0.0
C2413 C 0.93922 0.45521 0.73106 0.0
C2414 C 0.85962 0.45058 0.73104 0.0
C2415 C 0.86198 0.41337 0.73024 0.0
H2416 H 0.5854 0.48339 0.73297 0.0
H2417 H 0.66034 0.42202 0.72942 0.0
H2418 H 0.72493 0.49135 0.72798 0.0
H2419 H 0.76053 0.56912 0.72818 0.0
H2420 H 0.68646 0.63143 0.73166 0.0
H2421 H 0.62111 0.56195 0.73243 0.0
C2422 C 0.61574 0.48508 0.73174 0.0
C2423 C 0.61777 0.44721 0.73137 0.0
C2424 C 0.65298 0.52526 0.73087 0.0
C2425 C 0.65767 0.45038 0.72991 0.0
C2426 C 0.69469 0.4901 0.72902 0.0
C2427 C 0.73014 0.56774 0.72904 0.0
C2428 C 0.72863 0.60574 0.72988 0.0
C2429 C 0.69278 0.52772 0.72957 0.0
C2430 C 0.68874 0.6029 0.73097 0.0
C2431 C 0.65132 0.5631 0.73145 0.0
H2432 H 0.53961 0.22744 0.72868 0.0
H2433 H 0.47233 0.09 0.72925 0.0
H2434 H 0.54044 0.0911 0.72931 0.0
H2435 H 0.61918 0.13147 0.73023 0.0
H2436 H 0.68497 0.26896 0.73022 0.0
H2437 H 0.61725 0.26726 0.72877 0.0
C2438 C 0.53957 0.19753 0.72876 0.0
C2439 C 0.50063 0.15861 0.72905 0.0
C2440 C 0.57871 0.19844 0.7289 0.0
C2441 C 0.50164 0.1204 0.72903 0.0
C2442 C 0.54064 0.12105 0.72911 0.0
C2443 C 0.61875 0.1611 0.72991 0.0
C2444 C 0.65744 0.20035 0.73038 0.0
C2445 C 0.5794 0.15993 0.72923 0.0
C2446 C 0.65605 0.23831 0.72976 0.0
C2447 C 0.61719 0.23738 0.72901 0.0
H2448 H 0.20229 0.29302 0.1414 0.0
H2449 H 0.12732 0.1573 0.14631 0.0
H2450 H 0.06313 0.16248 0.14787 0.0
H2451 H 1.02767 0.20461 0.14726 0.0
H2452 H 0.10164 0.34041 0.14243 0.0
H2453 H 0.16681 0.33612 0.14168 0.0
C2454 C 0.17205 0.26461 0.14296 0.0
C2455 C 0.16991 0.2247 0.14365 0.0
C2456 C 0.13498 0.2678 0.14389 0.0
C2457 C 0.1301 0.1883 0.14555 0.0
C2458 C 0.09329 0.19126 0.14651 0.0
C2459 C 0.05799 0.23349 0.14611 0.0
C2460 C 0.05945 0.27284 0.14486 0.0
C2461 C 0.09526 0.23073 0.14558 0.0
C2462 C 0.09932 0.30971 0.14343 0.0
C2463 C 0.13667 0.30723 0.14296 0.0
H2464 H 0.81646 0.94844 0.14352 0.0
H2465 H 0.95381 1.01309 0.14386 0.0
H2466 H 0.95127 0.94485 0.14539 0.0
H2467 H 0.91048 0.86683 0.1455 0.0
H2468 H 0.77313 0.80157 0.14456 0.0
H2469 H 0.77539 0.87006 0.14431 0.0
C2470 C 0.8459 0.94769 0.14391 0.0
C2471 C 0.88532 0.98614 0.14351 0.0
C2472 C 0.84424 0.90815 0.14461 0.0
C2473 C 0.92302 0.9843 0.14425 0.0
C2474 C 0.9216 0.94517 0.14504 0.0
C2475 C 0.8809 0.86738 0.14531 0.0
C2476 C 0.84162 0.82881 0.14499 0.0
C2477 C 0.88243 0.90689 0.14507 0.0
C2478 C 0.8038 0.83055 0.14479 0.0
C2479 C 0.80508 0.86978 0.14462 0.0
H2480 H 0.24897 0.08117 0.14648 0.0
H2481 H 0.3131 1.01007 0.14079 0.0
H2482 H 0.24422 0.94418 0.13976 0.0
H2483 H 0.16552 0.90724 0.13959 0.0
H2484 H 0.10227 0.97938 0.14495 0.0
H2485 H 0.17107 0.04413 0.14709 0.0
C2486 C 0.24814 0.0513 0.14509 0.0
C2487 C 0.28654 0.0509 0.14367 0.0
C2488 C 0.20841 1.01358 0.14442 0.0
C2489 C 0.28434 1.01159 0.14193 0.0
C2490 C 0.24484 0.97384 0.1413 0.0
C2491 C 0.16673 0.93713 0.14121 0.0
C2492 C 0.12845 0.93821 0.14205 0.0
C2493 C 0.20663 0.97454 0.14236 0.0
C2494 C 0.13091 0.97726 0.14435 0.0
C2495 C 0.17036 1.01446 0.14551 0.0
H2496 H 0.82213 0.91018 0.63979 0.0
H2497 H 0.95899 0.98494 0.64219 0.0
H2498 H 0.95488 0.04986 0.64359 0.0
H2499 H 0.9129 0.08576 0.64366 0.0
H2500 H 0.77593 1.01136 0.64135 0.0
H2501 H 0.77973 0.94604 0.64061 0.0
C2502 C 0.85107 0.94056 0.64077 0.0
C2503 C 0.89088 0.94241 0.64083 0.0
C2504 C 0.8485 0.97795 0.6416 0.0
C2505 C 0.92797 0.98237 0.64195 0.0
C2506 C 0.92564 1.01959 0.64281 0.0
C2507 C 0.88372 0.05531 0.64306 0.0
C2508 C 0.84413 0.05377 0.64254 0.0
C2509 C 0.88613 1.01782 0.64256 0.0
C2510 C 0.80685 1.01377 0.64178 0.0
C2511 C 0.80901 0.9763 0.64132 0.0
H2512 H 0.20266 0.94394 0.64044 0.0
H2513 H 0.13069 1.00882 0.6429 0.0
H2514 H 0.06498 0.94054 0.64471 0.0
H2515 H 1.02728 0.86246 0.64461 0.0
H2516 H 0.09844 0.79683 0.64183 0.0
H2517 H 0.16492 0.86529 0.64112 0.0
C2518 C 0.17261 0.94321 0.64136 0.0
C2519 C 0.17189 0.98181 0.64148 0.0
C2520 C 0.13467 0.90361 0.64231 0.0
C2521 C 0.13255 0.97996 0.64287 0.0
C2522 C 0.0948 0.94079 0.64384 0.0
C2523 C 0.05729 0.86291 0.64392 0.0
C2524 C 0.05758 0.8242 0.64323 0.0
C2525 C 0.0954 0.90242 0.64344 0.0
C2526 C 0.09702 0.82586 0.64239 0.0
C2527 C 0.13512 0.86511 0.64194 0.0
H2528 H 0.24751 0.20278 0.64315 0.0
H2529 H 0.31557 0.34024 0.64358 0.0
H2530 H 0.24775 0.33967 0.64352 0.0
H2531 H 0.16899 0.29992 0.64257 0.0
H2532 H 0.10234 0.16245 0.64162 0.0
H2533 H 0.16979 0.16346 0.64283 0.0
C2534 C 0.2478 0.2328 0.64328 0.0
C2535 C 0.28695 0.27159 0.6433 0.0
C2536 C 0.20876 0.23222 0.64316 0.0
C2537 C 0.28616 0.30992 0.64356 0.0
C2538 C 0.24729 0.30959 0.64349 0.0
C2539 C 0.16914 0.27013 0.6426 0.0
C2540 C 0.13021 0.23111 0.64197 0.0
C2541 C 0.20836 0.2709 0.64315 0.0
C2542 C 0.13137 0.19295 0.64223 0.0
C2543 C 0.17009 0.19348 0.64283 0.0
H2544 H 0.5827 0.13662 0.23264 0.0
H2545 H 0.65822 0.27292 0.2288 0.0
H2546 H 0.72269 0.26799 0.22767 0.0
H2547 H 0.75807 0.22578 0.22838 0.0
H2548 H 0.68333 0.08938 0.2321 0.0
H2549 H 0.61813 0.0936 0.23241 0.0
C2550 C 0.61314 0.16523 0.23139 0.0
C2551 C 0.61537 0.20518 0.23088 0.0
C2552 C 0.65031 0.16218 0.23071 0.0
C2553 C 0.65539 0.24184 0.22941 0.0
C2554 C 0.69235 0.23904 0.2287 0.0
C2555 C 0.72758 0.19678 0.2292 0.0
C2556 C 0.72587 0.15727 0.23027 0.0
C2557 C 0.69025 0.19947 0.22946 0.0
C2558 C 0.68582 0.12022 0.23125 0.0
C2559 C 0.64845 0.12264 0.23147 0.0
H2560 H 0.98614 0.60841 0.23908 0.0
H2561 H 0.87723 0.57269 0.21995 0.0
H2562 H 0.86247 0.49929 0.21943 0.0
H2563 H 0.87682 0.44364 0.22554 0.0
H2564 H 0.98326 0.47824 0.24546 0.0
H2565 H 1.00249 0.55304 0.24457 0.0
C2566 C 0.95975 0.58469 0.23464 0.0
C2567 C 0.93295 0.59607 0.22953 0.0
C2568 C 0.95054 0.54198 0.23464 0.0
C2569 C 0.89835 0.56477 0.22396 0.0
C2570 C 0.88977 0.52269 0.22368 0.0
C2571 C 0.90453 0.46765 0.22958 0.0
C2572 C 0.92832 0.45522 0.23561 0.0
C2573 C 0.91506 0.51067 0.22917 0.0
C2574 C 0.96398 0.48679 0.24087 0.0
C2575 C 0.97514 0.52966 0.24033 0.0
H2576 H 0.53483 0.34634 0.22819 0.0
H2577 H 0.46863 0.41626 0.23257 0.0
H2578 H 0.53687 0.48281 0.23358 0.0
H2579 H 0.61551 0.52077 0.23413 0.0
H2580 H 0.68089 0.44986 0.23017 0.0
H2581 H 0.61282 0.38436 0.22797 0.0
C2582 C 0.53508 0.37609 0.22929 0.0
C2583 C 0.49628 0.37598 0.23035 0.0
C2584 C 0.57446 0.41422 0.22997 0.0
C2585 C 0.49773 0.41513 0.23172 0.0
C2586 C 0.53685 0.45328 0.23234 0.0
C2587 C 0.61493 0.49099 0.2328 0.0
C2588 C 0.6536 0.4905 0.23238 0.0
C2589 C 0.57544 0.45313 0.23164 0.0
C2590 C 0.65196 0.45156 0.23045 0.0
C2591 C 0.61291 0.41391 0.22925 0.0
H2592 H 0.528 0.44864 0.06674 0.0
H2593 H 0.66258 0.49186 0.06683 0.0
H2594 H 0.64652 0.41781 0.06514 0.0
H2595 H 0.59344 0.34049 0.06356 0.0
H2596 H 0.45942 0.3003 0.06393 0.0
H2597 H 0.47643 0.37383 0.06532 0.0
C2598 C 0.55416 0.4423 0.0664 0.0
C2599 C 0.59657 0.47609 0.06693 0.0
C2600 C 0.54473 0.40005 0.06541 0.0
C2601 C 0.62965 0.46662 0.06647 0.0
C2602 C 0.62044 0.42425 0.06548 0.0
C2603 C 0.56798 0.34783 0.06399 0.0
C2604 C 0.5251 0.31458 0.0635 0.0
C2605 C 0.57798 0.39062 0.06495 0.0
C2606 C 0.49263 0.32494 0.06401 0.0
C2607 C 0.5023 0.36708 0.06492 0.0
H2608 H 0.77947 0.29129 0.0677 0.0
H2609 H 0.81031 0.20444 0.05256 0.0
H2610 H 0.73532 0.1505 0.05201 0.0
H2611 H 0.66174 0.12608 0.05661 0.0
H2612 H 0.62802 0.21111 0.07143 0.0
H2613 H 0.70317 0.26802 0.07108 0.0
C2614 C 0.76972 0.26078 0.06416 0.0
C2615 C 0.80089 0.25181 0.06036 0.0
C2616 C 0.72602 0.22956 0.06381 0.0
C2617 C 0.78742 0.21199 0.0558 0.0
C2618 C 0.7444 0.18111 0.05541 0.0
C2619 C 0.67067 0.15713 0.05974 0.0
C2620 C 0.63938 0.16415 0.06418 0.0
C2621 C 0.71359 0.18924 0.05956 0.0
C2622 C 0.65147 0.20484 0.06799 0.0
C2623 C 0.69448 0.23726 0.06784 0.0
H2624 H 0.9886 0.57747 0.07564 0.0
H2625 H 0.90217 0.45038 0.06494 0.0
H2626 H 0.8456 0.46847 0.06337 0.0
H2627 H 0.82291 0.52263 0.06395 0.0
H2628 H 0.91115 0.649 0.075 0.0
H2629 H 0.96528 0.62915 0.07722 0.0
C2630 C 0.95731 0.55351 0.07301 0.0
C2631 C 0.94966 0.51277 0.07032 0.0
C2632 C 0.92557 0.56431 0.07199 0.0
C2633 C 0.90878 0.48194 0.06709 0.0
C2634 C 0.87662 0.49244 0.06611 0.0
C2635 C 0.85385 0.54572 0.06692 0.0
C2636 C 0.86304 0.58761 0.0691 0.0
C2637 C 0.88495 0.53386 0.06836 0.0
C2638 C 0.90343 0.61702 0.07294 0.0
C2639 C 0.93435 0.60556 0.07434 0.0
H2640 H 0.45589 0.52183 0.47758 0.0
H2641 H 0.49936 0.65584 0.47434 0.0
H2642 H 0.42533 0.64042 0.47546 0.0
H2643 H 0.34768 0.58786 0.4773 0.0
H2644 H 0.30758 0.45441 0.48028 0.0
H2645 H 0.38107 0.47093 0.47937 0.0
C2646 C 0.44959 0.54799 0.47708 0.0
C2647 C 0.48345 0.59003 0.47582 0.0
C2648 C 0.40735 0.53893 0.47774 0.0
C2649 C 0.47407 0.62318 0.4753 0.0
C2650 C 0.43169 0.61432 0.47593 0.0
C2651 C 0.35511 0.56247 0.47772 0.0
C2652 C 0.32191 0.51991 0.47899 0.0
C2653 C 0.39796 0.57219 0.47713 0.0
C2654 C 0.33226 0.48746 0.47955 0.0
C2655 C 0.37436 0.49682 0.47895 0.0
H2656 H 0.53134 0.81736 0.47787 0.0
H2657 H 0.6644 0.9114 0.47432 0.0
H2658 H 0.64659 0.96755 0.47337 0.0
H2659 H 0.59402 0.99056 0.47352 0.0
H2660 H 0.46054 0.89782 0.47671 0.0
H2661 H 0.47778 0.84076 0.47763 0.0
C2662 C 0.55645 0.85008 0.47682 0.0
C2663 C 0.59933 0.85987 0.4763 0.0
C2664 C 0.54594 0.88259 0.47616 0.0
C2665 C 0.63127 0.90269 0.47501 0.0
C2666 C 0.62109 0.93496 0.47436 0.0
C2667 C 0.56846 0.9579 0.47438 0.0
C2668 C 0.52591 0.94876 0.47505 0.0
C2669 C 0.57862 0.92533 0.47495 0.0
C2670 C 0.49354 0.90603 0.47617 0.0
C2671 C 0.50343 0.87331 0.47672 0.0
H2672 H 0.29117 0.75879 0.48661 0.0
H2673 H 0.2195 0.80261 0.46935 0.0
H2674 H 0.16797 0.72983 0.46481 0.0
H2675 H 0.14141 0.6541 0.46615 0.0
H2676 H 0.21082 0.60762 0.48328 0.0
H2677 H 0.26608 0.68122 0.48707 0.0
C2678 C 0.26441 0.7524 0.48181 0.0
C2679 C 0.25884 0.78632 0.47854 0.0
C2680 C 0.2348 0.71009 0.47908 0.0
C2681 C 0.22398 0.77729 0.47228 0.0
C2682 C 0.19468 0.73563 0.46956 0.0
C2683 C 0.16878 0.6599 0.47066 0.0
C2684 C 0.17176 0.62542 0.47452 0.0
C2685 C 0.19953 0.70186 0.47299 0.0
C2686 C 0.20779 0.63362 0.4802 0.0
C2687 C 0.23915 0.67569 0.48245 0.0
H2688 H 0.59813 0.6433 0.97126 0.0
H2689 H 0.46692 0.60171 0.97844 0.0
H2690 H 0.48412 0.67611 0.97957 0.0
H2691 H 0.53747 0.75341 0.97909 0.0
H2692 H 0.66816 0.79287 0.97173 0.0
H2693 H 0.65005 0.71889 0.9703 0.0
C2694 C 0.57303 0.65021 0.97304 0.0
C2695 C 0.53118 0.61662 0.97477 0.0
C2696 C 0.58321 0.69291 0.97378 0.0
C2697 C 0.49935 0.6267 0.97703 0.0
C2698 C 0.50924 0.66934 0.97772 0.0
C2699 C 0.56194 0.74584 0.97711 0.0
C2700 C 0.60437 0.77905 0.97567 0.0
C2701 C 0.55121 0.70279 0.97619 0.0
C2702 C 0.63554 0.76832 0.97315 0.0
C2703 C 0.62514 0.72588 0.97223 0.0
H2704 H 0.35248 0.80348 0.97637 0.0
H2705 H 0.31452 0.89876 0.97507 0.0
H2706 H 0.3886 0.95473 0.97439 0.0
H2707 H 0.46346 0.97732 0.97429 0.0
H2708 H 0.50489 0.88482 0.97578 0.0
H2709 H 0.43016 0.8272 0.97634 0.0
C2710 C 0.36048 0.8365 0.97598 0.0
C2711 C 0.32757 0.84662 0.97565 0.0
C2712 C 0.40373 0.86909 0.97564 0.0
C2713 C 0.33877 0.8897 0.9751 0.0
C2714 C 0.38128 0.92191 0.97479 0.0
C2715 C 0.4566 0.94464 0.97474 0.0
C2716 C 0.49017 0.93568 0.975 0.0
C2717 C 0.41392 0.912 0.97504 0.0
C2718 C 0.47992 0.89286 0.97557 0.0
C2719 C 0.43711 0.85988 0.97589 0.0
H2720 H 0.13504 0.51336 0.97476 0.0
H2721 H 0.2242 0.64507 0.98165 0.0
H2722 H 0.27978 0.62694 0.98481 0.0
H2723 H 0.3023 0.57307 0.98584 0.0
H2724 H 0.21228 0.44227 0.97811 0.0
H2725 H 0.1574 0.46068 0.97543 0.0
C2726 C 0.16662 0.53832 0.97693 0.0
C2727 C 0.1754 0.58056 0.97796 0.0
C2728 C 0.19811 0.52769 0.97876 0.0
C2729 C 0.21662 0.61233 0.98074 0.0
C2730 C 0.24832 0.60192 0.98261 0.0
C2731 C 0.27078 0.54858 0.98352 0.0
C2732 C 0.26163 0.50614 0.9823 0.0
C2733 C 0.23934 0.5596 0.98168 0.0
C2734 C 0.22027 0.47492 0.9794 0.0
C2735 C 0.18885 0.4855 0.97771 0.0
H2736 H 0.64257 0.4708 0.57417 0.0
H2737 H 0.64867 0.55073 0.54933 0.0
H2738 H 0.72409 0.57505 0.54688 0.0
H2739 H 0.78964 0.57919 0.55279 0.0
H2740 H 0.78585 0.5017 0.57799 0.0
H2741 H 0.70872 0.47138 0.5794 0.0
C2742 C 0.66037 0.49275 0.5681 0.0
C2743 C 0.64024 0.50886 0.5619 0.0
C2744 C 0.70435 0.50772 0.56692 0.0
C2745 C 0.66365 0.53791 0.55417 0.0
C2746 C 0.70679 0.55198 0.55279 0.0
C2747 C 0.77195 0.55504 0.55847 0.0
C2748 C 0.79375 0.54296 0.56529 0.0
C2749 C 0.72772 0.53796 0.55928 0.0
C2750 C 0.7701 0.51214 0.57272 0.0
C2751 C 0.72589 0.49457 0.5735 0.0
H2752 H 0.54948 0.12304 0.556 0.0
H2753 H 0.66635 0.20499 0.57186 0.0
H2754 H 0.65009 0.26309 0.57134 0.0
H2755 H 0.59948 0.28841 0.5674 0.0
H2756 H 0.48252 0.2042 0.55173 0.0
H2757 H 0.50225 0.14931 0.55108 0.0
C2758 C 0.57161 0.15368 0.55932 0.0
C2759 C 0.60879 0.15952 0.5641 0.0
C2760 C 0.56192 0.18649 0.55904 0.0
C2761 C 0.6375 0.19967 0.56815 0.0
C2762 C 0.62804 0.23276 0.5679 0.0
C2763 C 0.57841 0.25808 0.56382 0.0
C2764 C 0.53943 0.25053 0.55963 0.0
C2765 C 0.58984 0.22622 0.56354 0.0
C2766 C 0.51285 0.21123 0.55489 0.0
C2767 C 0.52396 0.17961 0.55459 0.0
H2768 H 0.98865 0.44355 0.57781 0.0
H2769 H 0.90941 0.48251 0.56225 0.0
H2770 H 0.85281 0.40762 0.56082 0.0
H2771 H 0.82886 0.33054 0.56275 0.0
H2772 H 0.91085 0.29427 0.57807 0.0
H2773 H 0.96374 0.36881 0.58066 0.0
C2774 C 0.95892 0.43588 0.57414 0.0
C2775 C 0.95349 0.46856 0.57002 0.0
C2776 C 0.9273 0.39313 0.57316 0.0
C2777 C 0.91443 0.45796 0.56548 0.0
C2778 C 0.88224 0.41513 0.56459 0.0
C2779 C 0.85815 0.33906 0.56673 0.0
C2780 C 0.86621 0.30679 0.57004 0.0
C2781 C 0.88875 0.38234 0.5682 0.0
C2782 C 0.90429 0.31835 0.57521 0.0
C2783 C 0.93444 0.36099 0.57677 0.0
H2784 H 0.24631 0.67117 0.397 0.0
H2785 H 0.11955 0.63463 0.40739 0.0
H2786 H 0.1391 0.70908 0.40865 0.0
H2787 H 0.19073 0.78427 0.40639 0.0
H2788 H 0.31726 0.82279 0.39551 0.0
H2789 H 0.2992 0.74809 0.39488 0.0
C2790 C 0.22293 0.6795 0.39949 0.0
C2791 C 0.18151 0.64699 0.40217 0.0
C2792 C 0.2343 0.72282 0.40014 0.0
C2793 C 0.15184 0.65866 0.40546 0.0
C2794 C 0.1629 0.70137 0.40613 0.0
C2795 C 0.21467 0.77661 0.40394 0.0
C2796 C 0.25539 0.80944 0.401 0.0
C2797 C 0.20393 0.73367 0.40347 0.0
C2798 C 0.28569 0.79841 0.39783 0.0
C2799 C 0.2753 0.75558 0.39744 0.0
H2800 H 0.43462 0.62356 0.40231 0.0
H2801 H 0.46768 0.54174 0.38559 0.0
H2802 H 0.39273 0.48723 0.38453 0.0
H2803 H 0.31867 0.46068 0.38932 0.0
H2804 H 0.28365 0.54106 0.40594 0.0
H2805 H 0.35846 0.59846 0.40601 0.0
C2806 C 0.42532 0.59384 0.3984 0.0
C2807 C 0.45685 0.58671 0.39407 0.0
C2808 C 0.3819 0.56238 0.39784 0.0
C2809 C 0.44421 0.54828 0.38891 0.0
C2810 C 0.40132 0.51694 0.38836 0.0
C2811 C 0.32729 0.49085 0.39293 0.0
C2812 C 0.29576 0.49642 0.39775 0.0
C2813 C 0.37006 0.52337 0.39293 0.0
C2814 C 0.30734 0.53597 0.40219 0.0
C2815 C 0.35013 0.56866 0.40228 0.0
H2816 H 0.5182 0.90452 0.40641 0.0
H2817 H 0.48026 0.85624 0.37605 0.0
H2818 H 0.52619 0.82459 0.37663 0.0
H2819 H 0.58316 0.81715 0.38527 0.0
H2820 H 0.62187 0.8685 0.41537 0.0
H2821 H 0.56953 0.89201 0.41547 0.0
C2822 C 0.51989 0.88696 0.39992 0.0
C2823 C 0.49639 0.88334 0.39114 0.0
C2824 C 0.54652 0.86927 0.4003 0.0
C2825 C 0.49812 0.8596 0.38289 0.0
C2826 C 0.52451 0.84164 0.38321 0.0
C2827 C 0.57909 0.8324 0.39192 0.0
C2828 C 0.60585 0.84077 0.40035 0.0
C2829 C 0.54958 0.847 0.39181 0.0
C2830 C 0.60122 0.86145 0.40886 0.0
C2831 C 0.57155 0.87516 0.40888 0.0
H2832 H 0.1207 0.8534 0.81378 0.0
H2833 H 0.16038 0.98214 0.80464 0.0
H2834 H 0.08596 0.96566 0.80523 0.0
H2835 H 1.00905 0.91306 0.80762 0.0
H2836 H 0.97182 0.7843 0.81634 0.0
H2837 H 0.04603 0.80272 0.81672 0.0
C2838 C 0.11333 0.87808 0.8119 0.0
C2839 C 0.14617 0.91887 0.80904 0.0
C2840 C 0.07079 0.86833 0.8122 0.0
C2841 C 0.13579 0.95046 0.80684 0.0
C2842 C 0.09321 0.94096 0.80714 0.0
C2843 C 1.0172 0.88905 0.8096 0.0
C2844 C 0.98458 0.84727 0.81199 0.0
C2845 C 0.06032 0.89975 0.80968 0.0
C2846 C 0.99596 0.8168 0.81465 0.0
C2847 C 0.03849 0.82721 0.81478 0.0
H2848 H 0.18701 0.13901 0.807 0.0
H2849 H 0.31052 0.22787 0.81932 0.0
H2850 H 0.29126 0.28303 0.8199 0.0
H2851 H 0.24191 0.30769 0.81603 0.0
H2852 H 0.11856 0.22145 0.80337 0.0
H2853 H 0.13513 0.16354 0.80385 0.0
C2854 C 0.20966 0.17044 0.80982 0.0
C2855 C 0.25025 0.17907 0.81313 0.0
C2856 C 0.19851 0.20252 0.81004 0.0
C2857 C 0.27892 0.2199 0.81688 0.0
C2858 C 0.26806 0.25169 0.81714 0.0
C2859 C 0.21844 0.27623 0.81337 0.0
C2860 C 0.17924 0.26909 0.80952 0.0
C2861 C 0.22829 0.24353 0.81361 0.0
C2862 C 0.149 0.22785 0.80634 0.0
C2863 C 0.1586 0.19484 0.80657 0.0
H2864 H 0.96017 0.09305 0.80685 0.0
H2865 H 0.86839 0.12811 0.81685 0.0
H2866 H 0.81297 0.0536 0.81706 0.0
H2867 H 0.78935 0.97942 0.81361 0.0
H2868 H 0.87865 0.9419 0.80322 0.0
H2869 H 0.93632 1.01653 0.80399 0.0
C2870 C 0.92803 0.08434 0.80907 0.0
C2871 C 0.91865 0.11639 0.81185 0.0
C2872 C 0.89585 0.04109 0.80907 0.0
C2873 C 0.87688 0.10435 0.81484 0.0
C2874 C 0.84498 0.06168 0.81488 0.0
C2875 C 0.8214 0.98732 0.81149 0.0
C2876 C 0.82951 0.95508 0.80822 0.0
C2877 C 0.85399 0.02994 0.8119 0.0
C2878 C 0.87147 0.96606 0.80573 0.0
C2879 C 0.90438 1.00876 0.80613 0.0
H2880 H 0.176 0.95929 0.31847 0.0
H2881 H 0.19933 0.96128 0.28637 0.0
H2882 H 0.22302 0.03741 0.28573 0.0
H2883 H 0.24399 0.10459 0.29462 0.0
H2884 H 0.22479 0.10374 0.32696 0.0
H2885 H 0.19221 0.02623 0.32721 0.0
C2886 C 0.18498 0.9763 0.31131 0.0
C2887 C 0.18519 0.95488 0.30243 0.0
C2888 C 0.20003 1.02041 0.31109 0.0
C2889 C 0.1982 0.97721 0.29323 0.0
C2890 C 0.21215 1.02075 0.2929 0.0
C2891 C 0.23267 0.08746 0.30173 0.0
C2892 C 0.23734 0.11012 0.31078 0.0
C2893 C 0.21445 0.04293 0.30183 0.0
C2894 C 0.22155 0.08721 0.31988 0.0
C2895 C 0.20304 0.04284 0.32003 0.0
H2896 H 0.12817 0.29948 0.31899 0.0
H2897 H 0.16041 0.22097 0.30073 0.0
H2898 H 0.08523 0.1643 0.30062 0.0
H2899 H 1.00944 0.13999 0.30463 0.0
H2900 H 0.97947 0.21939 0.32333 0.0
H2901 H 0.05466 0.27288 0.32429 0.0
C2902 C 0.11881 0.2698 0.31504 0.0
C2903 C 0.14963 0.26454 0.30977 0.0
C2904 C 0.07585 0.23773 0.31501 0.0
C2905 C 0.13723 0.22569 0.30485 0.0
C2906 C 0.09423 0.19347 0.30474 0.0
C2907 C 1.0194 0.16869 0.30904 0.0
C2908 C 0.98849 0.17588 0.31374 0.0
C2909 C 0.06308 0.19949 0.30963 0.0
C2910 C 1.00221 0.2134 0.31941 0.0
C2911 C 0.04531 0.24396 0.32002 0.0
H2912 H 0.97164 0.91442 0.31008 0.0
H2913 H 0.88734 0.78923 0.29787 0.0
H2914 H 0.83032 0.80568 0.29673 0.0
H2915 H 0.80313 0.85361 0.29975 0.0
H2916 H 0.88491 0.97893 0.3121 0.0
H2917 H 0.9442 0.96455 0.31256 0.0
C2918 C 0.94078 0.89081 0.30717 0.0
C2919 C 0.934 0.85064 0.30402 0.0
C2920 C 0.90766 0.90044 0.30657 0.0
C2921 C 0.89384 0.82058 0.30019 0.0
C2922 C 0.86102 0.82984 0.2996 0.0
C2923 C 0.83389 0.87799 0.30256 0.0
C2924 C 0.83935 0.9172 0.30599 0.0
C2925 C 0.86745 0.86942 0.30284 0.0
C2926 C 0.87974 0.9485 0.30941 0.0
C2927 C 0.91359 0.94016 0.30972 0.0
H2928 H 0.32487 0.91341 0.90165 0.0
H2929 H 0.28378 0.78098 0.89624 0.0
H2930 H 0.35836 0.79877 0.89484 0.0
H2931 H 0.43553 0.85284 0.89478 0.0
H2932 H 0.47406 0.9845 0.90068 0.0
H2933 H 0.40003 0.96596 0.90201 0.0
C2934 C 0.33188 0.88814 0.90016 0.0
C2935 C 0.29844 0.84582 0.89901 0.0
C2936 C 0.37456 0.8986 0.89933 0.0
C2937 C 0.30868 0.81381 0.89717 0.0
C2938 C 0.3514 0.82403 0.89634 0.0
C2939 C 0.42777 0.87745 0.89642 0.0
C2940 C 0.46077 0.92025 0.89747 0.0
C2941 C 0.38467 0.86645 0.89735 0.0
C2942 C 0.44974 0.95157 0.89954 0.0
C2943 C 0.40726 0.94094 0.90042 0.0
H2944 H 0.18217 0.56092 0.9096 0.0
H2945 H 0.24845 0.62133 0.88189 0.0
H2946 H 0.28201 0.57736 0.88178 0.0
H2947 H 0.28871 0.5175 0.88895 0.0
H2948 H 0.21806 0.45487 0.916 0.0
H2949 H 0.19029 0.50364 0.91695 0.0
C2950 C 0.20367 0.56437 0.90347 0.0
C2951 C 0.21224 0.59437 0.89572 0.0
C2952 C 0.22234 0.53845 0.90335 0.0
C2953 C 0.24124 0.59886 0.88801 0.0
C2954 C 0.26038 0.57349 0.88791 0.0
C2955 C 0.26796 0.51525 0.89515 0.0
C2956 C 0.2557 0.48278 0.90245 0.0
C2957 C 0.25084 0.54276 0.89548 0.0
C2958 C 0.22807 0.47965 0.91032 0.0
C2959 C 0.21199 0.50742 0.91085 0.0
H2960 H 0.48457 0.66812 0.89771 0.0
H2961 H 0.56647 0.64062 0.87926 0.0
H2962 H 0.62113 0.71557 0.87944 0.0
H2963 H 0.64795 0.78765 0.8858 0.0
H2964 H 0.56719 0.81753 0.9039 0.0
H2965 H 0.50934 0.74307 0.90269 0.0
C2966 C 0.51404 0.67863 0.89357 0.0
C2967 C 0.52159 0.64844 0.88863 0.0
C2968 C 0.54558 0.72214 0.89367 0.0
C2969 C 0.56012 0.66281 0.88334 0.0
C2970 C 0.59138 0.70576 0.88339 0.0
C2971 C 0.61758 0.77797 0.88945 0.0
C2972 C 0.61202 0.80782 0.89508 0.0
C2973 C 0.58485 0.73545 0.88873 0.0
C2974 C 0.57225 0.79506 0.89955 0.0
C2975 C 0.53931 0.75247 0.8989 0.0
H2976 H 0.93066 1.0068 0.73084 0.0
H2977 H 0.80478 0.96795 0.71953 0.0
H2978 H 0.82069 0.04137 0.71974 0.0
H2979 H 0.86805 0.11553 0.72384 0.0
H2980 H 0.99371 0.15703 0.73556 0.0
H2981 H 0.98024 0.08365 0.73444 0.0
C2982 C 0.90679 1.01448 0.72842 0.0
C2983 C 0.8666 0.9817 0.72511 0.0
C2984 C 0.916 0.05715 0.72866 0.0
C2985 C 0.83619 0.99236 0.72192 0.0
C2986 C 0.84511 0.0344 0.72212 0.0
C2987 C 0.89269 0.10876 0.72617 0.0
C2988 C 0.93166 0.14169 0.72991 0.0
C2989 C 0.88462 0.06686 0.72557 0.0
C2990 C 0.96339 0.13227 0.73268 0.0
C2991 C 0.95559 0.09029 0.73207 0.0
H2992 H 0.99713 0.79988 0.74188 0.0
H2993 H 0.95534 0.87175 0.72413 0.0
H2994 H 1.02984 0.92772 0.72153 0.0
H2995 H 0.1073 0.95307 0.72327 0.0
H2996 H 0.14631 0.87882 0.7411 0.0
H2997 H 0.07237 0.8265 0.74448 0.0
C2998 C 1.0041 0.82789 0.73748 0.0
C2999 C 0.97065 0.83136 0.73312 0.0
C3000 C 0.04665 0.85917 0.73587 0.0
C3001 C 0.98044 0.86826 0.72759 0.0
C3002 C 1.02307 0.90008 0.72604 0.0
C3003 C 0.09959 0.92561 0.72796 0.0
C3004 C 0.1326 0.91959 0.73173 0.0
C3005 C 0.05654 0.89541 0.72997 0.0
C3006 C 0.12183 0.88378 0.73782 0.0
C3007 C 0.07946 0.85397 0.73986 0.0
H3008 H 0.32085 0.24883 0.73685 0.0
H3009 H 0.23069 0.11682 0.73065 0.0
H3010 H 0.17347 0.13411 0.7293 0.0
H3011 H 0.15033 0.18814 0.72913 0.0
H3012 H 0.24276 0.31947 0.73568 0.0
H3013 H 0.29807 0.30098 0.73737 0.0
C3014 C 0.28871 0.22359 0.7352 0.0
C3015 C 0.28018 0.1816 0.73375 0.0
C3016 C 0.25648 0.23382 0.73435 0.0
C3017 C 0.23815 0.14939 0.7318 0.0
C3018 C 0.20552 0.15936 0.73098 0.0
C3019 C 0.18251 0.21265 0.73099 0.0
C3020 C 0.19232 0.25539 0.73209 0.0
C3021 C 0.21446 0.20167 0.73211 0.0
C3022 C 0.23432 0.28663 0.73448 0.0
C3023 C 0.266 0.27602 0.73557 0.0
H3024 H 0.79579 0.19246 0.15177 0.0
H3025 H 0.8314 0.31324 0.13784 0.0
H3026 H 0.75659 0.29566 0.13818 0.0
H3027 H 0.68018 0.24266 0.14114 0.0
H3028 H 0.6469 0.12244 0.15516 0.0
H3029 H 0.7218 0.14306 0.156 0.0
C3030 C 0.78734 0.21515 0.14883 0.0
C3031 C 0.81902 0.25382 0.14463 0.0
C3032 C 0.74459 0.20468 0.14899 0.0
C3033 C 0.80759 0.28319 0.14108 0.0
C3034 C 0.7648 0.273 0.14123 0.0
C3035 C 0.68941 0.2213 0.14452 0.0
C3036 C 0.65778 0.18069 0.14793 0.0
C3037 C 0.73286 0.23339 0.14498 0.0
C3038 C 0.67038 0.1534 0.15227 0.0
C3039 C 0.71325 0.16524 0.1528 0.0
H3040 H 0.87008 0.47672 0.14072 0.0
H3041 H 0.98888 0.56539 0.1551 0.0
H3042 H 0.9685 0.61983 0.15508 0.0
H3043 H 0.91978 0.6439 0.15011 0.0
H3044 H 0.79987 0.55719 0.13605 0.0
H3045 H 0.81736 0.49986 0.13702 0.0
C3046 C 0.89117 0.50775 0.14399 0.0
C3047 C 0.93139 0.51714 0.14775 0.0
C3048 C 0.87915 0.5392 0.14398 0.0
C3049 C 0.95829 0.55756 0.15194 0.0
C3050 C 0.94659 0.58869 0.15198 0.0
C3051 C 0.89733 0.61242 0.14725 0.0
C3052 C 0.85897 0.60491 0.14283 0.0
C3053 C 0.90761 0.58014 0.14783 0.0
C3054 C 0.82972 0.56374 0.13943 0.0
C3055 C 0.83985 0.53111 0.13995 0.0
H3056 H 0.63971 0.42943 0.14615 0.0
H3057 H 0.55032 0.47116 0.13909 0.0
H3058 H 0.49385 0.39768 0.13703 0.0
H3059 H 0.46893 0.32229 0.13774 0.0
H3060 H 0.5557 0.27737 0.14482 0.0
H3061 H 0.61424 0.35139 0.14621 0.0
C3062 C 0.60792 0.4223 0.14408 0.0
C3063 C 0.59915 0.45584 0.14293 0.0
C3064 C 0.57515 0.37951 0.14292 0.0
C3065 C 0.55779 0.44608 0.14024 0.0
C3066 C 0.52547 0.40403 0.13901 0.0
C3067 C 0.50057 0.32833 0.1396 0.0
C3068 C 0.50765 0.29406 0.14127 0.0
C3069 C 0.53365 0.37058 0.14045 0.0
C3070 C 0.54919 0.303 0.14352 0.0
C3071 C 0.58265 0.34537 0.14434 0.0
H3072 H 0.83203 0.29667 0.63006 0.0
H3073 H 0.88063 0.293 0.65958 0.0
H3074 H 0.90134 0.36751 0.66251 0.0
H3075 H 0.91238 0.4355 0.65596 0.0
H3076 H 0.86826 0.44118 0.62599 0.0
H3077 H 0.8392 0.36447 0.6239 0.0
C3078 C 0.84615 0.3121 0.63721 0.0
C3079 C 0.85436 0.28961 0.64467 0.0
C3080 C 0.85944 0.35549 0.63867 0.0
C3081 C 0.87365 0.30987 0.65381 0.0
C3082 C 0.88574 0.35246 0.65545 0.0
C3083 C 0.89572 0.41981 0.64905 0.0
C3084 C 0.89264 0.44404 0.64113 0.0
C3085 C 0.87981 0.3759 0.64783 0.0
C3086 C 0.87149 0.42331 0.63215 0.0
C3087 C 0.85475 0.37942 0.63096 0.0
H3088 H 0.81354 0.57656 0.65141 0.0
H3089 H 0.80525 0.61846 0.62138 0.0
H3090 H 0.72888 0.56764 0.62095 0.0
H3091 H 0.66343 0.51632 0.62967 0.0
H3092 H 0.66983 0.47647 0.6601 0.0
H3093 H 0.74752 0.52085 0.65981 0.0
C3094 C 0.79508 0.57353 0.64469 0.0
C3095 C 0.81496 0.60079 0.63638 0.0
C3096 C 0.75064 0.54514 0.64464 0.0
C3097 C 0.79061 0.59747 0.62781 0.0
C3098 C 0.74689 0.56868 0.6276 0.0
C3099 C 0.68175 0.51738 0.63626 0.0
C3100 C 0.66059 0.49344 0.64494 0.0
C3101 C 0.72635 0.5433 0.63608 0.0
C3102 C 0.68513 0.49447 0.65331 0.0
C3103 C 0.72964 0.52 0.65316 0.0
H3104 H 0.6349 0.23598 0.63859 0.0
H3105 H 0.54788 0.11803 0.65359 0.0
H3106 H 0.49362 0.1387 0.65403 0.0
H3107 H 0.46945 0.18773 0.64945 0.0
H3108 H 0.55435 0.30619 0.63443 0.0
H3109 H 0.61133 0.28828 0.6349 0.0
C3110 C 0.60424 0.21513 0.64207 0.0
C3111 C 0.5953 0.17519 0.64594 0.0
C3112 C 0.57287 0.22722 0.64228 0.0
C3113 C 0.55534 0.14848 0.65038 0.0
C3114 C 0.52434 0.16036 0.65068 0.0
C3115 C 0.5004 0.20983 0.64626 0.0
C3116 C 0.50743 0.24798 0.64176 0.0
C3117 C 0.5325 0.19921 0.6465 0.0
C3118 C 0.54805 0.27653 0.63789 0.0
C3119 C 0.58053 0.26619 0.63813 0.0
H3120 H 0.98737 0.23313 0.22269 0.0
H3121 H 0.95273 0.11498 0.23788 0.0
H3122 H 1.02736 0.13203 0.23727 0.0
H3123 H 0.10349 0.18423 0.23376 0.0
H3124 H 0.1359 0.30201 0.21857 0.0
H3125 H 0.06097 0.28147 0.21792 0.0
C3126 C 0.99602 0.2109 0.22584 0.0
C3127 C 0.96473 0.17316 0.23047 0.0
C3128 C 0.03866 0.22111 0.22554 0.0
C3129 C 0.97628 0.14429 0.2343 0.0
C3130 C 1.01896 0.15419 0.234 0.0
C3131 C 0.09403 0.20504 0.23016 0.0
C3132 C 0.12541 0.24497 0.22636 0.0
C3133 C 0.05061 0.19302 0.22983 0.0
C3134 C 0.11258 0.27159 0.22175 0.0
C3135 C 0.06971 0.25979 0.22133 0.0
H3136 H 0.91288 0.94625 0.22607 0.0
H3137 H 0.80414 0.87666 0.24578 0.0
H3138 H 0.82659 0.82525 0.24936 0.0
H3139 H 0.87376 0.79725 0.24616 0.0
H3140 H 0.98248 0.86426 0.22643 0.0
H3141 H 0.96442 0.92047 0.22394 0.0
C3142 C 0.89435 0.92005 0.23122 0.0
C3143 C 0.85622 0.91488 0.23545 0.0
C3144 C 0.90764 0.89039 0.23333 0.0
C3145 C 0.83278 0.88078 0.24215 0.0
C3146 C 0.84583 0.85154 0.2443 0.0
C3147 C 0.8939 0.82439 0.24139 0.0
C3148 C 0.92912 0.82634 0.2364 0.0
C3149 C 0.8827 0.85563 0.23981 0.0
C3150 C 0.95523 0.86205 0.23038 0.0
C3151 C 0.94461 0.89392 0.22888 0.0
H3152 H 0.14262 0.9961 0.22993 0.0
H3153 H 0.23471 0.95486 0.23336 0.0
H3154 H 0.29177 0.02841 0.2346 0.0
H3155 H 0.31614 0.10368 0.23446 0.0
H3156 H 0.22667 0.14823 0.23112 0.0
H3157 H 0.16797 0.07413 0.23019 0.0
C3158 C 0.17517 1.00333 0.231 0.0
C3159 C 0.18433 0.96982 0.2314 0.0
C3160 C 0.20829 0.0462 0.23172 0.0
C3161 C 0.22673 0.97982 0.2328 0.0
C3162 C 0.25945 1.02194 0.23357 0.0
C3163 C 0.28389 0.09761 0.23352 0.0
C3164 C 0.27607 0.13183 0.23281 0.0
C3165 C 0.25066 0.05529 0.23297 0.0
C3166 C 0.23379 0.12269 0.23167 0.0
C3167 C 0.20021 0.08026 0.23114 0.0
loop_
_geom_bond_atom_site_label_1
_geom_bond_atom_site_label_2
_geom_bond_distance
_geom_bond_site_symmetry_2
_ccdc_geom_bond_type
Tb0 C2 2.809 . S
Tb0 O20 2.484 . S
Tb0 O21 2.440 . S
Tb0 O22 2.658 . S
Tb0 O23 2.409 . S
Tb0 O24 2.378 . S
Tb0 O28 2.325 . S
Tb0 O31 2.341 1_545 S
Tb1 C11 2.809 1_545 S
Tb1 O22 2.325 . S
Tb1 O25 2.341 . S
Tb1 O26 2.484 1_545 S
Tb1 O27 2.440 1_545 S
Tb1 O28 2.658 . S
Tb1 O29 2.409 . S
Tb1 O30 2.378 1_545 S
C2 Tb0 2.809 . S
C2 C3 1.514 . S
C2 O20 1.248 . S
C2 O21 1.266 . S
C3 C2 1.514 . S
C3 C4 1.359 . S
C3 C8 1.348 . S
C4 C3 1.359 . S
C4 C5 1.380 . S
C4 H32 0.929 . S
C5 C4 1.380 . S
C5 C6 1.347 . S
C5 H33 0.931 . S
C6 C5 1.347 . S
C6 C7 1.369 . S
C7 C6 1.369 . S
C7 C8 1.408 . S
C7 H34 0.930 . S
C8 C3 1.348 . S
C8 C7 1.408 . S
C8 H35 0.930 . S
C9 O22 1.281 . S
C9 O23 1.254 . S
C10 O24 1.236 . S
C10 O25 1.266 . S
C11 Tb1 2.809 1_565 S
C11 C12 1.514 . S
C11 O26 1.248 . S
C11 O27 1.266 . S
C12 C11 1.514 . S
C12 C13 1.359 . S
C12 C17 1.348 . S
C13 C12 1.359 . S
C13 C14 1.380 . S
C13 H36 0.929 . S
C14 C13 1.380 . S
C14 C15 1.347 . S
C14 H37 0.931 . S
C15 C14 1.347 . S
C15 C16 1.369 . S
C16 C15 1.369 . S
C16 C17 1.408 . S
C16 H38 0.930 . S
C17 C12 1.348 . S
C17 C16 1.408 . S
C17 H39 0.930 . S
C18 O28 1.281 . S
C18 O29 1.254 . S
C19 O30 1.236 . S
C19 O31 1.266 . S
O20 Tb0 2.484 . S
O20 C2 1.248 . S
O21 Tb0 2.440 . S
O21 C2 1.266 . S
O22 Tb0 2.658 . S
O22 Tb1 2.325 . S
O22 C9 1.281 . S
O23 Tb0 2.409 . S
O23 C9 1.254 . S
O24 Tb0 2.378 . S
O24 C10 1.236 . S
O25 Tb1 2.341 . S
O25 C10 1.266 . S
O26 Tb1 2.484 1_565 S
O26 C11 1.248 . S
O27 Tb1 2.440 1_565 S
O27 C11 1.266 . S
O28 Tb0 2.325 . S
O28 Tb1 2.658 . S
O28 C18 1.281 . S
O29 Tb1 2.409 . S
O29 C18 1.254 . S
O30 Tb1 2.378 1_565 S
O30 C19 1.236 . S
O31 Tb0 2.341 1_565 S
O31 C19 1.266 . S
H32 C4 0.929 . S
H33 C5 0.931 . S
H34 C7 0.930 . S
H35 C8 0.930 . S
H36 C13 0.929 . S
H37 C14 0.931 . S
H38 C16 0.930 . S
H39 C17 0.930 . S
Tb40 C42 2.809 . S
Tb40 O60 2.484 . S
Tb40 O61 2.440 . S
Tb40 O62 2.658 1_655 S
Tb40 O63 2.409 . S
Tb40 O64 2.378 . S
Tb40 O68 2.322 . S
Tb40 O71 2.341 1_655 S
Tb41 C51 2.809 . S
Tb41 O62 2.325 . S
Tb41 O65 2.341 1_455 S
Tb41 O66 2.484 . S
Tb41 O67 2.440 . S
Tb41 O68 2.657 1_455 S
Tb41 O69 2.409 . S
Tb41 O70 2.378 . S
C42 Tb40 2.809 . S
C42 C43 1.514 . S
C42 O60 1.248 . S
C42 O61 1.266 . S
C43 C42 1.514 . S
C43 C44 1.359 . S
C43 C48 1.348 . S
C44 C43 1.359 . S
C44 C45 1.380 . S
C44 H72 0.929 . S
C45 C44 1.380 . S
C45 C46 1.347 . S
C45 H73 0.931 . S
C46 C45 1.347 . S
C46 C47 1.369 . S
C47 C46 1.369 . S
C47 C48 1.408 . S
C47 H74 0.930 . S
C48 C43 1.348 . S
C48 C47 1.408 . S
C48 H75 0.930 . S
C49 O62 1.281 . S
C49 O63 1.254 1_455 S
C50 O64 1.236 . S
C50 O65 1.266 . S
C51 Tb41 2.809 . S
C51 C52 1.514 . S
C51 O66 1.248 . S
C51 O67 1.266 . S
C52 C51 1.514 . S
C52 C53 1.359 . S
C52 C57 1.348 . S
C53 C52 1.359 . S
C53 C54 1.380 . S
C53 H76 0.929 . S
C54 C53 1.380 . S
C54 C55 1.347 . S
C54 H77 0.931 . S
C55 C54 1.347 . S
C55 C56 1.369 . S
C56 C55 1.369 . S
C56 C57 1.408 . S
C56 H78 0.930 . S
C57 C52 1.348 . S
C57 C56 1.408 . S
C57 H79 0.930 . S
C58 O68 1.275 1_455 S
C58 O69 1.254 . S
C59 O70 1.236 . S
C59 O71 1.266 . S
O60 Tb40 2.484 . S
O60 C42 1.248 . S
O61 Tb40 2.440 . S
O61 C42 1.266 . S
O62 Tb40 2.658 1_455 S
O62 Tb41 2.325 . S
O62 C49 1.281 . S
O63 Tb40 2.409 . S
O63 C49 1.254 1_655 S
O64 Tb40 2.378 . S
O64 C50 1.236 . S
O65 Tb41 2.341 1_655 S
O65 C50 1.266 . S
O66 Tb41 2.484 . S
O66 C51 1.248 . S
O67 Tb41 2.440 . S
O67 C51 1.266 . S
O68 Tb40 2.322 . S
O68 Tb41 2.657 1_655 S
O68 C58 1.275 1_655 S
O69 Tb41 2.409 . S
O69 C58 1.254 . S
O70 Tb41 2.378 . S
O70 C59 1.236 . S
O71 Tb40 2.341 1_455 S
O71 C59 1.266 . S
H72 C44 0.929 . S
H73 C45 0.931 . S
H74 C47 0.930 . S
H75 C48 0.930 . S
H76 C53 0.929 . S
H77 C54 0.931 . S
H78 C56 0.930 . S
H79 C57 0.930 . S
Tb80 C82 2.809 . S
Tb80 O100 2.484 . S
Tb80 O101 2.440 . S
Tb80 O102 2.658 . S
Tb80 O103 2.409 . S
Tb80 O104 2.378 . S
Tb80 O108 2.325 . S
Tb80 O111 2.341 . S
Tb81 C91 2.809 . S
Tb81 O102 2.325 . S
Tb81 O105 2.341 . S
Tb81 O106 2.484 . S
Tb81 O107 2.440 . S
Tb81 O108 2.658 . S
Tb81 O109 2.409 . S
Tb81 O110 2.378 . S
C82 Tb80 2.809 . S
C82 C83 1.514 . S
C82 O100 1.248 . S
C82 O101 1.266 . S
C83 C82 1.514 . S
C83 C84 1.359 . S
C83 C88 1.348 . S
C84 C83 1.359 . S
C84 C85 1.380 . S
C84 H112 0.929 . S
C85 C84 1.380 . S
C85 C86 1.347 . S
C85 H113 0.931 . S
C86 C85 1.347 . S
C86 C87 1.369 . S
C87 C86 1.369 . S
C87 C88 1.408 . S
C87 H114 0.930 . S
C88 C83 1.348 . S
C88 C87 1.408 . S
C88 H115 0.930 . S
C89 O102 1.281 . S
C89 O103 1.254 . S
C90 O104 1.236 . S
C90 O105 1.266 . S
C91 Tb81 2.809 . S
C91 C92 1.514 . S
C91 O106 1.248 . S
C91 O107 1.266 . S
C92 C91 1.514 . S
C92 C93 1.359 . S
C92 C97 1.348 . S
C93 C92 1.359 . S
C93 C94 1.380 . S
C93 H116 0.929 . S
C94 C93 1.380 . S
C94 C95 1.347 . S
C94 H117 0.931 . S
C95 C94 1.347 . S
C95 C96 1.369 . S
C96 C95 1.369 . S
C96 C97 1.408 . S
C96 H118 0.930 . S
C97 C92 1.348 . S
C97 C96 1.408 . S
C97 H119 0.930 . S
C98 O108 1.281 . S
C98 O109 1.254 . S
C99 O110 1.236 . S
C99 O111 1.266 . S
O100 Tb80 2.484 . S
O100 C82 1.248 . S
O101 Tb80 2.440 . S
O101 C82 1.266 . S
O102 Tb80 2.658 . S
O102 Tb81 2.325 . S
O102 C89 1.281 . S
O103 Tb80 2.409 . S
O103 C89 1.254 . S
O104 Tb80 2.378 . S
O104 C90 1.236 . S
O105 Tb81 2.341 . S
O105 C90 1.266 . S
O106 Tb81 2.484 . S
O106 C91 1.248 . S
O107 Tb81 2.440 . S
O107 C91 1.266 . S
O108 Tb80 2.325 . S
O108 Tb81 2.658 . S
O108 C98 1.281 . S
O109 Tb81 2.409 . S
O109 C98 1.254 . S
O110 Tb81 2.378 . S
O110 C99 1.236 . S
O111 Tb80 2.341 . S
O111 C99 1.266 . S
H112 C84 0.929 . S
H113 C85 0.931 . S
H114 C87 0.930 . S
H115 C88 0.930 . S
H116 C93 0.929 . S
H117 C94 0.931 . S
H118 C96 0.930 . S
H119 C97 0.930 . S
Tb120 C122 2.809 . S
Tb120 O140 2.484 . S
Tb120 O141 2.440 . S
Tb120 O142 2.658 . S
Tb120 O143 2.409 . S
Tb120 O144 2.378 . S
Tb120 O148 2.325 . S
Tb120 O151 2.341 1_455 S
Tb121 C131 2.809 1_455 S
Tb121 O142 2.325 . S
Tb121 O145 2.341 . S
Tb121 O146 2.484 1_455 S
Tb121 O147 2.440 1_455 S
Tb121 O148 2.658 . S
Tb121 O149 2.409 . S
Tb121 O150 2.378 1_455 S
C122 Tb120 2.809 . S
C122 C123 1.514 . S
C122 O140 1.248 . S
C122 O141 1.266 . S
C123 C122 1.514 . S
C123 C124 1.359 . S
C123 C128 1.348 . S
C124 C123 1.359 . S
C124 C125 1.380 . S
C124 H152 0.929 . S
C125 C124 1.380 . S
C125 C126 1.347 . S
C125 H153 0.931 . S
C126 C125 1.347 . S
C126 C127 1.369 . S
C127 C126 1.369 . S
C127 C128 1.408 . S
C127 H154 0.930 . S
C128 C123 1.348 . S
C128 C127 1.408 . S
C128 H155 0.930 . S
C129 O142 1.281 . S
C129 O143 1.254 . S
C130 O144 1.236 . S
C130 O145 1.266 . S
C131 Tb121 2.809 1_655 S
C131 C132 1.514 . S
C131 O146 1.248 . S
C131 O147 1.266 . S
C132 C131 1.514 . S
C132 C133 1.359 . S
C132 C137 1.348 . S
C133 C132 1.359 . S
C133 C134 1.380 . S
C133 H156 0.929 . S
C134 C133 1.380 . S
C134 C135 1.347 . S
C134 H157 0.931 . S
C135 C134 1.347 . S
C135 C136 1.369 . S
C136 C135 1.369 . S
C136 C137 1.408 . S
C136 H158 0.930 . S
C137 C132 1.348 . S
C137 C136 1.408 . S
C137 H159 0.930 . S
C138 O148 1.281 . S
C138 O149 1.254 . S
C139 O150 1.236 . S
C139 O151 1.266 . S
O140 Tb120 2.484 . S
O140 C122 1.248 . S
O141 Tb120 2.440 . S
O141 C122 1.266 . S
O142 Tb120 2.658 . S
O142 Tb121 2.325 . S
O142 C129 1.281 . S
O143 Tb120 2.409 . S
O143 C129 1.254 . S
O144 Tb120 2.378 . S
O144 C130 1.236 . S
O145 Tb121 2.341 . S
O145 C130 1.266 . S
O146 Tb121 2.484 1_655 S
O146 C131 1.248 . S
O147 Tb121 2.440 1_655 S
O147 C131 1.266 . S
O148 Tb120 2.325 . S
O148 Tb121 2.658 . S
O148 C138 1.281 . S
O149 Tb121 2.409 . S
O149 C138 1.254 . S
O150 Tb121 2.378 1_655 S
O150 C139 1.236 . S
O151 Tb120 2.341 1_655 S
O151 C139 1.266 . S
H152 C124 0.929 . S
H153 C125 0.931 . S
H154 C127 0.930 . S
H155 C128 0.930 . S
H156 C133 0.929 . S
H157 C134 0.931 . S
H158 C136 0.930 . S
H159 C137 0.930 . S
Tb160 C162 2.809 . S
Tb160 O180 2.484 . S
Tb160 O181 2.440 . S
Tb160 O182 2.658 . S
Tb160 O183 2.409 . S
Tb160 O184 2.378 . S
Tb160 O188 2.325 . S
Tb160 O191 2.341 . S
Tb161 C171 2.809 . S
Tb161 O182 2.325 . S
Tb161 O185 2.341 . S
Tb161 O186 2.484 . S
Tb161 O187 2.440 . S
Tb161 O188 2.658 . S
Tb161 O189 2.409 . S
Tb161 O190 2.378 . S
C162 Tb160 2.809 . S
C162 C163 1.514 . S
C162 O180 1.248 . S
C162 O181 1.266 . S
C163 C162 1.514 . S
C163 C164 1.359 . S
C163 C168 1.348 . S
C164 C163 1.359 . S
C164 C165 1.380 . S
C164 H192 0.929 . S
C165 C164 1.380 . S
C165 C166 1.347 . S
C165 H193 0.931 . S
C166 C165 1.347 . S
C166 C167 1.369 . S
C167 C166 1.369 . S
C167 C168 1.408 . S
C167 H194 0.930 . S
C168 C163 1.348 . S
C168 C167 1.408 . S
C168 H195 0.930 . S
C169 O182 1.281 . S
C169 O183 1.254 . S
C170 O184 1.236 . S
C170 O185 1.266 . S
C171 Tb161 2.809 . S
C171 C172 1.514 . S
C171 O186 1.248 . S
C171 O187 1.266 . S
C172 C171 1.514 . S
C172 C173 1.359 . S
C172 C177 1.348 . S
C173 C172 1.359 . S
C173 C174 1.380 . S
C173 H196 0.929 . S
C174 C173 1.380 . S
C174 C175 1.347 . S
C174 H197 0.931 . S
C175 C174 1.347 . S
C175 C176 1.369 . S
C176 C175 1.369 . S
C176 C177 1.408 . S
C176 H198 0.930 . S
C177 C172 1.348 . S
C177 C176 1.408 . S
C177 H199 0.930 . S
C178 O188 1.281 . S
C178 O189 1.254 . S
C179 O190 1.236 . S
C179 O191 1.266 . S
O180 Tb160 2.484 . S
O180 C162 1.248 . S
O181 Tb160 2.440 . S
O181 C162 1.266 . S
O182 Tb160 2.658 . S
O182 Tb161 2.325 . S
O182 C169 1.281 . S
O183 Tb160 2.409 . S
O183 C169 1.254 . S
O184 Tb160 2.378 . S
O184 C170 1.236 . S
O185 Tb161 2.341 . S
O185 C170 1.266 . S
O186 Tb161 2.484 . S
O186 C171 1.248 . S
O187 Tb161 2.440 . S
O187 C171 1.266 . S
O188 Tb160 2.325 . S
O188 Tb161 2.658 . S
O188 C178 1.281 . S
O189 Tb161 2.409 . S
O189 C178 1.254 . S
O190 Tb161 2.378 . S
O190 C179 1.236 . S
O191 Tb160 2.341 . S
O191 C179 1.266 . S
H192 C164 0.929 . S
H193 C165 0.931 . S
H194 C167 0.930 . S
H195 C168 0.930 . S
H196 C173 0.929 . S
H197 C174 0.931 . S
H198 C176 0.930 . S
H199 C177 0.930 . S
Tb200 C202 2.809 . S
Tb200 O220 2.484 . S
Tb200 O221 2.440 . S
Tb200 O222 2.658 1_565 S
Tb200 O223 2.409 . S
Tb200 O224 2.378 . S
Tb200 O228 2.322 . S
Tb200 O231 2.341 1_565 S
Tb201 C211 2.809 . S
Tb201 O222 2.325 . S
Tb201 O225 2.341 1_545 S
Tb201 O226 2.484 . S
Tb201 O227 2.440 . S
Tb201 O228 2.657 1_545 S
Tb201 O229 2.409 . S
Tb201 O230 2.378 . S
C202 Tb200 2.809 . S
C202 C203 1.514 . S
C202 O220 1.248 . S
C202 O221 1.266 . S
C203 C202 1.514 . S
C203 C204 1.359 . S
C203 C208 1.348 . S
C204 C203 1.359 . S
C204 C205 1.380 . S
C204 H232 0.929 . S
C205 C204 1.380 . S
C205 C206 1.347 . S
C205 H233 0.931 . S
C206 C205 1.347 . S
C206 C207 1.369 . S
C207 C206 1.369 . S
C207 C208 1.408 . S
C207 H234 0.930 . S
C208 C203 1.348 . S
C208 C207 1.408 . S
C208 H235 0.930 . S
C209 O222 1.281 . S
C209 O223 1.254 1_545 S
C210 O224 1.236 . S
C210 O225 1.266 . S
C211 Tb201 2.809 . S
C211 C212 1.514 . S
C211 O226 1.248 . S
C211 O227 1.266 . S
C212 C211 1.514 . S
C212 C213 1.359 . S
C212 C217 1.348 . S
C213 C212 1.359 . S
C213 C214 1.380 . S
C213 H236 0.929 . S
C214 C213 1.380 . S
C214 C215 1.347 . S
C214 H237 0.931 . S
C215 C214 1.347 . S
C215 C216 1.369 . S
C216 C215 1.369 . S
C216 C217 1.408 . S
C216 H238 0.930 . S
C217 C212 1.348 . S
C217 C216 1.408 . S
C217 H239 0.930 . S
C218 O228 1.275 1_545 S
C218 O229 1.254 . S
C219 O230 1.236 . S
C219 O231 1.266 . S
O220 Tb200 2.484 . S
O220 C202 1.248 . S
O221 Tb200 2.440 . S
O221 C202 1.266 . S
O222 Tb200 2.658 1_545 S
O222 Tb201 2.325 . S
O222 C209 1.281 . S
O223 Tb200 2.409 . S
O223 C209 1.254 1_565 S
O224 Tb200 2.378 . S
O224 C210 1.236 . S
O225 Tb201 2.341 1_565 S
O225 C210 1.266 . S
O226 Tb201 2.484 . S
O226 C211 1.248 . S
O227 Tb201 2.440 . S
O227 C211 1.266 . S
O228 Tb200 2.322 . S
O228 Tb201 2.657 1_565 S
O228 C218 1.275 1_565 S
O229 Tb201 2.409 . S
O229 C218 1.254 . S
O230 Tb201 2.378 . S
O230 C219 1.236 . S
O231 Tb200 2.341 1_545 S
O231 C219 1.266 . S
H232 C204 0.929 . S
H233 C205 0.931 . S
H234 C207 0.930 . S
H235 C208 0.930 . S
H236 C213 0.929 . S
H237 C214 0.931 . S
H238 C216 0.930 . S
H239 C217 0.930 . S
Tb240 C242 2.809 . S
Tb240 O260 2.484 . S
Tb240 O261 2.440 . S
Tb240 O262 2.638 1_545 S
Tb240 O263 2.409 . S
Tb240 O264 2.378 . S
Tb240 O268 2.325 . S
Tb240 O271 2.341 1_545 S
Tb241 C251 2.809 . S
Tb241 O262 2.333 . S
Tb241 O265 2.341 1_565 S
Tb241 O266 2.484 . S
Tb241 O267 2.440 . S
Tb241 O268 2.658 1_565 S
Tb241 O269 2.409 . S
Tb241 O270 2.378 . S
C242 Tb240 2.809 . S
C242 C243 1.514 . S
C242 O260 1.248 . S
C242 O261 1.266 . S
C243 C242 1.514 . S
C243 C244 1.359 . S
C243 C248 1.348 . S
C244 C243 1.359 . S
C244 C245 1.380 . S
C244 H272 0.929 . S
C245 C244 1.380 . S
C245 C246 1.347 . S
C245 H273 0.931 . S
C246 C245 1.347 . S
C246 C247 1.369 . S
C247 C246 1.369 . S
C247 C248 1.408 . S
C247 H274 0.930 . S
C248 C243 1.348 . S
C248 C247 1.408 . S
C248 H275 0.930 . S
C249 O262 1.274 1_545 S
C249 O263 1.254 . S
C250 O264 1.236 . S
C250 O265 1.266 . S
C251 Tb241 2.809 . S
C251 C252 1.514 . S
C251 O266 1.248 . S
C251 O267 1.266 . S
C252 C251 1.514 . S
C252 C253 1.359 . S
C252 C257 1.348 . S
C253 C252 1.359 . S
C253 C254 1.380 . S
C253 H276 0.929 . S
C254 C253 1.380 . S
C254 C255 1.347 . S
C254 H277 0.931 . S
C255 C254 1.347 . S
C255 C256 1.369 . S
C256 C255 1.369 . S
C256 C257 1.408 . S
C256 H278 0.930 . S
C257 C252 1.348 . S
C257 C256 1.408 . S
C257 H279 0.930 . S
C258 O268 1.281 . S
C258 O269 1.254 1_545 S
C259 O270 1.236 . S
C259 O271 1.266 . S
O260 Tb240 2.484 . S
O260 C242 1.248 . S
O261 Tb240 2.440 . S
O261 C242 1.266 . S
O262 Tb240 2.638 1_565 S
O262 Tb241 2.333 . S
O262 C249 1.274 1_565 S
O263 Tb240 2.409 . S
O263 C249 1.254 . S
O264 Tb240 2.378 . S
O264 C250 1.236 . S
O265 Tb241 2.341 1_545 S
O265 C250 1.266 . S
O266 Tb241 2.484 . S
O266 C251 1.248 . S
O267 Tb241 2.440 . S
O267 C251 1.266 . S
O268 Tb240 2.325 . S
O268 Tb241 2.658 1_545 S
O268 C258 1.281 . S
O269 Tb241 2.409 . S
O269 C258 1.254 1_565 S
O270 Tb241 2.378 . S
O270 C259 1.236 . S
O271 Tb240 2.341 1_565 S
O271 C259 1.266 . S
H272 C244 0.929 . S
H273 C245 0.931 . S
H274 C247 0.930 . S
H275 C248 0.930 . S
H276 C253 0.929 . S
H277 C254 0.931 . S
H278 C256 0.930 . S
H279 C257 0.930 . S
Tb280 C282 2.809 1_455 S
Tb280 O300 2.484 1_455 S
Tb280 O301 2.440 1_455 S
Tb280 O302 2.658 . S
Tb280 O303 2.409 . S
Tb280 O304 2.378 1_455 S
Tb280 O308 2.325 . S
Tb280 O311 2.341 . S
Tb281 C291 2.809 . S
Tb281 O302 2.325 . S
Tb281 O305 2.341 1_455 S
Tb281 O306 2.484 . S
Tb281 O307 2.440 . S
Tb281 O308 2.658 . S
Tb281 O309 2.409 . S
Tb281 O310 2.378 . S
C282 Tb280 2.809 1_655 S
C282 C283 1.514 . S
C282 O300 1.248 . S
C282 O301 1.266 . S
C283 C282 1.514 . S
C283 C284 1.359 . S
C283 C288 1.348 . S
C284 C283 1.359 . S
C284 C285 1.380 . S
C284 H312 0.929 . S
C285 C284 1.380 . S
C285 C286 1.347 . S
C285 H313 0.931 . S
C286 C285 1.347 . S
C286 C287 1.369 . S
C287 C286 1.369 . S
C287 C288 1.408 . S
C287 H314 0.930 . S
C288 C283 1.348 . S
C288 C287 1.408 . S
C288 H315 0.930 . S
C289 O302 1.281 . S
C289 O303 1.254 . S
C290 O304 1.236 . S
C290 O305 1.266 . S
C291 Tb281 2.809 . S
C291 C292 1.514 . S
C291 O306 1.248 . S
C291 O307 1.266 . S
C292 C291 1.514 . S
C292 C293 1.359 . S
C292 C297 1.348 . S
C293 C292 1.359 . S
C293 C294 1.380 . S
C293 H316 0.929 . S
C294 C293 1.380 . S
C294 C295 1.347 . S
C294 H317 0.931 . S
C295 C294 1.347 . S
C295 C296 1.369 . S
C296 C295 1.369 . S
C296 C297 1.408 . S
C296 H318 0.930 . S
C297 C292 1.348 . S
C297 C296 1.408 . S
C297 H319 0.930 . S
C298 O308 1.281 . S
C298 O309 1.254 . S
C299 O310 1.236 . S
C299 O311 1.266 . S
O300 Tb280 2.484 1_655 S
O300 C282 1.248 . S
O301 Tb280 2.440 1_655 S
O301 C282 1.266 . S
O302 Tb280 2.658 . S
O302 Tb281 2.325 . S
O302 C289 1.281 . S
O303 Tb280 2.409 . S
O303 C289 1.254 . S
O304 Tb280 2.378 1_655 S
O304 C290 1.236 . S
O305 Tb281 2.341 1_655 S
O305 C290 1.266 . S
O306 Tb281 2.484 . S
O306 C291 1.248 . S
O307 Tb281 2.440 . S
O307 C291 1.266 . S
O308 Tb280 2.325 . S
O308 Tb281 2.658 . S
O308 C298 1.281 . S
O309 Tb281 2.409 . S
O309 C298 1.254 . S
O310 Tb281 2.378 . S
O310 C299 1.236 . S
O311 Tb280 2.341 . S
O311 C299 1.266 . S
H312 C284 0.929 . S
H313 C285 0.931 . S
H314 C287 0.930 . S
H315 C288 0.930 . S
H316 C293 0.929 . S
H317 C294 0.931 . S
H318 C296 0.930 . S
H319 C297 0.930 . S
Tb320 C322 2.809 . S
Tb320 O340 2.484 . S
Tb320 O341 2.440 . S
Tb320 O342 2.658 . S
Tb320 O343 2.409 . S
Tb320 O344 2.378 . S
Tb320 O348 2.325 . S
Tb320 O351 2.341 . S
Tb321 C331 2.809 . S
Tb321 O342 2.325 . S
Tb321 O345 2.341 . S
Tb321 O346 2.484 . S
Tb321 O347 2.440 . S
Tb321 O348 2.658 . S
Tb321 O349 2.409 . S
Tb321 O350 2.378 . S
C322 Tb320 2.809 . S
C322 C323 1.514 . S
C322 O340 1.248 . S
C322 O341 1.266 . S
C323 C322 1.514 . S
C323 C324 1.359 . S
C323 C328 1.348 . S
C324 C323 1.359 . S
C324 C325 1.380 . S
C324 H352 0.929 . S
C325 C324 1.380 . S
C325 C326 1.347 . S
C325 H353 0.931 . S
C326 C325 1.347 . S
C326 C327 1.369 . S
C327 C326 1.369 . S
C327 C328 1.408 . S
C327 H354 0.930 . S
C328 C323 1.348 . S
C328 C327 1.408 . S
C328 H355 0.930 . S
C329 O342 1.281 . S
C329 O343 1.254 . S
C330 O344 1.236 . S
C330 O345 1.266 . S
C331 Tb321 2.809 . S
C331 C332 1.514 . S
C331 O346 1.248 . S
C331 O347 1.266 . S
C332 C331 1.514 . S
C332 C333 1.359 . S
C332 C337 1.348 . S
C333 C332 1.359 . S
C333 C334 1.380 . S
C333 H356 0.929 . S
C334 C333 1.380 . S
C334 C335 1.347 . S
C334 H357 0.931 . S
C335 C334 1.347 . S
C335 C336 1.369 . S
C336 C335 1.369 . S
C336 C337 1.408 . S
C336 H358 0.930 . S
C337 C332 1.348 . S
C337 C336 1.408 . S
C337 H359 0.930 . S
C338 O348 1.281 . S
C338 O349 1.254 . S
C339 O350 1.236 . S
C339 O351 1.266 . S
O340 Tb320 2.484 . S
O340 C322 1.248 . S
O341 Tb320 2.440 . S
O341 C322 1.266 . S
O342 Tb320 2.658 . S
O342 Tb321 2.325 . S
O342 C329 1.281 . S
O343 Tb320 2.409 . S
O343 C329 1.254 . S
O344 Tb320 2.378 . S
O344 C330 1.236 . S
O345 Tb321 2.341 . S
O345 C330 1.266 . S
O346 Tb321 2.484 . S
O346 C331 1.248 . S
O347 Tb321 2.440 . S
O347 C331 1.266 . S
O348 Tb320 2.325 . S
O348 Tb321 2.658 . S
O348 C338 1.281 . S
O349 Tb321 2.409 . S
O349 C338 1.254 . S
O350 Tb321 2.378 . S
O350 C339 1.236 . S
O351 Tb320 2.341 . S
O351 C339 1.266 . S
H352 C324 0.929 . S
H353 C325 0.931 . S
H354 C327 0.930 . S
H355 C328 0.930 . S
H356 C333 0.929 . S
H357 C334 0.931 . S
H358 C336 0.930 . S
H359 C337 0.930 . S
Tb360 C362 2.809 . S
Tb360 O380 2.484 . S
Tb360 O381 2.440 . S
Tb360 O382 2.638 1_455 S
Tb360 O383 2.409 . S
Tb360 O384 2.378 . S
Tb360 O388 2.325 . S
Tb360 O391 2.341 1_455 S
Tb361 C371 2.809 . S
Tb361 O382 2.333 . S
Tb361 O385 2.341 1_655 S
Tb361 O386 2.484 . S
Tb361 O387 2.440 . S
Tb361 O388 2.658 1_655 S
Tb361 O389 2.409 . S
Tb361 O390 2.378 . S
C362 Tb360 2.809 . S
C362 C363 1.514 . S
C362 O380 1.248 . S
C362 O381 1.266 . S
C363 C362 1.514 . S
C363 C364 1.359 . S
C363 C368 1.348 . S
C364 C363 1.359 . S
C364 C365 1.380 . S
C364 H392 0.929 . S
C365 C364 1.380 . S
C365 C366 1.347 . S
C365 H393 0.931 . S
C366 C365 1.347 . S
C366 C367 1.369 . S
C367 C366 1.369 . S
C367 C368 1.408 . S
C367 H394 0.930 . S
C368 C363 1.348 . S
C368 C367 1.408 . S
C368 H395 0.930 . S
C369 O382 1.274 1_455 S
C369 O383 1.254 . S
C370 O384 1.236 . S
C370 O385 1.266 . S
C371 Tb361 2.809 . S
C371 C372 1.514 . S
C371 O386 1.248 . S
C371 O387 1.266 . S
C372 C371 1.514 . S
C372 C373 1.359 . S
C372 C377 1.348 . S
C373 C372 1.359 . S
C373 C374 1.380 . S
C373 H396 0.929 . S
C374 C373 1.380 . S
C374 C375 1.347 . S
C374 H397 0.931 . S
C375 C374 1.347 . S
C375 C376 1.369 . S
C376 C375 1.369 . S
C376 C377 1.408 . S
C376 H398 0.930 . S
C377 C372 1.348 . S
C377 C376 1.408 . S
C377 H399 0.930 . S
C378 O388 1.281 . S
C378 O389 1.254 1_455 S
C379 O390 1.236 . S
C379 O391 1.266 . S
O380 Tb360 2.484 . S
O380 C362 1.248 . S
O381 Tb360 2.440 . S
O381 C362 1.266 . S
O382 Tb360 2.638 1_655 S
O382 Tb361 2.333 . S
O382 C369 1.274 1_655 S
O383 Tb360 2.409 . S
O383 C369 1.254 . S
O384 Tb360 2.378 . S
O384 C370 1.236 . S
O385 Tb361 2.341 1_455 S
O385 C370 1.266 . S
O386 Tb361 2.484 . S
O386 C371 1.248 . S
O387 Tb361 2.440 . S
O387 C371 1.266 . S
O388 Tb360 2.325 . S
O388 Tb361 2.658 1_455 S
O388 C378 1.281 . S
O389 Tb361 2.409 . S
O389 C378 1.254 1_655 S
O390 Tb361 2.378 . S
O390 C379 1.236 . S
O391 Tb360 2.341 1_655 S
O391 C379 1.266 . S
H392 C364 0.929 . S
H393 C365 0.931 . S
H394 C367 0.930 . S
H395 C368 0.930 . S
H396 C373 0.929 . S
H397 C374 0.931 . S
H398 C376 0.930 . S
H399 C377 0.930 . S
Tb400 C402 2.809 . S
Tb400 O420 2.484 . S
Tb400 O421 2.440 . S
Tb400 O422 2.658 . S
Tb400 O423 2.409 . S
Tb400 O424 2.378 . S
Tb400 O428 2.325 . S
Tb400 O431 2.341 . S
Tb401 C411 2.809 . S
Tb401 O422 2.325 . S
Tb401 O425 2.341 . S
Tb401 O426 2.484 . S
Tb401 O427 2.440 . S
Tb401 O428 2.658 . S
Tb401 O429 2.409 . S
Tb401 O430 2.378 . S
C402 Tb400 2.809 . S
C402 C403 1.514 . S
C402 O420 1.248 . S
C402 O421 1.266 . S
C403 C402 1.514 . S
C403 C404 1.359 . S
C403 C408 1.348 . S
C404 C403 1.359 . S
C404 C405 1.380 . S
C404 H432 0.929 . S
C405 C404 1.380 . S
C405 C406 1.347 . S
C405 H433 0.931 . S
C406 C405 1.347 . S
C406 C407 1.369 . S
C407 C406 1.369 . S
C407 C408 1.408 . S
C407 H434 0.930 . S
C408 C403 1.348 . S
C408 C407 1.408 . S
C408 H435 0.930 . S
C409 O422 1.281 . S
C409 O423 1.254 . S
C410 O424 1.236 . S
C410 O425 1.266 . S
C411 Tb401 2.809 . S
C411 C412 1.514 . S
C411 O426 1.248 . S
C411 O427 1.266 . S
C412 C411 1.514 . S
C412 C413 1.359 . S
C412 C417 1.348 . S
C413 C412 1.359 . S
C413 C414 1.380 . S
C413 H436 0.929 . S
C414 C413 1.380 . S
C414 C415 1.347 . S
C414 H437 0.931 . S
C415 C414 1.347 . S
C415 C416 1.369 . S
C416 C415 1.369 . S
C416 C417 1.408 . S
C416 H438 0.930 . S
C417 C412 1.348 . S
C417 C416 1.408 . S
C417 H439 0.930 . S
C418 O428 1.281 . S
C418 O429 1.254 . S
C419 O430 1.236 . S
C419 O431 1.266 . S
O420 Tb400 2.484 . S
O420 C402 1.248 . S
O421 Tb400 2.440 . S
O421 C402 1.266 . S
O422 Tb400 2.658 . S
O422 Tb401 2.325 . S
O422 C409 1.281 . S
O423 Tb400 2.409 . S
O423 C409 1.254 . S
O424 Tb400 2.378 . S
O424 C410 1.236 . S
O425 Tb401 2.341 . S
O425 C410 1.266 . S
O426 Tb401 2.484 . S
O426 C411 1.248 . S
O427 Tb401 2.440 . S
O427 C411 1.266 . S
O428 Tb400 2.325 . S
O428 Tb401 2.658 . S
O428 C418 1.281 . S
O429 Tb401 2.409 . S
O429 C418 1.254 . S
O430 Tb401 2.378 . S
O430 C419 1.236 . S
O431 Tb400 2.341 . S
O431 C419 1.266 . S
H432 C404 0.929 . S
H433 C405 0.931 . S
H434 C407 0.930 . S
H435 C408 0.930 . S
H436 C413 0.929 . S
H437 C414 0.931 . S
H438 C416 0.930 . S
H439 C417 0.930 . S
Tb440 C442 2.809 1_545 S
Tb440 O460 2.484 1_545 S
Tb440 O461 2.440 1_545 S
Tb440 O462 2.658 . S
Tb440 O463 2.409 . S
Tb440 O464 2.378 1_545 S
Tb440 O468 2.325 . S
Tb440 O471 2.341 . S
Tb441 C451 2.809 . S
Tb441 O462 2.325 . S
Tb441 O465 2.341 1_545 S
Tb441 O466 2.484 . S
Tb441 O467 2.440 . S
Tb441 O468 2.658 . S
Tb441 O469 2.409 . S
Tb441 O470 2.378 . S
C442 Tb440 2.809 1_565 S
C442 C443 1.514 . S
C442 O460 1.248 . S
C442 O461 1.266 . S
C443 C442 1.514 . S
C443 C444 1.359 . S
C443 C448 1.348 . S
C444 C443 1.359 . S
C444 C445 1.380 . S
C444 H472 0.929 . S
C445 C444 1.380 . S
C445 C446 1.347 . S
C445 H473 0.931 . S
C446 C445 1.347 . S
C446 C447 1.369 . S
C447 C446 1.369 . S
C447 C448 1.408 . S
C447 H474 0.930 . S
C448 C443 1.348 . S
C448 C447 1.408 . S
C448 H475 0.930 . S
C449 O462 1.281 . S
C449 O463 1.254 . S
C450 O464 1.236 . S
C450 O465 1.266 . S
C451 Tb441 2.809 . S
C451 C452 1.514 . S
C451 O466 1.248 . S
C451 O467 1.266 . S
C452 C451 1.514 . S
C452 C453 1.359 . S
C452 C457 1.348 . S
C453 C452 1.359 . S
C453 C454 1.380 . S
C453 H476 0.929 . S
C454 C453 1.380 . S
C454 C455 1.347 . S
C454 H477 0.931 . S
C455 C454 1.347 . S
C455 C456 1.369 . S
C456 C455 1.369 . S
C456 C457 1.408 . S
C456 H478 0.930 . S
C457 C452 1.348 . S
C457 C456 1.408 . S
C457 H479 0.930 . S
C458 O468 1.281 . S
C458 O469 1.254 . S
C459 O470 1.236 . S
C459 O471 1.266 . S
O460 Tb440 2.484 1_565 S
O460 C442 1.248 . S
O461 Tb440 2.440 1_565 S
O461 C442 1.266 . S
O462 Tb440 2.658 . S
O462 Tb441 2.325 . S
O462 C449 1.281 . S
O463 Tb440 2.409 . S
O463 C449 1.254 . S
O464 Tb440 2.378 1_565 S
O464 C450 1.236 . S
O465 Tb441 2.341 1_565 S
O465 C450 1.266 . S
O466 Tb441 2.484 . S
O466 C451 1.248 . S
O467 Tb441 2.440 . S
O467 C451 1.266 . S
O468 Tb440 2.325 . S
O468 Tb441 2.658 . S
O468 C458 1.281 . S
O469 Tb441 2.409 . S
O469 C458 1.254 . S
O470 Tb441 2.378 . S
O470 C459 1.236 . S
O471 Tb440 2.341 . S
O471 C459 1.266 . S
H472 C444 0.929 . S
H473 C445 0.931 . S
H474 C447 0.930 . S
H475 C448 0.930 . S
H476 C453 0.929 . S
H477 C454 0.931 . S
H478 C456 0.930 . S
H479 C457 0.930 . S
Tb480 C482 2.809 . S
Tb480 O500 2.484 . S
Tb480 O501 2.440 . S
Tb480 O502 2.658 . S
Tb480 O503 2.409 . S
Tb480 O504 2.378 . S
Tb480 O508 2.325 . S
Tb480 O511 2.341 . S
Tb481 C491 2.809 . S
Tb481 O502 2.325 . S
Tb481 O505 2.341 . S
Tb481 O506 2.484 . S
Tb481 O507 2.440 . S
Tb481 O508 2.658 . S
Tb481 O509 2.409 . S
Tb481 O510 2.378 . S
C482 Tb480 2.809 . S
C482 C483 1.514 . S
C482 O500 1.248 . S
C482 O501 1.266 . S
C483 C482 1.514 . S
C483 C484 1.359 . S
C483 C488 1.348 . S
C484 C483 1.359 . S
C484 C485 1.380 . S
C484 H512 0.929 . S
C485 C484 1.380 . S
C485 C486 1.347 . S
C485 H513 0.931 . S
C486 C485 1.347 . S
C486 C487 1.369 . S
C487 C486 1.369 . S
C487 C488 1.408 . S
C487 H514 0.930 . S
C488 C483 1.348 . S
C488 C487 1.408 . S
C488 H515 0.930 . S
C489 O502 1.281 . S
C489 O503 1.254 . S
C490 O504 1.236 . S
C490 O505 1.266 . S
C491 Tb481 2.809 . S
C491 C492 1.514 . S
C491 O506 1.248 . S
C491 O507 1.266 . S
C492 C491 1.514 . S
C492 C493 1.359 . S
C492 C497 1.348 . S
C493 C492 1.359 . S
C493 C494 1.380 . S
C493 H516 0.929 . S
C494 C493 1.380 . S
C494 C495 1.347 . S
C494 H517 0.931 . S
C495 C494 1.347 . S
C495 C496 1.369 . S
C496 C495 1.369 . S
C496 C497 1.408 . S
C496 H518 0.930 . S
C497 C492 1.348 . S
C497 C496 1.408 . S
C497 H519 0.930 . S
C498 O508 1.281 . S
C498 O509 1.254 . S
C499 O510 1.236 . S
C499 O511 1.266 . S
O500 Tb480 2.484 . S
O500 C482 1.248 . S
O501 Tb480 2.440 . S
O501 C482 1.266 . S
O502 Tb480 2.658 . S
O502 Tb481 2.325 . S
O502 C489 1.281 . S
O503 Tb480 2.409 . S
O503 C489 1.254 . S
O504 Tb480 2.378 . S
O504 C490 1.236 . S
O505 Tb481 2.341 . S
O505 C490 1.266 . S
O506 Tb481 2.484 . S
O506 C491 1.248 . S
O507 Tb481 2.440 . S
O507 C491 1.266 . S
O508 Tb480 2.325 . S
O508 Tb481 2.658 . S
O508 C498 1.281 . S
O509 Tb481 2.409 . S
O509 C498 1.254 . S
O510 Tb481 2.378 . S
O510 C499 1.236 . S
O511 Tb480 2.341 . S
O511 C499 1.266 . S
H512 C484 0.929 . S
H513 C485 0.931 . S
H514 C487 0.930 . S
H515 C488 0.930 . S
H516 C493 0.929 . S
H517 C494 0.931 . S
H518 C496 0.930 . S
H519 C497 0.930 . S
Tb520 C522 2.809 . S
Tb520 O540 2.484 . S
Tb520 O541 2.440 . S
Tb520 O542 2.658 . S
Tb520 O543 2.409 . S
Tb520 O544 2.378 . S
Tb520 O548 2.325 . S
Tb520 O551 2.341 . S
Tb521 C531 2.809 . S
Tb521 O542 2.325 . S
Tb521 O545 2.341 . S
Tb521 O546 2.484 . S
Tb521 O547 2.440 . S
Tb521 O548 2.658 . S
Tb521 O549 2.409 . S
Tb521 O550 2.378 . S
C522 Tb520 2.809 . S
C522 C523 1.514 . S
C522 O540 1.248 . S
C522 O541 1.266 . S
C523 C522 1.514 . S
C523 C524 1.359 . S
C523 C528 1.348 . S
C524 C523 1.359 . S
C524 C525 1.380 . S
C524 H552 0.929 . S
C525 C524 1.380 . S
C525 C526 1.347 . S
C525 H553 0.931 . S
C526 C525 1.347 . S
C526 C527 1.369 . S
C527 C526 1.369 . S
C527 C528 1.408 . S
C527 H554 0.930 . S
C528 C523 1.348 . S
C528 C527 1.408 . S
C528 H555 0.930 . S
C529 O542 1.281 . S
C529 O543 1.254 . S
C530 O544 1.236 . S
C530 O545 1.266 . S
C531 Tb521 2.809 . S
C531 C532 1.514 . S
C531 O546 1.248 . S
C531 O547 1.266 . S
C532 C531 1.514 . S
C532 C533 1.359 . S
C532 C537 1.348 . S
C533 C532 1.359 . S
C533 C534 1.380 1_565 S
C533 H556 0.929 . S
C534 C533 1.380 1_545 S
C534 C535 1.347 . S
C534 H557 0.931 . S
C535 C534 1.347 . S
C535 C536 1.369 . S
C536 C535 1.369 . S
C536 C537 1.408 1_545 S
C536 H558 0.930 . S
C537 C532 1.348 . S
C537 C536 1.408 1_565 S
C537 H559 0.930 . S
C538 O548 1.281 . S
C538 O549 1.254 . S
C539 O550 1.236 . S
C539 O551 1.266 . S
O540 Tb520 2.484 . S
O540 C522 1.248 . S
O541 Tb520 2.440 . S
O541 C522 1.266 . S
O542 Tb520 2.658 . S
O542 Tb521 2.325 . S
O542 C529 1.281 . S
O543 Tb520 2.409 . S
O543 C529 1.254 . S
O544 Tb520 2.378 . S
O544 C530 1.236 . S
O545 Tb521 2.341 . S
O545 C530 1.266 . S
O546 Tb521 2.484 . S
O546 C531 1.248 . S
O547 Tb521 2.440 . S
O547 C531 1.266 . S
O548 Tb520 2.325 . S
O548 Tb521 2.658 . S
O548 C538 1.281 . S
O549 Tb521 2.409 . S
O549 C538 1.254 . S
O550 Tb521 2.378 . S
O550 C539 1.236 . S
O551 Tb520 2.341 . S
O551 C539 1.266 . S
H552 C524 0.929 . S
H553 C525 0.931 . S
H554 C527 0.930 . S
H555 C528 0.930 . S
H556 C533 0.929 . S
H557 C534 0.931 . S
H558 C536 0.930 . S
H559 C537 0.930 . S
Tb560 C562 2.809 . S
Tb560 O580 2.484 . S
Tb560 O581 2.440 . S
Tb560 O582 2.658 . S
Tb560 O583 2.409 . S
Tb560 O584 2.378 . S
Tb560 O588 2.325 . S
Tb560 O591 2.341 . S
Tb561 C571 2.809 . S
Tb561 O582 2.325 . S
Tb561 O585 2.341 . S
Tb561 O586 2.484 . S
Tb561 O587 2.440 . S
Tb561 O588 2.658 . S
Tb561 O589 2.409 . S
Tb561 O590 2.378 . S
C562 Tb560 2.809 . S
C562 C563 1.514 . S
C562 O580 1.248 . S
C562 O581 1.266 . S
C563 C562 1.514 . S
C563 C564 1.359 . S
C563 C568 1.348 . S
C564 C563 1.359 . S
C564 C565 1.380 . S
C564 H592 0.929 . S
C565 C564 1.380 . S
C565 C566 1.347 . S
C565 H593 0.931 . S
C566 C565 1.347 . S
C566 C567 1.369 . S
C567 C566 1.369 . S
C567 C568 1.408 . S
C567 H594 0.930 . S
C568 C563 1.348 . S
C568 C567 1.408 . S
C568 H595 0.930 . S
C569 O582 1.281 . S
C569 O583 1.254 . S
C570 O584 1.236 . S
C570 O585 1.266 . S
C571 Tb561 2.809 . S
C571 C572 1.514 . S
C571 O586 1.248 . S
C571 O587 1.266 . S
C572 C571 1.514 . S
C572 C573 1.359 . S
C572 C577 1.348 . S
C573 C572 1.359 . S
C573 C574 1.380 . S
C573 H596 0.929 . S
C574 C573 1.380 . S
C574 C575 1.347 . S
C574 H597 0.931 . S
C575 C574 1.347 . S
C575 C576 1.369 . S
C576 C575 1.369 . S
C576 C577 1.408 . S
C576 H598 0.930 . S
C577 C572 1.348 . S
C577 C576 1.408 . S
C577 H599 0.930 . S
C578 O588 1.281 . S
C578 O589 1.254 . S
C579 O590 1.236 . S
C579 O591 1.266 . S
O580 Tb560 2.484 . S
O580 C562 1.248 . S
O581 Tb560 2.440 . S
O581 C562 1.266 . S
O582 Tb560 2.658 . S
O582 Tb561 2.325 . S
O582 C569 1.281 . S
O583 Tb560 2.409 . S
O583 C569 1.254 . S
O584 Tb560 2.378 . S
O584 C570 1.236 . S
O585 Tb561 2.341 . S
O585 C570 1.266 . S
O586 Tb561 2.484 . S
O586 C571 1.248 . S
O587 Tb561 2.440 . S
O587 C571 1.266 . S
O588 Tb560 2.325 . S
O588 Tb561 2.658 . S
O588 C578 1.281 . S
O589 Tb561 2.409 . S
O589 C578 1.254 . S
O590 Tb561 2.378 . S
O590 C579 1.236 . S
O591 Tb560 2.341 . S
O591 C579 1.266 . S
H592 C564 0.929 . S
H593 C565 0.931 . S
H594 C567 0.930 . S
H595 C568 0.930 . S
H596 C573 0.929 . S
H597 C574 0.931 . S
H598 C576 0.930 . S
H599 C577 0.930 . S
Tb600 C602 2.809 . S
Tb600 O620 2.484 . S
Tb600 O621 2.440 . S
Tb600 O622 2.658 . S
Tb600 O623 2.409 . S
Tb600 O624 2.378 . S
Tb600 O628 2.325 . S
Tb600 O631 2.341 . S
Tb601 C611 2.809 . S
Tb601 O622 2.325 . S
Tb601 O625 2.341 . S
Tb601 O626 2.484 . S
Tb601 O627 2.440 . S
Tb601 O628 2.658 . S
Tb601 O629 2.409 . S
Tb601 O630 2.378 . S
C602 Tb600 2.809 . S
C602 C603 1.514 . S
C602 O620 1.248 . S
C602 O621 1.266 . S
C603 C602 1.514 . S
C603 C604 1.359 . S
C603 C608 1.348 . S
C604 C603 1.359 . S
C604 C605 1.380 . S
C604 H632 0.929 . S
C605 C604 1.380 . S
C605 C606 1.347 . S
C605 H633 0.931 . S
C606 C605 1.347 . S
C606 C607 1.369 . S
C607 C606 1.369 . S
C607 C608 1.408 . S
C607 H634 0.930 . S
C608 C603 1.348 . S
C608 C607 1.408 . S
C608 H635 0.930 . S
C609 O622 1.281 . S
C609 O623 1.254 . S
C610 O624 1.236 . S
C610 O625 1.266 . S
C611 Tb601 2.809 . S
C611 C612 1.514 . S
C611 O626 1.248 . S
C611 O627 1.266 . S
C612 C611 1.514 . S
C612 C613 1.359 . S
C612 C617 1.348 . S
C613 C612 1.359 . S
C613 C614 1.380 . S
C613 H636 0.929 . S
C614 C613 1.380 . S
C614 C615 1.347 . S
C614 H637 0.931 . S
C615 C614 1.347 . S
C615 C616 1.369 . S
C616 C615 1.369 . S
C616 C617 1.408 . S
C616 H638 0.930 . S
C617 C612 1.348 . S
C617 C616 1.408 . S
C617 H639 0.930 . S
C618 O628 1.281 . S
C618 O629 1.254 . S
C619 O630 1.236 . S
C619 O631 1.266 . S
O620 Tb600 2.484 . S
O620 C602 1.248 . S
O621 Tb600 2.440 . S
O621 C602 1.266 . S
O622 Tb600 2.658 . S
O622 Tb601 2.325 . S
O622 C609 1.281 . S
O623 Tb600 2.409 . S
O623 C609 1.254 . S
O624 Tb600 2.378 . S
O624 C610 1.236 . S
O625 Tb601 2.341 . S
O625 C610 1.266 . S
O626 Tb601 2.484 . S
O626 C611 1.248 . S
O627 Tb601 2.440 . S
O627 C611 1.266 . S
O628 Tb600 2.325 . S
O628 Tb601 2.658 . S
O628 C618 1.281 . S
O629 Tb601 2.409 . S
O629 C618 1.254 . S
O630 Tb601 2.378 . S
O630 C619 1.236 . S
O631 Tb600 2.341 . S
O631 C619 1.266 . S
H632 C604 0.929 . S
H633 C605 0.931 . S
H634 C607 0.930 . S
H635 C608 0.930 . S
H636 C613 0.929 . S
H637 C614 0.931 . S
H638 C616 0.930 . S
H639 C617 0.930 . S
Tb640 C642 2.809 1_565 S
Tb640 O660 2.484 . S
Tb640 O661 2.440 . S
Tb640 O662 2.658 . S
Tb640 O663 2.409 . S
Tb640 O664 2.378 . S
Tb640 O668 2.325 . S
Tb640 O671 2.341 . S
Tb641 C651 2.809 . S
Tb641 O662 2.325 . S
Tb641 O665 2.341 . S
Tb641 O666 2.484 . S
Tb641 O667 2.440 . S
Tb641 O668 2.658 . S
Tb641 O669 2.409 . S
Tb641 O670 2.378 . S
C642 Tb640 2.809 1_545 S
C642 C643 1.514 . S
C642 O660 1.248 1_545 S
C642 O661 1.266 1_545 S
C643 C642 1.514 . S
C643 C644 1.359 . S
C643 C648 1.348 . S
C644 C643 1.359 . S
C644 C645 1.380 . S
C644 H672 0.929 . S
C645 C644 1.380 . S
C645 C646 1.347 . S
C645 H673 0.931 . S
C646 C645 1.347 . S
C646 C647 1.369 . S
C647 C646 1.369 . S
C647 C648 1.408 . S
C647 H674 0.930 . S
C648 C643 1.348 . S
C648 C647 1.408 . S
C648 H675 0.930 . S
C649 O662 1.281 . S
C649 O663 1.254 . S
C650 O664 1.236 . S
C650 O665 1.266 . S
C651 Tb641 2.809 . S
C651 C652 1.514 . S
C651 O666 1.248 . S
C651 O667 1.266 . S
C652 C651 1.514 . S
C652 C653 1.359 . S
C652 C657 1.348 . S
C653 C652 1.359 . S
C653 C654 1.380 . S
C653 H676 0.929 . S
C654 C653 1.380 . S
C654 C655 1.347 . S
C654 H677 0.931 . S
C655 C654 1.347 . S
C655 C656 1.369 . S
C656 C655 1.369 . S
C656 C657 1.408 . S
C656 H678 0.930 . S
C657 C652 1.348 . S
C657 C656 1.408 . S
C657 H679 0.930 . S
C658 O668 1.281 . S
C658 O669 1.254 . S
C659 O670 1.236 . S
C659 O671 1.266 . S
O660 Tb640 2.484 . S
O660 C642 1.248 1_565 S
O661 Tb640 2.440 . S
O661 C642 1.266 1_565 S
O662 Tb640 2.658 . S
O662 Tb641 2.325 . S
O662 C649 1.281 . S
O663 Tb640 2.409 . S
O663 C649 1.254 . S
O664 Tb640 2.378 . S
O664 C650 1.236 . S
O665 Tb641 2.341 . S
O665 C650 1.266 . S
O666 Tb641 2.484 . S
O666 C651 1.248 . S
O667 Tb641 2.440 . S
O667 C651 1.266 . S
O668 Tb640 2.325 . S
O668 Tb641 2.658 . S
O668 C658 1.281 . S
O669 Tb641 2.409 . S
O669 C658 1.254 . S
O670 Tb641 2.378 . S
O670 C659 1.236 . S
O671 Tb640 2.341 . S
O671 C659 1.266 . S
H672 C644 0.929 . S
H673 C645 0.931 . S
H674 C647 0.930 . S
H675 C648 0.930 . S
H676 C653 0.929 . S
H677 C654 0.931 . S
H678 C656 0.930 . S
H679 C657 0.930 . S
Tb680 C682 2.809 . S
Tb680 O700 2.484 . S
Tb680 O701 2.440 . S
Tb680 O702 2.658 . S
Tb680 O703 2.409 . S
Tb680 O704 2.378 . S
Tb680 O708 2.325 . S
Tb680 O711 2.341 . S
Tb681 C691 2.809 . S
Tb681 O702 2.325 . S
Tb681 O705 2.341 . S
Tb681 O706 2.484 . S
Tb681 O707 2.440 . S
Tb681 O708 2.658 . S
Tb681 O709 2.409 . S
Tb681 O710 2.378 . S
C682 Tb680 2.809 . S
C682 C683 1.514 . S
C682 O700 1.248 . S
C682 O701 1.266 . S
C683 C682 1.514 . S
C683 C684 1.359 1_455 S
C683 C688 1.348 1_455 S
C684 C683 1.359 1_655 S
C684 C685 1.380 . S
C684 H712 0.929 1_655 S
C685 C684 1.380 . S
C685 C686 1.347 . S
C685 H713 0.931 . S
C686 C685 1.347 . S
C686 C687 1.369 . S
C687 C686 1.369 . S
C687 C688 1.408 . S
C687 H714 0.930 . S
C688 C683 1.348 1_655 S
C688 C687 1.408 . S
C688 H715 0.930 1_655 S
C689 O702 1.281 . S
C689 O703 1.254 . S
C690 O704 1.236 . S
C690 O705 1.266 . S
C691 Tb681 2.809 . S
C691 C692 1.514 . S
C691 O706 1.248 . S
C691 O707 1.266 . S
C692 C691 1.514 . S
C692 C693 1.359 . S
C692 C697 1.348 . S
C693 C692 1.359 . S
C693 C694 1.380 . S
C693 H716 0.929 . S
C694 C693 1.380 . S
C694 C695 1.347 . S
C694 H717 0.931 . S
C695 C694 1.347 . S
C695 C696 1.369 . S
C696 C695 1.369 . S
C696 C697 1.408 . S
C696 H718 0.930 . S
C697 C692 1.348 . S
C697 C696 1.408 . S
C697 H719 0.930 . S
C698 O708 1.281 . S
C698 O709 1.254 . S
C699 O710 1.236 . S
C699 O711 1.266 . S
O700 Tb680 2.484 . S
O700 C682 1.248 . S
O701 Tb680 2.440 . S
O701 C682 1.266 . S
O702 Tb680 2.658 . S
O702 Tb681 2.325 . S
O702 C689 1.281 . S
O703 Tb680 2.409 . S
O703 C689 1.254 . S
O704 Tb680 2.378 . S
O704 C690 1.236 . S
O705 Tb681 2.341 . S
O705 C690 1.266 . S
O706 Tb681 2.484 . S
O706 C691 1.248 . S
O707 Tb681 2.440 . S
O707 C691 1.266 . S
O708 Tb680 2.325 . S
O708 Tb681 2.658 . S
O708 C698 1.281 . S
O709 Tb681 2.409 . S
O709 C698 1.254 . S
O710 Tb681 2.378 . S
O710 C699 1.236 . S
O711 Tb680 2.341 . S
O711 C699 1.266 . S
H712 C684 0.929 1_455 S
H713 C685 0.931 . S
H714 C687 0.930 . S
H715 C688 0.930 1_455 S
H716 C693 0.929 . S
H717 C694 0.931 . S
H718 C696 0.930 . S
H719 C697 0.930 . S
Tb720 C722 2.809 . S
Tb720 O740 2.484 . S
Tb720 O741 2.440 . S
Tb720 O742 2.658 . S
Tb720 O743 2.409 . S
Tb720 O744 2.378 . S
Tb720 O748 2.325 . S
Tb720 O751 2.341 . S
Tb721 C731 2.809 . S
Tb721 O742 2.325 . S
Tb721 O745 2.341 . S
Tb721 O746 2.484 . S
Tb721 O747 2.440 . S
Tb721 O748 2.658 . S
Tb721 O749 2.409 . S
Tb721 O750 2.378 . S
C722 Tb720 2.809 . S
C722 C723 1.514 . S
C722 O740 1.248 . S
C722 O741 1.266 . S
C723 C722 1.514 . S
C723 C724 1.359 . S
C723 C728 1.348 . S
C724 C723 1.359 . S
C724 C725 1.380 . S
C724 H752 0.929 . S
C725 C724 1.380 . S
C725 C726 1.347 . S
C725 H753 0.931 . S
C726 C725 1.347 . S
C726 C727 1.369 . S
C727 C726 1.369 . S
C727 C728 1.408 . S
C727 H754 0.930 . S
C728 C723 1.348 . S
C728 C727 1.408 . S
C728 H755 0.930 . S
C729 O742 1.281 . S
C729 O743 1.254 . S
C730 O744 1.236 . S
C730 O745 1.266 . S
C731 Tb721 2.809 . S
C731 C732 1.514 . S
C731 O746 1.248 . S
C731 O747 1.266 . S
C732 C731 1.514 . S
C732 C733 1.359 . S
C732 C737 1.348 . S
C733 C732 1.359 . S
C733 C734 1.380 . S
C733 H756 0.929 . S
C734 C733 1.380 . S
C734 C735 1.347 . S
C734 H757 0.931 . S
C735 C734 1.347 . S
C735 C736 1.369 . S
C736 C735 1.369 . S
C736 C737 1.408 . S
C736 H758 0.930 . S
C737 C732 1.348 . S
C737 C736 1.408 . S
C737 H759 0.930 . S
C738 O748 1.281 . S
C738 O749 1.254 . S
C739 O750 1.236 . S
C739 O751 1.266 . S
O740 Tb720 2.484 . S
O740 C722 1.248 . S
O741 Tb720 2.440 . S
O741 C722 1.266 . S
O742 Tb720 2.658 . S
O742 Tb721 2.325 . S
O742 C729 1.281 . S
O743 Tb720 2.409 . S
O743 C729 1.254 . S
O744 Tb720 2.378 . S
O744 C730 1.236 . S
O745 Tb721 2.341 . S
O745 C730 1.266 . S
O746 Tb721 2.484 . S
O746 C731 1.248 . S
O747 Tb721 2.440 . S
O747 C731 1.266 . S
O748 Tb720 2.325 . S
O748 Tb721 2.658 . S
O748 C738 1.281 . S
O749 Tb721 2.409 . S
O749 C738 1.254 . S
O750 Tb721 2.378 . S
O750 C739 1.236 . S
O751 Tb720 2.341 . S
O751 C739 1.266 . S
H752 C724 0.929 . S
H753 C725 0.931 . S
H754 C727 0.930 . S
H755 C728 0.930 . S
H756 C733 0.929 . S
H757 C734 0.931 . S
H758 C736 0.930 . S
H759 C737 0.930 . S
Tb760 C762 2.809 . S
Tb760 O780 2.484 . S
Tb760 O781 2.440 . S
Tb760 O782 2.658 . S
Tb760 O783 2.409 . S
Tb760 O784 2.378 . S
Tb760 O788 2.325 . S
Tb760 O791 2.341 . S
Tb761 C771 2.809 1_565 S
Tb761 O782 2.325 . S
Tb761 O785 2.341 . S
Tb761 O786 2.484 . S
Tb761 O787 2.440 . S
Tb761 O788 2.658 . S
Tb761 O789 2.409 . S
Tb761 O790 2.378 . S
C762 Tb760 2.809 . S
C762 C763 1.514 . S
C762 O780 1.248 . S
C762 O781 1.266 . S
C763 C762 1.514 . S
C763 C764 1.359 . S
C763 C768 1.348 . S
C764 C763 1.359 . S
C764 C765 1.380 . S
C764 H792 0.929 . S
C765 C764 1.380 . S
C765 C766 1.347 . S
C765 H793 0.931 . S
C766 C765 1.347 . S
C766 C767 1.369 . S
C767 C766 1.369 . S
C767 C768 1.408 . S
C767 H794 0.930 . S
C768 C763 1.348 . S
C768 C767 1.408 . S
C768 H795 0.930 . S
C769 O782 1.281 . S
C769 O783 1.254 . S
C770 O784 1.236 . S
C770 O785 1.266 . S
C771 Tb761 2.809 1_545 S
C771 C772 1.514 . S
C771 O786 1.248 1_545 S
C771 O787 1.266 1_545 S
C772 C771 1.514 . S
C772 C773 1.359 . S
C772 C777 1.348 . S
C773 C772 1.359 . S
C773 C774 1.380 . S
C773 H796 0.929 . S
C774 C773 1.380 . S
C774 C775 1.347 . S
C774 H797 0.931 . S
C775 C774 1.347 . S
C775 C776 1.369 . S
C776 C775 1.369 . S
C776 C777 1.408 . S
C776 H798 0.930 . S
C777 C772 1.348 . S
C777 C776 1.408 . S
C777 H799 0.930 . S
C778 O788 1.281 . S
C778 O789 1.254 . S
C779 O790 1.236 . S
C779 O791 1.266 . S
O780 Tb760 2.484 . S
O780 C762 1.248 . S
O781 Tb760 2.440 . S
O781 C762 1.266 . S
O782 Tb760 2.658 . S
O782 Tb761 2.325 . S
O782 C769 1.281 . S
O783 Tb760 2.409 . S
O783 C769 1.254 . S
O784 Tb760 2.378 . S
O784 C770 1.236 . S
O785 Tb761 2.341 . S
O785 C770 1.266 . S
O786 Tb761 2.484 . S
O786 C771 1.248 1_565 S
O787 Tb761 2.440 . S
O787 C771 1.266 1_565 S
O788 Tb760 2.325 . S
O788 Tb761 2.658 . S
O788 C778 1.281 . S
O789 Tb761 2.409 . S
O789 C778 1.254 . S
O790 Tb761 2.378 . S
O790 C779 1.236 . S
O791 Tb760 2.341 . S
O791 C779 1.266 . S
H792 C764 0.929 . S
H793 C765 0.931 . S
H794 C767 0.930 . S
H795 C768 0.930 . S
H796 C773 0.929 . S
H797 C774 0.931 . S
H798 C776 0.930 . S
H799 C777 0.930 . S
Tb800 C802 2.809 . S
Tb800 O820 2.484 . S
Tb800 O821 2.440 . S
Tb800 O822 2.658 . S
Tb800 O823 2.409 . S
Tb800 O824 2.378 . S
Tb800 O828 2.325 . S
Tb800 O831 2.341 . S
Tb801 C811 2.809 . S
Tb801 O822 2.325 . S
Tb801 O825 2.341 . S
Tb801 O826 2.484 . S
Tb801 O827 2.440 . S
Tb801 O828 2.658 . S
Tb801 O829 2.409 . S
Tb801 O830 2.378 . S
C802 Tb800 2.809 . S
C802 C803 1.514 . S
C802 O820 1.248 . S
C802 O821 1.266 . S
C803 C802 1.514 . S
C803 C804 1.359 . S
C803 C808 1.348 . S
C804 C803 1.359 . S
C804 C805 1.380 . S
C804 H832 0.929 . S
C805 C804 1.380 . S
C805 C806 1.347 . S
C805 H833 0.931 . S
C806 C805 1.347 . S
C806 C807 1.369 . S
C807 C806 1.369 . S
C807 C808 1.408 . S
C807 H834 0.930 . S
C808 C803 1.348 . S
C808 C807 1.408 . S
C808 H835 0.930 . S
C809 O822 1.281 . S
C809 O823 1.254 . S
C810 O824 1.236 . S
C810 O825 1.266 . S
C811 Tb801 2.809 . S
C811 C812 1.514 . S
C811 O826 1.248 . S
C811 O827 1.266 . S
C812 C811 1.514 . S
C812 C813 1.359 1_455 S
C812 C817 1.348 1_455 S
C813 C812 1.359 1_655 S
C813 C814 1.380 . S
C813 H836 0.929 1_655 S
C814 C813 1.380 . S
C814 C815 1.347 . S
C814 H837 0.931 . S
C815 C814 1.347 . S
C815 C816 1.369 . S
C816 C815 1.369 . S
C816 C817 1.408 . S
C816 H838 0.930 . S
C817 C812 1.348 1_655 S
C817 C816 1.408 . S
C817 H839 0.930 1_655 S
C818 O828 1.281 . S
C818 O829 1.254 . S
C819 O830 1.236 . S
C819 O831 1.266 . S
O820 Tb800 2.484 . S
O820 C802 1.248 . S
O821 Tb800 2.440 . S
O821 C802 1.266 . S
O822 Tb800 2.658 . S
O822 Tb801 2.325 . S
O822 C809 1.281 . S
O823 Tb800 2.409 . S
O823 C809 1.254 . S
O824 Tb800 2.378 . S
O824 C810 1.236 . S
O825 Tb801 2.341 . S
O825 C810 1.266 . S
O826 Tb801 2.484 . S
O826 C811 1.248 . S
O827 Tb801 2.440 . S
O827 C811 1.266 . S
O828 Tb800 2.325 . S
O828 Tb801 2.658 . S
O828 C818 1.281 . S
O829 Tb801 2.409 . S
O829 C818 1.254 . S
O830 Tb801 2.378 . S
O830 C819 1.236 . S
O831 Tb800 2.341 . S
O831 C819 1.266 . S
H832 C804 0.929 . S
H833 C805 0.931 . S
H834 C807 0.930 . S
H835 C808 0.930 . S
H836 C813 0.929 1_455 S
H837 C814 0.931 . S
H838 C816 0.930 . S
H839 C817 0.930 1_455 S
Tb840 C842 2.809 . S
Tb840 O860 2.484 . S
Tb840 O861 2.440 . S
Tb840 O862 2.658 . S
Tb840 O863 2.409 . S
Tb840 O864 2.378 . S
Tb840 O868 2.325 . S
Tb840 O871 2.341 . S
Tb841 C851 2.809 . S
Tb841 O862 2.325 . S
Tb841 O865 2.341 . S
Tb841 O866 2.484 . S
Tb841 O867 2.440 . S
Tb841 O868 2.658 . S
Tb841 O869 2.409 . S
Tb841 O870 2.378 . S
C842 Tb840 2.809 . S
C842 C843 1.514 . S
C842 O860 1.248 . S
C842 O861 1.266 . S
C843 C842 1.514 . S
C843 C844 1.359 . S
C843 C848 1.348 . S
C844 C843 1.359 . S
C844 C845 1.380 . S
C844 H872 0.929 . S
C845 C844 1.380 . S
C845 C846 1.347 . S
C845 H873 0.931 . S
C846 C845 1.347 . S
C846 C847 1.369 . S
C847 C846 1.369 . S
C847 C848 1.408 . S
C847 H874 0.930 . S
C848 C843 1.348 . S
C848 C847 1.408 . S
C848 H875 0.930 . S
C849 O862 1.281 . S
C849 O863 1.254 . S
C850 O864 1.236 . S
C850 O865 1.266 . S
C851 Tb841 2.809 . S
C851 C852 1.514 . S
C851 O866 1.248 . S
C851 O867 1.266 . S
C852 C851 1.514 . S
C852 C853 1.359 . S
C852 C857 1.348 . S
C853 C852 1.359 . S
C853 C854 1.380 . S
C853 H876 0.929 . S
C854 C853 1.380 . S
C854 C855 1.347 . S
C854 H877 0.931 . S
C855 C854 1.347 . S
C855 C856 1.369 . S
C856 C855 1.369 . S
C856 C857 1.408 . S
C856 H878 0.930 . S
C857 C852 1.348 . S
C857 C856 1.408 . S
C857 H879 0.930 . S
C858 O868 1.281 . S
C858 O869 1.254 . S
C859 O870 1.236 . S
C859 O871 1.266 . S
O860 Tb840 2.484 . S
O860 C842 1.248 . S
O861 Tb840 2.440 . S
O861 C842 1.266 . S
O862 Tb840 2.658 . S
O862 Tb841 2.325 . S
O862 C849 1.281 . S
O863 Tb840 2.409 . S
O863 C849 1.254 . S
O864 Tb840 2.378 . S
O864 C850 1.236 . S
O865 Tb841 2.341 . S
O865 C850 1.266 . S
O866 Tb841 2.484 . S
O866 C851 1.248 . S
O867 Tb841 2.440 . S
O867 C851 1.266 . S
O868 Tb840 2.325 . S
O868 Tb841 2.658 . S
O868 C858 1.281 . S
O869 Tb841 2.409 . S
O869 C858 1.254 . S
O870 Tb841 2.378 . S
O870 C859 1.236 . S
O871 Tb840 2.341 . S
O871 C859 1.266 . S
H872 C844 0.929 . S
H873 C845 0.931 . S
H874 C847 0.930 . S
H875 C848 0.930 . S
H876 C853 0.929 . S
H877 C854 0.931 . S
H878 C856 0.930 . S
H879 C857 0.930 . S
Tb880 C882 2.809 . S
Tb880 O900 2.484 . S
Tb880 O901 2.440 . S
Tb880 O902 2.658 . S
Tb880 O903 2.409 . S
Tb880 O904 2.378 . S
Tb880 O908 2.325 . S
Tb880 O911 2.341 . S
Tb881 C891 2.809 . S
Tb881 O902 2.325 . S
Tb881 O905 2.341 . S
Tb881 O906 2.484 . S
Tb881 O907 2.440 . S
Tb881 O908 2.658 . S
Tb881 O909 2.409 . S
Tb881 O910 2.378 . S
C882 Tb880 2.809 . S
C882 C883 1.514 . S
C882 O900 1.248 . S
C882 O901 1.266 . S
C883 C882 1.514 . S
C883 C884 1.359 . S
C883 C888 1.348 . S
C884 C883 1.359 . S
C884 C885 1.380 1_565 S
C884 H912 0.929 . S
C885 C884 1.380 1_545 S
C885 C886 1.347 . S
C885 H913 0.931 . S
C886 C885 1.347 . S
C886 C887 1.369 . S
C887 C886 1.369 . S
C887 C888 1.408 1_545 S
C887 H914 0.930 . S
C888 C883 1.348 . S
C888 C887 1.408 1_565 S
C888 H915 0.930 . S
C889 O902 1.281 . S
C889 O903 1.254 . S
C890 O904 1.236 . S
C890 O905 1.266 . S
C891 Tb881 2.809 . S
C891 C892 1.514 . S
C891 O906 1.248 . S
C891 O907 1.266 . S
C892 C891 1.514 . S
C892 C893 1.359 . S
C892 C897 1.348 . S
C893 C892 1.359 . S
C893 C894 1.380 . S
C893 H916 0.929 . S
C894 C893 1.380 . S
C894 C895 1.347 . S
C894 H917 0.931 . S
C895 C894 1.347 . S
C895 C896 1.369 . S
C896 C895 1.369 . S
C896 C897 1.408 . S
C896 H918 0.930 . S
C897 C892 1.348 . S
C897 C896 1.408 . S
C897 H919 0.930 . S
C898 O908 1.281 . S
C898 O909 1.254 . S
C899 O910 1.236 . S
C899 O911 1.266 . S
O900 Tb880 2.484 . S
O900 C882 1.248 . S
O901 Tb880 2.440 . S
O901 C882 1.266 . S
O902 Tb880 2.658 . S
O902 Tb881 2.325 . S
O902 C889 1.281 . S
O903 Tb880 2.409 . S
O903 C889 1.254 . S
O904 Tb880 2.378 . S
O904 C890 1.236 . S
O905 Tb881 2.341 . S
O905 C890 1.266 . S
O906 Tb881 2.484 . S
O906 C891 1.248 . S
O907 Tb881 2.440 . S
O907 C891 1.266 . S
O908 Tb880 2.325 . S
O908 Tb881 2.658 . S
O908 C898 1.281 . S
O909 Tb881 2.409 . S
O909 C898 1.254 . S
O910 Tb881 2.378 . S
O910 C899 1.236 . S
O911 Tb880 2.341 . S
O911 C899 1.266 . S
H912 C884 0.929 . S
H913 C885 0.931 . S
H914 C887 0.930 . S
H915 C888 0.930 . S
H916 C893 0.929 . S
H917 C894 0.931 . S
H918 C896 0.930 . S
H919 C897 0.930 . S
Tb920 C922 2.809 . S
Tb920 O940 2.484 . S
Tb920 O941 2.440 . S
Tb920 O942 2.658 . S
Tb920 O943 2.409 . S
Tb920 O944 2.378 . S
Tb920 O948 2.325 . S
Tb920 O951 2.341 . S
Tb921 C931 2.809 . S
Tb921 O942 2.325 . S
Tb921 O945 2.341 . S
Tb921 O946 2.484 . S
Tb921 O947 2.440 . S
Tb921 O948 2.658 . S
Tb921 O949 2.409 . S
Tb921 O950 2.378 . S
C922 Tb920 2.809 . S
C922 C923 1.514 . S
C922 O940 1.248 . S
C922 O941 1.266 . S
C923 C922 1.514 . S
C923 C924 1.359 . S
C923 C928 1.348 . S
C924 C923 1.359 . S
C924 C925 1.380 . S
C924 H952 0.929 . S
C925 C924 1.380 . S
C925 C926 1.347 . S
C925 H953 0.931 . S
C926 C925 1.347 . S
C926 C927 1.369 . S
C927 C926 1.369 . S
C927 C928 1.408 . S
C927 H954 0.930 . S
C928 C923 1.348 . S
C928 C927 1.408 . S
C928 H955 0.930 . S
C929 O942 1.281 . S
C929 O943 1.254 . S
C930 O944 1.236 . S
C930 O945 1.266 . S
C931 Tb921 2.809 . S
C931 C932 1.514 . S
C931 O946 1.248 . S
C931 O947 1.266 . S
C932 C931 1.514 . S
C932 C933 1.359 . S
C932 C937 1.348 . S
C933 C932 1.359 . S
C933 C934 1.380 . S
C933 H956 0.929 . S
C934 C933 1.380 . S
C934 C935 1.347 . S
C934 H957 0.931 . S
C935 C934 1.347 . S
C935 C936 1.369 . S
C936 C935 1.369 . S
C936 C937 1.408 . S
C936 H958 0.930 . S
C937 C932 1.348 . S
C937 C936 1.408 . S
C937 H959 0.930 . S
C938 O948 1.281 . S
C938 O949 1.254 . S
C939 O950 1.236 . S
C939 O951 1.266 . S
O940 Tb920 2.484 . S
O940 C922 1.248 . S
O941 Tb920 2.440 . S
O941 C922 1.266 . S
O942 Tb920 2.658 . S
O942 Tb921 2.325 . S
O942 C929 1.281 . S
O943 Tb920 2.409 . S
O943 C929 1.254 . S
O944 Tb920 2.378 . S
O944 C930 1.236 . S
O945 Tb921 2.341 . S
O945 C930 1.266 . S
O946 Tb921 2.484 . S
O946 C931 1.248 . S
O947 Tb921 2.440 . S
O947 C931 1.266 . S
O948 Tb920 2.325 . S
O948 Tb921 2.658 . S
O948 C938 1.281 . S
O949 Tb921 2.409 . S
O949 C938 1.254 . S
O950 Tb921 2.378 . S
O950 C939 1.236 . S
O951 Tb920 2.341 . S
O951 C939 1.266 . S
H952 C924 0.929 . S
H953 C925 0.931 . S
H954 C927 0.930 . S
H955 C928 0.930 . S
H956 C933 0.929 . S
H957 C934 0.931 . S
H958 C936 0.930 . S
H959 C937 0.930 . S
Tb960 C962 2.809 . S
Tb960 O980 2.484 . S
Tb960 O981 2.440 . S
Tb960 O982 2.658 . S
Tb960 O983 2.409 . S
Tb960 O984 2.378 . S
Tb960 O988 2.325 . S
Tb960 O991 2.341 . S
Tb961 C971 2.809 . S
Tb961 O982 2.325 . S
Tb961 O985 2.341 . S
Tb961 O986 2.484 . S
Tb961 O987 2.440 . S
Tb961 O988 2.658 . S
Tb961 O989 2.409 . S
Tb961 O990 2.378 . S
C962 Tb960 2.809 . S
C962 C963 1.514 . S
C962 O980 1.248 . S
C962 O981 1.266 . S
C963 C962 1.514 . S
C963 C964 1.359 . S
C963 C968 1.348 . S
C964 C963 1.359 . S
C964 C965 1.380 . S
C964 H992 0.929 . S
C965 C964 1.380 . S
C965 C966 1.347 . S
C965 H993 0.931 . S
C966 C965 1.347 . S
C966 C967 1.369 . S
C967 C966 1.369 . S
C967 C968 1.408 . S
C967 H994 0.930 . S
C968 C963 1.348 . S
C968 C967 1.408 . S
C968 H995 0.930 . S
C969 O982 1.281 . S
C969 O983 1.254 . S
C970 O984 1.236 . S
C970 O985 1.266 . S
C971 Tb961 2.809 . S
C971 C972 1.514 . S
C971 O986 1.248 . S
C971 O987 1.266 . S
C972 C971 1.514 . S
C972 C973 1.359 . S
C972 C977 1.348 . S
C973 C972 1.359 . S
C973 C974 1.380 . S
C973 H996 0.929 . S
C974 C973 1.380 . S
C974 C975 1.347 . S
C974 H997 0.931 . S
C975 C974 1.347 . S
C975 C976 1.369 . S
C976 C975 1.369 . S
C976 C977 1.408 . S
C976 H998 0.930 . S
C977 C972 1.348 . S
C977 C976 1.408 . S
C977 H999 0.930 . S
C978 O988 1.281 . S
C978 O989 1.254 . S
C979 O990 1.236 . S
C979 O991 1.266 . S
O980 Tb960 2.484 . S
O980 C962 1.248 . S
O981 Tb960 2.440 . S
O981 C962 1.266 . S
O982 Tb960 2.658 . S
O982 Tb961 2.325 . S
O982 C969 1.281 . S
O983 Tb960 2.409 . S
O983 C969 1.254 . S
O984 Tb960 2.378 . S
O984 C970 1.236 . S
O985 Tb961 2.341 . S
O985 C970 1.266 . S
O986 Tb961 2.484 . S
O986 C971 1.248 . S
O987 Tb961 2.440 . S
O987 C971 1.266 . S
O988 Tb960 2.325 . S
O988 Tb961 2.658 . S
O988 C978 1.281 . S
O989 Tb961 2.409 . S
O989 C978 1.254 . S
O990 Tb961 2.378 . S
O990 C979 1.236 . S
O991 Tb960 2.341 . S
O991 C979 1.266 . S
H992 C964 0.929 . S
H993 C965 0.931 . S
H994 C967 0.930 . S
H995 C968 0.930 . S
H996 C973 0.929 . S
H997 C974 0.931 . S
H998 C976 0.930 . S
H999 C977 0.930 . S
Tb1000 C1002 2.809 . S
Tb1000 O1020 2.484 . S
Tb1000 O1021 2.440 . S
Tb1000 O1022 2.658 . S
Tb1000 O1023 2.409 . S
Tb1000 O1024 2.378 . S
Tb1000 O1028 2.325 . S
Tb1000 O1031 2.341 . S
Tb1001 C1011 2.809 . S
Tb1001 O1022 2.325 . S
Tb1001 O1025 2.341 . S
Tb1001 O1026 2.484 . S
Tb1001 O1027 2.440 . S
Tb1001 O1028 2.658 . S
Tb1001 O1029 2.409 . S
Tb1001 O1030 2.378 . S
C1002 Tb1000 2.809 . S
C1002 C1003 1.514 . S
C1002 O1020 1.248 . S
C1002 O1021 1.266 . S
C1003 C1002 1.514 . S
C1003 C1004 1.359 1_545 S
C1003 C1008 1.348 1_545 S
C1004 C1003 1.359 1_565 S
C1004 C1005 1.380 . S
C1004 H1032 0.929 1_565 S
C1005 C1004 1.380 . S
C1005 C1006 1.347 . S
C1005 H1033 0.931 . S
C1006 C1005 1.347 . S
C1006 C1007 1.369 . S
C1007 C1006 1.369 . S
C1007 C1008 1.408 . S
C1007 H1034 0.930 . S
C1008 C1003 1.348 1_565 S
C1008 C1007 1.408 . S
C1008 H1035 0.930 1_565 S
C1009 O1022 1.281 . S
C1009 O1023 1.254 . S
C1010 O1024 1.236 . S
C1010 O1025 1.266 . S
C1011 Tb1001 2.809 . S
C1011 C1012 1.514 . S
C1011 O1026 1.248 . S
C1011 O1027 1.266 . S
C1012 C1011 1.514 . S
C1012 C1013 1.359 . S
C1012 C1017 1.348 . S
C1013 C1012 1.359 . S
C1013 C1014 1.380 . S
C1013 H1036 0.929 . S
C1014 C1013 1.380 . S
C1014 C1015 1.347 . S
C1014 H1037 0.931 . S
C1015 C1014 1.347 . S
C1015 C1016 1.369 . S
C1016 C1015 1.369 . S
C1016 C1017 1.408 . S
C1016 H1038 0.930 . S
C1017 C1012 1.348 . S
C1017 C1016 1.408 . S
C1017 H1039 0.930 . S
C1018 O1028 1.281 . S
C1018 O1029 1.254 . S
C1019 O1030 1.236 . S
C1019 O1031 1.266 . S
O1020 Tb1000 2.484 . S
O1020 C1002 1.248 . S
O1021 Tb1000 2.440 . S
O1021 C1002 1.266 . S
O1022 Tb1000 2.658 . S
O1022 Tb1001 2.325 . S
O1022 C1009 1.281 . S
O1023 Tb1000 2.409 . S
O1023 C1009 1.254 . S
O1024 Tb1000 2.378 . S
O1024 C1010 1.236 . S
O1025 Tb1001 2.341 . S
O1025 C1010 1.266 . S
O1026 Tb1001 2.484 . S
O1026 C1011 1.248 . S
O1027 Tb1001 2.440 . S
O1027 C1011 1.266 . S
O1028 Tb1000 2.325 . S
O1028 Tb1001 2.658 . S
O1028 C1018 1.281 . S
O1029 Tb1001 2.409 . S
O1029 C1018 1.254 . S
O1030 Tb1001 2.378 . S
O1030 C1019 1.236 . S
O1031 Tb1000 2.341 . S
O1031 C1019 1.266 . S
H1032 C1004 0.929 1_545 S
H1033 C1005 0.931 . S
H1034 C1007 0.930 . S
H1035 C1008 0.930 1_545 S
H1036 C1013 0.929 . S
H1037 C1014 0.931 . S
H1038 C1016 0.930 . S
H1039 C1017 0.930 . S
Tb1040 C1042 2.809 1_655 S
Tb1040 O1060 2.484 . S
Tb1040 O1061 2.440 . S
Tb1040 O1062 2.658 . S
Tb1040 O1063 2.409 . S
Tb1040 O1064 2.378 . S
Tb1040 O1068 2.325 . S
Tb1040 O1071 2.341 . S
Tb1041 C1051 2.809 . S
Tb1041 O1062 2.325 . S
Tb1041 O1065 2.341 . S
Tb1041 O1066 2.484 . S
Tb1041 O1067 2.440 . S
Tb1041 O1068 2.658 . S
Tb1041 O1069 2.409 . S
Tb1041 O1070 2.378 . S
C1042 Tb1040 2.809 1_455 S
C1042 C1043 1.514 . S
C1042 O1060 1.248 1_455 S
C1042 O1061 1.266 1_455 S
C1043 C1042 1.514 . S
C1043 C1044 1.359 . S
C1043 C1048 1.348 . S
C1044 C1043 1.359 . S
C1044 C1045 1.380 . S
C1044 H1072 0.929 . S
C1045 C1044 1.380 . S
C1045 C1046 1.347 . S
C1045 H1073 0.931 . S
C1046 C1045 1.347 . S
C1046 C1047 1.369 . S
C1047 C1046 1.369 . S
C1047 C1048 1.408 . S
C1047 H1074 0.930 . S
C1048 C1043 1.348 . S
C1048 C1047 1.408 . S
C1048 H1075 0.930 . S
C1049 O1062 1.281 . S
C1049 O1063 1.254 . S
C1050 O1064 1.236 . S
C1050 O1065 1.266 . S
C1051 Tb1041 2.809 . S
C1051 C1052 1.514 . S
C1051 O1066 1.248 . S
C1051 O1067 1.266 . S
C1052 C1051 1.514 . S
C1052 C1053 1.359 . S
C1052 C1057 1.348 . S
C1053 C1052 1.359 . S
C1053 C1054 1.380 . S
C1053 H1076 0.929 . S
C1054 C1053 1.380 . S
C1054 C1055 1.347 . S
C1054 H1077 0.931 . S
C1055 C1054 1.347 . S
C1055 C1056 1.369 . S
C1056 C1055 1.369 . S
C1056 C1057 1.408 . S
C1056 H1078 0.930 . S
C1057 C1052 1.348 . S
C1057 C1056 1.408 . S
C1057 H1079 0.930 . S
C1058 O1068 1.281 . S
C1058 O1069 1.254 . S
C1059 O1070 1.236 . S
C1059 O1071 1.266 . S
O1060 Tb1040 2.484 . S
O1060 C1042 1.248 1_655 S
O1061 Tb1040 2.440 . S
O1061 C1042 1.266 1_655 S
O1062 Tb1040 2.658 . S
O1062 Tb1041 2.325 . S
O1062 C1049 1.281 . S
O1063 Tb1040 2.409 . S
O1063 C1049 1.254 . S
O1064 Tb1040 2.378 . S
O1064 C1050 1.236 . S
O1065 Tb1041 2.341 . S
O1065 C1050 1.266 . S
O1066 Tb1041 2.484 . S
O1066 C1051 1.248 . S
O1067 Tb1041 2.440 . S
O1067 C1051 1.266 . S
O1068 Tb1040 2.325 . S
O1068 Tb1041 2.658 . S
O1068 C1058 1.281 . S
O1069 Tb1041 2.409 . S
O1069 C1058 1.254 . S
O1070 Tb1041 2.378 . S
O1070 C1059 1.236 . S
O1071 Tb1040 2.341 . S
O1071 C1059 1.266 . S
H1072 C1044 0.929 . S
H1073 C1045 0.931 . S
H1074 C1047 0.930 . S
H1075 C1048 0.930 . S
H1076 C1053 0.929 . S
H1077 C1054 0.931 . S
H1078 C1056 0.930 . S
H1079 C1057 0.930 . S
Tb1080 C1082 2.809 . S
Tb1080 O1100 2.484 . S
Tb1080 O1101 2.440 . S
Tb1080 O1102 2.658 . S
Tb1080 O1103 2.409 . S
Tb1080 O1104 2.378 . S
Tb1080 O1108 2.325 . S
Tb1080 O1111 2.341 . S
Tb1081 C1091 2.809 . S
Tb1081 O1102 2.325 . S
Tb1081 O1105 2.341 . S
Tb1081 O1106 2.484 . S
Tb1081 O1107 2.440 . S
Tb1081 O1108 2.658 . S
Tb1081 O1109 2.409 . S
Tb1081 O1110 2.378 . S
C1082 Tb1080 2.809 . S
C1082 C1083 1.514 . S
C1082 O1100 1.248 . S
C1082 O1101 1.266 . S
C1083 C1082 1.514 . S
C1083 C1084 1.359 . S
C1083 C1088 1.348 . S
C1084 C1083 1.359 . S
C1084 C1085 1.380 . S
C1084 H1112 0.929 . S
C1085 C1084 1.380 . S
C1085 C1086 1.347 . S
C1085 H1113 0.931 . S
C1086 C1085 1.347 . S
C1086 C1087 1.369 . S
C1087 C1086 1.369 . S
C1087 C1088 1.408 . S
C1087 H1114 0.930 . S
C1088 C1083 1.348 . S
C1088 C1087 1.408 . S
C1088 H1115 0.930 . S
C1089 O1102 1.281 . S
C1089 O1103 1.254 . S
C1090 O1104 1.236 . S
C1090 O1105 1.266 . S
C1091 Tb1081 2.809 . S
C1091 C1092 1.514 . S
C1091 O1106 1.248 . S
C1091 O1107 1.266 . S
C1092 C1091 1.514 . S
C1092 C1093 1.359 . S
C1092 C1097 1.348 . S
C1093 C1092 1.359 . S
C1093 C1094 1.380 . S
C1093 H1116 0.929 . S
C1094 C1093 1.380 . S
C1094 C1095 1.347 . S
C1094 H1117 0.931 . S
C1095 C1094 1.347 . S
C1095 C1096 1.369 . S
C1096 C1095 1.369 . S
C1096 C1097 1.408 . S
C1096 H1118 0.930 . S
C1097 C1092 1.348 . S
C1097 C1096 1.408 . S
C1097 H1119 0.930 . S
C1098 O1108 1.281 . S
C1098 O1109 1.254 . S
C1099 O1110 1.236 . S
C1099 O1111 1.266 . S
O1100 Tb1080 2.484 . S
O1100 C1082 1.248 . S
O1101 Tb1080 2.440 . S
O1101 C1082 1.266 . S
O1102 Tb1080 2.658 . S
O1102 Tb1081 2.325 . S
O1102 C1089 1.281 . S
O1103 Tb1080 2.409 . S
O1103 C1089 1.254 . S
O1104 Tb1080 2.378 . S
O1104 C1090 1.236 . S
O1105 Tb1081 2.341 . S
O1105 C1090 1.266 . S
O1106 Tb1081 2.484 . S
O1106 C1091 1.248 . S
O1107 Tb1081 2.440 . S
O1107 C1091 1.266 . S
O1108 Tb1080 2.325 . S
O1108 Tb1081 2.658 . S
O1108 C1098 1.281 . S
O1109 Tb1081 2.409 . S
O1109 C1098 1.254 . S
O1110 Tb1081 2.378 . S
O1110 C1099 1.236 . S
O1111 Tb1080 2.341 . S
O1111 C1099 1.266 . S
H1112 C1084 0.929 . S
H1113 C1085 0.931 . S
H1114 C1087 0.930 . S
H1115 C1088 0.930 . S
H1116 C1093 0.929 . S
H1117 C1094 0.931 . S
H1118 C1096 0.930 . S
H1119 C1097 0.930 . S
Tb1120 C1122 2.809 . S
Tb1120 O1140 2.484 . S
Tb1120 O1141 2.440 . S
Tb1120 O1142 2.658 . S
Tb1120 O1143 2.409 . S
Tb1120 O1144 2.378 . S
Tb1120 O1148 2.325 . S
Tb1120 O1151 2.341 . S
Tb1121 C1131 2.809 . S
Tb1121 O1142 2.325 . S
Tb1121 O1145 2.341 . S
Tb1121 O1146 2.484 . S
Tb1121 O1147 2.440 . S
Tb1121 O1148 2.658 . S
Tb1121 O1149 2.409 . S
Tb1121 O1150 2.378 . S
C1122 Tb1120 2.809 . S
C1122 C1123 1.514 . S
C1122 O1140 1.248 . S
C1122 O1141 1.266 . S
C1123 C1122 1.514 . S
C1123 C1124 1.359 . S
C1123 C1128 1.348 . S
C1124 C1123 1.359 . S
C1124 C1125 1.380 . S
C1124 H1152 0.929 . S
C1125 C1124 1.380 . S
C1125 C1126 1.347 . S
C1125 H1153 0.931 . S
C1126 C1125 1.347 . S
C1126 C1127 1.369 . S
C1127 C1126 1.369 . S
C1127 C1128 1.408 . S
C1127 H1154 0.930 . S
C1128 C1123 1.348 . S
C1128 C1127 1.408 . S
C1128 H1155 0.930 . S
C1129 O1142 1.281 . S
C1129 O1143 1.254 . S
C1130 O1144 1.236 . S
C1130 O1145 1.266 . S
C1131 Tb1121 2.809 . S
C1131 C1132 1.514 . S
C1131 O1146 1.248 . S
C1131 O1147 1.266 . S
C1132 C1131 1.514 . S
C1132 C1133 1.359 . S
C1132 C1137 1.348 . S
C1133 C1132 1.359 . S
C1133 C1134 1.380 . S
C1133 H1156 0.929 . S
C1134 C1133 1.380 . S
C1134 C1135 1.347 . S
C1134 H1157 0.931 . S
C1135 C1134 1.347 . S
C1135 C1136 1.369 . S
C1136 C1135 1.369 . S
C1136 C1137 1.408 . S
C1136 H1158 0.930 . S
C1137 C1132 1.348 . S
C1137 C1136 1.408 . S
C1137 H1159 0.930 . S
C1138 O1148 1.281 . S
C1138 O1149 1.254 . S
C1139 O1150 1.236 . S
C1139 O1151 1.266 . S
O1140 Tb1120 2.484 . S
O1140 C1122 1.248 . S
O1141 Tb1120 2.440 . S
O1141 C1122 1.266 . S
O1142 Tb1120 2.658 . S
O1142 Tb1121 2.325 . S
O1142 C1129 1.281 . S
O1143 Tb1120 2.409 . S
O1143 C1129 1.254 . S
O1144 Tb1120 2.378 . S
O1144 C1130 1.236 . S
O1145 Tb1121 2.341 . S
O1145 C1130 1.266 . S
O1146 Tb1121 2.484 . S
O1146 C1131 1.248 . S
O1147 Tb1121 2.440 . S
O1147 C1131 1.266 . S
O1148 Tb1120 2.325 . S
O1148 Tb1121 2.658 . S
O1148 C1138 1.281 . S
O1149 Tb1121 2.409 . S
O1149 C1138 1.254 . S
O1150 Tb1121 2.378 . S
O1150 C1139 1.236 . S
O1151 Tb1120 2.341 . S
O1151 C1139 1.266 . S
H1152 C1124 0.929 . S
H1153 C1125 0.931 . S
H1154 C1127 0.930 . S
H1155 C1128 0.930 . S
H1156 C1133 0.929 . S
H1157 C1134 0.931 . S
H1158 C1136 0.930 . S
H1159 C1137 0.930 . S
Tb1160 C1162 2.809 . S
Tb1160 O1180 2.484 . S
Tb1160 O1181 2.440 . S
Tb1160 O1182 2.658 . S
Tb1160 O1183 2.409 . S
Tb1160 O1184 2.378 . S
Tb1160 O1188 2.325 . S
Tb1160 O1191 2.341 . S
Tb1161 C1171 2.809 . S
Tb1161 O1182 2.325 . S
Tb1161 O1185 2.341 . S
Tb1161 O1186 2.484 . S
Tb1161 O1187 2.440 . S
Tb1161 O1188 2.658 . S
Tb1161 O1189 2.409 . S
Tb1161 O1190 2.378 . S
C1162 Tb1160 2.809 . S
C1162 C1163 1.514 . S
C1162 O1180 1.248 . S
C1162 O1181 1.266 . S
C1163 C1162 1.514 . S
C1163 C1164 1.359 . S
C1163 C1168 1.348 . S
C1164 C1163 1.359 . S
C1164 C1165 1.380 . S
C1164 H1192 0.929 . S
C1165 C1164 1.380 . S
C1165 C1166 1.347 . S
C1165 H1193 0.931 . S
C1166 C1165 1.347 . S
C1166 C1167 1.369 . S
C1167 C1166 1.369 . S
C1167 C1168 1.408 . S
C1167 H1194 0.930 . S
C1168 C1163 1.348 . S
C1168 C1167 1.408 . S
C1168 H1195 0.930 . S
C1169 O1182 1.281 . S
C1169 O1183 1.254 . S
C1170 O1184 1.236 . S
C1170 O1185 1.266 . S
C1171 Tb1161 2.809 . S
C1171 C1172 1.514 . S
C1171 O1186 1.248 . S
C1171 O1187 1.266 . S
C1172 C1171 1.514 . S
C1172 C1173 1.359 . S
C1172 C1177 1.348 . S
C1173 C1172 1.359 . S
C1173 C1174 1.380 1_655 S
C1173 H1196 0.929 . S
C1174 C1173 1.380 1_455 S
C1174 C1175 1.347 . S
C1174 H1197 0.931 . S
C1175 C1174 1.347 . S
C1175 C1176 1.369 . S
C1176 C1175 1.369 . S
C1176 C1177 1.408 1_455 S
C1176 H1198 0.930 . S
C1177 C1172 1.348 . S
C1177 C1176 1.408 1_655 S
C1177 H1199 0.930 . S
C1178 O1188 1.281 . S
C1178 O1189 1.254 . S
C1179 O1190 1.236 . S
C1179 O1191 1.266 . S
O1180 Tb1160 2.484 . S
O1180 C1162 1.248 . S
O1181 Tb1160 2.440 . S
O1181 C1162 1.266 . S
O1182 Tb1160 2.658 . S
O1182 Tb1161 2.325 . S
O1182 C1169 1.281 . S
O1183 Tb1160 2.409 . S
O1183 C1169 1.254 . S
O1184 Tb1160 2.378 . S
O1184 C1170 1.236 . S
O1185 Tb1161 2.341 . S
O1185 C1170 1.266 . S
O1186 Tb1161 2.484 . S
O1186 C1171 1.248 . S
O1187 Tb1161 2.440 . S
O1187 C1171 1.266 . S
O1188 Tb1160 2.325 . S
O1188 Tb1161 2.658 . S
O1188 C1178 1.281 . S
O1189 Tb1161 2.409 . S
O1189 C1178 1.254 . S
O1190 Tb1161 2.378 . S
O1190 C1179 1.236 . S
O1191 Tb1160 2.341 . S
O1191 C1179 1.266 . S
H1192 C1164 0.929 . S
H1193 C1165 0.931 . S
H1194 C1167 0.930 . S
H1195 C1168 0.930 . S
H1196 C1173 0.929 . S
H1197 C1174 0.931 . S
H1198 C1176 0.930 . S
H1199 C1177 0.930 . S
Tb1200 C1202 2.809 . S
Tb1200 O1220 2.484 . S
Tb1200 O1221 2.440 . S
Tb1200 O1222 2.658 . S
Tb1200 O1223 2.409 . S
Tb1200 O1224 2.378 . S
Tb1200 O1228 2.325 . S
Tb1200 O1231 2.341 . S
Tb1201 C1211 2.809 . S
Tb1201 O1222 2.325 . S
Tb1201 O1225 2.341 . S
Tb1201 O1226 2.484 . S
Tb1201 O1227 2.440 . S
Tb1201 O1228 2.658 . S
Tb1201 O1229 2.409 . S
Tb1201 O1230 2.378 . S
C1202 Tb1200 2.809 . S
C1202 C1203 1.514 . S
C1202 O1220 1.248 . S
C1202 O1221 1.266 . S
C1203 C1202 1.514 . S
C1203 C1204 1.359 . S
C1203 C1208 1.348 . S
C1204 C1203 1.359 . S
C1204 C1205 1.380 . S
C1204 H1232 0.929 . S
C1205 C1204 1.380 . S
C1205 C1206 1.347 . S
C1205 H1233 0.931 . S
C1206 C1205 1.347 . S
C1206 C1207 1.369 . S
C1207 C1206 1.369 . S
C1207 C1208 1.408 . S
C1207 H1234 0.930 . S
C1208 C1203 1.348 . S
C1208 C1207 1.408 . S
C1208 H1235 0.930 . S
C1209 O1222 1.281 . S
C1209 O1223 1.254 . S
C1210 O1224 1.236 . S
C1210 O1225 1.266 . S
C1211 Tb1201 2.809 . S
C1211 C1212 1.514 . S
C1211 O1226 1.248 . S
C1211 O1227 1.266 . S
C1212 C1211 1.514 . S
C1212 C1213 1.359 . S
C1212 C1217 1.348 . S
C1213 C1212 1.359 . S
C1213 C1214 1.380 . S
C1213 H1236 0.929 . S
C1214 C1213 1.380 . S
C1214 C1215 1.347 . S
C1214 H1237 0.931 . S
C1215 C1214 1.347 . S
C1215 C1216 1.369 . S
C1216 C1215 1.369 . S
C1216 C1217 1.408 . S
C1216 H1238 0.930 . S
C1217 C1212 1.348 . S
C1217 C1216 1.408 . S
C1217 H1239 0.930 . S
C1218 O1228 1.281 . S
C1218 O1229 1.254 . S
C1219 O1230 1.236 . S
C1219 O1231 1.266 . S
O1220 Tb1200 2.484 . S
O1220 C1202 1.248 . S
O1221 Tb1200 2.440 . S
O1221 C1202 1.266 . S
O1222 Tb1200 2.658 . S
O1222 Tb1201 2.325 . S
O1222 C1209 1.281 . S
O1223 Tb1200 2.409 . S
O1223 C1209 1.254 . S
O1224 Tb1200 2.378 . S
O1224 C1210 1.236 . S
O1225 Tb1201 2.341 . S
O1225 C1210 1.266 . S
O1226 Tb1201 2.484 . S
O1226 C1211 1.248 . S
O1227 Tb1201 2.440 . S
O1227 C1211 1.266 . S
O1228 Tb1200 2.325 . S
O1228 Tb1201 2.658 . S
O1228 C1218 1.281 . S
O1229 Tb1201 2.409 . S
O1229 C1218 1.254 . S
O1230 Tb1201 2.378 . S
O1230 C1219 1.236 . S
O1231 Tb1200 2.341 . S
O1231 C1219 1.266 . S
H1232 C1204 0.929 . S
H1233 C1205 0.931 . S
H1234 C1207 0.930 . S
H1235 C1208 0.930 . S
H1236 C1213 0.929 . S
H1237 C1214 0.931 . S
H1238 C1216 0.930 . S
H1239 C1217 0.930 . S
Tb1240 C1242 2.809 . S
Tb1240 O1260 2.484 . S
Tb1240 O1261 2.440 . S
Tb1240 O1262 2.658 . S
Tb1240 O1263 2.409 . S
Tb1240 O1264 2.378 . S
Tb1240 O1268 2.325 . S
Tb1240 O1271 2.341 . S
Tb1241 C1251 2.809 . S
Tb1241 O1262 2.325 . S
Tb1241 O1265 2.341 . S
Tb1241 O1266 2.484 . S
Tb1241 O1267 2.440 . S
Tb1241 O1268 2.658 . S
Tb1241 O1269 2.409 . S
Tb1241 O1270 2.378 . S
C1242 Tb1240 2.809 . S
C1242 C1243 1.514 . S
C1242 O1260 1.248 . S
C1242 O1261 1.266 . S
C1243 C1242 1.514 . S
C1243 C1244 1.359 . S
C1243 C1248 1.348 . S
C1244 C1243 1.359 . S
C1244 C1245 1.380 . S
C1244 H1272 0.929 . S
C1245 C1244 1.380 . S
C1245 C1246 1.347 . S
C1245 H1273 0.931 . S
C1246 C1245 1.347 . S
C1246 C1247 1.369 . S
C1247 C1246 1.369 . S
C1247 C1248 1.408 . S
C1247 H1274 0.930 . S
C1248 C1243 1.348 . S
C1248 C1247 1.408 . S
C1248 H1275 0.930 . S
C1249 O1262 1.281 . S
C1249 O1263 1.254 . S
C1250 O1264 1.236 . S
C1250 O1265 1.266 . S
C1251 Tb1241 2.809 . S
C1251 C1252 1.514 . S
C1251 O1266 1.248 . S
C1251 O1267 1.266 . S
C1252 C1251 1.514 . S
C1252 C1253 1.359 . S
C1252 C1257 1.348 . S
C1253 C1252 1.359 . S
C1253 C1254 1.380 . S
C1253 H1276 0.929 . S
C1254 C1253 1.380 . S
C1254 C1255 1.347 . S
C1254 H1277 0.931 . S
C1255 C1254 1.347 . S
C1255 C1256 1.369 . S
C1256 C1255 1.369 . S
C1256 C1257 1.408 . S
C1256 H1278 0.930 . S
C1257 C1252 1.348 . S
C1257 C1256 1.408 . S
C1257 H1279 0.930 . S
C1258 O1268 1.281 . S
C1258 O1269 1.254 . S
C1259 O1270 1.236 . S
C1259 O1271 1.266 . S
O1260 Tb1240 2.484 . S
O1260 C1242 1.248 . S
O1261 Tb1240 2.440 . S
O1261 C1242 1.266 . S
O1262 Tb1240 2.658 . S
O1262 Tb1241 2.325 . S
O1262 C1249 1.281 . S
O1263 Tb1240 2.409 . S
O1263 C1249 1.254 . S
O1264 Tb1240 2.378 . S
O1264 C1250 1.236 . S
O1265 Tb1241 2.341 . S
O1265 C1250 1.266 . S
O1266 Tb1241 2.484 . S
O1266 C1251 1.248 . S
O1267 Tb1241 2.440 . S
O1267 C1251 1.266 . S
O1268 Tb1240 2.325 . S
O1268 Tb1241 2.658 . S
O1268 C1258 1.281 . S
O1269 Tb1241 2.409 . S
O1269 C1258 1.254 . S
O1270 Tb1241 2.378 . S
O1270 C1259 1.236 . S
O1271 Tb1240 2.341 . S
O1271 C1259 1.266 . S
H1272 C1244 0.929 . S
H1273 C1245 0.931 . S
H1274 C1247 0.930 . S
H1275 C1248 0.930 . S
H1276 C1253 0.929 . S
H1277 C1254 0.931 . S
H1278 C1256 0.930 . S
H1279 C1257 0.930 . S
Tb1280 C1282 2.809 . S
Tb1280 O1300 2.484 . S
Tb1280 O1301 2.440 . S
Tb1280 O1302 2.658 . S
Tb1280 O1303 2.409 . S
Tb1280 O1304 2.378 . S
Tb1280 O1308 2.325 . S
Tb1280 O1311 2.341 . S
Tb1281 C1291 2.809 . S
Tb1281 O1302 2.325 . S
Tb1281 O1305 2.341 . S
Tb1281 O1306 2.484 . S
Tb1281 O1307 2.440 . S
Tb1281 O1308 2.658 . S
Tb1281 O1309 2.409 . S
Tb1281 O1310 2.378 . S
C1282 Tb1280 2.809 . S
C1282 C1283 1.514 . S
C1282 O1300 1.248 . S
C1282 O1301 1.266 . S
C1283 C1282 1.514 . S
C1283 C1284 1.359 . S
C1283 C1288 1.348 . S
C1284 C1283 1.359 . S
C1284 C1285 1.380 1_655 S
C1284 H1312 0.929 . S
C1285 C1284 1.380 1_455 S
C1285 C1286 1.347 . S
C1285 H1313 0.931 . S
C1286 C1285 1.347 . S
C1286 C1287 1.369 . S
C1287 C1286 1.369 . S
C1287 C1288 1.408 1_455 S
C1287 H1314 0.930 . S
C1288 C1283 1.348 . S
C1288 C1287 1.408 1_655 S
C1288 H1315 0.930 . S
C1289 O1302 1.281 . S
C1289 O1303 1.254 . S
C1290 O1304 1.236 . S
C1290 O1305 1.266 . S
C1291 Tb1281 2.809 . S
C1291 C1292 1.514 . S
C1291 O1306 1.248 . S
C1291 O1307 1.266 . S
C1292 C1291 1.514 . S
C1292 C1293 1.359 . S
C1292 C1297 1.348 . S
C1293 C1292 1.359 . S
C1293 C1294 1.380 . S
C1293 H1316 0.929 . S
C1294 C1293 1.380 . S
C1294 C1295 1.347 . S
C1294 H1317 0.931 . S
C1295 C1294 1.347 . S
C1295 C1296 1.369 . S
C1296 C1295 1.369 . S
C1296 C1297 1.408 . S
C1296 H1318 0.930 . S
C1297 C1292 1.348 . S
C1297 C1296 1.408 . S
C1297 H1319 0.930 . S
C1298 O1308 1.281 . S
C1298 O1309 1.254 . S
C1299 O1310 1.236 . S
C1299 O1311 1.266 . S
O1300 Tb1280 2.484 . S
O1300 C1282 1.248 . S
O1301 Tb1280 2.440 . S
O1301 C1282 1.266 . S
O1302 Tb1280 2.658 . S
O1302 Tb1281 2.325 . S
O1302 C1289 1.281 . S
O1303 Tb1280 2.409 . S
O1303 C1289 1.254 . S
O1304 Tb1280 2.378 . S
O1304 C1290 1.236 . S
O1305 Tb1281 2.341 . S
O1305 C1290 1.266 . S
O1306 Tb1281 2.484 . S
O1306 C1291 1.248 . S
O1307 Tb1281 2.440 . S
O1307 C1291 1.266 . S
O1308 Tb1280 2.325 . S
O1308 Tb1281 2.658 . S
O1308 C1298 1.281 . S
O1309 Tb1281 2.409 . S
O1309 C1298 1.254 . S
O1310 Tb1281 2.378 . S
O1310 C1299 1.236 . S
O1311 Tb1280 2.341 . S
O1311 C1299 1.266 . S
H1312 C1284 0.929 . S
H1313 C1285 0.931 . S
H1314 C1287 0.930 . S
H1315 C1288 0.930 . S
H1316 C1293 0.929 . S
H1317 C1294 0.931 . S
H1318 C1296 0.930 . S
H1319 C1297 0.930 . S
Tb1320 C1322 2.809 . S
Tb1320 O1340 2.484 . S
Tb1320 O1341 2.440 . S
Tb1320 O1342 2.658 . S
Tb1320 O1343 2.409 . S
Tb1320 O1344 2.378 . S
Tb1320 O1348 2.325 . S
Tb1320 O1351 2.341 . S
Tb1321 C1331 2.809 . S
Tb1321 O1342 2.325 . S
Tb1321 O1345 2.341 . S
Tb1321 O1346 2.484 . S
Tb1321 O1347 2.440 . S
Tb1321 O1348 2.658 . S
Tb1321 O1349 2.409 . S
Tb1321 O1350 2.378 . S
C1322 Tb1320 2.809 . S
C1322 C1323 1.514 . S
C1322 O1340 1.248 . S
C1322 O1341 1.266 . S
C1323 C1322 1.514 . S
C1323 C1324 1.359 . S
C1323 C1328 1.348 . S
C1324 C1323 1.359 . S
C1324 C1325 1.380 . S
C1324 H1352 0.929 . S
C1325 C1324 1.380 . S
C1325 C1326 1.347 . S
C1325 H1353 0.931 . S
C1326 C1325 1.347 . S
C1326 C1327 1.369 . S
C1327 C1326 1.369 . S
C1327 C1328 1.408 . S
C1327 H1354 0.930 . S
C1328 C1323 1.348 . S
C1328 C1327 1.408 . S
C1328 H1355 0.930 . S
C1329 O1342 1.281 . S
C1329 O1343 1.254 . S
C1330 O1344 1.236 . S
C1330 O1345 1.266 . S
C1331 Tb1321 2.809 . S
C1331 C1332 1.514 . S
C1331 O1346 1.248 . S
C1331 O1347 1.266 . S
C1332 C1331 1.514 . S
C1332 C1333 1.359 . S
C1332 C1337 1.348 . S
C1333 C1332 1.359 . S
C1333 C1334 1.380 . S
C1333 H1356 0.929 . S
C1334 C1333 1.380 . S
C1334 C1335 1.347 . S
C1334 H1357 0.931 . S
C1335 C1334 1.347 . S
C1335 C1336 1.369 . S
C1336 C1335 1.369 . S
C1336 C1337 1.408 . S
C1336 H1358 0.930 . S
C1337 C1332 1.348 . S
C1337 C1336 1.408 . S
C1337 H1359 0.930 . S
C1338 O1348 1.281 . S
C1338 O1349 1.254 . S
C1339 O1350 1.236 . S
C1339 O1351 1.266 . S
O1340 Tb1320 2.484 . S
O1340 C1322 1.248 . S
O1341 Tb1320 2.440 . S
O1341 C1322 1.266 . S
O1342 Tb1320 2.658 . S
O1342 Tb1321 2.325 . S
O1342 C1329 1.281 . S
O1343 Tb1320 2.409 . S
O1343 C1329 1.254 . S
O1344 Tb1320 2.378 . S
O1344 C1330 1.236 . S
O1345 Tb1321 2.341 . S
O1345 C1330 1.266 . S
O1346 Tb1321 2.484 . S
O1346 C1331 1.248 . S
O1347 Tb1321 2.440 . S
O1347 C1331 1.266 . S
O1348 Tb1320 2.325 . S
O1348 Tb1321 2.658 . S
O1348 C1338 1.281 . S
O1349 Tb1321 2.409 . S
O1349 C1338 1.254 . S
O1350 Tb1321 2.378 . S
O1350 C1339 1.236 . S
O1351 Tb1320 2.341 . S
O1351 C1339 1.266 . S
H1352 C1324 0.929 . S
H1353 C1325 0.931 . S
H1354 C1327 0.930 . S
H1355 C1328 0.930 . S
H1356 C1333 0.929 . S
H1357 C1334 0.931 . S
H1358 C1336 0.930 . S
H1359 C1337 0.930 . S
Tb1360 C1362 2.809 . S
Tb1360 O1380 2.484 . S
Tb1360 O1381 2.440 . S
Tb1360 O1382 2.658 . S
Tb1360 O1383 2.409 . S
Tb1360 O1384 2.378 . S
Tb1360 O1388 2.325 . S
Tb1360 O1391 2.341 . S
Tb1361 C1371 2.809 . S
Tb1361 O1382 2.325 . S
Tb1361 O1385 2.341 . S
Tb1361 O1386 2.484 . S
Tb1361 O1387 2.440 . S
Tb1361 O1388 2.658 . S
Tb1361 O1389 2.409 . S
Tb1361 O1390 2.378 . S
C1362 Tb1360 2.809 . S
C1362 C1363 1.514 . S
C1362 O1380 1.248 . S
C1362 O1381 1.266 . S
C1363 C1362 1.514 . S
C1363 C1364 1.359 . S
C1363 C1368 1.348 . S
C1364 C1363 1.359 . S
C1364 C1365 1.380 . S
C1364 H1392 0.929 . S
C1365 C1364 1.380 . S
C1365 C1366 1.347 . S
C1365 H1393 0.931 . S
C1366 C1365 1.347 . S
C1366 C1367 1.369 . S
C1367 C1366 1.369 . S
C1367 C1368 1.408 . S
C1367 H1394 0.930 . S
C1368 C1363 1.348 . S
C1368 C1367 1.408 . S
C1368 H1395 0.930 . S
C1369 O1382 1.281 . S
C1369 O1383 1.254 . S
C1370 O1384 1.236 . S
C1370 O1385 1.266 . S
C1371 Tb1361 2.809 . S
C1371 C1372 1.514 . S
C1371 O1386 1.248 . S
C1371 O1387 1.266 . S
C1372 C1371 1.514 . S
C1372 C1373 1.359 1_545 S
C1372 C1377 1.348 1_545 S
C1373 C1372 1.359 1_565 S
C1373 C1374 1.380 . S
C1373 H1396 0.929 1_565 S
C1374 C1373 1.380 . S
C1374 C1375 1.347 . S
C1374 H1397 0.931 . S
C1375 C1374 1.347 . S
C1375 C1376 1.369 . S
C1376 C1375 1.369 . S
C1376 C1377 1.408 . S
C1376 H1398 0.930 . S
C1377 C1372 1.348 1_565 S
C1377 C1376 1.408 . S
C1377 H1399 0.930 1_565 S
C1378 O1388 1.281 . S
C1378 O1389 1.254 . S
C1379 O1390 1.236 . S
C1379 O1391 1.266 . S
O1380 Tb1360 2.484 . S
O1380 C1362 1.248 . S
O1381 Tb1360 2.440 . S
O1381 C1362 1.266 . S
O1382 Tb1360 2.658 . S
O1382 Tb1361 2.325 . S
O1382 C1369 1.281 . S
O1383 Tb1360 2.409 . S
O1383 C1369 1.254 . S
O1384 Tb1360 2.378 . S
O1384 C1370 1.236 . S
O1385 Tb1361 2.341 . S
O1385 C1370 1.266 . S
O1386 Tb1361 2.484 . S
O1386 C1371 1.248 . S
O1387 Tb1361 2.440 . S
O1387 C1371 1.266 . S
O1388 Tb1360 2.325 . S
O1388 Tb1361 2.658 . S
O1388 C1378 1.281 . S
O1389 Tb1361 2.409 . S
O1389 C1378 1.254 . S
O1390 Tb1361 2.378 . S
O1390 C1379 1.236 . S
O1391 Tb1360 2.341 . S
O1391 C1379 1.266 . S
H1392 C1364 0.929 . S
H1393 C1365 0.931 . S
H1394 C1367 0.930 . S
H1395 C1368 0.930 . S
H1396 C1373 0.929 1_545 S
H1397 C1374 0.931 . S
H1398 C1376 0.930 . S
H1399 C1377 0.930 1_545 S
Tb1400 C1402 2.809 . S
Tb1400 O1420 2.484 . S
Tb1400 O1421 2.440 . S
Tb1400 O1422 2.658 . S
Tb1400 O1423 2.409 . S
Tb1400 O1424 2.378 . S
Tb1400 O1428 2.325 . S
Tb1400 O1431 2.341 . S
Tb1401 C1411 2.809 1_655 S
Tb1401 O1422 2.325 . S
Tb1401 O1425 2.341 . S
Tb1401 O1426 2.484 . S
Tb1401 O1427 2.440 . S
Tb1401 O1428 2.658 . S
Tb1401 O1429 2.409 . S
Tb1401 O1430 2.378 . S
C1402 Tb1400 2.809 . S
C1402 C1403 1.514 . S
C1402 O1420 1.248 . S
C1402 O1421 1.266 . S
C1403 C1402 1.514 . S
C1403 C1404 1.359 . S
C1403 C1408 1.348 . S
C1404 C1403 1.359 . S
C1404 C1405 1.380 . S
C1404 H1432 0.929 . S
C1405 C1404 1.380 . S
C1405 C1406 1.347 . S
C1405 H1433 0.931 . S
C1406 C1405 1.347 . S
C1406 C1407 1.369 . S
C1407 C1406 1.369 . S
C1407 C1408 1.408 . S
C1407 H1434 0.930 . S
C1408 C1403 1.348 . S
C1408 C1407 1.408 . S
C1408 H1435 0.930 . S
C1409 O1422 1.281 . S
C1409 O1423 1.254 . S
C1410 O1424 1.236 . S
C1410 O1425 1.266 . S
C1411 Tb1401 2.809 1_455 S
C1411 C1412 1.514 . S
C1411 O1426 1.248 1_455 S
C1411 O1427 1.266 1_455 S
C1412 C1411 1.514 . S
C1412 C1413 1.359 . S
C1412 C1417 1.348 . S
C1413 C1412 1.359 . S
C1413 C1414 1.380 . S
C1413 H1436 0.929 . S
C1414 C1413 1.380 . S
C1414 C1415 1.347 . S
C1414 H1437 0.931 . S
C1415 C1414 1.347 . S
C1415 C1416 1.369 . S
C1416 C1415 1.369 . S
C1416 C1417 1.408 . S
C1416 H1438 0.930 . S
C1417 C1412 1.348 . S
C1417 C1416 1.408 . S
C1417 H1439 0.930 . S
C1418 O1428 1.281 . S
C1418 O1429 1.254 . S
C1419 O1430 1.236 . S
C1419 O1431 1.266 . S
O1420 Tb1400 2.484 . S
O1420 C1402 1.248 . S
O1421 Tb1400 2.440 . S
O1421 C1402 1.266 . S
O1422 Tb1400 2.658 . S
O1422 Tb1401 2.325 . S
O1422 C1409 1.281 . S
O1423 Tb1400 2.409 . S
O1423 C1409 1.254 . S
O1424 Tb1400 2.378 . S
O1424 C1410 1.236 . S
O1425 Tb1401 2.341 . S
O1425 C1410 1.266 . S
O1426 Tb1401 2.484 . S
O1426 C1411 1.248 1_655 S
O1427 Tb1401 2.440 . S
O1427 C1411 1.266 1_655 S
O1428 Tb1400 2.325 . S
O1428 Tb1401 2.658 . S
O1428 C1418 1.281 . S
O1429 Tb1401 2.409 . S
O1429 C1418 1.254 . S
O1430 Tb1401 2.378 . S
O1430 C1419 1.236 . S
O1431 Tb1400 2.341 . S
O1431 C1419 1.266 . S
H1432 C1404 0.929 . S
H1433 C1405 0.931 . S
H1434 C1407 0.930 . S
H1435 C1408 0.930 . S
H1436 C1413 0.929 . S
H1437 C1414 0.931 . S
H1438 C1416 0.930 . S
H1439 C1417 0.930 . S
H1440 C1446 0.930 . S
H1441 C1449 0.930 . S
H1442 C1450 0.930 . S
H1443 C1451 0.930 . S
H1444 C1454 0.930 . S
H1445 C1455 0.930 . S
C1446 H1440 0.930 . S
C1446 C1447 1.355 . S
C1446 C1448 1.415 . S
C1447 C1446 1.355 . S
C1447 C1449 1.419 . S
C1448 C1446 1.415 . S
C1448 C1453 1.425 . S
C1448 C1455 1.409 . S
C1449 H1441 0.930 . S
C1449 C1447 1.419 . S
C1449 C1450 1.362 . S
C1450 H1442 0.930 . S
C1450 C1449 1.362 . S
C1450 C1453 1.409 . S
C1451 H1443 0.930 . S
C1451 C1452 1.355 . S
C1451 C1453 1.415 . S
C1452 C1451 1.355 . S
C1452 C1454 1.419 . S
C1453 C1448 1.425 . S
C1453 C1450 1.409 . S
C1453 C1451 1.415 . S
C1454 H1444 0.930 . S
C1454 C1452 1.419 . S
C1454 C1455 1.362 . S
C1455 H1445 0.930 . S
C1455 C1448 1.409 . S
C1455 C1454 1.362 . S
H1456 C1462 0.930 . S
H1457 C1465 0.930 . S
H1458 C1466 0.930 . S
H1459 C1467 0.930 . S
H1460 C1470 0.930 . S
H1461 C1471 0.926 1_455 S
C1462 H1456 0.930 . S
C1462 C1463 1.355 . S
C1462 C1464 1.415 . S
C1463 C1462 1.355 . S
C1463 C1465 1.419 . S
C1464 C1462 1.415 . S
C1464 C1469 1.425 . S
C1464 C1471 1.413 . S
C1465 H1457 0.930 . S
C1465 C1463 1.419 . S
C1465 C1466 1.362 . S
C1466 H1458 0.930 . S
C1466 C1465 1.362 . S
C1466 C1469 1.409 . S
C1467 H1459 0.930 . S
C1467 C1468 1.355 . S
C1467 C1469 1.415 . S
C1468 C1467 1.355 . S
C1468 C1470 1.419 1_655 S
C1469 C1464 1.425 . S
C1469 C1466 1.409 . S
C1469 C1467 1.415 . S
C1470 H1460 0.930 . S
C1470 C1468 1.419 1_455 S
C1470 C1471 1.363 1_455 S
C1471 H1461 0.926 1_655 S
C1471 C1464 1.413 . S
C1471 C1470 1.363 1_655 S
H1472 C1478 0.930 . S
H1473 C1481 0.930 . S
H1474 C1482 0.930 . S
H1475 C1483 0.930 . S
H1476 C1486 0.930 . S
H1477 C1487 0.930 . S
C1478 H1472 0.930 . S
C1478 C1479 1.355 . S
C1478 C1480 1.415 . S
C1479 C1478 1.355 . S
C1479 C1481 1.419 . S
C1480 C1478 1.415 . S
C1480 C1485 1.425 . S
C1480 C1487 1.409 . S
C1481 H1473 0.930 . S
C1481 C1479 1.419 . S
C1481 C1482 1.362 . S
C1482 H1474 0.930 . S
C1482 C1481 1.362 . S
C1482 C1485 1.409 . S
C1483 H1475 0.930 . S
C1483 C1484 1.355 . S
C1483 C1485 1.415 . S
C1484 C1483 1.355 . S
C1484 C1486 1.419 . S
C1485 C1480 1.425 . S
C1485 C1482 1.409 . S
C1485 C1483 1.415 . S
C1486 H1476 0.930 . S
C1486 C1484 1.419 . S
C1486 C1487 1.362 . S
C1487 H1477 0.930 . S
C1487 C1480 1.409 . S
C1487 C1486 1.362 . S
H1488 C1494 0.930 . S
H1489 C1497 0.930 . S
H1490 C1498 0.930 . S
H1491 C1499 0.930 . S
H1492 C1502 0.930 . S
H1493 C1503 0.930 . S
C1494 H1488 0.930 . S
C1494 C1495 1.355 . S
C1494 C1496 1.415 . S
C1495 C1494 1.355 . S
C1495 C1497 1.419 . S
C1496 C1494 1.415 . S
C1496 C1501 1.425 . S
C1496 C1503 1.409 . S
C1497 H1489 0.930 . S
C1497 C1495 1.419 . S
C1497 C1498 1.362 . S
C1498 H1490 0.930 . S
C1498 C1497 1.362 . S
C1498 C1501 1.409 . S
C1499 H1491 0.930 . S
C1499 C1500 1.355 . S
C1499 C1501 1.415 . S
C1500 C1499 1.355 . S
C1500 C1502 1.419 . S
C1501 C1496 1.425 . S
C1501 C1498 1.409 . S
C1501 C1499 1.415 . S
C1502 H1492 0.930 . S
C1502 C1500 1.419 . S
C1502 C1503 1.362 . S
C1503 H1493 0.930 . S
C1503 C1496 1.409 . S
C1503 C1502 1.362 . S
H1504 C1510 0.930 . S
H1505 C1513 0.930 . S
H1506 C1514 0.930 . S
H1507 C1515 0.930 . S
H1508 C1518 0.930 . S
H1509 C1519 0.930 . S
C1510 H1504 0.930 . S
C1510 C1511 1.355 . S
C1510 C1512 1.415 . S
C1511 C1510 1.355 . S
C1511 C1513 1.419 . S
C1512 C1510 1.415 . S
C1512 C1517 1.425 . S
C1512 C1519 1.409 . S
C1513 H1505 0.930 . S
C1513 C1511 1.419 . S
C1513 C1514 1.362 . S
C1514 H1506 0.930 . S
C1514 C1513 1.362 . S
C1514 C1517 1.409 . S
C1515 H1507 0.930 . S
C1515 C1516 1.355 . S
C1515 C1517 1.415 . S
C1516 C1515 1.355 . S
C1516 C1518 1.419 . S
C1517 C1512 1.425 . S
C1517 C1514 1.409 . S
C1517 C1515 1.415 . S
C1518 H1508 0.930 . S
C1518 C1516 1.419 . S
C1518 C1519 1.362 . S
C1519 H1509 0.930 . S
C1519 C1512 1.409 . S
C1519 C1518 1.362 . S
H1520 C1526 0.930 . S
H1521 C1529 0.930 . S
H1522 C1530 0.930 . S
H1523 C1531 0.930 . S
H1524 C1534 0.930 . S
H1525 C1535 0.930 . S
C1526 H1520 0.930 . S
C1526 C1527 1.355 . S
C1526 C1528 1.415 . S
C1527 C1526 1.355 . S
C1527 C1529 1.419 . S
C1528 C1526 1.415 . S
C1528 C1533 1.425 . S
C1528 C1535 1.409 . S
C1529 H1521 0.930 . S
C1529 C1527 1.419 . S
C1529 C1530 1.362 . S
C1530 H1522 0.930 . S
C1530 C1529 1.362 . S
C1530 C1533 1.409 . S
C1531 H1523 0.930 . S
C1531 C1532 1.355 . S
C1531 C1533 1.415 . S
C1532 C1531 1.355 . S
C1532 C1534 1.419 . S
C1533 C1528 1.425 . S
C1533 C1530 1.409 . S
C1533 C1531 1.415 . S
C1534 H1524 0.930 . S
C1534 C1532 1.419 . S
C1534 C1535 1.362 . S
C1535 H1525 0.930 . S
C1535 C1528 1.409 . S
C1535 C1534 1.362 . S
H1536 C1542 0.930 . S
H1537 C1545 0.929 . S
H1538 C1546 0.930 . S
H1539 C1547 0.930 . S
H1540 C1550 0.930 . S
H1541 C1551 0.930 . S
C1542 H1536 0.930 . S
C1542 C1543 1.355 . S
C1542 C1544 1.415 . S
C1543 C1542 1.355 . S
C1543 C1545 1.419 1_565 S
C1544 C1542 1.415 . S
C1544 C1549 1.425 . S
C1544 C1551 1.409 . S
C1545 H1537 0.929 . S
C1545 C1543 1.419 1_545 S
C1545 C1546 1.363 1_545 S
C1546 H1538 0.930 . S
C1546 C1545 1.363 1_565 S
C1546 C1549 1.409 . S
C1547 H1539 0.930 . S
C1547 C1548 1.355 . S
C1547 C1549 1.415 . S
C1548 C1547 1.355 . S
C1548 C1550 1.419 . S
C1549 C1544 1.425 . S
C1549 C1546 1.409 . S
C1549 C1547 1.415 . S
C1550 H1540 0.930 . S
C1550 C1548 1.419 . S
C1550 C1551 1.362 . S
C1551 H1541 0.930 . S
C1551 C1544 1.409 . S
C1551 C1550 1.362 . S
H1552 C1558 0.930 . S
H1553 C1561 0.930 . S
H1554 C1562 0.930 . S
H1555 C1563 0.930 . S
H1556 C1566 0.930 . S
H1557 C1567 0.930 . S
C1558 H1552 0.930 . S
C1558 C1559 1.355 . S
C1558 C1560 1.415 . S
C1559 C1558 1.355 . S
C1559 C1561 1.419 . S
C1560 C1558 1.415 . S
C1560 C1565 1.425 . S
C1560 C1567 1.409 . S
C1561 H1553 0.930 . S
C1561 C1559 1.419 . S
C1561 C1562 1.362 . S
C1562 H1554 0.930 . S
C1562 C1561 1.362 . S
C1562 C1565 1.409 . S
C1563 H1555 0.930 . S
C1563 C1564 1.355 . S
C1563 C1565 1.415 . S
C1564 C1563 1.355 . S
C1564 C1566 1.419 . S
C1565 C1560 1.425 . S
C1565 C1562 1.409 . S
C1565 C1563 1.415 . S
C1566 H1556 0.930 . S
C1566 C1564 1.419 . S
C1566 C1567 1.362 . S
C1567 H1557 0.930 . S
C1567 C1560 1.409 . S
C1567 C1566 1.362 . S
H1568 C1574 0.930 . S
H1569 C1577 0.930 . S
H1570 C1578 0.930 . S
H1571 C1579 0.930 . S
H1572 C1582 0.930 . S
H1573 C1583 0.930 . S
C1574 H1568 0.930 . S
C1574 C1575 1.355 . S
C1574 C1576 1.415 . S
C1575 C1574 1.355 . S
C1575 C1577 1.419 . S
C1576 C1574 1.415 . S
C1576 C1581 1.425 . S
C1576 C1583 1.409 . S
C1577 H1569 0.930 . S
C1577 C1575 1.419 . S
C1577 C1578 1.362 . S
C1578 H1570 0.930 . S
C1578 C1577 1.362 . S
C1578 C1581 1.409 . S
C1579 H1571 0.930 . S
C1579 C1580 1.355 . S
C1579 C1581 1.415 . S
C1580 C1579 1.355 . S
C1580 C1582 1.419 . S
C1581 C1576 1.425 . S
C1581 C1578 1.409 . S
C1581 C1579 1.415 . S
C1582 H1572 0.930 . S
C1582 C1580 1.419 . S
C1582 C1583 1.362 . S
C1583 H1573 0.930 . S
C1583 C1576 1.409 . S
C1583 C1582 1.362 . S
H1584 C1590 0.930 . S
H1585 C1593 0.930 . S
H1586 C1594 0.930 . S
H1587 C1595 0.930 . S
H1588 C1598 0.930 . S
H1589 C1599 0.930 . S
C1590 H1584 0.930 . S
C1590 C1591 1.355 . S
C1590 C1592 1.415 . S
C1591 C1590 1.355 . S
C1591 C1593 1.419 . S
C1592 C1590 1.415 . S
C1592 C1597 1.425 . S
C1592 C1599 1.409 . S
C1593 H1585 0.930 . S
C1593 C1591 1.419 . S
C1593 C1594 1.362 . S
C1594 H1586 0.930 . S
C1594 C1593 1.362 . S
C1594 C1597 1.409 . S
C1595 H1587 0.930 . S
C1595 C1596 1.355 . S
C1595 C1597 1.415 . S
C1596 C1595 1.355 . S
C1596 C1598 1.419 . S
C1597 C1592 1.425 . S
C1597 C1594 1.409 . S
C1597 C1595 1.415 . S
C1598 H1588 0.930 . S
C1598 C1596 1.419 . S
C1598 C1599 1.362 . S
C1599 H1589 0.930 . S
C1599 C1592 1.409 . S
C1599 C1598 1.362 . S
H1600 C1606 0.930 . S
H1601 C1609 0.930 . S
H1602 C1610 0.930 . S
H1603 C1611 0.930 . S
H1604 C1614 0.930 . S
H1605 C1615 0.930 . S
C1606 H1600 0.930 . S
C1606 C1607 1.355 . S
C1606 C1608 1.415 . S
C1607 C1606 1.355 . S
C1607 C1609 1.419 . S
C1608 C1606 1.415 . S
C1608 C1613 1.425 . S
C1608 C1615 1.409 . S
C1609 H1601 0.930 . S
C1609 C1607 1.419 . S
C1609 C1610 1.362 . S
C1610 H1602 0.930 . S
C1610 C1609 1.362 . S
C1610 C1613 1.409 . S
C1611 H1603 0.930 . S
C1611 C1612 1.355 . S
C1611 C1613 1.415 . S
C1612 C1611 1.355 . S
C1612 C1614 1.419 . S
C1613 C1608 1.425 . S
C1613 C1610 1.409 . S
C1613 C1611 1.415 . S
C1614 H1604 0.930 . S
C1614 C1612 1.419 . S
C1614 C1615 1.362 . S
C1615 H1605 0.930 . S
C1615 C1608 1.409 . S
C1615 C1614 1.362 . S
H1616 C1622 0.930 . S
H1617 C1625 0.930 . S
H1618 C1626 0.930 . S
H1619 C1627 0.930 . S
H1620 C1630 0.930 . S
H1621 C1631 0.930 . S
C1622 H1616 0.930 . S
C1622 C1623 1.355 . S
C1622 C1624 1.415 . S
C1623 C1622 1.355 . S
C1623 C1625 1.419 . S
C1624 C1622 1.415 . S
C1624 C1629 1.425 . S
C1624 C1631 1.409 . S
C1625 H1617 0.930 . S
C1625 C1623 1.419 . S
C1625 C1626 1.362 . S
C1626 H1618 0.930 . S
C1626 C1625 1.362 . S
C1626 C1629 1.409 . S
C1627 H1619 0.930 . S
C1627 C1628 1.355 . S
C1627 C1629 1.415 . S
C1628 C1627 1.355 . S
C1628 C1630 1.419 . S
C1629 C1624 1.425 . S
C1629 C1626 1.409 . S
C1629 C1627 1.415 . S
C1630 H1620 0.930 . S
C1630 C1628 1.419 . S
C1630 C1631 1.362 . S
C1631 H1621 0.930 . S
C1631 C1624 1.409 . S
C1631 C1630 1.362 . S
H1632 C1638 0.930 . S
H1633 C1641 0.930 . S
H1634 C1642 0.930 . S
H1635 C1643 0.930 . S
H1636 C1646 0.930 . S
H1637 C1647 0.930 . S
C1638 H1632 0.930 . S
C1638 C1639 1.355 . S
C1638 C1640 1.415 . S
C1639 C1638 1.355 . S
C1639 C1641 1.419 . S
C1640 C1638 1.415 . S
C1640 C1645 1.425 . S
C1640 C1647 1.409 . S
C1641 H1633 0.930 . S
C1641 C1639 1.419 . S
C1641 C1642 1.362 . S
C1642 H1634 0.930 . S
C1642 C1641 1.362 . S
C1642 C1645 1.409 . S
C1643 H1635 0.930 . S
C1643 C1644 1.355 . S
C1643 C1645 1.415 . S
C1644 C1643 1.355 . S
C1644 C1646 1.419 . S
C1645 C1640 1.425 . S
C1645 C1642 1.409 . S
C1645 C1643 1.415 . S
C1646 H1636 0.930 . S
C1646 C1644 1.419 . S
C1646 C1647 1.362 . S
C1647 H1637 0.930 . S
C1647 C1640 1.409 . S
C1647 C1646 1.362 . S
H1648 C1654 0.930 . S
H1649 C1657 0.930 . S
H1650 C1658 0.930 . S
H1651 C1659 0.930 . S
H1652 C1662 0.930 . S
H1653 C1663 0.930 . S
C1654 H1648 0.930 . S
C1654 C1655 1.355 . S
C1654 C1656 1.415 1_565 S
C1655 C1654 1.355 . S
C1655 C1657 1.419 . S
C1656 C1654 1.415 1_545 S
C1656 C1661 1.425 . S
C1656 C1663 1.409 . S
C1657 H1649 0.930 . S
C1657 C1655 1.419 . S
C1657 C1658 1.362 1_565 S
C1658 H1650 0.930 . S
C1658 C1657 1.362 1_545 S
C1658 C1661 1.409 . S
C1659 H1651 0.930 . S
C1659 C1660 1.355 . S
C1659 C1661 1.415 . S
C1660 C1659 1.355 . S
C1660 C1662 1.419 . S
C1661 C1656 1.425 . S
C1661 C1658 1.409 . S
C1661 C1659 1.415 . S
C1662 H1652 0.930 . S
C1662 C1660 1.419 . S
C1662 C1663 1.362 . S
C1663 H1653 0.930 . S
C1663 C1656 1.409 . S
C1663 C1662 1.362 . S
H1664 C1670 0.930 . S
H1665 C1673 0.930 . S
H1666 C1674 0.930 . S
H1667 C1675 0.930 . S
H1668 C1678 0.930 . S
H1669 C1679 0.930 . S
C1670 H1664 0.930 . S
C1670 C1671 1.355 . S
C1670 C1672 1.415 1_655 S
C1671 C1670 1.355 . S
C1671 C1673 1.419 . S
C1672 C1670 1.415 1_455 S
C1672 C1677 1.425 . S
C1672 C1679 1.409 . S
C1673 H1665 0.930 . S
C1673 C1671 1.419 . S
C1673 C1674 1.362 1_655 S
C1674 H1666 0.930 . S
C1674 C1673 1.362 1_455 S
C1674 C1677 1.409 . S
C1675 H1667 0.930 . S
C1675 C1676 1.355 . S
C1675 C1677 1.415 . S
C1676 C1675 1.355 . S
C1676 C1678 1.419 . S
C1677 C1672 1.425 . S
C1677 C1674 1.409 . S
C1677 C1675 1.415 . S
C1678 H1668 0.930 . S
C1678 C1676 1.419 . S
C1678 C1679 1.362 . S
C1679 H1669 0.930 . S
C1679 C1672 1.409 . S
C1679 C1678 1.362 . S
H1680 C1686 0.930 . S
H1681 C1689 0.930 . S
H1682 C1690 0.930 . S
H1683 C1691 0.930 . S
H1684 C1694 0.930 . S
H1685 C1695 0.930 . S
C1686 H1680 0.930 . S
C1686 C1687 1.355 . S
C1686 C1688 1.415 . S
C1687 C1686 1.355 . S
C1687 C1689 1.419 . S
C1688 C1686 1.415 . S
C1688 C1693 1.425 . S
C1688 C1695 1.409 . S
C1689 H1681 0.930 . S
C1689 C1687 1.419 . S
C1689 C1690 1.362 . S
C1690 H1682 0.930 . S
C1690 C1689 1.362 . S
C1690 C1693 1.409 . S
C1691 H1683 0.930 . S
C1691 C1692 1.355 . S
C1691 C1693 1.415 . S
C1692 C1691 1.355 . S
C1692 C1694 1.419 . S
C1693 C1688 1.425 . S
C1693 C1690 1.409 . S
C1693 C1691 1.415 . S
C1694 H1684 0.930 . S
C1694 C1692 1.419 . S
C1694 C1695 1.362 . S
C1695 H1685 0.930 . S
C1695 C1688 1.409 . S
C1695 C1694 1.362 . S
H1696 C1702 0.930 . S
H1697 C1705 0.930 . S
H1698 C1706 0.930 . S
H1699 C1707 0.930 . S
H1700 C1710 0.930 . S
H1701 C1711 0.930 . S
C1702 H1696 0.930 . S
C1702 C1703 1.355 . S
C1702 C1704 1.415 1_565 S
C1703 C1702 1.355 . S
C1703 C1705 1.419 . S
C1704 C1702 1.415 1_545 S
C1704 C1709 1.425 . S
C1704 C1711 1.409 . S
C1705 H1697 0.930 . S
C1705 C1703 1.419 . S
C1705 C1706 1.362 . S
C1706 H1698 0.930 . S
C1706 C1705 1.362 . S
C1706 C1709 1.409 1_565 S
C1707 H1699 0.930 . S
C1707 C1708 1.355 . S
C1707 C1709 1.415 . S
C1708 C1707 1.355 . S
C1708 C1710 1.419 . S
C1709 C1704 1.425 . S
C1709 C1706 1.409 1_545 S
C1709 C1707 1.415 . S
C1710 H1700 0.930 . S
C1710 C1708 1.419 . S
C1710 C1711 1.362 . S
C1711 H1701 0.930 . S
C1711 C1704 1.409 . S
C1711 C1710 1.362 . S
H1712 C1718 0.930 . S
H1713 C1721 0.930 . S
H1714 C1722 0.930 . S
H1715 C1723 0.930 . S
H1716 C1726 0.930 . S
H1717 C1727 0.930 . S
C1718 H1712 0.930 . S
C1718 C1719 1.355 . S
C1718 C1720 1.415 1_655 S
C1719 C1718 1.355 . S
C1719 C1721 1.419 . S
C1720 C1718 1.415 1_455 S
C1720 C1725 1.425 . S
C1720 C1727 1.409 . S
C1721 H1713 0.930 . S
C1721 C1719 1.419 . S
C1721 C1722 1.362 1_655 S
C1722 H1714 0.930 . S
C1722 C1721 1.362 1_455 S
C1722 C1725 1.409 . S
C1723 H1715 0.930 . S
C1723 C1724 1.355 . S
C1723 C1725 1.415 . S
C1724 C1723 1.355 . S
C1724 C1726 1.419 . S
C1725 C1720 1.425 . S
C1725 C1722 1.409 . S
C1725 C1723 1.415 . S
C1726 H1716 0.930 . S
C1726 C1724 1.419 . S
C1726 C1727 1.362 . S
C1727 H1717 0.930 . S
C1727 C1720 1.409 . S
C1727 C1726 1.362 . S
H1728 C1734 0.930 . S
H1729 C1737 0.931 . S
H1730 C1738 0.930 . S
H1731 C1739 0.930 1_565 S
H1732 C1742 0.930 . S
H1733 C1743 0.930 . S
C1734 H1728 0.930 . S
C1734 C1735 1.355 . S
C1734 C1736 1.415 . S
C1735 C1734 1.355 . S
C1735 C1737 1.419 1_545 S
C1736 C1734 1.415 . S
C1736 C1741 1.425 1_554 S
C1736 C1743 1.409 1_554 S
C1737 H1729 0.931 . S
C1737 C1735 1.419 1_565 S
C1737 C1738 1.362 . S
C1738 H1730 0.930 . S
C1738 C1737 1.362 . S
C1738 C1741 1.409 1_564 S
C1739 H1731 0.930 1_545 S
C1739 C1740 1.355 . S
C1739 C1741 1.415 . S
C1740 C1739 1.355 . S
C1740 C1742 1.419 . S
C1741 C1736 1.425 1_556 S
C1741 C1738 1.409 1_546 S
C1741 C1739 1.415 . S
C1742 H1732 0.930 . S
C1742 C1740 1.419 . S
C1742 C1743 1.362 . S
C1743 H1733 0.930 . S
C1743 C1736 1.409 1_556 S
C1743 C1742 1.362 . S
H1744 C1750 0.930 . S
H1745 C1753 0.930 1_655 S
H1746 C1754 0.908 1_655 S
H1747 C1755 0.930 . S
H1748 C1758 0.930 . S
H1749 C1759 0.930 . S
C1750 H1744 0.930 . S
C1750 C1751 1.355 . S
C1750 C1752 1.415 . S
C1751 C1750 1.355 . S
C1751 C1753 1.419 . S
C1752 C1750 1.415 . S
C1752 C1757 1.425 1_556 S
C1752 C1759 1.409 1_556 S
C1753 H1745 0.930 1_455 S
C1753 C1751 1.419 . S
C1753 C1754 1.366 . S
C1754 H1746 0.908 1_455 S
C1754 C1753 1.366 . S
C1754 C1757 1.428 1_556 S
C1755 H1747 0.930 . S
C1755 C1756 1.355 . S
C1755 C1757 1.415 . S
C1756 C1755 1.355 . S
C1756 C1758 1.419 . S
C1757 C1752 1.425 1_554 S
C1757 C1754 1.428 1_554 S
C1757 C1755 1.415 . S
C1758 H1748 0.930 . S
C1758 C1756 1.419 . S
C1758 C1759 1.362 . S
C1759 H1749 0.930 . S
C1759 C1752 1.409 1_554 S
C1759 C1758 1.362 . S
H1760 C1766 0.930 . S
H1761 C1769 0.930 . S
H1762 C1770 0.930 . S
H1763 C1771 0.930 . S
H1764 C1774 0.930 . S
H1765 C1775 0.930 . S
C1766 H1760 0.930 . S
C1766 C1767 1.355 . S
C1766 C1768 1.415 . S
C1767 C1766 1.355 . S
C1767 C1769 1.419 . S
C1768 C1766 1.415 . S
C1768 C1773 1.425 1_554 S
C1768 C1775 1.409 1_554 S
C1769 H1761 0.930 . S
C1769 C1767 1.419 . S
C1769 C1770 1.362 . S
C1770 H1762 0.930 . S
C1770 C1769 1.362 . S
C1770 C1773 1.409 1_554 S
C1771 H1763 0.930 . S
C1771 C1772 1.355 . S
C1771 C1773 1.415 . S
C1772 C1771 1.355 . S
C1772 C1774 1.419 . S
C1773 C1768 1.425 1_556 S
C1773 C1770 1.409 1_556 S
C1773 C1771 1.415 . S
C1774 H1764 0.930 . S
C1774 C1772 1.419 . S
C1774 C1775 1.362 . S
C1775 H1765 0.930 . S
C1775 C1768 1.409 1_556 S
C1775 C1774 1.362 . S
H1776 C1782 0.930 . S
H1777 C1785 0.930 . S
H1778 C1786 0.930 . S
H1779 C1787 0.930 . S
H1780 C1790 0.930 . S
H1781 C1791 0.930 . S
C1782 H1776 0.930 . S
C1782 C1783 1.355 . S
C1782 C1784 1.415 . S
C1783 C1782 1.355 . S
C1783 C1785 1.419 1_455 S
C1784 C1782 1.415 . S
C1784 C1789 1.425 . S
C1784 C1791 1.409 . S
C1785 H1777 0.930 . S
C1785 C1783 1.419 1_655 S
C1785 C1786 1.362 . S
C1786 H1778 0.930 . S
C1786 C1785 1.362 . S
C1786 C1789 1.409 1_655 S
C1787 H1779 0.930 . S
C1787 C1788 1.355 1_655 S
C1787 C1789 1.415 1_655 S
C1788 C1787 1.355 1_455 S
C1788 C1790 1.419 . S
C1789 C1784 1.425 . S
C1789 C1786 1.409 1_455 S
C1789 C1787 1.415 1_455 S
C1790 H1780 0.930 . S
C1790 C1788 1.419 . S
C1790 C1791 1.362 . S
C1791 H1781 0.930 . S
C1791 C1784 1.409 . S
C1791 C1790 1.362 . S
H1792 C1798 0.930 . S
H1793 C1801 0.930 . S
H1794 C1802 0.930 . S
H1795 C1803 0.930 . S
H1796 C1806 0.930 . S
H1797 C1807 0.930 . S
C1798 H1792 0.930 . S
C1798 C1799 1.355 . S
C1798 C1800 1.415 . S
C1799 C1798 1.355 . S
C1799 C1801 1.419 . S
C1800 C1798 1.415 . S
C1800 C1805 1.425 . S
C1800 C1807 1.409 . S
C1801 H1793 0.930 . S
C1801 C1799 1.419 . S
C1801 C1802 1.362 . S
C1802 H1794 0.930 . S
C1802 C1801 1.362 . S
C1802 C1805 1.409 . S
C1803 H1795 0.930 . S
C1803 C1804 1.355 . S
C1803 C1805 1.415 . S
C1804 C1803 1.355 . S
C1804 C1806 1.419 . S
C1805 C1800 1.425 . S
C1805 C1802 1.409 . S
C1805 C1803 1.415 . S
C1806 H1796 0.930 . S
C1806 C1804 1.419 . S
C1806 C1807 1.362 . S
C1807 H1797 0.930 . S
C1807 C1800 1.409 . S
C1807 C1806 1.362 . S
H1808 C1814 0.930 . S
H1809 C1817 0.930 . S
H1810 C1818 0.930 . S
H1811 C1819 0.930 . S
H1812 C1822 0.930 . S
H1813 C1823 0.930 . S
C1814 H1808 0.930 . S
C1814 C1815 1.355 . S
C1814 C1816 1.415 . S
C1815 C1814 1.355 . S
C1815 C1817 1.419 . S
C1816 C1814 1.415 . S
C1816 C1821 1.425 . S
C1816 C1823 1.409 . S
C1817 H1809 0.930 . S
C1817 C1815 1.419 . S
C1817 C1818 1.362 . S
C1818 H1810 0.930 . S
C1818 C1817 1.362 . S
C1818 C1821 1.409 . S
C1819 H1811 0.930 . S
C1819 C1820 1.355 . S
C1819 C1821 1.415 . S
C1820 C1819 1.355 . S
C1820 C1822 1.419 . S
C1821 C1816 1.425 . S
C1821 C1818 1.409 . S
C1821 C1819 1.415 . S
C1822 H1812 0.930 . S
C1822 C1820 1.419 . S
C1822 C1823 1.362 . S
C1823 H1813 0.930 . S
C1823 C1816 1.409 . S
C1823 C1822 1.362 . S
H1824 C1830 0.930 . S
H1825 C1833 0.930 . S
H1826 C1834 0.930 . S
H1827 C1835 0.930 . S
H1828 C1838 0.930 . S
H1829 C1839 0.930 . S
C1830 H1824 0.930 . S
C1830 C1831 1.355 . S
C1830 C1832 1.415 . S
C1831 C1830 1.355 . S
C1831 C1833 1.419 . S
C1832 C1830 1.415 . S
C1832 C1837 1.425 . S
C1832 C1839 1.409 . S
C1833 H1825 0.930 . S
C1833 C1831 1.419 . S
C1833 C1834 1.362 . S
C1834 H1826 0.930 . S
C1834 C1833 1.362 . S
C1834 C1837 1.409 . S
C1835 H1827 0.930 . S
C1835 C1836 1.355 . S
C1835 C1837 1.415 . S
C1836 C1835 1.355 . S
C1836 C1838 1.419 . S
C1837 C1832 1.425 . S
C1837 C1834 1.409 . S
C1837 C1835 1.415 . S
C1838 H1828 0.930 . S
C1838 C1836 1.419 . S
C1838 C1839 1.362 . S
C1839 H1829 0.930 . S
C1839 C1832 1.409 . S
C1839 C1838 1.362 . S
H1840 C1846 0.930 . S
H1841 C1849 0.930 . S
H1842 C1850 0.930 . S
H1843 C1851 0.930 . S
H1844 C1854 0.930 . S
H1845 C1855 0.930 . S
C1846 H1840 0.930 . S
C1846 C1847 1.355 . S
C1846 C1848 1.415 . S
C1847 C1846 1.355 . S
C1847 C1849 1.419 . S
C1848 C1846 1.415 . S
C1848 C1853 1.425 . S
C1848 C1855 1.409 . S
C1849 H1841 0.930 . S
C1849 C1847 1.419 . S
C1849 C1850 1.362 . S
C1850 H1842 0.930 . S
C1850 C1849 1.362 . S
C1850 C1853 1.409 . S
C1851 H1843 0.930 . S
C1851 C1852 1.355 . S
C1851 C1853 1.415 . S
C1852 C1851 1.355 . S
C1852 C1854 1.419 . S
C1853 C1848 1.425 . S
C1853 C1850 1.409 . S
C1853 C1851 1.415 . S
C1854 H1844 0.930 . S
C1854 C1852 1.419 . S
C1854 C1855 1.362 . S
C1855 H1845 0.930 . S
C1855 C1848 1.409 . S
C1855 C1854 1.362 . S
H1856 C1862 0.930 . S
H1857 C1865 0.930 . S
H1858 C1866 0.930 . S
H1859 C1867 0.930 . S
H1860 C1870 0.930 . S
H1861 C1871 0.930 . S
C1862 H1856 0.930 . S
C1862 C1863 1.355 . S
C1862 C1864 1.415 . S
C1863 C1862 1.355 . S
C1863 C1865 1.419 . S
C1864 C1862 1.415 . S
C1864 C1869 1.425 . S
C1864 C1871 1.409 . S
C1865 H1857 0.930 . S
C1865 C1863 1.419 . S
C1865 C1866 1.362 . S
C1866 H1858 0.930 . S
C1866 C1865 1.362 . S
C1866 C1869 1.409 . S
C1867 H1859 0.930 . S
C1867 C1868 1.355 . S
C1867 C1869 1.415 . S
C1868 C1867 1.355 . S
C1868 C1870 1.419 . S
C1869 C1864 1.425 . S
C1869 C1866 1.409 . S
C1869 C1867 1.415 . S
C1870 H1860 0.930 . S
C1870 C1868 1.419 . S
C1870 C1871 1.362 . S
C1871 H1861 0.930 . S
C1871 C1864 1.409 . S
C1871 C1870 1.362 . S
H1872 C1878 0.930 . S
H1873 C1881 0.930 . S
H1874 C1882 0.930 . S
H1875 C1883 0.930 . S
H1876 C1886 0.930 . S
H1877 C1887 0.930 . S
C1878 H1872 0.930 . S
C1878 C1879 1.355 . S
C1878 C1880 1.415 . S
C1879 C1878 1.355 . S
C1879 C1881 1.419 . S
C1880 C1878 1.415 . S
C1880 C1885 1.425 . S
C1880 C1887 1.409 . S
C1881 H1873 0.930 . S
C1881 C1879 1.419 . S
C1881 C1882 1.362 . S
C1882 H1874 0.930 . S
C1882 C1881 1.362 . S
C1882 C1885 1.409 . S
C1883 H1875 0.930 . S
C1883 C1884 1.355 . S
C1883 C1885 1.415 . S
C1884 C1883 1.355 . S
C1884 C1886 1.419 . S
C1885 C1880 1.425 . S
C1885 C1882 1.409 . S
C1885 C1883 1.415 . S
C1886 H1876 0.930 . S
C1886 C1884 1.419 . S
C1886 C1887 1.362 . S
C1887 H1877 0.930 . S
C1887 C1880 1.409 . S
C1887 C1886 1.362 . S
H1888 C1894 0.930 . S
H1889 C1897 0.930 . S
H1890 C1898 0.930 . S
H1891 C1899 0.930 . S
H1892 C1902 0.930 . S
H1893 C1903 0.930 . S
C1894 H1888 0.930 . S
C1894 C1895 1.355 . S
C1894 C1896 1.415 . S
C1895 C1894 1.355 . S
C1895 C1897 1.419 . S
C1896 C1894 1.415 . S
C1896 C1901 1.425 . S
C1896 C1903 1.409 . S
C1897 H1889 0.930 . S
C1897 C1895 1.419 . S
C1897 C1898 1.362 . S
C1898 H1890 0.930 . S
C1898 C1897 1.362 . S
C1898 C1901 1.409 . S
C1899 H1891 0.930 . S
C1899 C1900 1.355 . S
C1899 C1901 1.415 . S
C1900 C1899 1.355 . S
C1900 C1902 1.419 . S
C1901 C1896 1.425 . S
C1901 C1898 1.409 . S
C1901 C1899 1.415 . S
C1902 H1892 0.930 . S
C1902 C1900 1.419 . S
C1902 C1903 1.362 . S
C1903 H1893 0.930 . S
C1903 C1896 1.409 . S
C1903 C1902 1.362 . S
H1904 C1910 0.930 . S
H1905 C1913 0.930 . S
H1906 C1914 0.930 . S
H1907 C1915 0.930 . S
H1908 C1918 0.930 . S
H1909 C1919 0.930 . S
C1910 H1904 0.930 . S
C1910 C1911 1.355 . S
C1910 C1912 1.415 . S
C1911 C1910 1.355 . S
C1911 C1913 1.419 . S
C1912 C1910 1.415 . S
C1912 C1917 1.425 . S
C1912 C1919 1.409 . S
C1913 H1905 0.930 . S
C1913 C1911 1.419 . S
C1913 C1914 1.362 . S
C1914 H1906 0.930 . S
C1914 C1913 1.362 . S
C1914 C1917 1.409 . S
C1915 H1907 0.930 . S
C1915 C1916 1.355 . S
C1915 C1917 1.415 . S
C1916 C1915 1.355 . S
C1916 C1918 1.419 . S
C1917 C1912 1.425 . S
C1917 C1914 1.409 . S
C1917 C1915 1.415 . S
C1918 H1908 0.930 . S
C1918 C1916 1.419 . S
C1918 C1919 1.362 . S
C1919 H1909 0.930 . S
C1919 C1912 1.409 . S
C1919 C1918 1.362 . S
H1920 C1926 0.930 . S
H1921 C1929 0.930 . S
H1922 C1930 0.930 . S
H1923 C1931 0.930 . S
H1924 C1934 0.930 . S
H1925 C1935 0.930 . S
C1926 H1920 0.930 . S
C1926 C1927 1.355 . S
C1926 C1928 1.415 . S
C1927 C1926 1.355 . S
C1927 C1929 1.419 . S
C1928 C1926 1.415 . S
C1928 C1933 1.425 . S
C1928 C1935 1.409 . S
C1929 H1921 0.930 . S
C1929 C1927 1.419 . S
C1929 C1930 1.362 . S
C1930 H1922 0.930 . S
C1930 C1929 1.362 . S
C1930 C1933 1.409 . S
C1931 H1923 0.930 . S
C1931 C1932 1.355 . S
C1931 C1933 1.415 . S
C1932 C1931 1.355 . S
C1932 C1934 1.419 . S
C1933 C1928 1.425 . S
C1933 C1930 1.409 . S
C1933 C1931 1.415 . S
C1934 H1924 0.930 . S
C1934 C1932 1.419 . S
C1934 C1935 1.362 . S
C1935 H1925 0.930 . S
C1935 C1928 1.409 . S
C1935 C1934 1.362 . S
H1936 C1942 0.930 . S
H1937 C1945 0.930 . S
H1938 C1946 0.930 . S
H1939 C1947 0.930 . S
H1940 C1950 0.930 . S
H1941 C1951 0.930 . S
C1942 H1936 0.930 . S
C1942 C1943 1.355 . S
C1942 C1944 1.415 . S
C1943 C1942 1.355 . S
C1943 C1945 1.419 . S
C1944 C1942 1.415 . S
C1944 C1949 1.425 . S
C1944 C1951 1.409 . S
C1945 H1937 0.930 . S
C1945 C1943 1.419 . S
C1945 C1946 1.362 . S
C1946 H1938 0.930 . S
C1946 C1945 1.362 . S
C1946 C1949 1.409 . S
C1947 H1939 0.930 . S
C1947 C1948 1.355 . S
C1947 C1949 1.415 . S
C1948 C1947 1.355 . S
C1948 C1950 1.419 . S
C1949 C1944 1.425 . S
C1949 C1946 1.409 . S
C1949 C1947 1.415 . S
C1950 H1940 0.930 . S
C1950 C1948 1.419 . S
C1950 C1951 1.362 . S
C1951 H1941 0.930 . S
C1951 C1944 1.409 . S
C1951 C1950 1.362 . S
H1952 C1958 0.930 . S
H1953 C1961 0.930 . S
H1954 C1962 0.930 . S
H1955 C1963 0.930 . S
H1956 C1966 0.930 . S
H1957 C1967 0.930 . S
C1958 H1952 0.930 . S
C1958 C1959 1.355 . S
C1958 C1960 1.415 . S
C1959 C1958 1.355 . S
C1959 C1961 1.419 . S
C1960 C1958 1.415 . S
C1960 C1965 1.425 . S
C1960 C1967 1.409 . S
C1961 H1953 0.930 . S
C1961 C1959 1.419 . S
C1961 C1962 1.362 . S
C1962 H1954 0.930 . S
C1962 C1961 1.362 . S
C1962 C1965 1.409 . S
C1963 H1955 0.930 . S
C1963 C1964 1.355 . S
C1963 C1965 1.415 . S
C1964 C1963 1.355 . S
C1964 C1966 1.419 . S
C1965 C1960 1.425 . S
C1965 C1962 1.409 . S
C1965 C1963 1.415 . S
C1966 H1956 0.930 . S
C1966 C1964 1.419 . S
C1966 C1967 1.362 . S
C1967 H1957 0.930 . S
C1967 C1960 1.409 . S
C1967 C1966 1.362 . S
H1968 C1974 0.930 . S
H1969 C1977 0.930 . S
H1970 C1978 0.930 . S
H1971 C1979 0.930 . S
H1972 C1982 0.930 . S
H1973 C1983 0.930 . S
C1974 H1968 0.930 . S
C1974 C1975 1.355 . S
C1974 C1976 1.415 . S
C1975 C1974 1.355 . S
C1975 C1977 1.419 . S
C1976 C1974 1.415 . S
C1976 C1981 1.425 . S
C1976 C1983 1.409 . S
C1977 H1969 0.930 . S
C1977 C1975 1.419 . S
C1977 C1978 1.362 . S
C1978 H1970 0.930 . S
C1978 C1977 1.362 . S
C1978 C1981 1.409 . S
C1979 H1971 0.930 . S
C1979 C1980 1.355 . S
C1979 C1981 1.415 . S
C1980 C1979 1.355 . S
C1980 C1982 1.419 . S
C1981 C1976 1.425 . S
C1981 C1978 1.409 . S
C1981 C1979 1.415 . S
C1982 H1972 0.930 . S
C1982 C1980 1.419 . S
C1982 C1983 1.362 . S
C1983 H1973 0.930 . S
C1983 C1976 1.409 . S
C1983 C1982 1.362 . S
H1984 C1990 0.930 . S
H1985 C1993 0.930 . S
H1986 C1994 0.930 . S
H1987 C1995 0.930 . S
H1988 C1998 0.930 . S
H1989 C1999 0.930 . S
C1990 H1984 0.930 . S
C1990 C1991 1.355 . S
C1990 C1992 1.415 . S
C1991 C1990 1.355 . S
C1991 C1993 1.419 . S
C1992 C1990 1.415 . S
C1992 C1997 1.425 . S
C1992 C1999 1.409 . S
C1993 H1985 0.930 . S
C1993 C1991 1.419 . S
C1993 C1994 1.362 . S
C1994 H1986 0.930 . S
C1994 C1993 1.362 . S
C1994 C1997 1.409 . S
C1995 H1987 0.930 . S
C1995 C1996 1.355 . S
C1995 C1997 1.415 . S
C1996 C1995 1.355 . S
C1996 C1998 1.419 . S
C1997 C1992 1.425 . S
C1997 C1994 1.409 . S
C1997 C1995 1.415 . S
C1998 H1988 0.930 . S
C1998 C1996 1.419 . S
C1998 C1999 1.362 . S
C1999 H1989 0.930 . S
C1999 C1992 1.409 . S
C1999 C1998 1.362 . S
H2000 C2006 0.930 . S
H2001 C2009 0.930 . S
H2002 C2010 0.930 . S
H2003 C2011 0.930 . S
H2004 C2014 0.930 . S
H2005 C2015 0.930 . S
C2006 H2000 0.930 . S
C2006 C2007 1.355 . S
C2006 C2008 1.415 . S
C2007 C2006 1.355 . S
C2007 C2009 1.419 . S
C2008 C2006 1.415 . S
C2008 C2013 1.425 . S
C2008 C2015 1.409 . S
C2009 H2001 0.930 . S
C2009 C2007 1.419 . S
C2009 C2010 1.362 . S
C2010 H2002 0.930 . S
C2010 C2009 1.362 . S
C2010 C2013 1.409 . S
C2011 H2003 0.930 . S
C2011 C2012 1.355 . S
C2011 C2013 1.415 . S
C2012 C2011 1.355 . S
C2012 C2014 1.419 . S
C2013 C2008 1.425 . S
C2013 C2010 1.409 . S
C2013 C2011 1.415 . S
C2014 H2004 0.930 . S
C2014 C2012 1.419 . S
C2014 C2015 1.362 . S
C2015 H2005 0.930 . S
C2015 C2008 1.409 . S
C2015 C2014 1.362 . S
H2016 C2022 0.930 . S
H2017 C2025 0.930 . S
H2018 C2026 0.930 . S
H2019 C2027 0.930 . S
H2020 C2030 0.930 . S
H2021 C2031 0.930 . S
C2022 H2016 0.930 . S
C2022 C2023 1.355 . S
C2022 C2024 1.415 . S
C2023 C2022 1.355 . S
C2023 C2025 1.419 . S
C2024 C2022 1.415 . S
C2024 C2029 1.425 . S
C2024 C2031 1.409 . S
C2025 H2017 0.930 . S
C2025 C2023 1.419 . S
C2025 C2026 1.362 . S
C2026 H2018 0.930 . S
C2026 C2025 1.362 . S
C2026 C2029 1.409 . S
C2027 H2019 0.930 . S
C2027 C2028 1.355 . S
C2027 C2029 1.415 . S
C2028 C2027 1.355 . S
C2028 C2030 1.419 . S
C2029 C2024 1.425 . S
C2029 C2026 1.409 . S
C2029 C2027 1.415 . S
C2030 H2020 0.930 . S
C2030 C2028 1.419 . S
C2030 C2031 1.362 . S
C2031 H2021 0.930 . S
C2031 C2024 1.409 . S
C2031 C2030 1.362 . S
H2032 C2038 0.930 . S
H2033 C2041 0.930 . S
H2034 C2042 0.930 . S
H2035 C2043 0.930 . S
H2036 C2046 0.930 . S
H2037 C2047 0.930 . S
C2038 H2032 0.930 . S
C2038 C2039 1.355 . S
C2038 C2040 1.415 . S
C2039 C2038 1.355 . S
C2039 C2041 1.419 . S
C2040 C2038 1.415 . S
C2040 C2045 1.425 . S
C2040 C2047 1.409 . S
C2041 H2033 0.930 . S
C2041 C2039 1.419 . S
C2041 C2042 1.362 . S
C2042 H2034 0.930 . S
C2042 C2041 1.362 . S
C2042 C2045 1.409 . S
C2043 H2035 0.930 . S
C2043 C2044 1.355 . S
C2043 C2045 1.415 . S
C2044 C2043 1.355 . S
C2044 C2046 1.419 . S
C2045 C2040 1.425 . S
C2045 C2042 1.409 . S
C2045 C2043 1.415 . S
C2046 H2036 0.930 . S
C2046 C2044 1.419 . S
C2046 C2047 1.362 . S
C2047 H2037 0.930 . S
C2047 C2040 1.409 . S
C2047 C2046 1.362 . S
H2048 C2054 0.930 . S
H2049 C2057 0.930 . S
H2050 C2058 0.930 . S
H2051 C2059 0.930 . S
H2052 C2062 0.930 . S
H2053 C2063 0.930 . S
C2054 H2048 0.930 . S
C2054 C2055 1.355 . S
C2054 C2056 1.415 . S
C2055 C2054 1.355 . S
C2055 C2057 1.419 . S
C2056 C2054 1.415 . S
C2056 C2061 1.425 . S
C2056 C2063 1.409 . S
C2057 H2049 0.930 . S
C2057 C2055 1.419 . S
C2057 C2058 1.362 . S
C2058 H2050 0.930 . S
C2058 C2057 1.362 . S
C2058 C2061 1.409 . S
C2059 H2051 0.930 . S
C2059 C2060 1.355 . S
C2059 C2061 1.415 . S
C2060 C2059 1.355 . S
C2060 C2062 1.419 . S
C2061 C2056 1.425 . S
C2061 C2058 1.409 . S
C2061 C2059 1.415 . S
C2062 H2052 0.930 . S
C2062 C2060 1.419 . S
C2062 C2063 1.362 . S
C2063 H2053 0.930 . S
C2063 C2056 1.409 . S
C2063 C2062 1.362 . S
H2064 C2070 0.930 . S
H2065 C2073 0.930 . S
H2066 C2074 0.930 . S
H2067 C2075 0.930 . S
H2068 C2078 0.930 . S
H2069 C2079 0.930 . S
C2070 H2064 0.930 . S
C2070 C2071 1.355 . S
C2070 C2072 1.415 . S
C2071 C2070 1.355 . S
C2071 C2073 1.419 . S
C2072 C2070 1.415 . S
C2072 C2077 1.425 . S
C2072 C2079 1.409 . S
C2073 H2065 0.930 . S
C2073 C2071 1.419 . S
C2073 C2074 1.362 . S
C2074 H2066 0.930 . S
C2074 C2073 1.362 . S
C2074 C2077 1.409 . S
C2075 H2067 0.930 . S
C2075 C2076 1.355 . S
C2075 C2077 1.415 . S
C2076 C2075 1.355 . S
C2076 C2078 1.419 . S
C2077 C2072 1.425 . S
C2077 C2074 1.409 . S
C2077 C2075 1.415 . S
C2078 H2068 0.930 . S
C2078 C2076 1.419 . S
C2078 C2079 1.362 . S
C2079 H2069 0.930 . S
C2079 C2072 1.409 . S
C2079 C2078 1.362 . S
H2080 C2086 0.930 . S
H2081 C2089 0.930 . S
H2082 C2090 0.930 . S
H2083 C2091 0.930 . S
H2084 C2094 0.930 . S
H2085 C2095 0.930 . S
C2086 H2080 0.930 . S
C2086 C2087 1.355 . S
C2086 C2088 1.415 . S
C2087 C2086 1.355 . S
C2087 C2089 1.419 . S
C2088 C2086 1.415 . S
C2088 C2093 1.425 . S
C2088 C2095 1.409 . S
C2089 H2081 0.930 . S
C2089 C2087 1.419 . S
C2089 C2090 1.362 . S
C2090 H2082 0.930 . S
C2090 C2089 1.362 . S
C2090 C2093 1.409 . S
C2091 H2083 0.930 . S
C2091 C2092 1.355 . S
C2091 C2093 1.415 . S
C2092 C2091 1.355 . S
C2092 C2094 1.419 . S
C2093 C2088 1.425 . S
C2093 C2090 1.409 . S
C2093 C2091 1.415 . S
C2094 H2084 0.930 . S
C2094 C2092 1.419 . S
C2094 C2095 1.362 . S
C2095 H2085 0.930 . S
C2095 C2088 1.409 . S
C2095 C2094 1.362 . S
H2096 C2102 0.930 . S
H2097 C2105 0.930 . S
H2098 C2106 0.930 . S
H2099 C2107 0.930 . S
H2100 C2110 0.930 . S
H2101 C2111 0.930 . S
C2102 H2096 0.930 . S
C2102 C2103 1.355 . S
C2102 C2104 1.415 . S
C2103 C2102 1.355 . S
C2103 C2105 1.419 . S
C2104 C2102 1.415 . S
C2104 C2109 1.425 . S
C2104 C2111 1.409 . S
C2105 H2097 0.930 . S
C2105 C2103 1.419 . S
C2105 C2106 1.362 . S
C2106 H2098 0.930 . S
C2106 C2105 1.362 . S
C2106 C2109 1.409 . S
C2107 H2099 0.930 . S
C2107 C2108 1.355 . S
C2107 C2109 1.415 . S
C2108 C2107 1.355 . S
C2108 C2110 1.419 . S
C2109 C2104 1.425 . S
C2109 C2106 1.409 . S
C2109 C2107 1.415 . S
C2110 H2100 0.930 . S
C2110 C2108 1.419 . S
C2110 C2111 1.362 . S
C2111 H2101 0.930 . S
C2111 C2104 1.409 . S
C2111 C2110 1.362 . S
H2112 C2118 0.930 . S
H2113 C2121 0.930 . S
H2114 C2122 0.930 . S
H2115 C2123 0.930 . S
H2116 C2126 0.930 . S
H2117 C2127 0.930 . S
C2118 H2112 0.930 . S
C2118 C2119 1.355 . S
C2118 C2120 1.415 . S
C2119 C2118 1.355 . S
C2119 C2121 1.419 . S
C2120 C2118 1.415 . S
C2120 C2125 1.425 . S
C2120 C2127 1.409 . S
C2121 H2113 0.930 . S
C2121 C2119 1.419 . S
C2121 C2122 1.362 . S
C2122 H2114 0.930 . S
C2122 C2121 1.362 . S
C2122 C2125 1.409 . S
C2123 H2115 0.930 . S
C2123 C2124 1.355 . S
C2123 C2125 1.415 . S
C2124 C2123 1.355 . S
C2124 C2126 1.419 . S
C2125 C2120 1.425 . S
C2125 C2122 1.409 . S
C2125 C2123 1.415 . S
C2126 H2116 0.930 . S
C2126 C2124 1.419 . S
C2126 C2127 1.362 . S
C2127 H2117 0.930 . S
C2127 C2120 1.409 . S
C2127 C2126 1.362 . S
H2128 C2134 0.930 . S
H2129 C2137 0.930 . S
H2130 C2138 0.930 . S
H2131 C2139 0.930 . S
H2132 C2142 0.930 . S
H2133 C2143 0.930 . S
C2134 H2128 0.930 . S
C2134 C2135 1.355 . S
C2134 C2136 1.415 . S
C2135 C2134 1.355 . S
C2135 C2137 1.419 . S
C2136 C2134 1.415 . S
C2136 C2141 1.425 . S
C2136 C2143 1.409 . S
C2137 H2129 0.930 . S
C2137 C2135 1.419 . S
C2137 C2138 1.362 . S
C2138 H2130 0.930 . S
C2138 C2137 1.362 . S
C2138 C2141 1.409 . S
C2139 H2131 0.930 . S
C2139 C2140 1.355 . S
C2139 C2141 1.415 . S
C2140 C2139 1.355 . S
C2140 C2142 1.419 . S
C2141 C2136 1.425 . S
C2141 C2138 1.409 . S
C2141 C2139 1.415 . S
C2142 H2132 0.930 . S
C2142 C2140 1.419 . S
C2142 C2143 1.362 . S
C2143 H2133 0.930 . S
C2143 C2136 1.409 . S
C2143 C2142 1.362 . S
H2144 C2150 0.930 . S
H2145 C2153 0.930 . S
H2146 C2154 0.930 . S
H2147 C2155 0.930 . S
H2148 C2158 0.930 . S
H2149 C2159 0.930 . S
C2150 H2144 0.930 . S
C2150 C2151 1.355 . S
C2150 C2152 1.415 . S
C2151 C2150 1.355 . S
C2151 C2153 1.419 . S
C2152 C2150 1.415 . S
C2152 C2157 1.425 . S
C2152 C2159 1.409 . S
C2153 H2145 0.930 . S
C2153 C2151 1.419 . S
C2153 C2154 1.362 . S
C2154 H2146 0.930 . S
C2154 C2153 1.362 . S
C2154 C2157 1.409 . S
C2155 H2147 0.930 . S
C2155 C2156 1.355 . S
C2155 C2157 1.415 . S
C2156 C2155 1.355 . S
C2156 C2158 1.419 . S
C2157 C2152 1.425 . S
C2157 C2154 1.409 . S
C2157 C2155 1.415 . S
C2158 H2148 0.930 . S
C2158 C2156 1.419 . S
C2158 C2159 1.362 . S
C2159 H2149 0.930 . S
C2159 C2152 1.409 . S
C2159 C2158 1.362 . S
H2160 C2166 0.930 . S
H2161 C2169 0.930 . S
H2162 C2170 0.930 . S
H2163 C2171 0.930 . S
H2164 C2174 0.930 . S
H2165 C2175 0.930 . S
C2166 H2160 0.930 . S
C2166 C2167 1.355 . S
C2166 C2168 1.415 . S
C2167 C2166 1.355 . S
C2167 C2169 1.419 . S
C2168 C2166 1.415 . S
C2168 C2173 1.425 . S
C2168 C2175 1.409 . S
C2169 H2161 0.930 . S
C2169 C2167 1.419 . S
C2169 C2170 1.362 . S
C2170 H2162 0.930 . S
C2170 C2169 1.362 . S
C2170 C2173 1.409 . S
C2171 H2163 0.930 . S
C2171 C2172 1.355 . S
C2171 C2173 1.415 . S
C2172 C2171 1.355 . S
C2172 C2174 1.419 . S
C2173 C2168 1.425 . S
C2173 C2170 1.409 . S
C2173 C2171 1.415 . S
C2174 H2164 0.930 . S
C2174 C2172 1.419 . S
C2174 C2175 1.362 . S
C2175 H2165 0.930 . S
C2175 C2168 1.409 . S
C2175 C2174 1.362 . S
H2176 C2182 0.930 . S
H2177 C2185 0.930 . S
H2178 C2186 0.930 . S
H2179 C2187 0.930 . S
H2180 C2190 0.930 . S
H2181 C2191 0.930 . S
C2182 H2176 0.930 . S
C2182 C2183 1.355 . S
C2182 C2184 1.415 . S
C2183 C2182 1.355 . S
C2183 C2185 1.419 . S
C2184 C2182 1.415 . S
C2184 C2189 1.425 . S
C2184 C2191 1.409 . S
C2185 H2177 0.930 . S
C2185 C2183 1.419 . S
C2185 C2186 1.362 . S
C2186 H2178 0.930 . S
C2186 C2185 1.362 . S
C2186 C2189 1.409 . S
C2187 H2179 0.930 . S
C2187 C2188 1.355 . S
C2187 C2189 1.415 . S
C2188 C2187 1.355 . S
C2188 C2190 1.419 . S
C2189 C2184 1.425 . S
C2189 C2186 1.409 . S
C2189 C2187 1.415 . S
C2190 H2180 0.930 . S
C2190 C2188 1.419 . S
C2190 C2191 1.362 . S
C2191 H2181 0.930 . S
C2191 C2184 1.409 . S
C2191 C2190 1.362 . S
H2192 C2198 0.930 . S
H2193 C2201 0.930 . S
H2194 C2202 0.930 . S
H2195 C2203 0.930 . S
H2196 C2206 0.930 . S
H2197 C2207 0.930 . S
C2198 H2192 0.930 . S
C2198 C2199 1.355 . S
C2198 C2200 1.415 . S
C2199 C2198 1.355 . S
C2199 C2201 1.419 . S
C2200 C2198 1.415 . S
C2200 C2205 1.425 . S
C2200 C2207 1.409 . S
C2201 H2193 0.930 . S
C2201 C2199 1.419 . S
C2201 C2202 1.362 . S
C2202 H2194 0.930 . S
C2202 C2201 1.362 . S
C2202 C2205 1.409 . S
C2203 H2195 0.930 . S
C2203 C2204 1.355 . S
C2203 C2205 1.415 . S
C2204 C2203 1.355 . S
C2204 C2206 1.419 . S
C2205 C2200 1.425 . S
C2205 C2202 1.409 . S
C2205 C2203 1.415 . S
C2206 H2196 0.930 . S
C2206 C2204 1.419 . S
C2206 C2207 1.362 . S
C2207 H2197 0.930 . S
C2207 C2200 1.409 . S
C2207 C2206 1.362 . S
H2208 C2214 0.930 . S
H2209 C2217 0.930 . S
H2210 C2218 0.930 . S
H2211 C2219 0.930 . S
H2212 C2222 0.930 . S
H2213 C2223 0.930 1_565 S
C2214 H2208 0.930 . S
C2214 C2215 1.355 . S
C2214 C2216 1.415 1_565 S
C2215 C2214 1.355 . S
C2215 C2217 1.419 1_565 S
C2216 C2214 1.415 1_545 S
C2216 C2221 1.425 . S
C2216 C2223 1.409 . S
C2217 H2209 0.930 . S
C2217 C2215 1.419 1_545 S
C2217 C2218 1.362 . S
C2218 H2210 0.930 . S
C2218 C2217 1.362 . S
C2218 C2221 1.409 . S
C2219 H2211 0.930 . S
C2219 C2220 1.355 . S
C2219 C2221 1.415 . S
C2220 C2219 1.355 . S
C2220 C2222 1.419 . S
C2221 C2216 1.425 . S
C2221 C2218 1.409 . S
C2221 C2219 1.415 . S
C2222 H2212 0.930 . S
C2222 C2220 1.419 . S
C2222 C2223 1.362 . S
C2223 H2213 0.930 1_545 S
C2223 C2216 1.409 . S
C2223 C2222 1.362 . S
H2224 C2230 0.930 . S
H2225 C2233 0.930 . S
H2226 C2234 0.930 . S
H2227 C2235 0.930 1_455 S
H2228 C2238 0.930 . S
H2229 C2239 0.930 . S
C2230 H2224 0.930 . S
C2230 C2231 1.355 . S
C2230 C2232 1.415 1_455 S
C2231 C2230 1.355 . S
C2231 C2233 1.419 . S
C2232 C2230 1.415 1_655 S
C2232 C2237 1.425 1_655 S
C2232 C2239 1.409 . S
C2233 H2225 0.930 . S
C2233 C2231 1.419 . S
C2233 C2234 1.362 . S
C2234 H2226 0.930 . S
C2234 C2233 1.362 . S
C2234 C2237 1.409 . S
C2235 H2227 0.930 1_655 S
C2235 C2236 1.355 . S
C2235 C2237 1.415 1_655 S
C2236 C2235 1.355 . S
C2236 C2238 1.419 . S
C2237 C2232 1.425 1_455 S
C2237 C2234 1.409 . S
C2237 C2235 1.415 1_455 S
C2238 H2228 0.930 . S
C2238 C2236 1.419 . S
C2238 C2239 1.362 . S
C2239 H2229 0.930 . S
C2239 C2232 1.409 . S
C2239 C2238 1.362 . S
H2240 C2246 0.930 . S
H2241 C2249 0.930 . S
H2242 C2250 0.930 . S
H2243 C2251 0.930 . S
H2244 C2254 0.930 . S
H2245 C2255 0.930 . S
C2246 H2240 0.930 . S
C2246 C2247 1.355 . S
C2246 C2248 1.415 . S
C2247 C2246 1.355 . S
C2247 C2249 1.419 . S
C2248 C2246 1.415 . S
C2248 C2253 1.425 . S
C2248 C2255 1.409 . S
C2249 H2241 0.930 . S
C2249 C2247 1.419 . S
C2249 C2250 1.362 . S
C2250 H2242 0.930 . S
C2250 C2249 1.362 . S
C2250 C2253 1.409 . S
C2251 H2243 0.930 . S
C2251 C2252 1.355 . S
C2251 C2253 1.415 . S
C2252 C2251 1.355 . S
C2252 C2254 1.419 . S
C2253 C2248 1.425 . S
C2253 C2250 1.409 . S
C2253 C2251 1.415 . S
C2254 H2244 0.930 . S
C2254 C2252 1.419 . S
C2254 C2255 1.362 . S
C2255 H2245 0.930 . S
C2255 C2248 1.409 . S
C2255 C2254 1.362 . S
H2256 C2262 0.930 . S
H2257 C2265 0.930 . S
H2258 C2266 0.930 . S
H2259 C2267 0.930 . S
H2260 C2270 0.930 . S
H2261 C2271 0.930 . S
C2262 H2256 0.930 . S
C2262 C2263 1.355 . S
C2262 C2264 1.415 . S
C2263 C2262 1.355 . S
C2263 C2265 1.419 . S
C2264 C2262 1.415 . S
C2264 C2269 1.425 . S
C2264 C2271 1.409 . S
C2265 H2257 0.930 . S
C2265 C2263 1.419 . S
C2265 C2266 1.362 . S
C2266 H2258 0.930 . S
C2266 C2265 1.362 . S
C2266 C2269 1.409 . S
C2267 H2259 0.930 . S
C2267 C2268 1.355 . S
C2267 C2269 1.415 . S
C2268 C2267 1.355 . S
C2268 C2270 1.419 . S
C2269 C2264 1.425 . S
C2269 C2266 1.409 . S
C2269 C2267 1.415 . S
C2270 H2260 0.930 . S
C2270 C2268 1.419 . S
C2270 C2271 1.362 . S
C2271 H2261 0.930 . S
C2271 C2264 1.409 . S
C2271 C2270 1.362 . S
H2272 C2278 0.930 . S
H2273 C2281 0.930 . S
H2274 C2282 0.930 . S
H2275 C2283 0.930 . S
H2276 C2286 0.930 . S
H2277 C2287 0.930 . S
C2278 H2272 0.930 . S
C2278 C2279 1.355 . S
C2278 C2280 1.415 . S
C2279 C2278 1.355 . S
C2279 C2281 1.419 . S
C2280 C2278 1.415 . S
C2280 C2285 1.425 . S
C2280 C2287 1.409 . S
C2281 H2273 0.930 . S
C2281 C2279 1.419 . S
C2281 C2282 1.362 . S
C2282 H2274 0.930 . S
C2282 C2281 1.362 . S
C2282 C2285 1.409 . S
C2283 H2275 0.930 . S
C2283 C2284 1.355 . S
C2283 C2285 1.415 . S
C2284 C2283 1.355 . S
C2284 C2286 1.419 . S
C2285 C2280 1.425 . S
C2285 C2282 1.409 . S
C2285 C2283 1.415 . S
C2286 H2276 0.930 . S
C2286 C2284 1.419 . S
C2286 C2287 1.362 . S
C2287 H2277 0.930 . S
C2287 C2280 1.409 . S
C2287 C2286 1.362 . S
H2288 C2294 0.930 . S
H2289 C2297 0.930 . S
H2290 C2298 0.930 . S
H2291 C2299 0.930 . S
H2292 C2302 0.930 . S
H2293 C2303 0.930 . S
C2294 H2288 0.930 . S
C2294 C2295 1.355 . S
C2294 C2296 1.415 . S
C2295 C2294 1.355 . S
C2295 C2297 1.419 . S
C2296 C2294 1.415 . S
C2296 C2301 1.425 . S
C2296 C2303 1.409 . S
C2297 H2289 0.930 . S
C2297 C2295 1.419 . S
C2297 C2298 1.362 . S
C2298 H2290 0.930 . S
C2298 C2297 1.362 . S
C2298 C2301 1.409 . S
C2299 H2291 0.930 . S
C2299 C2300 1.355 . S
C2299 C2301 1.415 . S
C2300 C2299 1.355 . S
C2300 C2302 1.419 . S
C2301 C2296 1.425 . S
C2301 C2298 1.409 . S
C2301 C2299 1.415 . S
C2302 H2292 0.930 . S
C2302 C2300 1.419 . S
C2302 C2303 1.362 . S
C2303 H2293 0.930 . S
C2303 C2296 1.409 . S
C2303 C2302 1.362 . S
H2304 C2310 0.930 . S
H2305 C2313 0.930 . S
H2306 C2314 0.930 . S
H2307 C2315 0.930 . S
H2308 C2318 0.930 . S
H2309 C2319 0.930 . S
C2310 H2304 0.930 . S
C2310 C2311 1.355 . S
C2310 C2312 1.415 . S
C2311 C2310 1.355 . S
C2311 C2313 1.419 . S
C2312 C2310 1.415 . S
C2312 C2317 1.425 . S
C2312 C2319 1.409 . S
C2313 H2305 0.930 . S
C2313 C2311 1.419 . S
C2313 C2314 1.362 . S
C2314 H2306 0.930 . S
C2314 C2313 1.362 . S
C2314 C2317 1.409 . S
C2315 H2307 0.930 . S
C2315 C2316 1.355 . S
C2315 C2317 1.415 . S
C2316 C2315 1.355 . S
C2316 C2318 1.419 . S
C2317 C2312 1.425 . S
C2317 C2314 1.409 . S
C2317 C2315 1.415 . S
C2318 H2308 0.930 . S
C2318 C2316 1.419 . S
C2318 C2319 1.362 . S
C2319 H2309 0.930 . S
C2319 C2312 1.409 . S
C2319 C2318 1.362 . S
H2320 C2326 0.930 . S
H2321 C2329 0.930 . S
H2322 C2330 0.930 . S
H2323 C2331 0.930 . S
H2324 C2334 0.930 . S
H2325 C2335 0.930 . S
C2326 H2320 0.930 . S
C2326 C2327 1.355 . S
C2326 C2328 1.415 . S
C2327 C2326 1.355 . S
C2327 C2329 1.419 . S
C2328 C2326 1.415 . S
C2328 C2333 1.425 . S
C2328 C2335 1.409 . S
C2329 H2321 0.930 . S
C2329 C2327 1.419 . S
C2329 C2330 1.362 . S
C2330 H2322 0.930 . S
C2330 C2329 1.362 . S
C2330 C2333 1.409 . S
C2331 H2323 0.930 . S
C2331 C2332 1.355 . S
C2331 C2333 1.415 . S
C2332 C2331 1.355 . S
C2332 C2334 1.419 . S
C2333 C2328 1.425 . S
C2333 C2330 1.409 . S
C2333 C2331 1.415 . S
C2334 H2324 0.930 . S
C2334 C2332 1.419 . S
C2334 C2335 1.362 . S
C2335 H2325 0.930 . S
C2335 C2328 1.409 . S
C2335 C2334 1.362 . S
H2336 C2342 0.930 . S
H2337 C2345 0.930 . S
H2338 C2346 0.930 . S
H2339 C2347 0.930 . S
H2340 C2350 0.930 . S
H2341 C2351 0.930 . S
C2342 H2336 0.930 . S
C2342 C2343 1.355 . S
C2342 C2344 1.415 . S
C2343 C2342 1.355 . S
C2343 C2345 1.419 . S
C2344 C2342 1.415 . S
C2344 C2349 1.425 . S
C2344 C2351 1.409 . S
C2345 H2337 0.930 . S
C2345 C2343 1.419 . S
C2345 C2346 1.362 . S
C2346 H2338 0.930 . S
C2346 C2345 1.362 . S
C2346 C2349 1.409 . S
C2347 H2339 0.930 . S
C2347 C2348 1.355 . S
C2347 C2349 1.415 . S
C2348 C2347 1.355 . S
C2348 C2350 1.419 . S
C2349 C2344 1.425 . S
C2349 C2346 1.409 . S
C2349 C2347 1.415 . S
C2350 H2340 0.930 . S
C2350 C2348 1.419 . S
C2350 C2351 1.362 . S
C2351 H2341 0.930 . S
C2351 C2344 1.409 . S
C2351 C2350 1.362 . S
H2352 C2358 0.930 . S
H2353 C2361 0.930 . S
H2354 C2362 0.930 . S
H2355 C2363 0.930 1_455 S
H2356 C2366 0.930 . S
H2357 C2367 0.930 . S
C2358 H2352 0.930 . S
C2358 C2359 1.355 . S
C2358 C2360 1.415 1_455 S
C2359 C2358 1.355 . S
C2359 C2361 1.419 . S
C2360 C2358 1.415 1_655 S
C2360 C2365 1.425 1_655 S
C2360 C2367 1.409 . S
C2361 H2353 0.930 . S
C2361 C2359 1.419 . S
C2361 C2362 1.362 . S
C2362 H2354 0.930 . S
C2362 C2361 1.362 . S
C2362 C2365 1.409 . S
C2363 H2355 0.930 1_655 S
C2363 C2364 1.355 . S
C2363 C2365 1.415 1_655 S
C2364 C2363 1.355 . S
C2364 C2366 1.419 . S
C2365 C2360 1.425 1_455 S
C2365 C2362 1.409 . S
C2365 C2363 1.415 1_455 S
C2366 H2356 0.930 . S
C2366 C2364 1.419 . S
C2366 C2367 1.362 . S
C2367 H2357 0.930 . S
C2367 C2360 1.409 . S
C2367 C2366 1.362 . S
H2368 C2374 0.930 . S
H2369 C2377 0.930 . S
H2370 C2378 0.930 . S
H2371 C2379 0.930 . S
H2372 C2382 0.930 . S
H2373 C2383 0.930 . S
C2374 H2368 0.930 . S
C2374 C2375 1.355 . S
C2374 C2376 1.415 . S
C2375 C2374 1.355 . S
C2375 C2377 1.419 . S
C2376 C2374 1.415 . S
C2376 C2381 1.425 . S
C2376 C2383 1.409 . S
C2377 H2369 0.930 . S
C2377 C2375 1.419 . S
C2377 C2378 1.362 . S
C2378 H2370 0.930 . S
C2378 C2377 1.362 . S
C2378 C2381 1.409 . S
C2379 H2371 0.930 . S
C2379 C2380 1.355 . S
C2379 C2381 1.415 . S
C2380 C2379 1.355 . S
C2380 C2382 1.419 . S
C2381 C2376 1.425 . S
C2381 C2378 1.409 . S
C2381 C2379 1.415 . S
C2382 H2372 0.930 . S
C2382 C2380 1.419 . S
C2382 C2383 1.362 . S
C2383 H2373 0.930 . S
C2383 C2376 1.409 . S
C2383 C2382 1.362 . S
H2384 C2390 0.930 . S
H2385 C2393 0.930 . S
H2386 C2394 0.930 . S
H2387 C2395 0.930 . S
H2388 C2398 0.930 . S
H2389 C2399 0.930 . S
C2390 H2384 0.930 . S
C2390 C2391 1.355 1_545 S
C2390 C2392 1.415 . S
C2391 C2390 1.355 1_565 S
C2391 C2393 1.419 . S
C2392 C2390 1.415 . S
C2392 C2397 1.425 . S
C2392 C2399 1.409 . S
C2393 H2385 0.930 . S
C2393 C2391 1.419 . S
C2393 C2394 1.362 . S
C2394 H2386 0.930 . S
C2394 C2393 1.362 . S
C2394 C2397 1.409 1_565 S
C2395 H2387 0.930 . S
C2395 C2396 1.355 . S
C2395 C2397 1.415 . S
C2396 C2395 1.355 . S
C2396 C2398 1.419 . S
C2397 C2392 1.425 . S
C2397 C2394 1.409 1_545 S
C2397 C2395 1.415 . S
C2398 H2388 0.930 . S
C2398 C2396 1.419 . S
C2398 C2399 1.362 . S
C2399 H2389 0.930 . S
C2399 C2392 1.409 . S
C2399 C2398 1.362 . S
H2400 C2406 0.930 . S
H2401 C2409 0.930 . S
H2402 C2410 0.930 . S
H2403 C2411 0.930 . S
H2404 C2414 0.930 . S
H2405 C2415 0.930 . S
C2406 H2400 0.930 . S
C2406 C2407 1.355 . S
C2406 C2408 1.415 . S
C2407 C2406 1.355 . S
C2407 C2409 1.419 . S
C2408 C2406 1.415 . S
C2408 C2413 1.425 . S
C2408 C2415 1.409 . S
C2409 H2401 0.930 . S
C2409 C2407 1.419 . S
C2409 C2410 1.362 . S
C2410 H2402 0.930 . S
C2410 C2409 1.362 . S
C2410 C2413 1.409 . S
C2411 H2403 0.930 . S
C2411 C2412 1.355 . S
C2411 C2413 1.415 . S
C2412 C2411 1.355 . S
C2412 C2414 1.419 . S
C2413 C2408 1.425 . S
C2413 C2410 1.409 . S
C2413 C2411 1.415 . S
C2414 H2404 0.930 . S
C2414 C2412 1.419 . S
C2414 C2415 1.362 . S
C2415 H2405 0.930 . S
C2415 C2408 1.409 . S
C2415 C2414 1.362 . S
H2416 C2422 0.930 . S
H2417 C2425 0.930 . S
H2418 C2426 0.930 . S
H2419 C2427 0.930 . S
H2420 C2430 0.930 . S
H2421 C2431 0.930 . S
C2422 H2416 0.930 . S
C2422 C2423 1.355 . S
C2422 C2424 1.415 . S
C2423 C2422 1.355 . S
C2423 C2425 1.419 . S
C2424 C2422 1.415 . S
C2424 C2429 1.425 . S
C2424 C2431 1.409 . S
C2425 H2417 0.930 . S
C2425 C2423 1.419 . S
C2425 C2426 1.362 . S
C2426 H2418 0.930 . S
C2426 C2425 1.362 . S
C2426 C2429 1.409 . S
C2427 H2419 0.930 . S
C2427 C2428 1.355 . S
C2427 C2429 1.415 . S
C2428 C2427 1.355 . S
C2428 C2430 1.419 . S
C2429 C2424 1.425 . S
C2429 C2426 1.409 . S
C2429 C2427 1.415 . S
C2430 H2420 0.930 . S
C2430 C2428 1.419 . S
C2430 C2431 1.362 . S
C2431 H2421 0.930 . S
C2431 C2424 1.409 . S
C2431 C2430 1.362 . S
H2432 C2438 0.930 . S
H2433 C2441 0.930 . S
H2434 C2442 0.930 . S
H2435 C2443 0.930 . S
H2436 C2446 0.930 . S
H2437 C2447 0.930 . S
C2438 H2432 0.930 . S
C2438 C2439 1.355 . S
C2438 C2440 1.415 . S
C2439 C2438 1.355 . S
C2439 C2441 1.419 . S
C2440 C2438 1.415 . S
C2440 C2445 1.425 . S
C2440 C2447 1.409 . S
C2441 H2433 0.930 . S
C2441 C2439 1.419 . S
C2441 C2442 1.362 . S
C2442 H2434 0.930 . S
C2442 C2441 1.362 . S
C2442 C2445 1.409 . S
C2443 H2435 0.930 . S
C2443 C2444 1.355 . S
C2443 C2445 1.415 . S
C2444 C2443 1.355 . S
C2444 C2446 1.419 . S
C2445 C2440 1.425 . S
C2445 C2442 1.409 . S
C2445 C2443 1.415 . S
C2446 H2436 0.930 . S
C2446 C2444 1.419 . S
C2446 C2447 1.362 . S
C2447 H2437 0.930 . S
C2447 C2440 1.409 . S
C2447 C2446 1.362 . S
H2448 C2454 0.930 . S
H2449 C2457 0.930 . S
H2450 C2458 0.930 1_655 S
H2451 C2459 0.930 . S
H2452 C2462 0.930 . S
H2453 C2463 0.930 . S
C2454 H2448 0.930 . S
C2454 C2455 1.355 . S
C2454 C2456 1.415 . S
C2455 C2454 1.355 . S
C2455 C2457 1.419 . S
C2456 C2454 1.415 . S
C2456 C2461 1.425 . S
C2456 C2463 1.409 . S
C2457 H2449 0.930 . S
C2457 C2455 1.419 . S
C2457 C2458 1.362 . S
C2458 H2450 0.930 1_455 S
C2458 C2457 1.362 . S
C2458 C2461 1.409 . S
C2459 H2451 0.930 . S
C2459 C2460 1.355 . S
C2459 C2461 1.415 1_655 S
C2460 C2459 1.355 . S
C2460 C2462 1.419 1_655 S
C2461 C2456 1.425 . S
C2461 C2458 1.409 . S
C2461 C2459 1.415 1_455 S
C2462 H2452 0.930 . S
C2462 C2460 1.419 1_455 S
C2462 C2463 1.362 . S
C2463 H2453 0.930 . S
C2463 C2456 1.409 . S
C2463 C2462 1.362 . S
H2464 C2470 0.930 . S
H2465 C2473 0.930 . S
H2466 C2474 0.930 . S
H2467 C2475 0.930 . S
H2468 C2478 0.930 . S
H2469 C2479 0.930 . S
C2470 H2464 0.930 . S
C2470 C2471 1.355 . S
C2470 C2472 1.415 . S
C2471 C2470 1.355 . S
C2471 C2473 1.419 . S
C2472 C2470 1.415 . S
C2472 C2477 1.425 . S
C2472 C2479 1.409 . S
C2473 H2465 0.930 . S
C2473 C2471 1.419 . S
C2473 C2474 1.362 . S
C2474 H2466 0.930 . S
C2474 C2473 1.362 . S
C2474 C2477 1.409 . S
C2475 H2467 0.930 . S
C2475 C2476 1.355 . S
C2475 C2477 1.415 . S
C2476 C2475 1.355 . S
C2476 C2478 1.419 . S
C2477 C2472 1.425 . S
C2477 C2474 1.409 . S
C2477 C2475 1.415 . S
C2478 H2468 0.930 . S
C2478 C2476 1.419 . S
C2478 C2479 1.362 . S
C2479 H2469 0.930 . S
C2479 C2472 1.409 . S
C2479 C2478 1.362 . S
H2480 C2486 0.930 . S
H2481 C2489 0.930 . S
H2482 C2490 0.930 . S
H2483 C2491 0.930 . S
H2484 C2494 0.930 . S
H2485 C2495 0.930 . S
C2486 H2480 0.930 . S
C2486 C2487 1.355 . S
C2486 C2488 1.415 . S
C2487 C2486 1.355 . S
C2487 C2489 1.419 . S
C2488 C2486 1.415 . S
C2488 C2493 1.425 . S
C2488 C2495 1.409 1_545 S
C2489 H2481 0.930 . S
C2489 C2487 1.419 . S
C2489 C2490 1.362 . S
C2490 H2482 0.930 . S
C2490 C2489 1.362 . S
C2490 C2493 1.409 . S
C2491 H2483 0.930 . S
C2491 C2492 1.355 . S
C2491 C2493 1.415 1_565 S
C2492 C2491 1.355 . S
C2492 C2494 1.419 . S
C2493 C2488 1.425 . S
C2493 C2490 1.409 . S
C2493 C2491 1.415 1_545 S
C2494 H2484 0.930 . S
C2494 C2492 1.419 . S
C2494 C2495 1.362 . S
C2495 H2485 0.930 . S
C2495 C2488 1.409 1_565 S
C2495 C2494 1.362 . S
H2496 C2502 0.930 . S
H2497 C2505 0.930 . S
H2498 C2506 0.930 . S
H2499 C2507 0.930 . S
H2500 C2510 0.930 . S
H2501 C2511 0.930 1_565 S
C2502 H2496 0.930 . S
C2502 C2503 1.355 . S
C2502 C2504 1.415 . S
C2503 C2502 1.355 . S
C2503 C2505 1.419 . S
C2504 C2502 1.415 . S
C2504 C2509 1.425 1_565 S
C2504 C2511 1.409 1_565 S
C2505 H2497 0.930 . S
C2505 C2503 1.419 . S
C2505 C2506 1.362 1_565 S
C2506 H2498 0.930 . S
C2506 C2505 1.362 1_545 S
C2506 C2509 1.409 . S
C2507 H2499 0.930 . S
C2507 C2508 1.355 . S
C2507 C2509 1.415 . S
C2508 C2507 1.355 . S
C2508 C2510 1.419 . S
C2509 C2504 1.425 1_545 S
C2509 C2506 1.409 . S
C2509 C2507 1.415 . S
C2510 H2500 0.930 . S
C2510 C2508 1.419 . S
C2510 C2511 1.362 . S
C2511 H2501 0.930 1_545 S
C2511 C2504 1.409 1_545 S
C2511 C2510 1.362 . S
H2512 C2518 0.930 . S
H2513 C2521 0.930 . S
H2514 C2522 0.930 . S
H2515 C2523 0.929 1_655 S
H2516 C2526 0.930 . S
H2517 C2527 0.930 . S
C2518 H2512 0.930 . S
C2518 C2519 1.355 . S
C2518 C2520 1.415 . S
C2519 C2518 1.355 . S
C2519 C2521 1.419 . S
C2520 C2518 1.415 . S
C2520 C2525 1.425 . S
C2520 C2527 1.409 . S
C2521 H2513 0.930 . S
C2521 C2519 1.419 . S
C2521 C2522 1.362 . S
C2522 H2514 0.930 . S
C2522 C2521 1.362 . S
C2522 C2525 1.409 . S
C2523 H2515 0.929 1_455 S
C2523 C2524 1.355 1_455 S
C2523 C2525 1.415 . S
C2524 C2523 1.355 1_655 S
C2524 C2526 1.419 1_655 S
C2525 C2520 1.425 . S
C2525 C2522 1.409 . S
C2525 C2523 1.415 . S
C2526 H2516 0.930 . S
C2526 C2524 1.419 1_455 S
C2526 C2527 1.362 . S
C2527 H2517 0.930 . S
C2527 C2520 1.409 . S
C2527 C2526 1.362 . S
H2528 C2534 0.930 . S
H2529 C2537 0.930 . S
H2530 C2538 0.930 . S
H2531 C2539 0.930 . S
H2532 C2542 0.930 . S
H2533 C2543 0.930 . S
C2534 H2528 0.930 . S
C2534 C2535 1.355 . S
C2534 C2536 1.415 . S
C2535 C2534 1.355 . S
C2535 C2537 1.419 . S
C2536 C2534 1.415 . S
C2536 C2541 1.425 . S
C2536 C2543 1.409 . S
C2537 H2529 0.930 . S
C2537 C2535 1.419 . S
C2537 C2538 1.362 . S
C2538 H2530 0.930 . S
C2538 C2537 1.362 . S
C2538 C2541 1.409 . S
C2539 H2531 0.930 . S
C2539 C2540 1.355 . S
C2539 C2541 1.415 . S
C2540 C2539 1.355 . S
C2540 C2542 1.419 . S
C2541 C2536 1.425 . S
C2541 C2538 1.409 . S
C2541 C2539 1.415 . S
C2542 H2532 0.930 . S
C2542 C2540 1.419 . S
C2542 C2543 1.362 . S
C2543 H2533 0.930 . S
C2543 C2536 1.409 . S
C2543 C2542 1.362 . S
H2544 C2550 0.930 . S
H2545 C2553 0.930 . S
H2546 C2554 0.930 . S
H2547 C2555 0.930 . S
H2548 C2558 0.930 . S
H2549 C2559 0.930 . S
C2550 H2544 0.930 . S
C2550 C2551 1.355 . S
C2550 C2552 1.415 . S
C2551 C2550 1.355 . S
C2551 C2553 1.419 . S
C2552 C2550 1.415 . S
C2552 C2557 1.425 . S
C2552 C2559 1.409 . S
C2553 H2545 0.930 . S
C2553 C2551 1.419 . S
C2553 C2554 1.362 . S
C2554 H2546 0.930 . S
C2554 C2553 1.362 . S
C2554 C2557 1.409 . S
C2555 H2547 0.930 . S
C2555 C2556 1.355 . S
C2555 C2557 1.415 . S
C2556 C2555 1.355 . S
C2556 C2558 1.419 . S
C2557 C2552 1.425 . S
C2557 C2554 1.409 . S
C2557 C2555 1.415 . S
C2558 H2548 0.930 . S
C2558 C2556 1.419 . S
C2558 C2559 1.362 . S
C2559 H2549 0.930 . S
C2559 C2552 1.409 . S
C2559 C2558 1.362 . S
H2560 C2566 0.930 . S
H2561 C2569 0.930 . S
H2562 C2570 0.930 . S
H2563 C2571 0.930 . S
H2564 C2574 0.930 . S
H2565 C2575 0.930 . S
C2566 H2560 0.930 . S
C2566 C2567 1.355 . S
C2566 C2568 1.415 . S
C2567 C2566 1.355 . S
C2567 C2569 1.419 . S
C2568 C2566 1.415 . S
C2568 C2573 1.425 . S
C2568 C2575 1.409 . S
C2569 H2561 0.930 . S
C2569 C2567 1.419 . S
C2569 C2570 1.362 . S
C2570 H2562 0.930 . S
C2570 C2569 1.362 . S
C2570 C2573 1.409 . S
C2571 H2563 0.930 . S
C2571 C2572 1.355 . S
C2571 C2573 1.415 . S
C2572 C2571 1.355 . S
C2572 C2574 1.419 . S
C2573 C2568 1.425 . S
C2573 C2570 1.409 . S
C2573 C2571 1.415 . S
C2574 H2564 0.930 . S
C2574 C2572 1.419 . S
C2574 C2575 1.362 . S
C2575 H2565 0.930 . S
C2575 C2568 1.409 . S
C2575 C2574 1.362 . S
H2576 C2582 0.930 . S
H2577 C2585 0.930 . S
H2578 C2586 0.930 . S
H2579 C2587 0.930 . S
H2580 C2590 0.930 . S
H2581 C2591 0.930 . S
C2582 H2576 0.930 . S
C2582 C2583 1.355 . S
C2582 C2584 1.415 . S
C2583 C2582 1.355 . S
C2583 C2585 1.419 . S
C2584 C2582 1.415 . S
C2584 C2589 1.425 . S
C2584 C2591 1.409 . S
C2585 H2577 0.930 . S
C2585 C2583 1.419 . S
C2585 C2586 1.362 . S
C2586 H2578 0.930 . S
C2586 C2585 1.362 . S
C2586 C2589 1.409 . S
C2587 H2579 0.930 . S
C2587 C2588 1.355 . S
C2587 C2589 1.415 . S
C2588 C2587 1.355 . S
C2588 C2590 1.419 . S
C2589 C2584 1.425 . S
C2589 C2586 1.409 . S
C2589 C2587 1.415 . S
C2590 H2580 0.930 . S
C2590 C2588 1.419 . S
C2590 C2591 1.362 . S
C2591 H2581 0.930 . S
C2591 C2584 1.409 . S
C2591 C2590 1.362 . S
H2592 C2598 0.930 . S
H2593 C2601 0.930 . S
H2594 C2602 0.930 . S
H2595 C2603 0.930 . S
H2596 C2606 0.930 . S
H2597 C2607 0.930 . S
C2598 H2592 0.930 . S
C2598 C2599 1.355 . S
C2598 C2600 1.415 . S
C2599 C2598 1.355 . S
C2599 C2601 1.419 . S
C2600 C2598 1.415 . S
C2600 C2605 1.425 . S
C2600 C2607 1.409 . S
C2601 H2593 0.930 . S
C2601 C2599 1.419 . S
C2601 C2602 1.362 . S
C2602 H2594 0.930 . S
C2602 C2601 1.362 . S
C2602 C2605 1.409 . S
C2603 H2595 0.930 . S
C2603 C2604 1.355 . S
C2603 C2605 1.415 . S
C2604 C2603 1.355 . S
C2604 C2606 1.419 . S
C2605 C2600 1.425 . S
C2605 C2602 1.409 . S
C2605 C2603 1.415 . S
C2606 H2596 0.930 . S
C2606 C2604 1.419 . S
C2606 C2607 1.362 . S
C2607 H2597 0.930 . S
C2607 C2600 1.409 . S
C2607 C2606 1.362 . S
H2608 C2614 0.930 . S
H2609 C2617 0.930 . S
H2610 C2618 0.930 . S
H2611 C2619 0.930 . S
H2612 C2622 0.930 . S
H2613 C2623 0.930 . S
C2614 H2608 0.930 . S
C2614 C2615 1.355 . S
C2614 C2616 1.415 . S
C2615 C2614 1.355 . S
C2615 C2617 1.419 . S
C2616 C2614 1.415 . S
C2616 C2621 1.425 . S
C2616 C2623 1.409 . S
C2617 H2609 0.930 . S
C2617 C2615 1.419 . S
C2617 C2618 1.362 . S
C2618 H2610 0.930 . S
C2618 C2617 1.362 . S
C2618 C2621 1.409 . S
C2619 H2611 0.930 . S
C2619 C2620 1.355 . S
C2619 C2621 1.415 . S
C2620 C2619 1.355 . S
C2620 C2622 1.419 . S
C2621 C2616 1.425 . S
C2621 C2618 1.409 . S
C2621 C2619 1.415 . S
C2622 H2612 0.930 . S
C2622 C2620 1.419 . S
C2622 C2623 1.362 . S
C2623 H2613 0.930 . S
C2623 C2616 1.409 . S
C2623 C2622 1.362 . S
H2624 C2630 0.930 . S
H2625 C2633 0.930 . S
H2626 C2634 0.930 . S
H2627 C2635 0.930 . S
H2628 C2638 0.930 . S
H2629 C2639 0.930 . S
C2630 H2624 0.930 . S
C2630 C2631 1.355 . S
C2630 C2632 1.415 . S
C2631 C2630 1.355 . S
C2631 C2633 1.419 . S
C2632 C2630 1.415 . S
C2632 C2637 1.425 . S
C2632 C2639 1.409 . S
C2633 H2625 0.930 . S
C2633 C2631 1.419 . S
C2633 C2634 1.362 . S
C2634 H2626 0.930 . S
C2634 C2633 1.362 . S
C2634 C2637 1.409 . S
C2635 H2627 0.930 . S
C2635 C2636 1.355 . S
C2635 C2637 1.415 . S
C2636 C2635 1.355 . S
C2636 C2638 1.419 . S
C2637 C2632 1.425 . S
C2637 C2634 1.409 . S
C2637 C2635 1.415 . S
C2638 H2628 0.930 . S
C2638 C2636 1.419 . S
C2638 C2639 1.362 . S
C2639 H2629 0.930 . S
C2639 C2632 1.409 . S
C2639 C2638 1.362 . S
H2640 C2646 0.930 . S
H2641 C2649 0.930 . S
H2642 C2650 0.930 . S
H2643 C2651 0.930 . S
H2644 C2654 0.930 . S
H2645 C2655 0.930 . S
C2646 H2640 0.930 . S
C2646 C2647 1.355 . S
C2646 C2648 1.415 . S
C2647 C2646 1.355 . S
C2647 C2649 1.419 . S
C2648 C2646 1.415 . S
C2648 C2653 1.425 . S
C2648 C2655 1.409 . S
C2649 H2641 0.930 . S
C2649 C2647 1.419 . S
C2649 C2650 1.362 . S
C2650 H2642 0.930 . S
C2650 C2649 1.362 . S
C2650 C2653 1.409 . S
C2651 H2643 0.930 . S
C2651 C2652 1.355 . S
C2651 C2653 1.415 . S
C2652 C2651 1.355 . S
C2652 C2654 1.419 . S
C2653 C2648 1.425 . S
C2653 C2650 1.409 . S
C2653 C2651 1.415 . S
C2654 H2644 0.930 . S
C2654 C2652 1.419 . S
C2654 C2655 1.362 . S
C2655 H2645 0.930 . S
C2655 C2648 1.409 . S
C2655 C2654 1.362 . S
H2656 C2662 0.930 . S
H2657 C2665 0.930 . S
H2658 C2666 0.930 . S
H2659 C2667 0.930 . S
H2660 C2670 0.930 . S
H2661 C2671 0.930 . S
C2662 H2656 0.930 . S
C2662 C2663 1.355 . S
C2662 C2664 1.415 . S
C2663 C2662 1.355 . S
C2663 C2665 1.419 . S
C2664 C2662 1.415 . S
C2664 C2669 1.425 . S
C2664 C2671 1.409 . S
C2665 H2657 0.930 . S
C2665 C2663 1.419 . S
C2665 C2666 1.362 . S
C2666 H2658 0.930 . S
C2666 C2665 1.362 . S
C2666 C2669 1.409 . S
C2667 H2659 0.930 . S
C2667 C2668 1.355 . S
C2667 C2669 1.415 . S
C2668 C2667 1.355 . S
C2668 C2670 1.419 . S
C2669 C2664 1.425 . S
C2669 C2666 1.409 . S
C2669 C2667 1.415 . S
C2670 H2660 0.930 . S
C2670 C2668 1.419 . S
C2670 C2671 1.362 . S
C2671 H2661 0.930 . S
C2671 C2664 1.409 . S
C2671 C2670 1.362 . S
H2672 C2678 0.930 . S
H2673 C2681 0.930 . S
H2674 C2682 0.930 . S
H2675 C2683 0.930 . S
H2676 C2686 0.930 . S
H2677 C2687 0.930 . S
C2678 H2672 0.930 . S
C2678 C2679 1.355 . S
C2678 C2680 1.415 . S
C2679 C2678 1.355 . S
C2679 C2681 1.419 . S
C2680 C2678 1.415 . S
C2680 C2685 1.425 . S
C2680 C2687 1.409 . S
C2681 H2673 0.930 . S
C2681 C2679 1.419 . S
C2681 C2682 1.362 . S
C2682 H2674 0.930 . S
C2682 C2681 1.362 . S
C2682 C2685 1.409 . S
C2683 H2675 0.930 . S
C2683 C2684 1.355 . S
C2683 C2685 1.415 . S
C2684 C2683 1.355 . S
C2684 C2686 1.419 . S
C2685 C2680 1.425 . S
C2685 C2682 1.409 . S
C2685 C2683 1.415 . S
C2686 H2676 0.930 . S
C2686 C2684 1.419 . S
C2686 C2687 1.362 . S
C2687 H2677 0.930 . S
C2687 C2680 1.409 . S
C2687 C2686 1.362 . S
H2688 C2694 0.930 . S
H2689 C2697 0.930 . S
H2690 C2698 0.930 . S
H2691 C2699 0.930 . S
H2692 C2702 0.930 . S
H2693 C2703 0.930 . S
C2694 H2688 0.930 . S
C2694 C2695 1.355 . S
C2694 C2696 1.415 . S
C2695 C2694 1.355 . S
C2695 C2697 1.419 . S
C2696 C2694 1.415 . S
C2696 C2701 1.425 . S
C2696 C2703 1.409 . S
C2697 H2689 0.930 . S
C2697 C2695 1.419 . S
C2697 C2698 1.362 . S
C2698 H2690 0.930 . S
C2698 C2697 1.362 . S
C2698 C2701 1.409 . S
C2699 H2691 0.930 . S
C2699 C2700 1.355 . S
C2699 C2701 1.415 . S
C2700 C2699 1.355 . S
C2700 C2702 1.419 . S
C2701 C2696 1.425 . S
C2701 C2698 1.409 . S
C2701 C2699 1.415 . S
C2702 H2692 0.930 . S
C2702 C2700 1.419 . S
C2702 C2703 1.362 . S
C2703 H2693 0.930 . S
C2703 C2696 1.409 . S
C2703 C2702 1.362 . S
H2704 C2710 0.930 . S
H2705 C2713 0.930 . S
H2706 C2714 0.930 . S
H2707 C2715 0.930 . S
H2708 C2718 0.930 . S
H2709 C2719 0.930 . S
C2710 H2704 0.930 . S
C2710 C2711 1.355 . S
C2710 C2712 1.415 . S
C2711 C2710 1.355 . S
C2711 C2713 1.419 . S
C2712 C2710 1.415 . S
C2712 C2717 1.425 . S
C2712 C2719 1.409 . S
C2713 H2705 0.930 . S
C2713 C2711 1.419 . S
C2713 C2714 1.362 . S
C2714 H2706 0.930 . S
C2714 C2713 1.362 . S
C2714 C2717 1.409 . S
C2715 H2707 0.930 . S
C2715 C2716 1.355 . S
C2715 C2717 1.415 . S
C2716 C2715 1.355 . S
C2716 C2718 1.419 . S
C2717 C2712 1.425 . S
C2717 C2714 1.409 . S
C2717 C2715 1.415 . S
C2718 H2708 0.930 . S
C2718 C2716 1.419 . S
C2718 C2719 1.362 . S
C2719 H2709 0.930 . S
C2719 C2712 1.409 . S
C2719 C2718 1.362 . S
H2720 C2726 0.930 . S
H2721 C2729 0.930 . S
H2722 C2730 0.930 . S
H2723 C2731 0.930 . S
H2724 C2734 0.930 . S
H2725 C2735 0.930 . S
C2726 H2720 0.930 . S
C2726 C2727 1.355 . S
C2726 C2728 1.415 . S
C2727 C2726 1.355 . S
C2727 C2729 1.419 . S
C2728 C2726 1.415 . S
C2728 C2733 1.425 . S
C2728 C2735 1.409 . S
C2729 H2721 0.930 . S
C2729 C2727 1.419 . S
C2729 C2730 1.362 . S
C2730 H2722 0.930 . S
C2730 C2729 1.362 . S
C2730 C2733 1.409 . S
C2731 H2723 0.930 . S
C2731 C2732 1.355 . S
C2731 C2733 1.415 . S
C2732 C2731 1.355 . S
C2732 C2734 1.419 . S
C2733 C2728 1.425 . S
C2733 C2730 1.409 . S
C2733 C2731 1.415 . S
C2734 H2724 0.930 . S
C2734 C2732 1.419 . S
C2734 C2735 1.362 . S
C2735 H2725 0.930 . S
C2735 C2728 1.409 . S
C2735 C2734 1.362 . S
H2736 C2742 0.930 . S
H2737 C2745 0.930 . S
H2738 C2746 0.930 . S
H2739 C2747 0.930 . S
H2740 C2750 0.930 . S
H2741 C2751 0.930 . S
C2742 H2736 0.930 . S
C2742 C2743 1.355 . S
C2742 C2744 1.415 . S
C2743 C2742 1.355 . S
C2743 C2745 1.419 . S
C2744 C2742 1.415 . S
C2744 C2749 1.425 . S
C2744 C2751 1.409 . S
C2745 H2737 0.930 . S
C2745 C2743 1.419 . S
C2745 C2746 1.362 . S
C2746 H2738 0.930 . S
C2746 C2745 1.362 . S
C2746 C2749 1.409 . S
C2747 H2739 0.930 . S
C2747 C2748 1.355 . S
C2747 C2749 1.415 . S
C2748 C2747 1.355 . S
C2748 C2750 1.419 . S
C2749 C2744 1.425 . S
C2749 C2746 1.409 . S
C2749 C2747 1.415 . S
C2750 H2740 0.930 . S
C2750 C2748 1.419 . S
C2750 C2751 1.362 . S
C2751 H2741 0.930 . S
C2751 C2744 1.409 . S
C2751 C2750 1.362 . S
H2752 C2758 0.930 . S
H2753 C2761 0.930 . S
H2754 C2762 0.930 . S
H2755 C2763 0.930 . S
H2756 C2766 0.930 . S
H2757 C2767 0.930 . S
C2758 H2752 0.930 . S
C2758 C2759 1.355 . S
C2758 C2760 1.415 . S
C2759 C2758 1.355 . S
C2759 C2761 1.419 . S
C2760 C2758 1.415 . S
C2760 C2765 1.425 . S
C2760 C2767 1.409 . S
C2761 H2753 0.930 . S
C2761 C2759 1.419 . S
C2761 C2762 1.362 . S
C2762 H2754 0.930 . S
C2762 C2761 1.362 . S
C2762 C2765 1.409 . S
C2763 H2755 0.930 . S
C2763 C2764 1.355 . S
C2763 C2765 1.415 . S
C2764 C2763 1.355 . S
C2764 C2766 1.419 . S
C2765 C2760 1.425 . S
C2765 C2762 1.409 . S
C2765 C2763 1.415 . S
C2766 H2756 0.930 . S
C2766 C2764 1.419 . S
C2766 C2767 1.362 . S
C2767 H2757 0.930 . S
C2767 C2760 1.409 . S
C2767 C2766 1.362 . S
H2768 C2774 0.930 . S
H2769 C2777 0.930 . S
H2770 C2778 0.930 . S
H2771 C2779 0.930 . S
H2772 C2782 0.930 . S
H2773 C2783 0.930 . S
C2774 H2768 0.930 . S
C2774 C2775 1.355 . S
C2774 C2776 1.415 . S
C2775 C2774 1.355 . S
C2775 C2777 1.419 . S
C2776 C2774 1.415 . S
C2776 C2781 1.425 . S
C2776 C2783 1.409 . S
C2777 H2769 0.930 . S
C2777 C2775 1.419 . S
C2777 C2778 1.362 . S
C2778 H2770 0.930 . S
C2778 C2777 1.362 . S
C2778 C2781 1.409 . S
C2779 H2771 0.930 . S
C2779 C2780 1.355 . S
C2779 C2781 1.415 . S
C2780 C2779 1.355 . S
C2780 C2782 1.419 . S
C2781 C2776 1.425 . S
C2781 C2778 1.409 . S
C2781 C2779 1.415 . S
C2782 H2772 0.930 . S
C2782 C2780 1.419 . S
C2782 C2783 1.362 . S
C2783 H2773 0.930 . S
C2783 C2776 1.409 . S
C2783 C2782 1.362 . S
H2784 C2790 0.930 . S
H2785 C2793 0.930 . S
H2786 C2794 0.930 . S
H2787 C2795 0.930 . S
H2788 C2798 0.930 . S
H2789 C2799 0.930 . S
C2790 H2784 0.930 . S
C2790 C2791 1.355 . S
C2790 C2792 1.415 . S
C2791 C2790 1.355 . S
C2791 C2793 1.419 . S
C2792 C2790 1.415 . S
C2792 C2797 1.425 . S
C2792 C2799 1.409 . S
C2793 H2785 0.930 . S
C2793 C2791 1.419 . S
C2793 C2794 1.362 . S
C2794 H2786 0.930 . S
C2794 C2793 1.362 . S
C2794 C2797 1.409 . S
C2795 H2787 0.930 . S
C2795 C2796 1.355 . S
C2795 C2797 1.415 . S
C2796 C2795 1.355 . S
C2796 C2798 1.419 . S
C2797 C2792 1.425 . S
C2797 C2794 1.409 . S
C2797 C2795 1.415 . S
C2798 H2788 0.930 . S
C2798 C2796 1.419 . S
C2798 C2799 1.362 . S
C2799 H2789 0.930 . S
C2799 C2792 1.409 . S
C2799 C2798 1.362 . S
H2800 C2806 0.930 . S
H2801 C2809 0.930 . S
H2802 C2810 0.930 . S
H2803 C2811 0.930 . S
H2804 C2814 0.930 . S
H2805 C2815 0.930 . S
C2806 H2800 0.930 . S
C2806 C2807 1.355 . S
C2806 C2808 1.415 . S
C2807 C2806 1.355 . S
C2807 C2809 1.419 . S
C2808 C2806 1.415 . S
C2808 C2813 1.425 . S
C2808 C2815 1.409 . S
C2809 H2801 0.930 . S
C2809 C2807 1.419 . S
C2809 C2810 1.362 . S
C2810 H2802 0.930 . S
C2810 C2809 1.362 . S
C2810 C2813 1.409 . S
C2811 H2803 0.930 . S
C2811 C2812 1.355 . S
C2811 C2813 1.415 . S
C2812 C2811 1.355 . S
C2812 C2814 1.419 . S
C2813 C2808 1.425 . S
C2813 C2810 1.409 . S
C2813 C2811 1.415 . S
C2814 H2804 0.930 . S
C2814 C2812 1.419 . S
C2814 C2815 1.362 . S
C2815 H2805 0.930 . S
C2815 C2808 1.409 . S
C2815 C2814 1.362 . S
H2816 C2822 0.930 . S
H2817 C2825 0.930 . S
H2818 C2826 0.930 . S
H2819 C2827 0.930 . S
H2820 C2830 0.930 . S
H2821 C2831 0.930 . S
C2822 H2816 0.930 . S
C2822 C2823 1.355 . S
C2822 C2824 1.415 . S
C2823 C2822 1.355 . S
C2823 C2825 1.419 . S
C2824 C2822 1.415 . S
C2824 C2829 1.425 . S
C2824 C2831 1.409 . S
C2825 H2817 0.930 . S
C2825 C2823 1.419 . S
C2825 C2826 1.362 . S
C2826 H2818 0.930 . S
C2826 C2825 1.362 . S
C2826 C2829 1.409 . S
C2827 H2819 0.930 . S
C2827 C2828 1.355 . S
C2827 C2829 1.415 . S
C2828 C2827 1.355 . S
C2828 C2830 1.419 . S
C2829 C2824 1.425 . S
C2829 C2826 1.409 . S
C2829 C2827 1.415 . S
C2830 H2820 0.930 . S
C2830 C2828 1.419 . S
C2830 C2831 1.362 . S
C2831 H2821 0.930 . S
C2831 C2824 1.409 . S
C2831 C2830 1.362 . S
H2832 C2838 0.930 . S
H2833 C2841 0.930 . S
H2834 C2842 0.930 . S
H2835 C2843 0.925 . S
H2836 C2846 0.930 . S
H2837 C2847 0.930 . S
C2838 H2832 0.930 . S
C2838 C2839 1.355 . S
C2838 C2840 1.415 . S
C2839 C2838 1.355 . S
C2839 C2841 1.419 . S
C2840 C2838 1.415 . S
C2840 C2845 1.425 . S
C2840 C2847 1.409 . S
C2841 H2833 0.930 . S
C2841 C2839 1.419 . S
C2841 C2842 1.362 . S
C2842 H2834 0.930 . S
C2842 C2841 1.362 . S
C2842 C2845 1.409 . S
C2843 H2835 0.925 . S
C2843 C2844 1.344 1_455 S
C2843 C2845 1.438 . S
C2844 C2843 1.344 1_655 S
C2844 C2846 1.419 . S
C2845 C2840 1.425 . S
C2845 C2842 1.409 . S
C2845 C2843 1.438 . S
C2846 H2836 0.930 . S
C2846 C2844 1.419 . S
C2846 C2847 1.362 1_655 S
C2847 H2837 0.930 . S
C2847 C2840 1.409 . S
C2847 C2846 1.362 1_455 S
H2848 C2854 0.930 . S
H2849 C2857 0.930 . S
H2850 C2858 0.930 . S
H2851 C2859 0.930 . S
H2852 C2862 0.930 . S
H2853 C2863 0.930 . S
C2854 H2848 0.930 . S
C2854 C2855 1.355 . S
C2854 C2856 1.415 . S
C2855 C2854 1.355 . S
C2855 C2857 1.419 . S
C2856 C2854 1.415 . S
C2856 C2861 1.425 . S
C2856 C2863 1.409 . S
C2857 H2849 0.930 . S
C2857 C2855 1.419 . S
C2857 C2858 1.362 . S
C2858 H2850 0.930 . S
C2858 C2857 1.362 . S
C2858 C2861 1.409 . S
C2859 H2851 0.930 . S
C2859 C2860 1.355 . S
C2859 C2861 1.415 . S
C2860 C2859 1.355 . S
C2860 C2862 1.419 . S
C2861 C2856 1.425 . S
C2861 C2858 1.409 . S
C2861 C2859 1.415 . S
C2862 H2852 0.930 . S
C2862 C2860 1.419 . S
C2862 C2863 1.362 . S
C2863 H2853 0.930 . S
C2863 C2856 1.409 . S
C2863 C2862 1.362 . S
H2864 C2870 0.930 . S
H2865 C2873 0.930 . S
H2866 C2874 0.930 . S
H2867 C2875 0.930 . S
H2868 C2878 0.930 . S
H2869 C2879 0.930 . S
C2870 H2864 0.930 . S
C2870 C2871 1.355 . S
C2870 C2872 1.415 . S
C2871 C2870 1.355 . S
C2871 C2873 1.419 . S
C2872 C2870 1.415 . S
C2872 C2877 1.425 . S
C2872 C2879 1.409 1_545 S
C2873 H2865 0.930 . S
C2873 C2871 1.419 . S
C2873 C2874 1.362 . S
C2874 H2866 0.930 . S
C2874 C2873 1.362 . S
C2874 C2877 1.409 . S
C2875 H2867 0.930 . S
C2875 C2876 1.355 . S
C2875 C2877 1.415 1_565 S
C2876 C2875 1.355 . S
C2876 C2878 1.419 . S
C2877 C2872 1.425 . S
C2877 C2874 1.409 . S
C2877 C2875 1.415 1_545 S
C2878 H2868 0.930 . S
C2878 C2876 1.419 . S
C2878 C2879 1.362 . S
C2879 H2869 0.930 . S
C2879 C2872 1.409 1_565 S
C2879 C2878 1.362 . S
H2880 C2886 0.930 . S
H2881 C2889 0.930 . S
H2882 C2890 0.930 1_545 S
H2883 C2891 0.930 . S
H2884 C2894 0.930 . S
H2885 C2895 0.930 . S
C2886 H2880 0.930 . S
C2886 C2887 1.355 . S
C2886 C2888 1.397 1_565 S
C2887 C2886 1.355 . S
C2887 C2889 1.419 . S
C2888 C2886 1.397 1_545 S
C2888 C2893 1.426 . S
C2888 C2895 1.426 . S
C2889 H2881 0.930 . S
C2889 C2887 1.419 . S
C2889 C2890 1.362 . S
C2890 H2882 0.930 1_565 S
C2890 C2889 1.362 . S
C2890 C2893 1.409 1_565 S
C2891 H2883 0.930 . S
C2891 C2892 1.355 . S
C2891 C2893 1.415 . S
C2892 C2891 1.355 . S
C2892 C2894 1.419 . S
C2893 C2888 1.426 . S
C2893 C2890 1.409 1_545 S
C2893 C2891 1.415 . S
C2894 H2884 0.930 . S
C2894 C2892 1.419 . S
C2894 C2895 1.362 . S
C2895 H2885 0.930 . S
C2895 C2888 1.426 . S
C2895 C2894 1.362 . S
H2896 C2902 0.930 . S
H2897 C2905 0.930 . S
H2898 C2906 0.930 . S
H2899 C2907 0.930 . S
H2900 C2910 0.930 . S
H2901 C2911 0.930 . S
C2902 H2896 0.930 . S
C2902 C2903 1.355 . S
C2902 C2904 1.415 . S
C2903 C2902 1.355 . S
C2903 C2905 1.419 . S
C2904 C2902 1.415 . S
C2904 C2909 1.425 . S
C2904 C2911 1.409 . S
C2905 H2897 0.930 . S
C2905 C2903 1.419 . S
C2905 C2906 1.362 . S
C2906 H2898 0.930 . S
C2906 C2905 1.362 . S
C2906 C2909 1.409 . S
C2907 H2899 0.930 . S
C2907 C2908 1.355 . S
C2907 C2909 1.415 1_655 S
C2908 C2907 1.355 . S
C2908 C2910 1.419 . S
C2909 C2904 1.425 . S
C2909 C2906 1.409 . S
C2909 C2907 1.415 1_455 S
C2910 H2900 0.930 . S
C2910 C2908 1.419 . S
C2910 C2911 1.362 1_655 S
C2911 H2901 0.930 . S
C2911 C2904 1.409 . S
C2911 C2910 1.362 1_455 S
H2912 C2918 0.930 . S
H2913 C2921 0.930 . S
H2914 C2922 0.930 . S
H2915 C2923 0.930 . S
H2916 C2926 0.930 . S
H2917 C2927 0.930 . S
C2918 H2912 0.930 . S
C2918 C2919 1.355 . S
C2918 C2920 1.415 . S
C2919 C2918 1.355 . S
C2919 C2921 1.419 . S
C2920 C2918 1.415 . S
C2920 C2925 1.425 . S
C2920 C2927 1.409 . S
C2921 H2913 0.930 . S
C2921 C2919 1.419 . S
C2921 C2922 1.362 . S
C2922 H2914 0.930 . S
C2922 C2921 1.362 . S
C2922 C2925 1.409 . S
C2923 H2915 0.930 . S
C2923 C2924 1.355 . S
C2923 C2925 1.415 . S
C2924 C2923 1.355 . S
C2924 C2926 1.419 . S
C2925 C2920 1.425 . S
C2925 C2922 1.409 . S
C2925 C2923 1.415 . S
C2926 H2916 0.930 . S
C2926 C2924 1.419 . S
C2926 C2927 1.362 . S
C2927 H2917 0.930 . S
C2927 C2920 1.409 . S
C2927 C2926 1.362 . S
H2928 C2934 0.930 . S
H2929 C2937 0.930 . S
H2930 C2938 0.930 . S
H2931 C2939 0.930 . S
H2932 C2942 0.930 . S
H2933 C2943 0.930 . S
C2934 H2928 0.930 . S
C2934 C2935 1.355 . S
C2934 C2936 1.415 . S
C2935 C2934 1.355 . S
C2935 C2937 1.419 . S
C2936 C2934 1.415 . S
C2936 C2941 1.425 . S
C2936 C2943 1.409 . S
C2937 H2929 0.930 . S
C2937 C2935 1.419 . S
C2937 C2938 1.362 . S
C2938 H2930 0.930 . S
C2938 C2937 1.362 . S
C2938 C2941 1.409 . S
C2939 H2931 0.930 . S
C2939 C2940 1.355 . S
C2939 C2941 1.415 . S
C2940 C2939 1.355 . S
C2940 C2942 1.419 . S
C2941 C2936 1.425 . S
C2941 C2938 1.409 . S
C2941 C2939 1.415 . S
C2942 H2932 0.930 . S
C2942 C2940 1.419 . S
C2942 C2943 1.362 . S
C2943 H2933 0.930 . S
C2943 C2936 1.409 . S
C2943 C2942 1.362 . S
H2944 C2950 0.930 . S
H2945 C2953 0.930 . S
H2946 C2954 0.930 . S
H2947 C2955 0.930 . S
H2948 C2958 0.930 . S
H2949 C2959 0.930 . S
C2950 H2944 0.930 . S
C2950 C2951 1.355 . S
C2950 C2952 1.415 . S
C2951 C2950 1.355 . S
C2951 C2953 1.419 . S
C2952 C2950 1.415 . S
C2952 C2957 1.425 . S
C2952 C2959 1.409 . S
C2953 H2945 0.930 . S
C2953 C2951 1.419 . S
C2953 C2954 1.362 . S
C2954 H2946 0.930 . S
C2954 C2953 1.362 . S
C2954 C2957 1.409 . S
C2955 H2947 0.930 . S
C2955 C2956 1.355 . S
C2955 C2957 1.415 . S
C2956 C2955 1.355 . S
C2956 C2958 1.419 . S
C2957 C2952 1.425 . S
C2957 C2954 1.409 . S
C2957 C2955 1.415 . S
C2958 H2948 0.930 . S
C2958 C2956 1.419 . S
C2958 C2959 1.362 . S
C2959 H2949 0.930 . S
C2959 C2952 1.409 . S
C2959 C2958 1.362 . S
H2960 C2966 0.930 . S
H2961 C2969 0.930 . S
H2962 C2970 0.930 . S
H2963 C2971 0.930 . S
H2964 C2974 0.930 . S
H2965 C2975 0.930 . S
C2966 H2960 0.930 . S
C2966 C2967 1.355 . S
C2966 C2968 1.415 . S
C2967 C2966 1.355 . S
C2967 C2969 1.419 . S
C2968 C2966 1.415 . S
C2968 C2973 1.425 . S
C2968 C2975 1.409 . S
C2969 H2961 0.930 . S
C2969 C2967 1.419 . S
C2969 C2970 1.362 . S
C2970 H2962 0.930 . S
C2970 C2969 1.362 . S
C2970 C2973 1.409 . S
C2971 H2963 0.930 . S
C2971 C2972 1.355 . S
C2971 C2973 1.415 . S
C2972 C2971 1.355 . S
C2972 C2974 1.419 . S
C2973 C2968 1.425 . S
C2973 C2970 1.409 . S
C2973 C2971 1.415 . S
C2974 H2964 0.930 . S
C2974 C2972 1.419 . S
C2974 C2975 1.362 . S
C2975 H2965 0.930 . S
C2975 C2968 1.409 . S
C2975 C2974 1.362 . S
H2976 C2982 0.930 . S
H2977 C2985 0.930 . S
H2978 C2986 0.930 . S
H2979 C2987 0.930 . S
H2980 C2990 0.930 . S
H2981 C2991 0.930 . S
C2982 H2976 0.930 . S
C2982 C2983 1.355 . S
C2982 C2984 1.415 1_565 S
C2983 C2982 1.355 . S
C2983 C2985 1.419 . S
C2984 C2982 1.415 1_545 S
C2984 C2989 1.425 . S
C2984 C2991 1.409 . S
C2985 H2977 0.930 . S
C2985 C2983 1.419 . S
C2985 C2986 1.362 1_565 S
C2986 H2978 0.930 . S
C2986 C2985 1.362 1_545 S
C2986 C2989 1.409 . S
C2987 H2979 0.930 . S
C2987 C2988 1.355 . S
C2987 C2989 1.415 . S
C2988 C2987 1.355 . S
C2988 C2990 1.419 . S
C2989 C2984 1.425 . S
C2989 C2986 1.409 . S
C2989 C2987 1.415 . S
C2990 H2980 0.930 . S
C2990 C2988 1.419 . S
C2990 C2991 1.362 . S
C2991 H2981 0.930 . S
C2991 C2984 1.409 . S
C2991 C2990 1.362 . S
H2992 C2998 0.930 . S
H2993 C3001 0.930 . S
H2994 C3002 0.930 . S
H2995 C3003 0.930 . S
H2996 C3006 0.930 . S
H2997 C3007 0.930 . S
C2998 H2992 0.930 . S
C2998 C2999 1.355 . S
C2998 C3000 1.415 1_655 S
C2999 C2998 1.355 . S
C2999 C3001 1.419 . S
C3000 C2998 1.415 1_455 S
C3000 C3005 1.425 . S
C3000 C3007 1.409 . S
C3001 H2993 0.930 . S
C3001 C2999 1.419 . S
C3001 C3002 1.362 . S
C3002 H2994 0.930 . S
C3002 C3001 1.362 . S
C3002 C3005 1.409 1_655 S
C3003 H2995 0.930 . S
C3003 C3004 1.355 . S
C3003 C3005 1.415 . S
C3004 C3003 1.355 . S
C3004 C3006 1.419 . S
C3005 C3000 1.425 . S
C3005 C3002 1.409 1_455 S
C3005 C3003 1.415 . S
C3006 H2996 0.930 . S
C3006 C3004 1.419 . S
C3006 C3007 1.362 . S
C3007 H2997 0.930 . S
C3007 C3000 1.409 . S
C3007 C3006 1.362 . S
H3008 C3014 0.930 . S
H3009 C3017 0.930 . S
H3010 C3018 0.930 . S
H3011 C3019 0.930 . S
H3012 C3022 0.930 . S
H3013 C3023 0.930 . S
C3014 H3008 0.930 . S
C3014 C3015 1.355 . S
C3014 C3016 1.415 . S
C3015 C3014 1.355 . S
C3015 C3017 1.419 . S
C3016 C3014 1.415 . S
C3016 C3021 1.425 . S
C3016 C3023 1.409 . S
C3017 H3009 0.930 . S
C3017 C3015 1.419 . S
C3017 C3018 1.362 . S
C3018 H3010 0.930 . S
C3018 C3017 1.362 . S
C3018 C3021 1.409 . S
C3019 H3011 0.930 . S
C3019 C3020 1.355 . S
C3019 C3021 1.415 . S
C3020 C3019 1.355 . S
C3020 C3022 1.419 . S
C3021 C3016 1.425 . S
C3021 C3018 1.409 . S
C3021 C3019 1.415 . S
C3022 H3012 0.930 . S
C3022 C3020 1.419 . S
C3022 C3023 1.362 . S
C3023 H3013 0.930 . S
C3023 C3016 1.409 . S
C3023 C3022 1.362 . S
H3024 C3030 0.930 . S
H3025 C3033 0.930 . S
H3026 C3034 0.930 . S
H3027 C3035 0.930 . S
H3028 C3038 0.930 . S
H3029 C3039 0.930 . S
C3030 H3024 0.930 . S
C3030 C3031 1.355 . S
C3030 C3032 1.415 . S
C3031 C3030 1.355 . S
C3031 C3033 1.419 . S
C3032 C3030 1.415 . S
C3032 C3037 1.425 . S
C3032 C3039 1.409 . S
C3033 H3025 0.930 . S
C3033 C3031 1.419 . S
C3033 C3034 1.362 . S
C3034 H3026 0.930 . S
C3034 C3033 1.362 . S
C3034 C3037 1.409 . S
C3035 H3027 0.930 . S
C3035 C3036 1.355 . S
C3035 C3037 1.415 . S
C3036 C3035 1.355 . S
C3036 C3038 1.419 . S
C3037 C3032 1.425 . S
C3037 C3034 1.409 . S
C3037 C3035 1.415 . S
C3038 H3028 0.930 . S
C3038 C3036 1.419 . S
C3038 C3039 1.362 . S
C3039 H3029 0.930 . S
C3039 C3032 1.409 . S
C3039 C3038 1.362 . S
H3040 C3046 0.930 . S
H3041 C3049 0.930 . S
H3042 C3050 0.930 . S
H3043 C3051 0.930 . S
H3044 C3054 0.930 . S
H3045 C3055 0.930 . S
C3046 H3040 0.930 . S
C3046 C3047 1.355 . S
C3046 C3048 1.415 . S
C3047 C3046 1.355 . S
C3047 C3049 1.419 . S
C3048 C3046 1.415 . S
C3048 C3053 1.425 . S
C3048 C3055 1.409 . S
C3049 H3041 0.930 . S
C3049 C3047 1.419 . S
C3049 C3050 1.362 . S
C3050 H3042 0.930 . S
C3050 C3049 1.362 . S
C3050 C3053 1.409 . S
C3051 H3043 0.930 . S
C3051 C3052 1.355 . S
C3051 C3053 1.415 . S
C3052 C3051 1.355 . S
C3052 C3054 1.419 . S
C3053 C3048 1.425 . S
C3053 C3050 1.409 . S
C3053 C3051 1.415 . S
C3054 H3044 0.930 . S
C3054 C3052 1.419 . S
C3054 C3055 1.362 . S
C3055 H3045 0.930 . S
C3055 C3048 1.409 . S
C3055 C3054 1.362 . S
H3056 C3062 0.930 . S
H3057 C3065 0.930 . S
H3058 C3066 0.930 . S
H3059 C3067 0.930 . S
H3060 C3070 0.930 . S
H3061 C3071 0.930 . S
C3062 H3056 0.930 . S
C3062 C3063 1.355 . S
C3062 C3064 1.415 . S
C3063 C3062 1.355 . S
C3063 C3065 1.419 . S
C3064 C3062 1.415 . S
C3064 C3069 1.425 . S
C3064 C3071 1.409 . S
C3065 H3057 0.930 . S
C3065 C3063 1.419 . S
C3065 C3066 1.362 . S
C3066 H3058 0.930 . S
C3066 C3065 1.362 . S
C3066 C3069 1.409 . S
C3067 H3059 0.930 . S
C3067 C3068 1.355 . S
C3067 C3069 1.415 . S
C3068 C3067 1.355 . S
C3068 C3070 1.419 . S
C3069 C3064 1.425 . S
C3069 C3066 1.409 . S
C3069 C3067 1.415 . S
C3070 H3060 0.930 . S
C3070 C3068 1.419 . S
C3070 C3071 1.362 . S
C3071 H3061 0.930 . S
C3071 C3064 1.409 . S
C3071 C3070 1.362 . S
H3072 C3078 0.930 . S
H3073 C3081 0.930 . S
H3074 C3082 0.930 . S
H3075 C3083 0.930 . S
H3076 C3086 0.930 . S
H3077 C3087 0.930 . S
C3078 H3072 0.930 . S
C3078 C3079 1.355 . S
C3078 C3080 1.415 . S
C3079 C3078 1.355 . S
C3079 C3081 1.419 . S
C3080 C3078 1.415 . S
C3080 C3085 1.425 . S
C3080 C3087 1.409 . S
C3081 H3073 0.930 . S
C3081 C3079 1.419 . S
C3081 C3082 1.362 . S
C3082 H3074 0.930 . S
C3082 C3081 1.362 . S
C3082 C3085 1.409 . S
C3083 H3075 0.930 . S
C3083 C3084 1.355 . S
C3083 C3085 1.415 . S
C3084 C3083 1.355 . S
C3084 C3086 1.419 . S
C3085 C3080 1.425 . S
C3085 C3082 1.409 . S
C3085 C3083 1.415 . S
C3086 H3076 0.930 . S
C3086 C3084 1.419 . S
C3086 C3087 1.362 . S
C3087 H3077 0.930 . S
C3087 C3080 1.409 . S
C3087 C3086 1.362 . S
H3088 C3094 0.930 . S
H3089 C3097 0.930 . S
H3090 C3098 0.930 . S
H3091 C3099 0.930 . S
H3092 C3102 0.930 . S
H3093 C3103 0.930 . S
C3094 H3088 0.930 . S
C3094 C3095 1.355 . S
C3094 C3096 1.415 . S
C3095 C3094 1.355 . S
C3095 C3097 1.419 . S
C3096 C3094 1.415 . S
C3096 C3101 1.425 . S
C3096 C3103 1.409 . S
C3097 H3089 0.930 . S
C3097 C3095 1.419 . S
C3097 C3098 1.362 . S
C3098 H3090 0.930 . S
C3098 C3097 1.362 . S
C3098 C3101 1.409 . S
C3099 H3091 0.930 . S
C3099 C3100 1.355 . S
C3099 C3101 1.415 . S
C3100 C3099 1.355 . S
C3100 C3102 1.419 . S
C3101 C3096 1.425 . S
C3101 C3098 1.409 . S
C3101 C3099 1.415 . S
C3102 H3092 0.930 . S
C3102 C3100 1.419 . S
C3102 C3103 1.362 . S
C3103 H3093 0.930 . S
C3103 C3096 1.409 . S
C3103 C3102 1.362 . S
H3104 C3110 0.930 . S
H3105 C3113 0.930 . S
H3106 C3114 0.930 . S
H3107 C3115 0.930 . S
H3108 C3118 0.930 . S
H3109 C3119 0.930 . S
C3110 H3104 0.930 . S
C3110 C3111 1.355 . S
C3110 C3112 1.415 . S
C3111 C3110 1.355 . S
C3111 C3113 1.419 . S
C3112 C3110 1.415 . S
C3112 C3117 1.425 . S
C3112 C3119 1.409 . S
C3113 H3105 0.930 . S
C3113 C3111 1.419 . S
C3113 C3114 1.362 . S
C3114 H3106 0.930 . S
C3114 C3113 1.362 . S
C3114 C3117 1.409 . S
C3115 H3107 0.930 . S
C3115 C3116 1.355 . S
C3115 C3117 1.415 . S
C3116 C3115 1.355 . S
C3116 C3118 1.419 . S
C3117 C3112 1.425 . S
C3117 C3114 1.409 . S
C3117 C3115 1.415 . S
C3118 H3108 0.930 . S
C3118 C3116 1.419 . S
C3118 C3119 1.362 . S
C3119 H3109 0.930 . S
C3119 C3112 1.409 . S
C3119 C3118 1.362 . S
H3120 C3126 0.930 . S
H3121 C3129 0.930 . S
H3122 C3130 0.930 1_455 S
H3123 C3131 0.930 . S
H3124 C3134 0.930 . S
H3125 C3135 0.930 . S
C3126 H3120 0.930 . S
C3126 C3127 1.355 . S
C3126 C3128 1.415 . S
C3127 C3126 1.355 . S
C3127 C3129 1.419 . S
C3128 C3126 1.415 . S
C3128 C3133 1.425 1_655 S
C3128 C3135 1.409 1_655 S
C3129 H3121 0.930 . S
C3129 C3127 1.419 . S
C3129 C3130 1.362 . S
C3130 H3122 0.930 1_655 S
C3130 C3129 1.362 . S
C3130 C3133 1.409 1_655 S
C3131 H3123 0.930 . S
C3131 C3132 1.355 . S
C3131 C3133 1.415 . S
C3132 C3131 1.355 . S
C3132 C3134 1.419 . S
C3133 C3128 1.425 1_455 S
C3133 C3130 1.409 1_455 S
C3133 C3131 1.415 . S
C3134 H3124 0.930 . S
C3134 C3132 1.419 . S
C3134 C3135 1.362 . S
C3135 H3125 0.930 . S
C3135 C3128 1.409 1_455 S
C3135 C3134 1.362 . S
H3136 C3142 0.930 . S
H3137 C3145 0.930 . S
H3138 C3146 0.930 . S
H3139 C3147 0.930 . S
H3140 C3150 0.930 . S
H3141 C3151 0.930 . S
C3142 H3136 0.930 . S
C3142 C3143 1.355 . S
C3142 C3144 1.415 . S
C3143 C3142 1.355 . S
C3143 C3145 1.419 . S
C3144 C3142 1.415 . S
C3144 C3149 1.425 . S
C3144 C3151 1.409 . S
C3145 H3137 0.930 . S
C3145 C3143 1.419 . S
C3145 C3146 1.362 . S
C3146 H3138 0.930 . S
C3146 C3145 1.362 . S
C3146 C3149 1.409 . S
C3147 H3139 0.930 . S
C3147 C3148 1.355 . S
C3147 C3149 1.415 . S
C3148 C3147 1.355 . S
C3148 C3150 1.419 . S
C3149 C3144 1.425 . S
C3149 C3146 1.409 . S
C3149 C3147 1.415 . S
C3150 H3140 0.930 . S
C3150 C3148 1.419 . S
C3150 C3151 1.362 . S
C3151 H3141 0.930 . S
C3151 C3144 1.409 . S
C3151 C3150 1.362 . S
H3152 C3158 0.930 . S
H3153 C3161 0.930 . S
H3154 C3162 0.930 . S
H3155 C3163 0.930 . S
H3156 C3166 0.930 . S
H3157 C3167 0.930 . S
C3158 H3152 0.930 . S
C3158 C3159 1.355 . S
C3158 C3160 1.415 1_565 S
C3159 C3158 1.355 . S
C3159 C3161 1.419 . S
C3160 C3158 1.415 1_545 S
C3160 C3165 1.425 . S
C3160 C3167 1.409 . S
C3161 H3153 0.930 . S
C3161 C3159 1.419 . S
C3161 C3162 1.362 1_565 S
C3162 H3154 0.930 . S
C3162 C3161 1.362 1_545 S
C3162 C3165 1.409 . S
C3163 H3155 0.930 . S
C3163 C3164 1.355 . S
C3163 C3165 1.415 . S
C3164 C3163 1.355 . S
C3164 C3166 1.419 . S
C3165 C3160 1.425 . S
C3165 C3162 1.409 . S
C3165 C3163 1.415 . S
C3166 H3156 0.930 . S
C3166 C3164 1.419 . S
C3166 C3167 1.362 . S
C3167 H3157 0.930 . S
C3167 C3160 1.409 . S
C3167 C3166 1.362 . S
C1447 C1098 2.202 . S
C1452 C18 2.207 . S
C1463 C1138 2.204 . S
C1468 C58 2.213 1_655 S
C1479 C98 2.214 . S
C1484 C1178 2.223 . S
C1495 C138 2.214 . S
C1500 C498 2.223 . S
C1511 C178 2.227 . S
C1516 C538 2.221 . S
C1527 C578 2.203 . S
C1532 C218 2.204 1_565 S
C1543 C249 2.208 1_565 S
C1548 C849 2.203 . S
C1559 C889 2.208 . S
C1564 C289 2.203 . S
C1575 C329 2.202 . S
C1580 C929 2.210 . S
C1591 C1209 2.225 . S
C1596 C369 2.217 1_655 S
C1607 C409 2.217 . S
C1612 C1249 2.207 . S
C1623 C1289 2.206 . S
C1628 C449 2.216 . S
C1639 C978 2.212 . S
C1644 C618 2.222 . S
C1655 C658 2.219 . S
C1660 C1018 2.208 . S
C1671 C1058 2.202 . S
C1676 C698 2.209 . S
C1687 C729 2.207 . S
C1692 C1329 2.202 . S
C1703 C769 2.225 . S
C1708 C1369 2.216 . S
C1719 C1409 2.216 . S
C1724 C809 2.206 . S
C1735 C9 1.542 . S
C1740 C258 1.542 . S
C1751 C298 1.561 . S
C1756 C49 1.561 . S
C1767 C89 1.623 . S
C1772 C338 1.623 . S
C1783 C378 1.534 . S
C1788 C129 1.534 . S
C1799 C169 1.627 . S
C1804 C418 1.627 . S
C1815 C458 1.608 . S
C1820 C209 1.608 . S
C1831 C738 1.620 . S
C1836 C489 1.620 . S
C1847 C529 1.616 . S
C1852 C778 1.616 . S
C1863 C818 1.554 . S
C1868 C569 1.554 . S
C1879 C609 1.606 . S
C1884 C858 1.606 . S
C1895 C898 1.583 . S
C1900 C649 1.583 . S
C1911 C689 1.629 . S
C1916 C938 1.629 . S
C1927 C969 1.542 . S
C1932 C1218 1.542 . S
C1943 C1258 1.551 . S
C1948 C1009 1.551 . S
C1959 C1298 1.625 . S
C1964 C1049 1.625 . S
C1975 C1338 1.612 . S
C1980 C1089 1.612 . S
C1991 C1129 1.594 . S
C1996 C1378 1.594 . S
C2007 C1169 1.554 . S
C2012 C1418 1.554 . S
C2023 C15 1.815 . S
C2028 C99 1.853 . S
C2039 C55 1.844 . S
C2044 C19 1.847 . S
C2055 C59 1.864 . S
C2060 C95 1.850 . S
C2071 C135 1.849 . S
C2076 C179 1.856 . S
C2087 C219 1.864 . S
C2092 C175 1.832 . S
C2103 C139 1.839 . S
C2108 C215 1.800 . S
C2119 C330 1.861 . S
C2124 C246 1.851 . S
C2135 C286 1.817 . S
C2140 C250 1.825 . S
C2151 C326 1.812 . S
C2156 C290 1.823 . S
C2167 C410 1.863 . S
C2172 C366 1.831 . S
C2183 C406 1.851 . S
C2188 C450 1.862 . S
C2199 C446 1.824 . S
C2204 C370 1.860 . S
C2215 C579 1.854 . S
C2220 C495 1.848 . S
C2231 C499 1.835 . S
C2236 C535 1.797 . S
C2247 C539 1.820 . S
C2252 C575 1.799 1_655 S
C2263 C659 1.851 . S
C2268 C615 1.847 . S
C2279 C655 1.805 . S
C2284 C699 1.845 . S
C2295 C619 1.828 . S
C2300 C695 1.794 . S
C2311 C726 1.812 . S
C2316 C810 1.851 . S
C2327 C730 1.823 . S
C2332 C766 1.812 . S
C2343 C806 1.799 . S
C2348 C770 1.838 . S
C2359 C890 1.830 . S
C2364 C846 1.795 . S
C2375 C930 1.842 . S
C2380 C886 1.840 . S
C2391 C850 1.855 . S
C2396 C926 1.817 1_655 S
C2407 C1059 1.860 . S
C2412 C975 1.851 . S
C2423 C1015 1.850 . S
C2428 C979 1.863 . S
C2439 C1019 1.854 . S
C2444 C1055 1.816 . S
C2455 C1095 1.849 . S
C2460 C1139 1.856 . S
C2471 C1135 1.808 1_565 S
C2476 C1179 1.847 . S
C2487 C1099 1.847 . S
C2492 C1175 1.808 . S
C2503 C1206 1.838 . S
C2508 C1290 1.866 . S
C2519 C1246 1.831 1_565 S
C2524 C1210 1.834 . S
C2535 C1250 1.862 . S
C2540 C1286 1.828 . S
C2551 C1326 1.794 . S
C2556 C1370 1.824 . S
C2567 C1410 1.859 . S
C2572 C1366 1.824 . S
C2583 C1330 1.843 . S
C2588 C1406 1.841 . S
C2599 C90 1.339 . S
C2604 C6 1.357 . S
C2615 C46 1.313 . S
C2620 C10 1.267 . S
C2631 C50 1.339 . S
C2636 C86 1.354 . S
C2647 C170 1.334 . S
C2652 C126 1.348 . S
C2663 C166 1.334 . S
C2668 C210 1.315 . S
C2679 C206 1.350 . S
C2684 C130 1.336 . S
C2695 C339 1.333 . S
C2700 C255 1.348 . S
C2711 C295 1.323 . S
C2716 C259 1.294 . S
C2727 C299 1.326 . S
C2732 C335 1.341 . S
C2743 C419 1.268 . S
C2748 C375 1.331 . S
C2759 C459 1.318 . S
C2764 C415 1.336 . S
C2775 C379 1.340 . S
C2780 C455 1.357 . S
C2791 C486 1.311 . S
C2796 C570 1.258 . S
C2807 C526 1.338 . S
C2812 C490 1.278 . S
C2823 C566 1.321 . S
C2828 C530 1.257 . S
C2839 C650 1.334 . S
C2844 C606 1.348 . S
C2855 C646 1.356 . S
C2860 C690 1.339 . S
C2871 C686 1.324 . S
C2876 C610 1.296 . S
C2887 C819 1.256 . S
C2892 C735 1.321 . S
C2903 C739 1.289 . S
C2908 C775 1.344 . S
C2919 C815 1.321 . S
C2924 C779 1.291 . S
C2935 C899 1.318 . S
C2940 C855 1.336 . S
C2951 C895 1.315 . S
C2956 C939 1.253 . S
C2967 C935 1.329 . S
C2972 C859 1.265 . S
C2983 C966 1.354 . S
C2988 C1050 1.339 . S
C2999 C970 1.330 . S
C3004 C1006 1.345 . S
C3015 C1010 1.260 . S
C3020 C1046 1.312 . S
C3031 C1130 1.265 . S
C3036 C1086 1.329 . S
C3047 C1126 1.351 . S
C3052 C1170 1.303 . S
C3063 C1166 1.348 . S
C3068 C1090 1.334 . S
C3079 C1299 1.272 . S
C3084 C1215 1.334 . S
C3095 C1219 1.253 . S
C3100 C1255 1.314 . S
C3111 C1295 1.357 . S
C3116 C1259 1.319 . S
C3127 C1379 1.337 . S
C3132 C1335 1.359 . S
C3143 C1375 1.352 . S
C3148 C1419 1.337 . S
C3159 C1415 1.354 . S
C3164 C1339 1.338 . S
