# Generated by pormake.
# Topology zfe, (5)-cn, num edge types: 1
# Building blocks:
#     Node 0, Type 0, BuildingBlock: XOMCOT_clean_sbu_1, # of connection points: 5
#     Node 1, Type 0, BuildingBlock: XOMCOT_clean_sbu_1, # of connection points: 5
#     Node 2, Type 0, BuildingBlock: XOMCOT_clean_sbu_1, # of connection points: 5
#     Node 3, Type 0, BuildingBlock: XOMCOT_clean_sbu_1, # of connection points: 5
#     Node 4, Type 0, BuildingBlock: XOMCOT_clean_sbu_1, # of connection points: 5
#     Node 5, Type 0, BuildingBlock: XOMCOT_clean_sbu_1, # of connection points: 5
#     Node 6, Type 0, BuildingBlock: XOMCOT_clean_sbu_1, # of connection points: 5
#     Node 7, Type 0, BuildingBlock: XOMCOT_clean_sbu_1, # of connection points: 5
#     Node 8, Type 0, BuildingBlock: XOMCOT_clean_sbu_1, # of connection points: 5
#     Node 9, Type 0, BuildingBlock: XOMCOT_clean_sbu_1, # of connection points: 5
#     Node 10, Type 0, BuildingBlock: XOMCOT_clean_sbu_1, # of connection points: 5
#     Node 11, Type 0, BuildingBlock: XOMCOT_clean_sbu_1, # of connection points: 5
#     Node 12, Type 0, BuildingBlock: XOMCOT_clean_sbu_1, # of connection points: 5
#     Node 13, Type 0, BuildingBlock: XOMCOT_clean_sbu_1, # of connection points: 5
#     Node 14, Type 0, BuildingBlock: XOMCOT_clean_sbu_1, # of connection points: 5
#     Node 15, Type 0, BuildingBlock: XOMCOT_clean_sbu_1, # of connection points: 5
#     Edge 16, Type (0, 0), BuildingBlock: XIVTED_clean_linker_0, # of connection points: 2
#     Edge 17, Type (0, 0), BuildingBlock: XIVTED_clean_linker_0, # of connection points: 2
#     Edge 18, Type (0, 0), BuildingBlock: XIVTED_clean_linker_0, # of connection points: 2
#     Edge 19, Type (0, 0), BuildingBlock: XIVTED_clean_linker_0, # of connection points: 2
#     Edge 20, Type (0, 0), BuildingBlock: XIVTED_clean_linker_0, # of connection points: 2
#     Edge 21, Type (0, 0), BuildingBlock: XIVTED_clean_linker_0, # of connection points: 2
#     Edge 22, Type (0, 0), BuildingBlock: XIVTED_clean_linker_0, # of connection points: 2
#     Edge 23, Type (0, 0), BuildingBlock: XIVTED_clean_linker_0, # of connection points: 2
#     Edge 24, Type (0, 0), BuildingBlock: XIVTED_clean_linker_0, # of connection points: 2
#     Edge 25, Type (0, 0), BuildingBlock: XIVTED_clean_linker_0, # of connection points: 2
#     Edge 26, Type (0, 0), BuildingBlock: XIVTED_clean_linker_0, # of connection points: 2
#     Edge 27, Type (0, 0), BuildingBlock: XIVTED_clean_linker_0, # of connection points: 2
#     Edge 28, Type (0, 0), BuildingBlock: XIVTED_clean_linker_0, # of connection points: 2
#     Edge 29, Type (0, 0), BuildingBlock: XIVTED_clean_linker_0, # of connection points: 2
#     Edge 30, Type (0, 0), BuildingBlock: XIVTED_clean_linker_0, # of connection points: 2
#     Edge 31, Type (0, 0), BuildingBlock: XIVTED_clean_linker_0, # of connection points: 2
#     Edge 32, Type (0, 0), BuildingBlock: XIVTED_clean_linker_0, # of connection points: 2
#     Edge 33, Type (0, 0), BuildingBlock: XIVTED_clean_linker_0, # of connection points: 2
#     Edge 34, Type (0, 0), BuildingBlock: XIVTED_clean_linker_0, # of connection points: 2
#     Edge 35, Type (0, 0), BuildingBlock: XIVTED_clean_linker_0, # of connection points: 2
#     Edge 36, Type (0, 0), BuildingBlock: XIVTED_clean_linker_0, # of connection points: 2
#     Edge 37, Type (0, 0), BuildingBlock: XIVTED_clean_linker_0, # of connection points: 2
#     Edge 38, Type (0, 0), BuildingBlock: XIVTED_clean_linker_0, # of connection points: 2
#     Edge 39, Type (0, 0), BuildingBlock: XIVTED_clean_linker_0, # of connection points: 2
#     Edge 40, Type (0, 0), BuildingBlock: XIVTED_clean_linker_0, # of connection points: 2
#     Edge 41, Type (0, 0), BuildingBlock: XIVTED_clean_linker_0, # of connection points: 2
#     Edge 42, Type (0, 0), BuildingBlock: XIVTED_clean_linker_0, # of connection points: 2
#     Edge 43, Type (0, 0), BuildingBlock: XIVTED_clean_linker_0, # of connection points: 2
#     Edge 44, Type (0, 0), BuildingBlock: XIVTED_clean_linker_0, # of connection points: 2
#     Edge 45, Type (0, 0), BuildingBlock: XIVTED_clean_linker_0, # of connection points: 2
#     Edge 46, Type (0, 0), BuildingBlock: XIVTED_clean_linker_0, # of connection points: 2
#     Edge 47, Type (0, 0), BuildingBlock: XIVTED_clean_linker_0, # of connection points: 2
#     Edge 48, Type (0, 0), BuildingBlock: XIVTED_clean_linker_0, # of connection points: 2
#     Edge 49, Type (0, 0), BuildingBlock: XIVTED_clean_linker_0, # of connection points: 2
#     Edge 50, Type (0, 0), BuildingBlock: XIVTED_clean_linker_0, # of connection points: 2
#     Edge 51, Type (0, 0), BuildingBlock: XIVTED_clean_linker_0, # of connection points: 2
#     Edge 52, Type (0, 0), BuildingBlock: XIVTED_clean_linker_0, # of connection points: 2
#     Edge 53, Type (0, 0), BuildingBlock: XIVTED_clean_linker_0, # of connection points: 2
#     Edge 54, Type (0, 0), BuildingBlock: XIVTED_clean_linker_0, # of connection points: 2
#     Edge 55, Type (0, 0), BuildingBlock: XIVTED_clean_linker_0, # of connection points: 2
# Relax obj value: 0.182
# Max RMSD: 0.152
# Mean RMSD: 0.152
data_MOF--net-zfe--node1-XOMCOT_clean_sbu_1--edge1-XIVTED_clean_linker_0
_symmetry_space_group_name_H-M    P1
_symmetry_Int_Tables_number       1
_symmetry_cell_setting            triclinic
loop_
_symmetry_equiv_pos_as_xyz
'x, y, z'
_cell_length_a     54.553054
_cell_length_b     54.573681
_cell_length_c     27.219473
_cell_angle_alpha  89.980703
_cell_angle_beta   90.064256
_cell_angle_gamma 89.997965
loop_
_atom_site_label
_atom_site_type_symbol
_atom_site_fract_x
_atom_site_fract_y
_atom_site_fract_z
_atom_type_partial_charge
C0 C 0.08774 0.24731 0.99844 0.0
C1 C 0.10555 0.26491 0.9921 0.0
N2 N 0.09823 0.28545 1.01521 0.0
N3 N 0.06941 0.25667 1.02584 0.0
C4 C 0.07605 0.28013 0.03432 0.0
H5 H 0.08839 0.22865 0.98509 0.0
Co6 Co 0.04125 0.23997 0.0462 0.0
C7 C 0.04901 0.27103 0.14255 0.0
O8 O 0.07238 0.2767 0.14113 0.0
N9 N 0.01289 0.2234 0.06754 0.0
C10 C 0.98674 0.20618 0.11988 0.0
C11 C 0.00894 0.21756 0.11519 0.0
C12 C 0.99295 0.2146 0.04362 0.0
N13 N 0.97671 0.2043 0.07501 0.0
O14 O 0.02184 0.26374 1.01151 0.0
H15 H 0.02164 0.22092 0.14494 0.0
H16 H 0.99036 0.21565 1.00425 0.0
O17 O 0.03932 0.25842 0.10805 0.0
C18 C 0.02264 0.25595 0.96725 0.0
O19 O 0.03309 0.23467 0.95876 0.0
N20 N 0.06078 0.21516 0.07329 0.0
C21 C 0.09504 0.1774 0.08163 0.0
C22 C 0.09794 0.19928 0.10826 0.0
C23 C 0.08058 0.21805 0.10342 0.0
C24 C 0.05709 0.19356 0.0493 0.0
C25 C 0.07375 0.17438 0.05344 0.0
H26 H 0.08425 0.23539 0.12048 0.0
H27 H 0.04191 0.19173 1.02399 0.0
H28 H 0.06491 0.29311 0.05435 0.0
H29 H 0.12302 0.26245 0.97392 0.0
H30 H 0.97889 0.19903 0.15347 0.0
H31 H 0.11423 0.20252 0.13007 0.0
H32 H 0.07043 0.15769 0.03298 0.0
C33 C 0.75993 0.08366 0.99333 0.0
C34 C 0.74205 0.10119 0.98712 0.0
N35 N 0.72232 0.09451 1.0136 0.0
N36 N 0.75157 0.06609 1.02391 0.0
C37 C 0.72839 0.07296 0.03468 0.0
H38 H 0.77804 0.08391 0.97725 0.0
Co39 Co 0.7691 0.0385 0.04457 0.0
C40 C 0.74061 0.0476 0.14324 0.0
O41 O 0.73587 0.07118 0.14167 0.0
N42 N 0.78665 0.01088 0.06665 0.0
C43 C 0.80629 0.98753 0.12085 0.0
C44 C 0.79541 0.00971 0.11307 0.0
C45 C 0.79293 0.98904 0.04648 0.0
N46 N 0.80471 0.97444 0.07919 0.0
O47 O 0.74466 0.01823 1.01393 0.0
H48 H 0.79393 0.02416 0.14007 0.0
H49 H 0.78865 0.98378 1.00912 0.0
O50 O 0.75212 0.03729 0.10801 0.0
C51 C 0.75137 0.01773 0.96896 0.0
O52 O 0.77244 0.02778 0.95723 0.0
N53 N 0.79444 0.05871 0.06709 0.0
C54 C 0.83422 0.09085 0.07354 0.0
C55 C 0.81479 0.09208 0.10754 0.0
C56 C 0.79489 0.07589 0.10347 0.0
C57 C 0.81348 0.05673 0.03507 0.0
C58 C 0.83338 0.07257 0.0374 0.0
H59 H 0.7798 0.07776 0.12848 0.0
H60 H 0.81261 0.04338 1.00579 0.0
H61 H 0.7161 0.06239 0.05751 0.0
H62 H 0.74378 0.11804 0.96639 0.0
H63 H 0.81511 0.98161 0.15448 0.0
H64 H 0.81471 0.10568 0.13648 0.0
H65 H 0.84741 0.07106 1.00949 0.0
C66 C 0.92303 0.75883 0.9926 0.0
C67 C 0.90531 0.74116 0.98602 0.0
N68 N 0.91229 0.72089 1.01051 0.0
N69 N 0.94098 0.74978 1.02149 0.0
C70 C 0.93421 0.72642 1.0307 0.0
H71 H 0.92258 0.77732 0.97834 0.0
Co72 Co 0.96881 0.76686 0.04243 0.0
C73 C 0.9605 0.73649 0.13961 0.0
O74 O 0.93711 0.73093 0.13764 0.0
N75 N 0.99681 0.78384 0.06428 0.0
C76 C 0.02238 0.80173 0.11694 0.0
C77 C 1.00026 0.79023 0.1118 0.0
C78 C 0.01696 0.79243 0.04083 0.0
N79 N 0.03284 0.80311 0.07244 0.0
O80 O 0.98878 0.74295 1.00943 0.0
H81 H 0.98728 0.7871 0.14113 0.0
H82 H 0.01995 0.79092 1.00165 0.0
O83 O 0.97044 0.74885 0.10502 0.0
C84 C 0.98852 0.75016 0.96473 0.0
O85 O 0.97784 0.77112 0.95441 0.0
N86 N 0.94881 0.7918 0.06776 0.0
C87 C 0.91442 0.82965 0.07334 0.0
C88 C 0.91132 0.80799 0.10066 0.0
C89 C 0.92875 0.78916 0.09719 0.0
C90 C 0.95263 0.81317 0.04299 0.0
C91 C 0.93591 0.83237 0.04574 0.0
H92 H 0.92498 0.77198 0.11484 0.0
H93 H 0.96801 0.81479 1.01818 0.0
H94 H 0.94505 0.71366 0.05197 0.0
H95 H 0.8881 0.74342 0.9667 0.0
H96 H 0.02991 0.80926 0.15052 0.0
H97 H 0.89487 0.80494 0.12205 0.0
H98 H 0.9394 0.84887 1.02477 0.0
C99 C 0.24937 0.9241 0.99523 0.0
C100 C 0.2672 0.9065 0.98909 0.0
N101 N 0.2869 0.91305 1.01588 0.0
N102 N 0.25774 0.94153 1.02607 0.0
C103 C 0.28087 0.93458 0.037 0.0
H104 H 0.23124 0.92391 0.97913 0.0
Co105 Co 0.24032 0.9689 0.04764 0.0
C106 C 0.26912 0.9594 0.14622 0.0
O107 O 0.27396 0.93584 0.14459 0.0
N108 N 0.22288 0.99632 0.07069 0.0
C109 C 0.20321 0.01922 0.12546 0.0
C110 C 0.21417 0.99715 0.11714 0.0
C111 C 0.21653 0.01826 0.05109 0.0
N112 N 0.20472 0.0326 0.08412 0.0
O113 O 0.26466 0.98936 1.0173 0.0
H114 H 0.21569 0.98249 0.14372 0.0
H115 H 0.2207 0.02377 1.01384 0.0
O116 O 0.2575 0.96968 0.11102 0.0
C117 C 0.2574 0.99096 0.97274 0.0
O118 O 0.23599 0.98158 0.96116 0.0
N119 N 0.21509 0.94853 0.06984 0.0
C120 C 0.17537 0.9163 0.07559 0.0
C121 C 0.19509 0.91456 0.10891 0.0
C122 C 0.21496 0.93081 0.10518 0.0
C123 C 0.19579 0.95096 0.03848 0.0
C124 C 0.1759 0.93511 0.04051 0.0
H125 H 0.23031 0.92852 0.12946 0.0
H126 H 0.19642 0.96471 1.0099 0.0
H127 H 0.29313 0.94504 0.06014 0.0
H128 H 0.26542 0.88968 0.96834 0.0
H129 H 0.19431 0.02483 0.15917 0.0
H130 H 0.19544 0.90052 0.137 0.0
H131 H 0.16164 0.93701 1.0131 0.0
C132 C 0.08981 0.76825 0.59717 0.0
C133 C 0.11026 0.75385 0.6029 0.0
N134 N 0.10596 0.73195 0.5817 0.0
N135 N 0.0727 0.75571 0.57176 0.0
C136 C 0.08274 0.73334 0.56446 0.0
H137 H 0.08778 0.78694 0.60965 0.0
Co138 Co 0.0425 0.76856 0.55157 0.0
C139 C 0.05435 0.73833 0.45592 0.0
O140 O 0.07824 0.73553 0.45842 0.0
N141 N 0.0122 0.78158 0.53089 0.0
C142 C 0.98314 0.79522 0.48036 0.0
C143 C 0.00583 0.7847 0.48324 0.0
C144 C 0.99322 0.79131 0.5564 0.0
N145 N 0.97523 0.79943 0.52623 0.0
O146 O 0.02634 0.74241 0.58593 0.0
H147 H 0.01736 0.78072 0.45203 0.0
H148 H 0.99279 0.79294 0.596 0.0
O149 O 0.04293 0.74988 0.48976 0.0
C150 C 0.02511 0.74985 0.63037 0.0
O151 O 0.03289 0.77204 0.64069 0.0
N152 N 0.05846 0.79572 0.52448 0.0
C153 C 0.0882 0.83717 0.51589 0.0
C154 C 0.09143 0.8169 0.48455 0.0
C155 C 0.0764 0.79621 0.48962 0.0
C156 C 0.05407 0.81579 0.55286 0.0
C157 C 0.06863 0.83663 0.54923 0.0
H158 H 0.08032 0.7803 0.46782 0.0
H159 H 0.04036 0.81488 0.58146 0.0
H160 H 0.07351 0.71864 0.54529 0.0
H161 H 0.12719 0.75934 0.62051 0.0
H162 H 0.97373 0.80069 0.44706 0.0
H163 H 0.10606 0.81659 0.45772 0.0
H164 H 0.06554 0.85145 0.57492 0.0
C165 C 0.2395 0.08749 0.60766 0.0
C166 C 0.2538 0.10787 0.61499 0.0
N167 N 0.2756 0.10427 0.59281 0.0
N168 N 0.25199 0.07114 0.58036 0.0
C169 C 0.27424 0.0815 0.5734 0.0
H170 H 0.22084 0.08502 0.6201 0.0
Co171 Co 0.23875 0.04161 0.55771 0.0
C172 C 0.27132 0.05226 0.46376 0.0
O173 O 0.27586 0.07588 0.46541 0.0
N174 N 0.2253 0.01192 0.53464 0.0
C175 C 0.21126 0.98428 0.48149 0.0
C176 C 0.2221 0.00672 0.48646 0.0
C177 C 0.21531 0.9925 0.55838 0.0
N178 N 0.20694 0.97537 0.52659 0.0
O179 O 0.26382 0.02444 0.59346 0.0
H180 H 0.22628 0.01893 0.45638 0.0
H181 H 0.21366 0.99117 0.5979 0.0
O182 O 0.25846 0.04212 0.49734 0.0
C183 C 0.25576 0.02312 0.63743 0.0
O184 O 0.23336 0.03078 0.64626 0.0
N185 N 0.21276 0.05884 0.52876 0.0
C186 C 0.17303 0.09063 0.51787 0.0
C187 C 0.19511 0.09491 0.49269 0.0
C188 C 0.21486 0.07877 0.49877 0.0
C189 C 0.19101 0.05365 0.551 0.0
C190 C 0.17087 0.0691 0.54563 0.0
H191 H 0.23226 0.08357 0.48298 0.0
H192 H 0.18975 0.03837 0.57616 0.0
H193 H 0.28891 0.0728 0.5533 0.0
H194 H 0.24828 0.1243 0.63429 0.0
H195 H 0.20569 0.9757 0.44738 0.0
H196 H 0.19772 0.11143 0.47127 0.0
H197 H 0.1541 0.06474 0.56499 0.0
C198 C 0.92134 0.24702 0.61257 0.0
C199 C 0.90391 0.26489 0.62002 0.0
N200 N 0.91004 0.28458 0.59288 0.0
N201 N 0.93823 0.25537 0.58054 0.0
C202 C 0.93117 0.27852 0.57025 0.0
H203 H 0.92131 0.22879 0.62818 0.0
Co204 Co 0.96485 0.23758 0.55639 0.0
C205 C 0.95559 0.26808 0.45937 0.0
O206 O 0.93227 0.27398 0.4611 0.0
N207 N 0.99166 0.21986 0.53093 0.0
C208 C 0.01359 0.20024 0.4745 0.0
C209 C 0.99199 0.21195 0.48388 0.0
C210 C 0.01341 0.2123 0.54974 0.0
N211 N 0.02716 0.20045 0.51575 0.0
O212 O 0.98624 0.26086 0.58722 0.0
H213 H 0.97722 0.21437 0.45778 0.0
H214 H 0.01914 0.21554 0.58725 0.0
O215 O 0.96532 0.25563 0.49404 0.0
C216 C 0.98758 0.25319 0.6315 0.0
O217 O 0.97779 0.23184 0.64208 0.0
N218 N 0.94336 0.21339 0.5331 0.0
C219 C 0.90812 0.17632 0.52812 0.0
C220 C 0.9047 0.1986 0.50304 0.0
C221 C 0.92255 0.21701 0.50622 0.0
C222 C 0.94732 0.19156 0.55612 0.0
C223 C 0.93018 0.17272 0.55354 0.0
H224 H 0.91866 0.23461 0.49042 0.0
H225 H 0.96335 0.18918 0.57904 0.0
H226 H 0.94121 0.29076 0.5464 0.0
H227 H 0.88736 0.26308 0.64164 0.0
H228 H 0.01867 0.19163 0.44016 0.0
H229 H 0.8878 0.20236 0.48356 0.0
H230 H 0.93391 0.15575 0.57277 0.0
C231 C 0.76553 0.91835 0.60637 0.0
C232 C 0.75047 0.89837 0.6119 0.0
N233 N 0.72918 0.90293 0.58844 0.0
N234 N 0.75402 0.93538 0.57888 0.0
C235 C 0.73158 0.92581 0.56997 0.0
H236 H 0.78404 0.92004 0.62021 0.0
Co237 Co 0.76837 0.96462 0.55748 0.0
C238 C 0.73808 0.95433 0.46069 0.0
O239 O 0.73352 0.9307 0.46199 0.0
N240 N 0.78283 0.99384 0.53491 0.0
C241 C 0.79954 0.01931 0.48072 0.0
C242 C 0.7899 0.9965 0.48762 0.0
C243 C 0.78894 0.01539 0.55644 0.0
N244 N 0.79895 0.03128 0.52383 0.0
O245 O 0.74291 0.98242 0.59068 0.0
H246 H 0.78851 0.9825 0.45966 0.0
H247 H 0.78616 0.01936 0.59498 0.0
O248 O 0.75014 0.96448 0.4954 0.0
C249 C 0.75047 0.98318 0.63512 0.0
O250 O 0.77254 0.97484 0.64491 0.0
N251 N 0.79474 0.94689 0.53182 0.0
C252 C 0.83516 0.91576 0.52343 0.0
C253 C 0.81446 0.91272 0.49305 0.0
C254 C 0.79427 0.92842 0.49812 0.0
C255 C 0.81514 0.95094 0.55952 0.0
C256 C 0.83547 0.93566 0.55602 0.0
H257 H 0.77797 0.92472 0.4772 0.0
H258 H 0.81494 0.96516 0.58719 0.0
H259 H 0.71758 0.93507 0.54887 0.0
H260 H 0.75511 0.88154 0.63078 0.0
H261 H 0.80721 0.02627 0.44681 0.0
H262 H 0.81345 0.89783 0.46687 0.0
H263 H 0.85061 0.93863 0.58105 0.0
C264 C 0.58605 0.74116 0.49111 0.0
C265 C 0.60626 0.75578 0.4843 0.0
N266 N 0.60262 0.77709 0.50827 0.0
N267 N 0.5698 0.75296 0.51987 0.0
C268 C 0.58003 0.77513 0.52832 0.0
H269 H 0.58368 0.72273 0.47733 0.0
Co270 Co 0.54071 0.73918 0.5434 0.0
C271 C 0.55258 0.76999 0.63905 0.0
O272 O 0.57628 0.77415 0.63735 0.0
N273 N 0.51162 0.72521 0.56806 0.0
C274 C 0.48665 0.70916 0.62396 0.0
C275 C 0.50915 0.71932 0.61605 0.0
C276 C 0.49032 0.71774 0.54717 0.0
N277 N 0.47473 0.70811 0.5808 0.0
O278 O 0.52282 0.76465 0.51045 0.0
H279 H 0.52319 0.72155 0.64376 0.0
H280 H 0.48641 0.71906 0.50828 0.0
O281 O 0.54211 0.75785 0.60482 0.0
C282 C 0.52083 0.75672 0.46646 0.0
O283 O 0.5282 0.7343 0.45695 0.0
N284 N 0.55846 0.7128 0.56887 0.0
C285 C 0.58958 0.67232 0.57557 0.0
C286 C 0.59338 0.69315 0.60515 0.0
C287 C 0.57767 0.71337 0.60094 0.0
C288 C 0.55367 0.69227 0.54214 0.0
C289 C 0.56892 0.6719 0.54485 0.0
H290 H 0.58195 0.72981 0.62092 0.0
H291 H 0.5389 0.69239 0.51562 0.0
H292 H 0.57147 0.78926 0.55015 0.0
H293 H 0.62263 0.75081 0.46422 0.0
H294 H 0.47997 0.70202 0.65858 0.0
H295 H 0.6089 0.69426 0.62988 0.0
H296 H 0.56534 0.65666 0.52045 0.0
C297 C 0.26723 0.58747 0.49143 0.0
C298 C 0.25247 0.60757 0.48427 0.0
N299 N 0.23091 0.60358 0.50709 0.0
N300 N 0.25525 0.57096 0.51931 0.0
C301 C 0.23286 0.5809 0.52675 0.0
H302 H 0.28588 0.58537 0.47866 0.0
Co303 Co 0.26919 0.54188 0.54271 0.0
C304 C 0.2368 0.55243 0.63702 0.0
O305 O 0.23194 0.57599 0.63533 0.0
N306 N 0.28327 0.51262 0.56667 0.0
C307 C 0.29794 0.48577 0.6208 0.0
C308 C 0.28689 0.50806 0.615 0.0
C309 C 0.2932 0.49297 0.54364 0.0
N310 N 0.30197 0.47631 0.57605 0.0
O311 O 0.24446 0.52396 0.50758 0.0
H312 H 0.28277 0.52059 0.64457 0.0
H313 H 0.29447 0.4911 0.50416 0.0
O314 O 0.24965 0.54243 0.60328 0.0
C315 C 0.25279 0.52244 0.46382 0.0
O316 O 0.27512 0.53036 0.45527 0.0
N317 N 0.29489 0.55986 0.57087 0.0
C318 C 0.33382 0.59282 0.57873 0.0
C319 C 0.31164 0.59712 0.60357 0.0
C320 C 0.29232 0.58035 0.59911 0.0
C321 C 0.31679 0.55466 0.54924 0.0
C322 C 0.33655 0.57068 0.55323 0.0
H323 H 0.27478 0.58512 0.61431 0.0
H324 H 0.31844 0.53892 0.52539 0.0
H325 H 0.21853 0.57203 0.54755 0.0
H326 H 0.25753 0.62409 0.46478 0.0
H327 H 0.30381 0.47767 0.65518 0.0
H328 H 0.30856 0.61407 0.62327 0.0
H329 H 0.35344 0.56626 0.53433 0.0
C330 C 0.41696 0.26875 0.50592 0.0
C331 C 0.3966 0.25418 0.50074 0.0
N332 N 0.40151 0.23205 0.52043 0.0
N333 N 0.43464 0.25608 0.52945 0.0
C334 C 0.42499 0.23349 0.53619 0.0
H335 H 0.41855 0.28761 0.49424 0.0
Co336 Co 0.46514 0.26899 0.548 0.0
C337 C 0.45467 0.23814 0.64331 0.0
O338 O 0.43077 0.23533 0.64144 0.0
N339 N 0.49563 0.28203 0.56726 0.0
C340 C 0.52498 0.2956 0.6171 0.0
C341 C 0.50222 0.28525 0.61475 0.0
C342 C 0.51456 0.29152 0.54126 0.0
N343 N 0.53274 0.2996 0.57105 0.0
O344 O 0.48101 0.24332 0.51132 0.0
H345 H 0.4908 0.28142 0.64622 0.0
H346 H 0.51481 0.29298 0.50161 0.0
O347 O 0.46583 0.24984 0.60931 0.0
C348 C 0.47976 0.25095 0.46694 0.0
O349 O 0.47065 0.27287 0.45875 0.0
N350 N 0.44945 0.29583 0.57691 0.0
C351 C 0.41942 0.33696 0.58733 0.0
C352 C 0.41696 0.31668 0.61899 0.0
C353 C 0.43212 0.29614 0.61297 0.0
C354 C 0.45324 0.31597 0.54837 0.0
C355 C 0.43849 0.33663 0.55283 0.0
H356 H 0.42873 0.2802 0.63507 0.0
H357 H 0.46651 0.31521 0.51893 0.0
H358 H 0.43471 0.21866 0.55395 0.0
H359 H 0.37934 0.2597 0.4845 0.0
H360 H 0.53456 0.3011 0.65018 0.0
H361 H 0.40279 0.31621 0.64678 0.0
H362 H 0.44102 0.35143 0.52684 0.0
C363 C 0.74422 0.41803 0.4992 0.0
C364 C 0.76152 0.39988 0.49359 0.0
N365 N 0.78236 0.40734 0.51548 0.0
N366 N 0.75408 0.43674 0.52489 0.0
C367 C 0.77752 0.4299 0.53315 0.0
H368 H 0.72552 0.41745 0.48606 0.0
Co369 Co 0.73843 0.4659 0.54278 0.0
C370 C 0.7675 0.45636 0.64013 0.0
O371 O 0.77093 0.43257 0.63779 0.0
N372 N 0.72283 0.49512 0.56163 0.0
C373 C 0.7063 0.5229 0.61137 0.0
C374 C 0.71745 0.50052 0.60892 0.0
C375 C 0.71392 0.51435 0.53568 0.0
N376 N 0.70409 0.53157 0.56549 0.0
O377 O 0.76368 0.48385 0.50898 0.0
H378 H 0.72074 0.48863 0.64 0.0
H379 H 0.71439 0.51563 0.49602 0.0
O380 O 0.7562 0.46754 0.60559 0.0
C381 C 0.7569 0.48258 0.46407 0.0
O382 O 0.73567 0.47236 0.45402 0.0
N383 N 0.71214 0.44809 0.56846 0.0
C384 C 0.6717 0.41693 0.57604 0.0
C385 C 0.69121 0.41541 0.60986 0.0
C386 C 0.7114 0.43118 0.60533 0.0
C387 C 0.6928 0.45067 0.53721 0.0
C388 C 0.67251 0.43536 0.54024 0.0
H389 H 0.72664 0.42884 0.62985 0.0
H390 H 0.69388 0.46373 0.50741 0.0
H391 H 0.79082 0.44118 0.55211 0.0
H392 H 0.75872 0.38218 0.47653 0.0
H393 H 0.69938 0.53174 0.64416 0.0
H394 H 0.69125 0.40168 0.63858 0.0
H395 H 0.6583 0.43711 0.51265 0.0
C396 C 0.58661 0.2577 0.10841 0.0
C397 C 0.60391 0.23965 0.11537 0.0
N398 N 0.59698 0.21978 0.08956 0.0
N399 N 0.56897 0.2493 0.07803 0.0
C400 C 0.57551 0.22593 0.06816 0.0
H401 H 0.58716 0.27603 0.12348 0.0
Co402 Co 0.54193 0.26736 0.05619 0.0
C403 C 0.5498 0.23726 0.95853 0.0
O404 O 0.57302 0.231 0.96051 0.0
N405 N 0.51476 0.28534 0.03304 0.0
C406 C 0.492 0.30531 0.97833 0.0
C407 C 0.51395 0.29401 0.98655 0.0
C408 C 0.49293 0.292 0.05273 0.0
N409 N 0.47867 0.30402 1.01975 0.0
O410 O 0.52086 0.24405 0.08819 0.0
H411 H 0.52853 0.2922 0.95989 0.0
H412 H 0.48743 0.28781 0.08998 0.0
O413 O 0.54019 0.24972 0.99331 0.0
C414 C 0.52104 0.25128 0.13288 0.0
O415 O 0.53211 0.27202 0.14335 0.0
N416 N 0.56307 0.29169 0.03215 0.0
C417 C 0.59767 0.32929 1.02516 0.0
C418 C 0.60044 0.30753 0.99802 0.0
C419 C 0.58294 0.28881 1.00229 0.0
C420 C 0.55975 0.313 0.05734 0.0
C421 C 0.57657 0.33208 0.05393 0.0
H422 H 0.58632 0.27162 0.98434 0.0
H423 H 0.54447 0.31478 0.08236 0.0
H424 H 0.56481 0.21361 0.04565 0.0
H425 H 0.62082 0.2414 0.1359 0.0
H426 H 0.48643 0.31421 0.94457 0.0
H427 H 0.6166 0.30444 0.97581 0.0
H428 H 0.57334 0.34864 0.07486 0.0
C429 C 0.74914 0.58542 0.10757 0.0
C430 C 0.76717 0.60275 0.1144 0.0
N431 N 0.78699 0.59591 0.08835 0.0
N432 N 0.7575 0.56788 0.077 0.0
C433 C 0.78083 0.57447 0.06698 0.0
H434 H 0.73084 0.58591 0.12279 0.0
Co435 Co 0.73964 0.54083 0.05483 0.0
C436 C 0.76929 0.54964 0.95709 0.0
O437 O 0.77545 0.57287 0.95957 0.0
N438 N 0.72185 0.51362 0.03136 0.0
C439 C 0.70183 0.49095 0.97661 0.0
C440 C 0.71296 0.51296 0.98501 0.0
C441 C 0.71552 0.49162 0.05076 0.0
N442 N 0.70346 0.47742 1.01776 0.0
O443 O 0.76336 0.51992 0.08586 0.0
H444 H 0.71449 0.52769 0.9586 0.0
H445 H 0.71994 0.48598 0.08783 0.0
O446 O 0.75701 0.53971 0.99174 0.0
C447 C 0.75613 0.51948 0.13051 0.0
O448 O 0.73501 0.52973 0.14122 0.0
N449 N 0.71502 0.56184 0.03161 0.0
C450 C 0.6774 0.59646 1.0263 0.0
C451 C 0.699 0.59943 0.99879 0.0
C452 C 0.71773 0.58191 1.0022 0.0
C453 C 0.6938 0.55828 0.057 0.0
C454 C 0.67471 0.57513 0.05445 0.0
H455 H 0.73483 0.58546 0.98408 0.0
H456 H 0.69216 0.54281 0.08162 0.0
H457 H 0.79312 0.56384 0.04428 0.0
H458 H 0.76544 0.61964 0.13496 0.0
H459 H 0.69279 0.48549 0.94293 0.0
H460 H 0.702 0.61577 0.97704 0.0
H461 H 0.65826 0.57178 0.07564 0.0
C462 C 0.42331 0.74962 0.10758 0.0
C463 C 0.40586 0.76756 0.11416 0.0
N464 N 0.41251 0.78731 0.08767 0.0
N465 N 0.44074 0.75799 0.07675 0.0
C466 C 0.43396 0.7812 0.0663 0.0
H467 H 0.42297 0.73138 0.1231 0.0
Co468 Co 0.46776 0.74023 0.05444 0.0
C469 C 0.45933 0.77009 0.95641 0.0
O470 O 0.43607 0.77624 0.95782 0.0
N471 N 0.49495 0.72254 1.03074 0.0
C472 C 0.51767 0.70292 0.97559 0.0
C473 C 0.49561 0.71391 0.98421 0.0
C474 C 0.51696 0.71615 0.05004 0.0
N475 N 0.53118 0.70436 1.0168 0.0
O476 O 0.48867 0.76387 0.08568 0.0
H477 H 0.48087 0.71556 0.95781 0.0
H478 H 0.52262 0.72035 0.0872 0.0
O479 O 0.46886 0.75778 0.99152 0.0
C480 C 0.4897 0.75636 0.13013 0.0
O481 O 0.4798 0.73507 0.14079 0.0
N482 N 0.44674 0.7157 1.03096 0.0
C483 C 0.41223 0.67803 1.02485 0.0
C484 C 0.40923 0.69973 0.99759 0.0
C485 C 0.4267 0.7185 1.00144 0.0
C486 C 0.4503 0.69442 0.05615 0.0
C487 C 0.4335 0.67531 0.0532 0.0
H488 H 0.42315 0.73567 0.98352 0.0
H489 H 0.46575 0.69272 0.08086 0.0
H490 H 0.44447 0.79346 0.0433 0.0
H491 H 0.38902 0.7658 0.13486 0.0
H492 H 0.52321 0.69413 0.94172 0.0
H493 H 0.39293 0.70275 0.9757 0.0
H494 H 0.43685 0.65879 0.07422 0.0
C495 C 0.26012 0.42355 0.10687 0.0
C496 C 0.24221 0.40607 0.11353 0.0
N497 N 0.22261 0.41242 0.08621 0.0
N498 N 0.25189 0.44068 0.07518 0.0
C499 C 0.22877 0.43372 0.06428 0.0
H500 H 0.27828 0.42341 0.12287 0.0
Co501 Co 0.26973 0.46753 0.05232 0.0
C502 C 0.23988 0.45885 0.95416 0.0
O503 O 0.23397 0.43554 0.95558 0.0
N504 N 0.28747 0.4946 1.02811 0.0
C505 C 0.30715 0.5171 0.97264 0.0
C506 C 0.29615 0.49508 0.98162 0.0
C507 C 0.29382 0.51669 0.047 0.0
N508 N 0.30566 0.53078 1.01358 0.0
O509 O 0.24613 0.48859 0.0832 0.0
H510 H 0.29452 0.48024 0.9555 0.0
H511 H 0.28955 0.52251 0.084 0.0
O512 O 0.25211 0.46848 0.9893 0.0
C513 C 0.25378 0.49025 0.12747 0.0
O514 O 0.27524 0.48075 0.13836 0.0
N515 N 0.29422 0.44632 1.02921 0.0
C516 C 0.33178 0.4116 1.02366 0.0
C517 C 0.30983 0.40838 0.99728 0.0
C518 C 0.29115 0.42594 1.00081 0.0
C519 C 0.31572 0.45006 0.05365 0.0
C520 C 0.33478 0.43317 0.05091 0.0
H521 H 0.2738 0.42221 0.98371 0.0
H522 H 0.31765 0.46574 0.07763 0.0
H523 H 0.21661 0.44397 0.04058 0.0
H524 H 0.2439 0.3894 0.13481 0.0
H525 H 0.31598 0.52249 0.93872 0.0
H526 H 0.30655 0.39184 0.97633 0.0
H527 H 0.35148 0.43673 0.07124 0.0
H528 H 0.10035 0.31199 0.09913 0.0
H529 H 0.19946 0.40685 0.99893 0.0
H530 H 0.12975 0.3076 0.95251 0.0
H531 H 0.19792 0.38348 0.15014 0.0
H532 H 0.16629 0.378 0.98038 0.0
H533 H 0.12856 0.3458 0.117 0.0
C534 C 0.11245 0.31843 0.07046 0.0
C535 C 0.11282 0.30696 1.02431 0.0
C536 C 0.17308 0.37939 1.01768 0.0
C537 C 0.14494 0.3456 0.0444 0.0
C538 C 0.19184 0.39595 1.02837 0.0
C539 C 0.20145 0.39747 0.07613 0.0
C540 C 0.16354 0.3646 0.05522 0.0
C541 C 0.1911 0.38269 0.11283 0.0
C542 C 0.12864 0.33756 0.0808 0.0
C543 C 0.12908 0.31585 0.98863 0.0
N544 N 0.17264 0.36688 0.10165 0.0
N545 N 0.14449 0.33471 0.99936 0.0
H546 H 0.69829 0.12369 0.94914 0.0
H547 H 0.62626 0.19597 0.15423 0.0
H548 H 0.69789 0.09921 0.09966 0.0
H549 H 0.60143 0.19492 1.00392 0.0
H550 H 0.65444 0.16216 0.13554 0.0
H551 H 0.66444 0.15179 0.96805 0.0
C552 C 0.6909 0.12412 0.98603 0.0
C553 C 0.70086 0.10917 1.0229 0.0
C554 C 0.64258 0.16914 0.10683 0.0
C555 C 0.66257 0.14143 0.04502 0.0
C556 C 0.62661 0.18844 0.11744 0.0
C557 C 0.61154 0.19822 0.08056 0.0
C558 C 0.64392 0.15999 0.05867 0.0
C559 C 0.6126 0.18778 0.03347 0.0
C560 C 0.67158 0.14004 0.99677 0.0
C561 C 0.6906 0.1103 0.07013 0.0
N562 N 0.62879 0.16948 1.02365 0.0
N563 N 0.67225 0.12644 0.08005 0.0
H564 H 0.81117 0.62512 0.15252 0.0
H565 H 0.88178 0.69806 0.94681 0.0
H566 H 0.81121 0.60057 1.00209 0.0
H567 H 0.90868 0.69546 0.09561 0.0
H568 H 0.85353 0.66434 0.96598 0.0
H569 H 0.84494 0.65327 0.13309 0.0
C570 C 0.81846 0.62554 0.11556 0.0
C571 C 0.80844 0.61055 0.07886 0.0
C572 C 0.86585 0.67098 0.99423 0.0
C573 C 0.84656 0.64287 0.05614 0.0
C574 C 0.88185 0.69021 0.98335 0.0
C575 C 0.89754 0.6995 1.01968 0.0
C576 C 0.86511 0.66143 0.04214 0.0
C577 C 0.89702 0.68869 0.06649 0.0
C578 C 0.83773 0.64148 0.10452 0.0
C579 C 0.81855 0.61168 0.0315 0.0
N580 N 0.88079 0.67047 0.07663 0.0
N581 N 0.83682 0.62785 1.02128 0.0
H582 H 0.31121 0.90877 0.10226 0.0
H583 H 0.40827 0.81176 1.00149 0.0
H584 H 0.31082 0.88324 0.95243 0.0
H585 H 0.38276 0.81122 0.15128 0.0
H586 H 0.37981 0.84529 0.98324 0.0
H587 H 0.34472 0.88027 0.12067 0.0
C588 C 0.31846 0.89745 0.07306 0.0
C589 C 0.3082 0.89826 1.02577 0.0
C590 C 0.38064 0.83796 1.02019 0.0
C591 C 0.34649 0.86579 0.04653 0.0
C592 C 0.39698 0.81899 1.03073 0.0
C593 C 0.39778 0.80867 0.07795 0.0
C594 C 0.36531 0.84699 0.05736 0.0
C595 C 0.38251 0.81855 0.11435 0.0
C596 C 0.33742 0.8811 0.08369 0.0
C597 C 0.31811 0.88299 0.98941 0.0
N598 N 0.3669 0.83721 0.10334 0.0
N599 N 0.33675 0.86738 1.00051 0.0
H600 H 0.15527 0.73694 0.57487 0.0
H601 H 0.18255 0.59492 0.52621 0.0
H602 H 0.0974 0.68319 0.56676 0.0
H603 H 0.23545 0.65305 0.50884 0.0
H604 H 0.15115 0.62576 0.54544 0.0
H605 H 0.185 0.7052 0.5564 0.0
C606 C 0.14877 0.71839 0.56981 0.0
C607 C 0.1237 0.7128 0.57274 0.0
C608 C 0.16963 0.63168 0.53709 0.0
C609 C 0.15794 0.67609 0.55051 0.0
C610 C 0.18757 0.6141 0.52626 0.0
C611 C 0.21172 0.62134 0.5156 0.0
C612 C 0.17598 0.65664 0.53781 0.0
C613 C 0.21709 0.64651 0.51594 0.0
C614 C 0.16582 0.70023 0.5587 0.0
C615 C 0.1165 0.68838 0.56459 0.0
N616 N 0.19946 0.66314 0.52706 0.0
N617 N 0.13354 0.67089 0.55394 0.0
H618 H 0.41088 0.18324 0.53254 0.0
H619 H 0.2703 0.15369 0.59255 0.0
H620 H 0.35225 0.23631 0.5302 0.0
H621 H 0.32417 0.09654 0.5736 0.0
H622 H 0.30151 0.1841 0.57529 0.0
H623 H 0.38076 0.15113 0.55171 0.0
C624 C 0.39174 0.18816 0.53592 0.0
C625 C 0.38414 0.21256 0.5294 0.0
C626 C 0.30663 0.16493 0.57497 0.0
C627 C 0.34967 0.176 0.55152 0.0
C628 C 0.28877 0.14746 0.58539 0.0
C629 C 0.29453 0.12239 0.58488 0.0
C630 C 0.33063 0.15748 0.56391 0.0
C631 C 0.31882 0.11562 0.57409 0.0
C632 C 0.37456 0.16981 0.54672 0.0
C633 C 0.35904 0.2178 0.53396 0.0
N634 N 0.33601 0.13307 0.56408 0.0
N635 N 0.34283 0.19976 0.54487 0.0
H636 H 0.80392 0.37549 0.45289 0.0
H637 H 0.88143 0.30908 0.6576 0.0
H638 H 0.80935 0.40549 0.59888 0.0
H639 H 0.90357 0.30757 0.50573 0.0
H640 H 0.85243 0.34218 0.63809 0.0
H641 H 0.83818 0.34782 0.47178 0.0
C642 C 0.81249 0.37633 0.48874 0.0
C643 C 0.80387 0.39273 0.52438 0.0
C644 C 0.86389 0.33477 0.60922 0.0
C645 C 0.84256 0.361 0.54657 0.0
C646 C 0.88031 0.3159 0.6203 0.0
C647 C 0.89488 0.30564 0.58322 0.0
C648 C 0.8616 0.34294 0.56049 0.0
C649 C 0.89283 0.31511 0.53542 0.0
C650 C 0.83203 0.36067 0.49946 0.0
C651 C 0.81559 0.39323 0.57032 0.0
N652 N 0.87622 0.33297 0.52524 0.0
N653 N 0.83411 0.37732 0.58041 0.0
H654 H 0.65203 0.77195 0.50965 0.0
H655 H 0.68091 0.91246 0.57027 0.0
H656 H 0.59451 0.82537 0.52881 0.0
H657 H 0.73332 0.85356 0.58244 0.0
H658 H 0.64911 0.88229 0.54921 0.0
H659 H 0.68224 0.80318 0.52894 0.0
C660 C 0.6457 0.79034 0.51729 0.0
C661 C 0.6206 0.79599 0.5173 0.0
C662 C 0.66757 0.87605 0.5568 0.0
C663 C 0.65537 0.83204 0.54046 0.0
C664 C 0.68572 0.89324 0.56866 0.0
C665 C 0.70983 0.88556 0.57846 0.0
C666 C 0.67368 0.85106 0.5541 0.0
C667 C 0.71499 0.86038 0.57606 0.0
C668 C 0.66302 0.80818 0.52887 0.0
C669 C 0.61364 0.82015 0.52867 0.0
N670 N 0.69715 0.84414 0.56393 0.0
N671 N 0.63094 0.83733 0.53972 0.0
H672 H 0.18303 0.05155 1.00254 0.0
H673 H 0.12443 0.16132 0.15732 0.0
H674 H 0.20246 0.06833 0.1523 0.0
H675 H 0.11064 0.15042 1.00263 0.0
H676 H 0.15536 0.12897 0.15429 0.0
H677 H 0.15909 0.08966 0.999 0.0
C678 C 0.18264 0.0635 0.03426 0.0
C679 C 0.19436 0.05665 0.07799 0.0
C680 C 0.14563 0.13373 0.12093 0.0
C681 C 0.16685 0.09987 0.07472 0.0
C682 C 0.12799 0.15226 0.12266 0.0
C683 C 0.11458 0.15838 0.08041 0.0
C684 C 0.14989 0.12113 0.07665 0.0
C685 C 0.12 0.14589 0.03651 0.0
C686 C 0.16885 0.08513 0.03244 0.0
C687 C 0.19321 0.07271 0.11822 0.0
N688 N 0.13706 0.12777 0.03587 0.0
N689 N 0.17948 0.09339 0.11581 0.0
H690 H 0.96981 0.16756 1.00996 0.0
H691 H 0.83271 0.13996 0.09761 0.0
H692 H 0.93324 0.21138 0.11896 0.0
H693 H 0.8826 0.08355 0.04852 0.0
H694 H 0.8661 0.16978 0.09188 0.0
H695 H 0.93373 0.14045 1.00656 0.0
C696 C 0.95386 0.1718 0.03202 0.0
C697 C 0.95426 0.19162 0.06464 0.0
C698 C 0.8696 0.15085 0.08227 0.0
C699 C 0.91338 0.16087 0.06159 0.0
C700 C 0.85063 0.13371 0.08605 0.0
C701 C 0.85466 0.10905 0.07345 0.0
C702 C 0.89268 0.1434 0.06509 0.0
C703 C 0.87831 0.10235 0.05767 0.0
C704 C 0.93348 0.15625 1.03062 0.0
C705 C 0.93343 0.19622 0.09335 0.0
N706 N 0.89632 0.11942 0.05367 0.0
N707 N 0.91381 0.18093 0.09129 0.0
H708 H 0.89953 0.8563 0.99311 0.0
H709 H 0.80485 0.93794 0.14574 0.0
H710 H 0.88442 0.84636 0.1475 0.0
H711 H 0.82802 0.95608 0.99891 0.0
H712 H 0.82868 0.90019 0.14176 0.0
H713 H 0.86917 0.8891 0.99034 0.0
C714 C 0.88994 0.86107 1.02657 0.0
C715 C 0.89495 0.84877 0.07092 0.0
C716 C 0.82843 0.91223 0.11014 0.0
C717 C 0.85963 0.88608 0.06751 0.0
C718 C 0.81478 0.93376 0.11236 0.0
C719 C 0.81479 0.95028 0.07283 0.0
C720 C 0.84234 0.90712 0.06809 0.0
C721 C 0.82757 0.9438 1.03013 0.0
C722 C 0.87243 0.87969 1.02476 0.0
C723 C 0.88125 0.85527 0.11254 0.0
N724 N 0.84114 0.92283 1.02909 0.0
N725 N 0.86436 0.87356 0.10986 0.0
H726 H 0.17712 0.86682 0.09655 0.0
H727 H 0.03982 0.84037 1.00876 0.0
H728 H 0.1268 0.92394 0.05245 0.0
H729 H 0.07628 0.79537 0.11614 0.0
H730 H 0.07596 0.86743 1.00656 0.0
H731 H 0.14373 0.83705 0.0896 0.0
C732 C 0.15911 0.87323 0.08585 0.0
C733 C 0.15495 0.89808 0.07497 0.0
C734 C 0.07618 0.85137 1.02995 0.0
C735 C 0.11696 0.86382 0.06514 0.0
C736 C 0.05578 0.83586 1.03065 0.0
C737 C 0.05535 0.81572 0.06247 0.0
C738 C 0.09628 0.84639 0.06081 0.0
C739 C 0.07616 0.81077 0.09108 0.0
C740 C 0.14015 0.85613 0.08136 0.0
C741 C 0.13119 0.905 0.06022 0.0
N742 N 0.09581 0.82603 0.0897 0.0
N743 N 0.11319 0.88797 0.05545 0.0
H744 H 0.21644 0.93017 0.49316 0.0
H745 H 0.07955 0.88615 0.53386 0.0
H746 H 0.16471 0.97198 0.57786 0.0
H747 H 0.13821 0.83526 0.50292 0.0
H748 H 0.10986 0.9186 0.5448 0.0
H749 H 0.18793 0.89542 0.49306 0.0
C750 C 0.19925 0.93168 0.51281 0.0
C751 C 0.1929 0.95367 0.53606 0.0
C752 C 0.11606 0.9003 0.53572 0.0
C753 C 0.15983 0.91461 0.53448 0.0
C754 C 0.09876 0.88171 0.52936 0.0
C755 C 0.10621 0.85775 0.51752 0.0
C756 C 0.14104 0.8951 0.52951 0.0
C757 C 0.13143 0.85343 0.51118 0.0
C758 C 0.18295 0.912 0.51249 0.0
C759 C 0.17032 0.9551 0.5603 0.0
N760 N 0.14789 0.87191 0.51712 0.0
N761 N 0.15437 0.93593 0.55826 0.0
H762 H 0.04589 0.1778 0.59661 0.0
H763 H 0.15643 0.11963 0.44199 0.0
H764 H 0.06226 0.1966 0.44636 0.0
H765 H 0.14428 0.10444 0.59572 0.0
H766 H 0.12323 0.14967 0.44449 0.0
H767 H 0.08347 0.15302 0.59944 0.0
C768 C 0.0576 0.17704 0.56457 0.0
C769 C 0.0508 0.18895 0.521 0.0
C770 C 0.12786 0.13979 0.47773 0.0
C771 C 0.09348 0.16047 0.52353 0.0
C772 C 0.14688 0.12266 0.4763 0.0
C773 C 0.15301 0.10919 0.51848 0.0
C774 C 0.11481 0.14354 0.52165 0.0
C775 C 0.13983 0.11388 0.5619 0.0
C776 C 0.07893 0.16276 0.56599 0.0
C777 C 0.06656 0.18726 0.48036 0.0
N778 N 0.12132 0.13055 0.56229 0.0
N779 N 0.08699 0.17313 0.48247 0.0
H780 H 0.82346 0.04779 0.60438 0.0
H781 H 0.8764 0.162 0.45485 0.0
H782 H 0.79808 0.06934 0.46075 0.0
H783 H 0.89476 0.14758 0.60648 0.0
H784 H 0.8456 0.12959 0.45861 0.0
H785 H 0.84727 0.08594 0.60925 0.0
C786 C 0.82249 0.0608 0.57441 0.0
C787 C 0.80912 0.05529 0.53182 0.0
C788 C 0.85629 0.13359 0.49117 0.0
C789 C 0.83652 0.09858 0.53652 0.0
C790 C 0.87386 0.15218 0.48905 0.0
C791 C 0.88852 0.15735 0.53013 0.0
C792 C 0.85336 0.11995 0.53464 0.0
C793 C 0.8844 0.14383 0.5734 0.0
C794 C 0.83621 0.08246 0.57694 0.0
C795 C 0.80859 0.07269 0.49381 0.0
N796 N 0.86739 0.12565 0.57439 0.0
N797 N 0.82231 0.09336 0.49679 0.0
H798 H 0.97224 0.84025 0.58202 0.0
H799 H 0.83228 0.86575 0.51071 0.0
H800 H 0.92966 0.79068 0.49347 0.0
H801 H 0.88445 0.92354 0.54003 0.0
H802 H 0.86533 0.8358 0.51846 0.0
H803 H 0.93702 0.86848 0.58469 0.0
C804 C 0.95518 0.83506 0.5645 0.0
C805 C 0.9536 0.81321 0.53773 0.0
C806 C 0.86945 0.85506 0.52322 0.0
C807 C 0.91368 0.84522 0.5398 0.0
C808 C 0.85065 0.87226 0.5182 0.0
C809 C 0.85544 0.89738 0.52454 0.0
C810 C 0.89319 0.86291 0.53536 0.0
C811 C 0.87965 0.90444 0.53558 0.0
C812 C 0.93528 0.85122 0.56539 0.0
C813 C 0.93138 0.80739 0.5146 0.0
N814 N 0.89756 0.88731 0.54085 0.0
N815 N 0.91228 0.82333 0.51601 0.0
H816 H 0.66285 0.53503 0.51137 0.0
H817 H 0.63987 0.67521 0.58322 0.0
H818 H 0.71462 0.57711 0.59562 0.0
H819 H 0.58133 0.62302 0.56079 0.0
H820 H 0.66958 0.64212 0.57265 0.0
H821 H 0.63509 0.57064 0.51002 0.0
C822 C 0.66864 0.5521 0.52799 0.0
C823 C 0.69097 0.55346 0.55319 0.0
C824 C 0.6502 0.63802 0.57 0.0
C825 C 0.65949 0.59376 0.55288 0.0
C826 C 0.63316 0.65683 0.57666 0.0
C827 C 0.60789 0.65204 0.57306 0.0
C828 C 0.64201 0.61428 0.55892 0.0
C829 C 0.60053 0.62782 0.56312 0.0
C830 C 0.65275 0.57221 0.52794 0.0
C831 C 0.69756 0.57564 0.57548 0.0
N832 N 0.61749 0.60991 0.55617 0.0
N833 N 0.68186 0.59495 0.57501 0.0
H834 H 0.36259 0.60486 0.49957 0.0
H835 H 0.43629 0.70938 0.64269 0.0
H836 H 0.34903 0.62507 0.65051 0.0
H837 H 0.46003 0.67981 0.50391 0.0
H838 H 0.40002 0.68329 0.63954 0.0
H839 H 0.39472 0.63586 0.49535 0.0
C840 C 0.36647 0.61563 0.53205 0.0
C841 C 0.35325 0.61197 0.57583 0.0
C842 C 0.41299 0.68261 0.60948 0.0
C843 C 0.38971 0.64809 0.57055 0.0
C844 C 0.43365 0.69755 0.61119 0.0
C845 C 0.45131 0.69648 0.57381 0.0
C846 C 0.40989 0.66636 0.57007 0.0
C847 C 0.44682 0.68119 0.53341 0.0
C848 C 0.3847 0.63352 0.52935 0.0
C849 C 0.35863 0.62718 0.61599 0.0
N850 N 0.42665 0.66646 0.53286 0.0
N851 N 0.37648 0.64448 0.61241 0.0
H852 H 0.34219 0.47181 0.51889 0.0
H853 H 0.36974 0.33443 0.60457 0.0
H854 H 0.29437 0.43197 0.61592 0.0
H855 H 0.42687 0.38593 0.56677 0.0
H856 H 0.33956 0.36721 0.59584 0.0
H857 H 0.37079 0.43685 0.51949 0.0
C858 C 0.33746 0.45538 0.53907 0.0
C859 C 0.31599 0.45452 0.56718 0.0
C860 C 0.35874 0.37125 0.58951 0.0
C861 C 0.34842 0.41492 0.56877 0.0
C862 C 0.37608 0.35262 0.59509 0.0
C863 C 0.40107 0.35727 0.58653 0.0
C864 C 0.3663 0.39467 0.57455 0.0
C865 C 0.40786 0.38122 0.57298 0.0
C866 C 0.35383 0.43564 0.54002 0.0
C867 C 0.31078 0.43312 0.59371 0.0
N868 N 0.39059 0.39895 0.56713 0.0
N869 N 0.3269 0.41415 0.59397 0.0
H870 H 0.53597 0.33997 0.51387 0.0
H871 H 0.6744 0.36749 0.59533 0.0
H872 H 0.5782 0.29102 0.60454 0.0
H873 H 0.62303 0.42394 0.55292 0.0
H874 H 0.64182 0.33706 0.58653 0.0
H875 H 0.57103 0.36838 0.51172 0.0
C876 C 0.55294 0.33493 0.53193 0.0
C877 C 0.55443 0.31323 0.55922 0.0
C878 C 0.63775 0.35614 0.57915 0.0
C879 C 0.59415 0.34552 0.55796 0.0
C880 C 0.65627 0.3736 0.58475 0.0
C881 C 0.65157 0.39845 0.57496 0.0
C882 C 0.61439 0.36346 0.56315 0.0
C883 C 0.62773 0.40502 0.56016 0.0
C884 C 0.57275 0.35121 0.53138 0.0
C885 C 0.57653 0.30762 0.58303 0.0
N886 N 0.6101 0.38765 0.55453 0.0
N887 N 0.59551 0.32371 0.58209 0.0
H888 H 0.68355 0.45746 0.10024 0.0
H889 H 0.6257 0.34603 0.9481 0.0
H890 H 0.69993 0.44224 0.94841 0.0
H891 H 0.61381 0.35661 0.10343 0.0
H892 H 0.65544 0.37951 0.94931 0.0
H893 H 0.66069 0.41872 0.10467 0.0
C894 C 0.68268 0.44577 0.06816 0.0
C895 C 0.69328 0.45323 1.02371 0.0
C896 C 0.64641 0.37443 0.98321 0.0
C897 C 0.667 0.4092 1.02809 0.0
C898 C 0.62947 0.35523 0.98253 0.0
C899 C 0.6169 0.34868 1.02551 0.0
C900 C 0.65083 0.38727 1.02717 0.0
C901 C 0.62253 0.36141 0.06906 0.0
C902 C 0.66951 0.42376 0.07052 0.0
C903 C 0.69153 0.43745 0.98309 0.0
N904 N 0.6389 0.38018 0.06868 0.0
N905 N 0.67846 0.41636 0.98611 0.0
H906 H 0.56678 0.70267 0.94829 0.0
H907 H 0.65091 0.61212 0.10595 0.0
H908 H 0.55061 0.6826 0.09791 0.0
H909 H 0.66024 0.62526 0.95069 0.0
H910 H 0.61766 0.64203 0.10723 0.0
H911 H 0.60485 0.67937 0.95282 0.0
C912 C 0.57141 0.69348 0.98231 0.0
C913 C 0.55537 0.69421 1.02256 0.0
C914 C 0.62704 0.63845 0.07294 0.0
C915 C 0.59895 0.66736 1.02801 0.0
C916 C 0.64593 0.62122 0.07202 0.0
C917 C 0.65817 0.61579 1.02787 0.0
C918 C 0.62032 0.6505 1.02946 0.0
C919 C 0.65138 0.6288 0.98552 0.0
C920 C 0.59315 0.68018 0.98488 0.0
C921 C 0.56248 0.68245 0.06609 0.0
N922 N 0.63281 0.6454 0.98732 0.0
N923 N 0.58365 0.66921 0.0675 0.0
H924 H 0.30806 0.56596 0.9441 0.0
H925 H 0.39627 0.65142 0.10408 0.0
H926 H 0.32653 0.55078 0.09505 0.0
H927 H 0.38395 0.66077 0.94852 0.0
H928 H 0.36672 0.61786 0.10459 0.0
H929 H 0.33098 0.60424 0.94881 0.0
C930 C 0.31684 0.57083 0.97842 0.0
C931 C 0.31575 0.555 1.01904 0.0
C932 C 0.37039 0.62731 0.07039 0.0
C933 C 0.34214 0.59887 1.02473 0.0
C934 C 0.38741 0.64638 0.06992 0.0
C935 C 0.39299 0.6587 1.02593 0.0
C936 C 0.3587 0.62046 1.02659 0.0
C937 C 0.3803 0.65183 0.98324 0.0
C938 C 0.32991 0.5927 0.98111 0.0
C939 C 0.32696 0.56246 0.06294 0.0
N940 N 0.3639 0.63306 0.98459 0.0
N941 N 0.33997 0.58375 0.06447 0.0
H942 H 0.45953 0.32535 0.10153 0.0
H943 H 0.34773 0.38204 0.94828 0.0
H944 H 0.443 0.30673 0.95125 0.0
H945 H 0.35973 0.39681 0.10225 0.0
H946 H 0.38083 0.35191 0.95082 0.0
H947 H 0.4211 0.34883 0.10545 0.0
C948 C 0.4476 0.32585 0.06974 0.0
C949 C 0.4546 0.31444 1.0258 0.0
C950 C 0.37616 0.36167 0.98415 0.0
C951 C 0.41096 0.34141 1.02956 0.0
C952 C 0.35717 0.37884 0.98271 0.0
C953 C 0.35111 0.3923 1.02488 0.0
C954 C 0.38928 0.3579 1.02804 0.0
C955 C 0.36415 0.38738 0.06844 0.0
C956 C 0.42578 0.33937 0.07178 0.0
C957 C 0.43854 0.31573 0.9855 0.0
N958 N 0.3827 0.37075 0.0688 0.0
N959 N 0.41766 0.32915 0.98819 0.0
H960 H 0.00538 0.26515 0.44641 0.0
H961 H 0.99911 0.26989 0.1548 0.0
H962 H 0.93837 0.2809 0.3681 0.0
H963 H 0.06649 0.28106 0.23494 0.0
H964 H 0.97641 0.27224 0.23222 0.0
H965 H 0.02812 0.26916 0.36933 0.0
C966 C 0.99545 0.26965 0.41311 0.0
C967 C 0.96988 0.27265 0.41382 0.0
C968 C 0.99613 0.27445 0.23279 0.0
C969 C 0.99583 0.27697 0.32523 0.0
C970 C 0.00912 0.27307 0.1886 0.0
C971 C 0.03478 0.27522 0.1883 0.0
C972 C 0.00888 0.27759 0.27722 0.0
C973 C 0.04673 0.27937 0.2333 0.0
C974 C 0.00848 0.27198 0.36912 0.0
C975 C 0.95805 0.27848 0.36943 0.0
N976 N 0.03373 0.28012 0.27595 0.0
N977 N 0.97107 0.28018 0.32691 0.0
H978 H 0.73788 0.00422 0.44837 0.0
H979 H 0.74236 0.99779 0.1563 0.0
H980 H 0.72872 0.93669 0.36803 0.0
H981 H 0.72872 0.06508 0.23489 0.0
H982 H 0.73831 0.9751 0.23338 0.0
H983 H 0.73535 0.02692 0.37096 0.0
C984 C 0.7351 0.99416 0.41451 0.0
C985 C 0.73362 0.96845 0.4148 0.0
C986 C 0.73596 0.9948 0.23371 0.0
C987 C 0.73097 0.9944 0.32579 0.0
C988 C 0.73831 0.0078 0.18967 0.0
C989 C 0.73593 0.03344 0.18899 0.0
C990 C 0.73155 0.0075 0.27772 0.0
C991 C 0.73065 0.04535 0.23352 0.0
C992 C 0.73362 0.00716 0.3703 0.0
C993 C 0.72991 0.95646 0.36971 0.0
N994 N 0.7289 0.03233 0.27609 0.0
N995 N 0.72901 0.96949 0.32705 0.0
H996 H 0.94294 0.7229 0.2301 0.0
H997 H 0.07377 0.73123 0.36403 0.0
H998 H 0.01028 0.73973 0.15416 0.0
H999 H 0.00484 0.73279 0.44153 0.0
H1000 H 0.05137 0.72718 0.28643 0.0
H1001 H 0.96598 0.71948 0.30699 0.0
C1002 C 0.96261 0.72561 0.2294 0.0
C1003 C 0.97462 0.73182 0.18549 0.0
C1004 C 0.04116 0.72821 0.32046 0.0
C1005 C 1.00116 0.72792 0.27371 0.0
C1006 C 0.05394 0.73036 0.36487 0.0
C1007 C 0.04118 0.73258 0.40945 0.0
C1008 C 0.01539 0.72803 0.32051 0.0
C1009 C 0.01545 0.73142 0.40805 0.0
C1010 C 0.97574 0.72376 0.27344 0.0
C1011 C 1.00017 0.73515 0.1871 0.0
N1012 N 1.00343 0.72933 0.36438 0.0
N1013 N 0.01254 0.73323 0.23042 0.0
H1014 H 0.27432 1.00241 0.45174 0.0
H1015 H 0.26677 0.00917 0.15959 0.0
H1016 H 0.27929 0.07026 0.37103 0.0
H1017 H 0.2819 0.94196 0.23755 0.0
H1018 H 0.27104 0.03179 0.23663 0.0
H1019 H 0.27704 0.97981 0.37418 0.0
C1020 C 0.27623 0.01256 0.41775 0.0
C1021 C 0.27638 0.0383 0.41796 0.0
C1022 C 0.27366 0.01213 0.23685 0.0
C1023 C 0.2793 0.01251 0.32883 0.0
C1024 C 0.27119 0.99916 0.19281 0.0
C1025 C 0.27391 0.97355 0.19196 0.0
C1026 C 0.27859 0.99945 0.28071 0.0
C1027 C 0.27967 0.96166 0.23631 0.0
C1028 C 0.27781 0.99964 0.37346 0.0
C1029 C 0.2791 0.05044 0.37276 0.0
N1030 N 0.28157 0.97465 0.27889 0.0
N1031 N 0.28015 0.03748 0.33007 0.0
H1032 H 0.03468 0.73954 0.9318 0.0
H1033 H 0.05589 0.72234 0.68551 0.0
H1034 H 0.95818 0.72861 0.9 0.0
H1035 H 0.98043 0.74444 0.67292 0.0
H1036 H 0.04871 0.71089 0.77139 0.0
H1037 H 0.04458 0.72833 0.84706 0.0
C1038 C 0.02012 0.73347 0.90759 0.0
C1039 C 0.99566 0.73459 0.92294 0.0
C1040 C 0.03355 0.71778 0.74977 0.0
C1041 C 0.00656 0.72244 0.82528 0.0
C1042 C 0.03752 0.72376 0.70038 0.0
C1043 C 0.0186 0.73398 0.67205 0.0
C1044 C 0.01057 0.72252 0.77111 0.0
C1045 C 0.99536 0.7362 0.69334 0.0
C1046 C 0.0257 0.72719 0.85889 0.0
C1047 C 0.97732 0.72759 0.88959 0.0
N1048 N 0.99207 0.73083 0.74174 0.0
N1049 N 0.98308 0.72234 0.84216 0.0
H1050 H 0.27531 0.05735 0.69682 0.0
H1051 H 0.28371 0.96059 0.9154 0.0
H1052 H 0.26928 0.97928 0.67807 0.0
H1053 H 0.26419 0.03644 0.93352 0.0
H1054 H 0.29445 0.9688 0.82951 0.0
H1055 H 0.28719 0.051 0.78276 0.0
C1056 C 0.27764 0.0388 0.71031 0.0
C1057 C 0.27169 0.01877 0.68028 0.0
C1058 C 0.2887 0.98386 0.8527 0.0
C1059 C 0.28441 0.01138 0.77893 0.0
C1060 C 0.28294 0.97927 0.90192 0.0
C1061 C 0.27347 0.99799 0.9317 0.0
C1062 C 0.28482 0.00733 0.83308 0.0
C1063 C 0.27192 0.02166 0.91201 0.0
C1064 C 0.2841 0.0352 0.75949 0.0
C1065 C 0.27418 0.99515 0.69983 0.0
N1066 N 0.27719 0.02561 0.86372 0.0
N1067 N 0.28004 0.99209 0.74817 0.0
H1068 H 0.97742 0.26862 0.93145 0.0
H1069 H 0.03322 0.26434 0.66661 0.0
H1070 H 0.05474 0.27503 0.90295 0.0
H1071 H 0.95628 0.27521 0.69371 0.0
H1072 H 0.04196 0.27654 0.7516 0.0
H1073 H 0.9691 0.27937 0.84541 0.0
C1074 C 0.99256 0.27343 0.9076 0.0
C1075 C 0.01675 0.2712 0.92419 0.0
C1076 C 0.0232 0.27709 0.73863 0.0
C1077 C 0.0076 0.28228 0.82534 0.0
C1078 C 0.01831 0.27042 0.68986 0.0
C1079 C 0.99407 0.26911 0.67318 0.0
C1080 C 1.00362 0.28179 0.77108 0.0
C1081 C 0.97527 0.27631 0.70523 0.0
C1082 C 0.98788 0.27926 0.85827 0.0
C1083 C 0.0358 0.2768 0.89145 0.0
N1084 N 0.98036 0.28184 0.75287 0.0
N1085 N 0.03088 0.28159 0.84343 0.0
H1086 H 0.73601 0.02782 0.67039 0.0
H1087 H 0.74083 0.97185 0.93471 0.0
H1088 H 0.73164 0.95033 0.69831 0.0
H1089 H 0.72796 0.04846 0.9075 0.0
H1090 H 0.72879 0.96282 0.84976 0.0
H1091 H 0.72437 0.03567 0.75604 0.0
C1092 C 0.73143 0.0125 0.69399 0.0
C1093 C 0.73446 0.98843 0.67733 0.0
C1094 C 0.72773 0.98155 0.86272 0.0
C1095 C 0.72244 0.99707 0.77589 0.0
C1096 C 0.73429 0.9866 0.9115 0.0
C1097 C 0.73504 0.01086 0.92813 0.0
C1098 C 0.72259 1.001 0.83019 0.0
C1099 C 0.72728 0.02946 0.89606 0.0
C1100 C 0.7251 0.01692 0.74312 0.0
C1101 C 0.72918 0.96917 0.70981 0.0
N1102 N 0.72189 0.02424 0.8484 0.0
N1103 N 0.72394 0.97387 0.75772 0.0
H1104 H 0.50905 0.76568 0.94347 0.0
H1105 H 0.50276 0.7722 0.65152 0.0
H1106 H 0.44258 0.78342 0.86502 0.0
H1107 H 0.57074 0.77815 0.73178 0.0
H1108 H 0.48028 0.77524 0.72904 0.0
H1109 H 0.53194 0.76898 0.86646 0.0
C1110 C 0.49927 0.77045 0.91016 0.0
C1111 C 0.47379 0.77421 0.91084 0.0
C1112 C 0.5001 0.77615 0.72967 0.0
C1113 C 0.49994 0.77778 0.82225 0.0
C1114 C 0.51297 0.77439 0.68539 0.0
C1115 C 0.53872 0.77483 0.68505 0.0
C1116 C 0.51303 0.77804 0.77419 0.0
C1117 C 0.55092 0.77779 0.73016 0.0
C1118 C 0.51239 0.77239 0.86618 0.0
C1119 C 0.46218 0.78041 0.86641 0.0
N1120 N 0.538 0.77898 0.7729 0.0
N1121 N 0.47528 0.78174 0.82392 0.0
H1122 H 0.24412 0.50858 0.94094 0.0
H1123 H 0.23418 0.50259 0.64916 0.0
H1124 H 0.22581 0.44212 0.86322 0.0
H1125 H 0.22952 0.5704 0.73001 0.0
H1126 H 0.23195 0.47997 0.72678 0.0
H1127 H 0.2399 0.5315 0.86407 0.0
C1128 C 0.23904 0.4988 0.90783 0.0
C1129 C 0.23538 0.47332 0.90868 0.0
C1130 C 0.23113 0.49979 0.72752 0.0
C1131 C 0.23075 0.49951 0.82022 0.0
C1132 C 0.23243 0.51273 0.6832 0.0
C1133 C 0.23216 0.53846 0.683 0.0
C1134 C 0.22988 0.51264 0.77219 0.0
C1135 C 0.22973 0.55059 0.72828 0.0
C1136 C 0.23658 0.51193 0.86393 0.0
C1137 C 0.22878 0.46172 0.86448 0.0
N1138 N 0.229 0.5376 0.77101 0.0
N1139 N 0.22693 0.47484 0.82205 0.0
H1140 H 0.56675 0.22244 0.86831 0.0
H1141 H 0.43569 0.23127 0.73563 0.0
H1142 H 0.50021 0.24254 0.94388 0.0
H1143 H 0.5043 0.23302 0.65701 0.0
H1144 H 0.45842 0.22783 0.81295 0.0
H1145 H 0.54343 0.219 0.79172 0.0
C1146 C 0.5472 0.22587 0.86901 0.0
C1147 C 0.53549 0.23293 0.91274 0.0
C1148 C 0.46849 0.22877 0.77874 0.0
C1149 C 0.50864 0.22894 0.8249 0.0
C1150 C 0.45553 0.23055 0.73448 0.0
C1151 C 0.46809 0.23263 0.68964 0.0
C1152 C 0.49425 0.22876 0.77829 0.0
C1153 C 0.49384 0.2317 0.69067 0.0
C1154 C 0.53392 0.224 0.82514 0.0
C1155 C 0.51008 0.2372 0.91111 0.0
N1156 N 0.50604 0.22993 0.73421 0.0
N1157 N 0.49755 0.23517 0.86799 0.0
H1158 H 0.77632 0.4371 0.73164 0.0
H1159 H 0.78282 0.56743 0.86673 0.0
H1160 H 0.76995 0.50604 0.65498 0.0
H1161 H 0.76487 0.5001 0.94176 0.0
H1162 H 0.78581 0.54463 0.78951 0.0
H1163 H 0.77994 0.45948 0.8093 0.0
C1164 C 0.77602 0.45694 0.73098 0.0
C1165 C 0.77267 0.46969 0.68663 0.0
C1166 C 0.78138 0.53484 0.82295 0.0
C1167 C 0.77681 0.49541 0.77557 0.0
C1168 C 0.77978 0.54782 0.86716 0.0
C1169 C 0.77345 0.53571 0.9109 0.0
C1170 C 0.77692 0.50949 0.82243 0.0
C1171 C 0.76965 0.51025 0.90896 0.0
C1172 C 0.77794 0.46969 0.77541 0.0
C1173 C 0.77233 0.49543 0.68825 0.0
N1174 N 0.77142 0.49801 0.86552 0.0
N1175 N 0.77431 0.50742 0.73193 0.0
H1176 H 0.47441 0.24061 0.16329 0.0
H1177 H 0.5242 0.23346 0.43542 0.0
H1178 H 0.55045 0.22995 0.19977 0.0
H1179 H 0.44758 0.2364 0.39798 0.0
H1180 H 0.53358 0.22229 0.35002 0.0
H1181 H 0.4633 0.22925 0.24767 0.0
C1182 C 0.48864 0.23477 0.18849 0.0
C1183 C 0.51331 0.23593 0.17462 0.0
C1184 C 0.51461 0.22459 0.36075 0.0
C1185 C 0.50102 0.22411 0.27176 0.0
C1186 C 0.50929 0.23064 0.40971 0.0
C1187 C 0.48511 0.23565 0.42363 0.0
C1188 C 0.49561 0.22399 0.32556 0.0
C1189 C 0.46648 0.23252 0.38857 0.0
C1190 C 0.48239 0.2286 0.23692 0.0
C1191 C 0.53117 0.22901 0.20911 0.0
N1192 N 0.47212 0.22733 0.34107 0.0
N1193 N 0.52475 0.22384 0.25625 0.0
H1194 H 0.77098 0.52777 0.43059 0.0
H1195 H 0.76786 0.47367 0.16396 0.0
H1196 H 0.77618 0.4506 0.39974 0.0
H1197 H 0.77771 0.55045 0.19402 0.0
H1198 H 0.77991 0.46434 0.24883 0.0
H1199 H 0.78252 0.53655 0.34521 0.0
C1200 C 0.77572 0.51273 0.40641 0.0
C1201 C 0.77287 0.48847 0.42211 0.0
C1202 C 0.78027 0.48321 0.23654 0.0
C1203 C 0.78484 0.49817 0.32393 0.0
C1204 C 0.77369 0.48844 0.18783 0.0
C1205 C 0.77209 0.51279 0.17205 0.0
C1206 C 0.78461 0.50256 0.26978 0.0
C1207 C 0.779 0.53139 0.20487 0.0
C1208 C 0.78199 0.51767 0.35743 0.0
C1209 C 0.77841 0.46958 0.38894 0.0
N1210 N 0.78447 0.52596 0.25239 0.0
N1211 N 0.78362 0.47479 0.34124 0.0
H1212 H 0.47655 0.77053 0.42854 0.0
H1213 H 0.53533 0.76536 0.16743 0.0
H1214 H 0.55435 0.77597 0.40512 0.0
H1215 H 0.45872 0.78022 0.19029 0.0
H1216 H 0.54353 0.77703 0.25292 0.0
H1217 H 0.4697 0.78196 0.34243 0.0
C1218 C 0.49212 0.77532 0.40581 0.0
C1219 C 0.516 0.77271 0.42396 0.0
C1220 C 0.52502 0.7786 0.2389 0.0
C1221 C 0.50853 0.78442 0.32479 0.0
C1222 C 0.52044 0.77224 0.18984 0.0
C1223 C 0.49641 0.77223 0.17176 0.0
C1224 C 0.50528 0.78426 0.2703 0.0
C1225 C 0.47758 0.78037 0.20283 0.0
C1226 C 0.48829 0.78153 0.35642 0.0
C1227 C 0.53563 0.77818 0.39253 0.0
N1228 N 0.4823 0.78555 0.2508 0.0
N1229 N 0.53151 0.78326 0.34428 0.0
H1230 H 0.22796 0.45947 0.18484 0.0
H1231 H 0.23256 0.55616 0.40412 0.0
H1232 H 0.24678 0.53556 0.16759 0.0
H1233 H 0.2408 0.47829 0.42282 0.0
H1234 H 0.22173 0.54958 0.3177 0.0
H1235 H 0.21665 0.46741 0.27055 0.0
C1236 C 0.2285 0.47812 0.19849 0.0
C1237 C 0.23789 0.49701 0.16899 0.0
C1238 C 0.22505 0.53385 0.34105 0.0
C1239 C 0.22583 0.50606 0.26737 0.0
C1240 C 0.2309 0.53757 0.39051 0.0
C1241 C 0.23718 0.51768 0.42069 0.0
C1242 C 0.22565 0.51006 0.32152 0.0
C1243 C 0.23559 0.49403 0.40095 0.0
C1244 C 0.2224 0.48256 0.24758 0.0
C1245 C 0.23913 0.52064 0.18887 0.0
N1246 N 0.2303 0.49087 0.35238 0.0
N1247 N 0.23348 0.52446 0.23704 0.0
loop_
_geom_bond_atom_site_label_1
_geom_bond_atom_site_label_2
_geom_bond_distance
_geom_bond_site_symmetry_2
_ccdc_geom_bond_type
C0 C1 1.351 . S
C0 N3 1.368 . S
C0 H5 0.931 . S
C1 C0 1.351 . S
C1 N2 1.373 1_556 S
C1 H29 0.930 . S
N2 C1 1.373 1_554 S
N2 C4 1.340 . S
N3 C0 1.368 . S
N3 C4 1.321 1_556 S
N3 Co6 2.135 1_556 S
C4 N2 1.340 . S
C4 N3 1.321 1_554 S
C4 H28 0.930 . S
H5 C0 0.931 . S
Co6 N3 2.135 1_554 S
Co6 N9 2.121 1_455 S
Co6 O14 2.055 1_554 S
Co6 O17 2.039 . S
Co6 N20 2.140 . S
C7 O8 1.227 . S
C7 O17 1.265 . S
O8 C7 1.227 . S
N9 Co6 2.121 1_655 S
N9 C11 1.375 . S
N9 C12 1.313 1_554 S
C10 C11 1.338 . S
C10 N13 1.377 . S
C10 H30 0.930 . S
C11 N9 1.375 . S
C11 C10 1.338 . S
C11 H15 0.931 1_655 S
C12 N9 1.313 1_556 S
C12 N13 1.344 1_556 S
C12 H16 0.930 . S
N13 C10 1.377 . S
N13 C12 1.344 1_554 S
O14 Co6 2.055 1_556 S
O14 C18 1.253 . S
H15 C11 0.931 1_455 S
H16 C12 0.930 . S
O17 Co6 2.039 . S
O17 C7 1.265 . S
C18 O14 1.253 . S
C18 O19 1.227 . S
O19 C18 1.227 . S
N20 Co6 2.140 . S
N20 C23 1.346 . S
N20 C24 1.345 1_554 S
C21 C22 1.387 . S
C21 C25 1.391 1_554 S
C22 C21 1.387 . S
C22 C23 1.369 . S
C22 H31 0.929 . S
C23 N20 1.346 . S
C23 C22 1.369 . S
C23 H26 0.928 . S
C24 N20 1.345 1_556 S
C24 C25 1.371 . S
C24 H27 0.931 . S
C25 C21 1.391 1_556 S
C25 C24 1.371 . S
C25 H32 0.930 . S
H26 C23 0.928 . S
H27 C24 0.931 . S
H28 C4 0.930 . S
H29 C1 0.930 . S
H30 C10 0.930 . S
H31 C22 0.929 . S
H32 C25 0.930 . S
C33 C34 1.351 . S
C33 N36 1.368 . S
C33 H38 0.931 . S
C34 C33 1.351 . S
C34 N35 1.373 1_556 S
C34 H62 0.930 . S
N35 C34 1.373 1_554 S
N35 C37 1.340 . S
N36 C33 1.368 . S
N36 C37 1.321 1_556 S
N36 Co39 2.135 1_556 S
C37 N35 1.340 . S
C37 N36 1.321 1_554 S
C37 H61 0.930 . S
H38 C33 0.931 . S
Co39 N36 2.135 1_554 S
Co39 N42 2.121 1_545 S
Co39 O47 2.055 1_554 S
Co39 O50 2.039 . S
Co39 N53 2.140 . S
C40 O41 1.227 . S
C40 O50 1.265 . S
O41 C40 1.227 . S
N42 Co39 2.121 1_565 S
N42 C44 1.375 . S
N42 C45 1.313 1_554 S
C43 C44 1.338 . S
C43 N46 1.377 . S
C43 H63 0.930 . S
C44 N42 1.375 . S
C44 C43 1.338 . S
C44 H48 0.931 1_565 S
C45 N42 1.313 1_556 S
C45 N46 1.344 1_556 S
C45 H49 0.930 . S
N46 C43 1.377 . S
N46 C45 1.344 1_554 S
O47 Co39 2.055 1_556 S
O47 C51 1.253 . S
H48 C44 0.931 1_545 S
H49 C45 0.930 . S
O50 Co39 2.039 . S
O50 C40 1.265 . S
C51 O47 1.253 . S
C51 O52 1.227 . S
O52 C51 1.227 . S
N53 Co39 2.140 . S
N53 C56 1.346 . S
N53 C57 1.345 1_554 S
C54 C55 1.387 . S
C54 C58 1.391 1_554 S
C55 C54 1.387 . S
C55 C56 1.369 . S
C55 H64 0.929 . S
C56 N53 1.346 . S
C56 C55 1.369 . S
C56 H59 0.928 . S
C57 N53 1.345 1_556 S
C57 C58 1.371 . S
C57 H60 0.931 . S
C58 C54 1.391 1_556 S
C58 C57 1.371 . S
C58 H65 0.930 . S
H59 C56 0.928 . S
H60 C57 0.931 . S
H61 C37 0.930 . S
H62 C34 0.930 . S
H63 C43 0.930 . S
H64 C55 0.929 . S
H65 C58 0.930 . S
C66 C67 1.351 . S
C66 N69 1.368 . S
C66 H71 0.931 . S
C67 C66 1.351 . S
C67 N68 1.373 1_556 S
C67 H95 0.930 . S
N68 C67 1.373 1_554 S
N68 C70 1.340 . S
N69 C66 1.368 . S
N69 C70 1.321 1_556 S
N69 Co72 2.135 1_556 S
C70 N68 1.340 . S
C70 N69 1.321 1_554 S
C70 H94 0.930 . S
H71 C66 0.931 . S
Co72 N69 2.135 1_554 S
Co72 N75 2.121 1_655 S
Co72 O80 2.055 1_554 S
Co72 O83 2.039 . S
Co72 N86 2.140 . S
C73 O74 1.227 . S
C73 O83 1.265 . S
O74 C73 1.227 . S
N75 Co72 2.121 1_455 S
N75 C77 1.375 . S
N75 C78 1.313 1_554 S
C76 C77 1.338 . S
C76 N79 1.377 . S
C76 H96 0.930 . S
C77 N75 1.375 . S
C77 C76 1.338 . S
C77 H81 0.931 1_455 S
C78 N75 1.313 1_556 S
C78 N79 1.344 1_556 S
C78 H82 0.930 . S
N79 C76 1.377 . S
N79 C78 1.344 1_554 S
O80 Co72 2.055 1_556 S
O80 C84 1.253 . S
H81 C77 0.931 1_655 S
H82 C78 0.930 . S
O83 Co72 2.039 . S
O83 C73 1.265 . S
C84 O80 1.253 . S
C84 O85 1.227 . S
O85 C84 1.227 . S
N86 Co72 2.140 . S
N86 C89 1.346 . S
N86 C90 1.345 1_554 S
C87 C88 1.387 . S
C87 C91 1.391 1_554 S
C88 C87 1.387 . S
C88 C89 1.369 . S
C88 H97 0.929 . S
C89 N86 1.346 . S
C89 C88 1.369 . S
C89 H92 0.928 . S
C90 N86 1.345 1_556 S
C90 C91 1.371 . S
C90 H93 0.931 . S
C91 C87 1.391 1_556 S
C91 C90 1.371 . S
C91 H98 0.930 . S
H92 C89 0.928 . S
H93 C90 0.931 . S
H94 C70 0.930 . S
H95 C67 0.930 . S
H96 C76 0.930 . S
H97 C88 0.929 . S
H98 C91 0.930 . S
C99 C100 1.351 . S
C99 N102 1.368 . S
C99 H104 0.931 . S
C100 C99 1.351 . S
C100 N101 1.373 1_556 S
C100 H128 0.930 . S
N101 C100 1.373 1_554 S
N101 C103 1.340 . S
N102 C99 1.368 . S
N102 C103 1.321 1_556 S
N102 Co105 2.135 1_556 S
C103 N101 1.340 . S
C103 N102 1.321 1_554 S
C103 H127 0.930 . S
H104 C99 0.931 . S
Co105 N102 2.135 1_554 S
Co105 N108 2.121 1_565 S
Co105 O113 2.055 1_554 S
Co105 O116 2.039 . S
Co105 N119 2.140 . S
C106 O107 1.227 . S
C106 O116 1.265 . S
O107 C106 1.227 . S
N108 Co105 2.121 1_545 S
N108 C110 1.375 . S
N108 C111 1.313 1_554 S
C109 C110 1.338 . S
C109 N112 1.377 . S
C109 H129 0.930 . S
C110 N108 1.375 . S
C110 C109 1.338 . S
C110 H114 0.931 1_545 S
C111 N108 1.313 1_556 S
C111 N112 1.344 1_556 S
C111 H115 0.930 . S
N112 C109 1.377 . S
N112 C111 1.344 1_554 S
O113 Co105 2.055 1_556 S
O113 C117 1.253 . S
H114 C110 0.931 1_565 S
H115 C111 0.930 . S
O116 Co105 2.039 . S
O116 C106 1.265 . S
C117 O113 1.253 . S
C117 O118 1.227 . S
O118 C117 1.227 . S
N119 Co105 2.140 . S
N119 C122 1.346 . S
N119 C123 1.345 1_554 S
C120 C121 1.387 . S
C120 C124 1.391 1_554 S
C121 C120 1.387 . S
C121 C122 1.369 . S
C121 H130 0.929 . S
C122 N119 1.346 . S
C122 C121 1.369 . S
C122 H125 0.928 . S
C123 N119 1.345 1_556 S
C123 C124 1.371 . S
C123 H126 0.931 . S
C124 C120 1.391 1_556 S
C124 C123 1.371 . S
C124 H131 0.930 . S
H125 C122 0.928 . S
H126 C123 0.931 . S
H127 C103 0.930 . S
H128 C100 0.930 . S
H129 C109 0.930 . S
H130 C121 0.929 . S
H131 C124 0.930 . S
C132 C133 1.351 . S
C132 N135 1.368 . S
C132 H137 0.931 . S
C133 C132 1.351 . S
C133 N134 1.373 . S
C133 H161 0.930 . S
N134 C133 1.373 . S
N134 C136 1.340 . S
N135 C132 1.368 . S
N135 C136 1.321 . S
N135 Co138 2.135 . S
C136 N134 1.340 . S
C136 N135 1.321 . S
C136 H160 0.930 . S
H137 C132 0.931 . S
Co138 N135 2.135 . S
Co138 N141 2.121 1_455 S
Co138 O146 2.055 . S
Co138 O149 2.039 . S
Co138 N152 2.140 . S
C139 O140 1.227 . S
C139 O149 1.265 . S
O140 C139 1.227 . S
N141 Co138 2.121 1_655 S
N141 C143 1.375 . S
N141 C144 1.313 . S
C142 C143 1.338 . S
C142 N145 1.377 . S
C142 H162 0.930 . S
C143 N141 1.375 . S
C143 C142 1.338 . S
C143 H147 0.931 1_655 S
C144 N141 1.313 . S
C144 N145 1.344 . S
C144 H148 0.930 . S
N145 C142 1.377 . S
N145 C144 1.344 . S
O146 Co138 2.055 . S
O146 C150 1.253 . S
H147 C143 0.931 1_455 S
H148 C144 0.930 . S
O149 Co138 2.039 . S
O149 C139 1.265 . S
C150 O146 1.253 . S
C150 O151 1.227 . S
O151 C150 1.227 . S
N152 Co138 2.140 . S
N152 C155 1.346 . S
N152 C156 1.345 . S
C153 C154 1.387 . S
C153 C157 1.391 . S
C154 C153 1.387 . S
C154 C155 1.369 . S
C154 H163 0.929 . S
C155 N152 1.346 . S
C155 C154 1.369 . S
C155 H158 0.928 . S
C156 N152 1.345 . S
C156 C157 1.371 . S
C156 H159 0.931 . S
C157 C153 1.391 . S
C157 C156 1.371 . S
C157 H164 0.930 . S
H158 C155 0.928 . S
H159 C156 0.931 . S
H160 C136 0.930 . S
H161 C133 0.930 . S
H162 C142 0.930 . S
H163 C154 0.929 . S
H164 C157 0.930 . S
C165 C166 1.351 . S
C165 N168 1.368 . S
C165 H170 0.931 . S
C166 C165 1.351 . S
C166 N167 1.373 . S
C166 H194 0.930 . S
N167 C166 1.373 . S
N167 C169 1.340 . S
N168 C165 1.368 . S
N168 C169 1.321 . S
N168 Co171 2.135 . S
C169 N167 1.340 . S
C169 N168 1.321 . S
C169 H193 0.930 . S
H170 C165 0.931 . S
Co171 N168 2.135 . S
Co171 N174 2.121 1_545 S
Co171 O179 2.055 . S
Co171 O182 2.039 . S
Co171 N185 2.140 . S
C172 O173 1.227 . S
C172 O182 1.265 . S
O173 C172 1.227 . S
N174 Co171 2.121 1_565 S
N174 C176 1.375 . S
N174 C177 1.313 . S
C175 C176 1.338 . S
C175 N178 1.377 . S
C175 H195 0.930 . S
C176 N174 1.375 . S
C176 C175 1.338 . S
C176 H180 0.931 1_565 S
C177 N174 1.313 . S
C177 N178 1.344 . S
C177 H181 0.930 . S
N178 C175 1.377 . S
N178 C177 1.344 . S
O179 Co171 2.055 . S
O179 C183 1.253 . S
H180 C176 0.931 1_545 S
H181 C177 0.930 . S
O182 Co171 2.039 . S
O182 C172 1.265 . S
C183 O179 1.253 . S
C183 O184 1.227 . S
O184 C183 1.227 . S
N185 Co171 2.140 . S
N185 C188 1.346 . S
N185 C189 1.345 . S
C186 C187 1.387 . S
C186 C190 1.391 . S
C187 C186 1.387 . S
C187 C188 1.369 . S
C187 H196 0.929 . S
C188 N185 1.346 . S
C188 C187 1.369 . S
C188 H191 0.928 . S
C189 N185 1.345 . S
C189 C190 1.371 . S
C189 H192 0.931 . S
C190 C186 1.391 . S
C190 C189 1.371 . S
C190 H197 0.930 . S
H191 C188 0.928 . S
H192 C189 0.931 . S
H193 C169 0.930 . S
H194 C166 0.930 . S
H195 C175 0.930 . S
H196 C187 0.929 . S
H197 C190 0.930 . S
C198 C199 1.351 . S
C198 N201 1.368 . S
C198 H203 0.931 . S
C199 C198 1.351 . S
C199 N200 1.373 . S
C199 H227 0.930 . S
N200 C199 1.373 . S
N200 C202 1.340 . S
N201 C198 1.368 . S
N201 C202 1.321 . S
N201 Co204 2.135 . S
C202 N200 1.340 . S
C202 N201 1.321 . S
C202 H226 0.930 . S
H203 C198 0.931 . S
Co204 N201 2.135 . S
Co204 N207 2.121 1_655 S
Co204 O212 2.055 . S
Co204 O215 2.039 . S
Co204 N218 2.140 . S
C205 O206 1.227 . S
C205 O215 1.265 . S
O206 C205 1.227 . S
N207 Co204 2.121 1_455 S
N207 C209 1.375 . S
N207 C210 1.313 . S
C208 C209 1.338 . S
C208 N211 1.377 . S
C208 H228 0.930 . S
C209 N207 1.375 . S
C209 C208 1.338 . S
C209 H213 0.931 1_455 S
C210 N207 1.313 . S
C210 N211 1.344 . S
C210 H214 0.930 . S
N211 C208 1.377 . S
N211 C210 1.344 . S
O212 Co204 2.055 . S
O212 C216 1.253 . S
H213 C209 0.931 1_655 S
H214 C210 0.930 . S
O215 Co204 2.039 . S
O215 C205 1.265 . S
C216 O212 1.253 . S
C216 O217 1.227 . S
O217 C216 1.227 . S
N218 Co204 2.140 . S
N218 C221 1.346 . S
N218 C222 1.345 . S
C219 C220 1.387 . S
C219 C223 1.391 . S
C220 C219 1.387 . S
C220 C221 1.369 . S
C220 H229 0.929 . S
C221 N218 1.346 . S
C221 C220 1.369 . S
C221 H224 0.928 . S
C222 N218 1.345 . S
C222 C223 1.371 . S
C222 H225 0.931 . S
C223 C219 1.391 . S
C223 C222 1.371 . S
C223 H230 0.930 . S
H224 C221 0.928 . S
H225 C222 0.931 . S
H226 C202 0.930 . S
H227 C199 0.930 . S
H228 C208 0.930 . S
H229 C220 0.929 . S
H230 C223 0.930 . S
C231 C232 1.351 . S
C231 N234 1.368 . S
C231 H236 0.931 . S
C232 C231 1.351 . S
C232 N233 1.373 . S
C232 H260 0.930 . S
N233 C232 1.373 . S
N233 C235 1.340 . S
N234 C231 1.368 . S
N234 C235 1.321 . S
N234 Co237 2.135 . S
C235 N233 1.340 . S
C235 N234 1.321 . S
C235 H259 0.930 . S
H236 C231 0.931 . S
Co237 N234 2.135 . S
Co237 N240 2.121 1_565 S
Co237 O245 2.055 . S
Co237 O248 2.039 . S
Co237 N251 2.140 . S
C238 O239 1.227 . S
C238 O248 1.265 . S
O239 C238 1.227 . S
N240 Co237 2.121 1_545 S
N240 C242 1.375 . S
N240 C243 1.313 . S
C241 C242 1.338 . S
C241 N244 1.377 . S
C241 H261 0.930 . S
C242 N240 1.375 . S
C242 C241 1.338 . S
C242 H246 0.931 1_545 S
C243 N240 1.313 . S
C243 N244 1.344 . S
C243 H247 0.930 . S
N244 C241 1.377 . S
N244 C243 1.344 . S
O245 Co237 2.055 . S
O245 C249 1.253 . S
H246 C242 0.931 1_565 S
H247 C243 0.930 . S
O248 Co237 2.039 . S
O248 C238 1.265 . S
C249 O245 1.253 . S
C249 O250 1.227 . S
O250 C249 1.227 . S
N251 Co237 2.140 . S
N251 C254 1.346 . S
N251 C255 1.345 . S
C252 C253 1.387 . S
C252 C256 1.391 . S
C253 C252 1.387 . S
C253 C254 1.369 . S
C253 H262 0.929 . S
C254 N251 1.346 . S
C254 C253 1.369 . S
C254 H257 0.928 . S
C255 N251 1.345 . S
C255 C256 1.371 . S
C255 H258 0.931 . S
C256 C252 1.391 . S
C256 C255 1.371 . S
C256 H263 0.930 . S
H257 C254 0.928 . S
H258 C255 0.931 . S
H259 C235 0.930 . S
H260 C232 0.930 . S
H261 C241 0.930 . S
H262 C253 0.929 . S
H263 C256 0.930 . S
C264 C265 1.351 . S
C264 N267 1.368 . S
C264 H269 0.931 . S
C265 C264 1.351 . S
C265 N266 1.373 . S
C265 H293 0.930 . S
N266 C265 1.373 . S
N266 C268 1.340 . S
N267 C264 1.368 . S
N267 C268 1.321 . S
N267 Co270 2.135 . S
C268 N266 1.340 . S
C268 N267 1.321 . S
C268 H292 0.930 . S
H269 C264 0.931 . S
Co270 N267 2.135 . S
Co270 N273 2.121 . S
Co270 O278 2.055 . S
Co270 O281 2.039 . S
Co270 N284 2.140 . S
C271 O272 1.227 . S
C271 O281 1.265 . S
O272 C271 1.227 . S
N273 Co270 2.121 . S
N273 C275 1.375 . S
N273 C276 1.313 . S
C274 C275 1.338 . S
C274 N277 1.377 . S
C274 H294 0.930 . S
C275 N273 1.375 . S
C275 C274 1.338 . S
C275 H279 0.931 . S
C276 N273 1.313 . S
C276 N277 1.344 . S
C276 H280 0.930 . S
N277 C274 1.377 . S
N277 C276 1.344 . S
O278 Co270 2.055 . S
O278 C282 1.253 . S
H279 C275 0.931 . S
H280 C276 0.930 . S
O281 Co270 2.039 . S
O281 C271 1.265 . S
C282 O278 1.253 . S
C282 O283 1.227 . S
O283 C282 1.227 . S
N284 Co270 2.140 . S
N284 C287 1.346 . S
N284 C288 1.345 . S
C285 C286 1.387 . S
C285 C289 1.391 . S
C286 C285 1.387 . S
C286 C287 1.369 . S
C286 H295 0.929 . S
C287 N284 1.346 . S
C287 C286 1.369 . S
C287 H290 0.928 . S
C288 N284 1.345 . S
C288 C289 1.371 . S
C288 H291 0.931 . S
C289 C285 1.391 . S
C289 C288 1.371 . S
C289 H296 0.930 . S
H290 C287 0.928 . S
H291 C288 0.931 . S
H292 C268 0.930 . S
H293 C265 0.930 . S
H294 C274 0.930 . S
H295 C286 0.929 . S
H296 C289 0.930 . S
C297 C298 1.351 . S
C297 N300 1.368 . S
C297 H302 0.931 . S
C298 C297 1.351 . S
C298 N299 1.373 . S
C298 H326 0.930 . S
N299 C298 1.373 . S
N299 C301 1.340 . S
N300 C297 1.368 . S
N300 C301 1.321 . S
N300 Co303 2.135 . S
C301 N299 1.340 . S
C301 N300 1.321 . S
C301 H325 0.930 . S
H302 C297 0.931 . S
Co303 N300 2.135 . S
Co303 N306 2.121 . S
Co303 O311 2.055 . S
Co303 O314 2.039 . S
Co303 N317 2.140 . S
C304 O305 1.227 . S
C304 O314 1.265 . S
O305 C304 1.227 . S
N306 Co303 2.121 . S
N306 C308 1.375 . S
N306 C309 1.313 . S
C307 C308 1.338 . S
C307 N310 1.377 . S
C307 H327 0.930 . S
C308 N306 1.375 . S
C308 C307 1.338 . S
C308 H312 0.931 . S
C309 N306 1.313 . S
C309 N310 1.344 . S
C309 H313 0.930 . S
N310 C307 1.377 . S
N310 C309 1.344 . S
O311 Co303 2.055 . S
O311 C315 1.253 . S
H312 C308 0.931 . S
H313 C309 0.930 . S
O314 Co303 2.039 . S
O314 C304 1.265 . S
C315 O311 1.253 . S
C315 O316 1.227 . S
O316 C315 1.227 . S
N317 Co303 2.140 . S
N317 C320 1.346 . S
N317 C321 1.345 . S
C318 C319 1.387 . S
C318 C322 1.391 . S
C319 C318 1.387 . S
C319 C320 1.369 . S
C319 H328 0.929 . S
C320 N317 1.346 . S
C320 C319 1.369 . S
C320 H323 0.928 . S
C321 N317 1.345 . S
C321 C322 1.371 . S
C321 H324 0.931 . S
C322 C318 1.391 . S
C322 C321 1.371 . S
C322 H329 0.930 . S
H323 C320 0.928 . S
H324 C321 0.931 . S
H325 C301 0.930 . S
H326 C298 0.930 . S
H327 C307 0.930 . S
H328 C319 0.929 . S
H329 C322 0.930 . S
C330 C331 1.351 . S
C330 N333 1.368 . S
C330 H335 0.931 . S
C331 C330 1.351 . S
C331 N332 1.373 . S
C331 H359 0.930 . S
N332 C331 1.373 . S
N332 C334 1.340 . S
N333 C330 1.368 . S
N333 C334 1.321 . S
N333 Co336 2.135 . S
C334 N332 1.340 . S
C334 N333 1.321 . S
C334 H358 0.930 . S
H335 C330 0.931 . S
Co336 N333 2.135 . S
Co336 N339 2.121 . S
Co336 O344 2.055 . S
Co336 O347 2.039 . S
Co336 N350 2.140 . S
C337 O338 1.227 . S
C337 O347 1.265 . S
O338 C337 1.227 . S
N339 Co336 2.121 . S
N339 C341 1.375 . S
N339 C342 1.313 . S
C340 C341 1.338 . S
C340 N343 1.377 . S
C340 H360 0.930 . S
C341 N339 1.375 . S
C341 C340 1.338 . S
C341 H345 0.931 . S
C342 N339 1.313 . S
C342 N343 1.344 . S
C342 H346 0.930 . S
N343 C340 1.377 . S
N343 C342 1.344 . S
O344 Co336 2.055 . S
O344 C348 1.253 . S
H345 C341 0.931 . S
H346 C342 0.930 . S
O347 Co336 2.039 . S
O347 C337 1.265 . S
C348 O344 1.253 . S
C348 O349 1.227 . S
O349 C348 1.227 . S
N350 Co336 2.140 . S
N350 C353 1.346 . S
N350 C354 1.345 . S
C351 C352 1.387 . S
C351 C355 1.391 . S
C352 C351 1.387 . S
C352 C353 1.369 . S
C352 H361 0.929 . S
C353 N350 1.346 . S
C353 C352 1.369 . S
C353 H356 0.928 . S
C354 N350 1.345 . S
C354 C355 1.371 . S
C354 H357 0.931 . S
C355 C351 1.391 . S
C355 C354 1.371 . S
C355 H362 0.930 . S
H356 C353 0.928 . S
H357 C354 0.931 . S
H358 C334 0.930 . S
H359 C331 0.930 . S
H360 C340 0.930 . S
H361 C352 0.929 . S
H362 C355 0.930 . S
C363 C364 1.351 . S
C363 N366 1.368 . S
C363 H368 0.931 . S
C364 C363 1.351 . S
C364 N365 1.373 . S
C364 H392 0.930 . S
N365 C364 1.373 . S
N365 C367 1.340 . S
N366 C363 1.368 . S
N366 C367 1.321 . S
N366 Co369 2.135 . S
C367 N365 1.340 . S
C367 N366 1.321 . S
C367 H391 0.930 . S
H368 C363 0.931 . S
Co369 N366 2.135 . S
Co369 N372 2.121 . S
Co369 O377 2.055 . S
Co369 O380 2.039 . S
Co369 N383 2.140 . S
C370 O371 1.227 . S
C370 O380 1.265 . S
O371 C370 1.227 . S
N372 Co369 2.121 . S
N372 C374 1.375 . S
N372 C375 1.313 . S
C373 C374 1.338 . S
C373 N376 1.377 . S
C373 H393 0.930 . S
C374 N372 1.375 . S
C374 C373 1.338 . S
C374 H378 0.931 . S
C375 N372 1.313 . S
C375 N376 1.344 . S
C375 H379 0.930 . S
N376 C373 1.377 . S
N376 C375 1.344 . S
O377 Co369 2.055 . S
O377 C381 1.253 . S
H378 C374 0.931 . S
H379 C375 0.930 . S
O380 Co369 2.039 . S
O380 C370 1.265 . S
C381 O377 1.253 . S
C381 O382 1.227 . S
O382 C381 1.227 . S
N383 Co369 2.140 . S
N383 C386 1.346 . S
N383 C387 1.345 . S
C384 C385 1.387 . S
C384 C388 1.391 . S
C385 C384 1.387 . S
C385 C386 1.369 . S
C385 H394 0.929 . S
C386 N383 1.346 . S
C386 C385 1.369 . S
C386 H389 0.928 . S
C387 N383 1.345 . S
C387 C388 1.371 . S
C387 H390 0.931 . S
C388 C384 1.391 . S
C388 C387 1.371 . S
C388 H395 0.930 . S
H389 C386 0.928 . S
H390 C387 0.931 . S
H391 C367 0.930 . S
H392 C364 0.930 . S
H393 C373 0.930 . S
H394 C385 0.929 . S
H395 C388 0.930 . S
C396 C397 1.351 . S
C396 N399 1.368 . S
C396 H401 0.931 . S
C397 C396 1.351 . S
C397 N398 1.373 . S
C397 H425 0.930 . S
N398 C397 1.373 . S
N398 C400 1.340 . S
N399 C396 1.368 . S
N399 C400 1.321 . S
N399 Co402 2.135 . S
C400 N398 1.340 . S
C400 N399 1.321 . S
C400 H424 0.930 1_554 S
H401 C396 0.931 . S
Co402 N399 2.135 . S
Co402 N405 2.121 . S
Co402 O410 2.055 . S
Co402 O413 2.039 1_554 S
Co402 N416 2.140 . S
C403 O404 1.227 . S
C403 O413 1.265 . S
O404 C403 1.227 . S
N405 Co402 2.121 . S
N405 C407 1.375 1_554 S
N405 C408 1.313 . S
C406 C407 1.338 . S
C406 N409 1.377 1_556 S
C406 H426 0.930 . S
C407 N405 1.375 1_556 S
C407 C406 1.338 . S
C407 H411 0.931 . S
C408 N405 1.313 . S
C408 N409 1.344 . S
C408 H412 0.930 . S
N409 C406 1.377 1_554 S
N409 C408 1.344 . S
O410 Co402 2.055 . S
O410 C414 1.253 . S
H411 C407 0.931 . S
H412 C408 0.930 . S
O413 Co402 2.039 1_556 S
O413 C403 1.265 . S
C414 O410 1.253 . S
C414 O415 1.227 . S
O415 C414 1.227 . S
N416 Co402 2.140 . S
N416 C419 1.346 . S
N416 C420 1.345 . S
C417 C418 1.387 . S
C417 C421 1.391 . S
C418 C417 1.387 . S
C418 C419 1.369 . S
C418 H427 0.929 1_554 S
C419 N416 1.346 . S
C419 C418 1.369 . S
C419 H422 0.928 1_554 S
C420 N416 1.345 . S
C420 C421 1.371 . S
C420 H423 0.931 . S
C421 C417 1.391 . S
C421 C420 1.371 . S
C421 H428 0.930 . S
H422 C419 0.928 1_556 S
H423 C420 0.931 . S
H424 C400 0.930 1_556 S
H425 C397 0.930 . S
H426 C406 0.930 . S
H427 C418 0.929 1_556 S
H428 C421 0.930 . S
C429 C430 1.351 . S
C429 N432 1.368 . S
C429 H434 0.931 . S
C430 C429 1.351 . S
C430 N431 1.373 . S
C430 H458 0.930 . S
N431 C430 1.373 . S
N431 C433 1.340 . S
N432 C429 1.368 . S
N432 C433 1.321 . S
N432 Co435 2.135 . S
C433 N431 1.340 . S
C433 N432 1.321 . S
C433 H457 0.930 1_554 S
H434 C429 0.931 . S
Co435 N432 2.135 . S
Co435 N438 2.121 . S
Co435 O443 2.055 . S
Co435 O446 2.039 1_554 S
Co435 N449 2.140 . S
C436 O437 1.227 . S
C436 O446 1.265 . S
O437 C436 1.227 . S
N438 Co435 2.121 . S
N438 C440 1.375 1_554 S
N438 C441 1.313 . S
C439 C440 1.338 . S
C439 N442 1.377 1_556 S
C439 H459 0.930 . S
C440 N438 1.375 1_556 S
C440 C439 1.338 . S
C440 H444 0.931 . S
C441 N438 1.313 . S
C441 N442 1.344 . S
C441 H445 0.930 . S
N442 C439 1.377 1_554 S
N442 C441 1.344 . S
O443 Co435 2.055 . S
O443 C447 1.253 . S
H444 C440 0.931 . S
H445 C441 0.930 . S
O446 Co435 2.039 1_556 S
O446 C436 1.265 . S
C447 O443 1.253 . S
C447 O448 1.227 . S
O448 C447 1.227 . S
N449 Co435 2.140 . S
N449 C452 1.346 . S
N449 C453 1.345 . S
C450 C451 1.387 . S
C450 C454 1.391 . S
C451 C450 1.387 . S
C451 C452 1.369 . S
C451 H460 0.929 1_554 S
C452 N449 1.346 . S
C452 C451 1.369 . S
C452 H455 0.928 1_554 S
C453 N449 1.345 . S
C453 C454 1.371 . S
C453 H456 0.931 . S
C454 C450 1.391 . S
C454 C453 1.371 . S
C454 H461 0.930 . S
H455 C452 0.928 1_556 S
H456 C453 0.931 . S
H457 C433 0.930 1_556 S
H458 C430 0.930 . S
H459 C439 0.930 . S
H460 C451 0.929 1_556 S
H461 C454 0.930 . S
C462 C463 1.351 . S
C462 N465 1.368 . S
C462 H467 0.931 . S
C463 C462 1.351 . S
C463 N464 1.373 . S
C463 H491 0.930 . S
N464 C463 1.373 . S
N464 C466 1.340 . S
N465 C462 1.368 . S
N465 C466 1.321 . S
N465 Co468 2.135 . S
C466 N464 1.340 . S
C466 N465 1.321 . S
C466 H490 0.930 1_554 S
H467 C462 0.931 . S
Co468 N465 2.135 . S
Co468 N471 2.121 . S
Co468 O476 2.055 . S
Co468 O479 2.039 1_554 S
Co468 N482 2.140 . S
C469 O470 1.227 . S
C469 O479 1.265 . S
O470 C469 1.227 . S
N471 Co468 2.121 . S
N471 C473 1.375 1_554 S
N471 C474 1.313 . S
C472 C473 1.338 . S
C472 N475 1.377 1_556 S
C472 H492 0.930 . S
C473 N471 1.375 1_556 S
C473 C472 1.338 . S
C473 H477 0.931 . S
C474 N471 1.313 . S
C474 N475 1.344 . S
C474 H478 0.930 . S
N475 C472 1.377 1_554 S
N475 C474 1.344 . S
O476 Co468 2.055 . S
O476 C480 1.253 . S
H477 C473 0.931 . S
H478 C474 0.930 . S
O479 Co468 2.039 1_556 S
O479 C469 1.265 . S
C480 O476 1.253 . S
C480 O481 1.227 . S
O481 C480 1.227 . S
N482 Co468 2.140 . S
N482 C485 1.346 . S
N482 C486 1.345 . S
C483 C484 1.387 . S
C483 C487 1.391 . S
C484 C483 1.387 . S
C484 C485 1.369 . S
C484 H493 0.929 1_554 S
C485 N482 1.346 . S
C485 C484 1.369 . S
C485 H488 0.928 1_554 S
C486 N482 1.345 . S
C486 C487 1.371 . S
C486 H489 0.931 . S
C487 C483 1.391 . S
C487 C486 1.371 . S
C487 H494 0.930 . S
H488 C485 0.928 1_556 S
H489 C486 0.931 . S
H490 C466 0.930 1_556 S
H491 C463 0.930 . S
H492 C472 0.930 . S
H493 C484 0.929 1_556 S
H494 C487 0.930 . S
C495 C496 1.351 . S
C495 N498 1.368 . S
C495 H500 0.931 . S
C496 C495 1.351 . S
C496 N497 1.373 . S
C496 H524 0.930 . S
N497 C496 1.373 . S
N497 C499 1.340 . S
N498 C495 1.368 . S
N498 C499 1.321 . S
N498 Co501 2.135 . S
C499 N497 1.340 . S
C499 N498 1.321 . S
C499 H523 0.930 1_554 S
H500 C495 0.931 . S
Co501 N498 2.135 . S
Co501 N504 2.121 . S
Co501 O509 2.055 . S
Co501 O512 2.039 1_554 S
Co501 N515 2.140 . S
C502 O503 1.227 . S
C502 O512 1.265 . S
O503 C502 1.227 . S
N504 Co501 2.121 . S
N504 C506 1.375 1_554 S
N504 C507 1.313 . S
C505 C506 1.338 . S
C505 N508 1.377 1_556 S
C505 H525 0.930 . S
C506 N504 1.375 1_556 S
C506 C505 1.338 . S
C506 H510 0.931 . S
C507 N504 1.313 . S
C507 N508 1.344 . S
C507 H511 0.930 . S
N508 C505 1.377 1_554 S
N508 C507 1.344 . S
O509 Co501 2.055 . S
O509 C513 1.253 . S
H510 C506 0.931 . S
H511 C507 0.930 . S
O512 Co501 2.039 1_556 S
O512 C502 1.265 . S
C513 O509 1.253 . S
C513 O514 1.227 . S
O514 C513 1.227 . S
N515 Co501 2.140 . S
N515 C518 1.346 . S
N515 C519 1.345 . S
C516 C517 1.387 . S
C516 C520 1.391 . S
C517 C516 1.387 . S
C517 C518 1.369 . S
C517 H526 0.929 1_554 S
C518 N515 1.346 . S
C518 C517 1.369 . S
C518 H521 0.928 1_554 S
C519 N515 1.345 . S
C519 C520 1.371 . S
C519 H522 0.931 . S
C520 C516 1.391 . S
C520 C519 1.371 . S
C520 H527 0.930 . S
H521 C518 0.928 1_556 S
H522 C519 0.931 . S
H523 C499 0.930 1_556 S
H524 C496 0.930 . S
H525 C505 0.930 . S
H526 C517 0.929 1_556 S
H527 C520 0.930 . S
H528 C534 0.930 . S
H529 C538 0.930 . S
H530 C543 0.929 . S
H531 C541 0.929 . S
H532 C536 0.929 . S
H533 C542 0.929 . S
C534 H528 0.930 . S
C534 C535 1.367 . S
C534 C542 1.378 . S
C535 C534 1.367 . S
C535 C543 1.433 1_554 S
C536 H532 0.929 . S
C536 C538 1.378 . S
C536 C540 1.350 1_556 S
C537 C540 1.463 . S
C537 C542 1.350 . S
C537 N545 1.427 1_554 S
C538 H529 0.930 . S
C538 C536 1.378 . S
C538 C539 1.367 1_556 S
C539 C538 1.367 1_554 S
C539 C541 1.433 . S
C540 C536 1.350 1_554 S
C540 C537 1.463 . S
C540 N544 1.427 . S
C541 H531 0.929 . S
C541 C539 1.433 . S
C541 N544 1.384 . S
C542 H533 0.929 . S
C542 C534 1.378 . S
C542 C537 1.350 . S
C543 H530 0.929 . S
C543 C535 1.433 1_556 S
C543 N545 1.384 . S
N544 C540 1.427 . S
N544 C541 1.384 . S
N545 C537 1.427 1_556 S
N545 C543 1.384 . S
H546 C552 0.930 . S
H547 C556 0.930 . S
H548 C561 0.929 . S
H549 C559 0.929 . S
H550 C554 0.929 . S
H551 C560 0.929 . S
C552 H546 0.930 . S
C552 C553 1.367 1_556 S
C552 C560 1.378 . S
C553 C552 1.367 1_554 S
C553 C561 1.433 . S
C554 H550 0.929 . S
C554 C556 1.378 . S
C554 C558 1.350 . S
C555 C558 1.463 . S
C555 C560 1.350 1_554 S
C555 N563 1.427 . S
C556 H547 0.930 . S
C556 C554 1.378 . S
C556 C557 1.367 . S
C557 C556 1.367 . S
C557 C559 1.433 1_554 S
C558 C554 1.350 . S
C558 C555 1.463 . S
C558 N562 1.427 1_554 S
C559 H549 0.929 . S
C559 C557 1.433 1_556 S
C559 N562 1.384 . S
C560 H551 0.929 . S
C560 C552 1.378 . S
C560 C555 1.350 1_556 S
C561 H548 0.929 . S
C561 C553 1.433 . S
C561 N563 1.384 . S
N562 C558 1.427 1_556 S
N562 C559 1.384 . S
N563 C555 1.427 . S
N563 C561 1.384 . S
H564 C570 0.930 . S
H565 C574 0.930 . S
H566 C579 0.929 . S
H567 C577 0.929 . S
H568 C572 0.929 . S
H569 C578 0.929 . S
C570 H564 0.930 . S
C570 C571 1.367 . S
C570 C578 1.378 . S
C571 C570 1.367 . S
C571 C579 1.433 1_554 S
C572 H568 0.929 . S
C572 C574 1.378 . S
C572 C576 1.350 1_556 S
C573 C576 1.463 . S
C573 C578 1.350 . S
C573 N581 1.427 1_554 S
C574 H565 0.930 . S
C574 C572 1.378 . S
C574 C575 1.367 1_556 S
C575 C574 1.367 1_554 S
C575 C577 1.433 . S
C576 C572 1.350 1_554 S
C576 C573 1.463 . S
C576 N580 1.427 . S
C577 H567 0.929 . S
C577 C575 1.433 . S
C577 N580 1.384 . S
C578 H569 0.929 . S
C578 C570 1.378 . S
C578 C573 1.350 . S
C579 H566 0.929 . S
C579 C571 1.433 1_556 S
C579 N581 1.384 . S
N580 C576 1.427 . S
N580 C577 1.384 . S
N581 C573 1.427 1_556 S
N581 C579 1.384 . S
H582 C588 0.930 . S
H583 C592 0.930 . S
H584 C597 0.929 . S
H585 C595 0.929 . S
H586 C590 0.929 . S
H587 C596 0.929 . S
C588 H582 0.930 . S
C588 C589 1.367 . S
C588 C596 1.378 . S
C589 C588 1.367 . S
C589 C597 1.433 1_554 S
C590 H586 0.929 . S
C590 C592 1.378 . S
C590 C594 1.350 1_556 S
C591 C594 1.463 . S
C591 C596 1.350 . S
C591 N599 1.427 1_554 S
C592 H583 0.930 . S
C592 C590 1.378 . S
C592 C593 1.367 1_556 S
C593 C592 1.367 1_554 S
C593 C595 1.433 . S
C594 C590 1.350 1_554 S
C594 C591 1.463 . S
C594 N598 1.427 . S
C595 H585 0.929 . S
C595 C593 1.433 . S
C595 N598 1.384 . S
C596 H587 0.929 . S
C596 C588 1.378 . S
C596 C591 1.350 . S
C597 H584 0.929 . S
C597 C589 1.433 1_556 S
C597 N599 1.384 . S
N598 C594 1.427 . S
N598 C595 1.384 . S
N599 C591 1.427 1_556 S
N599 C597 1.384 . S
H600 C606 0.930 . S
H601 C610 0.930 . S
H602 C615 0.929 . S
H603 C613 0.929 . S
H604 C608 0.929 . S
H605 C614 0.929 . S
C606 H600 0.930 . S
C606 C607 1.367 . S
C606 C614 1.378 . S
C607 C606 1.367 . S
C607 C615 1.433 . S
C608 H604 0.929 . S
C608 C610 1.378 . S
C608 C612 1.350 . S
C609 C612 1.463 . S
C609 C614 1.350 . S
C609 N617 1.427 . S
C610 H601 0.930 . S
C610 C608 1.378 . S
C610 C611 1.367 . S
C611 C610 1.367 . S
C611 C613 1.433 . S
C612 C608 1.350 . S
C612 C609 1.463 . S
C612 N616 1.427 . S
C613 H603 0.929 . S
C613 C611 1.433 . S
C613 N616 1.384 . S
C614 H605 0.929 . S
C614 C606 1.378 . S
C614 C609 1.350 . S
C615 H602 0.929 . S
C615 C607 1.433 . S
C615 N617 1.384 . S
N616 C612 1.427 . S
N616 C613 1.384 . S
N617 C609 1.427 . S
N617 C615 1.384 . S
H618 C624 0.930 . S
H619 C628 0.930 . S
H620 C633 0.929 . S
H621 C631 0.929 . S
H622 C626 0.929 . S
H623 C632 0.929 . S
C624 H618 0.930 . S
C624 C625 1.367 . S
C624 C632 1.378 . S
C625 C624 1.367 . S
C625 C633 1.433 . S
C626 H622 0.929 . S
C626 C628 1.378 . S
C626 C630 1.350 . S
C627 C630 1.463 . S
C627 C632 1.350 . S
C627 N635 1.427 . S
C628 H619 0.930 . S
C628 C626 1.378 . S
C628 C629 1.367 . S
C629 C628 1.367 . S
C629 C631 1.433 . S
C630 C626 1.350 . S
C630 C627 1.463 . S
C630 N634 1.427 . S
C631 H621 0.929 . S
C631 C629 1.433 . S
C631 N634 1.384 . S
C632 H623 0.929 . S
C632 C624 1.378 . S
C632 C627 1.350 . S
C633 H620 0.929 . S
C633 C625 1.433 . S
C633 N635 1.384 . S
N634 C630 1.427 . S
N634 C631 1.384 . S
N635 C627 1.427 . S
N635 C633 1.384 . S
H636 C642 0.930 . S
H637 C646 0.930 . S
H638 C651 0.929 . S
H639 C649 0.929 . S
H640 C644 0.929 . S
H641 C650 0.929 . S
C642 H636 0.930 . S
C642 C643 1.367 . S
C642 C650 1.378 . S
C643 C642 1.367 . S
C643 C651 1.433 . S
C644 H640 0.929 . S
C644 C646 1.378 . S
C644 C648 1.350 . S
C645 C648 1.463 . S
C645 C650 1.350 . S
C645 N653 1.427 . S
C646 H637 0.930 . S
C646 C644 1.378 . S
C646 C647 1.367 . S
C647 C646 1.367 . S
C647 C649 1.433 . S
C648 C644 1.350 . S
C648 C645 1.463 . S
C648 N652 1.427 . S
C649 H639 0.929 . S
C649 C647 1.433 . S
C649 N652 1.384 . S
C650 H641 0.929 . S
C650 C642 1.378 . S
C650 C645 1.350 . S
C651 H638 0.929 . S
C651 C643 1.433 . S
C651 N653 1.384 . S
N652 C648 1.427 . S
N652 C649 1.384 . S
N653 C645 1.427 . S
N653 C651 1.384 . S
H654 C660 0.930 . S
H655 C664 0.930 . S
H656 C669 0.929 . S
H657 C667 0.929 . S
H658 C662 0.929 . S
H659 C668 0.929 . S
C660 H654 0.930 . S
C660 C661 1.367 . S
C660 C668 1.378 . S
C661 C660 1.367 . S
C661 C669 1.433 . S
C662 H658 0.929 . S
C662 C664 1.378 . S
C662 C666 1.350 . S
C663 C666 1.463 . S
C663 C668 1.350 . S
C663 N671 1.427 . S
C664 H655 0.930 . S
C664 C662 1.378 . S
C664 C665 1.367 . S
C665 C664 1.367 . S
C665 C667 1.433 . S
C666 C662 1.350 . S
C666 C663 1.463 . S
C666 N670 1.427 . S
C667 H657 0.929 . S
C667 C665 1.433 . S
C667 N670 1.384 . S
C668 H659 0.929 . S
C668 C660 1.378 . S
C668 C663 1.350 . S
C669 H656 0.929 . S
C669 C661 1.433 . S
C669 N671 1.384 . S
N670 C666 1.427 . S
N670 C667 1.384 . S
N671 C663 1.427 . S
N671 C669 1.384 . S
H672 C678 0.930 . S
H673 C682 0.930 . S
H674 C687 0.929 . S
H675 C685 0.929 . S
H676 C680 0.929 . S
H677 C686 0.929 . S
C678 H672 0.930 . S
C678 C679 1.367 . S
C678 C686 1.378 . S
C679 C678 1.367 . S
C679 C687 1.433 1_556 S
C680 H676 0.929 . S
C680 C682 1.378 . S
C680 C684 1.350 . S
C681 C684 1.463 1_556 S
C681 C686 1.350 . S
C681 N689 1.427 1_556 S
C682 H673 0.930 . S
C682 C680 1.378 . S
C682 C683 1.367 . S
C683 C682 1.367 . S
C683 C685 1.433 1_554 S
C684 C680 1.350 . S
C684 C681 1.463 1_554 S
C684 N688 1.427 1_554 S
C685 H675 0.929 . S
C685 C683 1.433 1_556 S
C685 N688 1.384 . S
C686 H677 0.929 . S
C686 C678 1.378 . S
C686 C681 1.350 . S
C687 H674 0.929 . S
C687 C679 1.433 1_554 S
C687 N689 1.384 . S
N688 C684 1.427 1_556 S
N688 C685 1.384 . S
N689 C681 1.427 1_554 S
N689 C687 1.384 . S
H690 C696 0.930 . S
H691 C700 0.930 . S
H692 C705 0.929 . S
H693 C703 0.929 . S
H694 C698 0.929 . S
H695 C704 0.929 . S
C696 H690 0.930 . S
C696 C697 1.367 . S
C696 C704 1.378 . S
C697 C696 1.367 . S
C697 C705 1.433 1_556 S
C698 H694 0.929 . S
C698 C700 1.378 . S
C698 C702 1.350 . S
C699 C702 1.463 1_556 S
C699 C704 1.350 . S
C699 N707 1.427 1_556 S
C700 H691 0.930 . S
C700 C698 1.378 . S
C700 C701 1.367 . S
C701 C700 1.367 . S
C701 C703 1.433 1_554 S
C702 C698 1.350 . S
C702 C699 1.463 1_554 S
C702 N706 1.427 1_554 S
C703 H693 0.929 . S
C703 C701 1.433 1_556 S
C703 N706 1.384 . S
C704 H695 0.929 . S
C704 C696 1.378 . S
C704 C699 1.350 . S
C705 H692 0.929 . S
C705 C697 1.433 1_554 S
C705 N707 1.384 . S
N706 C702 1.427 1_556 S
N706 C703 1.384 . S
N707 C699 1.427 1_554 S
N707 C705 1.384 . S
H708 C714 0.930 . S
H709 C718 0.930 . S
H710 C723 0.929 . S
H711 C721 0.929 . S
H712 C716 0.929 . S
H713 C722 0.929 . S
C714 H708 0.930 . S
C714 C715 1.367 1_556 S
C714 C722 1.378 . S
C715 C714 1.367 1_554 S
C715 C723 1.433 . S
C716 H712 0.929 . S
C716 C718 1.378 . S
C716 C720 1.349 1_554 S
C717 C720 1.462 1_554 S
C717 C722 1.333 1_554 S
C717 N725 1.446 . S
C718 H709 0.930 . S
C718 C716 1.378 . S
C718 C719 1.367 1_554 S
C719 C718 1.367 1_556 S
C719 C721 1.433 . S
C720 C716 1.349 1_556 S
C720 C717 1.462 1_556 S
C720 N724 1.429 . S
C721 H711 0.929 . S
C721 C719 1.433 . S
C721 N724 1.384 . S
C722 H713 0.929 . S
C722 C714 1.378 . S
C722 C717 1.333 1_556 S
C723 H710 0.929 . S
C723 C715 1.433 . S
C723 N725 1.384 . S
N724 C720 1.429 . S
N724 C721 1.384 . S
N725 C717 1.446 . S
N725 C723 1.384 . S
H726 C732 0.930 . S
H727 C736 0.930 . S
H728 C741 0.929 . S
H729 C739 0.929 . S
H730 C734 0.929 . S
H731 C740 0.929 . S
C732 H726 0.930 . S
C732 C733 1.367 1_556 S
C732 C740 1.378 . S
C733 C732 1.367 1_554 S
C733 C741 1.433 . S
C734 H730 0.929 . S
C734 C736 1.378 . S
C734 C738 1.343 1_554 S
C735 C738 1.462 1_554 S
C735 C740 1.350 1_554 S
C735 N743 1.427 . S
C736 H727 0.930 . S
C736 C734 1.378 . S
C736 C737 1.367 1_554 S
C737 C736 1.367 1_556 S
C737 C739 1.433 . S
C738 C734 1.343 1_556 S
C738 C735 1.462 1_556 S
C738 N742 1.435 . S
C739 H729 0.929 . S
C739 C737 1.433 . S
C739 N742 1.384 . S
C740 H731 0.929 . S
C740 C732 1.378 . S
C740 C735 1.350 1_556 S
C741 H728 0.929 . S
C741 C733 1.433 . S
C741 N743 1.384 . S
N742 C738 1.435 . S
N742 C739 1.384 . S
N743 C735 1.427 . S
N743 C741 1.384 . S
H744 C750 0.930 . S
H745 C754 0.930 . S
H746 C759 0.929 . S
H747 C757 0.929 . S
H748 C752 0.929 . S
H749 C758 0.929 . S
C750 H744 0.930 . S
C750 C751 1.367 . S
C750 C758 1.378 . S
C751 C750 1.367 . S
C751 C759 1.433 . S
C752 H748 0.929 . S
C752 C754 1.378 . S
C752 C756 1.350 . S
C753 C756 1.463 . S
C753 C758 1.350 . S
C753 N761 1.427 . S
C754 H745 0.930 . S
C754 C752 1.378 . S
C754 C755 1.367 . S
C755 C754 1.367 . S
C755 C757 1.433 . S
C756 C752 1.350 . S
C756 C753 1.463 . S
C756 N760 1.427 . S
C757 H747 0.929 . S
C757 C755 1.433 . S
C757 N760 1.384 . S
C758 H749 0.929 . S
C758 C750 1.378 . S
C758 C753 1.350 . S
C759 H746 0.929 . S
C759 C751 1.433 . S
C759 N761 1.384 . S
N760 C756 1.427 . S
N760 C757 1.384 . S
N761 C753 1.427 . S
N761 C759 1.384 . S
H762 C768 0.930 . S
H763 C772 0.930 . S
H764 C777 0.929 . S
H765 C775 0.929 . S
H766 C770 0.929 . S
H767 C776 0.929 . S
C768 H762 0.930 . S
C768 C769 1.367 . S
C768 C776 1.378 . S
C769 C768 1.367 . S
C769 C777 1.433 . S
C770 H766 0.929 . S
C770 C772 1.378 . S
C770 C774 1.350 . S
C771 C774 1.463 . S
C771 C776 1.350 . S
C771 N779 1.427 . S
C772 H763 0.930 . S
C772 C770 1.378 . S
C772 C773 1.367 . S
C773 C772 1.367 . S
C773 C775 1.433 . S
C774 C770 1.350 . S
C774 C771 1.463 . S
C774 N778 1.427 . S
C775 H765 0.929 . S
C775 C773 1.433 . S
C775 N778 1.384 . S
C776 H767 0.929 . S
C776 C768 1.378 . S
C776 C771 1.350 . S
C777 H764 0.929 . S
C777 C769 1.433 . S
C777 N779 1.384 . S
N778 C774 1.427 . S
N778 C775 1.384 . S
N779 C771 1.427 . S
N779 C777 1.384 . S
H780 C786 0.930 . S
H781 C790 0.930 . S
H782 C795 0.929 . S
H783 C793 0.929 . S
H784 C788 0.929 . S
H785 C794 0.929 . S
C786 H780 0.930 . S
C786 C787 1.367 . S
C786 C794 1.378 . S
C787 C786 1.367 . S
C787 C795 1.433 . S
C788 H784 0.929 . S
C788 C790 1.378 . S
C788 C792 1.350 . S
C789 C792 1.463 . S
C789 C794 1.350 . S
C789 N797 1.427 . S
C790 H781 0.930 . S
C790 C788 1.378 . S
C790 C791 1.367 . S
C791 C790 1.367 . S
C791 C793 1.433 . S
C792 C788 1.350 . S
C792 C789 1.463 . S
C792 N796 1.427 . S
C793 H783 0.929 . S
C793 C791 1.433 . S
C793 N796 1.384 . S
C794 H785 0.929 . S
C794 C786 1.378 . S
C794 C789 1.350 . S
C795 H782 0.929 . S
C795 C787 1.433 . S
C795 N797 1.384 . S
N796 C792 1.427 . S
N796 C793 1.384 . S
N797 C789 1.427 . S
N797 C795 1.384 . S
H798 C804 0.930 . S
H799 C808 0.930 . S
H800 C813 0.929 . S
H801 C811 0.929 . S
H802 C806 0.929 . S
H803 C812 0.929 . S
C804 H798 0.930 . S
C804 C805 1.367 . S
C804 C812 1.378 . S
C805 C804 1.367 . S
C805 C813 1.433 . S
C806 H802 0.929 . S
C806 C808 1.378 . S
C806 C810 1.350 . S
C807 C810 1.463 . S
C807 C812 1.350 . S
C807 N815 1.427 . S
C808 H799 0.930 . S
C808 C806 1.378 . S
C808 C809 1.367 . S
C809 C808 1.367 . S
C809 C811 1.433 . S
C810 C806 1.350 . S
C810 C807 1.463 . S
C810 N814 1.427 . S
C811 H801 0.929 . S
C811 C809 1.433 . S
C811 N814 1.384 . S
C812 H803 0.929 . S
C812 C804 1.378 . S
C812 C807 1.350 . S
C813 H800 0.929 . S
C813 C805 1.433 . S
C813 N815 1.384 . S
N814 C810 1.427 . S
N814 C811 1.384 . S
N815 C807 1.427 . S
N815 C813 1.384 . S
H816 C822 0.930 . S
H817 C826 0.930 . S
H818 C831 0.929 . S
H819 C829 0.929 . S
H820 C824 0.929 . S
H821 C830 0.929 . S
C822 H816 0.930 . S
C822 C823 1.367 . S
C822 C830 1.378 . S
C823 C822 1.367 . S
C823 C831 1.433 . S
C824 H820 0.929 . S
C824 C826 1.378 . S
C824 C828 1.350 . S
C825 C828 1.463 . S
C825 C830 1.350 . S
C825 N833 1.427 . S
C826 H817 0.930 . S
C826 C824 1.378 . S
C826 C827 1.367 . S
C827 C826 1.367 . S
C827 C829 1.433 . S
C828 C824 1.350 . S
C828 C825 1.463 . S
C828 N832 1.427 . S
C829 H819 0.929 . S
C829 C827 1.433 . S
C829 N832 1.384 . S
C830 H821 0.929 . S
C830 C822 1.378 . S
C830 C825 1.350 . S
C831 H818 0.929 . S
C831 C823 1.433 . S
C831 N833 1.384 . S
N832 C828 1.427 . S
N832 C829 1.384 . S
N833 C825 1.427 . S
N833 C831 1.384 . S
H834 C840 0.930 . S
H835 C844 0.930 . S
H836 C849 0.929 . S
H837 C847 0.929 . S
H838 C842 0.929 . S
H839 C848 0.929 . S
C840 H834 0.930 . S
C840 C841 1.367 . S
C840 C848 1.378 . S
C841 C840 1.367 . S
C841 C849 1.433 . S
C842 H838 0.929 . S
C842 C844 1.378 . S
C842 C846 1.350 . S
C843 C846 1.463 . S
C843 C848 1.350 . S
C843 N851 1.427 . S
C844 H835 0.930 . S
C844 C842 1.378 . S
C844 C845 1.367 . S
C845 C844 1.367 . S
C845 C847 1.433 . S
C846 C842 1.350 . S
C846 C843 1.463 . S
C846 N850 1.427 . S
C847 H837 0.929 . S
C847 C845 1.433 . S
C847 N850 1.384 . S
C848 H839 0.929 . S
C848 C840 1.378 . S
C848 C843 1.350 . S
C849 H836 0.929 . S
C849 C841 1.433 . S
C849 N851 1.384 . S
N850 C846 1.427 . S
N850 C847 1.384 . S
N851 C843 1.427 . S
N851 C849 1.384 . S
H852 C858 0.930 . S
H853 C862 0.930 . S
H854 C867 0.929 . S
H855 C865 0.929 . S
H856 C860 0.929 . S
H857 C866 0.929 . S
C858 H852 0.930 . S
C858 C859 1.367 . S
C858 C866 1.378 . S
C859 C858 1.367 . S
C859 C867 1.433 . S
C860 H856 0.929 . S
C860 C862 1.378 . S
C860 C864 1.350 . S
C861 C864 1.463 . S
C861 C866 1.350 . S
C861 N869 1.427 . S
C862 H853 0.930 . S
C862 C860 1.378 . S
C862 C863 1.367 . S
C863 C862 1.367 . S
C863 C865 1.433 . S
C864 C860 1.350 . S
C864 C861 1.463 . S
C864 N868 1.427 . S
C865 H855 0.929 . S
C865 C863 1.433 . S
C865 N868 1.384 . S
C866 H857 0.929 . S
C866 C858 1.378 . S
C866 C861 1.350 . S
C867 H854 0.929 . S
C867 C859 1.433 . S
C867 N869 1.384 . S
N868 C864 1.427 . S
N868 C865 1.384 . S
N869 C861 1.427 . S
N869 C867 1.384 . S
H870 C876 0.930 . S
H871 C880 0.930 . S
H872 C885 0.929 . S
H873 C883 0.929 . S
H874 C878 0.929 . S
H875 C884 0.929 . S
C876 H870 0.930 . S
C876 C877 1.367 . S
C876 C884 1.378 . S
C877 C876 1.367 . S
C877 C885 1.433 . S
C878 H874 0.929 . S
C878 C880 1.378 . S
C878 C882 1.350 . S
C879 C882 1.463 . S
C879 C884 1.350 . S
C879 N887 1.427 . S
C880 H871 0.930 . S
C880 C878 1.378 . S
C880 C881 1.367 . S
C881 C880 1.367 . S
C881 C883 1.433 . S
C882 C878 1.350 . S
C882 C879 1.463 . S
C882 N886 1.427 . S
C883 H873 0.929 . S
C883 C881 1.433 . S
C883 N886 1.384 . S
C884 H875 0.929 . S
C884 C876 1.378 . S
C884 C879 1.350 . S
C885 H872 0.929 . S
C885 C877 1.433 . S
C885 N887 1.384 . S
N886 C882 1.427 . S
N886 C883 1.384 . S
N887 C879 1.427 . S
N887 C885 1.384 . S
H888 C894 0.930 . S
H889 C898 0.930 1_556 S
H890 C903 0.929 1_556 S
H891 C901 0.929 . S
H892 C896 0.929 1_556 S
H893 C902 0.929 . S
C894 H888 0.930 . S
C894 C895 1.367 . S
C894 C902 1.378 . S
C895 C894 1.367 . S
C895 C903 1.433 . S
C896 H892 0.929 1_554 S
C896 C898 1.378 . S
C896 C900 1.350 . S
C897 C900 1.463 . S
C897 C902 1.350 . S
C897 N905 1.427 . S
C898 H889 0.930 1_554 S
C898 C896 1.378 . S
C898 C899 1.367 . S
C899 C898 1.367 . S
C899 C901 1.433 . S
C900 C896 1.350 . S
C900 C897 1.463 . S
C900 N904 1.427 . S
C901 H891 0.929 . S
C901 C899 1.433 . S
C901 N904 1.384 . S
C902 H893 0.929 . S
C902 C894 1.378 . S
C902 C897 1.350 . S
C903 H890 0.929 1_554 S
C903 C895 1.433 . S
C903 N905 1.384 . S
N904 C900 1.427 . S
N904 C901 1.384 . S
N905 C897 1.427 . S
N905 C903 1.384 . S
H906 C912 0.930 1_556 S
H907 C916 0.930 . S
H908 C921 0.929 . S
H909 C919 0.929 . S
H910 C914 0.929 . S
H911 C920 0.929 1_556 S
C912 H906 0.930 1_554 S
C912 C913 1.367 . S
C912 C920 1.378 . S
C913 C912 1.367 . S
C913 C921 1.433 . S
C914 H910 0.929 . S
C914 C916 1.378 . S
C914 C918 1.350 . S
C915 C918 1.463 . S
C915 C920 1.350 . S
C915 N923 1.427 . S
C916 H907 0.930 . S
C916 C914 1.378 . S
C916 C917 1.367 . S
C917 C916 1.367 . S
C917 C919 1.433 1_554 S
C918 C914 1.350 . S
C918 C915 1.463 . S
C918 N922 1.427 1_554 S
C919 H909 0.929 . S
C919 C917 1.433 1_556 S
C919 N922 1.384 . S
C920 H911 0.929 1_554 S
C920 C912 1.378 . S
C920 C915 1.350 . S
C921 H908 0.929 . S
C921 C913 1.433 . S
C921 N923 1.384 . S
N922 C918 1.427 1_556 S
N922 C919 1.384 . S
N923 C915 1.427 . S
N923 C921 1.384 . S
H924 C930 0.910 1_556 S
H925 C934 0.930 . S
H926 C939 0.929 . S
H927 C937 0.929 . S
H928 C932 0.929 . S
H929 C938 0.929 . S
C930 H924 0.910 1_554 S
C930 C931 1.390 . S
C930 C938 1.376 1_554 S
C931 C930 1.390 . S
C931 C939 1.433 . S
C932 H928 0.929 . S
C932 C934 1.378 . S
C932 C936 1.350 . S
C933 C936 1.463 . S
C933 C938 1.350 1_554 S
C933 N941 1.427 . S
C934 H925 0.930 . S
C934 C932 1.378 . S
C934 C935 1.367 . S
C935 C934 1.367 . S
C935 C937 1.433 1_554 S
C936 C932 1.350 . S
C936 C933 1.463 . S
C936 N940 1.427 1_554 S
C937 H927 0.929 . S
C937 C935 1.433 1_556 S
C937 N940 1.384 . S
C938 H929 0.929 . S
C938 C930 1.376 1_556 S
C938 C933 1.350 1_556 S
C939 H926 0.929 . S
C939 C931 1.433 . S
C939 N941 1.384 . S
N940 C936 1.427 1_556 S
N940 C937 1.384 . S
N941 C933 1.427 . S
N941 C939 1.384 . S
H942 C948 0.930 . S
H943 C952 0.930 . S
H944 C957 0.929 1_556 S
H945 C955 0.929 . S
H946 C950 0.929 1_556 S
H947 C956 0.929 . S
C948 H942 0.930 . S
C948 C949 1.367 . S
C948 C956 1.378 . S
C949 C948 1.367 . S
C949 C957 1.433 . S
C950 H946 0.929 1_554 S
C950 C952 1.378 1_554 S
C950 C954 1.350 . S
C951 C954 1.463 . S
C951 C956 1.350 . S
C951 N959 1.427 . S
C952 H943 0.930 . S
C952 C950 1.378 1_556 S
C952 C953 1.367 1_556 S
C953 C952 1.367 1_554 S
C953 C955 1.433 . S
C954 C950 1.350 . S
C954 C951 1.463 . S
C954 N958 1.427 . S
C955 H945 0.929 . S
C955 C953 1.433 . S
C955 N958 1.384 . S
C956 H947 0.929 . S
C956 C948 1.378 . S
C956 C951 1.350 . S
C957 H944 0.929 1_554 S
C957 C949 1.433 . S
C957 N959 1.384 . S
N958 C954 1.427 . S
N958 C955 1.384 . S
N959 C951 1.427 . S
N959 C957 1.384 . S
H960 C966 0.930 . S
H961 C970 0.930 . S
H962 C975 0.929 . S
H963 C973 0.929 . S
H964 C968 0.929 . S
H965 C974 0.929 . S
C966 H960 0.930 . S
C966 C967 1.367 1_455 S
C966 C974 1.378 . S
C967 C966 1.367 1_655 S
C967 C975 1.433 . S
C968 H964 0.929 . S
C968 C970 1.378 . S
C968 C972 1.350 1_655 S
C969 C972 1.463 1_655 S
C969 C974 1.350 1_655 S
C969 N977 1.427 . S
C970 H961 0.930 . S
C970 C968 1.378 . S
C970 C971 1.367 1_655 S
C971 C970 1.367 1_455 S
C971 C973 1.433 . S
C972 C968 1.350 1_455 S
C972 C969 1.463 1_455 S
C972 N976 1.427 . S
C973 H963 0.929 . S
C973 C971 1.433 . S
C973 N976 1.384 . S
C974 H965 0.929 . S
C974 C966 1.378 . S
C974 C969 1.350 1_455 S
C975 H962 0.929 . S
C975 C967 1.433 . S
C975 N977 1.384 . S
N976 C972 1.427 . S
N976 C973 1.384 . S
N977 C969 1.427 . S
N977 C975 1.384 . S
H978 C984 0.930 . S
H979 C988 0.930 . S
H980 C993 0.929 . S
H981 C991 0.929 . S
H982 C986 0.929 . S
H983 C992 0.929 . S
C984 H978 0.930 . S
C984 C985 1.367 1_545 S
C984 C992 1.378 . S
C985 C984 1.367 1_565 S
C985 C993 1.433 . S
C986 H982 0.929 . S
C986 C988 1.378 . S
C986 C990 1.350 1_565 S
C987 C990 1.463 1_565 S
C987 C992 1.350 1_565 S
C987 N995 1.427 . S
C988 H979 0.930 . S
C988 C986 1.378 . S
C988 C989 1.367 1_565 S
C989 C988 1.367 1_545 S
C989 C991 1.433 . S
C990 C986 1.350 1_545 S
C990 C987 1.463 1_545 S
C990 N994 1.427 . S
C991 H981 0.929 . S
C991 C989 1.433 . S
C991 N994 1.384 . S
C992 H983 0.929 . S
C992 C984 1.378 . S
C992 C987 1.350 1_545 S
C993 H980 0.929 . S
C993 C985 1.433 . S
C993 N995 1.384 . S
N994 C990 1.427 . S
N994 C991 1.384 . S
N995 C987 1.427 . S
N995 C993 1.384 . S
H996 C1002 0.930 . S
H997 C1006 0.930 . S
H998 C1011 0.929 . S
H999 C1009 0.929 . S
H1000 C1004 0.929 . S
H1001 C1010 0.929 . S
C1002 H996 0.930 . S
C1002 C1003 1.367 . S
C1002 C1010 1.378 . S
C1003 C1002 1.367 . S
C1003 C1011 1.433 1_655 S
C1004 H1000 0.929 . S
C1004 C1006 1.378 . S
C1004 C1008 1.350 . S
C1005 C1008 1.463 1_655 S
C1005 C1010 1.350 . S
C1005 N1013 1.427 1_655 S
C1006 H997 0.930 . S
C1006 C1004 1.378 . S
C1006 C1007 1.367 . S
C1007 C1006 1.367 . S
C1007 C1009 1.433 1_455 S
C1008 C1004 1.350 . S
C1008 C1005 1.463 1_455 S
C1008 N1012 1.427 1_455 S
C1009 H999 0.929 . S
C1009 C1007 1.433 1_655 S
C1009 N1012 1.384 . S
C1010 H1001 0.929 . S
C1010 C1002 1.378 . S
C1010 C1005 1.350 . S
C1011 H998 0.929 . S
C1011 C1003 1.433 1_455 S
C1011 N1013 1.384 . S
N1012 C1008 1.427 1_655 S
N1012 C1009 1.384 . S
N1013 C1005 1.427 1_455 S
N1013 C1011 1.384 . S
H1014 C1020 0.930 . S
H1015 C1024 0.930 . S
H1016 C1029 0.929 . S
H1017 C1027 0.929 . S
H1018 C1022 0.929 . S
H1019 C1028 0.929 . S
C1020 H1014 0.930 . S
C1020 C1021 1.367 1_565 S
C1020 C1028 1.378 . S
C1021 C1020 1.367 1_545 S
C1021 C1029 1.433 . S
C1022 H1018 0.929 . S
C1022 C1024 1.378 . S
C1022 C1026 1.350 1_545 S
C1023 C1026 1.463 1_545 S
C1023 C1028 1.350 1_545 S
C1023 N1031 1.427 . S
C1024 H1015 0.930 . S
C1024 C1022 1.378 . S
C1024 C1025 1.367 1_545 S
C1025 C1024 1.367 1_565 S
C1025 C1027 1.433 . S
C1026 C1022 1.350 1_565 S
C1026 C1023 1.463 1_565 S
C1026 N1030 1.427 . S
C1027 H1017 0.929 . S
C1027 C1025 1.433 . S
C1027 N1030 1.384 . S
C1028 H1019 0.929 . S
C1028 C1020 1.378 . S
C1028 C1023 1.350 1_565 S
C1029 H1016 0.929 . S
C1029 C1021 1.433 . S
C1029 N1031 1.384 . S
N1030 C1026 1.427 . S
N1030 C1027 1.384 . S
N1031 C1023 1.427 . S
N1031 C1029 1.384 . S
H1032 C1038 0.930 . S
H1033 C1042 0.930 . S
H1034 C1047 0.929 . S
H1035 C1045 0.929 . S
H1036 C1040 0.929 . S
H1037 C1046 0.929 . S
C1038 H1032 0.930 . S
C1038 C1039 1.367 1_455 S
C1038 C1046 1.378 . S
C1039 C1038 1.367 1_655 S
C1039 C1047 1.433 . S
C1040 H1036 0.929 . S
C1040 C1042 1.378 . S
C1040 C1044 1.337 1_655 S
C1041 C1044 1.461 1_655 S
C1041 C1046 1.337 1_655 S
C1041 N1049 1.443 . S
C1042 H1033 0.930 . S
C1042 C1040 1.378 . S
C1042 C1043 1.367 1_655 S
C1043 C1042 1.367 1_455 S
C1043 C1045 1.433 . S
C1044 C1040 1.337 1_455 S
C1044 C1041 1.461 1_455 S
C1044 N1048 1.443 . S
C1045 H1035 0.929 . S
C1045 C1043 1.433 . S
C1045 N1048 1.384 . S
C1046 H1037 0.929 . S
C1046 C1038 1.378 . S
C1046 C1041 1.337 1_455 S
C1047 H1034 0.929 . S
C1047 C1039 1.433 . S
C1047 N1049 1.384 . S
N1048 C1044 1.443 . S
N1048 C1045 1.384 . S
N1049 C1041 1.443 . S
N1049 C1047 1.384 . S
H1050 C1056 0.930 . S
H1051 C1060 0.930 . S
H1052 C1065 0.929 . S
H1053 C1063 0.929 . S
H1054 C1058 0.929 . S
H1055 C1064 0.929 . S
C1056 H1050 0.930 . S
C1056 C1057 1.367 . S
C1056 C1064 1.378 . S
C1057 C1056 1.367 . S
C1057 C1065 1.433 1_545 S
C1058 H1054 0.929 . S
C1058 C1060 1.378 . S
C1058 C1062 1.350 . S
C1059 C1062 1.463 1_545 S
C1059 C1064 1.350 . S
C1059 N1067 1.427 1_545 S
C1060 H1051 0.930 . S
C1060 C1058 1.378 . S
C1060 C1061 1.367 . S
C1061 C1060 1.367 . S
C1061 C1063 1.433 1_565 S
C1062 C1058 1.350 . S
C1062 C1059 1.463 1_565 S
C1062 N1066 1.427 1_565 S
C1063 H1053 0.929 . S
C1063 C1061 1.433 1_545 S
C1063 N1066 1.384 . S
C1064 H1055 0.929 . S
C1064 C1056 1.378 . S
C1064 C1059 1.350 . S
C1065 H1052 0.929 . S
C1065 C1057 1.433 1_565 S
C1065 N1067 1.384 . S
N1066 C1062 1.427 1_545 S
N1066 C1063 1.384 . S
N1067 C1059 1.427 1_565 S
N1067 C1065 1.384 . S
H1068 C1074 0.930 . S
H1069 C1078 0.930 . S
H1070 C1083 0.929 . S
H1071 C1081 0.929 . S
H1072 C1076 0.929 . S
H1073 C1082 0.929 . S
C1074 H1068 0.930 . S
C1074 C1075 1.367 1_655 S
C1074 C1082 1.378 . S
C1075 C1074 1.367 1_455 S
C1075 C1083 1.433 . S
C1076 H1072 0.929 . S
C1076 C1078 1.378 . S
C1076 C1080 1.337 1_455 S
C1077 C1080 1.461 1_455 S
C1077 C1082 1.337 1_455 S
C1077 N1085 1.443 . S
C1078 H1069 0.930 . S
C1078 C1076 1.378 . S
C1078 C1079 1.367 1_455 S
C1079 C1078 1.367 1_655 S
C1079 C1081 1.433 . S
C1080 C1076 1.337 1_655 S
C1080 C1077 1.461 1_655 S
C1080 N1084 1.443 . S
C1081 H1071 0.929 . S
C1081 C1079 1.433 . S
C1081 N1084 1.384 . S
C1082 H1073 0.929 . S
C1082 C1074 1.378 . S
C1082 C1077 1.337 1_655 S
C1083 H1070 0.929 . S
C1083 C1075 1.433 . S
C1083 N1085 1.384 . S
N1084 C1080 1.443 . S
N1084 C1081 1.384 . S
N1085 C1077 1.443 . S
N1085 C1083 1.384 . S
H1086 C1092 0.930 . S
H1087 C1096 0.930 . S
H1088 C1101 0.929 . S
H1089 C1099 0.929 . S
H1090 C1094 0.929 . S
H1091 C1100 0.929 . S
C1092 H1086 0.930 . S
C1092 C1093 1.367 1_545 S
C1092 C1100 1.378 . S
C1093 C1092 1.367 1_565 S
C1093 C1101 1.433 . S
C1094 H1090 0.929 . S
C1094 C1096 1.378 . S
C1094 C1098 1.338 1_565 S
C1095 C1098 1.462 1_565 S
C1095 C1100 1.338 1_565 S
C1095 N1103 1.441 . S
C1096 H1087 0.930 . S
C1096 C1094 1.378 . S
C1096 C1097 1.367 1_565 S
C1097 C1096 1.367 1_545 S
C1097 C1099 1.433 . S
C1098 C1094 1.338 1_545 S
C1098 C1095 1.462 1_545 S
C1098 N1102 1.441 . S
C1099 H1089 0.929 . S
C1099 C1097 1.433 . S
C1099 N1102 1.384 . S
C1100 H1091 0.929 . S
C1100 C1092 1.378 . S
C1100 C1095 1.338 1_545 S
C1101 H1088 0.929 . S
C1101 C1093 1.433 . S
C1101 N1103 1.384 . S
N1102 C1098 1.441 . S
N1102 C1099 1.384 . S
N1103 C1095 1.441 . S
N1103 C1101 1.384 . S
H1104 C1110 0.930 . S
H1105 C1114 0.930 . S
H1106 C1119 0.929 . S
H1107 C1117 0.929 . S
H1108 C1112 0.929 . S
H1109 C1118 0.929 . S
C1110 H1104 0.930 . S
C1110 C1111 1.367 . S
C1110 C1118 1.378 . S
C1111 C1110 1.367 . S
C1111 C1119 1.433 . S
C1112 H1108 0.929 . S
C1112 C1114 1.378 . S
C1112 C1116 1.350 . S
C1113 C1116 1.463 . S
C1113 C1118 1.350 . S
C1113 N1121 1.427 . S
C1114 H1105 0.930 . S
C1114 C1112 1.378 . S
C1114 C1115 1.367 . S
C1115 C1114 1.367 . S
C1115 C1117 1.433 . S
C1116 C1112 1.350 . S
C1116 C1113 1.463 . S
C1116 N1120 1.427 . S
C1117 H1107 0.929 . S
C1117 C1115 1.433 . S
C1117 N1120 1.384 . S
C1118 H1109 0.929 . S
C1118 C1110 1.378 . S
C1118 C1113 1.350 . S
C1119 H1106 0.929 . S
C1119 C1111 1.433 . S
C1119 N1121 1.384 . S
N1120 C1116 1.427 . S
N1120 C1117 1.384 . S
N1121 C1113 1.427 . S
N1121 C1119 1.384 . S
H1122 C1128 0.930 . S
H1123 C1132 0.930 . S
H1124 C1137 0.929 . S
H1125 C1135 0.929 . S
H1126 C1130 0.929 . S
H1127 C1136 0.929 . S
C1128 H1122 0.930 . S
C1128 C1129 1.367 . S
C1128 C1136 1.378 . S
C1129 C1128 1.367 . S
C1129 C1137 1.433 . S
C1130 H1126 0.929 . S
C1130 C1132 1.378 . S
C1130 C1134 1.350 . S
C1131 C1134 1.463 . S
C1131 C1136 1.350 . S
C1131 N1139 1.427 . S
C1132 H1123 0.930 . S
C1132 C1130 1.378 . S
C1132 C1133 1.367 . S
C1133 C1132 1.367 . S
C1133 C1135 1.433 . S
C1134 C1130 1.350 . S
C1134 C1131 1.463 . S
C1134 N1138 1.427 . S
C1135 H1125 0.929 . S
C1135 C1133 1.433 . S
C1135 N1138 1.384 . S
C1136 H1127 0.929 . S
C1136 C1128 1.378 . S
C1136 C1131 1.350 . S
C1137 H1124 0.929 . S
C1137 C1129 1.433 . S
C1137 N1139 1.384 . S
N1138 C1134 1.427 . S
N1138 C1135 1.384 . S
N1139 C1131 1.427 . S
N1139 C1137 1.384 . S
H1140 C1146 0.930 . S
H1141 C1150 0.930 . S
H1142 C1155 0.929 . S
H1143 C1153 0.929 . S
H1144 C1148 0.929 . S
H1145 C1154 0.929 . S
C1146 H1140 0.930 . S
C1146 C1147 1.367 . S
C1146 C1154 1.378 . S
C1147 C1146 1.367 . S
C1147 C1155 1.433 . S
C1148 H1144 0.929 . S
C1148 C1150 1.378 . S
C1148 C1152 1.350 . S
C1149 C1152 1.463 . S
C1149 C1154 1.350 . S
C1149 N1157 1.427 . S
C1150 H1141 0.930 . S
C1150 C1148 1.378 . S
C1150 C1151 1.367 . S
C1151 C1150 1.367 . S
C1151 C1153 1.433 . S
C1152 C1148 1.350 . S
C1152 C1149 1.463 . S
C1152 N1156 1.427 . S
C1153 H1143 0.929 . S
C1153 C1151 1.433 . S
C1153 N1156 1.384 . S
C1154 H1145 0.929 . S
C1154 C1146 1.378 . S
C1154 C1149 1.350 . S
C1155 H1142 0.929 . S
C1155 C1147 1.433 . S
C1155 N1157 1.384 . S
N1156 C1152 1.427 . S
N1156 C1153 1.384 . S
N1157 C1149 1.427 . S
N1157 C1155 1.384 . S
H1158 C1164 0.930 . S
H1159 C1168 0.930 . S
H1160 C1173 0.929 . S
H1161 C1171 0.929 . S
H1162 C1166 0.929 . S
H1163 C1172 0.929 . S
C1164 H1158 0.930 . S
C1164 C1165 1.367 . S
C1164 C1172 1.378 . S
C1165 C1164 1.367 . S
C1165 C1173 1.433 . S
C1166 H1162 0.929 . S
C1166 C1168 1.378 . S
C1166 C1170 1.350 . S
C1167 C1170 1.463 . S
C1167 C1172 1.350 . S
C1167 N1175 1.427 . S
C1168 H1159 0.930 . S
C1168 C1166 1.378 . S
C1168 C1169 1.367 . S
C1169 C1168 1.367 . S
C1169 C1171 1.433 . S
C1170 C1166 1.350 . S
C1170 C1167 1.463 . S
C1170 N1174 1.427 . S
C1171 H1161 0.929 . S
C1171 C1169 1.433 . S
C1171 N1174 1.384 . S
C1172 H1163 0.929 . S
C1172 C1164 1.378 . S
C1172 C1167 1.350 . S
C1173 H1160 0.929 . S
C1173 C1165 1.433 . S
C1173 N1175 1.384 . S
N1174 C1170 1.427 . S
N1174 C1171 1.384 . S
N1175 C1167 1.427 . S
N1175 C1173 1.384 . S
H1176 C1182 0.930 . S
H1177 C1186 0.930 . S
H1178 C1191 0.929 . S
H1179 C1189 0.929 . S
H1180 C1184 0.929 . S
H1181 C1190 0.929 . S
C1182 H1176 0.930 . S
C1182 C1183 1.367 . S
C1182 C1190 1.378 . S
C1183 C1182 1.367 . S
C1183 C1191 1.433 . S
C1184 H1180 0.929 . S
C1184 C1186 1.378 . S
C1184 C1188 1.350 . S
C1185 C1188 1.463 . S
C1185 C1190 1.350 . S
C1185 N1193 1.427 . S
C1186 H1177 0.930 . S
C1186 C1184 1.378 . S
C1186 C1187 1.367 . S
C1187 C1186 1.367 . S
C1187 C1189 1.433 . S
C1188 C1184 1.350 . S
C1188 C1185 1.463 . S
C1188 N1192 1.427 . S
C1189 H1179 0.929 . S
C1189 C1187 1.433 . S
C1189 N1192 1.384 . S
C1190 H1181 0.929 . S
C1190 C1182 1.378 . S
C1190 C1185 1.350 . S
C1191 H1178 0.929 . S
C1191 C1183 1.433 . S
C1191 N1193 1.384 . S
N1192 C1188 1.427 . S
N1192 C1189 1.384 . S
N1193 C1185 1.427 . S
N1193 C1191 1.384 . S
H1194 C1200 0.930 . S
H1195 C1204 0.930 . S
H1196 C1209 0.929 . S
H1197 C1207 0.929 . S
H1198 C1202 0.929 . S
H1199 C1208 0.929 . S
C1200 H1194 0.930 . S
C1200 C1201 1.367 . S
C1200 C1208 1.378 . S
C1201 C1200 1.367 . S
C1201 C1209 1.433 . S
C1202 H1198 0.929 . S
C1202 C1204 1.378 . S
C1202 C1206 1.350 . S
C1203 C1206 1.463 . S
C1203 C1208 1.350 . S
C1203 N1211 1.427 . S
C1204 H1195 0.930 . S
C1204 C1202 1.378 . S
C1204 C1205 1.367 . S
C1205 C1204 1.367 . S
C1205 C1207 1.433 . S
C1206 C1202 1.350 . S
C1206 C1203 1.463 . S
C1206 N1210 1.427 . S
C1207 H1197 0.929 . S
C1207 C1205 1.433 . S
C1207 N1210 1.384 . S
C1208 H1199 0.929 . S
C1208 C1200 1.378 . S
C1208 C1203 1.350 . S
C1209 H1196 0.929 . S
C1209 C1201 1.433 . S
C1209 N1211 1.384 . S
N1210 C1206 1.427 . S
N1210 C1207 1.384 . S
N1211 C1203 1.427 . S
N1211 C1209 1.384 . S
H1212 C1218 0.930 . S
H1213 C1222 0.930 . S
H1214 C1227 0.929 . S
H1215 C1225 0.929 . S
H1216 C1220 0.929 . S
H1217 C1226 0.929 . S
C1218 H1212 0.930 . S
C1218 C1219 1.367 . S
C1218 C1226 1.378 . S
C1219 C1218 1.367 . S
C1219 C1227 1.433 . S
C1220 H1216 0.929 . S
C1220 C1222 1.378 . S
C1220 C1224 1.350 . S
C1221 C1224 1.463 . S
C1221 C1226 1.350 . S
C1221 N1229 1.427 . S
C1222 H1213 0.930 . S
C1222 C1220 1.378 . S
C1222 C1223 1.367 . S
C1223 C1222 1.367 . S
C1223 C1225 1.433 . S
C1224 C1220 1.350 . S
C1224 C1221 1.463 . S
C1224 N1228 1.427 . S
C1225 H1215 0.929 . S
C1225 C1223 1.433 . S
C1225 N1228 1.384 . S
C1226 H1217 0.929 . S
C1226 C1218 1.378 . S
C1226 C1221 1.350 . S
C1227 H1214 0.929 . S
C1227 C1219 1.433 . S
C1227 N1229 1.384 . S
N1228 C1224 1.427 . S
N1228 C1225 1.384 . S
N1229 C1221 1.427 . S
N1229 C1227 1.384 . S
H1230 C1236 0.930 . S
H1231 C1240 0.930 . S
H1232 C1245 0.929 . S
H1233 C1243 0.929 . S
H1234 C1238 0.929 . S
H1235 C1244 0.929 . S
C1236 H1230 0.930 . S
C1236 C1237 1.367 . S
C1236 C1244 1.378 . S
C1237 C1236 1.367 . S
C1237 C1245 1.433 . S
C1238 H1234 0.929 . S
C1238 C1240 1.378 . S
C1238 C1242 1.350 . S
C1239 C1242 1.463 . S
C1239 C1244 1.350 . S
C1239 N1247 1.427 . S
C1240 H1231 0.930 . S
C1240 C1238 1.378 . S
C1240 C1241 1.367 . S
C1241 C1240 1.367 . S
C1241 C1243 1.433 . S
C1242 C1238 1.350 . S
C1242 C1239 1.463 . S
C1242 N1246 1.427 . S
C1243 H1233 0.929 . S
C1243 C1241 1.433 . S
C1243 N1246 1.384 . S
C1244 H1235 0.929 . S
C1244 C1236 1.378 . S
C1244 C1239 1.350 . S
C1245 H1232 0.929 . S
C1245 C1237 1.433 . S
C1245 N1247 1.384 . S
N1246 C1242 1.427 . S
N1246 C1243 1.384 . S
N1247 C1239 1.427 . S
N1247 C1245 1.384 . S
C535 N2 1.317 . S
C539 N497 1.317 . S
C553 N35 1.301 . S
C557 N398 1.303 . S
C571 N431 1.302 . S
C575 N68 1.301 . S
C589 N101 1.317 . S
C593 N464 1.316 . S
C607 N134 1.310 . S
C611 N299 1.306 . S
C625 N332 1.304 . S
C629 N167 1.307 . S
C643 N365 1.303 . S
C647 N200 1.301 . S
C661 N266 1.309 . S
C665 N233 1.305 . S
C679 N112 1.540 1_556 S
C683 C21 1.594 . S
C697 N13 1.535 1_556 S
C701 C54 1.595 . S
C715 C87 1.591 . S
C719 N46 1.525 1_556 S
C733 C120 1.593 . S
C737 N79 1.528 1_556 S
C751 N178 1.528 . S
C755 C153 1.590 . S
C769 N211 1.539 . S
C773 C186 1.594 . S
C787 N244 1.538 . S
C791 C219 1.595 . S
C805 N145 1.529 . S
C809 C252 1.593 . S
C823 N376 1.531 . S
C827 C285 1.594 . S
C841 C318 1.592 . S
C845 N277 1.525 . S
C859 N310 1.536 . S
C863 C351 1.595 . S
C877 N343 1.526 . S
C881 C384 1.593 . S
C895 N442 1.537 . S
C899 C417 1.595 . S
C913 N475 1.526 . S
C917 C450 1.591 . S
C931 N508 1.525 . S
C935 C483 1.591 . S
C949 N409 1.538 . S
C953 C516 1.595 . S
C967 C205 1.603 . S
C971 C7 1.599 . S
C985 C238 1.598 . S
C989 C40 1.603 . S
C1003 C73 1.593 . S
C1007 C139 1.600 . S
C1021 C172 1.598 . S
C1025 C106 1.603 . S
C1039 C84 0.959 . S
C1043 C150 0.972 . S
C1057 C183 0.951 . S
C1061 C117 0.963 . S
C1075 C18 0.960 . S
C1079 C216 0.972 . S
C1093 C249 0.972 . S
C1097 C51 0.963 . S
C1111 C469 1.603 . S
C1115 C271 1.596 . S
C1129 C502 1.598 . S
C1133 C304 1.603 . S
C1147 C403 1.593 . S
C1151 C337 1.601 . S
C1165 C370 1.601 . S
C1169 C436 1.593 . S
C1183 C414 0.962 . S
C1187 C348 0.972 . S
C1201 C381 0.971 . S
C1205 C447 0.964 . S
C1219 C282 0.962 . S
C1223 C480 0.972 . S
C1237 C513 0.953 . S
C1241 C315 0.958 . S
