# Generated by pormake.
# Topology wmi, (6)-cn, num edge types: 1
# Building blocks:
#     Node 0, Type 0, BuildingBlock: MIFKUJ_clean_sbu_0, # of connection points: 6
#     Node 1, Type 0, BuildingBlock: MIFKUJ_clean_sbu_0, # of connection points: 6
#     Node 2, Type 0, BuildingBlock: MIFKUJ_clean_sbu_0, # of connection points: 6
#     Node 3, Type 0, BuildingBlock: MIFKUJ_clean_sbu_0, # of connection points: 6
#     Node 4, Type 0, BuildingBlock: MIFKUJ_clean_sbu_0, # of connection points: 6
#     Node 5, Type 0, BuildingBlock: MIFKUJ_clean_sbu_0, # of connection points: 6
#     Node 6, Type 0, BuildingBlock: MIFKUJ_clean_sbu_0, # of connection points: 6
#     Node 7, Type 0, BuildingBlock: MIFKUJ_clean_sbu_0, # of connection points: 6
#     Node 8, Type 0, BuildingBlock: MIFKUJ_clean_sbu_0, # of connection points: 6
#     Node 9, Type 0, BuildingBlock: MIFKUJ_clean_sbu_0, # of connection points: 6
#     Node 10, Type 0, BuildingBlock: MIFKUJ_clean_sbu_0, # of connection points: 6
#     Node 11, Type 0, BuildingBlock: MIFKUJ_clean_sbu_0, # of connection points: 6
#     Node 12, Type 0, BuildingBlock: MIFKUJ_clean_sbu_0, # of connection points: 6
#     Node 13, Type 0, BuildingBlock: MIFKUJ_clean_sbu_0, # of connection points: 6
#     Node 14, Type 0, BuildingBlock: MIFKUJ_clean_sbu_0, # of connection points: 6
#     Node 15, Type 0, BuildingBlock: MIFKUJ_clean_sbu_0, # of connection points: 6
#     Node 16, Type 0, BuildingBlock: MIFKUJ_clean_sbu_0, # of connection points: 6
#     Node 17, Type 0, BuildingBlock: MIFKUJ_clean_sbu_0, # of connection points: 6
#     Edge 18, Type (0, 0), BuildingBlock: EZIPEK_clean_linker_0, # of connection points: 2
#     Edge 19, Type (0, 0), BuildingBlock: EZIPEK_clean_linker_0, # of connection points: 2
#     Edge 20, Type (0, 0), BuildingBlock: EZIPEK_clean_linker_0, # of connection points: 2
#     Edge 21, Type (0, 0), BuildingBlock: EZIPEK_clean_linker_0, # of connection points: 2
#     Edge 22, Type (0, 0), BuildingBlock: EZIPEK_clean_linker_0, # of connection points: 2
#     Edge 23, Type (0, 0), BuildingBlock: EZIPEK_clean_linker_0, # of connection points: 2
#     Edge 24, Type (0, 0), BuildingBlock: EZIPEK_clean_linker_0, # of connection points: 2
#     Edge 25, Type (0, 0), BuildingBlock: EZIPEK_clean_linker_0, # of connection points: 2
#     Edge 26, Type (0, 0), BuildingBlock: EZIPEK_clean_linker_0, # of connection points: 2
#     Edge 27, Type (0, 0), BuildingBlock: EZIPEK_clean_linker_0, # of connection points: 2
#     Edge 28, Type (0, 0), BuildingBlock: EZIPEK_clean_linker_0, # of connection points: 2
#     Edge 29, Type (0, 0), BuildingBlock: EZIPEK_clean_linker_0, # of connection points: 2
#     Edge 30, Type (0, 0), BuildingBlock: EZIPEK_clean_linker_0, # of connection points: 2
#     Edge 31, Type (0, 0), BuildingBlock: EZIPEK_clean_linker_0, # of connection points: 2
#     Edge 32, Type (0, 0), BuildingBlock: EZIPEK_clean_linker_0, # of connection points: 2
#     Edge 33, Type (0, 0), BuildingBlock: EZIPEK_clean_linker_0, # of connection points: 2
#     Edge 34, Type (0, 0), BuildingBlock: EZIPEK_clean_linker_0, # of connection points: 2
#     Edge 35, Type (0, 0), BuildingBlock: EZIPEK_clean_linker_0, # of connection points: 2
#     Edge 36, Type (0, 0), BuildingBlock: EZIPEK_clean_linker_0, # of connection points: 2
#     Edge 37, Type (0, 0), BuildingBlock: EZIPEK_clean_linker_0, # of connection points: 2
#     Edge 38, Type (0, 0), BuildingBlock: EZIPEK_clean_linker_0, # of connection points: 2
#     Edge 39, Type (0, 0), BuildingBlock: EZIPEK_clean_linker_0, # of connection points: 2
#     Edge 40, Type (0, 0), BuildingBlock: EZIPEK_clean_linker_0, # of connection points: 2
#     Edge 41, Type (0, 0), BuildingBlock: EZIPEK_clean_linker_0, # of connection points: 2
#     Edge 42, Type (0, 0), BuildingBlock: EZIPEK_clean_linker_0, # of connection points: 2
#     Edge 43, Type (0, 0), BuildingBlock: EZIPEK_clean_linker_0, # of connection points: 2
#     Edge 44, Type (0, 0), BuildingBlock: EZIPEK_clean_linker_0, # of connection points: 2
#     Edge 45, Type (0, 0), BuildingBlock: EZIPEK_clean_linker_0, # of connection points: 2
#     Edge 46, Type (0, 0), BuildingBlock: EZIPEK_clean_linker_0, # of connection points: 2
#     Edge 47, Type (0, 0), BuildingBlock: EZIPEK_clean_linker_0, # of connection points: 2
#     Edge 48, Type (0, 0), BuildingBlock: EZIPEK_clean_linker_0, # of connection points: 2
#     Edge 49, Type (0, 0), BuildingBlock: EZIPEK_clean_linker_0, # of connection points: 2
#     Edge 50, Type (0, 0), BuildingBlock: EZIPEK_clean_linker_0, # of connection points: 2
#     Edge 51, Type (0, 0), BuildingBlock: EZIPEK_clean_linker_0, # of connection points: 2
#     Edge 52, Type (0, 0), BuildingBlock: EZIPEK_clean_linker_0, # of connection points: 2
#     Edge 53, Type (0, 0), BuildingBlock: EZIPEK_clean_linker_0, # of connection points: 2
#     Edge 54, Type (0, 0), BuildingBlock: EZIPEK_clean_linker_0, # of connection points: 2
#     Edge 55, Type (0, 0), BuildingBlock: EZIPEK_clean_linker_0, # of connection points: 2
#     Edge 56, Type (0, 0), BuildingBlock: EZIPEK_clean_linker_0, # of connection points: 2
#     Edge 57, Type (0, 0), BuildingBlock: EZIPEK_clean_linker_0, # of connection points: 2
#     Edge 58, Type (0, 0), BuildingBlock: EZIPEK_clean_linker_0, # of connection points: 2
#     Edge 59, Type (0, 0), BuildingBlock: EZIPEK_clean_linker_0, # of connection points: 2
#     Edge 60, Type (0, 0), BuildingBlock: EZIPEK_clean_linker_0, # of connection points: 2
#     Edge 61, Type (0, 0), BuildingBlock: EZIPEK_clean_linker_0, # of connection points: 2
#     Edge 62, Type (0, 0), BuildingBlock: EZIPEK_clean_linker_0, # of connection points: 2
#     Edge 63, Type (0, 0), BuildingBlock: EZIPEK_clean_linker_0, # of connection points: 2
#     Edge 64, Type (0, 0), BuildingBlock: EZIPEK_clean_linker_0, # of connection points: 2
#     Edge 65, Type (0, 0), BuildingBlock: EZIPEK_clean_linker_0, # of connection points: 2
#     Edge 66, Type (0, 0), BuildingBlock: EZIPEK_clean_linker_0, # of connection points: 2
#     Edge 67, Type (0, 0), BuildingBlock: EZIPEK_clean_linker_0, # of connection points: 2
#     Edge 68, Type (0, 0), BuildingBlock: EZIPEK_clean_linker_0, # of connection points: 2
#     Edge 69, Type (0, 0), BuildingBlock: EZIPEK_clean_linker_0, # of connection points: 2
#     Edge 70, Type (0, 0), BuildingBlock: EZIPEK_clean_linker_0, # of connection points: 2
#     Edge 71, Type (0, 0), BuildingBlock: EZIPEK_clean_linker_0, # of connection points: 2
# Relax obj value: 0.089
# Max RMSD: 0.198
# Mean RMSD: 0.198
data_MOF--net-wmi--node1-MIFKUJ_clean_sbu_0--edge1-EZIPEK_clean_linker_0
_symmetry_space_group_name_H-M    P1
_symmetry_Int_Tables_number       1
_symmetry_cell_setting            triclinic
loop_
_symmetry_equiv_pos_as_xyz
'x, y, z'
_cell_length_a     27.551473
_cell_length_b     26.974816
_cell_length_c     55.322167
_cell_angle_alpha  89.95934
_cell_angle_beta   89.865358
_cell_angle_gamma 119.41745
loop_
_atom_site_label
_atom_site_type_symbol
_atom_site_fract_x
_atom_site_fract_y
_atom_site_fract_z
_atom_type_partial_charge
Zn0 Zn 0.4017 0.96351 0.07396 0.0
Zn1 Zn 0.51557 0.06414 0.08175 0.0
C2 C 0.43681 0.87826 0.07686 0.0
O3 O 0.38343 0.84522 0.07284 0.0
C4 C 0.52372 0.17177 0.09394 0.0
O5 O 0.55467 0.16884 0.11128 0.0
O6 O 0.32456 0.89913 0.07803 0.0
O7 O 0.40329 0.01953 0.09756 0.0
O8 O 0.47572 0.02002 0.11287 0.0
C9 C 0.28778 0.87605 0.06182 0.0
O10 O 0.3017 0.89381 0.03945 0.0
O11 O 0.45595 0.93182 0.07892 0.0
C12 C 0.62981 0.13091 0.07051 0.0
O13 O 0.60717 0.13196 0.04978 0.0
O14 O 0.59798 0.10092 0.08756 0.0
O15 O 0.50409 0.03108 0.04726 0.0
O16 O 0.41361 0.99461 0.0413 0.0
O17 O 0.50093 0.13108 0.0789 0.0
C18 C 0.42947 0.01876 0.116 0.0
C19 C 0.4627 0.01532 0.03308 0.0
Zn20 Zn 0.09647 0.52739 0.08734 0.0
Zn21 Zn 0.91934 0.44123 0.09708 0.0
C22 C 0.15734 0.64068 0.07425 0.0
O23 O 0.16928 0.616 0.05653 0.0
C24 C 0.83344 0.34081 0.07251 0.0
O25 O 0.84342 0.374 0.05363 0.0
O26 O 0.16036 0.51036 0.08764 0.0
O27 O 0.03203 0.48489 0.10866 0.0
O28 O 0.9552 0.43636 0.12847 0.0
C29 C 0.19446 0.52134 0.10491 0.0
O30 O 0.18606 0.5402 0.12549 0.0
O31 O 0.12542 0.61042 0.09119 0.0
C32 C 0.86857 0.5102 0.08272 0.0
O33 O 0.89719 0.51835 0.06267 0.0
O34 O 0.87517 0.48326 0.10015 0.0
O35 O 0.97478 0.46773 0.06869 0.0
O36 O 0.06174 0.50875 0.05495 0.0
O37 O 0.862 0.36032 0.09159 0.0
C38 C 0.00731 0.45572 0.12703 0.0
C39 C 0.00952 0.48437 0.0512 0.0
Zn40 Zn 0.53135 0.6233 0.08106 0.0
Zn41 Zn 0.55814 0.50445 0.09111 0.0
C42 C 0.4115 0.55563 0.07707 0.0
O43 O 0.42301 0.55675 0.05397 0.0
C44 C 0.67093 0.526 0.09723 0.0
O45 O 0.64763 0.49255 0.11594 0.0
O46 O 0.54336 0.70353 0.07398 0.0
O47 O 0.58609 0.62962 0.10586 0.0
O48 O 0.54653 0.54222 0.12088 0.0
C49 C 0.51354 0.72055 0.08499 0.0
O50 O 0.47784 0.68768 0.10141 0.0
O51 O 0.45111 0.57692 0.09225 0.0
C52 C 0.53809 0.39193 0.08114 0.0
O53 O 0.5551 0.41599 0.05985 0.0
O54 O 0.53397 0.42093 0.09841 0.0
O55 O 0.5219 0.5036 0.05904 0.0
O56 O 0.5424 0.5928 0.05074 0.0
O57 O 0.64184 0.54096 0.08451 0.0
C58 C 0.57228 0.59597 0.12374 0.0
C59 C 0.52992 0.54295 0.04418 0.0
Zn60 Zn 0.92482 0.38962 0.90668 0.0
Zn61 Zn 0.06916 0.50011 0.90502 0.0
C62 C 0.86294 0.44363 0.90325 0.0
O63 O 0.84625 0.41416 0.92341 0.0
C64 C 0.17654 0.51395 0.89502 0.0
O65 O 0.17548 0.55055 0.87965 0.0
O66 O 0.85613 0.31516 0.9029 0.0
O67 O 0.98849 0.38382 0.89305 0.0
O68 O 0.03212 0.46392 0.87336 0.0
C69 C 0.84961 0.26861 0.89443 0.0
O70 O 0.893 0.26341 0.88839 0.0
O71 O 0.90331 0.44454 0.89164 0.0
C72 C 0.11675 0.61695 0.92017 0.0
O73 O 0.09383 0.59491 0.94113 0.0
O74 O 0.10683 0.58493 0.90192 0.0
O75 O 0.02555 0.47653 0.93707 0.0
O76 O 0.9378 0.40684 0.94078 0.0
O77 O 0.13357 0.48388 0.90794 0.0
C78 C 0.00566 0.41007 0.87334 0.0
C79 C 0.98226 0.44595 0.94981 0.0
Zn80 Zn 0.61347 0.53041 0.90064 0.0
Zn81 Zn 0.51282 0.58389 0.89557 0.0
C82 C 0.54428 0.41766 0.89412 0.0
O83 O 0.56871 0.42224 0.915 0.0
C84 C 0.52814 0.69187 0.88026 0.0
O85 O 0.51005 0.66203 0.86031 0.0
O86 O 0.6835 0.5233 0.90083 0.0
O87 O 0.63088 0.60623 0.8886 0.0
O88 O 0.55793 0.58544 0.86613 0.0
C89 C 0.70301 0.51407 0.88155 0.0
O90 O 0.67808 0.50978 0.86089 0.0
O91 O 0.55471 0.46266 0.88263 0.0
C92 C 0.40074 0.55479 0.90257 0.0
O93 O 0.42653 0.59458 0.91888 0.0
O94 O 0.42919 0.53915 0.8897 0.0
O95 O 0.52879 0.55969 0.92831 0.0
O96 O 0.58749 0.52593 0.93363 0.0
O97 O 0.53133 0.66614 0.89895 0.0
C98 C 0.61009 0.60509 0.86824 0.0
C99 C 0.55269 0.53968 0.94172 0.0
Zn100 Zn 0.50524 0.10315 0.88373 0.0
Zn101 Zn 0.41259 0.92795 0.895 0.0
C102 C 0.61961 0.16519 0.88251 0.0
O103 O 0.60574 0.20034 0.89284 0.0
C104 C 0.31602 0.82434 0.89995 0.0
O105 O 0.33201 0.82092 0.87793 0.0
O106 O 0.4924 0.16769 0.87318 0.0
O107 O 0.44769 0.02798 0.87282 0.0
O108 O 0.38114 0.94432 0.86462 0.0
C109 C 0.47579 0.19172 0.88822 0.0
O110 O 0.46938 0.17494 0.91085 0.0
O111 O 0.58144 0.11773 0.8748 0.0
C112 C 0.46511 0.85871 0.89951 0.0
O113 O 0.43855 0.84598 0.92028 0.0
O114 O 0.46322 0.89587 0.88598 0.0
O115 O 0.45236 0.99848 0.91676 0.0
O116 O 0.50123 0.09253 0.91981 0.0
O117 O 0.34539 0.86862 0.91238 0.0
C118 C 0.40639 0.99685 0.85975 0.0
C119 C 0.4775 0.04329 0.9296 0.0
Zn120 Zn 0.05666 0.26782 0.41456 0.0
Zn121 Zn 0.16833 0.40688 0.42354 0.0
C122 C 0.12971 0.22158 0.41914 0.0
O123 O 0.12137 0.21541 0.39573 0.0
C124 C 0.1774 0.51093 0.40776 0.0
O125 O 0.211 0.50654 0.39216 0.0
O126 O 0.97916 0.19964 0.41821 0.0
O127 O 0.05373 0.33344 0.42856 0.0
O128 O 0.12421 0.36085 0.45281 0.0
C129 C 0.96787 0.15194 0.40918 0.0
O130 O 0.00517 0.14793 0.39581 0.0
O131 O 0.11048 0.24832 0.43112 0.0
C132 C 0.28955 0.45162 0.41684 0.0
O133 O 0.27645 0.4143 0.39936 0.0
O134 O 0.25137 0.45104 0.42997 0.0
O135 O 0.1513 0.37306 0.38906 0.0
O136 O 0.07948 0.28721 0.38102 0.0
O137 O 0.15028 0.47068 0.42262 0.0
C138 C 0.07229 0.34065 0.44977 0.0
C139 C 0.12171 0.33316 0.37429 0.0
Zn140 Zn 0.74643 0.80529 0.41129 0.0
Zn141 Zn 0.60017 0.7671 0.41883 0.0
C142 C 0.80363 0.923 0.40995 0.0
O143 O 0.8152 0.90718 0.38927 0.0
C144 C 0.49143 0.66628 0.42888 0.0
O145 O 0.48512 0.69897 0.44469 0.0
O146 O 0.81445 0.79749 0.40804 0.0
O147 O 0.69147 0.73655 0.42935 0.0
O148 O 0.64369 0.76967 0.44842 0.0
C149 C 0.85032 0.81656 0.42477 0.0
O150 O 0.84139 0.83945 0.44394 0.0
O151 O 0.76976 0.88469 0.42438 0.0
C152 C 0.52799 0.81253 0.4124 0.0
O153 O 0.50821 0.7732 0.39559 0.0
O154 O 0.57016 0.82012 0.42443 0.0
O155 O 0.63335 0.78256 0.38514 0.0
O156 O 0.72064 0.80196 0.3788 0.0
O157 O 0.53653 0.68577 0.41688 0.0
C158 C 0.67104 0.74333 0.44862 0.0
C159 C 0.67435 0.79428 0.37121 0.0
Zn160 Zn 0.1797 0.95665 0.42017 0.0
Zn161 Zn 0.25756 0.855 0.42152 0.0
C162 C 0.07229 0.85822 0.42604 0.0
O163 O 0.09765 0.82949 0.42022 0.0
C164 C 0.36587 0.87522 0.4291 0.0
O165 O 0.34265 0.85757 0.45044 0.0
O166 O 0.20114 0.03873 0.42305 0.0
O167 O 0.22159 0.92804 0.43785 0.0
O168 O 0.26967 0.89429 0.45421 0.0
C169 C 0.1993 0.06089 0.44299 0.0
O170 O 0.19439 0.03343 0.46327 0.0
O171 O 0.09979 0.9119 0.42798 0.0
C172 C 0.21721 0.74081 0.40725 0.0
O173 O 0.24429 0.76745 0.38758 0.0
O174 O 0.2131 0.76942 0.42461 0.0
O175 O 0.22719 0.88685 0.39515 0.0
O176 O 0.18738 0.93892 0.38618 0.0
O177 O 0.33495 0.87422 0.41191 0.0
C178 C 0.25217 0.92952 0.45496 0.0
C179 C 0.20764 0.90757 0.37968 0.0
Zn180 Zn 0.58417 0.75498 0.22871 0.0
Zn181 Zn 0.75654 0.83152 0.22608 0.0
C182 C 0.5212 0.80422 0.23857 0.0
O183 O 0.50186 0.76143 0.25388 0.0
C184 C 0.85459 0.82585 0.21994 0.0
O185 O 0.84748 0.83854 0.19778 0.0
O186 O 0.51862 0.67783 0.22435 0.0
O187 O 0.65358 0.7769 0.21192 0.0
O188 O 0.72756 0.78781 0.19455 0.0
C189 C 0.51486 0.63044 0.21899 0.0
O190 O 0.55996 0.62701 0.21478 0.0
O191 O 0.55981 0.81181 0.22399 0.0
C192 C 0.81241 0.94316 0.24137 0.0
O193 O 0.80525 0.91473 0.26158 0.0
O194 O 0.79017 0.91592 0.22208 0.0
O195 O 0.69916 0.80538 0.25386 0.0
O196 O 0.60823 0.76305 0.26223 0.0
O197 O 0.819 0.81858 0.23616 0.0
C198 C 0.67507 0.76264 0.19521 0.0
C199 C 0.65878 0.78687 0.26889 0.0
Zn200 Zn 0.29247 0.90615 0.23574 0.0
Zn201 Zn 0.18359 0.92184 0.22639 0.0
C202 C 0.23613 0.78711 0.23747 0.0
O203 O 0.26495 0.80081 0.2576 0.0
C204 C 0.16593 0.01925 0.21871 0.0
O205 O 0.12279 0.98254 0.20617 0.0
O206 O 0.36565 0.91065 0.23252 0.0
O207 O 0.30174 0.97183 0.21634 0.0
O208 O 0.22634 0.91658 0.19669 0.0
C209 C 0.39799 0.91674 0.24983 0.0
O210 O 0.38023 0.91602 0.27195 0.0
O211 O 0.23738 0.82647 0.22434 0.0
C212 C 0.06651 0.83857 0.23385 0.0
O213 O 0.08356 0.82282 0.253 0.0
O214 O 0.10183 0.87599 0.21969 0.0
O215 O 0.19532 0.90595 0.26205 0.0
O216 O 0.27767 0.9132 0.26924 0.0
O217 O 0.19916 0.0041 0.22773 0.0
C218 C 0.27792 0.95262 0.19646 0.0
C219 C 0.23144 0.9065 0.2766 0.0
Zn220 Zn 0.17505 0.45386 0.23217 0.0
Zn221 Zn 0.07648 0.27253 0.22973 0.0
C222 C 0.28806 0.47644 0.23051 0.0
O223 O 0.27949 0.46627 0.2538 0.0
C224 C 0.99066 0.17208 0.25165 0.0
O225 O 0.03369 0.17065 0.26094 0.0
O226 O 0.16485 0.52332 0.23285 0.0
O227 O 0.12091 0.38532 0.21541 0.0
O228 O 0.06243 0.30567 0.19917 0.0
C229 C 0.17296 0.55468 0.21444 0.0
O230 O 0.18065 0.53779 0.1932 0.0
O231 O 0.24943 0.47594 0.21796 0.0
C232 C 0.15261 0.22403 0.23479 0.0
O233 O 0.17699 0.2616 0.25203 0.0
O234 O 0.11401 0.22478 0.22246 0.0
O235 O 0.11703 0.33282 0.25645 0.0
O236 O 0.16951 0.42462 0.26569 0.0
O237 O -0.00147 0.21564 0.2398 0.0
C238 C 0.0867 0.35944 0.19878 0.0
C239 C 0.1432 0.37236 0.27189 0.0
Zn240 Zn 0.74447 0.62395 0.7511 0.0
Zn241 Zn 0.85721 0.74207 0.7603 0.0
C242 C 0.80187 0.56494 0.74288 0.0
O243 O 0.76342 0.54732 0.72605 0.0
C244 C 0.85146 0.84679 0.76828 0.0
O245 O 0.88949 0.85737 0.78477 0.0
O246 O 0.67021 0.55231 0.75421 0.0
O247 O 0.74124 0.67929 0.77325 0.0
O248 O 0.81819 0.69283 0.78983 0.0
C249 C 0.6405 0.52069 0.73715 0.0
O250 O 0.65493 0.53647 0.7146 0.0
O251 O 0.80332 0.60131 0.75788 0.0
C252 C 0.96949 0.82775 0.75388 0.0
O253 O 0.94586 0.83737 0.73523 0.0
O254 O 0.93984 0.78573 0.76757 0.0
O255 O 0.84974 0.7115 0.72575 0.0
O256 O 0.75959 0.65381 0.71866 0.0
O257 O 0.83 0.79974 0.75698 0.0
C258 C 0.76854 0.68328 0.79203 0.0
C259 C 0.80923 0.68444 0.71123 0.0
Zn260 Zn 0.42815 0.17339 0.74471 0.0
Zn261 Zn 0.28243 0.12855 0.7535 0.0
C262 C 0.47675 0.28829 0.74126 0.0
O263 O 0.49066 0.27177 0.72137 0.0
C264 C 0.18033 0.02632 0.76413 0.0
O265 O 0.17312 0.06146 0.77815 0.0
O266 O 0.50325 0.17784 0.74397 0.0
O267 O 0.38283 0.10794 0.76606 0.0
O268 O 0.32682 0.13361 0.78345 0.0
C269 C 0.51995 0.15997 0.76164 0.0
O270 O 0.4871 0.13562 0.78027 0.0
O271 O 0.44396 0.25084 0.75621 0.0
C272 C 0.21462 0.18051 0.74248 0.0
O273 O 0.22876 0.17748 0.72006 0.0
O274 O 0.23672 0.16739 0.75966 0.0
O275 O 0.31331 0.14422 0.71902 0.0
O276 O 0.39959 0.16159 0.71158 0.0
O277 O 0.22566 0.04476 0.75242 0.0
C278 C 0.35543 0.10847 0.78431 0.0
C279 C 0.3528 0.15386 0.70442 0.0
Zn280 Zn 0.86762 0.28993 0.75156 0.0
Zn281 Zn 0.90508 0.17506 0.75797 0.0
C282 C 0.75209 0.23823 0.75123 0.0
O283 O 0.76631 0.26694 0.73084 0.0
C284 C 0.01104 0.18097 0.76694 0.0
O285 O 0.98213 0.1433 0.78366 0.0
O286 O 0.87711 0.36846 0.74576 0.0
O287 O 0.9296 0.30007 0.77299 0.0
O288 O 0.89593 0.21362 0.78818 0.0
C289 C 0.85266 0.38844 0.75873 0.0
O290 O 0.82306 0.35931 0.77741 0.0
O291 O 0.78993 0.23853 0.76443 0.0
C292 C 0.83922 0.05068 0.75063 0.0
O293 O 0.81705 0.06242 0.73204 0.0
O294 O 0.87291 0.09055 0.76432 0.0
O295 O 0.88388 0.18665 0.72394 0.0
O296 O 0.87184 0.26199 0.71976 0.0
O297 O 0.98769 0.20262 0.75428 0.0
C298 C 0.92113 0.26738 0.7908 0.0
C299 C 0.87492 0.22034 0.711 0.0
Zn300 Zn 0.24884 0.09206 0.55986 0.0
Zn301 Zn 0.42174 0.18279 0.55955 0.0
C302 C 0.18738 0.14349 0.56581 0.0
O303 O 0.1703 0.10534 0.58318 0.0
C304 C 0.51755 0.17402 0.55557 0.0
O305 O 0.51181 0.1856 0.53306 0.0
O306 O 0.18478 0.01299 0.55671 0.0
O307 O 0.31793 0.11178 0.54349 0.0
O308 O 0.39809 0.13731 0.52805 0.0
C309 C 0.16228 0.98868 0.53701 0.0
O310 O 0.18542 0.01271 0.51634 0.0
O311 O 0.22443 0.14732 0.55117 0.0
C312 C 0.48661 0.29804 0.57148 0.0
O313 O 0.48373 0.27335 0.59232 0.0
O314 O 0.45737 0.26769 0.55395 0.0
O315 O 0.36192 0.15443 0.58646 0.0
O316 O 0.27105 0.1065 0.59413 0.0
O317 O 0.48256 0.17003 0.57146 0.0
C318 C 0.34603 0.10557 0.5271 0.0
C319 C 0.32114 0.13472 0.60136 0.0
Zn320 Zn 0.94673 0.23784 0.56545 0.0
Zn321 Zn 0.83413 0.23375 0.55961 0.0
C322 C 0.89414 0.11654 0.57644 0.0
O323 O 0.91248 0.13558 0.59823 0.0
C324 C 0.83685 0.34213 0.55224 0.0
O325 O 0.79396 0.31104 0.53833 0.0
O326 O 0.02451 0.25343 0.56123 0.0
O327 O 0.94047 0.28793 0.54094 0.0
O328 O 0.86355 0.21565 0.52885 0.0
C329 C 0.04681 0.23822 0.57743 0.0
O330 O 0.02355 0.22366 0.5989 0.0
O331 O 0.89992 0.15167 0.55972 0.0
C332 C 0.71618 0.16214 0.56853 0.0
O333 O 0.73072 0.13757 0.5853 0.0
O334 O 0.75282 0.20071 0.55523 0.0
O335 O 0.84272 0.20903 0.59345 0.0
O336 O 0.93397 0.2536 0.59846 0.0
O337 O 0.86321 0.31961 0.56202 0.0
C338 C 0.91059 0.25779 0.5238 0.0
C339 C 0.88511 0.22854 0.60717 0.0
Zn340 Zn 0.826 0.77202 0.56689 0.0
Zn341 Zn 0.78089 0.61702 0.56172 0.0
C342 C 0.94073 0.82224 0.56144 0.0
O343 O 0.93613 0.83329 0.58419 0.0
C344 C 0.68093 0.51682 0.57551 0.0
O345 O 0.71579 0.51062 0.58962 0.0
O346 O 0.82963 0.84872 0.57263 0.0
O347 O 0.75833 0.72144 0.54797 0.0
O348 O 0.78954 0.66684 0.53254 0.0
C349 C 0.82638 0.87992 0.55612 0.0
O350 O 0.81619 0.86123 0.53384 0.0
O351 O 0.89701 0.78977 0.54968 0.0
C352 C 0.84535 0.55724 0.56945 0.0
O353 O 0.86683 0.59082 0.58819 0.0
O354 O 0.81316 0.56459 0.55523 0.0
O355 O 0.80198 0.65012 0.59545 0.0
O356 O 0.82525 0.74144 0.59886 0.0
O357 O 0.69843 0.56153 0.56275 0.0
C358 C 0.75941 0.69042 0.53101 0.0
C359 C 0.81715 0.69492 0.60792 0.0
C360 C 0.5044 0.85273 0.09653 0.0
C361 C 0.47362 0.85228 0.07597 0.0
C362 C 0.49092 0.77977 0.05691 0.0
C363 C 0.51477 0.77492 0.07887 0.0
N364 N 0.55718 0.81712 0.1171 0.0
N365 N 0.45034 0.82777 0.03415 0.0
C366 C 0.52621 0.81498 0.0976 0.0
C367 C 0.4713 0.81983 0.05529 0.0
N368 N 0.51145 0.88761 0.11564 0.0
N369 N 0.48451 0.74411 0.03816 0.0
H370 H 0.43621 0.8571 0.03249 0.0
H371 H 0.45021 0.80875 0.0178 0.0
H372 H 0.50123 0.71687 0.03833 0.0
H373 H 0.46198 0.74029 0.02256 0.0
H374 H 0.53284 0.88786 0.13125 0.0
H375 H 0.49654 0.91639 0.11579 0.0
H376 H 0.57635 0.79214 0.11877 0.0
H377 H 0.57635 0.79214 0.11877 0.0
C378 C 0.19988 0.78697 0.04895 0.0
C379 C 0.23646 0.82098 0.0675 0.0
C380 C 0.20806 0.73774 0.09314 0.0
C381 C 0.17819 0.70257 0.07338 0.0
N382 N 0.12965 0.69247 0.03591 0.0
N383 N 0.24506 0.83122 0.11078 0.0
C384 C 0.16899 0.72686 0.05225 0.0
C385 C 0.23073 0.7972 0.09085 0.0
N386 N 0.19397 0.81235 0.02868 0.0
N387 N 0.21795 0.71537 0.11349 0.0
H388 H 0.25695 0.87434 0.10956 0.0
H389 H 0.23769 0.81521 0.12836 0.0
H390 H 0.20268 0.672 0.11615 0.0
H391 H 0.24515 0.74065 0.12701 0.0
H392 H 0.17388 0.79066 0.01304 0.0
H393 H 0.20791 0.85596 0.02799 0.0
H394 H 0.11843 0.70704 0.02067 0.0
H395 H 0.10487 0.64874 0.03854 0.0
C396 C 0.29018 0.58223 0.08835 0.0
C397 C 0.25072 0.53005 0.09911 0.0
C398 C 0.31859 0.49593 0.09741 0.0
C399 C 0.35579 0.54589 0.08452 0.0
N400 N 0.37465 0.63373 0.0649 0.0
N401 N 0.22415 0.43496 0.11202 0.0
C402 C 0.34083 0.58815 0.07914 0.0
C403 C 0.26409 0.48623 0.1032 0.0
N404 N 0.27995 0.62695 0.08761 0.0
N405 N 0.33553 0.45809 0.10418 0.0
H406 H 0.18453 0.42756 0.11679 0.0
H407 H 0.22884 0.39903 0.11318 0.0
H408 H 0.37436 0.46306 0.09944 0.0
H409 H 0.31275 0.42377 0.1157 0.0
H410 H 0.30956 0.66812 0.08261 0.0
H411 H 0.2433 0.62429 0.09417 0.0
H412 H 0.36281 0.66197 0.05783 0.0
H413 H 0.41334 0.6414 0.0586 0.0
C414 C 0.76943 0.42049 0.88824 0.0
C415 C 0.82583 0.46225 0.89196 0.0
C416 C 0.80319 0.53721 0.88202 0.0
C417 C 0.74574 0.49614 0.88311 0.0
N418 N 0.67315 0.39847 0.88765 0.0
N419 N 0.8981 0.56042 0.89173 0.0
C420 C 0.72855 0.43759 0.88607 0.0
C421 C 0.84351 0.52072 0.88824 0.0
N422 N 0.75534 0.36445 0.88626 0.0
N423 N 0.81892 0.59158 0.8749 0.0
H424 H 0.9286 0.54941 0.89568 0.0
H425 H 0.91272 0.60409 0.89187 0.0
H426 H 0.79012 0.60464 0.87045 0.0
H427 H 0.86008 0.62229 0.87151 0.0
H428 H 0.71579 0.33233 0.8814 0.0
H429 H 0.78487 0.35093 0.88693 0.0
H430 H 0.65817 0.35624 0.89274 0.0
H431 H 0.64189 0.40912 0.88543 0.0
C432 C 0.5034 0.2797 0.86241 0.0
C433 C 0.47192 0.24362 0.88177 0.0
C434 C 0.46288 0.32159 0.89967 0.0
C435 C 0.50722 0.3599 0.88465 0.0
N436 N 0.56371 0.37672 0.84898 0.0
N437 N 0.39919 0.22306 0.91067 0.0
C438 C 0.52455 0.33933 0.86471 0.0
C439 C 0.44406 0.26234 0.89781 0.0
N440 N 0.51081 0.25706 0.84161 0.0
N441 N 0.44125 0.34274 0.91638 0.0
H442 H 0.38271 0.17944 0.90794 0.0
H443 H 0.37539 0.23288 0.92227 0.0
H444 H 0.45289 0.38587 0.91689 0.0
H445 H 0.41253 0.31847 0.92965 0.0
H446 H 0.53064 0.28123 0.82637 0.0
H447 H 0.49014 0.21346 0.83827 0.0
H448 H 0.58421 0.36504 0.8363 0.0
H449 H 0.57725 0.42017 0.84924 0.0
C450 C 0.69821 0.18151 0.90931 0.0
C451 C 0.67689 0.17504 0.88554 0.0
C452 C 0.76895 0.20155 0.86891 0.0
C453 C 0.79183 0.22128 0.89217 0.0
N454 N 0.77961 0.2231 0.93515 0.0
N455 N 0.68894 0.17192 0.84252 0.0
C456 C 0.7566 0.20801 0.91264 0.0
C457 C 0.71111 0.18167 0.86524 0.0
N458 N 0.66233 0.16139 0.92855 0.0
N459 N 0.80258 0.20281 0.85047 0.0
H460 H 0.64685 0.15759 0.83929 0.0
H461 H 0.71226 0.17986 0.82677 0.0
H462 H 0.84476 0.21651 0.85283 0.0
H463 H 0.7881 0.18533 0.83349 0.0
H464 H 0.67479 0.16079 0.94624 0.0
H465 H 0.61912 0.14009 0.9265 0.0
H466 H 0.75742 0.22207 0.95057 0.0
H467 H 0.82202 0.23843 0.93818 0.0
C468 C 0.13359 0.09886 0.44966 0.0
C469 C 0.18699 0.10847 0.44222 0.0
C470 C 0.20764 0.20011 0.42427 0.0
C471 C 0.15395 0.18983 0.43135 0.0
N472 N 0.07151 0.13692 0.45598 0.0
N473 N 0.27822 0.17097 0.42598 0.0
C474 C 0.11928 0.14218 0.44608 0.0
C475 C 0.22524 0.1603 0.43076 0.0
N476 N 0.09417 0.04633 0.45786 0.0
N477 N 0.24091 0.24725 0.41071 0.0
H478 H 0.2914 0.14157 0.42968 0.0
H479 H 0.31009 0.20981 0.41975 0.0
H480 H 0.2307 0.27907 0.40724 0.0
H481 H 0.27766 0.25442 0.40234 0.0
H482 H 0.05246 0.03467 0.46044 0.0
H483 H 0.101 0.01192 0.46 0.0
H484 H 0.04866 0.10722 0.46933 0.0
H485 H 0.05676 0.16495 0.45249 0.0
C486 C 0.90525 0.06887 0.43515 0.0
C487 C 0.91349 0.10034 0.41357 0.0
C488 C 0.82979 0.02081 0.39649 0.0
C489 C 0.83051 0.98507 0.41513 0.0
N490 N 0.86686 0.97556 0.45352 0.0
N491 N 0.88115 0.1096 0.37439 0.0
C492 C 0.86664 0.0094 0.43522 0.0
C493 C 0.87438 0.07758 0.39458 0.0
N494 N 0.93456 0.09585 0.45539 0.0
N495 N 0.78619 0.99993 0.38071 0.0
H496 H 0.91179 0.15234 0.37315 0.0
H497 H 0.85799 0.09339 0.35867 0.0
H498 H 0.7525 0.95884 0.38247 0.0
H499 H 0.78065 0.02458 0.36769 0.0
H500 H 0.92756 0.07637 0.47227 0.0
H501 H 0.96179 0.13962 0.45579 0.0
H502 H 0.89728 0.9896 0.46689 0.0
H503 H 0.83771 0.93259 0.45483 0.0
C504 C 0.99236 0.84729 0.40217 0.0
C505 C 0.01185 0.83261 0.42312 0.0
C506 C 0.91909 0.79059 0.44106 0.0
C507 C 0.90315 0.81579 0.42241 0.0
N508 N 0.92648 0.87283 0.38593 0.0
N509 N -0.00451 0.79045 0.46273 0.0
C510 C 0.93978 0.8445 0.40285 0.0
C511 C 0.97551 0.80351 0.44255 0.0
N512 N 0.02468 0.86465 0.38178 0.0
N513 N 0.88001 0.75362 0.45696 0.0
H514 H 0.03624 0.79755 0.46382 0.0
H515 H 0.97269 0.77538 0.47868 0.0
H516 H 0.83794 0.74194 0.45567 0.0
H517 H 0.88814 0.73047 0.46983 0.0
H518 H 0.01061 0.87101 0.36522 0.0
H519 H 0.0636 0.86698 0.38083 0.0
H520 H 0.95471 0.90016 0.37311 0.0
H521 H 0.88887 0.87311 0.38581 0.0
C522 C 0.4554 0.89358 0.22172 0.0
C523 C 0.44778 0.91003 0.24512 0.0
C524 C 0.50821 0.87599 0.26182 0.0
C525 C 0.50149 0.84573 0.23994 0.0
N526 N 0.46811 0.82482 0.19875 0.0
N527 N 0.48471 0.93769 0.28523 0.0
C528 C 0.47588 0.85502 0.21959 0.0
C529 C 0.48015 0.90801 0.26458 0.0
N530 N 0.44507 0.91642 0.20166 0.0
N531 N 0.54212 0.87465 0.27954 0.0
H532 H 0.47283 0.96892 0.28583 0.0
H533 H 0.50197 0.93355 0.30128 0.0
H534 H 0.56434 0.85283 0.27758 0.0
H535 H 0.55092 0.89715 0.29566 0.0
H536 H 0.45314 0.90822 0.18413 0.0
H537 H 0.43613 0.94973 0.20281 0.0
H538 H 0.44397 0.82577 0.18447 0.0
H539 H 0.48178 0.79529 0.19646 0.0
C540 C 0.16158 0.68471 0.23397 0.0
C541 C 0.21552 0.72904 0.22774 0.0
C542 C 0.24099 0.65947 0.21257 0.0
C543 C 0.18638 0.61477 0.21803 0.0
N544 N 0.09283 0.5842 0.23182 0.0
N545 N 0.30288 0.76066 0.20701 0.0
C546 C 0.14604 0.62727 0.22809 0.0
C547 C 0.25382 0.71695 0.21555 0.0
N548 N 0.12597 0.69766 0.24611 0.0
N549 N 0.28204 0.6471 0.2064 0.0
H550 H 0.31459 0.80338 0.20956 0.0
H551 H 0.32976 0.75482 0.1956 0.0
H552 H 0.27564 0.60579 0.20502 0.0
H553 H 0.32396 0.67765 0.20496 0.0
H554 H 0.08846 0.66751 0.25379 0.0
H555 H 0.13511 0.7395 0.24923 0.0
H556 H 0.05972 0.59042 0.23667 0.0
H557 H 0.08091 0.54165 0.22876 0.0
C558 C 0.4426 0.53104 0.2313 0.0
C559 C 0.4586 0.58031 0.21673 0.0
C560 C 0.36347 0.5386 0.20127 0.0
C561 C 0.34532 0.49882 0.22042 0.0
N562 N 0.36647 0.44294 0.24768 0.0
N563 N 0.43319 0.63132 0.1878 0.0
C564 C 0.38487 0.49015 0.23336 0.0
C565 C 0.41888 0.58389 0.20148 0.0
N566 N 0.4819 0.52467 0.24387 0.0
N567 N 0.32891 0.53183 0.18239 0.0
H568 H 0.47373 0.66499 0.1864 0.0
H569 H 0.40391 0.63871 0.17901 0.0
H570 H 0.29068 0.49494 0.18012 0.0
H571 H 0.34172 0.55806 0.16717 0.0
H572 H 0.47379 0.48856 0.25369 0.0
H573 H 0.5239 0.55516 0.2442 0.0
H574 H 0.39107 0.43542 0.25969 0.0
H575 H 0.32535 0.40973 0.24694 0.0
C576 C 0.85727 0.52976 0.76809 0.0
C577 C 0.83593 0.53563 0.74546 0.0
C578 C 0.83947 0.45274 0.72962 0.0
C579 C 0.85548 0.44336 0.75275 0.0
N580 N 0.89888 0.483 0.79088 0.0
N581 N 0.8368 0.52137 0.70246 0.0
C582 C 0.87032 0.48508 0.77108 0.0
C583 C 0.83718 0.5033 0.72547 0.0
N584 N 0.86491 0.56603 0.7867 0.0
N585 N 0.82259 0.41213 0.71201 0.0
H586 H 0.8377 0.55973 0.6989 0.0
H587 H 0.84247 0.50206 0.68722 0.0
H588 H 0.82246 0.37374 0.71403 0.0
H589 H 0.80421 0.41467 0.69595 0.0
H590 H 0.87005 0.55746 0.80459 0.0
H591 H 0.86816 0.60577 0.78424 0.0
H592 H 0.9152 0.51446 0.80408 0.0
H593 H 0.91125 0.45232 0.79278 0.0
C594 C 0.5399 0.44653 0.73272 0.0
C595 C 0.59323 0.46336 0.74267 0.0
C596 C 0.55663 0.36912 0.76126 0.0
C597 C 0.50779 0.34947 0.74728 0.0
N598 N 0.44973 0.36838 0.72092 0.0
N599 N 0.6542 0.43832 0.76472 0.0
C600 C 0.49821 0.38814 0.73358 0.0
C601 C 0.60192 0.42449 0.75697 0.0
N602 N 0.52898 0.48654 0.72292 0.0
N603 N 0.56018 0.33417 0.77817 0.0
H604 H 0.68955 0.47719 0.76119 0.0
H605 H 0.66369 0.4092 0.77274 0.0
H606 H 0.5275 0.29327 0.78154 0.0
H607 H 0.59273 0.34776 0.79051 0.0
H608 H 0.48963 0.47783 0.71717 0.0
H609 H 0.55839 0.52977 0.72251 0.0
H610 H 0.44265 0.39231 0.70806 0.0
H611 H 0.41695 0.32683 0.72298 0.0
C612 C 0.59602 0.14525 0.7447 0.0
C613 C 0.57806 0.17136 0.76209 0.0
C614 C 0.67293 0.22518 0.77797 0.0
C615 C 0.69234 0.20661 0.75803 0.0
N616 N 0.6735 0.14624 0.72326 0.0
N617 N 0.59838 0.23724 0.79505 0.0
C618 C 0.65402 0.1653 0.74177 0.0
C619 C 0.61603 0.21087 0.77897 0.0
N620 N 0.55735 0.10059 0.73141 0.0
N621 N 0.7088 0.25669 0.79589 0.0
H622 H 0.55692 0.22721 0.79681 0.0
H623 H 0.6251 0.27189 0.8056 0.0
H624 H 0.75025 0.26672 0.79607 0.0
H625 H 0.69648 0.26744 0.81194 0.0
H626 H 0.56698 0.07616 0.71989 0.0
H627 H 0.51456 0.0848 0.73339 0.0
H628 H 0.64908 0.12177 0.70894 0.0
H629 H 0.7152 0.15646 0.72187 0.0
C630 C 0.13878 0.24511 0.58568 0.0
C631 C 0.09108 0.22502 0.57079 0.0
C632 C 0.12439 0.17219 0.54629 0.0
C633 C 0.16426 0.18201 0.56427 0.0
N634 N 0.21338 0.22996 0.60039 0.0
N635 N 0.03428 0.16216 0.53855 0.0
C636 C 0.17313 0.21977 0.58365 0.0
C637 C 0.08328 0.18777 0.55107 0.0
N638 N 0.15128 0.2886 0.60151 0.0
N639 N 0.12433 0.14592 0.52517 0.0
H640 H 0.00011 0.16692 0.54288 0.0
H641 H 0.02466 0.13027 0.5258 0.0
H642 H 0.15344 0.13293 0.52135 0.0
H643 H 0.09926 0.14258 0.51049 0.0
H644 H 0.18795 0.30831 0.61149 0.0
H645 H 0.12716 0.30857 0.603 0.0
H646 H 0.21752 0.25138 0.61657 0.0
H647 H 0.24158 0.2149 0.59841 0.0
C648 C 0.89807 0.97788 0.56944 0.0
C649 C 0.84319 0.94052 0.56113 0.0
C650 C 0.82121 0.01873 0.56279 0.0
C651 C 0.87639 0.05614 0.57066 0.0
N652 N 0.96964 0.07388 0.57888 0.0
N653 N 0.75404 0.92555 0.5473 0.0
C654 C 0.91526 0.03623 0.57348 0.0
C655 C 0.80529 0.96113 0.55692 0.0
N656 N 0.93427 0.95766 0.57318 0.0
N657 N 0.78337 0.03765 0.5621 0.0
H658 H 0.73934 0.8823 0.54441 0.0
H659 H 0.72688 0.93907 0.54103 0.0
H660 H 0.7937 0.07943 0.5662 0.0
H661 H 0.74097 0.01156 0.55905 0.0
H662 H 0.97124 0.97913 0.58284 0.0
H663 H 0.9268 0.91811 0.5671 0.0
H664 H 0.00194 0.06444 0.57805 0.0
H665 H 0.98408 0.1166 0.5826 0.0
C666 C 0.05988 0.94221 0.52812 0.0
C667 C 0.10562 0.93856 0.53802 0.0
C668 C 0.04116 0.84949 0.55872 0.0
C669 C -0.00426 0.85423 0.54941 0.0
N670 N 0.96091 0.89642 0.52049 0.0
N671 N 0.14095 0.88474 0.55908 0.0
C672 C 0.00483 0.8972 0.53226 0.0
C673 C 0.09648 0.89058 0.55205 0.0
N674 N 0.06828 0.99105 0.51687 0.0
N675 N 0.03111 0.80654 0.57459 0.0
H676 H 0.18199 0.91523 0.55526 0.0
H677 H 0.13751 0.84844 0.56728 0.0
H678 H 0.99098 0.77356 0.57837 0.0
H679 H 0.06186 0.80409 0.58454 0.0
H680 H 0.03621 0.99926 0.51239 0.0
H681 H 0.10735 0.02608 0.51375 0.0
H682 H 0.96557 0.92195 0.50556 0.0
H683 H 0.91956 0.86745 0.5243 0.0
C684 C 0.49443 0.99826 -0.00721 0.0
C685 C 0.47203 0.02622 0.00687 0.0
C686 C 0.45142 0.06328 0.97029 0.0
C687 C 0.47662 0.03816 0.95619 0.0
N688 N 0.53176 0.99111 0.954 0.0
N689 N 0.44335 0.09737 0.00968 0.0
C690 C 0.50095 0.00826 0.96743 0.0
C691 C 0.45485 0.06245 -0.0042 0.0
N692 N 0.50764 0.96075 0.00347 0.0
N693 N 0.4216 0.08525 0.95939 0.0
H694 H 0.44672 0.09901 0.02848 0.0
H695 H 0.43621 0.12888 0.00244 0.0
H696 H 0.416 0.08456 0.94074 0.0
H697 H 0.39765 0.09881 0.96895 0.0
H698 H 0.51759 0.93383 -0.00621 0.0
H699 H 0.50506 0.9537 0.02207 0.0
H700 H 0.55526 0.97439 0.96153 0.0
H701 H 0.53783 0.99812 0.93542 0.0
C702 C 0.98443 0.50297 0.98567 0.0
C703 C 0.98415 0.45412 0.97606 0.0
C704 C 0.98202 0.41786 0.01676 0.0
C705 C 0.99034 0.47018 0.02619 0.0
N706 N 0.00039 0.56329 0.02064 0.0
N707 N 0.987 0.36684 0.9817 0.0
C708 C 0.99132 0.51286 0.01094 0.0
C709 C 0.98342 0.4116 -0.00861 0.0
N710 N 0.97672 0.53889 0.9707 0.0
N711 N 0.97317 0.37448 0.03213 0.0
H712 H 0.98855 0.36094 0.96314 0.0
H713 H 0.99287 0.33785 -0.00806 0.0
H714 H 0.97229 0.37806 0.05089 0.0
H715 H 0.96174 0.33344 0.02641 0.0
H716 H 0.97111 0.57219 0.97684 0.0
H717 H 0.97174 0.53285 0.95205 0.0
H718 H 0.0083 0.59883 0.01036 0.0
H719 H 0.00253 0.57041 0.03924 0.0
C720 C 0.49307 0.50049 0.97866 0.0
C721 C 0.54523 0.53847 0.96797 0.0
C722 C 0.58824 0.56654 0.00765 0.0
C723 C 0.53502 0.53436 0.01838 0.0
N724 N 0.43598 0.47205 0.01499 0.0
N725 N 0.64002 0.61517 0.97188 0.0
C726 C 0.48709 0.50124 0.00417 0.0
C727 C 0.59228 0.57341 0.98234 0.0
N728 N 0.45006 0.46289 0.96453 0.0
N729 N 0.63503 0.58973 0.0217 0.0
H730 H 0.64431 0.62299 0.95331 0.0
H731 H 0.67342 0.64577 0.98178 0.0
H732 H 0.63359 0.58509 0.04046 0.0
H733 H 0.67528 0.60847 0.01463 0.0
H734 H 0.41283 0.43024 0.97142 0.0
H735 H 0.45296 0.46188 0.94575 0.0
H736 H 0.39861 0.45264 0.0055 0.0
H737 H 0.4308 0.4695 0.03371 0.0
C738 C 0.16994 0.33723 0.33528 0.0
C739 C 0.12961 0.34477 0.34822 0.0
C740 C 0.09418 0.36258 0.31067 0.0
C741 C 0.13688 0.35901 0.29784 0.0
N742 N 0.22027 0.35105 0.29754 0.0
N743 N 0.06062 0.3752 0.34937 0.0
C744 C 0.17623 0.34854 0.31001 0.0
C745 C 0.09374 0.36044 0.33623 0.0
N746 N 0.20127 0.31825 0.34708 0.0
N747 N 0.05348 0.36708 0.29837 0.0
H748 H 0.05913 0.37426 0.36823 0.0
H749 H 0.03838 0.39326 0.34177 0.0
H750 H 0.05281 0.36965 0.27956 0.0
H751 H 0.01787 0.36353 0.30659 0.0
H752 H 0.22716 0.30601 0.3383 0.0
H753 H 0.19876 0.31141 0.36572 0.0
H754 H 0.25354 0.34964 0.30574 0.0
H755 H 0.22544 0.35837 0.27895 0.0
C756 C 0.66371 0.74463 0.33265 0.0
C757 C 0.66671 0.7919 0.3451 0.0
C758 C 0.6704 0.83938 0.30704 0.0
C759 C 0.66971 0.79295 0.29474 0.0
N760 N 0.67553 0.7068 0.29476 0.0
N761 N 0.67501 0.88503 0.34548 0.0
C762 C 0.66943 0.74718 0.30725 0.0
C763 C 0.67054 0.83962 0.33267 0.0
N764 N 0.65337 0.69661 0.34516 0.0
N765 N 0.67001 0.88241 0.29408 0.0
H766 H 0.67131 0.88443 0.36426 0.0
H767 H 0.68376 0.92377 0.33782 0.0
H768 H 0.67279 0.88462 0.27525 0.0
H769 H 0.66528 0.91506 0.30165 0.0
H770 H 0.64513 0.65857 0.33695 0.0
H771 H 0.64809 0.69302 0.36389 0.0
H772 H 0.68126 0.67536 0.303 0.0
H773 H 0.67972 0.70761 0.27599 0.0
C774 C 0.25945 0.95465 0.31642 0.0
C775 C 0.22287 0.90577 0.30294 0.0
C776 C 0.1766 0.85573 0.34028 0.0
C777 C 0.21591 0.90333 0.35367 0.0
N778 N 0.30134 0.99296 0.35525 0.0
N779 N 0.15228 0.8068 0.30168 0.0
C780 C 0.25944 0.95121 0.34194 0.0
C781 C 0.1828 0.85536 0.31475 0.0
N782 N 0.29263 0.00509 0.30484 0.0
N783 N 0.13282 0.8117 0.35193 0.0
H784 H 0.15573 0.80533 0.28296 0.0
H785 H 0.12661 0.76718 0.30948 0.0
H786 H 0.1285 0.80981 0.3707 0.0
H787 H 0.09929 0.77876 0.34299 0.0
H788 H 0.31587 0.04354 0.31385 0.0
H789 H 0.29282 0.00976 0.28611 0.0
H790 H 0.33732 0.02594 0.3476 0.0
H791 H 0.3027 0.99171 0.37409 0.0
C792 C 0.85683 0.6826 0.67242 0.0
C793 C 0.81803 0.69355 0.685 0.0
C794 C 0.77643 0.69913 0.64708 0.0
C795 C 0.81678 0.69139 0.63434 0.0
N796 N 0.90194 0.68678 0.63409 0.0
N797 N 0.75496 0.7316 0.68404 0.0
C798 C 0.85907 0.68634 0.64676 0.0
C799 C 0.78208 0.70774 0.67222 0.0
N800 N 0.89004 0.66693 0.68479 0.0
N801 N 0.73167 0.69656 0.63527 0.0
H802 H 0.76064 0.74167 0.70241 0.0
H803 H 0.73222 0.74752 0.67511 0.0
H804 H 0.7251 0.68892 0.61676 0.0
H805 H 0.69824 0.69624 0.64427 0.0
H806 H 0.91468 0.65256 0.6764 0.0
H807 H 0.89009 0.66416 0.70357 0.0
H808 H 0.93707 0.68917 0.64222 0.0
H809 H 0.90445 0.6893 0.61527 0.0
C810 C 0.35738 0.19535 0.63843 0.0
C811 C 0.33131 0.14069 0.62761 0.0
C812 C 0.31177 0.09543 0.6675 0.0
C813 C 0.34237 0.14992 0.67821 0.0
N814 N 0.39922 0.25173 0.67432 0.0
N815 N 0.29299 0.03904 0.63118 0.0
C816 C 0.36682 0.19994 0.66378 0.0
C817 C 0.31079 0.09075 0.64197 0.0
N818 N 0.37057 0.24252 0.62471 0.0
N819 N 0.28361 0.0481 0.6817 0.0
H820 H 0.2934 0.03397 0.6125 0.0
H821 H 0.28302 0.00193 0.64072 0.0
H822 H 0.28528 0.04915 0.70053 0.0
H823 H 0.25507 0.00832 0.67489 0.0
H824 H 0.38398 0.28277 0.63196 0.0
H825 H 0.36397 0.24082 0.6061 0.0
H826 H 0.4237 0.28893 0.66459 0.0
H827 H 0.40406 0.25691 0.69298 0.0
C828 C 0.84164 0.17235 0.64552 0.0
C829 C 0.87849 0.22456 0.63373 0.0
C830 C 0.919 0.26735 0.67249 0.0
C831 C 0.87795 0.21821 0.68451 0.0
N832 N 0.79385 0.12729 0.68286 0.0
N833 N 0.93948 0.32623 0.6371 0.0
C834 C 0.83736 0.17143 0.67118 0.0
C835 C 0.9135 0.27342 0.64754 0.0
N836 N 0.81248 0.12335 0.63257 0.0
N837 N 0.96404 0.30783 0.68479 0.0
H838 H 0.93317 0.33336 0.61913 0.0
H839 H 0.96161 0.36353 0.64705 0.0
H840 H 0.97081 0.30396 0.70308 0.0
H841 H -0.00242 0.34188 0.6762 0.0
H842 H 0.78988 0.08344 0.64063 0.0
H843 H 0.81449 0.12147 0.61383 0.0
H844 H 0.75983 0.09503 0.67385 0.0
H845 H 0.78951 0.12553 0.70162 0.0
C846 C 0.34342 0.02489 0.16735 0.0
C847 C 0.31321 0.96694 0.17444 0.0
C848 C 0.3667 0.9436 0.14539 0.0
C849 C 0.3983 0.00208 0.13915 0.0
N850 N 0.42564 0.09952 0.14766 0.0
N851 N 0.29781 0.87106 0.1716 0.0
C852 C 0.38921 0.04303 0.15121 0.0
C853 C 0.3253 0.9262 0.16382 0.0
N854 N 0.32688 0.06219 0.17546 0.0
N855 N 0.37507 0.90455 0.13305 0.0
H856 H 0.26293 0.85529 0.1827 0.0
H857 H 0.30977 0.84101 0.16738 0.0
H858 H 0.40718 0.91627 0.12058 0.0
H859 H 0.34957 0.8607 0.13444 0.0
H860 H 0.34348 0.10373 0.1691 0.0
H861 H 0.29264 0.04991 0.18689 0.0
H862 H 0.42456 0.132 0.15737 0.0
H863 H 0.46065 0.11349 0.1366 0.0
C864 C 0.05566 0.40059 0.13763 0.0
C865 C 0.03585 0.43816 0.14474 0.0
C866 C 0.05027 0.42478 0.18725 0.0
C867 C 0.07327 0.39001 0.18019 0.0
N868 N 0.10531 0.35051 0.14905 0.0
N869 N 0.02442 0.49509 0.17525 0.0
C870 C 0.07847 0.37987 0.15542 0.0
C871 C 0.03653 0.4532 0.16925 0.0
N872 N 0.05016 0.3826 0.11416 0.0
N873 N 0.03768 0.42742 0.21098 0.0
H874 H 0.01489 0.51729 0.16237 0.0
H875 H 0.02855 0.51131 0.19263 0.0
H876 H 0.04629 0.40689 0.22491 0.0
H877 H 0.01377 0.4455 0.21662 0.0
H878 H 0.05813 0.35067 0.10829 0.0
H879 H 0.03376 0.39666 0.10054 0.0
H880 H 0.1121 0.34258 0.13133 0.0
H881 H 0.12454 0.33699 0.16161 0.0
C882 C 0.65423 0.66753 0.1793 0.0
C883 C 0.64127 0.71252 0.18005 0.0
C884 C 0.56285 0.65918 0.15295 0.0
C885 C 0.58409 0.62217 0.1479 0.0
N886 N 0.64481 0.58491 0.15782 0.0
N887 N 0.58124 0.75058 0.16878 0.0
C888 C 0.62773 0.62387 0.16185 0.0
C889 C 0.59433 0.70785 0.1675 0.0
N890 N 0.68959 0.66519 0.19602 0.0
N891 N 0.51292 0.6475 0.14322 0.0
H892 H 0.60533 0.78856 0.178 0.0
H893 H 0.54809 0.75026 0.15975 0.0
H894 H 0.4882 0.60944 0.13411 0.0
H895 H 0.49379 0.67203 0.14578 0.0
H896 H 0.69699 0.63106 0.19772 0.0
H897 H 0.70726 0.69459 0.20999 0.0
H898 H 0.68045 0.58735 0.1654 0.0
H899 H 0.62338 0.55032 0.14634 0.0
C900 C 0.93997 0.37134 0.83895 0.0
C901 C 0.98749 0.3767 0.85095 0.0
C902 C 0.98381 0.29848 0.82693 0.0
C903 C 0.93666 0.29412 0.81486 0.0
N904 N 0.85863 0.31017 0.81544 0.0
N905 N 0.05797 0.34952 0.85614 0.0
C906 C 0.91143 0.32588 0.8227 0.0
C907 C 0.0101 0.3409 0.84505 0.0
N908 N 0.92342 0.41095 0.84235 0.0
N909 N 0.00204 0.26103 0.82144 0.0
H910 H 0.07888 0.38166 0.86885 0.0
H911 H 0.07915 0.32763 0.85199 0.0
H912 H 0.98223 0.229 0.80865 0.0
H913 H 0.03393 0.2587 0.83042 0.0
H914 H 0.89031 0.41061 0.83318 0.0
H915 H 0.94691 0.44791 0.85228 0.0
H916 H 0.83506 0.3272 0.82268 0.0
H917 H 0.83626 0.27461 0.80456 0.0
C918 C 0.64892 0.58686 0.83086 0.0
C919 C 0.6483 0.62629 0.84751 0.0
C920 C 0.7369 0.70191 0.83128 0.0
C921 C 0.73679 0.66227 0.81463 0.0
N922 N 0.70506 0.56506 0.80392 0.0
N923 N 0.6871 0.72197 0.86271 0.0
C924 C 0.69623 0.60408 0.81594 0.0
C925 C 0.69142 0.68409 0.84764 0.0
N926 N 0.60416 0.53331 0.82906 0.0
N927 N 0.7813 0.75588 0.83164 0.0
H928 H 0.65288 0.71035 0.87408 0.0
H929 H 0.71501 0.76542 0.86303 0.0
H930 H 0.81552 0.76856 0.82015 0.0
H931 H 0.78653 0.78692 0.84411 0.0
H932 H 0.60012 0.50482 0.81547 0.0
H933 H 0.56876 0.51883 0.83988 0.0
H934 H 0.67985 0.52123 0.80583 0.0
H935 H 0.74155 0.57696 0.79417 0.0
C936 C 0.35013 0.02062 0.80093 0.0
C937 C 0.35388 0.0741 0.80552 0.0
C938 C 0.37389 0.06558 0.84788 0.0
C939 C 0.38455 0.02085 0.84149 0.0
N940 N 0.38641 0.95797 0.81078 0.0
N941 N 0.37072 0.14897 0.83402 0.0
C942 C 0.37296 0.99832 0.81777 0.0
C943 C 0.36525 0.09679 0.82928 0.0
N944 N 0.32413 0.99097 0.78055 0.0
N945 N 0.36997 0.07686 0.87164 0.0
H946 H 0.36603 0.17414 0.821 0.0
H947 H 0.3837 0.16906 0.85068 0.0
H948 H 0.37486 0.05403 0.88575 0.0
H949 H 0.35603 0.10464 0.87718 0.0
H950 H 0.31625 0.94961 0.77731 0.0
H951 H 0.30469 0.00527 0.76842 0.0
H952 H 0.38378 0.94472 0.79291 0.0
H953 H 0.40516 0.94166 0.82223 0.0
C954 C 0.94586 0.31314 0.48631 0.0
C955 C 0.93762 0.26573 0.50007 0.0
C956 C 0.02045 0.2694 0.48232 0.0
C957 C 0.03138 0.31952 0.46967 0.0
N958 N 0.00806 0.39301 0.46106 0.0
N959 N 0.95681 0.18832 0.50515 0.0
C960 C -0.00538 0.3422 0.47185 0.0
C961 C 0.97141 0.24067 0.49619 0.0
N962 N 0.90562 0.32866 0.48664 0.0
N963 N 0.05685 0.24887 0.48146 0.0
H964 H 0.91908 0.16281 0.51399 0.0
H965 H 0.91908 0.16281 0.51399 0.0
H966 H 0.09568 0.2707 0.47315 0.0
H967 H 0.04945 0.21187 0.49056 0.0
H968 H 0.90579 0.35985 0.47551 0.0
H969 H 0.86896 0.30574 0.49663 0.0
H970 H 0.98573 0.41448 0.46354 0.0
H971 H 0.04462 0.41637 0.45109 0.0
C972 C 0.73883 0.77053 0.4817 0.0
C973 C 0.6885 0.7291 0.47131 0.0
C974 C 0.68647 0.65698 0.49878 0.0
C975 C 0.73957 0.69801 0.50741 0.0
N976 N 0.82374 0.7863 0.50072 0.0
N977 N 0.61584 0.63141 0.46776 0.0
C978 C 0.76808 0.75259 0.49689 0.0
C979 C 0.66264 0.67163 0.47916 0.0
N980 N 0.75805 0.82699 0.47753 0.0
N981 N 0.65875 0.60481 0.50958 0.0
H982 H 0.59582 0.64165 0.45426 0.0
H983 H 0.5983 0.5879 0.47093 0.0
H984 H 0.67714 0.59206 0.52283 0.0
H985 H 0.61735 0.5752 0.50601 0.0
H986 H 0.79262 0.85892 0.4864 0.0
H987 H 0.73609 0.84161 0.46716 0.0
H988 H 0.84755 0.8251 0.49191 0.0
H989 H 0.84669 0.77175 0.5104 0.0
C990 C 0.26485 0.95977 0.49815 0.0
C991 C 0.27328 0.97484 0.47335 0.0
C992 C 0.32577 0.07599 0.48389 0.0
C993 C 0.32013 0.06069 0.50865 0.0
N994 N 0.2952 0.98846 0.53936 0.0
N995 N 0.3219 0.04567 0.4424 0.0
C996 C 0.29268 0.00264 0.51584 0.0
C997 C 0.30653 0.03256 0.4661 0.0
N998 N 0.22934 0.90461 0.50473 0.0
N999 N 0.34868 0.13203 0.47746 0.0
H1000 H 0.30954 0.01523 0.42877 0.0
H1001 H 0.35096 0.0862 0.43644 0.0
H1002 H 0.36223 0.16492 0.49004 0.0
H1003 H 0.35086 0.14601 0.45978 0.0
H1004 H 0.2187 0.89117 0.52252 0.0
H1005 H 0.20699 0.87245 0.49223 0.0
H1006 H 0.28186 0.94699 0.54513 0.0
H1007 H 0.31521 0.01857 0.5529 0.0
C1008 C 0.58138 0.32933 0.08299 0.0
C1009 C 0.53313 0.33515 0.08551 0.0
C1010 C 0.47695 0.23231 0.0935 0.0
C1011 C 0.52489 0.2266 0.08942 0.0
N1012 N 0.61913 0.26704 0.07468 0.0
N1013 N 0.43364 0.29194 0.09036 0.0
C1014 C 0.57607 0.27441 0.0826 0.0
C1015 C 0.48044 0.28654 0.09011 0.0
N1016 N 0.63282 0.3766 0.08185 0.0
N1017 N 0.42852 0.18619 0.10102 0.0
H1018 H 0.43498 0.33105 0.08834 0.0
H1019 H 0.39333 0.25758 0.09105 0.0
H1020 H 0.42385 0.1455 0.10229 0.0
H1021 H 0.39392 0.18851 0.10709 0.0
H1022 H 0.67 0.37543 0.08287 0.0
H1023 H 0.63832 0.4175 0.08227 0.0
H1024 H 0.65551 0.29941 0.06701 0.0
H1025 H 0.61607 0.22713 0.07337 0.0
C1026 C 0.72816 0.18814 0.05558 0.0
C1027 C 0.68921 0.17403 0.0748 0.0
C1028 C 0.74504 0.26841 0.09209 0.0
C1029 C 0.78442 0.28303 0.07309 0.0
N1030 N 0.82055 0.25296 0.03986 0.0
N1031 N 0.67667 0.19219 0.1166 0.0
C1032 C 0.77823 0.24166 0.05571 0.0
C1033 C 0.7029 0.21113 0.09485 0.0
N1034 N 0.71683 0.15029 0.03718 0.0
N1035 N 0.74547 0.30954 0.10666 0.0
H1036 H 0.65006 0.14936 0.12034 0.0
H1037 H 0.68809 0.21775 0.13197 0.0
H1038 H 0.7734 0.35283 0.10442 0.0
H1039 H 0.71383 0.30118 0.1191 0.0
H1040 H 0.73943 0.16028 0.0211 0.0
H1041 H 0.68346 0.10875 0.03796 0.0
H1042 H 0.82078 0.22278 0.02822 0.0
H1043 H 0.85774 0.29159 0.03964 0.0
C1044 C 0.73505 0.5144 0.06814 0.0
C1045 C 0.72794 0.53842 0.08977 0.0
C1046 C 0.82126 0.55887 0.10298 0.0
C1047 C 0.82285 0.5246 0.08387 0.0
N1048 N 0.77652 0.46268 0.04996 0.0
N1049 N 0.76588 0.58839 0.12696 0.0
C1050 C 0.77903 0.50131 0.06662 0.0
C1051 C 0.77189 0.56251 0.10686 0.0
N1052 N 0.69926 0.50263 0.04922 0.0
N1053 N 0.86738 0.5888 0.11703 0.0
H1054 H 0.73291 0.59673 0.12887 0.0
H1055 H 0.79247 0.60037 0.14177 0.0
H1056 H 0.90428 0.58759 0.11432 0.0
H1057 H 0.87091 0.61841 0.12995 0.0
H1058 H 0.70609 0.49039 0.03226 0.0
H1059 H 0.666 0.51061 0.04948 0.0
H1060 H 0.74184 0.43897 0.0391 0.0
H1061 H 0.80626 0.44967 0.04855 0.0
C1062 C 0.31483 0.52758 0.87693 0.0
C1063 C 0.33936 0.52992 0.89977 0.0
C1064 C 0.25346 0.51348 0.92011 0.0
C1065 C 0.2285 0.51011 0.89725 0.0
N1066 N 0.22892 0.4935 0.85445 0.0
N1067 N 0.32471 0.50433 0.94197 0.0
C1068 C 0.2571 0.51034 0.87583 0.0
C1069 C 0.30609 0.51585 0.92098 0.0
N1070 N 0.34673 0.54542 0.85645 0.0
N1071 N 0.22951 0.51855 0.94093 0.0
H1072 H 0.36232 0.50385 0.94296 0.0
H1073 H 0.30008 0.48899 0.95745 0.0
H1074 H 0.19183 0.51863 0.94152 0.0
H1075 H 0.24976 0.52789 0.95756 0.0
H1076 H 0.33154 0.55045 0.83993 0.0
H1077 H 0.3894 0.55998 0.85621 0.0
H1078 H 0.24655 0.48812 0.83868 0.0
H1079 H 0.18615 0.47863 0.85325 0.0
C1080 C 0.53148 0.8224 0.90856 0.0
C1081 C 0.49507 0.82794 0.89196 0.0
C1082 C 0.51191 0.76921 0.8632 0.0
C1083 C 0.53261 0.74965 0.88218 0.0
N1084 N 0.5806 0.77197 0.92036 0.0
N1085 N 0.44865 0.80337 0.85301 0.0
C1086 C 0.54839 0.78091 0.90415 0.0
C1087 C 0.48549 0.80141 0.86893 0.0
N1088 N 0.55124 0.85823 0.92797 0.0
N1089 N 0.51971 0.75942 0.8397 0.0
H1090 H 0.4261 0.82423 0.85645 0.0
H1091 H 0.43661 0.77943 0.83716 0.0
H1092 H 0.54513 0.74233 0.83495 0.0
H1093 H 0.50848 0.77627 0.82517 0.0
H1094 H 0.5806 0.85935 0.94006 0.0
H1095 H 0.54168 0.8907 0.93085 0.0
H1096 H 0.58707 0.7866 0.93809 0.0
H1097 H 0.60228 0.75075 0.91563 0.0
C1098 C 0.26191 0.74294 0.92815 0.0
C1099 C 0.26234 0.77832 0.90914 0.0
C1100 C 0.16235 0.715 0.90276 0.0
C1101 C 0.16452 0.67521 0.91881 0.0
N1102 N 0.21837 0.64771 0.94452 0.0
N1103 N 0.21357 0.8008 0.87873 0.0
C1104 C 0.21453 0.68847 0.93125 0.0
C1105 C 0.21252 0.76532 0.89665 0.0
N1106 N 0.30686 0.76089 0.94308 0.0
N1107 N 0.11215 0.70475 0.89368 0.0
H1108 H 0.24843 0.84028 0.87518 0.0
H1109 H 0.18077 0.79051 0.86684 0.0
H1110 H 0.07479 0.66827 0.89805 0.0
H1111 H 0.10664 0.73408 0.88352 0.0
H1112 H 0.30644 0.73915 0.95873 0.0
H1113 H 0.34257 0.80037 0.94136 0.0
H1114 H 0.25585 0.65285 0.95124 0.0
H1115 H 0.18531 0.60669 0.94711 0.0
C1116 C 0.16181 0.6401 0.39286 0.0
C1117 C 0.19882 0.67937 0.41008 0.0
C1118 C 0.2085 0.60282 0.4295 0.0
C1119 C 0.17828 0.56596 0.4102 0.0
N1120 N 0.12717 0.54858 0.37303 0.0
N1121 N 0.26346 0.70006 0.44307 0.0
C1122 C 0.15493 0.58426 0.39179 0.0
C1123 C 0.22305 0.66112 0.42824 0.0
N1124 N 0.13241 0.65601 0.3779 0.0
N1125 N 0.22447 0.58256 0.44881 0.0
H1126 H 0.27679 0.74344 0.44256 0.0
H1127 H 0.28759 0.69032 0.4545 0.0
H1128 H 0.21781 0.54112 0.4499 0.0
H1129 H 0.24045 0.60555 0.46469 0.0
H1130 H 0.10097 0.62804 0.36643 0.0
H1131 H 0.13601 0.69636 0.37853 0.0
H1132 H 0.11499 0.56143 0.35753 0.0
H1133 H 0.11868 0.50639 0.37243 0.0
C1134 C 0.41846 0.59314 0.40157 0.0
C1135 C 0.44496 0.60763 0.4245 0.0
C1136 C 0.37701 0.51302 0.4401 0.0
C1137 C 0.34638 0.50189 0.41831 0.0
N1138 N 0.33464 0.53366 0.37897 0.0
N1139 N 0.4512 0.58177 0.46564 0.0
C1140 C 0.36666 0.54209 0.39906 0.0
C1141 C 0.42477 0.56752 0.44378 0.0
N1142 N 0.44222 0.62826 0.38211 0.0
N1143 N 0.36103 0.47071 0.45697 0.0
H1144 H 0.48885 0.61911 0.4684 0.0
H1145 H 0.43509 0.55783 0.48132 0.0
H1146 H 0.32667 0.4303 0.45455 0.0
H1147 H 0.38399 0.47367 0.47233 0.0
H1148 H 0.42885 0.6163 0.36441 0.0
H1149 H 0.47802 0.66781 0.38311 0.0
H1150 H 0.34317 0.56503 0.36606 0.0
H1151 H 0.29695 0.49683 0.37585 0.0
C1152 C 0.48537 0.87002 0.39758 0.0
C1153 C 0.50006 0.84634 0.41734 0.0
C1154 C 0.45263 0.87955 0.44466 0.0
C1155 C 0.42334 0.88461 0.42477 0.0
N1156 N 0.42645 0.90669 0.38235 0.0
N1157 N 0.49704 0.82916 0.46067 0.0
C1158 C 0.44452 0.88716 0.40112 0.0
C1159 C 0.48485 0.85249 0.44128 0.0
N1160 N 0.51194 0.87765 0.37586 0.0
N1161 N 0.45027 0.90148 0.46657 0.0
H1162 H 0.51897 0.80702 0.45951 0.0
H1163 H 0.48093 0.82769 0.47789 0.0
H1164 H 0.43019 0.92546 0.46878 0.0
H1165 H 0.47416 0.90243 0.48133 0.0
H1166 H 0.50599 0.89775 0.36102 0.0
H1167 H 0.54403 0.86815 0.37331 0.0
H1168 H 0.43345 0.90181 0.36424 0.0
H1169 H 0.40594 0.93001 0.38512 0.0
C1170 C 0.91551 0.78151 0.2163 0.0
C1171 C 0.90606 0.8247 0.22614 0.0
C1172 C -0.00015 0.87282 0.24345 0.0
C1173 C 0.00945 0.82997 0.23339 0.0
N1174 N 0.9758 0.73931 0.21401 0.0
N1175 N 0.93511 0.90727 0.25158 0.0
C1176 C 0.96692 0.78284 0.22099 0.0
C1177 C 0.94687 0.86886 0.24065 0.0
N1178 N 0.87557 0.73991 0.20218 0.0
N1179 N 0.04235 0.9185 0.25488 0.0
H1180 H 0.89835 0.90839 0.24875 0.0
H1181 H 0.96025 0.93643 0.26455 0.0
H1182 H 0.08061 0.92119 0.25872 0.0
H1183 H 0.0412 0.95519 0.25966 0.0
H1184 H 0.88172 0.71078 0.19221 0.0
H1185 H 0.83619 0.73565 0.19963 0.0
H1186 H 0.94531 0.70123 0.20664 0.0
H1187 H 0.01331 0.73968 0.21717 0.0
C1188 C 0.16292 0.08989 0.24744 0.0
C1189 C 0.17245 0.07641 0.22372 0.0
C1190 C 0.18149 0.16648 0.2087 0.0
C1191 C 0.16444 0.17604 0.23165 0.0
N1192 N 0.13333 0.14374 0.27249 0.0
N1193 N 0.19054 0.10074 0.18151 0.0
C1194 C 0.15453 0.13744 0.25105 0.0
C1195 C 0.18184 0.11456 0.20428 0.0
N1196 N 0.16119 0.05695 0.2666 0.0
N1197 N 0.19906 0.20803 0.1914 0.0
H1198 H 0.19536 0.06542 0.17794 0.0
H1199 H 0.19065 0.1227 0.16602 0.0
H1200 H 0.20013 0.24679 0.19423 0.0
H1201 H 0.21714 0.20648 0.17508 0.0
H1202 H 0.16144 0.0686 0.28456 0.0
H1203 H 0.16391 0.01998 0.26483 0.0
H1204 H 0.11781 0.1128 0.28599 0.0
H1205 H 0.12694 0.17786 0.27632 0.0
C1206 C 0.84776 0.04084 0.25837 0.0
C1207 C 0.85275 0.00494 0.24092 0.0
C1208 C 0.94031 0.08514 0.22661 0.0
C1209 C 0.93999 0.11755 0.2467 0.0
N1210 N 0.895 0.12722 0.28227 0.0
N1211 N 0.90882 0.99133 0.21055 0.0
C1212 C 0.89392 0.09587 0.26269 0.0
C1213 C 0.89989 0.02676 0.2253 0.0
N1214 N 0.79847 0.0226 0.2704 0.0
N1215 N 0.97943 0.11005 0.20877 0.0
H1216 H 0.88177 0.94784 0.2092 0.0
H1217 H 0.94607 0.00415 0.20126 0.0
H1218 H 0.01029 0.15268 0.20912 0.0
H1219 H 0.97782 0.08999 0.19246 0.0
H1220 H 0.79051 0.04842 0.28184 0.0
H1221 H 0.76351 0.98311 0.26709 0.0
H1222 H 0.86557 0.11128 0.29613 0.0
H1223 H 0.92742 0.16849 0.28532 0.0
C1224 C 0.85212 0.91835 0.73883 0.0
C1225 C 0.83725 0.89179 0.76192 0.0
C1226 C 0.81009 0.96193 0.77502 0.0
C1227 C 0.83323 0.9932 0.75344 0.0
N1228 N 0.88241 0.0049 0.71578 0.0
N1229 N 0.80032 0.88644 0.80194 0.0
C1230 C 0.8551 0.97203 0.73542 0.0
C1231 C 0.81545 0.91299 0.77997 0.0
N1232 N 0.86386 0.89284 0.72011 0.0
N1233 N 0.78184 0.97843 0.79044 0.0
H1234 H 0.79914 0.8479 0.80537 0.0
H1235 H 0.79078 0.90329 0.81696 0.0
H1236 H 0.77692 0.0138 0.78713 0.0
H1237 H 0.75936 0.95479 0.80539 0.0
H1238 H 0.86851 0.90707 0.7023 0.0
H1239 H 0.86379 0.8544 0.72166 0.0
H1240 H 0.90579 0.9952 0.70383 0.0
H1241 H 0.88618 0.04465 0.71242 0.0
C1242 C 0.10512 0.93829 0.78332 0.0
C1243 C 0.1347 0.96638 0.76205 0.0
C1244 C 0.06629 0.88581 0.73834 0.0
C1245 C 0.02969 0.86707 0.75848 0.0
N1246 N 0.01506 0.87714 0.8011 0.0
N1247 N 0.14121 0.96649 0.71822 0.0
C1248 C 0.04952 0.89284 0.78143 0.0
C1249 C 0.11555 0.93958 0.73923 0.0
N1250 N 0.13048 0.95482 0.80532 0.0
N1251 N 0.05375 0.85206 0.71835 0.0
H1252 H 0.17623 0.00666 0.71741 0.0
H1253 H 0.12461 0.95072 0.70122 0.0
H1254 H 0.01854 0.81171 0.71756 0.0
H1255 H 0.08132 0.86123 0.70393 0.0
H1256 H 0.11258 0.93269 0.82127 0.0
H1257 H 0.17199 0.98659 0.80711 0.0
H1258 H 0.02611 0.90005 0.81722 0.0
H1259 H 0.97427 0.8438 0.80113 0.0
C1260 C 0.16601 0.22818 0.76234 0.0
C1261 C 0.16356 0.18414 0.74746 0.0
C1262 C 0.06311 0.14575 0.74201 0.0
C1263 C 0.06449 0.18604 0.7588 0.0
N1264 N 0.11548 0.26411 0.78603 0.0
N1265 N 0.10801 0.09404 0.72726 0.0
C1266 C 0.11554 0.227 0.76926 0.0
C1267 C 0.11172 0.14126 0.73821 0.0
N1268 N 0.21665 0.27175 0.76931 0.0
N1269 N 0.01523 0.11176 0.72958 0.0
H1270 H 0.14192 0.0874 0.72488 0.0
H1271 H 0.07031 0.0585 0.72271 0.0
H1272 H 0.97828 0.11285 0.73223 0.0
H1273 H 0.01345 0.08622 0.71512 0.0
H1274 H 0.22194 0.30793 0.77831 0.0
H1275 H 0.25422 0.27372 0.76453 0.0
H1276 H 0.14973 0.29045 0.79662 0.0
H1277 H 0.07988 0.26678 0.79008 0.0
C1278 C 0.60945 0.20978 0.57568 0.0
C1279 C 0.56505 0.16652 0.56224 0.0
C1280 C 0.61528 0.11308 0.55833 0.0
C1281 C 0.66147 0.15878 0.56968 0.0
N1282 N 0.70316 0.24718 0.59166 0.0
N1283 N 0.52283 0.07675 0.5412 0.0
C1284 C 0.65841 0.20587 0.57939 0.0
C1285 C 0.5669 0.11771 0.55388 0.0
N1286 N 0.60505 0.25505 0.58424 0.0
N1287 N 0.61811 0.06558 0.55194 0.0
H1288 H 0.48558 0.07737 0.53878 0.0
H1289 H 0.52309 0.04283 0.53242 0.0
H1290 H 0.6534 0.0616 0.55501 0.0
H1291 H 0.58496 0.02869 0.54501 0.0
H1292 H 0.63421 0.2871 0.59515 0.0
H1293 H 0.57103 0.26075 0.58069 0.0
H1294 H 0.70657 0.28513 0.5978 0.0
H1295 H 0.73808 0.24347 0.59598 0.0
C1296 C 0.83783 0.41389 0.5815 0.0
C1297 C 0.85005 0.40135 0.55809 0.0
C1298 C 0.87249 0.49709 0.54433 0.0
C1299 C 0.85204 0.50603 0.5665 0.0
N1300 N 0.80836 0.46956 0.60535 0.0
N1301 N 0.87796 0.43006 0.51685 0.0
C1302 C 0.8337 0.46398 0.58504 0.0
C1303 C 0.86732 0.44287 0.53943 0.0
N1304 N 0.8292 0.37763 0.60035 0.0
N1305 N 0.89824 0.54105 0.52826 0.0
H1306 H 0.87833 0.39246 0.51315 0.0
H1307 H 0.88378 0.45521 0.50166 0.0
H1308 H 0.90344 0.58147 0.53151 0.0
H1309 H 0.91894 0.53923 0.5128 0.0
H1310 H 0.82672 0.38786 0.6183 0.0
H1311 H 0.82922 0.33924 0.59852 0.0
H1312 H 0.78763 0.437 0.6179 0.0
H1313 H 0.80342 0.50475 0.60881 0.0
C1314 C 0.53182 0.39898 0.58552 0.0
C1315 C 0.52931 0.35891 0.56824 0.0
C1316 C 0.61817 0.43177 0.55094 0.0
C1317 C 0.62532 0.46727 0.57102 0.0
N1318 N 0.58977 0.48633 0.60752 0.0
N1319 N 0.57306 0.33605 0.53526 0.0
C1320 C 0.58209 0.4516 0.58824 0.0
C1321 C 0.5726 0.37528 0.55075 0.0
N1322 N 0.48567 0.3868 0.59901 0.0
N1323 N 0.65553 0.45158 0.53223 0.0
H1324 H 0.54123 0.29412 0.53418 0.0
H1325 H 0.6073 0.34383 0.5246 0.0
H1326 H 0.69071 0.49189 0.53207 0.0
H1327 H 0.649 0.43007 0.51589 0.0
H1328 H 0.48304 0.41585 0.61056 0.0
H1329 H 0.44792 0.34923 0.59678 0.0
H1330 H 0.56268 0.47444 0.62223 0.0
H1331 H 0.62502 0.52636 0.60933 0.0
loop_
_geom_bond_atom_site_label_1
_geom_bond_atom_site_label_2
_geom_bond_distance
_geom_bond_site_symmetry_2
_ccdc_geom_bond_type
Zn0 O6 1.969 . S
Zn0 O7 1.965 . S
Zn0 O11 2.024 . S
Zn0 O16 1.969 . S
Zn1 O8 1.969 . S
Zn1 O14 1.969 . S
Zn1 O15 1.965 . S
Zn1 O17 2.024 . S
C2 O3 1.229 . S
C2 O11 1.058 . S
O3 C2 1.229 . S
C4 O5 1.229 . S
C4 O17 1.058 . S
O5 C4 1.229 . S
O6 Zn0 1.969 . S
O6 C9 1.267 . S
O7 Zn0 1.965 . S
O7 C18 1.260 1_565 S
O8 Zn1 1.969 . S
O8 C18 1.258 . S
C9 O6 1.267 . S
C9 O10 1.228 . S
O10 C9 1.228 . S
O11 Zn0 2.024 . S
O11 C2 1.058 . S
C12 O13 1.228 . S
C12 O14 1.267 . S
O13 C12 1.228 . S
O14 Zn1 1.969 . S
O14 C12 1.267 . S
O15 Zn1 1.965 . S
O15 C19 1.260 . S
O16 Zn0 1.969 . S
O16 C19 1.258 1_565 S
O17 Zn1 2.024 . S
O17 C4 1.058 . S
C18 O7 1.260 1_545 S
C18 O8 1.258 . S
C19 O15 1.260 . S
C19 O16 1.258 1_545 S
Zn20 O26 1.969 . S
Zn20 O27 1.965 . S
Zn20 O31 2.024 . S
Zn20 O36 1.969 . S
Zn21 O28 1.969 . S
Zn21 O34 1.969 . S
Zn21 O35 1.965 . S
Zn21 O37 2.024 . S
C22 O23 1.229 . S
C22 O31 1.058 . S
O23 C22 1.229 . S
C24 O25 1.229 . S
C24 O37 1.058 . S
O25 C24 1.229 . S
O26 Zn20 1.969 . S
O26 C29 1.267 . S
O27 Zn20 1.965 . S
O27 C38 1.260 . S
O28 Zn21 1.969 . S
O28 C38 1.258 1_655 S
C29 O26 1.267 . S
C29 O30 1.228 . S
O30 C29 1.228 . S
O31 Zn20 2.024 . S
O31 C22 1.058 . S
C32 O33 1.228 . S
C32 O34 1.267 . S
O33 C32 1.228 . S
O34 Zn21 1.969 . S
O34 C32 1.267 . S
O35 Zn21 1.965 . S
O35 C39 1.260 1_655 S
O36 Zn20 1.969 . S
O36 C39 1.258 . S
O37 Zn21 2.024 . S
O37 C24 1.058 . S
C38 O27 1.260 . S
C38 O28 1.258 1_455 S
C39 O35 1.260 1_455 S
C39 O36 1.258 . S
Zn40 O46 1.969 . S
Zn40 O47 1.965 . S
Zn40 O51 2.024 . S
Zn40 O56 1.969 . S
Zn41 O48 1.969 . S
Zn41 O54 1.969 . S
Zn41 O55 1.965 . S
Zn41 O57 2.024 . S
C42 O43 1.229 . S
C42 O51 1.058 . S
O43 C42 1.229 . S
C44 O45 1.229 . S
C44 O57 1.058 . S
O45 C44 1.229 . S
O46 Zn40 1.969 . S
O46 C49 1.267 . S
O47 Zn40 1.965 . S
O47 C58 1.260 . S
O48 Zn41 1.969 . S
O48 C58 1.258 . S
C49 O46 1.267 . S
C49 O50 1.228 . S
O50 C49 1.228 . S
O51 Zn40 2.024 . S
O51 C42 1.058 . S
C52 O53 1.228 . S
C52 O54 1.267 . S
O53 C52 1.228 . S
O54 Zn41 1.969 . S
O54 C52 1.267 . S
O55 Zn41 1.965 . S
O55 C59 1.260 . S
O56 Zn40 1.969 . S
O56 C59 1.258 . S
O57 Zn41 2.024 . S
O57 C44 1.058 . S
C58 O47 1.260 . S
C58 O48 1.258 . S
C59 O55 1.260 . S
C59 O56 1.258 . S
Zn60 O66 1.969 . S
Zn60 O67 1.965 . S
Zn60 O71 2.024 . S
Zn60 O76 1.969 . S
Zn61 O68 1.969 . S
Zn61 O74 1.969 . S
Zn61 O75 1.965 . S
Zn61 O77 2.024 . S
C62 O63 1.229 . S
C62 O71 1.058 . S
O63 C62 1.229 . S
C64 O65 1.229 . S
C64 O77 1.058 . S
O65 C64 1.229 . S
O66 Zn60 1.969 . S
O66 C69 1.267 . S
O67 Zn60 1.965 . S
O67 C78 1.260 1_655 S
O68 Zn61 1.969 . S
O68 C78 1.258 . S
C69 O66 1.267 . S
C69 O70 1.228 . S
O70 C69 1.228 . S
O71 Zn60 2.024 . S
O71 C62 1.058 . S
C72 O73 1.228 . S
C72 O74 1.267 . S
O73 C72 1.228 . S
O74 Zn61 1.969 . S
O74 C72 1.267 . S
O75 Zn61 1.965 . S
O75 C79 1.260 . S
O76 Zn60 1.969 . S
O76 C79 1.258 1_655 S
O77 Zn61 2.024 . S
O77 C64 1.058 . S
C78 O67 1.260 1_455 S
C78 O68 1.258 . S
C79 O75 1.260 . S
C79 O76 1.258 1_455 S
Zn80 O86 1.969 . S
Zn80 O87 1.965 . S
Zn80 O91 2.024 . S
Zn80 O96 1.969 . S
Zn81 O88 1.969 . S
Zn81 O94 1.969 . S
Zn81 O95 1.965 . S
Zn81 O97 2.024 . S
C82 O83 1.229 . S
C82 O91 1.058 . S
O83 C82 1.229 . S
C84 O85 1.229 . S
C84 O97 1.058 . S
O85 C84 1.229 . S
O86 Zn80 1.969 . S
O86 C89 1.267 . S
O87 Zn80 1.965 . S
O87 C98 1.260 . S
O88 Zn81 1.969 . S
O88 C98 1.258 . S
C89 O86 1.267 . S
C89 O90 1.228 . S
O90 C89 1.228 . S
O91 Zn80 2.024 . S
O91 C82 1.058 . S
C92 O93 1.228 . S
C92 O94 1.267 . S
O93 C92 1.228 . S
O94 Zn81 1.969 . S
O94 C92 1.267 . S
O95 Zn81 1.965 . S
O95 C99 1.260 . S
O96 Zn80 1.969 . S
O96 C99 1.258 . S
O97 Zn81 2.024 . S
O97 C84 1.058 . S
C98 O87 1.260 . S
C98 O88 1.258 . S
C99 O95 1.260 . S
C99 O96 1.258 . S
Zn100 O106 1.969 . S
Zn100 O107 1.965 . S
Zn100 O111 2.024 . S
Zn100 O116 1.969 . S
Zn101 O108 1.969 . S
Zn101 O114 1.969 . S
Zn101 O115 1.965 . S
Zn101 O117 2.024 . S
C102 O103 1.229 . S
C102 O111 1.058 . S
O103 C102 1.229 . S
C104 O105 1.229 . S
C104 O117 1.058 . S
O105 C104 1.229 . S
O106 Zn100 1.969 . S
O106 C109 1.267 . S
O107 Zn100 1.965 . S
O107 C118 1.260 . S
O108 Zn101 1.969 . S
O108 C118 1.258 1_565 S
C109 O106 1.267 . S
C109 O110 1.228 . S
O110 C109 1.228 . S
O111 Zn100 2.024 . S
O111 C102 1.058 . S
C112 O113 1.228 . S
C112 O114 1.267 . S
O113 C112 1.228 . S
O114 Zn101 1.969 . S
O114 C112 1.267 . S
O115 Zn101 1.965 . S
O115 C119 1.260 1_565 S
O116 Zn100 1.969 . S
O116 C119 1.258 . S
O117 Zn101 2.024 . S
O117 C104 1.058 . S
C118 O107 1.260 . S
C118 O108 1.258 1_545 S
C119 O115 1.260 1_545 S
C119 O116 1.258 . S
Zn120 O126 1.969 . S
Zn120 O127 1.965 . S
Zn120 O131 2.024 . S
Zn120 O136 1.969 . S
Zn121 O128 1.969 . S
Zn121 O134 1.969 . S
Zn121 O135 1.965 . S
Zn121 O137 2.024 . S
C122 O123 1.229 . S
C122 O131 1.058 . S
O123 C122 1.229 . S
C124 O125 1.229 . S
C124 O137 1.058 . S
O125 C124 1.229 . S
O126 Zn120 1.969 . S
O126 C129 1.267 1_455 S
O127 Zn120 1.965 . S
O127 C138 1.260 . S
O128 Zn121 1.969 . S
O128 C138 1.258 . S
C129 O126 1.267 1_655 S
C129 O130 1.228 1_655 S
O130 C129 1.228 1_455 S
O131 Zn120 2.024 . S
O131 C122 1.058 . S
C132 O133 1.228 . S
C132 O134 1.267 . S
O133 C132 1.228 . S
O134 Zn121 1.969 . S
O134 C132 1.267 . S
O135 Zn121 1.965 . S
O135 C139 1.260 . S
O136 Zn120 1.969 . S
O136 C139 1.258 . S
O137 Zn121 2.024 . S
O137 C124 1.058 . S
C138 O127 1.260 . S
C138 O128 1.258 . S
C139 O135 1.260 . S
C139 O136 1.258 . S
Zn140 O146 1.969 . S
Zn140 O147 1.965 . S
Zn140 O151 2.024 . S
Zn140 O156 1.969 . S
Zn141 O148 1.969 . S
Zn141 O154 1.969 . S
Zn141 O155 1.965 . S
Zn141 O157 2.024 . S
C142 O143 1.229 . S
C142 O151 1.058 . S
O143 C142 1.229 . S
C144 O145 1.229 . S
C144 O157 1.058 . S
O145 C144 1.229 . S
O146 Zn140 1.969 . S
O146 C149 1.267 . S
O147 Zn140 1.965 . S
O147 C158 1.260 . S
O148 Zn141 1.969 . S
O148 C158 1.258 . S
C149 O146 1.267 . S
C149 O150 1.228 . S
O150 C149 1.228 . S
O151 Zn140 2.024 . S
O151 C142 1.058 . S
C152 O153 1.228 . S
C152 O154 1.267 . S
O153 C152 1.228 . S
O154 Zn141 1.969 . S
O154 C152 1.267 . S
O155 Zn141 1.965 . S
O155 C159 1.260 . S
O156 Zn140 1.969 . S
O156 C159 1.258 . S
O157 Zn141 2.024 . S
O157 C144 1.058 . S
C158 O147 1.260 . S
C158 O148 1.258 . S
C159 O155 1.260 . S
C159 O156 1.258 . S
Zn160 O166 1.969 1_565 S
Zn160 O167 1.965 . S
Zn160 O171 2.024 . S
Zn160 O176 1.969 . S
Zn161 O168 1.969 . S
Zn161 O174 1.969 . S
Zn161 O175 1.965 . S
Zn161 O177 2.024 . S
C162 O163 1.229 . S
C162 O171 1.058 . S
O163 C162 1.229 . S
C164 O165 1.229 . S
C164 O177 1.058 . S
O165 C164 1.229 . S
O166 Zn160 1.969 1_545 S
O166 C169 1.267 . S
O167 Zn160 1.965 . S
O167 C178 1.260 . S
O168 Zn161 1.969 . S
O168 C178 1.258 . S
C169 O166 1.267 . S
C169 O170 1.228 . S
O170 C169 1.228 . S
O171 Zn160 2.024 . S
O171 C162 1.058 . S
C172 O173 1.228 . S
C172 O174 1.267 . S
O173 C172 1.228 . S
O174 Zn161 1.969 . S
O174 C172 1.267 . S
O175 Zn161 1.965 . S
O175 C179 1.260 . S
O176 Zn160 1.969 . S
O176 C179 1.258 . S
O177 Zn161 2.024 . S
O177 C164 1.058 . S
C178 O167 1.260 . S
C178 O168 1.258 . S
C179 O175 1.260 . S
C179 O176 1.258 . S
Zn180 O186 1.969 . S
Zn180 O187 1.965 . S
Zn180 O191 2.024 . S
Zn180 O196 1.969 . S
Zn181 O188 1.969 . S
Zn181 O194 1.969 . S
Zn181 O195 1.965 . S
Zn181 O197 2.024 . S
C182 O183 1.229 . S
C182 O191 1.058 . S
O183 C182 1.229 . S
C184 O185 1.229 . S
C184 O197 1.058 . S
O185 C184 1.229 . S
O186 Zn180 1.969 . S
O186 C189 1.267 . S
O187 Zn180 1.965 . S
O187 C198 1.260 . S
O188 Zn181 1.969 . S
O188 C198 1.258 . S
C189 O186 1.267 . S
C189 O190 1.228 . S
O190 C189 1.228 . S
O191 Zn180 2.024 . S
O191 C182 1.058 . S
C192 O193 1.228 . S
C192 O194 1.267 . S
O193 C192 1.228 . S
O194 Zn181 1.969 . S
O194 C192 1.267 . S
O195 Zn181 1.965 . S
O195 C199 1.260 . S
O196 Zn180 1.969 . S
O196 C199 1.258 . S
O197 Zn181 2.024 . S
O197 C184 1.058 . S
C198 O187 1.260 . S
C198 O188 1.258 . S
C199 O195 1.260 . S
C199 O196 1.258 . S
Zn200 O206 1.969 . S
Zn200 O207 1.965 . S
Zn200 O211 2.024 . S
Zn200 O216 1.969 . S
Zn201 O208 1.969 . S
Zn201 O214 1.969 . S
Zn201 O215 1.965 . S
Zn201 O217 2.024 . S
C202 O203 1.229 . S
C202 O211 1.058 . S
O203 C202 1.229 . S
C204 O205 1.229 . S
C204 O217 1.058 1_545 S
O205 C204 1.229 . S
O206 Zn200 1.969 . S
O206 C209 1.267 . S
O207 Zn200 1.965 . S
O207 C218 1.260 . S
O208 Zn201 1.969 . S
O208 C218 1.258 . S
C209 O206 1.267 . S
C209 O210 1.228 . S
O210 C209 1.228 . S
O211 Zn200 2.024 . S
O211 C202 1.058 . S
C212 O213 1.228 . S
C212 O214 1.267 . S
O213 C212 1.228 . S
O214 Zn201 1.969 . S
O214 C212 1.267 . S
O215 Zn201 1.965 . S
O215 C219 1.260 . S
O216 Zn200 1.969 . S
O216 C219 1.258 . S
O217 Zn201 2.024 . S
O217 C204 1.058 1_565 S
C218 O207 1.260 . S
C218 O208 1.258 . S
C219 O215 1.260 . S
C219 O216 1.258 . S
Zn220 O226 1.969 . S
Zn220 O227 1.965 . S
Zn220 O231 2.024 . S
Zn220 O236 1.969 . S
Zn221 O228 1.969 . S
Zn221 O234 1.969 . S
Zn221 O235 1.965 . S
Zn221 O237 2.024 . S
C222 O223 1.229 . S
C222 O231 1.058 . S
O223 C222 1.229 . S
C224 O225 1.229 . S
C224 O237 1.058 . S
O225 C224 1.229 . S
O226 Zn220 1.969 . S
O226 C229 1.267 . S
O227 Zn220 1.965 . S
O227 C238 1.260 . S
O228 Zn221 1.969 . S
O228 C238 1.258 . S
C229 O226 1.267 . S
C229 O230 1.228 . S
O230 C229 1.228 . S
O231 Zn220 2.024 . S
O231 C222 1.058 . S
C232 O233 1.228 . S
C232 O234 1.267 . S
O233 C232 1.228 . S
O234 Zn221 1.969 . S
O234 C232 1.267 . S
O235 Zn221 1.965 . S
O235 C239 1.260 . S
O236 Zn220 1.969 . S
O236 C239 1.258 . S
O237 Zn221 2.024 . S
O237 C224 1.058 . S
C238 O227 1.260 . S
C238 O228 1.258 . S
C239 O235 1.260 . S
C239 O236 1.258 . S
Zn240 O246 1.969 . S
Zn240 O247 1.965 . S
Zn240 O251 2.024 . S
Zn240 O256 1.969 . S
Zn241 O248 1.969 . S
Zn241 O254 1.969 . S
Zn241 O255 1.965 . S
Zn241 O257 2.024 . S
C242 O243 1.229 . S
C242 O251 1.058 . S
O243 C242 1.229 . S
C244 O245 1.229 . S
C244 O257 1.058 . S
O245 C244 1.229 . S
O246 Zn240 1.969 . S
O246 C249 1.267 . S
O247 Zn240 1.965 . S
O247 C258 1.260 . S
O248 Zn241 1.969 . S
O248 C258 1.258 . S
C249 O246 1.267 . S
C249 O250 1.228 . S
O250 C249 1.228 . S
O251 Zn240 2.024 . S
O251 C242 1.058 . S
C252 O253 1.228 . S
C252 O254 1.267 . S
O253 C252 1.228 . S
O254 Zn241 1.969 . S
O254 C252 1.267 . S
O255 Zn241 1.965 . S
O255 C259 1.260 . S
O256 Zn240 1.969 . S
O256 C259 1.258 . S
O257 Zn241 2.024 . S
O257 C244 1.058 . S
C258 O247 1.260 . S
C258 O248 1.258 . S
C259 O255 1.260 . S
C259 O256 1.258 . S
Zn260 O266 1.969 . S
Zn260 O267 1.965 . S
Zn260 O271 2.024 . S
Zn260 O276 1.969 . S
Zn261 O268 1.969 . S
Zn261 O274 1.969 . S
Zn261 O275 1.965 . S
Zn261 O277 2.024 . S
C262 O263 1.229 . S
C262 O271 1.058 . S
O263 C262 1.229 . S
C264 O265 1.229 . S
C264 O277 1.058 . S
O265 C264 1.229 . S
O266 Zn260 1.969 . S
O266 C269 1.267 . S
O267 Zn260 1.965 . S
O267 C278 1.260 . S
O268 Zn261 1.969 . S
O268 C278 1.258 . S
C269 O266 1.267 . S
C269 O270 1.228 . S
O270 C269 1.228 . S
O271 Zn260 2.024 . S
O271 C262 1.058 . S
C272 O273 1.228 . S
C272 O274 1.267 . S
O273 C272 1.228 . S
O274 Zn261 1.969 . S
O274 C272 1.267 . S
O275 Zn261 1.965 . S
O275 C279 1.260 . S
O276 Zn260 1.969 . S
O276 C279 1.258 . S
O277 Zn261 2.024 . S
O277 C264 1.058 . S
C278 O267 1.260 . S
C278 O268 1.258 . S
C279 O275 1.260 . S
C279 O276 1.258 . S
Zn280 O286 1.969 . S
Zn280 O287 1.965 . S
Zn280 O291 2.024 . S
Zn280 O296 1.969 . S
Zn281 O288 1.969 . S
Zn281 O294 1.969 . S
Zn281 O295 1.965 . S
Zn281 O297 2.024 . S
C282 O283 1.229 . S
C282 O291 1.058 . S
O283 C282 1.229 . S
C284 O285 1.229 . S
C284 O297 1.058 1_455 S
O285 C284 1.229 . S
O286 Zn280 1.969 . S
O286 C289 1.267 . S
O287 Zn280 1.965 . S
O287 C298 1.260 . S
O288 Zn281 1.969 . S
O288 C298 1.258 . S
C289 O286 1.267 . S
C289 O290 1.228 . S
O290 C289 1.228 . S
O291 Zn280 2.024 . S
O291 C282 1.058 . S
C292 O293 1.228 . S
C292 O294 1.267 . S
O293 C292 1.228 . S
O294 Zn281 1.969 . S
O294 C292 1.267 . S
O295 Zn281 1.965 . S
O295 C299 1.260 . S
O296 Zn280 1.969 . S
O296 C299 1.258 . S
O297 Zn281 2.024 . S
O297 C284 1.058 1_655 S
C298 O287 1.260 . S
C298 O288 1.258 . S
C299 O295 1.260 . S
C299 O296 1.258 . S
Zn300 O306 1.969 . S
Zn300 O307 1.965 . S
Zn300 O311 2.024 . S
Zn300 O316 1.969 . S
Zn301 O308 1.969 . S
Zn301 O314 1.969 . S
Zn301 O315 1.965 . S
Zn301 O317 2.024 . S
C302 O303 1.229 . S
C302 O311 1.058 . S
O303 C302 1.229 . S
C304 O305 1.229 . S
C304 O317 1.058 . S
O305 C304 1.229 . S
O306 Zn300 1.969 . S
O306 C309 1.267 1_545 S
O307 Zn300 1.965 . S
O307 C318 1.260 . S
O308 Zn301 1.969 . S
O308 C318 1.258 . S
C309 O306 1.267 1_565 S
C309 O310 1.228 1_565 S
O310 C309 1.228 1_545 S
O311 Zn300 2.024 . S
O311 C302 1.058 . S
C312 O313 1.228 . S
C312 O314 1.267 . S
O313 C312 1.228 . S
O314 Zn301 1.969 . S
O314 C312 1.267 . S
O315 Zn301 1.965 . S
O315 C319 1.260 . S
O316 Zn300 1.969 . S
O316 C319 1.258 . S
O317 Zn301 2.024 . S
O317 C304 1.058 . S
C318 O307 1.260 . S
C318 O308 1.258 . S
C319 O315 1.260 . S
C319 O316 1.258 . S
Zn320 O326 1.969 1_655 S
Zn320 O327 1.965 . S
Zn320 O331 2.024 . S
Zn320 O336 1.969 . S
Zn321 O328 1.969 . S
Zn321 O334 1.969 . S
Zn321 O335 1.965 . S
Zn321 O337 2.024 . S
C322 O323 1.229 . S
C322 O331 1.058 . S
O323 C322 1.229 . S
C324 O325 1.229 . S
C324 O337 1.058 . S
O325 C324 1.229 . S
O326 Zn320 1.969 1_455 S
O326 C329 1.267 . S
O327 Zn320 1.965 . S
O327 C338 1.260 . S
O328 Zn321 1.969 . S
O328 C338 1.258 . S
C329 O326 1.267 . S
C329 O330 1.228 . S
O330 C329 1.228 . S
O331 Zn320 2.024 . S
O331 C322 1.058 . S
C332 O333 1.228 . S
C332 O334 1.267 . S
O333 C332 1.228 . S
O334 Zn321 1.969 . S
O334 C332 1.267 . S
O335 Zn321 1.965 . S
O335 C339 1.260 . S
O336 Zn320 1.969 . S
O336 C339 1.258 . S
O337 Zn321 2.024 . S
O337 C324 1.058 . S
C338 O327 1.260 . S
C338 O328 1.258 . S
C339 O335 1.260 . S
C339 O336 1.258 . S
Zn340 O346 1.969 . S
Zn340 O347 1.965 . S
Zn340 O351 2.024 . S
Zn340 O356 1.969 . S
Zn341 O348 1.969 . S
Zn341 O354 1.969 . S
Zn341 O355 1.965 . S
Zn341 O357 2.024 . S
C342 O343 1.229 . S
C342 O351 1.058 . S
O343 C342 1.229 . S
C344 O345 1.229 . S
C344 O357 1.058 . S
O345 C344 1.229 . S
O346 Zn340 1.969 . S
O346 C349 1.267 . S
O347 Zn340 1.965 . S
O347 C358 1.260 . S
O348 Zn341 1.969 . S
O348 C358 1.258 . S
C349 O346 1.267 . S
C349 O350 1.228 . S
O350 C349 1.228 . S
O351 Zn340 2.024 . S
O351 C342 1.058 . S
C352 O353 1.228 . S
C352 O354 1.267 . S
O353 C352 1.228 . S
O354 Zn341 1.969 . S
O354 C352 1.267 . S
O355 Zn341 1.965 . S
O355 C359 1.260 . S
O356 Zn340 1.969 . S
O356 C359 1.258 . S
O357 Zn341 2.024 . S
O357 C344 1.058 . S
C358 O347 1.260 . S
C358 O348 1.258 . S
C359 O355 1.260 . S
C359 O356 1.258 . S
C360 C361 1.363 . S
C360 C366 1.379 . S
C360 N368 1.356 . S
C361 C360 1.363 . S
C361 C367 1.363 . S
C362 C363 1.363 . S
C362 C367 1.379 . S
C362 N369 1.356 . S
C363 C362 1.363 . S
C363 C366 1.363 . S
N364 C366 1.356 . S
N364 H376 0.984 . S
N364 H377 0.985 . S
N365 C367 1.356 . S
N365 H370 0.984 . S
N365 H371 0.985 . S
C366 C360 1.379 . S
C366 C363 1.363 . S
C366 N364 1.356 . S
C367 C361 1.363 . S
C367 C362 1.379 . S
C367 N365 1.356 . S
N368 C360 1.356 . S
N368 H374 0.984 . S
N368 H375 0.984 . S
N369 C362 1.356 . S
N369 H372 0.984 . S
N369 H373 0.985 . S
H370 N365 0.984 . S
H371 N365 0.985 . S
H372 N369 0.984 . S
H373 N369 0.985 . S
H374 N368 0.984 . S
H375 N368 0.984 . S
H376 N364 0.984 . S
H377 N364 0.985 . S
C378 C379 1.363 . S
C378 C384 1.379 . S
C378 N386 1.356 . S
C379 C378 1.363 . S
C379 C385 1.363 . S
C380 C381 1.363 . S
C380 C385 1.379 . S
C380 N387 1.356 . S
C381 C380 1.363 . S
C381 C384 1.363 . S
N382 C384 1.356 . S
N382 H394 0.984 . S
N382 H395 0.985 . S
N383 C385 1.356 . S
N383 H388 0.984 . S
N383 H389 0.985 . S
C384 C378 1.379 . S
C384 C381 1.363 . S
C384 N382 1.356 . S
C385 C379 1.363 . S
C385 C380 1.379 . S
C385 N383 1.356 . S
N386 C378 1.356 . S
N386 H392 0.984 . S
N386 H393 0.984 . S
N387 C380 1.356 . S
N387 H390 0.984 . S
N387 H391 0.985 . S
H388 N383 0.984 . S
H389 N383 0.985 . S
H390 N387 0.984 . S
H391 N387 0.985 . S
H392 N386 0.984 . S
H393 N386 0.984 . S
H394 N382 0.984 . S
H395 N382 0.985 . S
C396 C397 1.363 . S
C396 C402 1.379 . S
C396 N404 1.356 . S
C397 C396 1.363 . S
C397 C403 1.363 . S
C398 C399 1.363 . S
C398 C403 1.379 . S
C398 N405 1.356 . S
C399 C398 1.363 . S
C399 C402 1.363 . S
N400 C402 1.356 . S
N400 H412 0.984 . S
N400 H413 0.985 . S
N401 C403 1.356 . S
N401 H406 0.984 . S
N401 H407 0.985 . S
C402 C396 1.379 . S
C402 C399 1.363 . S
C402 N400 1.356 . S
C403 C397 1.363 . S
C403 C398 1.379 . S
C403 N401 1.356 . S
N404 C396 1.356 . S
N404 H410 0.984 . S
N404 H411 0.984 . S
N405 C398 1.356 . S
N405 H408 0.984 . S
N405 H409 0.985 . S
H406 N401 0.984 . S
H407 N401 0.985 . S
H408 N405 0.984 . S
H409 N405 0.985 . S
H410 N404 0.984 . S
H411 N404 0.984 . S
H412 N400 0.984 . S
H413 N400 0.985 . S
C414 C415 1.363 . S
C414 C420 1.379 . S
C414 N422 1.356 . S
C415 C414 1.363 . S
C415 C421 1.363 . S
C416 C417 1.363 . S
C416 C421 1.379 . S
C416 N423 1.356 . S
C417 C416 1.363 . S
C417 C420 1.363 . S
N418 C420 1.356 . S
N418 H430 0.984 . S
N418 H431 0.985 . S
N419 C421 1.356 . S
N419 H424 0.984 . S
N419 H425 0.985 . S
C420 C414 1.379 . S
C420 C417 1.363 . S
C420 N418 1.356 . S
C421 C415 1.363 . S
C421 C416 1.379 . S
C421 N419 1.356 . S
N422 C414 1.356 . S
N422 H428 0.984 . S
N422 H429 0.984 . S
N423 C416 1.356 . S
N423 H426 0.984 . S
N423 H427 0.985 . S
H424 N419 0.984 . S
H425 N419 0.985 . S
H426 N423 0.984 . S
H427 N423 0.985 . S
H428 N422 0.984 . S
H429 N422 0.984 . S
H430 N418 0.984 . S
H431 N418 0.985 . S
C432 C433 1.363 . S
C432 C438 1.379 . S
C432 N440 1.356 . S
C433 C432 1.363 . S
C433 C439 1.363 . S
C434 C435 1.363 . S
C434 C439 1.379 . S
C434 N441 1.356 . S
C435 C434 1.363 . S
C435 C438 1.363 . S
N436 C438 1.356 . S
N436 H448 0.984 . S
N436 H449 0.985 . S
N437 C439 1.356 . S
N437 H442 0.984 . S
N437 H443 0.985 . S
C438 C432 1.379 . S
C438 C435 1.363 . S
C438 N436 1.356 . S
C439 C433 1.363 . S
C439 C434 1.379 . S
C439 N437 1.356 . S
N440 C432 1.356 . S
N440 H446 0.984 . S
N440 H447 0.984 . S
N441 C434 1.356 . S
N441 H444 0.984 . S
N441 H445 0.985 . S
H442 N437 0.984 . S
H443 N437 0.985 . S
H444 N441 0.984 . S
H445 N441 0.985 . S
H446 N440 0.984 . S
H447 N440 0.984 . S
H448 N436 0.984 . S
H449 N436 0.985 . S
C450 C451 1.363 . S
C450 C456 1.379 . S
C450 N458 1.356 . S
C451 C450 1.363 . S
C451 C457 1.363 . S
C452 C453 1.363 . S
C452 C457 1.379 . S
C452 N459 1.356 . S
C453 C452 1.363 . S
C453 C456 1.363 . S
N454 C456 1.356 . S
N454 H466 0.984 . S
N454 H467 0.985 . S
N455 C457 1.356 . S
N455 H460 0.984 . S
N455 H461 0.985 . S
C456 C450 1.379 . S
C456 C453 1.363 . S
C456 N454 1.356 . S
C457 C451 1.363 . S
C457 C452 1.379 . S
C457 N455 1.356 . S
N458 C450 1.356 . S
N458 H464 0.984 . S
N458 H465 0.984 . S
N459 C452 1.356 . S
N459 H462 0.984 . S
N459 H463 0.985 . S
H460 N455 0.984 . S
H461 N455 0.985 . S
H462 N459 0.984 . S
H463 N459 0.985 . S
H464 N458 0.984 . S
H465 N458 0.984 . S
H466 N454 0.984 . S
H467 N454 0.985 . S
C468 C469 1.363 . S
C468 C474 1.379 . S
C468 N476 1.356 . S
C469 C468 1.363 . S
C469 C475 1.363 . S
C470 C471 1.363 . S
C470 C475 1.379 . S
C470 N477 1.356 . S
C471 C470 1.363 . S
C471 C474 1.363 . S
N472 C474 1.356 . S
N472 H484 0.984 . S
N472 H485 0.985 . S
N473 C475 1.356 . S
N473 H478 0.984 . S
N473 H479 0.985 . S
C474 C468 1.379 . S
C474 C471 1.363 . S
C474 N472 1.356 . S
C475 C469 1.363 . S
C475 C470 1.379 . S
C475 N473 1.356 . S
N476 C468 1.356 . S
N476 H482 0.984 . S
N476 H483 0.984 . S
N477 C470 1.356 . S
N477 H480 0.984 . S
N477 H481 0.985 . S
H478 N473 0.984 . S
H479 N473 0.985 . S
H480 N477 0.984 . S
H481 N477 0.985 . S
H482 N476 0.984 . S
H483 N476 0.984 . S
H484 N472 0.984 . S
H485 N472 0.985 . S
C486 C487 1.363 . S
C486 C492 1.379 . S
C486 N494 1.348 1_655 S
C487 C486 1.363 . S
C487 C493 1.363 . S
C488 C489 1.363 . S
C488 C493 1.379 . S
C488 N495 1.356 . S
C489 C488 1.363 . S
C489 C492 1.363 . S
N490 C492 1.356 . S
N490 H502 0.984 . S
N490 H503 0.985 1_545 S
N491 C493 1.356 . S
N491 H496 0.984 . S
N491 H497 0.985 . S
C492 C486 1.379 . S
C492 C489 1.363 . S
C492 N490 1.356 . S
C493 C487 1.363 . S
C493 C488 1.379 . S
C493 N491 1.356 . S
N494 C486 1.348 1_455 S
N494 H500 0.992 . S
N494 H501 0.985 . S
N495 C488 1.356 . S
N495 H498 0.984 1_545 S
N495 H499 0.985 . S
H496 N491 0.984 . S
H497 N491 0.985 . S
H498 N495 0.984 1_565 S
H499 N495 0.985 . S
H500 N494 0.992 . S
H501 N494 0.985 . S
H502 N490 0.984 . S
H503 N490 0.985 1_565 S
C504 C505 1.363 1_655 S
C504 C510 1.379 . S
C504 N512 1.356 1_655 S
C505 C504 1.363 1_455 S
C505 C511 1.363 1_455 S
C506 C507 1.363 . S
C506 C511 1.379 . S
C506 N513 1.356 . S
C507 C506 1.363 . S
C507 C510 1.363 . S
N508 C510 1.356 . S
N508 H520 0.984 . S
N508 H521 0.985 . S
N509 C511 1.359 . S
N509 H514 0.981 1_655 S
N509 H515 0.985 . S
C510 C504 1.379 . S
C510 C507 1.363 . S
C510 N508 1.356 . S
C511 C505 1.363 1_655 S
C511 C506 1.379 . S
C511 N509 1.359 . S
N512 C504 1.356 1_455 S
N512 H518 0.984 . S
N512 H519 0.984 . S
N513 C506 1.356 . S
N513 H516 0.984 . S
N513 H517 0.985 . S
H514 N509 0.981 1_455 S
H515 N509 0.985 . S
H516 N513 0.984 . S
H517 N513 0.985 . S
H518 N512 0.984 . S
H519 N512 0.984 . S
H520 N508 0.984 . S
H521 N508 0.985 . S
C522 C523 1.363 . S
C522 C528 1.379 . S
C522 N530 1.356 . S
C523 C522 1.363 . S
C523 C529 1.363 . S
C524 C525 1.363 . S
C524 C529 1.379 . S
C524 N531 1.356 . S
C525 C524 1.363 . S
C525 C528 1.363 . S
N526 C528 1.356 . S
N526 H538 0.984 . S
N526 H539 0.985 . S
N527 C529 1.356 . S
N527 H532 0.984 . S
N527 H533 0.985 . S
C528 C522 1.379 . S
C528 C525 1.363 . S
C528 N526 1.356 . S
C529 C523 1.363 . S
C529 C524 1.379 . S
C529 N527 1.356 . S
N530 C522 1.356 . S
N530 H536 0.984 . S
N530 H537 0.984 . S
N531 C524 1.356 . S
N531 H534 0.984 . S
N531 H535 0.985 . S
H532 N527 0.984 . S
H533 N527 0.985 . S
H534 N531 0.984 . S
H535 N531 0.985 . S
H536 N530 0.984 . S
H537 N530 0.984 . S
H538 N526 0.984 . S
H539 N526 0.985 . S
C540 C541 1.363 . S
C540 C546 1.379 . S
C540 N548 1.356 . S
C541 C540 1.363 . S
C541 C547 1.363 . S
C542 C543 1.363 . S
C542 C547 1.379 . S
C542 N549 1.356 . S
C543 C542 1.363 . S
C543 C546 1.363 . S
N544 C546 1.356 . S
N544 H556 0.984 . S
N544 H557 0.985 . S
N545 C547 1.356 . S
N545 H550 0.984 . S
N545 H551 0.985 . S
C546 C540 1.379 . S
C546 C543 1.363 . S
C546 N544 1.356 . S
C547 C541 1.363 . S
C547 C542 1.379 . S
C547 N545 1.356 . S
N548 C540 1.356 . S
N548 H554 0.984 . S
N548 H555 0.984 . S
N549 C542 1.356 . S
N549 H552 0.984 . S
N549 H553 0.985 . S
H550 N545 0.984 . S
H551 N545 0.985 . S
H552 N549 0.984 . S
H553 N549 0.985 . S
H554 N548 0.984 . S
H555 N548 0.984 . S
H556 N544 0.984 . S
H557 N544 0.985 . S
C558 C559 1.363 . S
C558 C564 1.379 . S
C558 N566 1.356 . S
C559 C558 1.363 . S
C559 C565 1.363 . S
C560 C561 1.363 . S
C560 C565 1.379 . S
C560 N567 1.356 . S
C561 C560 1.363 . S
C561 C564 1.363 . S
N562 C564 1.356 . S
N562 H574 0.984 . S
N562 H575 0.985 . S
N563 C565 1.356 . S
N563 H568 0.984 . S
N563 H569 0.985 . S
C564 C558 1.379 . S
C564 C561 1.363 . S
C564 N562 1.356 . S
C565 C559 1.363 . S
C565 C560 1.379 . S
C565 N563 1.356 . S
N566 C558 1.356 . S
N566 H572 0.984 . S
N566 H573 0.984 . S
N567 C560 1.356 . S
N567 H570 0.984 . S
N567 H571 0.985 . S
H568 N563 0.984 . S
H569 N563 0.985 . S
H570 N567 0.984 . S
H571 N567 0.985 . S
H572 N566 0.984 . S
H573 N566 0.984 . S
H574 N562 0.984 . S
H575 N562 0.985 . S
C576 C577 1.363 . S
C576 C582 1.379 . S
C576 N584 1.356 . S
C577 C576 1.363 . S
C577 C583 1.363 . S
C578 C579 1.363 . S
C578 C583 1.379 . S
C578 N585 1.356 . S
C579 C578 1.363 . S
C579 C582 1.363 . S
N580 C582 1.356 . S
N580 H592 0.984 . S
N580 H593 0.985 . S
N581 C583 1.356 . S
N581 H586 0.984 . S
N581 H587 0.985 . S
C582 C576 1.379 . S
C582 C579 1.363 . S
C582 N580 1.356 . S
C583 C577 1.363 . S
C583 C578 1.379 . S
C583 N581 1.356 . S
N584 C576 1.356 . S
N584 H590 0.984 . S
N584 H591 0.984 . S
N585 C578 1.356 . S
N585 H588 0.984 . S
N585 H589 0.985 . S
H586 N581 0.984 . S
H587 N581 0.985 . S
H588 N585 0.984 . S
H589 N585 0.985 . S
H590 N584 0.984 . S
H591 N584 0.984 . S
H592 N580 0.984 . S
H593 N580 0.985 . S
C594 C595 1.363 . S
C594 C600 1.379 . S
C594 N602 1.356 . S
C595 C594 1.363 . S
C595 C601 1.363 . S
C596 C597 1.363 . S
C596 C601 1.379 . S
C596 N603 1.356 . S
C597 C596 1.363 . S
C597 C600 1.363 . S
N598 C600 1.356 . S
N598 H610 0.984 . S
N598 H611 0.985 . S
N599 C601 1.356 . S
N599 H604 0.984 . S
N599 H605 0.985 . S
C600 C594 1.379 . S
C600 C597 1.363 . S
C600 N598 1.356 . S
C601 C595 1.363 . S
C601 C596 1.379 . S
C601 N599 1.356 . S
N602 C594 1.356 . S
N602 H608 0.984 . S
N602 H609 0.984 . S
N603 C596 1.356 . S
N603 H606 0.984 . S
N603 H607 0.985 . S
H604 N599 0.984 . S
H605 N599 0.985 . S
H606 N603 0.984 . S
H607 N603 0.985 . S
H608 N602 0.984 . S
H609 N602 0.984 . S
H610 N598 0.984 . S
H611 N598 0.985 . S
C612 C613 1.363 . S
C612 C618 1.379 . S
C612 N620 1.356 . S
C613 C612 1.363 . S
C613 C619 1.363 . S
C614 C615 1.363 . S
C614 C619 1.379 . S
C614 N621 1.356 . S
C615 C614 1.363 . S
C615 C618 1.363 . S
N616 C618 1.356 . S
N616 H628 0.984 . S
N616 H629 0.985 . S
N617 C619 1.356 . S
N617 H622 0.984 . S
N617 H623 0.985 . S
C618 C612 1.379 . S
C618 C615 1.363 . S
C618 N616 1.356 . S
C619 C613 1.363 . S
C619 C614 1.379 . S
C619 N617 1.356 . S
N620 C612 1.356 . S
N620 H626 0.984 . S
N620 H627 0.984 . S
N621 C614 1.356 . S
N621 H624 0.984 . S
N621 H625 0.985 . S
H622 N617 0.984 . S
H623 N617 0.985 . S
H624 N621 0.984 . S
H625 N621 0.985 . S
H626 N620 0.984 . S
H627 N620 0.984 . S
H628 N616 0.984 . S
H629 N616 0.985 . S
C630 C631 1.363 . S
C630 C636 1.379 . S
C630 N638 1.356 . S
C631 C630 1.363 . S
C631 C637 1.363 . S
C632 C633 1.363 . S
C632 C637 1.379 . S
C632 N639 1.356 . S
C633 C632 1.363 . S
C633 C636 1.363 . S
N634 C636 1.356 . S
N634 H646 0.984 . S
N634 H647 0.985 . S
N635 C637 1.356 . S
N635 H640 0.984 . S
N635 H641 0.985 . S
C636 C630 1.379 . S
C636 C633 1.363 . S
C636 N634 1.356 . S
C637 C631 1.363 . S
C637 C632 1.379 . S
C637 N635 1.356 . S
N638 C630 1.356 . S
N638 H644 0.984 . S
N638 H645 0.984 . S
N639 C632 1.356 . S
N639 H642 0.984 . S
N639 H643 0.985 . S
H640 N635 0.984 . S
H641 N635 0.985 . S
H642 N639 0.984 . S
H643 N639 0.985 . S
H644 N638 0.984 . S
H645 N638 0.984 . S
H646 N634 0.984 . S
H647 N634 0.985 . S
C648 C649 1.363 . S
C648 C654 1.379 . S
C648 N656 1.356 . S
C649 C648 1.363 . S
C649 C655 1.363 . S
C650 C651 1.363 1_565 S
C650 C655 1.379 . S
C650 N657 1.356 1_565 S
C651 C650 1.363 1_545 S
C651 C654 1.363 1_545 S
N652 C654 1.356 1_545 S
N652 H664 0.984 . S
N652 H665 0.985 . S
N653 C655 1.356 . S
N653 H658 0.984 . S
N653 H659 0.985 . S
C654 C648 1.379 . S
C654 C651 1.363 1_565 S
C654 N652 1.356 1_565 S
C655 C649 1.363 . S
C655 C650 1.379 . S
C655 N653 1.356 . S
N656 C648 1.356 . S
N656 H662 0.984 . S
N656 H663 0.984 . S
N657 C650 1.356 1_545 S
N657 H660 0.984 . S
N657 H661 0.985 1_545 S
H658 N653 0.984 . S
H659 N653 0.985 . S
H660 N657 0.984 . S
H661 N657 0.985 1_565 S
H662 N656 0.984 . S
H663 N656 0.984 . S
H664 N652 0.984 . S
H665 N652 0.985 . S
C666 C667 1.363 . S
C666 C672 1.379 . S
C666 N674 1.356 1_565 S
C667 C666 1.363 . S
C667 C673 1.363 . S
C668 C669 1.363 . S
C668 C673 1.379 . S
C668 N675 1.356 . S
C669 C668 1.363 . S
C669 C672 1.363 . S
N670 C672 1.344 1_655 S
N670 H682 0.989 1_655 S
N670 H683 0.992 . S
N671 C673 1.356 . S
N671 H676 0.984 . S
N671 H677 0.985 . S
C672 C666 1.379 . S
C672 C669 1.363 . S
C672 N670 1.344 1_455 S
C673 C667 1.363 . S
C673 C668 1.379 . S
C673 N671 1.356 . S
N674 C666 1.356 1_545 S
N674 H680 0.984 . S
N674 H681 0.984 . S
N675 C668 1.356 . S
N675 H678 0.984 1_455 S
N675 H679 0.985 . S
H676 N671 0.984 . S
H677 N671 0.985 . S
H678 N675 0.984 1_655 S
H679 N675 0.985 . S
H680 N674 0.984 . S
H681 N674 0.984 . S
H682 N670 0.989 1_455 S
H683 N670 0.992 . S
C684 C685 1.363 1_565 S
C684 C690 1.379 1_554 S
C684 N692 1.356 . S
C685 C684 1.363 1_545 S
C685 C691 1.363 . S
C686 C687 1.363 . S
C686 C691 1.379 1_556 S
C686 N693 1.356 . S
C687 C686 1.363 . S
C687 C690 1.363 1_545 S
N688 C690 1.356 . S
N688 H700 0.984 . S
N688 H701 0.985 . S
N689 C691 1.356 . S
N689 H694 0.984 . S
N689 H695 0.985 . S
C690 C684 1.379 1_556 S
C690 C687 1.363 1_565 S
C690 N688 1.356 . S
C691 C685 1.363 . S
C691 C686 1.379 1_554 S
C691 N689 1.356 . S
N692 C684 1.356 . S
N692 H698 0.984 . S
N692 H699 0.984 . S
N693 C686 1.356 . S
N693 H696 0.984 . S
N693 H697 0.985 . S
H694 N689 0.984 . S
H695 N689 0.985 . S
H696 N693 0.984 . S
H697 N693 0.985 . S
H698 N692 0.984 . S
H699 N692 0.984 . S
H700 N688 0.984 . S
H701 N688 0.985 . S
C702 C703 1.363 . S
C702 C708 1.379 1_556 S
C702 N710 1.356 . S
C703 C702 1.363 . S
C703 C709 1.363 1_455 S
C704 C705 1.363 1_655 S
C704 C709 1.379 1_554 S
C704 N711 1.356 . S
C705 C704 1.363 1_455 S
C705 C708 1.363 . S
N706 C708 1.356 . S
N706 H718 0.984 . S
N706 H719 0.985 . S
N707 C709 1.356 . S
N707 H712 0.984 . S
N707 H713 0.985 . S
C708 C702 1.379 1_554 S
C708 C705 1.363 . S
C708 N706 1.356 . S
C709 C703 1.363 1_655 S
C709 C704 1.379 1_556 S
C709 N707 1.356 . S
N710 C702 1.356 . S
N710 H716 0.984 . S
N710 H717 0.984 . S
N711 C704 1.356 . S
N711 H714 0.984 . S
N711 H715 0.985 . S
H712 N707 0.984 . S
H713 N707 0.985 . S
H714 N711 0.984 . S
H715 N711 0.985 . S
H716 N710 0.984 . S
H717 N710 0.984 . S
H718 N706 0.984 . S
H719 N706 0.985 . S
C720 C721 1.363 . S
C720 C726 1.379 1_556 S
C720 N728 1.356 . S
C721 C720 1.363 . S
C721 C727 1.363 . S
C722 C723 1.363 . S
C722 C727 1.379 1_554 S
C722 N729 1.356 . S
C723 C722 1.363 . S
C723 C726 1.363 . S
N724 C726 1.356 . S
N724 H736 0.984 . S
N724 H737 0.985 . S
N725 C727 1.356 . S
N725 H730 0.984 . S
N725 H731 0.985 . S
C726 C720 1.379 1_554 S
C726 C723 1.363 . S
C726 N724 1.356 . S
C727 C721 1.363 . S
C727 C722 1.379 1_556 S
C727 N725 1.356 . S
N728 C720 1.356 . S
N728 H734 0.984 . S
N728 H735 0.984 . S
N729 C722 1.356 . S
N729 H732 0.984 . S
N729 H733 0.985 . S
H730 N725 0.984 . S
H731 N725 0.985 . S
H732 N729 0.984 . S
H733 N729 0.985 . S
H734 N728 0.984 . S
H735 N728 0.984 . S
H736 N724 0.984 . S
H737 N724 0.985 . S
C738 C739 1.363 . S
C738 C744 1.379 . S
C738 N746 1.356 . S
C739 C738 1.363 . S
C739 C745 1.363 . S
C740 C741 1.363 . S
C740 C745 1.379 . S
C740 N747 1.356 . S
C741 C740 1.363 . S
C741 C744 1.363 . S
N742 C744 1.356 . S
N742 H754 0.984 . S
N742 H755 0.985 . S
N743 C745 1.356 . S
N743 H748 0.984 . S
N743 H749 0.985 . S
C744 C738 1.379 . S
C744 C741 1.363 . S
C744 N742 1.356 . S
C745 C739 1.363 . S
C745 C740 1.379 . S
C745 N743 1.356 . S
N746 C738 1.356 . S
N746 H752 0.984 . S
N746 H753 0.984 . S
N747 C740 1.356 . S
N747 H750 0.984 . S
N747 H751 0.985 . S
H748 N743 0.984 . S
H749 N743 0.985 . S
H750 N747 0.984 . S
H751 N747 0.985 . S
H752 N746 0.984 . S
H753 N746 0.984 . S
H754 N742 0.984 . S
H755 N742 0.985 . S
C756 C757 1.363 . S
C756 C762 1.379 . S
C756 N764 1.356 . S
C757 C756 1.363 . S
C757 C763 1.363 . S
C758 C759 1.363 . S
C758 C763 1.379 . S
C758 N765 1.356 . S
C759 C758 1.363 . S
C759 C762 1.363 . S
N760 C762 1.356 . S
N760 H772 0.984 . S
N760 H773 0.985 . S
N761 C763 1.356 . S
N761 H766 0.984 . S
N761 H767 0.985 . S
C762 C756 1.379 . S
C762 C759 1.363 . S
C762 N760 1.356 . S
C763 C757 1.363 . S
C763 C758 1.379 . S
C763 N761 1.356 . S
N764 C756 1.356 . S
N764 H770 0.984 . S
N764 H771 0.984 . S
N765 C758 1.356 . S
N765 H768 0.984 . S
N765 H769 0.985 . S
H766 N761 0.984 . S
H767 N761 0.985 . S
H768 N765 0.984 . S
H769 N765 0.985 . S
H770 N764 0.984 . S
H771 N764 0.984 . S
H772 N760 0.984 . S
H773 N760 0.985 . S
C774 C775 1.363 . S
C774 C780 1.379 . S
C774 N782 1.356 . S
C775 C774 1.363 . S
C775 C781 1.363 . S
C776 C777 1.363 . S
C776 C781 1.379 . S
C776 N783 1.356 . S
C777 C776 1.363 . S
C777 C780 1.363 . S
N778 C780 1.356 . S
N778 H790 0.984 . S
N778 H791 0.985 . S
N779 C781 1.356 . S
N779 H784 0.984 . S
N779 H785 0.985 . S
C780 C774 1.379 . S
C780 C777 1.363 . S
C780 N778 1.356 . S
C781 C775 1.363 . S
C781 C776 1.379 . S
C781 N779 1.356 . S
N782 C774 1.356 . S
N782 H788 0.984 . S
N782 H789 0.984 . S
N783 C776 1.356 . S
N783 H786 0.984 . S
N783 H787 0.985 . S
H784 N779 0.984 . S
H785 N779 0.985 . S
H786 N783 0.984 . S
H787 N783 0.985 . S
H788 N782 0.984 . S
H789 N782 0.984 . S
H790 N778 0.984 . S
H791 N778 0.985 . S
C792 C793 1.363 . S
C792 C798 1.379 . S
C792 N800 1.356 . S
C793 C792 1.363 . S
C793 C799 1.363 . S
C794 C795 1.363 . S
C794 C799 1.379 . S
C794 N801 1.356 . S
C795 C794 1.363 . S
C795 C798 1.363 . S
N796 C798 1.356 . S
N796 H808 0.984 . S
N796 H809 0.985 . S
N797 C799 1.356 . S
N797 H802 0.984 . S
N797 H803 0.985 . S
C798 C792 1.379 . S
C798 C795 1.363 . S
C798 N796 1.356 . S
C799 C793 1.363 . S
C799 C794 1.379 . S
C799 N797 1.356 . S
N800 C792 1.356 . S
N800 H806 0.984 . S
N800 H807 0.984 . S
N801 C794 1.356 . S
N801 H804 0.984 . S
N801 H805 0.985 . S
H802 N797 0.984 . S
H803 N797 0.985 . S
H804 N801 0.984 . S
H805 N801 0.985 . S
H806 N800 0.984 . S
H807 N800 0.984 . S
H808 N796 0.984 . S
H809 N796 0.985 . S
C810 C811 1.363 . S
C810 C816 1.379 . S
C810 N818 1.356 . S
C811 C810 1.363 . S
C811 C817 1.363 . S
C812 C813 1.363 . S
C812 C817 1.379 . S
C812 N819 1.356 . S
C813 C812 1.363 . S
C813 C816 1.363 . S
N814 C816 1.356 . S
N814 H826 0.984 . S
N814 H827 0.985 . S
N815 C817 1.356 . S
N815 H820 0.984 . S
N815 H821 0.985 . S
C816 C810 1.379 . S
C816 C813 1.363 . S
C816 N814 1.356 . S
C817 C811 1.363 . S
C817 C812 1.379 . S
C817 N815 1.356 . S
N818 C810 1.356 . S
N818 H824 0.984 . S
N818 H825 0.984 . S
N819 C812 1.356 . S
N819 H822 0.984 . S
N819 H823 0.985 . S
H820 N815 0.984 . S
H821 N815 0.985 . S
H822 N819 0.984 . S
H823 N819 0.985 . S
H824 N818 0.984 . S
H825 N818 0.984 . S
H826 N814 0.984 . S
H827 N814 0.985 . S
C828 C829 1.363 . S
C828 C834 1.379 . S
C828 N836 1.356 . S
C829 C828 1.363 . S
C829 C835 1.363 . S
C830 C831 1.363 . S
C830 C835 1.379 . S
C830 N837 1.356 . S
C831 C830 1.363 . S
C831 C834 1.363 . S
N832 C834 1.356 . S
N832 H844 0.984 . S
N832 H845 0.985 . S
N833 C835 1.356 . S
N833 H838 0.984 . S
N833 H839 0.985 . S
C834 C828 1.379 . S
C834 C831 1.363 . S
C834 N832 1.356 . S
C835 C829 1.363 . S
C835 C830 1.379 . S
C835 N833 1.356 . S
N836 C828 1.356 . S
N836 H842 0.984 . S
N836 H843 0.984 . S
N837 C830 1.356 . S
N837 H840 0.984 . S
N837 H841 0.985 . S
H838 N833 0.984 . S
H839 N833 0.985 . S
H840 N837 0.984 . S
H841 N837 0.985 . S
H842 N836 0.984 . S
H843 N836 0.984 . S
H844 N832 0.984 . S
H845 N832 0.985 . S
C846 C847 1.363 . S
C846 C852 1.379 . S
C846 N854 1.356 . S
C847 C846 1.363 . S
C847 C853 1.363 . S
C848 C849 1.363 . S
C848 C853 1.379 . S
C848 N855 1.356 . S
C849 C848 1.363 . S
C849 C852 1.363 . S
N850 C852 1.356 1_545 S
N850 H862 0.984 . S
N850 H863 0.985 . S
N851 C853 1.356 . S
N851 H856 0.984 . S
N851 H857 0.985 . S
C852 C846 1.379 . S
C852 C849 1.363 . S
C852 N850 1.356 1_565 S
C853 C847 1.363 . S
C853 C848 1.379 . S
C853 N851 1.356 . S
N854 C846 1.356 . S
N854 H860 0.984 1_565 S
N854 H861 0.984 . S
N855 C848 1.356 . S
N855 H858 0.984 . S
N855 H859 0.985 . S
H856 N851 0.984 . S
H857 N851 0.985 . S
H858 N855 0.984 . S
H859 N855 0.985 . S
H860 N854 0.984 1_545 S
H861 N854 0.984 . S
H862 N850 0.984 . S
H863 N850 0.985 . S
C864 C865 1.363 . S
C864 C870 1.379 . S
C864 N872 1.356 . S
C865 C864 1.363 . S
C865 C871 1.363 . S
C866 C867 1.363 . S
C866 C871 1.379 . S
C866 N873 1.356 . S
C867 C866 1.363 . S
C867 C870 1.363 . S
N868 C870 1.356 . S
N868 H880 0.984 . S
N868 H881 0.985 . S
N869 C871 1.356 . S
N869 H874 0.984 . S
N869 H875 0.985 . S
C870 C864 1.379 . S
C870 C867 1.363 . S
C870 N868 1.356 . S
C871 C865 1.363 . S
C871 C866 1.379 . S
C871 N869 1.356 . S
N872 C864 1.356 . S
N872 H878 0.984 . S
N872 H879 0.984 . S
N873 C866 1.356 . S
N873 H876 0.984 . S
N873 H877 0.985 . S
H874 N869 0.984 . S
H875 N869 0.985 . S
H876 N873 0.984 . S
H877 N873 0.985 . S
H878 N872 0.984 . S
H879 N872 0.984 . S
H880 N868 0.984 . S
H881 N868 0.985 . S
C882 C883 1.363 . S
C882 C888 1.379 . S
C882 N890 1.356 . S
C883 C882 1.363 . S
C883 C889 1.363 . S
C884 C885 1.363 . S
C884 C889 1.379 . S
C884 N891 1.356 . S
C885 C884 1.363 . S
C885 C888 1.363 . S
N886 C888 1.356 . S
N886 H898 0.984 . S
N886 H899 0.985 . S
N887 C889 1.356 . S
N887 H892 0.984 . S
N887 H893 0.985 . S
C888 C882 1.379 . S
C888 C885 1.363 . S
C888 N886 1.356 . S
C889 C883 1.363 . S
C889 C884 1.379 . S
C889 N887 1.356 . S
N890 C882 1.356 . S
N890 H896 0.984 . S
N890 H897 0.984 . S
N891 C884 1.356 . S
N891 H894 0.984 . S
N891 H895 0.985 . S
H892 N887 0.984 . S
H893 N887 0.985 . S
H894 N891 0.984 . S
H895 N891 0.985 . S
H896 N890 0.984 . S
H897 N890 0.984 . S
H898 N886 0.984 . S
H899 N886 0.985 . S
C900 C901 1.363 . S
C900 C906 1.379 . S
C900 N908 1.356 . S
C901 C900 1.363 . S
C901 C907 1.363 . S
C902 C903 1.363 . S
C902 C907 1.379 . S
C902 N909 1.356 . S
C903 C902 1.363 . S
C903 C906 1.363 . S
N904 C906 1.356 . S
N904 H916 0.984 . S
N904 H917 0.985 . S
N905 C907 1.356 1_455 S
N905 H910 0.984 . S
N905 H911 0.985 . S
C906 C900 1.379 . S
C906 C903 1.363 . S
C906 N904 1.356 . S
C907 C901 1.363 . S
C907 C902 1.379 . S
C907 N905 1.356 1_655 S
N908 C900 1.356 . S
N908 H914 0.984 . S
N908 H915 0.984 . S
N909 C902 1.356 . S
N909 H912 0.984 . S
N909 H913 0.985 . S
H910 N905 0.984 . S
H911 N905 0.985 . S
H912 N909 0.984 . S
H913 N909 0.985 . S
H914 N908 0.984 . S
H915 N908 0.984 . S
H916 N904 0.984 . S
H917 N904 0.985 . S
C918 C919 1.363 . S
C918 C924 1.379 . S
C918 N926 1.356 . S
C919 C918 1.363 . S
C919 C925 1.363 . S
C920 C921 1.363 . S
C920 C925 1.379 . S
C920 N927 1.356 . S
C921 C920 1.363 . S
C921 C924 1.363 . S
N922 C924 1.356 . S
N922 H934 0.984 . S
N922 H935 0.985 . S
N923 C925 1.356 . S
N923 H928 0.984 . S
N923 H929 0.985 . S
C924 C918 1.379 . S
C924 C921 1.363 . S
C924 N922 1.356 . S
C925 C919 1.363 . S
C925 C920 1.379 . S
C925 N923 1.356 . S
N926 C918 1.356 . S
N926 H932 0.984 . S
N926 H933 0.984 . S
N927 C920 1.356 . S
N927 H930 0.984 . S
N927 H931 0.985 . S
H928 N923 0.984 . S
H929 N923 0.985 . S
H930 N927 0.984 . S
H931 N927 0.985 . S
H932 N926 0.984 . S
H933 N926 0.984 . S
H934 N922 0.984 . S
H935 N922 0.985 . S
C936 C937 1.363 . S
C936 C942 1.379 . S
C936 N944 1.356 . S
C937 C936 1.363 . S
C937 C943 1.363 . S
C938 C939 1.363 . S
C938 C943 1.379 . S
C938 N945 1.356 . S
C939 C938 1.363 . S
C939 C942 1.363 . S
N940 C942 1.356 . S
N940 H952 0.984 . S
N940 H953 0.985 . S
N941 C943 1.356 . S
N941 H946 0.984 . S
N941 H947 0.985 . S
C942 C936 1.379 . S
C942 C939 1.363 . S
C942 N940 1.356 . S
C943 C937 1.363 . S
C943 C938 1.379 . S
C943 N941 1.356 . S
N944 C936 1.356 . S
N944 H950 0.984 . S
N944 H951 0.984 . S
N945 C938 1.356 . S
N945 H948 0.984 . S
N945 H949 0.985 . S
H946 N941 0.984 . S
H947 N941 0.985 . S
H948 N945 0.984 . S
H949 N945 0.985 . S
H950 N944 0.984 . S
H951 N944 0.984 . S
H952 N940 0.984 . S
H953 N940 0.985 . S
C954 C955 1.363 . S
C954 C960 1.379 1_655 S
C954 N962 1.356 . S
C955 C954 1.363 . S
C955 C961 1.363 1_655 S
C956 C957 1.363 . S
C956 C961 1.379 . S
C956 N963 1.356 . S
C957 C956 1.363 . S
C957 C960 1.363 . S
N958 C960 1.356 . S
N958 H970 0.984 . S
N958 H971 0.985 . S
N959 C961 1.356 1_655 S
N959 H964 0.984 . S
N959 H965 0.985 . S
C960 C954 1.379 1_455 S
C960 C957 1.363 . S
C960 N958 1.356 . S
C961 C955 1.363 1_455 S
C961 C956 1.379 . S
C961 N959 1.356 1_455 S
N962 C954 1.356 . S
N962 H968 0.984 . S
N962 H969 0.984 . S
N963 C956 1.356 . S
N963 H966 0.984 . S
N963 H967 0.985 . S
H964 N959 0.984 . S
H965 N959 0.985 . S
H966 N963 0.984 . S
H967 N963 0.985 . S
H968 N962 0.984 . S
H969 N962 0.984 . S
H970 N958 0.984 . S
H971 N958 0.985 . S
C972 C973 1.363 . S
C972 C978 1.379 . S
C972 N980 1.356 . S
C973 C972 1.363 . S
C973 C979 1.363 . S
C974 C975 1.363 . S
C974 C979 1.379 . S
C974 N981 1.356 . S
C975 C974 1.363 . S
C975 C978 1.363 . S
N976 C978 1.356 . S
N976 H988 0.984 . S
N976 H989 0.985 . S
N977 C979 1.356 . S
N977 H982 0.984 . S
N977 H983 0.985 . S
C978 C972 1.379 . S
C978 C975 1.363 . S
C978 N976 1.356 . S
C979 C973 1.363 . S
C979 C974 1.379 . S
C979 N977 1.356 . S
N980 C972 1.356 . S
N980 H986 0.984 . S
N980 H987 0.984 . S
N981 C974 1.356 . S
N981 H984 0.984 . S
N981 H985 0.985 . S
H982 N977 0.984 . S
H983 N977 0.985 . S
H984 N981 0.984 . S
H985 N981 0.985 . S
H986 N980 0.984 . S
H987 N980 0.984 . S
H988 N976 0.984 . S
H989 N976 0.985 . S
C990 C991 1.363 . S
C990 C996 1.379 1_565 S
C990 N998 1.356 . S
C991 C990 1.363 . S
C991 C997 1.363 1_565 S
C992 C993 1.363 . S
C992 C997 1.379 . S
C992 N999 1.356 . S
C993 C992 1.363 . S
C993 C996 1.363 . S
N994 C996 1.356 . S
N994 H1006 0.984 . S
N994 H1007 0.985 . S
N995 C997 1.356 1_565 S
N995 H1000 0.984 . S
N995 H1001 0.985 1_565 S
C996 C990 1.379 1_545 S
C996 C993 1.363 . S
C996 N994 1.356 . S
C997 C991 1.363 1_545 S
C997 C992 1.379 . S
C997 N995 1.356 1_545 S
N998 C990 1.356 . S
N998 H1004 0.984 . S
N998 H1005 0.984 . S
N999 C992 1.356 . S
N999 H1002 0.984 . S
N999 H1003 0.985 . S
H1000 N995 0.984 . S
H1001 N995 0.985 1_545 S
H1002 N999 0.984 . S
H1003 N999 0.985 . S
H1004 N998 0.984 . S
H1005 N998 0.984 . S
H1006 N994 0.984 . S
H1007 N994 0.985 . S
C1008 C1009 1.363 . S
C1008 C1014 1.379 . S
C1008 N1016 1.356 . S
C1009 C1008 1.363 . S
C1009 C1015 1.363 . S
C1010 C1011 1.363 . S
C1010 C1015 1.379 . S
C1010 N1017 1.356 . S
C1011 C1010 1.363 . S
C1011 C1014 1.363 . S
N1012 C1014 1.356 . S
N1012 H1024 0.984 . S
N1012 H1025 0.985 . S
N1013 C1015 1.356 . S
N1013 H1018 0.984 . S
N1013 H1019 0.985 . S
C1014 C1008 1.379 . S
C1014 C1011 1.363 . S
C1014 N1012 1.356 . S
C1015 C1009 1.363 . S
C1015 C1010 1.379 . S
C1015 N1013 1.356 . S
N1016 C1008 1.356 . S
N1016 H1022 0.984 . S
N1016 H1023 0.984 . S
N1017 C1010 1.356 . S
N1017 H1020 0.984 . S
N1017 H1021 0.985 . S
H1018 N1013 0.984 . S
H1019 N1013 0.985 . S
H1020 N1017 0.984 . S
H1021 N1017 0.985 . S
H1022 N1016 0.984 . S
H1023 N1016 0.984 . S
H1024 N1012 0.984 . S
H1025 N1012 0.985 . S
C1026 C1027 1.363 . S
C1026 C1032 1.379 . S
C1026 N1034 1.356 . S
C1027 C1026 1.363 . S
C1027 C1033 1.363 . S
C1028 C1029 1.363 . S
C1028 C1033 1.379 . S
C1028 N1035 1.356 . S
C1029 C1028 1.363 . S
C1029 C1032 1.363 . S
N1030 C1032 1.356 . S
N1030 H1042 0.984 . S
N1030 H1043 0.985 . S
N1031 C1033 1.356 . S
N1031 H1036 0.984 . S
N1031 H1037 0.985 . S
C1032 C1026 1.379 . S
C1032 C1029 1.363 . S
C1032 N1030 1.356 . S
C1033 C1027 1.363 . S
C1033 C1028 1.379 . S
C1033 N1031 1.356 . S
N1034 C1026 1.356 . S
N1034 H1040 0.984 . S
N1034 H1041 0.984 . S
N1035 C1028 1.356 . S
N1035 H1038 0.984 . S
N1035 H1039 0.985 . S
H1036 N1031 0.984 . S
H1037 N1031 0.985 . S
H1038 N1035 0.984 . S
H1039 N1035 0.985 . S
H1040 N1034 0.984 . S
H1041 N1034 0.984 . S
H1042 N1030 0.984 . S
H1043 N1030 0.985 . S
C1044 C1045 1.363 . S
C1044 C1050 1.379 . S
C1044 N1052 1.356 . S
C1045 C1044 1.363 . S
C1045 C1051 1.363 . S
C1046 C1047 1.363 . S
C1046 C1051 1.379 . S
C1046 N1053 1.356 . S
C1047 C1046 1.363 . S
C1047 C1050 1.363 . S
N1048 C1050 1.356 . S
N1048 H1060 0.984 . S
N1048 H1061 0.985 . S
N1049 C1051 1.356 . S
N1049 H1054 0.984 . S
N1049 H1055 0.985 . S
C1050 C1044 1.379 . S
C1050 C1047 1.363 . S
C1050 N1048 1.356 . S
C1051 C1045 1.363 . S
C1051 C1046 1.379 . S
C1051 N1049 1.356 . S
N1052 C1044 1.356 . S
N1052 H1058 0.984 . S
N1052 H1059 0.984 . S
N1053 C1046 1.356 . S
N1053 H1056 0.984 . S
N1053 H1057 0.985 . S
H1054 N1049 0.984 . S
H1055 N1049 0.985 . S
H1056 N1053 0.984 . S
H1057 N1053 0.985 . S
H1058 N1052 0.984 . S
H1059 N1052 0.984 . S
H1060 N1048 0.984 . S
H1061 N1048 0.985 . S
C1062 C1063 1.363 . S
C1062 C1068 1.379 . S
C1062 N1070 1.356 . S
C1063 C1062 1.363 . S
C1063 C1069 1.363 . S
C1064 C1065 1.363 . S
C1064 C1069 1.379 . S
C1064 N1071 1.356 . S
C1065 C1064 1.363 . S
C1065 C1068 1.363 . S
N1066 C1068 1.356 . S
N1066 H1078 0.984 . S
N1066 H1079 0.985 . S
N1067 C1069 1.356 . S
N1067 H1072 0.984 . S
N1067 H1073 0.985 . S
C1068 C1062 1.379 . S
C1068 C1065 1.363 . S
C1068 N1066 1.356 . S
C1069 C1063 1.363 . S
C1069 C1064 1.379 . S
C1069 N1067 1.356 . S
N1070 C1062 1.356 . S
N1070 H1076 0.984 . S
N1070 H1077 0.984 . S
N1071 C1064 1.356 . S
N1071 H1074 0.984 . S
N1071 H1075 0.985 . S
H1072 N1067 0.984 . S
H1073 N1067 0.985 . S
H1074 N1071 0.984 . S
H1075 N1071 0.985 . S
H1076 N1070 0.984 . S
H1077 N1070 0.984 . S
H1078 N1066 0.984 . S
H1079 N1066 0.985 . S
C1080 C1081 1.363 . S
C1080 C1086 1.379 . S
C1080 N1088 1.356 . S
C1081 C1080 1.363 . S
C1081 C1087 1.363 . S
C1082 C1083 1.363 . S
C1082 C1087 1.379 . S
C1082 N1089 1.356 . S
C1083 C1082 1.363 . S
C1083 C1086 1.363 . S
N1084 C1086 1.356 . S
N1084 H1096 0.984 . S
N1084 H1097 0.985 . S
N1085 C1087 1.356 . S
N1085 H1090 0.984 . S
N1085 H1091 0.985 . S
C1086 C1080 1.379 . S
C1086 C1083 1.363 . S
C1086 N1084 1.356 . S
C1087 C1081 1.363 . S
C1087 C1082 1.379 . S
C1087 N1085 1.356 . S
N1088 C1080 1.356 . S
N1088 H1094 0.984 . S
N1088 H1095 0.984 . S
N1089 C1082 1.356 . S
N1089 H1092 0.984 . S
N1089 H1093 0.985 . S
H1090 N1085 0.984 . S
H1091 N1085 0.985 . S
H1092 N1089 0.984 . S
H1093 N1089 0.985 . S
H1094 N1088 0.984 . S
H1095 N1088 0.984 . S
H1096 N1084 0.984 . S
H1097 N1084 0.985 . S
C1098 C1099 1.363 . S
C1098 C1104 1.379 . S
C1098 N1106 1.356 . S
C1099 C1098 1.363 . S
C1099 C1105 1.363 . S
C1100 C1101 1.363 . S
C1100 C1105 1.379 . S
C1100 N1107 1.356 . S
C1101 C1100 1.363 . S
C1101 C1104 1.363 . S
N1102 C1104 1.356 . S
N1102 H1114 0.984 . S
N1102 H1115 0.985 . S
N1103 C1105 1.356 . S
N1103 H1108 0.984 . S
N1103 H1109 0.985 . S
C1104 C1098 1.379 . S
C1104 C1101 1.363 . S
C1104 N1102 1.356 . S
C1105 C1099 1.363 . S
C1105 C1100 1.379 . S
C1105 N1103 1.356 . S
N1106 C1098 1.356 . S
N1106 H1112 0.984 . S
N1106 H1113 0.984 . S
N1107 C1100 1.356 . S
N1107 H1110 0.984 . S
N1107 H1111 0.985 . S
H1108 N1103 0.984 . S
H1109 N1103 0.985 . S
H1110 N1107 0.984 . S
H1111 N1107 0.985 . S
H1112 N1106 0.984 . S
H1113 N1106 0.984 . S
H1114 N1102 0.984 . S
H1115 N1102 0.985 . S
C1116 C1117 1.363 . S
C1116 C1122 1.379 . S
C1116 N1124 1.356 . S
C1117 C1116 1.363 . S
C1117 C1123 1.363 . S
C1118 C1119 1.363 . S
C1118 C1123 1.379 . S
C1118 N1125 1.356 . S
C1119 C1118 1.363 . S
C1119 C1122 1.363 . S
N1120 C1122 1.356 . S
N1120 H1132 0.984 . S
N1120 H1133 0.985 . S
N1121 C1123 1.356 . S
N1121 H1126 0.984 . S
N1121 H1127 0.985 . S
C1122 C1116 1.379 . S
C1122 C1119 1.363 . S
C1122 N1120 1.356 . S
C1123 C1117 1.363 . S
C1123 C1118 1.379 . S
C1123 N1121 1.356 . S
N1124 C1116 1.356 . S
N1124 H1130 0.984 . S
N1124 H1131 0.984 . S
N1125 C1118 1.356 . S
N1125 H1128 0.984 . S
N1125 H1129 0.985 . S
H1126 N1121 0.984 . S
H1127 N1121 0.985 . S
H1128 N1125 0.984 . S
H1129 N1125 0.985 . S
H1130 N1124 0.984 . S
H1131 N1124 0.984 . S
H1132 N1120 0.984 . S
H1133 N1120 0.985 . S
C1134 C1135 1.363 . S
C1134 C1140 1.379 . S
C1134 N1142 1.356 . S
C1135 C1134 1.363 . S
C1135 C1141 1.363 . S
C1136 C1137 1.363 . S
C1136 C1141 1.379 . S
C1136 N1143 1.356 . S
C1137 C1136 1.363 . S
C1137 C1140 1.363 . S
N1138 C1140 1.356 . S
N1138 H1150 0.984 . S
N1138 H1151 0.985 . S
N1139 C1141 1.356 . S
N1139 H1144 0.984 . S
N1139 H1145 0.985 . S
C1140 C1134 1.379 . S
C1140 C1137 1.363 . S
C1140 N1138 1.356 . S
C1141 C1135 1.363 . S
C1141 C1136 1.379 . S
C1141 N1139 1.356 . S
N1142 C1134 1.356 . S
N1142 H1148 0.984 . S
N1142 H1149 0.984 . S
N1143 C1136 1.356 . S
N1143 H1146 0.984 . S
N1143 H1147 0.985 . S
H1144 N1139 0.984 . S
H1145 N1139 0.985 . S
H1146 N1143 0.984 . S
H1147 N1143 0.985 . S
H1148 N1142 0.984 . S
H1149 N1142 0.984 . S
H1150 N1138 0.984 . S
H1151 N1138 0.985 . S
C1152 C1153 1.363 . S
C1152 C1158 1.379 . S
C1152 N1160 1.356 . S
C1153 C1152 1.363 . S
C1153 C1159 1.363 . S
C1154 C1155 1.363 . S
C1154 C1159 1.379 . S
C1154 N1161 1.356 . S
C1155 C1154 1.363 . S
C1155 C1158 1.363 . S
N1156 C1158 1.356 . S
N1156 H1168 0.984 . S
N1156 H1169 0.985 . S
N1157 C1159 1.356 . S
N1157 H1162 0.984 . S
N1157 H1163 0.985 . S
C1158 C1152 1.379 . S
C1158 C1155 1.363 . S
C1158 N1156 1.356 . S
C1159 C1153 1.363 . S
C1159 C1154 1.379 . S
C1159 N1157 1.356 . S
N1160 C1152 1.356 . S
N1160 H1166 0.984 . S
N1160 H1167 0.984 . S
N1161 C1154 1.356 . S
N1161 H1164 0.984 . S
N1161 H1165 0.985 . S
H1162 N1157 0.984 . S
H1163 N1157 0.985 . S
H1164 N1161 0.984 . S
H1165 N1161 0.985 . S
H1166 N1160 0.984 . S
H1167 N1160 0.984 . S
H1168 N1156 0.984 . S
H1169 N1156 0.985 . S
C1170 C1171 1.363 . S
C1170 C1176 1.379 . S
C1170 N1178 1.356 . S
C1171 C1170 1.363 . S
C1171 C1177 1.363 . S
C1172 C1173 1.363 . S
C1172 C1177 1.379 . S
C1172 N1179 1.356 1_655 S
C1173 C1172 1.363 . S
C1173 C1176 1.363 . S
N1174 C1176 1.356 . S
N1174 H1186 0.984 . S
N1174 H1187 0.985 1_655 S
N1175 C1177 1.356 . S
N1175 H1180 0.984 . S
N1175 H1181 0.985 . S
C1176 C1170 1.379 . S
C1176 C1173 1.363 . S
C1176 N1174 1.356 . S
C1177 C1171 1.363 . S
C1177 C1172 1.379 . S
C1177 N1175 1.356 . S
N1178 C1170 1.356 . S
N1178 H1184 0.984 . S
N1178 H1185 0.984 . S
N1179 C1172 1.356 1_455 S
N1179 H1182 0.984 . S
N1179 H1183 0.985 . S
H1180 N1175 0.984 . S
H1181 N1175 0.985 . S
H1182 N1179 0.984 . S
H1183 N1179 0.985 . S
H1184 N1178 0.984 . S
H1185 N1178 0.984 . S
H1186 N1174 0.984 . S
H1187 N1174 0.985 1_455 S
C1188 C1189 1.363 . S
C1188 C1194 1.379 . S
C1188 N1196 1.356 . S
C1189 C1188 1.363 . S
C1189 C1195 1.363 . S
C1190 C1191 1.363 . S
C1190 C1195 1.379 . S
C1190 N1197 1.356 . S
C1191 C1190 1.363 . S
C1191 C1194 1.363 . S
N1192 C1194 1.356 . S
N1192 H1204 0.984 . S
N1192 H1205 0.985 . S
N1193 C1195 1.356 . S
N1193 H1198 0.984 . S
N1193 H1199 0.985 . S
C1194 C1188 1.379 . S
C1194 C1191 1.363 . S
C1194 N1192 1.356 . S
C1195 C1189 1.363 . S
C1195 C1190 1.379 . S
C1195 N1193 1.356 . S
N1196 C1188 1.356 . S
N1196 H1202 0.984 . S
N1196 H1203 0.984 . S
N1197 C1190 1.356 . S
N1197 H1200 0.984 . S
N1197 H1201 0.985 . S
H1198 N1193 0.984 . S
H1199 N1193 0.985 . S
H1200 N1197 0.984 . S
H1201 N1197 0.985 . S
H1202 N1196 0.984 . S
H1203 N1196 0.984 . S
H1204 N1192 0.984 . S
H1205 N1192 0.985 . S
C1206 C1207 1.363 . S
C1206 C1212 1.379 . S
C1206 N1214 1.356 . S
C1207 C1206 1.363 . S
C1207 C1213 1.363 . S
C1208 C1209 1.363 . S
C1208 C1213 1.379 . S
C1208 N1215 1.356 1_655 S
C1209 C1208 1.363 . S
C1209 C1212 1.363 . S
N1210 C1212 1.356 . S
N1210 H1222 0.984 . S
N1210 H1223 0.985 . S
N1211 C1213 1.356 . S
N1211 H1216 0.984 1_545 S
N1211 H1217 0.985 . S
C1212 C1206 1.379 . S
C1212 C1209 1.363 . S
C1212 N1210 1.356 . S
C1213 C1207 1.363 . S
C1213 C1208 1.379 . S
C1213 N1211 1.356 . S
N1214 C1206 1.356 . S
N1214 H1220 0.984 . S
N1214 H1221 0.990 . S
N1215 C1208 1.356 1_455 S
N1215 H1218 0.984 . S
N1215 H1219 0.985 . S
H1216 N1211 0.984 1_565 S
H1217 N1211 0.985 . S
H1218 N1215 0.984 . S
H1219 N1215 0.985 . S
H1220 N1214 0.984 . S
H1221 N1214 0.990 . S
H1222 N1210 0.984 . S
H1223 N1210 0.985 . S
C1224 C1225 1.363 . S
C1224 C1230 1.379 . S
C1224 N1232 1.356 . S
C1225 C1224 1.363 . S
C1225 C1231 1.363 . S
C1226 C1227 1.363 . S
C1226 C1231 1.379 . S
C1226 N1233 1.356 . S
C1227 C1226 1.363 . S
C1227 C1230 1.363 . S
N1228 C1230 1.356 1_545 S
N1228 H1240 0.984 . S
N1228 H1241 0.985 . S
N1229 C1231 1.356 . S
N1229 H1234 0.984 . S
N1229 H1235 0.985 . S
C1230 C1224 1.379 . S
C1230 C1227 1.363 . S
C1230 N1228 1.356 1_565 S
C1231 C1225 1.363 . S
C1231 C1226 1.379 . S
C1231 N1229 1.356 . S
N1232 C1224 1.356 . S
N1232 H1238 0.984 . S
N1232 H1239 0.984 . S
N1233 C1226 1.356 . S
N1233 H1236 0.984 1_565 S
N1233 H1237 0.985 . S
H1234 N1229 0.984 . S
H1235 N1229 0.985 . S
H1236 N1233 0.984 1_545 S
H1237 N1233 0.985 . S
H1238 N1232 0.984 . S
H1239 N1232 0.984 . S
H1240 N1228 0.984 . S
H1241 N1228 0.985 . S
C1242 C1243 1.363 . S
C1242 C1248 1.379 . S
C1242 N1250 1.356 1_565 S
C1243 C1242 1.363 . S
C1243 C1249 1.363 . S
C1244 C1245 1.363 . S
C1244 C1249 1.379 . S
C1244 N1251 1.356 . S
C1245 C1244 1.363 . S
C1245 C1248 1.363 . S
N1246 C1248 1.356 . S
N1246 H1258 0.984 . S
N1246 H1259 0.985 1_455 S
N1247 C1249 1.356 . S
N1247 H1252 0.984 . S
N1247 H1253 0.985 . S
C1248 C1242 1.379 . S
C1248 C1245 1.363 . S
C1248 N1246 1.356 . S
C1249 C1243 1.363 . S
C1249 C1244 1.379 . S
C1249 N1247 1.356 . S
N1250 C1242 1.356 1_545 S
N1250 H1256 0.984 . S
N1250 H1257 0.984 . S
N1251 C1244 1.356 . S
N1251 H1254 0.984 1_455 S
N1251 H1255 0.985 . S
H1252 N1247 0.984 . S
H1253 N1247 0.985 . S
H1254 N1251 0.984 1_655 S
H1255 N1251 0.985 . S
H1256 N1250 0.984 . S
H1257 N1250 0.984 . S
H1258 N1246 0.984 . S
H1259 N1246 0.985 1_655 S
C1260 C1261 1.363 . S
C1260 C1266 1.379 . S
C1260 N1268 1.356 . S
C1261 C1260 1.363 . S
C1261 C1267 1.363 . S
C1262 C1263 1.363 . S
C1262 C1267 1.379 . S
C1262 N1269 1.356 . S
C1263 C1262 1.363 . S
C1263 C1266 1.363 . S
N1264 C1266 1.356 . S
N1264 H1276 0.984 . S
N1264 H1277 0.985 . S
N1265 C1267 1.356 . S
N1265 H1270 0.984 . S
N1265 H1271 0.985 . S
C1266 C1260 1.379 . S
C1266 C1263 1.363 . S
C1266 N1264 1.356 . S
C1267 C1261 1.363 . S
C1267 C1262 1.379 . S
C1267 N1265 1.356 . S
N1268 C1260 1.356 . S
N1268 H1274 0.984 . S
N1268 H1275 0.984 . S
N1269 C1262 1.356 . S
N1269 H1272 0.984 1_455 S
N1269 H1273 0.985 1_455 S
H1270 N1265 0.984 . S
H1271 N1265 0.985 . S
H1272 N1269 0.984 1_655 S
H1273 N1269 0.985 1_655 S
H1274 N1268 0.984 . S
H1275 N1268 0.984 . S
H1276 N1264 0.984 . S
H1277 N1264 0.985 . S
C1278 C1279 1.363 . S
C1278 C1284 1.379 . S
C1278 N1286 1.356 . S
C1279 C1278 1.363 . S
C1279 C1285 1.363 . S
C1280 C1281 1.363 . S
C1280 C1285 1.379 . S
C1280 N1287 1.356 . S
C1281 C1280 1.363 . S
C1281 C1284 1.363 . S
N1282 C1284 1.356 . S
N1282 H1294 0.984 . S
N1282 H1295 0.985 . S
N1283 C1285 1.356 . S
N1283 H1288 0.984 . S
N1283 H1289 0.985 . S
C1284 C1278 1.379 . S
C1284 C1281 1.363 . S
C1284 N1282 1.356 . S
C1285 C1279 1.363 . S
C1285 C1280 1.379 . S
C1285 N1283 1.356 . S
N1286 C1278 1.356 . S
N1286 H1292 0.984 . S
N1286 H1293 0.984 . S
N1287 C1280 1.356 . S
N1287 H1290 0.984 . S
N1287 H1291 0.985 . S
H1288 N1283 0.984 . S
H1289 N1283 0.985 . S
H1290 N1287 0.984 . S
H1291 N1287 0.985 . S
H1292 N1286 0.984 . S
H1293 N1286 0.984 . S
H1294 N1282 0.984 . S
H1295 N1282 0.985 . S
C1296 C1297 1.363 . S
C1296 C1302 1.379 . S
C1296 N1304 1.356 . S
C1297 C1296 1.363 . S
C1297 C1303 1.363 . S
C1298 C1299 1.363 . S
C1298 C1303 1.379 . S
C1298 N1305 1.356 . S
C1299 C1298 1.363 . S
C1299 C1302 1.363 . S
N1300 C1302 1.356 . S
N1300 H1312 0.984 . S
N1300 H1313 0.985 . S
N1301 C1303 1.356 . S
N1301 H1306 0.984 . S
N1301 H1307 0.985 . S
C1302 C1296 1.379 . S
C1302 C1299 1.363 . S
C1302 N1300 1.356 . S
C1303 C1297 1.363 . S
C1303 C1298 1.379 . S
C1303 N1301 1.356 . S
N1304 C1296 1.356 . S
N1304 H1310 0.984 . S
N1304 H1311 0.984 . S
N1305 C1298 1.356 . S
N1305 H1308 0.984 . S
N1305 H1309 0.985 . S
H1306 N1301 0.984 . S
H1307 N1301 0.985 . S
H1308 N1305 0.984 . S
H1309 N1305 0.985 . S
H1310 N1304 0.984 . S
H1311 N1304 0.984 . S
H1312 N1300 0.984 . S
H1313 N1300 0.985 . S
C1314 C1315 1.363 . S
C1314 C1320 1.379 . S
C1314 N1322 1.356 . S
C1315 C1314 1.363 . S
C1315 C1321 1.363 . S
C1316 C1317 1.363 . S
C1316 C1321 1.379 . S
C1316 N1323 1.356 . S
C1317 C1316 1.363 . S
C1317 C1320 1.363 . S
N1318 C1320 1.356 . S
N1318 H1330 0.984 . S
N1318 H1331 0.985 . S
N1319 C1321 1.356 . S
N1319 H1324 0.984 . S
N1319 H1325 0.985 . S
C1320 C1314 1.379 . S
C1320 C1317 1.363 . S
C1320 N1318 1.356 . S
C1321 C1315 1.363 . S
C1321 C1316 1.379 . S
C1321 N1319 1.356 . S
N1322 C1314 1.356 . S
N1322 H1328 0.984 . S
N1322 H1329 0.984 . S
N1323 C1316 1.356 . S
N1323 H1326 0.984 . S
N1323 H1327 0.985 . S
H1324 N1319 0.984 . S
H1325 N1319 0.985 . S
H1326 N1323 0.984 . S
H1327 N1323 0.985 . S
H1328 N1322 0.984 . S
H1329 N1322 0.984 . S
H1330 N1318 0.984 . S
H1331 N1318 0.985 . S
C361 C2 1.160 . S
C363 C49 1.099 . S
C379 C9 1.099 . S
C381 C22 1.160 . S
C397 C29 1.099 . S
C399 C42 1.160 . S
C415 C62 1.160 . S
C417 C89 1.099 . S
C433 C109 1.099 . S
C435 C82 1.160 . S
C451 C102 1.160 . S
C453 C69 1.099 . S
C469 C169 1.099 . S
C471 C122 1.160 . S
C487 C129 1.099 . S
C489 C142 1.160 1_545 S
C505 C162 1.160 . S
C507 C149 1.099 . S
C523 C209 1.099 . S
C525 C182 1.160 . S
C541 C202 1.160 . S
C543 C229 1.099 . S
C559 C189 1.099 . S
C561 C222 1.160 . S
C577 C242 1.160 . S
C579 C289 1.099 . S
C595 C249 1.099 . S
C597 C262 1.160 . S
C613 C269 1.099 . S
C615 C282 1.160 . S
C631 C329 1.099 . S
C633 C302 1.160 . S
C649 C349 1.099 . S
C651 C322 1.160 . S
C667 C309 1.099 . S
C669 C342 1.160 1_455 S
C685 C19 1.707 . S
C687 C119 1.707 . S
C703 C79 1.707 . S
C705 C39 1.707 . S
C721 C99 1.707 . S
C723 C59 1.707 . S
C739 C139 1.707 . S
C741 C239 1.707 . S
C757 C159 1.707 . S
C759 C199 1.707 . S
C775 C219 1.707 . S
C777 C179 1.707 . S
C793 C259 1.707 . S
C795 C359 1.707 . S
C811 C319 1.707 . S
C813 C279 1.707 . S
C829 C339 1.707 . S
C831 C299 1.707 . S
C847 C218 1.978 . S
C849 C18 1.978 1_565 S
C865 C38 1.978 . S
C867 C238 1.978 . S
C883 C198 1.978 . S
C885 C58 1.978 . S
C901 C78 1.978 1_655 S
C903 C298 1.978 . S
C919 C98 1.978 . S
C921 C258 1.978 . S
C937 C278 1.978 . S
C939 C118 1.978 . S
C955 C338 1.978 . S
C957 C138 1.978 . S
C973 C158 1.978 . S
C975 C358 1.978 . S
C991 C178 1.978 . S
C993 C318 1.978 . S
C1009 C52 1.519 . S
C1011 C4 1.354 . S
C1027 C12 1.519 . S
C1029 C24 1.354 . S
C1045 C44 1.354 . S
C1047 C32 1.519 . S
C1063 C92 1.519 . S
C1065 C64 1.354 . S
C1081 C112 1.519 . S
C1083 C84 1.354 . S
C1099 C104 1.354 . S
C1101 C72 1.519 . S
C1117 C172 1.519 . S
C1119 C124 1.354 . S
C1135 C144 1.354 . S
C1137 C132 1.519 . S
C1153 C152 1.519 . S
C1155 C164 1.354 . S
C1171 C184 1.354 . S
C1173 C212 1.519 1_655 S
C1189 C204 1.354 . S
C1191 C232 1.519 . S
C1207 C192 1.519 1_545 S
C1209 C224 1.354 1_655 S
C1225 C244 1.354 . S
C1227 C292 1.519 1_565 S
C1243 C264 1.354 1_565 S
C1245 C252 1.519 1_455 S
C1261 C272 1.519 . S
C1263 C284 1.354 . S
C1279 C304 1.354 . S
C1281 C332 1.519 . S
C1297 C324 1.354 . S
C1299 C352 1.519 . S
C1315 C312 1.519 . S
C1317 C344 1.354 . S
