# Generated by pormake.
# Topology vbe, (5)-cn, num edge types: 1
# Building blocks:
#     Node 0, Type 0, BuildingBlock: XOMCOT_clean_sbu_1, # of connection points: 5
#     Node 1, Type 0, BuildingBlock: XOMCOT_clean_sbu_1, # of connection points: 5
#     Node 2, Type 0, BuildingBlock: XOMCOT_clean_sbu_1, # of connection points: 5
#     Node 3, Type 0, BuildingBlock: XOMCOT_clean_sbu_1, # of connection points: 5
#     Node 4, Type 0, BuildingBlock: XOMCOT_clean_sbu_1, # of connection points: 5
#     Node 5, Type 0, BuildingBlock: XOMCOT_clean_sbu_1, # of connection points: 5
#     Node 6, Type 0, BuildingBlock: XOMCOT_clean_sbu_1, # of connection points: 5
#     Node 7, Type 0, BuildingBlock: XOMCOT_clean_sbu_1, # of connection points: 5
#     Node 8, Type 0, BuildingBlock: XOMCOT_clean_sbu_1, # of connection points: 5
#     Node 9, Type 0, BuildingBlock: XOMCOT_clean_sbu_1, # of connection points: 5
#     Node 10, Type 0, BuildingBlock: XOMCOT_clean_sbu_1, # of connection points: 5
#     Node 11, Type 0, BuildingBlock: XOMCOT_clean_sbu_1, # of connection points: 5
#     Node 12, Type 0, BuildingBlock: XOMCOT_clean_sbu_1, # of connection points: 5
#     Node 13, Type 0, BuildingBlock: XOMCOT_clean_sbu_1, # of connection points: 5
#     Node 14, Type 0, BuildingBlock: XOMCOT_clean_sbu_1, # of connection points: 5
#     Node 15, Type 0, BuildingBlock: XOMCOT_clean_sbu_1, # of connection points: 5
#     Edge 16, Type (0, 0), BuildingBlock: XUDNAN_clean_linker_2, # of connection points: 2
#     Edge 17, Type (0, 0), BuildingBlock: XUDNAN_clean_linker_2, # of connection points: 2
#     Edge 18, Type (0, 0), BuildingBlock: XUDNAN_clean_linker_2, # of connection points: 2
#     Edge 19, Type (0, 0), BuildingBlock: XUDNAN_clean_linker_2, # of connection points: 2
#     Edge 20, Type (0, 0), BuildingBlock: XUDNAN_clean_linker_2, # of connection points: 2
#     Edge 21, Type (0, 0), BuildingBlock: XUDNAN_clean_linker_2, # of connection points: 2
#     Edge 22, Type (0, 0), BuildingBlock: XUDNAN_clean_linker_2, # of connection points: 2
#     Edge 23, Type (0, 0), BuildingBlock: XUDNAN_clean_linker_2, # of connection points: 2
#     Edge 24, Type (0, 0), BuildingBlock: XUDNAN_clean_linker_2, # of connection points: 2
#     Edge 25, Type (0, 0), BuildingBlock: XUDNAN_clean_linker_2, # of connection points: 2
#     Edge 26, Type (0, 0), BuildingBlock: XUDNAN_clean_linker_2, # of connection points: 2
#     Edge 27, Type (0, 0), BuildingBlock: XUDNAN_clean_linker_2, # of connection points: 2
#     Edge 28, Type (0, 0), BuildingBlock: XUDNAN_clean_linker_2, # of connection points: 2
#     Edge 29, Type (0, 0), BuildingBlock: XUDNAN_clean_linker_2, # of connection points: 2
#     Edge 30, Type (0, 0), BuildingBlock: XUDNAN_clean_linker_2, # of connection points: 2
#     Edge 31, Type (0, 0), BuildingBlock: XUDNAN_clean_linker_2, # of connection points: 2
#     Edge 32, Type (0, 0), BuildingBlock: XUDNAN_clean_linker_2, # of connection points: 2
#     Edge 33, Type (0, 0), BuildingBlock: XUDNAN_clean_linker_2, # of connection points: 2
#     Edge 34, Type (0, 0), BuildingBlock: XUDNAN_clean_linker_2, # of connection points: 2
#     Edge 35, Type (0, 0), BuildingBlock: XUDNAN_clean_linker_2, # of connection points: 2
#     Edge 36, Type (0, 0), BuildingBlock: XUDNAN_clean_linker_2, # of connection points: 2
#     Edge 37, Type (0, 0), BuildingBlock: XUDNAN_clean_linker_2, # of connection points: 2
#     Edge 38, Type (0, 0), BuildingBlock: XUDNAN_clean_linker_2, # of connection points: 2
#     Edge 39, Type (0, 0), BuildingBlock: XUDNAN_clean_linker_2, # of connection points: 2
#     Edge 40, Type (0, 0), BuildingBlock: XUDNAN_clean_linker_2, # of connection points: 2
#     Edge 41, Type (0, 0), BuildingBlock: XUDNAN_clean_linker_2, # of connection points: 2
#     Edge 42, Type (0, 0), BuildingBlock: XUDNAN_clean_linker_2, # of connection points: 2
#     Edge 43, Type (0, 0), BuildingBlock: XUDNAN_clean_linker_2, # of connection points: 2
#     Edge 44, Type (0, 0), BuildingBlock: XUDNAN_clean_linker_2, # of connection points: 2
#     Edge 45, Type (0, 0), BuildingBlock: XUDNAN_clean_linker_2, # of connection points: 2
#     Edge 46, Type (0, 0), BuildingBlock: XUDNAN_clean_linker_2, # of connection points: 2
#     Edge 47, Type (0, 0), BuildingBlock: XUDNAN_clean_linker_2, # of connection points: 2
#     Edge 48, Type (0, 0), BuildingBlock: XUDNAN_clean_linker_2, # of connection points: 2
#     Edge 49, Type (0, 0), BuildingBlock: XUDNAN_clean_linker_2, # of connection points: 2
#     Edge 50, Type (0, 0), BuildingBlock: XUDNAN_clean_linker_2, # of connection points: 2
#     Edge 51, Type (0, 0), BuildingBlock: XUDNAN_clean_linker_2, # of connection points: 2
#     Edge 52, Type (0, 0), BuildingBlock: XUDNAN_clean_linker_2, # of connection points: 2
#     Edge 53, Type (0, 0), BuildingBlock: XUDNAN_clean_linker_2, # of connection points: 2
#     Edge 54, Type (0, 0), BuildingBlock: XUDNAN_clean_linker_2, # of connection points: 2
#     Edge 55, Type (0, 0), BuildingBlock: XUDNAN_clean_linker_2, # of connection points: 2
# Relax obj value: 0.487
# Max RMSD: 0.270
# Mean RMSD: 0.270
data_MOF--net-vbe--node1-XOMCOT_clean_sbu_1--edge1-XUDNAN_clean_linker_2
_symmetry_space_group_name_H-M    P1
_symmetry_Int_Tables_number       1
_symmetry_cell_setting            triclinic
loop_
_symmetry_equiv_pos_as_xyz
'x, y, z'
_cell_length_a     38.473802
_cell_length_b     42.147586
_cell_length_c     50.46835
_cell_angle_alpha  90.059553
_cell_angle_beta   90.04233
_cell_angle_gamma 89.913515
loop_
_atom_site_label
_atom_site_type_symbol
_atom_site_fract_x
_atom_site_fract_y
_atom_site_fract_z
_atom_type_partial_charge
C0 C 0.16115 0.12879 0.34107 0.0
C1 C 0.1694 0.14524 0.31842 0.0
N2 N 0.15236 0.17319 0.31835 0.0
N3 N 0.13892 0.14586 0.35607 0.0
C4 C 0.13456 0.17324 0.34169 0.0
H5 H 0.16996 0.10512 0.34548 0.0
Co6 Co 0.11573 0.13009 0.3878 0.0
C7 C 0.11303 0.18549 0.42503 0.0
O8 O 0.11722 0.16807 0.44636 0.0
N9 N 0.09104 0.11525 0.41894 0.0
C10 C 0.04726 0.11396 0.44806 0.0
C11 C 0.06135 0.12966 0.42709 0.0
C12 C 0.09359 0.08968 0.43538 0.0
N13 N 0.06733 0.08879 0.45329 0.0
O14 O 0.16077 0.11598 0.40266 0.0
H15 H 0.04988 0.15028 0.41798 0.0
H16 H 0.11377 0.07186 0.43422 0.0
O17 O 0.11671 0.17309 0.40211 0.0
C18 C 0.1601 0.08678 0.39516 0.0
O19 O 0.13177 0.07687 0.38324 0.0
N20 N 0.07334 0.13777 0.37211 0.0
C21 C 0.01357 0.13512 0.34222 0.0
C22 C 0.02702 0.16467 0.35005 0.0
C23 C 0.05705 0.16549 0.36562 0.0
C24 C 0.05827 0.10928 0.367 0.0
C25 C 0.02767 0.10744 0.353 0.0
H26 H 0.06804 0.18812 0.37107 0.0
H27 H 0.07075 0.08757 0.37309 0.0
H28 H 0.11757 0.1924 0.34751 0.0
H29 H 0.18599 0.13661 0.30266 0.0
H30 H 0.02344 0.12003 0.45832 0.0
H31 H 0.01658 0.18652 0.34203 0.0
H32 H 0.0183 0.08412 0.34744 0.0
C33 C 0.34714 0.90071 0.34636 0.0
C34 C 0.33779 0.88716 0.32248 0.0
N35 N 0.34701 0.85623 0.32244 0.0
N36 N 0.36208 0.87869 0.36197 0.0
C37 C 0.36115 0.85169 0.34686 0.0
H38 H 0.34512 0.92559 0.35134 0.0
Co39 Co 0.38801 0.88825 0.39376 0.0
C40 C 0.39513 0.82318 0.41975 0.0
O41 O 0.38971 0.83269 0.4442 0.0
N42 N 0.41595 0.8966 0.42461 0.0
C43 C 0.46332 0.8905 0.44966 0.0
C44 C 0.44479 0.87885 0.42884 0.0
C45 C 0.41851 0.91998 0.44323 0.0
N46 N 0.44706 0.91645 0.45883 0.0
O47 O 0.34487 0.8937 0.41298 0.0
H48 H 0.45323 0.85931 0.41655 0.0
H49 H 0.40073 0.93974 0.44494 0.0
O50 O 0.39191 0.84288 0.4006 0.0
C51 C 0.33909 0.92374 0.41355 0.0
O52 O 0.36361 0.94265 0.40484 0.0
N53 N 0.42787 0.88836 0.37387 0.0
C54 C 0.45771 0.9024 0.32636 0.0
C55 C 0.45559 0.87071 0.33454 0.0
C56 C 0.4402 0.86409 0.35877 0.0
C57 C 0.43663 0.91895 0.36868 0.0
C58 C 0.45193 0.92667 0.34471 0.0
H59 H 0.43356 0.84003 0.36311 0.0
H60 H 0.42674 0.93778 0.38114 0.0
H61 H 0.37309 0.82969 0.35268 0.0
H62 H 0.32637 0.89974 0.30594 0.0
H63 H 0.48818 0.88161 0.45648 0.0
H64 H 0.46065 0.85145 0.32082 0.0
H65 H 0.45368 0.95142 0.33907 0.0
C66 C 0.62777 0.90008 0.16855 0.0
C67 C 0.63855 0.88302 0.19018 0.0
N68 N 0.6525 0.85535 0.18192 0.0
N69 N 0.63403 0.88364 0.14613 0.0
C70 C 0.65143 0.85746 0.15492 0.0
H71 H 0.61413 0.9225 0.16934 0.0
Co72 Co 0.61335 0.8977 0.11312 0.0
C73 C 0.59767 0.82542 0.10876 0.0
O74 O 0.60546 0.81777 0.13321 0.0
N75 N 0.59173 0.91185 0.08133 0.0
C76 C 0.54764 0.91616 0.05285 0.0
C77 C 0.56117 0.89912 0.07334 0.0
C78 C 0.59582 0.93748 0.06534 0.0
N79 N 0.56929 0.9402 0.04781 0.0
O80 O 0.6582 0.89897 0.09623 0.0
H81 H 0.54753 0.88044 0.08353 0.0
H82 H 0.61637 0.95478 0.06753 0.0
O83 O 0.60196 0.85402 0.10087 0.0
C84 C 0.66737 0.92684 0.10362 0.0
O85 O 0.64678 0.94261 0.11969 0.0
N86 N 0.5709 0.90227 0.12978 0.0
C87 C 0.50971 0.92195 0.15326 0.0
C88 C 0.5184 0.88956 0.15238 0.0
C89 C 0.54944 0.88013 0.14056 0.0
C90 C 0.56248 0.9337 0.13029 0.0
C91 C 0.53172 0.94403 0.14149 0.0
H92 H 0.55641 0.85547 0.14099 0.0
H93 H 0.58009 0.95101 0.12204 0.0
H94 H 0.66145 0.83943 0.14173 0.0
H95 H 0.6344 0.89017 0.21048 0.0
H96 H 0.52267 0.91245 0.04343 0.0
H97 H 0.50256 0.87195 0.16226 0.0
H98 H 0.52616 0.96923 0.14233 0.0
C99 C 0.85266 0.12991 0.16852 0.0
C100 C 0.84472 0.15009 0.18923 0.0
N101 N 0.84864 0.18035 0.18111 0.0
N102 N 0.86163 0.14689 0.14692 0.0
C103 C 0.85823 0.1776 0.15517 0.0
H104 H 0.85375 0.10434 0.16977 0.0
Co105 Co 0.88242 0.12938 0.11494 0.0
C106 C 0.9204 0.19102 0.10391 0.0
O107 O 0.94825 0.17954 0.11528 0.0
N108 N 0.90295 0.1128 0.0827 0.0
C109 C 0.94051 0.10753 0.04922 0.0
C110 C 0.92986 0.12629 0.06967 0.0
C111 C 0.89818 0.08491 0.06945 0.0
N112 N 0.92083 0.08147 0.04912 0.0
O113 O 0.83735 0.1273 0.09817 0.0
H114 H 0.94344 0.14708 0.07552 0.0
H115 H 0.88002 0.06672 0.07543 0.0
O116 O 0.89284 0.17387 0.10176 0.0
C117 C 0.82994 0.09921 0.10632 0.0
O118 O 0.85243 0.08467 0.12178 0.0
N119 N 0.92479 0.12346 0.13316 0.0
C120 C 0.97701 0.1006 0.16614 0.0
C121 C 0.96277 0.13088 0.17016 0.0
C122 C 0.93586 0.14131 0.15413 0.0
C123 C 0.93869 0.09384 0.12928 0.0
C124 C 0.96529 0.08226 0.14511 0.0
H125 H 0.92384 0.16371 0.15888 0.0
H126 H 0.92716 0.07734 0.11562 0.0
H127 H 0.86521 0.19754 0.14289 0.0
H128 H 0.83774 0.14269 0.20902 0.0
H129 H 0.96264 0.11168 0.03643 0.0
H130 H 0.96989 0.14516 0.18718 0.0
H131 H 0.97419 0.05804 0.14254 0.0
C132 C 0.85411 0.88816 0.66932 0.0
C133 C 0.84769 0.86789 0.69032 0.0
N134 N 0.85103 0.83773 0.68186 0.0
N135 N 0.8613 0.87121 0.64726 0.0
C136 C 0.85823 0.8405 0.65556 0.0
H137 H 0.8566 0.91363 0.67083 0.0
Co138 Co 0.88403 0.88791 0.61579 0.0
C139 C 0.88983 0.81978 0.5885 0.0
O140 O 0.8642 0.80051 0.58247 0.0
N141 N 0.90667 0.90409 0.58427 0.0
C142 C 0.93002 0.90685 0.54378 0.0
C143 C 0.91099 0.88869 0.56097 0.0
C144 C 0.92167 0.93278 0.57963 0.0
N145 N 0.93725 0.93471 0.55554 0.0
O146 O 0.83976 0.90114 0.60104 0.0
H147 H 0.90083 0.8657 0.55603 0.0
H148 H 0.92061 0.95225 0.59347 0.0
O149 O 0.88175 0.84616 0.59951 0.0
C150 C 0.83695 0.92972 0.60946 0.0
O151 O 0.86188 0.94068 0.62473 0.0
N152 N 0.92643 0.87992 0.63205 0.0
C153 C 0.96143 0.88536 0.67933 0.0
C154 C 0.9515 0.8553 0.67018 0.0
C155 C 0.93451 0.85297 0.64581 0.0
C156 C 0.94076 0.90817 0.63906 0.0
C157 C 0.95953 0.9112 0.66215 0.0
H158 H 0.92371 0.83039 0.64008 0.0
H159 H 0.93222 0.92976 0.63009 0.0
H160 H 0.86431 0.82034 0.64314 0.0
H161 H 0.84428 0.87495 0.71078 0.0
H162 H 0.93798 0.89958 0.52416 0.0
H163 H 0.95313 0.83469 0.68293 0.0
H164 H 0.96641 0.93494 0.66856 0.0
C165 C 0.65053 0.13214 0.67104 0.0
C166 C 0.65845 0.15237 0.69172 0.0
N167 N 0.65203 0.1825 0.68415 0.0
N168 N 0.63907 0.14901 0.65007 0.0
C169 C 0.64126 0.17973 0.65852 0.0
H170 H 0.65056 0.10653 0.67209 0.0
Co171 Co 0.61435 0.13115 0.62022 0.0
C172 C 0.58024 0.19482 0.60999 0.0
O173 O 0.55532 0.18853 0.62674 0.0
N174 N 0.58907 0.11478 0.59 0.0
C175 C 0.5435 0.10885 0.56307 0.0
C176 C 0.55888 0.12776 0.58162 0.0
C177 C 0.59104 0.08717 0.57605 0.0
N178 N 0.56329 0.08291 0.5597 0.0
O179 O 0.6571 0.12721 0.60044 0.0
H180 H 0.54605 0.14742 0.59086 0.0
H181 H 0.61069 0.06931 0.57954 0.0
O182 O 0.60462 0.17462 0.60589 0.0
C183 C 0.66636 0.09906 0.60719 0.0
O184 O 0.64698 0.08358 0.62423 0.0
N185 N 0.57404 0.12722 0.64168 0.0
C186 C 0.53004 0.10163 0.67985 0.0
C187 C 0.54294 0.13247 0.6828 0.0
C188 C 0.56539 0.14467 0.66367 0.0
C189 C 0.56109 0.09714 0.63911 0.0
C190 C 0.5381 0.08453 0.65716 0.0
H191 H 0.57729 0.16726 0.6677 0.0
H192 H 0.57144 0.08072 0.62488 0.0
H193 H 0.63182 0.19951 0.64703 0.0
H194 H 0.66673 0.14504 0.71126 0.0
H195 H 0.51766 0.1123 0.55507 0.0
H196 H 0.53785 0.14602 0.70064 0.0
H197 H 0.53027 0.05997 0.65492 0.0
C198 C 0.33439 0.18011 0.86165 0.0
C199 C 0.32554 0.19906 0.8405 0.0
N200 N 0.34921 0.1947 0.82132 0.0
N201 N 0.36372 0.16352 0.85616 0.0
C202 C 0.37206 0.17318 0.83114 0.0
H203 H 0.32109 0.17956 0.88052 0.0
Co204 Co 0.38941 0.14169 0.88423 0.0
C205 C 0.40649 0.19578 0.89517 0.0
O206 O 0.42456 0.18266 0.87598 0.0
N207 N 0.41642 0.12322 0.91195 0.0
C208 C 0.46226 0.11926 0.93891 0.0
C209 C 0.44532 0.138 0.92105 0.0
C210 C 0.41685 0.09489 0.92483 0.0
N211 N 0.44451 0.09215 0.9413 0.0
O212 O 0.34572 0.11695 0.89535 0.0
H213 H 0.45541 0.16029 0.91412 0.0
H214 H 0.39836 0.07605 0.92155 0.0
O215 O 0.38246 0.17926 0.90623 0.0
C216 C 0.3247 0.10542 0.87773 0.0
O217 O 0.32932 0.11372 0.85295 0.0
N218 N 0.4022 0.10777 0.86242 0.0
C219 C 0.43991 0.06208 0.83516 0.0
C220 C 0.4467 0.09446 0.83167 0.0
C221 C 0.42812 0.11669 0.84584 0.0
C222 C 0.39514 0.07617 0.86617 0.0
C223 C 0.41336 0.05288 0.85226 0.0
H224 H 0.4358 0.14113 0.84437 0.0
H225 H 0.37685 0.06824 0.88082 0.0
H226 H 0.39544 0.16641 0.82077 0.0
H227 H 0.30397 0.21555 0.83956 0.0
H228 H 0.48737 0.12402 0.94779 0.0
H229 H 0.46642 0.10278 0.81812 0.0
H230 H 0.40739 0.02804 0.8553 0.0
C231 C 0.14731 0.89897 0.83411 0.0
C232 C 0.15152 0.87914 0.81246 0.0
N233 N 0.14471 0.84903 0.81985 0.0
N234 N 0.13792 0.88182 0.85547 0.0
C235 C 0.13706 0.85144 0.84612 0.0
H236 H 0.14933 0.92456 0.83392 0.0
Co237 Co 0.12193 0.89838 0.88893 0.0
C238 C 0.09702 0.83812 0.91757 0.0
O239 O 0.10316 0.84735 0.94196 0.0
N240 N 0.10428 0.91412 0.92261 0.0
C241 C 0.09817 0.9286 0.96506 0.0
C242 C 0.1191 0.91314 0.94694 0.0
C243 C 0.07404 0.92994 0.92698 0.0
N244 N 0.06975 0.93939 0.95234 0.0
O245 O 0.16921 0.89533 0.90284 0.0
H246 H 0.14378 0.90205 0.95138 0.0
H247 H 0.05489 0.93442 0.91196 0.0
O248 O 0.10604 0.8557 0.89814 0.0
C249 C 0.18021 0.92388 0.90674 0.0
O250 O 0.15742 0.94707 0.90589 0.0
N251 N 0.07996 0.9072 0.87354 0.0
C252 C 0.02164 0.93342 0.84987 0.0
C253 C 0.02086 0.90233 0.86005 0.0
C254 C 0.05027 0.88977 0.87217 0.0
C255 C 0.08101 0.93756 0.86447 0.0
C256 C 0.05176 0.95157 0.85351 0.0
H257 H 0.04889 0.86634 0.88027 0.0
H258 H 0.10466 0.95118 0.86654 0.0
H259 H 0.13028 0.83136 0.85826 0.0
H260 H 0.1574 0.88674 0.79249 0.0
H261 H 0.10394 0.93206 0.98584 0.0
H262 H 0.99854 0.88704 0.85745 0.0
H263 H 0.05343 0.97583 0.84659 0.0
C264 C 0.67833 0.66711 0.35776 0.0
C265 C 0.69009 0.68701 0.33795 0.0
N266 N 0.66408 0.69148 0.32064 0.0
N267 N 0.64536 0.65766 0.35252 0.0
C268 C 0.63721 0.67441 0.33019 0.0
H269 H 0.6927 0.66098 0.37544 0.0
Co270 Co 0.6135 0.63562 0.37625 0.0
C271 C 0.58863 0.68725 0.38622 0.0
O272 O 0.57504 0.67341 0.36529 0.0
N273 N 0.58024 0.61711 0.39881 0.0
C274 C 0.52747 0.59982 0.40901 0.0
C275 C 0.54663 0.61663 0.39115 0.0
C276 C 0.58083 0.60049 0.42181 0.0
N277 N 0.54889 0.58928 0.42815 0.0
O278 O 0.65266 0.61292 0.39519 0.0
H279 H 0.53683 0.62652 0.37286 0.0
H280 H 0.60434 0.59499 0.43267 0.0
O281 O 0.61325 0.67296 0.39847 0.0
C282 C 0.67605 0.59747 0.38215 0.0
O283 O 0.6776 0.60125 0.35634 0.0
N284 N 0.60859 0.59977 0.35375 0.0
C285 C 0.56711 0.55443 0.32996 0.0
C286 C 0.57543 0.58248 0.31658 0.0
C287 C 0.59541 0.6052 0.32917 0.0
C288 C 0.60568 0.57009 0.36485 0.0
C289 C 0.5838 0.54734 0.35367 0.0
H290 H 0.59573 0.62825 0.32056 0.0
H291 H 0.61559 0.56537 0.38447 0.0
H292 H 0.6114 0.67622 0.3219 0.0
H293 H 0.71537 0.69816 0.33682 0.0
H294 H 0.49993 0.59486 0.40755 0.0
H295 H 0.56245 0.58878 0.29824 0.0
H296 H 0.57761 0.52593 0.36453 0.0
C297 C 0.85895 0.39625 0.33845 0.0
C298 C 0.84962 0.38401 0.31438 0.0
N299 N 0.8472 0.35212 0.31611 0.0
N300 N 0.86247 0.37291 0.35643 0.0
C301 C 0.85352 0.34622 0.34233 0.0
H302 H 0.86544 0.42081 0.34199 0.0
Co303 Co 0.88491 0.38513 0.38979 0.0
C304 C 0.90928 0.31456 0.39399 0.0
O305 O 0.89808 0.29872 0.37337 0.0
N306 N 0.90698 0.39829 0.42259 0.0
C307 C 0.94284 0.39674 0.45741 0.0
C308 C 0.92919 0.38003 0.43677 0.0
C309 C 0.90798 0.42673 0.4356 0.0
N310 N 0.92966 0.42611 0.45676 0.0
O311 O 0.83938 0.38923 0.40636 0.0
H312 H 0.93629 0.35609 0.43251 0.0
H313 H 0.894 0.44773 0.42943 0.0
O314 O 0.89305 0.33977 0.40171 0.0
C315 C 0.83341 0.41861 0.40135 0.0
O316 O 0.85801 0.43493 0.38957 0.0
N317 N 0.92764 0.38698 0.3724 0.0
C318 C 0.98021 0.40218 0.33676 0.0
C319 C 0.96184 0.37341 0.33475 0.0
C320 C 0.93562 0.36654 0.35243 0.0
C321 C 0.94613 0.41445 0.37539 0.0
C322 C 0.97322 0.42206 0.35828 0.0
H323 H 0.92077 0.34543 0.34903 0.0
H324 H 0.93826 0.43221 0.3895 0.0
H325 H 0.85295 0.32279 0.35061 0.0
H326 H 0.8467 0.39815 0.2967 0.0
H327 H 0.9619 0.38822 0.47153 0.0
H328 H 0.9648 0.35734 0.3182 0.0
H329 H 0.98632 0.44462 0.36056 0.0
C330 C 0.13625 0.39363 0.16945 0.0
C331 C 0.14228 0.37402 0.19089 0.0
N332 N 0.14212 0.34355 0.18265 0.0
N333 N 0.13238 0.37614 0.14725 0.0
C334 C 0.13637 0.34569 0.15599 0.0
H335 H 0.13313 0.41909 0.17035 0.0
Co336 Co 0.11625 0.39304 0.11372 0.0
C337 C 0.10543 0.32343 0.08904 0.0
O338 O 0.13047 0.30276 0.08501 0.0
N339 N 0.10018 0.40956 0.0803 0.0
C340 C 0.07626 0.41311 0.04012 0.0
C341 C 0.09138 0.39322 0.05823 0.0
C342 C 0.09223 0.44 0.07394 0.0
N343 N 0.07614 0.4427 0.05011 0.0
O344 O 0.16317 0.39927 0.10167 0.0
H345 H 0.09446 0.36817 0.05517 0.0
H346 H 0.09725 0.45978 0.08699 0.0
O347 O 0.11386 0.35026 0.09908 0.0
C348 C 0.16987 0.42759 0.1092 0.0
O349 O 0.14664 0.44264 0.12356 0.0
N350 N 0.07125 0.39156 0.12651 0.0
C351 C 0.00948 0.39998 0.15471 0.0
C352 C 0.02429 0.36944 0.15114 0.0
C353 C 0.05604 0.36609 0.13822 0.0
C354 C 0.05592 0.42059 0.12781 0.0
C355 C 0.02439 0.42501 0.1404 0.0
H356 H 0.0686 0.34317 0.13793 0.0
H357 H 0.06962 0.44136 0.12145 0.0
H358 H 0.13303 0.32534 0.14323 0.0
H359 H 0.14557 0.38188 0.21113 0.0
H360 H 0.06463 0.40567 0.02163 0.0
H361 H 0.01361 0.34828 0.15987 0.0
H362 H 0.01473 0.44901 0.14123 0.0
C363 C 0.35278 0.63494 0.17423 0.0
C364 C 0.34508 0.65545 0.19478 0.0
N365 N 0.35008 0.68556 0.18661 0.0
N366 N 0.36256 0.65154 0.15265 0.0
C367 C 0.35996 0.68239 0.16079 0.0
H368 H 0.35367 0.60938 0.17576 0.0
Co369 Co 0.38654 0.63358 0.12223 0.0
C370 C 0.3885 0.69988 0.0951 0.0
O371 O 0.35919 0.70227 0.0819 0.0
N372 N 0.41129 0.61691 0.09174 0.0
C373 C 0.44922 0.61461 0.05823 0.0
C374 C 0.43333 0.63388 0.07637 0.0
C375 C 0.41477 0.58683 0.0822 0.0
N376 N 0.438 0.58485 0.06199 0.0
O377 O 0.34308 0.62696 0.10385 0.0
H378 H 0.4398 0.65849 0.07892 0.0
H379 H 0.40203 0.56646 0.09086 0.0
O380 O 0.39502 0.67508 0.1086 0.0
C381 C 0.33708 0.59882 0.11244 0.0
O382 O 0.3594 0.58624 0.12915 0.0
N383 N 0.42757 0.63429 0.14157 0.0
C384 C 0.46162 0.61688 0.18755 0.0
C385 C 0.45407 0.64896 0.18272 0.0
C386 C 0.43733 0.65735 0.15911 0.0
C387 C 0.43859 0.60386 0.14481 0.0
C388 C 0.45603 0.59475 0.16739 0.0
H389 H 0.4283 0.68142 0.15682 0.0
H390 H 0.42932 0.58521 0.13213 0.0
H391 H 0.36834 0.70206 0.14873 0.0
H392 H 0.33788 0.64831 0.2146 0.0
H393 H 0.46967 0.62162 0.04473 0.0
H394 H 0.45846 0.66681 0.1978 0.0
H395 H 0.46077 0.56965 0.1703 0.0
C396 C 0.35687 0.4003 0.66134 0.0
C397 C 0.35048 0.38168 0.68332 0.0
N398 N 0.3555 0.351 0.67673 0.0
N399 N 0.36601 0.38172 0.64074 0.0
C400 C 0.36466 0.35173 0.65074 0.0
H401 H 0.35623 0.42594 0.66069 0.0
Co402 Co 0.38368 0.39744 0.60797 0.0
C403 C 0.39827 0.32729 0.58704 0.0
O404 O 0.37189 0.30775 0.58462 0.0
N405 N 0.40216 0.41197 0.57462 0.0
C406 C 0.41571 0.41268 0.53157 0.0
C407 C 0.39766 0.39702 0.55113 0.0
C408 C 0.42231 0.43728 0.56832 0.0
N409 N 0.43145 0.4379 0.5426 0.0
O410 O 0.33742 0.39853 0.59381 0.0
H411 H 0.3823 0.37584 0.54828 0.0
H412 H 0.42966 0.45587 0.58175 0.0
O413 O 0.39249 0.3553 0.59539 0.0
C414 C 0.32971 0.42786 0.59093 0.0
O415 O 0.35404 0.4491 0.595 0.0
N416 N 0.42641 0.40087 0.62352 0.0
C417 C 0.47811 0.41962 0.65831 0.0
C418 C 0.47129 0.38706 0.65399 0.0
C419 C 0.44514 0.37815 0.6363 0.0
C420 C 0.43275 0.43209 0.62788 0.0
C421 C 0.46089 0.44187 0.64261 0.0
H422 H 0.43776 0.35347 0.63487 0.0
H423 H 0.41408 0.44967 0.62161 0.0
H424 H 0.37212 0.33086 0.63966 0.0
H425 H 0.34315 0.3902 0.70277 0.0
H426 H 0.41755 0.4057 0.51097 0.0
H427 H 0.483 0.36874 0.66607 0.0
H428 H 0.46536 0.46709 0.64475 0.0
C429 C 0.15309 0.63618 0.66338 0.0
C430 C 0.15966 0.65521 0.68486 0.0
N431 N 0.14393 0.68336 0.68118 0.0
N432 N 0.1333 0.65176 0.64558 0.0
C433 C 0.12776 0.68064 0.65723 0.0
H434 H 0.16037 0.61158 0.6618 0.0
Co435 Co 0.11658 0.62991 0.61466 0.0
C436 C 0.08019 0.67596 0.58144 0.0
O437 O 0.05951 0.65208 0.57612 0.0
N438 N 0.10082 0.60673 0.58358 0.0
C439 C 0.09702 0.59048 0.54142 0.0
C440 C 0.11473 0.6096 0.55905 0.0
C441 C 0.07499 0.58516 0.58013 0.0
N442 N 0.07198 0.57508 0.5548 0.0
O443 O 0.16398 0.62547 0.60193 0.0
H444 H 0.13607 0.62518 0.55413 0.0
H445 H 0.05752 0.57759 0.59546 0.0
O446 O 0.10672 0.6713 0.59654 0.0
C447 C 0.16952 0.59633 0.60809 0.0
O448 O 0.14413 0.58007 0.61883 0.0
N449 N 0.07255 0.62938 0.62967 0.0
C450 C 0.0162 0.61866 0.66262 0.0
C451 C 0.02171 0.64888 0.65177 0.0
C452 C 0.05054 0.65392 0.63549 0.0
C453 C 0.06732 0.6002 0.64033 0.0
C454 C 0.03866 0.59393 0.65577 0.0
H455 H 0.05636 0.67787 0.62953 0.0
H456 H 0.08608 0.58156 0.63731 0.0
H457 H 0.11053 0.69852 0.64919 0.0
H458 H 0.1729 0.64806 0.70285 0.0
H459 H 0.10237 0.58801 0.52047 0.0
H460 H 0.00581 0.66887 0.65775 0.0
H461 H 0.03654 0.57064 0.66471 0.0
C462 C 0.85699 0.61933 0.83418 0.0
C463 C 0.85277 0.63658 0.81125 0.0
N464 N 0.85772 0.66752 0.81662 0.0
N465 N 0.86491 0.6389 0.85447 0.0
C466 C 0.86494 0.66835 0.84304 0.0
H467 H 0.85619 0.59376 0.83552 0.0
Co468 Co 0.87781 0.62341 0.88926 0.0
C469 C 0.9143 0.67726 0.9157 0.0
O470 O 0.93138 0.65647 0.92998 0.0
N471 N 0.88992 0.60795 0.9242 0.0
C472 C 0.88765 0.60352 0.96834 0.0
C473 C 0.87234 0.61664 0.9463 0.0
C474 C 0.9159 0.58917 0.93378 0.0
N475 N 0.91508 0.58623 0.96039 0.0
O476 O 0.82959 0.62446 0.90038 0.0
H477 H 0.85037 0.63264 0.94662 0.0
H478 H 0.9367 0.57923 0.9222 0.0
O479 O 0.89001 0.66782 0.9 0.0
C480 C 0.82243 0.59538 0.89492 0.0
O481 O 0.84646 0.57806 0.8834 0.0
N482 N 0.92231 0.61623 0.87687 0.0
C483 C 0.97719 0.59619 0.84513 0.0
C484 C 0.97097 0.62882 0.84973 0.0
C485 C 0.94326 0.63824 0.86551 0.0
C486 C 0.92907 0.58473 0.87381 0.0
C487 C 0.95793 0.57432 0.85991 0.0
H488 H 0.93641 0.66286 0.86578 0.0
H489 H 0.91129 0.5673 0.88164 0.0
H490 H 0.87188 0.68979 0.85345 0.0
H491 H 0.84829 0.62687 0.79167 0.0
H492 H 0.87953 0.60686 0.98869 0.0
H493 H 0.98412 0.64738 0.83896 0.0
H494 H 0.96235 0.54905 0.8585 0.0
C495 C 0.65681 0.39216 0.8473 0.0
C496 C 0.66548 0.37704 0.82402 0.0
N497 N 0.64907 0.34888 0.82296 0.0
N498 N 0.635 0.37392 0.8616 0.0
C499 C 0.63096 0.34747 0.84608 0.0
H500 H 0.66463 0.41587 0.85251 0.0
Co501 Co 0.6112 0.38697 0.8938 0.0
C502 C 0.60375 0.3233 0.92301 0.0
O503 O 0.61055 0.33358 0.94704 0.0
N504 N 0.58601 0.39902 0.92502 0.0
C505 C 0.54218 0.3976 0.95391 0.0
C506 C 0.55771 0.38259 0.93308 0.0
C507 C 0.5861 0.42505 0.94106 0.0
N508 N 0.55982 0.42433 0.95894 0.0
O509 O 0.65527 0.39326 0.91179 0.0
H510 H 0.54767 0.36152 0.92362 0.0
H511 H 0.60435 0.44444 0.93942 0.0
O512 O 0.60638 0.34225 0.9033 0.0
C513 C 0.66022 0.42293 0.90742 0.0
O514 O 0.63667 0.43854 0.89382 0.0
N515 N 0.56975 0.38652 0.87595 0.0
C516 C 0.51455 0.39742 0.84262 0.0
C517 C 0.52284 0.36635 0.85017 0.0
C518 C 0.55121 0.3614 0.86668 0.0
C519 C 0.55891 0.41678 0.87168 0.0
C520 C 0.53095 0.42286 0.85526 0.0
H521 H 0.55961 0.33771 0.87017 0.0
H522 H 0.57347 0.43643 0.87973 0.0
H523 H 0.61347 0.32836 0.85069 0.0
H524 H 0.68167 0.38672 0.80847 0.0
H525 H 0.51875 0.39014 0.964 0.0
H526 H 0.51049 0.34616 0.84077 0.0
H527 H 0.52547 0.44725 0.8499 0.0
H528 H 0.03493 0.12175 0.19038 0.0
H529 H 0.95646 0.04852 0.19286 0.0
H530 H 0.95834 0.04879 0.24138 0.0
H531 H 0.07905 0.10193 0.25917 0.0
H532 H 0.08426 0.14392 0.26457 0.0
H533 H 0.08831 0.1278 0.23164 0.0
H534 H 0.04186 0.16816 0.2161 0.0
H535 H 0.03542 0.1828 0.24913 0.0
H536 H 0.99908 0.16723 0.23072 0.0
H537 H 0.95244 0.07051 0.28665 0.0
H538 H 0.95717 0.09818 0.32975 0.0
H539 H 0.03553 0.16044 0.29657 0.0
C540 C 0.02056 0.10395 0.20127 0.0
C541 C 0.9951 0.08577 0.18838 0.0
C542 C 0.97608 0.06276 0.20266 0.0
C543 C 0.97652 0.06316 0.23029 0.0
C544 C 0.99701 0.0859 0.24272 0.0
C545 C 0.02015 0.10482 0.22881 0.0
C546 C 0.03477 0.13088 0.24607 0.0
C547 C 0.07391 0.12581 0.25065 0.0
C548 C 0.0273 0.16419 0.2348 0.0
C549 C 0.0142 0.12517 0.27097 0.0
C550 C 0.99279 0.09907 0.2688 0.0
C551 C 0.96997 0.09038 0.28893 0.0
C552 C 0.97193 0.10683 0.31298 0.0
C553 C 0.99677 0.13127 0.3164 0.0
C554 C 0.01605 0.14206 0.2945 0.0
H555 H 0.51836 0.96542 0.19129 0.0
H556 H 0.44301 0.90056 0.15801 0.0
H557 H 0.4102 0.9018 0.19974 0.0
H558 H 0.53343 0.92921 0.24128 0.0
H559 H 0.53777 0.95946 0.26634 0.0
H560 H 0.54482 0.96935 0.23237 0.0
H561 H 0.49776 0.01307 0.23385 0.0
H562 H 0.49151 1.00465 0.26856 0.0
H563 H 0.45496 1.00403 0.2462 0.0
H564 H 0.40263 0.89047 0.24552 0.0
H565 H 0.4123 0.87615 0.29213 0.0
H566 H 0.49397 0.94639 0.298 0.0
C567 C 0.49349 0.95349 0.19225 0.0
C568 C 0.48296 0.93288 0.17179 0.0
C569 C 0.45117 0.91652 0.17365 0.0
C570 C 0.43241 0.91722 0.19728 0.0
C571 C 0.44602 0.9344 0.21854 0.0
C572 C 0.47528 0.95332 0.21603 0.0
C573 C 0.48971 0.96288 0.24284 0.0
C574 C 0.52868 0.95467 0.24583 0.0
C575 C 0.48306 0.99826 0.24818 0.0
C576 C 0.46742 0.94254 0.26046 0.0
C577 C 0.44152 0.92739 0.2462 0.0
C578 C 0.42164 0.90323 0.25716 0.0
C579 C 0.42798 0.89466 0.28336 0.0
C580 C 0.45424 0.90998 0.29821 0.0
C581 C 0.47372 0.93456 0.28683 0.0
H582 H 0.00766 0.92401 0.70397 0.0
H583 H 0.91755 0.8647 0.71797 0.0
H584 H 0.91193 0.88705 0.76295 0.0
H585 H 0.04617 0.91638 0.7637 0.0
H586 H 0.06122 0.95686 0.76541 0.0
H587 H 0.05333 0.93895 0.73387 0.0
H588 H 0.01159 0.9858 0.72286 0.0
H589 H 0.01824 1.00261 0.75535 0.0
H590 H 0.97489 0.99368 0.74407 0.0
H591 H 0.92014 0.91054 0.80712 0.0
H592 H 0.95119 0.92038 0.8489 0.0
H593 H 0.03334 0.96724 0.80513 0.0
C594 C 0.98683 0.91573 0.71661 0.0
C595 C 0.96333 0.89252 0.70775 0.0
C596 C 0.93635 0.88206 0.72467 0.0
C597 C 0.93227 0.89534 0.74988 0.0
C598 C 0.95495 0.91939 0.75755 0.0
C599 C 0.982 0.92914 0.74149 0.0
C600 C 0.00574 0.95201 0.75548 0.0
C601 C 0.0438 0.94031 0.75461 0.0
C602 C 0.00239 0.98551 0.74373 0.0
C603 C 0.99018 0.95065 0.78294 0.0
C604 C 0.95962 0.93333 0.78338 0.0
C605 C 0.94375 0.92445 0.80705 0.0
C606 C 0.96163 0.93006 0.83071 0.0
C607 C 0.99539 0.9433 0.8301 0.0
C608 C 0.00766 0.957 0.8064 0.0
H609 H 0.55531 0.09974 0.72978 0.0
H610 H 0.47296 0.06329 0.6797 0.0
H611 H 0.45311 0.02889 0.71621 0.0
H612 H 0.57025 0.02573 0.77085 0.0
H613 H 0.5763 0.04938 0.80029 0.0
H614 H 0.58935 0.06466 0.76846 0.0
H615 H 0.55196 0.11431 0.77591 0.0
H616 H 0.53809 0.10006 0.80751 0.0
H617 H 0.50629 0.11026 0.78257 0.0
H618 H 0.43457 0.00916 0.75859 0.0
H619 H 0.41158 0.01708 0.80331 0.0
H620 H 0.50902 0.05852 0.8278 0.0
C621 C 0.53315 0.08438 0.72657 0.0
C622 C 0.51533 0.08419 0.70225 0.0
C623 C 0.48671 0.06373 0.69844 0.0
C624 C 0.47581 0.04369 0.71882 0.0
C625 C 0.49422 0.04408 0.74263 0.0
C626 C 0.52213 0.06417 0.74663 0.0
C627 C 0.5332 0.06497 0.77526 0.0
C628 C 0.56942 0.05028 0.77891 0.0
C629 C 0.53224 0.09936 0.78598 0.0
C630 C 0.50526 0.04411 0.78721 0.0
C631 C 0.48384 0.03122 0.76784 0.0
C632 C 0.45154 0.01812 0.77396 0.0
C633 C 0.43873 0.02225 0.79962 0.0
C634 C 0.4585 0.03928 0.81834 0.0
C635 C 0.49383 0.04552 0.81334 0.0
H636 H 0.5603 0.51355 0.28963 0.0
H637 H 0.50297 0.56327 0.35003 0.0
H638 H 0.45859 0.57836 0.31754 0.0
H639 H 0.56451 0.56479 0.25007 0.0
H640 H 0.5577 0.54598 0.21842 0.0
H641 H 0.57277 0.5229 0.24576 0.0
H642 H 0.52079 0.48423 0.24205 0.0
H643 H 0.50643 0.50597 0.21325 0.0
H644 H 0.47712 0.49967 0.24057 0.0
H645 H 0.4383 0.6077 0.2779 0.0
H646 H 0.43215 0.63505 0.23478 0.0
H647 H 0.50732 0.57034 0.20034 0.0
C648 C 0.5365 0.52476 0.29624 0.0
C649 C 0.53527 0.53829 0.32161 0.0
C650 C 0.50426 0.553 0.33034 0.0
C651 C 0.47917 0.56223 0.3118 0.0
C652 C 0.48493 0.55463 0.28527 0.0
C653 C 0.51189 0.5346 0.27762 0.0
C654 C 0.5173 0.53555 0.24795 0.0
C655 C 0.55529 0.54278 0.24017 0.0
C656 C 0.50465 0.50452 0.2352 0.0
C657 C 0.49347 0.56259 0.24092 0.0
C658 C 0.47383 0.57246 0.26227 0.0
C659 C 0.45258 0.5993 0.26081 0.0
C660 C 0.45003 0.61527 0.23649 0.0
C661 C 0.46937 0.60474 0.21429 0.0
C662 C 0.49185 0.57856 0.21691 0.0
H663 H 0.017 0.36723 0.30132 0.0
H664 H 0.98426 0.46383 0.3177 0.0
H665 H 0.98522 0.47558 0.27006 0.0
H666 H 0.05492 0.3705 0.23532 0.0
H667 H 0.02977 0.33651 0.22524 0.0
H668 H 0.04277 0.3408 0.25928 0.0
H669 H 0.97775 0.33466 0.2722 0.0
H670 H 0.96376 0.33372 0.2382 0.0
H671 H 0.9465 0.36327 0.26041 0.0
H672 H 0.98055 0.4731 0.21897 0.0
H673 H 0.97914 0.45834 0.1721 0.0
H674 H 0.98697 0.35894 0.19452 0.0
C675 C 0.01108 0.39121 0.29503 0.0
C676 C 0.99907 0.41398 0.31318 0.0
C677 C 0.9931 0.44551 0.30426 0.0
C678 C 0.99283 0.45232 0.27706 0.0
C679 C 0.99734 0.42711 0.25954 0.0
C680 C 0.00601 0.39706 0.26835 0.0
C681 C 0.00012 0.37225 0.24739 0.0
C682 C 0.03391 0.35397 0.24145 0.0
C683 C 0.97028 0.34966 0.25503 0.0
C684 C 0.98942 0.3932 0.2248 0.0
C685 C 0.98832 0.42477 0.23187 0.0
C686 C 0.98208 0.44837 0.21326 0.0
C687 C 0.98146 0.43949 0.18644 0.0
C688 C 0.988 0.40736 0.1788 0.0
C689 C 0.98581 0.38398 0.19866 0.0
H690 H 0.533 0.36699 0.7979 0.0
H691 H 0.46733 0.44291 0.82781 0.0
H692 H 0.46191 0.46423 0.78233 0.0
H693 H 0.57949 0.41258 0.75119 0.0
H694 H 0.58131 0.38139 0.72675 0.0
H695 H 0.57918 0.37165 0.76146 0.0
H696 H 0.52398 0.33747 0.75382 0.0
H697 H 0.52705 0.34593 0.71902 0.0
H698 H 0.48741 0.35463 0.73664 0.0
H699 H 0.46432 0.47683 0.73509 0.0
H700 H 0.45924 0.47226 0.68761 0.0
H701 H 0.52873 0.39055 0.68822 0.0
C702 C 0.51631 0.3874 0.79487 0.0
C703 C 0.50033 0.40333 0.81622 0.0
C704 C 0.47947 0.43039 0.8115 0.0
C705 C 0.47694 0.44295 0.78597 0.0
C706 C 0.49552 0.42806 0.76579 0.0
C707 C 0.51386 0.40037 0.76979 0.0
C708 C 0.52996 0.38803 0.74457 0.0
C709 C 0.56987 0.38847 0.74609 0.0
C710 C 0.51626 0.35456 0.73812 0.0
C711 C 0.51659 0.41255 0.72539 0.0
C712 C 0.49769 0.43589 0.73825 0.0
C713 C 0.47932 0.45898 0.72471 0.0
C714 C 0.47708 0.45623 0.69733 0.0
C715 C 0.49309 0.43033 0.68383 0.0
C716 C 0.5157 0.41016 0.6979 0.0
H717 H 0.02524 0.62864 0.81469 0.0
H718 H 0.9681 0.53955 0.81681 0.0
H719 H 0.96927 0.53723 0.76884 0.0
H720 H 0.96699 0.65797 0.76968 0.0
H721 H 0.99703 0.68335 0.75246 0.0
H722 H 0.00407 0.67404 0.78686 0.0
H723 H 0.06558 0.65014 0.77747 0.0
H724 H 0.05864 0.66364 0.74414 0.0
H725 H 0.07056 0.62277 0.75015 0.0
H726 H 0.96483 0.54993 0.72052 0.0
H727 H 0.9714 0.57037 0.67491 0.0
H728 H 0.01953 0.6557 0.7059 0.0
C729 C 0.01321 0.60834 0.80535 0.0
C730 C 0.99426 0.58582 0.82004 0.0
C731 C 0.98178 0.55827 0.80666 0.0
C732 C 0.98176 0.55676 0.77901 0.0
C733 C 0.99417 0.58283 0.76526 0.0
C734 C 0.01043 0.60777 0.77794 0.0
C735 C 0.01651 0.63516 0.75943 0.0
C736 C 0.99487 0.66435 0.76762 0.0
C737 C 0.05525 0.64327 0.75772 0.0
C738 C 0.00282 0.6211 0.73404 0.0
C739 C 0.98941 0.59111 0.73787 0.0
C740 C 0.97557 0.5733 0.71717 0.0
C741 C 0.9787 0.58534 0.69146 0.0
C742 C 0.99609 0.61447 0.68703 0.0
C743 C 0.00568 0.63359 0.70871 0.0
H744 H 0.14509 0.23901 0.31787 0.0
H745 H 0.15412 0.15667 0.26662 0.0
H746 H 0.1537 0.19118 0.22752 0.0
H747 H 0.08733 0.28456 0.27465 0.0
H748 H 0.10757 0.32224 0.28145 0.0
H749 H 0.10855 0.29127 0.30603 0.0
H750 H 0.17566 0.29497 0.30781 0.0
H751 H 0.17485 0.32583 0.28311 0.0
H752 H 0.20037 0.29053 0.2777 0.0
H753 H 0.15329 0.23394 0.19322 0.0
H754 H 0.15055 0.28218 0.16606 0.0
H755 H 0.14036 0.33884 0.23771 0.0
C756 C 0.14673 0.22829 0.29841 0.0
C757 C 0.15005 0.19474 0.29567 0.0
C758 C 0.15229 0.18203 0.26963 0.0
C759 C 0.1519 0.20154 0.2471 0.0
C760 C 0.14928 0.23424 0.25039 0.0
C761 C 0.1466 0.24771 0.27532 0.0
C762 C 0.14423 0.28382 0.27279 0.0
C763 C 0.10987 0.2962 0.28442 0.0
C764 C 0.17564 0.29973 0.28615 0.0
C765 C 0.14536 0.28822 0.24268 0.0
C766 C 0.14858 0.25921 0.23029 0.0
C767 C 0.15051 0.25682 0.20273 0.0
C768 C 0.14875 0.28463 0.18733 0.0
C769 C 0.14486 0.315 0.19918 0.0
C770 C 0.14339 0.31646 0.22751 0.0
H771 H 0.34499 0.69074 0.24142 0.0
H772 H 0.35324 0.74725 0.16967 0.0
H773 H 0.35347 0.79576 0.19672 0.0
H774 H 0.28722 0.74565 0.27624 0.0
H775 H 0.30661 0.73849 0.30819 0.0
H776 H 0.3068 0.70772 0.28335 0.0
H777 H 0.37371 0.70346 0.28723 0.0
H778 H 0.37375 0.73426 0.31202 0.0
H779 H 0.39995 0.73843 0.28263 0.0
H780 H 0.35168 0.83887 0.23131 0.0
H781 H 0.34999 0.8732 0.27055 0.0
H782 H 0.34444 0.79033 0.32132 0.0
C783 C 0.34662 0.71315 0.23114 0.0
C784 C 0.34921 0.71444 0.20289 0.0
C785 C 0.35155 0.74487 0.19095 0.0
C786 C 0.35155 0.77285 0.20627 0.0
C787 C 0.34906 0.77057 0.23381 0.0
C788 C 0.34661 0.74152 0.2462 0.0
C789 C 0.34421 0.74594 0.27624 0.0
C790 C 0.30913 0.73371 0.28662 0.0
C791 C 0.37473 0.72954 0.29036 0.0
C792 C 0.34649 0.782 0.27882 0.0
C793 C 0.34875 0.79559 0.25396 0.0
C794 C 0.34999 0.82839 0.25083 0.0
C795 C 0.34888 0.84784 0.27347 0.0
C796 C 0.34724 0.83494 0.29945 0.0
C797 C 0.34611 0.80125 0.30197 0.0
H798 H 0.64819 0.75418 0.31666 0.0
H799 H 0.68149 0.67247 0.27148 0.0
H800 H 0.68414 0.70548 0.2307 0.0
H801 H 0.5938 0.78873 0.26566 0.0
H802 H 0.60511 0.829 0.27403 0.0
H803 H 0.60606 0.79867 0.29913 0.0
H804 H 0.6702 0.81255 0.30952 0.0
H805 H 0.6696 0.84278 0.28432 0.0
H806 H 0.70188 0.81176 0.28323 0.0
H807 H 0.68277 0.74867 0.19445 0.0
H808 H 0.67614 0.79635 0.16654 0.0
H809 H 0.6444 0.84982 0.23621 0.0
C810 C 0.65598 0.74341 0.2981 0.0
C811 C 0.6647 0.71085 0.29703 0.0
C812 C 0.67475 0.69739 0.27252 0.0
C813 C 0.67634 0.716 0.24934 0.0
C814 C 0.66779 0.74819 0.25096 0.0
C815 C 0.6577 0.76171 0.27477 0.0
C816 C 0.64966 0.79672 0.27123 0.0
C817 C 0.61138 0.80368 0.2779 0.0
C818 C 0.67431 0.81716 0.28807 0.0
C819 C 0.65676 0.80088 0.24179 0.0
C820 C 0.66719 0.77269 0.23038 0.0
C821 C 0.67462 0.77087 0.2033 0.0
C822 C 0.67082 0.79833 0.1875 0.0
C823 C 0.65965 0.82764 0.19861 0.0
C824 C 0.65305 0.82848 0.22641 0.0
H825 H 0.84199 0.28576 0.31569 0.0
H826 H 0.84759 0.36758 0.26321 0.0
H827 H 0.84694 0.3329 0.22508 0.0
H828 H 0.89704 0.23481 0.27693 0.0
H829 H 0.87199 0.19923 0.28202 0.0
H830 H 0.87133 0.23032 0.30654 0.0
H831 H 0.80428 0.23306 0.30335 0.0
H832 H 0.80472 0.20192 0.27882 0.0
H833 H 0.78406 0.23932 0.27155 0.0
H834 H 0.84767 0.29041 0.19114 0.0
H835 H 0.84898 0.24199 0.16416 0.0
H836 H 0.84341 0.18529 0.23601 0.0
C837 C 0.84281 0.29653 0.29627 0.0
C838 C 0.84467 0.33023 0.29341 0.0
C839 C 0.84579 0.34251 0.26709 0.0
C840 C 0.84555 0.32276 0.24474 0.0
C841 C 0.84394 0.29016 0.24825 0.0
C842 C 0.84236 0.2769 0.27326 0.0
C843 C 0.84101 0.24073 0.27084 0.0
C844 C 0.87221 0.22537 0.28492 0.0
C845 C 0.80647 0.228 0.28179 0.0
C846 C 0.84307 0.23612 0.24076 0.0
C847 C 0.84443 0.26513 0.22825 0.0
C848 C 0.8466 0.26747 0.20072 0.0
C849 C 0.84752 0.23955 0.18544 0.0
C850 C 0.8465 0.20911 0.19742 0.0
C851 C 0.84405 0.20774 0.22571 0.0
H852 H 0.82249 0.72422 0.80955 0.0
H853 H 0.90394 0.66489 0.77709 0.0
H854 H 0.91051 0.70165 0.73932 0.0
H855 H 0.78364 0.74409 0.74613 0.0
H856 H 0.77293 0.7844 0.75489 0.0
H857 H 0.77526 0.75435 0.78021 0.0
H858 H 0.82018 0.78792 0.80603 0.0
H859 H 0.81782 0.81818 0.78088 0.0
H860 H 0.8592 0.80095 0.78957 0.0
H861 H 0.90676 0.74318 0.70378 0.0
H862 H 0.89588 0.78871 0.6743 0.0
H863 H 0.81691 0.82335 0.72842 0.0
C864 C 0.84212 0.71945 0.79472 0.0
C865 C 0.86322 0.69177 0.79653 0.0
C866 C 0.88792 0.686 0.77628 0.0
C867 C 0.89166 0.70672 0.75466 0.0
C868 C 0.87025 0.73338 0.75311 0.0
C869 C 0.84603 0.74002 0.77261 0.0
C870 C 0.82592 0.77016 0.76548 0.0
C871 C 0.78714 0.7628 0.76145 0.0
C872 C 0.8311 0.79583 0.78676 0.0
C873 C 0.84305 0.77958 0.73929 0.0
C874 C 0.86823 0.75767 0.73247 0.0
C875 C 0.88711 0.7605 0.70897 0.0
C876 C 0.88049 0.78642 0.69212 0.0
C877 C 0.85532 0.80977 0.69866 0.0
C878 C 0.83637 0.80608 0.72274 0.0
H879 H 0.64905 0.28318 0.8209 0.0
H880 H 0.64573 0.36753 0.77189 0.0
H881 H 0.64601 0.33435 0.73171 0.0
H882 H 0.70789 0.23942 0.77783 0.0
H883 H 0.68763 0.20145 0.78324 0.0
H884 H 0.6858 0.23153 0.80861 0.0
H885 H 0.61865 0.22792 0.80913 0.0
H886 H 0.6203 0.1977 0.78387 0.0
H887 H 0.59481 0.23307 0.77866 0.0
H888 H 0.64773 0.2923 0.69621 0.0
H889 H 0.65028 0.24449 0.66822 0.0
H890 H 0.65311 0.18596 0.73904 0.0
C891 C 0.64802 0.29456 0.8017 0.0
C892 C 0.64732 0.32824 0.79975 0.0
C893 C 0.64654 0.342 0.7741 0.0
C894 C 0.64662 0.32327 0.75104 0.0
C895 C 0.6479 0.29037 0.75354 0.0
C896 C 0.64867 0.27601 0.77818 0.0
C897 C 0.65103 0.24004 0.77494 0.0
C898 C 0.68511 0.22736 0.78687 0.0
C899 C 0.6193 0.22372 0.78739 0.0
C900 C 0.65094 0.23659 0.74479 0.0
C901 C 0.64922 0.266 0.7329 0.0
C902 C 0.64896 0.26912 0.70535 0.0
C903 C 0.65029 0.24159 0.6895 0.0
C904 C 0.65183 0.21087 0.70095 0.0
C905 C 0.65228 0.2087 0.7292 0.0
H906 H 0.36673 0.34914 0.73045 0.0
H907 H 0.33933 0.29024 0.66313 0.0
H908 H 0.33553 0.24356 0.6927 0.0
H909 H 0.4199 0.2904 0.76356 0.0
H910 H 0.40649 0.30195 0.79639 0.0
H911 H 0.40697 0.33079 0.77005 0.0
H912 H 0.342 0.34347 0.77878 0.0
H913 H 0.34147 0.31477 0.80519 0.0
H914 H 0.31066 0.31171 0.77839 0.0
H915 H 0.33538 0.20253 0.73015 0.0
H916 H 0.33744 0.17181 0.77218 0.0
H917 H 0.36353 0.2573 0.81517 0.0
C918 C 0.35966 0.32651 0.72189 0.0
C919 C 0.35333 0.32358 0.69423 0.0
C920 C 0.3447 0.29322 0.68403 0.0
C921 C 0.34234 0.26653 0.70076 0.0
C922 C 0.34891 0.27026 0.72782 0.0
C923 C 0.35741 0.29954 0.73832 0.0
C924 C 0.36366 0.29711 0.76804 0.0
C925 C 0.4015 0.30558 0.77491 0.0
C926 C 0.3379 0.31801 0.78351 0.0
C927 C 0.35676 0.26207 0.77273 0.0
C928 C 0.34863 0.24687 0.74924 0.0
C929 C 0.34181 0.21429 0.74858 0.0
C930 C 0.34321 0.19694 0.77244 0.0
C931 C 0.35096 0.21214 0.79672 0.0
C932 C 0.35774 0.24514 0.79679 0.0
H933 H 0.16744 0.74487 0.68607 0.0
H934 H 0.11057 0.67089 0.72583 0.0
H935 H 0.10372 0.70517 0.76553 0.0
H936 H 0.21508 0.76815 0.74529 0.0
H937 H 0.21638 0.80973 0.73706 0.0
H938 H 0.2144 0.7804 0.71109 0.0
H939 H 0.1592 0.80718 0.69211 0.0
H940 H 0.16109 0.83674 0.71789 0.0
H941 H 0.12219 0.81354 0.71336 0.0
H942 H 0.10391 0.74716 0.80108 0.0
H943 H 0.11094 0.79329 0.83034 0.0
H944 H 0.17181 0.84038 0.7695 0.0
C945 C 0.1527 0.73644 0.7029 0.0
C946 C 0.13757 0.70575 0.7025 0.0
C947 C 0.12031 0.69489 0.72546 0.0
C948 C 0.11692 0.71405 0.74812 0.0
C949 C 0.1319 0.74414 0.74801 0.0
C950 C 0.14976 0.75527 0.72612 0.0
C951 C 0.16519 0.78783 0.73209 0.0
C952 C 0.20513 0.78644 0.73133 0.0
C953 C 0.15106 0.81281 0.71271 0.0
C954 C 0.15215 0.79367 0.76027 0.0
C955 C 0.1333 0.76793 0.76908 0.0
C956 C 0.11873 0.76743 0.79438 0.0
C957 C 0.12312 0.79393 0.81106 0.0
C958 C 0.14203 0.82107 0.80269 0.0
C959 C 0.1569 0.8205 0.77678 0.0
H960 H 0.04881 0.02725 0.44645 0.0
H961 H 0.06384 0.10075 0.50512 0.0
H962 H 0.03454 0.06768 0.5388 0.0
H963 H 0.9657 1.00701 0.46441 0.0
H964 H 0.96958 0.96477 0.45956 0.0
H965 H 0.99693 0.9914 0.44116 0.0
H966 H 0.05193 0.96284 0.4587 0.0
H967 H 0.02475 0.93562 0.47679 0.0
H968 H 0.05782 0.95793 0.49389 0.0
H969 H 0.99735 0.03005 0.5643 0.0
H970 H 0.95891 0.9885 0.58134 0.0
H971 H 0.9663 0.93922 0.5057 0.0
C972 C 0.04738 0.03549 0.46674 0.0
C973 C 0.05947 0.06605 0.47358 0.0
C974 C 0.0556 0.07698 0.49992 0.0
C975 C 0.03875 0.05849 0.51904 0.0
C976 C 0.02585 0.02898 0.51151 0.0
C977 C 0.0304 0.01723 0.48613 0.0
C978 C 0.01181 0.98572 0.48285 0.0
C979 C 0.98438 0.98735 0.46068 0.0
C980 C 0.03814 0.95894 0.47776 0.0
C981 C 0.99501 0.98236 0.50994 0.0
C982 C 0.00379 1.00739 0.52622 0.0
C983 C 0.99063 0.01007 0.55183 0.0
C984 C 0.96839 0.98626 0.56129 0.0
C985 C 0.95906 0.95998 0.54516 0.0
C986 C 0.97269 0.95843 0.51899 0.0
H987 H 0.44491 0.98145 0.46098 0.0
H988 H 0.48274 0.89789 0.502 0.0
H989 H 0.51773 0.93155 0.53162 0.0
H990 H 0.52186 0.02524 0.46201 0.0
H991 H 0.50224 0.06324 0.46886 0.0
H992 H 0.47769 0.03304 0.45195 0.0
H993 H 0.42936 0.03641 0.48752 0.0
H994 H 0.45343 0.06707 0.50434 0.0
H995 H 0.44057 0.03184 0.52198 0.0
H996 H 0.55283 0.97338 0.55418 0.0
H997 H 0.57955 0.02186 0.57256 0.0
H998 H 0.51896 0.07884 0.51771 0.0
C999 C 0.45977 0.97039 0.47669 0.0
C1000 C 0.46132 0.93697 0.47902 0.0
C1001 C 0.4815 0.92339 0.49964 0.0
C1002 C 0.5015 0.9423 0.51657 0.0
C1003 C 0.50074 0.97497 0.51303 0.0
C1004 C 0.47983 0.98906 0.49405 0.0
C1005 C 0.48413 0.02484 0.49455 0.0
C1006 C 0.49727 0.0373 0.46774 0.0
C1007 C 0.44984 0.041 0.50258 0.0
C1008 C 0.51155 0.02835 0.51605 0.0
C1009 C 0.52067 0.99929 0.52648 0.0
C1010 C 0.54574 0.99638 0.54634 0.0
C1011 C 0.56116 0.02406 0.55643 0.0
C1012 C 0.5515 0.0543 0.54667 0.0
C1013 C 0.52677 0.05617 0.52582 0.0
H1014 H 0.44591 0.07522 0.99278 0.0
H1015 H 0.48059 0.04847 0.91443 0.0
H1016 H 0.5209 1.00891 0.93399 0.0
H1017 H 0.52587 0.0698 0.02558 0.0
H1018 H 0.50938 0.05246 0.05568 0.0
H1019 H 0.48166 0.07725 0.0357 0.0
H1020 H 0.43614 0.03219 0.03213 0.0
H1021 H 0.46326 1.00765 0.05279 0.0
H1022 H 0.44957 0.99353 0.02072 0.0
H1023 H 0.56066 0.97577 0.96232 0.0
H1024 H 0.58918 0.94336 0.99715 0.0
H1025 H 0.52724 0.98999 0.05706 0.0
C1026 C 0.46108 0.06004 0.97988 0.0
C1027 C 0.45972 0.06401 0.95215 0.0
C1028 C 0.4807 0.0448 0.93567 0.0
C1029 C 0.50396 0.02275 0.94664 0.0
C1030 C 0.50558 0.0201 0.97414 0.0
C1031 C 0.48399 0.03753 0.99055 0.0
C1032 C 0.49053 0.02968 0.01944 0.0
C1033 C 0.50257 0.05906 0.035 0.0
C1034 C 0.45795 0.01487 0.03201 0.0
C1035 C 0.51965 1.00562 0.01673 0.0
C1036 C 0.52823 1.00074 0.99045 0.0
C1037 C 0.5542 0.97942 0.98296 0.0
C1038 C 0.57068 0.96154 0.00278 0.0
C1039 C 0.56115 0.96512 0.02961 0.0
C1040 C 0.53579 0.98784 0.03669 0.0
H1041 H 0.96013 0.03109 0.06259 0.0
H1042 H 0.90317 0.0745 0.99836 0.0
H1043 H 0.93221 0.03875 0.96633 0.0
H1044 H 0.03802 0.02605 0.03125 0.0
H1045 H 0.05168 0.9881 0.04401 0.0
H1046 H 0.02169 0.01211 0.06263 0.0
H1047 H 0.97714 0.96616 0.06346 0.0
H1048 H 0.00732 0.94162 0.04532 0.0
H1049 H 0.96395 0.94781 0.03279 0.0
H1050 H 0.97429 1.00588 0.94118 0.0
H1051 H 0.02231 0.97407 0.92403 0.0
H1052 H 0.05235 0.9494 0.00455 0.0
C1053 C 0.9524 0.03153 0.04196 0.0
C1054 C 0.92837 0.05445 0.03286 0.0
C1055 C 0.92038 0.05609 0.0056 0.0
C1056 C 0.93707 0.03616 0.98734 0.0
C1057 C 0.96169 0.01462 0.99675 0.0
C1058 C 0.96893 0.01168 0.02347 0.0
C1059 C 0.99871 0.98858 0.02801 0.0
C1060 C 0.02932 1.00469 0.04232 0.0
C1061 C 0.98602 0.95929 0.0433 0.0
C1062 C 0.00803 0.98012 0.99965 0.0
C1063 C 0.98612 0.99526 0.98202 0.0
C1064 C 0.99096 0.99311 0.95479 0.0
C1065 C 0.01853 0.97467 0.94522 0.0
C1066 C 0.04121 0.95822 0.96276 0.0
C1067 C 0.03563 0.96121 0.99043 0.0
H1068 H 0.5016 0.54238 0.42406 0.0
H1069 H 0.574 0.58644 0.47859 0.0
H1070 H 0.55274 0.55109 0.51454 0.0
H1071 H 0.43109 0.53544 0.46859 0.0
H1072 H 0.41679 0.49782 0.45556 0.0
H1073 H 0.4392 0.52539 0.43441 0.0
H1074 H 0.48507 0.48225 0.4232 0.0
H1075 H 0.46274 0.45451 0.44428 0.0
H1076 H 0.50815 0.46277 0.4497 0.0
H1077 H 0.52057 0.51222 0.54469 0.0
H1078 H 0.48296 0.47232 0.56594 0.0
H1079 H 0.43128 0.45539 0.49081 0.0
C1080 C 0.51302 0.5447 0.44357 0.0
C1081 C 0.53922 0.56733 0.44869 0.0
C1082 C 0.55402 0.56912 0.47432 0.0
C1083 C 0.54196 0.54928 0.49479 0.0
C1084 C 0.51541 0.52772 0.48908 0.0
C1085 C 0.50138 0.52524 0.46398 0.0
C1086 C 0.47288 0.50063 0.46275 0.0
C1087 C 0.43793 0.51574 0.45487 0.0
C1088 C 0.48282 0.47343 0.44387 0.0
C1089 C 0.47258 0.48971 0.49121 0.0
C1090 C 0.49727 0.50553 0.50614 0.0
C1091 C 0.50125 0.49971 0.53312 0.0
C1092 C 0.47952 0.47715 0.54505 0.0
C1093 C 0.45397 0.46073 0.53005 0.0
C1094 C 0.45074 0.46717 0.50276 0.0
H1095 H 0.04722 0.56994 0.50389 0.0
H1096 H 0.0401 0.52825 0.58237 0.0
H1097 H 0.99656 0.4905 0.56605 0.0
H1098 H 0.95488 0.55981 0.48619 0.0
H1099 H 0.964 0.54977 0.45218 0.0
H1100 H 0.99279 0.57584 0.4701 0.0
H1101 H 0.04485 0.53885 0.45962 0.0
H1102 H 0.0163 0.51301 0.4414 0.0
H1103 H 0.04224 0.49738 0.46815 0.0
H1104 H 0.9563 0.45573 0.54174 0.0
H1105 H 0.92578 0.42193 0.50932 0.0
H1106 H 0.95863 0.48364 0.44564 0.0
C1107 C 0.03647 0.55292 0.51765 0.0
C1108 C 0.04687 0.55258 0.54464 0.0
C1109 C 0.03208 0.52975 0.56187 0.0
C1110 C 0.00729 0.50806 0.55275 0.0
C1111 C 0.99731 0.50932 0.52627 0.0
C1112 C 0.01154 0.5309 0.50882 0.0
C1113 C 0.99742 0.52571 0.48097 0.0
C1114 C 0.97601 0.55451 0.47182 0.0
C1115 C 0.02697 0.51828 0.46139 0.0
C1116 C 0.97415 0.49707 0.4854 0.0
C1117 C 0.97399 0.48863 0.51188 0.0
C1118 C 0.95583 0.46232 0.52103 0.0
C1119 C 0.93837 0.44341 0.50256 0.0
C1120 C 0.93928 0.45059 0.4752 0.0
C1121 C 0.95664 0.47828 0.46655 0.0
H1122 H 0.0472 0.44924 1.00058 0.0
H1123 H 0.05985 0.49784 0.07608 0.0
H1124 H 0.0219 0.54061 0.06033 0.0
H1125 H 0.04304 0.51894 0.95869 0.0
H1126 H 0.00983 0.50258 0.93751 0.0
H1127 H 0.04035 0.47663 0.95379 0.0
H1128 H 0.98936 0.44537 0.97467 0.0
H1129 H 0.95869 0.47124 0.95853 0.0
H1130 H 0.95723 0.46628 0.99397 0.0
H1131 H 0.97898 0.5764 0.03795 0.0
H1132 H 0.93639 0.6039 0.0094 0.0
H1133 H 0.95039 0.53188 0.94889 0.0
C1134 C 0.04237 0.4688 0.01393 0.0
C1135 C 0.05697 0.46967 0.03978 0.0
C1136 C 0.04971 0.49628 0.05616 0.0
C1137 C 0.02785 0.5208 0.04743 0.0
C1138 C 0.01327 0.51859 0.02225 0.0
C1139 C 0.02035 0.49336 0.00565 0.0
C1140 C 0.00014 0.49608 0.9799 0.0
C1141 C 0.02482 0.49873 0.95606 0.0
C1142 C 0.97486 0.46808 0.97659 0.0
C1143 C 0.98066 0.52685 0.98464 0.0
C1144 C 0.98852 0.53934 0.00925 0.0
C1145 C 0.97278 0.56696 0.01857 0.0
C1146 C 0.94842 0.58229 0.00231 0.0
C1147 C 0.94007 0.57008 0.97693 0.0
C1148 C 0.9566 0.54202 0.96803 0.0
H1149 H 0.54272 0.48663 0.95218 0.0
H1150 H 0.55127 0.41159 0.01026 0.0
H1151 H 0.52068 0.44483 0.04319 0.0
H1152 H 0.5525 0.55398 1.00013 0.0
H1153 H 0.52133 0.57827 0.98278 0.0
H1154 H 0.54727 0.54988 0.9648 0.0
H1155 H 0.49113 0.52461 0.94609 0.0
H1156 H 0.46494 0.55243 0.96442 0.0
H1157 H 0.45834 0.5104 0.96864 0.0
H1158 H 0.4837 0.48325 0.06811 0.0
H1159 H 0.44929 0.52805 0.08583 0.0
H1160 H 0.46421 0.57903 0.0121 0.0
C1161 C 0.5393 0.4779 0.97217 0.0
C1162 C 0.54988 0.44682 0.97901 0.0
C1163 C 0.54382 0.43555 0.00498 0.0
C1164 C 0.52625 0.45415 0.02368 0.0
C1165 C 0.51482 0.48414 0.01613 0.0
C1166 C 0.5216 0.4963 0.99119 0.0
C1167 C 0.50516 0.52888 0.98806 0.0
C1168 C 0.53323 0.55426 0.98369 0.0
C1169 C 0.4783 0.52906 0.96546 0.0
C1170 C 0.48769 0.5327 0.0149 0.0
C1171 C 0.49349 0.50653 0.03071 0.0
C1172 C 0.47921 0.50406 0.05603 0.0
C1173 C 0.4593 0.52943 0.06583 0.0
C1174 C 0.45394 0.55703 0.05041 0.0
C1175 C 0.46802 0.55833 0.02445 0.0
H1176 H 0.21156 0.0725 0.43423 0.0
H1177 H 0.17543 0.04796 0.35521 0.0
H1178 H 0.21057 0.9998 0.35585 0.0
H1179 H 0.30237 0.04401 0.42118 0.0
H1180 H 0.30842 0.02945 0.45444 0.0
H1181 H 0.27987 0.06258 0.44845 0.0
H1182 H 0.2304 0.03212 0.47209 0.0
H1183 H 0.25858 0.99845 0.47722 0.0
H1184 H 0.21784 0.9935 0.46009 0.0
H1185 H 0.24197 0.95058 0.36641 0.0
H1186 H 0.2873 0.91205 0.37893 0.0
H1187 H 0.31356 0.96989 0.44709 0.0
C1188 C 0.21193 0.05747 0.41683 0.0
C1189 C 0.18998 0.06404 0.39481 0.0
C1190 C 0.19136 0.04348 0.37252 0.0
C1191 C 0.21104 0.01568 0.37271 0.0
C1192 C 0.23042 1.00868 0.3951 0.0
C1193 C 0.23272 0.02954 0.41624 0.0
C1194 C 0.25847 0.01659 0.43661 0.0
C1195 C 0.28911 0.03953 0.44038 0.0
C1196 C 0.24022 0.00978 0.46308 0.0
C1197 C 0.27003 0.9857 0.42328 0.0
C1198 C 0.25209 0.98115 0.39996 0.0
C1199 C 0.25669 0.95403 0.38446 0.0
C1200 C 0.28215 0.93193 0.39195 0.0
C1201 C 0.30374 0.93766 0.41409 0.0
C1202 C 0.29686 0.96448 0.43041 0.0
H1203 H 0.79296 0.06338 0.13902 0.0
H1204 H 0.80103 0.08923 0.05632 0.0
H1205 H 0.76326 0.04326 0.04441 0.0
H1206 H 0.80452 0.98278 0.12861 0.0
H1207 H 0.77609 0.97058 0.15506 0.0
H1208 H 0.79828 1.00807 0.15705 0.0
H1209 H 0.73979 0.03821 0.16272 0.0
H1210 H 0.71769 1.00065 0.16225 0.0
H1211 H 0.70519 0.03136 0.1393 0.0
H1212 H 0.72427 0.99108 0.04311 0.0
H1213 H 0.68671 0.9445 0.05303 0.0
H1214 H 0.71496 0.9512 0.13573 0.0
C1215 C 0.78575 0.06014 0.11842 0.0
C1216 C 0.7991 0.08035 0.09867 0.0
C1217 C 0.79001 0.07471 0.07188 0.0
C1218 C 0.76917 0.04825 0.06496 0.0
C1219 C 0.75832 0.02754 0.08507 0.0
C1220 C 0.7663 0.03365 0.11128 0.0
C1221 C 0.75425 1.00747 0.12941 0.0
C1222 C 0.78513 0.99129 0.14335 0.0
C1223 C 0.72764 0.02018 0.14959 0.0
C1224 C 0.73759 0.9855 0.10958 0.0
C1225 C 0.73976 0.99718 0.08402 0.0
C1226 C 0.72315 0.9816 0.06301 0.0
C1227 C 0.70242 0.95472 0.06867 0.0
C1228 C 0.69903 0.94359 0.09503 0.0
C1229 C 0.71822 0.95843 0.11528 0.0
H1230 H 0.72511 0.08522 0.63343 0.0
H1231 H 0.67193 0.06921 0.55919 0.0
H1232 H 0.71008 0.02283 0.55027 0.0
H1233 H 0.81379 0.05851 0.61175 0.0
H1234 H 0.82191 0.04098 0.64372 0.0
H1235 H 0.79447 0.0755 0.64105 0.0
H1236 H 0.74561 0.04485 0.66547 0.0
H1237 H 0.77237 0.00991 0.6673 0.0
H1238 H 0.73017 1.00787 0.65189 0.0
H1239 H 0.75049 0.97252 0.55334 0.0
H1240 H 0.79272 0.92991 0.56542 0.0
H1241 H 0.81647 0.98039 0.63805 0.0
C1242 C 0.72295 0.07313 0.61455 0.0
C1243 C 0.69662 0.08168 0.59647 0.0
C1244 C 0.69301 0.06397 0.57274 0.0
C1245 C 0.71422 0.03722 0.56776 0.0
C1246 C 0.73894 0.02847 0.58675 0.0
C1247 C 0.74378 0.04652 0.6094 0.0
C1248 C 0.77 0.03137 0.62779 0.0
C1249 C 0.80194 0.05287 0.63127 0.0
C1250 C 0.75353 0.02302 0.65469 0.0
C1251 C 0.77895 1.00178 0.6123 0.0
C1252 C 0.76097 1.00013 0.58866 0.0
C1253 C 0.76493 0.97397 0.57171 0.0
C1254 C 0.78866 0.94966 0.57882 0.0
C1255 C 0.80804 0.9518 0.60263 0.0
C1256 C 0.80238 0.97803 0.61956 0.0
H1257 H 0.31241 0.06587 0.92321 0.0
H1258 H 0.28501 0.07812 0.84008 0.0
H1259 H 0.26011 0.02552 0.83897 0.0
H1260 H 0.32545 0.97917 0.92235 0.0
H1261 H 0.30236 0.97149 0.95272 0.0
H1262 H 0.32405 0.00899 0.94794 0.0
H1263 H 0.26665 0.03939 0.95669 0.0
H1264 H 0.24535 1.00206 0.96249 0.0
H1265 H 0.22829 0.02908 0.93802 0.0
H1266 H 0.24404 0.9698 0.84373 0.0
H1267 H 0.20884 0.92484 0.85876 0.0
H1268 H 0.22878 0.95122 0.94034 0.0
C1269 C 0.30094 0.05755 0.90489 0.0
C1270 C 0.3027 0.0762 0.8814 0.0
C1271 C 0.28597 0.06442 0.8582 0.0
C1272 C 0.27179 0.0341 0.85712 0.0
C1273 C 0.27251 0.01562 0.87974 0.0
C1274 C 0.28434 0.0274 0.90369 0.0
C1275 C 0.27545 1.00387 0.92571 0.0
C1276 C 0.30881 0.99008 0.93792 0.0
C1277 C 0.25255 0.01954 0.94698 0.0
C1278 C 0.25571 0.97827 0.91021 0.0
C1279 C 0.25701 0.98471 0.8835 0.0
C1280 C 0.24228 0.96459 0.86468 0.0
C1281 C 0.22282 0.93859 0.87341 0.0
C1282 C 0.21601 0.93423 0.90067 0.0
C1283 C 0.23419 0.9534 0.91938 0.0
H1284 H 0.80163 0.45133 0.36365 0.0
H1285 H 0.79185 0.42655 0.4464 0.0
H1286 H 0.74726 0.4692 0.45194 0.0
H1287 H 0.8044 0.53114 0.37494 0.0
H1288 H 0.78276 0.54207 0.3446 0.0
H1289 H 0.80701 0.50565 0.34629 0.0
H1290 H 0.7527 0.47341 0.33196 0.0
H1291 H 0.72852 0.50988 0.32936 0.0
H1292 H 0.71255 0.47818 0.34995 0.0
H1293 H 0.7056 0.52072 0.44726 0.0
H1294 H 0.67484 0.5702 0.43318 0.0
H1295 H 0.72247 0.5615 0.35565 0.0
C1296 C 0.78905 0.4539 0.38275 0.0
C1297 C 0.79947 0.43504 0.40438 0.0
C1298 C 0.78335 0.43998 0.42929 0.0
C1299 C 0.75838 0.46453 0.43263 0.0
C1300 C 0.75031 0.48407 0.41096 0.0
C1301 C 0.76538 0.47855 0.38648 0.0
C1302 C 0.7567 0.50424 0.36682 0.0
C1303 C 0.78967 0.52179 0.35764 0.0
C1304 C 0.7364 0.49061 0.34313 0.0
C1305 C 0.73413 0.52534 0.38368 0.0
C1306 C 0.72994 0.51362 0.40903 0.0
C1307 C 0.70909 0.52989 0.42743 0.0
C1308 C 0.69193 0.55819 0.41938 0.0
C1309 C 0.69633 0.57023 0.39334 0.0
C1310 C 0.71831 0.55348 0.37577 0.0
H1311 H 0.30157 0.56149 0.14528 0.0
H1312 H 0.30808 0.58795 0.06259 0.0
H1313 H 0.26932 0.54254 0.05098 0.0
H1314 H 0.30794 0.47935 0.13492 0.0
H1315 H 0.27912 0.46917 0.16173 0.0
H1316 H 0.30417 0.50519 0.16326 0.0
H1317 H 0.24807 0.53872 0.16952 0.0
H1318 H 0.2231 0.50268 0.16917 0.0
H1319 H 0.21275 0.53417 0.14633 0.0
H1320 H 0.2302 0.49101 0.04966 0.0
H1321 H 0.19086 0.44562 0.05935 0.0
H1322 H 0.21572 0.45344 0.14264 0.0
C1323 C 0.29412 0.55833 0.12473 0.0
C1324 C 0.30723 0.57858 0.10488 0.0
C1325 C 0.29747 0.57326 0.07819 0.0
C1326 C 0.276 0.54717 0.07145 0.0
C1327 C 0.26495 0.52667 0.09163 0.0
C1328 C 0.27351 0.53248 0.11778 0.0
C1329 C 0.25969 0.50718 0.13609 0.0
C1330 C 0.28951 0.48917 0.1498 0.0
C1331 C 0.23439 0.52154 0.15647 0.0
C1332 C 0.24116 0.48621 0.11645 0.0
C1333 C 0.24454 0.49735 0.09078 0.0
C1334 C 0.22787 0.48207 0.06967 0.0
C1335 C 0.20604 0.45595 0.07525 0.0
C1336 C 0.20125 0.44548 0.10165 0.0
C1337 C 0.21989 0.4603 0.1222 0.0
H1338 H 0.2921 0.46019 0.55392 0.0
H1339 H 0.2914 0.42691 0.63507 0.0
H1340 H 0.2555 0.47279 0.648 0.0
H1341 H 0.29874 0.53805 0.56439 0.0
H1342 H 0.26829 0.55265 0.54011 0.0
H1343 H 0.2892 0.51484 0.53525 0.0
H1344 H 0.22995 0.48618 0.53155 0.0
H1345 H 0.20878 0.52417 0.53462 0.0
H1346 H 0.19757 0.49234 0.55685 0.0
H1347 H 0.23671 0.52873 0.65382 0.0
H1348 H 0.20592 0.57947 0.65082 0.0
H1349 H 0.20628 0.57293 0.56507 0.0
C1350 C 0.28211 0.46132 0.57396 0.0
C1351 C 0.29423 0.43994 0.59352 0.0
C1352 C 0.28178 0.44266 0.61975 0.0
C1353 C 0.26212 0.4691 0.62739 0.0
C1354 C 0.25374 0.49155 0.60818 0.0
C1355 C 0.26097 0.48688 0.58169 0.0
C1356 C 0.24787 0.51465 0.56517 0.0
C1357 C 0.27782 0.53099 0.55036 0.0
C1358 C 0.21932 0.50369 0.54592 0.0
C1359 C 0.23335 0.53608 0.58674 0.0
C1360 C 0.2386 0.52266 0.61139 0.0
C1361 C 0.23106 0.53891 0.63461 0.0
C1362 C 0.21428 0.56821 0.63264 0.0
C1363 C 0.20337 0.58016 0.60776 0.0
C1364 C 0.21465 0.5647 0.58437 0.0
H1365 H 0.7079 0.44481 0.87343 0.0
H1366 H 0.67915 0.44616 0.95618 0.0
H1367 H 0.71556 0.49422 0.9629 0.0
H1368 H 0.79705 0.47783 0.87955 0.0
H1369 H 0.79152 0.49993 0.84929 0.0
H1370 H 0.76941 0.46269 0.8536 0.0
H1371 H 0.71119 0.49127 0.8433 0.0
H1372 H 0.73285 0.5289 0.84043 0.0
H1373 H 0.69769 0.52422 0.86367 0.0
H1374 H 0.75309 0.54637 0.95843 0.0
H1375 H 0.791 0.59113 0.94424 0.0
H1376 H 0.78605 0.55709 0.86344 0.0
C1377 C 0.71069 0.45414 0.89329 0.0
C1378 C 0.69181 0.44093 0.91451 0.0
C1379 C 0.69472 0.45499 0.93992 0.0
C1380 C 0.71479 0.48272 0.94373 0.0
C1381 C 0.73128 0.49634 0.9218 0.0
C1382 C 0.72969 0.48202 0.89715 0.0
C1383 C 0.74674 0.50212 0.87609 0.0
C1384 C 0.77804 0.48461 0.86393 0.0
C1385 C 0.72054 0.51221 0.85462 0.0
C1386 C 0.75814 0.53022 0.8925 0.0
C1387 C 0.74948 0.52668 0.9189 0.0
C1388 C 0.75954 0.54938 0.93772 0.0
C1389 C 0.78044 0.57518 0.92945 0.0
C1390 C 0.79047 0.5782 0.90257 0.0
C1391 C 0.77784 0.55602 0.88396 0.0
H1392 H 0.04993 0.19128 0.44952 0.0
H1393 H 0.12378 0.24226 0.40081 0.0
H1394 H 0.08079 0.2854 0.39475 0.0
H1395 H 0.98175 0.20319 0.40607 0.0
H1396 H 0.94794 0.20632 0.43068 0.0
H1397 H 0.98664 0.18386 0.43772 0.0
H1398 H 0.99758 0.21783 0.47966 0.0
H1399 H 0.95874 0.24042 0.47284 0.0
H1400 H 0.99979 0.2604 0.47683 0.0
H1401 H 0.02986 0.32214 0.39364 0.0
H1402 H 0.97233 0.34469 0.3879 0.0
H1403 H 0.92585 0.26286 0.42564 0.0
C1404 C 0.05741 0.21201 0.43828 0.0
C1405 C 0.09069 0.21405 0.42636 0.0
C1406 C 0.09899 0.24091 0.41091 0.0
C1407 C 0.07466 0.26539 0.40732 0.0
C1408 C 0.04171 0.26214 0.41859 0.0
C1409 C 0.03271 0.2358 0.43325 0.0
C1410 C 0.99381 0.23546 0.43895 0.0
C1411 C 0.97653 0.20543 0.42766 0.0
C1412 C 0.98708 0.23871 0.46885 0.0
C1413 C 0.98218 0.26513 0.42428 0.0
C1414 C 0.01066 0.28083 0.41402 0.0
C1415 C 0.0073 0.30957 0.40094 0.0
C1416 C 0.97399 0.32202 0.39722 0.0
C1417 C 0.94388 0.30509 0.40493 0.0
C1418 C 0.94821 0.2764 0.41924 0.0
H1419 H 0.43913 0.78939 0.45453 0.0
H1420 H 0.40405 0.7925 0.37289 0.0
H1421 H 0.45998 0.77095 0.35818 0.0
H1422 H 0.52923 0.79755 0.44876 0.0
H1423 H 0.54242 0.7647 0.4693 0.0
H1424 H 0.50123 0.78399 0.47502 0.0
H1425 H 0.46857 0.73067 0.46974 0.0
H1426 H 0.50981 0.71109 0.46532 0.0
H1427 H 0.47618 0.70671 0.44069 0.0
H1428 H 0.52431 0.76523 0.35275 0.0
H1429 H 0.57787 0.73383 0.35216 0.0
H1430 H 0.56284 0.70972 0.435 0.0
C1431 C 0.44269 0.78454 0.43364 0.0
C1432 C 0.41857 0.7958 0.41441 0.0
C1433 C 0.42338 0.78687 0.38765 0.0
C1434 C 0.45517 0.77482 0.37907 0.0
C1435 C 0.48031 0.76822 0.39799 0.0
C1436 C 0.47313 0.76913 0.42472 0.0
C1437 C 0.50229 0.7529 0.44021 0.0
C1438 C 0.51981 0.77618 0.45947 0.0
C1439 C 0.48839 0.72359 0.45484 0.0
C1440 C 0.52695 0.74374 0.41772 0.0
C1441 C 0.51451 0.75551 0.39404 0.0
C1442 C 0.53363 0.75427 0.3708 0.0
C1443 C 0.56439 0.73688 0.37086 0.0
C1444 C 0.5737 0.71835 0.39315 0.0
C1445 C 0.55625 0.72346 0.41759 0.0
H1446 H 0.57603 0.76667 0.12379 0.0
H1447 H 0.56203 0.83602 0.06139 0.0
H1448 H 0.50553 0.81162 0.04983 0.0
H1449 H 0.53456 0.69981 0.0849 0.0
H1450 H 0.51787 0.68284 0.11508 0.0
H1451 H 0.55862 0.70387 0.11537 0.0
H1452 H 0.53477 0.74023 0.15266 0.0
H1453 H 0.49365 0.72015 0.15189 0.0
H1454 H 0.49537 0.76249 0.14705 0.0
H1455 H 0.44461 0.78448 0.05165 0.0
H1456 H 0.39257 0.75111 0.06041 0.0
H1457 H 0.45206 0.69812 0.11842 0.0
C1458 C 0.56175 0.77633 0.10715 0.0
C1459 C 0.57228 0.80472 0.09477 0.0
C1460 C 0.55325 0.8157 0.0725 0.0
C1461 C 0.52131 0.80169 0.06554 0.0
C1462 C 0.50992 0.77559 0.0801 0.0
C1463 C 0.53053 0.76219 0.0996 0.0
C1464 C 0.51275 0.73454 0.11276 0.0
C1465 C 0.53209 0.70342 0.10665 0.0
C1466 C 0.50892 0.73971 0.14285 0.0
C1467 C 0.47804 0.73575 0.09893 0.0
C1468 C 0.47658 0.75927 0.07999 0.0
C1469 C 0.44585 0.76554 0.06607 0.0
C1470 C 0.41629 0.74673 0.07137 0.0
C1471 C 0.41783 0.72212 0.09045 0.0
C1472 C 0.44931 0.71693 0.10417 0.0
H1473 H 0.96405 0.19422 0.06341 0.0
H1474 H 0.89672 0.25172 0.11225 0.0
H1475 H 0.93323 0.29868 0.10255 0.0
H1476 H 0.03071 0.21625 0.0969 0.0
H1477 H 0.06296 0.21429 0.07105 0.0
H1478 H 0.02469 0.19035 0.0688 0.0
H1479 H 0.00915 0.21469 0.02315 0.0
H1480 H 0.04827 0.23818 0.02469 0.0
H1481 H 0.00682 0.25719 0.01954 0.0
H1482 H 0.98404 0.33811 0.09075 0.0
H1483 H 0.04366 0.35969 0.08947 0.0
H1484 H 0.08352 0.26768 0.06726 0.0
C1485 C 0.95541 0.21714 0.07044 0.0
C1486 C 0.92681 0.21952 0.0878 0.0
C1487 C 0.91757 0.24964 0.09793 0.0
C1488 C 0.93861 0.27635 0.09277 0.0
C1489 C 0.96921 0.27217 0.0781 0.0
C1490 C 0.97772 0.24287 0.0675 0.0
C1491 C 0.01588 0.24092 0.06024 0.0
C1492 C 0.03461 0.21389 0.07515 0.0
C1493 C 0.02028 0.23755 0.03011 0.0
C1494 C 0.02807 0.273 0.06954 0.0
C1495 C 0.00059 0.29155 0.07796 0.0
C1496 C 0.00576 0.32299 0.08556 0.0
C1497 C 0.03999 0.33479 0.08595 0.0
C1498 C 0.06885 0.31433 0.08213 0.0
C1499 C 0.06236 0.28357 0.07217 0.0
H1500 H 0.90965 0.76691 0.56156 0.0
H1501 H 0.95403 0.8513 0.59628 0.0
H1502 H 0.01188 0.82607 0.59664 0.0
H1503 H 0.95678 0.70858 0.58788 0.0
H1504 H 0.96326 0.68621 0.55782 0.0
H1505 H 0.92618 0.71175 0.56092 0.0
H1506 H 0.94428 0.74165 0.51813 0.0
H1507 H 0.98158 0.71599 0.51485 0.0
H1508 H 0.98723 0.75842 0.51574 0.0
H1509 H 0.06173 0.78312 0.60236 0.0
H1510 H 0.09891 0.73476 0.60269 0.0
H1511 H 0.02545 0.6886 0.55011 0.0
C1512 C 0.93141 0.78041 0.56914 0.0
C1513 C 0.9263 0.80965 0.58224 0.0
C1514 C 0.95616 0.8272 0.58976 0.0
C1515 C 0.98954 0.81339 0.58904 0.0
C1516 C 0.99308 0.78323 0.57803 0.0
C1517 C 0.96498 0.76809 0.56659 0.0
C1518 C 0.97538 0.73694 0.55427 0.0
C1519 C 0.95417 0.70927 0.56594 0.0
C1520 C 0.97192 0.73834 0.52395 0.0
C1521 C 0.01308 0.7355 0.56254 0.0
C1522 C 0.02314 0.76213 0.57651 0.0
C1523 C 0.05477 0.76283 0.59033 0.0
C1524 C 0.0759 0.73534 0.59032 0.0
C1525 C 0.06544 0.70792 0.57619 0.0
C1526 C 0.03467 0.70915 0.56091 0.0
H1527 H 0.41765 0.27002 0.56642 0.0
H1528 H 0.45978 0.36147 0.58823 0.0
H1529 H 0.51909 0.33908 0.58749 0.0
H1530 H 0.46721 0.22105 0.59902 0.0
H1531 H 0.47358 0.19183 0.57335 0.0
H1532 H 0.43611 0.21696 0.57247 0.0
H1533 H 0.45311 0.23551 0.52519 0.0
H1534 H 0.4912 0.21052 0.52616 0.0
H1535 H 0.49548 0.25233 0.51945 0.0
H1536 H 0.56918 0.30158 0.59799 0.0
H1537 H 0.60457 0.25551 0.61199 0.0
H1538 H 0.53458 0.19299 0.57023 0.0
C1539 C 0.43937 0.2856 0.5704 0.0
C1540 C 0.43392 0.31674 0.57978 0.0
C1541 C 0.46311 0.33671 0.58354 0.0
C1542 C 0.49703 0.32442 0.58231 0.0
C1543 C 0.50141 0.29281 0.57489 0.0
C1544 C 0.47338 0.27425 0.56757 0.0
C1545 C 0.48465 0.24083 0.56102 0.0
C1546 C 0.46422 0.21627 0.57747 0.0
C1547 C 0.48089 0.23442 0.53118 0.0
C1548 C 0.5226 0.24238 0.56894 0.0
C1549 C 0.5321 0.27269 0.57662 0.0
C1550 C 0.56294 0.27815 0.59063 0.0
C1551 C 0.58324 0.25189 0.59829 0.0
C1552 C 0.57289 0.22081 0.59146 0.0
C1553 C 0.54386 0.21651 0.57481 0.0
H1554 H 0.43129 0.21851 0.94405 0.0
H1555 H 0.41223 0.24417 0.86211 0.0
H1556 H 0.46843 0.27146 0.86051 0.0
H1557 H 0.47072 0.30521 0.95531 0.0
H1558 H 0.49839 0.29061 0.98145 0.0
H1559 H 0.45576 0.27381 0.97666 0.0
H1560 H 0.48422 0.21828 0.9734 0.0
H1561 H 0.52708 0.23501 0.97658 0.0
H1562 H 0.51645 0.21087 0.94821 0.0
H1563 H 0.53508 0.27097 0.8642 0.0
H1564 H 0.5929 0.29003 0.87755 0.0
H1565 H 0.55967 0.29256 0.95956 0.0
C1566 C 0.43743 0.23209 0.92648 0.0
C1567 C 0.41826 0.22777 0.90269 0.0
C1568 C 0.42698 0.24651 0.88034 0.0
C1569 C 0.45937 0.26128 0.87893 0.0
C1570 C 0.48018 0.261 0.9014 0.0
C1571 C 0.46798 0.25067 0.92558 0.0
C1572 C 0.49422 0.25877 0.94729 0.0
C1573 C 0.47887 0.28359 0.96631 0.0
C1574 C 0.50617 0.22893 0.96225 0.0
C1575 C 0.52379 0.2727 0.93088 0.0
C1576 C 0.51562 0.27133 0.90432 0.0
C1577 C 0.54076 0.27536 0.88489 0.0
C1578 C 0.57364 0.28588 0.89271 0.0
C1579 C 0.57948 0.29616 0.91902 0.0
C1580 C 0.55534 0.28687 0.9389 0.0
H1581 H 0.94917 0.71132 0.95326 0.0
H1582 H 0.91971 0.71376 0.87034 0.0
H1583 H 0.96578 0.75277 0.86168 0.0
H1584 H 0.96763 0.79971 0.95551 0.0
H1585 H 0.00169 0.79414 0.97961 0.0
H1586 H 0.96479 0.76785 0.9792 0.0
H1587 H 0.00672 0.71996 0.97531 0.0
H1588 H 0.0437 0.74604 0.97476 0.0
H1589 H 0.03701 0.71823 0.94809 0.0
H1590 H 0.02282 0.78258 0.86083 0.0
H1591 H 0.0739 0.81585 0.8694 0.0
H1592 H 0.06084 0.8018 0.95406 0.0
C1593 C 0.95153 0.72094 0.93345 0.0
C1594 C 0.93136 0.70861 0.91233 0.0
C1595 C 0.93509 0.72209 0.88679 0.0
C1596 C 0.96146 0.74424 0.88162 0.0
C1597 C 0.98261 0.754 0.90253 0.0
C1598 C 0.97669 0.74413 0.92819 0.0
C1599 C 0.00219 0.75946 0.94726 0.0
C1600 C 0.98294 0.78162 0.96654 0.0
C1601 C 0.02366 0.73441 0.96223 0.0
C1602 C 0.02463 0.77808 0.9281 0.0
C1603 C 0.01316 0.77414 0.90236 0.0
C1604 C 0.03126 0.78677 0.88099 0.0
C1605 C 0.06064 0.80544 0.88613 0.0
C1606 C 0.07117 0.81239 0.91249 0.0
C1607 C 0.05335 0.79756 0.93368 0.0
loop_
_geom_bond_atom_site_label_1
_geom_bond_atom_site_label_2
_geom_bond_distance
_geom_bond_site_symmetry_2
_ccdc_geom_bond_type
C0 C1 1.351 . S
C0 N3 1.368 . S
C0 H5 0.931 . S
C1 C0 1.351 . S
C1 N2 1.373 . S
C1 H29 0.930 . S
N2 C1 1.373 . S
N2 C4 1.340 . S
N3 C0 1.368 . S
N3 C4 1.321 . S
N3 Co6 2.135 . S
C4 N2 1.340 . S
C4 N3 1.321 . S
C4 H28 0.930 . S
H5 C0 0.931 . S
Co6 N3 2.135 . S
Co6 N9 2.121 . S
Co6 O14 2.055 . S
Co6 O17 2.039 . S
Co6 N20 2.140 . S
C7 O8 1.227 . S
C7 O17 1.265 . S
O8 C7 1.227 . S
N9 Co6 2.121 . S
N9 C11 1.375 . S
N9 C12 1.313 . S
C10 C11 1.338 . S
C10 N13 1.377 . S
C10 H30 0.930 . S
C11 N9 1.375 . S
C11 C10 1.338 . S
C11 H15 0.931 . S
C12 N9 1.313 . S
C12 N13 1.344 . S
C12 H16 0.930 . S
N13 C10 1.377 . S
N13 C12 1.344 . S
O14 Co6 2.055 . S
O14 C18 1.253 . S
H15 C11 0.931 . S
H16 C12 0.930 . S
O17 Co6 2.039 . S
O17 C7 1.265 . S
C18 O14 1.253 . S
C18 O19 1.227 . S
O19 C18 1.227 . S
N20 Co6 2.140 . S
N20 C23 1.346 . S
N20 C24 1.345 . S
C21 C22 1.387 . S
C21 C25 1.391 . S
C22 C21 1.387 . S
C22 C23 1.369 . S
C22 H31 0.929 . S
C23 N20 1.346 . S
C23 C22 1.369 . S
C23 H26 0.928 . S
C24 N20 1.345 . S
C24 C25 1.371 . S
C24 H27 0.931 . S
C25 C21 1.391 . S
C25 C24 1.371 . S
C25 H32 0.930 . S
H26 C23 0.928 . S
H27 C24 0.931 . S
H28 C4 0.930 . S
H29 C1 0.930 . S
H30 C10 0.930 . S
H31 C22 0.929 . S
H32 C25 0.930 . S
C33 C34 1.351 . S
C33 N36 1.368 . S
C33 H38 0.931 . S
C34 C33 1.351 . S
C34 N35 1.373 . S
C34 H62 0.930 . S
N35 C34 1.373 . S
N35 C37 1.340 . S
N36 C33 1.368 . S
N36 C37 1.321 . S
N36 Co39 2.135 . S
C37 N35 1.340 . S
C37 N36 1.321 . S
C37 H61 0.930 . S
H38 C33 0.931 . S
Co39 N36 2.135 . S
Co39 N42 2.121 . S
Co39 O47 2.055 . S
Co39 O50 2.039 . S
Co39 N53 2.140 . S
C40 O41 1.227 . S
C40 O50 1.265 . S
O41 C40 1.227 . S
N42 Co39 2.121 . S
N42 C44 1.375 . S
N42 C45 1.313 . S
C43 C44 1.338 . S
C43 N46 1.377 . S
C43 H63 0.930 . S
C44 N42 1.375 . S
C44 C43 1.338 . S
C44 H48 0.931 . S
C45 N42 1.313 . S
C45 N46 1.344 . S
C45 H49 0.930 . S
N46 C43 1.377 . S
N46 C45 1.344 . S
O47 Co39 2.055 . S
O47 C51 1.253 . S
H48 C44 0.931 . S
H49 C45 0.930 . S
O50 Co39 2.039 . S
O50 C40 1.265 . S
C51 O47 1.253 . S
C51 O52 1.227 . S
O52 C51 1.227 . S
N53 Co39 2.140 . S
N53 C56 1.346 . S
N53 C57 1.345 . S
C54 C55 1.387 . S
C54 C58 1.391 . S
C55 C54 1.387 . S
C55 C56 1.369 . S
C55 H64 0.929 . S
C56 N53 1.346 . S
C56 C55 1.369 . S
C56 H59 0.928 . S
C57 N53 1.345 . S
C57 C58 1.371 . S
C57 H60 0.931 . S
C58 C54 1.391 . S
C58 C57 1.371 . S
C58 H65 0.930 . S
H59 C56 0.928 . S
H60 C57 0.931 . S
H61 C37 0.930 . S
H62 C34 0.930 . S
H63 C43 0.930 . S
H64 C55 0.929 . S
H65 C58 0.930 . S
C66 C67 1.351 . S
C66 N69 1.368 . S
C66 H71 0.931 . S
C67 C66 1.351 . S
C67 N68 1.373 . S
C67 H95 0.930 . S
N68 C67 1.373 . S
N68 C70 1.340 . S
N69 C66 1.368 . S
N69 C70 1.321 . S
N69 Co72 2.135 . S
C70 N68 1.340 . S
C70 N69 1.321 . S
C70 H94 0.930 . S
H71 C66 0.931 . S
Co72 N69 2.135 . S
Co72 N75 2.121 . S
Co72 O80 2.055 . S
Co72 O83 2.039 . S
Co72 N86 2.140 . S
C73 O74 1.227 . S
C73 O83 1.265 . S
O74 C73 1.227 . S
N75 Co72 2.121 . S
N75 C77 1.375 . S
N75 C78 1.313 . S
C76 C77 1.338 . S
C76 N79 1.377 . S
C76 H96 0.930 . S
C77 N75 1.375 . S
C77 C76 1.338 . S
C77 H81 0.931 . S
C78 N75 1.313 . S
C78 N79 1.344 . S
C78 H82 0.930 . S
N79 C76 1.377 . S
N79 C78 1.344 . S
O80 Co72 2.055 . S
O80 C84 1.253 . S
H81 C77 0.931 . S
H82 C78 0.930 . S
O83 Co72 2.039 . S
O83 C73 1.265 . S
C84 O80 1.253 . S
C84 O85 1.227 . S
O85 C84 1.227 . S
N86 Co72 2.140 . S
N86 C89 1.346 . S
N86 C90 1.345 . S
C87 C88 1.387 . S
C87 C91 1.391 . S
C88 C87 1.387 . S
C88 C89 1.369 . S
C88 H97 0.929 . S
C89 N86 1.346 . S
C89 C88 1.369 . S
C89 H92 0.928 . S
C90 N86 1.345 . S
C90 C91 1.371 . S
C90 H93 0.931 . S
C91 C87 1.391 . S
C91 C90 1.371 . S
C91 H98 0.930 . S
H92 C89 0.928 . S
H93 C90 0.931 . S
H94 C70 0.930 . S
H95 C67 0.930 . S
H96 C76 0.930 . S
H97 C88 0.929 . S
H98 C91 0.930 . S
C99 C100 1.351 . S
C99 N102 1.368 . S
C99 H104 0.931 . S
C100 C99 1.351 . S
C100 N101 1.373 . S
C100 H128 0.930 . S
N101 C100 1.373 . S
N101 C103 1.340 . S
N102 C99 1.368 . S
N102 C103 1.321 . S
N102 Co105 2.135 . S
C103 N101 1.340 . S
C103 N102 1.321 . S
C103 H127 0.930 . S
H104 C99 0.931 . S
Co105 N102 2.135 . S
Co105 N108 2.121 . S
Co105 O113 2.055 . S
Co105 O116 2.039 . S
Co105 N119 2.140 . S
C106 O107 1.227 . S
C106 O116 1.265 . S
O107 C106 1.227 . S
N108 Co105 2.121 . S
N108 C110 1.375 . S
N108 C111 1.313 . S
C109 C110 1.338 . S
C109 N112 1.377 . S
C109 H129 0.930 . S
C110 N108 1.375 . S
C110 C109 1.338 . S
C110 H114 0.931 . S
C111 N108 1.313 . S
C111 N112 1.344 . S
C111 H115 0.930 . S
N112 C109 1.377 . S
N112 C111 1.344 . S
O113 Co105 2.055 . S
O113 C117 1.253 . S
H114 C110 0.931 . S
H115 C111 0.930 . S
O116 Co105 2.039 . S
O116 C106 1.265 . S
C117 O113 1.253 . S
C117 O118 1.227 . S
O118 C117 1.227 . S
N119 Co105 2.140 . S
N119 C122 1.346 . S
N119 C123 1.345 . S
C120 C121 1.387 . S
C120 C124 1.391 . S
C121 C120 1.387 . S
C121 C122 1.369 . S
C121 H130 0.929 . S
C122 N119 1.346 . S
C122 C121 1.369 . S
C122 H125 0.928 . S
C123 N119 1.345 . S
C123 C124 1.371 . S
C123 H126 0.931 . S
C124 C120 1.391 . S
C124 C123 1.371 . S
C124 H131 0.930 . S
H125 C122 0.928 . S
H126 C123 0.931 . S
H127 C103 0.930 . S
H128 C100 0.930 . S
H129 C109 0.930 . S
H130 C121 0.929 . S
H131 C124 0.930 . S
C132 C133 1.351 . S
C132 N135 1.368 . S
C132 H137 0.931 . S
C133 C132 1.351 . S
C133 N134 1.373 . S
C133 H161 0.930 . S
N134 C133 1.373 . S
N134 C136 1.340 . S
N135 C132 1.368 . S
N135 C136 1.321 . S
N135 Co138 2.135 . S
C136 N134 1.340 . S
C136 N135 1.321 . S
C136 H160 0.930 . S
H137 C132 0.931 . S
Co138 N135 2.135 . S
Co138 N141 2.121 . S
Co138 O146 2.055 . S
Co138 O149 2.039 . S
Co138 N152 2.140 . S
C139 O140 1.227 . S
C139 O149 1.265 . S
O140 C139 1.227 . S
N141 Co138 2.121 . S
N141 C143 1.375 . S
N141 C144 1.313 . S
C142 C143 1.338 . S
C142 N145 1.377 . S
C142 H162 0.930 . S
C143 N141 1.375 . S
C143 C142 1.338 . S
C143 H147 0.931 . S
C144 N141 1.313 . S
C144 N145 1.344 . S
C144 H148 0.930 . S
N145 C142 1.377 . S
N145 C144 1.344 . S
O146 Co138 2.055 . S
O146 C150 1.253 . S
H147 C143 0.931 . S
H148 C144 0.930 . S
O149 Co138 2.039 . S
O149 C139 1.265 . S
C150 O146 1.253 . S
C150 O151 1.227 . S
O151 C150 1.227 . S
N152 Co138 2.140 . S
N152 C155 1.346 . S
N152 C156 1.345 . S
C153 C154 1.387 . S
C153 C157 1.391 . S
C154 C153 1.387 . S
C154 C155 1.369 . S
C154 H163 0.929 . S
C155 N152 1.346 . S
C155 C154 1.369 . S
C155 H158 0.928 . S
C156 N152 1.345 . S
C156 C157 1.371 . S
C156 H159 0.931 . S
C157 C153 1.391 . S
C157 C156 1.371 . S
C157 H164 0.930 . S
H158 C155 0.928 . S
H159 C156 0.931 . S
H160 C136 0.930 . S
H161 C133 0.930 . S
H162 C142 0.930 . S
H163 C154 0.929 . S
H164 C157 0.930 . S
C165 C166 1.351 . S
C165 N168 1.368 . S
C165 H170 0.931 . S
C166 C165 1.351 . S
C166 N167 1.373 . S
C166 H194 0.930 . S
N167 C166 1.373 . S
N167 C169 1.340 . S
N168 C165 1.368 . S
N168 C169 1.321 . S
N168 Co171 2.135 . S
C169 N167 1.340 . S
C169 N168 1.321 . S
C169 H193 0.930 . S
H170 C165 0.931 . S
Co171 N168 2.135 . S
Co171 N174 2.121 . S
Co171 O179 2.055 . S
Co171 O182 2.039 . S
Co171 N185 2.140 . S
C172 O173 1.227 . S
C172 O182 1.265 . S
O173 C172 1.227 . S
N174 Co171 2.121 . S
N174 C176 1.375 . S
N174 C177 1.313 . S
C175 C176 1.338 . S
C175 N178 1.377 . S
C175 H195 0.930 . S
C176 N174 1.375 . S
C176 C175 1.338 . S
C176 H180 0.931 . S
C177 N174 1.313 . S
C177 N178 1.344 . S
C177 H181 0.930 . S
N178 C175 1.377 . S
N178 C177 1.344 . S
O179 Co171 2.055 . S
O179 C183 1.253 . S
H180 C176 0.931 . S
H181 C177 0.930 . S
O182 Co171 2.039 . S
O182 C172 1.265 . S
C183 O179 1.253 . S
C183 O184 1.227 . S
O184 C183 1.227 . S
N185 Co171 2.140 . S
N185 C188 1.346 . S
N185 C189 1.345 . S
C186 C187 1.387 . S
C186 C190 1.391 . S
C187 C186 1.387 . S
C187 C188 1.369 . S
C187 H196 0.929 . S
C188 N185 1.346 . S
C188 C187 1.369 . S
C188 H191 0.928 . S
C189 N185 1.345 . S
C189 C190 1.371 . S
C189 H192 0.931 . S
C190 C186 1.391 . S
C190 C189 1.371 . S
C190 H197 0.930 . S
H191 C188 0.928 . S
H192 C189 0.931 . S
H193 C169 0.930 . S
H194 C166 0.930 . S
H195 C175 0.930 . S
H196 C187 0.929 . S
H197 C190 0.930 . S
C198 C199 1.351 . S
C198 N201 1.368 . S
C198 H203 0.931 . S
C199 C198 1.351 . S
C199 N200 1.373 . S
C199 H227 0.930 . S
N200 C199 1.373 . S
N200 C202 1.340 . S
N201 C198 1.368 . S
N201 C202 1.321 . S
N201 Co204 2.135 . S
C202 N200 1.340 . S
C202 N201 1.321 . S
C202 H226 0.930 . S
H203 C198 0.931 . S
Co204 N201 2.135 . S
Co204 N207 2.121 . S
Co204 O212 2.055 . S
Co204 O215 2.039 . S
Co204 N218 2.140 . S
C205 O206 1.227 . S
C205 O215 1.265 . S
O206 C205 1.227 . S
N207 Co204 2.121 . S
N207 C209 1.375 . S
N207 C210 1.313 . S
C208 C209 1.338 . S
C208 N211 1.377 . S
C208 H228 0.930 . S
C209 N207 1.375 . S
C209 C208 1.338 . S
C209 H213 0.931 . S
C210 N207 1.313 . S
C210 N211 1.344 . S
C210 H214 0.930 . S
N211 C208 1.377 . S
N211 C210 1.344 . S
O212 Co204 2.055 . S
O212 C216 1.253 . S
H213 C209 0.931 . S
H214 C210 0.930 . S
O215 Co204 2.039 . S
O215 C205 1.265 . S
C216 O212 1.253 . S
C216 O217 1.227 . S
O217 C216 1.227 . S
N218 Co204 2.140 . S
N218 C221 1.346 . S
N218 C222 1.345 . S
C219 C220 1.387 . S
C219 C223 1.391 . S
C220 C219 1.387 . S
C220 C221 1.369 . S
C220 H229 0.929 . S
C221 N218 1.346 . S
C221 C220 1.369 . S
C221 H224 0.928 . S
C222 N218 1.345 . S
C222 C223 1.371 . S
C222 H225 0.931 . S
C223 C219 1.391 . S
C223 C222 1.371 . S
C223 H230 0.930 . S
H224 C221 0.928 . S
H225 C222 0.931 . S
H226 C202 0.930 . S
H227 C199 0.930 . S
H228 C208 0.930 . S
H229 C220 0.929 . S
H230 C223 0.930 . S
C231 C232 1.351 . S
C231 N234 1.368 . S
C231 H236 0.931 . S
C232 C231 1.351 . S
C232 N233 1.373 . S
C232 H260 0.930 . S
N233 C232 1.373 . S
N233 C235 1.340 . S
N234 C231 1.368 . S
N234 C235 1.321 . S
N234 Co237 2.135 . S
C235 N233 1.340 . S
C235 N234 1.321 . S
C235 H259 0.930 . S
H236 C231 0.931 . S
Co237 N234 2.135 . S
Co237 N240 2.121 . S
Co237 O245 2.055 . S
Co237 O248 2.039 . S
Co237 N251 2.140 . S
C238 O239 1.227 . S
C238 O248 1.265 . S
O239 C238 1.227 . S
N240 Co237 2.121 . S
N240 C242 1.375 . S
N240 C243 1.313 . S
C241 C242 1.338 . S
C241 N244 1.377 . S
C241 H261 0.930 . S
C242 N240 1.375 . S
C242 C241 1.338 . S
C242 H246 0.931 . S
C243 N240 1.313 . S
C243 N244 1.344 . S
C243 H247 0.930 . S
N244 C241 1.377 . S
N244 C243 1.344 . S
O245 Co237 2.055 . S
O245 C249 1.253 . S
H246 C242 0.931 . S
H247 C243 0.930 . S
O248 Co237 2.039 . S
O248 C238 1.265 . S
C249 O245 1.253 . S
C249 O250 1.227 . S
O250 C249 1.227 . S
N251 Co237 2.140 . S
N251 C254 1.346 . S
N251 C255 1.345 . S
C252 C253 1.387 . S
C252 C256 1.391 . S
C253 C252 1.387 . S
C253 C254 1.369 . S
C253 H262 0.929 . S
C254 N251 1.346 . S
C254 C253 1.369 . S
C254 H257 0.928 . S
C255 N251 1.345 . S
C255 C256 1.371 . S
C255 H258 0.931 . S
C256 C252 1.391 . S
C256 C255 1.371 . S
C256 H263 0.930 . S
H257 C254 0.928 . S
H258 C255 0.931 . S
H259 C235 0.930 . S
H260 C232 0.930 . S
H261 C241 0.930 . S
H262 C253 0.929 . S
H263 C256 0.930 . S
C264 C265 1.351 . S
C264 N267 1.368 . S
C264 H269 0.931 . S
C265 C264 1.351 . S
C265 N266 1.373 . S
C265 H293 0.930 . S
N266 C265 1.373 . S
N266 C268 1.340 . S
N267 C264 1.368 . S
N267 C268 1.321 . S
N267 Co270 2.135 . S
C268 N266 1.340 . S
C268 N267 1.321 . S
C268 H292 0.930 . S
H269 C264 0.931 . S
Co270 N267 2.135 . S
Co270 N273 2.121 . S
Co270 O278 2.055 . S
Co270 O281 2.039 . S
Co270 N284 2.140 . S
C271 O272 1.227 . S
C271 O281 1.265 . S
O272 C271 1.227 . S
N273 Co270 2.121 . S
N273 C275 1.375 . S
N273 C276 1.313 . S
C274 C275 1.338 . S
C274 N277 1.377 . S
C274 H294 0.930 . S
C275 N273 1.375 . S
C275 C274 1.338 . S
C275 H279 0.931 . S
C276 N273 1.313 . S
C276 N277 1.344 . S
C276 H280 0.930 . S
N277 C274 1.377 . S
N277 C276 1.344 . S
O278 Co270 2.055 . S
O278 C282 1.253 . S
H279 C275 0.931 . S
H280 C276 0.930 . S
O281 Co270 2.039 . S
O281 C271 1.265 . S
C282 O278 1.253 . S
C282 O283 1.227 . S
O283 C282 1.227 . S
N284 Co270 2.140 . S
N284 C287 1.346 . S
N284 C288 1.345 . S
C285 C286 1.387 . S
C285 C289 1.391 . S
C286 C285 1.387 . S
C286 C287 1.369 . S
C286 H295 0.929 . S
C287 N284 1.346 . S
C287 C286 1.369 . S
C287 H290 0.928 . S
C288 N284 1.345 . S
C288 C289 1.371 . S
C288 H291 0.931 . S
C289 C285 1.391 . S
C289 C288 1.371 . S
C289 H296 0.930 . S
H290 C287 0.928 . S
H291 C288 0.931 . S
H292 C268 0.930 . S
H293 C265 0.930 . S
H294 C274 0.930 . S
H295 C286 0.929 . S
H296 C289 0.930 . S
C297 C298 1.351 . S
C297 N300 1.368 . S
C297 H302 0.931 . S
C298 C297 1.351 . S
C298 N299 1.373 . S
C298 H326 0.930 . S
N299 C298 1.373 . S
N299 C301 1.340 . S
N300 C297 1.368 . S
N300 C301 1.321 . S
N300 Co303 2.135 . S
C301 N299 1.340 . S
C301 N300 1.321 . S
C301 H325 0.930 . S
H302 C297 0.931 . S
Co303 N300 2.135 . S
Co303 N306 2.121 . S
Co303 O311 2.055 . S
Co303 O314 2.039 . S
Co303 N317 2.140 . S
C304 O305 1.227 . S
C304 O314 1.265 . S
O305 C304 1.227 . S
N306 Co303 2.121 . S
N306 C308 1.375 . S
N306 C309 1.313 . S
C307 C308 1.338 . S
C307 N310 1.377 . S
C307 H327 0.930 . S
C308 N306 1.375 . S
C308 C307 1.338 . S
C308 H312 0.931 . S
C309 N306 1.313 . S
C309 N310 1.344 . S
C309 H313 0.930 . S
N310 C307 1.377 . S
N310 C309 1.344 . S
O311 Co303 2.055 . S
O311 C315 1.253 . S
H312 C308 0.931 . S
H313 C309 0.930 . S
O314 Co303 2.039 . S
O314 C304 1.265 . S
C315 O311 1.253 . S
C315 O316 1.227 . S
O316 C315 1.227 . S
N317 Co303 2.140 . S
N317 C320 1.346 . S
N317 C321 1.345 . S
C318 C319 1.387 . S
C318 C322 1.391 . S
C319 C318 1.387 . S
C319 C320 1.369 . S
C319 H328 0.929 . S
C320 N317 1.346 . S
C320 C319 1.369 . S
C320 H323 0.928 . S
C321 N317 1.345 . S
C321 C322 1.371 . S
C321 H324 0.931 . S
C322 C318 1.391 . S
C322 C321 1.371 . S
C322 H329 0.930 . S
H323 C320 0.928 . S
H324 C321 0.931 . S
H325 C301 0.930 . S
H326 C298 0.930 . S
H327 C307 0.930 . S
H328 C319 0.929 . S
H329 C322 0.930 . S
C330 C331 1.351 . S
C330 N333 1.368 . S
C330 H335 0.931 . S
C331 C330 1.351 . S
C331 N332 1.373 . S
C331 H359 0.930 . S
N332 C331 1.373 . S
N332 C334 1.340 . S
N333 C330 1.368 . S
N333 C334 1.321 . S
N333 Co336 2.135 . S
C334 N332 1.340 . S
C334 N333 1.321 . S
C334 H358 0.930 . S
H335 C330 0.931 . S
Co336 N333 2.135 . S
Co336 N339 2.121 . S
Co336 O344 2.055 . S
Co336 O347 2.039 . S
Co336 N350 2.140 . S
C337 O338 1.227 . S
C337 O347 1.265 . S
O338 C337 1.227 . S
N339 Co336 2.121 . S
N339 C341 1.375 . S
N339 C342 1.313 . S
C340 C341 1.338 . S
C340 N343 1.377 . S
C340 H360 0.930 . S
C341 N339 1.375 . S
C341 C340 1.338 . S
C341 H345 0.931 . S
C342 N339 1.313 . S
C342 N343 1.344 . S
C342 H346 0.930 . S
N343 C340 1.377 . S
N343 C342 1.344 . S
O344 Co336 2.055 . S
O344 C348 1.253 . S
H345 C341 0.931 . S
H346 C342 0.930 . S
O347 Co336 2.039 . S
O347 C337 1.265 . S
C348 O344 1.253 . S
C348 O349 1.227 . S
O349 C348 1.227 . S
N350 Co336 2.140 . S
N350 C353 1.346 . S
N350 C354 1.345 . S
C351 C352 1.387 . S
C351 C355 1.391 . S
C352 C351 1.387 . S
C352 C353 1.369 . S
C352 H361 0.929 . S
C353 N350 1.346 . S
C353 C352 1.369 . S
C353 H356 0.928 . S
C354 N350 1.345 . S
C354 C355 1.371 . S
C354 H357 0.931 . S
C355 C351 1.391 . S
C355 C354 1.371 . S
C355 H362 0.930 . S
H356 C353 0.928 . S
H357 C354 0.931 . S
H358 C334 0.930 . S
H359 C331 0.930 . S
H360 C340 0.930 . S
H361 C352 0.929 . S
H362 C355 0.930 . S
C363 C364 1.351 . S
C363 N366 1.368 . S
C363 H368 0.931 . S
C364 C363 1.351 . S
C364 N365 1.373 . S
C364 H392 0.930 . S
N365 C364 1.373 . S
N365 C367 1.340 . S
N366 C363 1.368 . S
N366 C367 1.321 . S
N366 Co369 2.135 . S
C367 N365 1.340 . S
C367 N366 1.321 . S
C367 H391 0.930 . S
H368 C363 0.931 . S
Co369 N366 2.135 . S
Co369 N372 2.121 . S
Co369 O377 2.055 . S
Co369 O380 2.039 . S
Co369 N383 2.140 . S
C370 O371 1.227 . S
C370 O380 1.265 . S
O371 C370 1.227 . S
N372 Co369 2.121 . S
N372 C374 1.375 . S
N372 C375 1.313 . S
C373 C374 1.338 . S
C373 N376 1.377 . S
C373 H393 0.930 . S
C374 N372 1.375 . S
C374 C373 1.338 . S
C374 H378 0.931 . S
C375 N372 1.313 . S
C375 N376 1.344 . S
C375 H379 0.930 . S
N376 C373 1.377 . S
N376 C375 1.344 . S
O377 Co369 2.055 . S
O377 C381 1.253 . S
H378 C374 0.931 . S
H379 C375 0.930 . S
O380 Co369 2.039 . S
O380 C370 1.265 . S
C381 O377 1.253 . S
C381 O382 1.227 . S
O382 C381 1.227 . S
N383 Co369 2.140 . S
N383 C386 1.346 . S
N383 C387 1.345 . S
C384 C385 1.387 . S
C384 C388 1.391 . S
C385 C384 1.387 . S
C385 C386 1.369 . S
C385 H394 0.929 . S
C386 N383 1.346 . S
C386 C385 1.369 . S
C386 H389 0.928 . S
C387 N383 1.345 . S
C387 C388 1.371 . S
C387 H390 0.931 . S
C388 C384 1.391 . S
C388 C387 1.371 . S
C388 H395 0.930 . S
H389 C386 0.928 . S
H390 C387 0.931 . S
H391 C367 0.930 . S
H392 C364 0.930 . S
H393 C373 0.930 . S
H394 C385 0.929 . S
H395 C388 0.930 . S
C396 C397 1.351 . S
C396 N399 1.368 . S
C396 H401 0.931 . S
C397 C396 1.351 . S
C397 N398 1.373 . S
C397 H425 0.930 . S
N398 C397 1.373 . S
N398 C400 1.340 . S
N399 C396 1.368 . S
N399 C400 1.321 . S
N399 Co402 2.135 . S
C400 N398 1.340 . S
C400 N399 1.321 . S
C400 H424 0.930 . S
H401 C396 0.931 . S
Co402 N399 2.135 . S
Co402 N405 2.121 . S
Co402 O410 2.055 . S
Co402 O413 2.039 . S
Co402 N416 2.140 . S
C403 O404 1.227 . S
C403 O413 1.265 . S
O404 C403 1.227 . S
N405 Co402 2.121 . S
N405 C407 1.375 . S
N405 C408 1.313 . S
C406 C407 1.338 . S
C406 N409 1.377 . S
C406 H426 0.930 . S
C407 N405 1.375 . S
C407 C406 1.338 . S
C407 H411 0.931 . S
C408 N405 1.313 . S
C408 N409 1.344 . S
C408 H412 0.930 . S
N409 C406 1.377 . S
N409 C408 1.344 . S
O410 Co402 2.055 . S
O410 C414 1.253 . S
H411 C407 0.931 . S
H412 C408 0.930 . S
O413 Co402 2.039 . S
O413 C403 1.265 . S
C414 O410 1.253 . S
C414 O415 1.227 . S
O415 C414 1.227 . S
N416 Co402 2.140 . S
N416 C419 1.346 . S
N416 C420 1.345 . S
C417 C418 1.387 . S
C417 C421 1.391 . S
C418 C417 1.387 . S
C418 C419 1.369 . S
C418 H427 0.929 . S
C419 N416 1.346 . S
C419 C418 1.369 . S
C419 H422 0.928 . S
C420 N416 1.345 . S
C420 C421 1.371 . S
C420 H423 0.931 . S
C421 C417 1.391 . S
C421 C420 1.371 . S
C421 H428 0.930 . S
H422 C419 0.928 . S
H423 C420 0.931 . S
H424 C400 0.930 . S
H425 C397 0.930 . S
H426 C406 0.930 . S
H427 C418 0.929 . S
H428 C421 0.930 . S
C429 C430 1.351 . S
C429 N432 1.368 . S
C429 H434 0.931 . S
C430 C429 1.351 . S
C430 N431 1.373 . S
C430 H458 0.930 . S
N431 C430 1.373 . S
N431 C433 1.340 . S
N432 C429 1.368 . S
N432 C433 1.321 . S
N432 Co435 2.135 . S
C433 N431 1.340 . S
C433 N432 1.321 . S
C433 H457 0.930 . S
H434 C429 0.931 . S
Co435 N432 2.135 . S
Co435 N438 2.121 . S
Co435 O443 2.055 . S
Co435 O446 2.039 . S
Co435 N449 2.140 . S
C436 O437 1.227 . S
C436 O446 1.265 . S
O437 C436 1.227 . S
N438 Co435 2.121 . S
N438 C440 1.375 . S
N438 C441 1.313 . S
C439 C440 1.338 . S
C439 N442 1.377 . S
C439 H459 0.930 . S
C440 N438 1.375 . S
C440 C439 1.338 . S
C440 H444 0.931 . S
C441 N438 1.313 . S
C441 N442 1.344 . S
C441 H445 0.930 . S
N442 C439 1.377 . S
N442 C441 1.344 . S
O443 Co435 2.055 . S
O443 C447 1.253 . S
H444 C440 0.931 . S
H445 C441 0.930 . S
O446 Co435 2.039 . S
O446 C436 1.265 . S
C447 O443 1.253 . S
C447 O448 1.227 . S
O448 C447 1.227 . S
N449 Co435 2.140 . S
N449 C452 1.346 . S
N449 C453 1.345 . S
C450 C451 1.387 . S
C450 C454 1.391 . S
C451 C450 1.387 . S
C451 C452 1.369 . S
C451 H460 0.929 . S
C452 N449 1.346 . S
C452 C451 1.369 . S
C452 H455 0.928 . S
C453 N449 1.345 . S
C453 C454 1.371 . S
C453 H456 0.931 . S
C454 C450 1.391 . S
C454 C453 1.371 . S
C454 H461 0.930 . S
H455 C452 0.928 . S
H456 C453 0.931 . S
H457 C433 0.930 . S
H458 C430 0.930 . S
H459 C439 0.930 . S
H460 C451 0.929 . S
H461 C454 0.930 . S
C462 C463 1.351 . S
C462 N465 1.368 . S
C462 H467 0.931 . S
C463 C462 1.351 . S
C463 N464 1.373 . S
C463 H491 0.930 . S
N464 C463 1.373 . S
N464 C466 1.340 . S
N465 C462 1.368 . S
N465 C466 1.321 . S
N465 Co468 2.135 . S
C466 N464 1.340 . S
C466 N465 1.321 . S
C466 H490 0.930 . S
H467 C462 0.931 . S
Co468 N465 2.135 . S
Co468 N471 2.121 . S
Co468 O476 2.055 . S
Co468 O479 2.039 . S
Co468 N482 2.140 . S
C469 O470 1.227 . S
C469 O479 1.265 . S
O470 C469 1.227 . S
N471 Co468 2.121 . S
N471 C473 1.375 . S
N471 C474 1.313 . S
C472 C473 1.338 . S
C472 N475 1.377 . S
C472 H492 0.930 . S
C473 N471 1.375 . S
C473 C472 1.338 . S
C473 H477 0.931 . S
C474 N471 1.313 . S
C474 N475 1.344 . S
C474 H478 0.930 . S
N475 C472 1.377 . S
N475 C474 1.344 . S
O476 Co468 2.055 . S
O476 C480 1.253 . S
H477 C473 0.931 . S
H478 C474 0.930 . S
O479 Co468 2.039 . S
O479 C469 1.265 . S
C480 O476 1.253 . S
C480 O481 1.227 . S
O481 C480 1.227 . S
N482 Co468 2.140 . S
N482 C485 1.346 . S
N482 C486 1.345 . S
C483 C484 1.387 . S
C483 C487 1.391 . S
C484 C483 1.387 . S
C484 C485 1.369 . S
C484 H493 0.929 . S
C485 N482 1.346 . S
C485 C484 1.369 . S
C485 H488 0.928 . S
C486 N482 1.345 . S
C486 C487 1.371 . S
C486 H489 0.931 . S
C487 C483 1.391 . S
C487 C486 1.371 . S
C487 H494 0.930 . S
H488 C485 0.928 . S
H489 C486 0.931 . S
H490 C466 0.930 . S
H491 C463 0.930 . S
H492 C472 0.930 . S
H493 C484 0.929 . S
H494 C487 0.930 . S
C495 C496 1.351 . S
C495 N498 1.368 . S
C495 H500 0.931 . S
C496 C495 1.351 . S
C496 N497 1.373 . S
C496 H524 0.930 . S
N497 C496 1.373 . S
N497 C499 1.340 . S
N498 C495 1.368 . S
N498 C499 1.321 . S
N498 Co501 2.135 . S
C499 N497 1.340 . S
C499 N498 1.321 . S
C499 H523 0.930 . S
H500 C495 0.931 . S
Co501 N498 2.135 . S
Co501 N504 2.121 . S
Co501 O509 2.055 . S
Co501 O512 2.039 . S
Co501 N515 2.140 . S
C502 O503 1.227 . S
C502 O512 1.265 . S
O503 C502 1.227 . S
N504 Co501 2.121 . S
N504 C506 1.375 . S
N504 C507 1.313 . S
C505 C506 1.338 . S
C505 N508 1.377 . S
C505 H525 0.930 . S
C506 N504 1.375 . S
C506 C505 1.338 . S
C506 H510 0.931 . S
C507 N504 1.313 . S
C507 N508 1.344 . S
C507 H511 0.930 . S
N508 C505 1.377 . S
N508 C507 1.344 . S
O509 Co501 2.055 . S
O509 C513 1.253 . S
H510 C506 0.931 . S
H511 C507 0.930 . S
O512 Co501 2.039 . S
O512 C502 1.265 . S
C513 O509 1.253 . S
C513 O514 1.227 . S
O514 C513 1.227 . S
N515 Co501 2.140 . S
N515 C518 1.346 . S
N515 C519 1.345 . S
C516 C517 1.387 . S
C516 C520 1.391 . S
C517 C516 1.387 . S
C517 C518 1.369 . S
C517 H526 0.929 . S
C518 N515 1.346 . S
C518 C517 1.369 . S
C518 H521 0.928 . S
C519 N515 1.345 . S
C519 C520 1.371 . S
C519 H522 0.931 . S
C520 C516 1.391 . S
C520 C519 1.371 . S
C520 H527 0.930 . S
H521 C518 0.928 . S
H522 C519 0.931 . S
H523 C499 0.930 . S
H524 C496 0.930 . S
H525 C505 0.930 . S
H526 C517 0.929 . S
H527 C520 0.930 . S
H528 C540 0.930 . S
H529 C542 0.930 . S
H530 C543 0.930 . S
H531 C547 0.959 . S
H532 C547 0.959 . S
H533 C547 0.961 . S
H534 C548 0.960 . S
H535 C548 0.961 1_455 S
H536 C548 0.959 . S
H537 C551 0.929 . S
H538 C552 0.931 . S
H539 C554 0.930 . S
C540 H528 0.930 . S
C540 C541 1.399 . S
C540 C545 1.399 . S
C541 C540 1.399 . S
C541 C542 1.376 . S
C542 H529 0.930 . S
C542 C541 1.376 . S
C542 C543 1.388 . S
C543 H530 0.930 . S
C543 C542 1.388 . S
C543 C544 1.390 . S
C544 C543 1.390 . S
C544 C545 1.394 . S
C544 C550 1.465 . S
C545 C540 1.399 . S
C545 C544 1.394 . S
C545 C546 1.516 1_655 S
C546 C545 1.516 1_455 S
C546 C547 1.502 . S
C546 C548 1.561 1_455 S
C546 C549 1.526 . S
C547 H531 0.959 . S
C547 H532 0.959 . S
C547 H533 0.961 . S
C547 C546 1.502 . S
C548 H534 0.960 . S
C548 H535 0.961 1_655 S
C548 H536 0.959 . S
C548 C546 1.561 1_655 S
C549 C546 1.526 . S
C549 C550 1.396 1_455 S
C549 C554 1.390 . S
C550 C544 1.465 . S
C550 C549 1.396 1_655 S
C550 C551 1.399 . S
C551 H537 0.929 . S
C551 C550 1.399 . S
C551 C552 1.385 1_655 S
C552 H538 0.931 . S
C552 C551 1.385 1_455 S
C552 C553 1.389 . S
C553 C552 1.389 . S
C553 C554 1.387 . S
C554 H539 0.930 . S
C554 C549 1.390 . S
C554 C553 1.387 . S
H555 C567 0.930 . S
H556 C569 0.930 . S
H557 C570 0.930 . S
H558 C574 0.959 . S
H559 C574 0.959 . S
H560 C574 0.961 . S
H561 C575 0.960 . S
H562 C575 0.961 . S
H563 C575 0.959 . S
H564 C578 0.929 . S
H565 C579 0.931 . S
H566 C581 0.930 . S
C567 H555 0.930 . S
C567 C568 1.399 . S
C567 C572 1.399 . S
C568 C567 1.399 . S
C568 C569 1.376 . S
C569 H556 0.930 . S
C569 C568 1.376 . S
C569 C570 1.388 . S
C570 H557 0.930 . S
C570 C569 1.388 . S
C570 C571 1.390 . S
C571 C570 1.390 . S
C571 C572 1.394 . S
C571 C577 1.465 . S
C572 C567 1.399 . S
C572 C571 1.394 . S
C572 C573 1.516 . S
C573 C572 1.516 . S
C573 C574 1.502 . S
C573 C575 1.561 . S
C573 C576 1.526 . S
C574 H558 0.959 . S
C574 H559 0.959 . S
C574 H560 0.961 . S
C574 C573 1.502 . S
C575 H561 0.960 . S
C575 H562 0.961 . S
C575 H563 0.959 . S
C575 C573 1.561 . S
C576 C573 1.526 . S
C576 C577 1.396 . S
C576 C581 1.390 . S
C577 C571 1.465 . S
C577 C576 1.396 . S
C577 C578 1.399 . S
C578 H564 0.929 . S
C578 C577 1.399 . S
C578 C579 1.385 . S
C579 H565 0.931 . S
C579 C578 1.385 . S
C579 C580 1.389 . S
C580 C579 1.389 . S
C580 C581 1.387 . S
C581 H566 0.930 . S
C581 C576 1.390 . S
C581 C580 1.387 . S
H582 C594 0.930 1_455 S
H583 C596 0.930 . S
H584 C597 0.930 . S
H585 C601 0.959 . S
H586 C601 0.959 . S
H587 C601 0.961 . S
H588 C602 0.960 . S
H589 C602 0.961 . S
H590 C602 0.959 1_655 S
H591 C605 0.929 . S
H592 C606 0.928 1_655 S
H593 C608 0.930 . S
C594 H582 0.930 1_655 S
C594 C595 1.399 . S
C594 C599 1.399 . S
C595 C594 1.399 . S
C595 C596 1.376 . S
C596 H583 0.930 . S
C596 C595 1.376 . S
C596 C597 1.388 . S
C597 H584 0.930 . S
C597 C596 1.388 . S
C597 C598 1.390 . S
C598 C597 1.390 . S
C598 C599 1.394 . S
C598 C604 1.465 . S
C599 C594 1.399 . S
C599 C598 1.394 . S
C599 C600 1.516 1_655 S
C600 C599 1.516 1_455 S
C600 C601 1.502 . S
C600 C602 1.561 . S
C600 C603 1.526 . S
C601 H585 0.959 . S
C601 H586 0.959 . S
C601 H587 0.961 . S
C601 C600 1.502 . S
C602 H588 0.960 . S
C602 H589 0.961 . S
C602 H590 0.959 1_455 S
C602 C600 1.561 . S
C603 C600 1.526 . S
C603 C604 1.396 1_455 S
C603 C608 1.390 . S
C604 C598 1.465 . S
C604 C603 1.396 1_655 S
C604 C605 1.399 . S
C605 H591 0.929 . S
C605 C604 1.399 . S
C605 C606 1.385 1_655 S
C606 H592 0.928 1_455 S
C606 C605 1.385 1_455 S
C606 C607 1.389 . S
C607 C606 1.389 . S
C607 C608 1.387 . S
C608 H593 0.930 . S
C608 C603 1.390 . S
C608 C607 1.387 . S
H609 C621 0.930 . S
H610 C623 0.930 . S
H611 C624 0.930 . S
H612 C628 0.959 . S
H613 C628 0.959 . S
H614 C628 0.961 . S
H615 C629 0.960 . S
H616 C629 0.961 . S
H617 C629 0.959 . S
H618 C632 0.929 . S
H619 C633 0.931 . S
H620 C635 0.930 . S
C621 H609 0.930 . S
C621 C622 1.399 . S
C621 C626 1.399 . S
C622 C621 1.399 . S
C622 C623 1.376 . S
C623 H610 0.930 . S
C623 C622 1.376 . S
C623 C624 1.388 . S
C624 H611 0.930 . S
C624 C623 1.388 . S
C624 C625 1.390 . S
C625 C624 1.390 . S
C625 C626 1.394 . S
C625 C631 1.465 . S
C626 C621 1.399 . S
C626 C625 1.394 . S
C626 C627 1.516 . S
C627 C626 1.516 . S
C627 C628 1.502 . S
C627 C629 1.561 . S
C627 C630 1.526 . S
C628 H612 0.959 . S
C628 H613 0.959 . S
C628 H614 0.961 . S
C628 C627 1.502 . S
C629 H615 0.960 . S
C629 H616 0.961 . S
C629 H617 0.959 . S
C629 C627 1.561 . S
C630 C627 1.526 . S
C630 C631 1.396 . S
C630 C635 1.390 . S
C631 C625 1.465 . S
C631 C630 1.396 . S
C631 C632 1.399 . S
C632 H618 0.929 . S
C632 C631 1.399 . S
C632 C633 1.385 . S
C633 H619 0.931 . S
C633 C632 1.385 . S
C633 C634 1.389 . S
C634 C633 1.389 . S
C634 C635 1.387 . S
C635 H620 0.930 . S
C635 C630 1.390 . S
C635 C634 1.387 . S
H636 C648 0.930 . S
H637 C650 0.930 . S
H638 C651 0.930 . S
H639 C655 0.959 . S
H640 C655 0.959 . S
H641 C655 0.961 . S
H642 C656 0.960 . S
H643 C656 0.961 . S
H644 C656 0.959 . S
H645 C659 0.929 . S
H646 C660 0.931 . S
H647 C662 0.930 . S
C648 H636 0.930 . S
C648 C649 1.399 . S
C648 C653 1.399 . S
C649 C648 1.399 . S
C649 C650 1.376 . S
C650 H637 0.930 . S
C650 C649 1.376 . S
C650 C651 1.388 . S
C651 H638 0.930 . S
C651 C650 1.388 . S
C651 C652 1.390 . S
C652 C651 1.390 . S
C652 C653 1.394 . S
C652 C658 1.465 . S
C653 C648 1.399 . S
C653 C652 1.394 . S
C653 C654 1.516 . S
C654 C653 1.516 . S
C654 C655 1.502 . S
C654 C656 1.561 . S
C654 C657 1.526 . S
C655 H639 0.959 . S
C655 H640 0.959 . S
C655 H641 0.961 . S
C655 C654 1.502 . S
C656 H642 0.960 . S
C656 H643 0.961 . S
C656 H644 0.959 . S
C656 C654 1.561 . S
C657 C654 1.526 . S
C657 C658 1.396 . S
C657 C662 1.390 . S
C658 C652 1.465 . S
C658 C657 1.396 . S
C658 C659 1.399 . S
C659 H645 0.929 . S
C659 C658 1.399 . S
C659 C660 1.385 . S
C660 H646 0.931 . S
C660 C659 1.385 . S
C660 C661 1.389 . S
C661 C660 1.389 . S
C661 C662 1.387 . S
C662 H647 0.930 . S
C662 C657 1.390 . S
C662 C661 1.387 . S
H663 C675 0.930 . S
H664 C677 0.930 . S
H665 C678 0.930 . S
H666 C682 0.959 . S
H667 C682 0.959 . S
H668 C682 0.961 . S
H669 C683 0.960 . S
H670 C683 0.961 . S
H671 C683 0.959 . S
H672 C686 0.929 . S
H673 C687 0.931 . S
H674 C689 0.930 . S
C675 H663 0.930 . S
C675 C676 1.399 . S
C675 C680 1.399 . S
C676 C675 1.399 . S
C676 C677 1.376 . S
C677 H664 0.930 . S
C677 C676 1.376 . S
C677 C678 1.388 . S
C678 H665 0.930 . S
C678 C677 1.388 . S
C678 C679 1.390 . S
C679 C678 1.390 . S
C679 C680 1.394 . S
C679 C685 1.465 1_655 S
C680 C675 1.399 . S
C680 C679 1.394 . S
C680 C681 1.516 . S
C681 C680 1.516 . S
C681 C682 1.502 1_655 S
C681 C683 1.561 . S
C681 C684 1.526 1_655 S
C682 H666 0.959 . S
C682 H667 0.959 . S
C682 H668 0.961 . S
C682 C681 1.502 1_455 S
C683 H669 0.960 . S
C683 H670 0.961 . S
C683 H671 0.959 . S
C683 C681 1.561 . S
C684 C681 1.526 1_455 S
C684 C685 1.396 . S
C684 C689 1.390 . S
C685 C679 1.465 1_455 S
C685 C684 1.396 . S
C685 C686 1.399 . S
C686 H672 0.929 . S
C686 C685 1.399 . S
C686 C687 1.385 . S
C687 H673 0.931 . S
C687 C686 1.385 . S
C687 C688 1.389 . S
C688 C687 1.389 . S
C688 C689 1.387 . S
C689 H674 0.930 . S
C689 C684 1.390 . S
C689 C688 1.387 . S
H690 C702 0.930 . S
H691 C704 0.930 . S
H692 C705 0.930 . S
H693 C709 0.959 . S
H694 C709 0.959 . S
H695 C709 0.961 . S
H696 C710 0.960 . S
H697 C710 0.961 . S
H698 C710 0.959 . S
H699 C713 0.929 . S
H700 C714 0.931 . S
H701 C716 0.930 . S
C702 H690 0.930 . S
C702 C703 1.399 . S
C702 C707 1.399 . S
C703 C702 1.399 . S
C703 C704 1.376 . S
C704 H691 0.930 . S
C704 C703 1.376 . S
C704 C705 1.388 . S
C705 H692 0.930 . S
C705 C704 1.388 . S
C705 C706 1.390 . S
C706 C705 1.390 . S
C706 C707 1.394 . S
C706 C712 1.465 . S
C707 C702 1.399 . S
C707 C706 1.394 . S
C707 C708 1.516 . S
C708 C707 1.516 . S
C708 C709 1.502 . S
C708 C710 1.561 . S
C708 C711 1.526 . S
C709 H693 0.959 . S
C709 H694 0.959 . S
C709 H695 0.961 . S
C709 C708 1.502 . S
C710 H696 0.960 . S
C710 H697 0.961 . S
C710 H698 0.959 . S
C710 C708 1.561 . S
C711 C708 1.526 . S
C711 C712 1.396 . S
C711 C716 1.390 . S
C712 C706 1.465 . S
C712 C711 1.396 . S
C712 C713 1.399 . S
C713 H699 0.929 . S
C713 C712 1.399 . S
C713 C714 1.385 . S
C714 H700 0.931 . S
C714 C713 1.385 . S
C714 C715 1.389 . S
C715 C714 1.389 . S
C715 C716 1.387 . S
C716 H701 0.930 . S
C716 C711 1.390 . S
C716 C715 1.387 . S
H717 C729 0.930 . S
H718 C731 0.930 . S
H719 C732 0.930 . S
H720 C736 0.959 . S
H721 C736 0.959 . S
H722 C736 0.961 . S
H723 C737 0.960 . S
H724 C737 0.961 . S
H725 C737 0.959 . S
H726 C740 0.929 . S
H727 C741 0.931 . S
H728 C743 0.930 . S
C729 H717 0.930 . S
C729 C730 1.399 . S
C729 C734 1.399 . S
C730 C729 1.399 . S
C730 C731 1.376 . S
C731 H718 0.930 . S
C731 C730 1.376 . S
C731 C732 1.388 . S
C732 H719 0.930 . S
C732 C731 1.388 . S
C732 C733 1.390 . S
C733 C732 1.390 . S
C733 C734 1.394 . S
C733 C739 1.465 1_655 S
C734 C729 1.399 . S
C734 C733 1.394 . S
C734 C735 1.516 1_655 S
C735 C734 1.516 1_455 S
C735 C736 1.502 1_455 S
C735 C737 1.561 . S
C735 C738 1.526 . S
C736 H720 0.959 . S
C736 H721 0.959 . S
C736 H722 0.961 . S
C736 C735 1.502 1_655 S
C737 H723 0.960 . S
C737 H724 0.961 . S
C737 H725 0.959 . S
C737 C735 1.561 . S
C738 C735 1.526 . S
C738 C739 1.396 . S
C738 C743 1.390 . S
C739 C733 1.465 1_455 S
C739 C738 1.396 . S
C739 C740 1.399 . S
C740 H726 0.929 . S
C740 C739 1.399 . S
C740 C741 1.385 . S
C741 H727 0.931 . S
C741 C740 1.385 . S
C741 C742 1.389 . S
C742 C741 1.389 . S
C742 C743 1.387 . S
C743 H728 0.930 . S
C743 C738 1.390 . S
C743 C742 1.387 . S
H744 C756 0.930 . S
H745 C758 0.930 . S
H746 C759 0.930 . S
H747 C763 0.959 . S
H748 C763 0.959 . S
H749 C763 0.961 . S
H750 C764 0.960 . S
H751 C764 0.961 . S
H752 C764 0.959 . S
H753 C767 0.929 . S
H754 C768 0.931 . S
H755 C770 0.930 . S
C756 H744 0.930 . S
C756 C757 1.399 . S
C756 C761 1.399 . S
C757 C756 1.399 . S
C757 C758 1.376 . S
C758 H745 0.930 . S
C758 C757 1.376 . S
C758 C759 1.388 . S
C759 H746 0.930 . S
C759 C758 1.388 . S
C759 C760 1.390 . S
C760 C759 1.390 . S
C760 C761 1.394 . S
C760 C766 1.465 . S
C761 C756 1.399 . S
C761 C760 1.394 . S
C761 C762 1.516 . S
C762 C761 1.516 . S
C762 C763 1.502 . S
C762 C764 1.561 . S
C762 C765 1.526 . S
C763 H747 0.959 . S
C763 H748 0.959 . S
C763 H749 0.961 . S
C763 C762 1.502 . S
C764 H750 0.960 . S
C764 H751 0.961 . S
C764 H752 0.959 . S
C764 C762 1.561 . S
C765 C762 1.526 . S
C765 C766 1.396 . S
C765 C770 1.390 . S
C766 C760 1.465 . S
C766 C765 1.396 . S
C766 C767 1.399 . S
C767 H753 0.929 . S
C767 C766 1.399 . S
C767 C768 1.385 . S
C768 H754 0.931 . S
C768 C767 1.385 . S
C768 C769 1.389 . S
C769 C768 1.389 . S
C769 C770 1.387 . S
C770 H755 0.930 . S
C770 C765 1.390 . S
C770 C769 1.387 . S
H771 C783 0.930 . S
H772 C785 0.930 . S
H773 C786 0.930 . S
H774 C790 0.959 . S
H775 C790 0.959 . S
H776 C790 0.961 . S
H777 C791 0.960 . S
H778 C791 0.961 . S
H779 C791 0.959 . S
H780 C794 0.929 . S
H781 C795 0.931 . S
H782 C797 0.930 . S
C783 H771 0.930 . S
C783 C784 1.399 . S
C783 C788 1.399 . S
C784 C783 1.399 . S
C784 C785 1.376 . S
C785 H772 0.930 . S
C785 C784 1.376 . S
C785 C786 1.388 . S
C786 H773 0.930 . S
C786 C785 1.388 . S
C786 C787 1.390 . S
C787 C786 1.390 . S
C787 C788 1.394 . S
C787 C793 1.465 . S
C788 C783 1.399 . S
C788 C787 1.394 . S
C788 C789 1.516 . S
C789 C788 1.516 . S
C789 C790 1.502 . S
C789 C791 1.561 . S
C789 C792 1.526 . S
C790 H774 0.959 . S
C790 H775 0.959 . S
C790 H776 0.961 . S
C790 C789 1.502 . S
C791 H777 0.960 . S
C791 H778 0.961 . S
C791 H779 0.959 . S
C791 C789 1.561 . S
C792 C789 1.526 . S
C792 C793 1.396 . S
C792 C797 1.390 . S
C793 C787 1.465 . S
C793 C792 1.396 . S
C793 C794 1.399 . S
C794 H780 0.929 . S
C794 C793 1.399 . S
C794 C795 1.385 . S
C795 H781 0.931 . S
C795 C794 1.385 . S
C795 C796 1.389 . S
C796 C795 1.389 . S
C796 C797 1.387 . S
C797 H782 0.930 . S
C797 C792 1.390 . S
C797 C796 1.387 . S
H798 C810 0.930 . S
H799 C812 0.930 . S
H800 C813 0.930 . S
H801 C817 0.959 . S
H802 C817 0.959 . S
H803 C817 0.961 . S
H804 C818 0.960 . S
H805 C818 0.961 . S
H806 C818 0.959 . S
H807 C821 0.929 . S
H808 C822 0.931 . S
H809 C824 0.930 . S
C810 H798 0.930 . S
C810 C811 1.399 . S
C810 C815 1.399 . S
C811 C810 1.399 . S
C811 C812 1.376 . S
C812 H799 0.930 . S
C812 C811 1.376 . S
C812 C813 1.388 . S
C813 H800 0.930 . S
C813 C812 1.388 . S
C813 C814 1.390 . S
C814 C813 1.390 . S
C814 C815 1.394 . S
C814 C820 1.465 . S
C815 C810 1.399 . S
C815 C814 1.394 . S
C815 C816 1.516 . S
C816 C815 1.516 . S
C816 C817 1.502 . S
C816 C818 1.561 . S
C816 C819 1.526 . S
C817 H801 0.959 . S
C817 H802 0.959 . S
C817 H803 0.961 . S
C817 C816 1.502 . S
C818 H804 0.960 . S
C818 H805 0.961 . S
C818 H806 0.959 . S
C818 C816 1.561 . S
C819 C816 1.526 . S
C819 C820 1.396 . S
C819 C824 1.390 . S
C820 C814 1.465 . S
C820 C819 1.396 . S
C820 C821 1.399 . S
C821 H807 0.929 . S
C821 C820 1.399 . S
C821 C822 1.385 . S
C822 H808 0.931 . S
C822 C821 1.385 . S
C822 C823 1.389 . S
C823 C822 1.389 . S
C823 C824 1.387 . S
C824 H809 0.930 . S
C824 C819 1.390 . S
C824 C823 1.387 . S
H825 C837 0.930 . S
H826 C839 0.930 . S
H827 C840 0.930 . S
H828 C844 0.959 . S
H829 C844 0.959 . S
H830 C844 0.961 . S
H831 C845 0.960 . S
H832 C845 0.961 . S
H833 C845 0.959 . S
H834 C848 0.929 . S
H835 C849 0.931 . S
H836 C851 0.930 . S
C837 H825 0.930 . S
C837 C838 1.399 . S
C837 C842 1.399 . S
C838 C837 1.399 . S
C838 C839 1.376 . S
C839 H826 0.930 . S
C839 C838 1.376 . S
C839 C840 1.388 . S
C840 H827 0.930 . S
C840 C839 1.388 . S
C840 C841 1.390 . S
C841 C840 1.390 . S
C841 C842 1.394 . S
C841 C847 1.465 . S
C842 C837 1.399 . S
C842 C841 1.394 . S
C842 C843 1.516 . S
C843 C842 1.516 . S
C843 C844 1.502 . S
C843 C845 1.561 . S
C843 C846 1.526 . S
C844 H828 0.959 . S
C844 H829 0.959 . S
C844 H830 0.961 . S
C844 C843 1.502 . S
C845 H831 0.960 . S
C845 H832 0.961 . S
C845 H833 0.959 . S
C845 C843 1.561 . S
C846 C843 1.526 . S
C846 C847 1.396 . S
C846 C851 1.390 . S
C847 C841 1.465 . S
C847 C846 1.396 . S
C847 C848 1.399 . S
C848 H834 0.929 . S
C848 C847 1.399 . S
C848 C849 1.385 . S
C849 H835 0.931 . S
C849 C848 1.385 . S
C849 C850 1.389 . S
C850 C849 1.389 . S
C850 C851 1.387 . S
C851 H836 0.930 . S
C851 C846 1.390 . S
C851 C850 1.387 . S
H852 C864 0.930 . S
H853 C866 0.930 . S
H854 C867 0.930 . S
H855 C871 0.959 . S
H856 C871 0.959 . S
H857 C871 0.961 . S
H858 C872 0.960 . S
H859 C872 0.961 . S
H860 C872 0.959 . S
H861 C875 0.929 . S
H862 C876 0.931 . S
H863 C878 0.930 . S
C864 H852 0.930 . S
C864 C865 1.399 . S
C864 C869 1.399 . S
C865 C864 1.399 . S
C865 C866 1.376 . S
C866 H853 0.930 . S
C866 C865 1.376 . S
C866 C867 1.388 . S
C867 H854 0.930 . S
C867 C866 1.388 . S
C867 C868 1.390 . S
C868 C867 1.390 . S
C868 C869 1.394 . S
C868 C874 1.465 . S
C869 C864 1.399 . S
C869 C868 1.394 . S
C869 C870 1.516 . S
C870 C869 1.516 . S
C870 C871 1.502 . S
C870 C872 1.561 . S
C870 C873 1.526 . S
C871 H855 0.959 . S
C871 H856 0.959 . S
C871 H857 0.961 . S
C871 C870 1.502 . S
C872 H858 0.960 . S
C872 H859 0.961 . S
C872 H860 0.959 . S
C872 C870 1.561 . S
C873 C870 1.526 . S
C873 C874 1.396 . S
C873 C878 1.390 . S
C874 C868 1.465 . S
C874 C873 1.396 . S
C874 C875 1.399 . S
C875 H861 0.929 . S
C875 C874 1.399 . S
C875 C876 1.385 . S
C876 H862 0.931 . S
C876 C875 1.385 . S
C876 C877 1.389 . S
C877 C876 1.389 . S
C877 C878 1.387 . S
C878 H863 0.930 . S
C878 C873 1.390 . S
C878 C877 1.387 . S
H879 C891 0.930 . S
H880 C893 0.930 . S
H881 C894 0.930 . S
H882 C898 0.959 . S
H883 C898 0.959 . S
H884 C898 0.961 . S
H885 C899 0.960 . S
H886 C899 0.961 . S
H887 C899 0.959 . S
H888 C902 0.929 . S
H889 C903 0.931 . S
H890 C905 0.930 . S
C891 H879 0.930 . S
C891 C892 1.399 . S
C891 C896 1.399 . S
C892 C891 1.399 . S
C892 C893 1.376 . S
C893 H880 0.930 . S
C893 C892 1.376 . S
C893 C894 1.388 . S
C894 H881 0.930 . S
C894 C893 1.388 . S
C894 C895 1.390 . S
C895 C894 1.390 . S
C895 C896 1.394 . S
C895 C901 1.465 . S
C896 C891 1.399 . S
C896 C895 1.394 . S
C896 C897 1.516 . S
C897 C896 1.516 . S
C897 C898 1.502 . S
C897 C899 1.561 . S
C897 C900 1.526 . S
C898 H882 0.959 . S
C898 H883 0.959 . S
C898 H884 0.961 . S
C898 C897 1.502 . S
C899 H885 0.960 . S
C899 H886 0.961 . S
C899 H887 0.959 . S
C899 C897 1.561 . S
C900 C897 1.526 . S
C900 C901 1.396 . S
C900 C905 1.390 . S
C901 C895 1.465 . S
C901 C900 1.396 . S
C901 C902 1.399 . S
C902 H888 0.929 . S
C902 C901 1.399 . S
C902 C903 1.385 . S
C903 H889 0.931 . S
C903 C902 1.385 . S
C903 C904 1.389 . S
C904 C903 1.389 . S
C904 C905 1.387 . S
C905 H890 0.930 . S
C905 C900 1.390 . S
C905 C904 1.387 . S
H906 C918 0.930 . S
H907 C920 0.930 . S
H908 C921 0.930 . S
H909 C925 0.959 . S
H910 C925 0.959 . S
H911 C925 0.961 . S
H912 C926 0.960 . S
H913 C926 0.961 . S
H914 C926 0.959 . S
H915 C929 0.929 . S
H916 C930 0.931 . S
H917 C932 0.930 . S
C918 H906 0.930 . S
C918 C919 1.399 . S
C918 C923 1.399 . S
C919 C918 1.399 . S
C919 C920 1.376 . S
C920 H907 0.930 . S
C920 C919 1.376 . S
C920 C921 1.388 . S
C921 H908 0.930 . S
C921 C920 1.388 . S
C921 C922 1.390 . S
C922 C921 1.390 . S
C922 C923 1.394 . S
C922 C928 1.465 . S
C923 C918 1.399 . S
C923 C922 1.394 . S
C923 C924 1.516 . S
C924 C923 1.516 . S
C924 C925 1.502 . S
C924 C926 1.561 . S
C924 C927 1.526 . S
C925 H909 0.959 . S
C925 H910 0.959 . S
C925 H911 0.961 . S
C925 C924 1.502 . S
C926 H912 0.960 . S
C926 H913 0.961 . S
C926 H914 0.959 . S
C926 C924 1.561 . S
C927 C924 1.526 . S
C927 C928 1.396 . S
C927 C932 1.390 . S
C928 C922 1.465 . S
C928 C927 1.396 . S
C928 C929 1.399 . S
C929 H915 0.929 . S
C929 C928 1.399 . S
C929 C930 1.385 . S
C930 H916 0.931 . S
C930 C929 1.385 . S
C930 C931 1.389 . S
C931 C930 1.389 . S
C931 C932 1.387 . S
C932 H917 0.930 . S
C932 C927 1.390 . S
C932 C931 1.387 . S
H933 C945 0.930 . S
H934 C947 0.930 . S
H935 C948 0.930 . S
H936 C952 0.959 . S
H937 C952 0.959 . S
H938 C952 0.961 . S
H939 C953 0.960 . S
H940 C953 0.961 . S
H941 C953 0.959 . S
H942 C956 0.929 . S
H943 C957 0.931 . S
H944 C959 0.930 . S
C945 H933 0.930 . S
C945 C946 1.399 . S
C945 C950 1.399 . S
C946 C945 1.399 . S
C946 C947 1.376 . S
C947 H934 0.930 . S
C947 C946 1.376 . S
C947 C948 1.388 . S
C948 H935 0.930 . S
C948 C947 1.388 . S
C948 C949 1.390 . S
C949 C948 1.390 . S
C949 C950 1.394 . S
C949 C955 1.465 . S
C950 C945 1.399 . S
C950 C949 1.394 . S
C950 C951 1.516 . S
C951 C950 1.516 . S
C951 C952 1.502 . S
C951 C953 1.561 . S
C951 C954 1.526 . S
C952 H936 0.959 . S
C952 H937 0.959 . S
C952 H938 0.961 . S
C952 C951 1.502 . S
C953 H939 0.960 . S
C953 H940 0.961 . S
C953 H941 0.959 . S
C953 C951 1.561 . S
C954 C951 1.526 . S
C954 C955 1.396 . S
C954 C959 1.390 . S
C955 C949 1.465 . S
C955 C954 1.396 . S
C955 C956 1.399 . S
C956 H942 0.929 . S
C956 C955 1.399 . S
C956 C957 1.385 . S
C957 H943 0.931 . S
C957 C956 1.385 . S
C957 C958 1.389 . S
C958 C957 1.389 . S
C958 C959 1.387 . S
C959 H944 0.930 . S
C959 C954 1.390 . S
C959 C958 1.387 . S
H960 C972 0.930 1_565 S
H961 C974 0.930 . S
H962 C975 0.930 . S
H963 C979 0.959 . S
H964 C979 0.959 . S
H965 C979 0.947 1_455 S
H966 C980 0.960 . S
H967 C980 0.961 . S
H968 C980 0.959 . S
H969 C983 0.929 . S
H970 C984 0.942 . S
H971 C986 0.930 . S
C972 H960 0.930 1_545 S
C972 C973 1.399 . S
C972 C977 1.404 . S
C973 C972 1.399 . S
C973 C974 1.376 . S
C974 H961 0.930 . S
C974 C973 1.376 . S
C974 C975 1.388 . S
C975 H962 0.930 . S
C975 C974 1.388 . S
C975 C976 1.390 . S
C976 C975 1.390 . S
C976 C977 1.404 . S
C976 C982 1.465 1_455 S
C977 C972 1.404 . S
C977 C976 1.404 . S
C977 C978 1.502 1_545 S
C978 C977 1.502 1_565 S
C978 C979 1.502 1_455 S
C978 C980 1.561 . S
C978 C981 1.526 1_455 S
C979 H963 0.959 . S
C979 H964 0.959 . S
C979 H965 0.947 1_655 S
C979 C978 1.502 1_655 S
C980 H966 0.960 . S
C980 H967 0.961 . S
C980 H968 0.959 . S
C980 C978 1.561 . S
C981 C978 1.526 1_655 S
C981 C982 1.396 1_565 S
C981 C986 1.390 . S
C982 C976 1.465 1_655 S
C982 C981 1.396 1_545 S
C982 C983 1.399 . S
C983 H969 0.929 . S
C983 C982 1.399 . S
C983 C984 1.385 1_545 S
C984 H970 0.942 . S
C984 C983 1.385 1_565 S
C984 C985 1.389 . S
C985 C984 1.389 . S
C985 C986 1.387 . S
C986 H971 0.930 . S
C986 C981 1.390 . S
C986 C985 1.387 . S
H987 C999 0.940 . S
H988 C1001 0.930 . S
H989 C1002 0.930 . S
H990 C1006 0.959 . S
H991 C1006 0.959 . S
H992 C1006 0.961 . S
H993 C1007 0.960 . S
H994 C1007 0.961 . S
H995 C1007 0.959 . S
H996 C1010 0.929 . S
H997 C1011 0.931 . S
H998 C1013 0.930 . S
C999 H987 0.940 . S
C999 C1000 1.399 . S
C999 C1004 1.399 . S
C1000 C999 1.399 . S
C1000 C1001 1.376 . S
C1001 H988 0.930 . S
C1001 C1000 1.376 . S
C1001 C1002 1.388 . S
C1002 H989 0.930 . S
C1002 C1001 1.388 . S
C1002 C1003 1.390 . S
C1003 C1002 1.390 . S
C1003 C1004 1.394 . S
C1003 C1009 1.465 . S
C1004 C999 1.399 . S
C1004 C1003 1.394 . S
C1004 C1005 1.516 1_565 S
C1005 C1004 1.516 1_545 S
C1005 C1006 1.502 . S
C1005 C1007 1.561 . S
C1005 C1008 1.526 . S
C1006 H990 0.959 . S
C1006 H991 0.959 . S
C1006 H992 0.961 . S
C1006 C1005 1.502 . S
C1007 H993 0.960 . S
C1007 H994 0.961 . S
C1007 H995 0.959 . S
C1007 C1005 1.561 . S
C1008 C1005 1.526 . S
C1008 C1009 1.396 1_545 S
C1008 C1013 1.390 . S
C1009 C1003 1.465 . S
C1009 C1008 1.396 1_565 S
C1009 C1010 1.399 . S
C1010 H996 0.929 . S
C1010 C1009 1.399 . S
C1010 C1011 1.385 1_565 S
C1011 H997 0.931 . S
C1011 C1010 1.385 1_545 S
C1011 C1012 1.389 . S
C1012 C1011 1.389 . S
C1012 C1013 1.387 . S
C1013 H998 0.930 . S
C1013 C1008 1.390 . S
C1013 C1012 1.387 . S
H1014 C1026 0.930 . S
H1015 C1028 0.930 . S
H1016 C1029 0.930 . S
H1017 C1033 0.959 . S
H1018 C1033 0.959 . S
H1019 C1033 0.961 . S
H1020 C1034 0.960 1_545 S
H1021 C1034 0.961 . S
H1022 C1034 0.959 . S
H1023 C1037 0.929 . S
H1024 C1038 0.931 . S
H1025 C1040 0.930 . S
C1026 H1014 0.930 . S
C1026 C1027 1.399 . S
C1026 C1031 1.399 . S
C1027 C1026 1.399 . S
C1027 C1028 1.376 . S
C1028 H1015 0.930 . S
C1028 C1027 1.376 . S
C1028 C1029 1.388 1_545 S
C1029 H1016 0.930 . S
C1029 C1028 1.388 1_565 S
C1029 C1030 1.391 . S
C1030 C1029 1.391 . S
C1030 C1031 1.372 1_565 S
C1030 C1036 1.484 . S
C1031 C1026 1.399 . S
C1031 C1030 1.372 1_545 S
C1031 C1032 1.516 1_556 S
C1032 C1031 1.516 1_554 S
C1032 C1033 1.502 . S
C1032 C1034 1.561 1_545 S
C1032 C1035 1.526 1_545 S
C1033 H1017 0.959 . S
C1033 H1018 0.959 . S
C1033 H1019 0.961 . S
C1033 C1032 1.502 . S
C1034 H1020 0.960 1_565 S
C1034 H1021 0.961 . S
C1034 H1022 0.959 . S
C1034 C1032 1.561 1_565 S
C1035 C1032 1.526 1_565 S
C1035 C1036 1.396 1_554 S
C1035 C1040 1.390 . S
C1036 C1030 1.484 . S
C1036 C1035 1.396 1_556 S
C1036 C1037 1.399 . S
C1037 H1023 0.929 . S
C1037 C1036 1.399 . S
C1037 C1038 1.385 1_556 S
C1038 H1024 0.931 . S
C1038 C1037 1.385 1_554 S
C1038 C1039 1.389 . S
C1039 C1038 1.389 . S
C1039 C1040 1.387 . S
C1040 H1025 0.930 . S
C1040 C1035 1.390 . S
C1040 C1039 1.387 . S
H1041 C1053 0.930 . S
H1042 C1055 0.930 . S
H1043 C1056 0.930 . S
H1044 C1060 0.959 . S
H1045 C1060 0.959 . S
H1046 C1060 0.961 . S
H1047 C1061 0.960 . S
H1048 C1061 0.961 1_455 S
H1049 C1061 0.959 . S
H1050 C1064 0.929 1_655 S
H1051 C1065 0.931 . S
H1052 C1067 0.930 . S
C1053 H1041 0.930 . S
C1053 C1054 1.399 . S
C1053 C1058 1.399 . S
C1054 C1053 1.399 . S
C1054 C1055 1.376 . S
C1055 H1042 0.930 . S
C1055 C1054 1.376 . S
C1055 C1056 1.388 1_554 S
C1056 H1043 0.930 . S
C1056 C1055 1.388 1_556 S
C1056 C1057 1.390 . S
C1057 C1056 1.390 . S
C1057 C1058 1.394 1_556 S
C1057 C1063 1.465 1_645 S
C1058 C1053 1.399 . S
C1058 C1057 1.394 1_554 S
C1058 C1059 1.516 1_645 S
C1059 C1058 1.516 1_465 S
C1059 C1060 1.502 . S
C1059 C1061 1.561 1_455 S
C1059 C1062 1.526 1_554 S
C1060 H1044 0.959 . S
C1060 H1045 0.959 . S
C1060 H1046 0.961 . S
C1060 C1059 1.502 . S
C1061 H1047 0.960 . S
C1061 H1048 0.961 1_655 S
C1061 H1049 0.959 . S
C1061 C1059 1.561 1_655 S
C1062 C1059 1.526 1_556 S
C1062 C1063 1.396 . S
C1062 C1067 1.390 . S
C1063 C1057 1.465 1_465 S
C1063 C1062 1.396 . S
C1063 C1064 1.399 1_565 S
C1064 H1050 0.929 1_455 S
C1064 C1063 1.399 1_545 S
C1064 C1065 1.385 1_545 S
C1065 H1051 0.931 . S
C1065 C1064 1.385 1_565 S
C1065 C1066 1.389 . S
C1066 C1065 1.389 . S
C1066 C1067 1.387 . S
C1067 H1052 0.930 . S
C1067 C1062 1.390 . S
C1067 C1066 1.387 . S
H1068 C1080 0.930 . S
H1069 C1082 0.930 . S
H1070 C1083 0.930 . S
H1071 C1087 0.959 . S
H1072 C1087 0.959 . S
H1073 C1087 0.961 . S
H1074 C1088 0.960 . S
H1075 C1088 0.961 . S
H1076 C1088 0.959 . S
H1077 C1091 0.929 . S
H1078 C1092 0.931 . S
H1079 C1094 0.930 . S
C1080 H1068 0.930 . S
C1080 C1081 1.399 . S
C1080 C1085 1.399 . S
C1081 C1080 1.399 . S
C1081 C1082 1.376 . S
C1082 H1069 0.930 . S
C1082 C1081 1.376 . S
C1082 C1083 1.388 . S
C1083 H1070 0.930 . S
C1083 C1082 1.388 . S
C1083 C1084 1.390 . S
C1084 C1083 1.390 . S
C1084 C1085 1.394 . S
C1084 C1090 1.465 . S
C1085 C1080 1.399 . S
C1085 C1084 1.394 . S
C1085 C1086 1.516 . S
C1086 C1085 1.516 . S
C1086 C1087 1.502 . S
C1086 C1088 1.561 . S
C1086 C1089 1.526 . S
C1087 H1071 0.959 . S
C1087 H1072 0.959 . S
C1087 H1073 0.961 . S
C1087 C1086 1.502 . S
C1088 H1074 0.960 . S
C1088 H1075 0.961 . S
C1088 H1076 0.959 . S
C1088 C1086 1.561 . S
C1089 C1086 1.526 . S
C1089 C1090 1.396 . S
C1089 C1094 1.390 . S
C1090 C1084 1.465 . S
C1090 C1089 1.396 . S
C1090 C1091 1.399 . S
C1091 H1077 0.929 . S
C1091 C1090 1.399 . S
C1091 C1092 1.385 . S
C1092 H1078 0.931 . S
C1092 C1091 1.385 . S
C1092 C1093 1.389 . S
C1093 C1092 1.389 . S
C1093 C1094 1.387 . S
C1094 H1079 0.930 . S
C1094 C1089 1.390 . S
C1094 C1093 1.387 . S
H1095 C1107 0.930 . S
H1096 C1109 0.930 . S
H1097 C1110 0.930 . S
H1098 C1114 0.959 . S
H1099 C1114 0.959 . S
H1100 C1114 0.961 . S
H1101 C1115 0.960 . S
H1102 C1115 0.961 . S
H1103 C1115 0.959 . S
H1104 C1118 0.929 . S
H1105 C1119 0.931 . S
H1106 C1121 0.930 . S
C1107 H1095 0.930 . S
C1107 C1108 1.399 . S
C1107 C1112 1.399 . S
C1108 C1107 1.399 . S
C1108 C1109 1.376 . S
C1109 H1096 0.930 . S
C1109 C1108 1.376 . S
C1109 C1110 1.388 . S
C1110 H1097 0.930 . S
C1110 C1109 1.388 . S
C1110 C1111 1.390 . S
C1111 C1110 1.390 . S
C1111 C1112 1.394 . S
C1111 C1117 1.465 1_455 S
C1112 C1107 1.399 . S
C1112 C1111 1.394 . S
C1112 C1113 1.516 . S
C1113 C1112 1.516 . S
C1113 C1114 1.502 1_455 S
C1113 C1115 1.561 . S
C1113 C1116 1.526 1_455 S
C1114 H1098 0.959 . S
C1114 H1099 0.959 . S
C1114 H1100 0.961 . S
C1114 C1113 1.502 1_655 S
C1115 H1101 0.960 . S
C1115 H1102 0.961 . S
C1115 H1103 0.959 . S
C1115 C1113 1.561 . S
C1116 C1113 1.526 1_655 S
C1116 C1117 1.396 . S
C1116 C1121 1.390 . S
C1117 C1111 1.465 1_655 S
C1117 C1116 1.396 . S
C1117 C1118 1.399 . S
C1118 H1104 0.929 . S
C1118 C1117 1.399 . S
C1118 C1119 1.385 . S
C1119 H1105 0.931 . S
C1119 C1118 1.385 . S
C1119 C1120 1.389 . S
C1120 C1119 1.389 . S
C1120 C1121 1.387 . S
C1121 H1106 0.930 . S
C1121 C1116 1.390 . S
C1121 C1120 1.387 . S
H1122 C1134 0.930 . S
H1123 C1136 0.930 . S
H1124 C1137 0.930 . S
H1125 C1141 0.959 . S
H1126 C1141 0.959 . S
H1127 C1141 0.961 . S
H1128 C1142 0.960 . S
H1129 C1142 0.961 . S
H1130 C1142 0.959 . S
H1131 C1145 0.929 . S
H1132 C1146 0.931 . S
H1133 C1148 0.930 . S
C1134 H1122 0.930 . S
C1134 C1135 1.399 . S
C1134 C1139 1.399 . S
C1135 C1134 1.399 . S
C1135 C1136 1.376 . S
C1136 H1123 0.930 . S
C1136 C1135 1.376 . S
C1136 C1137 1.388 . S
C1137 H1124 0.930 . S
C1137 C1136 1.388 . S
C1137 C1138 1.390 . S
C1138 C1137 1.390 . S
C1138 C1139 1.394 . S
C1138 C1144 1.489 1_455 S
C1139 C1134 1.399 . S
C1139 C1138 1.394 . S
C1139 C1140 1.516 1_454 S
C1140 C1139 1.516 1_656 S
C1140 C1141 1.502 1_655 S
C1140 C1142 1.561 . S
C1140 C1143 1.526 . S
C1141 H1125 0.959 . S
C1141 H1126 0.959 . S
C1141 H1127 0.961 . S
C1141 C1140 1.502 1_455 S
C1142 H1128 0.960 . S
C1142 H1129 0.961 . S
C1142 H1130 0.959 . S
C1142 C1140 1.561 . S
C1143 C1140 1.526 . S
C1143 C1144 1.366 1_556 S
C1143 C1148 1.390 . S
C1144 C1138 1.489 1_655 S
C1144 C1143 1.366 1_554 S
C1144 C1145 1.402 . S
C1145 H1131 0.929 . S
C1145 C1144 1.402 . S
C1145 C1146 1.385 1_554 S
C1146 H1132 0.931 . S
C1146 C1145 1.385 1_556 S
C1146 C1147 1.389 . S
C1147 C1146 1.389 . S
C1147 C1148 1.387 . S
C1148 H1133 0.930 . S
C1148 C1143 1.390 . S
C1148 C1147 1.387 . S
H1149 C1161 0.930 . S
H1150 C1163 0.930 . S
H1151 C1164 0.930 1_554 S
H1152 C1168 0.959 . S
H1153 C1168 0.959 . S
H1154 C1168 0.961 . S
H1155 C1169 0.960 . S
H1156 C1169 0.961 . S
H1157 C1169 0.959 . S
H1158 C1172 0.929 . S
H1159 C1173 0.931 . S
H1160 C1175 0.930 . S
C1161 H1149 0.930 . S
C1161 C1162 1.399 . S
C1161 C1166 1.399 . S
C1162 C1161 1.399 . S
C1162 C1163 1.376 . S
C1163 H1150 0.930 . S
C1163 C1162 1.376 . S
C1163 C1164 1.388 . S
C1164 H1151 0.930 1_556 S
C1164 C1163 1.388 . S
C1164 C1165 1.390 . S
C1165 C1164 1.390 . S
C1165 C1166 1.394 . S
C1165 C1171 1.465 1_556 S
C1166 C1161 1.399 . S
C1166 C1165 1.394 . S
C1166 C1167 1.516 . S
C1167 C1166 1.516 . S
C1167 C1168 1.502 . S
C1167 C1169 1.561 . S
C1167 C1170 1.526 1_556 S
C1168 H1152 0.959 . S
C1168 H1153 0.959 . S
C1168 H1154 0.961 . S
C1168 C1167 1.502 . S
C1169 H1155 0.960 . S
C1169 H1156 0.961 . S
C1169 H1157 0.959 . S
C1169 C1167 1.561 . S
C1170 C1167 1.526 1_554 S
C1170 C1171 1.396 . S
C1170 C1175 1.390 . S
C1171 C1165 1.465 1_554 S
C1171 C1170 1.396 . S
C1171 C1172 1.399 . S
C1172 H1158 0.929 . S
C1172 C1171 1.399 . S
C1172 C1173 1.385 . S
C1173 H1159 0.931 . S
C1173 C1172 1.385 . S
C1173 C1174 1.389 . S
C1174 C1173 1.389 . S
C1174 C1175 1.387 . S
C1175 H1160 0.930 . S
C1175 C1170 1.390 . S
C1175 C1174 1.387 . S
H1176 C1188 0.930 . S
H1177 C1190 0.930 . S
H1178 C1191 0.930 . S
H1179 C1195 0.959 . S
H1180 C1195 0.959 . S
H1181 C1195 0.961 . S
H1182 C1196 0.960 1_545 S
H1183 C1196 0.961 . S
H1184 C1196 0.959 . S
H1185 C1199 0.929 . S
H1186 C1200 0.931 . S
H1187 C1202 0.930 . S
C1188 H1176 0.930 . S
C1188 C1189 1.399 . S
C1188 C1193 1.399 . S
C1189 C1188 1.399 . S
C1189 C1190 1.376 . S
C1190 H1177 0.930 . S
C1190 C1189 1.376 . S
C1190 C1191 1.388 . S
C1191 H1178 0.930 . S
C1191 C1190 1.388 . S
C1191 C1192 1.390 . S
C1192 C1191 1.390 . S
C1192 C1193 1.394 . S
C1192 C1198 1.465 1_545 S
C1193 C1188 1.399 . S
C1193 C1192 1.394 . S
C1193 C1194 1.516 . S
C1194 C1193 1.516 . S
C1194 C1195 1.502 . S
C1194 C1196 1.561 1_545 S
C1194 C1197 1.526 1_545 S
C1195 H1179 0.959 . S
C1195 H1180 0.959 . S
C1195 H1181 0.961 . S
C1195 C1194 1.502 . S
C1196 H1182 0.960 1_565 S
C1196 H1183 0.961 . S
C1196 H1184 0.959 . S
C1196 C1194 1.561 1_565 S
C1197 C1194 1.526 1_565 S
C1197 C1198 1.396 . S
C1197 C1202 1.390 . S
C1198 C1192 1.465 1_565 S
C1198 C1197 1.396 . S
C1198 C1199 1.399 . S
C1199 H1185 0.929 . S
C1199 C1198 1.399 . S
C1199 C1200 1.385 . S
C1200 H1186 0.931 . S
C1200 C1199 1.385 . S
C1200 C1201 1.389 . S
C1201 C1200 1.389 . S
C1201 C1202 1.387 . S
C1202 H1187 0.930 . S
C1202 C1197 1.390 . S
C1202 C1201 1.387 . S
H1203 C1215 0.930 . S
H1204 C1217 0.930 . S
H1205 C1218 0.930 . S
H1206 C1222 0.959 . S
H1207 C1222 0.959 . S
H1208 C1222 0.961 . S
H1209 C1223 0.960 . S
H1210 C1223 0.961 1_565 S
H1211 C1223 0.959 . S
H1212 C1226 0.929 . S
H1213 C1227 0.931 . S
H1214 C1229 0.930 . S
C1215 H1203 0.930 . S
C1215 C1216 1.399 . S
C1215 C1220 1.399 . S
C1216 C1215 1.399 . S
C1216 C1217 1.376 . S
C1217 H1204 0.930 . S
C1217 C1216 1.376 . S
C1217 C1218 1.388 . S
C1218 H1205 0.930 . S
C1218 C1217 1.388 . S
C1218 C1219 1.390 . S
C1219 C1218 1.390 . S
C1219 C1220 1.394 . S
C1219 C1225 1.465 1_545 S
C1220 C1215 1.399 . S
C1220 C1219 1.394 . S
C1220 C1221 1.516 1_545 S
C1221 C1220 1.516 1_565 S
C1221 C1222 1.502 . S
C1221 C1223 1.561 1_565 S
C1221 C1224 1.526 . S
C1222 H1206 0.959 . S
C1222 H1207 0.959 . S
C1222 H1208 0.961 . S
C1222 C1221 1.502 . S
C1223 H1209 0.960 . S
C1223 H1210 0.961 1_545 S
C1223 H1211 0.959 . S
C1223 C1221 1.561 1_545 S
C1224 C1221 1.526 . S
C1224 C1225 1.396 . S
C1224 C1229 1.390 . S
C1225 C1219 1.465 1_565 S
C1225 C1224 1.396 . S
C1225 C1226 1.399 . S
C1226 H1212 0.929 . S
C1226 C1225 1.399 . S
C1226 C1227 1.385 . S
C1227 H1213 0.931 . S
C1227 C1226 1.385 . S
C1227 C1228 1.389 . S
C1228 C1227 1.389 . S
C1228 C1229 1.387 . S
C1229 H1214 0.930 . S
C1229 C1224 1.390 . S
C1229 C1228 1.387 . S
H1230 C1242 0.930 . S
H1231 C1244 0.930 . S
H1232 C1245 0.935 . S
H1233 C1249 0.959 . S
H1234 C1249 0.959 . S
H1235 C1249 0.961 . S
H1236 C1250 0.960 . S
H1237 C1250 0.961 1_565 S
H1238 C1250 0.959 1_565 S
H1239 C1253 0.929 . S
H1240 C1254 0.931 . S
H1241 C1256 0.930 . S
C1242 H1230 0.930 . S
C1242 C1243 1.399 . S
C1242 C1247 1.399 . S
C1243 C1242 1.399 . S
C1243 C1244 1.376 . S
C1244 H1231 0.930 . S
C1244 C1243 1.376 . S
C1244 C1245 1.388 . S
C1245 H1232 0.935 . S
C1245 C1244 1.388 . S
C1245 C1246 1.390 . S
C1246 C1245 1.390 . S
C1246 C1247 1.394 . S
C1246 C1252 1.465 1_545 S
C1247 C1242 1.399 . S
C1247 C1246 1.394 . S
C1247 C1248 1.516 . S
C1248 C1247 1.516 . S
C1248 C1249 1.502 . S
C1248 C1250 1.561 . S
C1248 C1251 1.526 1_545 S
C1249 H1233 0.959 . S
C1249 H1234 0.959 . S
C1249 H1235 0.961 . S
C1249 C1248 1.502 . S
C1250 H1236 0.960 . S
C1250 H1237 0.961 1_545 S
C1250 H1238 0.959 1_545 S
C1250 C1248 1.561 . S
C1251 C1248 1.526 1_565 S
C1251 C1252 1.396 . S
C1251 C1256 1.390 . S
C1252 C1246 1.465 1_565 S
C1252 C1251 1.396 . S
C1252 C1253 1.399 . S
C1253 H1239 0.929 . S
C1253 C1252 1.399 . S
C1253 C1254 1.385 . S
C1254 H1240 0.931 . S
C1254 C1253 1.385 . S
C1254 C1255 1.389 . S
C1255 C1254 1.389 . S
C1255 C1256 1.387 . S
C1256 H1241 0.930 . S
C1256 C1251 1.390 . S
C1256 C1255 1.387 . S
H1257 C1269 0.930 . S
H1258 C1271 0.930 . S
H1259 C1272 0.930 . S
H1260 C1276 0.959 . S
H1261 C1276 0.959 . S
H1262 C1276 0.961 . S
H1263 C1277 0.960 . S
H1264 C1277 0.961 1_565 S
H1265 C1277 0.959 . S
H1266 C1280 0.929 . S
H1267 C1281 0.931 . S
H1268 C1283 0.930 . S
C1269 H1257 0.930 . S
C1269 C1270 1.399 . S
C1269 C1274 1.399 . S
C1270 C1269 1.399 . S
C1270 C1271 1.376 . S
C1271 H1258 0.930 . S
C1271 C1270 1.376 . S
C1271 C1272 1.388 . S
C1272 H1259 0.930 . S
C1272 C1271 1.388 . S
C1272 C1273 1.390 . S
C1273 C1272 1.390 . S
C1273 C1274 1.394 . S
C1273 C1279 1.465 1_545 S
C1274 C1269 1.399 . S
C1274 C1273 1.394 . S
C1274 C1275 1.516 1_545 S
C1275 C1274 1.516 1_565 S
C1275 C1276 1.502 . S
C1275 C1277 1.561 1_565 S
C1275 C1278 1.526 . S
C1276 H1260 0.959 . S
C1276 H1261 0.959 . S
C1276 H1262 0.961 . S
C1276 C1275 1.502 . S
C1277 H1263 0.960 . S
C1277 H1264 0.961 1_545 S
C1277 H1265 0.959 . S
C1277 C1275 1.561 1_545 S
C1278 C1275 1.526 . S
C1278 C1279 1.396 . S
C1278 C1283 1.390 . S
C1279 C1273 1.465 1_565 S
C1279 C1278 1.396 . S
C1279 C1280 1.399 . S
C1280 H1266 0.929 . S
C1280 C1279 1.399 . S
C1280 C1281 1.385 . S
C1281 H1267 0.931 . S
C1281 C1280 1.385 . S
C1281 C1282 1.389 . S
C1282 C1281 1.389 . S
C1282 C1283 1.387 . S
C1283 H1268 0.930 . S
C1283 C1278 1.390 . S
C1283 C1282 1.387 . S
H1284 C1296 0.930 . S
H1285 C1298 0.930 . S
H1286 C1299 0.930 . S
H1287 C1303 0.959 . S
H1288 C1303 0.959 . S
H1289 C1303 0.961 . S
H1290 C1304 0.960 . S
H1291 C1304 0.961 . S
H1292 C1304 0.959 . S
H1293 C1307 0.929 . S
H1294 C1308 0.931 . S
H1295 C1310 0.930 . S
C1296 H1284 0.930 . S
C1296 C1297 1.399 . S
C1296 C1301 1.399 . S
C1297 C1296 1.399 . S
C1297 C1298 1.376 . S
C1298 H1285 0.930 . S
C1298 C1297 1.376 . S
C1298 C1299 1.388 . S
C1299 H1286 0.930 . S
C1299 C1298 1.388 . S
C1299 C1300 1.390 . S
C1300 C1299 1.390 . S
C1300 C1301 1.394 . S
C1300 C1306 1.465 . S
C1301 C1296 1.399 . S
C1301 C1300 1.394 . S
C1301 C1302 1.516 . S
C1302 C1301 1.516 . S
C1302 C1303 1.502 . S
C1302 C1304 1.561 . S
C1302 C1305 1.526 . S
C1303 H1287 0.959 . S
C1303 H1288 0.959 . S
C1303 H1289 0.961 . S
C1303 C1302 1.502 . S
C1304 H1290 0.960 . S
C1304 H1291 0.961 . S
C1304 H1292 0.959 . S
C1304 C1302 1.561 . S
C1305 C1302 1.526 . S
C1305 C1306 1.396 . S
C1305 C1310 1.390 . S
C1306 C1300 1.465 . S
C1306 C1305 1.396 . S
C1306 C1307 1.399 . S
C1307 H1293 0.929 . S
C1307 C1306 1.399 . S
C1307 C1308 1.385 . S
C1308 H1294 0.931 . S
C1308 C1307 1.385 . S
C1308 C1309 1.389 . S
C1309 C1308 1.389 . S
C1309 C1310 1.387 . S
C1310 H1295 0.930 . S
C1310 C1305 1.390 . S
C1310 C1309 1.387 . S
H1311 C1323 0.930 . S
H1312 C1325 0.930 . S
H1313 C1326 0.930 . S
H1314 C1330 0.959 . S
H1315 C1330 0.959 . S
H1316 C1330 0.961 . S
H1317 C1331 0.960 . S
H1318 C1331 0.961 . S
H1319 C1331 0.959 . S
H1320 C1334 0.929 . S
H1321 C1335 0.931 . S
H1322 C1337 0.930 . S
C1323 H1311 0.930 . S
C1323 C1324 1.399 . S
C1323 C1328 1.399 . S
C1324 C1323 1.399 . S
C1324 C1325 1.376 . S
C1325 H1312 0.930 . S
C1325 C1324 1.376 . S
C1325 C1326 1.388 . S
C1326 H1313 0.930 . S
C1326 C1325 1.388 . S
C1326 C1327 1.390 . S
C1327 C1326 1.390 . S
C1327 C1328 1.394 . S
C1327 C1333 1.465 . S
C1328 C1323 1.399 . S
C1328 C1327 1.394 . S
C1328 C1329 1.516 . S
C1329 C1328 1.516 . S
C1329 C1330 1.502 . S
C1329 C1331 1.561 . S
C1329 C1332 1.526 . S
C1330 H1314 0.959 . S
C1330 H1315 0.959 . S
C1330 H1316 0.961 . S
C1330 C1329 1.502 . S
C1331 H1317 0.960 . S
C1331 H1318 0.961 . S
C1331 H1319 0.959 . S
C1331 C1329 1.561 . S
C1332 C1329 1.526 . S
C1332 C1333 1.396 . S
C1332 C1337 1.390 . S
C1333 C1327 1.465 . S
C1333 C1332 1.396 . S
C1333 C1334 1.399 . S
C1334 H1320 0.929 . S
C1334 C1333 1.399 . S
C1334 C1335 1.385 . S
C1335 H1321 0.931 . S
C1335 C1334 1.385 . S
C1335 C1336 1.389 . S
C1336 C1335 1.389 . S
C1336 C1337 1.387 . S
C1337 H1322 0.930 . S
C1337 C1332 1.390 . S
C1337 C1336 1.387 . S
H1338 C1350 0.930 . S
H1339 C1352 0.930 . S
H1340 C1353 0.930 . S
H1341 C1357 0.959 . S
H1342 C1357 0.959 . S
H1343 C1357 0.961 . S
H1344 C1358 0.960 . S
H1345 C1358 0.961 . S
H1346 C1358 0.959 . S
H1347 C1361 0.929 . S
H1348 C1362 0.931 . S
H1349 C1364 0.930 . S
C1350 H1338 0.930 . S
C1350 C1351 1.399 . S
C1350 C1355 1.399 . S
C1351 C1350 1.399 . S
C1351 C1352 1.376 . S
C1352 H1339 0.930 . S
C1352 C1351 1.376 . S
C1352 C1353 1.388 . S
C1353 H1340 0.930 . S
C1353 C1352 1.388 . S
C1353 C1354 1.390 . S
C1354 C1353 1.390 . S
C1354 C1355 1.394 . S
C1354 C1360 1.465 . S
C1355 C1350 1.399 . S
C1355 C1354 1.394 . S
C1355 C1356 1.516 . S
C1356 C1355 1.516 . S
C1356 C1357 1.502 . S
C1356 C1358 1.561 . S
C1356 C1359 1.526 . S
C1357 H1341 0.959 . S
C1357 H1342 0.959 . S
C1357 H1343 0.961 . S
C1357 C1356 1.502 . S
C1358 H1344 0.960 . S
C1358 H1345 0.961 . S
C1358 H1346 0.959 . S
C1358 C1356 1.561 . S
C1359 C1356 1.526 . S
C1359 C1360 1.396 . S
C1359 C1364 1.390 . S
C1360 C1354 1.465 . S
C1360 C1359 1.396 . S
C1360 C1361 1.399 . S
C1361 H1347 0.929 . S
C1361 C1360 1.399 . S
C1361 C1362 1.385 . S
C1362 H1348 0.931 . S
C1362 C1361 1.385 . S
C1362 C1363 1.389 . S
C1363 C1362 1.389 . S
C1363 C1364 1.387 . S
C1364 H1349 0.930 . S
C1364 C1359 1.390 . S
C1364 C1363 1.387 . S
H1365 C1377 0.930 . S
H1366 C1379 0.930 . S
H1367 C1380 0.930 . S
H1368 C1384 0.959 . S
H1369 C1384 0.959 . S
H1370 C1384 0.961 . S
H1371 C1385 0.960 . S
H1372 C1385 0.961 . S
H1373 C1385 0.959 . S
H1374 C1388 0.929 . S
H1375 C1389 0.931 . S
H1376 C1391 0.930 . S
C1377 H1365 0.930 . S
C1377 C1378 1.399 . S
C1377 C1382 1.399 . S
C1378 C1377 1.399 . S
C1378 C1379 1.376 . S
C1379 H1366 0.930 . S
C1379 C1378 1.376 . S
C1379 C1380 1.388 . S
C1380 H1367 0.930 . S
C1380 C1379 1.388 . S
C1380 C1381 1.390 . S
C1381 C1380 1.390 . S
C1381 C1382 1.394 . S
C1381 C1387 1.465 . S
C1382 C1377 1.399 . S
C1382 C1381 1.394 . S
C1382 C1383 1.516 . S
C1383 C1382 1.516 . S
C1383 C1384 1.502 . S
C1383 C1385 1.561 . S
C1383 C1386 1.526 . S
C1384 H1368 0.959 . S
C1384 H1369 0.959 . S
C1384 H1370 0.961 . S
C1384 C1383 1.502 . S
C1385 H1371 0.960 . S
C1385 H1372 0.961 . S
C1385 H1373 0.959 . S
C1385 C1383 1.561 . S
C1386 C1383 1.526 . S
C1386 C1387 1.396 . S
C1386 C1391 1.390 . S
C1387 C1381 1.465 . S
C1387 C1386 1.396 . S
C1387 C1388 1.399 . S
C1388 H1374 0.929 . S
C1388 C1387 1.399 . S
C1388 C1389 1.385 . S
C1389 H1375 0.931 . S
C1389 C1388 1.385 . S
C1389 C1390 1.389 . S
C1390 C1389 1.389 . S
C1390 C1391 1.387 . S
C1391 H1376 0.930 . S
C1391 C1386 1.390 . S
C1391 C1390 1.387 . S
H1392 C1404 0.930 . S
H1393 C1406 0.930 . S
H1394 C1407 0.930 . S
H1395 C1411 0.959 . S
H1396 C1411 0.959 . S
H1397 C1411 0.961 . S
H1398 C1412 0.960 1_455 S
H1399 C1412 0.961 . S
H1400 C1412 0.959 1_455 S
H1401 C1415 0.929 1_455 S
H1402 C1416 0.931 . S
H1403 C1418 0.930 . S
C1404 H1392 0.930 . S
C1404 C1405 1.399 . S
C1404 C1409 1.399 . S
C1405 C1404 1.399 . S
C1405 C1406 1.376 . S
C1406 H1393 0.930 . S
C1406 C1405 1.376 . S
C1406 C1407 1.388 . S
C1407 H1394 0.930 . S
C1407 C1406 1.388 . S
C1407 C1408 1.390 . S
C1408 C1407 1.390 . S
C1408 C1409 1.394 . S
C1408 C1414 1.465 1_455 S
C1409 C1404 1.399 . S
C1409 C1408 1.394 . S
C1409 C1410 1.516 1_455 S
C1410 C1409 1.516 1_655 S
C1410 C1411 1.502 . S
C1410 C1412 1.561 . S
C1410 C1413 1.526 . S
C1411 H1395 0.959 . S
C1411 H1396 0.959 . S
C1411 H1397 0.961 . S
C1411 C1410 1.502 . S
C1412 H1398 0.960 1_655 S
C1412 H1399 0.961 . S
C1412 H1400 0.959 1_655 S
C1412 C1410 1.561 . S
C1413 C1410 1.526 . S
C1413 C1414 1.396 . S
C1413 C1418 1.390 . S
C1414 C1408 1.465 1_655 S
C1414 C1413 1.396 . S
C1414 C1415 1.399 . S
C1415 H1401 0.929 1_655 S
C1415 C1414 1.399 . S
C1415 C1416 1.385 . S
C1416 H1402 0.931 . S
C1416 C1415 1.385 . S
C1416 C1417 1.389 . S
C1417 C1416 1.389 . S
C1417 C1418 1.387 . S
C1418 H1403 0.930 . S
C1418 C1413 1.390 . S
C1418 C1417 1.387 . S
H1419 C1431 0.930 . S
H1420 C1433 0.930 . S
H1421 C1434 0.930 . S
H1422 C1438 0.959 . S
H1423 C1438 0.959 . S
H1424 C1438 0.961 . S
H1425 C1439 0.960 . S
H1426 C1439 0.961 . S
H1427 C1439 0.959 . S
H1428 C1442 0.929 . S
H1429 C1443 0.931 . S
H1430 C1445 0.930 . S
C1431 H1419 0.930 . S
C1431 C1432 1.399 . S
C1431 C1436 1.399 . S
C1432 C1431 1.399 . S
C1432 C1433 1.376 . S
C1433 H1420 0.930 . S
C1433 C1432 1.376 . S
C1433 C1434 1.388 . S
C1434 H1421 0.930 . S
C1434 C1433 1.388 . S
C1434 C1435 1.390 . S
C1435 C1434 1.390 . S
C1435 C1436 1.394 . S
C1435 C1441 1.465 . S
C1436 C1431 1.399 . S
C1436 C1435 1.394 . S
C1436 C1437 1.516 . S
C1437 C1436 1.516 . S
C1437 C1438 1.502 . S
C1437 C1439 1.561 . S
C1437 C1440 1.526 . S
C1438 H1422 0.959 . S
C1438 H1423 0.959 . S
C1438 H1424 0.961 . S
C1438 C1437 1.502 . S
C1439 H1425 0.960 . S
C1439 H1426 0.961 . S
C1439 H1427 0.959 . S
C1439 C1437 1.561 . S
C1440 C1437 1.526 . S
C1440 C1441 1.396 . S
C1440 C1445 1.390 . S
C1441 C1435 1.465 . S
C1441 C1440 1.396 . S
C1441 C1442 1.399 . S
C1442 H1428 0.929 . S
C1442 C1441 1.399 . S
C1442 C1443 1.385 . S
C1443 H1429 0.931 . S
C1443 C1442 1.385 . S
C1443 C1444 1.389 . S
C1444 C1443 1.389 . S
C1444 C1445 1.387 . S
C1445 H1430 0.930 . S
C1445 C1440 1.390 . S
C1445 C1444 1.387 . S
H1446 C1458 0.930 . S
H1447 C1460 0.930 . S
H1448 C1461 0.930 . S
H1449 C1465 0.959 . S
H1450 C1465 0.959 . S
H1451 C1465 0.961 . S
H1452 C1466 0.960 . S
H1453 C1466 0.961 . S
H1454 C1466 0.959 . S
H1455 C1469 0.929 . S
H1456 C1470 0.931 . S
H1457 C1472 0.930 . S
C1458 H1446 0.930 . S
C1458 C1459 1.399 . S
C1458 C1463 1.399 . S
C1459 C1458 1.399 . S
C1459 C1460 1.376 . S
C1460 H1447 0.930 . S
C1460 C1459 1.376 . S
C1460 C1461 1.388 . S
C1461 H1448 0.930 . S
C1461 C1460 1.388 . S
C1461 C1462 1.390 . S
C1462 C1461 1.390 . S
C1462 C1463 1.394 . S
C1462 C1468 1.465 . S
C1463 C1458 1.399 . S
C1463 C1462 1.394 . S
C1463 C1464 1.516 . S
C1464 C1463 1.516 . S
C1464 C1465 1.502 . S
C1464 C1466 1.561 . S
C1464 C1467 1.526 . S
C1465 H1449 0.959 . S
C1465 H1450 0.959 . S
C1465 H1451 0.961 . S
C1465 C1464 1.502 . S
C1466 H1452 0.960 . S
C1466 H1453 0.961 . S
C1466 H1454 0.959 . S
C1466 C1464 1.561 . S
C1467 C1464 1.526 . S
C1467 C1468 1.396 . S
C1467 C1472 1.390 . S
C1468 C1462 1.465 . S
C1468 C1467 1.396 . S
C1468 C1469 1.399 . S
C1469 H1455 0.929 . S
C1469 C1468 1.399 . S
C1469 C1470 1.385 . S
C1470 H1456 0.931 . S
C1470 C1469 1.385 . S
C1470 C1471 1.389 . S
C1471 C1470 1.389 . S
C1471 C1472 1.387 . S
C1472 H1457 0.930 . S
C1472 C1467 1.390 . S
C1472 C1471 1.387 . S
H1473 C1485 0.930 . S
H1474 C1487 0.930 . S
H1475 C1488 0.930 . S
H1476 C1492 0.959 . S
H1477 C1492 0.959 . S
H1478 C1492 0.961 . S
H1479 C1493 0.960 1_655 S
H1480 C1493 0.961 . S
H1481 C1493 0.959 1_655 S
H1482 C1496 0.914 1_655 S
H1483 C1497 0.931 . S
H1484 C1499 0.930 . S
C1485 H1473 0.930 . S
C1485 C1486 1.399 . S
C1485 C1490 1.399 . S
C1486 C1485 1.399 . S
C1486 C1487 1.376 . S
C1487 H1474 0.930 . S
C1487 C1486 1.376 . S
C1487 C1488 1.388 . S
C1488 H1475 0.930 . S
C1488 C1487 1.388 . S
C1488 C1489 1.390 . S
C1489 C1488 1.390 . S
C1489 C1490 1.394 . S
C1489 C1495 1.465 1_655 S
C1490 C1485 1.399 . S
C1490 C1489 1.394 . S
C1490 C1491 1.516 1_655 S
C1491 C1490 1.516 1_455 S
C1491 C1492 1.502 . S
C1491 C1493 1.561 . S
C1491 C1494 1.526 . S
C1492 H1476 0.959 . S
C1492 H1477 0.959 . S
C1492 H1478 0.961 . S
C1492 C1491 1.502 . S
C1493 H1479 0.960 1_455 S
C1493 H1480 0.961 . S
C1493 H1481 0.959 1_455 S
C1493 C1491 1.561 . S
C1494 C1491 1.526 . S
C1494 C1495 1.396 . S
C1494 C1499 1.390 . S
C1495 C1489 1.465 1_455 S
C1495 C1494 1.396 . S
C1495 C1496 1.399 . S
C1496 H1482 0.914 1_455 S
C1496 C1495 1.399 . S
C1496 C1497 1.385 . S
C1497 H1483 0.931 . S
C1497 C1496 1.385 . S
C1497 C1498 1.389 . S
C1498 C1497 1.389 . S
C1498 C1499 1.387 . S
C1499 H1484 0.930 . S
C1499 C1494 1.390 . S
C1499 C1498 1.387 . S
H1500 C1512 0.930 . S
H1501 C1514 0.930 . S
H1502 C1515 0.917 1_455 S
H1503 C1519 0.959 . S
H1504 C1519 0.959 . S
H1505 C1519 0.961 . S
H1506 C1520 0.960 . S
H1507 C1520 0.961 1_455 S
H1508 C1520 0.959 1_455 S
H1509 C1523 0.929 . S
H1510 C1524 0.931 . S
H1511 C1526 0.930 . S
C1512 H1500 0.930 . S
C1512 C1513 1.399 . S
C1512 C1517 1.399 . S
C1513 C1512 1.399 . S
C1513 C1514 1.376 . S
C1514 H1501 0.930 . S
C1514 C1513 1.376 . S
C1514 C1515 1.388 . S
C1515 H1502 0.917 1_655 S
C1515 C1514 1.388 . S
C1515 C1516 1.390 . S
C1516 C1515 1.390 . S
C1516 C1517 1.394 . S
C1516 C1522 1.465 1_655 S
C1517 C1512 1.399 . S
C1517 C1516 1.394 . S
C1517 C1518 1.516 . S
C1518 C1517 1.516 . S
C1518 C1519 1.502 . S
C1518 C1520 1.561 . S
C1518 C1521 1.526 1_655 S
C1519 H1503 0.959 . S
C1519 H1504 0.959 . S
C1519 H1505 0.961 . S
C1519 C1518 1.502 . S
C1520 H1506 0.960 . S
C1520 H1507 0.961 1_655 S
C1520 H1508 0.959 1_655 S
C1520 C1518 1.561 . S
C1521 C1518 1.526 1_455 S
C1521 C1522 1.396 . S
C1521 C1526 1.390 . S
C1522 C1516 1.465 1_455 S
C1522 C1521 1.396 . S
C1522 C1523 1.399 . S
C1523 H1509 0.929 . S
C1523 C1522 1.399 . S
C1523 C1524 1.385 . S
C1524 H1510 0.931 . S
C1524 C1523 1.385 . S
C1524 C1525 1.389 . S
C1525 C1524 1.389 . S
C1525 C1526 1.387 . S
C1526 H1511 0.930 . S
C1526 C1521 1.390 . S
C1526 C1525 1.387 . S
H1527 C1539 0.930 . S
H1528 C1541 0.930 . S
H1529 C1542 0.930 . S
H1530 C1546 0.959 . S
H1531 C1546 0.959 . S
H1532 C1546 0.961 . S
H1533 C1547 0.960 . S
H1534 C1547 0.961 . S
H1535 C1547 0.959 . S
H1536 C1550 0.929 . S
H1537 C1551 0.931 . S
H1538 C1553 0.930 . S
C1539 H1527 0.930 . S
C1539 C1540 1.399 . S
C1539 C1544 1.399 . S
C1540 C1539 1.399 . S
C1540 C1541 1.376 . S
C1541 H1528 0.930 . S
C1541 C1540 1.376 . S
C1541 C1542 1.388 . S
C1542 H1529 0.930 . S
C1542 C1541 1.388 . S
C1542 C1543 1.390 . S
C1543 C1542 1.390 . S
C1543 C1544 1.394 . S
C1543 C1549 1.465 . S
C1544 C1539 1.399 . S
C1544 C1543 1.394 . S
C1544 C1545 1.516 . S
C1545 C1544 1.516 . S
C1545 C1546 1.502 . S
C1545 C1547 1.561 . S
C1545 C1548 1.526 . S
C1546 H1530 0.959 . S
C1546 H1531 0.959 . S
C1546 H1532 0.961 . S
C1546 C1545 1.502 . S
C1547 H1533 0.960 . S
C1547 H1534 0.961 . S
C1547 H1535 0.959 . S
C1547 C1545 1.561 . S
C1548 C1545 1.526 . S
C1548 C1549 1.396 . S
C1548 C1553 1.390 . S
C1549 C1543 1.465 . S
C1549 C1548 1.396 . S
C1549 C1550 1.399 . S
C1550 H1536 0.929 . S
C1550 C1549 1.399 . S
C1550 C1551 1.385 . S
C1551 H1537 0.931 . S
C1551 C1550 1.385 . S
C1551 C1552 1.389 . S
C1552 C1551 1.389 . S
C1552 C1553 1.387 . S
C1553 H1538 0.930 . S
C1553 C1548 1.390 . S
C1553 C1552 1.387 . S
H1554 C1566 0.930 . S
H1555 C1568 0.930 . S
H1556 C1569 0.930 . S
H1557 C1573 0.959 . S
H1558 C1573 0.959 . S
H1559 C1573 0.961 . S
H1560 C1574 0.960 . S
H1561 C1574 0.961 . S
H1562 C1574 0.959 . S
H1563 C1577 0.929 . S
H1564 C1578 0.931 . S
H1565 C1580 0.930 . S
C1566 H1554 0.930 . S
C1566 C1567 1.399 . S
C1566 C1571 1.399 . S
C1567 C1566 1.399 . S
C1567 C1568 1.376 . S
C1568 H1555 0.930 . S
C1568 C1567 1.376 . S
C1568 C1569 1.388 . S
C1569 H1556 0.930 . S
C1569 C1568 1.388 . S
C1569 C1570 1.390 . S
C1570 C1569 1.390 . S
C1570 C1571 1.394 . S
C1570 C1576 1.465 . S
C1571 C1566 1.399 . S
C1571 C1570 1.394 . S
C1571 C1572 1.516 . S
C1572 C1571 1.516 . S
C1572 C1573 1.502 . S
C1572 C1574 1.561 . S
C1572 C1575 1.526 . S
C1573 H1557 0.959 . S
C1573 H1558 0.959 . S
C1573 H1559 0.961 . S
C1573 C1572 1.502 . S
C1574 H1560 0.960 . S
C1574 H1561 0.961 . S
C1574 H1562 0.959 . S
C1574 C1572 1.561 . S
C1575 C1572 1.526 . S
C1575 C1576 1.396 . S
C1575 C1580 1.390 . S
C1576 C1570 1.465 . S
C1576 C1575 1.396 . S
C1576 C1577 1.399 . S
C1577 H1563 0.929 . S
C1577 C1576 1.399 . S
C1577 C1578 1.385 . S
C1578 H1564 0.931 . S
C1578 C1577 1.385 . S
C1578 C1579 1.389 . S
C1579 C1578 1.389 . S
C1579 C1580 1.387 . S
C1580 H1565 0.930 . S
C1580 C1575 1.390 . S
C1580 C1579 1.387 . S
H1581 C1593 0.930 . S
H1582 C1595 0.930 . S
H1583 C1596 0.930 . S
H1584 C1600 0.959 . S
H1585 C1600 0.959 . S
H1586 C1600 0.961 . S
H1587 C1601 0.960 1_655 S
H1588 C1601 0.961 . S
H1589 C1601 0.959 . S
H1590 C1604 0.929 . S
H1591 C1605 0.931 . S
H1592 C1607 0.930 . S
C1593 H1581 0.930 . S
C1593 C1594 1.399 . S
C1593 C1598 1.399 . S
C1594 C1593 1.399 . S
C1594 C1595 1.376 . S
C1595 H1582 0.930 . S
C1595 C1594 1.376 . S
C1595 C1596 1.388 . S
C1596 H1583 0.930 . S
C1596 C1595 1.388 . S
C1596 C1597 1.390 . S
C1597 C1596 1.390 . S
C1597 C1598 1.394 . S
C1597 C1603 1.465 1_655 S
C1598 C1593 1.399 . S
C1598 C1597 1.394 . S
C1598 C1599 1.516 . S
C1599 C1598 1.516 . S
C1599 C1600 1.502 . S
C1599 C1601 1.561 1_655 S
C1599 C1602 1.526 1_655 S
C1600 H1584 0.959 . S
C1600 H1585 0.959 . S
C1600 H1586 0.961 . S
C1600 C1599 1.502 . S
C1601 H1587 0.960 1_455 S
C1601 H1588 0.961 . S
C1601 H1589 0.959 . S
C1601 C1599 1.561 1_455 S
C1602 C1599 1.526 1_455 S
C1602 C1603 1.396 . S
C1602 C1607 1.390 . S
C1603 C1597 1.465 1_455 S
C1603 C1602 1.396 . S
C1603 C1604 1.399 . S
C1604 H1590 0.929 . S
C1604 C1603 1.399 . S
C1604 C1605 1.385 . S
C1605 H1591 0.931 . S
C1605 C1604 1.385 . S
C1605 C1606 1.389 . S
C1606 C1605 1.389 . S
C1606 C1607 1.387 . S
C1607 H1592 0.930 . S
C1607 C1602 1.390 . S
C1607 C1606 1.387 . S
C541 C120 0.359 . S
C553 C21 0.459 . S
C568 C87 0.341 . S
C580 C54 0.177 . S
C595 C153 0.225 . S
C607 C252 0.351 . S
C622 C186 0.460 . S
C634 C219 0.400 . S
C649 C285 0.317 . S
C661 C384 0.182 . S
C676 C318 0.410 . S
C688 C351 0.448 . S
C703 C516 0.459 . S
C715 C417 0.394 . S
C730 C483 0.461 . S
C742 C450 0.431 . S
C757 N2 1.186 . S
C769 N332 1.260 . S
C784 N365 1.252 . S
C796 N35 1.184 . S
C811 N266 1.194 . S
C823 N68 1.256 . S
C838 N299 1.184 . S
C850 N101 1.261 . S
C865 N464 1.214 . S
C877 N134 1.240 . S
C892 N497 1.185 . S
C904 N167 1.260 . S
C919 N398 1.246 . S
C931 N200 1.188 . S
C946 N431 1.203 . S
C958 N233 1.249 . S
C973 N13 1.623 . S
C985 N145 1.652 . S
C1000 N46 1.594 . S
C1012 N178 1.672 . S
C1027 N211 1.646 . S
C1039 N79 1.630 . S
C1054 N112 1.645 . S
C1066 N244 1.631 . S
C1081 N277 1.663 . S
C1093 N409 1.610 . S
C1108 N442 1.667 . S
C1120 N310 1.604 . S
C1135 N343 1.633 . S
C1147 N475 1.617 . S
C1162 N508 1.592 . S
C1174 N376 1.662 . S
C1189 C18 1.390 . S
C1201 C51 1.430 . S
C1216 C117 1.464 . S
C1228 C84 1.434 . S
C1243 C183 1.401 . S
C1255 C150 1.467 . S
C1270 C216 1.444 . S
C1282 C249 1.395 . S
C1297 C315 1.467 . S
C1309 C282 1.422 . S
C1324 C381 1.465 . S
C1336 C348 1.432 . S
C1351 C414 1.441 . S
C1363 C447 1.397 . S
C1378 C513 1.414 . S
C1390 C480 1.461 . S
C1405 C7 1.021 . S
C1417 C304 0.934 . S
C1432 C40 0.983 . S
C1444 C271 0.933 . S
C1459 C73 0.997 . S
C1471 C370 1.080 . S
C1486 C106 1.016 . S
C1498 C337 0.933 . S
C1513 C139 0.940 . S
C1525 C436 0.992 . S
C1540 C403 0.946 . S
C1552 C172 1.002 . S
C1567 C205 0.932 . S
C1579 C502 0.973 . S
C1594 C469 0.930 . S
C1606 C238 0.967 . S
