# Generated by pormake.
# Topology umh, (4)-cn, num edge types: 1
# Building blocks:
#     Node 0, Type 0, BuildingBlock: NAWXER_clean_sbu_0, # of connection points: 4
#     Node 1, Type 0, BuildingBlock: NAWXER_clean_sbu_0, # of connection points: 4
#     Node 2, Type 0, BuildingBlock: NAWXER_clean_sbu_0, # of connection points: 4
#     Node 3, Type 0, BuildingBlock: NAWXER_clean_sbu_0, # of connection points: 4
#     Node 4, Type 0, BuildingBlock: NAWXER_clean_sbu_0, # of connection points: 4
#     Node 5, Type 0, BuildingBlock: NAWXER_clean_sbu_0, # of connection points: 4
#     Node 6, Type 0, BuildingBlock: NAWXER_clean_sbu_0, # of connection points: 4
#     Node 7, Type 0, BuildingBlock: NAWXER_clean_sbu_0, # of connection points: 4
#     Node 8, Type 0, BuildingBlock: NAWXER_clean_sbu_0, # of connection points: 4
#     Node 9, Type 0, BuildingBlock: NAWXER_clean_sbu_0, # of connection points: 4
#     Node 10, Type 0, BuildingBlock: NAWXER_clean_sbu_0, # of connection points: 4
#     Node 11, Type 0, BuildingBlock: NAWXER_clean_sbu_0, # of connection points: 4
#     Node 12, Type 0, BuildingBlock: NAWXER_clean_sbu_0, # of connection points: 4
#     Node 13, Type 0, BuildingBlock: NAWXER_clean_sbu_0, # of connection points: 4
#     Node 14, Type 0, BuildingBlock: NAWXER_clean_sbu_0, # of connection points: 4
#     Node 15, Type 0, BuildingBlock: NAWXER_clean_sbu_0, # of connection points: 4
#     Edge 16, Type (0, 0), BuildingBlock: OJICUG_clean_linker_0, # of connection points: 2
#     Edge 17, Type (0, 0), BuildingBlock: OJICUG_clean_linker_0, # of connection points: 2
#     Edge 18, Type (0, 0), BuildingBlock: OJICUG_clean_linker_0, # of connection points: 2
#     Edge 19, Type (0, 0), BuildingBlock: OJICUG_clean_linker_0, # of connection points: 2
#     Edge 20, Type (0, 0), BuildingBlock: OJICUG_clean_linker_0, # of connection points: 2
#     Edge 21, Type (0, 0), BuildingBlock: OJICUG_clean_linker_0, # of connection points: 2
#     Edge 22, Type (0, 0), BuildingBlock: OJICUG_clean_linker_0, # of connection points: 2
#     Edge 23, Type (0, 0), BuildingBlock: OJICUG_clean_linker_0, # of connection points: 2
#     Edge 24, Type (0, 0), BuildingBlock: OJICUG_clean_linker_0, # of connection points: 2
#     Edge 25, Type (0, 0), BuildingBlock: OJICUG_clean_linker_0, # of connection points: 2
#     Edge 26, Type (0, 0), BuildingBlock: OJICUG_clean_linker_0, # of connection points: 2
#     Edge 27, Type (0, 0), BuildingBlock: OJICUG_clean_linker_0, # of connection points: 2
#     Edge 28, Type (0, 0), BuildingBlock: OJICUG_clean_linker_0, # of connection points: 2
#     Edge 29, Type (0, 0), BuildingBlock: OJICUG_clean_linker_0, # of connection points: 2
#     Edge 30, Type (0, 0), BuildingBlock: OJICUG_clean_linker_0, # of connection points: 2
#     Edge 31, Type (0, 0), BuildingBlock: OJICUG_clean_linker_0, # of connection points: 2
#     Edge 32, Type (0, 0), BuildingBlock: OJICUG_clean_linker_0, # of connection points: 2
#     Edge 33, Type (0, 0), BuildingBlock: OJICUG_clean_linker_0, # of connection points: 2
#     Edge 34, Type (0, 0), BuildingBlock: OJICUG_clean_linker_0, # of connection points: 2
#     Edge 35, Type (0, 0), BuildingBlock: OJICUG_clean_linker_0, # of connection points: 2
#     Edge 36, Type (0, 0), BuildingBlock: OJICUG_clean_linker_0, # of connection points: 2
#     Edge 37, Type (0, 0), BuildingBlock: OJICUG_clean_linker_0, # of connection points: 2
#     Edge 38, Type (0, 0), BuildingBlock: OJICUG_clean_linker_0, # of connection points: 2
#     Edge 39, Type (0, 0), BuildingBlock: OJICUG_clean_linker_0, # of connection points: 2
#     Edge 40, Type (0, 0), BuildingBlock: OJICUG_clean_linker_0, # of connection points: 2
#     Edge 41, Type (0, 0), BuildingBlock: OJICUG_clean_linker_0, # of connection points: 2
#     Edge 42, Type (0, 0), BuildingBlock: OJICUG_clean_linker_0, # of connection points: 2
#     Edge 43, Type (0, 0), BuildingBlock: OJICUG_clean_linker_0, # of connection points: 2
#     Edge 44, Type (0, 0), BuildingBlock: OJICUG_clean_linker_0, # of connection points: 2
#     Edge 45, Type (0, 0), BuildingBlock: OJICUG_clean_linker_0, # of connection points: 2
#     Edge 46, Type (0, 0), BuildingBlock: OJICUG_clean_linker_0, # of connection points: 2
#     Edge 47, Type (0, 0), BuildingBlock: OJICUG_clean_linker_0, # of connection points: 2
# Relax obj value: 0.044
# Max RMSD: 0.109
# Mean RMSD: 0.109
data_MOF--net-umh--node1-NAWXER_clean_sbu_0--edge1-OJICUG_clean_linker_0
_symmetry_space_group_name_H-M    P1
_symmetry_Int_Tables_number       1
_symmetry_cell_setting            triclinic
loop_
_symmetry_equiv_pos_as_xyz
'x, y, z'
_cell_length_a     30.22638
_cell_length_b     30.128929
_cell_length_c     38.214106
_cell_angle_alpha  90.014332
_cell_angle_beta   89.986669
_cell_angle_gamma 89.995487
loop_
_atom_site_label
_atom_site_type_symbol
_atom_site_fract_x
_atom_site_fract_y
_atom_site_fract_z
_atom_type_partial_charge
C0 C 0.34146 0.09798 0.10361 0.0
C1 C 0.28903 0.04645 0.21786 0.0
O2 O 0.36204 0.11594 0.12929 0.0
Zn3 Zn 0.3616 0.11326 0.1853 0.0
O4 O 0.31123 0.06969 0.10978 0.0
Zn5 Zn 0.3145 0.07058 0.16045 0.0
O6 O 0.29014 0.13488 0.17328 0.0
O7 O 0.34407 0.17353 0.1975 0.0
O8 O 0.27482 0.03424 0.18802 0.0
O9 O 0.32065 0.07472 0.2199 0.0
O10 O 0.42076 0.09126 0.19605 0.0
O11 O 0.37761 0.04161 0.1708 0.0
C12 C 0.30405 0.17083 0.18733 0.0
C13 C 0.41505 0.05221 0.18418 0.0
C14 C 0.44033 0.29088 0.71788 0.0
C15 C 0.38946 0.34311 0.60339 0.0
O16 O 0.41221 0.32267 0.71977 0.0
Zn17 Zn 0.37399 0.36367 0.685 0.0
O18 O 0.45254 0.27642 0.6881 0.0
Zn19 Zn 0.4165 0.31617 0.66035 0.0
O20 O 0.44551 0.37943 0.67063 0.0
O21 O 0.39608 0.423 0.69567 0.0
O22 O 0.41754 0.3127 0.60968 0.0
O23 O 0.37154 0.3639 0.629 0.0
O24 O 0.31382 0.34626 0.69712 0.0
O25 O 0.35231 0.29195 0.67312 0.0
C26 C 0.43503 0.41708 0.68391 0.0
C27 C 0.31646 0.30606 0.68706 0.0
C28 C 0.19698 0.44206 0.21785 0.0
C29 C 0.14444 0.39092 0.10353 0.0
O30 O 0.16531 0.41384 0.21986 0.0
Zn31 Zn 0.1243 0.37543 0.1852 0.0
O32 O 0.21118 0.45432 0.18803 0.0
Zn33 Zn 0.17145 0.4181 0.16042 0.0
O34 O 0.10837 0.44712 0.17082 0.0
O35 O 0.06517 0.39748 0.196 0.0
O36 O 0.17474 0.41912 0.10977 0.0
O37 O 0.12383 0.37291 0.12918 0.0
O38 O 0.14173 0.31512 0.1973 0.0
O39 O 0.19574 0.35375 0.17317 0.0
C40 C 0.07091 0.43654 0.18418 0.0
C41 C 0.18177 0.3178 0.18717 0.0
C42 C 0.05114 0.07263 0.68399 0.0
C43 C 0.16972 0.18365 0.68702 0.0
O44 O 0.04071 0.11022 0.67061 0.0
Zn45 Zn 0.06976 0.17343 0.6602 0.0
O46 O 0.09007 0.06675 0.69581 0.0
Zn47 Zn 0.1122 0.12603 0.68501 0.0
O48 O 0.07388 0.16718 0.71964 0.0
O49 O 0.03366 0.21332 0.68781 0.0
O50 O 0.17233 0.14349 0.69717 0.0
O51 O 0.13392 0.1977 0.673 0.0
O52 O 0.06883 0.17666 0.60953 0.0
O53 O 0.11476 0.12552 0.62901 0.0
C54 C 0.04577 0.19897 0.71763 0.0
C55 C 0.09689 0.1462 0.60334 0.0
C56 C 0.28935 0.44182 0.34688 0.0
C57 C 0.34179 0.39062 0.46119 0.0
O58 O 0.32098 0.41354 0.34486 0.0
Zn59 Zn 0.36193 0.37507 0.37952 0.0
O60 O 0.27516 0.45409 0.37671 0.0
Zn61 Zn 0.31482 0.41781 0.4043 0.0
O62 O 0.37793 0.44675 0.39389 0.0
O63 O 0.4211 0.39705 0.36871 0.0
O64 O 0.31154 0.41886 0.45495 0.0
O65 O 0.36239 0.37257 0.43554 0.0
O66 O 0.34441 0.31477 0.3674 0.0
O67 O 0.29045 0.35349 0.39154 0.0
C68 C 0.41538 0.43613 0.38052 0.0
C69 C 0.30438 0.31752 0.37754 0.0
C70 C 0.05095 0.41728 0.88079 0.0
C71 C 0.16949 0.30622 0.87768 0.0
O72 O 0.04048 0.37965 0.8941 0.0
Zn73 Zn 0.06948 0.31641 0.90443 0.0
O74 O 0.0899 0.42316 0.86902 0.0
Zn75 Zn 0.11198 0.36385 0.87972 0.0
O76 O 0.07373 0.32279 0.845 0.0
O77 O 0.03341 0.27662 0.87672 0.0
O78 O 0.17213 0.3464 0.86759 0.0
O79 O 0.13365 0.29215 0.89165 0.0
O80 O 0.06847 0.31302 0.95509 0.0
O81 O 0.11449 0.36416 0.93573 0.0
C82 C 0.0456 0.29101 0.84693 0.0
C83 C 0.09657 0.34341 0.96136 0.0
C84 C 0.07083 0.05219 0.3807 0.0
C85 C 0.18191 0.17071 0.37753 0.0
O86 O 0.10828 0.04157 0.39406 0.0
Zn87 Zn 0.17141 0.07048 0.40439 0.0
O88 O 0.06514 0.09123 0.36884 0.0
Zn89 Zn 0.12432 0.1132 0.37957 0.0
O90 O 0.16523 0.07463 0.34494 0.0
O91 O 0.21105 0.03412 0.37678 0.0
O92 O 0.14189 0.17345 0.36739 0.0
O93 O 0.19581 0.13476 0.39156 0.0
O94 O 0.17471 0.06958 0.45505 0.0
O95 O 0.12391 0.11586 0.43558 0.0
C96 C 0.19684 0.04634 0.34696 0.0
C97 C 0.14449 0.09788 0.46125 0.0
C98 C 0.3162 0.18378 0.87782 0.0
C99 C 0.43479 0.07278 0.88091 0.0
O100 O 0.35199 0.19785 0.89186 0.0
Zn101 Zn 0.41614 0.1736 0.90468 0.0
O102 O 0.3136 0.14361 0.8677 0.0
Zn103 Zn 0.37373 0.12616 0.87987 0.0
O104 O 0.37115 0.12569 0.93587 0.0
O105 O 0.41705 0.17686 0.95536 0.0
O106 O 0.39588 0.06688 0.86909 0.0
O107 O 0.44521 0.11038 0.89429 0.0
O108 O 0.45225 0.21346 0.87706 0.0
O109 O 0.41205 0.16727 0.84525 0.0
C110 C 0.38901 0.14639 0.96155 0.0
C111 C 0.44015 0.19908 0.84725 0.0
C112 C 0.64433 0.89139 0.96125 0.0
C113 C 0.69681 0.94287 0.84699 0.0
O114 O 0.67457 0.91968 0.95507 0.0
Zn115 Zn 0.6713 0.91878 0.9044 0.0
O116 O 0.62376 0.87343 0.93557 0.0
Zn117 Zn 0.62421 0.87609 0.87955 0.0
O118 O 0.64173 0.81582 0.86736 0.0
O119 O 0.69566 0.85447 0.89157 0.0
O120 O 0.66518 0.9146 0.84495 0.0
O121 O 0.711 0.95509 0.87683 0.0
O122 O 0.60819 0.94774 0.89405 0.0
O123 O 0.56505 0.8981 0.8688 0.0
C124 C 0.68174 0.81853 0.87752 0.0
C125 C 0.57075 0.93714 0.88067 0.0
C126 C 0.5968 0.64575 0.46124 0.0
C127 C 0.54581 0.69811 0.34684 0.0
O128 O 0.56868 0.67612 0.45498 0.0
Zn129 Zn 0.56971 0.67273 0.40432 0.0
O130 O 0.61473 0.625 0.43562 0.0
Zn131 Zn 0.61224 0.62531 0.37961 0.0
O132 O 0.67238 0.6428 0.36748 0.0
O133 O 0.63386 0.69703 0.39156 0.0
O134 O 0.57396 0.66634 0.34489 0.0
O135 O 0.53361 0.71249 0.37663 0.0
O136 O 0.54075 0.60947 0.39398 0.0
O137 O 0.59019 0.56597 0.36889 0.0
C138 C 0.66971 0.68298 0.37759 0.0
C139 C 0.55124 0.57185 0.38066 0.0
C140 C 0.8041 0.67162 0.87758 0.0
C141 C 0.91507 0.55298 0.88062 0.0
O142 O 0.84414 0.67433 0.86745 0.0
Zn143 Zn 0.86164 0.61404 0.87958 0.0
O144 O 0.79016 0.63566 0.89158 0.0
Zn145 Zn 0.8145 0.57134 0.90435 0.0
O146 O 0.81119 0.57034 0.95501 0.0
O147 O 0.86208 0.61657 0.9356 0.0
O148 O 0.87761 0.54238 0.89397 0.0
O149 O 0.92079 0.59204 0.8688 0.0
O150 O 0.8207 0.57556 0.84491 0.0
O151 O 0.77484 0.53506 0.87673 0.0
C152 C 0.84147 0.59856 0.96124 0.0
C153 C 0.78907 0.54729 0.84691 0.0
C154 C 0.81633 0.80552 0.37783 0.0
C155 C 0.93486 0.91658 0.38096 0.0
O156 O 0.8137 0.8457 0.36773 0.0
Zn157 Zn 0.87382 0.86318 0.3799 0.0
O158 O 0.85213 0.79147 0.39185 0.0
Zn159 Zn 0.91627 0.81575 0.40468 0.0
O160 O 0.9172 0.81247 0.45535 0.0
O161 O 0.87126 0.86363 0.4359 0.0
O162 O 0.9453 0.87897 0.39431 0.0
O163 O 0.89594 0.92247 0.36915 0.0
O164 O 0.91215 0.82209 0.34525 0.0
O165 O 0.95239 0.77591 0.37703 0.0
C166 C 0.88914 0.84292 0.46156 0.0
C167 C 0.94027 0.7903 0.34723 0.0
C168 C 0.69694 0.54714 0.71779 0.0
C169 C 0.64457 0.59827 0.60343 0.0
O170 O 0.71118 0.53486 0.68798 0.0
Zn171 Zn 0.67152 0.57111 0.66034 0.0
O172 O 0.66529 0.5754 0.71978 0.0
Zn173 Zn 0.62436 0.61383 0.68509 0.0
O174 O 0.5652 0.59184 0.69586 0.0
O175 O 0.6084 0.54215 0.67071 0.0
O176 O 0.62395 0.61631 0.62907 0.0
O177 O 0.67485 0.57006 0.60968 0.0
O178 O 0.69584 0.63545 0.67311 0.0
O179 O 0.64184 0.67414 0.6972 0.0
C180 C 0.57094 0.55276 0.68405 0.0
C181 C 0.68188 0.67142 0.6871 0.0
C182 C 0.94031 0.69845 0.21785 0.0
C183 C 0.88933 0.6461 0.10342 0.0
O184 O 0.95249 0.71287 0.18806 0.0
Zn185 Zn 0.91642 0.67308 0.16035 0.0
O186 O 0.91219 0.66666 0.21977 0.0
Zn187 Zn 0.87394 0.62562 0.18504 0.0
O188 O 0.89604 0.56631 0.19573 0.0
O189 O 0.94545 0.60984 0.17066 0.0
O190 O 0.87142 0.62533 0.12904 0.0
O191 O 0.91742 0.67649 0.10968 0.0
O192 O 0.85224 0.69733 0.17314 0.0
O193 O 0.81379 0.64305 0.19719 0.0
C194 C 0.93499 0.57221 0.18396 0.0
C195 C 0.81641 0.68324 0.18711 0.0
C196 C 0.84161 0.89125 0.60366 0.0
C197 C 0.78917 0.94272 0.71795 0.0
O198 O 0.81138 0.91954 0.60986 0.0
Zn199 Zn 0.81465 0.91862 0.66053 0.0
O200 O 0.86219 0.87327 0.62933 0.0
Zn201 Zn 0.86175 0.87592 0.68534 0.0
O202 O 0.84423 0.81564 0.6975 0.0
O203 O 0.7903 0.85431 0.67331 0.0
O204 O 0.82079 0.91445 0.71998 0.0
O205 O 0.77497 0.95494 0.68811 0.0
O206 O 0.87776 0.94757 0.67088 0.0
O207 O 0.92092 0.89793 0.6961 0.0
C208 C 0.80421 0.81835 0.68733 0.0
C209 C 0.91521 0.93697 0.68425 0.0
C210 C 0.55098 0.91655 0.18398 0.0
C211 C 0.66963 0.8056 0.18699 0.0
O212 O 0.5899 0.92244 0.1958 0.0
Zn213 Zn 0.61207 0.86318 0.18499 0.0
O214 O 0.54057 0.87894 0.17059 0.0
Zn215 Zn 0.56968 0.81575 0.16016 0.0
O216 O 0.53361 0.77583 0.18776 0.0
O217 O 0.5738 0.822 0.2196 0.0
O218 O 0.63385 0.79153 0.17296 0.0
O219 O 0.67221 0.84577 0.19714 0.0
O220 O 0.61464 0.86369 0.12898 0.0
O221 O 0.56875 0.81252 0.10949 0.0
C222 C 0.54572 0.79018 0.21758 0.0
C223 C 0.59678 0.843 0.1033 0.0
C224 C 0.39717 0.15498 1.02666 0.0
C225 C 0.37674 0.13435 0.99795 0.0
H226 H 0.40216 0.1597 0.08238 0.0
C227 C 0.34435 0.10172 1.00428 0.0
H228 H 0.42222 0.18021 1.02276 0.0
C229 C 0.33274 0.08996 0.03849 0.0
C230 C 0.3533 0.11046 0.06721 0.0
H231 H 0.32786 0.08513 0.98278 0.0
H232 H 0.30774 0.06468 0.04239 0.0
C233 C 0.38564 0.14314 0.06088 0.0
C234 C 0.38607 0.34576 0.50405 0.0
C235 C 0.35367 0.37835 0.49761 0.0
H236 H 0.42274 0.30898 0.54228 0.0
C237 C 0.3331 0.399 0.52627 0.0
H238 H 0.40261 0.32911 0.4826 0.0
C239 C 0.34475 0.38747 0.56051 0.0
C240 C 0.37719 0.35493 0.56695 0.0
H241 H 0.30805 0.42422 0.52229 0.0
H242 H 0.32824 0.40416 0.58196 0.0
C243 C 0.39765 0.33415 0.5383 0.0
C244 C 0.08844 0.33451 1.02645 0.0
C245 C 0.10889 0.35524 0.99778 0.0
H246 H 0.08354 0.32949 0.08215 0.0
C247 C 0.14138 0.38775 1.0042 0.0
H248 H 0.06332 0.30937 1.02248 0.0
C249 C 0.15308 0.39928 0.03844 0.0
C250 C 0.13251 0.37866 0.06711 0.0
H251 H 0.15788 0.4044 0.98275 0.0
H252 H 0.17816 0.42445 0.0424 0.0
C253 C 0.10007 0.34611 0.06069 0.0
C254 C 0.14157 0.10155 0.56058 0.0
C255 C 0.10917 0.13418 0.56693 0.0
H256 H 0.17821 0.06455 0.52244 0.0
C257 C 0.08873 0.15482 0.53823 0.0
H258 H 0.15805 0.08496 0.58207 0.0
C259 C 0.10029 0.14301 0.50401 0.0
C260 C 0.13264 0.11034 0.49765 0.0
H261 H 0.06368 0.18004 0.54214 0.0
H262 H 0.08377 0.15957 0.48252 0.0
C263 C 0.1532 0.08982 0.52636 0.0
C264 C 0.64143 0.88768 0.06057 0.0
C265 C 0.60904 0.85504 0.06691 0.0
H266 H 0.67804 0.92471 1.02246 0.0
C267 C 0.58861 0.83441 0.03819 0.0
H268 H 0.65792 0.90427 0.08207 0.0
C269 C 0.60014 0.84625 1.00398 0.0
C270 C 0.63248 0.87893 0.99764 0.0
H271 H 0.56356 0.80919 0.04209 0.0
H272 H 0.58363 0.82969 0.98248 0.0
C273 C 0.65304 0.89944 1.02636 0.0
C274 C 0.65327 0.58989 0.53834 0.0
C275 C 0.63268 0.61052 0.56701 0.0
H276 H 0.6581 0.58475 0.48265 0.0
C277 C 0.60024 0.64308 0.56058 0.0
H278 H 0.67835 0.56471 0.54231 0.0
C279 C 0.58864 0.65467 0.52633 0.0
C280 C 0.6091 0.63392 0.49767 0.0
H281 H 0.5837 0.65971 0.58203 0.0
H282 H 0.56351 0.67981 0.52236 0.0
C283 C 0.64159 0.60141 0.5041 0.0
C284 C 0.83283 0.59021 1.02633 0.0
C285 C 0.85338 0.61084 0.99766 0.0
H286 H 0.82804 0.58507 0.08203 0.0
C287 C 0.8858 0.64341 1.00408 0.0
H288 H 0.80776 0.56501 1.02237 0.0
C289 C 0.89743 0.65502 0.03832 0.0
C290 C 0.877 0.63427 0.06699 0.0
H291 H 0.90232 0.66005 0.98262 0.0
H292 H 0.92254 0.68017 0.04229 0.0
C293 C 0.84453 0.60174 0.06057 0.0
C294 C 0.89733 0.8343 0.52667 0.0
C295 C 0.87688 0.85494 0.49797 0.0
H296 H 0.90233 0.82956 0.58238 0.0
C297 C 0.84448 0.88756 0.50434 0.0
H298 H 0.92239 0.80908 0.52275 0.0
C299 C 0.83287 0.89931 0.53856 0.0
C300 C 0.85345 0.87879 0.56726 0.0
H301 H 0.82798 0.90416 0.48285 0.0
H302 H 0.80786 0.92457 0.54248 0.0
C303 C 0.8858 0.84612 0.56089 0.0
C304 C 0.2587 0.28781 0.19128 0.0
C305 C 0.21274 0.28008 0.19072 0.0
H306 H 0.32375 0.2593 0.19135 0.0
C307 C 0.19722 0.23626 0.19162 0.0
H308 H 0.27162 0.32134 0.19092 0.0
C309 C 0.22711 0.20082 0.1913 0.0
C310 C 0.27307 0.20854 0.19082 0.0
H311 H 0.16206 0.22933 0.19122 0.0
H312 H 0.21419 0.16728 0.19095 0.0
C313 C 0.28859 0.25237 0.1917 0.0
C314 C 0.28641 0.22894 0.69116 0.0
C315 C 0.2788 0.27506 0.69058 0.0
H316 H 0.25788 0.16373 0.6912 0.0
C317 C 0.23513 0.29071 0.69138 0.0
H318 H 0.31982 0.21591 0.69087 0.0
C319 C 0.19976 0.26079 0.691 0.0
C320 C 0.20737 0.21467 0.69055 0.0
H321 H 0.22829 0.326 0.69096 0.0
H322 H 0.16635 0.27383 0.69059 0.0
C323 C 0.25103 0.19902 0.69151 0.0
C324 C 0.22741 0.28762 0.37348 0.0
C325 C 0.27336 0.27984 0.37402 0.0
H326 H 0.16232 0.25921 0.37347 0.0
C327 C 0.28882 0.23599 0.37314 0.0
H328 H 0.21453 0.32118 0.37382 0.0
C329 C 0.25889 0.20059 0.3735 0.0
C330 C 0.21294 0.20838 0.374 0.0
H331 H 0.32398 0.22901 0.37352 0.0
H332 H 0.27177 0.16704 0.37386 0.0
C333 C 0.19748 0.25223 0.37311 0.0
C334 C 0.2349 0.19915 0.87331 0.0
C335 C 0.27856 0.21479 0.87426 0.0
H336 H 0.16612 0.21606 0.87393 0.0
C337 C 0.28618 0.26092 0.87377 0.0
H338 H 0.22805 0.16387 0.87365 0.0
C339 C 0.25081 0.29084 0.87336 0.0
C340 C 0.20714 0.27521 0.87417 0.0
H341 H 0.31959 0.27394 0.87417 0.0
H342 H 0.25766 0.32613 0.87376 0.0
C343 C 0.19953 0.22908 0.87363 0.0
C344 C 0.69725 0.73699 0.87312 0.0
C345 C 0.71274 0.78083 0.87401 0.0
H346 H 0.71425 0.66803 0.87386 0.0
C347 C 0.75869 0.78857 0.8735 0.0
H348 H 0.66209 0.73005 0.87348 0.0
C349 C 0.7886 0.75315 0.87316 0.0
C350 C 0.77311 0.70932 0.87405 0.0
H351 H 0.7716 0.82212 0.87386 0.0
H352 H 0.82376 0.7601 0.87354 0.0
C353 C 0.72715 0.70157 0.87351 0.0
C354 C 0.75102 0.69841 0.37329 0.0
C355 C 0.70734 0.71402 0.37411 0.0
H356 H 0.81979 0.71536 0.37413 0.0
C357 C 0.69969 0.76013 0.37358 0.0
H358 H 0.7579 0.66312 0.37366 0.0
C359 C 0.73504 0.79009 0.37329 0.0
C360 C 0.77871 0.77448 0.37424 0.0
H361 H 0.66627 0.77313 0.37389 0.0
H362 H 0.72816 0.82537 0.37365 0.0
C363 C 0.78637 0.72836 0.37372 0.0
C364 C 0.72726 0.78838 0.69129 0.0
C365 C 0.77322 0.78065 0.6908 0.0
H366 H 0.6622 0.7599 0.6912 0.0
C367 C 0.78873 0.73681 0.69164 0.0
H368 H 0.71435 0.82193 0.69097 0.0
C369 C 0.75883 0.70138 0.6912 0.0
C370 C 0.71287 0.70912 0.69066 0.0
H371 H 0.82389 0.72986 0.69129 0.0
H372 H 0.77174 0.66784 0.69082 0.0
C373 C 0.69736 0.75296 0.69158 0.0
C374 C 0.78633 0.76036 0.19118 0.0
C375 C 0.77874 0.71423 0.19062 0.0
H376 H 0.75778 0.82556 0.19116 0.0
C377 C 0.73508 0.69857 0.19143 0.0
H378 H 0.81974 0.77339 0.19088 0.0
C379 C 0.6997 0.72848 0.19102 0.0
C380 C 0.70729 0.77461 0.19054 0.0
H381 H 0.72826 0.66328 0.19102 0.0
H382 H 0.6663 0.71544 0.19061 0.0
C383 C 0.75095 0.79027 0.1915 0.0
C384 C 0.19673 0.03202 0.28269 0.0
C385 C 0.22005 0.03372 0.31449 0.0
H386 H 0.20071 0.03307 0.22669 0.0
C387 C 0.26641 0.03139 0.31399 0.0
H388 H 0.16093 0.0338 0.28244 0.0
C389 C 0.28914 0.03205 0.28211 0.0
C390 C 0.26582 0.03379 0.25031 0.0
H391 H 0.28516 0.03301 0.33811 0.0
H392 H 0.32494 0.03385 0.28236 0.0
C393 C 0.21946 0.03143 0.25081 0.0
C394 C 0.45531 0.2213 0.75108 0.0
C395 C 0.45285 0.2678 0.75043 0.0
H396 H 0.45297 0.16274 0.78287 0.0
C397 C 0.45441 0.29136 0.78217 0.0
H398 H 0.45381 0.20235 0.72701 0.0
C399 C 0.45499 0.26874 0.81411 0.0
C400 C 0.45278 0.22223 0.81475 0.0
H401 H 0.45255 0.32728 0.78231 0.0
H402 H 0.45324 0.28768 0.83818 0.0
C403 C 0.45465 0.19867 0.78302 0.0
C404 C 0.19699 0.45631 0.28213 0.0
C405 C 0.22026 0.45456 0.2503 0.0
H406 H 0.20103 0.45529 0.33812 0.0
C407 C 0.26663 0.45677 0.25075 0.0
H408 H 0.16118 0.45462 0.28241 0.0
C409 C 0.2894 0.45607 0.2826 0.0
C410 C 0.26612 0.45442 0.31443 0.0
H411 H 0.28535 0.45511 0.2266 0.0
H412 H 0.3252 0.4542 0.28231 0.0
C413 C 0.21976 0.45687 0.31398 0.0
C414 C 0.03133 0.19867 0.78187 0.0
C415 C 0.03315 0.22217 0.75012 0.0
H416 H 0.0322 0.20245 0.83787 0.0
C417 C 0.03089 0.26868 0.75072 0.0
H418 H 0.03305 0.16275 0.78204 0.0
C419 C 0.03147 0.29137 0.78265 0.0
C420 C 0.03307 0.26786 0.81441 0.0
H421 H 0.03259 0.28758 0.72664 0.0
H422 H 0.0333 0.32728 0.78249 0.0
C423 C 0.03067 0.22135 0.81379 0.0
C424 C 0.76644 0.95771 0.81408 0.0
C425 C 0.72008 0.95545 0.81455 0.0
H426 H 0.82501 0.9552 0.7825 0.0
C427 C 0.69681 0.95718 0.78273 0.0
H428 H 0.78516 0.95606 0.83822 0.0
C429 C 0.71958 0.95777 0.75087 0.0
C430 C 0.76593 0.95536 0.7504 0.0
H431 H 0.661 0.95546 0.78245 0.0
H432 H 0.70085 0.95617 0.72673 0.0
C433 C 0.78921 0.95704 0.78222 0.0
C434 C 0.53168 0.69774 0.28255 0.0
C435 C 0.53324 0.72124 0.31432 0.0
H436 H 0.53277 0.70154 0.22655 0.0
C437 C 0.53071 0.76774 0.31373 0.0
H438 H 0.53359 0.66183 0.28237 0.0
C439 C 0.5313 0.79044 0.28182 0.0
C440 C 0.53316 0.76694 0.25006 0.0
H441 H 0.53221 0.78664 0.33783 0.0
H442 H 0.53293 0.82636 0.28201 0.0
C443 C 0.53102 0.72043 0.25064 0.0
C444 C 0.71952 0.53234 0.81394 0.0
C445 C 0.76588 0.53469 0.81445 0.0
H446 H 0.661 0.53469 0.78232 0.0
C447 C 0.78921 0.53296 0.78264 0.0
H448 H 0.70076 0.53397 0.83807 0.0
C449 C 0.7665 0.53229 0.75077 0.0
C450 C 0.72013 0.5346 0.75027 0.0
H451 H 0.82501 0.53475 0.78239 0.0
H452 H 0.78526 0.5339 0.72664 0.0
C453 C 0.69681 0.53292 0.78207 0.0
C454 C 0.95468 0.79069 0.28299 0.0
C455 C 0.95288 0.76715 0.31471 0.0
H456 H 0.95375 0.787 0.22698 0.0
C457 C 0.95514 0.72064 0.31407 0.0
H458 H 0.95297 0.82662 0.28285 0.0
C459 C 0.95452 0.698 0.28212 0.0
C460 C 0.95288 0.72156 0.25039 0.0
H461 H 0.95345 0.70171 0.33813 0.0
H462 H 0.95268 0.66208 0.28225 0.0
C463 C 0.95531 0.76806 0.25104 0.0
C464 C 0.44166 0.9754 0.17281 0.0
C465 C 0.45065 0.01835 0.18521 0.0
H466 H 0.4657 0.91029 0.16283 0.0
C467 C 0.49334 0.02785 0.19792 0.0
H468 H 0.40922 0.96665 0.16292 0.0
C469 C 0.52632 -0.00507 0.19787 0.0
C470 C 0.51706 0.95209 0.18511 0.0
H471 H 0.5013 0.06064 0.20767 0.0
H472 H 0.55898 0.00308 0.20758 0.0
C473 C 0.47427 0.94286 0.17276 0.0
C474 C 0.49262 0.52843 0.69774 0.0
C475 C 0.53534 0.51891 0.68509 0.0
H476 H 0.42696 0.50368 0.70737 0.0
C477 C 0.54437 0.47593 0.67276 0.0
H478 H 0.48463 0.56124 0.70744 0.0
C479 C 0.51176 0.44339 0.67271 0.0
C480 C 0.46894 0.45264 0.68501 0.0
H481 H 0.57682 0.46716 0.66291 0.0
H482 H 0.52036 0.41081 0.66283 0.0
C483 C 0.45964 0.49552 0.69769 0.0
C484 C 0.99259 0.46089 0.19785 0.0
C485 C 0.03531 0.4704 0.18523 0.0
H486 H 0.92692 0.48564 0.20744 0.0
C487 C 0.04435 0.51337 0.17289 0.0
H488 H 0.9846 0.42809 0.20756 0.0
C489 C 0.01174 0.54591 0.17282 0.0
C490 C 0.9689 0.53666 0.18509 0.0
H491 H 0.07681 0.52213 0.16306 0.0
H492 H 0.02033 0.57848 0.16294 0.0
C493 C 0.95961 0.4938 0.19778 0.0
C494 C -0.00649 0.96133 0.69795 0.0
C495 C 0.95081 0.97083 0.68527 0.0
H496 H 0.05916 0.9861 0.70758 0.0
C497 C 0.94181 0.01378 0.67288 0.0
H498 H 0.00148 0.92855 0.7077 0.0
C499 C 0.97442 0.04631 0.67281 0.0
C500 C 0.01722 0.03708 0.68513 0.0
H501 H 0.90937 0.02252 0.663 0.0
H502 H 0.96584 0.07887 0.66289 0.0
C503 C 0.02649 0.99424 0.69788 0.0
C504 C 0.47449 0.54555 0.39174 0.0
C505 C 0.51734 0.53628 0.37953 0.0
H506 H 0.40942 0.52178 0.40149 0.0
C507 C 0.52668 0.49338 0.36691 0.0
H508 H 0.46586 0.57815 0.40156 0.0
C509 C 0.49371 0.46045 0.36687 0.0
C510 C 0.45097 0.46999 0.37945 0.0
H511 H 0.55939 0.4852 0.3573 0.0
H512 H 0.50174 0.42762 0.35723 0.0
C513 C 0.44189 0.513 0.3917 0.0
C514 C 0.02636 0.4957 0.867 0.0
C515 C 0.01705 0.45284 0.87968 0.0
H516 H 0.00138 0.56143 0.85725 0.0
C517 C 0.97422 0.4436 0.89195 0.0
H518 H 0.05905 0.50386 0.85734 0.0
C519 C 0.94162 0.47615 0.8919 0.0
C520 C 0.95066 0.51912 0.87957 0.0
H521 H 0.96561 0.41102 0.90182 0.0
H522 H 0.90916 0.46739 0.90173 0.0
C523 C -0.00662 0.52863 0.86694 0.0
C524 C 0.95953 -0.00504 0.36707 0.0
C525 C 0.96878 0.95213 0.37984 0.0
H526 H 0.98457 0.06064 0.35723 0.0
C527 C 0.01157 0.9429 0.39219 0.0
H528 H 0.92687 0.00311 0.35734 0.0
C529 C 0.04419 0.97542 0.39212 0.0
C530 C 0.03521 0.01836 0.37969 0.0
H531 H 0.02013 0.91034 0.40214 0.0
H532 H 0.07662 0.96667 0.40202 0.0
C533 C 0.99252 0.02786 0.367 0.0
C534 C 0.49247 0.9615 0.86693 0.0
C535 C 0.53514 0.97099 0.87965 0.0
H536 H 0.42682 0.98626 0.85727 0.0
C537 C 0.54412 0.01393 0.89208 0.0
H538 H 0.48451 0.92872 0.85716 0.0
C539 C 0.5115 0.04646 0.89215 0.0
C540 C 0.46872 0.03723 0.87978 0.0
H541 H 0.57655 0.02268 0.90199 0.0
H542 H 0.52006 0.07902 0.9021 0.0
C543 C 0.45947 0.9944 0.867 0.0
loop_
_geom_bond_atom_site_label_1
_geom_bond_atom_site_label_2
_geom_bond_distance
_geom_bond_site_symmetry_2
_ccdc_geom_bond_type
C0 O2 1.247 . S
C0 O4 1.258 . S
C1 O8 1.247 . S
C1 O9 1.258 . S
O2 C0 1.247 . S
O2 Zn3 2.028 . S
Zn3 O2 2.028 . S
Zn3 O7 2.035 . S
Zn3 O9 2.035 . S
Zn3 O10 2.028 . S
O4 C0 1.258 . S
O4 Zn5 2.035 . S
Zn5 O4 2.035 . S
Zn5 O6 2.028 . S
Zn5 O8 2.028 . S
Zn5 O11 2.035 . S
O6 Zn5 2.028 . S
O6 C12 1.247 . S
O7 Zn3 2.035 . S
O7 C12 1.258 . S
O8 C1 1.247 . S
O8 Zn5 2.028 . S
O9 C1 1.258 . S
O9 Zn3 2.035 . S
O10 Zn3 2.028 . S
O10 C13 1.247 . S
O11 Zn5 2.035 . S
O11 C13 1.258 . S
C12 O6 1.247 . S
C12 O7 1.258 . S
C13 O10 1.247 . S
C13 O11 1.258 . S
C14 O16 1.247 . S
C14 O18 1.258 . S
C15 O22 1.247 . S
C15 O23 1.258 . S
O16 C14 1.247 . S
O16 Zn17 2.028 . S
Zn17 O16 2.028 . S
Zn17 O21 2.035 . S
Zn17 O23 2.035 . S
Zn17 O24 2.028 . S
O18 C14 1.258 . S
O18 Zn19 2.035 . S
Zn19 O18 2.035 . S
Zn19 O20 2.028 . S
Zn19 O22 2.028 . S
Zn19 O25 2.035 . S
O20 Zn19 2.028 . S
O20 C26 1.247 . S
O21 Zn17 2.035 . S
O21 C26 1.258 . S
O22 C15 1.247 . S
O22 Zn19 2.028 . S
O23 C15 1.258 . S
O23 Zn17 2.035 . S
O24 Zn17 2.028 . S
O24 C27 1.247 . S
O25 Zn19 2.035 . S
O25 C27 1.258 . S
C26 O20 1.247 . S
C26 O21 1.258 . S
C27 O24 1.247 . S
C27 O25 1.258 . S
C28 O30 1.247 . S
C28 O32 1.258 . S
C29 O36 1.247 . S
C29 O37 1.258 . S
O30 C28 1.247 . S
O30 Zn31 2.028 . S
Zn31 O30 2.028 . S
Zn31 O35 2.035 . S
Zn31 O37 2.035 . S
Zn31 O38 2.028 . S
O32 C28 1.258 . S
O32 Zn33 2.035 . S
Zn33 O32 2.035 . S
Zn33 O34 2.028 . S
Zn33 O36 2.028 . S
Zn33 O39 2.035 . S
O34 Zn33 2.028 . S
O34 C40 1.247 . S
O35 Zn31 2.035 . S
O35 C40 1.258 . S
O36 C29 1.247 . S
O36 Zn33 2.028 . S
O37 C29 1.258 . S
O37 Zn31 2.035 . S
O38 Zn31 2.028 . S
O38 C41 1.247 . S
O39 Zn33 2.035 . S
O39 C41 1.258 . S
C40 O34 1.247 . S
C40 O35 1.258 . S
C41 O38 1.247 . S
C41 O39 1.258 . S
C42 O44 1.247 . S
C42 O46 1.258 . S
C43 O50 1.247 . S
C43 O51 1.258 . S
O44 C42 1.247 . S
O44 Zn45 2.028 . S
Zn45 O44 2.028 . S
Zn45 O49 2.035 . S
Zn45 O51 2.035 . S
Zn45 O52 2.028 . S
O46 C42 1.258 . S
O46 Zn47 2.035 . S
Zn47 O46 2.035 . S
Zn47 O48 2.028 . S
Zn47 O50 2.028 . S
Zn47 O53 2.035 . S
O48 Zn47 2.028 . S
O48 C54 1.247 . S
O49 Zn45 2.035 . S
O49 C54 1.258 . S
O50 C43 1.247 . S
O50 Zn47 2.028 . S
O51 C43 1.258 . S
O51 Zn45 2.035 . S
O52 Zn45 2.028 . S
O52 C55 1.247 . S
O53 Zn47 2.035 . S
O53 C55 1.258 . S
C54 O48 1.247 . S
C54 O49 1.258 . S
C55 O52 1.247 . S
C55 O53 1.258 . S
C56 O58 1.247 . S
C56 O60 1.258 . S
C57 O64 1.247 . S
C57 O65 1.258 . S
O58 C56 1.247 . S
O58 Zn59 2.028 . S
Zn59 O58 2.028 . S
Zn59 O63 2.035 . S
Zn59 O65 2.035 . S
Zn59 O66 2.028 . S
O60 C56 1.258 . S
O60 Zn61 2.035 . S
Zn61 O60 2.035 . S
Zn61 O62 2.028 . S
Zn61 O64 2.028 . S
Zn61 O67 2.035 . S
O62 Zn61 2.028 . S
O62 C68 1.247 . S
O63 Zn59 2.035 . S
O63 C68 1.258 . S
O64 C57 1.247 . S
O64 Zn61 2.028 . S
O65 C57 1.258 . S
O65 Zn59 2.035 . S
O66 Zn59 2.028 . S
O66 C69 1.247 . S
O67 Zn61 2.035 . S
O67 C69 1.258 . S
C68 O62 1.247 . S
C68 O63 1.258 . S
C69 O66 1.247 . S
C69 O67 1.258 . S
C70 O72 1.247 . S
C70 O74 1.258 . S
C71 O78 1.247 . S
C71 O79 1.258 . S
O72 C70 1.247 . S
O72 Zn73 2.028 . S
Zn73 O72 2.028 . S
Zn73 O77 2.035 . S
Zn73 O79 2.035 . S
Zn73 O80 2.028 . S
O74 C70 1.258 . S
O74 Zn75 2.035 . S
Zn75 O74 2.035 . S
Zn75 O76 2.028 . S
Zn75 O78 2.028 . S
Zn75 O81 2.035 . S
O76 Zn75 2.028 . S
O76 C82 1.247 . S
O77 Zn73 2.035 . S
O77 C82 1.258 . S
O78 C71 1.247 . S
O78 Zn75 2.028 . S
O79 C71 1.258 . S
O79 Zn73 2.035 . S
O80 Zn73 2.028 . S
O80 C83 1.247 . S
O81 Zn75 2.035 . S
O81 C83 1.258 . S
C82 O76 1.247 . S
C82 O77 1.258 . S
C83 O80 1.247 . S
C83 O81 1.258 . S
C84 O86 1.247 . S
C84 O88 1.258 . S
C85 O92 1.247 . S
C85 O93 1.258 . S
O86 C84 1.247 . S
O86 Zn87 2.028 . S
Zn87 O86 2.028 . S
Zn87 O91 2.035 . S
Zn87 O93 2.035 . S
Zn87 O94 2.028 . S
O88 C84 1.258 . S
O88 Zn89 2.035 . S
Zn89 O88 2.035 . S
Zn89 O90 2.028 . S
Zn89 O92 2.028 . S
Zn89 O95 2.035 . S
O90 Zn89 2.028 . S
O90 C96 1.247 . S
O91 Zn87 2.035 . S
O91 C96 1.258 . S
O92 C85 1.247 . S
O92 Zn89 2.028 . S
O93 C85 1.258 . S
O93 Zn87 2.035 . S
O94 Zn87 2.028 . S
O94 C97 1.247 . S
O95 Zn89 2.035 . S
O95 C97 1.258 . S
C96 O90 1.247 . S
C96 O91 1.258 . S
C97 O94 1.247 . S
C97 O95 1.258 . S
C98 O100 1.247 . S
C98 O102 1.258 . S
C99 O106 1.247 . S
C99 O107 1.258 . S
O100 C98 1.247 . S
O100 Zn101 2.028 . S
Zn101 O100 2.028 . S
Zn101 O105 2.035 . S
Zn101 O107 2.035 . S
Zn101 O108 2.028 . S
O102 C98 1.258 . S
O102 Zn103 2.035 . S
Zn103 O102 2.035 . S
Zn103 O104 2.028 . S
Zn103 O106 2.028 . S
Zn103 O109 2.035 . S
O104 Zn103 2.028 . S
O104 C110 1.247 . S
O105 Zn101 2.035 . S
O105 C110 1.258 . S
O106 C99 1.247 . S
O106 Zn103 2.028 . S
O107 C99 1.258 . S
O107 Zn101 2.035 . S
O108 Zn101 2.028 . S
O108 C111 1.247 . S
O109 Zn103 2.035 . S
O109 C111 1.258 . S
C110 O104 1.247 . S
C110 O105 1.258 . S
C111 O108 1.247 . S
C111 O109 1.258 . S
C112 O114 1.247 . S
C112 O116 1.258 . S
C113 O120 1.247 . S
C113 O121 1.258 . S
O114 C112 1.247 . S
O114 Zn115 2.028 . S
Zn115 O114 2.028 . S
Zn115 O119 2.035 . S
Zn115 O121 2.035 . S
Zn115 O122 2.028 . S
O116 C112 1.258 . S
O116 Zn117 2.035 . S
Zn117 O116 2.035 . S
Zn117 O118 2.028 . S
Zn117 O120 2.028 . S
Zn117 O123 2.035 . S
O118 Zn117 2.028 . S
O118 C124 1.247 . S
O119 Zn115 2.035 . S
O119 C124 1.258 . S
O120 C113 1.247 . S
O120 Zn117 2.028 . S
O121 C113 1.258 . S
O121 Zn115 2.035 . S
O122 Zn115 2.028 . S
O122 C125 1.247 . S
O123 Zn117 2.035 . S
O123 C125 1.258 . S
C124 O118 1.247 . S
C124 O119 1.258 . S
C125 O122 1.247 . S
C125 O123 1.258 . S
C126 O128 1.247 . S
C126 O130 1.258 . S
C127 O134 1.247 . S
C127 O135 1.258 . S
O128 C126 1.247 . S
O128 Zn129 2.028 . S
Zn129 O128 2.028 . S
Zn129 O133 2.035 . S
Zn129 O135 2.035 . S
Zn129 O136 2.028 . S
O130 C126 1.258 . S
O130 Zn131 2.035 . S
Zn131 O130 2.035 . S
Zn131 O132 2.028 . S
Zn131 O134 2.028 . S
Zn131 O137 2.035 . S
O132 Zn131 2.028 . S
O132 C138 1.247 . S
O133 Zn129 2.035 . S
O133 C138 1.258 . S
O134 C127 1.247 . S
O134 Zn131 2.028 . S
O135 C127 1.258 . S
O135 Zn129 2.035 . S
O136 Zn129 2.028 . S
O136 C139 1.247 . S
O137 Zn131 2.035 . S
O137 C139 1.258 . S
C138 O132 1.247 . S
C138 O133 1.258 . S
C139 O136 1.247 . S
C139 O137 1.258 . S
C140 O142 1.247 . S
C140 O144 1.258 . S
C141 O148 1.247 . S
C141 O149 1.258 . S
O142 C140 1.247 . S
O142 Zn143 2.028 . S
Zn143 O142 2.028 . S
Zn143 O147 2.035 . S
Zn143 O149 2.035 . S
Zn143 O150 2.028 . S
O144 C140 1.258 . S
O144 Zn145 2.035 . S
Zn145 O144 2.035 . S
Zn145 O146 2.028 . S
Zn145 O148 2.028 . S
Zn145 O151 2.035 . S
O146 Zn145 2.028 . S
O146 C152 1.247 . S
O147 Zn143 2.035 . S
O147 C152 1.258 . S
O148 C141 1.247 . S
O148 Zn145 2.028 . S
O149 C141 1.258 . S
O149 Zn143 2.035 . S
O150 Zn143 2.028 . S
O150 C153 1.247 . S
O151 Zn145 2.035 . S
O151 C153 1.258 . S
C152 O146 1.247 . S
C152 O147 1.258 . S
C153 O150 1.247 . S
C153 O151 1.258 . S
C154 O156 1.247 . S
C154 O158 1.258 . S
C155 O162 1.247 . S
C155 O163 1.258 . S
O156 C154 1.247 . S
O156 Zn157 2.028 . S
Zn157 O156 2.028 . S
Zn157 O161 2.035 . S
Zn157 O163 2.035 . S
Zn157 O164 2.028 . S
O158 C154 1.258 . S
O158 Zn159 2.035 . S
Zn159 O158 2.035 . S
Zn159 O160 2.028 . S
Zn159 O162 2.028 . S
Zn159 O165 2.035 . S
O160 Zn159 2.028 . S
O160 C166 1.247 . S
O161 Zn157 2.035 . S
O161 C166 1.258 . S
O162 C155 1.247 . S
O162 Zn159 2.028 . S
O163 C155 1.258 . S
O163 Zn157 2.035 . S
O164 Zn157 2.028 . S
O164 C167 1.247 . S
O165 Zn159 2.035 . S
O165 C167 1.258 . S
C166 O160 1.247 . S
C166 O161 1.258 . S
C167 O164 1.247 . S
C167 O165 1.258 . S
C168 O170 1.247 . S
C168 O172 1.258 . S
C169 O176 1.247 . S
C169 O177 1.258 . S
O170 C168 1.247 . S
O170 Zn171 2.028 . S
Zn171 O170 2.028 . S
Zn171 O175 2.035 . S
Zn171 O177 2.035 . S
Zn171 O178 2.028 . S
O172 C168 1.258 . S
O172 Zn173 2.035 . S
Zn173 O172 2.035 . S
Zn173 O174 2.028 . S
Zn173 O176 2.028 . S
Zn173 O179 2.035 . S
O174 Zn173 2.028 . S
O174 C180 1.247 . S
O175 Zn171 2.035 . S
O175 C180 1.258 . S
O176 C169 1.247 . S
O176 Zn173 2.028 . S
O177 C169 1.258 . S
O177 Zn171 2.035 . S
O178 Zn171 2.028 . S
O178 C181 1.247 . S
O179 Zn173 2.035 . S
O179 C181 1.258 . S
C180 O174 1.247 . S
C180 O175 1.258 . S
C181 O178 1.247 . S
C181 O179 1.258 . S
C182 O184 1.247 . S
C182 O186 1.258 . S
C183 O190 1.247 . S
C183 O191 1.258 . S
O184 C182 1.247 . S
O184 Zn185 2.028 . S
Zn185 O184 2.028 . S
Zn185 O189 2.035 . S
Zn185 O191 2.035 . S
Zn185 O192 2.028 . S
O186 C182 1.258 . S
O186 Zn187 2.035 . S
Zn187 O186 2.035 . S
Zn187 O188 2.028 . S
Zn187 O190 2.028 . S
Zn187 O193 2.035 . S
O188 Zn187 2.028 . S
O188 C194 1.247 . S
O189 Zn185 2.035 . S
O189 C194 1.258 . S
O190 C183 1.247 . S
O190 Zn187 2.028 . S
O191 C183 1.258 . S
O191 Zn185 2.035 . S
O192 Zn185 2.028 . S
O192 C195 1.247 . S
O193 Zn187 2.035 . S
O193 C195 1.258 . S
C194 O188 1.247 . S
C194 O189 1.258 . S
C195 O192 1.247 . S
C195 O193 1.258 . S
C196 O198 1.247 . S
C196 O200 1.258 . S
C197 O204 1.247 . S
C197 O205 1.258 . S
O198 C196 1.247 . S
O198 Zn199 2.028 . S
Zn199 O198 2.028 . S
Zn199 O203 2.035 . S
Zn199 O205 2.035 . S
Zn199 O206 2.028 . S
O200 C196 1.258 . S
O200 Zn201 2.035 . S
Zn201 O200 2.035 . S
Zn201 O202 2.028 . S
Zn201 O204 2.028 . S
Zn201 O207 2.035 . S
O202 Zn201 2.028 . S
O202 C208 1.247 . S
O203 Zn199 2.035 . S
O203 C208 1.258 . S
O204 C197 1.247 . S
O204 Zn201 2.028 . S
O205 C197 1.258 . S
O205 Zn199 2.035 . S
O206 Zn199 2.028 . S
O206 C209 1.247 . S
O207 Zn201 2.035 . S
O207 C209 1.258 . S
C208 O202 1.247 . S
C208 O203 1.258 . S
C209 O206 1.247 . S
C209 O207 1.258 . S
C210 O212 1.247 . S
C210 O214 1.258 . S
C211 O218 1.247 . S
C211 O219 1.258 . S
O212 C210 1.247 . S
O212 Zn213 2.028 . S
Zn213 O212 2.028 . S
Zn213 O217 2.035 . S
Zn213 O219 2.035 . S
Zn213 O220 2.028 . S
O214 C210 1.258 . S
O214 Zn215 2.035 . S
Zn215 O214 2.035 . S
Zn215 O216 2.028 . S
Zn215 O218 2.028 . S
Zn215 O221 2.035 . S
O216 Zn215 2.028 . S
O216 C222 1.247 . S
O217 Zn213 2.035 . S
O217 C222 1.258 . S
O218 C211 1.247 . S
O218 Zn215 2.028 . S
O219 C211 1.258 . S
O219 Zn213 2.035 . S
O220 Zn213 2.028 . S
O220 C223 1.247 . S
O221 Zn215 2.035 . S
O221 C223 1.258 . S
C222 O216 1.247 . S
C222 O217 1.258 . S
C223 O220 1.247 . S
C223 O221 1.258 . S
C224 C225 1.387 . S
C224 H228 0.950 . S
C224 C233 1.390 1_556 S
C225 C224 1.387 . S
C225 C227 1.387 . S
H226 C233 0.950 . S
C227 C225 1.387 . S
C227 C229 1.390 1_556 S
C227 H231 0.950 . S
H228 C224 0.950 . S
C229 C227 1.390 1_554 S
C229 C230 1.387 . S
C229 H232 0.950 . S
C230 C229 1.387 . S
C230 C233 1.387 . S
H231 C227 0.950 . S
H232 C229 0.950 . S
C233 C224 1.390 1_554 S
C233 H226 0.950 . S
C233 C230 1.387 . S
C234 C235 1.387 . S
C234 H238 0.950 . S
C234 C243 1.390 . S
C235 C234 1.387 . S
C235 C237 1.387 . S
H236 C243 0.950 . S
C237 C235 1.387 . S
C237 C239 1.390 . S
C237 H241 0.950 . S
H238 C234 0.950 . S
C239 C237 1.390 . S
C239 C240 1.387 . S
C239 H242 0.950 . S
C240 C239 1.387 . S
C240 C243 1.387 . S
H241 C237 0.950 . S
H242 C239 0.950 . S
C243 C234 1.390 . S
C243 H236 0.950 . S
C243 C240 1.387 . S
C244 C245 1.387 . S
C244 H248 0.950 . S
C244 C253 1.390 1_556 S
C245 C244 1.387 . S
C245 C247 1.387 . S
H246 C253 0.950 . S
C247 C245 1.387 . S
C247 C249 1.390 1_556 S
C247 H251 0.950 . S
H248 C244 0.950 . S
C249 C247 1.390 1_554 S
C249 C250 1.387 . S
C249 H252 0.950 . S
C250 C249 1.387 . S
C250 C253 1.387 . S
H251 C247 0.950 . S
H252 C249 0.950 . S
C253 C244 1.390 1_554 S
C253 H246 0.950 . S
C253 C250 1.387 . S
C254 C255 1.387 . S
C254 H258 0.950 . S
C254 C263 1.390 . S
C255 C254 1.387 . S
C255 C257 1.387 . S
H256 C263 0.950 . S
C257 C255 1.387 . S
C257 C259 1.390 . S
C257 H261 0.950 . S
H258 C254 0.950 . S
C259 C257 1.390 . S
C259 C260 1.387 . S
C259 H262 0.950 . S
C260 C259 1.387 . S
C260 C263 1.387 . S
H261 C257 0.950 . S
H262 C259 0.950 . S
C263 C254 1.390 . S
C263 H256 0.950 . S
C263 C260 1.387 . S
C264 C265 1.387 . S
C264 H268 0.950 . S
C264 C273 1.390 1_554 S
C265 C264 1.387 . S
C265 C267 1.387 . S
H266 C273 0.950 . S
C267 C265 1.387 . S
C267 C269 1.390 1_554 S
C267 H271 0.950 . S
H268 C264 0.950 . S
C269 C267 1.390 1_556 S
C269 C270 1.387 . S
C269 H272 0.950 . S
C270 C269 1.387 . S
C270 C273 1.387 . S
H271 C267 0.950 . S
H272 C269 0.950 . S
C273 C264 1.390 1_556 S
C273 H266 0.950 . S
C273 C270 1.387 . S
C274 C275 1.387 . S
C274 H278 0.950 . S
C274 C283 1.390 . S
C275 C274 1.387 . S
C275 C277 1.387 . S
H276 C283 0.950 . S
C277 C275 1.387 . S
C277 C279 1.390 . S
C277 H281 0.950 . S
H278 C274 0.950 . S
C279 C277 1.390 . S
C279 C280 1.387 . S
C279 H282 0.950 . S
C280 C279 1.387 . S
C280 C283 1.387 . S
H281 C277 0.950 . S
H282 C279 0.950 . S
C283 C274 1.390 . S
C283 H276 0.950 . S
C283 C280 1.387 . S
C284 C285 1.387 . S
C284 H288 0.950 . S
C284 C293 1.390 1_556 S
C285 C284 1.387 . S
C285 C287 1.387 . S
H286 C293 0.950 . S
C287 C285 1.387 . S
C287 C289 1.390 1_556 S
C287 H291 0.950 . S
H288 C284 0.950 . S
C289 C287 1.390 1_554 S
C289 C290 1.387 . S
C289 H292 0.950 . S
C290 C289 1.387 . S
C290 C293 1.387 . S
H291 C287 0.950 . S
H292 C289 0.950 . S
C293 C284 1.390 1_554 S
C293 H286 0.950 . S
C293 C290 1.387 . S
C294 C295 1.387 . S
C294 H298 0.950 . S
C294 C303 1.390 . S
C295 C294 1.387 . S
C295 C297 1.387 . S
H296 C303 0.950 . S
C297 C295 1.387 . S
C297 C299 1.390 . S
C297 H301 0.950 . S
H298 C294 0.950 . S
C299 C297 1.390 . S
C299 C300 1.387 . S
C299 H302 0.950 . S
C300 C299 1.387 . S
C300 C303 1.387 . S
H301 C297 0.950 . S
H302 C299 0.950 . S
C303 C294 1.390 . S
C303 H296 0.950 . S
C303 C300 1.387 . S
C304 C305 1.387 . S
C304 H308 0.950 . S
C304 C313 1.390 . S
C305 C304 1.387 . S
C305 C307 1.387 . S
H306 C313 0.950 . S
C307 C305 1.387 . S
C307 C309 1.390 . S
C307 H311 0.950 . S
H308 C304 0.950 . S
C309 C307 1.390 . S
C309 C310 1.387 . S
C309 H312 0.950 . S
C310 C309 1.387 . S
C310 C313 1.387 . S
H311 C307 0.950 . S
H312 C309 0.950 . S
C313 C304 1.390 . S
C313 H306 0.950 . S
C313 C310 1.387 . S
C314 C315 1.387 . S
C314 H318 0.950 . S
C314 C323 1.390 . S
C315 C314 1.387 . S
C315 C317 1.387 . S
H316 C323 0.950 . S
C317 C315 1.387 . S
C317 C319 1.390 . S
C317 H321 0.950 . S
H318 C314 0.950 . S
C319 C317 1.390 . S
C319 C320 1.387 . S
C319 H322 0.950 . S
C320 C319 1.387 . S
C320 C323 1.387 . S
H321 C317 0.950 . S
H322 C319 0.950 . S
C323 C314 1.390 . S
C323 H316 0.950 . S
C323 C320 1.387 . S
C324 C325 1.387 . S
C324 H328 0.950 . S
C324 C333 1.390 . S
C325 C324 1.387 . S
C325 C327 1.387 . S
H326 C333 0.950 . S
C327 C325 1.387 . S
C327 C329 1.390 . S
C327 H331 0.950 . S
H328 C324 0.950 . S
C329 C327 1.390 . S
C329 C330 1.387 . S
C329 H332 0.950 . S
C330 C329 1.387 . S
C330 C333 1.387 . S
H331 C327 0.950 . S
H332 C329 0.950 . S
C333 C324 1.390 . S
C333 H326 0.950 . S
C333 C330 1.387 . S
C334 C335 1.387 . S
C334 H338 0.950 . S
C334 C343 1.390 . S
C335 C334 1.387 . S
C335 C337 1.387 . S
H336 C343 0.950 . S
C337 C335 1.387 . S
C337 C339 1.390 . S
C337 H341 0.950 . S
H338 C334 0.950 . S
C339 C337 1.390 . S
C339 C340 1.387 . S
C339 H342 0.950 . S
C340 C339 1.387 . S
C340 C343 1.387 . S
H341 C337 0.950 . S
H342 C339 0.950 . S
C343 C334 1.390 . S
C343 H336 0.950 . S
C343 C340 1.387 . S
C344 C345 1.387 . S
C344 H348 0.950 . S
C344 C353 1.390 . S
C345 C344 1.387 . S
C345 C347 1.387 . S
H346 C353 0.950 . S
C347 C345 1.387 . S
C347 C349 1.390 . S
C347 H351 0.950 . S
H348 C344 0.950 . S
C349 C347 1.390 . S
C349 C350 1.387 . S
C349 H352 0.950 . S
C350 C349 1.387 . S
C350 C353 1.387 . S
H351 C347 0.950 . S
H352 C349 0.950 . S
C353 C344 1.390 . S
C353 H346 0.950 . S
C353 C350 1.387 . S
C354 C355 1.387 . S
C354 H358 0.950 . S
C354 C363 1.390 . S
C355 C354 1.387 . S
C355 C357 1.387 . S
H356 C363 0.950 . S
C357 C355 1.387 . S
C357 C359 1.390 . S
C357 H361 0.950 . S
H358 C354 0.950 . S
C359 C357 1.390 . S
C359 C360 1.387 . S
C359 H362 0.950 . S
C360 C359 1.387 . S
C360 C363 1.387 . S
H361 C357 0.950 . S
H362 C359 0.950 . S
C363 C354 1.390 . S
C363 H356 0.950 . S
C363 C360 1.387 . S
C364 C365 1.387 . S
C364 H368 0.950 . S
C364 C373 1.390 . S
C365 C364 1.387 . S
C365 C367 1.387 . S
H366 C373 0.950 . S
C367 C365 1.387 . S
C367 C369 1.390 . S
C367 H371 0.950 . S
H368 C364 0.950 . S
C369 C367 1.390 . S
C369 C370 1.387 . S
C369 H372 0.950 . S
C370 C369 1.387 . S
C370 C373 1.387 . S
H371 C367 0.950 . S
H372 C369 0.950 . S
C373 C364 1.390 . S
C373 H366 0.950 . S
C373 C370 1.387 . S
C374 C375 1.387 . S
C374 H378 0.950 . S
C374 C383 1.390 . S
C375 C374 1.387 . S
C375 C377 1.387 . S
H376 C383 0.950 . S
C377 C375 1.387 . S
C377 C379 1.390 . S
C377 H381 0.950 . S
H378 C374 0.950 . S
C379 C377 1.390 . S
C379 C380 1.387 . S
C379 H382 0.950 . S
C380 C379 1.387 . S
C380 C383 1.387 . S
H381 C377 0.950 . S
H382 C379 0.950 . S
C383 C374 1.390 . S
C383 H376 0.950 . S
C383 C380 1.387 . S
C384 C385 1.387 . S
C384 H388 0.950 . S
C384 C393 1.390 . S
C385 C384 1.387 . S
C385 C387 1.387 . S
H386 C393 0.950 . S
C387 C385 1.387 . S
C387 C389 1.390 . S
C387 H391 0.950 . S
H388 C384 0.950 . S
C389 C387 1.390 . S
C389 C390 1.387 . S
C389 H392 0.950 . S
C390 C389 1.387 . S
C390 C393 1.387 . S
H391 C387 0.950 . S
H392 C389 0.950 . S
C393 C384 1.390 . S
C393 H386 0.950 . S
C393 C390 1.387 . S
C394 C395 1.387 . S
C394 H398 0.950 . S
C394 C403 1.390 . S
C395 C394 1.387 . S
C395 C397 1.387 . S
H396 C403 0.950 . S
C397 C395 1.387 . S
C397 C399 1.390 . S
C397 H401 0.950 . S
H398 C394 0.950 . S
C399 C397 1.390 . S
C399 C400 1.387 . S
C399 H402 0.950 . S
C400 C399 1.387 . S
C400 C403 1.387 . S
H401 C397 0.950 . S
H402 C399 0.950 . S
C403 C394 1.390 . S
C403 H396 0.950 . S
C403 C400 1.387 . S
C404 C405 1.387 . S
C404 H408 0.950 . S
C404 C413 1.390 . S
C405 C404 1.387 . S
C405 C407 1.387 . S
H406 C413 0.950 . S
C407 C405 1.387 . S
C407 C409 1.390 . S
C407 H411 0.950 . S
H408 C404 0.950 . S
C409 C407 1.390 . S
C409 C410 1.387 . S
C409 H412 0.950 . S
C410 C409 1.387 . S
C410 C413 1.387 . S
H411 C407 0.950 . S
H412 C409 0.950 . S
C413 C404 1.390 . S
C413 H406 0.950 . S
C413 C410 1.387 . S
C414 C415 1.387 . S
C414 H418 0.950 . S
C414 C423 1.390 . S
C415 C414 1.387 . S
C415 C417 1.387 . S
H416 C423 0.950 . S
C417 C415 1.387 . S
C417 C419 1.390 . S
C417 H421 0.950 . S
H418 C414 0.950 . S
C419 C417 1.390 . S
C419 C420 1.387 . S
C419 H422 0.950 . S
C420 C419 1.387 . S
C420 C423 1.387 . S
H421 C417 0.950 . S
H422 C419 0.950 . S
C423 C414 1.390 . S
C423 H416 0.950 . S
C423 C420 1.387 . S
C424 C425 1.387 . S
C424 H428 0.950 . S
C424 C433 1.390 . S
C425 C424 1.387 . S
C425 C427 1.387 . S
H426 C433 0.950 . S
C427 C425 1.387 . S
C427 C429 1.390 . S
C427 H431 0.950 . S
H428 C424 0.950 . S
C429 C427 1.390 . S
C429 C430 1.387 . S
C429 H432 0.950 . S
C430 C429 1.387 . S
C430 C433 1.387 . S
H431 C427 0.950 . S
H432 C429 0.950 . S
C433 C424 1.390 . S
C433 H426 0.950 . S
C433 C430 1.387 . S
C434 C435 1.387 . S
C434 H438 0.950 . S
C434 C443 1.390 . S
C435 C434 1.387 . S
C435 C437 1.387 . S
H436 C443 0.950 . S
C437 C435 1.387 . S
C437 C439 1.390 . S
C437 H441 0.950 . S
H438 C434 0.950 . S
C439 C437 1.390 . S
C439 C440 1.387 . S
C439 H442 0.950 . S
C440 C439 1.387 . S
C440 C443 1.387 . S
H441 C437 0.950 . S
H442 C439 0.950 . S
C443 C434 1.390 . S
C443 H436 0.950 . S
C443 C440 1.387 . S
C444 C445 1.387 . S
C444 H448 0.950 . S
C444 C453 1.390 . S
C445 C444 1.387 . S
C445 C447 1.387 . S
H446 C453 0.950 . S
C447 C445 1.387 . S
C447 C449 1.390 . S
C447 H451 0.950 . S
H448 C444 0.950 . S
C449 C447 1.390 . S
C449 C450 1.387 . S
C449 H452 0.950 . S
C450 C449 1.387 . S
C450 C453 1.387 . S
H451 C447 0.950 . S
H452 C449 0.950 . S
C453 C444 1.390 . S
C453 H446 0.950 . S
C453 C450 1.387 . S
C454 C455 1.387 . S
C454 H458 0.950 . S
C454 C463 1.390 . S
C455 C454 1.387 . S
C455 C457 1.387 . S
H456 C463 0.950 . S
C457 C455 1.387 . S
C457 C459 1.390 . S
C457 H461 0.950 . S
H458 C454 0.950 . S
C459 C457 1.390 . S
C459 C460 1.387 . S
C459 H462 0.950 . S
C460 C459 1.387 . S
C460 C463 1.387 . S
H461 C457 0.950 . S
H462 C459 0.950 . S
C463 C454 1.390 . S
C463 H456 0.950 . S
C463 C460 1.387 . S
C464 C465 1.387 . S
C464 H468 0.950 . S
C464 C473 1.390 . S
C465 C464 1.387 . S
C465 C467 1.387 . S
H466 C473 0.950 . S
C467 C465 1.387 . S
C467 C469 1.390 . S
C467 H471 0.950 . S
H468 C464 0.950 . S
C469 C467 1.390 . S
C469 C470 1.387 . S
C469 H472 0.950 . S
C470 C469 1.387 . S
C470 C473 1.387 . S
H471 C467 0.950 . S
H472 C469 0.950 . S
C473 C464 1.390 . S
C473 H466 0.950 . S
C473 C470 1.387 . S
C474 C475 1.387 . S
C474 H478 0.950 . S
C474 C483 1.390 . S
C475 C474 1.387 . S
C475 C477 1.387 . S
H476 C483 0.950 . S
C477 C475 1.387 . S
C477 C479 1.390 . S
C477 H481 0.950 . S
H478 C474 0.950 . S
C479 C477 1.390 . S
C479 C480 1.387 . S
C479 H482 0.950 . S
C480 C479 1.387 . S
C480 C483 1.387 . S
H481 C477 0.950 . S
H482 C479 0.950 . S
C483 C474 1.390 . S
C483 H476 0.950 . S
C483 C480 1.387 . S
C484 C485 1.387 . S
C484 H488 0.950 . S
C484 C493 1.390 . S
C485 C484 1.387 . S
C485 C487 1.387 . S
H486 C493 0.950 . S
C487 C485 1.387 . S
C487 C489 1.390 . S
C487 H491 0.950 . S
H488 C484 0.950 . S
C489 C487 1.390 . S
C489 C490 1.387 . S
C489 H492 0.950 . S
C490 C489 1.387 . S
C490 C493 1.387 . S
H491 C487 0.950 . S
H492 C489 0.950 . S
C493 C484 1.390 . S
C493 H486 0.950 . S
C493 C490 1.387 . S
C494 C495 1.387 . S
C494 H498 0.950 . S
C494 C503 1.390 . S
C495 C494 1.387 . S
C495 C497 1.387 . S
H496 C503 0.950 . S
C497 C495 1.387 . S
C497 C499 1.390 . S
C497 H501 0.950 . S
H498 C494 0.950 . S
C499 C497 1.390 . S
C499 C500 1.387 . S
C499 H502 0.950 . S
C500 C499 1.387 . S
C500 C503 1.387 . S
H501 C497 0.950 . S
H502 C499 0.950 . S
C503 C494 1.390 . S
C503 H496 0.950 . S
C503 C500 1.387 . S
C504 C505 1.387 . S
C504 H508 0.950 . S
C504 C513 1.390 . S
C505 C504 1.387 . S
C505 C507 1.387 . S
H506 C513 0.950 . S
C507 C505 1.387 . S
C507 C509 1.390 . S
C507 H511 0.950 . S
H508 C504 0.950 . S
C509 C507 1.390 . S
C509 C510 1.387 . S
C509 H512 0.950 . S
C510 C509 1.387 . S
C510 C513 1.387 . S
H511 C507 0.950 . S
H512 C509 0.950 . S
C513 C504 1.390 . S
C513 H506 0.950 . S
C513 C510 1.387 . S
C514 C515 1.387 . S
C514 H518 0.950 . S
C514 C523 1.390 . S
C515 C514 1.387 . S
C515 C517 1.387 . S
H516 C523 0.950 . S
C517 C515 1.387 . S
C517 C519 1.390 . S
C517 H521 0.950 . S
H518 C514 0.950 . S
C519 C517 1.390 . S
C519 C520 1.387 . S
C519 H522 0.950 . S
C520 C519 1.387 . S
C520 C523 1.387 . S
H521 C517 0.950 . S
H522 C519 0.950 . S
C523 C514 1.390 . S
C523 H516 0.950 . S
C523 C520 1.387 . S
C524 C525 1.387 . S
C524 H528 0.950 . S
C524 C533 1.390 . S
C525 C524 1.387 . S
C525 C527 1.387 . S
H526 C533 0.950 . S
C527 C525 1.387 . S
C527 C529 1.390 . S
C527 H531 0.950 . S
H528 C524 0.950 . S
C529 C527 1.390 . S
C529 C530 1.387 . S
C529 H532 0.950 . S
C530 C529 1.387 . S
C530 C533 1.387 . S
H531 C527 0.950 . S
H532 C529 0.950 . S
C533 C524 1.390 . S
C533 H526 0.950 . S
C533 C530 1.387 . S
C534 C535 1.387 . S
C534 H538 0.950 . S
C534 C543 1.390 . S
C535 C534 1.387 . S
C535 C537 1.387 . S
H536 C543 0.950 . S
C537 C535 1.387 . S
C537 C539 1.390 . S
C537 H541 0.950 . S
H538 C534 0.950 . S
C539 C537 1.390 . S
C539 C540 1.387 . S
C539 H542 0.950 . S
C540 C539 1.387 . S
C540 C543 1.387 . S
H541 C537 0.950 . S
H542 C539 0.950 . S
C543 C534 1.390 . S
C543 H536 0.950 . S
C543 C540 1.387 . S
C225 C110 1.577 . S
C230 C0 1.575 . S
C235 C57 1.576 . S
C240 C15 1.576 . S
C245 C83 1.576 . S
C250 C29 1.575 . S
C255 C55 1.575 . S
C260 C97 1.576 . S
C265 C223 1.576 . S
C270 C112 1.575 . S
C275 C169 1.576 . S
C280 C126 1.576 . S
C285 C152 1.576 . S
C290 C183 1.576 . S
C295 C166 1.575 . S
C300 C196 1.577 . S
C305 C41 1.482 . S
C310 C12 1.484 . S
C315 C27 1.485 . S
C320 C43 1.485 . S
C325 C69 1.482 . S
C330 C85 1.482 . S
C335 C98 1.487 . S
C340 C71 1.485 . S
C345 C124 1.482 . S
C350 C140 1.482 . S
C355 C138 1.485 . S
C360 C154 1.485 . S
C365 C208 1.482 . S
C370 C181 1.484 . S
C375 C195 1.484 . S
C380 C211 1.484 . S
C385 C96 1.595 . S
C390 C1 1.594 . S
C395 C14 1.595 . S
C400 C111 1.594 . S
C405 C28 1.595 . S
C410 C56 1.595 . S
C415 C54 1.595 . S
C420 C82 1.595 . S
C425 C113 1.595 . S
C430 C197 1.595 . S
C435 C127 1.595 . S
C440 C222 1.594 . S
C445 C153 1.596 . S
C450 C168 1.595 . S
C455 C167 1.596 . S
C460 C182 1.595 . S
C465 C13 1.551 1_565 S
C470 C210 1.550 . S
C475 C180 1.551 . S
C480 C26 1.551 . S
C485 C40 1.551 . S
C490 C194 1.551 1_455 S
C495 C209 1.552 1_545 S
C500 C42 1.551 1_655 S
C505 C139 1.551 . S
C510 C68 1.552 . S
C515 C70 1.551 1_655 S
C520 C141 1.552 . S
C525 C155 1.552 1_455 S
C530 C84 1.551 1_565 S
C535 C125 1.552 1_545 S
C540 C99 1.550 . S
