# Generated by pormake.
# Topology uox, (4)-cn, num edge types: 1
# Building blocks:
#     Node 0, Type 0, BuildingBlock: CEKHIL_clean_sbu_0, # of connection points: 4
#     Node 1, Type 0, BuildingBlock: CEKHIL_clean_sbu_0, # of connection points: 4
#     Node 2, Type 0, BuildingBlock: CEKHIL_clean_sbu_0, # of connection points: 4
#     Node 3, Type 0, BuildingBlock: CEKHIL_clean_sbu_0, # of connection points: 4
#     Node 4, Type 0, BuildingBlock: CEKHIL_clean_sbu_0, # of connection points: 4
#     Node 5, Type 0, BuildingBlock: CEKHIL_clean_sbu_0, # of connection points: 4
#     Node 6, Type 0, BuildingBlock: CEKHIL_clean_sbu_0, # of connection points: 4
#     Node 7, Type 0, BuildingBlock: CEKHIL_clean_sbu_0, # of connection points: 4
#     Node 8, Type 0, BuildingBlock: CEKHIL_clean_sbu_0, # of connection points: 4
#     Node 9, Type 0, BuildingBlock: CEKHIL_clean_sbu_0, # of connection points: 4
#     Node 10, Type 0, BuildingBlock: CEKHIL_clean_sbu_0, # of connection points: 4
#     Node 11, Type 0, BuildingBlock: CEKHIL_clean_sbu_0, # of connection points: 4
#     Node 12, Type 0, BuildingBlock: CEKHIL_clean_sbu_0, # of connection points: 4
#     Node 13, Type 0, BuildingBlock: CEKHIL_clean_sbu_0, # of connection points: 4
#     Node 14, Type 0, BuildingBlock: CEKHIL_clean_sbu_0, # of connection points: 4
#     Node 15, Type 0, BuildingBlock: CEKHIL_clean_sbu_0, # of connection points: 4
#     Node 16, Type 0, BuildingBlock: CEKHIL_clean_sbu_0, # of connection points: 4
#     Node 17, Type 0, BuildingBlock: CEKHIL_clean_sbu_0, # of connection points: 4
#     Node 18, Type 0, BuildingBlock: CEKHIL_clean_sbu_0, # of connection points: 4
#     Node 19, Type 0, BuildingBlock: CEKHIL_clean_sbu_0, # of connection points: 4
#     Node 20, Type 0, BuildingBlock: CEKHIL_clean_sbu_0, # of connection points: 4
#     Node 21, Type 0, BuildingBlock: CEKHIL_clean_sbu_0, # of connection points: 4
#     Node 22, Type 0, BuildingBlock: CEKHIL_clean_sbu_0, # of connection points: 4
#     Node 23, Type 0, BuildingBlock: CEKHIL_clean_sbu_0, # of connection points: 4
#     Node 24, Type 0, BuildingBlock: CEKHIL_clean_sbu_0, # of connection points: 4
#     Node 25, Type 0, BuildingBlock: CEKHIL_clean_sbu_0, # of connection points: 4
#     Node 26, Type 0, BuildingBlock: CEKHIL_clean_sbu_0, # of connection points: 4
#     Node 27, Type 0, BuildingBlock: CEKHIL_clean_sbu_0, # of connection points: 4
#     Node 28, Type 0, BuildingBlock: CEKHIL_clean_sbu_0, # of connection points: 4
#     Node 29, Type 0, BuildingBlock: CEKHIL_clean_sbu_0, # of connection points: 4
#     Node 30, Type 0, BuildingBlock: CEKHIL_clean_sbu_0, # of connection points: 4
#     Node 31, Type 0, BuildingBlock: CEKHIL_clean_sbu_0, # of connection points: 4
#     Edge 32, Type (0, 0), BuildingBlock: TEMPAE_clean_linker_10, # of connection points: 2
#     Edge 33, Type (0, 0), BuildingBlock: TEMPAE_clean_linker_10, # of connection points: 2
#     Edge 34, Type (0, 0), BuildingBlock: TEMPAE_clean_linker_10, # of connection points: 2
#     Edge 35, Type (0, 0), BuildingBlock: TEMPAE_clean_linker_10, # of connection points: 2
#     Edge 36, Type (0, 0), BuildingBlock: TEMPAE_clean_linker_10, # of connection points: 2
#     Edge 37, Type (0, 0), BuildingBlock: TEMPAE_clean_linker_10, # of connection points: 2
#     Edge 38, Type (0, 0), BuildingBlock: TEMPAE_clean_linker_10, # of connection points: 2
#     Edge 39, Type (0, 0), BuildingBlock: TEMPAE_clean_linker_10, # of connection points: 2
#     Edge 40, Type (0, 0), BuildingBlock: TEMPAE_clean_linker_10, # of connection points: 2
#     Edge 41, Type (0, 0), BuildingBlock: TEMPAE_clean_linker_10, # of connection points: 2
#     Edge 42, Type (0, 0), BuildingBlock: TEMPAE_clean_linker_10, # of connection points: 2
#     Edge 43, Type (0, 0), BuildingBlock: TEMPAE_clean_linker_10, # of connection points: 2
#     Edge 44, Type (0, 0), BuildingBlock: TEMPAE_clean_linker_10, # of connection points: 2
#     Edge 45, Type (0, 0), BuildingBlock: TEMPAE_clean_linker_10, # of connection points: 2
#     Edge 46, Type (0, 0), BuildingBlock: TEMPAE_clean_linker_10, # of connection points: 2
#     Edge 47, Type (0, 0), BuildingBlock: TEMPAE_clean_linker_10, # of connection points: 2
#     Edge 48, Type (0, 0), BuildingBlock: TEMPAE_clean_linker_10, # of connection points: 2
#     Edge 49, Type (0, 0), BuildingBlock: TEMPAE_clean_linker_10, # of connection points: 2
#     Edge 50, Type (0, 0), BuildingBlock: TEMPAE_clean_linker_10, # of connection points: 2
#     Edge 51, Type (0, 0), BuildingBlock: TEMPAE_clean_linker_10, # of connection points: 2
#     Edge 52, Type (0, 0), BuildingBlock: TEMPAE_clean_linker_10, # of connection points: 2
#     Edge 53, Type (0, 0), BuildingBlock: TEMPAE_clean_linker_10, # of connection points: 2
#     Edge 54, Type (0, 0), BuildingBlock: TEMPAE_clean_linker_10, # of connection points: 2
#     Edge 55, Type (0, 0), BuildingBlock: TEMPAE_clean_linker_10, # of connection points: 2
#     Edge 56, Type (0, 0), BuildingBlock: TEMPAE_clean_linker_10, # of connection points: 2
#     Edge 57, Type (0, 0), BuildingBlock: TEMPAE_clean_linker_10, # of connection points: 2
#     Edge 58, Type (0, 0), BuildingBlock: TEMPAE_clean_linker_10, # of connection points: 2
#     Edge 59, Type (0, 0), BuildingBlock: TEMPAE_clean_linker_10, # of connection points: 2
#     Edge 60, Type (0, 0), BuildingBlock: TEMPAE_clean_linker_10, # of connection points: 2
#     Edge 61, Type (0, 0), BuildingBlock: TEMPAE_clean_linker_10, # of connection points: 2
#     Edge 62, Type (0, 0), BuildingBlock: TEMPAE_clean_linker_10, # of connection points: 2
#     Edge 63, Type (0, 0), BuildingBlock: TEMPAE_clean_linker_10, # of connection points: 2
#     Edge 64, Type (0, 0), BuildingBlock: TEMPAE_clean_linker_10, # of connection points: 2
#     Edge 65, Type (0, 0), BuildingBlock: TEMPAE_clean_linker_10, # of connection points: 2
#     Edge 66, Type (0, 0), BuildingBlock: TEMPAE_clean_linker_10, # of connection points: 2
#     Edge 67, Type (0, 0), BuildingBlock: TEMPAE_clean_linker_10, # of connection points: 2
#     Edge 68, Type (0, 0), BuildingBlock: TEMPAE_clean_linker_10, # of connection points: 2
#     Edge 69, Type (0, 0), BuildingBlock: TEMPAE_clean_linker_10, # of connection points: 2
#     Edge 70, Type (0, 0), BuildingBlock: TEMPAE_clean_linker_10, # of connection points: 2
#     Edge 71, Type (0, 0), BuildingBlock: TEMPAE_clean_linker_10, # of connection points: 2
#     Edge 72, Type (0, 0), BuildingBlock: TEMPAE_clean_linker_10, # of connection points: 2
#     Edge 73, Type (0, 0), BuildingBlock: TEMPAE_clean_linker_10, # of connection points: 2
#     Edge 74, Type (0, 0), BuildingBlock: TEMPAE_clean_linker_10, # of connection points: 2
#     Edge 75, Type (0, 0), BuildingBlock: TEMPAE_clean_linker_10, # of connection points: 2
#     Edge 76, Type (0, 0), BuildingBlock: TEMPAE_clean_linker_10, # of connection points: 2
#     Edge 77, Type (0, 0), BuildingBlock: TEMPAE_clean_linker_10, # of connection points: 2
#     Edge 78, Type (0, 0), BuildingBlock: TEMPAE_clean_linker_10, # of connection points: 2
#     Edge 79, Type (0, 0), BuildingBlock: TEMPAE_clean_linker_10, # of connection points: 2
#     Edge 80, Type (0, 0), BuildingBlock: TEMPAE_clean_linker_10, # of connection points: 2
#     Edge 81, Type (0, 0), BuildingBlock: TEMPAE_clean_linker_10, # of connection points: 2
#     Edge 82, Type (0, 0), BuildingBlock: TEMPAE_clean_linker_10, # of connection points: 2
#     Edge 83, Type (0, 0), BuildingBlock: TEMPAE_clean_linker_10, # of connection points: 2
#     Edge 84, Type (0, 0), BuildingBlock: TEMPAE_clean_linker_10, # of connection points: 2
#     Edge 85, Type (0, 0), BuildingBlock: TEMPAE_clean_linker_10, # of connection points: 2
#     Edge 86, Type (0, 0), BuildingBlock: TEMPAE_clean_linker_10, # of connection points: 2
#     Edge 87, Type (0, 0), BuildingBlock: TEMPAE_clean_linker_10, # of connection points: 2
#     Edge 88, Type (0, 0), BuildingBlock: TEMPAE_clean_linker_10, # of connection points: 2
#     Edge 89, Type (0, 0), BuildingBlock: TEMPAE_clean_linker_10, # of connection points: 2
#     Edge 90, Type (0, 0), BuildingBlock: TEMPAE_clean_linker_10, # of connection points: 2
#     Edge 91, Type (0, 0), BuildingBlock: TEMPAE_clean_linker_10, # of connection points: 2
#     Edge 92, Type (0, 0), BuildingBlock: TEMPAE_clean_linker_10, # of connection points: 2
#     Edge 93, Type (0, 0), BuildingBlock: TEMPAE_clean_linker_10, # of connection points: 2
#     Edge 94, Type (0, 0), BuildingBlock: TEMPAE_clean_linker_10, # of connection points: 2
#     Edge 95, Type (0, 0), BuildingBlock: TEMPAE_clean_linker_10, # of connection points: 2
# Relax obj value: 0.060
# Max RMSD: 0.089
# Mean RMSD: 0.089
data_MOF--net-uox--node1-CEKHIL_clean_sbu_0--edge1-TEMPAE_clean_linker_10
_symmetry_space_group_name_H-M    P1
_symmetry_Int_Tables_number       1
_symmetry_cell_setting            triclinic
loop_
_symmetry_equiv_pos_as_xyz
'x, y, z'
_cell_length_a     46.454719
_cell_length_b     46.465161
_cell_length_c     77.528935
_cell_angle_alpha  90.001256
_cell_angle_beta   90.013035
_cell_angle_gamma 89.996994
loop_
_atom_site_label
_atom_site_type_symbol
_atom_site_fract_x
_atom_site_fract_y
_atom_site_fract_z
_atom_type_partial_charge
Co0 Co 0.42321 0.05213 0.16588 0.0
O1 O 0.43536 0.02458 0.18303 0.0
O2 O 0.39962 0.05543 0.18645 0.0
C3 C 0.46768 0.06819 0.15903 0.0
O4 O 0.40533 0.0846 0.15169 0.0
Co5 Co 0.44148 0.04691 0.12753 0.0
O6 O 0.43003 0.08815 0.12683 0.0
C7 C 0.39585 0.00884 0.14122 0.0
C8 C 0.4154 0.03499 0.19295 0.0
C9 C 0.41231 0.09818 0.13783 0.0
O10 O 0.39581 0.02299 0.15553 0.0
O11 O 0.4138 0.01374 0.12902 0.0
O12 O 0.45435 0.07822 0.17249 0.0
O13 O 0.45497 0.04727 0.15114 0.0
Co14 Co 0.19988 0.16985 0.41577 0.0
O15 O 0.22742 0.18226 0.43288 0.0
O16 O 0.19629 0.14686 0.43658 0.0
C17 C 0.18391 0.21405 0.40827 0.0
O18 O 0.16724 0.152 0.40169 0.0
Co19 Co 0.20722 0.18661 0.37732 0.0
O20 O 0.16878 0.16866 0.37442 0.0
C21 C 0.2448 0.14219 0.39224 0.0
C22 C 0.21691 0.16257 0.44294 0.0
C23 C 0.15675 0.1541 0.38635 0.0
O24 O 0.22905 0.14181 0.40593 0.0
O25 O 0.24126 0.16045 0.38006 0.0
O26 O 0.17388 0.20126 0.42191 0.0
O27 O 0.2051 0.20119 0.40071 0.0
Co28 Co 0.07717 0.94668 0.66575 0.0
O29 O 0.06559 0.9759 0.6821 0.0
O30 O 0.1007 0.94464 0.68639 0.0
C31 C 0.03238 0.93085 0.65931 0.0
O32 O 0.09451 0.9127 0.65254 0.0
Co33 Co 0.05919 0.94935 0.62714 0.0
O34 O 0.0714 0.9084 0.62713 0.0
C35 C 0.10506 0.98787 0.64001 0.0
C36 C 0.08532 0.96583 0.69233 0.0
C37 C 0.0884 0.89875 0.63864 0.0
O38 O 0.10514 0.97444 0.65457 0.0
O39 O 0.08689 0.98253 0.62799 0.0
O40 O 0.04529 0.92211 0.67322 0.0
O41 O 0.04566 0.95063 0.65073 0.0
Co42 Co 0.30046 0.8323 0.91527 0.0
O43 O 0.27274 0.81988 0.93228 0.0
O44 O 0.30406 0.85508 0.93616 0.0
C45 C 0.3163 0.78812 0.90767 0.0
O46 O 0.33332 0.85008 0.90137 0.0
Co47 Co 0.2935 0.81586 0.87671 0.0
O48 O 0.33213 0.83353 0.87407 0.0
C49 C 0.25595 0.86034 0.89162 0.0
C50 C 0.28336 0.8394 0.94244 0.0
C51 C 0.34404 0.84795 0.88609 0.0
O52 O 0.2715 0.86055 0.9054 0.0
O53 O 0.25959 0.84216 0.87941 0.0
O54 O 0.32624 0.8007 0.9214 0.0
O55 O 0.29524 0.80114 0.90008 0.0
Co56 Co 0.4226 0.94835 0.34338 0.0
O57 O 0.43427 0.97805 0.32737 0.0
O58 O 0.39908 0.947 0.32276 0.0
C59 C 0.46732 0.93216 0.34967 0.0
O60 O 0.4051 0.91398 0.3561 0.0
Co61 Co 0.44034 0.94946 0.38202 0.0
O62 O 0.42816 0.90849 0.38142 0.0
C63 C 0.39474 0.98869 0.36959 0.0
C64 C 0.4145 0.96832 0.31705 0.0
C65 C 0.41115 0.89939 0.36976 0.0
O66 O 0.39468 0.97579 0.35487 0.0
O67 O 0.41279 0.98282 0.38159 0.0
O68 O 0.45442 0.92394 0.33563 0.0
O69 O 0.45408 0.95167 0.35849 0.0
Co70 Co 0.29992 0.16923 0.59442 0.0
O71 O 0.27216 0.18145 0.5774 0.0
O72 O 0.30353 0.14629 0.57359 0.0
C73 C 0.31565 0.21351 0.60187 0.0
O74 O 0.33282 0.15169 0.60844 0.0
Co75 Co 0.29267 0.18606 0.6329 0.0
O76 O 0.33147 0.16882 0.63562 0.0
C77 C 0.25536 0.1413 0.61809 0.0
C78 C 0.28276 0.16188 0.56729 0.0
C79 C 0.34351 0.15422 0.62372 0.0
O80 O 0.27102 0.14101 0.60436 0.0
O81 O 0.25886 0.1596 0.63025 0.0
O82 O 0.32563 0.2008 0.58819 0.0
O83 O 0.2946 0.20053 0.60948 0.0
Co84 Co 0.07889 0.055 0.84248 0.0
O85 O 0.06707 0.02549 0.82637 0.0
O86 O 0.1023 0.05647 0.82178 0.0
C87 C 0.0342 0.07117 0.84884 0.0
O88 O 0.09646 0.08921 0.85538 0.0
Co89 Co 0.06104 0.05336 0.88113 0.0
O90 O 0.07353 0.09423 0.8808 0.0
C91 C 0.10658 0.01421 0.86852 0.0
C92 C 0.08676 0.03526 0.81602 0.0
C93 C 0.09051 0.10351 0.86917 0.0
O94 O 0.10676 0.02734 0.85386 0.0
O95 O 0.08847 0.01994 0.8805 0.0
O96 O 0.0471 0.07955 0.83484 0.0
O97 O 0.04743 0.05154 0.85757 0.0
Co98 Co 0.2003 0.83075 0.09383 0.0
O99 O 0.22827 0.81863 0.07689 0.0
O100 O 0.19746 0.85433 0.07322 0.0
C101 C 0.1842 0.78623 0.10057 0.0
O102 O 0.16748 0.84862 0.10774 0.0
Co103 Co 0.20466 0.81255 0.13223 0.0
O104 O 0.16349 0.82426 0.13271 0.0
C105 C 0.2432 0.85796 0.11876 0.0
C106 C 0.21809 0.8386 0.06689 0.0
C107 C 0.15369 0.84186 0.12157 0.0
O108 O 0.22922 0.85815 0.10439 0.0
O109 O 0.23807 0.83997 0.13091 0.0
O110 O 0.17443 0.79953 0.08703 0.0
O111 O 0.20488 0.79903 0.10862 0.0
Co112 Co 0.57883 0.9495 0.84343 0.0
O113 O 0.56678 0.97718 0.82633 0.0
O114 O 0.60215 0.94596 0.82275 0.0
C115 C 0.53442 0.93372 0.85059 0.0
O116 O 0.59633 0.91671 0.85756 0.0
Co117 Co 0.5614 0.95663 0.88179 0.0
O118 O 0.57907 0.91808 0.8847 0.0
C119 C 0.6061 0.99426 0.86721 0.0
C120 C 0.5866 0.96668 0.81635 0.0
C121 C 0.59384 0.90609 0.87286 0.0
O122 O 0.60674 0.97854 0.85351 0.0
O123 O 0.58763 0.99064 0.87927 0.0
O124 O 0.54742 0.92367 0.83702 0.0
O125 O 0.54725 0.95477 0.85829 0.0
Co126 Co 0.79992 0.82973 0.59273 0.0
O127 O 0.77235 0.81799 0.57548 0.0
O128 O 0.80322 0.85376 0.57232 0.0
C129 C 0.81589 0.7851 0.59925 0.0
O130 O 0.83239 0.84725 0.60711 0.0
Co131 Co 0.79448 0.81064 0.63093 0.0
O132 O 0.83568 0.82217 0.63186 0.0
C133 C 0.75645 0.85651 0.61749 0.0
C134 C 0.78272 0.83817 0.56571 0.0
C135 C 0.84582 0.84006 0.621 0.0
O136 O 0.77075 0.85691 0.60324 0.0
O137 O 0.76124 0.83826 0.62955 0.0
O138 O 0.82599 0.7987 0.58591 0.0
O139 O 0.79497 0.79767 0.60721 0.0
Co140 Co 0.9235 0.05084 0.34196 0.0
O141 O 0.93568 0.02361 0.32463 0.0
O142 O 0.90019 0.05479 0.32132 0.0
C143 C 0.96782 0.06672 0.34929 0.0
O144 O 0.90581 0.08327 0.35625 0.0
Co145 Co 0.94083 0.04332 0.38031 0.0
O146 O 0.92286 0.0817 0.38343 0.0
C147 C 0.89625 0.00572 0.36552 0.0
C148 C 0.91585 0.03434 0.31473 0.0
C149 C 0.9081 0.09371 0.37159 0.0
O150 O 0.89566 0.02149 0.35183 0.0
O151 O 0.91465 0.00931 0.37762 0.0
O152 O 0.95481 0.07694 0.33578 0.0
O153 O 0.95507 0.04547 0.35685 0.0
Co154 Co 0.69954 0.17228 0.09215 0.0
O155 O 0.72813 0.18397 0.07546 0.0
O156 O 0.69614 0.14947 0.07128 0.0
C157 C 0.68439 0.21684 0.09952 0.0
O158 O 0.66587 0.15525 0.10579 0.0
Co159 Co 0.70622 0.18871 0.13085 0.0
O160 O 0.66761 0.17104 0.13327 0.0
C161 C 0.74321 0.14367 0.11611 0.0
C162 C 0.71738 0.16464 0.06521 0.0
C163 C 0.65538 0.15709 0.12116 0.0
O164 O 0.72752 0.14342 0.10238 0.0
O165 O 0.73995 0.16214 0.1282 0.0
O166 O 0.67499 0.20466 0.08553 0.0
O167 O 0.7047 0.20322 0.10745 0.0
Co168 Co 0.57838 0.05141 0.66546 0.0
O169 O 0.56651 0.02347 0.68244 0.0
O170 O 0.6024 0.05412 0.68592 0.0
C171 C 0.53375 0.0676 0.65912 0.0
O172 O 0.59603 0.08415 0.65135 0.0
Co173 Co 0.55926 0.04684 0.62725 0.0
O174 O 0.57113 0.08795 0.62656 0.0
C175 C 0.60502 0.0084 0.64038 0.0
C176 C 0.58672 0.0335 0.69232 0.0
C177 C 0.58903 0.09781 0.63751 0.0
O178 O 0.60548 0.02243 0.65472 0.0
O179 O 0.58677 0.01347 0.62836 0.0
O180 O 0.54744 0.07741 0.67251 0.0
O181 O 0.54626 0.04686 0.65097 0.0
Co182 Co 0.70065 0.8295 0.41439 0.0
O183 O 0.72872 0.818 0.43142 0.0
O184 O 0.69814 0.85401 0.43463 0.0
C185 C 0.68429 0.78474 0.40853 0.0
O186 O 0.66778 0.84688 0.40027 0.0
Co187 Co 0.70446 0.80943 0.37633 0.0
O188 O 0.66328 0.8211 0.37586 0.0
C189 C 0.74315 0.8556 0.38875 0.0
C190 C 0.71871 0.83841 0.44115 0.0
C191 C 0.65372 0.8394 0.38666 0.0
O192 O 0.7296 0.85626 0.40326 0.0
O193 O 0.73768 0.83717 0.37689 0.0
O194 O 0.67466 0.7988 0.42182 0.0
O195 O 0.70496 0.797 0.40016 0.0
Co196 Co 0.92168 0.94958 0.16392 0.0
O197 O 0.93312 0.9791 0.18009 0.0
O198 O 0.89811 0.94778 0.18453 0.0
C199 C 0.96653 0.93376 0.15768 0.0
O200 O 0.90454 0.9153 0.1509 0.0
Co201 Co 0.93972 0.95172 0.12535 0.0
O202 O 0.92803 0.9106 0.12565 0.0
C203 C 0.8936 0.9902 0.13791 0.0
C204 C 0.91342 0.9691 0.19036 0.0
C205 C 0.91096 0.90107 0.13716 0.0
O206 O 0.89363 0.97702 0.15255 0.0
O207 O 0.91178 0.98475 0.12592 0.0
O208 O 0.95355 0.92524 0.17161 0.0
O209 O 0.95326 0.95338 0.14894 0.0
Co210 Co 0.80094 0.17307 0.914 0.0
O211 O 0.77304 0.18496 0.93101 0.0
O212 O 0.80378 0.14915 0.93448 0.0
C213 C 0.81715 0.21764 0.90757 0.0
O214 O 0.83369 0.15544 0.8999 0.0
Co215 Co 0.79638 0.19204 0.87574 0.0
O216 O 0.83761 0.18056 0.8752 0.0
C217 C 0.75816 0.14607 0.88885 0.0
C218 C 0.78321 0.16485 0.9409 0.0
C219 C 0.84747 0.16265 0.88614 0.0
O220 O 0.77198 0.14588 0.90328 0.0
O221 O 0.76329 0.1642 0.87678 0.0
O222 O 0.82692 0.20405 0.92099 0.0
O223 O 0.79636 0.20511 0.89944 0.0
Co224 Co 0.91898 0.55117 0.66406 0.0
O225 O 0.9309 0.52241 0.68058 0.0
O226 O 0.89645 0.55434 0.68504 0.0
C227 C 0.96344 0.56638 0.6566 0.0
O228 O 0.90179 0.58503 0.65065 0.0
Co229 Co 0.93501 0.54518 0.62524 0.0
O230 O 0.91746 0.58388 0.62313 0.0
C231 C 0.89021 0.50783 0.63997 0.0
C232 C 0.91178 0.53311 0.69098 0.0
C233 C 0.90358 0.59587 0.63536 0.0
O234 O 0.89003 0.52329 0.65379 0.0
O235 O 0.90854 0.51138 0.62783 0.0
O236 O 0.9514 0.57562 0.67067 0.0
O237 O 0.94973 0.54621 0.6486 0.0
Co238 Co 0.69912 0.6725 0.91488 0.0
O239 O 0.72733 0.68415 0.93178 0.0
O240 O 0.69655 0.64838 0.93526 0.0
C241 C 0.68295 0.71723 0.90874 0.0
O242 O 0.66607 0.65504 0.90098 0.0
Co243 Co 0.70273 0.69178 0.87668 0.0
O244 O 0.66145 0.68046 0.87645 0.0
C245 C 0.74117 0.64554 0.88928 0.0
C246 C 0.71722 0.66399 0.94165 0.0
C247 C 0.65189 0.6624 0.8874 0.0
O248 O 0.72782 0.64534 0.90386 0.0
O249 O 0.73568 0.66373 0.87729 0.0
O250 O 0.67335 0.70348 0.92215 0.0
O251 O 0.7035 0.7047 0.90041 0.0
Co252 Co 0.5826 0.44936 0.1664 0.0
O253 O 0.57047 0.47753 0.1832 0.0
O254 O 0.60607 0.44668 0.18707 0.0
C255 C 0.53809 0.4333 0.15963 0.0
O256 O 0.60043 0.41638 0.15259 0.0
Co257 Co 0.56448 0.45352 0.12795 0.0
O258 O 0.57593 0.41228 0.12767 0.0
C259 C 0.61017 0.49183 0.14134 0.0
C260 C 0.59037 0.46742 0.19328 0.0
C261 C 0.59355 0.40248 0.13881 0.0
O262 O 0.61015 0.47806 0.15578 0.0
O263 O 0.5922 0.48668 0.12918 0.0
O264 O 0.5513 0.4236 0.17322 0.0
O265 O 0.55094 0.45391 0.15155 0.0
Co266 Co 0.8031 0.32669 0.41479 0.0
O267 O 0.77534 0.31457 0.43183 0.0
O268 O 0.80634 0.35013 0.43545 0.0
C269 C 0.81925 0.28233 0.40782 0.0
O270 O 0.83595 0.34429 0.40076 0.0
Co271 Co 0.79666 0.30886 0.37644 0.0
O272 O 0.8351 0.32682 0.37366 0.0
C273 C 0.75884 0.35387 0.39056 0.0
C274 C 0.78573 0.33443 0.44183 0.0
C275 C 0.84678 0.34178 0.38553 0.0
O276 O 0.77402 0.35438 0.4045 0.0
O277 O 0.76286 0.33544 0.37853 0.0
O278 O 0.82907 0.29551 0.42139 0.0
O279 O 0.79821 0.29496 0.39999 0.0
Co280 Co 0.92155 0.45037 0.8425 0.0
O281 O 0.93335 0.47874 0.82569 0.0
O282 O 0.89865 0.44691 0.82168 0.0
C283 C 0.96606 0.43503 0.84988 0.0
O284 O 0.90437 0.41687 0.8562 0.0
Co285 Co 0.93811 0.45686 0.88118 0.0
O286 O 0.92058 0.41818 0.88359 0.0
C287 C 0.89339 0.4943 0.86645 0.0
C288 C 0.91395 0.46796 0.8155 0.0
C289 C 0.90641 0.40616 0.8715 0.0
O290 O 0.89291 0.47862 0.85272 0.0
O291 O 0.91186 0.49081 0.87852 0.0
O292 O 0.95376 0.42558 0.83594 0.0
O293 O 0.95256 0.45547 0.85777 0.0
Co294 Co 0.80372 0.67049 0.0922 0.0
O295 O 0.77428 0.68216 0.07601 0.0
O296 O 0.80575 0.64732 0.07145 0.0
C297 C 0.81933 0.71523 0.0989 0.0
O298 O 0.83795 0.65312 0.10515 0.0
Co299 Co 0.80145 0.68769 0.13094 0.0
O300 O 0.84256 0.67595 0.13061 0.0
C301 C 0.7627 0.64225 0.11781 0.0
C302 C 0.78439 0.66262 0.06567 0.0
C303 C 0.85215 0.65917 0.11896 0.0
O304 O 0.77623 0.6422 0.10329 0.0
O305 O 0.76802 0.66029 0.1299 0.0
O306 O 0.82803 0.70266 0.08486 0.0
O307 O 0.79972 0.70165 0.10745 0.0
Co308 Co 0.58102 0.55127 0.3445 0.0
O309 O 0.5691 0.5235 0.32741 0.0
O310 O 0.60456 0.55462 0.32389 0.0
C311 C 0.53659 0.56722 0.35144 0.0
O312 O 0.59841 0.58417 0.35859 0.0
Co313 Co 0.56307 0.54469 0.38283 0.0
O314 O 0.58058 0.58334 0.3856 0.0
C315 C 0.60792 0.50678 0.36863 0.0
C316 C 0.589 0.53394 0.31746 0.0
C317 C 0.5956 0.59509 0.37379 0.0
O318 O 0.60875 0.52224 0.35481 0.0
O319 O 0.58933 0.51066 0.38058 0.0
O320 O 0.54974 0.57712 0.33789 0.0
O321 O 0.54929 0.54621 0.35926 0.0
Co322 Co 0.69742 0.32788 0.59205 0.0
O323 O 0.7272 0.31624 0.57607 0.0
O324 O 0.69576 0.351 0.57125 0.0
C325 C 0.68173 0.2831 0.59867 0.0
O326 O 0.66293 0.34521 0.60475 0.0
Co327 Co 0.6991 0.31079 0.6308 0.0
O328 O 0.65796 0.3224 0.63019 0.0
C329 C 0.73766 0.35663 0.61799 0.0
C330 C 0.71726 0.33572 0.56564 0.0
C331 C 0.64852 0.33915 0.61848 0.0
O332 O 0.72461 0.35631 0.60331 0.0
O333 O 0.73215 0.33868 0.63009 0.0
O334 O 0.67331 0.29565 0.58456 0.0
O335 O 0.70118 0.29672 0.60734 0.0
Co336 Co 0.07997 0.4461 0.34202 0.0
O337 O 0.06773 0.4739 0.325 0.0
O338 O 0.10332 0.44299 0.32131 0.0
C339 C 0.03562 0.42992 0.34906 0.0
O340 O 0.09772 0.41324 0.35598 0.0
Co341 Co 0.06224 0.45229 0.38042 0.0
O342 O 0.08042 0.41394 0.38312 0.0
C343 C 0.10701 0.49037 0.36627 0.0
C344 C 0.08757 0.46359 0.31496 0.0
C345 C 0.09537 0.40235 0.37121 0.0
O346 O 0.10767 0.4752 0.35233 0.0
O347 O 0.08855 0.48627 0.37827 0.0
O348 O 0.04873 0.42013 0.33546 0.0
O349 O 0.04832 0.45091 0.35688 0.0
Co350 Co 0.3061 0.32918 0.09278 0.0
O351 O 0.27735 0.31775 0.07612 0.0
O352 O 0.30915 0.35244 0.07207 0.0
C353 C 0.32145 0.28449 0.09967 0.0
O354 O 0.3399 0.34603 0.10642 0.0
Co355 Co 0.30022 0.31163 0.13139 0.0
O356 O 0.33875 0.32948 0.13375 0.0
C357 C 0.26288 0.35709 0.11734 0.0
C358 C 0.28796 0.33724 0.06594 0.0
C359 C 0.35067 0.34384 0.12171 0.0
O360 O 0.27814 0.35766 0.10345 0.0
O361 O 0.26654 0.33836 0.12925 0.0
O362 O 0.33066 0.29705 0.08576 0.0
O363 O 0.30125 0.29787 0.10784 0.0
Co364 Co 0.42124 0.55526 0.84227 0.0
O365 O 0.43329 0.52629 0.82591 0.0
O366 O 0.39847 0.55779 0.82135 0.0
C367 C 0.46565 0.57103 0.84948 0.0
O368 O 0.40378 0.58917 0.85548 0.0
Co369 Co 0.43767 0.55019 0.88107 0.0
O370 O 0.41929 0.58854 0.88304 0.0
C371 C 0.39306 0.51217 0.86676 0.0
C372 C 0.41393 0.53658 0.81551 0.0
C373 C 0.40529 0.60016 0.87074 0.0
O374 O 0.39266 0.52732 0.85282 0.0
O375 O 0.41147 0.5161 0.87882 0.0
O376 O 0.45338 0.5799 0.83539 0.0
O377 O 0.4522 0.5509 0.85766 0.0
Co378 Co 0.1975 0.66997 0.59205 0.0
O379 O 0.22698 0.6817 0.57588 0.0
O380 O 0.19543 0.64698 0.57124 0.0
C381 C 0.18194 0.7147 0.59887 0.0
O382 O 0.16319 0.65255 0.60486 0.0
Co383 Co 0.19937 0.68687 0.63084 0.0
O384 O 0.1582 0.67536 0.63029 0.0
C385 C 0.23801 0.64122 0.6178 0.0
C386 C 0.21677 0.66231 0.56547 0.0
C387 C 0.14878 0.65862 0.61858 0.0
O388 O 0.2249 0.64151 0.60314 0.0
O389 O 0.23246 0.65909 0.62994 0.0
O390 O 0.17327 0.70227 0.58478 0.0
O391 O 0.20148 0.701 0.6074 0.0
Co392 Co 0.08182 0.55082 0.16429 0.0
O393 O 0.0701 0.52139 0.18047 0.0
O394 O 0.10446 0.55326 0.18528 0.0
C395 C 0.03725 0.56616 0.15708 0.0
O396 O 0.09884 0.58525 0.15132 0.0
Co397 Co 0.06555 0.54632 0.12541 0.0
O398 O 0.08332 0.58497 0.12376 0.0
C399 C 0.11071 0.50865 0.13949 0.0
C400 C 0.08926 0.53175 0.19098 0.0
C401 C 0.09713 0.59655 0.13615 0.0
O402 O 0.1108 0.52343 0.15358 0.0
O403 O 0.09233 0.51269 0.12743 0.0
O404 O 0.04929 0.57491 0.17127 0.0
O405 O 0.05102 0.54635 0.14881 0.0
Co406 Co 0.20028 0.33219 0.9154 0.0
O407 O 0.22985 0.32015 0.93143 0.0
O408 O 0.19852 0.35497 0.93633 0.0
C409 C 0.18444 0.28761 0.90845 0.0
O410 O 0.16593 0.34985 0.9027 0.0
Co411 Co 0.20207 0.31565 0.87654 0.0
O412 O 0.16105 0.32764 0.87705 0.0
C413 C 0.24087 0.36104 0.88972 0.0
C414 C 0.21986 0.33948 0.94195 0.0
C415 C 0.15163 0.34415 0.88888 0.0
O416 O 0.22772 0.36066 0.90437 0.0
O417 O 0.2353 0.34326 0.87753 0.0
O418 O 0.17595 0.29994 0.92261 0.0
O419 O 0.20403 0.30128 0.89994 0.0
Co420 Co 0.41999 0.44819 0.66506 0.0
O421 O 0.4322 0.47739 0.68125 0.0
O422 O 0.39777 0.44563 0.68616 0.0
C423 C 0.4643 0.43268 0.65744 0.0
O424 O 0.40247 0.41402 0.65214 0.0
Co425 Co 0.43531 0.4529 0.62607 0.0
O426 O 0.41712 0.41442 0.62442 0.0
C427 C 0.39093 0.49084 0.64069 0.0
C428 C 0.41317 0.46701 0.69183 0.0
C429 C 0.4036 0.40285 0.63693 0.0
O430 O 0.39092 0.4758 0.65467 0.0
O431 O 0.40907 0.48691 0.62849 0.0
O432 O 0.45254 0.42387 0.6717 0.0
O433 O 0.45045 0.45263 0.64934 0.0
Co434 Co 0.30138 0.6701 0.41434 0.0
O435 O 0.2725 0.68191 0.43084 0.0
O436 O 0.30409 0.64709 0.43513 0.0
C437 C 0.31713 0.7146 0.4073 0.0
O438 O 0.33533 0.65287 0.40107 0.0
Co439 Co 0.29666 0.68702 0.3756 0.0
O440 O 0.33527 0.66918 0.37369 0.0
C441 C 0.25856 0.64211 0.38956 0.0
C442 C 0.28298 0.6625 0.44114 0.0
C443 C 0.34668 0.65488 0.38594 0.0
O444 O 0.27341 0.64165 0.40363 0.0
O445 O 0.26275 0.66058 0.37757 0.0
O446 O 0.32603 0.70217 0.42133 0.0
O447 O 0.29699 0.70123 0.39908 0.0
C448 C 0.39133 0.96736 0.28776 0.0
C449 C 0.41098 0.97987 0.29928 0.0
C450 C 0.38954 0.97661 0.2705 0.0
C451 C 0.40783 0.99895 0.2646 0.0
C452 C 0.42705 0.01227 0.27633 0.0
C453 C 0.42841 0.00257 0.29349 0.0
C454 C 0.36874 0.96186 0.25844 0.0
C455 C 0.44687 0.0362 0.27063 0.0
C456 C 0.42905 0.00217 0.21721 0.0
C457 C 0.41189 0.02477 0.211 0.0
C458 C 0.42745 0.99322 0.2345 0.0
C459 C 0.40827 0.00721 0.24596 0.0
C460 C 0.39042 0.02964 0.23969 0.0
C461 C 0.39242 0.03814 0.22229 0.0
C462 C 0.44679 0.96913 0.24058 0.0
C463 C 0.36968 0.04509 0.25147 0.0
H464 H 0.37775 0.94983 0.2921 0.0
H465 H 0.44361 0.01244 0.3023 0.0
H466 H 0.35502 0.97801 0.25184 0.0
H467 H 0.38087 0.95016 0.2483 0.0
H468 H 0.35462 0.94628 0.26526 0.0
H469 H 0.45929 0.04549 0.28154 0.0
H470 H 0.46229 0.02789 0.2609 0.0
H471 H 0.43432 0.05365 0.2644 0.0
H472 H 0.44411 0.99163 0.2086 0.0
H473 H 0.37909 0.05562 0.21761 0.0
H474 H 0.43375 0.95179 0.24655 0.0
H475 H 0.46174 0.97729 0.25062 0.0
H476 H 0.45971 0.95973 0.22992 0.0
H477 H 0.35521 0.02939 0.25787 0.0
H478 H 0.35633 0.06111 0.24446 0.0
H479 H 0.3818 0.05638 0.26178 0.0
C480 C 0.28539 0.13914 0.53785 0.0
C481 C 0.27223 0.15852 0.54928 0.0
C482 C 0.27654 0.13727 0.52049 0.0
C483 C 0.25399 0.15516 0.51442 0.0
C484 C 0.24017 0.1742 0.52604 0.0
C485 C 0.24945 0.17565 0.54327 0.0
C486 C 0.29183 0.11668 0.50855 0.0
C487 C 0.21601 0.19363 0.52017 0.0
C488 C 0.25001 0.1764 0.46706 0.0
C489 C 0.22745 0.15908 0.46094 0.0
C490 C 0.25933 0.17473 0.48427 0.0
C491 C 0.24578 0.15529 0.49576 0.0
C492 C 0.22345 0.13723 0.48958 0.0
C493 C 0.21456 0.13933 0.47225 0.0
C494 C 0.28324 0.19436 0.49027 0.0
C495 C 0.20846 0.1162 0.50139 0.0
H496 H 0.30298 0.12581 0.54236 0.0
H497 H 0.23905 0.19062 0.552 0.0
H498 H 0.276 0.10252 0.50199 0.0
H499 H 0.30327 0.12894 0.49836 0.0
H500 H 0.3077 0.103 0.51545 0.0
H501 H 0.20656 0.20617 0.53097 0.0
H502 H 0.22415 0.20892 0.51032 0.0
H503 H 0.19871 0.18074 0.51404 0.0
H504 H 0.26021 0.19166 0.45843 0.0
H505 H 0.19715 0.12584 0.46764 0.0
H506 H 0.30071 0.18158 0.49631 0.0
H507 H 0.27492 0.20935 0.50023 0.0
H508 H 0.29252 0.20723 0.47956 0.0
H509 H 0.22448 0.10212 0.50782 0.0
H510 H 0.19275 0.10246 0.49439 0.0
H511 H 0.19688 0.12811 0.51166 0.0
C512 C 0.10947 0.03641 0.78657 0.0
C513 C 0.09002 0.02384 0.7982 0.0
C514 C 0.11107 0.02712 0.7693 0.0
C515 C 0.09281 0.00469 0.76349 0.0
C516 C 0.07371 0.99141 0.7753 0.0
C517 C 0.07254 0.00113 0.79247 0.0
C518 C 0.13176 0.04184 0.75716 0.0
C519 C 0.05392 0.96737 0.76971 0.0
C520 C 0.07173 0.99984 0.71608 0.0
C521 C 0.08891 0.97702 0.71018 0.0
C522 C 0.07333 0.00947 0.73324 0.0
C523 C 0.09255 0.99597 0.7449 0.0
C524 C 0.11048 0.97338 0.73893 0.0
C525 C 0.10846 0.9642 0.72166 0.0
C526 C 0.05388 0.03368 0.73901 0.0
C527 C 0.13127 0.95843 0.75091 0.0
H528 H 0.12307 0.05396 0.79086 0.0
H529 H 0.05748 0.99122 0.80133 0.0
H530 H 0.1457 0.02568 0.75074 0.0
H531 H 0.11955 0.05313 0.74689 0.0
H532 H 0.14566 0.05774 0.76387 0.0
H533 H 0.04134 0.95836 0.78063 0.0
H534 H 0.03866 0.97545 0.75982 0.0
H535 H 0.06655 0.94975 0.7637 0.0
H536 H 0.05661 0.00995 0.70732 0.0
H537 H 0.12183 0.94656 0.71724 0.0
H538 H 0.06681 0.05119 0.74489 0.0
H539 H 0.03881 0.02574 0.74904 0.0
H540 H 0.0411 0.04279 0.7282 0.0
H541 H 0.14555 0.97443 0.75721 0.0
H542 H 0.14483 0.94236 0.74409 0.0
H543 H 0.11918 0.94729 0.76129 0.0
C544 C 0.25033 0.82538 0.96655 0.0
C545 C 0.27296 0.84264 0.96048 0.0
C546 C 0.2412 0.82678 0.98381 0.0
C547 C 0.25502 0.84589 0.9954 0.0
C548 C 0.27744 0.86388 0.98927 0.0
C549 C 0.28613 0.86206 0.97189 0.0
C550 C 0.21717 0.80726 0.98976 0.0
C551 C 0.29272 0.88455 1.00117 0.0
C552 C 0.21577 0.86187 0.0376 0.0
C553 C 0.22874 0.84219 0.04893 0.0
C554 C 0.22457 0.86389 0.02025 0.0
C555 C 0.2469 0.84583 0.01407 0.0
C556 C 0.26057 0.8265 0.02559 0.0
C557 C 0.25133 0.82491 0.04282 0.0
C558 C 0.20945 0.88479 0.00842 0.0
C559 C 0.2845 0.80691 0.01959 0.0
H560 H 0.23993 0.81037 0.95785 0.0
H561 H 0.30361 0.87549 0.96733 0.0
H562 H 0.22543 0.79206 0.99962 0.0
H563 H 0.19984 0.82009 0.99589 0.0
H564 H 0.20773 0.79462 0.97899 0.0
H565 H 0.30856 0.89822 0.99423 0.0
H566 H 0.27689 0.89872 0.00771 0.0
H567 H 0.30421 0.87235 0.01137 0.0
H568 H 0.19832 0.87532 0.04219 0.0
H569 H 0.26158 0.80969 0.05146 0.0
H570 H 0.19783 0.87277 0.9982 0.0
H571 H 0.22538 0.89886 1.00191 0.0
H572 H 0.19374 0.89854 0.01542 0.0
H573 H 0.27617 0.79181 0.00969 0.0
H574 H 0.2939 0.79416 0.03033 0.0
H575 H 0.30189 0.8197 0.01348 0.0
C576 C 0.60999 0.96429 0.78709 0.0
C577 C 0.59035 0.97734 0.7984 0.0
C578 C 0.61221 0.97325 0.76977 0.0
C579 C 0.5944 0.9958 0.76363 0.0
C580 C 0.57513 0.00954 0.77514 0.0
C581 C 0.57333 1.00015 0.79233 0.0
C582 C 0.63305 0.95806 0.75794 0.0
C583 C 0.55577 0.03369 0.76918 0.0
C584 C 0.61033 0.03544 0.72154 0.0
C585 C 0.59058 0.0226 0.71021 0.0
C586 C 0.61248 0.02641 0.73885 0.0
C587 C 0.59447 0.00399 0.74496 0.0
C588 C 0.57512 0.99042 0.73342 0.0
C589 C 0.57341 0.99988 0.71624 0.0
C590 C 0.63341 0.04142 0.75071 0.0
C591 C 0.55556 0.96641 0.73935 0.0
H592 H 0.62325 0.94668 0.79166 0.0
H593 H 0.55817 0.01047 0.80097 0.0
H594 H 0.62097 0.9465 0.74772 0.0
H595 H 0.64719 0.97394 0.75143 0.0
H596 H 0.64674 0.9423 0.76493 0.0
H597 H 0.54309 0.04315 0.77993 0.0
H598 H 0.56873 0.05099 0.76311 0.0
H599 H 0.54059 0.02556 0.75926 0.0
H600 H 0.62371 0.05298 0.717 0.0
H601 H 0.55816 0.98971 0.70759 0.0
H602 H 0.64735 0.02542 0.75727 0.0
H603 H 0.62139 0.05313 0.76089 0.0
H604 H 0.64729 0.05702 0.74373 0.0
H605 H 0.56837 0.94902 0.74546 0.0
H606 H 0.54288 0.95702 0.72857 0.0
H607 H 0.54038 0.97467 0.74922 0.0
C608 C 0.75198 0.82529 0.46532 0.0
C609 C 0.72937 0.84243 0.45908 0.0
C610 C 0.76103 0.82703 0.48258 0.0
C611 C 0.74716 0.84635 0.49401 0.0
C612 C 0.72489 0.86436 0.48768 0.0
C613 C 0.71627 0.8622 0.4703 0.0
C614 C 0.78491 0.80748 0.48872 0.0
C615 C 0.70956 0.88526 0.49941 0.0
C616 C 0.74973 0.82511 0.5414 0.0
C617 C 0.77238 0.84212 0.54771 0.0
C618 C 0.7408 0.82695 0.52412 0.0
C619 C 0.75484 0.84624 0.51275 0.0
C620 C 0.77719 0.86408 0.51914 0.0
C621 C 0.78568 0.86182 0.53654 0.0
C622 C 0.71682 0.80759 0.51791 0.0
C623 C 0.79269 0.88494 0.50747 0.0
H624 H 0.76234 0.81002 0.45676 0.0
H625 H 0.69881 0.87554 0.46561 0.0
H626 H 0.8021 0.82028 0.49504 0.0
H627 H 0.77639 0.79224 0.49849 0.0
H628 H 0.79462 0.79487 0.47803 0.0
H629 H 0.69418 0.89919 0.49228 0.0
H630 H 0.69752 0.87322 0.50944 0.0
H631 H 0.72538 0.89916 0.50616 0.0
H632 H 0.73922 0.8099 0.54992 0.0
H633 H 0.80317 0.87507 0.54129 0.0
H634 H 0.72525 0.79242 0.50808 0.0
H635 H 0.69969 0.82054 0.51166 0.0
H636 H 0.70706 0.79491 0.52856 0.0
H637 H 0.80459 0.87289 0.49738 0.0
H638 H 0.80821 0.89866 0.51464 0.0
H639 H 0.77698 0.89905 0.50078 0.0
C640 C 0.92947 0.00198 0.29022 0.0
C641 C 0.9122 0.02433 0.29664 0.0
C642 C 0.92758 0.99315 0.27293 0.0
C643 C 0.90796 0.007 0.26166 0.0
C644 C 0.89001 0.02918 0.26814 0.0
C645 C 0.89233 0.03757 0.28554 0.0
C646 C 0.94708 0.96937 0.26661 0.0
C647 C 0.8688 0.04446 0.25658 0.0
C648 C 0.92719 0.00325 0.21398 0.0
C649 C 0.90998 0.98038 0.20819 0.0
C650 C 0.92605 0.0127 0.23119 0.0
C651 C 0.90725 0.99895 0.24299 0.0
C652 C 0.88915 0.97645 0.2371 0.0
C653 C 0.89071 0.96745 0.21978 0.0
C654 C 0.94566 0.03682 0.23688 0.0
C655 C 0.86878 0.96126 0.24923 0.0
H656 H 0.94483 0.99155 0.29869 0.0
H657 H 0.87889 0.05485 0.29038 0.0
H658 H 0.93412 0.95192 0.26068 0.0
H659 H 0.96171 0.97781 0.2565 0.0
H660 H 0.96034 0.96002 0.27714 0.0
H661 H 0.85539 0.06023 0.26375 0.0
H662 H 0.88052 0.05601 0.24621 0.0
H663 H 0.8544 0.02862 0.25024 0.0
H664 H 0.94209 0.01346 0.20513 0.0
H665 H 0.87731 0.94978 0.21544 0.0
H666 H 0.96137 0.02859 0.24647 0.0
H667 H 0.933 0.05403 0.24327 0.0
H668 H 0.95774 0.04641 0.22593 0.0
H669 H 0.88128 0.94956 0.25921 0.0
H670 H 0.85472 0.94561 0.24242 0.0
H671 H 0.85501 0.97714 0.25602 0.0
C672 C 0.75004 0.17844 0.96502 0.0
C673 C 0.77262 0.16118 0.95888 0.0
C674 C 0.74088 0.17687 0.98226 0.0
C675 C 0.75461 0.15757 0.99376 0.0
C676 C 0.77693 0.13952 0.98755 0.0
C677 C 0.78566 0.14152 0.97019 0.0
C678 C 0.71696 0.19646 0.98828 0.0
C679 C 0.7921 0.11863 0.99937 0.0
C680 C 0.75092 0.17823 0.04124 0.0
C681 C 0.72814 0.16112 0.04726 0.0
C682 C 0.76025 0.17665 0.02402 0.0
C683 C 0.74649 0.1575 0.01244 0.0
C684 C 0.72399 0.13959 0.01854 0.0
C685 C 0.71508 0.14161 0.03586 0.0
C686 C 0.78434 0.19612 0.01811 0.0
C687 C 0.70879 0.11884 0.00664 0.0
H688 H 0.73974 0.19364 0.95639 0.0
H689 H 0.80311 0.12809 0.96557 0.0
H690 H 0.69956 0.18365 0.99437 0.0
H691 H 0.7253 0.21152 0.9982 0.0
H692 H 0.70757 0.20925 0.97756 0.0
H693 H 0.80778 0.10488 0.99236 0.0
H694 H 0.80375 0.13066 0.00958 0.0
H695 H 0.77619 0.10455 0.00591 0.0
H696 H 0.76122 0.19331 0.04994 0.0
H697 H 0.6975 0.12827 0.04038 0.0
H698 H 0.77613 0.21138 0.00826 0.0
H699 H 0.80164 0.18325 0.01196 0.0
H700 H 0.79381 0.2087 0.02889 0.0
H701 H 0.69722 0.131 0.99645 0.0
H702 H 0.69303 0.1051 0.01359 0.0
H703 H 0.72467 0.10476 1.00008 0.0
C704 C 0.88962 0.5356 0.72055 0.0
C705 C 0.9088 0.52247 0.70899 0.0
C706 C 0.88817 0.52687 0.73793 0.0
C707 C 0.90632 0.50446 0.74391 0.0
C708 C 0.92518 0.49067 0.73217 0.0
C709 C 0.92619 0.49982 0.7149 0.0
C710 C 0.86772 0.5421 0.74999 0.0
C711 C 0.94487 0.46667 0.73796 0.0
C712 C 0.92776 0.50094 0.79129 0.0
C713 C 0.91047 0.47842 0.79748 0.0
C714 C 0.92611 0.51002 0.77402 0.0
C715 C 0.9067 0.49629 0.76257 0.0
C716 C 0.8887 0.47399 0.76883 0.0
C717 C 0.8908 0.46532 0.7862 0.0
C718 C 0.94567 0.5339 0.76793 0.0
C719 C 0.8677 0.45882 0.75708 0.0
H720 H 0.87609 0.5531 0.71611 0.0
H721 H 0.94104 0.48947 0.70608 0.0
H722 H 0.85369 0.52624 0.75661 0.0
H723 H 0.88011 0.55355 0.76012 0.0
H724 H 0.8539 0.55794 0.74317 0.0
H725 H 0.95731 0.45727 0.7271 0.0
H726 H 0.96025 0.47492 0.74773 0.0
H727 H 0.93218 0.4493 0.74417 0.0
H728 H 0.94299 0.51125 0.79989 0.0
H729 H 0.87734 0.44793 0.79086 0.0
H730 H 0.93281 0.55136 0.76193 0.0
H731 H 0.96055 0.52557 0.75791 0.0
H732 H 0.95867 0.54321 0.77859 0.0
H733 H 0.85342 0.47472 0.7507 0.0
H734 H 0.85415 0.44299 0.76411 0.0
H735 H 0.87962 0.44735 0.74676 0.0
C736 C 0.75022 0.67637 0.04203 0.0
C737 C 0.77309 0.65917 0.04784 0.0
C738 C 0.74062 0.675 0.02485 0.0
C739 C 0.75421 0.656 0.01311 0.0
C740 C 0.77676 0.63796 0.01901 0.0
C741 C 0.78591 0.63975 0.03629 0.0
C742 C 0.71647 0.69456 0.01915 0.0
C743 C 0.7918 0.61739 0.00693 0.0
C744 C 0.71486 0.64046 0.97086 0.0
C745 C 0.72788 0.66021 0.9596 0.0
C746 C 0.72361 0.63834 0.98822 0.0
C747 C 0.74592 0.65636 0.99447 0.0
C748 C 0.7596 0.67578 0.98302 0.0
C749 C 0.75042 0.67747 0.96578 0.0
C750 C 0.7085 0.61733 0.99998 0.0
C751 C 0.78353 0.69533 0.98908 0.0
H752 H 0.74011 0.69138 0.05085 0.0
H753 H 0.80357 0.62635 0.04065 0.0
H754 H 0.72459 0.71003 0.00939 0.0
H755 H 0.69913 0.68181 0.01294 0.0
H756 H 0.70707 0.7069 0.03005 0.0
H757 H 0.80758 0.60348 0.01375 0.0
H758 H 0.77583 0.60347 1.00033 0.0
H759 H 0.80333 0.6297 0.9968 0.0
H760 H 0.69743 0.62703 0.96622 0.0
H761 H 0.76069 0.69274 0.95718 0.0
H762 H 0.69699 0.62925 0.01029 0.0
H763 H 0.72444 0.60312 0.00639 0.0
H764 H 0.69271 0.60372 0.99296 0.0
H765 H 0.77525 0.71021 0.99911 0.0
H766 H 0.79281 0.70831 0.97841 0.0
H767 H 0.80101 0.68246 0.99505 0.0
C768 C 0.61251 0.5364 0.28823 0.0
C769 C 0.59276 0.52338 0.29949 0.0
C770 C 0.61476 0.52756 0.27089 0.0
C771 C 0.59685 0.50514 0.26466 0.0
C772 C 0.57742 0.49146 0.2761 0.0
C773 C 0.57561 0.50074 0.29332 0.0
C774 C 0.63576 0.54269 0.25914 0.0
C775 C 0.55796 0.46746 0.27005 0.0
C776 C 0.57664 0.5011 0.21712 0.0
C777 C 0.59386 0.47833 0.2112 0.0
C778 C 0.57806 0.51055 0.23432 0.0
C779 C 0.59715 0.49692 0.246 0.0
C780 C 0.61519 0.47444 0.23999 0.0
C781 C 0.61335 0.46542 0.22267 0.0
C782 C 0.55849 0.53464 0.24012 0.0
C783 C 0.63585 0.45935 0.252 0.0
H784 H 0.62587 0.55389 0.29287 0.0
H785 H 0.56034 0.49045 0.3019 0.0
H786 H 0.64997 0.52677 0.25272 0.0
H787 H 0.62383 0.55422 0.24885 0.0
H788 H 0.64937 0.55846 0.26617 0.0
H789 H 0.54506 0.45811 0.28073 0.0
H790 H 0.54299 0.47571 0.26004 0.0
H791 H 0.57088 0.45006 0.26405 0.0
H792 H 0.56158 0.51131 0.20837 0.0
H793 H 0.62676 0.44784 0.21822 0.0
H794 H 0.57126 0.55199 0.2463 0.0
H795 H 0.54312 0.52646 0.24991 0.0
H796 H 0.54603 0.54406 0.22926 0.0
H797 H 0.6498 0.4753 0.2586 0.0
H798 H 0.64973 0.44362 0.24512 0.0
H799 H 0.62361 0.44777 0.26214 0.0
C800 C 0.75184 0.32189 0.54223 0.0
C801 C 0.7289 0.33914 0.54788 0.0
C802 C 0.76174 0.3232 0.52512 0.0
C803 C 0.7484 0.3422 0.51327 0.0
C804 C 0.7258 0.3603 0.51901 0.0
C805 C 0.71633 0.35856 0.53623 0.0
C806 C 0.78595 0.30357 0.51958 0.0
C807 C 0.71101 0.38088 0.50683 0.0
C808 C 0.78822 0.35762 0.47115 0.0
C809 C 0.77521 0.33796 0.45983 0.0
C810 C 0.77938 0.3597 0.4885 0.0
C811 C 0.75697 0.34173 0.49467 0.0
C812 C 0.74335 0.32235 0.48317 0.0
C813 C 0.75262 0.32069 0.46595 0.0
C814 C 0.79443 0.38068 0.50031 0.0
C815 C 0.71932 0.30285 0.48915 0.0
H816 H 0.76177 0.30687 0.55113 0.0
H817 H 0.69862 0.372 0.54047 0.0
H818 H 0.77793 0.28805 0.50982 0.0
H819 H 0.80339 0.31624 0.51344 0.0
H820 H 0.79517 0.29127 0.53056 0.0
H821 H 0.69518 0.39487 0.51354 0.0
H822 H 0.72712 0.39472 0.50029 0.0
H823 H 0.69959 0.36857 0.49665 0.0
H824 H 0.80568 0.37105 0.46655 0.0
H825 H 0.74236 0.30549 0.45731 0.0
H826 H 0.80567 0.36875 0.51072 0.0
H827 H 0.77846 0.39503 0.50658 0.0
H828 H 0.81043 0.39414 0.49336 0.0
H829 H 0.72744 0.28804 0.49927 0.0
H830 H 0.71021 0.28978 0.47846 0.0
H831 H 0.70176 0.31577 0.49497 0.0
C832 C 0.11087 0.46141 0.28565 0.0
C833 C 0.09103 0.47418 0.29696 0.0
C834 C 0.11296 0.47034 0.26832 0.0
C835 C 0.09479 0.49259 0.26214 0.0
C836 C 0.0752 0.50595 0.27362 0.0
C837 C 0.07355 0.4966 0.29083 0.0
C838 C 0.13415 0.45555 0.25654 0.0
C839 C 0.05547 0.52978 0.26762 0.0
C840 C 0.11158 0.53329 0.22055 0.0
C841 C 0.09246 0.52043 0.20883 0.0
C842 C 0.11319 0.52396 0.23781 0.0
C843 C 0.09526 0.50119 0.24353 0.0
C844 C 0.07651 0.48762 0.23163 0.0
C845 C 0.07533 0.49739 0.21447 0.0
C846 C 0.1335 0.53899 0.25005 0.0
C847 C 0.05706 0.46326 0.23713 0.0
H848 H 0.12447 0.44408 0.29026 0.0
H849 H 0.0582 0.50668 0.29945 0.0
H850 H 0.1224 0.44423 0.24608 0.0
H851 H 0.14839 0.47167 0.25032 0.0
H852 H 0.14773 0.43966 0.2635 0.0
H853 H 0.04226 0.53873 0.27829 0.0
H854 H 0.06823 0.54749 0.26183 0.0
H855 H 0.04079 0.52153 0.25747 0.0
H856 H 0.12492 0.55109 0.21632 0.0
H857 H 0.06054 0.48723 0.20554 0.0
H858 H 0.14755 0.52305 0.25658 0.0
H859 H 0.12098 0.55019 0.26022 0.0
H860 H 0.1473 0.55505 0.24338 0.0
H861 H 0.06988 0.4459 0.24326 0.0
H862 H 0.04486 0.45396 0.22613 0.0
H863 H 0.04146 0.47111 0.24689 0.0
C864 C 0.29043 0.36023 0.03658 0.0
C865 C 0.27725 0.34081 0.04798 0.0
C866 C 0.28154 0.36229 0.01925 0.0
C867 C 0.25892 0.34453 0.01314 0.0
C868 C 0.24513 0.32538 0.02471 0.0
C869 C 0.25444 0.32375 0.04194 0.0
C870 C 0.29679 0.38302 0.00736 0.0
C871 C 0.22088 0.3061 0.0188 0.0
C872 C 0.21875 0.36195 0.97146 0.0
C873 C 0.23125 0.3425 0.95981 0.0
C874 C 0.22802 0.36341 0.98874 0.0
C875 C 0.25034 0.34499 0.99453 0.0
C876 C 0.26355 0.32588 0.98269 0.0
C877 C 0.25386 0.32487 0.96551 0.0
C878 C 0.21339 0.38412 1.00091 0.0
C879 C 0.28744 0.30591 0.98828 0.0
H880 H 0.30806 0.3735 0.04112 0.0
H881 H 0.24406 0.30871 0.05063 0.0
H882 H 0.30787 0.3709 0.99697 0.0
H883 H 0.28098 0.39751 1.00108 0.0
H884 H 0.31297 0.39634 0.01427 0.0
H885 H 0.21164 0.29323 0.02953 0.0
H886 H 0.20346 0.31917 0.01293 0.0
H887 H 0.22883 0.29112 0.00872 0.0
H888 H 0.20129 0.37568 0.96719 0.0
H889 H 0.26371 0.3098 0.95662 0.0
H890 H 0.22962 0.39789 0.0074 0.0
H891 H 0.20195 0.37192 0.01113 0.0
H892 H 0.19762 0.39818 0.9942 0.0
H893 H 0.30509 0.31837 0.99437 0.0
H894 H 0.29645 0.29338 0.97733 0.0
H895 H 0.27921 0.29061 0.99809 0.0
C896 C 0.42816 0.50276 0.79182 0.0
C897 C 0.41075 0.52547 0.79762 0.0
C898 C 0.42683 0.49307 0.77466 0.0
C899 C 0.40761 0.50638 0.76292 0.0
C900 C 0.38949 0.52888 0.76879 0.0
C901 C 0.39127 0.53815 0.78605 0.0
C902 C 0.44649 0.46897 0.769 0.0
C903 C 0.36868 0.54361 0.75671 0.0
C904 C 0.42762 0.50103 0.71538 0.0
C905 C 0.41022 0.47822 0.70971 0.0
C906 C 0.42647 0.5108 0.73253 0.0
C907 C 0.40747 0.49747 0.74438 0.0
C908 C 0.38935 0.47488 0.73864 0.0
C909 C 0.39094 0.46553 0.72139 0.0
C910 C 0.44613 0.53498 0.73807 0.0
C911 C 0.36877 0.46011 0.75083 0.0
H912 H 0.44325 0.49276 0.80064 0.0
H913 H 0.37772 0.5557 0.7904 0.0
H914 H 0.43372 0.45129 0.76318 0.0
H915 H 0.46151 0.47693 0.75894 0.0
H916 H 0.45934 0.46009 0.77985 0.0
H917 H 0.35506 0.55974 0.76345 0.0
H918 H 0.38076 0.55464 0.74629 0.0
H919 H 0.35446 0.52748 0.75049 0.0
H920 H 0.44255 0.51103 0.70647 0.0
H921 H 0.3774 0.44791 0.71713 0.0
H922 H 0.46136 0.52709 0.74803 0.0
H923 H 0.43339 0.55262 0.74397 0.0
H924 H 0.45874 0.54392 0.72714 0.0
H925 H 0.38105 0.44912 0.76119 0.0
H926 H 0.35508 0.44395 0.74418 0.0
H927 H 0.35462 0.47622 0.75713 0.0
C928 C 0.25051 0.67646 0.54168 0.0
C929 C 0.22783 0.6591 0.54757 0.0
C930 C 0.25986 0.67525 0.52444 0.0
C931 C 0.24621 0.65623 0.51272 0.0
C932 C 0.22379 0.6381 0.51869 0.0
C933 C 0.21489 0.63974 0.53602 0.0
C934 C 0.28389 0.69488 0.51867 0.0
C935 C 0.20869 0.6175 0.50665 0.0
C936 C 0.24989 0.6768 0.4652 0.0
C937 C 0.27237 0.65933 0.45914 0.0
C938 C 0.24082 0.67555 0.48249 0.0
C939 C 0.25453 0.65638 0.49408 0.0
C940 C 0.2768 0.6382 0.48796 0.0
C941 C 0.28544 0.63989 0.47058 0.0
C942 C 0.21695 0.69525 0.48843 0.0
C943 C 0.29195 0.61744 0.49987 0.0
H944 H 0.26069 0.69145 0.55049 0.0
H945 H 0.19736 0.62623 0.54044 0.0
H946 H 0.30131 0.68215 0.51254 0.0
H947 H 0.2757 0.71018 0.50883 0.0
H948 H 0.29321 0.70741 0.52952 0.0
H949 H 0.19279 0.60375 0.51348 0.0
H950 H 0.19731 0.62977 0.49644 0.0
H951 H 0.22462 0.60342 0.50015 0.0
H952 H 0.23962 0.69187 0.45648 0.0
H953 H 0.30283 0.62631 0.46603 0.0
H954 H 0.22525 0.71025 0.49839 0.0
H955 H 0.19943 0.68251 0.49445 0.0
H956 H 0.20773 0.70811 0.47768 0.0
H957 H 0.3033 0.62954 0.51016 0.0
H958 H 0.30787 0.60382 0.49296 0.0
H959 H 0.27603 0.60322 0.50629 0.0
C960 C 0.34808 0.98609 0.14795 0.0
C961 C 0.37371 0.98626 0.13837 0.0
C962 C 0.32647 0.96558 0.14472 0.0
C963 C 0.3308 0.94442 0.13181 0.0
C964 C 0.35681 0.9442 0.12231 0.0
C965 C 0.3778 0.96522 0.1256 0.0
C966 C 0.29888 0.96674 0.15498 0.0
C967 C 0.3625 0.9217 0.10867 0.0
C968 C 0.28695 0.87546 0.13447 0.0
C969 C 0.26595 0.87989 0.12172 0.0
C970 C 0.30823 0.89619 0.13781 0.0
C971 C 0.30831 0.92225 0.12836 0.0
C972 C 0.28715 0.92692 0.11549 0.0
C973 C 0.26639 0.90558 0.11221 0.0
C974 C 0.33072 0.89012 0.1514 0.0
C975 C 0.28629 0.95459 0.10529 0.0
H976 H 0.34462 0.00236 0.15775 0.0
H977 H 0.3976 0.96504 0.1182 0.0
H978 H 0.28026 0.96916 0.14613 0.0
H979 H 0.29583 0.94629 0.16213 0.0
H980 H 0.29865 0.98481 0.16436 0.0
H981 H 0.38403 0.92421 0.10262 0.0
H982 H 0.36108 0.89988 0.11442 0.0
H983 H 0.34588 0.92301 0.09842 0.0
H984 H 0.28694 0.85561 0.14181 0.0
H985 H 0.25014 0.90928 0.10242 0.0
H986 H 0.32971 0.90672 0.16167 0.0
H987 H 0.35253 0.89124 0.14561 0.0
H988 H 0.32792 0.86862 0.15744 0.0
H989 H 0.28422 0.97319 0.11419 0.0
H990 H 0.26813 0.95515 0.09598 0.0
H991 H 0.30672 0.9574 0.09808 0.0
C992 C 0.2899 0.12445 0.37812 0.0
C993 C 0.26744 0.11994 0.38994 0.0
C994 C 0.31074 0.1032 0.37504 0.0
C995 C 0.30893 0.07652 0.38378 0.0
C996 C 0.28646 0.07184 0.39582 0.0
C997 C 0.26612 0.09371 0.39887 0.0
C998 C 0.33466 0.10928 0.36236 0.0
C999 C 0.28361 0.04356 0.40524 0.0
C1000 C 0.34764 0.01304 0.36305 0.0
C1001 C 0.37273 0.01118 0.37309 0.0
C1002 C 0.32646 0.03385 0.36658 0.0
C1003 C 0.33065 0.0536 0.38029 0.0
C1004 C 0.35599 0.05196 0.39037 0.0
C1005 C 0.37658 0.03069 0.38674 0.0
C1006 C 0.29957 0.0347 0.35566 0.0
C1007 C 0.36153 0.07291 0.4049 0.0
H1008 H 0.29124 0.14472 0.37125 0.0
H1009 H 0.24875 0.08995 0.40793 0.0
H1010 H 0.35587 0.10646 0.36872 0.0
H1011 H 0.33366 0.09373 0.35152 0.0
H1012 H 0.33348 0.13143 0.357 0.0
H1013 H 0.26491 0.0433 0.41417 0.0
H1014 H 0.28109 0.02578 0.39581 0.0
H1015 H 0.30344 0.03914 0.41276 0.0
H1016 H 0.34436 0.99797 0.35256 0.0
H1017 H 0.39594 0.02958 0.39451 0.0
H1018 H 0.29805 0.05568 0.3489 0.0
H1019 H 0.28024 0.03271 0.36398 0.0
H1020 H 0.2991 0.01723 0.34588 0.0
H1021 H 0.36183 0.09523 0.39981 0.0
H1022 H 0.38228 0.0687 0.41156 0.0
H1023 H 0.3439 0.07169 0.41452 0.0
C1024 C 0.12341 0.03019 0.62325 0.0
C1025 C 0.12718 0.01033 0.63673 0.0
C1026 C 0.14413 0.0514 0.61976 0.0
C1027 C 0.16952 0.05263 0.62983 0.0
C1028 C 0.17362 0.03254 0.64337 0.0
C1029 C 0.15231 0.01179 0.64674 0.0
C1030 C 0.1387 0.0727 0.60541 0.0
C1031 C 0.20055 0.03296 0.65426 0.0
C1032 C 0.23405 0.09284 0.61135 0.0
C1033 C 0.23282 0.11895 0.62042 0.0
C1034 C 0.21372 0.07096 0.61436 0.0
C1035 C 0.19136 0.07548 0.62649 0.0
C1036 C 0.18969 0.10201 0.6354 0.0
C1037 C 0.21051 0.12329 0.63236 0.0
C1038 C 0.21641 0.04284 0.60474 0.0
C1039 C 0.16589 0.10793 0.6482 0.0
H1040 H 0.10403 0.02939 0.61548 0.0
H1041 H 0.15553 0.99645 0.6571 0.0
H1042 H 0.13857 0.09491 0.61067 0.0
H1043 H 0.15628 0.07156 0.59576 0.0
H1044 H 0.11789 0.06878 0.59874 0.0
H1045 H 0.20091 0.01529 0.66391 0.0
H1046 H 0.21983 0.031 0.6459 0.0
H1047 H 0.20224 0.0538 0.66117 0.0
H1048 H 0.25131 0.08922 0.6022 0.0
H1049 H 0.20924 0.14346 0.63934 0.0
H1050 H 0.19657 0.0387 0.59717 0.0
H1051 H 0.21879 0.02485 0.61405 0.0
H1052 H 0.23513 0.04262 0.59582 0.0
H1053 H 0.14462 0.10545 0.64185 0.0
H1054 H 0.16727 0.12991 0.65377 0.0
H1055 H 0.16682 0.09207 0.65888 0.0
C1056 C 0.12446 0.97197 0.88553 0.0
C1057 C 0.12853 0.99165 0.87199 0.0
C1058 C 0.14501 0.95069 0.88922 0.0
C1059 C 0.17054 0.94922 0.87931 0.0
C1060 C 0.17494 0.96912 0.8657 0.0
C1061 C 0.15378 0.98994 0.86212 0.0
C1062 C 0.13924 0.92957 0.90362 0.0
C1063 C 0.20203 0.96844 0.85496 0.0
C1064 C 0.23463 0.90884 0.89824 0.0
C1065 C 0.23342 0.88268 0.88923 0.0
C1066 C 0.21443 0.93079 0.89508 0.0
C1067 C 0.1922 0.92627 0.88285 0.0
C1068 C 0.1905 0.89967 0.87402 0.0
C1069 C 0.21121 0.87833 0.87722 0.0
C1070 C 0.21713 0.95898 0.90462 0.0
C1071 C 0.16685 0.89375 0.86113 0.0
H1072 H 0.10496 0.97296 0.89318 0.0
H1073 H 0.15723 0.00515 0.85172 0.0
H1074 H 0.13906 0.90731 0.89844 0.0
H1075 H 0.15668 0.93071 0.91337 0.0
H1076 H 0.11836 0.93368 0.91016 0.0
H1077 H 0.20264 0.986 0.84525 0.0
H1078 H 0.2212 0.97038 0.86342 0.0
H1079 H 0.20371 0.94752 0.84814 0.0
H1080 H 0.25182 0.91247 0.90745 0.0
H1081 H 0.20994 0.85812 0.87028 0.0
H1082 H 0.19717 0.96333 0.91203 0.0
H1083 H 0.21981 0.97685 0.89527 0.0
H1084 H 0.23567 0.95915 0.91367 0.0
H1085 H 0.14551 0.89647 0.86735 0.0
H1086 H 0.16814 0.87168 0.85567 0.0
H1087 H 0.16805 0.90945 0.85038 0.0
C1088 C 0.71529 0.12781 0.87255 0.0
C1089 C 0.73564 0.12395 0.88575 0.0
C1090 C 0.6942 0.10693 0.86914 0.0
C1091 C 0.69362 0.08129 0.87899 0.0
C1092 C 0.71416 0.07714 0.89227 0.0
C1093 C 0.73477 0.09861 0.89559 0.0
C1094 C 0.67238 0.11242 0.85507 0.0
C1095 C 0.71444 0.04995 0.90293 0.0
C1096 C 0.62375 0.039 0.88178 0.0
C1097 C 0.62818 0.01706 0.86961 0.0
C1098 C 0.64473 0.06013 0.88482 0.0
C1099 C 0.67105 0.05915 0.87565 0.0
C1100 C 0.67567 0.03717 0.86329 0.0
C1101 C 0.65408 0.01651 0.86031 0.0
C1102 C 0.63874 0.08348 0.89789 0.0
C1103 C 0.70357 0.03524 0.85338 0.0
H1104 H 0.71564 0.14737 0.86493 0.0
H1105 H 0.75051 0.09531 0.90572 0.0
H1106 H 0.67358 0.09517 0.8452 0.0
H1107 H 0.65032 0.11195 0.86055 0.0
H1108 H 0.67572 0.1335 0.84861 0.0
H1109 H 0.73231 0.04967 0.91245 0.0
H1110 H 0.69377 0.0477 0.90996 0.0
H1111 H 0.71659 0.03092 0.89438 0.0
H1112 H 0.60374 0.03976 0.88896 0.0
H1113 H 0.65778 0.99956 0.85096 0.0
H1114 H 0.64067 0.10494 0.89172 0.0
H1115 H 0.6549 0.08257 0.90841 0.0
H1116 H 0.61693 0.08157 0.90366 0.0
H1117 H 0.70713 0.05534 0.84596 0.0
H1118 H 0.70388 0.01676 0.84429 0.0
H1119 H 0.72185 0.03297 0.86249 0.0
C1120 C 0.62254 0.96477 0.62454 0.0
C1121 C 0.62698 0.98573 0.63732 0.0
C1122 C 0.64331 0.94357 0.62115 0.0
C1123 C 0.66942 0.94352 0.63055 0.0
C1124 C 0.67412 0.96463 0.64344 0.0
C1125 C 0.65274 0.98532 0.64678 0.0
C1126 C 0.63724 0.92112 0.60753 0.0
C1127 C 0.70184 0.96551 0.65359 0.0
C1128 C 0.71276 0.87424 0.63318 0.0
C1129 C 0.73377 0.87852 0.62041 0.0
C1130 C 0.69161 0.8951 0.6365 0.0
C1131 C 0.69166 0.92113 0.62703 0.0
C1132 C 0.71278 0.92564 0.61413 0.0
C1133 C 0.73343 0.90418 0.61087 0.0
C1134 C 0.66917 0.88923 0.65015 0.0
C1135 C 0.71375 0.95327 0.60389 0.0
H1136 H 0.60264 0.96478 0.61724 0.0
H1137 H 0.65646 0.00153 0.65658 0.0
H1138 H 0.65378 0.92222 0.59724 0.0
H1139 H 0.63845 0.89929 0.61329 0.0
H1140 H 0.61569 0.92389 0.60154 0.0
H1141 H 0.70238 0.98362 0.66295 0.0
H1142 H 0.70474 0.94506 0.66077 0.0
H1143 H 0.72039 0.96769 0.64467 0.0
H1144 H 0.7127 0.85442 0.64055 0.0
H1145 H 0.74967 0.90778 0.60106 0.0
H1146 H 0.64732 0.8906 0.64442 0.0
H1147 H 0.67044 0.90579 0.66043 0.0
H1148 H 0.67179 0.86768 0.65615 0.0
H1149 H 0.69325 0.95626 0.59678 0.0
H1150 H 0.73178 0.95361 0.59448 0.0
H1151 H 0.71615 0.97186 0.61276 0.0
C1152 C 0.76727 0.9029 0.39501 0.0
C1153 C 0.76578 0.87747 0.38528 0.0
C1154 C 0.78804 0.92408 0.39139 0.0
C1155 C 0.8081 0.91956 0.37789 0.0
C1156 C 0.80687 0.89385 0.36813 0.0
C1157 C 0.78565 0.87325 0.37186 0.0
C1158 C 0.78846 0.95135 0.40197 0.0
C1159 C 0.82816 0.88796 0.35384 0.0
C1160 C 0.84802 0.9838 0.3588 0.0
C1161 C 0.87412 0.98297 0.36791 0.0
C1162 C 0.82628 0.96337 0.36194 0.0
C1163 C 0.83091 0.94134 0.37428 0.0
C1164 C 0.85745 0.94002 0.38321 0.0
C1165 C 0.8786 0.96092 0.38001 0.0
C1166 C 0.79815 0.96565 0.35228 0.0
C1167 C 0.86348 0.91661 0.39623 0.0
H1168 H 0.75192 0.90648 0.40532 0.0
H1169 H 0.78482 0.85363 0.36431 0.0
H1170 H 0.80934 0.95332 0.40881 0.0
H1171 H 0.78639 0.97036 0.39339 0.0
H1172 H 0.77085 0.95199 0.41166 0.0
H1173 H 0.82427 0.86693 0.34743 0.0
H1174 H 0.82695 0.9052 0.34397 0.0
H1175 H 0.85038 0.88807 0.35908 0.0
H1176 H 0.84428 0.00084 0.34952 0.0
H1177 H 0.89876 0.95994 0.38703 0.0
H1178 H 0.78016 0.96837 0.36156 0.0
H1179 H 0.79403 0.94552 0.345 0.0
H1180 H 0.79792 0.98401 0.34311 0.0
H1181 H 0.8477 0.91785 0.40694 0.0
H1182 H 0.88551 0.91816 0.40173 0.0
H1183 H 0.86096 0.89516 0.39012 0.0
C1184 C 0.788 0.12543 0.13036 0.0
C1185 C 0.76561 0.12117 0.11846 0.0
C1186 C 0.80882 0.10412 0.13334 0.0
C1187 C 0.80706 0.07762 0.1244 0.0
C1188 C 0.78459 0.07315 0.11233 0.0
C1189 C 0.76427 0.09508 0.10938 0.0
C1190 C 0.83272 0.10998 0.14608 0.0
C1191 C 0.78179 0.04506 0.10269 0.0
C1192 C 0.87501 0.03231 0.12103 0.0
C1193 C 0.87136 0.01252 0.13455 0.0
C1194 C 0.85424 0.05349 0.11756 0.0
C1195 C 0.82891 0.05473 0.12767 0.0
C1196 C 0.8249 0.03466 0.14123 0.0
C1197 C 0.84627 0.01396 0.1446 0.0
C1198 C 0.85958 0.07478 0.10319 0.0
C1199 C 0.79803 0.03507 0.15217 0.0
H1200 H 0.78937 0.14559 0.13735 0.0
H1201 H 0.74696 0.09152 0.10025 0.0
H1202 H 0.83186 0.09409 0.15675 0.0
H1203 H 0.85393 0.1075 0.13968 0.0
H1204 H 0.83141 0.13195 0.15168 0.0
H1205 H 0.76299 0.04488 0.09383 0.0
H1206 H 0.80156 0.04093 0.09506 0.0
H1207 H 0.7795 0.02705 0.11199 0.0
H1208 H 0.89437 0.03153 0.11325 0.0
H1209 H 0.84312 0.99866 0.15498 0.0
H1210 H 0.85982 0.09698 0.10846 0.0
H1211 H 0.8419 0.0737 0.0936 0.0
H1212 H 0.88031 0.07081 0.09646 0.0
H1213 H 0.79642 0.05587 0.15913 0.0
H1214 H 0.79768 0.01735 0.16179 0.0
H1215 H 0.77869 0.0332 0.14384 0.0
C1216 C 0.78002 0.3752 0.63463 0.0
C1217 C 0.75988 0.37897 0.6213 0.0
C1218 C 0.80105 0.39611 0.63811 0.0
C1219 C 0.80177 0.4217 0.62822 0.0
C1220 C 0.78135 0.42581 0.61486 0.0
C1221 C 0.76082 0.40429 0.61145 0.0
C1222 C 0.82275 0.39063 0.65224 0.0
C1223 C 0.78119 0.45296 0.60416 0.0
C1224 C 0.8419 0.4862 0.64683 0.0
C1225 C 0.86782 0.48535 0.63755 0.0
C1226 C 0.82009 0.46578 0.64384 0.0
C1227 C 0.82449 0.44371 0.6315 0.0
C1228 C 0.85081 0.44244 0.62235 0.0
C1229 C 0.87201 0.46334 0.62539 0.0
C1230 C 0.79218 0.46803 0.65372 0.0
C1231 C 0.85661 0.41897 0.60932 0.0
H1232 H 0.77961 0.35565 0.64225 0.0
H1233 H 0.74524 0.40751 0.60123 0.0
H1234 H 0.84484 0.39081 0.64679 0.0
H1235 H 0.82169 0.40803 0.66202 0.0
H1236 H 0.8192 0.36968 0.65881 0.0
H1237 H 0.76324 0.45335 0.59469 0.0
H1238 H 0.77928 0.47205 0.61269 0.0
H1239 H 0.80181 0.45501 0.59706 0.0
H1240 H 0.83838 0.50321 0.65617 0.0
H1241 H 0.89203 0.46234 0.61824 0.0
H1242 H 0.78846 0.44804 0.66122 0.0
H1243 H 0.77393 0.47034 0.64459 0.0
H1244 H 0.792 0.48661 0.66274 0.0
H1245 H 0.85453 0.39756 0.61553 0.0
H1246 H 0.87842 0.42069 0.60354 0.0
H1247 H 0.84044 0.41995 0.5988 0.0
C1248 C 0.87583 0.53925 0.88079 0.0
C1249 C 0.87118 0.51696 0.86888 0.0
C1250 C 0.85476 0.56024 0.88393 0.0
C1251 C 0.8281 0.55878 0.87513 0.0
C1252 C 0.82326 0.53645 0.86301 0.0
C1253 C 0.84495 0.51594 0.85991 0.0
C1254 C 0.86102 0.58397 0.89671 0.0
C1255 C 0.795 0.534 0.85351 0.0
C1256 C 0.76501 0.59819 0.89583 0.0
C1257 C 0.76356 0.62338 0.88588 0.0
C1258 C 0.78555 0.57675 0.89228 0.0
C1259 C 0.80543 0.58076 0.87862 0.0
C1260 C 0.80423 0.60622 0.86863 0.0
C1261 C 0.78324 0.62709 0.8723 0.0
C1262 C 0.78595 0.54975 0.90311 0.0
C1263 C 0.82533 0.61157 0.85416 0.0
H1264 H 0.8961 0.54038 0.88768 0.0
H1265 H 0.84109 0.49872 0.85077 0.0
H1266 H 0.85858 0.60526 0.89039 0.0
H1267 H 0.84533 0.58312 0.90747 0.0
H1268 H 0.88309 0.58245 0.90216 0.0
H1269 H 0.79455 0.51534 0.84456 0.0
H1270 H 0.77711 0.53168 0.8629 0.0
H1271 H 0.79088 0.5539 0.84601 0.0
H1272 H 0.7498 0.595 0.90625 0.0
H1273 H 0.78244 0.64651 0.86457 0.0
H1274 H 0.80689 0.54786 0.9099 0.0
H1275 H 0.78371 0.53054 0.89472 0.0
H1276 H 0.76843 0.54946 0.91286 0.0
H1277 H 0.84763 0.61152 0.8593 0.0
H1278 H 0.82145 0.63243 0.84756 0.0
H1279 H 0.82391 0.59405 0.84449 0.0
C1280 C 0.71932 0.6247 0.13383 0.0
C1281 C 0.74015 0.62022 0.12097 0.0
C1282 C 0.69808 0.60401 0.13728 0.0
C1283 C 0.69787 0.57792 0.12786 0.0
C1284 C 0.71887 0.57317 0.11491 0.0
C1285 C 0.73959 0.59449 0.11151 0.0
C1286 C 0.67575 0.61015 0.15095 0.0
C1287 C 0.71958 0.54546 0.10475 0.0
C1288 C 0.65812 0.51438 0.14777 0.0
C1289 C 0.63238 0.51424 0.1383 0.0
C1290 C 0.67978 0.53475 0.14437 0.0
C1291 C 0.67538 0.55581 0.13142 0.0
C1292 C 0.64926 0.55606 0.12202 0.0
C1293 C 0.62822 0.53516 0.12547 0.0
C1294 C 0.7075 0.53355 0.15452 0.0
C1295 C 0.64348 0.57849 0.10835 0.0
H1296 H 0.71942 0.6446 0.14112 0.0
H1297 H 0.7557 0.59077 0.10164 0.0
H1298 H 0.65388 0.60909 0.14523 0.0
H1299 H 0.67681 0.59357 0.16122 0.0
H1300 H 0.67867 0.63166 0.15696 0.0
H1301 H 0.73768 0.54482 0.0954 0.0
H1302 H 0.72166 0.52689 0.11367 0.0
H1303 H 0.6991 0.54269 0.09759 0.0
H1304 H 0.66162 0.49818 0.15761 0.0
H1305 H 0.60832 0.53537 0.11816 0.0
H1306 H 0.71067 0.554 0.16165 0.0
H1307 H 0.72601 0.5311 0.14559 0.0
H1308 H 0.70782 0.51548 0.1639 0.0
H1309 H 0.64498 0.60034 0.11406 0.0
H1310 H 0.62189 0.57597 0.10237 0.0
H1311 H 0.66001 0.5771 0.09806 0.0
C1312 C 0.71564 0.37247 0.37474 0.0
C1313 C 0.73627 0.37611 0.38781 0.0
C1314 C 0.6948 0.39361 0.37139 0.0
C1315 C 0.69466 0.41926 0.38122 0.0
C1316 C 0.71534 0.42312 0.39446 0.0
C1317 C 0.73577 0.40142 0.39769 0.0
C1318 C 0.67287 0.38844 0.35734 0.0
C1319 C 0.716 0.45028 0.40514 0.0
C1320 C 0.65595 0.48423 0.36215 0.0
C1321 C 0.62989 0.48396 0.37129 0.0
C1322 C 0.67738 0.46351 0.36537 0.0
C1323 C 0.67245 0.44174 0.37783 0.0
C1324 C 0.64601 0.44109 0.38688 0.0
C1325 C 0.62518 0.46226 0.38359 0.0
C1326 C 0.7054 0.46507 0.35556 0.0
C1327 C 0.63968 0.41796 0.40004 0.0
H1328 H 0.71568 0.35295 0.36708 0.0
H1329 H 0.75169 0.40454 0.40774 0.0
H1330 H 0.65082 0.3894 0.3628 0.0
H1331 H 0.67443 0.40556 0.34741 0.0
H1332 H 0.67578 0.36724 0.35094 0.0
H1333 H 0.73374 0.4502 0.41475 0.0
H1334 H 0.71864 0.46927 0.3966 0.0
H1335 H 0.69528 0.45295 0.41207 0.0
H1336 H 0.65986 0.501 0.35271 0.0
H1337 H 0.60505 0.46171 0.39065 0.0
H1338 H 0.70871 0.44496 0.34811 0.0
H1339 H 0.72364 0.467 0.36474 0.0
H1340 H 0.70608 0.48358 0.34651 0.0
H1341 H 0.64116 0.39643 0.39392 0.0
H1342 H 0.61794 0.42032 0.40584 0.0
H1343 H 0.65592 0.41864 0.41052 0.0
C1344 C 0.15501 0.51303 0.35978 0.0
C1345 C 0.12911 0.51303 0.36909 0.0
C1346 C 0.17662 0.53348 0.36321 0.0
C1347 C 0.17204 0.5547 0.37606 0.0
C1348 C 0.14577 0.55508 0.38528 0.0
C1349 C 0.12475 0.53419 0.38177 0.0
C1350 C 0.20445 0.53225 0.35319 0.0
C1351 C 0.1398 0.57762 0.39886 0.0
C1352 C 0.23575 0.59419 0.39611 0.0
C1353 C 0.23605 0.6199 0.38662 0.0
C1354 C 0.21529 0.57259 0.39267 0.0
C1355 C 0.19437 0.57699 0.37962 0.0
C1356 C 0.19432 0.60305 0.37018 0.0
C1357 C 0.2152 0.62405 0.37372 0.0
C1358 C 0.21617 0.54498 0.40292 0.0
C1359 C 0.17211 0.60882 0.35637 0.0
H1360 H 0.15868 0.49667 0.35006 0.0
H1361 H 0.10476 0.53454 0.38897 0.0
H1362 H 0.20768 0.55265 0.34602 0.0
H1363 H 0.22286 0.52988 0.36221 0.0
H1364 H 0.20489 0.51411 0.34386 0.0
H1365 H 0.11819 0.57505 0.40481 0.0
H1366 H 0.15627 0.57642 0.4092 0.0
H1367 H 0.14121 0.59942 0.39308 0.0
H1368 H 0.25185 0.59069 0.40601 0.0
H1369 H 0.21507 0.6439 0.36637 0.0
H1370 H 0.21858 0.52637 0.39407 0.0
H1371 H 0.19561 0.54205 0.40998 0.0
H1372 H 0.23414 0.54464 0.41237 0.0
H1373 H 0.17342 0.59209 0.3462 0.0
H1374 H 0.17494 0.63026 0.35026 0.0
H1375 H 0.15017 0.60769 0.36199 0.0
C1376 C 0.21893 0.37511 0.13258 0.0
C1377 C 0.2405 0.37946 0.12016 0.0
C1378 C 0.19805 0.39622 0.13593 0.0
C1379 C 0.19888 0.42257 0.1268 0.0
C1380 C 0.22059 0.42718 0.11425 0.0
C1381 C 0.24101 0.40548 0.11098 0.0
C1382 C 0.17498 0.39021 0.14917 0.0
C1383 C 0.22233 0.45512 0.10437 0.0
C1384 C 0.12961 0.46572 0.1236 0.0
C1385 C 0.13319 0.48638 0.13666 0.0
C1386 C 0.1508 0.44494 0.12026 0.0
C1387 C 0.17648 0.4449 0.13008 0.0
C1388 C 0.18033 0.46567 0.14327 0.0
C1389 C 0.15855 0.48604 0.14649 0.0
C1390 C 0.14561 0.42289 0.10628 0.0
C1391 C 0.20753 0.46646 0.15392 0.0
H1392 H 0.21819 0.35503 0.13968 0.0
H1393 H 0.25768 0.40913 0.10145 0.0
H1394 H 0.17575 0.40665 0.15953 0.0
H1395 H 0.15341 0.39162 0.14308 0.0
H1396 H 0.17731 0.36859 0.15513 0.0
H1397 H 0.24092 0.45564 0.09536 0.0
H1398 H 0.20229 0.45842 0.09684 0.0
H1399 H 0.22425 0.47343 0.11348 0.0
H1400 H 0.11004 0.46562 0.11598 0.0
H1401 H 0.16162 0.50199 0.15653 0.0
H1402 H 0.14643 0.4009 0.11185 0.0
H1403 H 0.16281 0.42425 0.09639 0.0
H1404 H 0.12446 0.42583 0.09983 0.0
H1405 H 0.21013 0.44588 0.161 0.0
H1406 H 0.20753 0.48439 0.1634 0.0
H1407 H 0.22651 0.46885 0.14535 0.0
C1408 C 0.37539 0.46769 0.88157 0.0
C1409 C 0.37079 0.48967 0.86944 0.0
C1410 C 0.35429 0.44679 0.88486 0.0
C1411 C 0.32768 0.44804 0.87601 0.0
C1412 C 0.32286 0.47011 0.86372 0.0
C1413 C 0.34458 0.49051 0.86047 0.0
C1414 C 0.36053 0.4233 0.89781 0.0
C1415 C 0.29464 0.47235 0.85416 0.0
C1416 C 0.28316 0.37958 0.87304 0.0
C1417 C 0.26323 0.38327 0.88649 0.0
C1418 C 0.30417 0.40046 0.8695 0.0
C1419 C 0.30511 0.42595 0.87948 0.0
C1420 C 0.285 0.42994 0.89301 0.0
C1421 C 0.26445 0.40845 0.89645 0.0
C1422 C 0.32554 0.39511 0.85518 0.0
C1423 C 0.28511 0.45698 0.90381 0.0
H1424 H 0.39565 0.46671 0.88849 0.0
H1425 H 0.34076 0.50751 0.85117 0.0
H1426 H 0.34464 0.42417 0.90847 0.0
H1427 H 0.35837 0.40191 0.89158 0.0
H1428 H 0.38249 0.42508 0.90338 0.0
H1429 H 0.2941 0.49101 0.84521 0.0
H1430 H 0.29075 0.45242 0.84664 0.0
H1431 H 0.27667 0.47451 0.8635 0.0
H1432 H 0.28255 0.36013 0.86532 0.0
H1433 H 0.24905 0.41159 0.90678 0.0
H1434 H 0.34776 0.39543 0.86043 0.0
H1435 H 0.32411 0.4125 0.84541 0.0
H1436 H 0.32194 0.37414 0.84864 0.0
H1437 H 0.30598 0.45905 0.91065 0.0
H1438 H 0.26751 0.45719 0.9135 0.0
H1439 H 0.28281 0.47614 0.89537 0.0
C1440 C 0.34239 0.51221 0.64716 0.0
C1441 C 0.36852 0.51322 0.63811 0.0
C1442 C 0.32051 0.53247 0.64396 0.0
C1443 C 0.32508 0.55454 0.63164 0.0
C1444 C 0.35161 0.55597 0.62272 0.0
C1445 C 0.37287 0.53521 0.62596 0.0
C1446 C 0.29238 0.53004 0.65359 0.0
C1447 C 0.35758 0.57948 0.60974 0.0
C1448 C 0.26161 0.59376 0.61121 0.0
C1449 C 0.26036 0.61901 0.62111 0.0
C1450 C 0.28221 0.57234 0.61469 0.0
C1451 C 0.30234 0.57646 0.62821 0.0
C1452 C 0.30134 0.602 0.63813 0.0
C1453 C 0.28028 0.62281 0.63455 0.0
C1454 C 0.28239 0.54524 0.60395 0.0
C1455 C 0.32274 0.60749 0.65243 0.0
H1456 H 0.33877 0.49519 0.65648 0.0
H1457 H 0.39306 0.53632 0.61898 0.0
H1458 H 0.28838 0.54998 0.66109 0.0
H1459 H 0.27436 0.5277 0.6443 0.0
H1460 H 0.29206 0.51142 0.66257 0.0
H1461 H 0.37952 0.57785 0.60412 0.0
H1462 H 0.34163 0.57846 0.59911 0.0
H1463 H 0.3553 0.60087 0.61596 0.0
H1464 H 0.24621 0.59053 0.60088 0.0
H1465 H 0.27965 0.64231 0.64222 0.0
H1466 H 0.28031 0.52611 0.61242 0.0
H1467 H 0.30319 0.54328 0.59703 0.0
H1468 H 0.26467 0.54486 0.59432 0.0
H1469 H 0.32149 0.59008 0.66219 0.0
H1470 H 0.319 0.62843 0.65898 0.0
H1471 H 0.34493 0.60736 0.64715 0.0
C1472 C 0.41559 0.14985 0.12972 0.0
C1473 C 0.39858 0.12605 0.13403 0.0
C1474 C 0.40293 0.17624 0.12519 0.0
C1475 C 0.37254 0.17843 0.12424 0.0
C1476 C 0.35529 0.15435 0.12864 0.0
C1477 C 0.36856 0.12855 0.13381 0.0
C1478 C 0.42208 0.20165 0.12124 0.0
C1479 C 0.3229 0.15549 0.12725 0.0
C1480 C 0.3367 0.25216 0.12375 0.0
C1481 C 0.33407 0.25732 0.10602 0.0
C1482 C 0.34957 0.22676 0.1299 0.0
C1483 C 0.35891 0.20557 0.11801 0.0
C1484 C 0.3556 0.21046 0.10007 0.0
C1485 C 0.34376 0.23656 0.09429 0.0
C1486 C 0.3537 0.22288 0.14907 0.0
C1487 C 0.3644 0.18806 0.08698 0.0
H1488 H 0.43885 0.14783 0.13001 0.0
H1489 H 0.3555 0.10996 0.137 0.0
H1490 H 0.42017 0.20745 0.10741 0.0
H1491 H 0.41519 0.22066 0.12885 0.0
H1492 H 0.44508 0.19713 0.12411 0.0
H1493 H 0.31259 0.13497 0.13124 0.0
H1494 H 0.31426 0.17311 0.13539 0.0
H1495 H 0.31662 0.16022 0.11373 0.0
H1496 H 0.32943 0.26833 0.13283 0.0
H1497 H 0.34152 0.24049 0.08057 0.0
H1498 H 0.37686 0.21951 0.15196 0.0
H1499 H 0.34203 0.20346 0.15355 0.0
H1500 H 0.34595 0.24173 0.15656 0.0
H1501 H 0.38796 0.18442 0.08764 0.0
H1502 H 0.35874 0.19446 0.0736 0.0
H1503 H 0.35375 0.16725 0.08993 0.0
C1504 C 0.10675 0.13867 0.3941 0.0
C1505 C 0.12943 0.13929 0.38219 0.0
C1506 C 0.0799 0.12677 0.38963 0.0
C1507 C 0.07603 0.11441 0.37307 0.0
C1508 C 0.09929 0.11408 0.36126 0.0
C1509 C 0.12552 0.12695 0.36586 0.0
C1510 C 0.05543 0.12827 0.4024 0.0
C1511 C 0.09638 0.10039 0.34368 0.0
C1512 C 0.01404 0.06225 0.36557 0.0
C1513 C 0.99493 0.07918 0.35593 0.0
C1514 C 0.04046 0.07344 0.37133 0.0
C1515 C 0.0475 0.10253 0.36782 0.0
C1516 C 0.02778 0.11996 0.35858 0.0
C1517 C 0.00193 0.10794 0.35251 0.0
C1518 C 0.0612 0.05392 0.38071 0.0
C1519 C 0.03408 0.15127 0.35497 0.0
H1520 H 0.10966 0.14849 0.40667 0.0
H1521 H 0.14313 0.12724 0.35668 0.0
H1522 H 0.0375 0.14108 0.39686 0.0
H1523 H 0.04694 0.1064 0.40503 0.0
H1524 H 0.06204 0.13822 0.41482 0.0
H1525 H 0.11708 0.10013 0.3365 0.0
H1526 H 0.08851 0.07795 0.34497 0.0
H1527 H 0.08028 0.11235 0.33591 0.0
H1528 H 0.00869 0.03996 0.36817 0.0
H1529 H 0.98703 0.12116 0.34522 0.0
H1530 H 0.06674 0.06315 0.39348 0.0
H1531 H 0.08152 0.05215 0.37326 0.0
H1532 H 0.0523 0.03197 0.38266 0.0
H1533 H 0.03955 0.16259 0.36714 0.0
H1534 H 0.01557 0.16242 0.34882 0.0
H1535 H 0.05298 0.15309 0.34631 0.0
C1536 C 0.13262 0.86979 0.63333 0.0
C1537 C 0.10268 0.87106 0.63517 0.0
C1538 C 0.14614 0.84436 0.62776 0.0
C1539 C 0.12933 0.81944 0.62456 0.0
C1540 C 0.09915 0.82042 0.62717 0.0
C1541 C 0.08612 0.84643 0.6321 0.0
C1542 C 0.17821 0.84449 0.62462 0.0
C1543 C 0.08057 0.79413 0.62452 0.0
C1544 C 0.15646 0.76137 0.59395 0.0
C1545 C 0.16873 0.74155 0.6054 0.0
C1546 C 0.14416 0.78712 0.59998 0.0
C1547 C 0.14314 0.79263 0.61796 0.0
C1548 C 0.15509 0.7724 0.62959 0.0
C1549 C 0.16826 0.7474 0.62315 0.0
C1550 C 0.13249 0.80853 0.58711 0.0
C1551 C 0.15353 0.77692 0.64886 0.0
H1552 H 0.14527 0.88907 0.63547 0.0
H1553 H 0.06292 0.84759 0.63351 0.0
H1554 H 0.18878 0.82747 0.63239 0.0
H1555 H 0.1826 0.83964 0.61085 0.0
H1556 H 0.1882 0.86553 0.62786 0.0
H1557 H 0.05794 0.7978 0.62858 0.0
H1558 H 0.08065 0.78795 0.6107 0.0
H1559 H 0.08938 0.77566 0.63191 0.0
H1560 H 0.15701 0.757 0.58021 0.0
H1561 H 0.17764 0.73212 0.63207 0.0
H1562 H 0.14266 0.82987 0.58916 0.0
H1563 H 0.10899 0.81128 0.58902 0.0
H1564 H 0.13635 0.80174 0.57357 0.0
H1565 H 0.16509 0.79691 0.65247 0.0
H1566 H 0.16299 0.75867 0.65617 0.0
H1567 H 0.13076 0.77962 0.65287 0.0
C1568 C 0.4998 0.89285 0.85334 0.0
C1569 C 0.50711 0.92144 0.85703 0.0
C1570 C 0.47372 0.88103 0.85917 0.0
C1571 C 0.4541 0.89851 0.86845 0.0
C1572 C 0.46146 0.92742 0.87224 0.0
C1573 C 0.4881 0.9384 0.8667 0.0
C1574 C 0.46707 0.84989 0.85528 0.0
C1575 C 0.44085 0.947 0.88167 0.0
C1576 C 0.37582 0.87513 0.86595 0.0
C1577 C 0.37156 0.86252 0.88217 0.0
C1578 C 0.40227 0.88776 0.86156 0.0
C1579 C 0.42537 0.88689 0.87348 0.0
C1580 C 0.42115 0.87423 0.88992 0.0
C1581 C 0.39411 0.8626 0.89418 0.0
C1582 C 0.40556 0.90178 0.8441 0.0
C1583 C 0.44545 0.87213 0.90279 0.0
H1584 H 0.51463 0.8796 0.84601 0.0
H1585 H 0.49369 0.96057 0.86951 0.0
H1586 H 0.4613 0.83837 0.86734 0.0
H1587 H 0.44826 0.84851 0.84651 0.0
H1588 H 0.48551 0.83863 0.84914 0.0
H1589 H 0.45 0.96879 0.88384 0.0
H1590 H 0.42065 0.94918 0.87414 0.0
H1591 H 0.43503 0.93757 0.89434 0.0
H1592 H 0.35832 0.87524 0.85669 0.0
H1593 H 0.39091 0.85255 0.90666 0.0
H1594 H 0.4216 0.88979 0.83632 0.0
H1595 H 0.4137 0.9241 0.84561 0.0
H1596 H 0.38496 0.90246 0.83684 0.0
H1597 H 0.46329 0.85923 0.89723 0.0
H1598 H 0.43857 0.862 0.91509 0.0
H1599 H 0.45418 0.89383 0.90563 0.0
C1600 C 0.34175 0.76152 0.4124 0.0
C1601 C 0.33018 0.7415 0.40082 0.0
C1602 C 0.35406 0.78731 0.4065 0.0
C1603 C 0.35578 0.79271 0.38854 0.0
C1604 C 0.34449 0.7723 0.37677 0.0
C1605 C 0.33134 0.74716 0.38308 0.0
C1606 C 0.36506 0.80886 0.41951 0.0
C1607 C 0.3468 0.77675 0.35753 0.0
C1608 C 0.36678 0.87013 0.37384 0.0
C1609 C 0.3968 0.87159 0.37271 0.0
C1610 C 0.35304 0.84448 0.37883 0.0
C1611 C 0.36976 0.81956 0.38215 0.0
C1612 C 0.40007 0.82071 0.38018 0.0
C1613 C 0.41327 0.84692 0.37584 0.0
C1614 C 0.32081 0.84443 0.38132 0.0
C1615 C 0.41861 0.79444 0.383 0.0
H1616 H 0.34068 0.75724 0.42614 0.0
H1617 H 0.32261 0.7316 0.37408 0.0
H1618 H 0.38863 0.81167 0.41799 0.0
H1619 H 0.35492 0.83016 0.41724 0.0
H1620 H 0.36061 0.80216 0.433 0.0
H1621 H 0.33751 0.75853 0.35011 0.0
H1622 H 0.33551 0.7968 0.35373 0.0
H1623 H 0.36974 0.77929 0.35383 0.0
H1624 H 0.35416 0.88942 0.37162 0.0
H1625 H 0.43654 0.8482 0.37494 0.0
H1626 H 0.31571 0.8397 0.39502 0.0
H1627 H 0.31078 0.82725 0.37342 0.0
H1628 H 0.31087 0.86537 0.37781 0.0
H1629 H 0.41805 0.78817 0.39679 0.0
H1630 H 0.44138 0.79821 0.37924 0.0
H1631 H 0.41013 0.776 0.37544 0.0
C1632 C 0.39345 0.13891 0.6157 0.0
C1633 C 0.3711 0.13987 0.62783 0.0
C1634 C 0.42051 0.12738 0.62006 0.0
C1635 C 0.42494 0.11575 0.63676 0.0
C1636 C 0.40208 0.11588 0.64884 0.0
C1637 C 0.37561 0.12834 0.64432 0.0
C1638 C 0.44456 0.12837 0.60699 0.0
C1639 C 0.4056 0.10296 0.66659 0.0
C1640 C 0.48664 0.06319 0.64391 0.0
C1641 C 0.50637 0.08019 0.65304 0.0
C1642 C 0.46009 0.07449 0.63848 0.0
C1643 C 0.45353 0.10375 0.64177 0.0
C1644 C 0.47385 0.12124 0.65051 0.0
C1645 C 0.49985 0.10911 0.65629 0.0
C1646 C 0.43874 0.05491 0.62965 0.0
C1647 C 0.46808 0.15274 0.65382 0.0
H1648 H 0.39009 0.14812 0.60301 0.0
H1649 H 0.35829 0.12892 0.65368 0.0
H1650 H 0.46284 0.14103 0.61222 0.0
H1651 H 0.45266 0.10634 0.6044 0.0
H1652 H 0.43764 0.13816 0.59459 0.0
H1653 H 0.38522 0.10328 0.67409 0.0
H1654 H 0.41313 0.08037 0.66554 0.0
H1655 H 0.42218 0.11505 0.67391 0.0
H1656 H 0.49165 0.04078 0.64144 0.0
H1657 H 0.51527 0.12237 0.66315 0.0
H1658 H 0.43295 0.06367 0.61681 0.0
H1659 H 0.41863 0.05379 0.63735 0.0
H1660 H 0.44722 0.03273 0.62794 0.0
H1661 H 0.46228 0.16372 0.64159 0.0
H1662 H 0.48695 0.16385 0.65958 0.0
H1663 H 0.44953 0.15508 0.66271 0.0
C1664 C 0.1348 0.13219 0.87475 0.0
C1665 C 0.10496 0.13119 0.87239 0.0
C1666 C 0.14836 0.15769 0.88017 0.0
C1667 C 0.1317 0.18292 0.88273 0.0
C1668 C 0.10166 0.18218 0.87958 0.0
C1669 C 0.08856 0.15613 0.87479 0.0
C1670 C 0.18026 0.15731 0.88388 0.0
C1671 C 0.08326 0.20877 0.88158 0.0
C1672 C 0.15811 0.24139 0.91329 0.0
C1673 C 0.17114 0.26081 0.90189 0.0
C1674 C 0.14572 0.21569 0.90726 0.0
C1675 C 0.14548 0.20976 0.88932 0.0
C1676 C 0.15821 0.22957 0.87773 0.0
C1677 C 0.17135 0.25459 0.88419 0.0
C1678 C 0.13311 0.19477 0.9201 0.0
C1679 C 0.15757 0.22456 0.85849 0.0
H1680 H 0.14731 0.11267 0.87312 0.0
H1681 H 0.06542 0.15517 0.873 0.0
H1682 H 0.19138 0.17405 0.87616 0.0
H1683 H 0.18403 0.16244 0.89768 0.0
H1684 H 0.19019 0.13611 0.88098 0.0
H1685 H 0.06082 0.20522 0.87711 0.0
H1686 H 0.08267 0.21537 0.89532 0.0
H1687 H 0.09268 0.2269 0.87416 0.0
H1688 H 0.15809 0.24604 0.927 0.0
H1689 H 0.18129 0.26958 0.8753 0.0
H1690 H 0.14317 0.17327 0.91847 0.0
H1691 H 0.10971 0.19219 0.91774 0.0
H1692 H 0.13627 0.2019 0.93365 0.0
H1693 H 0.16904 0.20432 0.85529 0.0
H1694 H 0.16765 0.24248 0.85119 0.0
H1695 H 0.13498 0.22205 0.85408 0.0
C1696 C 0.10129 0.83892 0.12787 0.0
C1697 C 0.12585 0.85577 0.12518 0.0
C1698 C 0.07485 0.85166 0.13223 0.0
C1699 C 0.07332 0.88186 0.13465 0.0
C1700 C 0.09821 0.89894 0.13193 0.0
C1701 C 0.1241 0.88569 0.1269 0.0
C1702 C 0.04864 0.83279 0.13439 0.0
C1703 C 0.09775 0.93105 0.1349 0.0
C1704 C 1.00075 0.91999 0.13417 0.0
C1705 C 0.99385 0.92073 0.15176 0.0
C1706 C 0.02629 0.90697 0.12837 0.0
C1707 C 0.04592 0.89544 0.14053 0.0
C1708 C 0.03929 0.89672 0.15836 0.0
C1709 C 0.01308 0.90887 0.16373 0.0
C1710 C 0.03205 0.90514 0.10924 0.0
C1711 C 0.06 0.88548 0.17178 0.0
H1712 H 0.10278 0.81574 0.12646 0.0
H1713 H 0.14329 0.89859 0.12498 0.0
H1714 H 0.04146 0.83315 0.14803 0.0
H1715 H 0.03061 0.84115 0.12643 0.0
H1716 H 0.0529 0.81011 0.13064 0.0
H1717 H 0.11893 0.94122 0.13224 0.0
H1718 H 0.08129 0.9413 0.12656 0.0
H1719 H 0.09168 0.9356 0.14848 0.0
H1720 H 0.98589 0.92902 0.12486 0.0
H1721 H 0.00788 0.90962 0.17735 0.0
H1722 H 0.03528 0.88235 0.10543 0.0
H1723 H 0.0521 0.9169 0.10601 0.0
H1724 H 0.01415 0.91424 0.10145 0.0
H1725 H 0.06318 0.86201 0.17005 0.0
H1726 H 0.05229 0.88943 0.18513 0.0
H1727 H 0.08133 0.89591 0.17018 0.0
C1728 C 0.64114 0.75081 0.90609 0.0
C1729 C 0.67006 0.74449 0.90268 0.0
C1730 C 0.62867 0.77661 0.90027 0.0
C1731 C 0.64582 0.79696 0.89132 0.0
C1732 C 0.6751 0.79063 0.88789 0.0
C1733 C 0.68673 0.76425 0.89337 0.0
C1734 C 0.59718 0.78214 0.90374 0.0
C1735 C 0.69433 0.81202 0.87883 0.0
C1736 C 0.60956 0.85618 0.86507 0.0
C1737 C 0.60852 0.87872 0.87707 0.0
C1738 C 0.62147 0.82934 0.86954 0.0
C1739 C 0.63343 0.82533 0.88619 0.0
C1740 C 0.63322 0.8484 0.89813 0.0
C1741 C 0.62035 0.87463 0.89352 0.0
C1742 C 0.62055 0.80505 0.85662 0.0
C1743 C 0.64648 0.84536 0.91583 0.0
H1744 H 0.62813 0.73536 0.91309 0.0
H1745 H 0.70914 0.75939 0.89076 0.0
H1746 H 0.5948 0.80084 0.91251 0.0
H1747 H 0.58592 0.78756 0.89154 0.0
H1748 H 0.58636 0.76328 0.90971 0.0
H1749 H 0.71657 0.80376 0.87707 0.0
H1750 H 0.68533 0.81747 0.86599 0.0
H1751 H 0.69532 0.83228 0.88639 0.0
H1752 H 0.60012 0.85922 0.85241 0.0
H1753 H 0.61972 0.89211 0.90278 0.0
H1754 H 0.6082 0.78672 0.86204 0.0
H1755 H 0.64263 0.79717 0.85395 0.0
H1756 H 0.61045 0.81163 0.84424 0.0
H1757 H 0.63471 0.82879 0.92332 0.0
H1758 H 0.64607 0.86586 0.9232 0.0
H1759 H 0.66915 0.83805 0.91468 0.0
C1760 C 0.99887 0.91683 0.6355 0.0
C1761 C 0.0052 0.91781 0.65316 0.0
C1762 C 0.97345 0.90388 0.62946 0.0
C1763 C 0.9533 0.89276 0.64144 0.0
C1764 C 0.95934 0.8943 0.65934 0.0
C1765 C 0.98549 0.9063 0.66496 0.0
C1766 C 0.96836 0.90172 0.61027 0.0
C1767 C 0.93805 0.88355 0.67257 0.0
C1768 C 0.87563 0.88366 0.62662 0.0
C1769 C 0.87362 0.85373 0.62502 0.0
C1770 C 0.90142 0.89669 0.63204 0.0
C1771 C 0.92597 0.87938 0.63528 0.0
C1772 C 0.92421 0.84916 0.63301 0.0
C1773 C 0.89785 0.83665 0.62825 0.0
C1774 C 0.90211 0.92883 0.63484 0.0
C1775 C 0.9501 0.83003 0.6357 0.0
H1776 H 0.01408 0.92561 0.62632 0.0
H1777 H 0.99025 0.90726 0.67864 0.0
H1778 H 0.9649 0.8789 0.60659 0.0
H1779 H 0.94862 0.91373 0.60668 0.0
H1780 H 0.98669 0.91037 0.60266 0.0
H1781 H 0.94534 0.88767 0.68599 0.0
H1782 H 0.9169 0.89418 0.67062 0.0
H1783 H 0.93467 0.86008 0.67096 0.0
H1784 H 0.8567 0.89674 0.62428 0.0
H1785 H 0.89617 0.81347 0.62694 0.0
H1786 H 0.91892 0.93878 0.62663 0.0
H1787 H 0.90779 0.93354 0.64845 0.0
H1788 H 0.88112 0.93918 0.63187 0.0
H1789 H 0.96854 0.83801 0.62795 0.0
H1790 H 0.94573 0.80732 0.63206 0.0
H1791 H 0.95674 0.8306 0.64944 0.0
C1792 C 0.86076 0.24853 0.40494 0.0
C1793 C 0.83194 0.25519 0.40144 0.0
C1794 C 0.87303 0.22268 0.39907 0.0
C1795 C 0.85577 0.20262 0.38998 0.0
C1796 C 0.82661 0.20929 0.38642 0.0
C1797 C 0.81517 0.23573 0.39196 0.0
C1798 C 0.90441 0.21678 0.4027 0.0
C1799 C 0.80728 0.18818 0.3772 0.0
C1800 C 0.89234 0.14357 0.36382 0.0
C1801 C 0.89326 0.12098 0.37579 0.0
C1802 C 0.88025 0.17033 0.36824 0.0
C1803 C 0.86798 0.1742 0.38482 0.0
C1804 C 0.868 0.15106 0.39671 0.0
C1805 C 0.88108 0.12491 0.39216 0.0
C1806 C 0.8814 0.1947 0.35539 0.0
C1807 C 0.85441 0.15398 0.41432 0.0
H1808 H 0.87383 0.26372 0.41211 0.0
H1809 H 0.79283 0.24083 0.3893 0.0
H1810 H 0.90646 0.19799 0.41143 0.0
H1811 H 0.91579 0.21132 0.39055 0.0
H1812 H 0.91536 0.23547 0.40878 0.0
H1813 H 0.78517 0.19674 0.3753 0.0
H1814 H 0.81644 0.18265 0.36442 0.0
H1815 H 0.80589 0.16792 0.38474 0.0
H1816 H 0.90204 0.14063 0.35122 0.0
H1817 H 0.88161 0.10738 0.40138 0.0
H1818 H 0.89389 0.21288 0.36088 0.0
H1819 H 0.8594 0.20279 0.3527 0.0
H1820 H 0.89149 0.18813 0.34301 0.0
H1821 H 0.86619 0.17033 0.42199 0.0
H1822 H 0.85448 0.13337 0.42158 0.0
H1823 H 0.83184 0.16152 0.41305 0.0
C1824 C 0.60512 0.14199 0.11352 0.0
C1825 C 0.62802 0.14233 0.12529 0.0
C1826 C 0.57831 0.13009 0.1181 0.0
C1827 C 0.57471 0.11749 0.13462 0.0
C1828 C 0.59816 0.11693 0.14628 0.0
C1829 C 0.62435 0.12973 0.14157 0.0
C1830 C 0.55362 0.13177 0.10549 0.0
C1831 C 0.59555 0.10301 0.16382 0.0
C1832 C 0.5012 0.10994 0.1558 0.0
C1833 C 0.49454 0.0811 0.15237 0.0
C1834 C 0.52669 0.12239 0.14949 0.0
C1835 C 0.54637 0.10532 0.13997 0.0
C1836 C 0.53962 0.07618 0.13642 0.0
C1837 C 0.51357 0.06456 0.14245 0.0
C1838 C 0.53269 0.15373 0.15316 0.0
C1839 C 0.5603 0.05705 0.12672 0.0
H1840 H 0.60786 0.15198 0.10099 0.0
H1841 H 0.64212 0.12979 0.15065 0.0
H1842 H 0.54518 0.10992 0.10275 0.0
H1843 H 0.53573 0.14438 0.11123 0.0
H1844 H 0.55999 0.14199 0.09311 0.0
H1845 H 0.61632 0.10282 0.17093 0.0
H1846 H 0.57943 0.11473 0.17169 0.0
H1847 H 0.58786 0.08051 0.16245 0.0
H1848 H 0.48631 0.12288 0.16327 0.0
H1849 H 0.50845 0.04223 0.1398 0.0
H1850 H 0.53782 0.16523 0.141 0.0
H1851 H 0.55172 0.15567 0.16172 0.0
H1852 H 0.51417 0.1646 0.15946 0.0
H1853 H 0.56547 0.06659 0.11398 0.0
H1854 H 0.55155 0.03506 0.12467 0.0
H1855 H 0.58081 0.05529 0.13399 0.0
C1856 C 0.65692 0.23625 0.59324 0.0
C1857 C 0.66858 0.25605 0.60494 0.0
C1858 C 0.64469 0.21029 0.59899 0.0
C1859 C 0.64309 0.20452 0.61692 0.0
C1860 C 0.65441 0.22474 0.6288 0.0
C1861 C 0.66755 0.24997 0.62264 0.0
C1862 C 0.63372 0.18893 0.58587 0.0
C1863 C 0.65222 0.21994 0.64801 0.0
C1864 C 0.58628 0.14989 0.63028 0.0
C1865 C 0.60306 0.12548 0.63359 0.0
C1866 C 0.59913 0.17606 0.62547 0.0
C1867 C 0.62938 0.17744 0.62322 0.0
C1868 C 0.64638 0.15271 0.62656 0.0
C1869 C 0.63302 0.12713 0.63203 0.0
C1870 C 0.58031 0.20215 0.62267 0.0
C1871 C 0.67855 0.15299 0.62379 0.0
H1872 H 0.65791 0.2408 0.57954 0.0
H1873 H 0.67644 0.26525 0.63174 0.0
H1874 H 0.64409 0.16768 0.58794 0.0
H1875 H 0.6102 0.18586 0.58747 0.0
H1876 H 0.63796 0.19596 0.57241 0.0
H1877 H 0.66115 0.23823 0.65554 0.0
H1878 H 0.62935 0.21687 0.65172 0.0
H1879 H 0.66393 0.20008 0.65169 0.0
H1880 H 0.56307 0.1485 0.63155 0.0
H1881 H 0.64588 0.10805 0.6344 0.0
H1882 H 0.58091 0.20856 0.6089 0.0
H1883 H 0.58855 0.2206 0.63031 0.0
H1884 H 0.55756 0.19811 0.62636 0.0
H1885 H 0.68334 0.15832 0.61013 0.0
H1886 H 0.68865 0.13196 0.62692 0.0
H1887 H 0.68868 0.16987 0.63187 0.0
C1888 C 0.50076 0.9171 0.37329 0.0
C1889 C 0.49449 0.91886 0.35564 0.0
C1890 C 0.52616 0.90387 0.37915 0.0
C1891 C 0.54633 0.89325 0.36702 0.0
C1892 C 0.54035 0.89559 0.34915 0.0
C1893 C 0.51423 0.90785 0.34369 0.0
C1894 C 0.53117 0.90085 0.39831 0.0
C1895 C 0.56168 0.88541 0.33578 0.0
C1896 C 0.62395 0.88331 0.38177 0.0
C1897 C 0.62593 0.85331 0.38285 0.0
C1898 C 0.5982 0.89664 0.37655 0.0
C1899 C 0.57362 0.87954 0.373 0.0
C1900 C 0.57533 0.84923 0.37476 0.0
C1901 C 0.60166 0.83644 0.37931 0.0
C1902 C 0.59758 0.9289 0.37429 0.0
C1903 C 0.54941 0.83028 0.37174 0.0
H1904 H 0.48552 0.92549 0.38258 0.0
H1905 H 0.50952 0.90941 0.33002 0.0
H1906 H 0.53456 0.87786 0.40163 0.0
H1907 H 0.55092 0.91264 0.40211 0.0
H1908 H 0.51284 0.9092 0.40603 0.0
H1909 H 0.55446 0.89017 0.32242 0.0
H1910 H 0.58285 0.89589 0.33793 0.0
H1911 H 0.56499 0.86186 0.337 0.0
H1912 H 0.6429 0.89626 0.38434 0.0
H1913 H 0.60329 0.8132 0.38024 0.0
H1914 H 0.58074 0.93851 0.38263 0.0
H1915 H 0.59197 0.93425 0.36074 0.0
H1916 H 0.61857 0.93907 0.37746 0.0
H1917 H 0.53095 0.83796 0.37958 0.0
H1918 H 0.55372 0.80741 0.37503 0.0
H1919 H 0.54283 0.83145 0.35801 0.0
C1920 C 0.83309 0.7483 0.12298 0.0
C1921 C 0.83235 0.74227 0.10526 0.0
C1922 C 0.84604 0.77355 0.12924 0.0
C1923 C 0.85744 0.79383 0.11744 0.0
C1924 C 0.85614 0.78812 0.0995 0.0
C1925 C 0.84411 0.76213 0.09365 0.0
C1926 C 0.84793 0.7783 0.14847 0.0
C1927 C 0.86722 0.80956 0.08646 0.0
C1928 C 0.86708 0.87136 0.13234 0.0
C1929 C 0.89703 0.87314 0.1339 0.0
C1930 C 0.85383 0.84563 0.12703 0.0
C1931 C 0.87096 0.82093 0.12383 0.0
C1932 C 0.90117 0.82242 0.12618 0.0
C1933 C 0.91391 0.84872 0.13083 0.0
C1934 C 0.82169 0.84521 0.12416 0.0
C1935 C 0.92011 0.79638 0.12352 0.0
H1936 H 0.82412 0.73297 0.13202 0.0
H1937 H 0.84334 0.75762 0.07994 0.0
H1938 H 0.87074 0.78141 0.15231 0.0
H1939 H 0.83612 0.79814 0.1521 0.0
H1940 H 0.83892 0.75998 0.15592 0.0
H1941 H 0.86319 0.80257 0.07297 0.0
H1942 H 0.85676 0.83077 0.0885 0.0
H1943 H 0.89071 0.8127 0.08819 0.0
H1944 H 0.85417 0.89047 0.13449 0.0
H1945 H 0.93712 0.85025 0.13205 0.0
H1946 H 0.81158 0.82812 0.13208 0.0
H1947 H 0.81706 0.84012 0.11045 0.0
H1948 H 0.81144 0.86613 0.12739 0.0
H1949 H 0.91173 0.77788 0.13106 0.0
H1950 H 0.94276 0.80046 0.12742 0.0
H1951 H 0.91986 0.79002 0.10974 0.0
C1952 C 1.00078 0.08591 0.87252 0.0
C1953 C 0.00703 0.08436 0.85486 0.0
C1954 C 0.97534 0.09896 0.87844 0.0
C1955 C 0.9551 0.1096 0.86636 0.0
C1956 C 0.96106 0.1075 0.84847 0.0
C1957 C 0.98723 0.09541 0.84296 0.0
C1958 C 0.97034 0.10174 0.89761 0.0
C1959 C 0.93966 0.11772 0.83515 0.0
C1960 C 0.87745 0.11895 0.88113 0.0
C1961 C 0.87533 0.14892 0.88233 0.0
C1962 C 0.90327 0.10582 0.87587 0.0
C1963 C 0.92776 0.12309 0.87239 0.0
C1964 C 0.9259 0.15337 0.87428 0.0
C1965 C 0.8995 0.16596 0.87888 0.0
C1966 C 0.90407 0.07358 0.87348 0.0
C1967 C 0.95171 0.17249 0.87134 0.0
H1968 H 0.01608 0.07748 0.88178 0.0
H1969 H 0.99192 0.09401 0.82928 0.0
H1970 H 0.96681 0.12467 0.90102 0.0
H1971 H 0.95067 0.08979 0.90137 0.0
H1972 H 0.98874 0.09342 0.90529 0.0
H1973 H 0.9469 0.11317 0.82177 0.0
H1974 H 0.91856 0.10708 0.83726 0.0
H1975 H 0.9362 0.14122 0.83648 0.0
H1976 H 0.85857 0.10588 0.88363 0.0
H1977 H 0.89774 0.18918 0.87989 0.0
H1978 H 0.92099 0.06398 0.88177 0.0
H1979 H 0.90967 0.06842 0.85991 0.0
H1980 H 0.88315 0.06326 0.87662 0.0
H1981 H 0.97022 0.16482 0.87914 0.0
H1982 H 0.94728 0.1953 0.87473 0.0
H1983 H 0.95828 0.17151 0.8576 0.0
C1984 C 0.81188 0.73871 0.61529 0.0
C1985 C 0.82864 0.75799 0.60567 0.0
C1986 C 0.82333 0.71243 0.62106 0.0
C1987 C 0.85249 0.70568 0.61757 0.0
C1988 C 0.86976 0.72559 0.60837 0.0
C1989 C 0.8575 0.75133 0.6023 0.0
C1990 C 0.80397 0.69151 0.63042 0.0
C1991 C 0.90113 0.71959 0.60478 0.0
C1992 C 0.88855 0.64591 0.64351 0.0
C1993 C 0.88893 0.62339 0.63148 0.0
C1994 C 0.87683 0.67291 0.63918 0.0
C1995 C 0.86447 0.67712 0.62264 0.0
C1996 C 0.86396 0.65405 0.61071 0.0
C1997 C 0.87657 0.62766 0.61518 0.0
C1998 C 0.87845 0.69717 0.65209 0.0
C1999 C 0.85029 0.65731 0.59314 0.0
H2000 H 0.78953 0.74384 0.61789 0.0
H2001 H 0.87059 0.76641 0.59507 0.0
H2002 H 0.80223 0.67127 0.62289 0.0
H2003 H 0.81333 0.68588 0.64314 0.0
H2004 H 0.78199 0.70028 0.63246 0.0
H2005 H 0.91217 0.73827 0.59877 0.0
H2006 H 0.91245 0.71398 0.61693 0.0
H2007 H 0.90311 0.70085 0.596 0.0
H2008 H 0.89837 0.64272 0.65605 0.0
H2009 H 0.87667 0.6102 0.6059 0.0
H2010 H 0.85659 0.70562 0.65482 0.0
H2011 H 0.89122 0.71518 0.64663 0.0
H2012 H 0.88847 0.69035 0.66444 0.0
H2013 H 0.82781 0.66506 0.59448 0.0
H2014 H 0.85011 0.63679 0.58579 0.0
H2015 H 0.8622 0.67363 0.58552 0.0
C2016 C 0.62148 0.61859 0.88367 0.0
C2017 C 0.62395 0.64862 0.8838 0.0
C2018 C 0.59565 0.60525 0.87861 0.0
C2019 C 0.5715 0.62243 0.87423 0.0
C2020 C 0.57364 0.65282 0.87513 0.0
C2021 C 0.60005 0.66555 0.87956 0.0
C2022 C 0.59458 0.57286 0.87727 0.0
C2023 C 0.54817 0.67191 0.8712 0.0
C2024 C 0.51355 0.59348 0.84421 0.0
C2025 C 0.49274 0.58376 0.85589 0.0
C2026 C 0.53959 0.6054 0.85003 0.0
C2027 C 0.5444 0.60873 0.86797 0.0
C2028 C 0.52317 0.59935 0.87982 0.0
C2029 C 0.49781 0.58644 0.87364 0.0
C2030 C 0.56202 0.61425 0.83697 0.0
C2031 C 0.52697 0.60349 0.899 0.0
H2032 H 0.64014 0.60558 0.88681 0.0
H2033 H 0.60203 0.68881 0.87978 0.0
H2034 H 0.57689 0.56422 0.88536 0.0
H2035 H 0.58998 0.56653 0.86374 0.0
H2036 H 0.61509 0.56261 0.88134 0.0
H2037 H 0.55261 0.69489 0.87411 0.0
H2038 H 0.54239 0.67004 0.85736 0.0
H2039 H 0.52916 0.66493 0.87879 0.0
H2040 H 0.50971 0.59121 0.83048 0.0
H2041 H 0.4816 0.57914 0.88268 0.0
H2042 H 0.58285 0.60366 0.83994 0.0
H2043 H 0.5656 0.63782 0.83764 0.0
H2044 H 0.55568 0.60859 0.82357 0.0
H2045 H 0.54643 0.5919 0.90351 0.0
H2046 H 0.50813 0.59566 0.90647 0.0
H2047 H 0.53024 0.62666 0.90189 0.0
C2048 C 0.6374 0.37237 0.13452 0.0
C2049 C 0.60738 0.37459 0.1352 0.0
C2050 C 0.65069 0.34663 0.12927 0.0
C2051 C 0.6335 0.32231 0.12525 0.0
C2052 C 0.60315 0.32421 0.12672 0.0
C2053 C 0.59043 0.35053 0.13133 0.0
C2054 C 0.68302 0.34582 0.12733 0.0
C2055 C 0.58408 0.29857 0.12317 0.0
C2056 C 0.66136 0.26462 0.09468 0.0
C2057 C 0.67187 0.24388 0.10617 0.0
C2058 C 0.64952 0.29055 0.10073 0.0
C2059 C 0.6471 0.29533 0.11872 0.0
C2060 C 0.6573 0.27418 0.13039 0.0
C2061 C 0.67009 0.24894 0.12396 0.0
C2062 C 0.63977 0.31289 0.08784 0.0
C2063 C 0.65415 0.27795 0.14964 0.0
H2064 H 0.65041 0.39117 0.13736 0.0
H2065 H 0.56717 0.35234 0.13195 0.0
H2066 H 0.69222 0.32818 0.13522 0.0
H2067 H 0.68867 0.34133 0.11368 0.0
H2068 H 0.69331 0.36639 0.13123 0.0
H2069 H 0.56123 0.30281 0.12655 0.0
H2070 H 0.5852 0.29283 0.1093 0.0
H2071 H 0.59166 0.27962 0.1306 0.0
H2072 H 0.66292 0.26079 0.08092 0.0
H2073 H 0.67799 0.23279 0.13287 0.0
H2074 H 0.65031 0.33382 0.09062 0.0
H2075 H 0.61621 0.31624 0.08896 0.0
H2076 H 0.64477 0.3066 0.07435 0.0
H2077 H 0.66577 0.29753 0.15392 0.0
H2078 H 0.66257 0.25919 0.15695 0.0
H2079 H 0.63111 0.28098 0.15297 0.0
C2080 C 0.89671 0.35731 0.39335 0.0
C2081 C 0.87406 0.35666 0.38142 0.0
C2082 C 0.92354 0.36925 0.38892 0.0
C2083 C 0.92742 0.38164 0.37236 0.0
C2084 C 0.90419 0.38193 0.36053 0.0
C2085 C 0.87798 0.369 0.3651 0.0
C2086 C 0.94799 0.36778 0.40171 0.0
C2087 C 0.9071 0.39567 0.34296 0.0
C2088 C 0.98922 0.4341 0.36512 0.0
C2089 C 0.00846 0.41731 0.3555 0.0
C2090 C 0.9628 0.42277 0.37077 0.0
C2091 C 0.9559 0.39368 0.36717 0.0
C2092 C 0.97575 0.37639 0.35792 0.0
C2093 C 0.00159 0.38856 0.35196 0.0
C2094 C 0.94192 0.44215 0.38013 0.0
C2095 C 0.96961 0.34508 0.35424 0.0
H2096 H 0.89377 0.34748 0.40591 0.0
H2097 H 0.86039 0.36867 0.3559 0.0
H2098 H 0.96601 0.35512 0.39616 0.0
H2099 H 0.95635 0.38968 0.40441 0.0
H2100 H 0.9414 0.35771 0.41409 0.0
H2101 H 0.88642 0.39587 0.33576 0.0
H2102 H 0.91487 0.41815 0.34429 0.0
H2103 H 0.92327 0.38381 0.3352 0.0
H2104 H 0.99447 0.45638 0.36781 0.0
H2105 H 0.01661 0.37546 0.34468 0.0
H2106 H 0.93642 0.43288 0.39289 0.0
H2107 H 0.92159 0.44379 0.37267 0.0
H2108 H 0.95067 0.46416 0.3821 0.0
H2109 H 0.96416 0.33366 0.36638 0.0
H2110 H 0.98818 0.33405 0.34809 0.0
H2111 H 0.95074 0.34322 0.34555 0.0
C2112 C 0.8795 0.3746 0.89186 0.0
C2113 C 0.8917 0.37873 0.87551 0.0
C2114 C 0.86664 0.34833 0.89637 0.0
C2115 C 0.86678 0.32527 0.88443 0.0
C2116 C 0.87905 0.32932 0.86786 0.0
C2117 C 0.89098 0.3562 0.8635 0.0
C2118 C 0.85307 0.34523 0.91398 0.0
C2119 C 0.8803 0.30504 0.85495 0.0
C2120 C 0.85904 0.25103 0.90465 0.0
C2121 C 0.83012 0.24469 0.90124 0.0
C2122 C 0.87156 0.27669 0.89865 0.0
C2123 C 0.85447 0.29686 0.88951 0.0
C2124 C 0.82523 0.29044 0.88602 0.0
C2125 C 0.81354 0.26421 0.8917 0.0
C2126 C 0.90301 0.28233 0.90222 0.0
C2127 C 0.80607 0.31164 0.87674 0.0
H2128 H 0.87986 0.39207 0.90113 0.0
H2129 H 0.90068 0.35928 0.85091 0.0
H2130 H 0.83048 0.33779 0.91268 0.0
H2131 H 0.86482 0.32875 0.92156 0.0
H2132 H 0.85322 0.36575 0.92134 0.0
H2133 H 0.89043 0.31171 0.84261 0.0
H2134 H 0.89278 0.28683 0.86042 0.0
H2135 H 0.85831 0.29694 0.85222 0.0
H2136 H 0.872 0.23575 0.91182 0.0
H2137 H 0.79114 0.25932 0.88908 0.0
H2138 H 0.90524 0.30103 0.91101 0.0
H2139 H 0.91435 0.28781 0.89006 0.0
H2140 H 0.91385 0.2635 0.90821 0.0
H2141 H 0.8047 0.33191 0.88428 0.0
H2142 H 0.78394 0.30318 0.87477 0.0
H2143 H 0.81537 0.31715 0.86399 0.0
C2144 C 0.98905 0.5882 0.16205 0.0
C2145 C 0.01032 0.579 0.15051 0.0
C2146 C 0.96321 0.6003 0.15604 0.0
C2147 C 0.95909 0.60438 0.13809 0.0
C2148 C 0.98078 0.5955 0.1264 0.0
C2149 C 0.0059 0.58236 0.13274 0.0
C2150 C 0.94027 0.60859 0.16892 0.0
C2151 C 0.97773 0.60047 0.10725 0.0
C2152 C 0.88257 0.61518 0.12165 0.0
C2153 C 0.88014 0.6452 0.12208 0.0
C2154 C 0.90824 0.60153 0.1267 0.0
C2155 C 0.93228 0.61843 0.13166 0.0
C2156 C 0.93023 0.64885 0.13127 0.0
C2157 C 0.90397 0.66185 0.12684 0.0
C2158 C 0.90921 0.56908 0.12749 0.0
C2159 C 0.95561 0.66767 0.13585 0.0
H2160 H 0.9924 0.5854 0.17579 0.0
H2161 H 0.02246 0.57547 0.12382 0.0
H2162 H 0.9368 0.63219 0.16862 0.0
H2163 H 0.91953 0.59824 0.16545 0.0
H2164 H 0.94603 0.60224 0.1823 0.0
H2165 H 0.99682 0.59286 0.09992 0.0
H2166 H 0.95839 0.5892 0.10229 0.0
H2167 H 0.9747 0.62378 0.10467 0.0
H2168 H 0.86394 0.60238 0.11816 0.0
H2169 H 0.902 0.68511 0.12711 0.0
H2170 H 0.91303 0.56211 0.14099 0.0
H2171 H 0.92733 0.56079 0.11962 0.0
H2172 H 0.88892 0.55909 0.12283 0.0
H2173 H 0.96076 0.66528 0.14974 0.0
H2174 H 0.95137 0.69078 0.13317 0.0
H2175 H 0.97492 0.66089 0.12846 0.0
C2176 C 0.61155 0.64478 0.3657 0.0
C2177 C 0.61016 0.62257 0.3779 0.0
C2178 C 0.62336 0.67173 0.37003 0.0
C2179 C 0.63486 0.67617 0.38676 0.0
C2180 C 0.63426 0.65344 0.39892 0.0
C2181 C 0.6215 0.6271 0.39443 0.0
C2182 C 0.62285 0.69566 0.35686 0.0
C2183 C 0.64702 0.65695 0.41672 0.0
C2184 C 0.68823 0.73724 0.39374 0.0
C2185 C 0.67142 0.75735 0.40267 0.0
C2186 C 0.67662 0.71073 0.38846 0.0
C2187 C 0.64724 0.70464 0.3917 0.0
C2188 C 0.62996 0.72533 0.40027 0.0
C2189 C 0.64239 0.75126 0.40591 0.0
C2190 C 0.69598 0.68898 0.37982 0.0
C2191 C 0.59835 0.72005 0.40352 0.0
H2192 H 0.60248 0.64141 0.35297 0.0
H2193 H 0.62059 0.60987 0.40385 0.0
H2194 H 0.61048 0.71421 0.362 0.0
H2195 H 0.64503 0.70335 0.35429 0.0
H2196 H 0.613 0.68879 0.34447 0.0
H2197 H 0.6463 0.63668 0.4243 0.0
H2198 H 0.66975 0.66412 0.41572 0.0
H2199 H 0.63512 0.6738 0.42391 0.0
H2200 H 0.71072 0.74192 0.39127 0.0
H2201 H 0.62929 0.76699 0.41262 0.0
H2202 H 0.68732 0.68322 0.36694 0.0
H2203 H 0.69664 0.66893 0.38759 0.0
H2204 H 0.71832 0.69707 0.37821 0.0
H2205 H 0.58738 0.71432 0.39127 0.0
H2206 H 0.58747 0.73913 0.40918 0.0
H2207 H 0.59567 0.70162 0.41246 0.0
C2208 C 0.59671 0.33665 0.6264 0.0
C2209 C 0.62053 0.35319 0.6215 0.0
C2210 C 0.57053 0.34975 0.6309 0.0
C2211 C 0.56856 0.38018 0.6312 0.0
C2212 C 0.59256 0.39697 0.62604 0.0
C2213 C 0.61814 0.38321 0.62094 0.0
C2214 C 0.5452 0.33103 0.63568 0.0
C2215 C 0.59168 0.42943 0.62671 0.0
C2216 C 0.49502 0.41638 0.63285 0.0
C2217 C 0.49105 0.41981 0.65064 0.0
C2218 C 0.51998 0.40319 0.62631 0.0
C2219 C 0.54195 0.39434 0.63782 0.0
C2220 C 0.53828 0.39851 0.6558 0.0
C2221 C 0.5126 0.41065 0.66201 0.0
C2222 C 0.52254 0.39812 0.60713 0.0
C2223 C 0.56153 0.39026 0.66849 0.0
H2224 H 0.59865 0.31339 0.62678 0.0
H2225 H 0.63676 0.39594 0.61734 0.0
H2226 H 0.54039 0.33345 0.64962 0.0
H2227 H 0.52574 0.33787 0.62846 0.0
H2228 H 0.54929 0.30791 0.63298 0.0
H2229 H 0.61183 0.43933 0.62179 0.0
H2230 H 0.57332 0.43769 0.61903 0.0
H2231 H 0.58832 0.43654 0.64023 0.0
H2232 H 0.47824 0.42325 0.62406 0.0
H2233 H 0.5096 0.41351 0.67577 0.0
H2234 H 0.52538 0.37479 0.60458 0.0
H2235 H 0.54183 0.40926 0.602 0.0
H2236 H 0.50332 0.40581 0.59996 0.0
H2237 H 0.56492 0.36664 0.66822 0.0
H2238 H 0.55613 0.39672 0.6819 0.0
H2239 H 0.58221 0.40052 0.6648 0.0
C2240 C 0.12265 0.37119 0.39165 0.0
C2241 C 0.11045 0.37515 0.37529 0.0
C2242 C 0.13572 0.34504 0.39621 0.0
C2243 C 0.13573 0.3219 0.38431 0.0
C2244 C 0.12353 0.32583 0.36771 0.0
C2245 C 0.11143 0.35261 0.3633 0.0
C2246 C 0.14923 0.34208 0.41384 0.0
C2247 C 0.12239 0.30147 0.35485 0.0
C2248 C 0.18825 0.26024 0.39197 0.0
C2249 C 0.17133 0.24102 0.40153 0.0
C2250 C 0.17693 0.28659 0.38617 0.0
C2251 C 0.14774 0.29341 0.38955 0.0
C2252 C 0.13032 0.27354 0.39868 0.0
C2253 C 0.14247 0.2478 0.40481 0.0
C2254 C 0.19644 0.30749 0.37692 0.0
C2255 C 0.09891 0.27959 0.40213 0.0
H2256 H 0.12208 0.38869 0.4009 0.0
H2257 H 0.10172 0.35557 0.3507 0.0
H2258 H 0.13727 0.32588 0.42152 0.0
H2259 H 0.17174 0.33434 0.41262 0.0
H2260 H 0.14929 0.36273 0.42107 0.0
H2261 H 0.11261 0.30815 0.3424 0.0
H2262 H 0.14435 0.29313 0.35233 0.0
H2263 H 0.10958 0.28343 0.36025 0.0
H2264 H 0.21062 0.25506 0.38949 0.0
H2265 H 0.12926 0.2328 0.41203 0.0
H2266 H 0.19803 0.32775 0.38445 0.0
H2267 H 0.1873 0.3131 0.36414 0.0
H2268 H 0.21846 0.29872 0.37503 0.0
H2269 H 0.09683 0.29838 0.41086 0.0
H2270 H 0.08779 0.26095 0.40814 0.0
H2271 H 0.08774 0.28512 0.38991 0.0
C2272 C 0.40072 0.35953 0.11402 0.0
C2273 C 0.37794 0.35874 0.12586 0.0
C2274 C 0.42749 0.37151 0.11862 0.0
C2275 C 0.43117 0.38373 0.13524 0.0
C2276 C 0.40783 0.38384 0.14698 0.0
C2277 C 0.38169 0.37096 0.14224 0.0
C2278 C 0.45207 0.37032 0.10591 0.0
C2279 C 0.41051 0.39735 0.16463 0.0
C2280 C 0.5048 0.39139 0.15627 0.0
C2281 C 0.51122 0.42033 0.15302 0.0
C2282 C 0.47936 0.37888 0.14994 0.0
C2283 C 0.45947 0.396 0.1406 0.0
C2284 C 0.46595 0.42526 0.13726 0.0
C2285 C 0.49198 0.43694 0.14328 0.0
C2286 C 0.47365 0.34741 0.15336 0.0
C2287 C 0.44502 0.44445 0.12779 0.0
H2288 H 0.39793 0.34983 0.10141 0.0
H2289 H 0.36401 0.37055 0.15137 0.0
H2290 H 0.4603 0.3923 0.10333 0.0
H2291 H 0.47011 0.35773 0.11149 0.0
H2292 H 0.44565 0.36033 0.09347 0.0
H2293 H 0.38981 0.39722 0.1718 0.0
H2294 H 0.42678 0.38556 0.17235 0.0
H2295 H 0.41803 0.41993 0.16343 0.0
H2296 H 0.51988 0.37841 0.16359 0.0
H2297 H 0.49693 0.45936 0.14077 0.0
H2298 H 0.46848 0.33615 0.14112 0.0
H2299 H 0.45473 0.34511 0.16198 0.0
H2300 H 0.49233 0.33654 0.1595 0.0
H2301 H 0.43983 0.43519 0.11498 0.0
H2302 H 0.45356 0.46657 0.12592 0.0
H2303 H 0.42456 0.44585 0.13514 0.0
C2304 C 0.35764 0.75417 0.90446 0.0
C2305 C 0.32901 0.76132 0.90075 0.0
C2306 C 0.36987 0.72856 0.89819 0.0
C2307 C 0.35278 0.70924 0.88843 0.0
C2308 C 0.32386 0.7165 0.88457 0.0
C2309 C 0.31246 0.74269 0.89057 0.0
C2310 C 0.401 0.72202 0.90222 0.0
C2311 C 0.30469 0.69619 0.87462 0.0
C2312 C 0.39013 0.65015 0.86262 0.0
C2313 C 0.39007 0.6274 0.87448 0.0
C2314 C 0.37797 0.67697 0.86691 0.0
C2315 C 0.36468 0.68072 0.88323 0.0
C2316 C 0.36359 0.65735 0.89493 0.0
C2317 C 0.37669 0.63117 0.89053 0.0
C2318 C 0.38025 0.70156 0.85427 0.0
C2319 C 0.34894 0.66011 0.91225 0.0
H2320 H 0.37058 0.76872 0.91216 0.0
H2321 H 0.29027 0.74817 0.88773 0.0
H2322 H 0.40233 0.70299 0.91082 0.0
H2323 H 0.41279 0.71663 0.89019 0.0
H2324 H 0.41201 0.74036 0.90862 0.0
H2325 H 0.28299 0.70541 0.87222 0.0
H2326 H 0.31465 0.6907 0.86205 0.0
H2327 H 0.30217 0.6758 0.88192 0.0
H2328 H 0.40072 0.64732 0.85027 0.0
H2329 H 0.37644 0.6135 0.89967 0.0
H2330 H 0.39313 0.71921 0.86005 0.0
H2331 H 0.3586 0.7104 0.85141 0.0
H2332 H 0.39053 0.69494 0.84195 0.0
H2333 H 0.36062 0.67594 0.92035 0.0
H2334 H 0.34806 0.63931 0.91929 0.0
H2335 H 0.32665 0.66824 0.91055 0.0
C2336 C 0.99505 0.58155 0.63214 0.0
C2337 C 0.99042 0.57895 0.64993 0.0
C2338 C 0.02021 0.59452 0.62573 0.0
C2339 C 0.04169 0.60401 0.63739 0.0
C2340 C 0.03736 0.60067 0.65537 0.0
C2341 C 0.0115 0.58871 0.66143 0.0
C2342 C 0.0235 0.59869 0.60652 0.0
C2343 C 0.06008 0.60963 0.66824 0.0
C2344 C 0.11849 0.61461 0.62145 0.0
C2345 C 0.12076 0.64464 0.62153 0.0
C2346 C 0.09275 0.601 0.6264 0.0
C2347 C 0.0685 0.61795 0.63091 0.0
C2348 C 0.0704 0.64836 0.63013 0.0
C2349 C 0.09672 0.66134 0.62581 0.0
C2350 C 0.09194 0.56859 0.62761 0.0
C2351 C 0.04481 0.66721 0.63422 0.0
H2352 H 0.97863 0.57421 0.62324 0.0
H2353 H 0.00798 0.58649 0.67519 0.0
H2354 H 0.02634 0.6219 0.6036 0.0
H2355 H 0.04303 0.5874 0.60185 0.0
H2356 H 0.0046 0.59056 0.59921 0.0
H2357 H 0.05418 0.60378 0.68167 0.0
H2358 H 0.08093 0.59928 0.66502 0.0
H2359 H 0.06338 0.63324 0.66761 0.0
H2360 H 0.13729 0.60178 0.61832 0.0
H2361 H 0.09858 0.68461 0.62582 0.0
H2362 H 0.07394 0.5599 0.61979 0.0
H2363 H 0.08803 0.5621 0.64119 0.0
H2364 H 0.11233 0.55852 0.62317 0.0
H2365 H 0.02568 0.65997 0.62682 0.0
H2366 H 0.04896 0.69021 0.6312 0.0
H2367 H 0.03942 0.66541 0.64811 0.0
C2368 C 0.12587 0.62803 0.11674 0.0
C2369 C 0.11187 0.6241 0.13257 0.0
C2370 C 0.13842 0.65452 0.11241 0.0
C2371 C 0.13609 0.67801 0.12396 0.0
C2372 C 0.1221 0.67412 0.14005 0.0
C2373 C 0.11052 0.64701 0.14429 0.0
C2374 C 0.15388 0.65743 0.09536 0.0
C2375 C 0.11851 0.69882 0.15251 0.0
C2376 C 0.18771 0.7407 0.11754 0.0
C2377 C 0.17147 0.75911 0.10702 0.0
C2378 C 0.17637 0.71439 0.12334 0.0
C2379 C 0.14781 0.70669 0.1189 0.0
C2380 C 0.131 0.72572 0.10876 0.0
C2381 C 0.14318 0.75153 0.10274 0.0
C2382 C 0.19525 0.69444 0.13375 0.0
C2383 C 0.10024 0.71867 0.10411 0.0
H2384 H 0.12706 0.61024 0.10771 0.0
H2385 H 0.0994 0.64405 0.15645 0.0
H2386 H 0.14235 0.67304 0.08702 0.0
H2387 H 0.17593 0.66592 0.09744 0.0
H2388 H 0.15545 0.63661 0.08838 0.0
H2389 H 0.10753 0.69216 0.1646 0.0
H2390 H 0.1398 0.70808 0.15585 0.0
H2391 H 0.10573 0.71618 0.14634 0.0
H2392 H 0.20962 0.74652 0.12085 0.0
H2393 H 0.13045 0.76591 0.09479 0.0
H2394 H 0.19839 0.67398 0.12661 0.0
H2395 H 0.1847 0.68902 0.14616 0.0
H2396 H 0.2167 0.70396 0.13651 0.0
H2397 H 0.09969 0.69952 0.09557 0.0
H2398 H 0.08934 0.73677 0.09739 0.0
H2399 H 0.08783 0.71325 0.1159 0.0
C2400 C 0.12251 0.38804 0.88313 0.0
C2401 C 0.12375 0.35833 0.88592 0.0
C2402 C 0.09669 0.40127 0.87796 0.0
C2403 C 0.07144 0.38441 0.87606 0.0
C2404 C 0.07244 0.35453 0.87968 0.0
C2405 C 0.09877 0.34174 0.88424 0.0
C2406 C 0.09676 0.43299 0.87375 0.0
C2407 C 0.04588 0.33594 0.87835 0.0
C2408 C 0.9994 0.4235 0.87429 0.0
C2409 C 0.99301 0.42235 0.85663 0.0
C2410 C 0.02465 0.4109 0.88086 0.0
C2411 C 0.04438 0.39768 0.86941 0.0
C2412 C 0.03821 0.39694 0.85151 0.0
C2413 C 0.01237 0.40887 0.84538 0.0
C2414 C 0.02998 0.41135 0.90006 0.0
C2415 C 0.059 0.38373 0.8388 0.0
H2416 H 0.14205 0.40068 0.88421 0.0
H2417 H 0.09993 0.3187 0.88637 0.0
H2418 H 0.09143 0.43608 0.85991 0.0
H2419 H 0.08003 0.44433 0.88135 0.0
H2420 H 0.11793 0.4432 0.87637 0.0
H2421 H 0.04967 0.31378 0.88324 0.0
H2422 H 0.02791 0.3457 0.88575 0.0
H2423 H 0.03891 0.33451 0.86469 0.0
H2424 H 0.98436 0.4337 0.88304 0.0
H2425 H 0.00755 0.40811 0.8317 0.0
H2426 H 0.05029 0.42295 0.90292 0.0
H2427 H 0.03254 0.38902 0.90491 0.0
H2428 H 0.01219 0.42187 0.90726 0.0
H2429 H 0.08046 0.39399 0.84009 0.0
H2430 H 0.05162 0.38609 0.82524 0.0
H2431 H 0.06175 0.36049 0.84161 0.0
C2432 C 0.35676 0.2478 0.60472 0.0
C2433 C 0.32825 0.24046 0.60863 0.0
C2434 C 0.36885 0.27362 0.61074 0.0
C2435 C 0.35174 0.29295 0.62048 0.0
C2436 C 0.32297 0.28547 0.62458 0.0
C2437 C 0.31171 0.25909 0.61881 0.0
C2438 C 0.39982 0.28041 0.60646 0.0
C2439 C 0.30379 0.30577 0.63453 0.0
C2440 C 0.38908 0.35292 0.64554 0.0
C2441 C 0.38854 0.3754 0.6335 0.0
C2442 C 0.37706 0.32591 0.64156 0.0
C2443 C 0.36344 0.3217 0.62538 0.0
C2444 C 0.36186 0.34479 0.6135 0.0
C2445 C 0.37483 0.37118 0.6176 0.0
C2446 C 0.37985 0.30162 0.65437 0.0
C2447 C 0.34685 0.34152 0.59633 0.0
H2448 H 0.3697 0.23325 0.59701 0.0
H2449 H 0.28962 0.25346 0.62181 0.0
H2450 H 0.40078 0.29926 0.5977 0.0
H2451 H 0.41178 0.28618 0.61836 0.0
H2452 H 0.41091 0.26205 0.60013 0.0
H2453 H 0.28227 0.29634 0.63719 0.0
H2454 H 0.31399 0.31167 0.64698 0.0
H2455 H 0.30084 0.32596 0.62709 0.0
H2456 H 0.39993 0.3561 0.65778 0.0
H2457 H 0.37421 0.38865 0.60832 0.0
H2458 H 0.39283 0.284 0.64864 0.0
H2459 H 0.35835 0.29259 0.65743 0.0
H2460 H 0.39027 0.30861 0.66657 0.0
H2461 H 0.35853 0.32564 0.58826 0.0
H2462 H 0.34561 0.36216 0.58914 0.0
H2463 H 0.32469 0.33321 0.59826 0.0
C2464 C 0.49003 0.56288 0.36731 0.0
C2465 C 0.50941 0.57978 0.35786 0.0
C2466 C 0.4635 0.57415 0.37283 0.0
C2467 C 0.45665 0.60326 0.36927 0.0
C2468 C 0.47668 0.62067 0.36026 0.0
C2469 C 0.50262 0.60858 0.35442 0.0
C2470 C 0.44244 0.55464 0.38195 0.0
C2471 C 0.47057 0.65201 0.35663 0.0
C2472 C 0.37879 0.6276 0.36608 0.0
C2473 C 0.37416 0.64001 0.38232 0.0
C2474 C 0.40521 0.61474 0.36192 0.0
C2475 C 0.42793 0.61511 0.37409 0.0
C2476 C 0.42333 0.62749 0.39058 0.0
C2477 C 0.39629 0.63942 0.3946 0.0
C2478 C 0.40889 0.60104 0.34439 0.0
C2479 C 0.44723 0.629 0.40374 0.0
H2480 H 0.49523 0.54056 0.36992 0.0
H2481 H 0.51776 0.62176 0.34728 0.0
H2482 H 0.43633 0.56394 0.3946 0.0
H2483 H 0.42244 0.55277 0.37419 0.0
H2484 H 0.4513 0.53272 0.38408 0.0
H2485 H 0.48935 0.66318 0.3508 0.0
H2486 H 0.45206 0.65389 0.34766 0.0
H2487 H 0.46457 0.66327 0.36873 0.0
H2488 H 0.36161 0.62786 0.35661 0.0
H2489 H 0.39281 0.64927 0.40711 0.0
H2490 H 0.41675 0.57861 0.34581 0.0
H2491 H 0.42528 0.61303 0.33687 0.0
H2492 H 0.38851 0.60073 0.33689 0.0
H2493 H 0.45568 0.60715 0.40645 0.0
H2494 H 0.44004 0.63885 0.41607 0.0
H2495 H 0.46533 0.64191 0.39851 0.0
loop_
_geom_bond_atom_site_label_1
_geom_bond_atom_site_label_2
_geom_bond_distance
_geom_bond_site_symmetry_2
_ccdc_geom_bond_type
Co0 O1 2.216 . S
Co0 O2 2.091 . S
Co0 O4 2.004 . S
Co0 O10 2.021 . S
Co0 O12 2.137 . S
Co0 O13 2.244 . S
O1 Co0 2.216 . S
O1 C8 1.247 . S
O2 Co0 2.091 . S
O2 C8 1.261 . S
C3 O12 1.247 . S
C3 O13 1.272 . S
O4 Co0 2.004 . S
O4 C9 1.259 . S
Co5 O6 2.061 . S
Co5 O11 2.052 . S
Co5 O13 2.135 . S
O6 Co5 2.061 . S
O6 C9 1.235 . S
C7 O10 1.238 . S
C7 O11 1.241 . S
C8 O1 1.247 . S
C8 O2 1.261 . S
C9 O4 1.259 . S
C9 O6 1.235 . S
O10 Co0 2.021 . S
O10 C7 1.238 . S
O11 Co5 2.052 . S
O11 C7 1.241 . S
O12 Co0 2.137 . S
O12 C3 1.247 . S
O13 Co0 2.244 . S
O13 C3 1.272 . S
O13 Co5 2.135 . S
Co14 O15 2.216 . S
Co14 O16 2.091 . S
Co14 O18 2.004 . S
Co14 O24 2.021 . S
Co14 O26 2.137 . S
Co14 O27 2.244 . S
O15 Co14 2.216 . S
O15 C22 1.247 . S
O16 Co14 2.091 . S
O16 C22 1.261 . S
C17 O26 1.247 . S
C17 O27 1.272 . S
O18 Co14 2.004 . S
O18 C23 1.259 . S
Co19 O20 2.061 . S
Co19 O25 2.052 . S
Co19 O27 2.135 . S
O20 Co19 2.061 . S
O20 C23 1.235 . S
C21 O24 1.238 . S
C21 O25 1.241 . S
C22 O15 1.247 . S
C22 O16 1.261 . S
C23 O18 1.259 . S
C23 O20 1.235 . S
O24 Co14 2.021 . S
O24 C21 1.238 . S
O25 Co19 2.052 . S
O25 C21 1.241 . S
O26 Co14 2.137 . S
O26 C17 1.247 . S
O27 Co14 2.244 . S
O27 C17 1.272 . S
O27 Co19 2.135 . S
Co28 O29 2.216 . S
Co28 O30 2.091 . S
Co28 O32 2.004 . S
Co28 O38 2.021 . S
Co28 O40 2.137 . S
Co28 O41 2.244 . S
O29 Co28 2.216 . S
O29 C36 1.247 . S
O30 Co28 2.091 . S
O30 C36 1.261 . S
C31 O40 1.247 . S
C31 O41 1.272 . S
O32 Co28 2.004 . S
O32 C37 1.259 . S
Co33 O34 2.061 . S
Co33 O39 2.052 . S
Co33 O41 2.135 . S
O34 Co33 2.061 . S
O34 C37 1.235 . S
C35 O38 1.238 . S
C35 O39 1.241 . S
C36 O29 1.247 . S
C36 O30 1.261 . S
C37 O32 1.259 . S
C37 O34 1.235 . S
O38 Co28 2.021 . S
O38 C35 1.238 . S
O39 Co33 2.052 . S
O39 C35 1.241 . S
O40 Co28 2.137 . S
O40 C31 1.247 . S
O41 Co28 2.244 . S
O41 C31 1.272 . S
O41 Co33 2.135 . S
Co42 O43 2.216 . S
Co42 O44 2.091 . S
Co42 O46 2.004 . S
Co42 O52 2.021 . S
Co42 O54 2.137 . S
Co42 O55 2.244 . S
O43 Co42 2.216 . S
O43 C50 1.247 . S
O44 Co42 2.091 . S
O44 C50 1.261 . S
C45 O54 1.247 . S
C45 O55 1.272 . S
O46 Co42 2.004 . S
O46 C51 1.259 . S
Co47 O48 2.061 . S
Co47 O53 2.052 . S
Co47 O55 2.135 . S
O48 Co47 2.061 . S
O48 C51 1.235 . S
C49 O52 1.238 . S
C49 O53 1.241 . S
C50 O43 1.247 . S
C50 O44 1.261 . S
C51 O46 1.259 . S
C51 O48 1.235 . S
O52 Co42 2.021 . S
O52 C49 1.238 . S
O53 Co47 2.052 . S
O53 C49 1.241 . S
O54 Co42 2.137 . S
O54 C45 1.247 . S
O55 Co42 2.244 . S
O55 C45 1.272 . S
O55 Co47 2.135 . S
Co56 O57 2.216 . S
Co56 O58 2.091 . S
Co56 O60 2.004 . S
Co56 O66 2.021 . S
Co56 O68 2.137 . S
Co56 O69 2.244 . S
O57 Co56 2.216 . S
O57 C64 1.247 . S
O58 Co56 2.091 . S
O58 C64 1.261 . S
C59 O68 1.247 . S
C59 O69 1.272 . S
O60 Co56 2.004 . S
O60 C65 1.259 . S
Co61 O62 2.061 . S
Co61 O67 2.052 . S
Co61 O69 2.135 . S
O62 Co61 2.061 . S
O62 C65 1.235 . S
C63 O66 1.238 . S
C63 O67 1.241 . S
C64 O57 1.247 . S
C64 O58 1.261 . S
C65 O60 1.259 . S
C65 O62 1.235 . S
O66 Co56 2.021 . S
O66 C63 1.238 . S
O67 Co61 2.052 . S
O67 C63 1.241 . S
O68 Co56 2.137 . S
O68 C59 1.247 . S
O69 Co56 2.244 . S
O69 C59 1.272 . S
O69 Co61 2.135 . S
Co70 O71 2.216 . S
Co70 O72 2.091 . S
Co70 O74 2.004 . S
Co70 O80 2.021 . S
Co70 O82 2.137 . S
Co70 O83 2.244 . S
O71 Co70 2.216 . S
O71 C78 1.247 . S
O72 Co70 2.091 . S
O72 C78 1.261 . S
C73 O82 1.247 . S
C73 O83 1.272 . S
O74 Co70 2.004 . S
O74 C79 1.259 . S
Co75 O76 2.061 . S
Co75 O81 2.052 . S
Co75 O83 2.135 . S
O76 Co75 2.061 . S
O76 C79 1.235 . S
C77 O80 1.238 . S
C77 O81 1.241 . S
C78 O71 1.247 . S
C78 O72 1.261 . S
C79 O74 1.259 . S
C79 O76 1.235 . S
O80 Co70 2.021 . S
O80 C77 1.238 . S
O81 Co75 2.052 . S
O81 C77 1.241 . S
O82 Co70 2.137 . S
O82 C73 1.247 . S
O83 Co70 2.244 . S
O83 C73 1.272 . S
O83 Co75 2.135 . S
Co84 O85 2.216 . S
Co84 O86 2.091 . S
Co84 O88 2.004 . S
Co84 O94 2.021 . S
Co84 O96 2.137 . S
Co84 O97 2.244 . S
O85 Co84 2.216 . S
O85 C92 1.247 . S
O86 Co84 2.091 . S
O86 C92 1.261 . S
C87 O96 1.247 . S
C87 O97 1.272 . S
O88 Co84 2.004 . S
O88 C93 1.259 . S
Co89 O90 2.061 . S
Co89 O95 2.052 . S
Co89 O97 2.135 . S
O90 Co89 2.061 . S
O90 C93 1.235 . S
C91 O94 1.238 . S
C91 O95 1.241 . S
C92 O85 1.247 . S
C92 O86 1.261 . S
C93 O88 1.259 . S
C93 O90 1.235 . S
O94 Co84 2.021 . S
O94 C91 1.238 . S
O95 Co89 2.052 . S
O95 C91 1.241 . S
O96 Co84 2.137 . S
O96 C87 1.247 . S
O97 Co84 2.244 . S
O97 C87 1.272 . S
O97 Co89 2.135 . S
Co98 O99 2.216 . S
Co98 O100 2.091 . S
Co98 O102 2.004 . S
Co98 O108 2.021 . S
Co98 O110 2.137 . S
Co98 O111 2.244 . S
O99 Co98 2.216 . S
O99 C106 1.247 . S
O100 Co98 2.091 . S
O100 C106 1.261 . S
C101 O110 1.247 . S
C101 O111 1.272 . S
O102 Co98 2.004 . S
O102 C107 1.259 . S
Co103 O104 2.061 . S
Co103 O109 2.052 . S
Co103 O111 2.135 . S
O104 Co103 2.061 . S
O104 C107 1.235 . S
C105 O108 1.238 . S
C105 O109 1.241 . S
C106 O99 1.247 . S
C106 O100 1.261 . S
C107 O102 1.259 . S
C107 O104 1.235 . S
O108 Co98 2.021 . S
O108 C105 1.238 . S
O109 Co103 2.052 . S
O109 C105 1.241 . S
O110 Co98 2.137 . S
O110 C101 1.247 . S
O111 Co98 2.244 . S
O111 C101 1.272 . S
O111 Co103 2.135 . S
Co112 O113 2.216 . S
Co112 O114 2.091 . S
Co112 O116 2.004 . S
Co112 O122 2.021 . S
Co112 O124 2.137 . S
Co112 O125 2.244 . S
O113 Co112 2.216 . S
O113 C120 1.247 . S
O114 Co112 2.091 . S
O114 C120 1.261 . S
C115 O124 1.247 . S
C115 O125 1.272 . S
O116 Co112 2.004 . S
O116 C121 1.259 . S
Co117 O118 2.061 . S
Co117 O123 2.052 . S
Co117 O125 2.135 . S
O118 Co117 2.061 . S
O118 C121 1.235 . S
C119 O122 1.238 . S
C119 O123 1.241 . S
C120 O113 1.247 . S
C120 O114 1.261 . S
C121 O116 1.259 . S
C121 O118 1.235 . S
O122 Co112 2.021 . S
O122 C119 1.238 . S
O123 Co117 2.052 . S
O123 C119 1.241 . S
O124 Co112 2.137 . S
O124 C115 1.247 . S
O125 Co112 2.244 . S
O125 C115 1.272 . S
O125 Co117 2.135 . S
Co126 O127 2.216 . S
Co126 O128 2.091 . S
Co126 O130 2.004 . S
Co126 O136 2.021 . S
Co126 O138 2.137 . S
Co126 O139 2.244 . S
O127 Co126 2.216 . S
O127 C134 1.247 . S
O128 Co126 2.091 . S
O128 C134 1.261 . S
C129 O138 1.247 . S
C129 O139 1.272 . S
O130 Co126 2.004 . S
O130 C135 1.259 . S
Co131 O132 2.061 . S
Co131 O137 2.052 . S
Co131 O139 2.135 . S
O132 Co131 2.061 . S
O132 C135 1.235 . S
C133 O136 1.238 . S
C133 O137 1.241 . S
C134 O127 1.247 . S
C134 O128 1.261 . S
C135 O130 1.259 . S
C135 O132 1.235 . S
O136 Co126 2.021 . S
O136 C133 1.238 . S
O137 Co131 2.052 . S
O137 C133 1.241 . S
O138 Co126 2.137 . S
O138 C129 1.247 . S
O139 Co126 2.244 . S
O139 C129 1.272 . S
O139 Co131 2.135 . S
Co140 O141 2.216 . S
Co140 O142 2.091 . S
Co140 O144 2.004 . S
Co140 O150 2.021 . S
Co140 O152 2.137 . S
Co140 O153 2.244 . S
O141 Co140 2.216 . S
O141 C148 1.247 . S
O142 Co140 2.091 . S
O142 C148 1.261 . S
C143 O152 1.247 . S
C143 O153 1.272 . S
O144 Co140 2.004 . S
O144 C149 1.259 . S
Co145 O146 2.061 . S
Co145 O151 2.052 . S
Co145 O153 2.135 . S
O146 Co145 2.061 . S
O146 C149 1.235 . S
C147 O150 1.238 . S
C147 O151 1.241 . S
C148 O141 1.247 . S
C148 O142 1.261 . S
C149 O144 1.259 . S
C149 O146 1.235 . S
O150 Co140 2.021 . S
O150 C147 1.238 . S
O151 Co145 2.052 . S
O151 C147 1.241 . S
O152 Co140 2.137 . S
O152 C143 1.247 . S
O153 Co140 2.244 . S
O153 C143 1.272 . S
O153 Co145 2.135 . S
Co154 O155 2.216 . S
Co154 O156 2.091 . S
Co154 O158 2.004 . S
Co154 O164 2.021 . S
Co154 O166 2.137 . S
Co154 O167 2.244 . S
O155 Co154 2.216 . S
O155 C162 1.247 . S
O156 Co154 2.091 . S
O156 C162 1.261 . S
C157 O166 1.247 . S
C157 O167 1.272 . S
O158 Co154 2.004 . S
O158 C163 1.259 . S
Co159 O160 2.061 . S
Co159 O165 2.052 . S
Co159 O167 2.135 . S
O160 Co159 2.061 . S
O160 C163 1.235 . S
C161 O164 1.238 . S
C161 O165 1.241 . S
C162 O155 1.247 . S
C162 O156 1.261 . S
C163 O158 1.259 . S
C163 O160 1.235 . S
O164 Co154 2.021 . S
O164 C161 1.238 . S
O165 Co159 2.052 . S
O165 C161 1.241 . S
O166 Co154 2.137 . S
O166 C157 1.247 . S
O167 Co154 2.244 . S
O167 C157 1.272 . S
O167 Co159 2.135 . S
Co168 O169 2.216 . S
Co168 O170 2.091 . S
Co168 O172 2.004 . S
Co168 O178 2.021 . S
Co168 O180 2.137 . S
Co168 O181 2.244 . S
O169 Co168 2.216 . S
O169 C176 1.247 . S
O170 Co168 2.091 . S
O170 C176 1.261 . S
C171 O180 1.247 . S
C171 O181 1.272 . S
O172 Co168 2.004 . S
O172 C177 1.259 . S
Co173 O174 2.061 . S
Co173 O179 2.052 . S
Co173 O181 2.135 . S
O174 Co173 2.061 . S
O174 C177 1.235 . S
C175 O178 1.238 . S
C175 O179 1.241 . S
C176 O169 1.247 . S
C176 O170 1.261 . S
C177 O172 1.259 . S
C177 O174 1.235 . S
O178 Co168 2.021 . S
O178 C175 1.238 . S
O179 Co173 2.052 . S
O179 C175 1.241 . S
O180 Co168 2.137 . S
O180 C171 1.247 . S
O181 Co168 2.244 . S
O181 C171 1.272 . S
O181 Co173 2.135 . S
Co182 O183 2.216 . S
Co182 O184 2.091 . S
Co182 O186 2.004 . S
Co182 O192 2.021 . S
Co182 O194 2.137 . S
Co182 O195 2.244 . S
O183 Co182 2.216 . S
O183 C190 1.247 . S
O184 Co182 2.091 . S
O184 C190 1.261 . S
C185 O194 1.247 . S
C185 O195 1.272 . S
O186 Co182 2.004 . S
O186 C191 1.259 . S
Co187 O188 2.061 . S
Co187 O193 2.052 . S
Co187 O195 2.135 . S
O188 Co187 2.061 . S
O188 C191 1.235 . S
C189 O192 1.238 . S
C189 O193 1.241 . S
C190 O183 1.247 . S
C190 O184 1.261 . S
C191 O186 1.259 . S
C191 O188 1.235 . S
O192 Co182 2.021 . S
O192 C189 1.238 . S
O193 Co187 2.052 . S
O193 C189 1.241 . S
O194 Co182 2.137 . S
O194 C185 1.247 . S
O195 Co182 2.244 . S
O195 C185 1.272 . S
O195 Co187 2.135 . S
Co196 O197 2.216 . S
Co196 O198 2.091 . S
Co196 O200 2.004 . S
Co196 O206 2.021 . S
Co196 O208 2.137 . S
Co196 O209 2.244 . S
O197 Co196 2.216 . S
O197 C204 1.247 . S
O198 Co196 2.091 . S
O198 C204 1.261 . S
C199 O208 1.247 . S
C199 O209 1.272 . S
O200 Co196 2.004 . S
O200 C205 1.259 . S
Co201 O202 2.061 . S
Co201 O207 2.052 . S
Co201 O209 2.135 . S
O202 Co201 2.061 . S
O202 C205 1.235 . S
C203 O206 1.238 . S
C203 O207 1.241 . S
C204 O197 1.247 . S
C204 O198 1.261 . S
C205 O200 1.259 . S
C205 O202 1.235 . S
O206 Co196 2.021 . S
O206 C203 1.238 . S
O207 Co201 2.052 . S
O207 C203 1.241 . S
O208 Co196 2.137 . S
O208 C199 1.247 . S
O209 Co196 2.244 . S
O209 C199 1.272 . S
O209 Co201 2.135 . S
Co210 O211 2.216 . S
Co210 O212 2.091 . S
Co210 O214 2.004 . S
Co210 O220 2.021 . S
Co210 O222 2.137 . S
Co210 O223 2.244 . S
O211 Co210 2.216 . S
O211 C218 1.247 . S
O212 Co210 2.091 . S
O212 C218 1.261 . S
C213 O222 1.247 . S
C213 O223 1.272 . S
O214 Co210 2.004 . S
O214 C219 1.259 . S
Co215 O216 2.061 . S
Co215 O221 2.052 . S
Co215 O223 2.135 . S
O216 Co215 2.061 . S
O216 C219 1.235 . S
C217 O220 1.238 . S
C217 O221 1.241 . S
C218 O211 1.247 . S
C218 O212 1.261 . S
C219 O214 1.259 . S
C219 O216 1.235 . S
O220 Co210 2.021 . S
O220 C217 1.238 . S
O221 Co215 2.052 . S
O221 C217 1.241 . S
O222 Co210 2.137 . S
O222 C213 1.247 . S
O223 Co210 2.244 . S
O223 C213 1.272 . S
O223 Co215 2.135 . S
Co224 O225 2.216 . S
Co224 O226 2.091 . S
Co224 O228 2.004 . S
Co224 O234 2.021 . S
Co224 O236 2.137 . S
Co224 O237 2.244 . S
O225 Co224 2.216 . S
O225 C232 1.247 . S
O226 Co224 2.091 . S
O226 C232 1.261 . S
C227 O236 1.247 . S
C227 O237 1.272 . S
O228 Co224 2.004 . S
O228 C233 1.259 . S
Co229 O230 2.061 . S
Co229 O235 2.052 . S
Co229 O237 2.135 . S
O230 Co229 2.061 . S
O230 C233 1.235 . S
C231 O234 1.238 . S
C231 O235 1.241 . S
C232 O225 1.247 . S
C232 O226 1.261 . S
C233 O228 1.259 . S
C233 O230 1.235 . S
O234 Co224 2.021 . S
O234 C231 1.238 . S
O235 Co229 2.052 . S
O235 C231 1.241 . S
O236 Co224 2.137 . S
O236 C227 1.247 . S
O237 Co224 2.244 . S
O237 C227 1.272 . S
O237 Co229 2.135 . S
Co238 O239 2.216 . S
Co238 O240 2.091 . S
Co238 O242 2.004 . S
Co238 O248 2.021 . S
Co238 O250 2.137 . S
Co238 O251 2.244 . S
O239 Co238 2.216 . S
O239 C246 1.247 . S
O240 Co238 2.091 . S
O240 C246 1.261 . S
C241 O250 1.247 . S
C241 O251 1.272 . S
O242 Co238 2.004 . S
O242 C247 1.259 . S
Co243 O244 2.061 . S
Co243 O249 2.052 . S
Co243 O251 2.135 . S
O244 Co243 2.061 . S
O244 C247 1.235 . S
C245 O248 1.238 . S
C245 O249 1.241 . S
C246 O239 1.247 . S
C246 O240 1.261 . S
C247 O242 1.259 . S
C247 O244 1.235 . S
O248 Co238 2.021 . S
O248 C245 1.238 . S
O249 Co243 2.052 . S
O249 C245 1.241 . S
O250 Co238 2.137 . S
O250 C241 1.247 . S
O251 Co238 2.244 . S
O251 C241 1.272 . S
O251 Co243 2.135 . S
Co252 O253 2.216 . S
Co252 O254 2.091 . S
Co252 O256 2.004 . S
Co252 O262 2.021 . S
Co252 O264 2.137 . S
Co252 O265 2.244 . S
O253 Co252 2.216 . S
O253 C260 1.247 . S
O254 Co252 2.091 . S
O254 C260 1.261 . S
C255 O264 1.247 . S
C255 O265 1.272 . S
O256 Co252 2.004 . S
O256 C261 1.259 . S
Co257 O258 2.061 . S
Co257 O263 2.052 . S
Co257 O265 2.135 . S
O258 Co257 2.061 . S
O258 C261 1.235 . S
C259 O262 1.238 . S
C259 O263 1.241 . S
C260 O253 1.247 . S
C260 O254 1.261 . S
C261 O256 1.259 . S
C261 O258 1.235 . S
O262 Co252 2.021 . S
O262 C259 1.238 . S
O263 Co257 2.052 . S
O263 C259 1.241 . S
O264 Co252 2.137 . S
O264 C255 1.247 . S
O265 Co252 2.244 . S
O265 C255 1.272 . S
O265 Co257 2.135 . S
Co266 O267 2.216 . S
Co266 O268 2.091 . S
Co266 O270 2.004 . S
Co266 O276 2.021 . S
Co266 O278 2.137 . S
Co266 O279 2.244 . S
O267 Co266 2.216 . S
O267 C274 1.247 . S
O268 Co266 2.091 . S
O268 C274 1.261 . S
C269 O278 1.247 . S
C269 O279 1.272 . S
O270 Co266 2.004 . S
O270 C275 1.259 . S
Co271 O272 2.061 . S
Co271 O277 2.052 . S
Co271 O279 2.135 . S
O272 Co271 2.061 . S
O272 C275 1.235 . S
C273 O276 1.238 . S
C273 O277 1.241 . S
C274 O267 1.247 . S
C274 O268 1.261 . S
C275 O270 1.259 . S
C275 O272 1.235 . S
O276 Co266 2.021 . S
O276 C273 1.238 . S
O277 Co271 2.052 . S
O277 C273 1.241 . S
O278 Co266 2.137 . S
O278 C269 1.247 . S
O279 Co266 2.244 . S
O279 C269 1.272 . S
O279 Co271 2.135 . S
Co280 O281 2.216 . S
Co280 O282 2.091 . S
Co280 O284 2.004 . S
Co280 O290 2.021 . S
Co280 O292 2.137 . S
Co280 O293 2.244 . S
O281 Co280 2.216 . S
O281 C288 1.247 . S
O282 Co280 2.091 . S
O282 C288 1.261 . S
C283 O292 1.247 . S
C283 O293 1.272 . S
O284 Co280 2.004 . S
O284 C289 1.259 . S
Co285 O286 2.061 . S
Co285 O291 2.052 . S
Co285 O293 2.135 . S
O286 Co285 2.061 . S
O286 C289 1.235 . S
C287 O290 1.238 . S
C287 O291 1.241 . S
C288 O281 1.247 . S
C288 O282 1.261 . S
C289 O284 1.259 . S
C289 O286 1.235 . S
O290 Co280 2.021 . S
O290 C287 1.238 . S
O291 Co285 2.052 . S
O291 C287 1.241 . S
O292 Co280 2.137 . S
O292 C283 1.247 . S
O293 Co280 2.244 . S
O293 C283 1.272 . S
O293 Co285 2.135 . S
Co294 O295 2.216 . S
Co294 O296 2.091 . S
Co294 O298 2.004 . S
Co294 O304 2.021 . S
Co294 O306 2.137 . S
Co294 O307 2.244 . S
O295 Co294 2.216 . S
O295 C302 1.247 . S
O296 Co294 2.091 . S
O296 C302 1.261 . S
C297 O306 1.247 . S
C297 O307 1.272 . S
O298 Co294 2.004 . S
O298 C303 1.259 . S
Co299 O300 2.061 . S
Co299 O305 2.052 . S
Co299 O307 2.135 . S
O300 Co299 2.061 . S
O300 C303 1.235 . S
C301 O304 1.238 . S
C301 O305 1.241 . S
C302 O295 1.247 . S
C302 O296 1.261 . S
C303 O298 1.259 . S
C303 O300 1.235 . S
O304 Co294 2.021 . S
O304 C301 1.238 . S
O305 Co299 2.052 . S
O305 C301 1.241 . S
O306 Co294 2.137 . S
O306 C297 1.247 . S
O307 Co294 2.244 . S
O307 C297 1.272 . S
O307 Co299 2.135 . S
Co308 O309 2.216 . S
Co308 O310 2.091 . S
Co308 O312 2.004 . S
Co308 O318 2.021 . S
Co308 O320 2.137 . S
Co308 O321 2.244 . S
O309 Co308 2.216 . S
O309 C316 1.247 . S
O310 Co308 2.091 . S
O310 C316 1.261 . S
C311 O320 1.247 . S
C311 O321 1.272 . S
O312 Co308 2.004 . S
O312 C317 1.259 . S
Co313 O314 2.061 . S
Co313 O319 2.052 . S
Co313 O321 2.135 . S
O314 Co313 2.061 . S
O314 C317 1.235 . S
C315 O318 1.238 . S
C315 O319 1.241 . S
C316 O309 1.247 . S
C316 O310 1.261 . S
C317 O312 1.259 . S
C317 O314 1.235 . S
O318 Co308 2.021 . S
O318 C315 1.238 . S
O319 Co313 2.052 . S
O319 C315 1.241 . S
O320 Co308 2.137 . S
O320 C311 1.247 . S
O321 Co308 2.244 . S
O321 C311 1.272 . S
O321 Co313 2.135 . S
Co322 O323 2.216 . S
Co322 O324 2.091 . S
Co322 O326 2.004 . S
Co322 O332 2.021 . S
Co322 O334 2.137 . S
Co322 O335 2.244 . S
O323 Co322 2.216 . S
O323 C330 1.247 . S
O324 Co322 2.091 . S
O324 C330 1.261 . S
C325 O334 1.247 . S
C325 O335 1.272 . S
O326 Co322 2.004 . S
O326 C331 1.259 . S
Co327 O328 2.061 . S
Co327 O333 2.052 . S
Co327 O335 2.135 . S
O328 Co327 2.061 . S
O328 C331 1.235 . S
C329 O332 1.238 . S
C329 O333 1.241 . S
C330 O323 1.247 . S
C330 O324 1.261 . S
C331 O326 1.259 . S
C331 O328 1.235 . S
O332 Co322 2.021 . S
O332 C329 1.238 . S
O333 Co327 2.052 . S
O333 C329 1.241 . S
O334 Co322 2.137 . S
O334 C325 1.247 . S
O335 Co322 2.244 . S
O335 C325 1.272 . S
O335 Co327 2.135 . S
Co336 O337 2.216 . S
Co336 O338 2.091 . S
Co336 O340 2.004 . S
Co336 O346 2.021 . S
Co336 O348 2.137 . S
Co336 O349 2.244 . S
O337 Co336 2.216 . S
O337 C344 1.247 . S
O338 Co336 2.091 . S
O338 C344 1.261 . S
C339 O348 1.247 . S
C339 O349 1.272 . S
O340 Co336 2.004 . S
O340 C345 1.259 . S
Co341 O342 2.061 . S
Co341 O347 2.052 . S
Co341 O349 2.135 . S
O342 Co341 2.061 . S
O342 C345 1.235 . S
C343 O346 1.238 . S
C343 O347 1.241 . S
C344 O337 1.247 . S
C344 O338 1.261 . S
C345 O340 1.259 . S
C345 O342 1.235 . S
O346 Co336 2.021 . S
O346 C343 1.238 . S
O347 Co341 2.052 . S
O347 C343 1.241 . S
O348 Co336 2.137 . S
O348 C339 1.247 . S
O349 Co336 2.244 . S
O349 C339 1.272 . S
O349 Co341 2.135 . S
Co350 O351 2.216 . S
Co350 O352 2.091 . S
Co350 O354 2.004 . S
Co350 O360 2.021 . S
Co350 O362 2.137 . S
Co350 O363 2.244 . S
O351 Co350 2.216 . S
O351 C358 1.247 . S
O352 Co350 2.091 . S
O352 C358 1.261 . S
C353 O362 1.247 . S
C353 O363 1.272 . S
O354 Co350 2.004 . S
O354 C359 1.259 . S
Co355 O356 2.061 . S
Co355 O361 2.052 . S
Co355 O363 2.135 . S
O356 Co355 2.061 . S
O356 C359 1.235 . S
C357 O360 1.238 . S
C357 O361 1.241 . S
C358 O351 1.247 . S
C358 O352 1.261 . S
C359 O354 1.259 . S
C359 O356 1.235 . S
O360 Co350 2.021 . S
O360 C357 1.238 . S
O361 Co355 2.052 . S
O361 C357 1.241 . S
O362 Co350 2.137 . S
O362 C353 1.247 . S
O363 Co350 2.244 . S
O363 C353 1.272 . S
O363 Co355 2.135 . S
Co364 O365 2.216 . S
Co364 O366 2.091 . S
Co364 O368 2.004 . S
Co364 O374 2.021 . S
Co364 O376 2.137 . S
Co364 O377 2.244 . S
O365 Co364 2.216 . S
O365 C372 1.247 . S
O366 Co364 2.091 . S
O366 C372 1.261 . S
C367 O376 1.247 . S
C367 O377 1.272 . S
O368 Co364 2.004 . S
O368 C373 1.259 . S
Co369 O370 2.061 . S
Co369 O375 2.052 . S
Co369 O377 2.135 . S
O370 Co369 2.061 . S
O370 C373 1.235 . S
C371 O374 1.238 . S
C371 O375 1.241 . S
C372 O365 1.247 . S
C372 O366 1.261 . S
C373 O368 1.259 . S
C373 O370 1.235 . S
O374 Co364 2.021 . S
O374 C371 1.238 . S
O375 Co369 2.052 . S
O375 C371 1.241 . S
O376 Co364 2.137 . S
O376 C367 1.247 . S
O377 Co364 2.244 . S
O377 C367 1.272 . S
O377 Co369 2.135 . S
Co378 O379 2.216 . S
Co378 O380 2.091 . S
Co378 O382 2.004 . S
Co378 O388 2.021 . S
Co378 O390 2.137 . S
Co378 O391 2.244 . S
O379 Co378 2.216 . S
O379 C386 1.247 . S
O380 Co378 2.091 . S
O380 C386 1.261 . S
C381 O390 1.247 . S
C381 O391 1.272 . S
O382 Co378 2.004 . S
O382 C387 1.259 . S
Co383 O384 2.061 . S
Co383 O389 2.052 . S
Co383 O391 2.135 . S
O384 Co383 2.061 . S
O384 C387 1.235 . S
C385 O388 1.238 . S
C385 O389 1.241 . S
C386 O379 1.247 . S
C386 O380 1.261 . S
C387 O382 1.259 . S
C387 O384 1.235 . S
O388 Co378 2.021 . S
O388 C385 1.238 . S
O389 Co383 2.052 . S
O389 C385 1.241 . S
O390 Co378 2.137 . S
O390 C381 1.247 . S
O391 Co378 2.244 . S
O391 C381 1.272 . S
O391 Co383 2.135 . S
Co392 O393 2.216 . S
Co392 O394 2.091 . S
Co392 O396 2.004 . S
Co392 O402 2.021 . S
Co392 O404 2.137 . S
Co392 O405 2.244 . S
O393 Co392 2.216 . S
O393 C400 1.247 . S
O394 Co392 2.091 . S
O394 C400 1.261 . S
C395 O404 1.247 . S
C395 O405 1.272 . S
O396 Co392 2.004 . S
O396 C401 1.259 . S
Co397 O398 2.061 . S
Co397 O403 2.052 . S
Co397 O405 2.135 . S
O398 Co397 2.061 . S
O398 C401 1.235 . S
C399 O402 1.238 . S
C399 O403 1.241 . S
C400 O393 1.247 . S
C400 O394 1.261 . S
C401 O396 1.259 . S
C401 O398 1.235 . S
O402 Co392 2.021 . S
O402 C399 1.238 . S
O403 Co397 2.052 . S
O403 C399 1.241 . S
O404 Co392 2.137 . S
O404 C395 1.247 . S
O405 Co392 2.244 . S
O405 C395 1.272 . S
O405 Co397 2.135 . S
Co406 O407 2.216 . S
Co406 O408 2.091 . S
Co406 O410 2.004 . S
Co406 O416 2.021 . S
Co406 O418 2.137 . S
Co406 O419 2.244 . S
O407 Co406 2.216 . S
O407 C414 1.247 . S
O408 Co406 2.091 . S
O408 C414 1.261 . S
C409 O418 1.247 . S
C409 O419 1.272 . S
O410 Co406 2.004 . S
O410 C415 1.259 . S
Co411 O412 2.061 . S
Co411 O417 2.052 . S
Co411 O419 2.135 . S
O412 Co411 2.061 . S
O412 C415 1.235 . S
C413 O416 1.238 . S
C413 O417 1.241 . S
C414 O407 1.247 . S
C414 O408 1.261 . S
C415 O410 1.259 . S
C415 O412 1.235 . S
O416 Co406 2.021 . S
O416 C413 1.238 . S
O417 Co411 2.052 . S
O417 C413 1.241 . S
O418 Co406 2.137 . S
O418 C409 1.247 . S
O419 Co406 2.244 . S
O419 C409 1.272 . S
O419 Co411 2.135 . S
Co420 O421 2.216 . S
Co420 O422 2.091 . S
Co420 O424 2.004 . S
Co420 O430 2.021 . S
Co420 O432 2.137 . S
Co420 O433 2.244 . S
O421 Co420 2.216 . S
O421 C428 1.247 . S
O422 Co420 2.091 . S
O422 C428 1.261 . S
C423 O432 1.247 . S
C423 O433 1.272 . S
O424 Co420 2.004 . S
O424 C429 1.259 . S
Co425 O426 2.061 . S
Co425 O431 2.052 . S
Co425 O433 2.135 . S
O426 Co425 2.061 . S
O426 C429 1.235 . S
C427 O430 1.238 . S
C427 O431 1.241 . S
C428 O421 1.247 . S
C428 O422 1.261 . S
C429 O424 1.259 . S
C429 O426 1.235 . S
O430 Co420 2.021 . S
O430 C427 1.238 . S
O431 Co425 2.052 . S
O431 C427 1.241 . S
O432 Co420 2.137 . S
O432 C423 1.247 . S
O433 Co420 2.244 . S
O433 C423 1.272 . S
O433 Co425 2.135 . S
Co434 O435 2.216 . S
Co434 O436 2.091 . S
Co434 O438 2.004 . S
Co434 O444 2.021 . S
Co434 O446 2.137 . S
Co434 O447 2.244 . S
O435 Co434 2.216 . S
O435 C442 1.247 . S
O436 Co434 2.091 . S
O436 C442 1.261 . S
C437 O446 1.247 . S
C437 O447 1.272 . S
O438 Co434 2.004 . S
O438 C443 1.259 . S
Co439 O440 2.061 . S
Co439 O445 2.052 . S
Co439 O447 2.135 . S
O440 Co439 2.061 . S
O440 C443 1.235 . S
C441 O444 1.238 . S
C441 O445 1.241 . S
C442 O435 1.247 . S
C442 O436 1.261 . S
C443 O438 1.259 . S
C443 O440 1.235 . S
O444 Co434 2.021 . S
O444 C441 1.238 . S
O445 Co439 2.052 . S
O445 C441 1.241 . S
O446 Co434 2.137 . S
O446 C437 1.247 . S
O447 Co434 2.244 . S
O447 C437 1.272 . S
O447 Co439 2.135 . S
C448 C449 1.391 1_545 S
C448 C450 1.394 . S
C448 H464 0.931 . S
C449 C448 1.391 1_565 S
C449 C453 1.376 . S
C450 C448 1.394 . S
C450 C451 1.380 . S
C450 C454 1.531 . S
C451 C450 1.380 . S
C451 C452 1.388 1_545 S
C451 C459 1.511 . S
C452 C451 1.388 1_565 S
C452 C453 1.392 . S
C452 C455 1.511 . S
C453 C449 1.376 . S
C453 C452 1.392 . S
C453 H465 0.929 . S
C454 C450 1.531 . S
C454 H466 0.960 . S
C454 H467 0.962 . S
C454 H468 0.960 . S
C455 C452 1.511 . S
C455 H469 0.961 . S
C455 H470 0.961 . S
C455 H471 0.961 . S
C456 C457 1.355 1_565 S
C456 C458 1.368 . S
C456 H472 0.942 . S
C457 C456 1.355 1_545 S
C457 C461 1.408 . S
C458 C456 1.368 . S
C458 C459 1.370 1_565 S
C458 C462 1.524 . S
C459 C451 1.511 . S
C459 C458 1.370 1_545 S
C459 C460 1.403 . S
C460 C459 1.403 . S
C460 C461 1.404 . S
C460 C463 1.539 . S
C461 C457 1.408 . S
C461 C460 1.404 . S
C461 H473 0.930 . S
C462 C458 1.524 . S
C462 H474 0.956 . S
C462 H475 0.961 . S
C462 H476 0.961 . S
C463 C460 1.539 . S
C463 H477 0.958 . S
C463 H478 0.961 . S
C463 H479 0.960 . S
H464 C448 0.931 . S
H465 C453 0.929 . S
H466 C454 0.960 . S
H467 C454 0.962 . S
H468 C454 0.960 . S
H469 C455 0.961 . S
H470 C455 0.961 . S
H471 C455 0.961 . S
H472 C456 0.942 . S
H473 C461 0.930 . S
H474 C462 0.956 . S
H475 C462 0.961 . S
H476 C462 0.961 . S
H477 C463 0.958 . S
H478 C463 0.961 . S
H479 C463 0.960 . S
C480 C481 1.391 . S
C480 C482 1.394 . S
C480 H496 0.931 . S
C481 C480 1.391 . S
C481 C485 1.376 . S
C482 C480 1.394 . S
C482 C483 1.369 . S
C482 C486 1.531 . S
C483 C482 1.369 . S
C483 C484 1.410 . S
C483 C491 1.503 . S
C484 C483 1.410 . S
C484 C485 1.392 . S
C484 C487 1.511 . S
C485 C481 1.376 . S
C485 C484 1.392 . S
C485 H497 0.929 . S
C486 C482 1.531 . S
C486 H498 0.960 . S
C486 H499 0.962 . S
C486 H500 0.960 . S
C487 C484 1.511 . S
C487 H501 0.961 . S
C487 H502 0.961 . S
C487 H503 0.961 . S
C488 C489 1.370 . S
C488 C490 1.363 . S
C488 H504 0.931 . S
C489 C488 1.370 . S
C489 C493 1.408 . S
C490 C488 1.363 . S
C490 C491 1.370 . S
C490 C494 1.524 . S
C491 C483 1.503 . S
C491 C490 1.370 . S
C491 C492 1.403 . S
C492 C491 1.403 . S
C492 C493 1.404 . S
C492 C495 1.539 . S
C493 C489 1.408 . S
C493 C492 1.404 . S
C493 H505 0.930 . S
C494 C490 1.524 . S
C494 H506 0.956 . S
C494 H507 0.961 . S
C494 H508 0.961 . S
C495 C492 1.539 . S
C495 H509 0.958 . S
C495 H510 0.961 . S
C495 H511 0.960 . S
H496 C480 0.931 . S
H497 C485 0.929 . S
H498 C486 0.960 . S
H499 C486 0.962 . S
H500 C486 0.960 . S
H501 C487 0.961 . S
H502 C487 0.961 . S
H503 C487 0.961 . S
H504 C488 0.931 . S
H505 C493 0.930 . S
H506 C494 0.956 . S
H507 C494 0.961 . S
H508 C494 0.961 . S
H509 C495 0.958 . S
H510 C495 0.961 . S
H511 C495 0.960 . S
C512 C513 1.391 . S
C512 C514 1.394 1_545 S
C512 H528 0.930 . S
C513 C512 1.391 . S
C513 C517 1.376 . S
C514 C512 1.394 1_565 S
C514 C515 1.369 . S
C514 C518 1.531 . S
C515 C514 1.369 . S
C515 C516 1.410 1_565 S
C515 C523 1.503 . S
C516 C515 1.410 1_545 S
C516 C517 1.392 . S
C516 C519 1.511 . S
C517 C513 1.376 . S
C517 C516 1.392 . S
C517 H529 0.929 . S
C518 C514 1.531 . S
C518 H530 0.960 . S
C518 H531 0.962 . S
C518 H532 0.960 . S
C519 C516 1.511 . S
C519 H533 0.961 . S
C519 H534 0.961 . S
C519 H535 0.961 . S
C520 C521 1.370 1_545 S
C520 C522 1.363 . S
C520 H536 0.931 . S
C521 C520 1.370 1_565 S
C521 C525 1.408 . S
C522 C520 1.363 . S
C522 C523 1.370 1_545 S
C522 C526 1.524 . S
C523 C515 1.503 . S
C523 C522 1.370 1_565 S
C523 C524 1.403 . S
C524 C523 1.403 . S
C524 C525 1.404 . S
C524 C527 1.539 . S
C525 C521 1.408 . S
C525 C524 1.404 . S
C525 H537 0.930 . S
C526 C522 1.524 . S
C526 H538 0.956 . S
C526 H539 0.961 . S
C526 H540 0.961 . S
C527 C524 1.539 . S
C527 H541 0.958 . S
C527 H542 0.961 . S
C527 H543 0.960 . S
H528 C512 0.930 . S
H529 C517 0.929 . S
H530 C518 0.960 . S
H531 C518 0.962 . S
H532 C518 0.960 . S
H533 C519 0.961 . S
H534 C519 0.961 . S
H535 C519 0.961 . S
H536 C520 0.931 . S
H537 C525 0.930 . S
H538 C526 0.956 . S
H539 C526 0.961 . S
H540 C526 0.961 . S
H541 C527 0.958 . S
H542 C527 0.961 . S
H543 C527 0.960 . S
C544 C545 1.391 . S
C544 C546 1.394 . S
C544 H560 0.931 . S
C545 C544 1.391 . S
C545 C549 1.376 . S
C546 C544 1.394 . S
C546 C547 1.369 . S
C546 C550 1.531 . S
C547 C546 1.369 . S
C547 C548 1.410 . S
C547 C555 1.503 1_556 S
C548 C547 1.410 . S
C548 C549 1.392 . S
C548 C551 1.511 . S
C549 C545 1.376 . S
C549 C548 1.392 . S
C549 H561 0.929 . S
C550 C546 1.531 . S
C550 H562 0.960 . S
C550 H563 0.962 . S
C550 H564 0.960 . S
C551 C548 1.511 . S
C551 H565 0.961 . S
C551 H566 0.961 1_556 S
C551 H567 0.961 1_556 S
C552 C553 1.370 . S
C552 C554 1.363 . S
C552 H568 0.931 . S
C553 C552 1.370 . S
C553 C557 1.408 . S
C554 C552 1.363 . S
C554 C555 1.370 . S
C554 C558 1.534 . S
C555 C547 1.503 1_554 S
C555 C554 1.370 . S
C555 C556 1.403 . S
C556 C555 1.403 . S
C556 C557 1.404 . S
C556 C559 1.539 . S
C557 C553 1.408 . S
C557 C556 1.404 . S
C557 H569 0.930 . S
C558 C554 1.534 . S
C558 H570 0.947 1_554 S
C558 H571 0.954 1_554 S
C558 H572 0.966 . S
C559 C556 1.539 . S
C559 H573 0.958 . S
C559 H574 0.961 . S
C559 H575 0.960 . S
H560 C544 0.931 . S
H561 C549 0.929 . S
H562 C550 0.960 . S
H563 C550 0.962 . S
H564 C550 0.960 . S
H565 C551 0.961 . S
H566 C551 0.961 1_554 S
H567 C551 0.961 1_554 S
H568 C552 0.931 . S
H569 C557 0.930 . S
H570 C558 0.947 1_556 S
H571 C558 0.954 1_556 S
H572 C558 0.966 . S
H573 C559 0.958 . S
H574 C559 0.961 . S
H575 C559 0.960 . S
C576 C577 1.391 . S
C576 C578 1.394 . S
C576 H592 0.931 . S
C577 C576 1.391 . S
C577 C581 1.376 . S
C578 C576 1.394 . S
C578 C579 1.369 . S
C578 C582 1.531 . S
C579 C578 1.369 . S
C579 C580 1.410 1_565 S
C579 C587 1.503 1_565 S
C580 C579 1.410 1_545 S
C580 C581 1.392 1_545 S
C580 C583 1.511 . S
C581 C577 1.376 . S
C581 C580 1.392 1_565 S
C581 H593 0.929 1_565 S
C582 C578 1.531 . S
C582 H594 0.960 . S
C582 H595 0.962 . S
C582 H596 0.960 . S
C583 C580 1.511 . S
C583 H597 0.961 . S
C583 H598 0.961 . S
C583 H599 0.961 . S
C584 C585 1.370 . S
C584 C586 1.363 . S
C584 H600 0.931 . S
C585 C584 1.370 . S
C585 C589 1.388 1_545 S
C586 C584 1.363 . S
C586 C587 1.370 . S
C586 C590 1.524 . S
C587 C579 1.503 1_545 S
C587 C586 1.370 . S
C587 C588 1.403 1_545 S
C588 C587 1.403 1_565 S
C588 C589 1.413 . S
C588 C591 1.539 . S
C589 C585 1.388 1_565 S
C589 C588 1.413 . S
C589 H601 0.941 . S
C590 C586 1.524 . S
C590 H602 0.956 . S
C590 H603 0.961 . S
C590 H604 0.961 . S
C591 C588 1.539 . S
C591 H605 0.958 . S
C591 H606 0.961 . S
C591 H607 0.960 . S
H592 C576 0.931 . S
H593 C581 0.929 1_545 S
H594 C582 0.960 . S
H595 C582 0.962 . S
H596 C582 0.960 . S
H597 C583 0.961 . S
H598 C583 0.961 . S
H599 C583 0.961 . S
H600 C584 0.931 . S
H601 C589 0.941 . S
H602 C590 0.956 . S
H603 C590 0.961 . S
H604 C590 0.961 . S
H605 C591 0.958 . S
H606 C591 0.961 . S
H607 C591 0.960 . S
C608 C609 1.391 . S
C608 C610 1.394 . S
C608 H624 0.931 . S
C609 C608 1.391 . S
C609 C613 1.376 . S
C610 C608 1.394 . S
C610 C611 1.369 . S
C610 C614 1.531 . S
C611 C610 1.369 . S
C611 C612 1.410 . S
C611 C619 1.503 . S
C612 C611 1.410 . S
C612 C613 1.392 . S
C612 C615 1.511 . S
C613 C609 1.376 . S
C613 C612 1.392 . S
C613 H625 0.929 . S
C614 C610 1.531 . S
C614 H626 0.960 . S
C614 H627 0.962 . S
C614 H628 0.960 . S
C615 C612 1.511 . S
C615 H629 0.961 . S
C615 H630 0.961 . S
C615 H631 0.961 . S
C616 C617 1.370 . S
C616 C618 1.363 . S
C616 H632 0.931 . S
C617 C616 1.370 . S
C617 C621 1.408 . S
C618 C616 1.363 . S
C618 C619 1.370 . S
C618 C622 1.524 . S
C619 C611 1.503 . S
C619 C618 1.370 . S
C619 C620 1.403 . S
C620 C619 1.403 . S
C620 C621 1.404 . S
C620 C623 1.539 . S
C621 C617 1.408 . S
C621 C620 1.404 . S
C621 H633 0.930 . S
C622 C618 1.524 . S
C622 H634 0.956 . S
C622 H635 0.961 . S
C622 H636 0.961 . S
C623 C620 1.539 . S
C623 H637 0.958 . S
C623 H638 0.961 . S
C623 H639 0.960 . S
H624 C608 0.931 . S
H625 C613 0.929 . S
H626 C614 0.960 . S
H627 C614 0.962 . S
H628 C614 0.960 . S
H629 C615 0.961 . S
H630 C615 0.961 . S
H631 C615 0.961 . S
H632 C616 0.931 . S
H633 C621 0.930 . S
H634 C622 0.956 . S
H635 C622 0.961 . S
H636 C622 0.961 . S
H637 C623 0.958 . S
H638 C623 0.961 . S
H639 C623 0.960 . S
C640 C641 1.391 1_565 S
C640 C642 1.394 . S
C640 H656 0.931 . S
C641 C640 1.391 1_545 S
C641 C645 1.376 . S
C642 C640 1.394 . S
C642 C643 1.374 . S
C642 C646 1.531 . S
C643 C642 1.374 . S
C643 C644 1.400 1_565 S
C643 C651 1.506 . S
C644 C643 1.400 1_545 S
C644 C645 1.392 . S
C644 C647 1.511 . S
C645 C641 1.376 . S
C645 C644 1.392 . S
C645 H657 0.929 . S
C646 C642 1.531 . S
C646 H658 0.960 . S
C646 H659 0.962 . S
C646 H660 0.960 . S
C647 C644 1.511 . S
C647 H661 0.961 . S
C647 H662 0.961 . S
C647 H663 0.961 . S
C648 C649 1.370 . S
C648 C650 1.363 1_565 S
C648 H664 0.931 1_565 S
C649 C648 1.370 . S
C649 C653 1.408 . S
C650 C648 1.363 1_545 S
C650 C651 1.370 1_545 S
C650 C654 1.524 . S
C651 C643 1.506 . S
C651 C650 1.370 1_565 S
C651 C652 1.403 . S
C652 C651 1.403 . S
C652 C653 1.404 . S
C652 C655 1.539 . S
C653 C649 1.408 . S
C653 C652 1.404 . S
C653 H665 0.930 . S
C654 C650 1.524 . S
C654 H666 0.956 . S
C654 H667 0.961 . S
C654 H668 0.961 . S
C655 C652 1.539 . S
C655 H669 0.958 . S
C655 H670 0.961 . S
C655 H671 0.960 . S
H656 C640 0.931 . S
H657 C645 0.929 . S
H658 C646 0.960 . S
H659 C646 0.962 . S
H660 C646 0.960 . S
H661 C647 0.961 . S
H662 C647 0.961 . S
H663 C647 0.961 . S
H664 C648 0.931 1_545 S
H665 C653 0.930 . S
H666 C654 0.956 . S
H667 C654 0.961 . S
H668 C654 0.961 . S
H669 C655 0.958 . S
H670 C655 0.961 . S
H671 C655 0.960 . S
C672 C673 1.391 . S
C672 C674 1.394 . S
C672 H688 0.931 . S
C673 C672 1.391 . S
C673 C677 1.376 . S
C674 C672 1.394 . S
C674 C675 1.369 . S
C674 C678 1.531 . S
C675 C674 1.369 . S
C675 C676 1.410 . S
C675 C683 1.503 1_556 S
C676 C675 1.410 . S
C676 C677 1.392 . S
C676 C679 1.511 . S
C677 C673 1.376 . S
C677 C676 1.392 . S
C677 H689 0.929 . S
C678 C674 1.531 . S
C678 H690 0.960 . S
C678 H691 0.962 . S
C678 H692 0.960 . S
C679 C676 1.511 . S
C679 H693 0.961 . S
C679 H694 0.961 1_556 S
C679 H695 0.961 1_556 S
C680 C681 1.370 . S
C680 C682 1.363 . S
C680 H696 0.931 . S
C681 C680 1.370 . S
C681 C685 1.408 . S
C682 C680 1.363 . S
C682 C683 1.370 . S
C682 C686 1.524 . S
C683 C675 1.503 1_554 S
C683 C682 1.370 . S
C683 C684 1.403 . S
C684 C683 1.403 . S
C684 C685 1.404 . S
C684 C687 1.539 . S
C685 C681 1.408 . S
C685 C684 1.404 . S
C685 H697 0.930 . S
C686 C682 1.524 . S
C686 H698 0.956 1_554 S
C686 H699 0.961 1_554 S
C686 H700 0.961 . S
C687 C684 1.539 . S
C687 H701 0.958 . S
C687 H702 0.961 . S
C687 H703 0.960 . S
H688 C672 0.931 . S
H689 C677 0.929 . S
H690 C678 0.960 . S
H691 C678 0.962 . S
H692 C678 0.960 . S
H693 C679 0.961 . S
H694 C679 0.961 1_554 S
H695 C679 0.961 1_554 S
H696 C680 0.931 . S
H697 C685 0.930 . S
H698 C686 0.956 1_556 S
H699 C686 0.961 1_556 S
H700 C686 0.961 . S
H701 C687 0.958 . S
H702 C687 0.961 . S
H703 C687 0.960 . S
C704 C705 1.391 . S
C704 C706 1.394 . S
C704 H720 0.931 . S
C705 C704 1.391 . S
C705 C709 1.376 . S
C706 C704 1.394 . S
C706 C707 1.369 . S
C706 C710 1.531 . S
C707 C706 1.369 . S
C707 C708 1.410 . S
C707 C715 1.503 . S
C708 C707 1.410 . S
C708 C709 1.392 . S
C708 C711 1.511 . S
C709 C705 1.376 . S
C709 C708 1.392 . S
C709 H721 0.929 . S
C710 C706 1.531 . S
C710 H722 0.960 . S
C710 H723 0.962 . S
C710 H724 0.960 . S
C711 C708 1.511 . S
C711 H725 0.961 . S
C711 H726 0.961 . S
C711 H727 0.961 . S
C712 C713 1.370 . S
C712 C714 1.363 . S
C712 H728 0.931 . S
C713 C712 1.370 . S
C713 C717 1.408 . S
C714 C712 1.363 . S
C714 C715 1.370 . S
C714 C718 1.524 . S
C715 C707 1.503 . S
C715 C714 1.370 . S
C715 C716 1.403 . S
C716 C715 1.403 . S
C716 C717 1.404 . S
C716 C719 1.539 . S
C717 C713 1.408 . S
C717 C716 1.404 . S
C717 H729 0.930 . S
C718 C714 1.524 . S
C718 H730 0.956 . S
C718 H731 0.961 . S
C718 H732 0.961 . S
C719 C716 1.539 . S
C719 H733 0.958 . S
C719 H734 0.961 . S
C719 H735 0.960 . S
H720 C704 0.931 . S
H721 C709 0.929 . S
H722 C710 0.960 . S
H723 C710 0.962 . S
H724 C710 0.960 . S
H725 C711 0.961 . S
H726 C711 0.961 . S
H727 C711 0.961 . S
H728 C712 0.931 . S
H729 C717 0.930 . S
H730 C718 0.956 . S
H731 C718 0.961 . S
H732 C718 0.961 . S
H733 C719 0.958 . S
H734 C719 0.961 . S
H735 C719 0.960 . S
C736 C737 1.391 . S
C736 C738 1.394 . S
C736 H752 0.931 . S
C737 C736 1.391 . S
C737 C741 1.376 . S
C738 C736 1.394 . S
C738 C739 1.369 . S
C738 C742 1.531 . S
C739 C738 1.369 . S
C739 C740 1.410 . S
C739 C747 1.503 1_554 S
C740 C739 1.410 . S
C740 C741 1.392 . S
C740 C743 1.493 1_554 S
C741 C737 1.376 . S
C741 C740 1.392 . S
C741 H753 0.929 . S
C742 C738 1.531 . S
C742 H754 0.960 . S
C742 H755 0.962 . S
C742 H756 0.960 . S
C743 C740 1.493 1_556 S
C743 H757 0.953 1_556 S
C743 H758 0.983 . S
C743 H759 0.966 . S
C744 C745 1.370 . S
C744 C746 1.363 . S
C744 H760 0.931 . S
C745 C744 1.370 . S
C745 C749 1.408 . S
C746 C744 1.363 . S
C746 C747 1.370 . S
C746 C750 1.524 . S
C747 C739 1.503 1_556 S
C747 C746 1.370 . S
C747 C748 1.403 . S
C748 C747 1.403 . S
C748 C749 1.404 . S
C748 C751 1.539 . S
C749 C745 1.408 . S
C749 C748 1.404 . S
C749 H761 0.930 . S
C750 C746 1.524 . S
C750 H762 0.956 1_556 S
C750 H763 0.961 . S
C750 H764 0.961 . S
C751 C748 1.539 . S
C751 H765 0.958 . S
C751 H766 0.961 . S
C751 H767 0.960 . S
H752 C736 0.931 . S
H753 C741 0.929 . S
H754 C742 0.960 . S
H755 C742 0.962 . S
H756 C742 0.960 . S
H757 C743 0.953 1_554 S
H758 C743 0.983 . S
H759 C743 0.966 . S
H760 C744 0.931 . S
H761 C749 0.930 . S
H762 C750 0.956 1_554 S
H763 C750 0.961 . S
H764 C750 0.961 . S
H765 C751 0.958 . S
H766 C751 0.961 . S
H767 C751 0.960 . S
C768 C769 1.391 . S
C768 C770 1.394 . S
C768 H784 0.931 . S
C769 C768 1.391 . S
C769 C773 1.376 . S
C770 C768 1.394 . S
C770 C771 1.369 . S
C770 C774 1.531 . S
C771 C770 1.369 . S
C771 C772 1.410 . S
C771 C779 1.503 . S
C772 C771 1.410 . S
C772 C773 1.392 . S
C772 C775 1.511 . S
C773 C769 1.376 . S
C773 C772 1.392 . S
C773 H785 0.929 . S
C774 C770 1.531 . S
C774 H786 0.960 . S
C774 H787 0.962 . S
C774 H788 0.960 . S
C775 C772 1.511 . S
C775 H789 0.961 . S
C775 H790 0.961 . S
C775 H791 0.961 . S
C776 C777 1.370 . S
C776 C778 1.363 . S
C776 H792 0.931 . S
C777 C776 1.370 . S
C777 C781 1.408 . S
C778 C776 1.363 . S
C778 C779 1.370 . S
C778 C782 1.524 . S
C779 C771 1.503 . S
C779 C778 1.370 . S
C779 C780 1.403 . S
C780 C779 1.403 . S
C780 C781 1.404 . S
C780 C783 1.539 . S
C781 C777 1.408 . S
C781 C780 1.404 . S
C781 H793 0.930 . S
C782 C778 1.524 . S
C782 H794 0.956 . S
C782 H795 0.961 . S
C782 H796 0.961 . S
C783 C780 1.539 . S
C783 H797 0.958 . S
C783 H798 0.961 . S
C783 H799 0.960 . S
H784 C768 0.931 . S
H785 C773 0.929 . S
H786 C774 0.960 . S
H787 C774 0.962 . S
H788 C774 0.960 . S
H789 C775 0.961 . S
H790 C775 0.961 . S
H791 C775 0.961 . S
H792 C776 0.931 . S
H793 C781 0.930 . S
H794 C782 0.956 . S
H795 C782 0.961 . S
H796 C782 0.961 . S
H797 C783 0.958 . S
H798 C783 0.961 . S
H799 C783 0.960 . S
C800 C801 1.391 . S
C800 C802 1.394 . S
C800 H816 0.931 . S
C801 C800 1.391 . S
C801 C805 1.376 . S
C802 C800 1.394 . S
C802 C803 1.369 . S
C802 C806 1.531 . S
C803 C802 1.369 . S
C803 C804 1.410 . S
C803 C811 1.503 . S
C804 C803 1.410 . S
C804 C805 1.392 . S
C804 C807 1.511 . S
C805 C801 1.376 . S
C805 C804 1.392 . S
C805 H817 0.929 . S
C806 C802 1.531 . S
C806 H818 0.960 . S
C806 H819 0.962 . S
C806 H820 0.960 . S
C807 C804 1.511 . S
C807 H821 0.961 . S
C807 H822 0.961 . S
C807 H823 0.961 . S
C808 C809 1.370 . S
C808 C810 1.363 . S
C808 H824 0.931 . S
C809 C808 1.370 . S
C809 C813 1.408 . S
C810 C808 1.363 . S
C810 C811 1.370 . S
C810 C814 1.524 . S
C811 C803 1.503 . S
C811 C810 1.370 . S
C811 C812 1.403 . S
C812 C811 1.403 . S
C812 C813 1.404 . S
C812 C815 1.539 . S
C813 C809 1.408 . S
C813 C812 1.404 . S
C813 H825 0.930 . S
C814 C810 1.524 . S
C814 H826 0.956 . S
C814 H827 0.961 . S
C814 H828 0.961 . S
C815 C812 1.539 . S
C815 H829 0.958 . S
C815 H830 0.961 . S
C815 H831 0.960 . S
H816 C800 0.931 . S
H817 C805 0.929 . S
H818 C806 0.960 . S
H819 C806 0.962 . S
H820 C806 0.960 . S
H821 C807 0.961 . S
H822 C807 0.961 . S
H823 C807 0.961 . S
H824 C808 0.931 . S
H825 C813 0.930 . S
H826 C814 0.956 . S
H827 C814 0.961 . S
H828 C814 0.961 . S
H829 C815 0.958 . S
H830 C815 0.961 . S
H831 C815 0.960 . S
C832 C833 1.391 . S
C832 C834 1.394 . S
C832 H848 0.931 . S
C833 C832 1.391 . S
C833 C837 1.376 . S
C834 C832 1.394 . S
C834 C835 1.369 . S
C834 C838 1.531 . S
C835 C834 1.369 . S
C835 C836 1.410 . S
C835 C843 1.503 . S
C836 C835 1.410 . S
C836 C837 1.392 . S
C836 C839 1.511 . S
C837 C833 1.376 . S
C837 C836 1.392 . S
C837 H849 0.929 . S
C838 C834 1.531 . S
C838 H850 0.960 . S
C838 H851 0.962 . S
C838 H852 0.960 . S
C839 C836 1.511 . S
C839 H853 0.961 . S
C839 H854 0.961 . S
C839 H855 0.961 . S
C840 C841 1.370 . S
C840 C842 1.363 . S
C840 H856 0.931 . S
C841 C840 1.370 . S
C841 C845 1.408 . S
C842 C840 1.363 . S
C842 C843 1.370 . S
C842 C846 1.524 . S
C843 C835 1.503 . S
C843 C842 1.370 . S
C843 C844 1.403 . S
C844 C843 1.403 . S
C844 C845 1.404 . S
C844 C847 1.539 . S
C845 C841 1.408 . S
C845 C844 1.404 . S
C845 H857 0.930 . S
C846 C842 1.524 . S
C846 H858 0.956 . S
C846 H859 0.961 . S
C846 H860 0.961 . S
C847 C844 1.539 . S
C847 H861 0.958 . S
C847 H862 0.961 . S
C847 H863 0.960 . S
H848 C832 0.931 . S
H849 C837 0.929 . S
H850 C838 0.960 . S
H851 C838 0.962 . S
H852 C838 0.960 . S
H853 C839 0.961 . S
H854 C839 0.961 . S
H855 C839 0.961 . S
H856 C840 0.931 . S
H857 C845 0.930 . S
H858 C846 0.956 . S
H859 C846 0.961 . S
H860 C846 0.961 . S
H861 C847 0.958 . S
H862 C847 0.961 . S
H863 C847 0.960 . S
C864 C865 1.391 . S
C864 C866 1.394 . S
C864 H880 0.931 . S
C865 C864 1.391 . S
C865 C869 1.376 . S
C866 C864 1.394 . S
C866 C867 1.369 . S
C866 C870 1.533 1_554 S
C867 C866 1.369 . S
C867 C868 1.410 . S
C867 C875 1.503 1_554 S
C868 C867 1.410 . S
C868 C869 1.392 . S
C868 C871 1.511 . S
C869 C865 1.376 . S
C869 C868 1.392 . S
C869 H881 0.929 . S
C870 C866 1.533 1_556 S
C870 H882 0.957 . S
C870 H883 0.961 . S
C870 H884 0.962 1_556 S
C871 C868 1.511 . S
C871 H885 0.961 . S
C871 H886 0.961 . S
C871 H887 0.961 . S
C872 C873 1.370 . S
C872 C874 1.363 . S
C872 H888 0.931 . S
C873 C872 1.370 . S
C873 C877 1.408 . S
C874 C872 1.363 . S
C874 C875 1.370 . S
C874 C878 1.524 . S
C875 C867 1.503 1_556 S
C875 C874 1.370 . S
C875 C876 1.403 . S
C876 C875 1.403 . S
C876 C877 1.404 . S
C876 C879 1.539 . S
C877 C873 1.408 . S
C877 C876 1.404 . S
C877 H889 0.930 . S
C878 C874 1.524 . S
C878 H890 0.940 1_556 S
C878 H891 0.961 1_556 S
C878 H892 0.961 . S
C879 C876 1.539 . S
C879 H893 0.958 . S
C879 H894 0.961 . S
C879 H895 0.960 . S
H880 C864 0.931 . S
H881 C869 0.929 . S
H882 C870 0.957 . S
H883 C870 0.961 . S
H884 C870 0.962 1_554 S
H885 C871 0.961 . S
H886 C871 0.961 . S
H887 C871 0.961 . S
H888 C872 0.931 . S
H889 C877 0.930 . S
H890 C878 0.940 1_554 S
H891 C878 0.961 1_554 S
H892 C878 0.961 . S
H893 C879 0.958 . S
H894 C879 0.961 . S
H895 C879 0.960 . S
C896 C897 1.391 . S
C896 C898 1.394 . S
C896 H912 0.931 . S
C897 C896 1.391 . S
C897 C901 1.376 . S
C898 C896 1.394 . S
C898 C899 1.369 . S
C898 C902 1.531 . S
C899 C898 1.369 . S
C899 C900 1.410 . S
C899 C907 1.503 . S
C900 C899 1.410 . S
C900 C901 1.392 . S
C900 C903 1.511 . S
C901 C897 1.376 . S
C901 C900 1.392 . S
C901 H913 0.929 . S
C902 C898 1.531 . S
C902 H914 0.960 . S
C902 H915 0.962 . S
C902 H916 0.960 . S
C903 C900 1.511 . S
C903 H917 0.961 . S
C903 H918 0.961 . S
C903 H919 0.961 . S
C904 C905 1.370 . S
C904 C906 1.363 . S
C904 H920 0.931 . S
C905 C904 1.370 . S
C905 C909 1.408 . S
C906 C904 1.363 . S
C906 C907 1.370 . S
C906 C910 1.524 . S
C907 C899 1.503 . S
C907 C906 1.370 . S
C907 C908 1.403 . S
C908 C907 1.403 . S
C908 C909 1.404 . S
C908 C911 1.539 . S
C909 C905 1.408 . S
C909 C908 1.404 . S
C909 H921 0.930 . S
C910 C906 1.524 . S
C910 H922 0.956 . S
C910 H923 0.961 . S
C910 H924 0.961 . S
C911 C908 1.539 . S
C911 H925 0.958 . S
C911 H926 0.961 . S
C911 H927 0.960 . S
H912 C896 0.931 . S
H913 C901 0.929 . S
H914 C902 0.960 . S
H915 C902 0.962 . S
H916 C902 0.960 . S
H917 C903 0.961 . S
H918 C903 0.961 . S
H919 C903 0.961 . S
H920 C904 0.931 . S
H921 C909 0.930 . S
H922 C910 0.956 . S
H923 C910 0.961 . S
H924 C910 0.961 . S
H925 C911 0.958 . S
H926 C911 0.961 . S
H927 C911 0.960 . S
C928 C929 1.391 . S
C928 C930 1.394 . S
C928 H944 0.931 . S
C929 C928 1.391 . S
C929 C933 1.376 . S
C930 C928 1.394 . S
C930 C931 1.369 . S
C930 C934 1.531 . S
C931 C930 1.369 . S
C931 C932 1.410 . S
C931 C939 1.503 . S
C932 C931 1.410 . S
C932 C933 1.392 . S
C932 C935 1.511 . S
C933 C929 1.376 . S
C933 C932 1.392 . S
C933 H945 0.929 . S
C934 C930 1.531 . S
C934 H946 0.960 . S
C934 H947 0.962 . S
C934 H948 0.960 . S
C935 C932 1.511 . S
C935 H949 0.961 . S
C935 H950 0.961 . S
C935 H951 0.961 . S
C936 C937 1.370 . S
C936 C938 1.363 . S
C936 H952 0.931 . S
C937 C936 1.370 . S
C937 C941 1.408 . S
C938 C936 1.363 . S
C938 C939 1.370 . S
C938 C942 1.524 . S
C939 C931 1.503 . S
C939 C938 1.370 . S
C939 C940 1.403 . S
C940 C939 1.403 . S
C940 C941 1.404 . S
C940 C943 1.539 . S
C941 C937 1.408 . S
C941 C940 1.404 . S
C941 H953 0.930 . S
C942 C938 1.524 . S
C942 H954 0.956 . S
C942 H955 0.961 . S
C942 H956 0.961 . S
C943 C940 1.539 . S
C943 H957 0.958 . S
C943 H958 0.961 . S
C943 H959 0.960 . S
H944 C928 0.931 . S
H945 C933 0.929 . S
H946 C934 0.960 . S
H947 C934 0.962 . S
H948 C934 0.960 . S
H949 C935 0.961 . S
H950 C935 0.961 . S
H951 C935 0.961 . S
H952 C936 0.931 . S
H953 C941 0.930 . S
H954 C942 0.956 . S
H955 C942 0.961 . S
H956 C942 0.961 . S
H957 C943 0.958 . S
H958 C943 0.961 . S
H959 C943 0.960 . S
C960 C961 1.391 1_565 S
C960 C962 1.394 . S
C960 H976 0.931 . S
C961 C960 1.391 1_545 S
C961 C965 1.376 1_545 S
C962 C960 1.394 . S
C962 C963 1.369 . S
C962 C966 1.531 . S
C963 C962 1.369 . S
C963 C964 1.410 . S
C963 C971 1.503 . S
C964 C963 1.410 . S
C964 C965 1.392 . S
C964 C967 1.511 . S
C965 C961 1.376 1_565 S
C965 C964 1.392 . S
C965 H977 0.929 1_565 S
C966 C962 1.531 . S
C966 H978 0.960 . S
C966 H979 0.962 . S
C966 H980 0.960 . S
C967 C964 1.511 . S
C967 H981 0.961 . S
C967 H982 0.961 . S
C967 H983 0.961 . S
C968 C969 1.370 . S
C968 C970 1.363 . S
C968 H984 0.931 . S
C969 C968 1.370 . S
C969 C973 1.408 . S
C970 C968 1.363 . S
C970 C971 1.370 . S
C970 C974 1.524 . S
C971 C963 1.503 . S
C971 C970 1.370 . S
C971 C972 1.403 . S
C972 C971 1.403 . S
C972 C973 1.404 . S
C972 C975 1.539 . S
C973 C969 1.408 . S
C973 C972 1.404 . S
C973 H985 0.930 . S
C974 C970 1.524 . S
C974 H986 0.956 . S
C974 H987 0.961 . S
C974 H988 0.961 . S
C975 C972 1.539 . S
C975 H989 0.958 . S
C975 H990 0.961 . S
C975 H991 0.960 . S
H976 C960 0.931 . S
H977 C965 0.929 1_545 S
H978 C966 0.960 . S
H979 C966 0.962 . S
H980 C966 0.960 . S
H981 C967 0.961 . S
H982 C967 0.961 . S
H983 C967 0.961 . S
H984 C968 0.931 . S
H985 C973 0.930 . S
H986 C974 0.956 . S
H987 C974 0.961 . S
H988 C974 0.961 . S
H989 C975 0.958 . S
H990 C975 0.961 . S
H991 C975 0.960 . S
C992 C993 1.391 . S
C992 C994 1.394 . S
C992 H1008 0.931 . S
C993 C992 1.391 . S
C993 C997 1.376 . S
C994 C992 1.394 . S
C994 C995 1.369 . S
C994 C998 1.531 . S
C995 C994 1.369 . S
C995 C996 1.410 . S
C995 C1003 1.503 . S
C996 C995 1.410 . S
C996 C997 1.392 . S
C996 C999 1.511 . S
C997 C993 1.376 . S
C997 C996 1.392 . S
C997 H1009 0.929 . S
C998 C994 1.531 . S
C998 H1010 0.960 . S
C998 H1011 0.962 . S
C998 H1012 0.960 . S
C999 C996 1.511 . S
C999 H1013 0.961 . S
C999 H1014 0.961 . S
C999 H1015 0.961 . S
C1000 C1001 1.345 1_545 S
C1000 C1002 1.363 . S
C1000 H1016 0.931 . S
C1001 C1000 1.345 1_565 S
C1001 C1005 1.407 1_565 S
C1002 C1000 1.363 . S
C1002 C1003 1.370 . S
C1002 C1006 1.524 . S
C1003 C995 1.503 . S
C1003 C1002 1.370 . S
C1003 C1004 1.403 . S
C1004 C1003 1.403 . S
C1004 C1005 1.418 . S
C1004 C1007 1.539 . S
C1005 C1001 1.407 1_545 S
C1005 C1004 1.418 . S
C1005 H1017 0.917 1_545 S
C1006 C1002 1.524 . S
C1006 H1018 0.956 . S
C1006 H1019 0.961 . S
C1006 H1020 0.961 . S
C1007 C1004 1.539 . S
C1007 H1021 0.958 . S
C1007 H1022 0.961 . S
C1007 H1023 0.960 . S
H1008 C992 0.931 . S
H1009 C997 0.929 . S
H1010 C998 0.960 . S
H1011 C998 0.962 . S
H1012 C998 0.960 . S
H1013 C999 0.961 . S
H1014 C999 0.961 . S
H1015 C999 0.961 . S
H1016 C1000 0.931 . S
H1017 C1005 0.917 1_565 S
H1018 C1006 0.956 . S
H1019 C1006 0.961 . S
H1020 C1006 0.961 . S
H1021 C1007 0.958 . S
H1022 C1007 0.961 . S
H1023 C1007 0.960 . S
C1024 C1025 1.391 . S
C1024 C1026 1.394 . S
C1024 H1040 0.931 1_545 S
C1025 C1024 1.391 . S
C1025 C1029 1.376 . S
C1026 C1024 1.394 . S
C1026 C1027 1.369 . S
C1026 C1030 1.531 . S
C1027 C1026 1.369 . S
C1027 C1028 1.410 . S
C1027 C1035 1.503 . S
C1028 C1027 1.410 . S
C1028 C1029 1.392 . S
C1028 C1031 1.511 . S
C1029 C1025 1.376 . S
C1029 C1028 1.392 . S
C1029 H1041 0.929 . S
C1030 C1026 1.531 . S
C1030 H1042 0.960 . S
C1030 H1043 0.962 . S
C1030 H1044 0.960 . S
C1031 C1028 1.511 . S
C1031 H1045 0.961 . S
C1031 H1046 0.961 . S
C1031 H1047 0.961 . S
C1032 C1033 1.370 . S
C1032 C1034 1.363 . S
C1032 H1048 0.931 . S
C1033 C1032 1.370 . S
C1033 C1037 1.408 . S
C1034 C1032 1.363 . S
C1034 C1035 1.370 . S
C1034 C1038 1.524 . S
C1035 C1027 1.503 . S
C1035 C1034 1.370 . S
C1035 C1036 1.403 . S
C1036 C1035 1.403 . S
C1036 C1037 1.404 . S
C1036 C1039 1.539 . S
C1037 C1033 1.408 . S
C1037 C1036 1.404 . S
C1037 H1049 0.930 . S
C1038 C1034 1.524 . S
C1038 H1050 0.956 . S
C1038 H1051 0.961 . S
C1038 H1052 0.961 . S
C1039 C1036 1.539 . S
C1039 H1053 0.958 . S
C1039 H1054 0.961 . S
C1039 H1055 0.960 . S
H1040 C1024 0.931 1_565 S
H1041 C1029 0.929 . S
H1042 C1030 0.960 . S
H1043 C1030 0.962 . S
H1044 C1030 0.960 . S
H1045 C1031 0.961 . S
H1046 C1031 0.961 . S
H1047 C1031 0.961 . S
H1048 C1032 0.931 . S
H1049 C1037 0.930 . S
H1050 C1038 0.956 . S
H1051 C1038 0.961 . S
H1052 C1038 0.961 . S
H1053 C1039 0.958 . S
H1054 C1039 0.961 . S
H1055 C1039 0.960 . S
C1056 C1057 1.391 . S
C1056 C1058 1.394 . S
C1056 H1072 0.931 . S
C1057 C1056 1.391 . S
C1057 C1061 1.376 . S
C1058 C1056 1.394 . S
C1058 C1059 1.369 . S
C1058 C1062 1.531 . S
C1059 C1058 1.369 . S
C1059 C1060 1.410 . S
C1059 C1067 1.503 . S
C1060 C1059 1.410 . S
C1060 C1061 1.392 . S
C1060 C1063 1.511 . S
C1061 C1057 1.376 . S
C1061 C1060 1.392 . S
C1061 H1073 0.929 . S
C1062 C1058 1.531 . S
C1062 H1074 0.960 . S
C1062 H1075 0.962 . S
C1062 H1076 0.960 . S
C1063 C1060 1.511 . S
C1063 H1077 0.961 . S
C1063 H1078 0.961 . S
C1063 H1079 0.961 . S
C1064 C1065 1.370 . S
C1064 C1066 1.363 . S
C1064 H1080 0.931 . S
C1065 C1064 1.370 . S
C1065 C1069 1.408 . S
C1066 C1064 1.363 . S
C1066 C1067 1.370 . S
C1066 C1070 1.524 . S
C1067 C1059 1.503 . S
C1067 C1066 1.370 . S
C1067 C1068 1.403 . S
C1068 C1067 1.403 . S
C1068 C1069 1.404 . S
C1068 C1071 1.539 . S
C1069 C1065 1.408 . S
C1069 C1068 1.404 . S
C1069 H1081 0.930 . S
C1070 C1066 1.524 . S
C1070 H1082 0.956 . S
C1070 H1083 0.961 . S
C1070 H1084 0.961 . S
C1071 C1068 1.539 . S
C1071 H1085 0.958 . S
C1071 H1086 0.961 . S
C1071 H1087 0.960 . S
H1072 C1056 0.931 . S
H1073 C1061 0.929 . S
H1074 C1062 0.960 . S
H1075 C1062 0.962 . S
H1076 C1062 0.960 . S
H1077 C1063 0.961 . S
H1078 C1063 0.961 . S
H1079 C1063 0.961 . S
H1080 C1064 0.931 . S
H1081 C1069 0.930 . S
H1082 C1070 0.956 . S
H1083 C1070 0.961 . S
H1084 C1070 0.961 . S
H1085 C1071 0.958 . S
H1086 C1071 0.961 . S
H1087 C1071 0.960 . S
C1088 C1089 1.391 . S
C1088 C1090 1.394 . S
C1088 H1104 0.931 . S
C1089 C1088 1.391 . S
C1089 C1093 1.376 . S
C1090 C1088 1.394 . S
C1090 C1091 1.369 . S
C1090 C1094 1.531 . S
C1091 C1090 1.369 . S
C1091 C1092 1.410 . S
C1091 C1099 1.503 . S
C1092 C1091 1.410 . S
C1092 C1093 1.392 . S
C1092 C1095 1.511 . S
C1093 C1089 1.376 . S
C1093 C1092 1.392 . S
C1093 H1105 0.929 . S
C1094 C1090 1.531 . S
C1094 H1106 0.960 . S
C1094 H1107 0.962 . S
C1094 H1108 0.960 . S
C1095 C1092 1.511 . S
C1095 H1109 0.961 . S
C1095 H1110 0.961 . S
C1095 H1111 0.961 . S
C1096 C1097 1.367 1_545 S
C1096 C1098 1.363 . S
C1096 H1112 0.931 1_545 S
C1097 C1096 1.367 1_565 S
C1097 C1101 1.400 1_565 S
C1098 C1096 1.363 . S
C1098 C1099 1.370 . S
C1098 C1102 1.524 . S
C1099 C1091 1.503 . S
C1099 C1098 1.370 . S
C1099 C1100 1.403 . S
C1100 C1099 1.403 . S
C1100 C1101 1.404 . S
C1100 C1103 1.539 . S
C1101 C1097 1.400 1_545 S
C1101 C1100 1.404 . S
C1101 H1113 0.930 . S
C1102 C1098 1.524 . S
C1102 H1114 0.956 . S
C1102 H1115 0.961 . S
C1102 H1116 0.961 . S
C1103 C1100 1.539 . S
C1103 H1117 0.958 . S
C1103 H1118 0.961 . S
C1103 H1119 0.960 . S
H1104 C1088 0.931 . S
H1105 C1093 0.929 . S
H1106 C1094 0.960 . S
H1107 C1094 0.962 . S
H1108 C1094 0.960 . S
H1109 C1095 0.961 . S
H1110 C1095 0.961 . S
H1111 C1095 0.961 . S
H1112 C1096 0.931 1_565 S
H1113 C1101 0.930 . S
H1114 C1102 0.956 . S
H1115 C1102 0.961 . S
H1116 C1102 0.961 . S
H1117 C1103 0.958 . S
H1118 C1103 0.961 . S
H1119 C1103 0.960 . S
C1120 C1121 1.391 1_565 S
C1120 C1122 1.394 . S
C1120 H1136 0.931 . S
C1121 C1120 1.391 1_545 S
C1121 C1125 1.376 . S
C1122 C1120 1.394 . S
C1122 C1123 1.369 . S
C1122 C1126 1.531 . S
C1123 C1122 1.369 . S
C1123 C1124 1.410 . S
C1123 C1131 1.503 . S
C1124 C1123 1.410 . S
C1124 C1125 1.392 1_565 S
C1124 C1127 1.507 1_565 S
C1125 C1121 1.376 . S
C1125 C1124 1.392 1_545 S
C1125 H1137 0.929 . S
C1126 C1122 1.531 . S
C1126 H1138 0.960 . S
C1126 H1139 0.962 . S
C1126 H1140 0.960 . S
C1127 C1124 1.507 1_545 S
C1127 H1141 0.970 . S
C1127 H1142 0.952 1_545 S
C1127 H1143 0.963 . S
C1128 C1129 1.370 . S
C1128 C1130 1.363 . S
C1128 H1144 0.931 . S
C1129 C1128 1.370 . S
C1129 C1133 1.408 . S
C1130 C1128 1.363 . S
C1130 C1131 1.370 . S
C1130 C1134 1.524 . S
C1131 C1123 1.503 . S
C1131 C1130 1.370 . S
C1131 C1132 1.403 . S
C1132 C1131 1.403 . S
C1132 C1133 1.404 . S
C1132 C1135 1.539 . S
C1133 C1129 1.408 . S
C1133 C1132 1.404 . S
C1133 H1145 0.930 . S
C1134 C1130 1.524 . S
C1134 H1146 0.956 . S
C1134 H1147 0.961 . S
C1134 H1148 0.961 . S
C1135 C1132 1.539 . S
C1135 H1149 0.958 . S
C1135 H1150 0.961 . S
C1135 H1151 0.960 . S
H1136 C1120 0.931 . S
H1137 C1125 0.929 . S
H1138 C1126 0.960 . S
H1139 C1126 0.962 . S
H1140 C1126 0.960 . S
H1141 C1127 0.970 . S
H1142 C1127 0.952 1_565 S
H1143 C1127 0.963 . S
H1144 C1128 0.931 . S
H1145 C1133 0.930 . S
H1146 C1134 0.956 . S
H1147 C1134 0.961 . S
H1148 C1134 0.961 . S
H1149 C1135 0.958 . S
H1150 C1135 0.961 . S
H1151 C1135 0.960 . S
C1152 C1153 1.391 . S
C1152 C1154 1.394 . S
C1152 H1168 0.931 . S
C1153 C1152 1.391 . S
C1153 C1157 1.376 . S
C1154 C1152 1.394 . S
C1154 C1155 1.369 . S
C1154 C1158 1.531 . S
C1155 C1154 1.369 . S
C1155 C1156 1.410 . S
C1155 C1163 1.503 . S
C1156 C1155 1.410 . S
C1156 C1157 1.392 . S
C1156 C1159 1.511 . S
C1157 C1153 1.376 . S
C1157 C1156 1.392 . S
C1157 H1169 0.929 . S
C1158 C1154 1.531 . S
C1158 H1170 0.960 . S
C1158 H1171 0.962 . S
C1158 H1172 0.960 . S
C1159 C1156 1.511 . S
C1159 H1173 0.961 . S
C1159 H1174 0.961 . S
C1159 H1175 0.961 . S
C1160 C1161 1.360 1_565 S
C1160 C1162 1.363 . S
C1160 H1176 0.931 . S
C1161 C1160 1.360 1_545 S
C1161 C1165 1.405 1_545 S
C1162 C1160 1.363 . S
C1162 C1163 1.370 . S
C1162 C1166 1.524 . S
C1163 C1155 1.503 . S
C1163 C1162 1.370 . S
C1163 C1164 1.403 . S
C1164 C1163 1.403 . S
C1164 C1165 1.404 . S
C1164 C1167 1.539 . S
C1165 C1161 1.405 1_565 S
C1165 C1164 1.404 . S
C1165 H1177 0.930 1_565 S
C1166 C1162 1.524 . S
C1166 H1178 0.956 . S
C1166 H1179 0.961 . S
C1166 H1180 0.961 . S
C1167 C1164 1.539 . S
C1167 H1181 0.958 . S
C1167 H1182 0.961 . S
C1167 H1183 0.960 . S
H1168 C1152 0.931 . S
H1169 C1157 0.929 . S
H1170 C1158 0.960 . S
H1171 C1158 0.962 . S
H1172 C1158 0.960 . S
H1173 C1159 0.961 . S
H1174 C1159 0.961 . S
H1175 C1159 0.961 . S
H1176 C1160 0.931 . S
H1177 C1165 0.930 1_545 S
H1178 C1166 0.956 . S
H1179 C1166 0.961 . S
H1180 C1166 0.961 . S
H1181 C1167 0.958 . S
H1182 C1167 0.961 . S
H1183 C1167 0.960 . S
C1184 C1185 1.391 . S
C1184 C1186 1.394 . S
C1184 H1200 0.931 . S
C1185 C1184 1.391 . S
C1185 C1189 1.376 . S
C1186 C1184 1.394 . S
C1186 C1187 1.369 . S
C1186 C1190 1.531 . S
C1187 C1186 1.369 . S
C1187 C1188 1.410 . S
C1187 C1195 1.503 . S
C1188 C1187 1.410 . S
C1188 C1189 1.392 . S
C1188 C1191 1.511 . S
C1189 C1185 1.376 . S
C1189 C1188 1.392 . S
C1189 H1201 0.929 . S
C1190 C1186 1.531 . S
C1190 H1202 0.960 . S
C1190 H1203 0.962 . S
C1190 H1204 0.960 . S
C1191 C1188 1.511 . S
C1191 H1205 0.961 . S
C1191 H1206 0.961 . S
C1191 H1207 0.961 . S
C1192 C1193 1.364 1_545 S
C1192 C1194 1.363 . S
C1192 H1208 0.933 1_545 S
C1193 C1192 1.364 1_565 S
C1193 C1197 1.400 1_565 S
C1194 C1192 1.363 . S
C1194 C1195 1.370 . S
C1194 C1198 1.524 . S
C1195 C1187 1.503 . S
C1195 C1194 1.370 . S
C1195 C1196 1.403 . S
C1196 C1195 1.403 . S
C1196 C1197 1.404 . S
C1196 C1199 1.539 . S
C1197 C1193 1.400 1_545 S
C1197 C1196 1.404 . S
C1197 H1209 0.930 . S
C1198 C1194 1.524 . S
C1198 H1210 0.956 . S
C1198 H1211 0.961 . S
C1198 H1212 0.961 . S
C1199 C1196 1.539 . S
C1199 H1213 0.958 . S
C1199 H1214 0.961 . S
C1199 H1215 0.960 . S
H1200 C1184 0.931 . S
H1201 C1189 0.929 . S
H1202 C1190 0.960 . S
H1203 C1190 0.962 . S
H1204 C1190 0.960 . S
H1205 C1191 0.961 . S
H1206 C1191 0.961 . S
H1207 C1191 0.961 . S
H1208 C1192 0.933 1_565 S
H1209 C1197 0.930 . S
H1210 C1198 0.956 . S
H1211 C1198 0.961 . S
H1212 C1198 0.961 . S
H1213 C1199 0.958 . S
H1214 C1199 0.961 . S
H1215 C1199 0.960 . S
C1216 C1217 1.391 . S
C1216 C1218 1.394 . S
C1216 H1232 0.931 . S
C1217 C1216 1.391 . S
C1217 C1221 1.376 . S
C1218 C1216 1.394 . S
C1218 C1219 1.369 . S
C1218 C1222 1.531 . S
C1219 C1218 1.369 . S
C1219 C1220 1.410 . S
C1219 C1227 1.503 . S
C1220 C1219 1.410 . S
C1220 C1221 1.392 . S
C1220 C1223 1.511 . S
C1221 C1217 1.376 . S
C1221 C1220 1.392 . S
C1221 H1233 0.929 . S
C1222 C1218 1.531 . S
C1222 H1234 0.960 . S
C1222 H1235 0.962 . S
C1222 H1236 0.960 . S
C1223 C1220 1.511 . S
C1223 H1237 0.961 . S
C1223 H1238 0.961 . S
C1223 H1239 0.961 . S
C1224 C1225 1.370 . S
C1224 C1226 1.363 . S
C1224 H1240 0.931 . S
C1225 C1224 1.370 . S
C1225 C1229 1.408 . S
C1226 C1224 1.363 . S
C1226 C1227 1.370 . S
C1226 C1230 1.524 . S
C1227 C1219 1.503 . S
C1227 C1226 1.370 . S
C1227 C1228 1.403 . S
C1228 C1227 1.403 . S
C1228 C1229 1.404 . S
C1228 C1231 1.539 . S
C1229 C1225 1.408 . S
C1229 C1228 1.404 . S
C1229 H1241 0.930 . S
C1230 C1226 1.524 . S
C1230 H1242 0.956 . S
C1230 H1243 0.961 . S
C1230 H1244 0.961 . S
C1231 C1228 1.539 . S
C1231 H1245 0.958 . S
C1231 H1246 0.961 . S
C1231 H1247 0.960 . S
H1232 C1216 0.931 . S
H1233 C1221 0.929 . S
H1234 C1222 0.960 . S
H1235 C1222 0.962 . S
H1236 C1222 0.960 . S
H1237 C1223 0.961 . S
H1238 C1223 0.961 . S
H1239 C1223 0.961 . S
H1240 C1224 0.931 . S
H1241 C1229 0.930 . S
H1242 C1230 0.956 . S
H1243 C1230 0.961 . S
H1244 C1230 0.961 . S
H1245 C1231 0.958 . S
H1246 C1231 0.961 . S
H1247 C1231 0.960 . S
C1248 C1249 1.391 . S
C1248 C1250 1.394 . S
C1248 H1264 0.931 . S
C1249 C1248 1.391 . S
C1249 C1253 1.376 . S
C1250 C1248 1.394 . S
C1250 C1251 1.369 . S
C1250 C1254 1.531 . S
C1251 C1250 1.369 . S
C1251 C1252 1.410 . S
C1251 C1259 1.503 . S
C1252 C1251 1.410 . S
C1252 C1253 1.392 . S
C1252 C1255 1.511 . S
C1253 C1249 1.376 . S
C1253 C1252 1.392 . S
C1253 H1265 0.929 . S
C1254 C1250 1.531 . S
C1254 H1266 0.960 . S
C1254 H1267 0.962 . S
C1254 H1268 0.960 . S
C1255 C1252 1.511 . S
C1255 H1269 0.961 . S
C1255 H1270 0.961 . S
C1255 H1271 0.961 . S
C1256 C1257 1.370 . S
C1256 C1258 1.363 . S
C1256 H1272 0.931 . S
C1257 C1256 1.370 . S
C1257 C1261 1.408 . S
C1258 C1256 1.363 . S
C1258 C1259 1.370 . S
C1258 C1262 1.524 . S
C1259 C1251 1.503 . S
C1259 C1258 1.370 . S
C1259 C1260 1.403 . S
C1260 C1259 1.403 . S
C1260 C1261 1.404 . S
C1260 C1263 1.539 . S
C1261 C1257 1.408 . S
C1261 C1260 1.404 . S
C1261 H1273 0.930 . S
C1262 C1258 1.524 . S
C1262 H1274 0.956 . S
C1262 H1275 0.961 . S
C1262 H1276 0.961 . S
C1263 C1260 1.539 . S
C1263 H1277 0.958 . S
C1263 H1278 0.961 . S
C1263 H1279 0.960 . S
H1264 C1248 0.931 . S
H1265 C1253 0.929 . S
H1266 C1254 0.960 . S
H1267 C1254 0.962 . S
H1268 C1254 0.960 . S
H1269 C1255 0.961 . S
H1270 C1255 0.961 . S
H1271 C1255 0.961 . S
H1272 C1256 0.931 . S
H1273 C1261 0.930 . S
H1274 C1262 0.956 . S
H1275 C1262 0.961 . S
H1276 C1262 0.961 . S
H1277 C1263 0.958 . S
H1278 C1263 0.961 . S
H1279 C1263 0.960 . S
C1280 C1281 1.391 . S
C1280 C1282 1.394 . S
C1280 H1296 0.931 . S
C1281 C1280 1.391 . S
C1281 C1285 1.376 . S
C1282 C1280 1.394 . S
C1282 C1283 1.369 . S
C1282 C1286 1.531 . S
C1283 C1282 1.369 . S
C1283 C1284 1.410 . S
C1283 C1291 1.503 . S
C1284 C1283 1.410 . S
C1284 C1285 1.392 . S
C1284 C1287 1.511 . S
C1285 C1281 1.376 . S
C1285 C1284 1.392 . S
C1285 H1297 0.929 . S
C1286 C1282 1.531 . S
C1286 H1298 0.960 . S
C1286 H1299 0.962 . S
C1286 H1300 0.960 . S
C1287 C1284 1.511 . S
C1287 H1301 0.961 . S
C1287 H1302 0.961 . S
C1287 H1303 0.961 . S
C1288 C1289 1.370 . S
C1288 C1290 1.363 . S
C1288 H1304 0.931 . S
C1289 C1288 1.370 . S
C1289 C1293 1.408 . S
C1290 C1288 1.363 . S
C1290 C1291 1.370 . S
C1290 C1294 1.524 . S
C1291 C1283 1.503 . S
C1291 C1290 1.370 . S
C1291 C1292 1.403 . S
C1292 C1291 1.403 . S
C1292 C1293 1.404 . S
C1292 C1295 1.539 . S
C1293 C1289 1.408 . S
C1293 C1292 1.404 . S
C1293 H1305 0.930 . S
C1294 C1290 1.524 . S
C1294 H1306 0.956 . S
C1294 H1307 0.961 . S
C1294 H1308 0.961 . S
C1295 C1292 1.539 . S
C1295 H1309 0.958 . S
C1295 H1310 0.961 . S
C1295 H1311 0.960 . S
H1296 C1280 0.931 . S
H1297 C1285 0.929 . S
H1298 C1286 0.960 . S
H1299 C1286 0.962 . S
H1300 C1286 0.960 . S
H1301 C1287 0.961 . S
H1302 C1287 0.961 . S
H1303 C1287 0.961 . S
H1304 C1288 0.931 . S
H1305 C1293 0.930 . S
H1306 C1294 0.956 . S
H1307 C1294 0.961 . S
H1308 C1294 0.961 . S
H1309 C1295 0.958 . S
H1310 C1295 0.961 . S
H1311 C1295 0.960 . S
C1312 C1313 1.391 . S
C1312 C1314 1.394 . S
C1312 H1328 0.931 . S
C1313 C1312 1.391 . S
C1313 C1317 1.376 . S
C1314 C1312 1.394 . S
C1314 C1315 1.369 . S
C1314 C1318 1.531 . S
C1315 C1314 1.369 . S
C1315 C1316 1.410 . S
C1315 C1323 1.503 . S
C1316 C1315 1.410 . S
C1316 C1317 1.392 . S
C1316 C1319 1.511 . S
C1317 C1313 1.376 . S
C1317 C1316 1.392 . S
C1317 H1329 0.929 . S
C1318 C1314 1.531 . S
C1318 H1330 0.960 . S
C1318 H1331 0.962 . S
C1318 H1332 0.960 . S
C1319 C1316 1.511 . S
C1319 H1333 0.961 . S
C1319 H1334 0.961 . S
C1319 H1335 0.961 . S
C1320 C1321 1.370 . S
C1320 C1322 1.363 . S
C1320 H1336 0.931 . S
C1321 C1320 1.370 . S
C1321 C1325 1.408 . S
C1322 C1320 1.363 . S
C1322 C1323 1.370 . S
C1322 C1326 1.524 . S
C1323 C1315 1.503 . S
C1323 C1322 1.370 . S
C1323 C1324 1.403 . S
C1324 C1323 1.403 . S
C1324 C1325 1.404 . S
C1324 C1327 1.539 . S
C1325 C1321 1.408 . S
C1325 C1324 1.404 . S
C1325 H1337 0.930 . S
C1326 C1322 1.524 . S
C1326 H1338 0.956 . S
C1326 H1339 0.961 . S
C1326 H1340 0.961 . S
C1327 C1324 1.539 . S
C1327 H1341 0.958 . S
C1327 H1342 0.961 . S
C1327 H1343 0.960 . S
H1328 C1312 0.931 . S
H1329 C1317 0.929 . S
H1330 C1318 0.960 . S
H1331 C1318 0.962 . S
H1332 C1318 0.960 . S
H1333 C1319 0.961 . S
H1334 C1319 0.961 . S
H1335 C1319 0.961 . S
H1336 C1320 0.931 . S
H1337 C1325 0.930 . S
H1338 C1326 0.956 . S
H1339 C1326 0.961 . S
H1340 C1326 0.961 . S
H1341 C1327 0.958 . S
H1342 C1327 0.961 . S
H1343 C1327 0.960 . S
C1344 C1345 1.391 . S
C1344 C1346 1.394 . S
C1344 H1360 0.931 . S
C1345 C1344 1.391 . S
C1345 C1349 1.376 . S
C1346 C1344 1.394 . S
C1346 C1347 1.369 . S
C1346 C1350 1.531 . S
C1347 C1346 1.369 . S
C1347 C1348 1.410 . S
C1347 C1355 1.503 . S
C1348 C1347 1.410 . S
C1348 C1349 1.392 . S
C1348 C1351 1.511 . S
C1349 C1345 1.376 . S
C1349 C1348 1.392 . S
C1349 H1361 0.929 . S
C1350 C1346 1.531 . S
C1350 H1362 0.960 . S
C1350 H1363 0.962 . S
C1350 H1364 0.960 . S
C1351 C1348 1.511 . S
C1351 H1365 0.961 . S
C1351 H1366 0.961 . S
C1351 H1367 0.961 . S
C1352 C1353 1.370 . S
C1352 C1354 1.363 . S
C1352 H1368 0.931 . S
C1353 C1352 1.370 . S
C1353 C1357 1.408 . S
C1354 C1352 1.363 . S
C1354 C1355 1.370 . S
C1354 C1358 1.524 . S
C1355 C1347 1.503 . S
C1355 C1354 1.370 . S
C1355 C1356 1.403 . S
C1356 C1355 1.403 . S
C1356 C1357 1.404 . S
C1356 C1359 1.539 . S
C1357 C1353 1.408 . S
C1357 C1356 1.404 . S
C1357 H1369 0.930 . S
C1358 C1354 1.524 . S
C1358 H1370 0.956 . S
C1358 H1371 0.961 . S
C1358 H1372 0.961 . S
C1359 C1356 1.539 . S
C1359 H1373 0.958 . S
C1359 H1374 0.961 . S
C1359 H1375 0.960 . S
H1360 C1344 0.931 . S
H1361 C1349 0.929 . S
H1362 C1350 0.960 . S
H1363 C1350 0.962 . S
H1364 C1350 0.960 . S
H1365 C1351 0.961 . S
H1366 C1351 0.961 . S
H1367 C1351 0.961 . S
H1368 C1352 0.931 . S
H1369 C1357 0.930 . S
H1370 C1358 0.956 . S
H1371 C1358 0.961 . S
H1372 C1358 0.961 . S
H1373 C1359 0.958 . S
H1374 C1359 0.961 . S
H1375 C1359 0.960 . S
C1376 C1377 1.391 . S
C1376 C1378 1.394 . S
C1376 H1392 0.931 . S
C1377 C1376 1.391 . S
C1377 C1381 1.376 . S
C1378 C1376 1.394 . S
C1378 C1379 1.369 . S
C1378 C1382 1.531 . S
C1379 C1378 1.369 . S
C1379 C1380 1.410 . S
C1379 C1387 1.503 . S
C1380 C1379 1.410 . S
C1380 C1381 1.392 . S
C1380 C1383 1.511 . S
C1381 C1377 1.376 . S
C1381 C1380 1.392 . S
C1381 H1393 0.929 . S
C1382 C1378 1.531 . S
C1382 H1394 0.960 . S
C1382 H1395 0.962 . S
C1382 H1396 0.960 . S
C1383 C1380 1.511 . S
C1383 H1397 0.961 . S
C1383 H1398 0.961 . S
C1383 H1399 0.961 . S
C1384 C1385 1.370 . S
C1384 C1386 1.363 . S
C1384 H1400 0.931 . S
C1385 C1384 1.370 . S
C1385 C1389 1.408 . S
C1386 C1384 1.363 . S
C1386 C1387 1.370 . S
C1386 C1390 1.524 . S
C1387 C1379 1.503 . S
C1387 C1386 1.370 . S
C1387 C1388 1.403 . S
C1388 C1387 1.403 . S
C1388 C1389 1.404 . S
C1388 C1391 1.539 . S
C1389 C1385 1.408 . S
C1389 C1388 1.404 . S
C1389 H1401 0.930 . S
C1390 C1386 1.524 . S
C1390 H1402 0.956 . S
C1390 H1403 0.961 . S
C1390 H1404 0.961 . S
C1391 C1388 1.539 . S
C1391 H1405 0.958 . S
C1391 H1406 0.961 . S
C1391 H1407 0.960 . S
H1392 C1376 0.931 . S
H1393 C1381 0.929 . S
H1394 C1382 0.960 . S
H1395 C1382 0.962 . S
H1396 C1382 0.960 . S
H1397 C1383 0.961 . S
H1398 C1383 0.961 . S
H1399 C1383 0.961 . S
H1400 C1384 0.931 . S
H1401 C1389 0.930 . S
H1402 C1390 0.956 . S
H1403 C1390 0.961 . S
H1404 C1390 0.961 . S
H1405 C1391 0.958 . S
H1406 C1391 0.961 . S
H1407 C1391 0.960 . S
C1408 C1409 1.391 . S
C1408 C1410 1.394 . S
C1408 H1424 0.931 . S
C1409 C1408 1.391 . S
C1409 C1413 1.376 . S
C1410 C1408 1.394 . S
C1410 C1411 1.369 . S
C1410 C1414 1.531 . S
C1411 C1410 1.369 . S
C1411 C1412 1.410 . S
C1411 C1419 1.503 . S
C1412 C1411 1.410 . S
C1412 C1413 1.392 . S
C1412 C1415 1.511 . S
C1413 C1409 1.376 . S
C1413 C1412 1.392 . S
C1413 H1425 0.929 . S
C1414 C1410 1.531 . S
C1414 H1426 0.960 . S
C1414 H1427 0.962 . S
C1414 H1428 0.960 . S
C1415 C1412 1.511 . S
C1415 H1429 0.961 . S
C1415 H1430 0.961 . S
C1415 H1431 0.961 . S
C1416 C1417 1.370 . S
C1416 C1418 1.363 . S
C1416 H1432 0.931 . S
C1417 C1416 1.370 . S
C1417 C1421 1.408 . S
C1418 C1416 1.363 . S
C1418 C1419 1.370 . S
C1418 C1422 1.524 . S
C1419 C1411 1.503 . S
C1419 C1418 1.370 . S
C1419 C1420 1.403 . S
C1420 C1419 1.403 . S
C1420 C1421 1.404 . S
C1420 C1423 1.539 . S
C1421 C1417 1.408 . S
C1421 C1420 1.404 . S
C1421 H1433 0.930 . S
C1422 C1418 1.524 . S
C1422 H1434 0.956 . S
C1422 H1435 0.961 . S
C1422 H1436 0.961 . S
C1423 C1420 1.539 . S
C1423 H1437 0.958 . S
C1423 H1438 0.961 . S
C1423 H1439 0.960 . S
H1424 C1408 0.931 . S
H1425 C1413 0.929 . S
H1426 C1414 0.960 . S
H1427 C1414 0.962 . S
H1428 C1414 0.960 . S
H1429 C1415 0.961 . S
H1430 C1415 0.961 . S
H1431 C1415 0.961 . S
H1432 C1416 0.931 . S
H1433 C1421 0.930 . S
H1434 C1422 0.956 . S
H1435 C1422 0.961 . S
H1436 C1422 0.961 . S
H1437 C1423 0.958 . S
H1438 C1423 0.961 . S
H1439 C1423 0.960 . S
C1440 C1441 1.391 . S
C1440 C1442 1.394 . S
C1440 H1456 0.931 . S
C1441 C1440 1.391 . S
C1441 C1445 1.376 . S
C1442 C1440 1.394 . S
C1442 C1443 1.369 . S
C1442 C1446 1.531 . S
C1443 C1442 1.369 . S
C1443 C1444 1.410 . S
C1443 C1451 1.503 . S
C1444 C1443 1.410 . S
C1444 C1445 1.392 . S
C1444 C1447 1.511 . S
C1445 C1441 1.376 . S
C1445 C1444 1.392 . S
C1445 H1457 0.929 . S
C1446 C1442 1.531 . S
C1446 H1458 0.960 . S
C1446 H1459 0.962 . S
C1446 H1460 0.960 . S
C1447 C1444 1.511 . S
C1447 H1461 0.961 . S
C1447 H1462 0.961 . S
C1447 H1463 0.961 . S
C1448 C1449 1.370 . S
C1448 C1450 1.363 . S
C1448 H1464 0.931 . S
C1449 C1448 1.370 . S
C1449 C1453 1.408 . S
C1450 C1448 1.363 . S
C1450 C1451 1.370 . S
C1450 C1454 1.524 . S
C1451 C1443 1.503 . S
C1451 C1450 1.370 . S
C1451 C1452 1.403 . S
C1452 C1451 1.403 . S
C1452 C1453 1.404 . S
C1452 C1455 1.539 . S
C1453 C1449 1.408 . S
C1453 C1452 1.404 . S
C1453 H1465 0.930 . S
C1454 C1450 1.524 . S
C1454 H1466 0.956 . S
C1454 H1467 0.961 . S
C1454 H1468 0.961 . S
C1455 C1452 1.539 . S
C1455 H1469 0.958 . S
C1455 H1470 0.961 . S
C1455 H1471 0.960 . S
H1456 C1440 0.931 . S
H1457 C1445 0.929 . S
H1458 C1446 0.960 . S
H1459 C1446 0.962 . S
H1460 C1446 0.960 . S
H1461 C1447 0.961 . S
H1462 C1447 0.961 . S
H1463 C1447 0.961 . S
H1464 C1448 0.931 . S
H1465 C1453 0.930 . S
H1466 C1454 0.956 . S
H1467 C1454 0.961 . S
H1468 C1454 0.961 . S
H1469 C1455 0.958 . S
H1470 C1455 0.961 . S
H1471 C1455 0.960 . S
C1472 C1473 1.391 . S
C1472 C1474 1.394 . S
C1472 H1488 0.931 . S
C1473 C1472 1.391 . S
C1473 C1477 1.376 . S
C1474 C1472 1.394 . S
C1474 C1475 1.369 . S
C1474 C1478 1.531 . S
C1475 C1474 1.369 . S
C1475 C1476 1.410 . S
C1475 C1483 1.503 . S
C1476 C1475 1.410 . S
C1476 C1477 1.392 . S
C1476 C1479 1.511 . S
C1477 C1473 1.376 . S
C1477 C1476 1.392 . S
C1477 H1489 0.929 . S
C1478 C1474 1.531 . S
C1478 H1490 0.960 . S
C1478 H1491 0.962 . S
C1478 H1492 0.960 . S
C1479 C1476 1.511 . S
C1479 H1493 0.961 . S
C1479 H1494 0.961 . S
C1479 H1495 0.961 . S
C1480 C1481 1.370 . S
C1480 C1482 1.363 . S
C1480 H1496 0.931 . S
C1481 C1480 1.370 . S
C1481 C1485 1.408 . S
C1482 C1480 1.363 . S
C1482 C1483 1.370 . S
C1482 C1486 1.524 . S
C1483 C1475 1.503 . S
C1483 C1482 1.370 . S
C1483 C1484 1.403 . S
C1484 C1483 1.403 . S
C1484 C1485 1.404 . S
C1484 C1487 1.539 . S
C1485 C1481 1.408 . S
C1485 C1484 1.404 . S
C1485 H1497 0.930 . S
C1486 C1482 1.524 . S
C1486 H1498 0.956 . S
C1486 H1499 0.961 . S
C1486 H1500 0.961 . S
C1487 C1484 1.539 . S
C1487 H1501 0.958 . S
C1487 H1502 0.961 . S
C1487 H1503 0.960 . S
H1488 C1472 0.931 . S
H1489 C1477 0.929 . S
H1490 C1478 0.960 . S
H1491 C1478 0.962 . S
H1492 C1478 0.960 . S
H1493 C1479 0.961 . S
H1494 C1479 0.961 . S
H1495 C1479 0.961 . S
H1496 C1480 0.931 . S
H1497 C1485 0.930 . S
H1498 C1486 0.956 . S
H1499 C1486 0.961 . S
H1500 C1486 0.961 . S
H1501 C1487 0.958 . S
H1502 C1487 0.961 . S
H1503 C1487 0.960 . S
C1504 C1505 1.391 . S
C1504 C1506 1.394 . S
C1504 H1520 0.931 . S
C1505 C1504 1.391 . S
C1505 C1509 1.376 . S
C1506 C1504 1.394 . S
C1506 C1507 1.369 . S
C1506 C1510 1.531 . S
C1507 C1506 1.369 . S
C1507 C1508 1.410 . S
C1507 C1515 1.503 . S
C1508 C1507 1.410 . S
C1508 C1509 1.392 . S
C1508 C1511 1.511 . S
C1509 C1505 1.376 . S
C1509 C1508 1.392 . S
C1509 H1521 0.929 . S
C1510 C1506 1.531 . S
C1510 H1522 0.960 . S
C1510 H1523 0.962 . S
C1510 H1524 0.960 . S
C1511 C1508 1.511 . S
C1511 H1525 0.961 . S
C1511 H1526 0.961 . S
C1511 H1527 0.961 . S
C1512 C1513 1.370 . S
C1512 C1514 1.363 1_655 S
C1512 H1528 0.931 . S
C1513 C1512 1.370 . S
C1513 C1517 1.408 . S
C1514 C1512 1.363 1_455 S
C1514 C1515 1.370 . S
C1514 C1518 1.524 . S
C1515 C1507 1.503 . S
C1515 C1514 1.370 . S
C1515 C1516 1.403 . S
C1516 C1515 1.403 . S
C1516 C1517 1.404 1_455 S
C1516 C1519 1.539 . S
C1517 C1513 1.408 . S
C1517 C1516 1.404 1_655 S
C1517 H1529 0.930 . S
C1518 C1514 1.524 . S
C1518 H1530 0.956 . S
C1518 H1531 0.961 . S
C1518 H1532 0.961 . S
C1519 C1516 1.539 . S
C1519 H1533 0.958 . S
C1519 H1534 0.961 . S
C1519 H1535 0.960 . S
H1520 C1504 0.931 . S
H1521 C1509 0.929 . S
H1522 C1510 0.960 . S
H1523 C1510 0.962 . S
H1524 C1510 0.960 . S
H1525 C1511 0.961 . S
H1526 C1511 0.961 . S
H1527 C1511 0.961 . S
H1528 C1512 0.931 . S
H1529 C1517 0.930 . S
H1530 C1518 0.956 . S
H1531 C1518 0.961 . S
H1532 C1518 0.961 . S
H1533 C1519 0.958 . S
H1534 C1519 0.961 . S
H1535 C1519 0.960 . S
C1536 C1537 1.391 . S
C1536 C1538 1.394 . S
C1536 H1552 0.931 . S
C1537 C1536 1.391 . S
C1537 C1541 1.376 . S
C1538 C1536 1.394 . S
C1538 C1539 1.369 . S
C1538 C1542 1.531 . S
C1539 C1538 1.369 . S
C1539 C1540 1.410 . S
C1539 C1547 1.503 . S
C1540 C1539 1.410 . S
C1540 C1541 1.392 . S
C1540 C1543 1.511 . S
C1541 C1537 1.376 . S
C1541 C1540 1.392 . S
C1541 H1553 0.929 . S
C1542 C1538 1.531 . S
C1542 H1554 0.960 . S
C1542 H1555 0.962 . S
C1542 H1556 0.960 . S
C1543 C1540 1.511 . S
C1543 H1557 0.961 . S
C1543 H1558 0.961 . S
C1543 H1559 0.961 . S
C1544 C1545 1.370 . S
C1544 C1546 1.363 . S
C1544 H1560 0.931 . S
C1545 C1544 1.370 . S
C1545 C1549 1.408 . S
C1546 C1544 1.363 . S
C1546 C1547 1.370 . S
C1546 C1550 1.524 . S
C1547 C1539 1.503 . S
C1547 C1546 1.370 . S
C1547 C1548 1.403 . S
C1548 C1547 1.403 . S
C1548 C1549 1.404 . S
C1548 C1551 1.539 . S
C1549 C1545 1.408 . S
C1549 C1548 1.404 . S
C1549 H1561 0.930 . S
C1550 C1546 1.524 . S
C1550 H1562 0.956 . S
C1550 H1563 0.961 . S
C1550 H1564 0.961 . S
C1551 C1548 1.539 . S
C1551 H1565 0.958 . S
C1551 H1566 0.961 . S
C1551 H1567 0.960 . S
H1552 C1536 0.931 . S
H1553 C1541 0.929 . S
H1554 C1542 0.960 . S
H1555 C1542 0.962 . S
H1556 C1542 0.960 . S
H1557 C1543 0.961 . S
H1558 C1543 0.961 . S
H1559 C1543 0.961 . S
H1560 C1544 0.931 . S
H1561 C1549 0.930 . S
H1562 C1550 0.956 . S
H1563 C1550 0.961 . S
H1564 C1550 0.961 . S
H1565 C1551 0.958 . S
H1566 C1551 0.961 . S
H1567 C1551 0.960 . S
C1568 C1569 1.391 . S
C1568 C1570 1.394 . S
C1568 H1584 0.931 . S
C1569 C1568 1.391 . S
C1569 C1573 1.376 . S
C1570 C1568 1.394 . S
C1570 C1571 1.369 . S
C1570 C1574 1.531 . S
C1571 C1570 1.369 . S
C1571 C1572 1.410 . S
C1571 C1579 1.503 . S
C1572 C1571 1.410 . S
C1572 C1573 1.392 . S
C1572 C1575 1.511 . S
C1573 C1569 1.376 . S
C1573 C1572 1.392 . S
C1573 H1585 0.929 . S
C1574 C1570 1.531 . S
C1574 H1586 0.960 . S
C1574 H1587 0.962 . S
C1574 H1588 0.960 . S
C1575 C1572 1.511 . S
C1575 H1589 0.961 . S
C1575 H1590 0.961 . S
C1575 H1591 0.961 . S
C1576 C1577 1.370 . S
C1576 C1578 1.363 . S
C1576 H1592 0.931 . S
C1577 C1576 1.370 . S
C1577 C1581 1.408 . S
C1578 C1576 1.363 . S
C1578 C1579 1.370 . S
C1578 C1582 1.524 . S
C1579 C1571 1.503 . S
C1579 C1578 1.370 . S
C1579 C1580 1.403 . S
C1580 C1579 1.403 . S
C1580 C1581 1.404 . S
C1580 C1583 1.539 . S
C1581 C1577 1.408 . S
C1581 C1580 1.404 . S
C1581 H1593 0.930 . S
C1582 C1578 1.524 . S
C1582 H1594 0.956 . S
C1582 H1595 0.961 . S
C1582 H1596 0.961 . S
C1583 C1580 1.539 . S
C1583 H1597 0.958 . S
C1583 H1598 0.961 . S
C1583 H1599 0.960 . S
H1584 C1568 0.931 . S
H1585 C1573 0.929 . S
H1586 C1574 0.960 . S
H1587 C1574 0.962 . S
H1588 C1574 0.960 . S
H1589 C1575 0.961 . S
H1590 C1575 0.961 . S
H1591 C1575 0.961 . S
H1592 C1576 0.931 . S
H1593 C1581 0.930 . S
H1594 C1582 0.956 . S
H1595 C1582 0.961 . S
H1596 C1582 0.961 . S
H1597 C1583 0.958 . S
H1598 C1583 0.961 . S
H1599 C1583 0.960 . S
C1600 C1601 1.391 . S
C1600 C1602 1.394 . S
C1600 H1616 0.931 . S
C1601 C1600 1.391 . S
C1601 C1605 1.376 . S
C1602 C1600 1.394 . S
C1602 C1603 1.369 . S
C1602 C1606 1.531 . S
C1603 C1602 1.369 . S
C1603 C1604 1.410 . S
C1603 C1611 1.503 . S
C1604 C1603 1.410 . S
C1604 C1605 1.392 . S
C1604 C1607 1.511 . S
C1605 C1601 1.376 . S
C1605 C1604 1.392 . S
C1605 H1617 0.929 . S
C1606 C1602 1.531 . S
C1606 H1618 0.960 . S
C1606 H1619 0.962 . S
C1606 H1620 0.960 . S
C1607 C1604 1.511 . S
C1607 H1621 0.961 . S
C1607 H1622 0.961 . S
C1607 H1623 0.961 . S
C1608 C1609 1.370 . S
C1608 C1610 1.363 . S
C1608 H1624 0.931 . S
C1609 C1608 1.370 . S
C1609 C1613 1.408 . S
C1610 C1608 1.363 . S
C1610 C1611 1.370 . S
C1610 C1614 1.524 . S
C1611 C1603 1.503 . S
C1611 C1610 1.370 . S
C1611 C1612 1.403 . S
C1612 C1611 1.403 . S
C1612 C1613 1.404 . S
C1612 C1615 1.539 . S
C1613 C1609 1.408 . S
C1613 C1612 1.404 . S
C1613 H1625 0.930 . S
C1614 C1610 1.524 . S
C1614 H1626 0.956 . S
C1614 H1627 0.961 . S
C1614 H1628 0.961 . S
C1615 C1612 1.539 . S
C1615 H1629 0.958 . S
C1615 H1630 0.961 . S
C1615 H1631 0.960 . S
H1616 C1600 0.931 . S
H1617 C1605 0.929 . S
H1618 C1606 0.960 . S
H1619 C1606 0.962 . S
H1620 C1606 0.960 . S
H1621 C1607 0.961 . S
H1622 C1607 0.961 . S
H1623 C1607 0.961 . S
H1624 C1608 0.931 . S
H1625 C1613 0.930 . S
H1626 C1614 0.956 . S
H1627 C1614 0.961 . S
H1628 C1614 0.961 . S
H1629 C1615 0.958 . S
H1630 C1615 0.961 . S
H1631 C1615 0.960 . S
C1632 C1633 1.391 . S
C1632 C1634 1.394 . S
C1632 H1648 0.931 . S
C1633 C1632 1.391 . S
C1633 C1637 1.376 . S
C1634 C1632 1.394 . S
C1634 C1635 1.369 . S
C1634 C1638 1.531 . S
C1635 C1634 1.369 . S
C1635 C1636 1.410 . S
C1635 C1643 1.503 . S
C1636 C1635 1.410 . S
C1636 C1637 1.392 . S
C1636 C1639 1.511 . S
C1637 C1633 1.376 . S
C1637 C1636 1.392 . S
C1637 H1649 0.929 . S
C1638 C1634 1.531 . S
C1638 H1650 0.960 . S
C1638 H1651 0.962 . S
C1638 H1652 0.960 . S
C1639 C1636 1.511 . S
C1639 H1653 0.961 . S
C1639 H1654 0.961 . S
C1639 H1655 0.961 . S
C1640 C1641 1.370 . S
C1640 C1642 1.363 . S
C1640 H1656 0.931 . S
C1641 C1640 1.370 . S
C1641 C1645 1.408 . S
C1642 C1640 1.363 . S
C1642 C1643 1.370 . S
C1642 C1646 1.524 . S
C1643 C1635 1.503 . S
C1643 C1642 1.370 . S
C1643 C1644 1.403 . S
C1644 C1643 1.403 . S
C1644 C1645 1.404 . S
C1644 C1647 1.539 . S
C1645 C1641 1.408 . S
C1645 C1644 1.404 . S
C1645 H1657 0.930 . S
C1646 C1642 1.524 . S
C1646 H1658 0.956 . S
C1646 H1659 0.961 . S
C1646 H1660 0.961 . S
C1647 C1644 1.539 . S
C1647 H1661 0.958 . S
C1647 H1662 0.961 . S
C1647 H1663 0.960 . S
H1648 C1632 0.931 . S
H1649 C1637 0.929 . S
H1650 C1638 0.960 . S
H1651 C1638 0.962 . S
H1652 C1638 0.960 . S
H1653 C1639 0.961 . S
H1654 C1639 0.961 . S
H1655 C1639 0.961 . S
H1656 C1640 0.931 . S
H1657 C1645 0.930 . S
H1658 C1646 0.956 . S
H1659 C1646 0.961 . S
H1660 C1646 0.961 . S
H1661 C1647 0.958 . S
H1662 C1647 0.961 . S
H1663 C1647 0.960 . S
C1664 C1665 1.391 . S
C1664 C1666 1.394 . S
C1664 H1680 0.931 . S
C1665 C1664 1.391 . S
C1665 C1669 1.376 . S
C1666 C1664 1.394 . S
C1666 C1667 1.369 . S
C1666 C1670 1.531 . S
C1667 C1666 1.369 . S
C1667 C1668 1.410 . S
C1667 C1675 1.503 . S
C1668 C1667 1.410 . S
C1668 C1669 1.392 . S
C1668 C1671 1.511 . S
C1669 C1665 1.376 . S
C1669 C1668 1.392 . S
C1669 H1681 0.929 . S
C1670 C1666 1.531 . S
C1670 H1682 0.960 . S
C1670 H1683 0.962 . S
C1670 H1684 0.960 . S
C1671 C1668 1.511 . S
C1671 H1685 0.961 . S
C1671 H1686 0.961 . S
C1671 H1687 0.961 . S
C1672 C1673 1.370 . S
C1672 C1674 1.363 . S
C1672 H1688 0.931 . S
C1673 C1672 1.370 . S
C1673 C1677 1.408 . S
C1674 C1672 1.363 . S
C1674 C1675 1.370 . S
C1674 C1678 1.524 . S
C1675 C1667 1.503 . S
C1675 C1674 1.370 . S
C1675 C1676 1.403 . S
C1676 C1675 1.403 . S
C1676 C1677 1.404 . S
C1676 C1679 1.539 . S
C1677 C1673 1.408 . S
C1677 C1676 1.404 . S
C1677 H1689 0.930 . S
C1678 C1674 1.524 . S
C1678 H1690 0.956 . S
C1678 H1691 0.961 . S
C1678 H1692 0.961 . S
C1679 C1676 1.539 . S
C1679 H1693 0.958 . S
C1679 H1694 0.961 . S
C1679 H1695 0.960 . S
H1680 C1664 0.931 . S
H1681 C1669 0.929 . S
H1682 C1670 0.960 . S
H1683 C1670 0.962 . S
H1684 C1670 0.960 . S
H1685 C1671 0.961 . S
H1686 C1671 0.961 . S
H1687 C1671 0.961 . S
H1688 C1672 0.931 . S
H1689 C1677 0.930 . S
H1690 C1678 0.956 . S
H1691 C1678 0.961 . S
H1692 C1678 0.961 . S
H1693 C1679 0.958 . S
H1694 C1679 0.961 . S
H1695 C1679 0.960 . S
C1696 C1697 1.391 . S
C1696 C1698 1.394 . S
C1696 H1712 0.931 . S
C1697 C1696 1.391 . S
C1697 C1701 1.376 . S
C1698 C1696 1.394 . S
C1698 C1699 1.369 . S
C1698 C1702 1.531 . S
C1699 C1698 1.369 . S
C1699 C1700 1.410 . S
C1699 C1707 1.503 . S
C1700 C1699 1.410 . S
C1700 C1701 1.392 . S
C1700 C1703 1.511 . S
C1701 C1697 1.376 . S
C1701 C1700 1.392 . S
C1701 H1713 0.929 . S
C1702 C1698 1.531 . S
C1702 H1714 0.960 . S
C1702 H1715 0.962 . S
C1702 H1716 0.960 . S
C1703 C1700 1.511 . S
C1703 H1717 0.961 . S
C1703 H1718 0.961 . S
C1703 H1719 0.961 . S
C1704 C1705 1.370 . S
C1704 C1706 1.363 1_655 S
C1704 H1720 0.931 . S
C1705 C1704 1.370 . S
C1705 C1709 1.408 1_655 S
C1706 C1704 1.363 1_455 S
C1706 C1707 1.370 . S
C1706 C1710 1.524 . S
C1707 C1699 1.503 . S
C1707 C1706 1.370 . S
C1707 C1708 1.403 . S
C1708 C1707 1.403 . S
C1708 C1709 1.404 . S
C1708 C1711 1.539 . S
C1709 C1705 1.408 1_455 S
C1709 C1708 1.404 . S
C1709 H1721 0.930 1_455 S
C1710 C1706 1.524 . S
C1710 H1722 0.956 . S
C1710 H1723 0.961 . S
C1710 H1724 0.961 . S
C1711 C1708 1.539 . S
C1711 H1725 0.958 . S
C1711 H1726 0.961 . S
C1711 H1727 0.960 . S
H1712 C1696 0.931 . S
H1713 C1701 0.929 . S
H1714 C1702 0.960 . S
H1715 C1702 0.962 . S
H1716 C1702 0.960 . S
H1717 C1703 0.961 . S
H1718 C1703 0.961 . S
H1719 C1703 0.961 . S
H1720 C1704 0.931 . S
H1721 C1709 0.930 1_655 S
H1722 C1710 0.956 . S
H1723 C1710 0.961 . S
H1724 C1710 0.961 . S
H1725 C1711 0.958 . S
H1726 C1711 0.961 . S
H1727 C1711 0.960 . S
C1728 C1729 1.391 . S
C1728 C1730 1.394 . S
C1728 H1744 0.931 . S
C1729 C1728 1.391 . S
C1729 C1733 1.376 . S
C1730 C1728 1.394 . S
C1730 C1731 1.369 . S
C1730 C1734 1.531 . S
C1731 C1730 1.369 . S
C1731 C1732 1.410 . S
C1731 C1739 1.503 . S
C1732 C1731 1.410 . S
C1732 C1733 1.392 . S
C1732 C1735 1.511 . S
C1733 C1729 1.376 . S
C1733 C1732 1.392 . S
C1733 H1745 0.929 . S
C1734 C1730 1.531 . S
C1734 H1746 0.960 . S
C1734 H1747 0.962 . S
C1734 H1748 0.960 . S
C1735 C1732 1.511 . S
C1735 H1749 0.961 . S
C1735 H1750 0.961 . S
C1735 H1751 0.961 . S
C1736 C1737 1.370 . S
C1736 C1738 1.363 . S
C1736 H1752 0.931 . S
C1737 C1736 1.370 . S
C1737 C1741 1.408 . S
C1738 C1736 1.363 . S
C1738 C1739 1.370 . S
C1738 C1742 1.524 . S
C1739 C1731 1.503 . S
C1739 C1738 1.370 . S
C1739 C1740 1.403 . S
C1740 C1739 1.403 . S
C1740 C1741 1.404 . S
C1740 C1743 1.539 . S
C1741 C1737 1.408 . S
C1741 C1740 1.404 . S
C1741 H1753 0.930 . S
C1742 C1738 1.524 . S
C1742 H1754 0.956 . S
C1742 H1755 0.961 . S
C1742 H1756 0.961 . S
C1743 C1740 1.539 . S
C1743 H1757 0.958 . S
C1743 H1758 0.961 . S
C1743 H1759 0.960 . S
H1744 C1728 0.931 . S
H1745 C1733 0.929 . S
H1746 C1734 0.960 . S
H1747 C1734 0.962 . S
H1748 C1734 0.960 . S
H1749 C1735 0.961 . S
H1750 C1735 0.961 . S
H1751 C1735 0.961 . S
H1752 C1736 0.931 . S
H1753 C1741 0.930 . S
H1754 C1742 0.956 . S
H1755 C1742 0.961 . S
H1756 C1742 0.961 . S
H1757 C1743 0.958 . S
H1758 C1743 0.961 . S
H1759 C1743 0.960 . S
C1760 C1761 1.391 . S
C1760 C1762 1.394 1_455 S
C1760 H1776 0.931 . S
C1761 C1760 1.391 . S
C1761 C1765 1.376 1_455 S
C1762 C1760 1.394 1_655 S
C1762 C1763 1.369 . S
C1762 C1766 1.531 . S
C1763 C1762 1.369 . S
C1763 C1764 1.410 . S
C1763 C1771 1.503 . S
C1764 C1763 1.410 . S
C1764 C1765 1.392 . S
C1764 C1767 1.511 . S
C1765 C1761 1.376 1_655 S
C1765 C1764 1.392 . S
C1765 H1777 0.929 . S
C1766 C1762 1.531 . S
C1766 H1778 0.960 . S
C1766 H1779 0.962 . S
C1766 H1780 0.960 1_655 S
C1767 C1764 1.511 . S
C1767 H1781 0.961 . S
C1767 H1782 0.961 . S
C1767 H1783 0.961 . S
C1768 C1769 1.370 . S
C1768 C1770 1.363 . S
C1768 H1784 0.931 . S
C1769 C1768 1.370 . S
C1769 C1773 1.408 . S
C1770 C1768 1.363 . S
C1770 C1771 1.370 . S
C1770 C1774 1.524 . S
C1771 C1763 1.503 . S
C1771 C1770 1.370 . S
C1771 C1772 1.403 . S
C1772 C1771 1.403 . S
C1772 C1773 1.404 . S
C1772 C1775 1.539 . S
C1773 C1769 1.408 . S
C1773 C1772 1.404 . S
C1773 H1785 0.930 . S
C1774 C1770 1.524 . S
C1774 H1786 0.956 . S
C1774 H1787 0.961 . S
C1774 H1788 0.961 . S
C1775 C1772 1.539 . S
C1775 H1789 0.958 . S
C1775 H1790 0.961 . S
C1775 H1791 0.960 . S
H1776 C1760 0.931 . S
H1777 C1765 0.929 . S
H1778 C1766 0.960 . S
H1779 C1766 0.962 . S
H1780 C1766 0.960 1_455 S
H1781 C1767 0.961 . S
H1782 C1767 0.961 . S
H1783 C1767 0.961 . S
H1784 C1768 0.931 . S
H1785 C1773 0.930 . S
H1786 C1774 0.956 . S
H1787 C1774 0.961 . S
H1788 C1774 0.961 . S
H1789 C1775 0.958 . S
H1790 C1775 0.961 . S
H1791 C1775 0.960 . S
C1792 C1793 1.391 . S
C1792 C1794 1.394 . S
C1792 H1808 0.931 . S
C1793 C1792 1.391 . S
C1793 C1797 1.376 . S
C1794 C1792 1.394 . S
C1794 C1795 1.369 . S
C1794 C1798 1.531 . S
C1795 C1794 1.369 . S
C1795 C1796 1.410 . S
C1795 C1803 1.503 . S
C1796 C1795 1.410 . S
C1796 C1797 1.392 . S
C1796 C1799 1.511 . S
C1797 C1793 1.376 . S
C1797 C1796 1.392 . S
C1797 H1809 0.929 . S
C1798 C1794 1.531 . S
C1798 H1810 0.960 . S
C1798 H1811 0.962 . S
C1798 H1812 0.960 . S
C1799 C1796 1.511 . S
C1799 H1813 0.961 . S
C1799 H1814 0.961 . S
C1799 H1815 0.961 . S
C1800 C1801 1.370 . S
C1800 C1802 1.363 . S
C1800 H1816 0.931 . S
C1801 C1800 1.370 . S
C1801 C1805 1.408 . S
C1802 C1800 1.363 . S
C1802 C1803 1.370 . S
C1802 C1806 1.524 . S
C1803 C1795 1.503 . S
C1803 C1802 1.370 . S
C1803 C1804 1.403 . S
C1804 C1803 1.403 . S
C1804 C1805 1.404 . S
C1804 C1807 1.539 . S
C1805 C1801 1.408 . S
C1805 C1804 1.404 . S
C1805 H1817 0.930 . S
C1806 C1802 1.524 . S
C1806 H1818 0.956 . S
C1806 H1819 0.961 . S
C1806 H1820 0.961 . S
C1807 C1804 1.539 . S
C1807 H1821 0.958 . S
C1807 H1822 0.961 . S
C1807 H1823 0.960 . S
H1808 C1792 0.931 . S
H1809 C1797 0.929 . S
H1810 C1798 0.960 . S
H1811 C1798 0.962 . S
H1812 C1798 0.960 . S
H1813 C1799 0.961 . S
H1814 C1799 0.961 . S
H1815 C1799 0.961 . S
H1816 C1800 0.931 . S
H1817 C1805 0.930 . S
H1818 C1806 0.956 . S
H1819 C1806 0.961 . S
H1820 C1806 0.961 . S
H1821 C1807 0.958 . S
H1822 C1807 0.961 . S
H1823 C1807 0.960 . S
C1824 C1825 1.391 . S
C1824 C1826 1.394 . S
C1824 H1840 0.931 . S
C1825 C1824 1.391 . S
C1825 C1829 1.376 . S
C1826 C1824 1.394 . S
C1826 C1827 1.369 . S
C1826 C1830 1.531 . S
C1827 C1826 1.369 . S
C1827 C1828 1.410 . S
C1827 C1835 1.503 . S
C1828 C1827 1.410 . S
C1828 C1829 1.392 . S
C1828 C1831 1.511 . S
C1829 C1825 1.376 . S
C1829 C1828 1.392 . S
C1829 H1841 0.929 . S
C1830 C1826 1.531 . S
C1830 H1842 0.960 . S
C1830 H1843 0.962 . S
C1830 H1844 0.960 . S
C1831 C1828 1.511 . S
C1831 H1845 0.961 . S
C1831 H1846 0.961 . S
C1831 H1847 0.961 . S
C1832 C1833 1.370 . S
C1832 C1834 1.363 . S
C1832 H1848 0.931 . S
C1833 C1832 1.370 . S
C1833 C1837 1.408 . S
C1834 C1832 1.363 . S
C1834 C1835 1.370 . S
C1834 C1838 1.524 . S
C1835 C1827 1.503 . S
C1835 C1834 1.370 . S
C1835 C1836 1.403 . S
C1836 C1835 1.403 . S
C1836 C1837 1.404 . S
C1836 C1839 1.539 . S
C1837 C1833 1.408 . S
C1837 C1836 1.404 . S
C1837 H1849 0.930 . S
C1838 C1834 1.524 . S
C1838 H1850 0.956 . S
C1838 H1851 0.961 . S
C1838 H1852 0.961 . S
C1839 C1836 1.539 . S
C1839 H1853 0.958 . S
C1839 H1854 0.961 . S
C1839 H1855 0.960 . S
H1840 C1824 0.931 . S
H1841 C1829 0.929 . S
H1842 C1830 0.960 . S
H1843 C1830 0.962 . S
H1844 C1830 0.960 . S
H1845 C1831 0.961 . S
H1846 C1831 0.961 . S
H1847 C1831 0.961 . S
H1848 C1832 0.931 . S
H1849 C1837 0.930 . S
H1850 C1838 0.956 . S
H1851 C1838 0.961 . S
H1852 C1838 0.961 . S
H1853 C1839 0.958 . S
H1854 C1839 0.961 . S
H1855 C1839 0.960 . S
C1856 C1857 1.391 . S
C1856 C1858 1.394 . S
C1856 H1872 0.931 . S
C1857 C1856 1.391 . S
C1857 C1861 1.376 . S
C1858 C1856 1.394 . S
C1858 C1859 1.369 . S
C1858 C1862 1.531 . S
C1859 C1858 1.369 . S
C1859 C1860 1.410 . S
C1859 C1867 1.503 . S
C1860 C1859 1.410 . S
C1860 C1861 1.392 . S
C1860 C1863 1.511 . S
C1861 C1857 1.376 . S
C1861 C1860 1.392 . S
C1861 H1873 0.929 . S
C1862 C1858 1.531 . S
C1862 H1874 0.960 . S
C1862 H1875 0.962 . S
C1862 H1876 0.960 . S
C1863 C1860 1.511 . S
C1863 H1877 0.961 . S
C1863 H1878 0.961 . S
C1863 H1879 0.961 . S
C1864 C1865 1.370 . S
C1864 C1866 1.363 . S
C1864 H1880 0.931 . S
C1865 C1864 1.370 . S
C1865 C1869 1.408 . S
C1866 C1864 1.363 . S
C1866 C1867 1.370 . S
C1866 C1870 1.524 . S
C1867 C1859 1.503 . S
C1867 C1866 1.370 . S
C1867 C1868 1.403 . S
C1868 C1867 1.403 . S
C1868 C1869 1.404 . S
C1868 C1871 1.539 . S
C1869 C1865 1.408 . S
C1869 C1868 1.404 . S
C1869 H1881 0.930 . S
C1870 C1866 1.524 . S
C1870 H1882 0.956 . S
C1870 H1883 0.961 . S
C1870 H1884 0.961 . S
C1871 C1868 1.539 . S
C1871 H1885 0.958 . S
C1871 H1886 0.961 . S
C1871 H1887 0.960 . S
H1872 C1856 0.931 . S
H1873 C1861 0.929 . S
H1874 C1862 0.960 . S
H1875 C1862 0.962 . S
H1876 C1862 0.960 . S
H1877 C1863 0.961 . S
H1878 C1863 0.961 . S
H1879 C1863 0.961 . S
H1880 C1864 0.931 . S
H1881 C1869 0.930 . S
H1882 C1870 0.956 . S
H1883 C1870 0.961 . S
H1884 C1870 0.961 . S
H1885 C1871 0.958 . S
H1886 C1871 0.961 . S
H1887 C1871 0.960 . S
C1888 C1889 1.391 . S
C1888 C1890 1.394 . S
C1888 H1904 0.931 . S
C1889 C1888 1.391 . S
C1889 C1893 1.376 . S
C1890 C1888 1.394 . S
C1890 C1891 1.369 . S
C1890 C1894 1.531 . S
C1891 C1890 1.369 . S
C1891 C1892 1.410 . S
C1891 C1899 1.503 . S
C1892 C1891 1.410 . S
C1892 C1893 1.392 . S
C1892 C1895 1.511 . S
C1893 C1889 1.376 . S
C1893 C1892 1.392 . S
C1893 H1905 0.929 . S
C1894 C1890 1.531 . S
C1894 H1906 0.960 . S
C1894 H1907 0.962 . S
C1894 H1908 0.960 . S
C1895 C1892 1.511 . S
C1895 H1909 0.961 . S
C1895 H1910 0.961 . S
C1895 H1911 0.961 . S
C1896 C1897 1.370 . S
C1896 C1898 1.363 . S
C1896 H1912 0.931 . S
C1897 C1896 1.370 . S
C1897 C1901 1.408 . S
C1898 C1896 1.363 . S
C1898 C1899 1.370 . S
C1898 C1902 1.524 . S
C1899 C1891 1.503 . S
C1899 C1898 1.370 . S
C1899 C1900 1.403 . S
C1900 C1899 1.403 . S
C1900 C1901 1.404 . S
C1900 C1903 1.539 . S
C1901 C1897 1.408 . S
C1901 C1900 1.404 . S
C1901 H1913 0.930 . S
C1902 C1898 1.524 . S
C1902 H1914 0.956 . S
C1902 H1915 0.961 . S
C1902 H1916 0.961 . S
C1903 C1900 1.539 . S
C1903 H1917 0.958 . S
C1903 H1918 0.961 . S
C1903 H1919 0.960 . S
H1904 C1888 0.931 . S
H1905 C1893 0.929 . S
H1906 C1894 0.960 . S
H1907 C1894 0.962 . S
H1908 C1894 0.960 . S
H1909 C1895 0.961 . S
H1910 C1895 0.961 . S
H1911 C1895 0.961 . S
H1912 C1896 0.931 . S
H1913 C1901 0.930 . S
H1914 C1902 0.956 . S
H1915 C1902 0.961 . S
H1916 C1902 0.961 . S
H1917 C1903 0.958 . S
H1918 C1903 0.961 . S
H1919 C1903 0.960 . S
C1920 C1921 1.391 . S
C1920 C1922 1.394 . S
C1920 H1936 0.931 . S
C1921 C1920 1.391 . S
C1921 C1925 1.376 . S
C1922 C1920 1.394 . S
C1922 C1923 1.369 . S
C1922 C1926 1.531 . S
C1923 C1922 1.369 . S
C1923 C1924 1.410 . S
C1923 C1931 1.503 . S
C1924 C1923 1.410 . S
C1924 C1925 1.392 . S
C1924 C1927 1.511 . S
C1925 C1921 1.376 . S
C1925 C1924 1.392 . S
C1925 H1937 0.929 . S
C1926 C1922 1.531 . S
C1926 H1938 0.960 . S
C1926 H1939 0.962 . S
C1926 H1940 0.960 . S
C1927 C1924 1.511 . S
C1927 H1941 0.961 . S
C1927 H1942 0.961 . S
C1927 H1943 0.961 . S
C1928 C1929 1.370 . S
C1928 C1930 1.363 . S
C1928 H1944 0.931 . S
C1929 C1928 1.370 . S
C1929 C1933 1.408 . S
C1930 C1928 1.363 . S
C1930 C1931 1.370 . S
C1930 C1934 1.524 . S
C1931 C1923 1.503 . S
C1931 C1930 1.370 . S
C1931 C1932 1.403 . S
C1932 C1931 1.403 . S
C1932 C1933 1.404 . S
C1932 C1935 1.539 . S
C1933 C1929 1.408 . S
C1933 C1932 1.404 . S
C1933 H1945 0.930 . S
C1934 C1930 1.524 . S
C1934 H1946 0.956 . S
C1934 H1947 0.961 . S
C1934 H1948 0.961 . S
C1935 C1932 1.539 . S
C1935 H1949 0.958 . S
C1935 H1950 0.961 . S
C1935 H1951 0.960 . S
H1936 C1920 0.931 . S
H1937 C1925 0.929 . S
H1938 C1926 0.960 . S
H1939 C1926 0.962 . S
H1940 C1926 0.960 . S
H1941 C1927 0.961 . S
H1942 C1927 0.961 . S
H1943 C1927 0.961 . S
H1944 C1928 0.931 . S
H1945 C1933 0.930 . S
H1946 C1934 0.956 . S
H1947 C1934 0.961 . S
H1948 C1934 0.961 . S
H1949 C1935 0.958 . S
H1950 C1935 0.961 . S
H1951 C1935 0.960 . S
C1952 C1953 1.391 . S
C1952 C1954 1.394 1_455 S
C1952 H1968 0.931 . S
C1953 C1952 1.391 . S
C1953 C1957 1.376 1_455 S
C1954 C1952 1.394 1_655 S
C1954 C1955 1.369 . S
C1954 C1958 1.531 . S
C1955 C1954 1.369 . S
C1955 C1956 1.410 . S
C1955 C1963 1.503 . S
C1956 C1955 1.410 . S
C1956 C1957 1.392 . S
C1956 C1959 1.511 . S
C1957 C1953 1.376 1_655 S
C1957 C1956 1.392 . S
C1957 H1969 0.929 . S
C1958 C1954 1.531 . S
C1958 H1970 0.960 . S
C1958 H1971 0.962 . S
C1958 H1972 0.960 1_655 S
C1959 C1956 1.511 . S
C1959 H1973 0.961 . S
C1959 H1974 0.961 . S
C1959 H1975 0.961 . S
C1960 C1961 1.370 . S
C1960 C1962 1.363 . S
C1960 H1976 0.931 . S
C1961 C1960 1.370 . S
C1961 C1965 1.408 . S
C1962 C1960 1.363 . S
C1962 C1963 1.370 . S
C1962 C1966 1.524 . S
C1963 C1955 1.503 . S
C1963 C1962 1.370 . S
C1963 C1964 1.403 . S
C1964 C1963 1.403 . S
C1964 C1965 1.404 . S
C1964 C1967 1.539 . S
C1965 C1961 1.408 . S
C1965 C1964 1.404 . S
C1965 H1977 0.930 . S
C1966 C1962 1.524 . S
C1966 H1978 0.956 . S
C1966 H1979 0.961 . S
C1966 H1980 0.961 . S
C1967 C1964 1.539 . S
C1967 H1981 0.958 . S
C1967 H1982 0.961 . S
C1967 H1983 0.960 . S
H1968 C1952 0.931 . S
H1969 C1957 0.929 . S
H1970 C1958 0.960 . S
H1971 C1958 0.962 . S
H1972 C1958 0.960 1_455 S
H1973 C1959 0.961 . S
H1974 C1959 0.961 . S
H1975 C1959 0.961 . S
H1976 C1960 0.931 . S
H1977 C1965 0.930 . S
H1978 C1966 0.956 . S
H1979 C1966 0.961 . S
H1980 C1966 0.961 . S
H1981 C1967 0.958 . S
H1982 C1967 0.961 . S
H1983 C1967 0.960 . S
C1984 C1985 1.391 . S
C1984 C1986 1.394 . S
C1984 H2000 0.931 . S
C1985 C1984 1.391 . S
C1985 C1989 1.376 . S
C1986 C1984 1.394 . S
C1986 C1987 1.369 . S
C1986 C1990 1.531 . S
C1987 C1986 1.369 . S
C1987 C1988 1.410 . S
C1987 C1995 1.503 . S
C1988 C1987 1.410 . S
C1988 C1989 1.392 . S
C1988 C1991 1.511 . S
C1989 C1985 1.376 . S
C1989 C1988 1.392 . S
C1989 H2001 0.929 . S
C1990 C1986 1.531 . S
C1990 H2002 0.960 . S
C1990 H2003 0.962 . S
C1990 H2004 0.960 . S
C1991 C1988 1.511 . S
C1991 H2005 0.961 . S
C1991 H2006 0.961 . S
C1991 H2007 0.961 . S
C1992 C1993 1.370 . S
C1992 C1994 1.363 . S
C1992 H2008 0.931 . S
C1993 C1992 1.370 . S
C1993 C1997 1.408 . S
C1994 C1992 1.363 . S
C1994 C1995 1.370 . S
C1994 C1998 1.524 . S
C1995 C1987 1.503 . S
C1995 C1994 1.370 . S
C1995 C1996 1.403 . S
C1996 C1995 1.403 . S
C1996 C1997 1.404 . S
C1996 C1999 1.539 . S
C1997 C1993 1.408 . S
C1997 C1996 1.404 . S
C1997 H2009 0.930 . S
C1998 C1994 1.524 . S
C1998 H2010 0.956 . S
C1998 H2011 0.961 . S
C1998 H2012 0.961 . S
C1999 C1996 1.539 . S
C1999 H2013 0.958 . S
C1999 H2014 0.961 . S
C1999 H2015 0.960 . S
H2000 C1984 0.931 . S
H2001 C1989 0.929 . S
H2002 C1990 0.960 . S
H2003 C1990 0.962 . S
H2004 C1990 0.960 . S
H2005 C1991 0.961 . S
H2006 C1991 0.961 . S
H2007 C1991 0.961 . S
H2008 C1992 0.931 . S
H2009 C1997 0.930 . S
H2010 C1998 0.956 . S
H2011 C1998 0.961 . S
H2012 C1998 0.961 . S
H2013 C1999 0.958 . S
H2014 C1999 0.961 . S
H2015 C1999 0.960 . S
C2016 C2017 1.391 . S
C2016 C2018 1.394 . S
C2016 H2032 0.931 . S
C2017 C2016 1.391 . S
C2017 C2021 1.376 . S
C2018 C2016 1.394 . S
C2018 C2019 1.369 . S
C2018 C2022 1.531 . S
C2019 C2018 1.369 . S
C2019 C2020 1.410 . S
C2019 C2027 1.503 . S
C2020 C2019 1.410 . S
C2020 C2021 1.392 . S
C2020 C2023 1.511 . S
C2021 C2017 1.376 . S
C2021 C2020 1.392 . S
C2021 H2033 0.929 . S
C2022 C2018 1.531 . S
C2022 H2034 0.960 . S
C2022 H2035 0.962 . S
C2022 H2036 0.960 . S
C2023 C2020 1.511 . S
C2023 H2037 0.961 . S
C2023 H2038 0.961 . S
C2023 H2039 0.961 . S
C2024 C2025 1.370 . S
C2024 C2026 1.363 . S
C2024 H2040 0.931 . S
C2025 C2024 1.370 . S
C2025 C2029 1.408 . S
C2026 C2024 1.363 . S
C2026 C2027 1.370 . S
C2026 C2030 1.524 . S
C2027 C2019 1.503 . S
C2027 C2026 1.370 . S
C2027 C2028 1.403 . S
C2028 C2027 1.403 . S
C2028 C2029 1.404 . S
C2028 C2031 1.539 . S
C2029 C2025 1.408 . S
C2029 C2028 1.404 . S
C2029 H2041 0.930 . S
C2030 C2026 1.524 . S
C2030 H2042 0.956 . S
C2030 H2043 0.961 . S
C2030 H2044 0.961 . S
C2031 C2028 1.539 . S
C2031 H2045 0.958 . S
C2031 H2046 0.961 . S
C2031 H2047 0.960 . S
H2032 C2016 0.931 . S
H2033 C2021 0.929 . S
H2034 C2022 0.960 . S
H2035 C2022 0.962 . S
H2036 C2022 0.960 . S
H2037 C2023 0.961 . S
H2038 C2023 0.961 . S
H2039 C2023 0.961 . S
H2040 C2024 0.931 . S
H2041 C2029 0.930 . S
H2042 C2030 0.956 . S
H2043 C2030 0.961 . S
H2044 C2030 0.961 . S
H2045 C2031 0.958 . S
H2046 C2031 0.961 . S
H2047 C2031 0.960 . S
C2048 C2049 1.391 . S
C2048 C2050 1.394 . S
C2048 H2064 0.931 . S
C2049 C2048 1.391 . S
C2049 C2053 1.376 . S
C2050 C2048 1.394 . S
C2050 C2051 1.369 . S
C2050 C2054 1.531 . S
C2051 C2050 1.369 . S
C2051 C2052 1.410 . S
C2051 C2059 1.503 . S
C2052 C2051 1.410 . S
C2052 C2053 1.392 . S
C2052 C2055 1.511 . S
C2053 C2049 1.376 . S
C2053 C2052 1.392 . S
C2053 H2065 0.929 . S
C2054 C2050 1.531 . S
C2054 H2066 0.960 . S
C2054 H2067 0.962 . S
C2054 H2068 0.960 . S
C2055 C2052 1.511 . S
C2055 H2069 0.961 . S
C2055 H2070 0.961 . S
C2055 H2071 0.961 . S
C2056 C2057 1.370 . S
C2056 C2058 1.363 . S
C2056 H2072 0.931 . S
C2057 C2056 1.370 . S
C2057 C2061 1.408 . S
C2058 C2056 1.363 . S
C2058 C2059 1.370 . S
C2058 C2062 1.524 . S
C2059 C2051 1.503 . S
C2059 C2058 1.370 . S
C2059 C2060 1.403 . S
C2060 C2059 1.403 . S
C2060 C2061 1.404 . S
C2060 C2063 1.539 . S
C2061 C2057 1.408 . S
C2061 C2060 1.404 . S
C2061 H2073 0.930 . S
C2062 C2058 1.524 . S
C2062 H2074 0.956 . S
C2062 H2075 0.961 . S
C2062 H2076 0.961 . S
C2063 C2060 1.539 . S
C2063 H2077 0.958 . S
C2063 H2078 0.961 . S
C2063 H2079 0.960 . S
H2064 C2048 0.931 . S
H2065 C2053 0.929 . S
H2066 C2054 0.960 . S
H2067 C2054 0.962 . S
H2068 C2054 0.960 . S
H2069 C2055 0.961 . S
H2070 C2055 0.961 . S
H2071 C2055 0.961 . S
H2072 C2056 0.931 . S
H2073 C2061 0.930 . S
H2074 C2062 0.956 . S
H2075 C2062 0.961 . S
H2076 C2062 0.961 . S
H2077 C2063 0.958 . S
H2078 C2063 0.961 . S
H2079 C2063 0.960 . S
C2080 C2081 1.391 . S
C2080 C2082 1.394 . S
C2080 H2096 0.931 . S
C2081 C2080 1.391 . S
C2081 C2085 1.376 . S
C2082 C2080 1.394 . S
C2082 C2083 1.369 . S
C2082 C2086 1.531 . S
C2083 C2082 1.369 . S
C2083 C2084 1.410 . S
C2083 C2091 1.503 . S
C2084 C2083 1.410 . S
C2084 C2085 1.392 . S
C2084 C2087 1.511 . S
C2085 C2081 1.376 . S
C2085 C2084 1.392 . S
C2085 H2097 0.929 . S
C2086 C2082 1.531 . S
C2086 H2098 0.960 . S
C2086 H2099 0.962 . S
C2086 H2100 0.960 . S
C2087 C2084 1.511 . S
C2087 H2101 0.961 . S
C2087 H2102 0.961 . S
C2087 H2103 0.961 . S
C2088 C2089 1.373 1_655 S
C2088 C2090 1.359 . S
C2088 H2104 0.933 1_655 S
C2089 C2088 1.373 1_455 S
C2089 C2093 1.408 . S
C2090 C2088 1.359 . S
C2090 C2091 1.370 . S
C2090 C2094 1.524 . S
C2091 C2083 1.503 . S
C2091 C2090 1.370 . S
C2091 C2092 1.403 . S
C2092 C2091 1.403 . S
C2092 C2093 1.404 1_655 S
C2092 C2095 1.539 . S
C2093 C2089 1.408 . S
C2093 C2092 1.404 1_455 S
C2093 H2105 0.930 . S
C2094 C2090 1.524 . S
C2094 H2106 0.956 . S
C2094 H2107 0.961 . S
C2094 H2108 0.961 . S
C2095 C2092 1.539 . S
C2095 H2109 0.958 . S
C2095 H2110 0.961 . S
C2095 H2111 0.960 . S
H2096 C2080 0.931 . S
H2097 C2085 0.929 . S
H2098 C2086 0.960 . S
H2099 C2086 0.962 . S
H2100 C2086 0.960 . S
H2101 C2087 0.961 . S
H2102 C2087 0.961 . S
H2103 C2087 0.961 . S
H2104 C2088 0.933 1_455 S
H2105 C2093 0.930 . S
H2106 C2094 0.956 . S
H2107 C2094 0.961 . S
H2108 C2094 0.961 . S
H2109 C2095 0.958 . S
H2110 C2095 0.961 . S
H2111 C2095 0.960 . S
C2112 C2113 1.391 . S
C2112 C2114 1.394 . S
C2112 H2128 0.931 . S
C2113 C2112 1.391 . S
C2113 C2117 1.376 . S
C2114 C2112 1.394 . S
C2114 C2115 1.369 . S
C2114 C2118 1.531 . S
C2115 C2114 1.369 . S
C2115 C2116 1.410 . S
C2115 C2123 1.503 . S
C2116 C2115 1.410 . S
C2116 C2117 1.392 . S
C2116 C2119 1.511 . S
C2117 C2113 1.376 . S
C2117 C2116 1.392 . S
C2117 H2129 0.929 . S
C2118 C2114 1.531 . S
C2118 H2130 0.960 . S
C2118 H2131 0.962 . S
C2118 H2132 0.960 . S
C2119 C2116 1.511 . S
C2119 H2133 0.961 . S
C2119 H2134 0.961 . S
C2119 H2135 0.961 . S
C2120 C2121 1.370 . S
C2120 C2122 1.363 . S
C2120 H2136 0.931 . S
C2121 C2120 1.370 . S
C2121 C2125 1.408 . S
C2122 C2120 1.363 . S
C2122 C2123 1.370 . S
C2122 C2126 1.524 . S
C2123 C2115 1.503 . S
C2123 C2122 1.370 . S
C2123 C2124 1.403 . S
C2124 C2123 1.403 . S
C2124 C2125 1.404 . S
C2124 C2127 1.539 . S
C2125 C2121 1.408 . S
C2125 C2124 1.404 . S
C2125 H2137 0.930 . S
C2126 C2122 1.524 . S
C2126 H2138 0.956 . S
C2126 H2139 0.961 . S
C2126 H2140 0.961 . S
C2127 C2124 1.539 . S
C2127 H2141 0.958 . S
C2127 H2142 0.961 . S
C2127 H2143 0.960 . S
H2128 C2112 0.931 . S
H2129 C2117 0.929 . S
H2130 C2118 0.960 . S
H2131 C2118 0.962 . S
H2132 C2118 0.960 . S
H2133 C2119 0.961 . S
H2134 C2119 0.961 . S
H2135 C2119 0.961 . S
H2136 C2120 0.931 . S
H2137 C2125 0.930 . S
H2138 C2126 0.956 . S
H2139 C2126 0.961 . S
H2140 C2126 0.961 . S
H2141 C2127 0.958 . S
H2142 C2127 0.961 . S
H2143 C2127 0.960 . S
C2144 C2145 1.391 1_655 S
C2144 C2146 1.394 . S
C2144 H2160 0.931 . S
C2145 C2144 1.391 1_455 S
C2145 C2149 1.376 . S
C2146 C2144 1.394 . S
C2146 C2147 1.369 . S
C2146 C2150 1.531 . S
C2147 C2146 1.369 . S
C2147 C2148 1.410 . S
C2147 C2155 1.503 . S
C2148 C2147 1.410 . S
C2148 C2149 1.392 1_655 S
C2148 C2151 1.511 . S
C2149 C2145 1.376 . S
C2149 C2148 1.392 1_455 S
C2149 H2161 0.929 . S
C2150 C2146 1.531 . S
C2150 H2162 0.960 . S
C2150 H2163 0.962 . S
C2150 H2164 0.960 . S
C2151 C2148 1.511 . S
C2151 H2165 0.961 1_655 S
C2151 H2166 0.961 . S
C2151 H2167 0.961 . S
C2152 C2153 1.370 . S
C2152 C2154 1.363 . S
C2152 H2168 0.931 . S
C2153 C2152 1.370 . S
C2153 C2157 1.408 . S
C2154 C2152 1.363 . S
C2154 C2155 1.370 . S
C2154 C2158 1.524 . S
C2155 C2147 1.503 . S
C2155 C2154 1.370 . S
C2155 C2156 1.403 . S
C2156 C2155 1.403 . S
C2156 C2157 1.404 . S
C2156 C2159 1.539 . S
C2157 C2153 1.408 . S
C2157 C2156 1.404 . S
C2157 H2169 0.930 . S
C2158 C2154 1.524 . S
C2158 H2170 0.956 . S
C2158 H2171 0.961 . S
C2158 H2172 0.961 . S
C2159 C2156 1.539 . S
C2159 H2173 0.958 . S
C2159 H2174 0.961 . S
C2159 H2175 0.960 . S
H2160 C2144 0.931 . S
H2161 C2149 0.929 . S
H2162 C2150 0.960 . S
H2163 C2150 0.962 . S
H2164 C2150 0.960 . S
H2165 C2151 0.961 1_455 S
H2166 C2151 0.961 . S
H2167 C2151 0.961 . S
H2168 C2152 0.931 . S
H2169 C2157 0.930 . S
H2170 C2158 0.956 . S
H2171 C2158 0.961 . S
H2172 C2158 0.961 . S
H2173 C2159 0.958 . S
H2174 C2159 0.961 . S
H2175 C2159 0.960 . S
C2176 C2177 1.391 . S
C2176 C2178 1.394 . S
C2176 H2192 0.931 . S
C2177 C2176 1.391 . S
C2177 C2181 1.376 . S
C2178 C2176 1.394 . S
C2178 C2179 1.369 . S
C2178 C2182 1.531 . S
C2179 C2178 1.369 . S
C2179 C2180 1.410 . S
C2179 C2187 1.503 . S
C2180 C2179 1.410 . S
C2180 C2181 1.392 . S
C2180 C2183 1.511 . S
C2181 C2177 1.376 . S
C2181 C2180 1.392 . S
C2181 H2193 0.929 . S
C2182 C2178 1.531 . S
C2182 H2194 0.960 . S
C2182 H2195 0.962 . S
C2182 H2196 0.960 . S
C2183 C2180 1.511 . S
C2183 H2197 0.961 . S
C2183 H2198 0.961 . S
C2183 H2199 0.961 . S
C2184 C2185 1.370 . S
C2184 C2186 1.363 . S
C2184 H2200 0.931 . S
C2185 C2184 1.370 . S
C2185 C2189 1.408 . S
C2186 C2184 1.363 . S
C2186 C2187 1.370 . S
C2186 C2190 1.524 . S
C2187 C2179 1.503 . S
C2187 C2186 1.370 . S
C2187 C2188 1.403 . S
C2188 C2187 1.403 . S
C2188 C2189 1.404 . S
C2188 C2191 1.539 . S
C2189 C2185 1.408 . S
C2189 C2188 1.404 . S
C2189 H2201 0.930 . S
C2190 C2186 1.524 . S
C2190 H2202 0.956 . S
C2190 H2203 0.961 . S
C2190 H2204 0.961 . S
C2191 C2188 1.539 . S
C2191 H2205 0.958 . S
C2191 H2206 0.961 . S
C2191 H2207 0.960 . S
H2192 C2176 0.931 . S
H2193 C2181 0.929 . S
H2194 C2182 0.960 . S
H2195 C2182 0.962 . S
H2196 C2182 0.960 . S
H2197 C2183 0.961 . S
H2198 C2183 0.961 . S
H2199 C2183 0.961 . S
H2200 C2184 0.931 . S
H2201 C2189 0.930 . S
H2202 C2190 0.956 . S
H2203 C2190 0.961 . S
H2204 C2190 0.961 . S
H2205 C2191 0.958 . S
H2206 C2191 0.961 . S
H2207 C2191 0.960 . S
C2208 C2209 1.391 . S
C2208 C2210 1.394 . S
C2208 H2224 0.931 . S
C2209 C2208 1.391 . S
C2209 C2213 1.376 . S
C2210 C2208 1.394 . S
C2210 C2211 1.369 . S
C2210 C2214 1.531 . S
C2211 C2210 1.369 . S
C2211 C2212 1.410 . S
C2211 C2219 1.503 . S
C2212 C2211 1.410 . S
C2212 C2213 1.392 . S
C2212 C2215 1.511 . S
C2213 C2209 1.376 . S
C2213 C2212 1.392 . S
C2213 H2225 0.929 . S
C2214 C2210 1.531 . S
C2214 H2226 0.960 . S
C2214 H2227 0.962 . S
C2214 H2228 0.960 . S
C2215 C2212 1.511 . S
C2215 H2229 0.961 . S
C2215 H2230 0.961 . S
C2215 H2231 0.961 . S
C2216 C2217 1.370 . S
C2216 C2218 1.363 . S
C2216 H2232 0.931 . S
C2217 C2216 1.370 . S
C2217 C2221 1.408 . S
C2218 C2216 1.363 . S
C2218 C2219 1.370 . S
C2218 C2222 1.524 . S
C2219 C2211 1.503 . S
C2219 C2218 1.370 . S
C2219 C2220 1.403 . S
C2220 C2219 1.403 . S
C2220 C2221 1.404 . S
C2220 C2223 1.539 . S
C2221 C2217 1.408 . S
C2221 C2220 1.404 . S
C2221 H2233 0.930 . S
C2222 C2218 1.524 . S
C2222 H2234 0.956 . S
C2222 H2235 0.961 . S
C2222 H2236 0.961 . S
C2223 C2220 1.539 . S
C2223 H2237 0.958 . S
C2223 H2238 0.961 . S
C2223 H2239 0.960 . S
H2224 C2208 0.931 . S
H2225 C2213 0.929 . S
H2226 C2214 0.960 . S
H2227 C2214 0.962 . S
H2228 C2214 0.960 . S
H2229 C2215 0.961 . S
H2230 C2215 0.961 . S
H2231 C2215 0.961 . S
H2232 C2216 0.931 . S
H2233 C2221 0.930 . S
H2234 C2222 0.956 . S
H2235 C2222 0.961 . S
H2236 C2222 0.961 . S
H2237 C2223 0.958 . S
H2238 C2223 0.961 . S
H2239 C2223 0.960 . S
C2240 C2241 1.391 . S
C2240 C2242 1.394 . S
C2240 H2256 0.931 . S
C2241 C2240 1.391 . S
C2241 C2245 1.376 . S
C2242 C2240 1.394 . S
C2242 C2243 1.369 . S
C2242 C2246 1.531 . S
C2243 C2242 1.369 . S
C2243 C2244 1.410 . S
C2243 C2251 1.503 . S
C2244 C2243 1.410 . S
C2244 C2245 1.392 . S
C2244 C2247 1.511 . S
C2245 C2241 1.376 . S
C2245 C2244 1.392 . S
C2245 H2257 0.929 . S
C2246 C2242 1.531 . S
C2246 H2258 0.960 . S
C2246 H2259 0.962 . S
C2246 H2260 0.960 . S
C2247 C2244 1.511 . S
C2247 H2261 0.961 . S
C2247 H2262 0.961 . S
C2247 H2263 0.961 . S
C2248 C2249 1.370 . S
C2248 C2250 1.363 . S
C2248 H2264 0.931 . S
C2249 C2248 1.370 . S
C2249 C2253 1.408 . S
C2250 C2248 1.363 . S
C2250 C2251 1.370 . S
C2250 C2254 1.524 . S
C2251 C2243 1.503 . S
C2251 C2250 1.370 . S
C2251 C2252 1.403 . S
C2252 C2251 1.403 . S
C2252 C2253 1.404 . S
C2252 C2255 1.539 . S
C2253 C2249 1.408 . S
C2253 C2252 1.404 . S
C2253 H2265 0.930 . S
C2254 C2250 1.524 . S
C2254 H2266 0.956 . S
C2254 H2267 0.961 . S
C2254 H2268 0.961 . S
C2255 C2252 1.539 . S
C2255 H2269 0.958 . S
C2255 H2270 0.961 . S
C2255 H2271 0.960 . S
H2256 C2240 0.931 . S
H2257 C2245 0.929 . S
H2258 C2246 0.960 . S
H2259 C2246 0.962 . S
H2260 C2246 0.960 . S
H2261 C2247 0.961 . S
H2262 C2247 0.961 . S
H2263 C2247 0.961 . S
H2264 C2248 0.931 . S
H2265 C2253 0.930 . S
H2266 C2254 0.956 . S
H2267 C2254 0.961 . S
H2268 C2254 0.961 . S
H2269 C2255 0.958 . S
H2270 C2255 0.961 . S
H2271 C2255 0.960 . S
C2272 C2273 1.391 . S
C2272 C2274 1.394 . S
C2272 H2288 0.931 . S
C2273 C2272 1.391 . S
C2273 C2277 1.376 . S
C2274 C2272 1.394 . S
C2274 C2275 1.369 . S
C2274 C2278 1.531 . S
C2275 C2274 1.369 . S
C2275 C2276 1.410 . S
C2275 C2283 1.503 . S
C2276 C2275 1.410 . S
C2276 C2277 1.392 . S
C2276 C2279 1.511 . S
C2277 C2273 1.376 . S
C2277 C2276 1.392 . S
C2277 H2289 0.929 . S
C2278 C2274 1.531 . S
C2278 H2290 0.960 . S
C2278 H2291 0.962 . S
C2278 H2292 0.960 . S
C2279 C2276 1.511 . S
C2279 H2293 0.961 . S
C2279 H2294 0.961 . S
C2279 H2295 0.961 . S
C2280 C2281 1.370 . S
C2280 C2282 1.363 . S
C2280 H2296 0.931 . S
C2281 C2280 1.370 . S
C2281 C2285 1.408 . S
C2282 C2280 1.363 . S
C2282 C2283 1.370 . S
C2282 C2286 1.524 . S
C2283 C2275 1.503 . S
C2283 C2282 1.370 . S
C2283 C2284 1.403 . S
C2284 C2283 1.403 . S
C2284 C2285 1.404 . S
C2284 C2287 1.539 . S
C2285 C2281 1.408 . S
C2285 C2284 1.404 . S
C2285 H2297 0.930 . S
C2286 C2282 1.524 . S
C2286 H2298 0.956 . S
C2286 H2299 0.961 . S
C2286 H2300 0.961 . S
C2287 C2284 1.539 . S
C2287 H2301 0.958 . S
C2287 H2302 0.961 . S
C2287 H2303 0.960 . S
H2288 C2272 0.931 . S
H2289 C2277 0.929 . S
H2290 C2278 0.960 . S
H2291 C2278 0.962 . S
H2292 C2278 0.960 . S
H2293 C2279 0.961 . S
H2294 C2279 0.961 . S
H2295 C2279 0.961 . S
H2296 C2280 0.931 . S
H2297 C2285 0.930 . S
H2298 C2286 0.956 . S
H2299 C2286 0.961 . S
H2300 C2286 0.961 . S
H2301 C2287 0.958 . S
H2302 C2287 0.961 . S
H2303 C2287 0.960 . S
C2304 C2305 1.391 . S
C2304 C2306 1.394 . S
C2304 H2320 0.931 . S
C2305 C2304 1.391 . S
C2305 C2309 1.376 . S
C2306 C2304 1.394 . S
C2306 C2307 1.369 . S
C2306 C2310 1.531 . S
C2307 C2306 1.369 . S
C2307 C2308 1.410 . S
C2307 C2315 1.503 . S
C2308 C2307 1.410 . S
C2308 C2309 1.392 . S
C2308 C2311 1.511 . S
C2309 C2305 1.376 . S
C2309 C2308 1.392 . S
C2309 H2321 0.929 . S
C2310 C2306 1.531 . S
C2310 H2322 0.960 . S
C2310 H2323 0.962 . S
C2310 H2324 0.960 . S
C2311 C2308 1.511 . S
C2311 H2325 0.961 . S
C2311 H2326 0.961 . S
C2311 H2327 0.961 . S
C2312 C2313 1.370 . S
C2312 C2314 1.363 . S
C2312 H2328 0.931 . S
C2313 C2312 1.370 . S
C2313 C2317 1.408 . S
C2314 C2312 1.363 . S
C2314 C2315 1.370 . S
C2314 C2318 1.524 . S
C2315 C2307 1.503 . S
C2315 C2314 1.370 . S
C2315 C2316 1.403 . S
C2316 C2315 1.403 . S
C2316 C2317 1.404 . S
C2316 C2319 1.539 . S
C2317 C2313 1.408 . S
C2317 C2316 1.404 . S
C2317 H2329 0.930 . S
C2318 C2314 1.524 . S
C2318 H2330 0.956 . S
C2318 H2331 0.961 . S
C2318 H2332 0.961 . S
C2319 C2316 1.539 . S
C2319 H2333 0.958 . S
C2319 H2334 0.961 . S
C2319 H2335 0.960 . S
H2320 C2304 0.931 . S
H2321 C2309 0.929 . S
H2322 C2310 0.960 . S
H2323 C2310 0.962 . S
H2324 C2310 0.960 . S
H2325 C2311 0.961 . S
H2326 C2311 0.961 . S
H2327 C2311 0.961 . S
H2328 C2312 0.931 . S
H2329 C2317 0.930 . S
H2330 C2318 0.956 . S
H2331 C2318 0.961 . S
H2332 C2318 0.961 . S
H2333 C2319 0.958 . S
H2334 C2319 0.961 . S
H2335 C2319 0.960 . S
C2336 C2337 1.391 . S
C2336 C2338 1.394 1_655 S
C2336 H2352 0.931 . S
C2337 C2336 1.391 . S
C2337 C2341 1.376 1_655 S
C2338 C2336 1.394 1_455 S
C2338 C2339 1.369 . S
C2338 C2342 1.531 . S
C2339 C2338 1.369 . S
C2339 C2340 1.410 . S
C2339 C2347 1.503 . S
C2340 C2339 1.410 . S
C2340 C2341 1.392 . S
C2340 C2343 1.511 . S
C2341 C2337 1.376 1_455 S
C2341 C2340 1.392 . S
C2341 H2353 0.929 . S
C2342 C2338 1.531 . S
C2342 H2354 0.960 . S
C2342 H2355 0.962 . S
C2342 H2356 0.927 1_455 S
C2343 C2340 1.511 . S
C2343 H2357 0.961 . S
C2343 H2358 0.961 . S
C2343 H2359 0.961 . S
C2344 C2345 1.370 . S
C2344 C2346 1.363 . S
C2344 H2360 0.931 . S
C2345 C2344 1.370 . S
C2345 C2349 1.408 . S
C2346 C2344 1.363 . S
C2346 C2347 1.370 . S
C2346 C2350 1.524 . S
C2347 C2339 1.503 . S
C2347 C2346 1.370 . S
C2347 C2348 1.403 . S
C2348 C2347 1.403 . S
C2348 C2349 1.404 . S
C2348 C2351 1.539 . S
C2349 C2345 1.408 . S
C2349 C2348 1.404 . S
C2349 H2361 0.930 . S
C2350 C2346 1.524 . S
C2350 H2362 0.956 . S
C2350 H2363 0.961 . S
C2350 H2364 0.961 . S
C2351 C2348 1.539 . S
C2351 H2365 0.958 . S
C2351 H2366 0.961 . S
C2351 H2367 0.960 . S
H2352 C2336 0.931 . S
H2353 C2341 0.929 . S
H2354 C2342 0.960 . S
H2355 C2342 0.962 . S
H2356 C2342 0.927 1_655 S
H2357 C2343 0.961 . S
H2358 C2343 0.961 . S
H2359 C2343 0.961 . S
H2360 C2344 0.931 . S
H2361 C2349 0.930 . S
H2362 C2350 0.956 . S
H2363 C2350 0.961 . S
H2364 C2350 0.961 . S
H2365 C2351 0.958 . S
H2366 C2351 0.961 . S
H2367 C2351 0.960 . S
C2368 C2369 1.391 . S
C2368 C2370 1.394 . S
C2368 H2384 0.931 . S
C2369 C2368 1.391 . S
C2369 C2373 1.376 . S
C2370 C2368 1.394 . S
C2370 C2371 1.369 . S
C2370 C2374 1.531 . S
C2371 C2370 1.369 . S
C2371 C2372 1.410 . S
C2371 C2379 1.503 . S
C2372 C2371 1.410 . S
C2372 C2373 1.392 . S
C2372 C2375 1.511 . S
C2373 C2369 1.376 . S
C2373 C2372 1.392 . S
C2373 H2385 0.929 . S
C2374 C2370 1.531 . S
C2374 H2386 0.960 . S
C2374 H2387 0.962 . S
C2374 H2388 0.960 . S
C2375 C2372 1.511 . S
C2375 H2389 0.961 . S
C2375 H2390 0.961 . S
C2375 H2391 0.961 . S
C2376 C2377 1.370 . S
C2376 C2378 1.363 . S
C2376 H2392 0.931 . S
C2377 C2376 1.370 . S
C2377 C2381 1.408 . S
C2378 C2376 1.363 . S
C2378 C2379 1.370 . S
C2378 C2382 1.524 . S
C2379 C2371 1.503 . S
C2379 C2378 1.370 . S
C2379 C2380 1.403 . S
C2380 C2379 1.403 . S
C2380 C2381 1.404 . S
C2380 C2383 1.539 . S
C2381 C2377 1.408 . S
C2381 C2380 1.404 . S
C2381 H2393 0.930 . S
C2382 C2378 1.524 . S
C2382 H2394 0.956 . S
C2382 H2395 0.961 . S
C2382 H2396 0.961 . S
C2383 C2380 1.539 . S
C2383 H2397 0.958 . S
C2383 H2398 0.961 . S
C2383 H2399 0.960 . S
H2384 C2368 0.931 . S
H2385 C2373 0.929 . S
H2386 C2374 0.960 . S
H2387 C2374 0.962 . S
H2388 C2374 0.960 . S
H2389 C2375 0.961 . S
H2390 C2375 0.961 . S
H2391 C2375 0.961 . S
H2392 C2376 0.931 . S
H2393 C2381 0.930 . S
H2394 C2382 0.956 . S
H2395 C2382 0.961 . S
H2396 C2382 0.961 . S
H2397 C2383 0.958 . S
H2398 C2383 0.961 . S
H2399 C2383 0.960 . S
C2400 C2401 1.391 . S
C2400 C2402 1.394 . S
C2400 H2416 0.931 . S
C2401 C2400 1.391 . S
C2401 C2405 1.376 . S
C2402 C2400 1.394 . S
C2402 C2403 1.369 . S
C2402 C2406 1.531 . S
C2403 C2402 1.369 . S
C2403 C2404 1.410 . S
C2403 C2411 1.503 . S
C2404 C2403 1.410 . S
C2404 C2405 1.392 . S
C2404 C2407 1.511 . S
C2405 C2401 1.376 . S
C2405 C2404 1.392 . S
C2405 H2417 0.929 . S
C2406 C2402 1.531 . S
C2406 H2418 0.960 . S
C2406 H2419 0.962 . S
C2406 H2420 0.960 . S
C2407 C2404 1.511 . S
C2407 H2421 0.961 . S
C2407 H2422 0.961 . S
C2407 H2423 0.961 . S
C2408 C2409 1.370 . S
C2408 C2410 1.363 1_655 S
C2408 H2424 0.931 . S
C2409 C2408 1.370 . S
C2409 C2413 1.390 1_655 S
C2410 C2408 1.363 1_455 S
C2410 C2411 1.370 . S
C2410 C2414 1.524 . S
C2411 C2403 1.503 . S
C2411 C2410 1.370 . S
C2411 C2412 1.403 . S
C2412 C2411 1.403 . S
C2412 C2413 1.435 . S
C2412 C2415 1.539 . S
C2413 C2409 1.390 1_455 S
C2413 C2412 1.435 . S
C2413 H2425 0.918 1_455 S
C2414 C2410 1.524 . S
C2414 H2426 0.956 . S
C2414 H2427 0.961 . S
C2414 H2428 0.961 . S
C2415 C2412 1.539 . S
C2415 H2429 0.958 . S
C2415 H2430 0.961 . S
C2415 H2431 0.960 . S
H2416 C2400 0.931 . S
H2417 C2405 0.929 . S
H2418 C2406 0.960 . S
H2419 C2406 0.962 . S
H2420 C2406 0.960 . S
H2421 C2407 0.961 . S
H2422 C2407 0.961 . S
H2423 C2407 0.961 . S
H2424 C2408 0.931 . S
H2425 C2413 0.918 1_655 S
H2426 C2414 0.956 . S
H2427 C2414 0.961 . S
H2428 C2414 0.961 . S
H2429 C2415 0.958 . S
H2430 C2415 0.961 . S
H2431 C2415 0.960 . S
C2432 C2433 1.391 . S
C2432 C2434 1.394 . S
C2432 H2448 0.931 . S
C2433 C2432 1.391 . S
C2433 C2437 1.376 . S
C2434 C2432 1.394 . S
C2434 C2435 1.369 . S
C2434 C2438 1.531 . S
C2435 C2434 1.369 . S
C2435 C2436 1.410 . S
C2435 C2443 1.503 . S
C2436 C2435 1.410 . S
C2436 C2437 1.392 . S
C2436 C2439 1.511 . S
C2437 C2433 1.376 . S
C2437 C2436 1.392 . S
C2437 H2449 0.929 . S
C2438 C2434 1.531 . S
C2438 H2450 0.960 . S
C2438 H2451 0.962 . S
C2438 H2452 0.960 . S
C2439 C2436 1.511 . S
C2439 H2453 0.961 . S
C2439 H2454 0.961 . S
C2439 H2455 0.961 . S
C2440 C2441 1.370 . S
C2440 C2442 1.363 . S
C2440 H2456 0.931 . S
C2441 C2440 1.370 . S
C2441 C2445 1.408 . S
C2442 C2440 1.363 . S
C2442 C2443 1.370 . S
C2442 C2446 1.524 . S
C2443 C2435 1.503 . S
C2443 C2442 1.370 . S
C2443 C2444 1.403 . S
C2444 C2443 1.403 . S
C2444 C2445 1.404 . S
C2444 C2447 1.539 . S
C2445 C2441 1.408 . S
C2445 C2444 1.404 . S
C2445 H2457 0.930 . S
C2446 C2442 1.524 . S
C2446 H2458 0.956 . S
C2446 H2459 0.961 . S
C2446 H2460 0.961 . S
C2447 C2444 1.539 . S
C2447 H2461 0.958 . S
C2447 H2462 0.961 . S
C2447 H2463 0.960 . S
H2448 C2432 0.931 . S
H2449 C2437 0.929 . S
H2450 C2438 0.960 . S
H2451 C2438 0.962 . S
H2452 C2438 0.960 . S
H2453 C2439 0.961 . S
H2454 C2439 0.961 . S
H2455 C2439 0.961 . S
H2456 C2440 0.931 . S
H2457 C2445 0.930 . S
H2458 C2446 0.956 . S
H2459 C2446 0.961 . S
H2460 C2446 0.961 . S
H2461 C2447 0.958 . S
H2462 C2447 0.961 . S
H2463 C2447 0.960 . S
C2464 C2465 1.391 . S
C2464 C2466 1.394 . S
C2464 H2480 0.931 . S
C2465 C2464 1.391 . S
C2465 C2469 1.376 . S
C2466 C2464 1.394 . S
C2466 C2467 1.369 . S
C2466 C2470 1.531 . S
C2467 C2466 1.369 . S
C2467 C2468 1.410 . S
C2467 C2475 1.503 . S
C2468 C2467 1.410 . S
C2468 C2469 1.392 . S
C2468 C2471 1.511 . S
C2469 C2465 1.376 . S
C2469 C2468 1.392 . S
C2469 H2481 0.929 . S
C2470 C2466 1.531 . S
C2470 H2482 0.960 . S
C2470 H2483 0.962 . S
C2470 H2484 0.960 . S
C2471 C2468 1.511 . S
C2471 H2485 0.961 . S
C2471 H2486 0.961 . S
C2471 H2487 0.961 . S
C2472 C2473 1.370 . S
C2472 C2474 1.363 . S
C2472 H2488 0.931 . S
C2473 C2472 1.370 . S
C2473 C2477 1.408 . S
C2474 C2472 1.363 . S
C2474 C2475 1.370 . S
C2474 C2478 1.524 . S
C2475 C2467 1.503 . S
C2475 C2474 1.370 . S
C2475 C2476 1.403 . S
C2476 C2475 1.403 . S
C2476 C2477 1.404 . S
C2476 C2479 1.539 . S
C2477 C2473 1.408 . S
C2477 C2476 1.404 . S
C2477 H2489 0.930 . S
C2478 C2474 1.524 . S
C2478 H2490 0.956 . S
C2478 H2491 0.961 . S
C2478 H2492 0.961 . S
C2479 C2476 1.539 . S
C2479 H2493 0.958 . S
C2479 H2494 0.961 . S
C2479 H2495 0.960 . S
H2480 C2464 0.931 . S
H2481 C2469 0.929 . S
H2482 C2470 0.960 . S
H2483 C2470 0.962 . S
H2484 C2470 0.960 . S
H2485 C2471 0.961 . S
H2486 C2471 0.961 . S
H2487 C2471 0.961 . S
H2488 C2472 0.931 . S
H2489 C2477 0.930 . S
H2490 C2478 0.956 . S
H2491 C2478 0.961 . S
H2492 C2478 0.961 . S
H2493 C2479 0.958 . S
H2494 C2479 0.961 . S
H2495 C2479 0.960 . S
C449 C64 1.520 . S
C457 C8 1.512 . S
C481 C78 1.511 . S
C489 C22 1.510 . S
C513 C92 1.520 . S
C521 C36 1.511 . S
C545 C50 1.504 . S
C553 C106 1.518 . S
C577 C120 1.506 . S
C585 C176 1.517 . S
C609 C190 1.520 . S
C617 C134 1.509 . S
C641 C148 1.514 . S
C649 C204 1.510 . S
C673 C218 1.500 . S
C681 C162 1.516 . S
C705 C232 1.520 . S
C713 C288 1.510 . S
C737 C302 1.513 . S
C745 C246 1.516 . S
C769 C316 1.520 . S
C777 C260 1.511 . S
C801 C330 1.499 . S
C809 C274 1.517 . S
C833 C344 1.506 . S
C841 C400 1.517 . S
C865 C358 1.508 . S
C873 C414 1.516 . S
C897 C372 1.515 . S
C905 C428 1.510 . S
C929 C386 1.500 . S
C937 C442 1.516 . S
C961 C7 1.255 . S
C969 C105 1.266 . S
C993 C21 1.280 . S
C1001 C63 1.285 . S
C1025 C35 1.262 1_545 S
C1033 C77 1.265 . S
C1057 C91 1.272 1_565 S
C1065 C49 1.261 . S
C1089 C217 1.241 . S
C1097 C119 1.284 . S
C1121 C175 1.241 . S
C1129 C133 1.272 . S
C1153 C189 1.281 . S
C1161 C147 1.272 . S
C1185 C161 1.241 . S
C1193 C203 1.287 . S
C1217 C329 1.279 . S
C1225 C231 1.256 . S
C1249 C287 1.281 . S
C1257 C245 1.256 . S
C1281 C301 1.276 . S
C1289 C259 1.259 . S
C1313 C273 1.254 . S
C1321 C315 1.268 . S
C1345 C343 1.280 . S
C1353 C441 1.258 . S
C1377 C357 1.242 . S
C1385 C399 1.272 . S
C1409 C371 1.241 . S
C1417 C413 1.272 . S
C1441 C427 1.281 . S
C1449 C385 1.257 . S
C1473 C9 1.442 . S
C1481 C353 1.459 . S
C1505 C23 1.432 . S
C1513 C143 1.452 . S
C1537 C37 1.460 . S
C1545 C381 1.455 . S
C1569 C115 1.442 . S
C1577 C51 1.452 . S
C1601 C437 1.440 . S
C1609 C65 1.450 . S
C1633 C79 1.442 . S
C1641 C171 1.451 . S
C1665 C93 1.463 . S
C1673 C409 1.458 . S
C1697 C107 1.433 . S
C1705 C199 1.455 . S
C1729 C241 1.458 . S
C1737 C121 1.451 . S
C1761 C31 1.439 . S
C1769 C135 1.446 . S
C1793 C269 1.457 . S
C1801 C149 1.451 . S
C1825 C163 1.465 . S
C1833 C3 1.461 . S
C1857 C325 1.466 . S
C1865 C177 1.457 . S
C1889 C59 1.439 . S
C1897 C191 1.447 . S
C1921 C297 1.439 . S
C1929 C205 1.446 . S
C1953 C87 1.439 . S
C1961 C219 1.446 . S
C1985 C129 1.451 . S
C1993 C233 1.446 . S
C2017 C247 1.462 . S
C2025 C367 1.457 . S
C2049 C261 1.463 . S
C2057 C157 1.457 . S
C2081 C275 1.432 . S
C2089 C339 1.452 . S
C2113 C289 1.464 . S
C2121 C213 1.461 . S
C2145 C395 1.439 . S
C2153 C303 1.446 . S
C2177 C317 1.437 . S
C2185 C185 1.450 . S
C2209 C331 1.444 . S
C2217 C423 1.459 . S
C2241 C345 1.442 . S
C2249 C17 1.452 . S
C2273 C359 1.453 . S
C2281 C255 1.460 . S
C2305 C45 1.459 . S
C2313 C373 1.452 . S
C2337 C227 1.439 . S
C2345 C387 1.446 . S
C2369 C401 1.433 . S
C2377 C101 1.452 . S
C2401 C415 1.433 . S
C2409 C283 1.452 . S
C2433 C73 1.463 . S
C2441 C429 1.454 . S
C2465 C311 1.461 . S
C2473 C443 1.459 . S
