# Generated by pormake.
# Topology uml, (4)-cn, num edge types: 1
# Building blocks:
#     Node 0, Type 0, BuildingBlock: NAWXER_clean_sbu_0, # of connection points: 4
#     Node 1, Type 0, BuildingBlock: NAWXER_clean_sbu_0, # of connection points: 4
#     Node 2, Type 0, BuildingBlock: NAWXER_clean_sbu_0, # of connection points: 4
#     Node 3, Type 0, BuildingBlock: NAWXER_clean_sbu_0, # of connection points: 4
#     Node 4, Type 0, BuildingBlock: NAWXER_clean_sbu_0, # of connection points: 4
#     Node 5, Type 0, BuildingBlock: NAWXER_clean_sbu_0, # of connection points: 4
#     Node 6, Type 0, BuildingBlock: NAWXER_clean_sbu_0, # of connection points: 4
#     Node 7, Type 0, BuildingBlock: NAWXER_clean_sbu_0, # of connection points: 4
#     Node 8, Type 0, BuildingBlock: NAWXER_clean_sbu_0, # of connection points: 4
#     Node 9, Type 0, BuildingBlock: NAWXER_clean_sbu_0, # of connection points: 4
#     Node 10, Type 0, BuildingBlock: NAWXER_clean_sbu_0, # of connection points: 4
#     Node 11, Type 0, BuildingBlock: NAWXER_clean_sbu_0, # of connection points: 4
#     Node 12, Type 0, BuildingBlock: NAWXER_clean_sbu_0, # of connection points: 4
#     Node 13, Type 0, BuildingBlock: NAWXER_clean_sbu_0, # of connection points: 4
#     Node 14, Type 0, BuildingBlock: NAWXER_clean_sbu_0, # of connection points: 4
#     Node 15, Type 0, BuildingBlock: NAWXER_clean_sbu_0, # of connection points: 4
#     Node 16, Type 0, BuildingBlock: NAWXER_clean_sbu_0, # of connection points: 4
#     Node 17, Type 0, BuildingBlock: NAWXER_clean_sbu_0, # of connection points: 4
#     Node 18, Type 0, BuildingBlock: NAWXER_clean_sbu_0, # of connection points: 4
#     Node 19, Type 0, BuildingBlock: NAWXER_clean_sbu_0, # of connection points: 4
#     Node 20, Type 0, BuildingBlock: NAWXER_clean_sbu_0, # of connection points: 4
#     Node 21, Type 0, BuildingBlock: NAWXER_clean_sbu_0, # of connection points: 4
#     Node 22, Type 0, BuildingBlock: NAWXER_clean_sbu_0, # of connection points: 4
#     Node 23, Type 0, BuildingBlock: NAWXER_clean_sbu_0, # of connection points: 4
#     Node 24, Type 0, BuildingBlock: NAWXER_clean_sbu_0, # of connection points: 4
#     Node 25, Type 0, BuildingBlock: NAWXER_clean_sbu_0, # of connection points: 4
#     Node 26, Type 0, BuildingBlock: NAWXER_clean_sbu_0, # of connection points: 4
#     Node 27, Type 0, BuildingBlock: NAWXER_clean_sbu_0, # of connection points: 4
#     Node 28, Type 0, BuildingBlock: NAWXER_clean_sbu_0, # of connection points: 4
#     Node 29, Type 0, BuildingBlock: NAWXER_clean_sbu_0, # of connection points: 4
#     Node 30, Type 0, BuildingBlock: NAWXER_clean_sbu_0, # of connection points: 4
#     Node 31, Type 0, BuildingBlock: NAWXER_clean_sbu_0, # of connection points: 4
#     Node 32, Type 0, BuildingBlock: NAWXER_clean_sbu_0, # of connection points: 4
#     Node 33, Type 0, BuildingBlock: NAWXER_clean_sbu_0, # of connection points: 4
#     Node 34, Type 0, BuildingBlock: NAWXER_clean_sbu_0, # of connection points: 4
#     Node 35, Type 0, BuildingBlock: NAWXER_clean_sbu_0, # of connection points: 4
#     Edge 36, Type (0, 0), BuildingBlock: XUDNAN_clean_linker_2, # of connection points: 2
#     Edge 37, Type (0, 0), BuildingBlock: XUDNAN_clean_linker_2, # of connection points: 2
#     Edge 38, Type (0, 0), BuildingBlock: XUDNAN_clean_linker_2, # of connection points: 2
#     Edge 39, Type (0, 0), BuildingBlock: XUDNAN_clean_linker_2, # of connection points: 2
#     Edge 40, Type (0, 0), BuildingBlock: XUDNAN_clean_linker_2, # of connection points: 2
#     Edge 41, Type (0, 0), BuildingBlock: XUDNAN_clean_linker_2, # of connection points: 2
#     Edge 42, Type (0, 0), BuildingBlock: XUDNAN_clean_linker_2, # of connection points: 2
#     Edge 43, Type (0, 0), BuildingBlock: XUDNAN_clean_linker_2, # of connection points: 2
#     Edge 44, Type (0, 0), BuildingBlock: XUDNAN_clean_linker_2, # of connection points: 2
#     Edge 45, Type (0, 0), BuildingBlock: XUDNAN_clean_linker_2, # of connection points: 2
#     Edge 46, Type (0, 0), BuildingBlock: XUDNAN_clean_linker_2, # of connection points: 2
#     Edge 47, Type (0, 0), BuildingBlock: XUDNAN_clean_linker_2, # of connection points: 2
#     Edge 48, Type (0, 0), BuildingBlock: XUDNAN_clean_linker_2, # of connection points: 2
#     Edge 49, Type (0, 0), BuildingBlock: XUDNAN_clean_linker_2, # of connection points: 2
#     Edge 50, Type (0, 0), BuildingBlock: XUDNAN_clean_linker_2, # of connection points: 2
#     Edge 51, Type (0, 0), BuildingBlock: XUDNAN_clean_linker_2, # of connection points: 2
#     Edge 52, Type (0, 0), BuildingBlock: XUDNAN_clean_linker_2, # of connection points: 2
#     Edge 53, Type (0, 0), BuildingBlock: XUDNAN_clean_linker_2, # of connection points: 2
#     Edge 54, Type (0, 0), BuildingBlock: XUDNAN_clean_linker_2, # of connection points: 2
#     Edge 55, Type (0, 0), BuildingBlock: XUDNAN_clean_linker_2, # of connection points: 2
#     Edge 56, Type (0, 0), BuildingBlock: XUDNAN_clean_linker_2, # of connection points: 2
#     Edge 57, Type (0, 0), BuildingBlock: XUDNAN_clean_linker_2, # of connection points: 2
#     Edge 58, Type (0, 0), BuildingBlock: XUDNAN_clean_linker_2, # of connection points: 2
#     Edge 59, Type (0, 0), BuildingBlock: XUDNAN_clean_linker_2, # of connection points: 2
#     Edge 60, Type (0, 0), BuildingBlock: XUDNAN_clean_linker_2, # of connection points: 2
#     Edge 61, Type (0, 0), BuildingBlock: XUDNAN_clean_linker_2, # of connection points: 2
#     Edge 62, Type (0, 0), BuildingBlock: XUDNAN_clean_linker_2, # of connection points: 2
#     Edge 63, Type (0, 0), BuildingBlock: XUDNAN_clean_linker_2, # of connection points: 2
#     Edge 64, Type (0, 0), BuildingBlock: XUDNAN_clean_linker_2, # of connection points: 2
#     Edge 65, Type (0, 0), BuildingBlock: XUDNAN_clean_linker_2, # of connection points: 2
#     Edge 66, Type (0, 0), BuildingBlock: XUDNAN_clean_linker_2, # of connection points: 2
#     Edge 67, Type (0, 0), BuildingBlock: XUDNAN_clean_linker_2, # of connection points: 2
#     Edge 68, Type (0, 0), BuildingBlock: XUDNAN_clean_linker_2, # of connection points: 2
#     Edge 69, Type (0, 0), BuildingBlock: XUDNAN_clean_linker_2, # of connection points: 2
#     Edge 70, Type (0, 0), BuildingBlock: XUDNAN_clean_linker_2, # of connection points: 2
#     Edge 71, Type (0, 0), BuildingBlock: XUDNAN_clean_linker_2, # of connection points: 2
#     Edge 72, Type (0, 0), BuildingBlock: XUDNAN_clean_linker_2, # of connection points: 2
#     Edge 73, Type (0, 0), BuildingBlock: XUDNAN_clean_linker_2, # of connection points: 2
#     Edge 74, Type (0, 0), BuildingBlock: XUDNAN_clean_linker_2, # of connection points: 2
#     Edge 75, Type (0, 0), BuildingBlock: XUDNAN_clean_linker_2, # of connection points: 2
#     Edge 76, Type (0, 0), BuildingBlock: XUDNAN_clean_linker_2, # of connection points: 2
#     Edge 77, Type (0, 0), BuildingBlock: XUDNAN_clean_linker_2, # of connection points: 2
#     Edge 78, Type (0, 0), BuildingBlock: XUDNAN_clean_linker_2, # of connection points: 2
#     Edge 79, Type (0, 0), BuildingBlock: XUDNAN_clean_linker_2, # of connection points: 2
#     Edge 80, Type (0, 0), BuildingBlock: XUDNAN_clean_linker_2, # of connection points: 2
#     Edge 81, Type (0, 0), BuildingBlock: XUDNAN_clean_linker_2, # of connection points: 2
#     Edge 82, Type (0, 0), BuildingBlock: XUDNAN_clean_linker_2, # of connection points: 2
#     Edge 83, Type (0, 0), BuildingBlock: XUDNAN_clean_linker_2, # of connection points: 2
#     Edge 84, Type (0, 0), BuildingBlock: XUDNAN_clean_linker_2, # of connection points: 2
#     Edge 85, Type (0, 0), BuildingBlock: XUDNAN_clean_linker_2, # of connection points: 2
#     Edge 86, Type (0, 0), BuildingBlock: XUDNAN_clean_linker_2, # of connection points: 2
#     Edge 87, Type (0, 0), BuildingBlock: XUDNAN_clean_linker_2, # of connection points: 2
#     Edge 88, Type (0, 0), BuildingBlock: XUDNAN_clean_linker_2, # of connection points: 2
#     Edge 89, Type (0, 0), BuildingBlock: XUDNAN_clean_linker_2, # of connection points: 2
#     Edge 90, Type (0, 0), BuildingBlock: XUDNAN_clean_linker_2, # of connection points: 2
#     Edge 91, Type (0, 0), BuildingBlock: XUDNAN_clean_linker_2, # of connection points: 2
#     Edge 92, Type (0, 0), BuildingBlock: XUDNAN_clean_linker_2, # of connection points: 2
#     Edge 93, Type (0, 0), BuildingBlock: XUDNAN_clean_linker_2, # of connection points: 2
#     Edge 94, Type (0, 0), BuildingBlock: XUDNAN_clean_linker_2, # of connection points: 2
#     Edge 95, Type (0, 0), BuildingBlock: XUDNAN_clean_linker_2, # of connection points: 2
#     Edge 96, Type (0, 0), BuildingBlock: XUDNAN_clean_linker_2, # of connection points: 2
#     Edge 97, Type (0, 0), BuildingBlock: XUDNAN_clean_linker_2, # of connection points: 2
#     Edge 98, Type (0, 0), BuildingBlock: XUDNAN_clean_linker_2, # of connection points: 2
#     Edge 99, Type (0, 0), BuildingBlock: XUDNAN_clean_linker_2, # of connection points: 2
#     Edge 100, Type (0, 0), BuildingBlock: XUDNAN_clean_linker_2, # of connection points: 2
#     Edge 101, Type (0, 0), BuildingBlock: XUDNAN_clean_linker_2, # of connection points: 2
#     Edge 102, Type (0, 0), BuildingBlock: XUDNAN_clean_linker_2, # of connection points: 2
#     Edge 103, Type (0, 0), BuildingBlock: XUDNAN_clean_linker_2, # of connection points: 2
#     Edge 104, Type (0, 0), BuildingBlock: XUDNAN_clean_linker_2, # of connection points: 2
#     Edge 105, Type (0, 0), BuildingBlock: XUDNAN_clean_linker_2, # of connection points: 2
#     Edge 106, Type (0, 0), BuildingBlock: XUDNAN_clean_linker_2, # of connection points: 2
#     Edge 107, Type (0, 0), BuildingBlock: XUDNAN_clean_linker_2, # of connection points: 2
# Relax obj value: 0.036
# Max RMSD: 0.159
# Mean RMSD: 0.157
data_MOF--net-uml--node1-NAWXER_clean_sbu_0--edge1-XUDNAN_clean_linker_2
_symmetry_space_group_name_H-M    P1
_symmetry_Int_Tables_number       1
_symmetry_cell_setting            triclinic
loop_
_symmetry_equiv_pos_as_xyz
'x, y, z'
_cell_length_a     97.515392
_cell_length_b     97.505867
_cell_length_c     29.022339
_cell_angle_alpha  90.015185
_cell_angle_beta   89.970932
_cell_angle_gamma 119.9579
loop_
_atom_site_label
_atom_site_type_symbol
_atom_site_fract_x
_atom_site_fract_y
_atom_site_fract_z
_atom_type_partial_charge
C0 C 0.34812 0.12736 0.15604 0.0
C1 C 0.37287 0.0938 0.15511 0.0
O2 O 0.33863 0.11252 0.15063 0.0
Zn3 Zn 0.33858 0.09082 0.14799 0.0
O4 O 0.36275 0.13226 0.16292 0.0
Zn5 Zn 0.36133 0.11127 0.1596 0.0
O6 O 0.35469 0.10487 0.08873 0.0
O7 O 0.33072 0.08381 0.08666 0.0
O8 O 0.38016 0.10872 0.16141 0.0
O9 O 0.35777 0.0863 0.15093 0.0
O10 O 0.32542 0.07932 0.19897 0.0
O11 O 0.34822 0.09953 0.22144 0.0
C12 C 0.34293 0.09429 0.0657 0.0
C13 C 0.33461 0.0876 0.23128 0.0
C14 C 0.90737 0.24438 0.07164 0.0
C15 C 0.91823 0.24687 0.23661 0.0
O16 O 0.89935 0.24909 0.09524 0.0
Zn17 Zn 0.89646 0.25336 0.16724 0.0
O18 O 0.91626 0.24025 0.09221 0.0
Zn19 Zn 0.91239 0.24526 0.15338 0.0
O20 O 0.88837 0.22667 0.16361 0.0
O21 O 0.87435 0.23827 0.17728 0.0
O22 O 0.92397 0.24291 0.20338 0.0
O23 O 0.908 0.25116 0.22812 0.0
O24 O 0.90296 0.27573 0.16342 0.0
O25 O 0.92173 0.27042 0.14468 0.0
C26 C 0.87499 0.22566 0.17208 0.0
C27 C 0.91681 0.28038 0.14804 0.0
C28 C 0.75701 0.66828 0.1009 0.0
C29 C 0.75067 0.6564 0.26528 0.0
O30 O 0.7581 0.65608 0.11139 0.0
Zn31 Zn 0.75713 0.64293 0.17219 0.0
O32 O 0.75467 0.67599 0.13232 0.0
Zn33 Zn 0.75371 0.66246 0.18225 0.0
O34 O 0.77809 0.66809 0.18272 0.0
O35 O 0.7783 0.6458 0.17271 0.0
O36 O 0.75024 0.66755 0.24406 0.0
O37 O 0.75293 0.64642 0.24254 0.0
O38 O 0.73964 0.62243 0.15665 0.0
O39 O 0.73252 0.64055 0.16308 0.0
C40 C 0.78584 0.66073 0.1782 0.0
C41 C 0.729 0.62628 0.15351 0.0
C42 C 0.13929 0.36433 0.31867 0.0
C43 C 0.09635 0.37553 0.3465 0.0
O44 O 0.12589 0.3517 0.32415 0.0
Zn45 Zn 0.10164 0.34538 0.3327 0.0
O46 O 0.13983 0.37761 0.31678 0.0
Zn47 Zn 0.11753 0.37018 0.32665 0.0
O48 O 0.11367 0.36047 0.39511 0.0
O49 O 0.097 0.33471 0.39241 0.0
O50 O 0.11062 0.38553 0.33626 0.0
O51 O 0.09169 0.36066 0.34492 0.0
O52 O 0.09134 0.33339 0.27698 0.0
O53 O 0.10614 0.35897 0.26346 0.0
C54 C 0.10561 0.34716 0.41584 0.0
C55 C 0.09664 0.34493 0.24897 0.0
C56 C 0.67073 0.76325 0.39654 0.0
C57 C 0.65992 0.75157 0.23276 0.0
O58 O 0.65607 0.75775 0.3866 0.0
Zn59 Zn 0.64121 0.74983 0.3259 0.0
O60 O 0.68051 0.76515 0.36477 0.0
Zn61 Zn 0.66536 0.75736 0.3153 0.0
O62 O 0.65957 0.77596 0.31155 0.0
O63 O 0.6339 0.76504 0.32296 0.0
O64 O 0.67295 0.75695 0.25414 0.0
O65 O 0.64733 0.74833 0.25537 0.0
O66 O 0.62632 0.72804 0.34272 0.0
O67 O 0.65079 0.73276 0.33519 0.0
C68 C 0.64721 0.77734 0.31538 0.0
C69 C 0.63622 0.72319 0.34521 0.0
C70 C 0.23096 0.87559 0.3299 0.0
C71 C 0.28533 0.91689 0.3629 0.0
O72 O 0.23216 0.88919 0.33555 0.0
Zn73 Zn 0.25071 0.91322 0.34668 0.0
O74 O 0.24342 0.87452 0.32941 0.0
Zn75 Zn 0.25861 0.89647 0.34121 0.0
O76 O 0.25159 0.89959 0.40845 0.0
O77 O 0.24404 0.91749 0.40621 0.0
O78 O 0.28042 0.90247 0.35285 0.0
O79 O 0.27568 0.92225 0.36085 0.0
O80 O 0.25012 0.92408 0.29051 0.0
O81 O 0.25971 0.90816 0.27817 0.0
C82 C 0.24639 0.9077 0.42914 0.0
C83 C 0.25598 0.91821 0.26305 0.0
C84 C 0.65995 0.88083 0.84083 0.0
C85 C 0.62494 0.90328 0.84813 0.0
O86 O 0.64497 0.87355 0.84518 0.0
Zn87 Zn 0.64226 0.89168 0.83897 0.0
O88 O 0.66747 0.89592 0.83464 0.0
Zn89 Zn 0.6615 0.91473 0.82902 0.0
O90 O 0.67327 0.9284 0.87945 0.0
O91 O 0.65406 0.90467 0.90061 0.0
O92 O 0.6394 0.91385 0.84121 0.0
O93 O 0.62108 0.88878 0.84651 0.0
O94 O 0.64881 0.89777 0.76813 0.0
O95 O 0.66759 0.92284 0.76691 0.0
C96 C 0.66546 0.91848 0.91099 0.0
C97 C 0.65864 0.9101 0.74551 0.0
C98 C 0.10024 0.75006 0.94227 0.0
C99 C 0.093 0.75068 0.77675 0.0
O100 O 0.08888 0.75025 0.92136 0.0
Zn101 Zn 0.09665 0.75054 0.86025 0.0
O102 O 0.11182 0.75076 0.91931 0.0
Zn103 Zn 0.11874 0.7519 0.8481 0.0
O104 O 0.1381 0.77266 0.84526 0.0
O105 O 0.11657 0.77401 0.8584 0.0
O106 O 0.1061 0.75122 0.78651 0.0
O107 O 0.08393 0.75003 0.80908 0.0
O108 O 0.09585 0.72804 0.85998 0.0
O109 O 0.12001 0.73269 0.84551 0.0
C110 C 0.1316 0.78097 0.85286 0.0
C111 C 0.10561 0.72294 0.85518 0.0
C112 C 0.26258 0.36258 0.73858 0.0
C113 C 0.2546 0.35233 0.90311 0.0
O114 O 0.25942 0.35027 0.76135 0.0
Zn115 Zn 0.25791 0.35764 0.82184 0.0
O116 O 0.26346 0.37456 0.75971 0.0
Zn117 Zn 0.26033 0.37978 0.83 0.0
O118 O 0.27984 0.39835 0.84313 0.0
O119 O 0.28197 0.37689 0.8399 0.0
O120 O 0.25677 0.36612 0.89317 0.0
O121 O 0.25413 0.34322 0.87109 0.0
O122 O 0.2355 0.35761 0.82168 0.0
O123 O 0.24234 0.38267 0.82857 0.0
C124 C 0.28827 0.39187 0.84732 0.0
C125 C 0.23155 0.36833 0.82487 0.0
C126 C 0.92253 0.67665 0.59104 0.0
C127 C 0.92745 0.67234 0.75608 0.0
O128 O 0.93276 0.68676 0.61838 0.0
Zn129 Zn 0.92516 0.67423 0.67282 0.0
O130 O 0.91181 0.66316 0.60638 0.0
Zn131 Zn 0.90488 0.65115 0.67246 0.0
O132 O 0.88364 0.64903 0.67904 0.0
O133 O 0.90328 0.67365 0.68118 0.0
O134 O 0.91542 0.65974 0.7403 0.0
O135 O 0.93619 0.68335 0.72843 0.0
O136 O 0.93011 0.65583 0.65889 0.0
O137 O 0.908 0.63287 0.66003 0.0
C138 C 0.88841 0.66378 0.68237 0.0
C139 C 0.92295 0.64078 0.65432 0.0
C140 C 0.35053 0.26122 0.76094 0.0
C141 C 0.33772 0.24862 0.59793 0.0
O142 O 0.33829 0.2589 0.73904 0.0
Zn143 Zn 0.34406 0.2552 0.6786 0.0
O144 O 0.36184 0.26093 0.73904 0.0
Zn145 Zn 0.36647 0.25669 0.66897 0.0
O146 O 0.38468 0.27686 0.64897 0.0
O147 O 0.36242 0.27751 0.65335 0.0
O148 O 0.35154 0.251 0.6084 0.0
O149 O 0.32895 0.24942 0.62907 0.0
O150 O 0.34402 0.23354 0.68661 0.0
O151 O 0.36792 0.23725 0.674 0.0
C152 C 0.37712 0.28422 0.64255 0.0
C153 C 0.35341 0.22797 0.68372 0.0
C154 C 0.77825 0.13689 0.68563 0.0
C155 C 0.72188 0.10351 0.65764 0.0
O156 O 0.76744 0.14045 0.68209 0.0
Zn157 Zn 0.74956 0.11952 0.6787 0.0
O158 O 0.77435 0.12224 0.68784 0.0
Zn159 Zn 0.75212 0.09979 0.68568 0.0
O160 O 0.75664 0.08985 0.63576 0.0
O161 O 0.75412 0.11033 0.61535 0.0
O162 O 0.72828 0.09495 0.66545 0.0
O163 O 0.73002 0.11836 0.66367 0.0
O164 O 0.74605 0.11065 0.74834 0.0
O165 O 0.75018 0.09046 0.74581 0.0
C166 C 0.75655 0.09894 0.60453 0.0
C167 C 0.74687 0.09944 0.76896 0.0
C168 C 0.01491 0.42541 0.60491 0.0
C169 C 1.00192 0.41926 0.44199 0.0
O170 O 0.02611 0.43619 0.58059 0.0
Zn171 Zn 0.03019 0.4431 0.50919 0.0
O172 O 1.0022 0.4152 0.58551 0.0
Zn173 Zn 0.00778 0.42242 0.52333 0.0
O174 O 0.02665 0.4181 0.50664 0.0
O175 O 0.04847 0.4407 0.49258 0.0
O176 O 0.99305 0.41074 0.47467 0.0
O177 O 0.01547 0.43131 0.45088 0.0
O178 O 0.03097 0.46375 0.50734 0.0
O179 O 0.00716 0.4438 0.52187 0.0
C180 C 0.04125 0.42563 0.49467 0.0
C181 C 0.01636 0.45863 0.51521 0.0
C182 C 0.54599 0.56168 0.51052 0.0
C183 C 0.58724 0.61644 0.48323 0.0
O184 O 0.55983 0.56327 0.51409 0.0
Zn185 Zn 0.58403 0.58276 0.5115 0.0
O186 O 0.54473 0.57389 0.5042 0.0
Zn187 Zn 0.56691 0.58937 0.50184 0.0
O188 O 0.57452 0.58228 0.44007 0.0
O189 O 0.59217 0.57576 0.46233 0.0
O190 O 0.57239 0.61075 0.48656 0.0
O191 O 0.59313 0.60751 0.4922 0.0
O192 O 0.59213 0.58305 0.57239 0.0
O193 O 0.57444 0.59076 0.57263 0.0
C194 C 0.58419 0.57736 0.43034 0.0
C195 C 0.58409 0.58779 0.59459 0.0
C196 C 0.43126 1.00083 0.44918 0.0
C197 C 0.42068 0.99013 0.61332 0.0
O198 O 0.4259 0.98619 0.45898 0.0
Zn199 Zn 0.41845 0.97135 0.52 0.0
O200 O 0.43329 0.0106 0.48114 0.0
Zn201 Zn 0.42599 0.99544 0.53047 0.0
O202 O 0.44471 0.98978 0.5315 0.0
O203 O 0.43361 0.96402 0.52141 0.0
O204 O 0.42604 1.00312 0.59179 0.0
O205 O 0.41727 0.97749 0.59077 0.0
O206 O 0.39672 0.95633 0.50411 0.0
O207 O 0.40126 0.98075 0.51185 0.0
C208 C 0.44601 0.97739 0.52723 0.0
C209 C 0.39175 0.96613 0.50207 0.0
C210 C 0.80417 0.69196 0.67023 0.0
C211 C 0.7624 0.70592 0.68164 0.0
O212 O 0.79055 0.67979 0.67747 0.0
Zn213 Zn 0.7666 0.67498 0.68394 0.0
O214 O 0.80516 0.70533 0.66409 0.0
Zn215 Zn 0.78302 0.69898 0.67075 0.0
O216 O 0.77863 0.69227 0.74231 0.0
O217 O 0.76148 0.66663 0.74573 0.0
O218 O 0.77685 0.71511 0.67111 0.0
O219 O 0.75723 0.69101 0.68579 0.0
O220 O 0.75569 0.66087 0.63373 0.0
O221 O 0.77182 0.68519 0.60976 0.0
C222 C 0.77008 0.67976 0.76607 0.0
C223 C 0.76165 0.67069 0.60084 0.0
C224 C 0.31856 0.08336 0.56643 0.0
C225 C 0.32939 0.08936 0.73066 0.0
O226 O 0.3068 0.08249 0.58868 0.0
Zn227 Zn 0.30184 0.08461 0.65952 0.0
O228 O 0.33083 0.08586 0.5883 0.0
Zn229 Zn 0.32378 0.08676 0.64979 0.0
O230 O 0.30437 0.06258 0.66686 0.0
O231 O 0.28325 0.06521 0.67155 0.0
O232 O 0.33834 0.08984 0.69809 0.0
O233 O 0.31568 0.0875 0.72151 0.0
O234 O 0.29906 0.10253 0.66167 0.0
O235 O 0.32411 0.10941 0.65369 0.0
C236 C 0.28944 0.05649 0.67459 0.0
C237 C 0.31343 0.11333 0.65897 0.0
C238 C 0.95125 0.23218 0.68197 0.0
C239 C 0.89384 0.20732 0.65801 0.0
O240 O 0.9468 0.24227 0.67315 0.0
Zn241 Zn 0.9251 0.24189 0.65524 0.0
O242 O 0.94122 0.21748 0.67915 0.0
Zn243 Zn 0.92273 0.21925 0.66455 0.0
O244 O 0.92639 0.2273 0.59396 0.0
O245 O 0.92809 0.2507 0.59402 0.0
O246 O 0.90169 0.20023 0.66371 0.0
O247 O 0.90129 0.22242 0.6539 0.0
O248 O 0.9233 0.25374 0.70563 0.0
O249 O 0.92092 0.23081 0.72612 0.0
C250 C 0.92806 0.23946 0.57193 0.0
C251 C 0.92124 0.24374 0.73686 0.0
C252 C 0.33405 0.25231 0.0966 0.0
C253 C 0.3254 0.23993 0.26138 0.0
O254 O 0.3433 0.25896 0.13034 0.0
Zn255 Zn 0.32963 0.24592 0.17987 0.0
O256 O 0.32009 0.24073 0.10447 0.0
Zn257 Zn 0.30684 0.22793 0.16428 0.0
O258 O 0.28901 0.23106 0.16565 0.0
O259 O 0.31106 0.25227 0.18726 0.0
O260 O 0.31324 0.23091 0.23678 0.0
O261 O 0.33804 0.25029 0.24181 0.0
O262 O 0.32754 0.22283 0.16809 0.0
O263 O 0.30237 0.20684 0.15237 0.0
C264 C 0.29597 0.24508 0.1814 0.0
C265 C 0.31619 0.20893 0.15788 0.0
C266 C 0.76061 0.08988 0.26842 0.0
C267 C 0.74927 0.08409 0.10314 0.0
O268 O 0.74923 0.0903 0.24826 0.0
Zn269 Zn 0.75448 0.08649 0.18699 0.0
O270 O 0.77069 0.08804 0.24468 0.0
Zn271 Zn 0.775 0.08465 0.17343 0.0
O272 O 0.79545 0.10403 0.16361 0.0
O273 O 0.77566 0.10844 0.17572 0.0
O274 O 0.76192 0.08366 0.1124 0.0
O275 O 0.74115 0.08498 0.13597 0.0
O276 O 0.75145 0.06345 0.19788 0.0
O277 O 0.77347 0.06375 0.17863 0.0
C278 C 0.79038 0.11375 0.16777 0.0
C279 C 0.75949 0.05636 0.1949 0.0
C280 C 0.90051 0.70159 0.15649 0.0
C281 C 0.95538 0.71498 0.18867 0.0
O282 O 0.91265 0.71538 0.15578 0.0
Zn283 Zn 0.92871 0.70932 0.16709 0.0
O284 O 0.90229 0.68956 0.16211 0.0
Zn285 Zn 0.92066 0.68429 0.17315 0.0
O286 O 0.91464 0.67398 0.23368 0.0
O287 O 0.92238 0.69948 0.23431 0.0
O288 O 0.94531 0.70013 0.18614 0.0
O289 O 0.951 0.72497 0.17907 0.0
O290 O 0.93005 0.6984 0.10506 0.0
O291 O 0.92032 0.67284 0.11752 0.0
C292 C 0.91751 0.68642 0.25594 0.0
C293 C 0.92648 0.68463 0.09029 0.0
C294 C 0.58447 0.99782 0.93517 0.0
C295 C 0.58023 0.98639 0.09895 0.0
O296 O 0.59429 0.00579 0.96671 0.0
Zn297 Zn 0.58209 0.99218 0.01626 0.0
O298 O 0.57137 0.98534 0.94545 0.0
Zn299 Zn 0.55954 0.97219 1.00729 0.0
O300 O 0.54081 0.97445 0.0094 0.0
O301 O 0.56293 0.99711 0.01802 0.0
O302 O 0.56794 0.97596 0.07738 0.0
O303 O 0.5912 0.99781 0.07683 0.0
O304 O 0.58198 0.97051 0.99726 0.0
O305 O 0.55695 0.95173 0.99215 0.0
C306 C 0.54781 0.98937 0.01466 0.0
C307 C 0.57155 0.95606 0.98844 0.0
C308 C 0.05387 0.61591 0.98902 0.0
C309 C 0.0296 0.55927 0.01621 0.0
O310 O 0.05994 0.60802 1.0048 0.0
Zn311 Zn 0.04105 0.58779 1.00728 0.0
O312 O 0.03877 0.60903 0.98369 0.0
Zn313 Zn 0.01888 0.58488 0.99244 0.0
O314 O 0.00608 0.58586 0.04193 0.0
O315 O 0.02857 0.5887 0.0674 0.0
O316 O 0.01899 0.56289 1.00585 0.0
O317 O 0.04389 0.57021 0.02035 0.0
O318 O 0.03414 0.58415 0.9351 0.0
O319 O 0.01009 0.58093 0.93115 0.0
C320 C 0.01514 0.58763 0.07552 0.0
C321 C 0.02211 0.58183 0.91107 0.0
C322 C 0.45078 0.46155 0.01522 0.0
C323 C 0.39391 0.4386 0.99044 0.0
O324 O 0.44307 0.46878 0.0099 0.0
Zn325 Zn 0.42205 0.45016 0.00868 0.0
O326 O 0.44319 0.44643 0.01909 0.0
Zn327 Zn 0.41894 0.42743 0.0182 0.0
O328 O 0.42008 0.41494 0.96891 0.0
O329 O 0.42308 0.43804 0.94715 0.0
O330 O 0.39752 0.42787 0.9993 0.0
O331 O 0.4045 0.45308 0.99393 0.0
O332 O 0.41776 0.44219 0.07907 0.0
O333 O 0.41557 0.41858 0.07925 0.0
C334 C 0.42217 0.42478 0.93716 0.0
C335 C 0.41569 0.4299 0.1011 0.0
C336 C 0.69711 0.8037 0.8365 0.0
C337 C 0.71002 0.7616 0.81004 0.0
O338 O 0.68499 0.79019 0.82765 0.0
Zn339 Zn 0.67967 0.76644 0.81416 0.0
O340 O 0.71066 0.80484 0.8396 0.0
Zn341 Zn 0.70393 0.78269 0.82745 0.0
O342 O 0.69664 0.78045 0.75645 0.0
O343 O 0.67107 0.76319 0.75253 0.0
O344 O 0.71957 0.77576 0.82242 0.0
O345 O 0.69521 0.75693 0.807 0.0
O346 O 0.66582 0.7546 0.86408 0.0
O347 O 0.69015 0.77071 0.88794 0.0
C348 C 0.684 0.77265 0.73248 0.0
C349 C 0.67571 0.76035 0.8969 0.0
C350 C 0.24829 0.92686 0.92835 0.0
C351 C 0.23967 0.91546 0.76451 0.0
O352 O 0.2357 0.92691 0.91577 0.0
Zn353 Zn 0.22394 0.92417 0.84999 0.0
O354 O 0.25644 0.9248 0.89808 0.0
Zn355 Zn 0.24363 0.92181 0.84487 0.0
O356 O 0.24768 0.94531 0.82552 0.0
O357 O 0.22479 0.94382 0.83923 0.0
O358 O 0.25041 0.91606 0.7906 0.0
O359 O 0.2291 0.91829 0.78106 0.0
O360 O 0.20327 0.90685 0.86128 0.0
O361 O 0.22132 0.89963 0.85708 0.0
C362 C 0.23894 0.95175 0.82505 0.0
C363 C 0.20678 0.89596 0.86221 0.0
C364 C 0.08939 0.33005 0.75022 0.0
C365 C 0.081 0.32521 0.91558 0.0
O366 O 0.08985 0.31788 0.76535 0.0
Zn367 Zn 0.08712 0.30662 0.83314 0.0
O368 O 0.08636 0.3383 0.77778 0.0
Zn369 Zn 0.08408 0.32629 0.8315 0.0
O370 O 0.10821 0.33136 0.83952 0.0
O371 O 0.10801 0.30866 0.8391 0.0
O372 O 0.07977 0.33413 0.88622 0.0
O373 O 0.08371 0.31428 0.90134 0.0
O374 O 0.06883 0.28563 0.8232 0.0
O375 O 0.06287 0.30448 0.81608 0.0
C376 C 0.11574 0.3237 0.84118 0.0
C377 C 0.05871 0.28979 0.8138 0.0
C378 C 0.44029 0.01468 0.11344 0.0
C379 C 0.42816 0.00682 0.94896 0.0
O380 O 0.44825 0.02735 0.08966 0.0
Zn381 Zn 0.45063 0.03484 0.0186 0.0
O382 O 0.43067 1.00183 0.09327 0.0
Zn383 Zn 0.4341 0.01064 0.03195 0.0
O384 O 0.45772 0.01554 0.01928 0.0
O385 O 0.47274 0.04116 1.00717 0.0
O386 O 0.42214 0.997 0.98185 0.0
O387 O 0.43872 0.02119 0.95791 0.0
O388 O 0.44395 0.05079 0.02404 0.0
O389 O 0.42516 0.02655 0.04076 0.0
C390 C 0.47135 0.02751 0.01077 0.0
C391 C 0.42993 0.04139 0.03798 0.0
C392 C 0.99132 0.44466 0.02087 0.0
C393 C 0.96593 0.3865 0.01329 0.0
O394 O 1.00058 0.43902 0.02569 0.0
Zn395 Zn 1.00035 0.4173 0.02463 0.0
O396 O 0.97676 0.43531 0.01187 0.0
Zn397 Zn 0.97766 0.41543 0.01273 0.0
O398 O 0.98346 0.41409 0.08305 0.0
O399 O 0.0073 0.41665 0.08637 0.0
O400 O 0.95873 0.3943 0.00849 0.0
O401 O 0.98099 0.39385 0.01815 0.0
O402 O 0.01375 0.41955 0.97332 0.0
O403 O 0.99089 0.41703 0.95158 0.0
C404 C 0.99478 0.4145 0.10651 0.0
C405 C 1.00445 0.4187 0.94137 0.0
C406 C 0.58946 0.56673 0.09499 0.0
C407 C 0.59207 0.57719 0.92964 0.0
O408 O 0.59192 0.55702 0.07133 0.0
Zn409 Zn 0.59451 0.55289 0.99883 0.0
O410 O 0.58779 0.57732 0.07441 0.0
Zn411 Zn 0.59096 0.5718 0.01321 0.0
O412 O 0.56934 0.54905 1.0051 0.0
O413 O 0.57713 0.53183 0.99033 0.0
O414 O 0.59041 0.58456 0.96321 0.0
O415 O 0.59381 0.56522 0.93791 0.0
O416 O 0.61523 0.55523 0.99862 0.0
O417 O 0.61552 0.57714 0.01889 0.0
C418 C 0.56597 0.53475 0.99686 0.0
C419 C 0.62289 0.56942 0.01286 0.0
C420 C 0.00765 0.57827 0.57527 0.0
C421 C 0.99734 0.57859 0.41078 0.0
O422 O 0.01743 0.58612 0.54347 0.0
Zn423 Zn 1.00239 0.57828 0.49384 0.0
O424 O 0.99304 0.5689 0.56523 0.0
Zn425 Zn 0.97838 0.56154 0.5035 0.0
O426 O 0.9715 0.5392 0.50164 0.0
O427 O 0.99723 0.55406 0.49194 0.0
O428 O 0.98465 0.56916 0.43281 0.0
O429 O 0.01021 0.58625 0.43282 0.0
O430 O 0.98723 0.58781 0.51306 0.0
O431 O 0.96286 0.56774 0.51909 0.0
C432 C 0.98494 0.54031 0.49587 0.0
C433 C 0.97252 0.58251 0.52225 0.0
C434 C 0.42974 0.42023 0.60181 0.0
C435 C 0.42283 0.42178 0.43646 0.0
O436 O 0.41929 0.42198 0.58079 0.0
Zn437 Zn 0.42645 0.4214 0.51941 0.0
O438 O 0.44053 0.41937 0.5789 0.0
Zn439 Zn 0.44716 0.41973 0.50803 0.0
O440 O 0.46778 0.43945 0.50459 0.0
O441 O 0.44775 0.44351 0.51527 0.0
O442 O 0.43502 0.42051 0.44603 0.0
O443 O 0.41452 0.42256 0.46894 0.0
O444 O 0.42265 0.39779 0.51552 0.0
O445 O 0.44568 0.39895 0.50556 0.0
C446 C 0.46262 0.44904 0.50978 0.0
C447 C 0.43075 0.3908 0.5112 0.0
C448 C 0.61677 0.0416 0.5142 0.0
C449 C 0.55901 0.00937 0.50743 0.0
O450 O 0.60688 0.0459 0.50294 0.0
Zn451 Zn 0.58803 0.02539 0.50519 0.0
O452 O 0.61194 0.0268 0.5194 0.0
Zn453 Zn 0.58939 0.00483 0.51759 0.0
O454 O 0.59054 0.99286 0.46655 0.0
O455 O 0.58914 0.01367 0.44358 0.0
O456 O 0.56571 1.00105 0.51338 0.0
O457 O 0.56756 0.0242 0.5012 0.0
O458 O 0.58869 0.01949 0.57667 0.0
O459 O 0.58907 0.997 0.57866 0.0
C460 C 0.58992 1.00123 0.43403 0.0
C461 C 0.58915 0.0085 0.59962 0.0
C462 C 0.26221 0.34508 0.40472 0.0
C463 C 0.2538 0.3385 0.23825 0.0
O464 O 0.27127 0.35346 0.37233 0.0
Zn465 Zn 0.25837 0.34156 0.32046 0.0
O466 O 0.24915 0.33254 0.39478 0.0
Zn467 Zn 0.23669 0.32072 0.33299 0.0
O468 O 0.23566 0.30049 0.33359 0.0
O469 O 0.25955 0.31992 0.3165 0.0
O470 O 0.24268 0.32728 0.26155 0.0
O471 O 0.26541 0.34986 0.25903 0.0
O472 O 0.23799 0.34466 0.32571 0.0
O473 O 0.21711 0.32119 0.33819 0.0
C474 C 0.24981 0.30505 0.32137 0.0
C475 C 0.22302 0.33599 0.33204 0.0
C476 C 0.67832 0.91955 0.41187 0.0
C477 C 0.67258 0.92207 0.24629 0.0
O478 O 0.66834 0.92187 0.3903 0.0
Zn479 Zn 0.67566 0.92143 0.32901 0.0
O480 O 0.68914 0.9185 0.38954 0.0
Zn481 Zn 0.69632 0.91971 0.31831 0.0
O482 O 0.71682 0.93932 0.3117 0.0
O483 O 0.69698 0.94358 0.32446 0.0
O484 O 0.68445 0.92049 0.25709 0.0
O485 O 0.66409 0.92322 0.27758 0.0
O486 O 0.67178 0.89755 0.3224 0.0
O487 O 0.69502 0.89932 0.31127 0.0
C488 C 0.71172 0.94893 0.31693 0.0
C489 C 0.68007 0.89081 0.31581 0.0
C490 C 0.06088 0.7608 0.3328 0.0
C491 C 0.11864 0.79293 0.3501 0.0
O492 O 0.06899 0.77585 0.33168 0.0
Zn493 Zn 0.08937 0.77756 0.34663 0.0
O494 O 0.0677 0.75288 0.34344 0.0
Zn495 Zn 0.09092 0.75683 0.35895 0.0
O496 O 0.08973 0.74936 0.42058 0.0
O497 O 0.08686 0.77041 0.41803 0.0
O498 O 0.11309 0.77808 0.35617 0.0
O499 O 0.10909 0.79812 0.34458 0.0
O500 O 0.09204 0.76591 0.28674 0.0
O501 O 0.09366 0.74515 0.31005 0.0
C502 C 0.08742 0.75949 0.44126 0.0
C503 C 0.09347 0.75381 0.27757 0.0
H504 H 0.34335 0.09511 0.50549 0.0
H505 H 0.2921 0.06766 0.51307 0.0
H506 H 0.29078 0.06463 0.42833 0.0
H507 H 0.34475 0.1165 0.40391 0.0
H508 H 0.36211 0.11691 0.38073 0.0
H509 H 0.35908 0.11601 0.44211 0.0
H510 H 0.36142 0.09071 0.4462 0.0
H511 H 0.36442 0.09151 0.38477 0.0
H512 H 0.34868 0.07388 0.41088 0.0
H513 H 0.29504 0.06448 0.34305 0.0
H514 H 0.30434 0.06915 0.26245 0.0
H515 H 0.35276 0.0981 0.30982 0.0
C516 C 0.33186 0.08834 0.4893 0.0
C517 C 0.31782 0.08149 0.51579 0.0
C518 C 0.303 0.07298 0.49337 0.0
C519 C 0.30213 0.07114 0.44533 0.0
C520 C 0.31619 0.07807 0.42019 0.0
C521 C 0.33078 0.08664 0.44131 0.0
C522 C 0.34403 0.09365 0.4061 0.0
C523 C 0.35302 0.11185 0.40835 0.0
C524 C 0.3553 0.08704 0.41237 0.0
C525 C 0.33462 0.0877 0.36187 0.0
C526 C 0.31861 0.07855 0.37084 0.0
C527 C 0.30754 0.07166 0.33559 0.0
C528 C 0.31295 0.07434 0.28991 0.0
C529 C 0.32927 0.08402 0.2798 0.0
C530 C 0.34022 0.0907 0.31642 0.0
H531 H 0.91895 0.2551 0.51156 0.0
H532 H 0.93962 0.22474 0.51732 0.0
H533 H 0.94086 0.22477 0.43221 0.0
H534 H 0.89396 0.23571 0.41571 0.0
H535 H 0.89587 0.25351 0.39071 0.0
H536 H 0.89793 0.25231 0.45199 0.0
H537 H 0.92555 0.27761 0.44905 0.0
H538 H 0.92357 0.27889 0.3877 0.0
H539 H 0.94046 0.27835 0.41071 0.0
H540 H 0.93949 0.22777 0.34666 0.0
H541 H 0.93377 0.23172 0.26658 0.0
H542 H 0.91238 0.25879 0.31585 0.0
C543 C 0.92396 0.24867 0.49487 0.0
C544 C 0.92938 0.24007 0.52102 0.0
C545 C 0.93548 0.23146 0.49794 0.0
C546 C 0.93627 0.23145 0.44964 0.0
C547 C 0.93072 0.23995 0.42485 0.0
C548 C 0.92455 0.24828 0.44661 0.0
C549 C 0.91837 0.2555 0.41181 0.0
C550 C 0.90047 0.24886 0.41793 0.0
C551 C 0.92754 0.27367 0.41502 0.0
C552 C 0.92196 0.24986 0.36709 0.0
C553 C 0.92929 0.2411 0.37544 0.0
C554 C 0.93376 0.23461 0.33971 0.0
C555 C 0.93048 0.23696 0.29427 0.0
C556 C 0.9226 0.24555 0.28479 0.0
C557 C 0.91839 0.25216 0.32188 0.0
H558 H 0.76682 0.68899 0.52352 0.0
H559 H 0.74668 0.64025 0.56886 0.0
H560 H 0.74052 0.63122 0.48818 0.0
H561 H 0.73801 0.68082 0.43161 0.0
H562 H 0.7525 0.69553 0.39356 0.0
H563 H 0.75487 0.69816 0.45507 0.0
H564 H 0.78272 0.70107 0.44899 0.0
H565 H 0.78043 0.69844 0.38752 0.0
H566 H 0.78488 0.68568 0.42145 0.0
H567 H 0.73858 0.62764 0.40234 0.0
H568 H 0.73946 0.62965 0.31736 0.0
H569 H 0.75928 0.68047 0.32769 0.0
C570 C 0.76102 0.67641 0.5165 0.0
C571 C 0.75727 0.66533 0.55255 0.0
C572 C 0.74962 0.64896 0.5419 0.0
C573 C 0.74609 0.64371 0.49615 0.0
C574 C 0.75006 0.65494 0.46143 0.0
C575 C 0.75719 0.67094 0.47105 0.0
C576 C 0.76033 0.68054 0.42726 0.0
C577 C 0.75086 0.68927 0.42686 0.0
C578 C 0.77815 0.69211 0.42095 0.0
C579 C 0.75414 0.66747 0.39147 0.0
C580 C 0.74832 0.6528 0.41194 0.0
C581 C 0.74288 0.63903 0.38594 0.0
C582 C 0.74345 0.64029 0.33774 0.0
C583 C 0.74924 0.65518 0.31604 0.0
C584 C 0.75448 0.6689 0.34338 0.0
H585 H 0.08561 0.31057 0.99178 0.0
H586 H 0.07513 0.34738 0.95266 0.0
H587 H 0.0764 0.35501 0.03372 0.0
H588 H 0.06287 0.30002 0.10151 0.0
H589 H 0.07709 0.29668 0.13171 0.0
H590 H 0.07433 0.29315 0.07054 0.0
H591 H 0.10427 0.31222 0.05739 0.0
H592 H 0.10711 0.31585 0.11842 0.0
H593 H 0.11327 0.33219 0.07905 0.0
H594 H 0.08167 0.36088 0.11656 0.0
H595 H 0.0886 0.36321 0.19906 0.0
H596 H 0.09404 0.32181 0.18857 0.0
C597 C 0.08331 0.32004 1.00041 0.0
C598 C 0.08029 0.32836 0.9655 0.0
C599 C 0.07749 0.34079 0.9784 0.0
C600 C 0.07817 0.34524 0.02453 0.0
C601 C 0.08148 0.33707 0.05786 0.0
C602 C 0.0838 0.3246 0.04674 0.0
C603 C 0.08761 0.3182 0.08974 0.0
C604 C 0.0747 0.30099 0.09891 0.0
C605 C 0.10404 0.31971 0.0859 0.0
C606 C 0.08742 0.3293 0.12629 0.0
C607 C 0.08389 0.3401 0.10685 0.0
C608 C 0.08414 0.35231 0.13244 0.0
C609 C 0.08814 0.35358 0.17919 0.0
C610 C 0.0916 0.34257 0.20018 0.0
C611 C 0.09107 0.33015 0.1735 0.0
H612 H 0.68471 0.7644 0.17134 0.0
H613 H 0.63364 0.73466 0.17915 0.0
H614 H 0.63233 0.73243 0.0943 0.0
H615 H 0.685 0.7861 0.073 0.0
H616 H 0.70268 0.78761 0.04837 0.0
H617 H 0.69977 0.78585 0.1098 0.0
H618 H 0.70332 0.76123 0.11001 0.0
H619 H 0.70626 0.76292 0.04851 0.0
H620 H 0.69103 0.74467 0.07324 0.0
H621 H 0.63645 0.73419 0.00846 0.0
H622 H 0.64554 0.74059 0.92791 0.0
H623 H 0.6939 0.76983 0.97567 0.0
C624 C 0.67327 0.75722 0.15526 0.0
C625 C 0.65928 0.7496 0.18197 0.0
C626 C 0.64452 0.74057 0.15947 0.0
C627 C 0.64366 0.7392 0.11127 0.0
C628 C 0.65765 0.747 0.08595 0.0
C629 C 0.67218 0.75587 0.10713 0.0
C630 C 0.68534 0.76377 0.07182 0.0
C631 C 0.69368 0.78191 0.07601 0.0
C632 C 0.69718 0.75778 0.07616 0.0
C633 C 0.67592 0.75806 0.02749 0.0
C634 C 0.65999 0.74828 0.03643 0.0
C635 C 0.64891 0.74178 1.00105 0.0
C636 C 0.6542 0.74549 0.95534 0.0
C637 C 0.67045 0.75571 0.94528 0.0
C638 C 0.68141 0.76194 0.98206 0.0
H639 H 0.23678 0.9231 0.20324 0.0
H640 H 0.28091 0.92256 0.21143 0.0
H641 H 0.28473 0.92724 0.1277 0.0
H642 H 0.22401 0.90134 0.10003 0.0
H643 H 0.21479 0.91183 0.07631 0.0
H644 H 0.2164 0.91066 0.1378 0.0
H645 H 0.23102 0.94125 0.14338 0.0
H646 H 0.22939 0.94251 0.08184 0.0
H647 H 0.24852 0.95286 0.10917 0.0
H648 H 0.28304 0.92995 0.04354 0.0
H649 H 0.27556 0.92958 0.96253 0.0
H650 H 0.23181 0.92729 1.00588 0.0
C651 C 0.24743 0.92441 0.18742 0.0
C652 C 0.2587 0.92272 0.21381 0.0
C653 C 0.27222 0.92394 0.19183 0.0
C654 C 0.27451 0.92664 0.14433 0.0
C655 C 0.26308 0.92793 0.11903 0.0
C656 C 0.24976 0.92682 0.13958 0.0
C657 C 0.23866 0.9272 0.10345 0.0
C658 C 0.22252 0.91185 0.10447 0.0
C659 C 0.23679 0.94183 0.10985 0.0
C660 C 0.24771 0.92842 0.05953 0.0
C661 C 0.26185 0.92903 0.0696 0.0
C662 C 0.27206 0.9296 0.03518 0.0
C663 C 0.26766 0.92935 0.98914 0.0
C664 C 0.25309 0.92843 0.97758 0.0
C665 C 0.24309 0.92815 0.01346 0.0
H666 H 0.66318 0.93145 0.67671 0.0
H667 H 0.65929 0.88583 0.70263 0.0
H668 H 0.66495 0.88391 0.62064 0.0
H669 H 0.64323 0.92015 0.56541 0.0
H670 H 0.65533 0.93944 0.5402 0.0
H671 H 0.65161 0.93756 0.60132 0.0
H672 H 0.6818 0.95281 0.61676 0.0
H673 H 0.68562 0.95462 0.55568 0.0
H674 H 0.69406 0.94572 0.5919 0.0
H675 H 0.67295 0.88781 0.53775 0.0
H676 H 0.67833 0.89506 0.45538 0.0
H677 H 0.67384 0.9365 0.48007 0.0
C678 C 0.66348 0.92106 0.66488 0.0
C679 C 0.66089 0.9088 0.69578 0.0
C680 C 0.66118 0.89529 0.67929 0.0
C681 C 0.66449 0.89415 0.63293 0.0
C682 C 0.66712 0.90647 0.6033 0.0
C683 C 0.66628 0.91949 0.61825 0.0
C684 C 0.66867 0.93058 0.57847 0.0
C685 C 0.65382 0.93201 0.57091 0.0
C686 C 0.68342 0.9469 0.58618 0.0
C687 C 0.67115 0.92182 0.53906 0.0
C688 C 0.67054 0.90811 0.55445 0.0
C689 C 0.67325 0.8984 0.52512 0.0
C690 C 0.67639 0.90265 0.47857 0.0
C691 C 0.67639 0.91625 0.46168 0.0
C692 C 0.67375 0.92596 0.49228 0.0
H693 H 0.10017 0.74794 0.50335 0.0
H694 H 0.07092 0.76976 0.49325 0.0
H695 H 0.06792 0.76851 0.57814 0.0
H696 H 0.08 0.72173 0.59905 0.0
H697 H 0.09802 0.72468 0.62534 0.0
H698 H 0.097 0.72637 0.56378 0.0
H699 H 0.12145 0.75461 0.56647 0.0
H700 H 0.12258 0.75299 0.62798 0.0
H701 H 0.12118 0.76927 0.60374 0.0
H702 H 0.06789 0.7645 0.66409 0.0
H703 H 0.07308 0.7607 0.74509 0.0
H704 H 0.10398 0.74333 0.69897 0.0
C705 C 0.09301 0.75231 0.51901 0.0
C706 C 0.08562 0.75879 0.49186 0.0
C707 C 0.07664 0.76472 0.51355 0.0
C708 C 0.07482 0.764 0.56164 0.0
C709 C 0.08227 0.75753 0.58746 0.0
C710 C 0.09136 0.75199 0.56694 0.0
C711 C 0.09895 0.74654 0.6026 0.0
C712 C 0.09314 0.72877 0.59737 0.0
C713 C 0.11711 0.75645 0.60004 0.0
C714 C 0.09272 0.74988 0.64644 0.0
C715 C 0.08291 0.75598 0.63695 0.0
C716 C 0.07559 0.75979 0.67192 0.0
C717 C 0.07856 0.75753 0.71779 0.0
C718 C 0.08897 0.75178 0.72828 0.0
C719 C 0.09604 0.74783 0.692 0.0
H720 H 0.24972 0.32742 0.48335 0.0
H721 H 0.2828 0.37493 0.43596 0.0
H722 H 0.28691 0.38454 0.51633 0.0
H723 H 0.23166 0.33788 0.5713 0.0
H724 H 0.22993 0.32302 0.61156 0.0
H725 H 0.23006 0.3197 0.55058 0.0
H726 H 0.25374 0.31492 0.56084 0.0
H727 H 0.2536 0.3181 0.62196 0.0
H728 H 0.27145 0.32972 0.58914 0.0
H729 H 0.28541 0.38942 0.60124 0.0
H730 H 0.28075 0.38862 0.68531 0.0
H731 H 0.25017 0.33768 0.67805 0.0
C732 C 0.25797 0.33981 0.48993 0.0
C733 C 0.26592 0.35043 0.4533 0.0
C734 C 0.27665 0.36655 0.46342 0.0
C735 C 0.27901 0.37214 0.50897 0.0
C736 C 0.27077 0.36142 0.54417 0.0
C737 C 0.26069 0.34553 0.53528 0.0
C738 C 0.2533 0.33648 0.57936 0.0
C739 C 0.23517 0.32882 0.5781 0.0
C740 C 0.25833 0.32407 0.58835 0.0
C741 C 0.26056 0.34979 0.61431 0.0
C742 C 0.2705 0.36411 0.59328 0.0
C743 C 0.27785 0.37824 0.61817 0.0
C744 C 0.27508 0.37768 0.66583 0.0
C745 C 0.26524 0.36309 0.68821 0.0
C746 C 0.25795 0.34898 0.66197 0.0
H747 H 0.90843 0.6548 0.82905 0.0
H748 H 0.9544 0.69519 0.79644 0.0
H749 H 0.95987 0.70085 0.87898 0.0
H750 H 0.89946 0.67274 0.91973 0.0
H751 H 0.88989 0.65543 0.9559 0.0
H752 H 0.89005 0.65326 0.89436 0.0
H753 H 0.9029 0.63574 0.90413 0.0
H754 H 0.90274 0.63782 0.96583 0.0
H755 H 0.92102 0.64316 0.93643 0.0
H756 H 0.95938 0.70424 0.96281 0.0
H757 H 0.95326 0.70461 0.04505 0.0
H758 H 0.90811 0.66162 0.0267 0.0
C759 C 0.91977 0.66462 0.83938 0.0
C760 C 0.93099 0.67453 0.80612 0.0
C761 C 0.94559 0.68743 0.82109 0.0
C762 C 0.94885 0.69072 0.86799 0.0
C763 C 0.93746 0.68097 0.89979 0.0
C764 C 0.92325 0.66811 0.88639 0.0
C765 C 0.91273 0.66018 0.92795 0.0
C766 C 0.89711 0.66042 0.92425 0.0
C767 C 0.90967 0.64322 0.93393 0.0
C768 C 0.9231 0.6709 0.96647 0.0
C769 C 0.93734 0.68275 0.94921 0.0
C770 C 0.94842 0.69486 0.97695 0.0
C771 C 0.94483 0.695 0.02354 0.0
C772 C 0.93035 0.68304 0.04215 0.0
C773 C 0.91944 0.67067 0.01343 0.0
H774 H 0.31613 0.24438 0.01746 0.0
H775 H 0.36457 0.27091 0.06655 0.0
H776 H 0.37405 0.27712 0.98617 0.0
H777 H 0.32345 0.22731 0.92002 0.0
H778 H 0.30944 0.22891 0.88318 0.0
H779 H 0.30641 0.22721 0.94456 0.0
H780 H 0.30514 0.25312 0.94535 0.0
H781 H 0.30812 0.25488 0.88387 0.0
H782 H 0.32124 0.27091 0.92108 0.0
H783 H 0.3784 0.27834 0.89989 0.0
H784 H 0.37707 0.27618 0.81482 0.0
H785 H 0.32579 0.2503 0.82198 0.0
C786 C 0.32872 0.25165 0.01136 0.0
C787 C 0.3396 0.25714 0.04845 0.0
C788 C 0.35599 0.26662 0.03884 0.0
C789 C 0.3615 0.27018 0.99323 0.0
C790 C 0.35048 0.26439 0.95749 0.0
C791 C 0.33442 0.25551 0.96606 0.0
C792 C 0.32506 0.25057 0.92147 0.0
C793 C 0.31553 0.23242 0.91707 0.0
C794 C 0.31425 0.25781 0.91773 0.0
C795 C 0.33838 0.2578 0.88646 0.0
C796 C 0.35296 0.26566 0.90791 0.0
C797 C 0.36703 0.27244 0.88273 0.0
C798 C 0.36617 0.27112 0.83445 0.0
C799 C 0.35135 0.26328 0.81173 0.0
C800 C 0.3373 0.25667 0.83827 0.0
H801 H 0.75927 0.08677 0.82899 0.0
H802 H 0.72877 0.10726 0.82277 0.0
H803 H 0.72449 0.10366 0.90699 0.0
H804 H 0.73836 0.05787 0.91943 0.0
H805 H 0.75626 0.06084 0.94661 0.0
H806 H 0.75595 0.06388 0.88547 0.0
H807 H 0.77968 0.09237 0.8939 0.0
H808 H 0.78011 0.0894 0.95498 0.0
H809 H 0.77834 0.10583 0.93382 0.0
H810 H 0.72364 0.09789 0.99198 0.0
H811 H 0.72845 0.09312 0.07229 0.0
H812 H 0.76094 0.07799 0.024 0.0
C813 C 0.75154 0.09032 0.84532 0.0
C814 C 0.74419 0.09713 0.81932 0.0
C815 C 0.73447 0.10198 0.84204 0.0
C816 C 0.73191 0.0999 0.8898 0.0
C817 C 0.73935 0.09317 0.91446 0.0
C818 C 0.74913 0.08864 0.8931 0.0
C819 C 0.75662 0.08277 0.92797 0.0
C820 C 0.75149 0.0653 0.91934 0.0
C821 C 0.77476 0.09322 0.92764 0.0
C822 C 0.74957 0.08477 0.97232 0.0
C823 C 0.73944 0.09054 0.96366 0.0
C824 C 0.73156 0.09338 0.99914 0.0
C825 C 0.73432 0.09057 0.0447 0.0
C826 C 0.74508 0.08517 0.05458 0.0
C827 C 0.75264 0.08209 0.01767 0.0
H828 H 0.98531 0.40933 0.86543 0.0
H829 H 0.03453 0.43111 0.90715 0.0
H830 H 0.04264 0.43465 0.82527 0.0
H831 H 0.98869 0.38805 0.76693 0.0
H832 H 0.97489 0.39087 0.7326 0.0
H833 H 0.97304 0.38979 0.79444 0.0
H834 H 0.9743 0.41697 0.79561 0.0
H835 H 0.9762 0.41817 0.73384 0.0
H836 H 0.99086 0.43385 0.76915 0.0
H837 H 0.04539 0.43757 0.73878 0.0
H838 H 0.04245 0.43774 0.65413 0.0
H839 H 0.99136 0.41263 0.66948 0.0
C840 C 0.9978 0.41478 0.85736 0.0
C841 C 0.00931 0.42001 0.89259 0.0
C842 C 0.02551 0.42697 0.88066 0.0
C843 C 0.03023 0.42906 0.83429 0.0
C844 C 0.01858 0.42391 0.80039 0.0
C845 C 1.00268 0.41672 0.81137 0.0
C846 C 0.9925 0.4122 0.76852 0.0
C847 C 0.98164 0.39415 0.76545 0.0
C848 C 0.98291 0.42082 0.76669 0.0
C849 C 1.00516 0.41821 0.73165 0.0
C850 C 0.02013 0.42501 0.75069 0.0
C851 C 0.03372 0.43209 0.72346 0.0
C852 C 0.03194 0.43219 0.6755 0.0
C853 C 0.01669 0.42507 0.65534 0.0
C854 C 1.00317 0.41793 0.6839 0.0
H855 H 0.59498 0.57352 0.65428 0.0
H856 H 0.57568 0.6051 0.65014 0.0
H857 H 0.5769 0.60686 0.73519 0.0
H858 H 0.57313 0.55182 0.75276 0.0
H859 H 0.58882 0.54921 0.77597 0.0
H860 H 0.58753 0.55135 0.71477 0.0
H861 H 0.61625 0.575 0.71416 0.0
H862 H 0.61764 0.57293 0.7754 0.0
H863 H 0.62151 0.59162 0.75177 0.0
H864 H 0.57992 0.6049 0.82083 0.0
H865 H 0.58291 0.59814 0.90071 0.0
H866 H 0.59906 0.56677 0.8494 0.0
C867 C 0.59121 0.58098 0.67123 0.0
C868 C 0.58537 0.58931 0.64551 0.0
C869 C 0.58024 0.59866 0.66909 0.0
C870 C 0.58093 0.59977 0.71738 0.0
C871 C 0.58664 0.59132 0.7417 0.0
C872 C 0.59159 0.58202 0.71945 0.0
C873 C 0.59639 0.57344 0.75377 0.0
C874 C 0.58584 0.55538 0.74903 0.0
C875 C 0.614 0.57856 0.74845 0.0
C876 C 0.59331 0.57932 0.79882 0.0
C877 C 0.58787 0.58976 0.79106 0.0
C878 C 0.58418 0.59674 0.82729 0.0
C879 C 0.58595 0.59284 0.87261 0.0
C880 C 0.59121 0.5819 0.88149 0.0
C881 C 0.595 0.57515 0.84388 0.0
H882 H 0.43815 0.02482 0.86978 0.0
H883 H 0.40834 0.97665 0.91832 0.0
H884 H 0.40239 0.96733 0.8379 0.0
H885 H 0.4136 0.02181 0.77053 0.0
H886 H 0.43042 0.03399 0.73447 0.0
H887 H 0.43174 0.037 0.79593 0.0
H888 H 0.45626 0.0333 0.79836 0.0
H889 H 0.45498 0.03022 0.737 0.0
H890 H 0.45484 0.01552 0.77491 0.0
H891 H 0.40113 0.96292 0.75224 0.0
H892 H 0.40368 0.96398 0.66744 0.0
H893 H 0.4336 0.01505 0.67427 0.0
C894 C 0.43022 0.01233 0.86356 0.0
C895 C 0.42371 1.00148 0.90054 0.0
C896 C 0.41345 0.98522 0.89072 0.0
C897 C 0.41 0.97979 0.84509 0.0
C898 C 0.41678 0.99076 0.80951 0.0
C899 C 0.42656 0.00671 0.81817 0.0
C900 C 0.43258 0.01597 0.77363 0.0
C901 C 0.42673 0.0279 0.76834 0.0
C902 C 0.45074 0.02424 0.77083 0.0
C903 C 0.42483 1.0027 0.73864 0.0
C904 C 0.41578 0.98825 0.76007 0.0
C905 C 0.40804 0.97419 0.73506 0.0
C906 C 0.4096 0.97491 0.68689 0.0
C907 C 0.41874 0.98959 0.66412 0.0
C908 C 0.42635 0.00366 0.69054 0.0
H909 H 0.59818 0.0196 0.35612 0.0
H910 H 0.57924 0.97117 0.40268 0.0
H911 H 0.57534 0.96208 0.32178 0.0
H912 H 0.5727 0.01173 0.26124 0.0
H913 H 0.58762 0.02629 0.22379 0.0
H914 H 0.58943 0.02907 0.28527 0.0
H915 H 0.61717 0.03162 0.28265 0.0
H916 H 0.61549 0.02893 0.22107 0.0
H917 H 0.61945 0.01611 0.25643 0.0
H918 H 0.57095 0.95803 0.23605 0.0
H919 H 0.56935 0.95968 0.15121 0.0
H920 H 0.5933 0.01087 0.1603 0.0
C921 C 0.59336 0.0071 0.34923 0.0
C922 C 0.58896 0.99607 0.38562 0.0
C923 C 0.58277 0.97983 0.3753 0.0
C924 C 0.58045 0.97455 0.32947 0.0
C925 C 0.58469 0.9857 0.29437 0.0
C926 C 0.5913 1.00167 0.30368 0.0
C927 C 0.59493 0.01121 0.25963 0.0
C928 C 0.58561 0.02009 0.25737 0.0
C929 C 0.61282 0.02264 0.25466 0.0
C930 C 0.58903 0.99808 0.22415 0.0
C931 C 0.58302 0.98343 0.2449 0.0
C932 C 0.57589 0.96945 0.21935 0.0
C933 C 0.57497 0.97048 0.17131 0.0
C934 C 0.5814 0.98539 0.14938 0.0
C935 C 0.58859 0.99934 0.1762 0.0
H936 H 0.02229 0.5892 0.35038 0.0
H937 H 0.97168 0.57129 0.35615 0.0
H938 H 0.97106 0.57331 0.27131 0.0
H939 H 0.03131 0.61672 0.25501 0.0
H940 H 0.04568 0.61244 0.22996 0.0
H941 H 0.04235 0.61067 0.29129 0.0
H942 H 0.03637 0.58163 0.28826 0.0
H943 H 0.03971 0.58332 0.227 0.0
H944 H 0.02123 0.56783 0.24983 0.0
H945 H 0.97592 0.57689 0.18547 0.0
H946 H 0.98543 0.57984 0.10523 0.0
H947 H 0.03268 0.59425 0.15519 0.0
C948 C 0.01111 0.5859 0.33386 0.0
C949 C 0.99704 0.58022 0.35997 0.0
C950 C 0.9826 0.5757 0.3369 0.0
C951 C 0.98214 0.57686 0.28873 0.0
C952 C 0.9962 0.58243 0.264 0.0
C953 C 0.0104 0.58675 0.28575 0.0
C954 C 0.02364 0.59143 0.25101 0.0
C955 C 0.0365 0.60885 0.2572 0.0
C956 C 0.03064 0.58039 0.25422 0.0
C957 C 0.01467 0.58898 0.20629 0.0
C958 C 0.9989 0.58398 0.21456 0.0
C959 C 0.98824 0.58081 0.17863 0.0
C960 C 0.99378 0.58257 0.13311 0.0
C961 C 0.00981 0.58728 0.12374 0.0
C962 C 0.02036 0.59065 0.16106 0.0
H963 H 0.42599 0.41565 0.1622 0.0
H964 H 0.4021 0.44301 0.15406 0.0
H965 H 0.39998 0.44254 0.23911 0.0
H966 H 0.40483 0.39129 0.26122 0.0
H967 H 0.42224 0.39218 0.28572 0.0
H968 H 0.42066 0.39349 0.22421 0.0
H969 H 0.44719 0.42008 0.22342 0.0
H970 H 0.44884 0.41885 0.28487 0.0
H971 H 0.44948 0.43608 0.25984 0.0
H972 H 0.40046 0.43904 0.32477 0.0
H973 H 0.40573 0.43509 0.40544 0.0
H974 H 0.43126 0.41187 0.35816 0.0
C975 C 0.42011 0.42133 0.17838 0.0
C976 C 0.414 0.42918 0.15173 0.0
C977 C 0.40677 0.43687 0.17399 0.0
C978 C 0.40547 0.43661 0.22218 0.0
C979 C 0.4117 0.42884 0.24755 0.0
C980 C 0.41905 0.42151 0.22649 0.0
C981 C 0.4258 0.41503 0.26181 0.0
C982 C 0.41791 0.39692 0.258 0.0
C983 C 0.4439 0.42299 0.2572 0.0
C984 C 0.42111 0.41988 0.30604 0.0
C985 C 0.41277 0.4276 0.297 0.0
C986 C 0.40702 0.43305 0.33226 0.0
C987 C 0.41003 0.4307 0.37797 0.0
C988 C 0.41895 0.42322 0.38806 0.0
C989 C 0.42449 0.4177 0.3515 0.0
H990 H 0.34353 0.20765 0.17592 0.0
H991 H 0.29489 0.17921 0.12919 0.0
H992 H 0.29843 0.15607 0.12275 0.0
H993 H 0.36003 0.18909 0.10204 0.0
H994 H 0.37366 0.18968 0.14501 0.0
H995 H 0.36771 0.20446 0.14513 0.0
H996 H 0.35833 0.19742 0.22968 0.0
H997 H 0.36422 0.1826 0.22981 0.0
H998 H 0.34418 0.17722 0.24445 0.0
H999 H 0.3064 0.13598 0.12281 0.0
H1000 H 0.31851 0.11933 0.12866 0.0
H1001 H 0.36253 0.15981 0.17529 0.0
C1002 C 0.33368 0.19657 0.16405 0.0
C1003 C 0.31891 0.1953 0.15303 0.0
C1004 C 0.3063 0.18055 0.1379 0.0
C1005 C 0.30819 0.1673 0.13406 0.0
C1006 C 0.32277 0.16889 0.14542 0.0
C1007 C 0.33535 0.18309 0.16004 0.0
C1008 C 0.34964 0.18124 0.17071 0.0
C1009 C 0.36359 0.19174 0.13881 0.0
C1010 C 0.35437 0.18483 0.2217 0.0
C1011 C 0.34302 0.16377 0.15999 0.0
C1012 C 0.32749 0.15702 0.14543 0.0
C1013 C 0.31857 0.1411 0.13405 0.0
C1014 C 0.32561 0.13173 0.13766 0.0
C1015 C 0.34153 0.13818 0.15255 0.0
C1016 C 0.35038 0.15451 0.16369 0.0
H1017 H 0.82323 0.13081 0.16134 0.0
H1018 H 0.78174 0.13628 0.17094 0.0
H1019 H 0.79881 0.16514 0.17375 0.0
H1020 H 0.84761 0.16238 0.23841 0.0
H1021 H 0.8656 0.16905 0.2059 0.0
H1022 H 0.85021 0.1486 0.20327 0.0
H1023 H 0.84933 0.15039 0.11435 0.0
H1024 H 0.8648 0.17081 0.11671 0.0
H1025 H 0.84631 0.16552 0.0887 0.0
H1026 H 0.82002 0.1933 0.17851 0.0
H1027 H 0.84441 0.21937 0.18025 0.0
H1028 H 0.87249 0.19628 0.16642 0.0
C1029 C 0.81775 0.13809 0.16358 0.0
C1030 C 0.80109 0.13118 0.16599 0.0
C1031 C 0.79443 0.14118 0.16914 0.0
C1032 C 0.80403 0.15765 0.17081 0.0
C1033 C 0.82034 0.16407 0.16913 0.0
C1034 C 0.82721 0.15467 0.1652 0.0
C1035 C 0.84513 0.16477 0.16419 0.0
C1036 C 0.85257 0.16097 0.2054 0.0
C1037 C 0.85178 0.16275 0.11825 0.0
C1038 C 0.84716 0.18122 0.16842 0.0
C1039 C 0.83269 0.18049 0.17138 0.0
C1040 C 0.83145 0.19406 0.17602 0.0
C1041 C 0.84538 0.20882 0.17713 0.0
C1042 C 0.86039 0.20993 0.17344 0.0
C1043 C 0.86121 0.19587 0.16927 0.0
H1044 H 0.87287 0.67334 0.1512 0.0
H1045 H 0.89112 0.724 0.15981 0.0
H1046 H 0.86368 0.71908 0.16595 0.0
H1047 H 0.83768 0.66374 0.08392 0.0
H1048 H 0.82574 0.64531 0.11384 0.0
H1049 H 0.84672 0.65305 0.1075 0.0
H1050 H 0.84934 0.65181 0.19605 0.0
H1051 H 0.82842 0.64427 0.20275 0.0
H1052 H 0.84238 0.66193 0.23299 0.0
H1053 H 0.83415 0.70831 0.1757 0.0
H1054 H 0.80508 0.69291 0.18325 0.0
H1055 H 0.80643 0.64929 0.16816 0.0
C1056 C 0.87116 0.68347 0.15379 0.0
C1057 C 0.8842 0.6991 0.15496 0.0
C1058 C 0.88135 0.71195 0.15854 0.0
C1059 C 0.8658 0.70925 0.16225 0.0
C1060 C 0.85326 0.69365 0.16208 0.0
C1061 C 0.8558 0.681 0.15746 0.0
C1062 C 0.84039 0.66536 0.1591 0.0
C1063 C 0.83746 0.65634 0.11336 0.0
C1064 C 0.84013 0.65525 0.20017 0.0
C1065 C 0.82873 0.67114 0.16583 0.0
C1066 C 0.83637 0.68749 0.1675 0.0
C1067 C 0.82806 0.69552 0.17416 0.0
C1068 C 0.81153 0.68663 0.17861 0.0
C1069 C 0.80341 0.66985 0.17634 0.0
C1070 C 0.81223 0.66207 0.1701 0.0
H1071 H 0.1419 0.33771 0.32695 0.0
H1072 H 0.16991 0.38861 0.30801 0.0
H1073 H 0.19434 0.38687 0.30987 0.0
H1074 H 0.16805 0.33427 0.40596 0.0
H1075 H 0.16472 0.31565 0.3832 0.0
H1076 H 0.14943 0.32082 0.37902 0.0
H1077 H 0.14829 0.31684 0.29053 0.0
H1078 H 0.16351 0.31156 0.29446 0.0
H1079 H 0.16616 0.32745 0.25702 0.0
H1080 H 0.21572 0.3796 0.31529 0.0
H1081 H 0.23248 0.36737 0.32171 0.0
H1082 H 0.19046 0.32116 0.33764 0.0
C1083 C 0.15315 0.34851 0.32284 0.0
C1084 C 0.15397 0.36332 0.31721 0.0
C1085 C 0.16896 0.37714 0.31224 0.0
C1086 C 0.18291 0.37626 0.31334 0.0
C1087 C 0.18166 0.36149 0.31945 0.0
C1088 C 0.16716 0.34786 0.32394 0.0
C1089 C 0.16906 0.33347 0.33056 0.0
C1090 C 0.16242 0.3256 0.37748 0.0
C1091 C 0.1613 0.32164 0.29076 0.0
C1092 C 0.18692 0.34114 0.32915 0.0
C1093 C 0.19396 0.35731 0.32274 0.0
C1094 C 0.21033 0.36694 0.32025 0.0
C1095 C 0.21976 0.35986 0.32402 0.0
C1096 C 0.21282 0.34328 0.33023 0.0
C1097 C 0.19616 0.33386 0.33305 0.0
H1098 H 0.67449 0.80607 0.30632 0.0
H1099 H 0.62353 0.78481 0.31981 0.0
H1100 H 0.62638 0.81147 0.31932 0.0
H1101 H 0.68473 0.8389 0.38032 0.0
H1102 H 0.7015 0.85268 0.3465 0.0
H1103 H 0.6954 0.83194 0.34584 0.0
H1104 H 0.69291 0.83153 0.2569 0.0
H1105 H 0.69904 0.85229 0.25727 0.0
H1106 H 0.6806 0.83829 0.23056 0.0
H1107 H 0.6349 0.84053 0.31982 0.0
H1108 H 0.6483 0.86968 0.3209 0.0
H1109 H 0.6938 0.87206 0.30729 0.0
C1110 C 0.66388 0.80697 0.30875 0.0
C1111 C 0.64875 0.79328 0.31294 0.0
C1112 C 0.63523 0.79507 0.31644 0.0
C1113 C 0.63674 0.81018 0.3162 0.0
C1114 C 0.65184 0.8234 0.31241 0.0
C1115 C 0.66517 0.82194 0.30866 0.0
C1116 C 0.68007 0.83804 0.30613 0.0
C1117 C 0.69107 0.84053 0.34714 0.0
C1118 C 0.68866 0.84016 0.25996 0.0
C1119 C 0.67306 0.84882 0.30931 0.0
C1120 C 0.65675 0.84013 0.31281 0.0
C1121 C 0.64766 0.84744 0.31691 0.0
C1122 C 0.65541 0.86404 0.31754 0.0
C1123 C 0.67213 0.87324 0.31411 0.0
C1124 C 0.68101 0.86543 0.30979 0.0
H1125 H 0.20189 0.87384 0.33057 0.0
H1126 H 0.22403 0.84472 0.32563 0.0
H1127 H 0.1977 0.82071 0.32934 0.0
H1128 H 0.17173 0.85034 0.41053 0.0
H1129 H 0.1566 0.85304 0.38354 0.0
H1130 H 0.1771 0.86807 0.37797 0.0
H1131 H 0.17457 0.86646 0.28904 0.0
H1132 H 0.15401 0.85152 0.2943 0.0
H1133 H 0.16725 0.8476 0.2608 0.0
H1134 H 0.16946 0.80008 0.33848 0.0
H1135 H 0.14067 0.78363 0.34715 0.0
H1136 H 0.13618 0.82578 0.34466 0.0
C1137 C 0.20121 0.86242 0.32967 0.0
C1138 C 0.21508 0.86119 0.32776 0.0
C1139 C 0.21363 0.846 0.32691 0.0
C1140 C 0.19871 0.83228 0.32913 0.0
C1141 C 0.18534 0.83393 0.33188 0.0
C1142 C 0.18639 0.84858 0.33166 0.0
C1143 C 0.17011 0.84698 0.33559 0.0
C1144 C 0.16882 0.85509 0.37952 0.0
C1145 C 0.16626 0.85353 0.29235 0.0
C1146 C 0.15976 0.82913 0.33863 0.0
C1147 C 0.16886 0.8219 0.33651 0.0
C1148 C 0.16219 0.80558 0.33981 0.0
C1149 C 0.14578 0.79634 0.34496 0.0
C1150 C 0.13607 0.80337 0.34659 0.0
C1151 C 0.14322 0.82003 0.34341 0.0
H1152 H 0.64759 0.8486 0.84191 0.0
H1153 H 0.69213 0.89303 0.84351 0.0
H1154 H 0.70666 0.87828 0.84572 0.0
H1155 H 0.6594 0.82697 0.91811 0.0
H1156 H 0.64859 0.8087 0.88655 0.0
H1157 H 0.64177 0.82279 0.8868 0.0
H1158 H 0.64235 0.82344 0.7975 0.0
H1159 H 0.64914 0.80933 0.79698 0.0
H1160 H 0.66039 0.82803 0.76778 0.0
H1161 H 0.71636 0.85836 0.84671 0.0
H1162 H 0.72021 0.83512 0.84337 0.0
H1163 H 0.66926 0.80406 0.83989 0.0
C1164 C 0.6604 0.85526 0.84302 0.0
C1165 C 0.6687 0.872 0.84269 0.0
C1166 C 0.68548 0.88021 0.84374 0.0
C1167 C 0.69385 0.87194 0.84512 0.0
C1168 C 0.68529 0.85543 0.8453 0.0
C1169 C 0.66893 0.84721 0.84413 0.0
C1170 C 0.66251 0.82951 0.84313 0.0
C1171 C 0.65248 0.82153 0.88622 0.0
C1172 C 0.65305 0.82215 0.7987 0.0
C1173 C 0.6778 0.82904 0.84364 0.0
C1174 C 0.69083 0.84408 0.84522 0.0
C1175 C 0.70621 0.84653 0.84554 0.0
C1176 C 0.7083 0.83326 0.84372 0.0
C1177 C 0.69507 0.81775 0.84131 0.0
C1178 C 0.67966 0.81573 0.84166 0.0
H1179 H 0.20816 0.86854 0.8477 0.0
H1180 H 0.1762 0.88551 0.88675 0.0
H1181 H 0.1541 0.85811 0.88949 0.0
H1182 H 0.18106 0.8375 0.77396 0.0
H1183 H 0.18723 0.82356 0.7902 0.0
H1184 H 0.20102 0.8445 0.7935 0.0
H1185 H 0.20609 0.84167 0.87962 0.0
H1186 H 0.19238 0.8207 0.87653 0.0
H1187 H 0.18959 0.8326 0.91892 0.0
H1188 H 0.13525 0.8295 0.88478 0.0
H1189 H 0.12045 0.80065 0.87572 0.0
H1190 H 0.16397 0.80109 0.83993 0.0
C1191 C 0.19655 0.86646 0.85744 0.0
C1192 C 0.19396 0.87924 0.86709 0.0
C1193 C 0.17854 0.87599 0.87915 0.0
C1194 C 0.16587 0.86044 0.88083 0.0
C1195 C 0.16874 0.84817 0.87042 0.0
C1196 C 0.18366 0.8509 0.8592 0.0
C1197 C 0.18324 0.83541 0.84849 0.0
C1198 C 0.18845 0.83524 0.79857 0.0
C1199 C 0.19343 0.83242 0.88295 0.0
C1200 C 0.16573 0.82364 0.85513 0.0
C1201 C 0.15768 0.83136 0.86778 0.0
C1202 C 0.14142 0.82329 0.87514 0.0
C1203 C 0.13311 0.80684 0.86974 0.0
C1204 C 0.14099 0.79849 0.85712 0.0
C1205 C 0.15758 0.80708 0.8497 0.0
H1206 H 0.13676 0.31234 0.83439 0.0
H1207 H 0.13467 0.35557 0.85067 0.0
H1208 H 0.16369 0.37121 0.84768 0.0
H1209 H 0.17245 0.32515 0.90391 0.0
H1210 H 0.18022 0.31571 0.86726 0.0
H1211 H 0.15914 0.30762 0.87196 0.0
H1212 H 0.15725 0.30928 0.78334 0.0
H1213 H 0.17834 0.31749 0.77839 0.0
H1214 H 0.16912 0.328 0.75471 0.0
H1215 H 0.19259 0.38246 0.84014 0.0
H1216 H 0.22023 0.38874 0.83269 0.0
H1217 H 0.20457 0.33858 0.82202 0.0
C1218 C 0.14242 0.32508 0.83782 0.0
C1219 C 0.13334 0.33268 0.84277 0.0
C1220 C 0.14126 0.3494 0.84682 0.0
C1221 C 0.15779 0.35844 0.84511 0.0
C1222 C 0.16636 0.35065 0.83946 0.0
C1223 C 0.15903 0.33436 0.83623 0.0
C1224 C 0.17122 0.32912 0.83002 0.0
C1225 C 0.17073 0.31879 0.87072 0.0
C1226 C 0.16884 0.32046 0.78387 0.0
C1227 C 0.18647 0.34502 0.83 0.0
C1228 C 0.18329 0.35724 0.83541 0.0
C1229 C 0.19526 0.37301 0.8361 0.0
C1230 C 0.21096 0.37645 0.83171 0.0
C1231 C 0.21467 0.36419 0.82676 0.0
C1232 C 0.20217 0.34824 0.82566 0.0
H1233 H 0.80623 0.66468 0.66998 0.0
H1234 H 0.83489 0.71597 0.67361 0.0
H1235 H 0.85898 0.71387 0.67967 0.0
H1236 H 0.82941 0.65649 0.75023 0.0
H1237 H 0.82728 0.63947 0.71945 0.0
H1238 H 0.81205 0.64476 0.71559 0.0
H1239 H 0.81449 0.64595 0.62666 0.0
H1240 H 0.82964 0.64056 0.63021 0.0
H1241 H 0.83355 0.65837 0.60044 0.0
H1242 H 0.87972 0.70655 0.6876 0.0
H1243 H 0.89668 0.6947 0.6903 0.0
H1244 H 0.85529 0.64775 0.67872 0.0
C1245 C 0.81758 0.67547 0.67195 0.0
C1246 C 0.81864 0.69053 0.67143 0.0
C1247 C 0.83374 0.70433 0.67381 0.0
C1248 C 0.8475 0.70325 0.67747 0.0
C1249 C 0.84603 0.68829 0.67835 0.0
C1250 C 0.83152 0.67462 0.67514 0.0
C1251 C 0.83344 0.66005 0.67577 0.0
C1252 C 0.82504 0.64957 0.71777 0.0
C1253 C 0.82742 0.65068 0.63057 0.0
C1254 C 0.85131 0.66771 0.67995 0.0
C1255 C 0.85822 0.68401 0.68176 0.0
C1256 C 0.87447 0.69382 0.68596 0.0
C1257 C 0.88401 0.68689 0.68754 0.0
C1258 C 0.87741 0.67022 0.68457 0.0
C1259 C 0.86075 0.66049 0.68116 0.0
H1260 H 0.36577 0.20877 0.65687 0.0
H1261 H 0.32528 0.20779 0.72304 0.0
H1262 H 0.31149 0.17883 0.72457 0.0
H1263 H 0.34409 0.17557 0.58483 0.0
H1264 H 0.35708 0.16749 0.59056 0.0
H1265 H 0.3648 0.18845 0.5972 0.0
H1266 H 0.37561 0.18763 0.67797 0.0
H1267 H 0.36809 0.16668 0.67136 0.0
H1268 H 0.36239 0.17397 0.72058 0.0
H1269 H 0.30076 0.15055 0.7127 0.0
H1270 H 0.29445 0.1234 0.69565 0.0
H1271 H 0.34174 0.14107 0.64006 0.0
C1272 C 0.35415 0.20244 0.67254 0.0
C1273 C 0.34661 0.21063 0.68964 0.0
C1274 C 0.33131 0.20187 0.7094 0.0
C1275 C 0.32333 0.18536 0.7105 0.0
C1276 C 0.33079 0.17763 0.69214 0.0
C1277 C 0.34593 0.18575 0.6742 0.0
C1278 C 0.35086 0.17419 0.65598 0.0
C1279 C 0.35441 0.17658 0.60406 0.0
C1280 C 0.36508 0.17571 0.6831 0.0
C1281 C 0.33597 0.15844 0.66569 0.0
C1282 C 0.32461 0.16086 0.68642 0.0
C1283 C 0.30961 0.14844 0.69704 0.0
C1284 C 0.30612 0.13303 0.68686 0.0
C1285 C 0.31759 0.13003 0.66656 0.0
C1286 C 0.33276 0.14296 0.65583 0.0
H1287 H 0.80513 0.13399 0.68819 0.0
H1288 H 0.78963 0.16864 0.67788 0.0
H1289 H 0.81725 0.18982 0.66855 0.0
H1290 H 0.84128 0.15926 0.75301 0.0
H1291 H 0.85271 0.15197 0.72394 0.0
H1292 H 0.83165 0.13934 0.73075 0.0
H1293 H 0.82874 0.13482 0.64252 0.0
H1294 H 0.84977 0.14755 0.63539 0.0
H1295 H 0.83619 0.15164 0.60443 0.0
H1296 H 0.84598 0.20713 0.65714 0.0
H1297 H 0.87486 0.22024 0.65004 0.0
H1298 H 0.87284 0.17505 0.66933 0.0
C1299 C 0.80757 0.14605 0.68441 0.0
C1300 C 0.79512 0.1496 0.68377 0.0
C1301 C 0.79887 0.16555 0.67855 0.0
C1302 C 0.81455 0.17771 0.67309 0.0
C1303 C 0.82647 0.1738 0.67312 0.0
C1304 C 0.82326 0.15843 0.67911 0.0
C1305 C 0.83846 0.15765 0.6779 0.0
C1306 C 0.84118 0.1517 0.72416 0.0
C1307 C 0.83828 0.1473 0.63766 0.0
C1308 C 0.85063 0.17498 0.67006 0.0
C1309 C 0.84334 0.18399 0.6672 0.0
C1310 C 0.85186 0.20023 0.65957 0.0
C1311 C 0.86832 0.20756 0.65545 0.0
C1312 C 0.87624 0.19873 0.65917 0.0
C1313 C 0.86719 0.18215 0.66626 0.0
H1314 H 0.03107 0.4912 0.50007 0.0
H1315 H 0.98542 0.44968 0.52868 0.0
H1316 H 0.97268 0.46585 0.52444 0.0
H1317 H 0.024 0.5186 0.56708 0.0
H1318 H 0.03412 0.53478 0.52717 0.0
H1319 H 0.03994 0.51998 0.53221 0.0
H1320 H 0.03568 0.5146 0.44449 0.0
H1321 H 0.02974 0.52931 0.43928 0.0
H1322 H 0.01678 0.50939 0.41947 0.0
H1323 H 0.96443 0.48598 0.51609 0.0
H1324 H 0.96153 0.50959 0.50855 0.0
H1325 H 0.01222 0.5386 0.48652 0.0
C1326 C 0.01842 0.48555 0.50564 0.0
C1327 C 0.00931 0.4691 0.51464 0.0
C1328 C 0.99275 0.46221 0.5217 0.0
C1329 C 0.98533 0.4713 0.51927 0.0
C1330 C 0.99455 0.48736 0.5099 0.0
C1331 C 0.01074 0.49452 0.50354 0.0
C1332 C 0.01777 0.51213 0.4946 0.0
C1333 C 0.02966 0.52195 0.53253 0.0
C1334 C 0.02545 0.51661 0.4466 0.0
C1335 C 1.003 0.51363 0.49695 0.0
C1336 C 0.98975 0.49915 0.50557 0.0
C1337 C 0.97472 0.49742 0.50938 0.0
C1338 C 0.97318 0.51091 0.50492 0.0
C1339 C 0.98661 0.52598 0.49689 0.0
C1340 C 1.00169 0.52726 0.4925 0.0
H1341 H 0.4956 0.46647 0.50874 0.0
H1342 H 0.45365 0.47131 0.51072 0.0
H1343 H 0.47037 0.50021 0.5121 0.0
H1344 H 0.51892 0.49924 0.58559 0.0
H1345 H 0.53727 0.50574 0.55516 0.0
H1346 H 0.52211 0.48518 0.55385 0.0
H1347 H 0.52219 0.48583 0.46462 0.0
H1348 H 0.53738 0.50638 0.46568 0.0
H1349 H 0.51913 0.50039 0.43534 0.0
H1350 H 0.49115 0.52846 0.513 0.0
H1351 H 0.51518 0.55475 0.51294 0.0
H1352 H 0.54422 0.53249 0.51133 0.0
C1353 C 0.48996 0.47362 0.50934 0.0
C1354 C 0.47325 0.46651 0.50966 0.0
C1355 C 0.46637 0.47636 0.51059 0.0
C1356 C 0.47578 0.49285 0.51136 0.0
C1357 C 0.49213 0.49947 0.5113 0.0
C1358 C 0.49923 0.49025 0.51029 0.0
C1359 C 0.51715 0.5006 0.51058 0.0
C1360 C 0.52428 0.49751 0.55388 0.0
C1361 C 0.52439 0.49815 0.46642 0.0
C1362 C 0.5189 0.51699 0.51183 0.0
C1363 C 0.50427 0.51599 0.51219 0.0
C1364 C 0.50269 0.52942 0.5128 0.0
C1365 C 0.51644 0.54433 0.51276 0.0
C1366 C 0.53162 0.54575 0.51225 0.0
C1367 C 0.5328 0.53183 0.51201 0.0
H1368 H 0.54055 0.02351 0.5096 0.0
H1369 H 0.53774 0.97764 0.51008 0.0
H1370 H 0.50868 0.9645 0.51604 0.0
H1371 H 0.50955 0.01367 0.59208 0.0
H1372 H 0.50197 0.02497 0.56385 0.0
H1373 H 0.52259 0.03087 0.55847 0.0
H1374 H 0.52003 0.02973 0.46949 0.0
H1375 H 0.49943 0.02392 0.47461 0.0
H1376 H 0.50517 0.0118 0.4423 0.0
H1377 H 0.4798 0.95623 0.52196 0.0
H1378 H 0.45327 0.95355 0.52707 0.0
H1379 H 0.47485 0.00474 0.52447 0.0
C1380 C 0.53382 0.0107 0.51067 0.0
C1381 C 0.54148 1.00163 0.50927 0.0
C1382 C 0.5322 0.98488 0.51111 0.0
C1383 C 0.51566 0.97728 0.51451 0.0
C1384 C 0.5085 0.98656 0.51622 0.0
C1385 C 0.51727 1.0029 0.51434 0.0
C1386 C 0.50664 0.01009 0.51731 0.0
C1387 C 0.51041 0.02051 0.5605 0.0
C1388 C 0.50789 0.01944 0.4733 0.0
C1389 C 0.49056 0.99525 0.52113 0.0
C1390 C 0.49188 0.9818 0.52033 0.0
C1391 C 0.47862 0.96669 0.52273 0.0
C1392 C 0.46359 0.96528 0.52568 0.0
C1393 C 0.46194 0.97891 0.52643 0.0
C1394 C 0.47568 0.99407 0.52439 0.0
H1395 H 0.47128 0.99941 0.00875 0.0
H1396 H 0.50292 0.05029 1.00674 0.0
H1397 H 0.52593 0.04605 1.00747 0.0
H1398 H 0.4938 0.99001 0.08509 0.0
H1399 H 0.48946 0.97196 0.05593 0.0
H1400 H 0.47555 0.97899 0.05354 0.0
H1401 H 0.47625 0.97868 0.9643 0.0
H1402 H 0.49006 0.97152 0.96639 0.0
H1403 H 0.49498 0.98932 0.93485 0.0
H1404 H 0.54543 0.0361 0.012 0.0
H1405 H 0.55996 0.02145 0.01536 0.0
H1406 H 0.51542 0.97699 0.01327 0.0
C1407 C 0.48304 0.0097 0.00812 0.0
C1408 C 0.48528 0.02521 1.00772 0.0
C1409 C 0.50089 0.03831 1.00688 0.0
C1410 C 0.51402 0.036 1.00744 0.0
C1411 C 0.51135 0.02054 0.00856 0.0
C1412 C 0.49623 0.00762 0.00846 0.0
C1413 C 0.49652 0.99222 0.00997 0.0
C1414 C 0.48835 0.98274 0.05374 0.0
C1415 C 0.48901 0.98236 0.96627 0.0
C1416 C 0.51419 0.99846 0.01132 0.0
C1417 C 0.52253 0.01483 0.0106 0.0
C1418 C 0.539 0.02329 0.01234 0.0
C1419 C 0.54715 0.01483 0.01441 0.0
C1420 C 0.53886 0.99803 0.01457 0.0
C1421 C 0.52213 0.98981 0.01314 0.0
H1422 H 1.00222 0.53181 0.99087 0.0
H1423 H 0.04765 0.54898 0.05845 0.0
H1424 H 0.04169 0.52159 0.07004 0.0
H1425 H 0.9799 0.49637 0.06267 0.0
H1426 H 0.96826 0.4841 0.01537 0.0
H1427 H 0.97544 0.50509 0.01435 0.0
H1428 H 0.98896 0.50731 0.93574 0.0
H1429 H 0.98183 0.48634 0.9365 0.0
H1430 H 1.0027 0.50011 0.93029 0.0
H1431 H 0.03185 0.49315 0.07238 0.0
H1432 H 0.01884 0.4644 0.06368 0.0
H1433 H 0.97937 0.4642 0.99349 0.0
C1434 C 0.01081 0.52976 0.00853 0.0
C1435 C 0.02541 0.54258 0.02387 0.0
C1436 C 0.03643 0.53942 0.04629 0.0
C1437 C 0.03313 0.52387 0.05323 0.0
C1438 C 0.01876 0.51155 0.03746 0.0
C1439 C 0.00775 0.5142 0.01547 0.0
C1440 C 0.99355 0.49862 1.00025 0.0
C1441 C 0.97839 0.49589 0.02462 0.0
C1442 C 0.99166 0.49807 0.94756 0.0
C1443 C 0.99846 0.48688 0.01672 0.0
C1444 C 0.01302 0.49474 0.03835 0.0
C1445 C 0.02043 0.48683 0.05564 0.0
C1446 C 0.01291 0.47044 0.0503 0.0
C1447 C 0.99807 0.46195 0.0277 0.0
C1448 C 0.99064 0.47031 0.01116 0.0
H1449 H 0.47139 0.49393 0.01441 0.0
H1450 H 0.47002 0.44871 0.01296 0.0
H1451 H 0.49906 0.46255 1.00688 0.0
H1452 H 0.50318 0.51376 0.93345 0.0
H1453 H 0.5122 0.53251 0.96307 0.0
H1454 H 0.49119 0.51918 0.96776 0.0
H1455 H 0.49351 0.51963 0.05673 0.0
H1456 H 0.5145 0.53305 0.05232 0.0
H1457 H 0.50718 0.51467 0.08325 0.0
H1458 H 0.52804 0.48098 0.99832 0.0
H1459 H 0.55549 0.50303 0.99322 0.0
H1460 H 0.53866 0.53664 1.00241 0.0
C1461 C 0.4772 0.48695 0.01304 0.0
C1462 C 0.46835 0.4702 0.01414 0.0
C1463 C 0.47647 0.46153 0.01233 0.0
C1464 C 0.49299 0.46928 0.00871 0.0
C1465 C 0.50133 0.48575 1.00724 0.0
C1466 C 0.49377 0.49452 0.00979 0.0
C1467 C 0.50567 0.51213 0.00805 0.0
C1468 C 0.50289 0.51985 0.96555 0.0
C1469 C 0.50518 0.52035 0.05275 0.0
C1470 C 0.52104 0.51183 1.0039 0.0
C1471 C 0.5182 0.49647 1.00322 0.0
C1472 C 0.53042 0.49307 0.99903 0.0
C1473 C 0.546 0.50571 0.996 0.0
C1474 C 0.5493 0.5216 0.99747 0.0
C1475 C 0.53657 0.52464 1.00127 0.0
H1476 H 0.43519 0.07233 0.04191 0.0
H1477 H 0.40111 0.02363 0.07768 0.0
H1478 H 0.38467 0.0325 0.11668 0.0
H1479 H 0.43152 0.09035 0.14672 0.0
H1480 H 0.43254 0.10734 0.11874 0.0
H1481 H 0.44228 0.09758 0.09343 0.0
H1482 H 0.42686 0.09355 0.01733 0.0
H1483 H 0.41728 0.10353 0.04217 0.0
H1484 H 0.40556 0.08389 0.01874 0.0
H1485 H 0.37195 0.04588 0.15312 0.0
H1486 H 0.36149 0.06309 0.17659 0.0
H1487 H 0.40254 0.10364 0.11687 0.0
C1488 C 0.42421 0.06355 0.05764 0.0
C1489 C 0.41956 0.04724 0.05668 0.0
C1490 C 0.40505 0.03616 0.07771 0.0
C1491 C 0.39561 0.04108 0.10036 0.0
C1492 C 0.40065 0.05716 0.1016 0.0
C1493 C 0.41441 0.06827 0.08021 0.0
C1494 C 0.4165 0.08475 0.08547 0.0
C1495 C 0.43161 0.09565 0.11271 0.0
C1496 C 0.41655 0.09185 0.03811 0.0
C1497 C 0.40173 0.08105 0.11296 0.0
C1498 C 0.39295 0.06504 0.12223 0.0
C1499 C 0.37869 0.05845 0.14609 0.0
C1500 C 0.37287 0.06835 0.15942 0.0
C1501 C 0.38121 0.08471 0.14883 0.0
C1502 C 0.39606 0.09123 0.12623 0.0
H1503 H 0.91153 0.30593 0.14931 0.0
H1504 H 0.94311 0.29041 0.09508 0.0
H1505 H 0.95663 0.31452 0.04835 0.0
H1506 H 0.90812 0.32436 0.04587 0.0
H1507 H 0.90879 0.34107 0.07461 0.0
H1508 H 0.90104 0.3224 0.10423 0.0
H1509 H 0.92116 0.33596 0.17058 0.0
H1510 H 0.92869 0.3547 0.14166 0.0
H1511 H 0.94195 0.34762 0.15732 0.0
H1512 H 0.96647 0.33951 1.00598 0.0
H1513 H 0.97538 0.36675 0.98027 0.0
H1514 H 0.93857 0.36751 0.06227 0.0
C1515 C 0.9214 0.3077 0.12799 0.0
C1516 C 0.92619 0.29616 0.12597 0.0
C1517 C 0.9392 0.299 0.0976 0.0
C1518 C 0.94689 0.31263 0.07043 0.0
C1519 C 0.94162 0.32349 0.07215 0.0
C1520 C 0.92946 0.32146 0.10092 0.0
C1521 C 0.92687 0.33558 0.09772 0.0
C1522 C 0.91021 0.33054 0.07952 0.0
C1523 C 0.92985 0.34396 0.1446 0.0
C1524 C 0.9395 0.34579 0.06275 0.0
C1525 C 0.94765 0.33837 0.04805 0.0
C1526 C 0.96018 0.34546 0.0171 0.0
C1527 C 0.96509 0.36088 1.00243 0.0
C1528 C 0.95753 0.36913 0.01873 0.0
C1529 C 0.94425 0.36131 0.04822 0.0
H1530 H 0.70353 0.6308 0.13991 0.0
H1531 H 0.71887 0.59631 0.12136 0.0
H1532 H 0.69389 0.57863 0.08105 0.0
H1533 H 0.66191 0.60216 0.16009 0.0
H1534 H 0.65499 0.61366 0.12966 0.0
H1535 H 0.67394 0.62343 0.15806 0.0
H1536 H 0.68728 0.6371 0.08118 0.0
H1537 H 0.6684 0.6272 0.05239 0.0
H1538 H 0.68464 0.62517 0.03091 0.0
H1539 H 0.6678 0.56512 0.0399 0.0
H1540 H 0.64123 0.55552 1.00723 0.0
H1541 H 0.64239 0.59848 0.05326 0.0
C1542 C 0.70157 0.61945 0.12789 0.0
C1543 C 0.71322 0.61497 0.13396 0.0
C1544 C 0.71016 0.60002 0.11741 0.0
C1545 C 0.69602 0.58991 0.09421 0.0
C1546 C 0.68498 0.59484 0.08795 0.0
C1547 C 0.68747 0.60915 0.10481 0.0
C1548 C 0.67359 0.61154 0.09364 0.0
C1549 C 0.66564 0.61276 0.138 0.0
C1550 C 0.67879 0.62612 0.06269 0.0
C1551 C 0.66293 0.59634 0.06774 0.0
C1552 C 0.6698 0.58694 0.06462 0.0
C1553 C 0.66228 0.57235 0.0423 0.0
C1554 C 0.64718 0.56703 0.02364 0.0
C1555 C 0.63965 0.57622 0.02751 0.0
C1556 C 0.64781 0.59119 0.04939 0.0
H1557 H 0.07007 0.43582 0.44961 0.0
H1558 H 0.02871 0.39388 0.50285 0.0
H1559 H 0.038 0.37711 0.46806 0.0
H1560 H 0.07231 0.41921 0.34228 0.0
H1561 H 0.09359 0.42854 0.34092 0.0
H1562 H 0.08426 0.43786 0.37113 0.0
H1563 H 0.09911 0.43871 0.44597 0.0
H1564 H 0.10869 0.42964 0.4158 0.0
H1565 H 0.09764 0.4207 0.46769 0.0
H1566 H 0.05015 0.3645 0.42384 0.0
H1567 H 0.06684 0.35661 0.38128 0.0
H1568 H 0.1016 0.40613 0.35827 0.0
C1569 C 0.06314 0.42314 0.4546 0.0
C1570 C 0.04858 0.41623 0.47891 0.0
C1571 C 0.03984 0.39954 0.48431 0.0
C1572 C 0.04498 0.38984 0.4645 0.0
C1573 C 0.05902 0.39691 0.43963 0.0
C1574 C 0.06821 0.41315 0.43525 0.0
C1575 C 0.08297 0.41747 0.40693 0.0
C1576 C 0.08329 0.42629 0.36269 0.0
C1577 C 0.09799 0.4272 0.43583 0.0
C1578 C 0.08048 0.4011 0.39605 0.0
C1579 C 0.06646 0.38949 0.41494 0.0
C1580 C 0.06125 0.37346 0.40921 0.0
C1581 C 0.07082 0.36911 0.38464 0.0
C1582 C 0.08561 0.38071 0.36636 0.0
C1583 C 0.09037 0.39696 0.37168 0.0
H1584 H 0.60665 0.69996 0.37488 0.0
H1585 H 0.65502 0.71 0.35693 0.0
H1586 H 0.64789 0.68424 0.39177 0.0
H1587 H 0.59992 0.68064 0.48419 0.0
H1588 H 0.57967 0.66594 0.47219 0.0
H1589 H 0.58835 0.68505 0.4448 0.0
H1590 H 0.58127 0.67165 0.36451 0.0
H1591 H 0.57242 0.6525 0.39167 0.0
H1592 H 0.58779 0.6579 0.34927 0.0
H1593 H 0.63579 0.65766 0.43056 0.0
H1594 H 0.61914 0.63145 0.46614 0.0
H1595 H 0.57852 0.63837 0.45868 0.0
C1596 C 0.61572 0.6967 0.37786 0.0
C1597 C 0.63142 0.70708 0.36297 0.0
C1598 C 0.64291 0.70231 0.36785 0.0
C1599 C 0.63899 0.68769 0.38779 0.0
C1600 C 0.62351 0.67787 0.40269 0.0
C1601 C 0.612 0.68209 0.39766 0.0
C1602 C 0.59623 0.66929 0.41654 0.0
C1603 C 0.59072 0.67561 0.45683 0.0
C1604 C 0.58369 0.66243 0.37821 0.0
C1605 C 0.60069 0.65725 0.43301 0.0
C1606 C 0.6165 0.66248 0.42485 0.0
C1607 C 0.62339 0.65344 0.43703 0.0
C1608 C 0.61382 0.63856 0.45742 0.0
C1609 C 0.59749 0.63279 0.4654 0.0
C1610 C 0.59095 0.64241 0.45328 0.0
H1611 H 0.30797 0.90864 0.38308 0.0
H1612 H 0.29947 0.94832 0.38487 0.0
H1613 H 0.32543 0.96491 0.42157 0.0
H1614 H 0.32697 0.91619 0.49242 0.0
H1615 H 0.34127 0.9106 0.47518 0.0
H1616 H 0.32228 0.90186 0.44711 0.0
H1617 H 0.33602 0.91113 0.36771 0.0
H1618 H 0.35506 0.91974 0.39548 0.0
H1619 H 0.35032 0.93175 0.35898 0.0
H1620 H 0.35185 0.97701 0.46055 0.0
H1621 H 0.37768 0.98429 0.49514 0.0
H1622 H 0.3693 0.93687 0.46856 0.0
C1623 C 0.31164 0.92087 0.39062 0.0
C1624 C 0.30163 0.92716 0.38089 0.0
C1625 C 0.30688 0.9432 0.3918 0.0
C1626 C 0.32162 0.95273 0.41281 0.0
C1627 C 0.33104 0.94609 0.42274 0.0
C1628 C 0.32635 0.93058 0.41169 0.0
C1629 C 0.33871 0.92635 0.42657 0.0
C1630 C 0.33189 0.91296 0.46245 0.0
C1631 C 0.34543 0.92199 0.38469 0.0
C1632 C 0.35102 0.94189 0.44788 0.0
C1633 C 0.34633 0.9531 0.44533 0.0
C1634 C 0.35567 0.96834 0.46263 0.0
C1635 C 0.37033 0.97235 0.48239 0.0
C1636 C 0.37557 0.96117 0.48478 0.0
C1637 C 0.36565 0.94568 0.46759 0.0
H1638 H 0.60119 0.96324 0.95956 0.0
H1639 H 0.55315 0.92402 0.9735 0.0
H1640 H 0.56119 0.90623 0.93665 0.0
H1641 H 0.60854 0.95255 0.8486 0.0
H1642 H 0.62897 0.95873 0.86037 0.0
H1643 H 0.61958 0.9682 0.8894 0.0
H1644 H 0.62696 0.96142 0.96865 0.0
H1645 H 0.63654 0.9521 0.93988 0.0
H1646 H 0.62121 0.94117 0.98165 0.0
H1647 H 0.57478 0.89267 0.8978 0.0
H1648 H 0.59281 0.88459 0.86258 0.0
H1649 H 0.63146 0.93309 0.87202 0.0
C1650 C 0.59237 0.95087 0.95544 0.0
C1651 C 0.57654 0.94502 0.9698 0.0
C1652 C 0.56536 0.92878 0.96302 0.0
C1653 C 0.56981 0.91859 0.94198 0.0
C1654 C 0.58546 0.92482 0.92759 0.0
C1655 C 0.59656 0.94059 0.93419 0.0
C1656 C 0.61255 0.94445 0.91511 0.0
C1657 C 0.61771 0.95671 0.87605 0.0
C1658 C 0.62505 0.95011 0.95362 0.0
C1659 C 0.60877 0.92838 0.8969 0.0
C1660 C 0.5931 0.91717 0.90439 0.0
C1661 C 0.58706 0.90138 0.89159 0.0
C1662 C 0.59737 0.89691 0.87143 0.0
C1663 C 0.61353 0.90819 0.86404 0.0
C1664 C 0.61914 0.92416 0.87647 0.0
H1665 H 0.0754 0.69884 0.87302 0.0
H1666 H 0.12431 0.70962 0.86895 0.0
H1667 H 0.11632 0.68353 0.90337 0.0
H1668 H 0.0656 0.6796 0.98009 0.0
H1669 H 0.04583 0.66462 0.96431 0.0
H1670 H 0.05503 0.6836 0.93609 0.0
H1671 H 0.05052 0.67002 0.85642 0.0
H1672 H 0.04103 0.65096 0.8843 0.0
H1673 H 0.0576 0.65637 0.84637 0.0
H1674 H 0.10342 0.65736 0.9448 0.0
H1675 H 0.08611 0.6315 0.98115 0.0
H1676 H 0.04535 0.63726 0.95645 0.0
C1677 C 0.08441 0.69561 0.87845 0.0
C1678 C 0.10051 0.70632 0.86811 0.0
C1679 C 0.1119 0.70162 0.87615 0.0
C1680 C 0.10749 0.68685 0.89601 0.0
C1681 C 0.09162 0.67683 0.90722 0.0
C1682 C 0.0802 0.68087 0.89793 0.0
C1683 C 0.06399 0.66803 0.91387 0.0
C1684 C 0.05722 0.67434 0.95078 0.0
C1685 C 0.05262 0.66092 0.87279 0.0
C1686 C 0.0681 0.65621 0.93419 0.0
C1687 C 0.08412 0.66158 0.93024 0.0
C1688 C 0.09083 0.65296 0.94762 0.0
C1689 C 0.08088 0.63831 0.96854 0.0
C1690 C 0.06432 0.63227 0.97173 0.0
C1691 C 0.05793 0.64149 0.95461 0.0
H1692 H 0.36935 0.40882 0.96818 0.0
H1693 H 0.38266 0.4585 0.96919 0.0
H1694 H 0.35752 0.45183 0.93106 0.0
H1695 H 0.35093 0.39963 0.85773 0.0
H1696 H 0.33511 0.38025 0.87356 0.0
H1697 H 0.35389 0.38863 0.90274 0.0
H1698 H 0.33994 0.385 0.98148 0.0
H1699 H 0.3211 0.37641 0.95259 0.0
H1700 H 0.32718 0.39324 0.98998 0.0
H1701 H 0.33161 0.44017 0.89058 0.0
H1702 H 0.30544 0.42399 0.85499 0.0
H1703 H 0.30835 0.38158 0.87971 0.0
C1704 C 0.36689 0.41827 0.96096 0.0
C1705 C 0.37803 0.43421 0.97187 0.0
C1706 C 0.37437 0.44621 0.96137 0.0
C1707 C 0.36012 0.44255 0.93953 0.0
C1708 C 0.34958 0.42681 0.92841 0.0
C1709 C 0.35267 0.41482 0.93912 0.0
C1710 C 0.33927 0.39889 0.92308 0.0
C1711 C 0.34516 0.39142 0.88714 0.0
C1712 C 0.33141 0.38773 0.96424 0.0
C1713 C 0.32823 0.40384 0.9015 0.0
C1714 C 0.33448 0.42002 0.90493 0.0
C1715 C 0.32656 0.42749 0.88783 0.0
C1716 C 0.31168 0.41816 0.86752 0.0
C1717 C 0.30478 0.40148 0.86438 0.0
C1718 C 0.31332 0.39429 0.88116 0.0
H1719 H 0.91275 0.61006 0.62241 0.0
H1720 H 0.95495 0.65505 0.6522 0.0
H1721 H 0.97153 0.64502 0.6207 0.0
H1722 H 0.9306 0.58547 0.65068 0.0
H1723 H 0.92042 0.57144 0.6051 0.0
H1724 H 0.91149 0.58184 0.63143 0.0
H1725 H 0.90891 0.5919 0.55114 0.0
H1726 H 0.918 0.5817 0.52464 0.0
H1727 H 0.9263 0.60267 0.5158 0.0
H1728 H 0.98379 0.63138 0.58227 0.0
H1729 H 0.99141 0.61347 0.5456 0.0
H1730 H 0.94203 0.57637 0.54172 0.0
C1731 C 0.92547 0.61768 0.6229 0.0
C1732 C 0.93246 0.63341 0.63973 0.0
C1733 C 0.9492 0.64301 0.63939 0.0
C1734 C 0.9588 0.63744 0.62145 0.0
C1735 C 0.95161 0.62213 0.60412 0.0
C1736 C 0.93538 0.61223 0.60518 0.0
C1737 C 0.93094 0.59624 0.58408 0.0
C1738 C 0.92288 0.58296 0.61997 0.0
C1739 C 0.92041 0.59294 0.54138 0.0
C1740 C 0.9472 0.59887 0.57083 0.0
C1741 C 0.95887 0.61396 0.58255 0.0
C1742 C 0.97478 0.61946 0.57321 0.0
C1743 C 0.97899 0.60918 0.55208 0.0
C1744 C 0.96737 0.59346 0.54068 0.0
C1745 C 0.95121 0.5883 0.54997 0.0
H1746 H 0.44021 0.37247 0.5593 0.0
H1747 H 0.40191 0.37017 0.4775 0.0
H1748 H 0.38513 0.34205 0.4979 0.0
H1749 H 0.43103 0.33052 0.53667 0.0
H1750 H 0.43588 0.32806 0.59487 0.0
H1751 H 0.4459 0.34732 0.56814 0.0
H1752 H 0.43751 0.35871 0.6361 0.0
H1753 H 0.42726 0.33948 0.66269 0.0
H1754 H 0.41682 0.34997 0.65037 0.0
H1755 H 0.37131 0.31605 0.53471 0.0
H1756 H 0.36135 0.29206 0.58191 0.0
H1757 H 0.40812 0.30974 0.6409 0.0
C1758 C 0.42851 0.36581 0.54429 0.0
C1759 C 0.4224 0.37338 0.51614 0.0
C1760 C 0.40684 0.36452 0.49863 0.0
C1761 C 0.39722 0.34856 0.51009 0.0
C1762 C 0.4033 0.34157 0.53926 0.0
C1763 C 0.41863 0.34976 0.5558 0.0
C1764 C 0.4216 0.33959 0.5897 0.0
C1765 C 0.43436 0.33617 0.57123 0.0
C1766 C 0.42606 0.34741 0.63754 0.0
C1767 C 0.40542 0.32465 0.59047 0.0
C1768 C 0.39515 0.32616 0.56086 0.0
C1769 C 0.37929 0.3146 0.55747 0.0
C1770 C 0.37371 0.30107 0.58484 0.0
C1771 C 0.38393 0.29903 0.61522 0.0
C1772 C 0.40008 0.31093 0.61769 0.0
H1773 H 0.6403 0.03641 0.5472 0.0
H1774 H 0.63014 0.07388 0.51418 0.0
H1775 H 0.65574 0.09352 0.54781 0.0
H1776 H 0.65816 0.05133 0.65489 0.0
H1777 H 0.67321 0.04584 0.64909 0.0
H1778 H 0.6546 0.03467 0.61949 0.0
H1779 H 0.66925 0.03957 0.54146 0.0
H1780 H 0.68793 0.05054 0.57091 0.0
H1781 H 0.68315 0.05956 0.52408 0.0
H1782 H 0.68131 0.1088 0.59026 0.0
H1783 H 0.70664 0.11932 0.63142 0.0
H1784 H 0.70083 0.07217 0.63604 0.0
C1785 C 0.64358 0.04878 0.54615 0.0
C1786 C 0.63316 0.05357 0.52783 0.0
C1787 C 0.63789 0.06988 0.52771 0.0
C1788 C 0.6524 0.08114 0.54697 0.0
C1789 C 0.66214 0.07595 0.56598 0.0
C1790 C 0.65807 0.0602 0.5651 0.0
C1791 C 0.67062 0.05778 0.58857 0.0
C1792 C 0.66373 0.04675 0.6305 0.0
C1793 C 0.67818 0.05149 0.5542 0.0
C1794 C 0.68228 0.0746 0.60328 0.0
C1795 C 0.67708 0.08485 0.59002 0.0
C1796 C 0.68558 0.10091 0.60044 0.0
C1797 C 0.69995 0.10675 0.62413 0.0
C1798 C 0.70581 0.0966 0.63708 0.0
C1799 C 0.69671 0.08025 0.62678 0.0
H1800 H 0.74055 0.76878 0.7874 0.0
H1801 H 0.69213 0.72984 0.79614 0.0
H1802 H 0.70024 0.71199 0.76139 0.0
H1803 H 0.74955 0.75812 0.67851 0.0
H1804 H 0.76959 0.76348 0.69294 0.0
H1805 H 0.76038 0.7734 0.72053 0.0
H1806 H 0.76606 0.76571 0.8008 0.0
H1807 H 0.77552 0.75601 0.77347 0.0
H1808 H 0.75944 0.74522 0.81325 0.0
H1809 H 0.71301 0.69844 0.72351 0.0
H1810 H 0.73032 0.6893 0.69051 0.0
H1811 H 0.77077 0.73665 0.70511 0.0
C1812 C 0.73173 0.75644 0.78272 0.0
C1813 C 0.71568 0.75074 0.79465 0.0
C1814 C 0.70448 0.73454 0.78734 0.0
C1815 C 0.70895 0.72428 0.76745 0.0
C1816 C 0.72471 0.73033 0.75493 0.0
C1817 C 0.736 0.74596 0.76267 0.0
C1818 C 0.75213 0.74932 0.7456 0.0
C1819 C 0.75827 0.76182 0.70711 0.0
C1820 C 0.76399 0.75436 0.78567 0.0
C1821 C 0.74807 0.73314 0.72704 0.0
C1822 C 0.73215 0.72243 0.7327 0.0
C1823 C 0.72551 0.7067 0.71895 0.0
C1824 C 0.73545 0.70164 0.70004 0.0
C1825 C 0.75191 0.71224 0.69493 0.0
C1826 C 0.75821 0.72829 0.70792 0.0
H1827 H 0.2692 0.97397 0.79512 0.0
H1828 H 0.22102 0.96521 0.806 0.0
H1829 H 0.22875 0.99002 0.76514 0.0
H1830 H 0.28805 0.01664 0.81373 0.0
H1831 H 0.30394 0.02139 0.77368 0.0
H1832 H 0.29475 1.00269 0.80351 0.0
H1833 H 0.2887 0.98805 0.7252 0.0
H1834 H 0.2977 0.00671 0.69511 0.0
H1835 H 0.27762 0.99177 0.68219 0.0
H1836 H 0.24079 0.01483 0.72144 0.0
H1837 H 0.25749 0.04056 0.68467 0.0
H1838 H 0.29872 0.03508 0.7034 0.0
C1839 C 0.26033 0.97735 0.78914 0.0
C1840 C 0.24446 0.96753 0.80382 0.0
C1841 C 0.23324 0.97244 0.79535 0.0
C1842 C 0.23748 0.98652 0.77185 0.0
C1843 C 0.25306 0.99575 0.75724 0.0
C1844 C 0.26442 0.9916 0.76606 0.0
C1845 C 0.28045 0.00417 0.74761 0.0
C1846 C 0.29251 0.01166 0.78698 0.0
C1847 C 0.28647 0.99726 0.71031 0.0
C1848 C 0.27621 0.01594 0.7271 0.0
C1849 C 0.26027 0.01063 0.73275 0.0
C1850 C 0.25332 0.01919 0.71701 0.0
C1851 C 0.26296 0.03383 0.69601 0.0
C1852 C 0.27948 0.03995 0.69114 0.0
C1853 C 0.28614 0.03071 0.70628 0.0
H1854 H 0.03559 0.29572 0.78293 0.0
H1855 H 0.04542 0.25745 0.80546 0.0
H1856 H 0.01922 0.23847 0.7728 0.0
H1857 H 0.99394 0.27376 0.81071 0.0
H1858 H 0.98865 0.2834 0.76694 0.0
H1859 H 0.00795 0.29369 0.79316 0.0
H1860 H 0.02093 0.29858 0.71239 0.0
H1861 H 1.00167 0.28817 0.68595 0.0
H1862 H 0.01596 0.28198 0.675 0.0
H1863 H 0.99169 0.22367 0.73651 0.0
H1864 H 0.96527 0.21439 0.7021 0.0
H1865 H 0.97409 0.26264 0.70237 0.0
C1866 C 0.03223 0.28333 0.78145 0.0
C1867 C 0.0426 0.2781 0.79703 0.0
C1868 C 0.03769 0.26177 0.79396 0.0
C1869 C 0.02284 0.2509 0.77533 0.0
C1870 C 0.01301 0.25653 0.75977 0.0
C1871 C 0.01752 0.27237 0.76282 0.0
C1872 C 1.00491 0.27548 0.74334 0.0
C1873 C 0.99848 0.28196 0.78077 0.0
C1874 C 0.01125 0.28672 0.7017 0.0
C1875 C 0.99257 0.25892 0.72881 0.0
C1876 C 0.99742 0.24812 0.73854 0.0
C1877 C 0.98782 0.23205 0.7287 0.0
C1878 C 0.97283 0.22689 0.70902 0.0
C1879 C 0.96757 0.23776 0.69919 0.0
C1880 C 0.97773 0.254 0.70898 0.0
H1881 H 0.30636 0.27566 0.21192 0.0
H1882 H 0.26389 0.23009 0.19152 0.0
H1883 H 0.248 0.24015 0.22882 0.0
H1884 H 0.29616 0.28432 0.32214 0.0
H1885 H 0.30401 0.30511 0.31106 0.0
H1886 H 0.31234 0.29458 0.28227 0.0
H1887 H 0.30712 0.30324 0.20288 0.0
H1888 H 0.29902 0.31401 0.23146 0.0
H1889 H 0.28745 0.29925 0.18891 0.0
H1890 H 0.23678 0.25442 0.2721 0.0
H1891 H 0.23026 0.27328 0.30846 0.0
H1892 H 0.27952 0.31025 0.29792 0.0
C1893 C 0.2937 0.26786 0.21483 0.0
C1894 C 0.28642 0.25205 0.19871 0.0
C1895 C 0.26979 0.24225 0.20328 0.0
C1896 C 0.26064 0.24782 0.22477 0.0
C1897 C 0.2682 0.2633 0.24117 0.0
C1898 C 0.28429 0.27331 0.2357 0.0
C1899 C 0.2893 0.28959 0.25537 0.0
C1900 C 0.30115 0.29363 0.29507 0.0
C1901 C 0.29612 0.30227 0.21739 0.0
C1902 C 0.27353 0.28709 0.27287 0.0
C1903 C 0.26158 0.27176 0.26484 0.0
C1904 C 0.24602 0.2665 0.2783 0.0
C1905 C 0.24245 0.2773 0.29927 0.0
C1906 C 0.25434 0.29329 0.30614 0.0
C1907 C 0.27015 0.29812 0.29331 0.0
H1908 H 0.7331 0.96538 0.24766 0.0
H1909 H 0.71231 0.97124 0.37286 0.0
H1910 H 0.72463 0.99983 0.35758 0.0
H1911 H 0.77075 0.00537 0.25114 0.0
H1912 H 0.77069 0.0078 0.18958 0.0
H1913 H 0.76265 0.98827 0.21401 0.0
H1914 H 0.73622 0.97955 0.17159 0.0
H1915 H 0.74405 0.99908 0.14762 0.0
H1916 H 0.72599 0.99044 0.18067 0.0
H1917 H 0.73526 0.02622 0.32452 0.0
H1918 H 0.74554 0.05029 0.27765 0.0
H1919 H 0.76039 0.02886 0.17215 0.0
C1920 C 0.73178 0.97287 0.27272 0.0
C1921 C 0.72206 0.96622 0.31206 0.0
C1922 C 0.71993 0.97618 0.34305 0.0
C1923 C 0.72685 0.99242 0.33458 0.0
C1924 C 0.73585 0.99856 0.29475 0.0
C1925 C 0.73854 0.98922 0.26444 0.0
C1926 C 0.74751 0.99876 0.22212 0.0
C1927 C 0.76388 1.00013 0.21904 0.0
C1928 C 0.73786 0.99152 0.1779 0.0
C1929 C 0.74894 0.01471 0.23288 0.0
C1930 C 0.74216 0.0142 0.27517 0.0
C1931 C 0.74084 0.02686 0.29173 0.0
C1932 C 0.74659 0.04045 0.26456 0.0
C1933 C 0.75373 0.04145 0.2212 0.0
C1934 C 0.75513 0.02846 0.20534 0.0
H1935 H 0.04255 0.77237 0.29339 0.0
H1936 H 0.04127 0.72901 0.33615 0.0
H1937 H 0.01497 0.71336 0.30192 0.0
H1938 H 1.00008 0.75771 0.31497 0.0
H1939 H 0.99793 0.76775 0.26575 0.0
H1940 H 0.01671 0.77595 0.29492 0.0
H1941 H 0.03019 0.77624 0.21776 0.0
H1942 H 0.01142 0.76782 0.18848 0.0
H1943 H 0.02302 0.75812 0.18554 0.0
H1944 H 0.99027 0.70212 0.25887 0.0
H1945 H 0.96581 0.69538 0.21798 0.0
H1946 H 0.9809 0.74539 0.20476 0.0
C1947 C 0.0366 0.7596 0.2962 0.0
C1948 C 0.04411 0.75197 0.3174 0.0
C1949 C 0.03592 0.73521 0.32005 0.0
C1950 C 0.02093 0.72615 0.30054 0.0
C1951 C 0.01409 0.73395 0.27877 0.0
C1952 C 0.0214 0.75025 0.27712 0.0
C1953 C 0.01103 0.75538 0.25167 0.0
C1954 C 0.00615 0.76475 0.28375 0.0
C1955 C 0.01942 0.76496 0.20829 0.0
C1956 C 0.9969 0.73937 0.23913 0.0
C1957 C 0.99916 0.72727 0.25484 0.0
C1958 C 0.98823 0.71145 0.24684 0.0
C1959 C 0.97435 0.70778 0.22325 0.0
C1960 C 0.97127 0.71982 0.20817 0.0
C1961 C 0.98286 0.7359 0.21579 0.0
H1962 H 0.31852 0.0819 1.00341 0.0
H1963 H 0.36976 0.10687 0.01398 0.0
H1964 H 0.37187 0.10745 0.9292 0.0
H1965 H 0.3151 0.05815 0.90293 0.0
H1966 H 0.29913 0.05994 0.8781 0.0
H1967 H 0.3016 0.06063 0.93973 0.0
H1968 H 0.30271 0.08775 0.94218 0.0
H1969 H 0.30026 0.08715 0.88059 0.0
H1970 H 0.31701 0.10381 0.90711 0.0
H1971 H 0.36848 0.10535 0.8436 0.0
H1972 H 0.35974 0.10218 0.7624 0.0
H1973 H 0.31082 0.0799 0.80768 0.0
C1974 C 0.33016 0.08734 0.98781 0.0
C1975 C 0.34397 0.09427 0.01508 0.0
C1976 C 0.35903 0.10152 0.99358 0.0
C1977 C 0.36035 0.10186 0.94552 0.0
C1978 C 0.34652 0.09502 0.91953 0.0
C1979 C 0.33171 0.088 0.93982 0.0
C1980 C 0.31875 0.08225 0.90391 0.0
C1981 C 0.30802 0.06417 0.90633 0.0
C1982 C 0.30912 0.09075 0.90875 0.0
C1983 C 0.32861 0.0872 0.86037 0.0
C1984 C 0.34458 0.09436 0.87011 0.0
C1985 C 0.356 0.09979 0.83547 0.0
C1986 C 0.35094 0.09792 0.78954 0.0
C1987 C 0.33464 0.0909 0.7789 0.0
C1988 C 0.32338 0.08545 0.81485 0.0
H1989 H 0.91746 0.23018 0.00871 0.0
H1990 H 0.89768 0.26127 0.01983 0.0
H1991 H 0.89961 0.26498 0.93561 0.0
H1992 H 0.94506 0.25109 0.91875 0.0
H1993 H 0.94217 0.23354 0.88946 0.0
H1994 H 0.93916 0.23315 0.95078 0.0
H1995 H 0.91066 0.20946 0.94141 0.0
H1996 H 0.91365 0.20969 0.88011 0.0
H1997 H 0.89717 0.21114 0.90247 0.0
H1998 H 0.905 0.26649 0.85058 0.0
H1999 H 0.91087 0.26334 0.76955 0.0
H2000 H 0.92586 0.23031 0.81346 0.0
C2001 C 0.91344 0.23767 0.99336 0.0
C2002 C 0.90741 0.24541 0.02083 0.0
C2003 C 0.90222 0.2551 0.99945 0.0
C2004 C 0.90336 0.25738 0.95165 0.0
C2005 C 0.90954 0.24974 0.9256 0.0
C2006 C 0.91427 0.2399 0.94556 0.0
C2007 C 0.92018 0.23285 0.90955 0.0
C2008 C 0.93768 0.23797 0.91763 0.0
C2009 C 0.90979 0.21471 0.90832 0.0
C2010 C 0.91811 0.24034 0.86638 0.0
C2011 C 0.91212 0.25018 0.87641 0.0
C2012 C 0.90958 0.25872 0.84221 0.0
C2013 C 0.91302 0.25692 0.79639 0.0
C2014 C 0.91872 0.24653 0.7853 0.0
C2015 C 0.92137 0.23824 0.82089 0.0
H2016 H 0.75168 0.64961 0.02586 0.0
H2017 H 0.76629 0.69785 0.06631 0.0
H2018 H 0.7712 0.70605 0.98436 0.0
H2019 H 0.77967 0.65853 0.93732 0.0
H2020 H 0.76626 0.64287 0.89955 0.0
H2021 H 0.76338 0.64074 0.96097 0.0
H2022 H 0.73477 0.63561 0.95142 0.0
H2023 H 0.73749 0.63756 0.88989 0.0
H2024 H 0.73147 0.64976 0.9206 0.0
H2025 H 0.7763 0.70914 0.89895 0.0
H2026 H 0.77872 0.70666 0.81522 0.0
H2027 H 0.75956 0.65602 0.8307 0.0
C2028 C 0.75583 0.6619 0.01748 0.0
C2029 C 0.75871 0.67316 0.05226 0.0
C2030 C 0.76397 0.68906 0.04003 0.0
C2031 C 0.76685 0.69382 0.9937 0.0
C2032 C 0.76416 0.68244 0.96032 0.0
C2033 C 0.75853 0.66677 0.97159 0.0
C2034 C 0.7565 0.65683 0.92933 0.0
C2035 C 0.76709 0.6493 0.93197 0.0
C2036 C 0.73902 0.6442 0.92241 0.0
C2037 C 0.76213 0.66942 0.89239 0.0
C2038 C 0.76659 0.68412 0.91103 0.0
C2039 C 0.77271 0.69768 0.88393 0.0
C2040 C 0.77413 0.69614 0.83646 0.0
C2041 C 0.76932 0.68113 0.81651 0.0
C2042 C 0.76325 0.66762 0.84497 0.0
H2043 H 0.08475 0.31161 0.67305 0.0
H2044 H 0.10287 0.36008 0.71834 0.0
H2045 H 0.10999 0.36937 0.63839 0.0
H2046 H 0.11355 0.3198 0.58213 0.0
H2047 H 0.09935 0.30547 0.54267 0.0
H2048 H 0.09633 0.30241 0.60392 0.0
H2049 H 0.06874 0.29998 0.59599 0.0
H2050 H 0.07165 0.30297 0.53472 0.0
H2051 H 0.06709 0.31568 0.56857 0.0
H2052 H 0.11547 0.37367 0.55564 0.0
H2053 H 0.11691 0.37285 0.47154 0.0
H2054 H 0.09377 0.32148 0.47592 0.0
C2055 C 0.0903 0.32417 0.66597 0.0
C2056 C 0.09335 0.33516 0.70183 0.0
C2057 C 0.1004 0.35148 0.69136 0.0
C2058 C 0.10456 0.35687 0.64612 0.0
C2059 C 0.10141 0.34579 0.61156 0.0
C2060 C 0.09427 0.32977 0.62058 0.0
C2061 C 0.09146 0.32044 0.57621 0.0
C2062 C 0.10072 0.3115 0.57625 0.0
C2063 C 0.07368 0.3091 0.56842 0.0
C2064 C 0.09815 0.33377 0.54106 0.0
C2065 C 0.104 0.34827 0.56262 0.0
C2066 C 0.11091 0.3624 0.53823 0.0
C2067 C 0.11171 0.36178 0.49033 0.0
C2068 C 0.10546 0.34709 0.4669 0.0
C2069 C 0.09864 0.33288 0.49277 0.0
H2070 H 0.65961 0.75943 0.66952 0.0
H2071 H 0.71067 0.78907 0.68036 0.0
H2072 H 0.7128 0.79036 0.59577 0.0
H2073 H 0.6594 0.73693 0.57306 0.0
H2074 H 0.64226 0.73598 0.54638 0.0
H2075 H 0.64458 0.73784 0.608 0.0
H2076 H 0.64207 0.76308 0.60583 0.0
H2077 H 0.63967 0.76125 0.54419 0.0
H2078 H 0.65508 0.77935 0.56913 0.0
H2079 H 0.70965 0.78718 0.51003 0.0
H2080 H 0.7011 0.78091 0.42882 0.0
H2081 H 0.65214 0.75408 0.47371 0.0
C2082 C 0.67122 0.76631 0.65412 0.0
C2083 C 0.68495 0.77415 0.68167 0.0
C2084 C 0.69994 0.783 0.66008 0.0
C2085 C 0.7013 0.78379 0.61199 0.0
C2086 C 0.68757 0.77578 0.58586 0.0
C2087 C 0.6728 0.76733 0.60608 0.0
C2088 C 0.65994 0.75968 0.57 0.0
C2089 C 0.65103 0.74153 0.57465 0.0
C2090 C 0.64852 0.76623 0.57244 0.0
C2091 C 0.66982 0.765 0.52647 0.0
C2092 C 0.68573 0.77424 0.53635 0.0
C2093 C 0.6972 0.78008 0.50179 0.0
C2094 C 0.69225 0.77642 0.45582 0.0
C2095 C 0.67597 0.76711 0.44493 0.0
C2096 C 0.66467 0.76138 0.48087 0.0
H2097 H 0.23313 0.92803 0.6883 0.0
H2098 H 0.24577 0.89318 0.73138 0.0
H2099 H 0.24657 0.88617 0.65019 0.0
H2100 H 0.20922 0.90657 0.5867 0.0
H2101 H 0.21667 0.9242 0.552 0.0
H2102 H 0.2153 0.92541 0.61367 0.0
H2103 H 0.2451 0.94644 0.61725 0.0
H2104 H 0.24656 0.94528 0.55568 0.0
H2105 H 0.25941 0.94194 0.59286 0.0
H2106 H 0.24713 0.88356 0.56643 0.0
H2107 H 0.24928 0.88647 0.4826 0.0
H2108 H 0.23782 0.92416 0.49035 0.0
C2109 C 0.23576 0.91873 0.6804 0.0
C2110 C 0.23922 0.91098 0.71586 0.0
C2111 C 0.24305 0.89918 0.70457 0.0
C2112 C 0.24346 0.89508 0.65864 0.0
C2113 C 0.24021 0.90304 0.62438 0.0
C2114 C 0.23656 0.91471 0.63441 0.0
C2115 C 0.23492 0.92227 0.59048 0.0
C2116 C 0.21802 0.91944 0.58542 0.0
C2117 C 0.24723 0.94003 0.58899 0.0
C2118 C 0.2384 0.91312 0.5544 0.0
C2119 C 0.24117 0.90195 0.57505 0.0
C2120 C 0.24495 0.89222 0.54974 0.0
C2121 C 0.24617 0.89402 0.50197 0.0
C2122 C 0.24378 0.9056 0.47962 0.0
C2123 C 0.23965 0.91517 0.5063 0.0
H2124 H 0.67222 0.90343 0.17658 0.0
H2125 H 0.66694 0.9441 0.20638 0.0
H2126 H 0.66601 0.94864 0.12256 0.0
H2127 H 0.6964 0.91824 0.07788 0.0
H2128 H 0.68688 0.8998 0.04666 0.0
H2129 H 0.68702 0.89971 0.10871 0.0
H2130 H 0.65639 0.88284 0.1102 0.0
H2131 H 0.65618 0.88259 0.04816 0.0
H2132 H 0.64485 0.8896 0.07919 0.0
H2133 H 0.66795 0.94981 0.03515 0.0
H2134 H 0.66753 0.94466 0.95125 0.0
H2135 H 0.66906 0.90185 0.98004 0.0
C2136 C 0.67065 0.91316 0.1653 0.0
C2137 C 0.66964 0.92344 0.19742 0.0
C2138 C 0.66756 0.93603 0.18192 0.0
C2139 C 0.66718 0.93877 0.13455 0.0
C2140 C 0.66857 0.92859 0.10356 0.0
C2141 C 0.66983 0.91578 0.11838 0.0
C2142 C 0.67045 0.90619 0.07833 0.0
C2143 C 0.68612 0.90598 0.07789 0.0
C2144 C 0.65611 0.88931 0.07901 0.0
C2145 C 0.66957 0.91571 0.03854 0.0
C2146 C 0.6688 0.92875 0.05367 0.0
C2147 C 0.66841 0.93956 0.02293 0.0
C2148 C 0.66834 0.93666 0.97551 0.0
C2149 C 0.66835 0.92294 0.95973 0.0
C2150 C 0.6691 0.91244 0.99156 0.0
H2151 H 0.08294 0.76236 0.20225 0.0
H2152 H 0.10701 0.73708 0.24389 0.0
H2153 H 0.11062 0.73259 0.16186 0.0
H2154 H 0.06221 0.737 0.10403 0.0
H2155 H 0.06406 0.75327 0.06981 0.0
H2156 H 0.06295 0.75392 0.13168 0.0
H2157 H 0.08932 0.78067 0.13268 0.0
H2158 H 0.09057 0.78007 0.0709 0.0
H2159 H 0.10666 0.782 0.10612 0.0
H2160 H 0.11357 0.73301 0.07588 0.0
H2161 H 0.11371 0.73618 0.99146 0.0
H2162 H 0.08627 0.75983 1.00628 0.0
C2163 C 0.0889 0.7558 0.19411 0.0
C2164 C 0.09481 0.75014 0.22918 0.0
C2165 C 0.10238 0.74147 0.21737 0.0
C2166 C 0.1045 0.73891 0.17099 0.0
C2167 C 0.09872 0.74486 0.1372 0.0
C2168 C 0.09086 0.75292 0.14821 0.0
C2169 C 0.08582 0.75816 0.10551 0.0
C2170 C 0.06768 0.7501 0.10259 0.0
C2171 C 0.09356 0.7763 0.10371 0.0
C2172 C 0.09238 0.75209 0.0686 0.0
C2173 C 0.09984 0.74452 0.08763 0.0
C2174 C 0.10759 0.73871 0.06056 0.0
C2175 C 0.10769 0.74066 0.01275 0.0
C2176 C 0.09994 0.74818 0.99259 0.0
C2177 C 0.09209 0.75385 0.02088 0.0
H2178 H 0.26659 0.36312 0.17601 0.0
H2179 H 0.23909 0.31191 0.1862 0.0
H2180 H 0.2368 0.30992 0.10158 0.0
H2181 H 0.24386 0.3664 0.08438 0.0
H2182 H 0.26057 0.38252 0.05591 0.0
H2183 H 0.26099 0.38002 0.11728 0.0
H2184 H 0.28704 0.37919 0.10916 0.0
H2185 H 0.28673 0.38174 0.04776 0.0
H2186 H 0.28774 0.36507 0.07053 0.0
H2187 H 0.23756 0.3133 0.01642 0.0
H2188 H 0.24012 0.32202 0.93541 0.0
H2189 H 0.26568 0.37106 0.97998 0.0
C2190 C 0.26024 0.35151 0.16028 0.0
C2191 C 0.25307 0.33766 0.18751 0.0
C2192 C 0.24463 0.32267 0.16589 0.0
C2193 C 0.24331 0.3214 0.11789 0.0
C2194 C 0.25035 0.33526 0.09198 0.0
C2195 C 0.25857 0.35004 0.11227 0.0
C2196 C 0.26436 0.36304 0.07636 0.0
C2197 C 0.257 0.37361 0.08394 0.0
C2198 C 0.28255 0.37284 0.07594 0.0
C2199 C 0.25807 0.35323 0.03288 0.0
C2200 C 0.25019 0.33723 0.0427 0.0
C2201 C 0.24364 0.3258 0.00823 0.0
C2202 C 0.24516 0.33085 0.96239 0.0
C2203 C 0.25298 0.34719 0.95157 0.0
C2204 C 0.25946 0.35849 0.98736 0.0
H2205 H 0.91285 0.65668 0.51642 0.0
H2206 H 0.93185 0.70581 0.55614 0.0
H2207 H 0.93058 0.71282 0.47523 0.0
H2208 H 0.93505 0.66536 0.41072 0.0
H2209 H 0.91948 0.64912 0.37916 0.0
H2210 H 0.92092 0.64768 0.44064 0.0
H2211 H 0.892 0.64164 0.44968 0.0
H2212 H 0.89052 0.64321 0.38822 0.0
H2213 H 0.88639 0.65528 0.42643 0.0
H2214 H 0.92682 0.71454 0.39235 0.0
H2215 H 0.92438 0.71204 0.30858 0.0
H2216 H 0.90956 0.66202 0.31893 0.0
C2217 C 0.91667 0.66889 0.50792 0.0
C2218 C 0.92236 0.68073 0.54234 0.0
C2219 C 0.92751 0.69661 0.53014 0.0
C2220 C 0.92672 0.70067 0.48442 0.0
C2221 C 0.92097 0.68873 0.45133 0.0
C2222 C 0.91629 0.67322 0.46213 0.0
C2223 C 0.9116 0.66299 0.41911 0.0
C2224 C 0.92241 0.65587 0.41199 0.0
C2225 C 0.89408 0.65001 0.42099 0.0
C2226 C 0.91442 0.67523 0.3825 0.0
C2227 C 0.91954 0.6899 0.4023 0.0
C2228 C 0.92291 0.70316 0.37632 0.0
C2229 C 0.92144 0.70155 0.32857 0.0
C2230 C 0.91686 0.68682 0.30688 0.0
C2231 C 0.91306 0.67341 0.33439 0.0
H2232 H 0.3564 0.25704 0.52137 0.0
H2233 H 0.30729 0.23336 0.56501 0.0
H2234 H 0.29881 0.22789 0.4834 0.0
H2235 H 0.35106 0.27591 0.42219 0.0
H2236 H 0.36539 0.27398 0.38774 0.0
H2237 H 0.36745 0.27549 0.44948 0.0
H2238 H 0.36804 0.24921 0.45166 0.0
H2239 H 0.36591 0.24758 0.38994 0.0
H2240 H 0.35201 0.23166 0.42613 0.0
H2241 H 0.29584 0.22446 0.39724 0.0
H2242 H 0.29836 0.22519 0.31262 0.0
H2243 H 0.34953 0.25239 0.32522 0.0
C2244 C 0.34385 0.2506 0.51378 0.0
C2245 C 0.33246 0.24546 0.54944 0.0
C2246 C 0.31617 0.23737 0.53814 0.0
C2247 C 0.31127 0.23417 0.49197 0.0
C2248 C 0.32282 0.23934 0.45765 0.0
C2249 C 0.33878 0.24755 0.46799 0.0
C2250 C 0.34881 0.25238 0.42472 0.0
C2251 C 0.35876 0.27052 0.42081 0.0
C2252 C 0.35931 0.24475 0.42303 0.0
C2253 C 0.33602 0.2455 0.38827 0.0
C2254 C 0.32112 0.2379 0.40802 0.0
C2255 C 0.30744 0.23043 0.38141 0.0
C2256 C 0.30901 0.23085 0.33334 0.0
C2257 C 0.32415 0.23886 0.31225 0.0
C2258 C 0.33781 0.24623 0.34027 0.0
H2259 H 0.74675 0.10804 0.52791 0.0
H2260 H 0.77161 0.08373 0.57151 0.0
H2261 H 0.77567 0.07927 0.49004 0.0
H2262 H 0.72629 0.08194 0.43321 0.0
H2263 H 0.72749 0.09741 0.39652 0.0
H2264 H 0.72706 0.09924 0.45819 0.0
H2265 H 0.75323 0.12613 0.45477 0.0
H2266 H 0.75376 0.12439 0.39308 0.0
H2267 H 0.77036 0.12721 0.4275 0.0
H2268 H 0.77754 0.07798 0.40476 0.0
H2269 H 0.77566 0.07826 0.32024 0.0
H2270 H 0.74825 0.10212 0.33118 0.0
C2271 C 0.75314 0.10188 0.52025 0.0
C2272 C 0.75899 0.09632 0.55589 0.0
C2273 C 0.76705 0.08807 0.54465 0.0
C2274 C 0.76944 0.08553 0.49855 0.0
C2275 C 0.76352 0.09114 0.46423 0.0
C2276 C 0.7554 0.099 0.47442 0.0
C2277 C 0.74975 0.10328 0.43096 0.0
C2278 C 0.73157 0.09497 0.42966 0.0
C2279 C 0.75722 0.12133 0.42631 0.0
C2280 C 0.75606 0.09668 0.3947 0.0
C2281 C 0.76408 0.08986 0.41477 0.0
C2282 C 0.77125 0.08324 0.38862 0.0
C2283 C 0.77017 0.08353 0.34061 0.0
C2284 C 0.76183 0.09024 0.31917 0.0
C2285 C 0.75464 0.09685 0.34666 0.0
H2286 H 0.0179 0.42519 0.17258 0.0
H2287 H 0.967 0.39831 0.15308 0.0
H2288 H 0.96316 0.39497 0.23723 0.0
H2289 H 0.0198 0.40328 0.27282 0.0
H2290 H 0.03499 0.42089 0.30049 0.0
H2291 H 0.03378 0.4198 0.23853 0.0
H2292 H 0.0321 0.44552 0.23644 0.0
H2293 H 0.03327 0.44665 0.29831 0.0
H2294 H 0.01689 0.44651 0.2691 0.0
H2295 H 0.96481 0.39542 0.32378 0.0
H2296 H 0.972 0.40093 0.40638 0.0
H2297 H 0.02159 0.42844 0.36823 0.0
C2298 C 0.00598 0.41839 0.18608 0.0
C2299 C 0.99276 0.41197 0.15657 0.0
C2300 C 0.9773 0.40339 0.17532 0.0
C2301 C 0.97499 0.40134 0.22298 0.0
C2302 C 0.98826 0.40804 0.25132 0.0
C2303 C 1.00345 0.41644 0.23361 0.0
C2304 C 0.01562 0.42341 0.27159 0.0
C2305 C 0.0267 0.41642 0.2708 0.0
C2306 C 0.02502 0.4416 0.26867 0.0
C2307 C 1.00489 0.4178 0.31325 0.0
C2308 C 0.98917 0.40876 0.30102 0.0
C2309 C 0.9771 0.40246 0.33387 0.0
C2310 C 0.98126 0.40562 0.38056 0.0
C2311 C 0.99729 0.4152 0.39349 0.0
C2312 C 0.00919 0.4212 0.35932 0.0
H2313 H 0.5791 0.58114 0.15632 0.0
H2314 H 0.59952 0.55052 0.1488 0.0
H2315 H 0.60026 0.54979 0.23366 0.0
H2316 H 0.60124 0.6039 0.25362 0.0
H2317 H 0.58501 0.6052 0.27872 0.0
H2318 H 0.58593 0.60324 0.21726 0.0
H2319 H 0.55798 0.57832 0.21829 0.0
H2320 H 0.55696 0.58023 0.27976 0.0
H2321 H 0.55417 0.56199 0.25552 0.0
H2322 H 0.59991 0.55332 0.31919 0.0
H2323 H 0.59693 0.55957 0.39983 0.0
H2324 H 0.57573 0.58694 0.35188 0.0
C2325 C 0.58369 0.57425 0.17253 0.0
C2326 C 0.58927 0.5659 0.14591 0.0
C2327 C 0.59511 0.55696 0.16845 0.0
C2328 C 0.59563 0.5565 0.21665 0.0
C2329 C 0.59012 0.56492 0.24187 0.0
C2330 C 0.58412 0.57351 0.22066 0.0
C2331 C 0.57881 0.58137 0.25586 0.0
C2332 C 0.58832 0.5995 0.25107 0.0
C2333 C 0.56092 0.5751 0.25213 0.0
C2334 C 0.58289 0.57597 0.30011 0.0
C2335 C 0.58948 0.56657 0.29126 0.0
C2336 C 0.59464 0.56057 0.3266 0.0
C2337 C 0.59295 0.56422 0.37224 0.0
C2338 C 0.58602 0.57365 0.38212 0.0
C2339 C 0.58091 0.57955 0.34544 0.0
H2340 H 0.42175 0.98236 0.37182 0.0
H2341 H 0.44889 0.03123 0.41722 0.0
H2342 H 0.45503 0.03991 0.33608 0.0
H2343 H 0.44675 0.98528 0.27615 0.0
H2344 H 0.4304 0.97235 0.23961 0.0
H2345 H 0.42863 0.96994 0.30125 0.0
H2346 H 0.40355 0.97272 0.29976 0.0
H2347 H 0.40521 0.97509 0.23813 0.0
H2348 H 0.40452 0.98994 0.27347 0.0
H2349 H 0.45816 0.0432 0.25048 0.0
H2350 H 0.45685 0.04123 0.16587 0.0
H2351 H 0.42692 0.99017 0.17604 0.0
C2352 C 0.42907 0.99489 0.36476 0.0
C2353 C 0.43493 0.00614 0.40081 0.0
C2354 C 0.44428 0.02243 0.39011 0.0
C2355 C 0.44787 0.02745 0.34419 0.0
C2356 C 0.44192 0.01604 0.3095 0.0
C2357 C 0.43263 1.00011 0.31919 0.0
C2358 C 0.4272 0.99032 0.2755 0.0
C2359 C 0.43364 0.9788 0.27299 0.0
C2360 C 0.40905 0.9815 0.27149 0.0
C2361 C 0.43487 1.00324 0.23962 0.0
C2362 C 0.44342 0.01797 0.26003 0.0
C2363 C 0.45151 0.03174 0.2341 0.0
C2364 C 0.45071 0.03047 0.186 0.0
C2365 C 0.44178 0.01553 0.16423 0.0
C2366 C 0.43385 1.00175 0.19158 0.0
H2367 H 0.57423 0.97865 0.85987 0.0
H2368 H 0.60274 0.02778 0.90138 0.0
H2369 H 0.60751 0.03582 0.81937 0.0
H2370 H 0.59893 0.98139 0.76201 0.0
H2371 H 0.5823 0.96777 0.72748 0.0
H2372 H 0.58137 0.96598 0.78934 0.0
H2373 H 0.55574 0.9678 0.78968 0.0
H2374 H 0.55662 0.96967 0.72789 0.0
H2375 H 0.55583 0.98453 0.76291 0.0
H2376 H 0.60728 0.03853 0.73353 0.0
H2377 H 0.60431 0.03569 0.649 0.0
H2378 H 0.5776 0.98459 0.66348 0.0
C2379 C 0.5815 0.9911 0.85163 0.0
C2380 C 0.58803 1.00265 0.88667 0.0
C2381 C 0.59767 0.01879 0.87484 0.0
C2382 C 0.6004 0.02345 0.82848 0.0
C2383 C 0.59364 0.01176 0.7947 0.0
C2384 C 0.58461 0.9959 0.80568 0.0
C2385 C 0.57889 0.98568 0.7629 0.0
C2386 C 0.58579 0.97455 0.76029 0.0
C2387 C 0.56069 0.97638 0.76074 0.0
C2388 C 0.58581 0.9983 0.72601 0.0
C2389 C 0.59419 0.01327 0.74513 0.0
C2390 C 0.60093 0.02688 0.71813 0.0
C2391 C 0.5991 0.02515 0.67027 0.0
C2392 C 0.59079 0.00992 0.65 0.0
C2393 C 0.58418 0.99634 0.67821 0.0
H2394 H 0.98941 0.57043 0.65317 0.0
H2395 H 0.0379 0.58957 0.60664 0.0
H2396 H 0.04666 0.59161 0.68754 0.0
H2397 H 0.9988 0.59565 0.75214 0.0
H2398 H 0.98349 0.58063 0.78761 0.0
H2399 H 0.98101 0.58015 0.72604 0.0
H2400 H 0.9763 0.55154 0.72392 0.0
H2401 H 0.97884 0.55196 0.78548 0.0
H2402 H 0.99092 0.5475 0.74832 0.0
H2403 H 0.05003 0.59116 0.77318 0.0
H2404 H 0.04824 0.59026 0.85796 0.0
H2405 H 0.99767 0.57249 0.84899 0.0
C2406 C 1.00187 0.57498 0.65998 0.0
C2407 C 0.01298 0.57976 0.62363 0.0
C2408 C 0.02919 0.58586 0.63398 0.0
C2409 C 0.03426 0.587 0.67977 0.0
C2410 C 0.02299 0.58214 0.71477 0.0
C2411 C 0.00716 0.5764 0.70547 0.0
C2412 C 0.99755 0.57256 0.74946 0.0
C2413 C 0.98976 0.58286 0.75407 0.0
C2414 C 0.98517 0.55483 0.75192 0.0
C2415 C 0.01046 0.577 0.78502 0.0
C2416 C 0.02501 0.58235 0.76423 0.0
C2417 C 0.03871 0.58703 0.78985 0.0
C2418 C 0.03755 0.58642 0.83803 0.0
C2419 C 0.02281 0.58131 0.86017 0.0
C2420 C 0.0091 0.57647 0.83313 0.0
H2421 H 0.41838 0.43294 0.6651 0.0
H2422 H 0.44013 0.40368 0.65199 0.0
H2423 H 0.43939 0.40053 0.73657 0.0
H2424 H 0.44019 0.45374 0.76504 0.0
H2425 H 0.42402 0.45497 0.79083 0.0
H2426 H 0.42524 0.454 0.72913 0.0
H2427 H 0.39704 0.42944 0.72734 0.0
H2428 H 0.39575 0.43032 0.78909 0.0
H2429 H 0.39273 0.41239 0.76194 0.0
H2430 H 0.43602 0.40034 0.82245 0.0
H2431 H 0.43255 0.40525 0.9042 0.0
H2432 H 0.41477 0.43609 0.8611 0.0
C2433 C 0.42285 0.42577 0.68011 0.0
C2434 C 0.42923 0.41848 0.65225 0.0
C2435 C 0.43524 0.4094 0.67294 0.0
C2436 C 0.43479 0.40747 0.72084 0.0
C2437 C 0.42848 0.41486 0.74747 0.0
C2438 C 0.42279 0.42398 0.72794 0.0
C2439 C 0.41752 0.43144 0.76447 0.0
C2440 C 0.42733 0.44961 0.76223 0.0
C2441 C 0.3997 0.42554 0.76046 0.0
C2442 C 0.4212 0.42513 0.80751 0.0
C2443 C 0.42727 0.41539 0.797 0.0
C2444 C 0.43134 0.408 0.83116 0.0
C2445 C 0.42929 0.41081 0.87738 0.0
C2446 C 0.42353 0.42113 0.88874 0.0
C2447 C 0.41937 0.42828 0.8533 0.0
loop_
_geom_bond_atom_site_label_1
_geom_bond_atom_site_label_2
_geom_bond_distance
_geom_bond_site_symmetry_2
_ccdc_geom_bond_type
C0 O2 1.247 . S
C0 O4 1.258 . S
C1 O8 1.247 . S
C1 O9 1.258 . S
O2 C0 1.247 . S
O2 Zn3 2.028 . S
Zn3 O2 2.028 . S
Zn3 O7 2.035 . S
Zn3 O9 2.035 . S
Zn3 O10 2.028 . S
O4 C0 1.258 . S
O4 Zn5 2.035 . S
Zn5 O4 2.035 . S
Zn5 O6 2.028 . S
Zn5 O8 2.028 . S
Zn5 O11 2.035 . S
O6 Zn5 2.028 . S
O6 C12 1.247 . S
O7 Zn3 2.035 . S
O7 C12 1.258 . S
O8 C1 1.247 . S
O8 Zn5 2.028 . S
O9 C1 1.258 . S
O9 Zn3 2.035 . S
O10 Zn3 2.028 . S
O10 C13 1.247 . S
O11 Zn5 2.035 . S
O11 C13 1.258 . S
C12 O6 1.247 . S
C12 O7 1.258 . S
C13 O10 1.247 . S
C13 O11 1.258 . S
C14 O16 1.247 . S
C14 O18 1.258 . S
C15 O22 1.247 . S
C15 O23 1.258 . S
O16 C14 1.247 . S
O16 Zn17 2.028 . S
Zn17 O16 2.028 . S
Zn17 O21 2.035 . S
Zn17 O23 2.035 . S
Zn17 O24 2.028 . S
O18 C14 1.258 . S
O18 Zn19 2.035 . S
Zn19 O18 2.035 . S
Zn19 O20 2.028 . S
Zn19 O22 2.028 . S
Zn19 O25 2.035 . S
O20 Zn19 2.028 . S
O20 C26 1.247 . S
O21 Zn17 2.035 . S
O21 C26 1.258 . S
O22 C15 1.247 . S
O22 Zn19 2.028 . S
O23 C15 1.258 . S
O23 Zn17 2.035 . S
O24 Zn17 2.028 . S
O24 C27 1.247 . S
O25 Zn19 2.035 . S
O25 C27 1.258 . S
C26 O20 1.247 . S
C26 O21 1.258 . S
C27 O24 1.247 . S
C27 O25 1.258 . S
C28 O30 1.247 . S
C28 O32 1.258 . S
C29 O36 1.247 . S
C29 O37 1.258 . S
O30 C28 1.247 . S
O30 Zn31 2.028 . S
Zn31 O30 2.028 . S
Zn31 O35 2.035 . S
Zn31 O37 2.035 . S
Zn31 O38 2.028 . S
O32 C28 1.258 . S
O32 Zn33 2.035 . S
Zn33 O32 2.035 . S
Zn33 O34 2.028 . S
Zn33 O36 2.028 . S
Zn33 O39 2.035 . S
O34 Zn33 2.028 . S
O34 C40 1.247 . S
O35 Zn31 2.035 . S
O35 C40 1.258 . S
O36 C29 1.247 . S
O36 Zn33 2.028 . S
O37 C29 1.258 . S
O37 Zn31 2.035 . S
O38 Zn31 2.028 . S
O38 C41 1.247 . S
O39 Zn33 2.035 . S
O39 C41 1.258 . S
C40 O34 1.247 . S
C40 O35 1.258 . S
C41 O38 1.247 . S
C41 O39 1.258 . S
C42 O44 1.247 . S
C42 O46 1.258 . S
C43 O50 1.247 . S
C43 O51 1.258 . S
O44 C42 1.247 . S
O44 Zn45 2.028 . S
Zn45 O44 2.028 . S
Zn45 O49 2.035 . S
Zn45 O51 2.035 . S
Zn45 O52 2.028 . S
O46 C42 1.258 . S
O46 Zn47 2.035 . S
Zn47 O46 2.035 . S
Zn47 O48 2.028 . S
Zn47 O50 2.028 . S
Zn47 O53 2.035 . S
O48 Zn47 2.028 . S
O48 C54 1.247 . S
O49 Zn45 2.035 . S
O49 C54 1.258 . S
O50 C43 1.247 . S
O50 Zn47 2.028 . S
O51 C43 1.258 . S
O51 Zn45 2.035 . S
O52 Zn45 2.028 . S
O52 C55 1.247 . S
O53 Zn47 2.035 . S
O53 C55 1.258 . S
C54 O48 1.247 . S
C54 O49 1.258 . S
C55 O52 1.247 . S
C55 O53 1.258 . S
C56 O58 1.247 . S
C56 O60 1.258 . S
C57 O64 1.247 . S
C57 O65 1.258 . S
O58 C56 1.247 . S
O58 Zn59 2.028 . S
Zn59 O58 2.028 . S
Zn59 O63 2.035 . S
Zn59 O65 2.035 . S
Zn59 O66 2.028 . S
O60 C56 1.258 . S
O60 Zn61 2.035 . S
Zn61 O60 2.035 . S
Zn61 O62 2.028 . S
Zn61 O64 2.028 . S
Zn61 O67 2.035 . S
O62 Zn61 2.028 . S
O62 C68 1.247 . S
O63 Zn59 2.035 . S
O63 C68 1.258 . S
O64 C57 1.247 . S
O64 Zn61 2.028 . S
O65 C57 1.258 . S
O65 Zn59 2.035 . S
O66 Zn59 2.028 . S
O66 C69 1.247 . S
O67 Zn61 2.035 . S
O67 C69 1.258 . S
C68 O62 1.247 . S
C68 O63 1.258 . S
C69 O66 1.247 . S
C69 O67 1.258 . S
C70 O72 1.247 . S
C70 O74 1.258 . S
C71 O78 1.247 . S
C71 O79 1.258 . S
O72 C70 1.247 . S
O72 Zn73 2.028 . S
Zn73 O72 2.028 . S
Zn73 O77 2.035 . S
Zn73 O79 2.035 . S
Zn73 O80 2.028 . S
O74 C70 1.258 . S
O74 Zn75 2.035 . S
Zn75 O74 2.035 . S
Zn75 O76 2.028 . S
Zn75 O78 2.028 . S
Zn75 O81 2.035 . S
O76 Zn75 2.028 . S
O76 C82 1.247 . S
O77 Zn73 2.035 . S
O77 C82 1.258 . S
O78 C71 1.247 . S
O78 Zn75 2.028 . S
O79 C71 1.258 . S
O79 Zn73 2.035 . S
O80 Zn73 2.028 . S
O80 C83 1.247 . S
O81 Zn75 2.035 . S
O81 C83 1.258 . S
C82 O76 1.247 . S
C82 O77 1.258 . S
C83 O80 1.247 . S
C83 O81 1.258 . S
C84 O86 1.247 . S
C84 O88 1.258 . S
C85 O92 1.247 . S
C85 O93 1.258 . S
O86 C84 1.247 . S
O86 Zn87 2.028 . S
Zn87 O86 2.028 . S
Zn87 O91 2.035 . S
Zn87 O93 2.035 . S
Zn87 O94 2.028 . S
O88 C84 1.258 . S
O88 Zn89 2.035 . S
Zn89 O88 2.035 . S
Zn89 O90 2.028 . S
Zn89 O92 2.028 . S
Zn89 O95 2.035 . S
O90 Zn89 2.028 . S
O90 C96 1.247 . S
O91 Zn87 2.035 . S
O91 C96 1.258 . S
O92 C85 1.247 . S
O92 Zn89 2.028 . S
O93 C85 1.258 . S
O93 Zn87 2.035 . S
O94 Zn87 2.028 . S
O94 C97 1.247 . S
O95 Zn89 2.035 . S
O95 C97 1.258 . S
C96 O90 1.247 . S
C96 O91 1.258 . S
C97 O94 1.247 . S
C97 O95 1.258 . S
C98 O100 1.247 . S
C98 O102 1.258 . S
C99 O106 1.247 . S
C99 O107 1.258 . S
O100 C98 1.247 . S
O100 Zn101 2.028 . S
Zn101 O100 2.028 . S
Zn101 O105 2.035 . S
Zn101 O107 2.035 . S
Zn101 O108 2.028 . S
O102 C98 1.258 . S
O102 Zn103 2.035 . S
Zn103 O102 2.035 . S
Zn103 O104 2.028 . S
Zn103 O106 2.028 . S
Zn103 O109 2.035 . S
O104 Zn103 2.028 . S
O104 C110 1.247 . S
O105 Zn101 2.035 . S
O105 C110 1.258 . S
O106 C99 1.247 . S
O106 Zn103 2.028 . S
O107 C99 1.258 . S
O107 Zn101 2.035 . S
O108 Zn101 2.028 . S
O108 C111 1.247 . S
O109 Zn103 2.035 . S
O109 C111 1.258 . S
C110 O104 1.247 . S
C110 O105 1.258 . S
C111 O108 1.247 . S
C111 O109 1.258 . S
C112 O114 1.247 . S
C112 O116 1.258 . S
C113 O120 1.247 . S
C113 O121 1.258 . S
O114 C112 1.247 . S
O114 Zn115 2.028 . S
Zn115 O114 2.028 . S
Zn115 O119 2.035 . S
Zn115 O121 2.035 . S
Zn115 O122 2.028 . S
O116 C112 1.258 . S
O116 Zn117 2.035 . S
Zn117 O116 2.035 . S
Zn117 O118 2.028 . S
Zn117 O120 2.028 . S
Zn117 O123 2.035 . S
O118 Zn117 2.028 . S
O118 C124 1.247 . S
O119 Zn115 2.035 . S
O119 C124 1.258 . S
O120 C113 1.247 . S
O120 Zn117 2.028 . S
O121 C113 1.258 . S
O121 Zn115 2.035 . S
O122 Zn115 2.028 . S
O122 C125 1.247 . S
O123 Zn117 2.035 . S
O123 C125 1.258 . S
C124 O118 1.247 . S
C124 O119 1.258 . S
C125 O122 1.247 . S
C125 O123 1.258 . S
C126 O128 1.247 . S
C126 O130 1.258 . S
C127 O134 1.247 . S
C127 O135 1.258 . S
O128 C126 1.247 . S
O128 Zn129 2.028 . S
Zn129 O128 2.028 . S
Zn129 O133 2.035 . S
Zn129 O135 2.035 . S
Zn129 O136 2.028 . S
O130 C126 1.258 . S
O130 Zn131 2.035 . S
Zn131 O130 2.035 . S
Zn131 O132 2.028 . S
Zn131 O134 2.028 . S
Zn131 O137 2.035 . S
O132 Zn131 2.028 . S
O132 C138 1.247 . S
O133 Zn129 2.035 . S
O133 C138 1.258 . S
O134 C127 1.247 . S
O134 Zn131 2.028 . S
O135 C127 1.258 . S
O135 Zn129 2.035 . S
O136 Zn129 2.028 . S
O136 C139 1.247 . S
O137 Zn131 2.035 . S
O137 C139 1.258 . S
C138 O132 1.247 . S
C138 O133 1.258 . S
C139 O136 1.247 . S
C139 O137 1.258 . S
C140 O142 1.247 . S
C140 O144 1.258 . S
C141 O148 1.247 . S
C141 O149 1.258 . S
O142 C140 1.247 . S
O142 Zn143 2.028 . S
Zn143 O142 2.028 . S
Zn143 O147 2.035 . S
Zn143 O149 2.035 . S
Zn143 O150 2.028 . S
O144 C140 1.258 . S
O144 Zn145 2.035 . S
Zn145 O144 2.035 . S
Zn145 O146 2.028 . S
Zn145 O148 2.028 . S
Zn145 O151 2.035 . S
O146 Zn145 2.028 . S
O146 C152 1.247 . S
O147 Zn143 2.035 . S
O147 C152 1.258 . S
O148 C141 1.247 . S
O148 Zn145 2.028 . S
O149 C141 1.258 . S
O149 Zn143 2.035 . S
O150 Zn143 2.028 . S
O150 C153 1.247 . S
O151 Zn145 2.035 . S
O151 C153 1.258 . S
C152 O146 1.247 . S
C152 O147 1.258 . S
C153 O150 1.247 . S
C153 O151 1.258 . S
C154 O156 1.247 . S
C154 O158 1.258 . S
C155 O162 1.247 . S
C155 O163 1.258 . S
O156 C154 1.247 . S
O156 Zn157 2.028 . S
Zn157 O156 2.028 . S
Zn157 O161 2.035 . S
Zn157 O163 2.035 . S
Zn157 O164 2.028 . S
O158 C154 1.258 . S
O158 Zn159 2.035 . S
Zn159 O158 2.035 . S
Zn159 O160 2.028 . S
Zn159 O162 2.028 . S
Zn159 O165 2.035 . S
O160 Zn159 2.028 . S
O160 C166 1.247 . S
O161 Zn157 2.035 . S
O161 C166 1.258 . S
O162 C155 1.247 . S
O162 Zn159 2.028 . S
O163 C155 1.258 . S
O163 Zn157 2.035 . S
O164 Zn157 2.028 . S
O164 C167 1.247 . S
O165 Zn159 2.035 . S
O165 C167 1.258 . S
C166 O160 1.247 . S
C166 O161 1.258 . S
C167 O164 1.247 . S
C167 O165 1.258 . S
C168 O170 1.247 . S
C168 O172 1.258 1_455 S
C169 O176 1.247 1_455 S
C169 O177 1.258 . S
O170 C168 1.247 . S
O170 Zn171 2.028 . S
Zn171 O170 2.028 . S
Zn171 O175 2.035 . S
Zn171 O177 2.035 . S
Zn171 O178 2.028 . S
O172 C168 1.258 1_655 S
O172 Zn173 2.035 . S
Zn173 O172 2.035 . S
Zn173 O174 2.028 . S
Zn173 O176 2.028 . S
Zn173 O179 2.035 . S
O174 Zn173 2.028 . S
O174 C180 1.247 1_655 S
O175 Zn171 2.035 . S
O175 C180 1.258 . S
O176 C169 1.247 1_655 S
O176 Zn173 2.028 . S
O177 C169 1.258 . S
O177 Zn171 2.035 . S
O178 Zn171 2.028 . S
O178 C181 1.247 1_455 S
O179 Zn173 2.035 . S
O179 C181 1.258 . S
C180 O174 1.247 1_455 S
C180 O175 1.258 . S
C181 O178 1.247 1_655 S
C181 O179 1.258 . S
C182 O184 1.247 . S
C182 O186 1.258 . S
C183 O190 1.247 . S
C183 O191 1.258 . S
O184 C182 1.247 . S
O184 Zn185 2.028 . S
Zn185 O184 2.028 . S
Zn185 O189 2.035 . S
Zn185 O191 2.035 . S
Zn185 O192 2.028 . S
O186 C182 1.258 . S
O186 Zn187 2.035 . S
Zn187 O186 2.035 . S
Zn187 O188 2.028 . S
Zn187 O190 2.028 . S
Zn187 O193 2.035 . S
O188 Zn187 2.028 . S
O188 C194 1.247 . S
O189 Zn185 2.035 . S
O189 C194 1.258 . S
O190 C183 1.247 . S
O190 Zn187 2.028 . S
O191 C183 1.258 . S
O191 Zn185 2.035 . S
O192 Zn185 2.028 . S
O192 C195 1.247 . S
O193 Zn187 2.035 . S
O193 C195 1.258 . S
C194 O188 1.247 . S
C194 O189 1.258 . S
C195 O192 1.247 . S
C195 O193 1.258 . S
C196 O198 1.247 . S
C196 O200 1.258 1_565 S
C197 O204 1.247 1_565 S
C197 O205 1.258 . S
O198 C196 1.247 . S
O198 Zn199 2.028 . S
Zn199 O198 2.028 . S
Zn199 O203 2.035 . S
Zn199 O205 2.035 . S
Zn199 O206 2.028 . S
O200 C196 1.258 1_545 S
O200 Zn201 2.035 . S
Zn201 O200 2.035 . S
Zn201 O202 2.028 . S
Zn201 O204 2.028 . S
Zn201 O207 2.035 . S
O202 Zn201 2.028 . S
O202 C208 1.247 . S
O203 Zn199 2.035 . S
O203 C208 1.258 1_565 S
O204 C197 1.247 1_545 S
O204 Zn201 2.028 . S
O205 C197 1.258 . S
O205 Zn199 2.035 . S
O206 Zn199 2.028 . S
O206 C209 1.247 . S
O207 Zn201 2.035 . S
O207 C209 1.258 1_545 S
C208 O202 1.247 . S
C208 O203 1.258 1_545 S
C209 O206 1.247 . S
C209 O207 1.258 1_565 S
C210 O212 1.247 . S
C210 O214 1.258 . S
C211 O218 1.247 . S
C211 O219 1.258 . S
O212 C210 1.247 . S
O212 Zn213 2.028 . S
Zn213 O212 2.028 . S
Zn213 O217 2.035 . S
Zn213 O219 2.035 . S
Zn213 O220 2.028 . S
O214 C210 1.258 . S
O214 Zn215 2.035 . S
Zn215 O214 2.035 . S
Zn215 O216 2.028 . S
Zn215 O218 2.028 . S
Zn215 O221 2.035 . S
O216 Zn215 2.028 . S
O216 C222 1.247 . S
O217 Zn213 2.035 . S
O217 C222 1.258 . S
O218 C211 1.247 . S
O218 Zn215 2.028 . S
O219 C211 1.258 . S
O219 Zn213 2.035 . S
O220 Zn213 2.028 . S
O220 C223 1.247 . S
O221 Zn215 2.035 . S
O221 C223 1.258 . S
C222 O216 1.247 . S
C222 O217 1.258 . S
C223 O220 1.247 . S
C223 O221 1.258 . S
C224 O226 1.247 . S
C224 O228 1.258 . S
C225 O232 1.247 . S
C225 O233 1.258 . S
O226 C224 1.247 . S
O226 Zn227 2.028 . S
Zn227 O226 2.028 . S
Zn227 O231 2.035 . S
Zn227 O233 2.035 . S
Zn227 O234 2.028 . S
O228 C224 1.258 . S
O228 Zn229 2.035 . S
Zn229 O228 2.035 . S
Zn229 O230 2.028 . S
Zn229 O232 2.028 . S
Zn229 O235 2.035 . S
O230 Zn229 2.028 . S
O230 C236 1.247 . S
O231 Zn227 2.035 . S
O231 C236 1.258 . S
O232 C225 1.247 . S
O232 Zn229 2.028 . S
O233 C225 1.258 . S
O233 Zn227 2.035 . S
O234 Zn227 2.028 . S
O234 C237 1.247 . S
O235 Zn229 2.035 . S
O235 C237 1.258 . S
C236 O230 1.247 . S
C236 O231 1.258 . S
C237 O234 1.247 . S
C237 O235 1.258 . S
C238 O240 1.247 . S
C238 O242 1.258 . S
C239 O246 1.247 . S
C239 O247 1.258 . S
O240 C238 1.247 . S
O240 Zn241 2.028 . S
Zn241 O240 2.028 . S
Zn241 O245 2.035 . S
Zn241 O247 2.035 . S
Zn241 O248 2.028 . S
O242 C238 1.258 . S
O242 Zn243 2.035 . S
Zn243 O242 2.035 . S
Zn243 O244 2.028 . S
Zn243 O246 2.028 . S
Zn243 O249 2.035 . S
O244 Zn243 2.028 . S
O244 C250 1.247 . S
O245 Zn241 2.035 . S
O245 C250 1.258 . S
O246 C239 1.247 . S
O246 Zn243 2.028 . S
O247 C239 1.258 . S
O247 Zn241 2.035 . S
O248 Zn241 2.028 . S
O248 C251 1.247 . S
O249 Zn243 2.035 . S
O249 C251 1.258 . S
C250 O244 1.247 . S
C250 O245 1.258 . S
C251 O248 1.247 . S
C251 O249 1.258 . S
C252 O254 1.247 . S
C252 O256 1.258 . S
C253 O260 1.247 . S
C253 O261 1.258 . S
O254 C252 1.247 . S
O254 Zn255 2.028 . S
Zn255 O254 2.028 . S
Zn255 O259 2.035 . S
Zn255 O261 2.035 . S
Zn255 O262 2.028 . S
O256 C252 1.258 . S
O256 Zn257 2.035 . S
Zn257 O256 2.035 . S
Zn257 O258 2.028 . S
Zn257 O260 2.028 . S
Zn257 O263 2.035 . S
O258 Zn257 2.028 . S
O258 C264 1.247 . S
O259 Zn255 2.035 . S
O259 C264 1.258 . S
O260 C253 1.247 . S
O260 Zn257 2.028 . S
O261 C253 1.258 . S
O261 Zn255 2.035 . S
O262 Zn255 2.028 . S
O262 C265 1.247 . S
O263 Zn257 2.035 . S
O263 C265 1.258 . S
C264 O258 1.247 . S
C264 O259 1.258 . S
C265 O262 1.247 . S
C265 O263 1.258 . S
C266 O268 1.247 . S
C266 O270 1.258 . S
C267 O274 1.247 . S
C267 O275 1.258 . S
O268 C266 1.247 . S
O268 Zn269 2.028 . S
Zn269 O268 2.028 . S
Zn269 O273 2.035 . S
Zn269 O275 2.035 . S
Zn269 O276 2.028 . S
O270 C266 1.258 . S
O270 Zn271 2.035 . S
Zn271 O270 2.035 . S
Zn271 O272 2.028 . S
Zn271 O274 2.028 . S
Zn271 O277 2.035 . S
O272 Zn271 2.028 . S
O272 C278 1.247 . S
O273 Zn269 2.035 . S
O273 C278 1.258 . S
O274 C267 1.247 . S
O274 Zn271 2.028 . S
O275 C267 1.258 . S
O275 Zn269 2.035 . S
O276 Zn269 2.028 . S
O276 C279 1.247 . S
O277 Zn271 2.035 . S
O277 C279 1.258 . S
C278 O272 1.247 . S
C278 O273 1.258 . S
C279 O276 1.247 . S
C279 O277 1.258 . S
C280 O282 1.247 . S
C280 O284 1.258 . S
C281 O288 1.247 . S
C281 O289 1.258 . S
O282 C280 1.247 . S
O282 Zn283 2.028 . S
Zn283 O282 2.028 . S
Zn283 O287 2.035 . S
Zn283 O289 2.035 . S
Zn283 O290 2.028 . S
O284 C280 1.258 . S
O284 Zn285 2.035 . S
Zn285 O284 2.035 . S
Zn285 O286 2.028 . S
Zn285 O288 2.028 . S
Zn285 O291 2.035 . S
O286 Zn285 2.028 . S
O286 C292 1.247 . S
O287 Zn283 2.035 . S
O287 C292 1.258 . S
O288 C281 1.247 . S
O288 Zn285 2.028 . S
O289 C281 1.258 . S
O289 Zn283 2.035 . S
O290 Zn283 2.028 . S
O290 C293 1.247 . S
O291 Zn285 2.035 . S
O291 C293 1.258 . S
C292 O286 1.247 . S
C292 O287 1.258 . S
C293 O290 1.247 . S
C293 O291 1.258 . S
C294 O296 1.247 1_565 S
C294 O298 1.258 . S
C295 O302 1.247 . S
C295 O303 1.258 1_565 S
O296 C294 1.247 1_545 S
O296 Zn297 2.016 1_556 S
Zn297 O296 2.016 1_554 S
Zn297 O301 2.036 . S
Zn297 O303 2.047 . S
Zn297 O304 1.978 1_544 S
O298 C294 1.258 . S
O298 Zn299 2.041 . S
Zn299 O298 2.041 . S
Zn299 O300 2.027 1_556 S
Zn299 O302 2.022 1_556 S
Zn299 O305 2.036 . S
O300 Zn299 2.027 1_554 S
O300 C306 1.247 1_565 S
O301 Zn297 2.036 . S
O301 C306 1.258 . S
O302 C295 1.247 . S
O302 Zn299 2.022 1_554 S
O303 C295 1.258 1_545 S
O303 Zn297 2.047 . S
O304 Zn297 1.978 1_566 S
O304 C307 1.302 . S
O305 Zn299 2.036 . S
O305 C307 1.258 . S
C306 O300 1.247 1_545 S
C306 O301 1.258 . S
C307 O304 1.302 . S
C307 O305 1.258 . S
C308 O310 1.247 . S
C308 O312 1.309 . S
C309 O316 1.247 . S
C309 O317 1.258 1_655 S
O310 C308 1.247 . S
O310 Zn311 2.030 . S
Zn311 O310 2.030 . S
Zn311 O315 2.014 1_556 S
Zn311 O317 2.033 1_556 S
Zn311 O318 2.049 . S
O312 C308 1.309 . S
O312 Zn313 2.040 1_456 S
Zn313 O312 2.040 1_654 S
Zn313 O314 2.028 . S
Zn313 O316 2.028 . S
Zn313 O319 2.035 1_554 S
O314 Zn313 2.028 . S
O314 C320 1.247 1_655 S
O315 Zn311 2.014 1_554 S
O315 C320 1.258 . S
O316 C309 1.247 . S
O316 Zn313 2.028 . S
O317 C309 1.258 1_455 S
O317 Zn311 2.033 1_554 S
O318 Zn311 2.049 . S
O318 C321 1.247 . S
O319 Zn313 2.035 1_556 S
O319 C321 1.258 1_655 S
C320 O314 1.247 1_455 S
C320 O315 1.258 . S
C321 O318 1.247 . S
C321 O319 1.258 1_455 S
C322 O324 1.247 . S
C322 O326 1.258 . S
C323 O330 1.247 . S
C323 O331 1.258 . S
O324 C322 1.247 . S
O324 Zn325 2.027 1_554 S
Zn325 O324 2.027 1_556 S
Zn325 O329 2.041 . S
Zn325 O331 2.036 . S
Zn325 O332 2.022 1_556 S
O326 C322 1.258 . S
O326 Zn327 2.036 . S
Zn327 O326 2.036 . S
Zn327 O328 2.016 1_554 S
Zn327 O330 2.027 1_554 S
Zn327 O333 2.047 . S
O328 Zn327 2.016 1_556 S
O328 C334 1.247 . S
O329 Zn325 2.041 . S
O329 C334 1.258 . S
O330 C323 1.247 . S
O330 Zn327 2.027 1_556 S
O331 C323 1.258 . S
O331 Zn325 2.036 . S
O332 Zn325 2.022 1_554 S
O332 C335 1.247 . S
O333 Zn327 2.047 . S
O333 C335 1.258 . S
C334 O328 1.247 . S
C334 O329 1.258 . S
C335 O332 1.247 . S
C335 O333 1.258 . S
C336 O338 1.247 . S
C336 O340 1.258 . S
C337 O344 1.247 . S
C337 O345 1.258 . S
O338 C336 1.247 . S
O338 Zn339 2.028 . S
Zn339 O338 2.028 . S
Zn339 O343 2.035 . S
Zn339 O345 2.035 . S
Zn339 O346 2.028 . S
O340 C336 1.258 . S
O340 Zn341 2.035 . S
Zn341 O340 2.035 . S
Zn341 O342 2.028 . S
Zn341 O344 2.028 . S
Zn341 O347 2.035 . S
O342 Zn341 2.028 . S
O342 C348 1.247 . S
O343 Zn339 2.035 . S
O343 C348 1.258 . S
O344 C337 1.247 . S
O344 Zn341 2.028 . S
O345 C337 1.258 . S
O345 Zn339 2.035 . S
O346 Zn339 2.028 . S
O346 C349 1.247 . S
O347 Zn341 2.035 . S
O347 C349 1.258 . S
C348 O342 1.247 . S
C348 O343 1.258 . S
C349 O346 1.247 . S
C349 O347 1.258 . S
C350 O352 1.247 . S
C350 O354 1.258 . S
C351 O358 1.247 . S
C351 O359 1.258 . S
O352 C350 1.247 . S
O352 Zn353 2.028 . S
Zn353 O352 2.028 . S
Zn353 O357 2.035 . S
Zn353 O359 2.035 . S
Zn353 O360 2.028 . S
O354 C350 1.258 . S
O354 Zn355 2.035 . S
Zn355 O354 2.035 . S
Zn355 O356 2.028 . S
Zn355 O358 2.028 . S
Zn355 O361 2.035 . S
O356 Zn355 2.028 . S
O356 C362 1.247 . S
O357 Zn353 2.035 . S
O357 C362 1.258 . S
O358 C351 1.247 . S
O358 Zn355 2.028 . S
O359 C351 1.258 . S
O359 Zn353 2.035 . S
O360 Zn353 2.028 . S
O360 C363 1.247 . S
O361 Zn355 2.035 . S
O361 C363 1.258 . S
C362 O356 1.247 . S
C362 O357 1.258 . S
C363 O360 1.247 . S
C363 O361 1.258 . S
C364 O366 1.247 . S
C364 O368 1.258 . S
C365 O372 1.247 . S
C365 O373 1.258 . S
O366 C364 1.247 . S
O366 Zn367 2.028 . S
Zn367 O366 2.028 . S
Zn367 O371 2.035 . S
Zn367 O373 2.035 . S
Zn367 O374 2.028 . S
O368 C364 1.258 . S
O368 Zn369 2.035 . S
Zn369 O368 2.035 . S
Zn369 O370 2.028 . S
Zn369 O372 2.028 . S
Zn369 O375 2.035 . S
O370 Zn369 2.028 . S
O370 C376 1.247 . S
O371 Zn367 2.035 . S
O371 C376 1.258 . S
O372 C365 1.247 . S
O372 Zn369 2.028 . S
O373 C365 1.258 . S
O373 Zn367 2.035 . S
O374 Zn367 2.028 . S
O374 C377 1.247 . S
O375 Zn369 2.035 . S
O375 C377 1.258 . S
C376 O370 1.247 . S
C376 O371 1.258 . S
C377 O374 1.247 . S
C377 O375 1.258 . S
C378 O380 1.247 . S
C378 O382 1.258 1_545 S
C379 O386 1.247 1_545 S
C379 O387 1.258 . S
O380 C378 1.247 . S
O380 Zn381 2.049 . S
Zn381 O380 2.049 . S
Zn381 O385 2.033 1_554 S
Zn381 O387 2.014 1_554 S
Zn381 O388 2.030 . S
O382 C378 1.258 1_565 S
O382 Zn383 2.035 1_554 S
Zn383 O382 2.035 1_556 S
Zn383 O384 2.028 . S
Zn383 O386 2.028 . S
Zn383 O389 1.984 1_566 S
O384 Zn383 2.028 . S
O384 C390 1.247 . S
O385 Zn381 2.033 1_556 S
O385 C390 1.258 1_545 S
O386 C379 1.247 1_565 S
O386 Zn383 2.028 . S
O387 C379 1.258 . S
O387 Zn381 2.014 1_556 S
O388 Zn381 2.030 . S
O388 C391 1.247 . S
O389 Zn383 1.984 1_544 S
O389 C391 1.317 . S
C390 O384 1.247 . S
C390 O385 1.258 1_565 S
C391 O388 1.247 . S
C391 O389 1.317 . S
C392 O394 1.247 . S
C392 O396 1.258 1_455 S
C393 O400 1.247 . S
C393 O401 1.296 . S
O394 C392 1.247 . S
O394 Zn395 2.028 . S
Zn395 O394 2.028 . S
Zn395 O399 2.035 1_556 S
Zn395 O401 2.039 1_456 S
Zn395 O402 2.028 . S
O396 C392 1.258 1_655 S
O396 Zn397 2.033 1_556 S
Zn397 O396 2.033 1_554 S
Zn397 O398 2.049 . S
Zn397 O400 2.030 . S
Zn397 O403 2.014 1_554 S
O398 Zn397 2.049 . S
O398 C404 1.247 . S
O399 Zn395 2.035 1_554 S
O399 C404 1.258 1_455 S
O400 C393 1.247 . S
O400 Zn397 2.030 . S
O401 C393 1.296 . S
O401 Zn395 2.039 1_654 S
O402 Zn395 2.028 . S
O402 C405 1.247 1_455 S
O403 Zn397 2.014 1_556 S
O403 C405 1.258 . S
C404 O398 1.247 . S
C404 O399 1.258 1_655 S
C405 O402 1.247 1_655 S
C405 O403 1.258 . S
C406 O408 1.247 . S
C406 O410 1.258 . S
C407 O414 1.247 . S
C407 O415 1.258 . S
O408 C406 1.247 . S
O408 Zn409 2.049 . S
Zn409 O408 2.049 . S
Zn409 O413 2.033 1_554 S
Zn409 O415 2.014 1_554 S
Zn409 O416 2.030 . S
O410 C406 1.258 . S
O410 Zn411 2.035 1_554 S
Zn411 O410 2.035 1_556 S
Zn411 O412 2.028 . S
Zn411 O414 2.028 . S
Zn411 O417 2.035 1_556 S
O412 Zn411 2.028 . S
O412 C418 1.247 . S
O413 Zn409 2.033 1_556 S
O413 C418 1.258 . S
O414 C407 1.247 . S
O414 Zn411 2.028 . S
O415 C407 1.258 . S
O415 Zn409 2.014 1_556 S
O416 Zn409 2.030 . S
O416 C419 1.247 . S
O417 Zn411 2.035 1_554 S
O417 C419 1.258 . S
C418 O412 1.247 . S
C418 O413 1.258 . S
C419 O416 1.247 . S
C419 O417 1.258 . S
C420 O422 1.247 1_655 S
C420 O424 1.258 . S
C421 O428 1.247 . S
C421 O429 1.258 1_655 S
O422 C420 1.247 1_455 S
O422 Zn423 2.028 . S
Zn423 O422 2.028 . S
Zn423 O427 2.035 . S
Zn423 O429 2.035 . S
Zn423 O430 2.028 . S
O424 C420 1.258 . S
O424 Zn425 2.035 . S
Zn425 O424 2.035 . S
Zn425 O426 2.028 . S
Zn425 O428 2.028 . S
Zn425 O431 2.035 . S
O426 Zn425 2.028 . S
O426 C432 1.247 1_655 S
O427 Zn423 2.035 . S
O427 C432 1.258 . S
O428 C421 1.247 . S
O428 Zn425 2.028 . S
O429 C421 1.258 1_455 S
O429 Zn423 2.035 . S
O430 Zn423 2.028 . S
O430 C433 1.247 1_455 S
O431 Zn425 2.035 . S
O431 C433 1.258 . S
C432 O426 1.247 1_455 S
C432 O427 1.258 . S
C433 O430 1.247 1_655 S
C433 O431 1.258 . S
C434 O436 1.247 . S
C434 O438 1.258 . S
C435 O442 1.247 . S
C435 O443 1.258 . S
O436 C434 1.247 . S
O436 Zn437 2.028 . S
Zn437 O436 2.028 . S
Zn437 O441 2.035 . S
Zn437 O443 2.035 . S
Zn437 O444 2.028 . S
O438 C434 1.258 . S
O438 Zn439 2.035 . S
Zn439 O438 2.035 . S
Zn439 O440 2.028 . S
Zn439 O442 2.028 . S
Zn439 O445 2.035 . S
O440 Zn439 2.028 . S
O440 C446 1.247 . S
O441 Zn437 2.035 . S
O441 C446 1.258 . S
O442 C435 1.247 . S
O442 Zn439 2.028 . S
O443 C435 1.258 . S
O443 Zn437 2.035 . S
O444 Zn437 2.028 . S
O444 C447 1.247 . S
O445 Zn439 2.035 . S
O445 C447 1.258 . S
C446 O440 1.247 . S
C446 O441 1.258 . S
C447 O444 1.247 . S
C447 O445 1.258 . S
C448 O450 1.247 . S
C448 O452 1.258 1_545 S
C449 O456 1.247 . S
C449 O457 1.258 1_565 S
O450 C448 1.247 . S
O450 Zn451 2.028 . S
Zn451 O450 2.028 . S
Zn451 O455 2.035 . S
Zn451 O457 2.035 . S
Zn451 O458 2.028 . S
O452 C448 1.258 1_565 S
O452 Zn453 2.035 . S
Zn453 O452 2.035 . S
Zn453 O454 2.028 . S
Zn453 O456 2.028 . S
Zn453 O459 2.035 . S
O454 Zn453 2.028 . S
O454 C460 1.247 1_565 S
O455 Zn451 2.035 . S
O455 C460 1.258 . S
O456 C449 1.247 . S
O456 Zn453 2.028 . S
O457 C449 1.258 1_545 S
O457 Zn451 2.035 . S
O458 Zn451 2.028 . S
O458 C461 1.247 . S
O459 Zn453 2.035 . S
O459 C461 1.258 1_565 S
C460 O454 1.247 1_545 S
C460 O455 1.258 . S
C461 O458 1.247 . S
C461 O459 1.258 1_545 S
C462 O464 1.247 . S
C462 O466 1.258 . S
C463 O470 1.247 . S
C463 O471 1.258 . S
O464 C462 1.247 . S
O464 Zn465 2.028 . S
Zn465 O464 2.028 . S
Zn465 O469 2.035 . S
Zn465 O471 2.035 . S
Zn465 O472 2.028 . S
O466 C462 1.258 . S
O466 Zn467 2.035 . S
Zn467 O466 2.035 . S
Zn467 O468 2.028 . S
Zn467 O470 2.028 . S
Zn467 O473 2.035 . S
O468 Zn467 2.028 . S
O468 C474 1.247 . S
O469 Zn465 2.035 . S
O469 C474 1.258 . S
O470 C463 1.247 . S
O470 Zn467 2.028 . S
O471 C463 1.258 . S
O471 Zn465 2.035 . S
O472 Zn465 2.028 . S
O472 C475 1.247 . S
O473 Zn467 2.035 . S
O473 C475 1.258 . S
C474 O468 1.247 . S
C474 O469 1.258 . S
C475 O472 1.247 . S
C475 O473 1.258 . S
C476 O478 1.247 . S
C476 O480 1.258 . S
C477 O484 1.247 . S
C477 O485 1.258 . S
O478 C476 1.247 . S
O478 Zn479 2.028 . S
Zn479 O478 2.028 . S
Zn479 O483 2.035 . S
Zn479 O485 2.035 . S
Zn479 O486 2.028 . S
O480 C476 1.258 . S
O480 Zn481 2.035 . S
Zn481 O480 2.035 . S
Zn481 O482 2.028 . S
Zn481 O484 2.028 . S
Zn481 O487 2.035 . S
O482 Zn481 2.028 . S
O482 C488 1.247 . S
O483 Zn479 2.035 . S
O483 C488 1.258 . S
O484 C477 1.247 . S
O484 Zn481 2.028 . S
O485 C477 1.258 . S
O485 Zn479 2.035 . S
O486 Zn479 2.028 . S
O486 C489 1.247 . S
O487 Zn481 2.035 . S
O487 C489 1.258 . S
C488 O482 1.247 . S
C488 O483 1.258 . S
C489 O486 1.247 . S
C489 O487 1.258 . S
C490 O492 1.247 . S
C490 O494 1.258 . S
C491 O498 1.247 . S
C491 O499 1.258 . S
O492 C490 1.247 . S
O492 Zn493 2.028 . S
Zn493 O492 2.028 . S
Zn493 O497 2.035 . S
Zn493 O499 2.035 . S
Zn493 O500 2.028 . S
O494 C490 1.258 . S
O494 Zn495 2.035 . S
Zn495 O494 2.035 . S
Zn495 O496 2.028 . S
Zn495 O498 2.028 . S
Zn495 O501 2.035 . S
O496 Zn495 2.028 . S
O496 C502 1.247 . S
O497 Zn493 2.035 . S
O497 C502 1.258 . S
O498 C491 1.247 . S
O498 Zn495 2.028 . S
O499 C491 1.258 . S
O499 Zn493 2.035 . S
O500 Zn493 2.028 . S
O500 C503 1.247 . S
O501 Zn495 2.035 . S
O501 C503 1.258 . S
C502 O496 1.247 . S
C502 O497 1.258 . S
C503 O500 1.247 . S
C503 O501 1.258 . S
H504 C516 0.930 . S
H505 C518 0.930 . S
H506 C519 0.930 . S
H507 C523 0.959 . S
H508 C523 0.959 . S
H509 C523 0.961 . S
H510 C524 0.960 . S
H511 C524 0.961 . S
H512 C524 0.959 . S
H513 C527 0.929 . S
H514 C528 0.931 . S
H515 C530 0.930 . S
C516 H504 0.930 . S
C516 C517 1.399 . S
C516 C521 1.399 . S
C517 C516 1.399 . S
C517 C518 1.376 . S
C518 H505 0.930 . S
C518 C517 1.376 . S
C518 C519 1.388 . S
C519 H506 0.930 . S
C519 C518 1.388 . S
C519 C520 1.390 . S
C520 C519 1.390 . S
C520 C521 1.394 . S
C520 C526 1.465 . S
C521 C516 1.399 . S
C521 C520 1.394 . S
C521 C522 1.516 . S
C522 C521 1.516 . S
C522 C523 1.502 . S
C522 C524 1.561 . S
C522 C525 1.526 . S
C523 H507 0.959 . S
C523 H508 0.959 . S
C523 H509 0.961 . S
C523 C522 1.502 . S
C524 H510 0.960 . S
C524 H511 0.961 . S
C524 H512 0.959 . S
C524 C522 1.561 . S
C525 C522 1.526 . S
C525 C526 1.396 . S
C525 C530 1.390 . S
C526 C520 1.465 . S
C526 C525 1.396 . S
C526 C527 1.399 . S
C527 H513 0.929 . S
C527 C526 1.399 . S
C527 C528 1.385 . S
C528 H514 0.931 . S
C528 C527 1.385 . S
C528 C529 1.389 . S
C529 C528 1.389 . S
C529 C530 1.387 . S
C530 H515 0.930 . S
C530 C525 1.390 . S
C530 C529 1.387 . S
H531 C543 0.930 . S
H532 C545 0.930 . S
H533 C546 0.930 . S
H534 C550 0.959 . S
H535 C550 0.959 . S
H536 C550 0.961 . S
H537 C551 0.960 . S
H538 C551 0.961 . S
H539 C551 0.959 . S
H540 C554 0.929 . S
H541 C555 0.931 . S
H542 C557 0.930 . S
C543 H531 0.930 . S
C543 C544 1.399 . S
C543 C548 1.399 . S
C544 C543 1.399 . S
C544 C545 1.376 . S
C545 H532 0.930 . S
C545 C544 1.376 . S
C545 C546 1.388 . S
C546 H533 0.930 . S
C546 C545 1.388 . S
C546 C547 1.390 . S
C547 C546 1.390 . S
C547 C548 1.394 . S
C547 C553 1.465 . S
C548 C543 1.399 . S
C548 C547 1.394 . S
C548 C549 1.516 . S
C549 C548 1.516 . S
C549 C550 1.502 . S
C549 C551 1.561 . S
C549 C552 1.526 . S
C550 H534 0.959 . S
C550 H535 0.959 . S
C550 H536 0.961 . S
C550 C549 1.502 . S
C551 H537 0.960 . S
C551 H538 0.961 . S
C551 H539 0.959 . S
C551 C549 1.561 . S
C552 C549 1.526 . S
C552 C553 1.396 . S
C552 C557 1.390 . S
C553 C547 1.465 . S
C553 C552 1.396 . S
C553 C554 1.399 . S
C554 H540 0.929 . S
C554 C553 1.399 . S
C554 C555 1.385 . S
C555 H541 0.931 . S
C555 C554 1.385 . S
C555 C556 1.389 . S
C556 C555 1.389 . S
C556 C557 1.387 . S
C557 H542 0.930 . S
C557 C552 1.390 . S
C557 C556 1.387 . S
H558 C570 0.930 . S
H559 C572 0.930 . S
H560 C573 0.930 . S
H561 C577 0.959 . S
H562 C577 0.959 . S
H563 C577 0.961 . S
H564 C578 0.960 . S
H565 C578 0.961 . S
H566 C578 0.959 . S
H567 C581 0.929 . S
H568 C582 0.931 . S
H569 C584 0.930 . S
C570 H558 0.930 . S
C570 C571 1.399 . S
C570 C575 1.399 . S
C571 C570 1.399 . S
C571 C572 1.376 . S
C572 H559 0.930 . S
C572 C571 1.376 . S
C572 C573 1.388 . S
C573 H560 0.930 . S
C573 C572 1.388 . S
C573 C574 1.390 . S
C574 C573 1.390 . S
C574 C575 1.394 . S
C574 C580 1.465 . S
C575 C570 1.399 . S
C575 C574 1.394 . S
C575 C576 1.516 . S
C576 C575 1.516 . S
C576 C577 1.502 . S
C576 C578 1.561 . S
C576 C579 1.526 . S
C577 H561 0.959 . S
C577 H562 0.959 . S
C577 H563 0.961 . S
C577 C576 1.502 . S
C578 H564 0.960 . S
C578 H565 0.961 . S
C578 H566 0.959 . S
C578 C576 1.561 . S
C579 C576 1.526 . S
C579 C580 1.396 . S
C579 C584 1.390 . S
C580 C574 1.465 . S
C580 C579 1.396 . S
C580 C581 1.399 . S
C581 H567 0.929 . S
C581 C580 1.399 . S
C581 C582 1.385 . S
C582 H568 0.931 . S
C582 C581 1.385 . S
C582 C583 1.389 . S
C583 C582 1.389 . S
C583 C584 1.387 . S
C584 H569 0.930 . S
C584 C579 1.390 . S
C584 C583 1.387 . S
H585 C597 0.930 . S
H586 C599 0.930 . S
H587 C600 0.930 . S
H588 C604 0.959 . S
H589 C604 0.959 . S
H590 C604 0.961 . S
H591 C605 0.960 . S
H592 C605 0.961 . S
H593 C605 0.959 . S
H594 C608 0.929 . S
H595 C609 0.931 . S
H596 C611 0.930 . S
C597 H585 0.930 . S
C597 C598 1.399 . S
C597 C602 1.399 1_556 S
C598 C597 1.399 . S
C598 C599 1.376 . S
C599 H586 0.930 . S
C599 C598 1.376 . S
C599 C600 1.388 1_556 S
C600 H587 0.930 . S
C600 C599 1.388 1_554 S
C600 C601 1.390 . S
C601 C600 1.390 . S
C601 C602 1.394 . S
C601 C607 1.465 . S
C602 C597 1.399 1_554 S
C602 C601 1.394 . S
C602 C603 1.516 . S
C603 C602 1.516 . S
C603 C604 1.502 . S
C603 C605 1.561 . S
C603 C606 1.526 . S
C604 H588 0.959 . S
C604 H589 0.959 . S
C604 H590 0.961 . S
C604 C603 1.502 . S
C605 H591 0.960 . S
C605 H592 0.961 . S
C605 H593 0.959 . S
C605 C603 1.561 . S
C606 C603 1.526 . S
C606 C607 1.396 . S
C606 C611 1.390 . S
C607 C601 1.465 . S
C607 C606 1.396 . S
C607 C608 1.399 . S
C608 H594 0.929 . S
C608 C607 1.399 . S
C608 C609 1.385 . S
C609 H595 0.931 . S
C609 C608 1.385 . S
C609 C610 1.389 . S
C610 C609 1.389 . S
C610 C611 1.387 . S
C611 H596 0.930 . S
C611 C606 1.390 . S
C611 C610 1.387 . S
H612 C624 0.930 . S
H613 C626 0.930 . S
H614 C627 0.930 . S
H615 C631 0.959 . S
H616 C631 0.959 . S
H617 C631 0.961 . S
H618 C632 0.960 . S
H619 C632 0.961 . S
H620 C632 0.959 . S
H621 C635 0.929 . S
H622 C636 0.931 . S
H623 C638 0.930 . S
C624 H612 0.930 . S
C624 C625 1.399 . S
C624 C629 1.399 . S
C625 C624 1.399 . S
C625 C626 1.376 . S
C626 H613 0.930 . S
C626 C625 1.376 . S
C626 C627 1.388 . S
C627 H614 0.930 . S
C627 C626 1.388 . S
C627 C628 1.390 . S
C628 C627 1.390 . S
C628 C629 1.394 . S
C628 C634 1.465 . S
C629 C624 1.399 . S
C629 C628 1.394 . S
C629 C630 1.516 . S
C630 C629 1.516 . S
C630 C631 1.502 . S
C630 C632 1.561 . S
C630 C633 1.526 . S
C631 H615 0.959 . S
C631 H616 0.959 . S
C631 H617 0.961 . S
C631 C630 1.502 . S
C632 H618 0.960 . S
C632 H619 0.961 . S
C632 H620 0.959 . S
C632 C630 1.561 . S
C633 C630 1.526 . S
C633 C634 1.396 . S
C633 C638 1.390 1_554 S
C634 C628 1.465 . S
C634 C633 1.396 . S
C634 C635 1.399 . S
C635 H621 0.929 . S
C635 C634 1.399 . S
C635 C636 1.385 1_554 S
C636 H622 0.931 . S
C636 C635 1.385 1_556 S
C636 C637 1.389 . S
C637 C636 1.389 . S
C637 C638 1.387 . S
C638 H623 0.930 . S
C638 C633 1.390 1_556 S
C638 C637 1.387 . S
H639 C651 0.930 . S
H640 C653 0.930 . S
H641 C654 0.930 . S
H642 C658 0.959 . S
H643 C658 0.959 . S
H644 C658 0.961 . S
H645 C659 0.960 . S
H646 C659 0.961 . S
H647 C659 0.959 . S
H648 C662 0.929 . S
H649 C663 0.931 . S
H650 C665 0.930 . S
C651 H639 0.930 . S
C651 C652 1.399 . S
C651 C656 1.399 . S
C652 C651 1.399 . S
C652 C653 1.376 . S
C653 H640 0.930 . S
C653 C652 1.376 . S
C653 C654 1.388 . S
C654 H641 0.930 . S
C654 C653 1.388 . S
C654 C655 1.390 . S
C655 C654 1.390 . S
C655 C656 1.394 . S
C655 C661 1.465 . S
C656 C651 1.399 . S
C656 C655 1.394 . S
C656 C657 1.516 . S
C657 C656 1.516 . S
C657 C658 1.502 . S
C657 C659 1.561 . S
C657 C660 1.526 . S
C658 H642 0.959 . S
C658 H643 0.959 . S
C658 H644 0.961 . S
C658 C657 1.502 . S
C659 H645 0.960 . S
C659 H646 0.961 . S
C659 H647 0.959 . S
C659 C657 1.561 . S
C660 C657 1.526 . S
C660 C661 1.396 . S
C660 C665 1.390 1_554 S
C661 C655 1.465 . S
C661 C660 1.396 . S
C661 C662 1.399 . S
C662 H648 0.929 . S
C662 C661 1.399 . S
C662 C663 1.385 1_554 S
C663 H649 0.931 . S
C663 C662 1.385 1_556 S
C663 C664 1.389 . S
C664 C663 1.389 . S
C664 C665 1.387 . S
C665 H650 0.930 . S
C665 C660 1.390 1_556 S
C665 C664 1.387 . S
H666 C678 0.930 . S
H667 C680 0.930 . S
H668 C681 0.930 . S
H669 C685 0.959 . S
H670 C685 0.959 . S
H671 C685 0.961 . S
H672 C686 0.960 . S
H673 C686 0.961 . S
H674 C686 0.959 . S
H675 C689 0.929 . S
H676 C690 0.931 . S
H677 C692 0.930 . S
C678 H666 0.930 . S
C678 C679 1.399 . S
C678 C683 1.399 . S
C679 C678 1.399 . S
C679 C680 1.376 . S
C680 H667 0.930 . S
C680 C679 1.376 . S
C680 C681 1.388 . S
C681 H668 0.930 . S
C681 C680 1.388 . S
C681 C682 1.390 . S
C682 C681 1.390 . S
C682 C683 1.394 . S
C682 C688 1.465 . S
C683 C678 1.399 . S
C683 C682 1.394 . S
C683 C684 1.516 . S
C684 C683 1.516 . S
C684 C685 1.502 . S
C684 C686 1.561 . S
C684 C687 1.526 . S
C685 H669 0.959 . S
C685 H670 0.959 . S
C685 H671 0.961 . S
C685 C684 1.502 . S
C686 H672 0.960 . S
C686 H673 0.961 . S
C686 H674 0.959 . S
C686 C684 1.561 . S
C687 C684 1.526 . S
C687 C688 1.396 . S
C687 C692 1.390 . S
C688 C682 1.465 . S
C688 C687 1.396 . S
C688 C689 1.399 . S
C689 H675 0.929 . S
C689 C688 1.399 . S
C689 C690 1.385 . S
C690 H676 0.931 . S
C690 C689 1.385 . S
C690 C691 1.389 . S
C691 C690 1.389 . S
C691 C692 1.387 . S
C692 H677 0.930 . S
C692 C687 1.390 . S
C692 C691 1.387 . S
H693 C705 0.930 . S
H694 C707 0.930 . S
H695 C708 0.930 . S
H696 C712 0.959 . S
H697 C712 0.959 . S
H698 C712 0.961 . S
H699 C713 0.960 . S
H700 C713 0.961 . S
H701 C713 0.959 . S
H702 C716 0.929 . S
H703 C717 0.931 . S
H704 C719 0.930 . S
C705 H693 0.930 . S
C705 C706 1.399 . S
C705 C710 1.399 . S
C706 C705 1.399 . S
C706 C707 1.376 . S
C707 H694 0.930 . S
C707 C706 1.376 . S
C707 C708 1.388 . S
C708 H695 0.930 . S
C708 C707 1.388 . S
C708 C709 1.390 . S
C709 C708 1.390 . S
C709 C710 1.394 . S
C709 C715 1.465 . S
C710 C705 1.399 . S
C710 C709 1.394 . S
C710 C711 1.516 . S
C711 C710 1.516 . S
C711 C712 1.502 . S
C711 C713 1.561 . S
C711 C714 1.526 . S
C712 H696 0.959 . S
C712 H697 0.959 . S
C712 H698 0.961 . S
C712 C711 1.502 . S
C713 H699 0.960 . S
C713 H700 0.961 . S
C713 H701 0.959 . S
C713 C711 1.561 . S
C714 C711 1.526 . S
C714 C715 1.396 . S
C714 C719 1.390 . S
C715 C709 1.465 . S
C715 C714 1.396 . S
C715 C716 1.399 . S
C716 H702 0.929 . S
C716 C715 1.399 . S
C716 C717 1.385 . S
C717 H703 0.931 . S
C717 C716 1.385 . S
C717 C718 1.389 . S
C718 C717 1.389 . S
C718 C719 1.387 . S
C719 H704 0.930 . S
C719 C714 1.390 . S
C719 C718 1.387 . S
H720 C732 0.930 . S
H721 C734 0.930 . S
H722 C735 0.930 . S
H723 C739 0.959 . S
H724 C739 0.959 . S
H725 C739 0.961 . S
H726 C740 0.960 . S
H727 C740 0.961 . S
H728 C740 0.959 . S
H729 C743 0.929 . S
H730 C744 0.931 . S
H731 C746 0.930 . S
C732 H720 0.930 . S
C732 C733 1.399 . S
C732 C737 1.399 . S
C733 C732 1.399 . S
C733 C734 1.376 . S
C734 H721 0.930 . S
C734 C733 1.376 . S
C734 C735 1.388 . S
C735 H722 0.930 . S
C735 C734 1.388 . S
C735 C736 1.390 . S
C736 C735 1.390 . S
C736 C737 1.394 . S
C736 C742 1.465 . S
C737 C732 1.399 . S
C737 C736 1.394 . S
C737 C738 1.516 . S
C738 C737 1.516 . S
C738 C739 1.502 . S
C738 C740 1.561 . S
C738 C741 1.526 . S
C739 H723 0.959 . S
C739 H724 0.959 . S
C739 H725 0.961 . S
C739 C738 1.502 . S
C740 H726 0.960 . S
C740 H727 0.961 . S
C740 H728 0.959 . S
C740 C738 1.561 . S
C741 C738 1.526 . S
C741 C742 1.396 . S
C741 C746 1.390 . S
C742 C736 1.465 . S
C742 C741 1.396 . S
C742 C743 1.399 . S
C743 H729 0.929 . S
C743 C742 1.399 . S
C743 C744 1.385 . S
C744 H730 0.931 . S
C744 C743 1.385 . S
C744 C745 1.389 . S
C745 C744 1.389 . S
C745 C746 1.387 . S
C746 H731 0.930 . S
C746 C741 1.390 . S
C746 C745 1.387 . S
H747 C759 0.930 . S
H748 C761 0.930 . S
H749 C762 0.930 . S
H750 C766 0.959 . S
H751 C766 0.959 . S
H752 C766 0.961 . S
H753 C767 0.960 . S
H754 C767 0.961 . S
H755 C767 0.959 . S
H756 C770 0.929 . S
H757 C771 0.931 . S
H758 C773 0.930 . S
C759 H747 0.930 . S
C759 C760 1.399 . S
C759 C764 1.399 . S
C760 C759 1.399 . S
C760 C761 1.376 . S
C761 H748 0.930 . S
C761 C760 1.376 . S
C761 C762 1.388 . S
C762 H749 0.930 . S
C762 C761 1.388 . S
C762 C763 1.390 . S
C763 C762 1.390 . S
C763 C764 1.394 . S
C763 C769 1.465 . S
C764 C759 1.399 . S
C764 C763 1.394 . S
C764 C765 1.516 . S
C765 C764 1.516 . S
C765 C766 1.502 . S
C765 C767 1.561 . S
C765 C768 1.526 . S
C766 H750 0.959 . S
C766 H751 0.959 . S
C766 H752 0.961 . S
C766 C765 1.502 . S
C767 H753 0.960 . S
C767 H754 0.961 . S
C767 H755 0.959 . S
C767 C765 1.561 . S
C768 C765 1.526 . S
C768 C769 1.396 . S
C768 C773 1.390 1_556 S
C769 C763 1.465 . S
C769 C768 1.396 . S
C769 C770 1.399 . S
C770 H756 0.929 . S
C770 C769 1.399 . S
C770 C771 1.385 1_556 S
C771 H757 0.931 . S
C771 C770 1.385 1_554 S
C771 C772 1.389 . S
C772 C771 1.389 . S
C772 C773 1.387 . S
C773 H758 0.930 . S
C773 C768 1.390 1_554 S
C773 C772 1.387 . S
H774 C786 0.930 . S
H775 C788 0.930 . S
H776 C789 0.930 . S
H777 C793 0.959 . S
H778 C793 0.959 . S
H779 C793 0.961 . S
H780 C794 0.960 . S
H781 C794 0.961 . S
H782 C794 0.959 . S
H783 C797 0.929 . S
H784 C798 0.931 . S
H785 C800 0.930 . S
C786 H774 0.930 . S
C786 C787 1.399 . S
C786 C791 1.399 1_554 S
C787 C786 1.399 . S
C787 C788 1.376 . S
C788 H775 0.930 . S
C788 C787 1.376 . S
C788 C789 1.388 1_554 S
C789 H776 0.930 . S
C789 C788 1.388 1_556 S
C789 C790 1.390 . S
C790 C789 1.390 . S
C790 C791 1.394 . S
C790 C796 1.465 . S
C791 C786 1.399 1_556 S
C791 C790 1.394 . S
C791 C792 1.516 . S
C792 C791 1.516 . S
C792 C793 1.502 . S
C792 C794 1.561 . S
C792 C795 1.526 . S
C793 H777 0.959 . S
C793 H778 0.959 . S
C793 H779 0.961 . S
C793 C792 1.502 . S
C794 H780 0.960 . S
C794 H781 0.961 . S
C794 H782 0.959 . S
C794 C792 1.561 . S
C795 C792 1.526 . S
C795 C796 1.396 . S
C795 C800 1.390 . S
C796 C790 1.465 . S
C796 C795 1.396 . S
C796 C797 1.399 . S
C797 H783 0.929 . S
C797 C796 1.399 . S
C797 C798 1.385 . S
C798 H784 0.931 . S
C798 C797 1.385 . S
C798 C799 1.389 . S
C799 C798 1.389 . S
C799 C800 1.387 . S
C800 H785 0.930 . S
C800 C795 1.390 . S
C800 C799 1.387 . S
H801 C813 0.930 . S
H802 C815 0.930 . S
H803 C816 0.930 . S
H804 C820 0.959 . S
H805 C820 0.959 . S
H806 C820 0.961 . S
H807 C821 0.960 . S
H808 C821 0.961 . S
H809 C821 0.959 . S
H810 C824 0.929 . S
H811 C825 0.931 . S
H812 C827 0.930 . S
C813 H801 0.930 . S
C813 C814 1.399 . S
C813 C818 1.399 . S
C814 C813 1.399 . S
C814 C815 1.376 . S
C815 H802 0.930 . S
C815 C814 1.376 . S
C815 C816 1.388 . S
C816 H803 0.930 . S
C816 C815 1.388 . S
C816 C817 1.390 . S
C817 C816 1.390 . S
C817 C818 1.394 . S
C817 C823 1.465 . S
C818 C813 1.399 . S
C818 C817 1.394 . S
C818 C819 1.516 . S
C819 C818 1.516 . S
C819 C820 1.502 . S
C819 C821 1.561 . S
C819 C822 1.526 . S
C820 H804 0.959 . S
C820 H805 0.959 . S
C820 H806 0.961 . S
C820 C819 1.502 . S
C821 H807 0.960 . S
C821 H808 0.961 . S
C821 H809 0.959 . S
C821 C819 1.561 . S
C822 C819 1.526 . S
C822 C823 1.396 . S
C822 C827 1.390 1_556 S
C823 C817 1.465 . S
C823 C822 1.396 . S
C823 C824 1.399 . S
C824 H810 0.929 . S
C824 C823 1.399 . S
C824 C825 1.385 1_556 S
C825 H811 0.931 . S
C825 C824 1.385 1_554 S
C825 C826 1.389 . S
C826 C825 1.389 . S
C826 C827 1.387 . S
C827 H812 0.930 . S
C827 C822 1.390 1_554 S
C827 C826 1.387 . S
H828 C840 0.930 . S
H829 C842 0.903 1_455 S
H830 C843 0.930 . S
H831 C847 0.959 . S
H832 C847 0.959 . S
H833 C847 0.961 . S
H834 C848 0.960 . S
H835 C848 0.961 . S
H836 C848 0.959 . S
H837 C851 0.929 . S
H838 C852 0.931 . S
H839 C854 0.918 1_655 S
C840 H828 0.930 . S
C840 C841 1.399 . S
C840 C845 1.399 . S
C841 C840 1.399 . S
C841 C842 1.424 . S
C842 H829 0.903 1_655 S
C842 C841 1.424 . S
C842 C843 1.373 1_655 S
C843 H830 0.930 . S
C843 C842 1.373 1_455 S
C843 C844 1.427 . S
C844 C843 1.427 . S
C844 C845 1.340 1_455 S
C844 C850 1.475 . S
C845 C840 1.399 . S
C845 C844 1.340 1_655 S
C845 C846 1.516 . S
C846 C845 1.516 . S
C846 C847 1.502 . S
C846 C848 1.561 1_655 S
C846 C849 1.511 1_655 S
C847 H831 0.959 . S
C847 H832 0.959 . S
C847 H833 0.961 . S
C847 C846 1.502 . S
C848 H834 0.960 . S
C848 H835 0.961 . S
C848 H836 0.959 . S
C848 C846 1.561 1_455 S
C849 C846 1.511 1_455 S
C849 C850 1.415 . S
C849 C854 1.388 . S
C850 C844 1.475 . S
C850 C849 1.415 . S
C850 C851 1.399 . S
C851 H837 0.929 . S
C851 C850 1.399 . S
C851 C852 1.385 . S
C852 H838 0.931 . S
C852 C851 1.385 . S
C852 C853 1.389 . S
C853 C852 1.389 . S
C853 C854 1.387 . S
C854 H839 0.918 1_455 S
C854 C849 1.388 . S
C854 C853 1.387 . S
H855 C867 0.930 . S
H856 C869 0.930 . S
H857 C870 0.930 . S
H858 C874 0.959 . S
H859 C874 0.959 . S
H860 C874 0.961 . S
H861 C875 0.960 . S
H862 C875 0.961 . S
H863 C875 0.959 . S
H864 C878 0.929 . S
H865 C879 0.931 . S
H866 C881 0.930 . S
C867 H855 0.930 . S
C867 C868 1.399 . S
C867 C872 1.399 . S
C868 C867 1.399 . S
C868 C869 1.376 . S
C869 H856 0.930 . S
C869 C868 1.376 . S
C869 C870 1.388 . S
C870 H857 0.930 . S
C870 C869 1.388 . S
C870 C871 1.390 . S
C871 C870 1.390 . S
C871 C872 1.394 . S
C871 C877 1.465 . S
C872 C867 1.399 . S
C872 C871 1.394 . S
C872 C873 1.516 . S
C873 C872 1.516 . S
C873 C874 1.502 . S
C873 C875 1.561 . S
C873 C876 1.526 . S
C874 H858 0.959 . S
C874 H859 0.959 . S
C874 H860 0.961 . S
C874 C873 1.502 . S
C875 H861 0.960 . S
C875 H862 0.961 . S
C875 H863 0.959 . S
C875 C873 1.561 . S
C876 C873 1.526 . S
C876 C877 1.396 . S
C876 C881 1.390 . S
C877 C871 1.465 . S
C877 C876 1.396 . S
C877 C878 1.399 . S
C878 H864 0.929 . S
C878 C877 1.399 . S
C878 C879 1.385 . S
C879 H865 0.931 . S
C879 C878 1.385 . S
C879 C880 1.389 . S
C880 C879 1.389 . S
C880 C881 1.387 . S
C881 H866 0.930 . S
C881 C876 1.390 . S
C881 C880 1.387 . S
H882 C894 0.930 . S
H883 C896 0.930 . S
H884 C897 0.930 . S
H885 C901 0.959 . S
H886 C901 0.959 . S
H887 C901 0.961 . S
H888 C902 0.960 . S
H889 C902 0.961 . S
H890 C902 0.959 . S
H891 C905 0.929 . S
H892 C906 0.931 . S
H893 C908 0.930 . S
C894 H882 0.930 . S
C894 C895 1.399 . S
C894 C899 1.399 . S
C895 C894 1.399 . S
C895 C896 1.376 1_545 S
C896 H883 0.930 . S
C896 C895 1.376 1_565 S
C896 C897 1.388 . S
C897 H884 0.930 . S
C897 C896 1.388 . S
C897 C898 1.390 . S
C898 C897 1.390 . S
C898 C899 1.394 1_565 S
C898 C904 1.465 . S
C899 C894 1.399 . S
C899 C898 1.394 1_545 S
C899 C900 1.516 . S
C900 C899 1.516 . S
C900 C901 1.502 . S
C900 C902 1.561 . S
C900 C903 1.526 . S
C901 H885 0.959 . S
C901 H886 0.959 . S
C901 H887 0.961 . S
C901 C900 1.502 . S
C902 H888 0.960 . S
C902 H889 0.961 . S
C902 H890 0.959 . S
C902 C900 1.561 . S
C903 C900 1.526 . S
C903 C904 1.396 1_545 S
C903 C908 1.390 . S
C904 C898 1.465 . S
C904 C903 1.396 1_565 S
C904 C905 1.399 . S
C905 H891 0.929 . S
C905 C904 1.399 . S
C905 C906 1.385 . S
C906 H892 0.931 . S
C906 C905 1.385 . S
C906 C907 1.389 . S
C907 C906 1.389 . S
C907 C908 1.387 1_565 S
C908 H893 0.930 . S
C908 C903 1.390 . S
C908 C907 1.387 1_545 S
H909 C921 0.930 . S
H910 C923 0.930 . S
H911 C924 0.930 . S
H912 C928 0.959 . S
H913 C928 0.959 . S
H914 C928 0.961 . S
H915 C929 0.960 . S
H916 C929 0.961 . S
H917 C929 0.959 . S
H918 C932 0.929 . S
H919 C933 0.931 . S
H920 C935 0.930 . S
C921 H909 0.930 . S
C921 C922 1.399 . S
C921 C926 1.399 . S
C922 C921 1.399 . S
C922 C923 1.376 1_545 S
C923 H910 0.930 . S
C923 C922 1.376 1_565 S
C923 C924 1.388 . S
C924 H911 0.930 . S
C924 C923 1.388 . S
C924 C925 1.390 . S
C925 C924 1.390 . S
C925 C926 1.394 1_565 S
C925 C931 1.465 . S
C926 C921 1.399 . S
C926 C925 1.394 1_545 S
C926 C927 1.516 . S
C927 C926 1.516 . S
C927 C928 1.502 . S
C927 C929 1.561 . S
C927 C930 1.526 . S
C928 H912 0.959 . S
C928 H913 0.959 . S
C928 H914 0.961 . S
C928 C927 1.502 . S
C929 H915 0.960 . S
C929 H916 0.961 . S
C929 H917 0.959 . S
C929 C927 1.561 . S
C930 C927 1.526 . S
C930 C931 1.396 1_545 S
C930 C935 1.390 . S
C931 C925 1.465 . S
C931 C930 1.396 1_565 S
C931 C932 1.399 . S
C932 H918 0.929 . S
C932 C931 1.399 . S
C932 C933 1.385 . S
C933 H919 0.931 . S
C933 C932 1.385 . S
C933 C934 1.389 . S
C934 C933 1.389 . S
C934 C935 1.387 1_565 S
C935 H920 0.930 . S
C935 C930 1.390 . S
C935 C934 1.387 1_545 S
H936 C948 0.951 . S
H937 C950 0.930 . S
H938 C951 0.930 . S
H939 C955 0.959 . S
H940 C955 0.959 . S
H941 C955 0.961 . S
H942 C956 0.960 . S
H943 C956 0.961 . S
H944 C956 0.959 . S
H945 C959 0.912 . S
H946 C960 0.931 . S
H947 C962 0.930 . S
C948 H936 0.951 . S
C948 C949 1.399 1_455 S
C948 C953 1.399 . S
C949 C948 1.399 1_655 S
C949 C950 1.376 . S
C950 H937 0.930 . S
C950 C949 1.376 . S
C950 C951 1.388 . S
C951 H938 0.930 . S
C951 C950 1.388 . S
C951 C952 1.390 1_655 S
C952 C951 1.390 1_455 S
C952 C953 1.394 . S
C952 C958 1.465 . S
C953 C948 1.399 . S
C953 C952 1.394 . S
C953 C954 1.516 . S
C954 C953 1.516 . S
C954 C955 1.502 1_455 S
C954 C956 1.561 . S
C954 C957 1.526 . S
C955 H939 0.959 . S
C955 H940 0.959 . S
C955 H941 0.961 . S
C955 C954 1.502 1_655 S
C956 H942 0.960 . S
C956 H943 0.961 . S
C956 H944 0.959 . S
C956 C954 1.561 . S
C957 C954 1.526 . S
C957 C958 1.396 . S
C957 C962 1.390 . S
C958 C952 1.465 . S
C958 C957 1.396 . S
C958 C959 1.399 . S
C959 H945 0.912 . S
C959 C958 1.399 . S
C959 C960 1.385 . S
C960 H946 0.931 . S
C960 C959 1.385 . S
C960 C961 1.389 . S
C961 C960 1.389 . S
C961 C962 1.387 . S
C962 H947 0.930 . S
C962 C957 1.390 . S
C962 C961 1.387 . S
H963 C975 0.930 . S
H964 C977 0.930 . S
H965 C978 0.930 . S
H966 C982 0.959 . S
H967 C982 0.959 . S
H968 C982 0.961 . S
H969 C983 0.960 . S
H970 C983 0.961 . S
H971 C983 0.959 . S
H972 C986 0.929 . S
H973 C987 0.931 . S
H974 C989 0.930 . S
C975 H963 0.930 . S
C975 C976 1.399 . S
C975 C980 1.399 . S
C976 C975 1.399 . S
C976 C977 1.376 . S
C977 H964 0.930 . S
C977 C976 1.376 . S
C977 C978 1.388 . S
C978 H965 0.930 . S
C978 C977 1.388 . S
C978 C979 1.390 . S
C979 C978 1.390 . S
C979 C980 1.394 . S
C979 C985 1.465 . S
C980 C975 1.399 . S
C980 C979 1.394 . S
C980 C981 1.516 . S
C981 C980 1.516 . S
C981 C982 1.502 . S
C981 C983 1.561 . S
C981 C984 1.526 . S
C982 H966 0.959 . S
C982 H967 0.959 . S
C982 H968 0.961 . S
C982 C981 1.502 . S
C983 H969 0.960 . S
C983 H970 0.961 . S
C983 H971 0.959 . S
C983 C981 1.561 . S
C984 C981 1.526 . S
C984 C985 1.396 . S
C984 C989 1.390 . S
C985 C979 1.465 . S
C985 C984 1.396 . S
C985 C986 1.399 . S
C986 H972 0.929 . S
C986 C985 1.399 . S
C986 C987 1.385 . S
C987 H973 0.931 . S
C987 C986 1.385 . S
C987 C988 1.389 . S
C988 C987 1.389 . S
C988 C989 1.387 . S
C989 H974 0.930 . S
C989 C984 1.390 . S
C989 C988 1.387 . S
H990 C1002 0.930 . S
H991 C1004 0.930 . S
H992 C1005 0.930 . S
H993 C1009 0.959 . S
H994 C1009 0.959 . S
H995 C1009 0.961 . S
H996 C1010 0.960 . S
H997 C1010 0.961 . S
H998 C1010 0.959 . S
H999 C1013 0.929 . S
H1000 C1014 0.931 . S
H1001 C1016 0.930 . S
C1002 H990 0.930 . S
C1002 C1003 1.399 . S
C1002 C1007 1.399 . S
C1003 C1002 1.399 . S
C1003 C1004 1.376 . S
C1004 H991 0.930 . S
C1004 C1003 1.376 . S
C1004 C1005 1.388 . S
C1005 H992 0.930 . S
C1005 C1004 1.388 . S
C1005 C1006 1.390 . S
C1006 C1005 1.390 . S
C1006 C1007 1.394 . S
C1006 C1012 1.465 . S
C1007 C1002 1.399 . S
C1007 C1006 1.394 . S
C1007 C1008 1.516 . S
C1008 C1007 1.516 . S
C1008 C1009 1.502 . S
C1008 C1010 1.561 . S
C1008 C1011 1.526 . S
C1009 H993 0.959 . S
C1009 H994 0.959 . S
C1009 H995 0.961 . S
C1009 C1008 1.502 . S
C1010 H996 0.960 . S
C1010 H997 0.961 . S
C1010 H998 0.959 . S
C1010 C1008 1.561 . S
C1011 C1008 1.526 . S
C1011 C1012 1.396 . S
C1011 C1016 1.390 . S
C1012 C1006 1.465 . S
C1012 C1011 1.396 . S
C1012 C1013 1.399 . S
C1013 H999 0.929 . S
C1013 C1012 1.399 . S
C1013 C1014 1.385 . S
C1014 H1000 0.931 . S
C1014 C1013 1.385 . S
C1014 C1015 1.389 . S
C1015 C1014 1.389 . S
C1015 C1016 1.387 . S
C1016 H1001 0.930 . S
C1016 C1011 1.390 . S
C1016 C1015 1.387 . S
H1017 C1029 0.930 . S
H1018 C1031 0.930 . S
H1019 C1032 0.930 . S
H1020 C1036 0.959 . S
H1021 C1036 0.959 . S
H1022 C1036 0.961 . S
H1023 C1037 0.960 . S
H1024 C1037 0.961 . S
H1025 C1037 0.959 . S
H1026 C1040 0.929 . S
H1027 C1041 0.931 . S
H1028 C1043 0.930 . S
C1029 H1017 0.930 . S
C1029 C1030 1.399 . S
C1029 C1034 1.399 . S
C1030 C1029 1.399 . S
C1030 C1031 1.376 . S
C1031 H1018 0.930 . S
C1031 C1030 1.376 . S
C1031 C1032 1.388 . S
C1032 H1019 0.930 . S
C1032 C1031 1.388 . S
C1032 C1033 1.390 . S
C1033 C1032 1.390 . S
C1033 C1034 1.394 . S
C1033 C1039 1.465 . S
C1034 C1029 1.399 . S
C1034 C1033 1.394 . S
C1034 C1035 1.516 . S
C1035 C1034 1.516 . S
C1035 C1036 1.502 . S
C1035 C1037 1.561 . S
C1035 C1038 1.526 . S
C1036 H1020 0.959 . S
C1036 H1021 0.959 . S
C1036 H1022 0.961 . S
C1036 C1035 1.502 . S
C1037 H1023 0.960 . S
C1037 H1024 0.961 . S
C1037 H1025 0.959 . S
C1037 C1035 1.561 . S
C1038 C1035 1.526 . S
C1038 C1039 1.396 . S
C1038 C1043 1.390 . S
C1039 C1033 1.465 . S
C1039 C1038 1.396 . S
C1039 C1040 1.399 . S
C1040 H1026 0.929 . S
C1040 C1039 1.399 . S
C1040 C1041 1.385 . S
C1041 H1027 0.931 . S
C1041 C1040 1.385 . S
C1041 C1042 1.389 . S
C1042 C1041 1.389 . S
C1042 C1043 1.387 . S
C1043 H1028 0.930 . S
C1043 C1038 1.390 . S
C1043 C1042 1.387 . S
H1044 C1056 0.930 . S
H1045 C1058 0.930 . S
H1046 C1059 0.930 . S
H1047 C1063 0.959 . S
H1048 C1063 0.959 . S
H1049 C1063 0.961 . S
H1050 C1064 0.960 . S
H1051 C1064 0.961 . S
H1052 C1064 0.959 . S
H1053 C1067 0.929 . S
H1054 C1068 0.931 . S
H1055 C1070 0.930 . S
C1056 H1044 0.930 . S
C1056 C1057 1.399 . S
C1056 C1061 1.399 . S
C1057 C1056 1.399 . S
C1057 C1058 1.376 . S
C1058 H1045 0.930 . S
C1058 C1057 1.376 . S
C1058 C1059 1.388 . S
C1059 H1046 0.930 . S
C1059 C1058 1.388 . S
C1059 C1060 1.390 . S
C1060 C1059 1.390 . S
C1060 C1061 1.394 . S
C1060 C1066 1.465 . S
C1061 C1056 1.399 . S
C1061 C1060 1.394 . S
C1061 C1062 1.516 . S
C1062 C1061 1.516 . S
C1062 C1063 1.502 . S
C1062 C1064 1.561 . S
C1062 C1065 1.526 . S
C1063 H1047 0.959 . S
C1063 H1048 0.959 . S
C1063 H1049 0.961 . S
C1063 C1062 1.502 . S
C1064 H1050 0.960 . S
C1064 H1051 0.961 . S
C1064 H1052 0.959 . S
C1064 C1062 1.561 . S
C1065 C1062 1.526 . S
C1065 C1066 1.396 . S
C1065 C1070 1.390 . S
C1066 C1060 1.465 . S
C1066 C1065 1.396 . S
C1066 C1067 1.399 . S
C1067 H1053 0.929 . S
C1067 C1066 1.399 . S
C1067 C1068 1.385 . S
C1068 H1054 0.931 . S
C1068 C1067 1.385 . S
C1068 C1069 1.389 . S
C1069 C1068 1.389 . S
C1069 C1070 1.387 . S
C1070 H1055 0.930 . S
C1070 C1065 1.390 . S
C1070 C1069 1.387 . S
H1071 C1083 0.930 . S
H1072 C1085 0.930 . S
H1073 C1086 0.930 . S
H1074 C1090 0.959 . S
H1075 C1090 0.959 . S
H1076 C1090 0.961 . S
H1077 C1091 0.960 . S
H1078 C1091 0.961 . S
H1079 C1091 0.959 . S
H1080 C1094 0.929 . S
H1081 C1095 0.931 . S
H1082 C1097 0.930 . S
C1083 H1071 0.930 . S
C1083 C1084 1.399 . S
C1083 C1088 1.399 . S
C1084 C1083 1.399 . S
C1084 C1085 1.376 . S
C1085 H1072 0.930 . S
C1085 C1084 1.376 . S
C1085 C1086 1.388 . S
C1086 H1073 0.930 . S
C1086 C1085 1.388 . S
C1086 C1087 1.390 . S
C1087 C1086 1.390 . S
C1087 C1088 1.394 . S
C1087 C1093 1.465 . S
C1088 C1083 1.399 . S
C1088 C1087 1.394 . S
C1088 C1089 1.516 . S
C1089 C1088 1.516 . S
C1089 C1090 1.502 . S
C1089 C1091 1.561 . S
C1089 C1092 1.526 . S
C1090 H1074 0.959 . S
C1090 H1075 0.959 . S
C1090 H1076 0.961 . S
C1090 C1089 1.502 . S
C1091 H1077 0.960 . S
C1091 H1078 0.961 . S
C1091 H1079 0.959 . S
C1091 C1089 1.561 . S
C1092 C1089 1.526 . S
C1092 C1093 1.396 . S
C1092 C1097 1.390 . S
C1093 C1087 1.465 . S
C1093 C1092 1.396 . S
C1093 C1094 1.399 . S
C1094 H1080 0.929 . S
C1094 C1093 1.399 . S
C1094 C1095 1.385 . S
C1095 H1081 0.931 . S
C1095 C1094 1.385 . S
C1095 C1096 1.389 . S
C1096 C1095 1.389 . S
C1096 C1097 1.387 . S
C1097 H1082 0.930 . S
C1097 C1092 1.390 . S
C1097 C1096 1.387 . S
H1098 C1110 0.930 . S
H1099 C1112 0.930 . S
H1100 C1113 0.930 . S
H1101 C1117 0.959 . S
H1102 C1117 0.959 . S
H1103 C1117 0.961 . S
H1104 C1118 0.960 . S
H1105 C1118 0.961 . S
H1106 C1118 0.959 . S
H1107 C1121 0.929 . S
H1108 C1122 0.931 . S
H1109 C1124 0.930 . S
C1110 H1098 0.930 . S
C1110 C1111 1.399 . S
C1110 C1115 1.399 . S
C1111 C1110 1.399 . S
C1111 C1112 1.376 . S
C1112 H1099 0.930 . S
C1112 C1111 1.376 . S
C1112 C1113 1.388 . S
C1113 H1100 0.930 . S
C1113 C1112 1.388 . S
C1113 C1114 1.390 . S
C1114 C1113 1.390 . S
C1114 C1115 1.394 . S
C1114 C1120 1.465 . S
C1115 C1110 1.399 . S
C1115 C1114 1.394 . S
C1115 C1116 1.516 . S
C1116 C1115 1.516 . S
C1116 C1117 1.502 . S
C1116 C1118 1.561 . S
C1116 C1119 1.526 . S
C1117 H1101 0.959 . S
C1117 H1102 0.959 . S
C1117 H1103 0.961 . S
C1117 C1116 1.502 . S
C1118 H1104 0.960 . S
C1118 H1105 0.961 . S
C1118 H1106 0.959 . S
C1118 C1116 1.561 . S
C1119 C1116 1.526 . S
C1119 C1120 1.396 . S
C1119 C1124 1.390 . S
C1120 C1114 1.465 . S
C1120 C1119 1.396 . S
C1120 C1121 1.399 . S
C1121 H1107 0.929 . S
C1121 C1120 1.399 . S
C1121 C1122 1.385 . S
C1122 H1108 0.931 . S
C1122 C1121 1.385 . S
C1122 C1123 1.389 . S
C1123 C1122 1.389 . S
C1123 C1124 1.387 . S
C1124 H1109 0.930 . S
C1124 C1119 1.390 . S
C1124 C1123 1.387 . S
H1125 C1137 0.930 . S
H1126 C1139 0.930 . S
H1127 C1140 0.930 . S
H1128 C1144 0.959 . S
H1129 C1144 0.959 . S
H1130 C1144 0.961 . S
H1131 C1145 0.960 . S
H1132 C1145 0.961 . S
H1133 C1145 0.959 . S
H1134 C1148 0.929 . S
H1135 C1149 0.931 . S
H1136 C1151 0.930 . S
C1137 H1125 0.930 . S
C1137 C1138 1.399 . S
C1137 C1142 1.399 . S
C1138 C1137 1.399 . S
C1138 C1139 1.376 . S
C1139 H1126 0.930 . S
C1139 C1138 1.376 . S
C1139 C1140 1.388 . S
C1140 H1127 0.930 . S
C1140 C1139 1.388 . S
C1140 C1141 1.390 . S
C1141 C1140 1.390 . S
C1141 C1142 1.394 . S
C1141 C1147 1.465 . S
C1142 C1137 1.399 . S
C1142 C1141 1.394 . S
C1142 C1143 1.516 . S
C1143 C1142 1.516 . S
C1143 C1144 1.502 . S
C1143 C1145 1.561 . S
C1143 C1146 1.526 . S
C1144 H1128 0.959 . S
C1144 H1129 0.959 . S
C1144 H1130 0.961 . S
C1144 C1143 1.502 . S
C1145 H1131 0.960 . S
C1145 H1132 0.961 . S
C1145 H1133 0.959 . S
C1145 C1143 1.561 . S
C1146 C1143 1.526 . S
C1146 C1147 1.396 . S
C1146 C1151 1.390 . S
C1147 C1141 1.465 . S
C1147 C1146 1.396 . S
C1147 C1148 1.399 . S
C1148 H1134 0.929 . S
C1148 C1147 1.399 . S
C1148 C1149 1.385 . S
C1149 H1135 0.931 . S
C1149 C1148 1.385 . S
C1149 C1150 1.389 . S
C1150 C1149 1.389 . S
C1150 C1151 1.387 . S
C1151 H1136 0.930 . S
C1151 C1146 1.390 . S
C1151 C1150 1.387 . S
H1152 C1164 0.930 . S
H1153 C1166 0.930 . S
H1154 C1167 0.930 . S
H1155 C1171 0.959 . S
H1156 C1171 0.959 . S
H1157 C1171 0.961 . S
H1158 C1172 0.960 . S
H1159 C1172 0.961 . S
H1160 C1172 0.959 . S
H1161 C1175 0.929 . S
H1162 C1176 0.931 . S
H1163 C1178 0.930 . S
C1164 H1152 0.930 . S
C1164 C1165 1.399 . S
C1164 C1169 1.399 . S
C1165 C1164 1.399 . S
C1165 C1166 1.376 . S
C1166 H1153 0.930 . S
C1166 C1165 1.376 . S
C1166 C1167 1.388 . S
C1167 H1154 0.930 . S
C1167 C1166 1.388 . S
C1167 C1168 1.390 . S
C1168 C1167 1.390 . S
C1168 C1169 1.394 . S
C1168 C1174 1.465 . S
C1169 C1164 1.399 . S
C1169 C1168 1.394 . S
C1169 C1170 1.516 . S
C1170 C1169 1.516 . S
C1170 C1171 1.502 . S
C1170 C1172 1.561 . S
C1170 C1173 1.526 . S
C1171 H1155 0.959 . S
C1171 H1156 0.959 . S
C1171 H1157 0.961 . S
C1171 C1170 1.502 . S
C1172 H1158 0.960 . S
C1172 H1159 0.961 . S
C1172 H1160 0.959 . S
C1172 C1170 1.561 . S
C1173 C1170 1.526 . S
C1173 C1174 1.396 . S
C1173 C1178 1.390 . S
C1174 C1168 1.465 . S
C1174 C1173 1.396 . S
C1174 C1175 1.399 . S
C1175 H1161 0.929 . S
C1175 C1174 1.399 . S
C1175 C1176 1.385 . S
C1176 H1162 0.931 . S
C1176 C1175 1.385 . S
C1176 C1177 1.389 . S
C1177 C1176 1.389 . S
C1177 C1178 1.387 . S
C1178 H1163 0.930 . S
C1178 C1173 1.390 . S
C1178 C1177 1.387 . S
H1179 C1191 0.930 . S
H1180 C1193 0.930 . S
H1181 C1194 0.930 . S
H1182 C1198 0.959 . S
H1183 C1198 0.959 . S
H1184 C1198 0.961 . S
H1185 C1199 0.960 . S
H1186 C1199 0.961 . S
H1187 C1199 0.959 . S
H1188 C1202 0.929 . S
H1189 C1203 0.931 . S
H1190 C1205 0.930 . S
C1191 H1179 0.930 . S
C1191 C1192 1.399 . S
C1191 C1196 1.399 . S
C1192 C1191 1.399 . S
C1192 C1193 1.376 . S
C1193 H1180 0.930 . S
C1193 C1192 1.376 . S
C1193 C1194 1.388 . S
C1194 H1181 0.930 . S
C1194 C1193 1.388 . S
C1194 C1195 1.390 . S
C1195 C1194 1.390 . S
C1195 C1196 1.394 . S
C1195 C1201 1.465 . S
C1196 C1191 1.399 . S
C1196 C1195 1.394 . S
C1196 C1197 1.516 . S
C1197 C1196 1.516 . S
C1197 C1198 1.502 . S
C1197 C1199 1.561 . S
C1197 C1200 1.526 . S
C1198 H1182 0.959 . S
C1198 H1183 0.959 . S
C1198 H1184 0.961 . S
C1198 C1197 1.502 . S
C1199 H1185 0.960 . S
C1199 H1186 0.961 . S
C1199 H1187 0.959 . S
C1199 C1197 1.561 . S
C1200 C1197 1.526 . S
C1200 C1201 1.396 . S
C1200 C1205 1.390 . S
C1201 C1195 1.465 . S
C1201 C1200 1.396 . S
C1201 C1202 1.399 . S
C1202 H1188 0.929 . S
C1202 C1201 1.399 . S
C1202 C1203 1.385 . S
C1203 H1189 0.931 . S
C1203 C1202 1.385 . S
C1203 C1204 1.389 . S
C1204 C1203 1.389 . S
C1204 C1205 1.387 . S
C1205 H1190 0.930 . S
C1205 C1200 1.390 . S
C1205 C1204 1.387 . S
H1206 C1218 0.930 . S
H1207 C1220 0.930 . S
H1208 C1221 0.930 . S
H1209 C1225 0.959 . S
H1210 C1225 0.959 . S
H1211 C1225 0.961 . S
H1212 C1226 0.960 . S
H1213 C1226 0.961 . S
H1214 C1226 0.959 . S
H1215 C1229 0.929 . S
H1216 C1230 0.931 . S
H1217 C1232 0.930 . S
C1218 H1206 0.930 . S
C1218 C1219 1.399 . S
C1218 C1223 1.399 . S
C1219 C1218 1.399 . S
C1219 C1220 1.376 . S
C1220 H1207 0.930 . S
C1220 C1219 1.376 . S
C1220 C1221 1.388 . S
C1221 H1208 0.930 . S
C1221 C1220 1.388 . S
C1221 C1222 1.390 . S
C1222 C1221 1.390 . S
C1222 C1223 1.394 . S
C1222 C1228 1.465 . S
C1223 C1218 1.399 . S
C1223 C1222 1.394 . S
C1223 C1224 1.516 . S
C1224 C1223 1.516 . S
C1224 C1225 1.502 . S
C1224 C1226 1.561 . S
C1224 C1227 1.526 . S
C1225 H1209 0.959 . S
C1225 H1210 0.959 . S
C1225 H1211 0.961 . S
C1225 C1224 1.502 . S
C1226 H1212 0.960 . S
C1226 H1213 0.961 . S
C1226 H1214 0.959 . S
C1226 C1224 1.561 . S
C1227 C1224 1.526 . S
C1227 C1228 1.396 . S
C1227 C1232 1.390 . S
C1228 C1222 1.465 . S
C1228 C1227 1.396 . S
C1228 C1229 1.399 . S
C1229 H1215 0.929 . S
C1229 C1228 1.399 . S
C1229 C1230 1.385 . S
C1230 H1216 0.931 . S
C1230 C1229 1.385 . S
C1230 C1231 1.389 . S
C1231 C1230 1.389 . S
C1231 C1232 1.387 . S
C1232 H1217 0.930 . S
C1232 C1227 1.390 . S
C1232 C1231 1.387 . S
H1233 C1245 0.930 . S
H1234 C1247 0.930 . S
H1235 C1248 0.930 . S
H1236 C1252 0.959 . S
H1237 C1252 0.959 . S
H1238 C1252 0.961 . S
H1239 C1253 0.960 . S
H1240 C1253 0.961 . S
H1241 C1253 0.959 . S
H1242 C1256 0.929 . S
H1243 C1257 0.931 . S
H1244 C1259 0.930 . S
C1245 H1233 0.930 . S
C1245 C1246 1.399 . S
C1245 C1250 1.399 . S
C1246 C1245 1.399 . S
C1246 C1247 1.376 . S
C1247 H1234 0.930 . S
C1247 C1246 1.376 . S
C1247 C1248 1.388 . S
C1248 H1235 0.930 . S
C1248 C1247 1.388 . S
C1248 C1249 1.390 . S
C1249 C1248 1.390 . S
C1249 C1250 1.394 . S
C1249 C1255 1.465 . S
C1250 C1245 1.399 . S
C1250 C1249 1.394 . S
C1250 C1251 1.516 . S
C1251 C1250 1.516 . S
C1251 C1252 1.502 . S
C1251 C1253 1.561 . S
C1251 C1254 1.526 . S
C1252 H1236 0.959 . S
C1252 H1237 0.959 . S
C1252 H1238 0.961 . S
C1252 C1251 1.502 . S
C1253 H1239 0.960 . S
C1253 H1240 0.961 . S
C1253 H1241 0.959 . S
C1253 C1251 1.561 . S
C1254 C1251 1.526 . S
C1254 C1255 1.396 . S
C1254 C1259 1.390 . S
C1255 C1249 1.465 . S
C1255 C1254 1.396 . S
C1255 C1256 1.399 . S
C1256 H1242 0.929 . S
C1256 C1255 1.399 . S
C1256 C1257 1.385 . S
C1257 H1243 0.931 . S
C1257 C1256 1.385 . S
C1257 C1258 1.389 . S
C1258 C1257 1.389 . S
C1258 C1259 1.387 . S
C1259 H1244 0.930 . S
C1259 C1254 1.390 . S
C1259 C1258 1.387 . S
H1260 C1272 0.930 . S
H1261 C1274 0.930 . S
H1262 C1275 0.930 . S
H1263 C1279 0.959 . S
H1264 C1279 0.959 . S
H1265 C1279 0.961 . S
H1266 C1280 0.960 . S
H1267 C1280 0.961 . S
H1268 C1280 0.959 . S
H1269 C1283 0.929 . S
H1270 C1284 0.931 . S
H1271 C1286 0.930 . S
C1272 H1260 0.930 . S
C1272 C1273 1.399 . S
C1272 C1277 1.399 . S
C1273 C1272 1.399 . S
C1273 C1274 1.376 . S
C1274 H1261 0.930 . S
C1274 C1273 1.376 . S
C1274 C1275 1.388 . S
C1275 H1262 0.930 . S
C1275 C1274 1.388 . S
C1275 C1276 1.390 . S
C1276 C1275 1.390 . S
C1276 C1277 1.394 . S
C1276 C1282 1.465 . S
C1277 C1272 1.399 . S
C1277 C1276 1.394 . S
C1277 C1278 1.516 . S
C1278 C1277 1.516 . S
C1278 C1279 1.502 . S
C1278 C1280 1.561 . S
C1278 C1281 1.526 . S
C1279 H1263 0.959 . S
C1279 H1264 0.959 . S
C1279 H1265 0.961 . S
C1279 C1278 1.502 . S
C1280 H1266 0.960 . S
C1280 H1267 0.961 . S
C1280 H1268 0.959 . S
C1280 C1278 1.561 . S
C1281 C1278 1.526 . S
C1281 C1282 1.396 . S
C1281 C1286 1.390 . S
C1282 C1276 1.465 . S
C1282 C1281 1.396 . S
C1282 C1283 1.399 . S
C1283 H1269 0.929 . S
C1283 C1282 1.399 . S
C1283 C1284 1.385 . S
C1284 H1270 0.931 . S
C1284 C1283 1.385 . S
C1284 C1285 1.389 . S
C1285 C1284 1.389 . S
C1285 C1286 1.387 . S
C1286 H1271 0.930 . S
C1286 C1281 1.390 . S
C1286 C1285 1.387 . S
H1287 C1299 0.930 . S
H1288 C1301 0.930 . S
H1289 C1302 0.930 . S
H1290 C1306 0.959 . S
H1291 C1306 0.959 . S
H1292 C1306 0.961 . S
H1293 C1307 0.960 . S
H1294 C1307 0.961 . S
H1295 C1307 0.959 . S
H1296 C1310 0.929 . S
H1297 C1311 0.931 . S
H1298 C1313 0.930 . S
C1299 H1287 0.930 . S
C1299 C1300 1.399 . S
C1299 C1304 1.399 . S
C1300 C1299 1.399 . S
C1300 C1301 1.376 . S
C1301 H1288 0.930 . S
C1301 C1300 1.376 . S
C1301 C1302 1.388 . S
C1302 H1289 0.930 . S
C1302 C1301 1.388 . S
C1302 C1303 1.390 . S
C1303 C1302 1.390 . S
C1303 C1304 1.394 . S
C1303 C1309 1.465 . S
C1304 C1299 1.399 . S
C1304 C1303 1.394 . S
C1304 C1305 1.516 . S
C1305 C1304 1.516 . S
C1305 C1306 1.502 . S
C1305 C1307 1.561 . S
C1305 C1308 1.526 . S
C1306 H1290 0.959 . S
C1306 H1291 0.959 . S
C1306 H1292 0.961 . S
C1306 C1305 1.502 . S
C1307 H1293 0.960 . S
C1307 H1294 0.961 . S
C1307 H1295 0.959 . S
C1307 C1305 1.561 . S
C1308 C1305 1.526 . S
C1308 C1309 1.396 . S
C1308 C1313 1.390 . S
C1309 C1303 1.465 . S
C1309 C1308 1.396 . S
C1309 C1310 1.399 . S
C1310 H1296 0.929 . S
C1310 C1309 1.399 . S
C1310 C1311 1.385 . S
C1311 H1297 0.931 . S
C1311 C1310 1.385 . S
C1311 C1312 1.389 . S
C1312 C1311 1.389 . S
C1312 C1313 1.387 . S
C1313 H1298 0.930 . S
C1313 C1308 1.390 . S
C1313 C1312 1.387 . S
H1314 C1326 0.930 1_455 S
H1315 C1328 0.930 . S
H1316 C1329 0.930 . S
H1317 C1333 0.959 . S
H1318 C1333 0.959 . S
H1319 C1333 0.961 . S
H1320 C1334 0.960 . S
H1321 C1334 0.961 . S
H1322 C1334 0.959 . S
H1323 C1337 0.929 . S
H1324 C1338 0.937 . S
H1325 C1340 0.930 . S
C1326 H1314 0.930 1_655 S
C1326 C1327 1.399 . S
C1326 C1331 1.399 . S
C1327 C1326 1.399 . S
C1327 C1328 1.376 . S
C1328 H1315 0.930 . S
C1328 C1327 1.376 . S
C1328 C1329 1.388 . S
C1329 H1316 0.930 . S
C1329 C1328 1.388 . S
C1329 C1330 1.390 . S
C1330 C1329 1.390 . S
C1330 C1331 1.394 . S
C1330 C1336 1.465 . S
C1331 C1326 1.399 . S
C1331 C1330 1.394 . S
C1331 C1332 1.516 1_655 S
C1332 C1331 1.516 1_455 S
C1332 C1333 1.502 . S
C1332 C1334 1.561 1_455 S
C1332 C1335 1.526 . S
C1333 H1317 0.959 . S
C1333 H1318 0.959 . S
C1333 H1319 0.961 . S
C1333 C1332 1.502 . S
C1334 H1320 0.960 . S
C1334 H1321 0.961 . S
C1334 H1322 0.959 . S
C1334 C1332 1.561 1_655 S
C1335 C1332 1.526 . S
C1335 C1336 1.396 1_455 S
C1335 C1340 1.390 . S
C1336 C1330 1.465 . S
C1336 C1335 1.396 1_655 S
C1336 C1337 1.399 . S
C1337 H1323 0.929 . S
C1337 C1336 1.399 . S
C1337 C1338 1.381 . S
C1338 H1324 0.937 . S
C1338 C1337 1.381 . S
C1338 C1339 1.388 1_655 S
C1339 C1338 1.388 1_455 S
C1339 C1340 1.387 . S
C1340 H1325 0.930 . S
C1340 C1335 1.390 . S
C1340 C1339 1.387 . S
H1341 C1353 0.930 . S
H1342 C1355 0.930 . S
H1343 C1356 0.930 . S
H1344 C1360 0.959 . S
H1345 C1360 0.959 . S
H1346 C1360 0.961 . S
H1347 C1361 0.960 . S
H1348 C1361 0.961 . S
H1349 C1361 0.959 . S
H1350 C1364 0.929 . S
H1351 C1365 0.931 . S
H1352 C1367 0.930 . S
C1353 H1341 0.930 . S
C1353 C1354 1.399 . S
C1353 C1358 1.399 . S
C1354 C1353 1.399 . S
C1354 C1355 1.376 . S
C1355 H1342 0.930 . S
C1355 C1354 1.376 . S
C1355 C1356 1.388 . S
C1356 H1343 0.930 . S
C1356 C1355 1.388 . S
C1356 C1357 1.390 . S
C1357 C1356 1.390 . S
C1357 C1358 1.394 . S
C1357 C1363 1.465 . S
C1358 C1353 1.399 . S
C1358 C1357 1.394 . S
C1358 C1359 1.516 . S
C1359 C1358 1.516 . S
C1359 C1360 1.502 . S
C1359 C1361 1.561 . S
C1359 C1362 1.526 . S
C1360 H1344 0.959 . S
C1360 H1345 0.959 . S
C1360 H1346 0.961 . S
C1360 C1359 1.502 . S
C1361 H1347 0.960 . S
C1361 H1348 0.961 . S
C1361 H1349 0.959 . S
C1361 C1359 1.561 . S
C1362 C1359 1.526 . S
C1362 C1363 1.396 . S
C1362 C1367 1.390 . S
C1363 C1357 1.465 . S
C1363 C1362 1.396 . S
C1363 C1364 1.399 . S
C1364 H1350 0.929 . S
C1364 C1363 1.399 . S
C1364 C1365 1.385 . S
C1365 H1351 0.931 . S
C1365 C1364 1.385 . S
C1365 C1366 1.389 . S
C1366 C1365 1.389 . S
C1366 C1367 1.387 . S
C1367 H1352 0.930 . S
C1367 C1362 1.390 . S
C1367 C1366 1.387 . S
H1368 C1380 0.930 . S
H1369 C1382 0.930 . S
H1370 C1383 0.930 . S
H1371 C1387 0.959 . S
H1372 C1387 0.959 . S
H1373 C1387 0.961 . S
H1374 C1388 0.960 . S
H1375 C1388 0.961 . S
H1376 C1388 0.959 1_565 S
H1377 C1391 0.929 . S
H1378 C1392 0.931 . S
H1379 C1394 0.930 . S
C1380 H1368 0.930 . S
C1380 C1381 1.399 1_545 S
C1380 C1385 1.399 . S
C1381 C1380 1.399 1_565 S
C1381 C1382 1.376 . S
C1382 H1369 0.930 . S
C1382 C1381 1.376 . S
C1382 C1383 1.388 . S
C1383 H1370 0.930 . S
C1383 C1382 1.388 . S
C1383 C1384 1.390 . S
C1384 C1383 1.390 . S
C1384 C1385 1.394 1_565 S
C1384 C1390 1.465 . S
C1385 C1380 1.399 . S
C1385 C1384 1.394 1_545 S
C1385 C1386 1.516 . S
C1386 C1385 1.516 . S
C1386 C1387 1.502 . S
C1386 C1388 1.561 . S
C1386 C1389 1.526 . S
C1387 H1371 0.959 . S
C1387 H1372 0.959 . S
C1387 H1373 0.961 . S
C1387 C1386 1.502 . S
C1388 H1374 0.960 . S
C1388 H1375 0.961 . S
C1388 H1376 0.959 1_545 S
C1388 C1386 1.561 . S
C1389 C1386 1.526 . S
C1389 C1390 1.396 1_545 S
C1389 C1394 1.390 . S
C1390 C1384 1.465 . S
C1390 C1389 1.396 1_565 S
C1390 C1391 1.399 . S
C1391 H1377 0.929 . S
C1391 C1390 1.399 . S
C1391 C1392 1.385 . S
C1392 H1378 0.931 . S
C1392 C1391 1.385 . S
C1392 C1393 1.389 1_565 S
C1393 C1392 1.389 1_545 S
C1393 C1394 1.387 . S
C1394 H1379 0.930 . S
C1394 C1389 1.390 . S
C1394 C1393 1.387 . S
H1395 C1407 0.930 . S
H1396 C1409 0.930 . S
H1397 C1410 0.930 . S
H1398 C1414 0.959 1_554 S
H1399 C1414 0.959 . S
H1400 C1414 0.961 . S
H1401 C1415 0.960 . S
H1402 C1415 0.961 . S
H1403 C1415 0.959 . S
H1404 C1418 0.929 . S
H1405 C1419 0.931 . S
H1406 C1421 0.930 . S
C1407 H1395 0.930 . S
C1407 C1408 1.399 . S
C1407 C1412 1.399 . S
C1408 C1407 1.399 . S
C1408 C1409 1.376 1_566 S
C1409 H1396 0.930 . S
C1409 C1408 1.376 1_544 S
C1409 C1410 1.388 . S
C1410 H1397 0.930 . S
C1410 C1409 1.388 . S
C1410 C1411 1.390 . S
C1411 C1410 1.390 . S
C1411 C1412 1.394 1_544 S
C1411 C1417 1.465 . S
C1412 C1407 1.399 . S
C1412 C1411 1.394 1_566 S
C1412 C1413 1.516 . S
C1413 C1412 1.516 . S
C1413 C1414 1.502 . S
C1413 C1415 1.561 . S
C1413 C1416 1.526 . S
C1414 H1398 0.959 1_556 S
C1414 H1399 0.959 . S
C1414 H1400 0.961 . S
C1414 C1413 1.502 . S
C1415 H1401 0.960 . S
C1415 H1402 0.961 . S
C1415 H1403 0.959 . S
C1415 C1413 1.561 . S
C1416 C1413 1.526 . S
C1416 C1417 1.396 1_566 S
C1416 C1421 1.390 . S
C1417 C1411 1.465 . S
C1417 C1416 1.396 1_544 S
C1417 C1418 1.399 . S
C1418 H1404 0.929 . S
C1418 C1417 1.399 . S
C1418 C1419 1.385 . S
C1419 H1405 0.931 . S
C1419 C1418 1.385 . S
C1419 C1420 1.389 . S
C1420 C1419 1.389 . S
C1420 C1421 1.387 1_544 S
C1421 H1406 0.930 . S
C1421 C1416 1.390 . S
C1421 C1420 1.387 1_566 S
H1422 C1434 0.930 . S
H1423 C1436 0.930 . S
H1424 C1437 0.930 . S
H1425 C1441 0.959 1_554 S
H1426 C1441 0.959 . S
H1427 C1441 0.961 . S
H1428 C1442 0.960 . S
H1429 C1442 0.961 . S
H1430 C1442 0.959 . S
H1431 C1445 0.929 . S
H1432 C1446 0.931 . S
H1433 C1448 0.930 . S
C1434 H1422 0.930 . S
C1434 C1435 1.399 1_556 S
C1434 C1439 1.399 . S
C1435 C1434 1.399 1_554 S
C1435 C1436 1.376 1_655 S
C1436 H1423 0.930 . S
C1436 C1435 1.376 1_455 S
C1436 C1437 1.388 . S
C1437 H1424 0.930 . S
C1437 C1436 1.388 . S
C1437 C1438 1.390 . S
C1438 C1437 1.390 . S
C1438 C1439 1.394 1_454 S
C1438 C1444 1.465 . S
C1439 C1434 1.399 . S
C1439 C1438 1.394 1_656 S
C1439 C1440 1.516 . S
C1440 C1439 1.516 . S
C1440 C1441 1.502 . S
C1440 C1442 1.561 . S
C1440 C1443 1.526 . S
C1441 H1425 0.959 1_556 S
C1441 H1426 0.959 . S
C1441 H1427 0.961 . S
C1441 C1440 1.502 . S
C1442 H1428 0.960 . S
C1442 H1429 0.961 . S
C1442 H1430 0.959 . S
C1442 C1440 1.561 . S
C1443 C1440 1.526 . S
C1443 C1444 1.396 1_656 S
C1443 C1448 1.390 . S
C1444 C1438 1.465 . S
C1444 C1443 1.396 1_454 S
C1444 C1445 1.399 . S
C1445 H1431 0.929 . S
C1445 C1444 1.399 . S
C1445 C1446 1.385 . S
C1446 H1432 0.931 . S
C1446 C1445 1.385 . S
C1446 C1447 1.389 1_554 S
C1447 C1446 1.389 1_556 S
C1447 C1448 1.387 1_455 S
C1448 H1433 0.930 . S
C1448 C1443 1.390 . S
C1448 C1447 1.387 1_655 S
H1449 C1461 0.930 1_556 S
H1450 C1463 0.930 . S
H1451 C1464 0.930 . S
H1452 C1468 0.959 . S
H1453 C1468 0.959 . S
H1454 C1468 0.961 . S
H1455 C1469 0.960 . S
H1456 C1469 0.961 . S
H1457 C1469 0.959 . S
H1458 C1472 0.929 . S
H1459 C1473 0.931 . S
H1460 C1475 0.930 . S
C1461 H1449 0.930 1_554 S
C1461 C1462 1.399 . S
C1461 C1466 1.399 . S
C1462 C1461 1.399 . S
C1462 C1463 1.376 . S
C1463 H1450 0.930 . S
C1463 C1462 1.376 . S
C1463 C1464 1.388 . S
C1464 H1451 0.930 . S
C1464 C1463 1.388 . S
C1464 C1465 1.390 . S
C1465 C1464 1.390 . S
C1465 C1466 1.394 . S
C1465 C1471 1.465 . S
C1466 C1461 1.399 . S
C1466 C1465 1.394 . S
C1466 C1467 1.516 1_554 S
C1467 C1466 1.516 1_556 S
C1467 C1468 1.502 . S
C1467 C1469 1.561 1_556 S
C1467 C1470 1.526 . S
C1468 H1452 0.959 . S
C1468 H1453 0.959 . S
C1468 H1454 0.961 . S
C1468 C1467 1.502 . S
C1469 H1455 0.960 . S
C1469 H1456 0.961 . S
C1469 H1457 0.959 . S
C1469 C1467 1.561 1_554 S
C1470 C1467 1.526 . S
C1470 C1471 1.396 1_556 S
C1470 C1475 1.390 . S
C1471 C1465 1.465 . S
C1471 C1470 1.396 1_554 S
C1471 C1472 1.399 . S
C1472 H1458 0.929 . S
C1472 C1471 1.399 . S
C1472 C1473 1.385 . S
C1473 H1459 0.931 . S
C1473 C1472 1.385 . S
C1473 C1474 1.389 1_554 S
C1474 C1473 1.389 1_556 S
C1474 C1475 1.387 . S
C1475 H1460 0.930 . S
C1475 C1470 1.390 . S
C1475 C1474 1.387 . S
H1476 C1488 0.930 1_556 S
H1477 C1490 0.930 . S
H1478 C1491 0.930 . S
H1479 C1495 0.959 . S
H1480 C1495 0.959 . S
H1481 C1495 0.961 . S
H1482 C1496 0.960 . S
H1483 C1496 0.961 . S
H1484 C1496 0.959 . S
H1485 C1499 0.929 . S
H1486 C1500 0.931 . S
H1487 C1502 0.930 . S
C1488 H1476 0.930 1_554 S
C1488 C1489 1.399 . S
C1488 C1493 1.399 . S
C1489 C1488 1.399 . S
C1489 C1490 1.376 . S
C1490 H1477 0.930 . S
C1490 C1489 1.376 . S
C1490 C1491 1.388 . S
C1491 H1478 0.930 . S
C1491 C1490 1.388 . S
C1491 C1492 1.390 . S
C1492 C1491 1.390 . S
C1492 C1493 1.394 . S
C1492 C1498 1.465 . S
C1493 C1488 1.399 . S
C1493 C1492 1.394 . S
C1493 C1494 1.516 . S
C1494 C1493 1.516 . S
C1494 C1495 1.502 . S
C1494 C1496 1.561 1_554 S
C1494 C1497 1.526 . S
C1495 H1479 0.959 . S
C1495 H1480 0.959 . S
C1495 H1481 0.961 . S
C1495 C1494 1.502 . S
C1496 H1482 0.960 . S
C1496 H1483 0.961 . S
C1496 H1484 0.959 . S
C1496 C1494 1.561 1_556 S
C1497 C1494 1.526 . S
C1497 C1498 1.396 . S
C1497 C1502 1.390 . S
C1498 C1492 1.465 . S
C1498 C1497 1.396 . S
C1498 C1499 1.399 . S
C1499 H1485 0.929 . S
C1499 C1498 1.399 . S
C1499 C1500 1.385 . S
C1500 H1486 0.931 . S
C1500 C1499 1.385 . S
C1500 C1501 1.389 . S
C1501 C1500 1.389 . S
C1501 C1502 1.387 . S
C1502 H1487 0.930 . S
C1502 C1497 1.390 . S
C1502 C1501 1.387 . S
H1503 C1515 0.930 . S
H1504 C1517 0.930 . S
H1505 C1518 0.930 . S
H1506 C1522 0.959 . S
H1507 C1522 0.959 . S
H1508 C1522 0.961 . S
H1509 C1523 0.960 . S
H1510 C1523 0.961 . S
H1511 C1523 0.959 . S
H1512 C1526 0.944 . S
H1513 C1527 0.931 . S
H1514 C1529 0.930 . S
C1515 H1503 0.930 . S
C1515 C1516 1.399 . S
C1515 C1520 1.399 . S
C1516 C1515 1.399 . S
C1516 C1517 1.376 . S
C1517 H1504 0.930 . S
C1517 C1516 1.376 . S
C1517 C1518 1.388 . S
C1518 H1505 0.930 . S
C1518 C1517 1.388 . S
C1518 C1519 1.390 . S
C1519 C1518 1.390 . S
C1519 C1520 1.394 . S
C1519 C1525 1.465 . S
C1520 C1515 1.399 . S
C1520 C1519 1.394 . S
C1520 C1521 1.516 . S
C1521 C1520 1.516 . S
C1521 C1522 1.502 . S
C1521 C1523 1.561 . S
C1521 C1524 1.526 . S
C1522 H1506 0.959 . S
C1522 H1507 0.959 . S
C1522 H1508 0.961 . S
C1522 C1521 1.502 . S
C1523 H1509 0.960 . S
C1523 H1510 0.961 . S
C1523 H1511 0.959 . S
C1523 C1521 1.561 . S
C1524 C1521 1.526 . S
C1524 C1525 1.396 . S
C1524 C1529 1.390 . S
C1525 C1519 1.465 . S
C1525 C1524 1.396 . S
C1525 C1526 1.381 1_554 S
C1526 H1512 0.944 . S
C1526 C1525 1.381 1_556 S
C1526 C1527 1.389 . S
C1527 H1513 0.931 . S
C1527 C1526 1.389 . S
C1527 C1528 1.389 1_556 S
C1528 C1527 1.389 1_554 S
C1528 C1529 1.387 . S
C1529 H1514 0.930 . S
C1529 C1524 1.390 . S
C1529 C1528 1.387 . S
H1530 C1542 0.930 . S
H1531 C1544 0.930 . S
H1532 C1545 0.930 . S
H1533 C1549 0.959 . S
H1534 C1549 0.959 . S
H1535 C1549 0.961 . S
H1536 C1550 0.960 . S
H1537 C1550 0.961 . S
H1538 C1550 0.959 . S
H1539 C1553 0.929 . S
H1540 C1554 0.931 . S
H1541 C1556 0.930 . S
C1542 H1530 0.930 . S
C1542 C1543 1.399 . S
C1542 C1547 1.399 . S
C1543 C1542 1.399 . S
C1543 C1544 1.376 . S
C1544 H1531 0.930 . S
C1544 C1543 1.376 . S
C1544 C1545 1.388 . S
C1545 H1532 0.930 . S
C1545 C1544 1.388 . S
C1545 C1546 1.390 . S
C1546 C1545 1.390 . S
C1546 C1547 1.394 . S
C1546 C1552 1.465 . S
C1547 C1542 1.399 . S
C1547 C1546 1.394 . S
C1547 C1548 1.516 . S
C1548 C1547 1.516 . S
C1548 C1549 1.502 . S
C1548 C1550 1.561 1_554 S
C1548 C1551 1.526 . S
C1549 H1533 0.959 . S
C1549 H1534 0.959 . S
C1549 H1535 0.961 . S
C1549 C1548 1.502 . S
C1550 H1536 0.960 . S
C1550 H1537 0.961 . S
C1550 H1538 0.959 . S
C1550 C1548 1.561 1_556 S
C1551 C1548 1.526 . S
C1551 C1552 1.396 . S
C1551 C1556 1.390 . S
C1552 C1546 1.465 . S
C1552 C1551 1.396 . S
C1552 C1553 1.399 . S
C1553 H1539 0.929 . S
C1553 C1552 1.399 . S
C1553 C1554 1.385 . S
C1554 H1540 0.931 . S
C1554 C1553 1.385 . S
C1554 C1555 1.389 . S
C1555 C1554 1.389 . S
C1555 C1556 1.387 . S
C1556 H1541 0.930 . S
C1556 C1551 1.390 . S
C1556 C1555 1.387 . S
H1557 C1569 0.930 . S
H1558 C1571 0.930 . S
H1559 C1572 0.930 . S
H1560 C1576 0.959 . S
H1561 C1576 0.959 . S
H1562 C1576 0.961 . S
H1563 C1577 0.960 . S
H1564 C1577 0.961 . S
H1565 C1577 0.959 . S
H1566 C1580 0.929 . S
H1567 C1581 0.931 . S
H1568 C1583 0.930 . S
C1569 H1557 0.930 . S
C1569 C1570 1.399 . S
C1569 C1574 1.399 . S
C1570 C1569 1.399 . S
C1570 C1571 1.376 . S
C1571 H1558 0.930 . S
C1571 C1570 1.376 . S
C1571 C1572 1.388 . S
C1572 H1559 0.930 . S
C1572 C1571 1.388 . S
C1572 C1573 1.390 . S
C1573 C1572 1.390 . S
C1573 C1574 1.394 . S
C1573 C1579 1.465 . S
C1574 C1569 1.399 . S
C1574 C1573 1.394 . S
C1574 C1575 1.516 . S
C1575 C1574 1.516 . S
C1575 C1576 1.502 . S
C1575 C1577 1.561 . S
C1575 C1578 1.526 . S
C1576 H1560 0.959 . S
C1576 H1561 0.959 . S
C1576 H1562 0.961 . S
C1576 C1575 1.502 . S
C1577 H1563 0.960 . S
C1577 H1564 0.961 . S
C1577 H1565 0.959 . S
C1577 C1575 1.561 . S
C1578 C1575 1.526 . S
C1578 C1579 1.396 . S
C1578 C1583 1.390 . S
C1579 C1573 1.465 . S
C1579 C1578 1.396 . S
C1579 C1580 1.399 . S
C1580 H1566 0.929 . S
C1580 C1579 1.399 . S
C1580 C1581 1.385 . S
C1581 H1567 0.931 . S
C1581 C1580 1.385 . S
C1581 C1582 1.389 . S
C1582 C1581 1.389 . S
C1582 C1583 1.387 . S
C1583 H1568 0.930 . S
C1583 C1578 1.390 . S
C1583 C1582 1.387 . S
H1584 C1596 0.930 . S
H1585 C1598 0.930 . S
H1586 C1599 0.930 . S
H1587 C1603 0.959 . S
H1588 C1603 0.959 . S
H1589 C1603 0.961 . S
H1590 C1604 0.960 . S
H1591 C1604 0.961 . S
H1592 C1604 0.959 . S
H1593 C1607 0.929 . S
H1594 C1608 0.931 . S
H1595 C1610 0.930 . S
C1596 H1584 0.930 . S
C1596 C1597 1.399 . S
C1596 C1601 1.399 . S
C1597 C1596 1.399 . S
C1597 C1598 1.376 . S
C1598 H1585 0.930 . S
C1598 C1597 1.376 . S
C1598 C1599 1.388 . S
C1599 H1586 0.930 . S
C1599 C1598 1.388 . S
C1599 C1600 1.390 . S
C1600 C1599 1.390 . S
C1600 C1601 1.394 . S
C1600 C1606 1.465 . S
C1601 C1596 1.399 . S
C1601 C1600 1.394 . S
C1601 C1602 1.516 . S
C1602 C1601 1.516 . S
C1602 C1603 1.502 . S
C1602 C1604 1.561 . S
C1602 C1605 1.526 . S
C1603 H1587 0.959 . S
C1603 H1588 0.959 . S
C1603 H1589 0.961 . S
C1603 C1602 1.502 . S
C1604 H1590 0.960 . S
C1604 H1591 0.961 . S
C1604 H1592 0.959 . S
C1604 C1602 1.561 . S
C1605 C1602 1.526 . S
C1605 C1606 1.396 . S
C1605 C1610 1.390 . S
C1606 C1600 1.465 . S
C1606 C1605 1.396 . S
C1606 C1607 1.399 . S
C1607 H1593 0.929 . S
C1607 C1606 1.399 . S
C1607 C1608 1.385 . S
C1608 H1594 0.931 . S
C1608 C1607 1.385 . S
C1608 C1609 1.389 . S
C1609 C1608 1.389 . S
C1609 C1610 1.387 . S
C1610 H1595 0.930 . S
C1610 C1605 1.390 . S
C1610 C1609 1.387 . S
H1611 C1623 0.930 . S
H1612 C1625 0.930 . S
H1613 C1626 0.930 . S
H1614 C1630 0.959 . S
H1615 C1630 0.959 . S
H1616 C1630 0.961 . S
H1617 C1631 0.960 . S
H1618 C1631 0.961 . S
H1619 C1631 0.959 . S
H1620 C1634 0.929 . S
H1621 C1635 0.931 . S
H1622 C1637 0.930 . S
C1623 H1611 0.930 . S
C1623 C1624 1.399 . S
C1623 C1628 1.399 . S
C1624 C1623 1.399 . S
C1624 C1625 1.376 . S
C1625 H1612 0.930 . S
C1625 C1624 1.376 . S
C1625 C1626 1.388 . S
C1626 H1613 0.930 . S
C1626 C1625 1.388 . S
C1626 C1627 1.390 . S
C1627 C1626 1.390 . S
C1627 C1628 1.394 . S
C1627 C1633 1.465 . S
C1628 C1623 1.399 . S
C1628 C1627 1.394 . S
C1628 C1629 1.516 . S
C1629 C1628 1.516 . S
C1629 C1630 1.502 . S
C1629 C1631 1.561 . S
C1629 C1632 1.526 . S
C1630 H1614 0.959 . S
C1630 H1615 0.959 . S
C1630 H1616 0.961 . S
C1630 C1629 1.502 . S
C1631 H1617 0.960 . S
C1631 H1618 0.961 . S
C1631 H1619 0.959 . S
C1631 C1629 1.561 . S
C1632 C1629 1.526 . S
C1632 C1633 1.396 . S
C1632 C1637 1.390 . S
C1633 C1627 1.465 . S
C1633 C1632 1.396 . S
C1633 C1634 1.399 . S
C1634 H1620 0.929 . S
C1634 C1633 1.399 . S
C1634 C1635 1.385 . S
C1635 H1621 0.931 . S
C1635 C1634 1.385 . S
C1635 C1636 1.389 . S
C1636 C1635 1.389 . S
C1636 C1637 1.387 . S
C1637 H1622 0.930 . S
C1637 C1632 1.390 . S
C1637 C1636 1.387 . S
H1638 C1650 0.930 . S
H1639 C1652 0.930 . S
H1640 C1653 0.930 1_554 S
H1641 C1657 0.959 . S
H1642 C1657 0.959 . S
H1643 C1657 0.961 . S
H1644 C1658 0.960 . S
H1645 C1658 0.961 . S
H1646 C1658 0.959 . S
H1647 C1661 0.929 . S
H1648 C1662 0.931 . S
H1649 C1664 0.930 . S
C1650 H1638 0.930 . S
C1650 C1651 1.399 . S
C1650 C1655 1.399 . S
C1651 C1650 1.399 . S
C1651 C1652 1.376 1_556 S
C1652 H1639 0.930 . S
C1652 C1651 1.376 1_554 S
C1652 C1653 1.388 1_554 S
C1653 H1640 0.930 1_556 S
C1653 C1652 1.388 1_556 S
C1653 C1654 1.390 . S
C1654 C1653 1.390 . S
C1654 C1655 1.394 . S
C1654 C1660 1.465 . S
C1655 C1650 1.399 . S
C1655 C1654 1.394 . S
C1655 C1656 1.516 . S
C1656 C1655 1.516 . S
C1656 C1657 1.502 . S
C1656 C1658 1.561 . S
C1656 C1659 1.526 . S
C1657 H1641 0.959 . S
C1657 H1642 0.959 . S
C1657 H1643 0.961 . S
C1657 C1656 1.502 . S
C1658 H1644 0.960 . S
C1658 H1645 0.961 . S
C1658 H1646 0.959 . S
C1658 C1656 1.561 . S
C1659 C1656 1.526 . S
C1659 C1660 1.396 . S
C1659 C1664 1.390 . S
C1660 C1654 1.465 . S
C1660 C1659 1.396 . S
C1660 C1661 1.399 . S
C1661 H1647 0.929 . S
C1661 C1660 1.399 . S
C1661 C1662 1.385 . S
C1662 H1648 0.931 . S
C1662 C1661 1.385 . S
C1662 C1663 1.389 . S
C1663 C1662 1.389 . S
C1663 C1664 1.387 . S
C1664 H1649 0.930 . S
C1664 C1659 1.390 . S
C1664 C1663 1.387 . S
H1665 C1677 0.930 . S
H1666 C1679 0.930 . S
H1667 C1680 0.930 . S
H1668 C1684 0.959 . S
H1669 C1684 0.959 . S
H1670 C1684 0.961 . S
H1671 C1685 0.960 . S
H1672 C1685 0.961 . S
H1673 C1685 0.959 . S
H1674 C1688 0.929 . S
H1675 C1689 0.931 . S
H1676 C1691 0.930 . S
C1677 H1665 0.930 . S
C1677 C1678 1.399 . S
C1677 C1682 1.399 . S
C1678 C1677 1.399 . S
C1678 C1679 1.376 . S
C1679 H1666 0.930 . S
C1679 C1678 1.376 . S
C1679 C1680 1.388 . S
C1680 H1667 0.930 . S
C1680 C1679 1.388 . S
C1680 C1681 1.390 . S
C1681 C1680 1.390 . S
C1681 C1682 1.394 . S
C1681 C1687 1.465 . S
C1682 C1677 1.399 . S
C1682 C1681 1.394 . S
C1682 C1683 1.516 . S
C1683 C1682 1.516 . S
C1683 C1684 1.502 . S
C1683 C1685 1.561 . S
C1683 C1686 1.526 . S
C1684 H1668 0.959 . S
C1684 H1669 0.959 . S
C1684 H1670 0.961 . S
C1684 C1683 1.502 . S
C1685 H1671 0.960 . S
C1685 H1672 0.961 . S
C1685 H1673 0.959 . S
C1685 C1683 1.561 . S
C1686 C1683 1.526 . S
C1686 C1687 1.396 . S
C1686 C1691 1.390 . S
C1687 C1681 1.465 . S
C1687 C1686 1.396 . S
C1687 C1688 1.399 . S
C1688 H1674 0.929 . S
C1688 C1687 1.399 . S
C1688 C1689 1.385 . S
C1689 H1675 0.931 . S
C1689 C1688 1.385 . S
C1689 C1690 1.389 . S
C1690 C1689 1.389 . S
C1690 C1691 1.387 . S
C1691 H1676 0.930 . S
C1691 C1686 1.390 . S
C1691 C1690 1.387 . S
H1692 C1704 0.930 . S
H1693 C1706 0.930 . S
H1694 C1707 0.930 . S
H1695 C1711 0.959 . S
H1696 C1711 0.959 . S
H1697 C1711 0.961 . S
H1698 C1712 0.960 . S
H1699 C1712 0.961 . S
H1700 C1712 0.959 . S
H1701 C1715 0.929 . S
H1702 C1716 0.931 . S
H1703 C1718 0.930 . S
C1704 H1692 0.930 . S
C1704 C1705 1.399 . S
C1704 C1709 1.399 . S
C1705 C1704 1.399 . S
C1705 C1706 1.376 . S
C1706 H1693 0.930 . S
C1706 C1705 1.376 . S
C1706 C1707 1.388 . S
C1707 H1694 0.930 . S
C1707 C1706 1.388 . S
C1707 C1708 1.390 . S
C1708 C1707 1.390 . S
C1708 C1709 1.394 . S
C1708 C1714 1.465 . S
C1709 C1704 1.399 . S
C1709 C1708 1.394 . S
C1709 C1710 1.516 . S
C1710 C1709 1.516 . S
C1710 C1711 1.502 . S
C1710 C1712 1.561 . S
C1710 C1713 1.526 . S
C1711 H1695 0.959 . S
C1711 H1696 0.959 . S
C1711 H1697 0.961 . S
C1711 C1710 1.502 . S
C1712 H1698 0.960 . S
C1712 H1699 0.961 . S
C1712 H1700 0.959 . S
C1712 C1710 1.561 . S
C1713 C1710 1.526 . S
C1713 C1714 1.396 . S
C1713 C1718 1.390 . S
C1714 C1708 1.465 . S
C1714 C1713 1.396 . S
C1714 C1715 1.399 . S
C1715 H1701 0.929 . S
C1715 C1714 1.399 . S
C1715 C1716 1.385 . S
C1716 H1702 0.931 . S
C1716 C1715 1.385 . S
C1716 C1717 1.389 . S
C1717 C1716 1.389 . S
C1717 C1718 1.387 . S
C1718 H1703 0.930 . S
C1718 C1713 1.390 . S
C1718 C1717 1.387 . S
H1719 C1731 0.930 . S
H1720 C1733 0.930 . S
H1721 C1734 0.930 . S
H1722 C1738 0.959 . S
H1723 C1738 0.959 . S
H1724 C1738 0.961 . S
H1725 C1739 0.960 . S
H1726 C1739 0.961 . S
H1727 C1739 0.959 . S
H1728 C1742 0.929 . S
H1729 C1743 0.931 . S
H1730 C1745 0.930 . S
C1731 H1719 0.930 . S
C1731 C1732 1.399 . S
C1731 C1736 1.399 . S
C1732 C1731 1.399 . S
C1732 C1733 1.376 . S
C1733 H1720 0.930 . S
C1733 C1732 1.376 . S
C1733 C1734 1.388 . S
C1734 H1721 0.930 . S
C1734 C1733 1.388 . S
C1734 C1735 1.390 . S
C1735 C1734 1.390 . S
C1735 C1736 1.394 . S
C1735 C1741 1.465 . S
C1736 C1731 1.399 . S
C1736 C1735 1.394 . S
C1736 C1737 1.516 . S
C1737 C1736 1.516 . S
C1737 C1738 1.502 . S
C1737 C1739 1.561 . S
C1737 C1740 1.526 . S
C1738 H1722 0.959 . S
C1738 H1723 0.959 . S
C1738 H1724 0.961 . S
C1738 C1737 1.502 . S
C1739 H1725 0.960 . S
C1739 H1726 0.961 . S
C1739 H1727 0.959 . S
C1739 C1737 1.561 . S
C1740 C1737 1.526 . S
C1740 C1741 1.396 . S
C1740 C1745 1.390 . S
C1741 C1735 1.465 . S
C1741 C1740 1.396 . S
C1741 C1742 1.399 . S
C1742 H1728 0.929 . S
C1742 C1741 1.399 . S
C1742 C1743 1.385 . S
C1743 H1729 0.931 . S
C1743 C1742 1.385 . S
C1743 C1744 1.389 . S
C1744 C1743 1.389 . S
C1744 C1745 1.387 . S
C1745 H1730 0.930 . S
C1745 C1740 1.390 . S
C1745 C1744 1.387 . S
H1746 C1758 0.930 . S
H1747 C1760 0.930 . S
H1748 C1761 0.930 . S
H1749 C1765 0.959 . S
H1750 C1765 0.959 . S
H1751 C1765 0.961 . S
H1752 C1766 0.960 . S
H1753 C1766 0.961 . S
H1754 C1766 0.959 . S
H1755 C1769 0.929 . S
H1756 C1770 0.931 . S
H1757 C1772 0.930 . S
C1758 H1746 0.930 . S
C1758 C1759 1.399 . S
C1758 C1763 1.399 . S
C1759 C1758 1.399 . S
C1759 C1760 1.376 . S
C1760 H1747 0.930 . S
C1760 C1759 1.376 . S
C1760 C1761 1.388 . S
C1761 H1748 0.930 . S
C1761 C1760 1.388 . S
C1761 C1762 1.390 . S
C1762 C1761 1.390 . S
C1762 C1763 1.394 . S
C1762 C1768 1.465 . S
C1763 C1758 1.399 . S
C1763 C1762 1.394 . S
C1763 C1764 1.516 . S
C1764 C1763 1.516 . S
C1764 C1765 1.502 . S
C1764 C1766 1.561 . S
C1764 C1767 1.526 . S
C1765 H1749 0.959 . S
C1765 H1750 0.959 . S
C1765 H1751 0.961 . S
C1765 C1764 1.502 . S
C1766 H1752 0.960 . S
C1766 H1753 0.961 . S
C1766 H1754 0.959 . S
C1766 C1764 1.561 . S
C1767 C1764 1.526 . S
C1767 C1768 1.396 . S
C1767 C1772 1.390 . S
C1768 C1762 1.465 . S
C1768 C1767 1.396 . S
C1768 C1769 1.399 . S
C1769 H1755 0.929 . S
C1769 C1768 1.399 . S
C1769 C1770 1.385 . S
C1770 H1756 0.931 . S
C1770 C1769 1.385 . S
C1770 C1771 1.389 . S
C1771 C1770 1.389 . S
C1771 C1772 1.387 . S
C1772 H1757 0.930 . S
C1772 C1767 1.390 . S
C1772 C1771 1.387 . S
H1773 C1785 0.930 . S
H1774 C1787 0.930 . S
H1775 C1788 0.930 . S
H1776 C1792 0.959 . S
H1777 C1792 0.959 . S
H1778 C1792 0.961 . S
H1779 C1793 0.960 . S
H1780 C1793 0.961 . S
H1781 C1793 0.959 . S
H1782 C1796 0.929 . S
H1783 C1797 0.931 . S
H1784 C1799 0.930 . S
C1785 H1773 0.930 . S
C1785 C1786 1.399 . S
C1785 C1790 1.399 . S
C1786 C1785 1.399 . S
C1786 C1787 1.376 . S
C1787 H1774 0.930 . S
C1787 C1786 1.376 . S
C1787 C1788 1.388 . S
C1788 H1775 0.930 . S
C1788 C1787 1.388 . S
C1788 C1789 1.390 . S
C1789 C1788 1.390 . S
C1789 C1790 1.394 . S
C1789 C1795 1.465 . S
C1790 C1785 1.399 . S
C1790 C1789 1.394 . S
C1790 C1791 1.516 . S
C1791 C1790 1.516 . S
C1791 C1792 1.502 . S
C1791 C1793 1.561 . S
C1791 C1794 1.526 . S
C1792 H1776 0.959 . S
C1792 H1777 0.959 . S
C1792 H1778 0.961 . S
C1792 C1791 1.502 . S
C1793 H1779 0.960 . S
C1793 H1780 0.961 . S
C1793 H1781 0.959 . S
C1793 C1791 1.561 . S
C1794 C1791 1.526 . S
C1794 C1795 1.396 . S
C1794 C1799 1.390 . S
C1795 C1789 1.465 . S
C1795 C1794 1.396 . S
C1795 C1796 1.399 . S
C1796 H1782 0.929 . S
C1796 C1795 1.399 . S
C1796 C1797 1.385 . S
C1797 H1783 0.931 . S
C1797 C1796 1.385 . S
C1797 C1798 1.389 . S
C1798 C1797 1.389 . S
C1798 C1799 1.387 . S
C1799 H1784 0.930 . S
C1799 C1794 1.390 . S
C1799 C1798 1.387 . S
H1800 C1812 0.930 . S
H1801 C1814 0.930 . S
H1802 C1815 0.930 . S
H1803 C1819 0.959 . S
H1804 C1819 0.959 . S
H1805 C1819 0.961 . S
H1806 C1820 0.960 . S
H1807 C1820 0.961 . S
H1808 C1820 0.959 . S
H1809 C1823 0.929 . S
H1810 C1824 0.931 . S
H1811 C1826 0.930 . S
C1812 H1800 0.930 . S
C1812 C1813 1.399 . S
C1812 C1817 1.399 . S
C1813 C1812 1.399 . S
C1813 C1814 1.376 . S
C1814 H1801 0.930 . S
C1814 C1813 1.376 . S
C1814 C1815 1.388 . S
C1815 H1802 0.930 . S
C1815 C1814 1.388 . S
C1815 C1816 1.390 . S
C1816 C1815 1.390 . S
C1816 C1817 1.394 . S
C1816 C1822 1.465 . S
C1817 C1812 1.399 . S
C1817 C1816 1.394 . S
C1817 C1818 1.516 . S
C1818 C1817 1.516 . S
C1818 C1819 1.502 . S
C1818 C1820 1.561 . S
C1818 C1821 1.526 . S
C1819 H1803 0.959 . S
C1819 H1804 0.959 . S
C1819 H1805 0.961 . S
C1819 C1818 1.502 . S
C1820 H1806 0.960 . S
C1820 H1807 0.961 . S
C1820 H1808 0.959 . S
C1820 C1818 1.561 . S
C1821 C1818 1.526 . S
C1821 C1822 1.396 . S
C1821 C1826 1.390 . S
C1822 C1816 1.465 . S
C1822 C1821 1.396 . S
C1822 C1823 1.399 . S
C1823 H1809 0.929 . S
C1823 C1822 1.399 . S
C1823 C1824 1.385 . S
C1824 H1810 0.931 . S
C1824 C1823 1.385 . S
C1824 C1825 1.389 . S
C1825 C1824 1.389 . S
C1825 C1826 1.387 . S
C1826 H1811 0.930 . S
C1826 C1821 1.390 . S
C1826 C1825 1.387 . S
H1827 C1839 0.930 . S
H1828 C1841 0.930 . S
H1829 C1842 0.930 . S
H1830 C1846 0.959 . S
H1831 C1846 0.959 . S
H1832 C1846 0.961 . S
H1833 C1847 0.960 . S
H1834 C1847 0.961 . S
H1835 C1847 0.959 . S
H1836 C1850 0.929 . S
H1837 C1851 0.931 . S
H1838 C1853 0.930 . S
C1839 H1827 0.930 . S
C1839 C1840 1.399 . S
C1839 C1844 1.399 . S
C1840 C1839 1.399 . S
C1840 C1841 1.376 . S
C1841 H1828 0.930 . S
C1841 C1840 1.376 . S
C1841 C1842 1.388 . S
C1842 H1829 0.930 . S
C1842 C1841 1.388 . S
C1842 C1843 1.390 . S
C1843 C1842 1.390 . S
C1843 C1844 1.394 . S
C1843 C1849 1.465 1_565 S
C1844 C1839 1.399 . S
C1844 C1843 1.394 . S
C1844 C1845 1.516 . S
C1845 C1844 1.516 . S
C1845 C1846 1.502 . S
C1845 C1847 1.561 . S
C1845 C1848 1.526 1_565 S
C1846 H1830 0.959 . S
C1846 H1831 0.959 . S
C1846 H1832 0.961 . S
C1846 C1845 1.502 . S
C1847 H1833 0.960 . S
C1847 H1834 0.961 . S
C1847 H1835 0.959 . S
C1847 C1845 1.561 . S
C1848 C1845 1.526 1_545 S
C1848 C1849 1.396 . S
C1848 C1853 1.390 . S
C1849 C1843 1.465 1_545 S
C1849 C1848 1.396 . S
C1849 C1850 1.399 . S
C1850 H1836 0.929 . S
C1850 C1849 1.399 . S
C1850 C1851 1.385 . S
C1851 H1837 0.931 . S
C1851 C1850 1.385 . S
C1851 C1852 1.389 . S
C1852 C1851 1.389 . S
C1852 C1853 1.387 . S
C1853 H1838 0.930 . S
C1853 C1848 1.390 . S
C1853 C1852 1.387 . S
H1854 C1866 0.930 . S
H1855 C1868 0.930 . S
H1856 C1869 0.930 . S
H1857 C1873 0.959 . S
H1858 C1873 0.959 . S
H1859 C1873 0.961 1_455 S
H1860 C1874 0.960 . S
H1861 C1874 0.899 1_655 S
H1862 C1874 0.959 . S
H1863 C1877 0.929 . S
H1864 C1878 0.931 . S
H1865 C1880 0.930 . S
C1866 H1854 0.930 . S
C1866 C1867 1.399 . S
C1866 C1871 1.399 . S
C1867 C1866 1.399 . S
C1867 C1868 1.376 . S
C1868 H1855 0.930 . S
C1868 C1867 1.376 . S
C1868 C1869 1.388 . S
C1869 H1856 0.930 . S
C1869 C1868 1.388 . S
C1869 C1870 1.390 . S
C1870 C1869 1.390 . S
C1870 C1871 1.394 . S
C1870 C1876 1.465 1_455 S
C1871 C1866 1.399 . S
C1871 C1870 1.394 . S
C1871 C1872 1.516 . S
C1872 C1871 1.516 . S
C1872 C1873 1.502 1_455 S
C1872 C1874 1.561 . S
C1872 C1875 1.526 1_455 S
C1873 H1857 0.959 . S
C1873 H1858 0.959 . S
C1873 H1859 0.961 1_655 S
C1873 C1872 1.502 1_655 S
C1874 H1860 0.960 . S
C1874 H1861 0.899 1_455 S
C1874 H1862 0.959 . S
C1874 C1872 1.561 . S
C1875 C1872 1.526 1_655 S
C1875 C1876 1.396 . S
C1875 C1880 1.390 . S
C1876 C1870 1.465 1_655 S
C1876 C1875 1.396 . S
C1876 C1877 1.399 . S
C1877 H1863 0.929 . S
C1877 C1876 1.399 . S
C1877 C1878 1.385 . S
C1878 H1864 0.931 . S
C1878 C1877 1.385 . S
C1878 C1879 1.389 . S
C1879 C1878 1.389 . S
C1879 C1880 1.387 . S
C1880 H1865 0.930 . S
C1880 C1875 1.390 . S
C1880 C1879 1.387 . S
H1881 C1893 0.930 . S
H1882 C1895 0.930 . S
H1883 C1896 0.930 . S
H1884 C1900 0.959 . S
H1885 C1900 0.959 . S
H1886 C1900 0.961 . S
H1887 C1901 0.960 . S
H1888 C1901 0.961 . S
H1889 C1901 0.959 . S
H1890 C1904 0.929 . S
H1891 C1905 0.931 . S
H1892 C1907 0.930 . S
C1893 H1881 0.930 . S
C1893 C1894 1.399 . S
C1893 C1898 1.399 . S
C1894 C1893 1.399 . S
C1894 C1895 1.376 . S
C1895 H1882 0.930 . S
C1895 C1894 1.376 . S
C1895 C1896 1.388 . S
C1896 H1883 0.930 . S
C1896 C1895 1.388 . S
C1896 C1897 1.390 . S
C1897 C1896 1.390 . S
C1897 C1898 1.394 . S
C1897 C1903 1.465 . S
C1898 C1893 1.399 . S
C1898 C1897 1.394 . S
C1898 C1899 1.516 . S
C1899 C1898 1.516 . S
C1899 C1900 1.502 . S
C1899 C1901 1.561 . S
C1899 C1902 1.526 . S
C1900 H1884 0.959 . S
C1900 H1885 0.959 . S
C1900 H1886 0.961 . S
C1900 C1899 1.502 . S
C1901 H1887 0.960 . S
C1901 H1888 0.961 . S
C1901 H1889 0.959 . S
C1901 C1899 1.561 . S
C1902 C1899 1.526 . S
C1902 C1903 1.396 . S
C1902 C1907 1.390 . S
C1903 C1897 1.465 . S
C1903 C1902 1.396 . S
C1903 C1904 1.399 . S
C1904 H1890 0.929 . S
C1904 C1903 1.399 . S
C1904 C1905 1.385 . S
C1905 H1891 0.931 . S
C1905 C1904 1.385 . S
C1905 C1906 1.389 . S
C1906 C1905 1.389 . S
C1906 C1907 1.387 . S
C1907 H1892 0.930 . S
C1907 C1902 1.390 . S
C1907 C1906 1.387 . S
H1908 C1920 0.930 . S
H1909 C1922 0.930 . S
H1910 C1923 0.930 . S
H1911 C1927 0.959 . S
H1912 C1927 0.959 . S
H1913 C1927 0.961 . S
H1914 C1928 0.960 . S
H1915 C1928 0.961 . S
H1916 C1928 0.959 . S
H1917 C1931 0.929 . S
H1918 C1932 0.931 . S
H1919 C1934 0.930 . S
C1920 H1908 0.930 . S
C1920 C1921 1.399 . S
C1920 C1925 1.399 . S
C1921 C1920 1.399 . S
C1921 C1922 1.376 . S
C1922 H1909 0.930 . S
C1922 C1921 1.376 . S
C1922 C1923 1.388 . S
C1923 H1910 0.930 . S
C1923 C1922 1.388 . S
C1923 C1924 1.390 . S
C1924 C1923 1.390 . S
C1924 C1925 1.394 . S
C1924 C1930 1.465 1_565 S
C1925 C1920 1.399 . S
C1925 C1924 1.394 . S
C1925 C1926 1.516 . S
C1926 C1925 1.516 . S
C1926 C1927 1.502 . S
C1926 C1928 1.561 . S
C1926 C1929 1.526 1_565 S
C1927 H1911 0.959 . S
C1927 H1912 0.959 . S
C1927 H1913 0.961 . S
C1927 C1926 1.502 . S
C1928 H1914 0.960 . S
C1928 H1915 0.961 . S
C1928 H1916 0.959 . S
C1928 C1926 1.561 . S
C1929 C1926 1.526 1_545 S
C1929 C1930 1.396 . S
C1929 C1934 1.390 . S
C1930 C1924 1.465 1_545 S
C1930 C1929 1.396 . S
C1930 C1931 1.399 . S
C1931 H1917 0.929 . S
C1931 C1930 1.399 . S
C1931 C1932 1.385 . S
C1932 H1918 0.931 . S
C1932 C1931 1.385 . S
C1932 C1933 1.389 . S
C1933 C1932 1.389 . S
C1933 C1934 1.387 . S
C1934 H1919 0.930 . S
C1934 C1929 1.390 . S
C1934 C1933 1.387 . S
H1935 C1947 0.930 . S
H1936 C1949 0.930 . S
H1937 C1950 0.930 . S
H1938 C1954 0.959 . S
H1939 C1954 0.959 . S
H1940 C1954 0.961 . S
H1941 C1955 0.960 . S
H1942 C1955 0.961 . S
H1943 C1955 0.959 . S
H1944 C1958 0.929 . S
H1945 C1959 0.931 . S
H1946 C1961 0.930 . S
C1947 H1935 0.930 . S
C1947 C1948 1.399 . S
C1947 C1952 1.399 . S
C1948 C1947 1.399 . S
C1948 C1949 1.376 . S
C1949 H1936 0.930 . S
C1949 C1948 1.376 . S
C1949 C1950 1.388 . S
C1950 H1937 0.930 . S
C1950 C1949 1.388 . S
C1950 C1951 1.390 . S
C1951 C1950 1.390 . S
C1951 C1952 1.394 . S
C1951 C1957 1.465 1_455 S
C1952 C1947 1.399 . S
C1952 C1951 1.394 . S
C1952 C1953 1.516 . S
C1953 C1952 1.516 . S
C1953 C1954 1.502 . S
C1953 C1955 1.561 . S
C1953 C1956 1.526 1_455 S
C1954 H1938 0.959 . S
C1954 H1939 0.959 . S
C1954 H1940 0.961 . S
C1954 C1953 1.502 . S
C1955 H1941 0.960 . S
C1955 H1942 0.961 . S
C1955 H1943 0.959 . S
C1955 C1953 1.561 . S
C1956 C1953 1.526 1_655 S
C1956 C1957 1.396 . S
C1956 C1961 1.390 . S
C1957 C1951 1.465 1_655 S
C1957 C1956 1.396 . S
C1957 C1958 1.399 . S
C1958 H1944 0.929 . S
C1958 C1957 1.399 . S
C1958 C1959 1.385 . S
C1959 H1945 0.931 . S
C1959 C1958 1.385 . S
C1959 C1960 1.389 . S
C1960 C1959 1.389 . S
C1960 C1961 1.387 . S
C1961 H1946 0.930 . S
C1961 C1956 1.390 . S
C1961 C1960 1.387 . S
H1962 C1974 0.930 1_554 S
H1963 C1976 0.930 . S
H1964 C1977 0.930 . S
H1965 C1981 0.959 . S
H1966 C1981 0.959 . S
H1967 C1981 0.961 . S
H1968 C1982 0.960 . S
H1969 C1982 0.961 . S
H1970 C1982 0.959 . S
H1971 C1985 0.929 . S
H1972 C1986 0.931 . S
H1973 C1988 0.930 . S
C1974 H1962 0.930 1_556 S
C1974 C1975 1.400 1_556 S
C1974 C1979 1.397 . S
C1975 C1974 1.400 1_554 S
C1975 C1976 1.376 . S
C1976 H1963 0.930 . S
C1976 C1975 1.376 . S
C1976 C1977 1.388 1_554 S
C1977 H1964 0.930 . S
C1977 C1976 1.388 1_556 S
C1977 C1978 1.390 . S
C1978 C1977 1.390 . S
C1978 C1979 1.394 . S
C1978 C1984 1.465 . S
C1979 C1974 1.397 . S
C1979 C1978 1.394 . S
C1979 C1980 1.516 . S
C1980 C1979 1.516 . S
C1980 C1981 1.502 . S
C1980 C1982 1.561 . S
C1980 C1983 1.526 . S
C1981 H1965 0.959 . S
C1981 H1966 0.959 . S
C1981 H1967 0.961 . S
C1981 C1980 1.502 . S
C1982 H1968 0.960 . S
C1982 H1969 0.961 . S
C1982 H1970 0.959 . S
C1982 C1980 1.561 . S
C1983 C1980 1.526 . S
C1983 C1984 1.396 . S
C1983 C1988 1.390 . S
C1984 C1978 1.465 . S
C1984 C1983 1.396 . S
C1984 C1985 1.399 . S
C1985 H1971 0.929 . S
C1985 C1984 1.399 . S
C1985 C1986 1.385 . S
C1986 H1972 0.931 . S
C1986 C1985 1.385 . S
C1986 C1987 1.389 . S
C1987 C1986 1.389 . S
C1987 C1988 1.387 . S
C1988 H1973 0.930 . S
C1988 C1983 1.390 . S
C1988 C1987 1.387 . S
H1989 C2001 0.930 . S
H1990 C2003 0.930 . S
H1991 C2004 0.930 . S
H1992 C2008 0.959 . S
H1993 C2008 0.959 . S
H1994 C2008 0.961 . S
H1995 C2009 0.960 . S
H1996 C2009 0.961 . S
H1997 C2009 0.959 . S
H1998 C2012 0.929 . S
H1999 C2013 0.931 . S
H2000 C2015 0.930 . S
C2001 H1989 0.930 . S
C2001 C2002 1.399 . S
C2001 C2006 1.399 1_554 S
C2002 C2001 1.399 . S
C2002 C2003 1.376 . S
C2003 H1990 0.930 . S
C2003 C2002 1.376 . S
C2003 C2004 1.388 1_554 S
C2004 H1991 0.930 . S
C2004 C2003 1.388 1_556 S
C2004 C2005 1.390 . S
C2005 C2004 1.390 . S
C2005 C2006 1.394 . S
C2005 C2011 1.465 . S
C2006 C2001 1.399 1_556 S
C2006 C2005 1.394 . S
C2006 C2007 1.516 . S
C2007 C2006 1.516 . S
C2007 C2008 1.502 . S
C2007 C2009 1.561 . S
C2007 C2010 1.526 . S
C2008 H1992 0.959 . S
C2008 H1993 0.959 . S
C2008 H1994 0.961 . S
C2008 C2007 1.502 . S
C2009 H1995 0.960 . S
C2009 H1996 0.961 . S
C2009 H1997 0.959 . S
C2009 C2007 1.561 . S
C2010 C2007 1.526 . S
C2010 C2011 1.396 . S
C2010 C2015 1.390 . S
C2011 C2005 1.465 . S
C2011 C2010 1.396 . S
C2011 C2012 1.399 . S
C2012 H1998 0.929 . S
C2012 C2011 1.399 . S
C2012 C2013 1.385 . S
C2013 H1999 0.931 . S
C2013 C2012 1.385 . S
C2013 C2014 1.389 . S
C2014 C2013 1.389 . S
C2014 C2015 1.387 . S
C2015 H2000 0.930 . S
C2015 C2010 1.390 . S
C2015 C2014 1.387 . S
H2016 C2028 0.930 1_554 S
H2017 C2030 0.930 . S
H2018 C2031 0.930 . S
H2019 C2035 0.959 . S
H2020 C2035 0.959 . S
H2021 C2035 0.961 . S
H2022 C2036 0.960 . S
H2023 C2036 0.961 . S
H2024 C2036 0.959 . S
H2025 C2039 0.929 . S
H2026 C2040 0.931 . S
H2027 C2042 0.930 . S
C2028 H2016 0.930 1_556 S
C2028 C2029 1.399 1_556 S
C2028 C2033 1.399 . S
C2029 C2028 1.399 1_554 S
C2029 C2030 1.376 . S
C2030 H2017 0.930 . S
C2030 C2029 1.376 . S
C2030 C2031 1.388 1_554 S
C2031 H2018 0.930 . S
C2031 C2030 1.388 1_556 S
C2031 C2032 1.390 . S
C2032 C2031 1.390 . S
C2032 C2033 1.394 . S
C2032 C2038 1.465 . S
C2033 C2028 1.399 . S
C2033 C2032 1.394 . S
C2033 C2034 1.516 . S
C2034 C2033 1.516 . S
C2034 C2035 1.502 . S
C2034 C2036 1.561 . S
C2034 C2037 1.526 . S
C2035 H2019 0.959 . S
C2035 H2020 0.959 . S
C2035 H2021 0.961 . S
C2035 C2034 1.502 . S
C2036 H2022 0.960 . S
C2036 H2023 0.961 . S
C2036 H2024 0.959 . S
C2036 C2034 1.561 . S
C2037 C2034 1.526 . S
C2037 C2038 1.396 . S
C2037 C2042 1.390 . S
C2038 C2032 1.465 . S
C2038 C2037 1.396 . S
C2038 C2039 1.399 . S
C2039 H2025 0.929 . S
C2039 C2038 1.399 . S
C2039 C2040 1.385 . S
C2040 H2026 0.931 . S
C2040 C2039 1.385 . S
C2040 C2041 1.389 . S
C2041 C2040 1.389 . S
C2041 C2042 1.387 . S
C2042 H2027 0.930 . S
C2042 C2037 1.390 . S
C2042 C2041 1.387 . S
H2043 C2055 0.930 . S
H2044 C2057 0.930 . S
H2045 C2058 0.930 . S
H2046 C2062 0.959 . S
H2047 C2062 0.959 . S
H2048 C2062 0.961 . S
H2049 C2063 0.960 . S
H2050 C2063 0.961 . S
H2051 C2063 0.959 . S
H2052 C2066 0.929 . S
H2053 C2067 0.931 . S
H2054 C2069 0.930 . S
C2055 H2043 0.930 . S
C2055 C2056 1.399 . S
C2055 C2060 1.399 . S
C2056 C2055 1.399 . S
C2056 C2057 1.376 . S
C2057 H2044 0.930 . S
C2057 C2056 1.376 . S
C2057 C2058 1.388 . S
C2058 H2045 0.930 . S
C2058 C2057 1.388 . S
C2058 C2059 1.390 . S
C2059 C2058 1.390 . S
C2059 C2060 1.394 . S
C2059 C2065 1.465 . S
C2060 C2055 1.399 . S
C2060 C2059 1.394 . S
C2060 C2061 1.516 . S
C2061 C2060 1.516 . S
C2061 C2062 1.502 . S
C2061 C2063 1.561 . S
C2061 C2064 1.526 . S
C2062 H2046 0.959 . S
C2062 H2047 0.959 . S
C2062 H2048 0.961 . S
C2062 C2061 1.502 . S
C2063 H2049 0.960 . S
C2063 H2050 0.961 . S
C2063 H2051 0.959 . S
C2063 C2061 1.561 . S
C2064 C2061 1.526 . S
C2064 C2065 1.396 . S
C2064 C2069 1.390 . S
C2065 C2059 1.465 . S
C2065 C2064 1.396 . S
C2065 C2066 1.399 . S
C2066 H2052 0.929 . S
C2066 C2065 1.399 . S
C2066 C2067 1.385 . S
C2067 H2053 0.931 . S
C2067 C2066 1.385 . S
C2067 C2068 1.389 . S
C2068 C2067 1.389 . S
C2068 C2069 1.387 . S
C2069 H2054 0.930 . S
C2069 C2064 1.390 . S
C2069 C2068 1.387 . S
H2070 C2082 0.930 . S
H2071 C2084 0.930 . S
H2072 C2085 0.930 . S
H2073 C2089 0.959 . S
H2074 C2089 0.959 . S
H2075 C2089 0.961 . S
H2076 C2090 0.960 . S
H2077 C2090 0.961 . S
H2078 C2090 0.959 . S
H2079 C2093 0.929 . S
H2080 C2094 0.931 . S
H2081 C2096 0.930 . S
C2082 H2070 0.930 . S
C2082 C2083 1.399 . S
C2082 C2087 1.399 . S
C2083 C2082 1.399 . S
C2083 C2084 1.376 . S
C2084 H2071 0.930 . S
C2084 C2083 1.376 . S
C2084 C2085 1.388 . S
C2085 H2072 0.930 . S
C2085 C2084 1.388 . S
C2085 C2086 1.390 . S
C2086 C2085 1.390 . S
C2086 C2087 1.394 . S
C2086 C2092 1.465 . S
C2087 C2082 1.399 . S
C2087 C2086 1.394 . S
C2087 C2088 1.516 . S
C2088 C2087 1.516 . S
C2088 C2089 1.502 . S
C2088 C2090 1.561 . S
C2088 C2091 1.526 . S
C2089 H2073 0.959 . S
C2089 H2074 0.959 . S
C2089 H2075 0.961 . S
C2089 C2088 1.502 . S
C2090 H2076 0.960 . S
C2090 H2077 0.961 . S
C2090 H2078 0.959 . S
C2090 C2088 1.561 . S
C2091 C2088 1.526 . S
C2091 C2092 1.396 . S
C2091 C2096 1.390 . S
C2092 C2086 1.465 . S
C2092 C2091 1.396 . S
C2092 C2093 1.399 . S
C2093 H2079 0.929 . S
C2093 C2092 1.399 . S
C2093 C2094 1.385 . S
C2094 H2080 0.931 . S
C2094 C2093 1.385 . S
C2094 C2095 1.389 . S
C2095 C2094 1.389 . S
C2095 C2096 1.387 . S
C2096 H2081 0.930 . S
C2096 C2091 1.390 . S
C2096 C2095 1.387 . S
H2097 C2109 0.930 . S
H2098 C2111 0.930 . S
H2099 C2112 0.930 . S
H2100 C2116 0.959 . S
H2101 C2116 0.959 . S
H2102 C2116 0.961 . S
H2103 C2117 0.960 . S
H2104 C2117 0.961 . S
H2105 C2117 0.959 . S
H2106 C2120 0.929 . S
H2107 C2121 0.931 . S
H2108 C2123 0.930 . S
C2109 H2097 0.930 . S
C2109 C2110 1.399 . S
C2109 C2114 1.399 . S
C2110 C2109 1.399 . S
C2110 C2111 1.376 . S
C2111 H2098 0.930 . S
C2111 C2110 1.376 . S
C2111 C2112 1.388 . S
C2112 H2099 0.930 . S
C2112 C2111 1.388 . S
C2112 C2113 1.390 . S
C2113 C2112 1.390 . S
C2113 C2114 1.394 . S
C2113 C2119 1.465 . S
C2114 C2109 1.399 . S
C2114 C2113 1.394 . S
C2114 C2115 1.516 . S
C2115 C2114 1.516 . S
C2115 C2116 1.502 . S
C2115 C2117 1.561 . S
C2115 C2118 1.526 . S
C2116 H2100 0.959 . S
C2116 H2101 0.959 . S
C2116 H2102 0.961 . S
C2116 C2115 1.502 . S
C2117 H2103 0.960 . S
C2117 H2104 0.961 . S
C2117 H2105 0.959 . S
C2117 C2115 1.561 . S
C2118 C2115 1.526 . S
C2118 C2119 1.396 . S
C2118 C2123 1.390 . S
C2119 C2113 1.465 . S
C2119 C2118 1.396 . S
C2119 C2120 1.399 . S
C2120 H2106 0.929 . S
C2120 C2119 1.399 . S
C2120 C2121 1.385 . S
C2121 H2107 0.931 . S
C2121 C2120 1.385 . S
C2121 C2122 1.389 . S
C2122 C2121 1.389 . S
C2122 C2123 1.387 . S
C2123 H2108 0.930 . S
C2123 C2118 1.390 . S
C2123 C2122 1.387 . S
H2124 C2136 0.930 . S
H2125 C2138 0.930 . S
H2126 C2139 0.930 . S
H2127 C2143 0.959 . S
H2128 C2143 0.959 . S
H2129 C2143 0.961 . S
H2130 C2144 0.960 . S
H2131 C2144 0.961 . S
H2132 C2144 0.959 . S
H2133 C2147 0.929 . S
H2134 C2148 0.931 . S
H2135 C2150 0.930 1_556 S
C2136 H2124 0.930 . S
C2136 C2137 1.399 . S
C2136 C2141 1.399 . S
C2137 C2136 1.399 . S
C2137 C2138 1.376 . S
C2138 H2125 0.930 . S
C2138 C2137 1.376 . S
C2138 C2139 1.388 . S
C2139 H2126 0.930 . S
C2139 C2138 1.388 . S
C2139 C2140 1.390 . S
C2140 C2139 1.390 . S
C2140 C2141 1.394 . S
C2140 C2146 1.465 . S
C2141 C2136 1.399 . S
C2141 C2140 1.394 . S
C2141 C2142 1.516 . S
C2142 C2141 1.516 . S
C2142 C2143 1.502 . S
C2142 C2144 1.561 . S
C2142 C2145 1.526 . S
C2143 H2127 0.959 . S
C2143 H2128 0.959 . S
C2143 H2129 0.961 . S
C2143 C2142 1.502 . S
C2144 H2130 0.960 . S
C2144 H2131 0.961 . S
C2144 H2132 0.959 . S
C2144 C2142 1.561 . S
C2145 C2142 1.526 . S
C2145 C2146 1.396 . S
C2145 C2150 1.390 . S
C2146 C2140 1.465 . S
C2146 C2145 1.396 . S
C2146 C2147 1.399 . S
C2147 H2133 0.929 . S
C2147 C2146 1.399 . S
C2147 C2148 1.385 1_554 S
C2148 H2134 0.931 . S
C2148 C2147 1.385 1_556 S
C2148 C2149 1.389 . S
C2149 C2148 1.389 . S
C2149 C2150 1.387 1_556 S
C2150 H2135 0.930 1_554 S
C2150 C2145 1.390 . S
C2150 C2149 1.387 1_554 S
H2151 C2163 0.930 . S
H2152 C2165 0.930 . S
H2153 C2166 0.930 . S
H2154 C2170 0.959 . S
H2155 C2170 0.959 . S
H2156 C2170 0.961 . S
H2157 C2171 0.960 . S
H2158 C2171 0.961 . S
H2159 C2171 0.959 . S
H2160 C2174 0.929 . S
H2161 C2175 0.931 . S
H2162 C2177 0.939 . S
C2163 H2151 0.930 . S
C2163 C2164 1.399 . S
C2163 C2168 1.399 . S
C2164 C2163 1.399 . S
C2164 C2165 1.376 . S
C2165 H2152 0.930 . S
C2165 C2164 1.376 . S
C2165 C2166 1.388 . S
C2166 H2153 0.930 . S
C2166 C2165 1.388 . S
C2166 C2167 1.390 . S
C2167 C2166 1.390 . S
C2167 C2168 1.394 . S
C2167 C2173 1.465 . S
C2168 C2163 1.399 . S
C2168 C2167 1.394 . S
C2168 C2169 1.516 . S
C2169 C2168 1.516 . S
C2169 C2170 1.502 . S
C2169 C2171 1.561 . S
C2169 C2172 1.526 . S
C2170 H2154 0.959 . S
C2170 H2155 0.959 . S
C2170 H2156 0.961 . S
C2170 C2169 1.502 . S
C2171 H2157 0.960 . S
C2171 H2158 0.961 . S
C2171 H2159 0.959 . S
C2171 C2169 1.561 . S
C2172 C2169 1.526 . S
C2172 C2173 1.396 . S
C2172 C2177 1.366 1_554 S
C2173 C2167 1.465 . S
C2173 C2172 1.396 . S
C2173 C2174 1.399 . S
C2174 H2160 0.929 . S
C2174 C2173 1.399 . S
C2174 C2175 1.385 1_554 S
C2175 H2161 0.931 . S
C2175 C2174 1.385 1_556 S
C2175 C2176 1.389 . S
C2176 C2175 1.389 . S
C2176 C2177 1.401 . S
C2177 H2162 0.939 . S
C2177 C2172 1.366 1_556 S
C2177 C2176 1.401 . S
H2178 C2190 0.930 . S
H2179 C2192 0.930 . S
H2180 C2193 0.930 . S
H2181 C2197 0.959 . S
H2182 C2197 0.959 . S
H2183 C2197 0.961 . S
H2184 C2198 0.960 . S
H2185 C2198 0.961 . S
H2186 C2198 0.959 . S
H2187 C2201 0.929 . S
H2188 C2202 0.931 . S
H2189 C2204 0.930 1_556 S
C2190 H2178 0.930 . S
C2190 C2191 1.399 . S
C2190 C2195 1.399 . S
C2191 C2190 1.399 . S
C2191 C2192 1.376 . S
C2192 H2179 0.930 . S
C2192 C2191 1.376 . S
C2192 C2193 1.388 . S
C2193 H2180 0.930 . S
C2193 C2192 1.388 . S
C2193 C2194 1.390 . S
C2194 C2193 1.390 . S
C2194 C2195 1.394 . S
C2194 C2200 1.465 . S
C2195 C2190 1.399 . S
C2195 C2194 1.394 . S
C2195 C2196 1.516 . S
C2196 C2195 1.516 . S
C2196 C2197 1.502 . S
C2196 C2198 1.561 . S
C2196 C2199 1.526 . S
C2197 H2181 0.959 . S
C2197 H2182 0.959 . S
C2197 H2183 0.961 . S
C2197 C2196 1.502 . S
C2198 H2184 0.960 . S
C2198 H2185 0.961 . S
C2198 H2186 0.959 . S
C2198 C2196 1.561 . S
C2199 C2196 1.526 . S
C2199 C2200 1.396 . S
C2199 C2204 1.390 . S
C2200 C2194 1.465 . S
C2200 C2199 1.396 . S
C2200 C2201 1.399 . S
C2201 H2187 0.929 . S
C2201 C2200 1.399 . S
C2201 C2202 1.385 1_554 S
C2202 H2188 0.931 . S
C2202 C2201 1.385 1_556 S
C2202 C2203 1.389 . S
C2203 C2202 1.389 . S
C2203 C2204 1.387 1_556 S
C2204 H2189 0.930 1_554 S
C2204 C2199 1.390 . S
C2204 C2203 1.387 1_554 S
H2205 C2217 0.930 . S
H2206 C2219 0.930 . S
H2207 C2220 0.930 . S
H2208 C2224 0.959 . S
H2209 C2224 0.959 . S
H2210 C2224 0.961 . S
H2211 C2225 0.960 . S
H2212 C2225 0.961 . S
H2213 C2225 0.959 . S
H2214 C2228 0.929 . S
H2215 C2229 0.931 . S
H2216 C2231 0.930 . S
C2217 H2205 0.930 . S
C2217 C2218 1.399 . S
C2217 C2222 1.399 . S
C2218 C2217 1.399 . S
C2218 C2219 1.376 . S
C2219 H2206 0.930 . S
C2219 C2218 1.376 . S
C2219 C2220 1.388 . S
C2220 H2207 0.930 . S
C2220 C2219 1.388 . S
C2220 C2221 1.390 . S
C2221 C2220 1.390 . S
C2221 C2222 1.394 . S
C2221 C2227 1.465 . S
C2222 C2217 1.399 . S
C2222 C2221 1.394 . S
C2222 C2223 1.516 . S
C2223 C2222 1.516 . S
C2223 C2224 1.502 . S
C2223 C2225 1.561 . S
C2223 C2226 1.526 . S
C2224 H2208 0.959 . S
C2224 H2209 0.959 . S
C2224 H2210 0.961 . S
C2224 C2223 1.502 . S
C2225 H2211 0.960 . S
C2225 H2212 0.961 . S
C2225 H2213 0.959 . S
C2225 C2223 1.561 . S
C2226 C2223 1.526 . S
C2226 C2227 1.396 . S
C2226 C2231 1.390 . S
C2227 C2221 1.465 . S
C2227 C2226 1.396 . S
C2227 C2228 1.399 . S
C2228 H2214 0.929 . S
C2228 C2227 1.399 . S
C2228 C2229 1.385 . S
C2229 H2215 0.931 . S
C2229 C2228 1.385 . S
C2229 C2230 1.389 . S
C2230 C2229 1.389 . S
C2230 C2231 1.387 . S
C2231 H2216 0.930 . S
C2231 C2226 1.390 . S
C2231 C2230 1.387 . S
H2232 C2244 0.930 . S
H2233 C2246 0.930 . S
H2234 C2247 0.930 . S
H2235 C2251 0.959 . S
H2236 C2251 0.959 . S
H2237 C2251 0.961 . S
H2238 C2252 0.960 . S
H2239 C2252 0.961 . S
H2240 C2252 0.959 . S
H2241 C2255 0.929 . S
H2242 C2256 0.931 . S
H2243 C2258 0.930 . S
C2244 H2232 0.930 . S
C2244 C2245 1.399 . S
C2244 C2249 1.399 . S
C2245 C2244 1.399 . S
C2245 C2246 1.376 . S
C2246 H2233 0.930 . S
C2246 C2245 1.376 . S
C2246 C2247 1.388 . S
C2247 H2234 0.930 . S
C2247 C2246 1.388 . S
C2247 C2248 1.390 . S
C2248 C2247 1.390 . S
C2248 C2249 1.394 . S
C2248 C2254 1.465 . S
C2249 C2244 1.399 . S
C2249 C2248 1.394 . S
C2249 C2250 1.516 . S
C2250 C2249 1.516 . S
C2250 C2251 1.502 . S
C2250 C2252 1.561 . S
C2250 C2253 1.526 . S
C2251 H2235 0.959 . S
C2251 H2236 0.959 . S
C2251 H2237 0.961 . S
C2251 C2250 1.502 . S
C2252 H2238 0.960 . S
C2252 H2239 0.961 . S
C2252 H2240 0.959 . S
C2252 C2250 1.561 . S
C2253 C2250 1.526 . S
C2253 C2254 1.396 . S
C2253 C2258 1.390 . S
C2254 C2248 1.465 . S
C2254 C2253 1.396 . S
C2254 C2255 1.399 . S
C2255 H2241 0.929 . S
C2255 C2254 1.399 . S
C2255 C2256 1.385 . S
C2256 H2242 0.931 . S
C2256 C2255 1.385 . S
C2256 C2257 1.389 . S
C2257 C2256 1.389 . S
C2257 C2258 1.387 . S
C2258 H2243 0.930 . S
C2258 C2253 1.390 . S
C2258 C2257 1.387 . S
H2259 C2271 0.930 . S
H2260 C2273 0.930 . S
H2261 C2274 0.930 . S
H2262 C2278 0.959 . S
H2263 C2278 0.959 . S
H2264 C2278 0.961 . S
H2265 C2279 0.960 . S
H2266 C2279 0.961 . S
H2267 C2279 0.959 . S
H2268 C2282 0.929 . S
H2269 C2283 0.931 . S
H2270 C2285 0.930 . S
C2271 H2259 0.930 . S
C2271 C2272 1.399 . S
C2271 C2276 1.399 . S
C2272 C2271 1.399 . S
C2272 C2273 1.376 . S
C2273 H2260 0.930 . S
C2273 C2272 1.376 . S
C2273 C2274 1.388 . S
C2274 H2261 0.930 . S
C2274 C2273 1.388 . S
C2274 C2275 1.390 . S
C2275 C2274 1.390 . S
C2275 C2276 1.394 . S
C2275 C2281 1.465 . S
C2276 C2271 1.399 . S
C2276 C2275 1.394 . S
C2276 C2277 1.516 . S
C2277 C2276 1.516 . S
C2277 C2278 1.502 . S
C2277 C2279 1.561 . S
C2277 C2280 1.526 . S
C2278 H2262 0.959 . S
C2278 H2263 0.959 . S
C2278 H2264 0.961 . S
C2278 C2277 1.502 . S
C2279 H2265 0.960 . S
C2279 H2266 0.961 . S
C2279 H2267 0.959 . S
C2279 C2277 1.561 . S
C2280 C2277 1.526 . S
C2280 C2281 1.396 . S
C2280 C2285 1.390 . S
C2281 C2275 1.465 . S
C2281 C2280 1.396 . S
C2281 C2282 1.399 . S
C2282 H2268 0.929 . S
C2282 C2281 1.399 . S
C2282 C2283 1.385 . S
C2283 H2269 0.931 . S
C2283 C2282 1.385 . S
C2283 C2284 1.389 . S
C2284 C2283 1.389 . S
C2284 C2285 1.387 . S
C2285 H2270 0.930 . S
C2285 C2280 1.390 . S
C2285 C2284 1.387 . S
H2286 C2298 0.930 . S
H2287 C2300 0.930 . S
H2288 C2301 0.930 . S
H2289 C2305 0.959 . S
H2290 C2305 0.959 . S
H2291 C2305 0.961 . S
H2292 C2306 0.960 . S
H2293 C2306 0.961 . S
H2294 C2306 0.959 1_655 S
H2295 C2309 0.929 . S
H2296 C2310 0.931 . S
H2297 C2312 0.930 . S
C2298 H2286 0.930 . S
C2298 C2299 1.399 1_455 S
C2298 C2303 1.399 . S
C2299 C2298 1.399 1_655 S
C2299 C2300 1.376 . S
C2300 H2287 0.930 . S
C2300 C2299 1.376 . S
C2300 C2301 1.388 . S
C2301 H2288 0.930 . S
C2301 C2300 1.388 . S
C2301 C2302 1.390 . S
C2302 C2301 1.390 . S
C2302 C2303 1.394 1_655 S
C2302 C2308 1.465 . S
C2303 C2298 1.399 . S
C2303 C2302 1.394 1_455 S
C2303 C2304 1.516 . S
C2304 C2303 1.516 . S
C2304 C2305 1.502 . S
C2304 C2306 1.561 . S
C2304 C2307 1.526 . S
C2305 H2289 0.959 . S
C2305 H2290 0.959 . S
C2305 H2291 0.961 . S
C2305 C2304 1.502 . S
C2306 H2292 0.960 . S
C2306 H2293 0.961 . S
C2306 H2294 0.959 1_455 S
C2306 C2304 1.561 . S
C2307 C2304 1.526 . S
C2307 C2308 1.396 1_455 S
C2307 C2312 1.390 . S
C2308 C2302 1.465 . S
C2308 C2307 1.396 1_655 S
C2308 C2309 1.399 . S
C2309 H2295 0.929 . S
C2309 C2308 1.399 . S
C2309 C2310 1.385 . S
C2310 H2296 0.931 . S
C2310 C2309 1.385 . S
C2310 C2311 1.389 1_655 S
C2311 C2310 1.389 1_455 S
C2311 C2312 1.387 . S
C2312 H2297 0.930 . S
C2312 C2307 1.390 . S
C2312 C2311 1.387 . S
H2313 C2325 0.930 . S
H2314 C2327 0.930 . S
H2315 C2328 0.930 . S
H2316 C2332 0.959 . S
H2317 C2332 0.959 . S
H2318 C2332 0.961 . S
H2319 C2333 0.960 . S
H2320 C2333 0.961 . S
H2321 C2333 0.959 . S
H2322 C2336 0.929 . S
H2323 C2337 0.931 . S
H2324 C2339 0.930 . S
C2325 H2313 0.930 . S
C2325 C2326 1.399 . S
C2325 C2330 1.399 . S
C2326 C2325 1.399 . S
C2326 C2327 1.376 . S
C2327 H2314 0.930 . S
C2327 C2326 1.376 . S
C2327 C2328 1.388 . S
C2328 H2315 0.930 . S
C2328 C2327 1.388 . S
C2328 C2329 1.390 . S
C2329 C2328 1.390 . S
C2329 C2330 1.394 . S
C2329 C2335 1.465 . S
C2330 C2325 1.399 . S
C2330 C2329 1.394 . S
C2330 C2331 1.516 . S
C2331 C2330 1.516 . S
C2331 C2332 1.502 . S
C2331 C2333 1.561 . S
C2331 C2334 1.526 . S
C2332 H2316 0.959 . S
C2332 H2317 0.959 . S
C2332 H2318 0.961 . S
C2332 C2331 1.502 . S
C2333 H2319 0.960 . S
C2333 H2320 0.961 . S
C2333 H2321 0.959 . S
C2333 C2331 1.561 . S
C2334 C2331 1.526 . S
C2334 C2335 1.396 . S
C2334 C2339 1.390 . S
C2335 C2329 1.465 . S
C2335 C2334 1.396 . S
C2335 C2336 1.399 . S
C2336 H2322 0.929 . S
C2336 C2335 1.399 . S
C2336 C2337 1.385 . S
C2337 H2323 0.931 . S
C2337 C2336 1.385 . S
C2337 C2338 1.389 . S
C2338 C2337 1.389 . S
C2338 C2339 1.387 . S
C2339 H2324 0.930 . S
C2339 C2334 1.390 . S
C2339 C2338 1.387 . S
H2340 C2352 0.930 . S
H2341 C2354 0.930 . S
H2342 C2355 0.930 . S
H2343 C2359 0.959 . S
H2344 C2359 0.959 . S
H2345 C2359 0.961 . S
H2346 C2360 0.960 . S
H2347 C2360 0.961 . S
H2348 C2360 0.959 . S
H2349 C2363 0.929 . S
H2350 C2364 0.931 . S
H2351 C2366 0.930 . S
C2352 H2340 0.930 . S
C2352 C2353 1.399 . S
C2352 C2357 1.399 . S
C2353 C2352 1.399 . S
C2353 C2354 1.376 1_565 S
C2354 H2341 0.930 . S
C2354 C2353 1.376 1_545 S
C2354 C2355 1.388 . S
C2355 H2342 0.930 . S
C2355 C2354 1.388 . S
C2355 C2356 1.390 . S
C2356 C2355 1.390 . S
C2356 C2357 1.394 1_545 S
C2356 C2362 1.465 . S
C2357 C2352 1.399 . S
C2357 C2356 1.394 1_565 S
C2357 C2358 1.516 . S
C2358 C2357 1.516 . S
C2358 C2359 1.502 . S
C2358 C2360 1.561 . S
C2358 C2361 1.526 . S
C2359 H2343 0.959 . S
C2359 H2344 0.959 . S
C2359 H2345 0.961 . S
C2359 C2358 1.502 . S
C2360 H2346 0.960 . S
C2360 H2347 0.961 . S
C2360 H2348 0.959 . S
C2360 C2358 1.561 . S
C2361 C2358 1.526 . S
C2361 C2362 1.396 1_565 S
C2361 C2366 1.390 . S
C2362 C2356 1.465 . S
C2362 C2361 1.396 1_545 S
C2362 C2363 1.399 . S
C2363 H2349 0.929 . S
C2363 C2362 1.399 . S
C2363 C2364 1.385 . S
C2364 H2350 0.931 . S
C2364 C2363 1.385 . S
C2364 C2365 1.389 . S
C2365 C2364 1.389 . S
C2365 C2366 1.387 1_545 S
C2366 H2351 0.930 . S
C2366 C2361 1.390 . S
C2366 C2365 1.387 1_565 S
H2367 C2379 0.930 . S
H2368 C2381 0.930 . S
H2369 C2382 0.930 . S
H2370 C2386 0.959 . S
H2371 C2386 0.959 . S
H2372 C2386 0.961 . S
H2373 C2387 0.960 . S
H2374 C2387 0.961 . S
H2375 C2387 0.959 . S
H2376 C2390 0.929 . S
H2377 C2391 0.931 . S
H2378 C2393 0.930 . S
C2379 H2367 0.930 . S
C2379 C2380 1.399 . S
C2379 C2384 1.399 . S
C2380 C2379 1.399 . S
C2380 C2381 1.376 1_565 S
C2381 H2368 0.930 . S
C2381 C2380 1.376 1_545 S
C2381 C2382 1.388 . S
C2382 H2369 0.930 . S
C2382 C2381 1.388 . S
C2382 C2383 1.390 . S
C2383 C2382 1.390 . S
C2383 C2384 1.394 1_545 S
C2383 C2389 1.465 . S
C2384 C2379 1.399 . S
C2384 C2383 1.394 1_565 S
C2384 C2385 1.516 . S
C2385 C2384 1.516 . S
C2385 C2386 1.502 . S
C2385 C2387 1.561 . S
C2385 C2388 1.526 . S
C2386 H2370 0.959 . S
C2386 H2371 0.959 . S
C2386 H2372 0.961 . S
C2386 C2385 1.502 . S
C2387 H2373 0.960 . S
C2387 H2374 0.961 . S
C2387 H2375 0.959 . S
C2387 C2385 1.561 . S
C2388 C2385 1.526 . S
C2388 C2389 1.396 1_565 S
C2388 C2393 1.390 . S
C2389 C2383 1.465 . S
C2389 C2388 1.396 1_545 S
C2389 C2390 1.399 . S
C2390 H2376 0.929 . S
C2390 C2389 1.399 . S
C2390 C2391 1.385 . S
C2391 H2377 0.931 . S
C2391 C2390 1.385 . S
C2391 C2392 1.389 . S
C2392 C2391 1.389 . S
C2392 C2393 1.387 1_545 S
C2393 H2378 0.930 . S
C2393 C2388 1.390 . S
C2393 C2392 1.387 1_565 S
H2394 C2406 0.930 . S
H2395 C2408 0.930 . S
H2396 C2409 0.930 . S
H2397 C2413 0.959 . S
H2398 C2413 0.959 . S
H2399 C2413 0.961 . S
H2400 C2414 0.960 . S
H2401 C2414 0.961 . S
H2402 C2414 0.959 1_455 S
H2403 C2417 0.929 . S
H2404 C2418 0.931 . S
H2405 C2420 0.930 . S
C2406 H2394 0.930 . S
C2406 C2407 1.399 . S
C2406 C2411 1.399 . S
C2407 C2406 1.399 . S
C2407 C2408 1.376 1_655 S
C2408 H2395 0.930 . S
C2408 C2407 1.376 1_455 S
C2408 C2409 1.388 . S
C2409 H2396 0.930 . S
C2409 C2408 1.388 . S
C2409 C2410 1.390 . S
C2410 C2409 1.390 . S
C2410 C2411 1.394 1_455 S
C2410 C2416 1.465 . S
C2411 C2406 1.399 . S
C2411 C2410 1.394 1_655 S
C2411 C2412 1.516 . S
C2412 C2411 1.516 . S
C2412 C2413 1.502 . S
C2412 C2414 1.561 . S
C2412 C2415 1.526 . S
C2413 H2397 0.959 . S
C2413 H2398 0.959 . S
C2413 H2399 0.961 . S
C2413 C2412 1.502 . S
C2414 H2400 0.960 . S
C2414 H2401 0.961 . S
C2414 H2402 0.959 1_655 S
C2414 C2412 1.561 . S
C2415 C2412 1.526 . S
C2415 C2416 1.396 1_655 S
C2415 C2420 1.390 . S
C2416 C2410 1.465 . S
C2416 C2415 1.396 1_455 S
C2416 C2417 1.399 . S
C2417 H2403 0.929 . S
C2417 C2416 1.399 . S
C2417 C2418 1.385 . S
C2418 H2404 0.931 . S
C2418 C2417 1.385 . S
C2418 C2419 1.389 . S
C2419 C2418 1.389 . S
C2419 C2420 1.387 1_455 S
C2420 H2405 0.930 . S
C2420 C2415 1.390 . S
C2420 C2419 1.387 1_655 S
H2421 C2433 0.930 . S
H2422 C2435 0.930 . S
H2423 C2436 0.930 . S
H2424 C2440 0.959 . S
H2425 C2440 0.959 . S
H2426 C2440 0.961 . S
H2427 C2441 0.960 . S
H2428 C2441 0.961 . S
H2429 C2441 0.959 . S
H2430 C2444 0.929 . S
H2431 C2445 0.931 . S
H2432 C2447 0.930 . S
C2433 H2421 0.930 . S
C2433 C2434 1.399 . S
C2433 C2438 1.399 . S
C2434 C2433 1.399 . S
C2434 C2435 1.376 . S
C2435 H2422 0.930 . S
C2435 C2434 1.376 . S
C2435 C2436 1.388 . S
C2436 H2423 0.930 . S
C2436 C2435 1.388 . S
C2436 C2437 1.390 . S
C2437 C2436 1.390 . S
C2437 C2438 1.394 . S
C2437 C2443 1.465 . S
C2438 C2433 1.399 . S
C2438 C2437 1.394 . S
C2438 C2439 1.516 . S
C2439 C2438 1.516 . S
C2439 C2440 1.502 . S
C2439 C2441 1.561 . S
C2439 C2442 1.526 . S
C2440 H2424 0.959 . S
C2440 H2425 0.959 . S
C2440 H2426 0.961 . S
C2440 C2439 1.502 . S
C2441 H2427 0.960 . S
C2441 H2428 0.961 . S
C2441 H2429 0.959 . S
C2441 C2439 1.561 . S
C2442 C2439 1.526 . S
C2442 C2443 1.396 . S
C2442 C2447 1.390 . S
C2443 C2437 1.465 . S
C2443 C2442 1.396 . S
C2443 C2444 1.399 . S
C2444 H2430 0.929 . S
C2444 C2443 1.399 . S
C2444 C2445 1.385 . S
C2445 H2431 0.931 . S
C2445 C2444 1.385 . S
C2445 C2446 1.389 . S
C2446 C2445 1.389 . S
C2446 C2447 1.387 . S
C2447 H2432 0.930 . S
C2447 C2442 1.390 . S
C2447 C2446 1.387 . S
C517 C224 1.823 . S
C529 C13 1.825 . S
C544 C250 1.834 . S
C556 C15 1.824 . S
C571 C223 1.828 . S
C583 C29 1.837 . S
C598 C365 1.790 . S
C610 C55 1.793 . S
C625 C57 1.804 . S
C637 C349 1.800 . S
C652 C83 1.804 . S
C664 C350 1.798 . S
C679 C97 1.832 . S
C691 C476 1.834 . S
C706 C502 1.831 . S
C718 C99 1.834 . S
C733 C462 1.821 . S
C745 C112 1.833 . S
C760 C127 1.790 . S
C772 C293 1.801 . S
C787 C252 1.796 . S
C799 C140 1.791 . S
C814 C167 1.800 . S
C826 C267 1.801 . S
C841 C405 1.711 . S
C853 C168 1.716 . S
C868 C195 1.715 . S
C880 C407 1.711 . S
C895 C379 1.718 . S
C907 C197 1.726 . S
C922 C460 1.712 . S
C934 C295 1.721 . S
C949 C421 1.723 . S
C961 C320 1.723 . S
C976 C335 1.724 . S
C988 C435 1.723 . S
C1003 C265 1.760 . S
C1015 C0 1.758 . S
C1030 C278 1.767 . S
C1042 C26 1.767 . S
C1057 C280 1.760 . S
C1069 C40 1.773 . S
C1084 C42 1.739 . S
C1096 C475 1.784 . S
C1111 C68 1.738 . S
C1123 C489 1.786 . S
C1138 C70 1.736 . S
C1150 C491 1.790 . S
C1165 C84 1.787 . S
C1177 C336 1.737 . S
C1192 C363 1.735 . S
C1204 C110 1.784 . S
C1219 C376 1.791 . S
C1231 C125 1.736 . S
C1246 C210 1.790 . S
C1258 C138 1.742 . S
C1273 C153 1.770 . S
C1285 C237 1.765 . S
C1300 C154 1.737 . S
C1312 C239 1.781 . S
C1327 C181 1.783 . S
C1339 C432 1.737 . S
C1354 C446 1.761 . S
C1366 C182 1.765 . S
C1381 C449 1.776 . S
C1393 C208 1.751 . S
C1408 C390 1.749 . S
C1420 C306 1.797 . S
C1435 C309 1.753 . S
C1447 C392 1.783 . S
C1462 C322 1.799 . S
C1474 C418 1.745 . S
C1489 C391 1.789 . S
C1501 C1 1.796 . S
C1516 C27 1.782 . S
C1528 C393 1.794 . S
C1543 C41 1.764 . S
C1555 C419 1.766 . S
C1570 C180 1.761 . S
C1582 C43 1.757 . S
C1597 C69 1.754 . S
C1609 C183 1.759 . S
C1624 C71 1.757 . S
C1636 C209 1.752 . S
C1651 C307 1.789 . S
C1663 C85 1.768 . S
C1678 C111 1.766 . S
C1690 C308 1.771 . S
C1705 C323 1.778 . S
C1717 C124 1.763 . S
C1732 C139 1.763 . S
C1744 C433 1.751 . S
C1759 C447 1.762 . S
C1771 C152 1.750 . S
C1786 C448 1.735 . S
C1798 C155 1.751 . S
C1813 C337 1.762 . S
C1825 C211 1.754 . S
C1840 C362 1.757 . S
C1852 C236 1.751 . S
C1867 C377 1.747 . S
C1879 C238 1.751 . S
C1894 C264 1.754 . S
C1906 C474 1.747 . S
C1921 C488 1.778 . S
C1933 C279 1.766 . S
C1948 C490 1.778 . S
C1960 C281 1.765 . S
C1975 C12 0.955 . S
C1987 C225 0.941 . S
C2002 C14 0.954 . S
C2014 C251 0.934 . S
C2029 C28 0.940 . S
C2041 C222 0.956 . S
C2056 C364 0.975 . S
C2068 C54 0.989 . S
C2083 C348 0.985 . S
C2095 C56 0.983 . S
C2110 C351 0.959 . S
C2122 C82 0.977 . S
C2137 C477 0.946 . S
C2149 C96 0.948 . S
C2164 C503 0.933 . S
C2176 C98 0.955 . S
C2191 C463 0.956 . S
C2203 C113 0.936 . S
C2218 C126 0.958 . S
C2230 C292 0.981 . S
C2245 C141 0.959 . S
C2257 C253 0.978 . S
C2272 C166 0.962 . S
C2284 C266 0.989 . S
C2299 C404 1.071 . S
C2311 C169 1.053 . S
C2326 C406 1.044 . S
C2338 C194 1.054 . S
C2353 C196 1.053 . S
C2365 C378 1.075 . S
C2380 C294 1.041 . S
C2392 C461 1.067 . S
C2407 C420 1.045 . S
C2419 C321 1.074 . S
C2434 C434 1.060 . S
C2446 C334 1.068 . S
