# Generated by pormake.
# Topology vbr, (6)-cn, num edge types: 1
# Building blocks:
#     Node 0, Type 0, BuildingBlock: IZENUY_clean_sbu_0, # of connection points: 6
#     Node 1, Type 0, BuildingBlock: IZENUY_clean_sbu_0, # of connection points: 6
#     Node 2, Type 0, BuildingBlock: IZENUY_clean_sbu_0, # of connection points: 6
#     Node 3, Type 0, BuildingBlock: IZENUY_clean_sbu_0, # of connection points: 6
#     Node 4, Type 0, BuildingBlock: IZENUY_clean_sbu_0, # of connection points: 6
#     Node 5, Type 0, BuildingBlock: IZENUY_clean_sbu_0, # of connection points: 6
#     Node 6, Type 0, BuildingBlock: IZENUY_clean_sbu_0, # of connection points: 6
#     Node 7, Type 0, BuildingBlock: IZENUY_clean_sbu_0, # of connection points: 6
#     Node 8, Type 0, BuildingBlock: IZENUY_clean_sbu_0, # of connection points: 6
#     Node 9, Type 0, BuildingBlock: IZENUY_clean_sbu_0, # of connection points: 6
#     Node 10, Type 0, BuildingBlock: IZENUY_clean_sbu_0, # of connection points: 6
#     Node 11, Type 0, BuildingBlock: IZENUY_clean_sbu_0, # of connection points: 6
#     Node 12, Type 0, BuildingBlock: IZENUY_clean_sbu_0, # of connection points: 6
#     Node 13, Type 0, BuildingBlock: IZENUY_clean_sbu_0, # of connection points: 6
#     Node 14, Type 0, BuildingBlock: IZENUY_clean_sbu_0, # of connection points: 6
#     Node 15, Type 0, BuildingBlock: IZENUY_clean_sbu_0, # of connection points: 6
#     Edge 16, Type (0, 0), BuildingBlock: CIFDUS_clean_linker_0, # of connection points: 2
#     Edge 17, Type (0, 0), BuildingBlock: CIFDUS_clean_linker_0, # of connection points: 2
#     Edge 18, Type (0, 0), BuildingBlock: CIFDUS_clean_linker_0, # of connection points: 2
#     Edge 19, Type (0, 0), BuildingBlock: CIFDUS_clean_linker_0, # of connection points: 2
#     Edge 20, Type (0, 0), BuildingBlock: CIFDUS_clean_linker_0, # of connection points: 2
#     Edge 21, Type (0, 0), BuildingBlock: CIFDUS_clean_linker_0, # of connection points: 2
#     Edge 22, Type (0, 0), BuildingBlock: CIFDUS_clean_linker_0, # of connection points: 2
#     Edge 23, Type (0, 0), BuildingBlock: CIFDUS_clean_linker_0, # of connection points: 2
#     Edge 24, Type (0, 0), BuildingBlock: CIFDUS_clean_linker_0, # of connection points: 2
#     Edge 25, Type (0, 0), BuildingBlock: CIFDUS_clean_linker_0, # of connection points: 2
#     Edge 26, Type (0, 0), BuildingBlock: CIFDUS_clean_linker_0, # of connection points: 2
#     Edge 27, Type (0, 0), BuildingBlock: CIFDUS_clean_linker_0, # of connection points: 2
#     Edge 28, Type (0, 0), BuildingBlock: CIFDUS_clean_linker_0, # of connection points: 2
#     Edge 29, Type (0, 0), BuildingBlock: CIFDUS_clean_linker_0, # of connection points: 2
#     Edge 30, Type (0, 0), BuildingBlock: CIFDUS_clean_linker_0, # of connection points: 2
#     Edge 31, Type (0, 0), BuildingBlock: CIFDUS_clean_linker_0, # of connection points: 2
#     Edge 32, Type (0, 0), BuildingBlock: CIFDUS_clean_linker_0, # of connection points: 2
#     Edge 33, Type (0, 0), BuildingBlock: CIFDUS_clean_linker_0, # of connection points: 2
#     Edge 34, Type (0, 0), BuildingBlock: CIFDUS_clean_linker_0, # of connection points: 2
#     Edge 35, Type (0, 0), BuildingBlock: CIFDUS_clean_linker_0, # of connection points: 2
#     Edge 36, Type (0, 0), BuildingBlock: CIFDUS_clean_linker_0, # of connection points: 2
#     Edge 37, Type (0, 0), BuildingBlock: CIFDUS_clean_linker_0, # of connection points: 2
#     Edge 38, Type (0, 0), BuildingBlock: CIFDUS_clean_linker_0, # of connection points: 2
#     Edge 39, Type (0, 0), BuildingBlock: CIFDUS_clean_linker_0, # of connection points: 2
#     Edge 40, Type (0, 0), BuildingBlock: CIFDUS_clean_linker_0, # of connection points: 2
#     Edge 41, Type (0, 0), BuildingBlock: CIFDUS_clean_linker_0, # of connection points: 2
#     Edge 42, Type (0, 0), BuildingBlock: CIFDUS_clean_linker_0, # of connection points: 2
#     Edge 43, Type (0, 0), BuildingBlock: CIFDUS_clean_linker_0, # of connection points: 2
#     Edge 44, Type (0, 0), BuildingBlock: CIFDUS_clean_linker_0, # of connection points: 2
#     Edge 45, Type (0, 0), BuildingBlock: CIFDUS_clean_linker_0, # of connection points: 2
#     Edge 46, Type (0, 0), BuildingBlock: CIFDUS_clean_linker_0, # of connection points: 2
#     Edge 47, Type (0, 0), BuildingBlock: CIFDUS_clean_linker_0, # of connection points: 2
#     Edge 48, Type (0, 0), BuildingBlock: CIFDUS_clean_linker_0, # of connection points: 2
#     Edge 49, Type (0, 0), BuildingBlock: CIFDUS_clean_linker_0, # of connection points: 2
#     Edge 50, Type (0, 0), BuildingBlock: CIFDUS_clean_linker_0, # of connection points: 2
#     Edge 51, Type (0, 0), BuildingBlock: CIFDUS_clean_linker_0, # of connection points: 2
#     Edge 52, Type (0, 0), BuildingBlock: CIFDUS_clean_linker_0, # of connection points: 2
#     Edge 53, Type (0, 0), BuildingBlock: CIFDUS_clean_linker_0, # of connection points: 2
#     Edge 54, Type (0, 0), BuildingBlock: CIFDUS_clean_linker_0, # of connection points: 2
#     Edge 55, Type (0, 0), BuildingBlock: CIFDUS_clean_linker_0, # of connection points: 2
#     Edge 56, Type (0, 0), BuildingBlock: CIFDUS_clean_linker_0, # of connection points: 2
#     Edge 57, Type (0, 0), BuildingBlock: CIFDUS_clean_linker_0, # of connection points: 2
#     Edge 58, Type (0, 0), BuildingBlock: CIFDUS_clean_linker_0, # of connection points: 2
#     Edge 59, Type (0, 0), BuildingBlock: CIFDUS_clean_linker_0, # of connection points: 2
#     Edge 60, Type (0, 0), BuildingBlock: CIFDUS_clean_linker_0, # of connection points: 2
#     Edge 61, Type (0, 0), BuildingBlock: CIFDUS_clean_linker_0, # of connection points: 2
#     Edge 62, Type (0, 0), BuildingBlock: CIFDUS_clean_linker_0, # of connection points: 2
#     Edge 63, Type (0, 0), BuildingBlock: CIFDUS_clean_linker_0, # of connection points: 2
# Relax obj value: 0.289
# Max RMSD: 0.272
# Mean RMSD: 0.272
data_MOF--net-vbr--node1-IZENUY_clean_sbu_0--edge1-CIFDUS_clean_linker_0
_symmetry_space_group_name_H-M    P1
_symmetry_Int_Tables_number       1
_symmetry_cell_setting            triclinic
loop_
_symmetry_equiv_pos_as_xyz
'x, y, z'
_cell_length_a     38.030232
_cell_length_b     25.217581
_cell_length_c     47.543801
_cell_angle_alpha  89.834493
_cell_angle_beta   89.859313
_cell_angle_gamma 90.195785
loop_
_atom_site_label
_atom_site_type_symbol
_atom_site_fract_x
_atom_site_fract_y
_atom_site_fract_z
_atom_type_partial_charge
Fe0 Fe 0.36457 0.18015 0.10999 0.0
Fe1 Fe 0.36076 0.07882 0.14631 0.0
O2 O 0.33965 0.1354 0.13146 0.0
Fe3 Fe 0.29394 0.14785 0.13664 0.0
O4 O 0.2852 0.15026 0.09882 0.0
O5 O 0.32837 0.20404 0.0892 0.0
O6 O 0.37124 0.12875 0.08394 0.0
C7 C 0.38269 0.08249 0.08857 0.0
C8 C 0.32747 0.24936 0.14202 0.0
O9 O 0.38648 0.06527 0.11373 0.0
C10 C 0.31306 0.11272 0.19 0.0
O11 O 0.40702 0.16688 0.12568 0.0
O12 O 0.39594 0.11787 0.16243 0.0
O13 O 0.30057 0.21988 0.13887 0.0
O14 O 0.35795 0.23422 0.13471 0.0
C15 C 0.2958 0.03544 0.13243 0.0
O16 O 0.33717 0.0829 0.18036 0.0
O17 O 0.29729 0.14586 0.17462 0.0
C18 C 0.41581 0.14943 0.14936 0.0
O19 O 0.32879 0.03272 0.13261 0.0
O20 O 0.27982 0.07863 0.13593 0.0
C21 C 0.29987 0.18285 0.08242 0.0
Fe22 Fe 0.24197 0.87604 0.63927 0.0
Fe23 Fe 0.17186 0.84163 0.61229 0.0
O24 O 0.19669 0.88706 0.63272 0.0
Fe25 Fe 0.1762 0.9447 0.6463 0.0
O26 O 0.21596 0.98547 0.64611 0.0
O27 O 0.25479 0.93874 0.62295 0.0
O28 O 0.25102 0.84348 0.60578 0.0
C29 C 0.23388 0.83904 0.58321 0.0
C30 C 0.21636 0.91463 0.6915 0.0
O31 O 0.20131 0.84761 0.58256 0.0
C32 C 0.12091 0.86818 0.64997 0.0
O33 O 0.23293 0.81281 0.65604 0.0
O34 O 0.19506 0.78246 0.62502 0.0
O35 O 0.18521 0.92355 0.68282 0.0
O36 O 0.24108 0.90577 0.67428 0.0
C37 C 0.153 0.94159 0.5911 0.0
O38 O 0.13984 0.83151 0.64028 0.0
O39 O 0.1318 0.91565 0.6491 0.0
C40 C 0.21702 0.77453 0.64459 0.0
O41 O 0.1452 0.89332 0.59543 0.0
O42 O 0.16768 0.96855 0.61035 0.0
C43 C 0.24441 0.98262 0.63246 0.0
Fe44 Fe 0.36375 0.93775 0.88367 0.0
Fe45 Fe 0.29566 0.87279 0.89178 0.0
O46 O 0.3416 0.88187 0.89759 0.0
Fe47 Fe 0.36483 0.83561 0.91861 0.0
O48 O 0.37433 0.88576 0.94475 0.0
O49 O 0.39142 0.94833 0.91535 0.0
O50 O 0.33362 0.982 0.90045 0.0
C51 C 0.30158 0.98538 0.89502 0.0
C52 C 0.41733 0.86701 0.87877 0.0
O53 O 0.28427 0.94418 0.88869 0.0
C54 C 0.32368 0.76726 0.88977 0.0
O55 O 0.33837 0.93705 0.85004 0.0
O56 O 0.30184 0.86901 0.85427 0.0
O57 O 0.40774 0.84548 0.90159 0.0
O58 O 0.39702 0.8983 0.86609 0.0
C59 C 0.29975 0.84364 0.94663 0.0
O60 O 0.29848 0.79983 0.89284 0.0
O61 O 0.35517 0.78189 0.89405 0.0
C62 C 0.31605 0.90476 0.83946 0.0
O63 O 0.28607 0.87572 0.92937 0.0
O64 O 0.32707 0.8181 0.94013 0.0
C65 C 0.38707 0.93129 0.9404 0.0
Fe66 Fe 0.16939 0.19244 0.41384 0.0
Fe67 Fe 0.17471 0.08037 0.3886 0.0
O68 O 0.19411 0.14226 0.39675 0.0
Fe69 Fe 0.23944 0.15395 0.38936 0.0
O70 O 0.24891 0.16051 0.42684 0.0
O71 O 0.20681 0.21874 0.43337 0.0
O72 O 0.16155 0.15058 0.44381 0.0
C73 C 0.15169 0.10293 0.44476 0.0
C74 C 0.20749 0.25402 0.37872 0.0
O75 O 0.14938 0.0754 0.4223 0.0
C76 C 0.21787 0.10906 0.3402 0.0
O77 O 0.12692 0.17459 0.39826 0.0
O78 O 0.13853 0.10937 0.3694 0.0
O79 O 0.23398 0.22601 0.38512 0.0
O80 O 0.17678 0.23886 0.38514 0.0
C81 C 0.23943 0.04283 0.40012 0.0
O82 O 0.1982 0.07628 0.35377 0.0
O83 O 0.2322 0.14814 0.35217 0.0
C84 C 0.11786 0.14411 0.37848 0.0
O85 O 0.20799 0.04478 0.40747 0.0
O86 O 0.25406 0.08388 0.39034 0.0
C87 C 0.23421 0.19549 0.44191 0.0
Fe88 Fe 0.68108 0.93687 0.88852 0.0
Fe89 Fe 0.67542 0.84288 0.92949 0.0
O90 O 0.70067 0.88246 0.90608 0.0
Fe91 Fe 0.74579 0.86845 0.90048 0.0
O92 O 0.75917 0.93343 0.91359 0.0
O93 O 0.7215 0.9768 0.88721 0.0
O94 O 0.67159 0.96874 0.92196 0.0
C95 C 0.65609 0.94772 0.94277 0.0
C96 C 0.7219 0.89861 0.84604 0.0
O97 O 0.649 0.89852 0.94288 0.0
C98 C 0.71841 0.76816 0.90026 0.0
O99 O 0.6365 0.90763 0.88686 0.0
O100 O 0.64359 0.82666 0.90254 0.0
O101 O 0.74626 0.89233 0.86389 0.0
O102 O 0.69067 0.90815 0.85401 0.0
C103 C 0.73667 0.84359 0.9586 0.0
O104 O 0.69813 0.78045 0.92048 0.0
O105 O 0.73528 0.80339 0.8869 0.0
C106 C 0.62533 0.86049 0.8897 0.0
O107 O 0.70478 0.85613 0.95839 0.0
O108 O 0.75381 0.84051 0.93581 0.0
C109 C 0.74931 0.97589 0.90183 0.0
Fe110 Fe 0.85768 0.19528 0.42004 0.0
Fe111 Fe 0.78964 0.14963 0.39579 0.0
O112 O 0.83547 0.14258 0.4028 0.0
Fe113 Fe 0.85843 0.08393 0.39356 0.0
O114 O 0.88349 0.08133 0.42721 0.0
O115 O 0.86719 0.15377 0.44983 0.0
O116 O 0.81951 0.2177 0.43942 0.0
C117 C 0.79312 0.19236 0.44822 0.0
C118 C 0.91154 0.15691 0.38446 0.0
O119 O 0.77967 0.15601 0.43337 0.0
C120 C 0.81343 0.10737 0.34616 0.0
O121 O 0.8486 0.24047 0.3911 0.0
O122 O 0.79221 0.22216 0.39138 0.0
O123 O 0.89355 0.1191 0.37485 0.0
O124 O 0.90067 0.18329 0.40505 0.0
C125 C 0.7943 0.03928 0.40757 0.0
O126 O 0.7966 0.14361 0.35851 0.0
O127 O 0.83564 0.07807 0.359 0.0
C128 C 0.81732 0.254 0.38597 0.0
O129 O 0.7779 0.07877 0.39803 0.0
O130 O 0.82695 0.04143 0.41124 0.0
C131 C 0.87987 0.10765 0.44998 0.0
Fe132 Fe 0.67567 0.06754 0.151 0.0
Fe133 Fe 0.67172 0.17345 0.119 0.0
O134 O 0.69653 0.12577 0.13811 0.0
Fe135 Fe 0.74251 0.13624 0.14289 0.0
O136 O 0.75546 0.06538 0.14305 0.0
O137 O 0.7062 0.02488 0.13322 0.0
O138 O 0.64766 0.05879 0.11936 0.0
C139 C 0.65056 0.07941 0.09494 0.0
C140 C 0.72348 0.09888 0.19508 0.0
O141 O 0.66247 0.12577 0.09182 0.0
C142 C 0.71204 0.23925 0.15013 0.0
O143 O 0.64218 0.10389 0.17003 0.0
O144 O 0.62962 0.1599 0.13644 0.0
O145 O 0.73829 0.13471 0.18068 0.0
O146 O 0.70124 0.0669 0.18429 0.0
C147 C 0.73548 0.17223 0.08908 0.0
O148 O 0.68086 0.22473 0.14475 0.0
O149 O 0.73805 0.20908 0.14504 0.0
C150 C 0.62127 0.13615 0.1589 0.0
O151 O 0.70824 0.19594 0.09731 0.0
O152 O 0.75022 0.13849 0.10486 0.0
C153 C 0.73874 0.02353 0.13696 0.0
Fe154 Fe 0.86164 0.83952 0.61693 0.0
Fe155 Fe 0.7903 0.87164 0.64147 0.0
O156 O 0.83557 0.88678 0.63547 0.0
Fe157 Fe 0.85412 0.94786 0.64722 0.0
O158 O 0.87878 0.95949 0.61377 0.0
O159 O 0.87023 0.8861 0.58912 0.0
O160 O 0.82556 0.81492 0.59548 0.0
C161 C 0.79706 0.83607 0.58796 0.0
C162 C 0.91252 0.88345 0.65403 0.0
O163 O 0.78166 0.86877 0.60384 0.0
C164 C 0.81013 0.91045 0.69306 0.0
O165 O 0.85406 0.78848 0.64358 0.0
O166 O 0.79699 0.79977 0.64323 0.0
O167 O 0.89159 0.91668 0.66439 0.0
O168 O 0.90344 0.85521 0.63354 0.0
C169 C 0.78721 0.98368 0.63484 0.0
O170 O 0.79606 0.8737 0.67897 0.0
O171 O 0.83102 0.94442 0.68184 0.0
C172 C 0.82342 0.77054 0.64773 0.0
O173 O 0.77377 0.93981 0.64155 0.0
O174 O 0.81986 0.98855 0.6319 0.0
C175 C 0.87931 0.93415 0.5905 0.0
Fe176 Fe 0.86908 0.65535 0.11383 0.0
Fe177 Fe 0.85519 0.56407 0.15533 0.0
O178 O 0.83992 0.62031 0.1366 0.0
Fe179 Fe 0.79533 0.63964 0.14031 0.0
O180 O 0.79049 0.66493 0.10429 0.0
O181 O 0.84064 0.64659 0.08373 0.0
O182 O 0.89192 0.59533 0.10185 0.0
C183 C 0.8807 0.5479 0.10161 0.0
C184 C 0.82791 0.73737 0.13932 0.0
O185 O 0.86333 0.5296 0.12227 0.0
C186 C 0.81566 0.61109 0.1961 0.0
O187 O 0.90094 0.66736 0.14171 0.0
O188 O 0.90106 0.58592 0.15747 0.0
O189 O 0.80795 0.70532 0.15236 0.0
O190 O 0.85025 0.72093 0.1215 0.0
C191 C 0.7863 0.53211 0.14112 0.0
O192 O 0.84639 0.59609 0.18921 0.0
O193 O 0.79241 0.6194 0.17748 0.0
C194 C 0.91587 0.63063 0.15513 0.0
O195 O 0.81289 0.53 0.15686 0.0
O196 O 0.77904 0.57474 0.12828 0.0
C197 C 0.80917 0.66137 0.08235 0.0
Fe198 Fe 0.66761 0.33942 0.6177 0.0
Fe199 Fe 0.67361 0.44515 0.64972 0.0
O200 O 0.6934 0.38636 0.63671 0.0
Fe201 Fe 0.73927 0.37487 0.64123 0.0
O202 O 0.74651 0.37185 0.60323 0.0
O203 O 0.70325 0.31629 0.5957 0.0
O204 O 0.65853 0.38835 0.59044 0.0
C205 C 0.64767 0.43519 0.59398 0.0
C206 C 0.70799 0.27234 0.6488 0.0
O207 O 0.64519 0.45457 0.61859 0.0
C208 C 0.72114 0.41271 0.69348 0.0
O209 O 0.62603 0.35367 0.63569 0.0
O210 O 0.63983 0.40935 0.66908 0.0
O211 O 0.73394 0.30278 0.64387 0.0
O212 O 0.67673 0.28663 0.6432 0.0
C213 C 0.73747 0.48619 0.63272 0.0
O214 O 0.69948 0.44531 0.6827 0.0
O215 O 0.7357 0.37702 0.67907 0.0
C216 C 0.61827 0.37768 0.65812 0.0
O217 O 0.70455 0.4875 0.63156 0.0
O218 O 0.75333 0.44474 0.64029 0.0
C219 C 0.73104 0.33875 0.58758 0.0
Fe220 Fe 0.86255 0.3306 0.92033 0.0
Fe221 Fe 0.85339 0.43939 0.89137 0.0
O222 O 0.83554 0.37741 0.90241 0.0
Fe223 Fe 0.79043 0.36194 0.8967 0.0
O224 O 0.78241 0.35439 0.93432 0.0
O225 O 0.82718 0.30171 0.94139 0.0
O226 O 0.86943 0.37647 0.94885 0.0
C227 C 0.87915 0.42422 0.9471 0.0
C228 C 0.82587 0.26398 0.88676 0.0
O229 O 0.88072 0.4478 0.92337 0.0
C230 C 0.80831 0.40724 0.84593 0.0
O231 O 0.90388 0.35037 0.9033 0.0
O232 O 0.88869 0.40891 0.8716 0.0
O233 O 0.79853 0.29075 0.89229 0.0
O234 O 0.85616 0.28091 0.89317 0.0
C235 C 0.78775 0.47245 0.90797 0.0
O236 O 0.82834 0.44073 0.85797 0.0
O237 O 0.79493 0.36854 0.85905 0.0
C238 C 0.91084 0.37716 0.88151 0.0
O239 O 0.82048 0.47723 0.90982 0.0
O240 O 0.77388 0.4301 0.89928 0.0
C241 C 0.79832 0.32094 0.94943 0.0
Fe242 Fe 0.66432 0.68294 0.42326 0.0
Fe243 Fe 0.67088 0.57989 0.38925 0.0
O244 O 0.6903 0.63799 0.40338 0.0
Fe245 Fe 0.73609 0.65068 0.39898 0.0
O246 O 0.74332 0.65006 0.43693 0.0
O247 O 0.69989 0.70432 0.44594 0.0
O248 O 0.65512 0.63221 0.44943 0.0
C249 C 0.64452 0.58547 0.44507 0.0
C250 C 0.70479 0.754 0.39511 0.0
O251 O 0.64201 0.56778 0.42009 0.0
C252 C 0.7191 0.61607 0.34619 0.0
O253 O 0.62297 0.6695 0.40487 0.0
O254 O 0.63731 0.61649 0.37037 0.0
O255 O 0.73069 0.72303 0.39875 0.0
O256 O 0.67353 0.73742 0.39873 0.0
C257 C 0.73442 0.53897 0.40547 0.0
O258 O 0.69761 0.58215 0.35646 0.0
O259 O 0.73232 0.65222 0.36117 0.0
C260 C 0.61556 0.64709 0.3819 0.0
O261 O 0.70156 0.53742 0.407 0.0
O262 O 0.75021 0.58077 0.39793 0.0
C263 C 0.72794 0.68186 0.45334 0.0
Fe264 Fe 0.16987 0.43633 0.88779 0.0
Fe265 Fe 0.17079 0.32539 0.91523 0.0
O266 O 0.19298 0.37801 0.89752 0.0
Fe267 Fe 0.23886 0.37121 0.89084 0.0
O268 O 0.25062 0.44205 0.89324 0.0
O269 O 0.20099 0.47962 0.90488 0.0
O270 O 0.14499 0.43948 0.92172 0.0
C271 C 0.14899 0.41348 0.94467 0.0
C272 C 0.21592 0.41298 0.8407 0.0
O273 O 0.16171 0.36737 0.94471 0.0
C274 C 0.21077 0.26721 0.88052 0.0
O275 O 0.13482 0.40055 0.86957 0.0
O276 O 0.1277 0.33758 0.90064 0.0
O277 O 0.23278 0.37749 0.85358 0.0
O278 O 0.19276 0.44161 0.85298 0.0
C279 C 0.23502 0.32803 0.94329 0.0
O280 O 0.17954 0.2799 0.88655 0.0
O281 O 0.23597 0.29883 0.8861 0.0
C282 C 0.11675 0.36329 0.87983 0.0
O283 O 0.20896 0.30234 0.93441 0.0
O284 O 0.24829 0.36464 0.92843 0.0
C285 C 0.23373 0.48173 0.90195 0.0
Fe286 Fe 0.28694 0.65269 0.39256 0.0
Fe287 Fe 0.35032 0.58076 0.38053 0.0
O288 O 0.3314 0.63512 0.39879 0.0
Fe289 Fe 0.35685 0.67091 0.42366 0.0
O290 O 0.32597 0.65792 0.45188 0.0
O291 O 0.27809 0.67584 0.42816 0.0
O292 O 0.2711 0.58706 0.4033 0.0
C293 C 0.28074 0.5448 0.39133 0.0
C294 C 0.31762 0.75145 0.39594 0.0
O295 O 0.3093 0.54319 0.37771 0.0
C296 C 0.40764 0.65405 0.38417 0.0
O297 O 0.28751 0.63328 0.35564 0.0
O298 O 0.34236 0.61172 0.34609 0.0
O299 O 0.33673 0.735 0.41586 0.0
O300 O 0.29935 0.71952 0.38148 0.0
C301 C 0.37289 0.56444 0.43523 0.0
O302 O 0.3956 0.60776 0.3801 0.0
O303 O 0.38981 0.68744 0.39761 0.0
C304 C 0.31164 0.6243 0.33795 0.0
O305 O 0.3578 0.54585 0.41368 0.0
O306 O 0.38137 0.61295 0.4362 0.0
C307 C 0.29396 0.67033 0.45123 0.0
Fe308 Fe 0.17743 0.57329 0.14285 0.0
Fe309 Fe 0.17326 0.67659 0.10858 0.0
O310 O 0.19821 0.63019 0.12832 0.0
Fe311 Fe 0.24385 0.6396 0.13351 0.0
O312 O 0.25466 0.57662 0.11687 0.0
O313 O 0.2166 0.53112 0.14181 0.0
O314 O 0.16692 0.54961 0.10739 0.0
C315 C 0.15188 0.57697 0.08848 0.0
C316 C 0.21983 0.60376 0.18659 0.0
O317 O 0.14514 0.62557 0.09263 0.0
C318 C 0.22066 0.74164 0.13987 0.0
O319 O 0.13368 0.60367 0.14664 0.0
O320 O 0.1428 0.68752 0.13742 0.0
O321 O 0.24404 0.60982 0.16855 0.0
O322 O 0.18829 0.59489 0.17882 0.0
C323 C 0.23378 0.67763 0.07775 0.0
O324 O 0.19796 0.73491 0.12071 0.0
O325 O 0.23674 0.70277 0.1505 0.0
C326 C 0.12363 0.65144 0.14759 0.0
O327 O 0.20107 0.67037 0.07793 0.0
O328 O 0.25179 0.67211 0.09981 0.0
C329 C 0.24425 0.53302 0.12701 0.0
Fe330 Fe 0.35726 0.43876 0.64558 0.0
Fe331 Fe 0.35937 0.33419 0.61224 0.0
O332 O 0.33542 0.38115 0.63264 0.0
Fe333 Fe 0.2898 0.36942 0.6386 0.0
O334 O 0.27607 0.43869 0.63686 0.0
O335 O 0.32513 0.4841 0.63141 0.0
O336 O 0.38197 0.44935 0.61203 0.0
C337 C 0.37729 0.42922 0.5876 0.0
C338 C 0.31042 0.40788 0.69072 0.0
O339 O 0.36546 0.38266 0.58477 0.0
C340 C 0.32289 0.26859 0.64658 0.0
O341 O 0.39281 0.40099 0.66204 0.0
O342 O 0.40242 0.34873 0.62655 0.0
O343 O 0.29418 0.37368 0.67634 0.0
O344 O 0.33449 0.43713 0.68013 0.0
C345 C 0.29469 0.33133 0.58505 0.0
O346 O 0.35329 0.28324 0.63878 0.0
O347 O 0.29599 0.29739 0.64229 0.0
C348 C 0.41212 0.36827 0.64948 0.0
O349 O 0.32225 0.30858 0.59277 0.0
O350 O 0.28056 0.36513 0.60087 0.0
C351 C 0.29213 0.48163 0.63221 0.0
H352 H 0.3247 0.25925 0.04781 0.0
H353 H 0.23612 0.15354 0.05977 0.0
H354 H 0.20805 0.19136 0.01794 0.0
H355 H 0.20913 0.25371 0.97863 0.0
H356 H 0.29789 0.35901 0.9667 0.0
H357 H 0.32551 0.32208 1.00891 0.0
C358 C 0.29922 0.24413 0.04139 0.0
C359 C 0.28248 0.20338 0.05691 0.0
C360 C 0.28337 0.26615 0.01766 0.0
C361 C 0.24953 0.18467 0.04819 0.0
C362 C 0.23352 0.20638 0.02437 0.0
C363 C 0.2346 0.26874 0.98513 0.0
C364 C 0.25166 0.30887 0.96938 0.0
C365 C 0.25027 0.24708 1.00905 0.0
C366 C 0.28433 0.32816 0.97839 0.0
C367 C 0.3001 0.30693 1.00241 0.0
H368 H 0.32659 0.71503 0.49584 0.0
H369 H 0.22404 0.67795 0.46238 0.0
H370 H 0.19632 0.73007 0.49952 0.0
H371 H 0.20144 0.7889 0.54008 0.0
H372 H 0.30403 0.82699 0.57326 0.0
H373 H 0.33165 0.77264 0.53703 0.0
C374 C 0.29815 0.71738 0.49705 0.0
C375 C 0.27733 0.69242 0.47658 0.0
C376 C 0.28249 0.74869 0.51786 0.0
C377 C 0.24055 0.69664 0.47806 0.0
C378 C 0.22473 0.7268 0.49908 0.0
C379 C 0.22987 0.78595 0.53918 0.0
C380 C 0.25068 0.81232 0.55917 0.0
C381 C 0.2455 0.75386 0.51872 0.0
C382 C 0.28745 0.80734 0.55797 0.0
C383 C 0.30324 0.77595 0.53743 0.0
H384 H 0.20165 0.73321 0.0358 0.0
H385 H 0.30335 0.68299 0.06606 0.0
H386 H 0.33224 0.73726 0.03045 0.0
H387 H 0.32895 0.79794 0.99123 0.0
H388 H 0.22845 0.84539 0.95787 0.0
H389 H 0.19849 0.79515 0.99535 0.0
C390 C 0.2301 0.73351 0.03427 0.0
C391 C 0.25038 0.70387 0.05343 0.0
C392 C 0.24664 0.76537 1.01388 0.0
C393 C 0.28721 0.70527 0.0515 0.0
C394 C 0.30375 0.73662 0.03134 0.0
C395 C 0.30042 0.79772 0.99223 0.0
C396 C 0.28087 0.82496 0.97182 0.0
C397 C 0.28373 0.767 1.01267 0.0
C398 C 0.24402 0.82504 0.97356 0.0
C399 C 0.22698 0.79565 0.99466 0.0
H400 H 0.3196 0.25589 0.55027 0.0
H401 H 0.23294 0.36463 0.56053 0.0
H402 H 0.20675 0.33131 0.51689 0.0
H403 H 0.20874 0.27142 0.47651 0.0
H404 H 0.29559 0.16281 0.46668 0.0
H405 H 0.32158 0.19629 0.5102 0.0
C406 C 0.29492 0.27254 0.54312 0.0
C407 C 0.27815 0.31275 0.55873 0.0
C408 C 0.28017 0.2532 0.51829 0.0
C409 C 0.2463 0.33369 0.54896 0.0
C410 C 0.23139 0.31462 0.52407 0.0
C411 C 0.23342 0.25494 0.48376 0.0
C412 C 0.25032 0.21467 0.46825 0.0
C413 C 0.24813 0.27437 0.50865 0.0
C414 C 0.28213 0.1938 0.47814 0.0
C415 C 0.29695 0.21295 0.50298 0.0
H416 H 0.78441 0.76404 0.96284 0.0
H417 H 0.71816 0.86641 1.01244 0.0
H418 H 0.73295 0.81643 0.05487 0.0
H419 H 0.76324 0.74238 0.0776 0.0
H420 H 0.83004 0.64004 0.0285 0.0
H421 H 0.81581 0.69052 0.98594 0.0
C422 C 0.77384 0.77607 0.98304 0.0
C423 C 0.75054 0.81923 0.98458 0.0
C424 C 0.78177 0.74632 1.00725 0.0
C425 C 0.73637 0.83359 1.01079 0.0
C426 C 0.74455 0.80476 0.03499 0.0
C427 C 0.7742 0.7305 0.0575 0.0
C428 C 0.79716 0.68698 0.05609 0.0
C429 C 0.76672 0.76054 0.03338 0.0
C430 C 0.81195 0.67304 0.03003 0.0
C431 C 0.80407 0.70215 1.00577 0.0
H432 H 0.70426 0.26407 0.553 0.0
H433 H 0.79396 0.36798 0.56342 0.0
H434 H 0.82089 0.33008 0.52122 0.0
H435 H 0.81914 0.26724 0.48265 0.0
H436 H 0.72971 0.16297 0.472 0.0
H437 H 0.70244 0.20116 0.51411 0.0
C438 C 0.72973 0.27872 0.54614 0.0
C439 C 0.74721 0.31884 0.56143 0.0
C440 C 0.74505 0.25647 0.52222 0.0
C441 C 0.78003 0.33726 0.55206 0.0
C442 C 0.79541 0.31548 0.52805 0.0
C443 C 0.79359 0.25264 0.48936 0.0
C444 C 0.77632 0.21233 0.4741 0.0
C445 C 0.77819 0.27494 0.51317 0.0
C446 C 0.74348 0.19384 0.48337 0.0
C447 C 0.72792 0.21581 0.50732 0.0
H448 H 0.709 0.24529 0.05353 0.0
H449 H 0.79876 0.143 0.0652 0.0
H450 H 0.82597 0.1806 0.02272 0.0
H451 H 0.82451 0.24387 0.98337 0.0
H452 H 0.73479 0.3468 0.97285 0.0
H453 H 0.70733 0.30754 1.01452 0.0
C454 C 0.73456 0.2309 0.04693 0.0
C455 C 0.75194 0.19143 0.06269 0.0
C456 C 0.75006 0.25307 0.02293 0.0
C457 C 0.78486 0.17329 0.05352 0.0
C458 C 0.80042 0.19492 0.02932 0.0
C459 C 0.79893 0.25789 0.99014 0.0
C460 C 0.7817 0.29837 0.97496 0.0
C461 C 0.78333 0.23513 1.01405 0.0
C462 C 0.74862 0.31585 0.9841 0.0
C463 C 0.7329 0.29333 1.00788 0.0
H464 H 0.70277 0.75659 0.4884 0.0
H465 H 0.79184 0.65322 0.47571 0.0
H466 H 0.82113 0.69332 0.51631 0.0
H467 H 0.82167 0.75873 0.55404 0.0
H468 H 0.73279 0.86276 0.56606 0.0
H469 H 0.70317 0.82145 0.52607 0.0
C470 C 0.72858 0.74243 0.49443 0.0
C471 C 0.7452 0.70195 0.47895 0.0
C472 C 0.74532 0.76614 0.51727 0.0
C473 C 0.77852 0.68423 0.48726 0.0
C474 C 0.79528 0.70731 0.51034 0.0
C475 C 0.79583 0.77268 0.54796 0.0
C476 C 0.77941 0.81392 0.56303 0.0
C477 C 0.779 0.74859 0.52524 0.0
C478 C 0.74598 0.83126 0.5548 0.0
C479 C 0.72904 0.80752 0.53205 0.0
H480 H 0.39229 0.90283 0.99592 0.0
H481 H 0.39603 0.0393 0.94102 0.0
H482 H 0.39727 0.09793 0.9819 0.0
H483 H 0.39205 0.11089 0.03326 0.0
H484 H 0.38928 0.97429 0.08812 0.0
H485 H 0.39316 0.91568 0.04737 0.0
C486 C 0.39398 0.94538 0.99281 0.0
C487 C 0.39401 0.96637 0.96518 0.0
C488 C 0.39458 0.97905 1.01652 0.0
C489 C 0.39625 0.02174 0.96183 0.0
C490 C 0.39668 0.05542 0.98529 0.0
C491 C 0.3928 0.0683 0.0364 0.0
C492 C 0.39023 0.04728 0.06395 0.0
C493 C 0.39509 0.03461 1.01274 0.0
C494 C 0.3914 0.99187 0.06736 0.0
C495 C 0.39341 0.95819 0.04397 0.0
H496 H 0.15156 0.04648 0.57477 0.0
H497 H 0.1411 0.88771 0.54231 0.0
H498 H 0.13727 0.9223 0.49448 0.0
H499 H 0.14117 0.99786 0.4609 0.0
H500 H 0.14908 0.15657 0.49431 0.0
H501 H 0.14919 0.12193 0.54187 0.0
C502 C 0.148 0.01946 0.5573 0.0
C503 C 0.1467 0.96449 0.56243 0.0
C504 C 0.14544 0.03965 0.52958 0.0
C505 C 0.14199 0.93028 0.53928 0.0
C506 C 0.13994 0.95002 0.51173 0.0
C507 C 0.1422 0.02492 0.47856 0.0
C508 C 0.14538 0.07991 0.47354 0.0
C509 C 0.14215 1.0047 0.50646 0.0
C510 C 0.14682 0.11403 0.49705 0.0
C511 C 0.147 0.09428 0.52454 0.0
H512 H 0.63899 0.91336 0.99584 0.0
H513 H 0.65687 0.0557 0.94708 0.0
H514 H 0.65283 0.10906 0.98964 0.0
H515 H 0.64984 0.11488 0.04086 0.0
H516 H 0.63459 0.97305 0.09052 0.0
H517 H 0.6314 0.92022 0.04743 0.0
C518 C 0.64129 0.95616 0.99441 0.0
C519 C 0.64826 0.98034 0.96812 0.0
C520 C 0.63963 0.98676 0.0192 0.0
C521 C 0.65156 0.03586 0.96689 0.0
C522 C 0.64933 0.06648 0.99129 0.0
C523 C 0.64526 0.07249 0.0424 0.0
C524 C 0.64258 0.04812 0.0691 0.0
C525 C 0.64421 0.04227 0.0176 0.0
C526 C 0.63661 0.99308 0.0704 0.0
C527 C 0.63502 0.96275 0.04571 0.0
H528 H 0.88375 0.04101 0.5782 0.0
H529 H 0.89533 0.88618 0.54086 0.0
H530 H 0.89993 0.9258 0.49438 0.0
H531 H 0.89414 1.00358 0.46329 0.0
H532 H 0.88299 0.15859 0.50048 0.0
H533 H 0.88525 0.11995 0.54733 0.0
C534 C 0.88807 0.01604 0.56 0.0
C535 C 0.88873 0.96056 0.5633 0.0
C536 C 0.89047 0.03909 0.5329 0.0
C537 C 0.89428 0.929 0.53921 0.0
C538 C 0.89689 0.9516 0.51242 0.0
C539 C 0.89301 0.02906 0.4816 0.0
C540 C 0.88808 0.08394 0.47805 0.0
C541 C 0.89402 1.00651 0.50884 0.0
C542 C 0.88652 0.11611 0.50229 0.0
C543 C 0.88772 0.09405 0.52929 0.0
H544 H 0.90015 0.58175 0.04921 0.0
H545 H 0.87064 0.44096 0.09559 0.0
H546 H 0.87063 0.38976 0.05206 0.0
H547 H 0.87431 0.38636 1.00069 0.0
H548 H 0.90081 0.52778 0.95368 0.0
H549 H 0.90692 0.57713 0.99767 0.0
C550 C 0.89438 0.53962 0.04993 0.0
C551 C 0.88557 0.51528 0.07582 0.0
C552 C 0.89358 0.51059 0.02464 0.0
C553 C 0.87762 0.46079 0.07612 0.0
C554 C 0.87749 0.43149 0.05117 0.0
C555 C 0.88192 0.42782 0.99993 0.0
C556 C 0.88709 0.45317 0.97369 0.0
C557 C 0.88473 0.45619 0.02527 0.0
C558 C 0.89674 0.50706 0.97341 0.0
C559 C 0.90012 0.53539 0.99861 0.0
H560 H 0.6357 0.61329 0.50027 0.0
H561 H 0.64022 0.47684 0.44585 0.0
H562 H 0.63935 0.41812 0.48687 0.0
H563 H 0.64229 0.40553 0.53847 0.0
H564 H 0.63715 0.54243 0.59261 0.0
H565 H 0.63306 0.60038 0.5516 0.0
C566 C 0.63589 0.57067 0.49729 0.0
C567 C 0.638 0.54979 0.46979 0.0
C568 C 0.63553 0.53696 0.52106 0.0
C569 C 0.63826 0.49431 0.46658 0.0
C570 C 0.63804 0.46058 0.49012 0.0
C571 C 0.63971 0.44797 0.54137 0.0
C572 C 0.64007 0.46926 0.56885 0.0
C573 C 0.63738 0.48144 0.51751 0.0
C574 C 0.63674 0.52454 0.57193 0.0
C575 C 0.63458 0.55792 0.54839 0.0
H576 H 0.14572 0.47229 0.07352 0.0
H577 H 0.14199 0.63076 0.03932 0.0
H578 H 0.13746 0.59525 0.99182 0.0
H579 H 0.13996 0.51873 0.95921 0.0
H580 H 0.14135 0.36051 0.99417 0.0
H581 H 0.14081 0.39625 0.04148 0.0
C582 C 0.14339 0.49904 0.05573 0.0
C583 C 0.14436 0.55412 0.06019 0.0
C584 C 0.14044 0.47836 0.02826 0.0
C585 C 0.14115 0.58811 0.03672 0.0
C586 C 0.13871 0.56784 1.00939 0.0
C587 C 0.13924 0.49209 0.97714 0.0
C588 C 0.14105 0.43691 0.97281 0.0
C589 C 0.13898 0.51296 1.00477 0.0
C590 C 0.14032 0.40318 0.99657 0.0
C591 C 0.14012 0.42355 0.02384 0.0
H592 H 0.37166 0.39552 0.53343 0.0
H593 H 0.39771 0.53394 0.58252 0.0
H594 H 0.40173 0.58686 0.53932 0.0
H595 H 0.39308 0.59523 0.48798 0.0
H596 H 0.36453 0.45683 0.43975 0.0
H597 H 0.36647 0.4026 0.48233 0.0
C598 C 0.37868 0.43715 0.53484 0.0
C599 C 0.38432 0.46056 0.56144 0.0
C600 C 0.3803 0.46749 0.50999 0.0
C601 C 0.39333 0.51464 0.5625 0.0
C602 C 0.39547 0.54502 0.53775 0.0
C603 C 0.38787 0.55302 0.48663 0.0
C604 C 0.37872 0.53028 0.46048 0.0
C605 C 0.38836 0.52207 0.51141 0.0
C606 C 0.3717 0.47555 0.4594 0.0
C607 C 0.37269 0.44447 0.48382 0.0
H608 H 0.24557 0.11006 0.20906 0.0
H609 H 0.35292 0.09993 0.23738 0.0
H610 H 0.33257 0.09413 0.28632 0.0
H611 H 0.28427 0.09739 0.32121 0.0
H612 H 0.17677 0.10145 0.29305 0.0
H613 H 0.19692 0.10316 0.24385 0.0
C614 C 0.26449 0.10646 0.22599 0.0
C615 C 0.30082 0.10639 0.21963 0.0
C616 C 0.25247 0.10163 0.25402 0.0
C617 C 0.32494 0.10045 0.2417 0.0
C618 C 0.31327 0.09713 0.26967 0.0
C619 C 0.26526 0.09756 0.30423 0.0
C620 C 0.22903 0.09909 0.31071 0.0
C621 C 0.27713 0.09828 0.2761 0.0
C622 C 0.20469 0.09952 0.28859 0.0
C623 C 0.21629 0.10107 0.2605 0.0
H624 H 0.25046 0.88065 0.82033 0.0
H625 H 0.34902 0.95027 0.79398 0.0
H626 H 0.32535 0.96345 0.74656 0.0
H627 H 0.27783 0.95119 0.7122 0.0
H628 H 0.17854 0.88415 0.73844 0.0
H629 H 0.20103 0.87511 0.78666 0.0
C630 C 0.26688 0.89852 0.80418 0.0
C631 C 0.30187 0.91349 0.81061 0.0
C632 C 0.25279 0.90692 0.77713 0.0
C633 C 0.32229 0.93791 0.7896 0.0
C634 C 0.30869 0.94552 0.76251 0.0
C635 C 0.26088 0.93512 0.72854 0.0
C636 C 0.22652 0.91802 0.72167 0.0
C637 C 0.27413 0.92974 0.756 0.0
C638 C 0.20487 0.89794 0.74316 0.0
C639 C 0.21793 0.89227 0.77064 0.0
H640 H 0.74635 0.88539 0.71468 0.0
H641 H 0.84778 0.94785 0.73822 0.0
H642 H 0.82896 0.9503 0.78766 0.0
H643 H 0.78437 0.93123 0.82419 0.0
H644 H 0.68193 0.87341 0.80007 0.0
H645 H 0.70041 0.87282 0.75062 0.0
C646 C 0.76441 0.89957 0.73063 0.0
C647 C 0.79869 0.91569 0.72284 0.0
C648 C 0.75318 0.90159 0.7588 0.0
C649 C 0.82139 0.93508 0.74366 0.0
C650 C 0.81063 0.9363 0.7719 0.0
C651 C 0.76604 0.91851 0.8081 0.0
C652 C 0.73188 0.90165 0.81584 0.0
C653 C 0.77673 0.91908 0.77973 0.0
C654 C 0.70828 0.88641 0.79469 0.0
C655 C 0.71892 0.88593 0.76645 0.0
H656 H 0.79014 0.10318 0.21492 0.0
H657 H 0.68281 0.07886 0.24142 0.0
H658 H 0.70173 0.07613 0.29074 0.0
H659 H 0.74845 0.08724 0.32635 0.0
H660 H 0.85621 0.10556 0.29986 0.0
H661 H 0.83773 0.10334 0.25037 0.0
C662 C 0.77096 0.09692 0.23154 0.0
C663 C 0.73502 0.09202 0.22465 0.0
C664 C 0.78219 0.09425 0.25972 0.0
C665 C 0.71052 0.0829 0.24624 0.0
C666 C 0.72136 0.08149 0.2744 0.0
C667 C 0.76789 0.08985 0.30965 0.0
C668 C 0.80363 0.09674 0.31659 0.0
C669 C 0.75703 0.08798 0.28139 0.0
C670 C 0.82866 0.09984 0.29495 0.0
C671 C 0.81801 0.099 0.26671 0.0
H672 H 0.78464 0.63837 0.32631 0.0
H673 H 0.6831 0.58003 0.30028 0.0
H674 H 0.70435 0.57306 0.25171 0.0
H675 H 0.75131 0.58546 0.21658 0.0
H676 H 0.85416 0.63774 0.24284 0.0
H677 H 0.83302 0.64475 0.29155 0.0
C678 C 0.76712 0.62427 0.30997 0.0
C679 C 0.73209 0.61046 0.31682 0.0
C680 C 0.77983 0.61914 0.28223 0.0
C681 C 0.71002 0.5911 0.29555 0.0
C682 C 0.72219 0.58718 0.26779 0.0
C683 C 0.76916 0.59837 0.23297 0.0
C684 C 0.80423 0.61171 0.22604 0.0
C685 C 0.75695 0.60138 0.26088 0.0
C686 C 0.82714 0.6273 0.24761 0.0
C687 C 0.81497 0.6315 0.27541 0.0
H688 H 0.74226 0.41228 0.82526 0.0
H689 H 0.85113 0.41924 0.80028 0.0
H690 H 0.83371 0.42223 0.75059 0.0
H691 H 0.78726 0.41779 0.71426 0.0
H692 H 0.67834 0.41903 0.73938 0.0
H693 H 0.69578 0.41829 0.78906 0.0
C694 C 0.76208 0.41497 0.80886 0.0
C695 C 0.79792 0.41506 0.81624 0.0
C696 C 0.75178 0.41796 0.78047 0.0
C697 C 0.82344 0.4192 0.79499 0.0
C698 C 0.81345 0.42067 0.76664 0.0
C699 C 0.76742 0.41836 0.73069 0.0
C700 C 0.73157 0.41792 0.72332 0.0
C701 C 0.77771 0.41929 0.75913 0.0
C702 C 0.70605 0.41941 0.74465 0.0
C703 C 0.71604 0.41876 0.773 0.0
H704 H 0.28192 0.42794 0.82149 0.0
H705 H 0.17444 0.41747 0.79358 0.0
H706 H 0.19453 0.41576 0.74438 0.0
H707 H 0.24316 0.40987 0.70973 0.0
H708 H 0.35044 0.42558 0.73766 0.0
H709 H 0.33007 0.43267 0.78656 0.0
C710 C 0.26288 0.42628 0.80455 0.0
C711 C 0.2267 0.42275 0.81109 0.0
C712 C 0.27469 0.42551 0.77646 0.0
C713 C 0.2023 0.42076 0.78906 0.0
C714 C 0.21387 0.41924 0.76098 0.0
C715 C 0.26207 0.41506 0.72655 0.0
C716 C 0.29838 0.41624 0.72017 0.0
C717 C 0.25004 0.42032 0.75449 0.0
C718 C 0.32248 0.42422 0.74205 0.0
C719 C 0.3108 0.42821 0.76997 0.0
H720 H 0.28645 0.60145 0.20702 0.0
H721 H 0.178 0.60777 0.23405 0.0
H722 H 0.19744 0.61535 0.28305 0.0
H723 H 0.24493 0.62239 0.31761 0.0
H724 H 0.35338 0.61496 0.29063 0.0
H725 H 0.33393 0.60607 0.24171 0.0
C726 C 0.26684 0.60436 0.22354 0.0
C727 C 0.2306 0.60425 0.21671 0.0
C728 C 0.27823 0.60895 0.25152 0.0
C729 C 0.2059 0.60758 0.23859 0.0
C730 C 0.21707 0.61219 0.26658 0.0
C731 C 0.26455 0.61913 0.30112 0.0
C732 C 0.3008 0.61992 0.30792 0.0
C733 C 0.25314 0.61342 0.2732 0.0
C734 C 0.32548 0.61478 0.28612 0.0
C735 C 0.3143 0.6096 0.25816 0.0
H736 H 0.46132 0.08502 0.17855 0.0
H737 H 0.45229 0.23953 0.14011 0.0
H738 H 0.51557 0.25255 0.14351 0.0
H739 H 0.57399 0.21444 0.15003 0.0
H740 H 0.58444 0.05967 0.18778 0.0
H741 H 0.52051 0.0528 0.1925 0.0
C742 C 0.47315 0.12212 0.17177 0.0
C743 C 0.45218 0.16094 0.15873 0.0
C744 C 0.50999 0.12903 0.17324 0.0
C745 C 0.46792 0.20877 0.14991 0.0
C746 C 0.50416 0.21622 0.15174 0.0
C747 C 0.56232 0.17971 0.15989 0.0
C748 C 0.58395 0.1374 0.16814 0.0
C749 C 0.52558 0.17572 0.16219 0.0
C750 C 0.56844 0.09289 0.18119 0.0
C751 C 0.53179 0.08873 0.1837 0.0
H752 H 0.07273 0.93505 0.6738 0.0
H753 H 0.08321 0.77781 0.63913 0.0
H754 H 0.01953 0.76648 0.64035 0.0
H755 H 0.96061 0.80517 0.64565 0.0
H756 H 0.94968 0.9619 0.68068 0.0
H757 H 1.01355 0.96896 0.68531 0.0
C758 C 0.06117 0.89791 0.66696 0.0
C759 C 0.08297 0.85769 0.656 0.0
C760 C 0.02429 0.89163 0.66757 0.0
C761 C 0.06734 0.80964 0.64756 0.0
C762 C 0.03078 0.80317 0.6481 0.0
C763 C 0.97212 0.84053 0.65481 0.0
C764 C 0.95024 0.88317 0.66251 0.0
C765 C 1.00895 0.8445 0.65722 0.0
C766 C 0.96572 0.92841 0.67459 0.0
C767 C 1.00236 0.93265 0.67704 0.0
H768 H 0.57754 0.91981 0.8601 0.0
H769 H 0.58817 0.77247 0.90577 0.0
H770 H 0.52491 0.75835 0.90348 0.0
H771 H 0.46582 0.79299 0.89382 0.0
H772 H 0.45466 0.93917 0.8474 0.0
H773 H 0.51855 0.94785 0.84426 0.0
C774 C 0.56612 0.88416 0.86913 0.0
C775 C 0.5878 0.8478 0.88349 0.0
C776 C 0.52942 0.87608 0.86777 0.0
C777 C 0.57237 0.80148 0.89474 0.0
C778 C 0.53603 0.79336 0.89356 0.0
C779 C 0.47734 0.82619 0.88249 0.0
C780 C 0.45533 0.86561 0.87115 0.0
C781 C 0.51418 0.83117 0.88091 0.0
C782 C 0.47081 0.90811 0.85632 0.0
C783 C 0.50745 0.91338 0.85472 0.0
H784 H 0.9584 0.08696 0.36096 0.0
H785 H 0.94755 0.24924 0.38812 0.0
H786 H 1.0109 0.26185 0.38533 0.0
H787 H 0.06974 0.22311 0.3825 0.0
H788 H 0.08164 0.06117 0.35527 0.0
H789 H 0.01795 0.05249 0.35037 0.0
C790 C 0.96985 0.12547 0.36542 0.0
C791 C 0.94827 0.16677 0.37521 0.0
C792 C 1.00667 0.13238 0.36423 0.0
C793 C 0.96358 0.21649 0.38093 0.0
C794 C 0.99988 0.22377 0.37946 0.0
C795 C 0.05845 0.18625 0.37494 0.0
C796 C 0.08043 0.1427 0.36971 0.0
C797 C 0.02178 0.18137 0.37234 0.0
C798 C 0.06538 0.0954 0.35956 0.0
C799 C 0.02886 0.09024 0.3569 0.0
H800 H 0.96293 0.7105 0.14234 0.0
H801 H 0.9547 0.55918 0.18467 0.0
H802 H 0.01833 0.55511 0.18894 0.0
H803 H 0.0766 0.58843 0.17529 0.0
H804 H 0.08564 0.73978 0.13331 0.0
H805 H 0.02184 0.75011 0.13479 0.0
C806 C 0.97497 0.67718 0.15304 0.0
C807 C 0.95382 0.63479 0.16268 0.0
C808 C 1.01195 0.67471 0.15529 0.0
C809 C 0.97012 0.59214 0.17666 0.0
C810 C 1.00666 0.58961 0.17908 0.0
C811 C 0.0647 0.62417 0.16693 0.0
C812 C 0.08601 0.66282 0.15387 0.0
C813 C 0.02789 0.62972 0.16761 0.0
C814 C 0.07003 0.70917 0.14344 0.0
C815 C 0.03341 0.71501 0.1441 0.0
H816 H 0.56972 0.30032 0.65029 0.0
H817 H 0.58261 0.45611 0.68595 0.0
H818 H 0.51878 0.46479 0.69055 0.0
H819 H 0.45898 0.43335 0.67723 0.0
H820 H 0.44762 0.27744 0.64117 0.0
H821 H 0.51072 0.26337 0.64441 0.0
C822 C 0.5586 0.33568 0.65969 0.0
C823 C 0.58092 0.37768 0.66741 0.0
C824 C 0.52191 0.34068 0.66194 0.0
C825 C 0.56609 0.42306 0.67982 0.0
C826 C 0.52949 0.42826 0.68224 0.0
C827 C 0.47026 0.39579 0.67091 0.0
C828 C 0.44863 0.35683 0.65858 0.0
C829 C 0.50703 0.38813 0.67236 0.0
C830 C 0.46371 0.30837 0.65038 0.0
C831 C 0.49986 0.30027 0.65213 0.0
H832 H 0.06917 0.43415 0.85805 0.0
H833 H 0.081 0.27086 0.88359 0.0
H834 H 0.01752 0.25867 0.8831 0.0
H835 H 0.95874 0.29802 0.88311 0.0
H836 H 0.94569 0.46073 0.85729 0.0
H837 H 1.00914 0.46928 0.84985 0.0
C838 C 0.05786 0.39552 0.86258 0.0
C839 C 0.0798 0.35375 0.8713 0.0
C840 C 0.02098 0.38886 0.86274 0.0
C841 C 0.06468 0.3039 0.87718 0.0
C842 C 0.02832 0.29688 0.87705 0.0
C843 C 0.96974 0.335 0.87527 0.0
C844 C 0.94763 0.37881 0.87117 0.0
C845 C 1.0062 0.33968 0.87113 0.0
C846 C 0.96215 0.42633 0.86066 0.0
C847 C 0.99851 0.43137 0.85657 0.0
H848 H 0.45715 0.59144 0.3584 0.0
H849 H 0.44362 0.74418 0.39784 0.0
H850 H 0.50687 0.75825 0.39744 0.0
H851 H 0.56637 0.72259 0.39175 0.0
H852 H 0.58078 0.57097 0.3517 0.0
H853 H 0.51717 0.56175 0.34605 0.0
C854 C 0.46796 0.62823 0.36643 0.0
C855 C 0.44543 0.66611 0.37863 0.0
C856 C 0.50469 0.63627 0.36623 0.0
C857 C 0.46009 0.71386 0.38861 0.0
C858 C 0.49642 0.72202 0.38848 0.0
C859 C 0.55564 0.68804 0.38123 0.0
C860 C 0.57834 0.64732 0.37247 0.0
C861 C 0.51902 0.68278 0.37824 0.0
C862 C 0.564 0.60303 0.35862 0.0
C863 C 0.52752 0.59748 0.3556 0.0
H864 H 0.31111 0.94637 0.16056 0.0
H865 H 0.23474 0.01404 0.10424 0.0
H866 H 0.20238 0.92953 0.10347 0.0
H867 H 0.19825 0.83509 0.1169 0.0
H868 H 0.27391 0.77011 0.17519 0.0
H869 H 0.30361 0.85552 0.17766 0.0
C870 C 0.28743 0.94245 0.14804 0.0
C871 C 0.27564 0.98557 0.13193 0.0
C872 C 0.2687 0.89456 0.14832 0.0
C873 C 0.2444 0.98088 0.11649 0.0
C874 C 0.22594 0.93274 0.11613 0.0
C875 C 0.22088 0.83977 0.13051 0.0
C876 C 0.23404 0.79583 0.14552 0.0
C877 C 0.2381 0.88912 0.13176 0.0
C878 C 0.26327 0.80293 0.16322 0.0
C879 C 0.28047 0.85174 0.16454 0.0
H880 H 0.24695 0.0566 0.67279 0.0
H881 H 0.29561 0.01209 0.59434 0.0
H882 H 0.33013 0.09474 0.59458 0.0
H883 H 0.34021 0.18449 0.61439 0.0
H884 H 0.28777 0.22895 0.69121 0.0
H885 H 0.26147 0.14061 0.69483 0.0
C886 C 0.26519 0.0648 0.65573 0.0
C887 C 0.26815 0.02907 0.63319 0.0
C888 C 0.28446 0.11208 0.65598 0.0
C889 C 0.29264 0.03941 0.61172 0.0
C890 C 0.31231 0.08658 0.61189 0.0
C891 C 0.32407 0.1739 0.63241 0.0
C892 C 0.3162 0.21248 0.6528 0.0
C893 C 0.30773 0.12382 0.63357 0.0
C894 C 0.29446 0.19935 0.67562 0.0
C895 C 0.27915 0.14919 0.67747 0.0
H896 H 0.27514 0.22679 0.87195 0.0
H897 H 0.16654 0.1796 0.88085 0.0
H898 H 0.18449 0.0865 0.88493 0.0
H899 H 0.23238 0.01935 0.89083 0.0
H900 H 0.34032 0.07366 0.88649 0.0
H901 H 0.32115 0.16258 0.8765 0.0
C902 C 0.25516 0.19629 0.87445 0.0
C903 C 0.21961 0.21045 0.87639 0.0
C904 C 0.26567 0.14378 0.87834 0.0
C905 C 0.19421 0.16997 0.87929 0.0
C906 C 0.20449 0.11672 0.88196 0.0
C907 C 0.25155 0.05077 0.88777 0.0
C908 C 0.28772 0.03948 0.88992 0.0
C909 C 0.24034 0.10327 0.88245 0.0
C910 C 0.31226 0.08078 0.8856 0.0
C911 C 0.30142 0.13195 0.87958 0.0
H912 H 0.26287 0.80275 0.37135 0.0
H913 H 0.35992 0.83076 0.41571 0.0
H914 H 0.34638 0.9252 0.41894 0.0
H915 H 0.30363 0.99895 0.41336 0.0
H916 H 0.20539 0.96746 0.37139 0.0
H917 H 0.22277 0.87625 0.36285 0.0
C918 C 0.28142 0.82961 0.38122 0.0
C919 C 0.31221 0.80953 0.39339 0.0
C920 C 0.27301 0.8836 0.38376 0.0
C921 C 0.33583 0.84507 0.40629 0.0
C922 C 0.32807 0.89916 0.40825 0.0
C923 C 0.2864 0.97211 0.40209 0.0
C924 C 0.25315 0.98962 0.39337 0.0
C925 C 0.29623 0.91876 0.39777 0.0
C926 C 0.23094 0.95457 0.37872 0.0
C927 C 0.24085 0.90238 0.37374 0.0
H928 H 0.84262 0.18067 0.91998 0.0
H929 H 0.79311 0.22263 0.84165 0.0
H930 H 0.76733 0.13391 0.83836 0.0
H931 H 0.75238 0.04985 0.86089 0.0
H932 H 0.7987 1.00779 0.94057 0.0
H933 H 0.83237 0.09112 0.94035 0.0
C934 C 0.82734 0.16942 0.90169 0.0
C935 C 0.82025 0.20746 0.88073 0.0
C936 C 0.81129 0.11904 0.90066 0.0
C937 C 0.7994 0.19345 0.85763 0.0
C938 C 0.78431 0.14305 0.85598 0.0
C939 C 0.76998 0.05868 0.87819 0.0
C940 C 0.77252 0.02322 0.90102 0.0
C941 C 0.78895 0.10642 0.87792 0.0
C942 C 0.79608 0.03467 0.92289 0.0
C943 C 0.81529 0.0823 0.92274 0.0
H944 H 0.73473 1.00081 0.38155 0.0
H945 H 0.81431 0.96018 0.44251 0.0
H946 H 0.79195 0.86977 0.44483 0.0
H947 H 0.75364 0.80054 0.42702 0.0
H948 H 0.67352 0.83696 0.3661 0.0
H949 H 0.69202 0.93082 0.36636 0.0
C950 C 0.74669 0.97237 0.39571 0.0
C951 C 0.77639 0.98731 0.41172 0.0
C952 C 0.73396 0.91959 0.39662 0.0
C953 C 0.7917 0.94979 0.42981 0.0
C954 C 0.77898 0.89797 0.43111 0.0
C955 C 0.74014 0.82895 0.41372 0.0
C956 C 0.71275 0.81167 0.39606 0.0
C957 C 0.75083 0.88215 0.4141 0.0
C958 C 0.69487 0.84924 0.37965 0.0
C959 C 0.70553 0.9028 0.37981 0.0
H960 H 0.80359 0.98406 0.12041 0.0
H961 H 0.70834 0.94373 0.16526 0.0
H962 H 0.7293 0.8541 0.17286 0.0
H963 H 0.77203 0.78494 0.16414 0.0
H964 H 0.86618 0.82019 0.11679 0.0
H965 H 0.84866 0.91332 0.11316 0.0
C966 C 0.78769 0.95559 0.13195 0.0
C967 C 0.75423 0.97041 0.14186 0.0
C968 C 0.79965 0.90294 0.13583 0.0
C969 C 0.7339 0.93312 0.15689 0.0
C970 C 0.7459 0.88178 0.16141 0.0
C971 C 0.78912 0.81297 0.15339 0.0
C972 C 0.82039 0.79525 0.14079 0.0
C973 C 0.77839 0.86593 0.15059 0.0
C974 C 0.84193 0.83252 0.12676 0.0
C975 C 0.83183 0.88587 0.12453 0.0
H976 H 0.68675 0.18238 0.62122 0.0
H977 H 0.75223 0.23837 0.68886 0.0
H978 H 0.78244 0.15324 0.69063 0.0
H979 H 0.79503 0.06674 0.66946 0.0
H980 H 0.72952 1.00771 0.60276 0.0
H981 H 0.69479 0.0899 0.60376 0.0
C982 C 0.70666 0.17505 0.63705 0.0
C983 C 0.71694 0.21645 0.65518 0.0
C984 C 0.72469 0.12604 0.63745 0.0
C985 C 0.74354 0.20691 0.675 0.0
C986 C 0.76116 0.15847 0.67576 0.0
C987 C 0.77308 0.07198 0.65519 0.0
C988 C 0.76527 0.03206 0.63561 0.0
C989 C 0.75286 0.11852 0.65643 0.0
C990 C 0.73625 0.03842 0.61772 0.0
C991 C 0.71636 0.08528 0.6184 0.0
H992 H 0.69656 0.32477 0.11741 0.0
H993 H 0.74729 0.27838 0.19457 0.0
H994 H 0.77124 0.36786 0.19994 0.0
H995 H 0.78313 0.45499 0.18027 0.0
H996 H 0.73705 0.50201 0.10126 0.0
H997 H 0.7054 0.41681 0.09909 0.0
C998 C 0.71201 0.33499 0.13577 0.0
C999 C 0.71976 0.29553 0.15591 0.0
C1000 C 0.7269 0.38618 0.13807 0.0
C1001 C 0.74066 0.30842 0.17914 0.0
C1002 C 0.75453 0.35939 0.18205 0.0
C1003 C 0.76599 0.44702 0.16256 0.0
C1004 C 0.7629 0.48467 0.14071 0.0
C1005 C 0.74871 0.39794 0.16124 0.0
C1006 C 0.74 0.47379 0.1183 0.0
C1007 C 0.72206 0.42495 0.11703 0.0
H1008 H 0.79424 0.52462 0.66169 0.0
H1009 H 0.7226 0.56115 0.59413 0.0
H1010 H 0.74574 0.65127 0.59151 0.0
H1011 H 0.78093 0.7218 0.61163 0.0
H1012 H 0.85187 0.68998 0.6801 0.0
H1013 H 0.83461 0.59559 0.67922 0.0
C1014 C 0.78441 0.55208 0.646 0.0
C1015 C 0.75671 0.53645 0.62813 0.0
C1016 C 0.79719 0.60468 0.64518 0.0
C1017 C 0.7438 0.57244 0.60812 0.0
C1018 C 0.75689 0.62398 0.60671 0.0
C1019 C 0.79279 0.69419 0.62634 0.0
C1020 C 0.81703 0.71276 0.64633 0.0
C1021 C 0.78264 0.6409 0.62572 0.0
C1022 C 0.83288 0.67648 0.66473 0.0
C1023 C 0.82294 0.6227 0.66422 0.0
H1024 H 0.70493 0.68246 0.93423 0.0
H1025 H 0.75353 0.72725 0.8554 0.0
H1026 H 0.77709 0.63816 0.85022 0.0
H1027 H 0.7886 0.55016 0.86998 0.0
H1028 H 0.74101 0.5037 0.94853 0.0
H1029 H 0.71214 0.5907 0.95199 0.0
C1030 C 0.72012 0.67247 0.91567 0.0
C1031 C 0.72769 0.71181 0.89536 0.0
C1032 C 0.73406 0.62105 0.91295 0.0
C1033 C 0.74753 0.69805 0.87149 0.0
C1034 C 0.76111 0.64709 0.8685 0.0
C1035 C 0.77149 0.55906 0.88764 0.0
C1036 C 0.76684 0.52128 0.90903 0.0
C1037 C 0.7553 0.60878 0.88941 0.0
C1038 C 0.74472 0.53255 0.93184 0.0
C1039 C 0.7284 0.58221 0.93381 0.0
H1040 H 0.7896 0.5007 0.37454 0.0
H1041 H 0.71967 0.46297 0.44345 0.0
H1042 H 0.74011 0.37156 0.44349 0.0
H1043 H 0.77295 0.30097 0.4213 0.0
H1044 H 0.84417 0.33485 0.35292 0.0
H1045 H 0.82793 0.42937 0.35498 0.0
C1046 C 0.77965 0.47266 0.38998 0.0
C1047 C 0.75314 0.48833 0.40896 0.0
C1048 C 0.79097 0.41946 0.38944 0.0
C1049 C 0.74002 0.45163 0.42865 0.0
C1050 C 0.75148 0.39934 0.42855 0.0
C1051 C 0.78486 0.32897 0.40671 0.0
C1052 C 0.80889 0.31104 0.38641 0.0
C1053 C 0.77597 0.38254 0.40847 0.0
C1054 C 0.82507 0.34787 0.36833 0.0
C1055 C 0.81588 0.40175 0.36964 0.0
H1056 H 0.27141 0.72197 0.91918 0.0
H1057 H 0.3563 0.68381 0.86265 0.0
H1058 H 0.33799 0.58996 0.86318 0.0
H1059 H 0.29475 0.52 0.87765 0.0
H1060 H 0.21121 0.56173 0.93511 0.0
H1061 H 0.23247 0.65271 0.93661 0.0
C1062 C 0.28591 0.6932 0.90683 0.0
C1063 C 0.31465 0.70995 0.89032 0.0
C1064 C 0.27555 0.63982 0.9076 0.0
C1065 C 0.33383 0.67192 0.87523 0.0
C1066 C 0.32334 0.61834 0.87559 0.0
C1067 C 0.28168 0.54882 0.8909 0.0
C1068 C 0.25118 0.53398 0.90607 0.0
C1069 C 0.29388 0.60187 0.89145 0.0
C1070 C 0.23447 0.572 0.92302 0.0
C1071 C 0.24653 0.62419 0.92384 0.0
H1072 H 0.28177 0.46812 0.35205 0.0
H1073 H 0.22749 0.51516 0.4277 0.0
H1074 H 0.19473 0.43099 0.42764 0.0
H1075 H 0.18742 0.33957 0.40907 0.0
H1076 H 0.24549 0.29265 0.33534 0.0
H1077 H 0.27047 0.38181 0.33122 0.0
C1078 C 0.26261 0.46027 0.3685 0.0
C1079 C 0.25755 0.49745 0.39018 0.0
C1080 C 0.24443 0.4119 0.36848 0.0
C1081 C 0.23204 0.48705 0.41091 0.0
C1082 C 0.2134 0.4389 0.41088 0.0
C1083 C 0.20455 0.34969 0.39157 0.0
C1084 C 0.21426 0.31017 0.37218 0.0
C1085 C 0.22005 0.40046 0.39014 0.0
C1086 C 0.23734 0.32285 0.35014 0.0
C1087 C 0.25187 0.37356 0.348 0.0
H1088 H 0.24909 0.45903 0.16767 0.0
H1089 H 0.29258 0.50266 0.08699 0.0
H1090 H 0.32786 0.42114 0.08676 0.0
H1091 H 0.34092 0.33273 0.10751 0.0
H1092 H 0.29497 0.28997 0.18737 0.0
H1093 H 0.26675 0.37669 0.19041 0.0
C1094 C 0.26634 0.45085 0.15 0.0
C1095 C 0.26765 0.48617 0.12705 0.0
C1096 C 0.28645 0.4044 0.15015 0.0
C1097 C 0.29086 0.47573 0.10474 0.0
C1098 C 0.31102 0.42921 0.10465 0.0
C1099 C 0.32586 0.34346 0.12603 0.0
C1100 C 0.32047 0.30569 0.14751 0.0
C1101 C 0.3085 0.39272 0.12702 0.0
C1102 C 0.29993 0.31898 0.17096 0.0
C1103 C 0.28344 0.3682 0.17248 0.0
H1104 H 0.19496 0.68261 0.61967 0.0
H1105 H 0.26982 0.74358 0.67982 0.0
H1106 H 0.29966 0.65837 0.68069 0.0
H1107 H 0.30744 0.56889 0.6618 0.0
H1108 H 0.23164 0.50509 0.60373 0.0
H1109 H 0.19938 0.5894 0.60431 0.0
C1110 C 0.21743 0.67708 0.63336 0.0
C1111 C 0.23029 0.71993 0.6494 0.0
C1112 C 0.23473 0.62786 0.63366 0.0
C1113 C 0.25935 0.71165 0.66712 0.0
C1114 C 0.27665 0.66296 0.6675 0.0
C1115 C 0.28392 0.57367 0.64918 0.0
C1116 C 0.27228 0.53168 0.63219 0.0
C1117 C 0.26516 0.62137 0.6503 0.0
C1118 C 0.24123 0.53738 0.61662 0.0
C1119 C 0.22281 0.5854 0.61706 0.0
loop_
_geom_bond_atom_site_label_1
_geom_bond_atom_site_label_2
_geom_bond_distance
_geom_bond_site_symmetry_2
_ccdc_geom_bond_type
Fe0 O2 1.918 . S
Fe0 O5 1.997 . S
Fe0 O6 2.002 . S
Fe0 O11 1.976 . S
Fe0 O14 1.996 . S
Fe1 O2 1.918 . S
Fe1 O9 1.997 . S
Fe1 O12 1.996 . S
Fe1 O16 1.976 . S
Fe1 O19 2.002 . S
O2 Fe0 1.918 . S
O2 Fe1 1.918 . S
O2 Fe3 1.918 . S
Fe3 O2 1.918 . S
Fe3 O4 2.002 . S
Fe3 O13 1.976 . S
Fe3 O17 1.996 . S
Fe3 O20 1.997 . S
O4 Fe3 2.002 . S
O4 C21 1.295 . S
O5 Fe0 1.997 . S
O5 C21 1.235 . S
O6 Fe0 2.002 . S
O6 C7 1.295 . S
C7 O6 1.295 . S
C7 O9 1.235 . S
C8 O13 1.287 . S
C8 O14 1.255 . S
O9 Fe1 1.997 . S
O9 C7 1.235 . S
C10 O16 1.287 . S
C10 O17 1.255 . S
O11 Fe0 1.976 . S
O11 C18 1.287 . S
O12 Fe1 1.996 . S
O12 C18 1.255 . S
O13 Fe3 1.976 . S
O13 C8 1.287 . S
O14 Fe0 1.996 . S
O14 C8 1.255 . S
C15 O19 1.295 . S
C15 O20 1.235 . S
O16 Fe1 1.976 . S
O16 C10 1.287 . S
O17 Fe3 1.996 . S
O17 C10 1.255 . S
C18 O11 1.287 . S
C18 O12 1.255 . S
O19 Fe1 2.002 . S
O19 C15 1.295 . S
O20 Fe3 1.997 . S
O20 C15 1.235 . S
C21 O4 1.295 . S
C21 O5 1.235 . S
Fe22 O24 1.918 . S
Fe22 O27 1.997 . S
Fe22 O28 2.002 . S
Fe22 O33 1.976 . S
Fe22 O36 1.996 . S
Fe23 O24 1.918 . S
Fe23 O31 1.997 . S
Fe23 O34 1.996 . S
Fe23 O38 1.976 . S
Fe23 O41 2.002 . S
O24 Fe22 1.918 . S
O24 Fe23 1.918 . S
O24 Fe25 1.918 . S
Fe25 O24 1.918 . S
Fe25 O26 2.002 . S
Fe25 O35 1.976 . S
Fe25 O39 1.996 . S
Fe25 O42 1.997 . S
O26 Fe25 2.002 . S
O26 C43 1.295 . S
O27 Fe22 1.997 . S
O27 C43 1.235 . S
O28 Fe22 2.002 . S
O28 C29 1.295 . S
C29 O28 1.295 . S
C29 O31 1.235 . S
C30 O35 1.287 . S
C30 O36 1.255 . S
O31 Fe23 1.997 . S
O31 C29 1.235 . S
C32 O38 1.287 . S
C32 O39 1.255 . S
O33 Fe22 1.976 . S
O33 C40 1.287 . S
O34 Fe23 1.996 . S
O34 C40 1.255 . S
O35 Fe25 1.976 . S
O35 C30 1.287 . S
O36 Fe22 1.996 . S
O36 C30 1.255 . S
C37 O41 1.295 . S
C37 O42 1.235 . S
O38 Fe23 1.976 . S
O38 C32 1.287 . S
O39 Fe25 1.996 . S
O39 C32 1.255 . S
C40 O33 1.287 . S
C40 O34 1.255 . S
O41 Fe23 2.002 . S
O41 C37 1.295 . S
O42 Fe25 1.997 . S
O42 C37 1.235 . S
C43 O26 1.295 . S
C43 O27 1.235 . S
Fe44 O46 1.918 . S
Fe44 O49 1.997 . S
Fe44 O50 2.002 . S
Fe44 O55 1.976 . S
Fe44 O58 1.996 . S
Fe45 O46 1.918 . S
Fe45 O53 1.997 . S
Fe45 O56 1.996 . S
Fe45 O60 1.976 . S
Fe45 O63 2.002 . S
O46 Fe44 1.918 . S
O46 Fe45 1.918 . S
O46 Fe47 1.918 . S
Fe47 O46 1.918 . S
Fe47 O48 2.002 . S
Fe47 O57 1.976 . S
Fe47 O61 1.996 . S
Fe47 O64 1.997 . S
O48 Fe47 2.002 . S
O48 C65 1.295 . S
O49 Fe44 1.997 . S
O49 C65 1.235 . S
O50 Fe44 2.002 . S
O50 C51 1.295 . S
C51 O50 1.295 . S
C51 O53 1.235 . S
C52 O57 1.287 . S
C52 O58 1.255 . S
O53 Fe45 1.997 . S
O53 C51 1.235 . S
C54 O60 1.287 . S
C54 O61 1.255 . S
O55 Fe44 1.976 . S
O55 C62 1.287 . S
O56 Fe45 1.996 . S
O56 C62 1.255 . S
O57 Fe47 1.976 . S
O57 C52 1.287 . S
O58 Fe44 1.996 . S
O58 C52 1.255 . S
C59 O63 1.295 . S
C59 O64 1.235 . S
O60 Fe45 1.976 . S
O60 C54 1.287 . S
O61 Fe47 1.996 . S
O61 C54 1.255 . S
C62 O55 1.287 . S
C62 O56 1.255 . S
O63 Fe45 2.002 . S
O63 C59 1.295 . S
O64 Fe47 1.997 . S
O64 C59 1.235 . S
C65 O48 1.295 . S
C65 O49 1.235 . S
Fe66 O68 1.918 . S
Fe66 O71 1.997 . S
Fe66 O72 2.002 . S
Fe66 O77 1.976 . S
Fe66 O80 1.996 . S
Fe67 O68 1.918 . S
Fe67 O75 1.997 . S
Fe67 O78 1.996 . S
Fe67 O82 1.976 . S
Fe67 O85 2.002 . S
O68 Fe66 1.918 . S
O68 Fe67 1.918 . S
O68 Fe69 1.918 . S
Fe69 O68 1.918 . S
Fe69 O70 2.002 . S
Fe69 O79 1.976 . S
Fe69 O83 1.996 . S
Fe69 O86 1.997 . S
O70 Fe69 2.002 . S
O70 C87 1.295 . S
O71 Fe66 1.997 . S
O71 C87 1.235 . S
O72 Fe66 2.002 . S
O72 C73 1.295 . S
C73 O72 1.295 . S
C73 O75 1.235 . S
C74 O79 1.287 . S
C74 O80 1.255 . S
O75 Fe67 1.997 . S
O75 C73 1.235 . S
C76 O82 1.287 . S
C76 O83 1.255 . S
O77 Fe66 1.976 . S
O77 C84 1.287 . S
O78 Fe67 1.996 . S
O78 C84 1.255 . S
O79 Fe69 1.976 . S
O79 C74 1.287 . S
O80 Fe66 1.996 . S
O80 C74 1.255 . S
C81 O85 1.295 . S
C81 O86 1.235 . S
O82 Fe67 1.976 . S
O82 C76 1.287 . S
O83 Fe69 1.996 . S
O83 C76 1.255 . S
C84 O77 1.287 . S
C84 O78 1.255 . S
O85 Fe67 2.002 . S
O85 C81 1.295 . S
O86 Fe69 1.997 . S
O86 C81 1.235 . S
C87 O70 1.295 . S
C87 O71 1.235 . S
Fe88 O90 1.918 . S
Fe88 O93 1.997 . S
Fe88 O94 2.002 . S
Fe88 O99 1.976 . S
Fe88 O102 1.996 . S
Fe89 O90 1.918 . S
Fe89 O97 1.997 . S
Fe89 O100 1.996 . S
Fe89 O104 1.976 . S
Fe89 O107 2.002 . S
O90 Fe88 1.918 . S
O90 Fe89 1.918 . S
O90 Fe91 1.918 . S
Fe91 O90 1.918 . S
Fe91 O92 2.002 . S
Fe91 O101 1.976 . S
Fe91 O105 1.996 . S
Fe91 O108 1.997 . S
O92 Fe91 2.002 . S
O92 C109 1.295 . S
O93 Fe88 1.997 . S
O93 C109 1.235 . S
O94 Fe88 2.002 . S
O94 C95 1.295 . S
C95 O94 1.295 . S
C95 O97 1.235 . S
C96 O101 1.287 . S
C96 O102 1.255 . S
O97 Fe89 1.997 . S
O97 C95 1.235 . S
C98 O104 1.287 . S
C98 O105 1.255 . S
O99 Fe88 1.976 . S
O99 C106 1.287 . S
O100 Fe89 1.996 . S
O100 C106 1.255 . S
O101 Fe91 1.976 . S
O101 C96 1.287 . S
O102 Fe88 1.996 . S
O102 C96 1.255 . S
C103 O107 1.295 . S
C103 O108 1.235 . S
O104 Fe89 1.976 . S
O104 C98 1.287 . S
O105 Fe91 1.996 . S
O105 C98 1.255 . S
C106 O99 1.287 . S
C106 O100 1.255 . S
O107 Fe89 2.002 . S
O107 C103 1.295 . S
O108 Fe91 1.997 . S
O108 C103 1.235 . S
C109 O92 1.295 . S
C109 O93 1.235 . S
Fe110 O112 1.918 . S
Fe110 O115 1.997 . S
Fe110 O116 2.002 . S
Fe110 O121 1.976 . S
Fe110 O124 1.996 . S
Fe111 O112 1.918 . S
Fe111 O119 1.997 . S
Fe111 O122 1.996 . S
Fe111 O126 1.976 . S
Fe111 O129 2.002 . S
O112 Fe110 1.918 . S
O112 Fe111 1.918 . S
O112 Fe113 1.918 . S
Fe113 O112 1.918 . S
Fe113 O114 2.002 . S
Fe113 O123 1.976 . S
Fe113 O127 1.996 . S
Fe113 O130 1.997 . S
O114 Fe113 2.002 . S
O114 C131 1.295 . S
O115 Fe110 1.997 . S
O115 C131 1.235 . S
O116 Fe110 2.002 . S
O116 C117 1.295 . S
C117 O116 1.295 . S
C117 O119 1.235 . S
C118 O123 1.287 . S
C118 O124 1.255 . S
O119 Fe111 1.997 . S
O119 C117 1.235 . S
C120 O126 1.287 . S
C120 O127 1.255 . S
O121 Fe110 1.976 . S
O121 C128 1.287 . S
O122 Fe111 1.996 . S
O122 C128 1.255 . S
O123 Fe113 1.976 . S
O123 C118 1.287 . S
O124 Fe110 1.996 . S
O124 C118 1.255 . S
C125 O129 1.295 . S
C125 O130 1.235 . S
O126 Fe111 1.976 . S
O126 C120 1.287 . S
O127 Fe113 1.996 . S
O127 C120 1.255 . S
C128 O121 1.287 . S
C128 O122 1.255 . S
O129 Fe111 2.002 . S
O129 C125 1.295 . S
O130 Fe113 1.997 . S
O130 C125 1.235 . S
C131 O114 1.295 . S
C131 O115 1.235 . S
Fe132 O134 1.918 . S
Fe132 O137 1.997 . S
Fe132 O138 2.002 . S
Fe132 O143 1.976 . S
Fe132 O146 1.996 . S
Fe133 O134 1.918 . S
Fe133 O141 1.997 . S
Fe133 O144 1.996 . S
Fe133 O148 1.976 . S
Fe133 O151 2.002 . S
O134 Fe132 1.918 . S
O134 Fe133 1.918 . S
O134 Fe135 1.918 . S
Fe135 O134 1.918 . S
Fe135 O136 2.002 . S
Fe135 O145 1.976 . S
Fe135 O149 1.996 . S
Fe135 O152 1.997 . S
O136 Fe135 2.002 . S
O136 C153 1.295 . S
O137 Fe132 1.997 . S
O137 C153 1.235 . S
O138 Fe132 2.002 . S
O138 C139 1.295 . S
C139 O138 1.295 . S
C139 O141 1.235 . S
C140 O145 1.287 . S
C140 O146 1.255 . S
O141 Fe133 1.997 . S
O141 C139 1.235 . S
C142 O148 1.287 . S
C142 O149 1.255 . S
O143 Fe132 1.976 . S
O143 C150 1.287 . S
O144 Fe133 1.996 . S
O144 C150 1.255 . S
O145 Fe135 1.976 . S
O145 C140 1.287 . S
O146 Fe132 1.996 . S
O146 C140 1.255 . S
C147 O151 1.295 . S
C147 O152 1.235 . S
O148 Fe133 1.976 . S
O148 C142 1.287 . S
O149 Fe135 1.996 . S
O149 C142 1.255 . S
C150 O143 1.287 . S
C150 O144 1.255 . S
O151 Fe133 2.002 . S
O151 C147 1.295 . S
O152 Fe135 1.997 . S
O152 C147 1.235 . S
C153 O136 1.295 . S
C153 O137 1.235 . S
Fe154 O156 1.918 . S
Fe154 O159 1.997 . S
Fe154 O160 2.002 . S
Fe154 O165 1.976 . S
Fe154 O168 1.996 . S
Fe155 O156 1.918 . S
Fe155 O163 1.997 . S
Fe155 O166 1.996 . S
Fe155 O170 1.976 . S
Fe155 O173 2.002 . S
O156 Fe154 1.918 . S
O156 Fe155 1.918 . S
O156 Fe157 1.918 . S
Fe157 O156 1.918 . S
Fe157 O158 2.002 . S
Fe157 O167 1.976 . S
Fe157 O171 1.996 . S
Fe157 O174 1.997 . S
O158 Fe157 2.002 . S
O158 C175 1.295 . S
O159 Fe154 1.997 . S
O159 C175 1.235 . S
O160 Fe154 2.002 . S
O160 C161 1.295 . S
C161 O160 1.295 . S
C161 O163 1.235 . S
C162 O167 1.287 . S
C162 O168 1.255 . S
O163 Fe155 1.997 . S
O163 C161 1.235 . S
C164 O170 1.287 . S
C164 O171 1.255 . S
O165 Fe154 1.976 . S
O165 C172 1.287 . S
O166 Fe155 1.996 . S
O166 C172 1.255 . S
O167 Fe157 1.976 . S
O167 C162 1.287 . S
O168 Fe154 1.996 . S
O168 C162 1.255 . S
C169 O173 1.295 . S
C169 O174 1.235 . S
O170 Fe155 1.976 . S
O170 C164 1.287 . S
O171 Fe157 1.996 . S
O171 C164 1.255 . S
C172 O165 1.287 . S
C172 O166 1.255 . S
O173 Fe155 2.002 . S
O173 C169 1.295 . S
O174 Fe157 1.997 . S
O174 C169 1.235 . S
C175 O158 1.295 . S
C175 O159 1.235 . S
Fe176 O178 1.918 . S
Fe176 O181 1.997 . S
Fe176 O182 2.002 . S
Fe176 O187 1.976 . S
Fe176 O190 1.996 . S
Fe177 O178 1.918 . S
Fe177 O185 1.997 . S
Fe177 O188 1.996 . S
Fe177 O192 1.976 . S
Fe177 O195 2.002 . S
O178 Fe176 1.918 . S
O178 Fe177 1.918 . S
O178 Fe179 1.918 . S
Fe179 O178 1.918 . S
Fe179 O180 2.002 . S
Fe179 O189 1.976 . S
Fe179 O193 1.996 . S
Fe179 O196 1.997 . S
O180 Fe179 2.002 . S
O180 C197 1.295 . S
O181 Fe176 1.997 . S
O181 C197 1.235 . S
O182 Fe176 2.002 . S
O182 C183 1.295 . S
C183 O182 1.295 . S
C183 O185 1.235 . S
C184 O189 1.287 . S
C184 O190 1.255 . S
O185 Fe177 1.997 . S
O185 C183 1.235 . S
C186 O192 1.287 . S
C186 O193 1.255 . S
O187 Fe176 1.976 . S
O187 C194 1.287 . S
O188 Fe177 1.996 . S
O188 C194 1.255 . S
O189 Fe179 1.976 . S
O189 C184 1.287 . S
O190 Fe176 1.996 . S
O190 C184 1.255 . S
C191 O195 1.295 . S
C191 O196 1.235 . S
O192 Fe177 1.976 . S
O192 C186 1.287 . S
O193 Fe179 1.996 . S
O193 C186 1.255 . S
C194 O187 1.287 . S
C194 O188 1.255 . S
O195 Fe177 2.002 . S
O195 C191 1.295 . S
O196 Fe179 1.997 . S
O196 C191 1.235 . S
C197 O180 1.295 . S
C197 O181 1.235 . S
Fe198 O200 1.918 . S
Fe198 O203 1.997 . S
Fe198 O204 2.002 . S
Fe198 O209 1.976 . S
Fe198 O212 1.996 . S
Fe199 O200 1.918 . S
Fe199 O207 1.997 . S
Fe199 O210 1.996 . S
Fe199 O214 1.976 . S
Fe199 O217 2.002 . S
O200 Fe198 1.918 . S
O200 Fe199 1.918 . S
O200 Fe201 1.918 . S
Fe201 O200 1.918 . S
Fe201 O202 2.002 . S
Fe201 O211 1.976 . S
Fe201 O215 1.996 . S
Fe201 O218 1.997 . S
O202 Fe201 2.002 . S
O202 C219 1.295 . S
O203 Fe198 1.997 . S
O203 C219 1.235 . S
O204 Fe198 2.002 . S
O204 C205 1.295 . S
C205 O204 1.295 . S
C205 O207 1.235 . S
C206 O211 1.287 . S
C206 O212 1.255 . S
O207 Fe199 1.997 . S
O207 C205 1.235 . S
C208 O214 1.287 . S
C208 O215 1.255 . S
O209 Fe198 1.976 . S
O209 C216 1.287 . S
O210 Fe199 1.996 . S
O210 C216 1.255 . S
O211 Fe201 1.976 . S
O211 C206 1.287 . S
O212 Fe198 1.996 . S
O212 C206 1.255 . S
C213 O217 1.295 . S
C213 O218 1.235 . S
O214 Fe199 1.976 . S
O214 C208 1.287 . S
O215 Fe201 1.996 . S
O215 C208 1.255 . S
C216 O209 1.287 . S
C216 O210 1.255 . S
O217 Fe199 2.002 . S
O217 C213 1.295 . S
O218 Fe201 1.997 . S
O218 C213 1.235 . S
C219 O202 1.295 . S
C219 O203 1.235 . S
Fe220 O222 1.918 . S
Fe220 O225 1.997 . S
Fe220 O226 2.002 . S
Fe220 O231 1.976 . S
Fe220 O234 1.996 . S
Fe221 O222 1.918 . S
Fe221 O229 1.997 . S
Fe221 O232 1.996 . S
Fe221 O236 1.976 . S
Fe221 O239 2.002 . S
O222 Fe220 1.918 . S
O222 Fe221 1.918 . S
O222 Fe223 1.918 . S
Fe223 O222 1.918 . S
Fe223 O224 2.002 . S
Fe223 O233 1.976 . S
Fe223 O237 1.996 . S
Fe223 O240 1.997 . S
O224 Fe223 2.002 . S
O224 C241 1.295 . S
O225 Fe220 1.997 . S
O225 C241 1.235 . S
O226 Fe220 2.002 . S
O226 C227 1.295 . S
C227 O226 1.295 . S
C227 O229 1.235 . S
C228 O233 1.287 . S
C228 O234 1.255 . S
O229 Fe221 1.997 . S
O229 C227 1.235 . S
C230 O236 1.287 . S
C230 O237 1.255 . S
O231 Fe220 1.976 . S
O231 C238 1.287 . S
O232 Fe221 1.996 . S
O232 C238 1.255 . S
O233 Fe223 1.976 . S
O233 C228 1.287 . S
O234 Fe220 1.996 . S
O234 C228 1.255 . S
C235 O239 1.295 . S
C235 O240 1.235 . S
O236 Fe221 1.976 . S
O236 C230 1.287 . S
O237 Fe223 1.996 . S
O237 C230 1.255 . S
C238 O231 1.287 . S
C238 O232 1.255 . S
O239 Fe221 2.002 . S
O239 C235 1.295 . S
O240 Fe223 1.997 . S
O240 C235 1.235 . S
C241 O224 1.295 . S
C241 O225 1.235 . S
Fe242 O244 1.918 . S
Fe242 O247 1.997 . S
Fe242 O248 2.002 . S
Fe242 O253 1.976 . S
Fe242 O256 1.996 . S
Fe243 O244 1.918 . S
Fe243 O251 1.997 . S
Fe243 O254 1.996 . S
Fe243 O258 1.976 . S
Fe243 O261 2.002 . S
O244 Fe242 1.918 . S
O244 Fe243 1.918 . S
O244 Fe245 1.918 . S
Fe245 O244 1.918 . S
Fe245 O246 2.002 . S
Fe245 O255 1.976 . S
Fe245 O259 1.996 . S
Fe245 O262 1.997 . S
O246 Fe245 2.002 . S
O246 C263 1.295 . S
O247 Fe242 1.997 . S
O247 C263 1.235 . S
O248 Fe242 2.002 . S
O248 C249 1.295 . S
C249 O248 1.295 . S
C249 O251 1.235 . S
C250 O255 1.287 . S
C250 O256 1.255 . S
O251 Fe243 1.997 . S
O251 C249 1.235 . S
C252 O258 1.287 . S
C252 O259 1.255 . S
O253 Fe242 1.976 . S
O253 C260 1.287 . S
O254 Fe243 1.996 . S
O254 C260 1.255 . S
O255 Fe245 1.976 . S
O255 C250 1.287 . S
O256 Fe242 1.996 . S
O256 C250 1.255 . S
C257 O261 1.295 . S
C257 O262 1.235 . S
O258 Fe243 1.976 . S
O258 C252 1.287 . S
O259 Fe245 1.996 . S
O259 C252 1.255 . S
C260 O253 1.287 . S
C260 O254 1.255 . S
O261 Fe243 2.002 . S
O261 C257 1.295 . S
O262 Fe245 1.997 . S
O262 C257 1.235 . S
C263 O246 1.295 . S
C263 O247 1.235 . S
Fe264 O266 1.918 . S
Fe264 O269 1.997 . S
Fe264 O270 2.002 . S
Fe264 O275 1.976 . S
Fe264 O278 1.996 . S
Fe265 O266 1.918 . S
Fe265 O273 1.997 . S
Fe265 O276 1.996 . S
Fe265 O280 1.976 . S
Fe265 O283 2.002 . S
O266 Fe264 1.918 . S
O266 Fe265 1.918 . S
O266 Fe267 1.918 . S
Fe267 O266 1.918 . S
Fe267 O268 2.002 . S
Fe267 O277 1.976 . S
Fe267 O281 1.996 . S
Fe267 O284 1.997 . S
O268 Fe267 2.002 . S
O268 C285 1.295 . S
O269 Fe264 1.997 . S
O269 C285 1.235 . S
O270 Fe264 2.002 . S
O270 C271 1.295 . S
C271 O270 1.295 . S
C271 O273 1.235 . S
C272 O277 1.287 . S
C272 O278 1.255 . S
O273 Fe265 1.997 . S
O273 C271 1.235 . S
C274 O280 1.287 . S
C274 O281 1.255 . S
O275 Fe264 1.976 . S
O275 C282 1.287 . S
O276 Fe265 1.996 . S
O276 C282 1.255 . S
O277 Fe267 1.976 . S
O277 C272 1.287 . S
O278 Fe264 1.996 . S
O278 C272 1.255 . S
C279 O283 1.295 . S
C279 O284 1.235 . S
O280 Fe265 1.976 . S
O280 C274 1.287 . S
O281 Fe267 1.996 . S
O281 C274 1.255 . S
C282 O275 1.287 . S
C282 O276 1.255 . S
O283 Fe265 2.002 . S
O283 C279 1.295 . S
O284 Fe267 1.997 . S
O284 C279 1.235 . S
C285 O268 1.295 . S
C285 O269 1.235 . S
Fe286 O288 1.918 . S
Fe286 O291 1.997 . S
Fe286 O292 2.002 . S
Fe286 O297 1.976 . S
Fe286 O300 1.996 . S
Fe287 O288 1.918 . S
Fe287 O295 1.997 . S
Fe287 O298 1.996 . S
Fe287 O302 1.976 . S
Fe287 O305 2.002 . S
O288 Fe286 1.918 . S
O288 Fe287 1.918 . S
O288 Fe289 1.918 . S
Fe289 O288 1.918 . S
Fe289 O290 2.002 . S
Fe289 O299 1.976 . S
Fe289 O303 1.996 . S
Fe289 O306 1.997 . S
O290 Fe289 2.002 . S
O290 C307 1.295 . S
O291 Fe286 1.997 . S
O291 C307 1.235 . S
O292 Fe286 2.002 . S
O292 C293 1.295 . S
C293 O292 1.295 . S
C293 O295 1.235 . S
C294 O299 1.287 . S
C294 O300 1.255 . S
O295 Fe287 1.997 . S
O295 C293 1.235 . S
C296 O302 1.287 . S
C296 O303 1.255 . S
O297 Fe286 1.976 . S
O297 C304 1.287 . S
O298 Fe287 1.996 . S
O298 C304 1.255 . S
O299 Fe289 1.976 . S
O299 C294 1.287 . S
O300 Fe286 1.996 . S
O300 C294 1.255 . S
C301 O305 1.295 . S
C301 O306 1.235 . S
O302 Fe287 1.976 . S
O302 C296 1.287 . S
O303 Fe289 1.996 . S
O303 C296 1.255 . S
C304 O297 1.287 . S
C304 O298 1.255 . S
O305 Fe287 2.002 . S
O305 C301 1.295 . S
O306 Fe289 1.997 . S
O306 C301 1.235 . S
C307 O290 1.295 . S
C307 O291 1.235 . S
Fe308 O310 1.918 . S
Fe308 O313 1.997 . S
Fe308 O314 2.002 . S
Fe308 O319 1.976 . S
Fe308 O322 1.996 . S
Fe309 O310 1.918 . S
Fe309 O317 1.997 . S
Fe309 O320 1.996 . S
Fe309 O324 1.976 . S
Fe309 O327 2.002 . S
O310 Fe308 1.918 . S
O310 Fe309 1.918 . S
O310 Fe311 1.918 . S
Fe311 O310 1.918 . S
Fe311 O312 2.002 . S
Fe311 O321 1.976 . S
Fe311 O325 1.996 . S
Fe311 O328 1.997 . S
O312 Fe311 2.002 . S
O312 C329 1.295 . S
O313 Fe308 1.997 . S
O313 C329 1.235 . S
O314 Fe308 2.002 . S
O314 C315 1.295 . S
C315 O314 1.295 . S
C315 O317 1.235 . S
C316 O321 1.287 . S
C316 O322 1.255 . S
O317 Fe309 1.997 . S
O317 C315 1.235 . S
C318 O324 1.287 . S
C318 O325 1.255 . S
O319 Fe308 1.976 . S
O319 C326 1.287 . S
O320 Fe309 1.996 . S
O320 C326 1.255 . S
O321 Fe311 1.976 . S
O321 C316 1.287 . S
O322 Fe308 1.996 . S
O322 C316 1.255 . S
C323 O327 1.295 . S
C323 O328 1.235 . S
O324 Fe309 1.976 . S
O324 C318 1.287 . S
O325 Fe311 1.996 . S
O325 C318 1.255 . S
C326 O319 1.287 . S
C326 O320 1.255 . S
O327 Fe309 2.002 . S
O327 C323 1.295 . S
O328 Fe311 1.997 . S
O328 C323 1.235 . S
C329 O312 1.295 . S
C329 O313 1.235 . S
Fe330 O332 1.918 . S
Fe330 O335 1.997 . S
Fe330 O336 2.002 . S
Fe330 O341 1.976 . S
Fe330 O344 1.996 . S
Fe331 O332 1.918 . S
Fe331 O339 1.997 . S
Fe331 O342 1.996 . S
Fe331 O346 1.976 . S
Fe331 O349 2.002 . S
O332 Fe330 1.918 . S
O332 Fe331 1.918 . S
O332 Fe333 1.918 . S
Fe333 O332 1.918 . S
Fe333 O334 2.002 . S
Fe333 O343 1.976 . S
Fe333 O347 1.996 . S
Fe333 O350 1.997 . S
O334 Fe333 2.002 . S
O334 C351 1.295 . S
O335 Fe330 1.997 . S
O335 C351 1.235 . S
O336 Fe330 2.002 . S
O336 C337 1.295 . S
C337 O336 1.295 . S
C337 O339 1.235 . S
C338 O343 1.287 . S
C338 O344 1.255 . S
O339 Fe331 1.997 . S
O339 C337 1.235 . S
C340 O346 1.287 . S
C340 O347 1.255 . S
O341 Fe330 1.976 . S
O341 C348 1.287 . S
O342 Fe331 1.996 . S
O342 C348 1.255 . S
O343 Fe333 1.976 . S
O343 C338 1.287 . S
O344 Fe330 1.996 . S
O344 C338 1.255 . S
C345 O349 1.295 . S
C345 O350 1.235 . S
O346 Fe331 1.976 . S
O346 C340 1.287 . S
O347 Fe333 1.996 . S
O347 C340 1.255 . S
C348 O341 1.287 . S
C348 O342 1.255 . S
O349 Fe331 2.002 . S
O349 C345 1.295 . S
O350 Fe333 1.997 . S
O350 C345 1.235 . S
C351 O334 1.295 . S
C351 O335 1.235 . S
H352 C358 0.930 . S
H353 C361 0.930 . S
H354 C362 0.930 . S
H355 C363 0.930 . S
H356 C366 0.930 . S
H357 C367 0.949 . S
C358 H352 0.930 . S
C358 C359 1.355 . S
C358 C360 1.415 . S
C359 C358 1.355 . S
C359 C361 1.419 . S
C360 C358 1.415 . S
C360 C365 1.425 1_554 S
C360 C367 1.409 1_554 S
C361 H353 0.930 . S
C361 C359 1.419 . S
C361 C362 1.362 . S
C362 H354 0.930 . S
C362 C361 1.362 . S
C362 C365 1.409 1_554 S
C363 H355 0.930 . S
C363 C364 1.355 . S
C363 C365 1.415 . S
C364 C363 1.355 . S
C364 C366 1.419 . S
C365 C360 1.425 1_556 S
C365 C362 1.409 1_556 S
C365 C363 1.415 . S
C366 H356 0.930 . S
C366 C364 1.419 . S
C366 C367 1.362 . S
C367 H357 0.949 . S
C367 C360 1.409 1_556 S
C367 C366 1.362 . S
H368 C374 0.930 . S
H369 C377 0.930 . S
H370 C378 0.930 . S
H371 C379 0.930 . S
H372 C382 0.930 . S
H373 C383 0.930 . S
C374 H368 0.930 . S
C374 C375 1.355 . S
C374 C376 1.415 . S
C375 C374 1.355 . S
C375 C377 1.419 . S
C376 C374 1.415 . S
C376 C381 1.425 . S
C376 C383 1.409 . S
C377 H369 0.930 . S
C377 C375 1.419 . S
C377 C378 1.362 . S
C378 H370 0.930 . S
C378 C377 1.362 . S
C378 C381 1.409 . S
C379 H371 0.930 . S
C379 C380 1.355 . S
C379 C381 1.415 . S
C380 C379 1.355 . S
C380 C382 1.419 . S
C381 C376 1.425 . S
C381 C378 1.409 . S
C381 C379 1.415 . S
C382 H372 0.930 . S
C382 C380 1.419 . S
C382 C383 1.362 . S
C383 H373 0.930 . S
C383 C376 1.409 . S
C383 C382 1.362 . S
H384 C390 0.930 . S
H385 C393 0.930 . S
H386 C394 0.930 1_556 S
H387 C395 0.930 . S
H388 C398 0.930 . S
H389 C399 0.930 1_554 S
C390 H384 0.930 . S
C390 C391 1.355 . S
C390 C392 1.415 . S
C391 C390 1.355 . S
C391 C393 1.419 . S
C392 C390 1.415 . S
C392 C397 1.425 1_554 S
C392 C399 1.409 1_554 S
C393 H385 0.930 . S
C393 C391 1.419 . S
C393 C394 1.362 . S
C394 H386 0.930 1_554 S
C394 C393 1.362 . S
C394 C397 1.409 1_554 S
C395 H387 0.930 . S
C395 C396 1.355 . S
C395 C397 1.415 . S
C396 C395 1.355 . S
C396 C398 1.419 . S
C397 C392 1.425 1_556 S
C397 C394 1.409 1_556 S
C397 C395 1.415 . S
C398 H388 0.930 . S
C398 C396 1.419 . S
C398 C399 1.362 . S
C399 H389 0.930 1_556 S
C399 C392 1.409 1_556 S
C399 C398 1.362 . S
H400 C406 0.930 . S
H401 C409 0.930 . S
H402 C410 0.930 . S
H403 C411 0.930 . S
H404 C414 0.930 . S
H405 C415 0.930 . S
C406 H400 0.930 . S
C406 C407 1.355 . S
C406 C408 1.415 . S
C407 C406 1.355 . S
C407 C409 1.419 . S
C408 C406 1.415 . S
C408 C413 1.425 . S
C408 C415 1.409 . S
C409 H401 0.930 . S
C409 C407 1.419 . S
C409 C410 1.362 . S
C410 H402 0.930 . S
C410 C409 1.362 . S
C410 C413 1.409 . S
C411 H403 0.930 . S
C411 C412 1.355 . S
C411 C413 1.415 . S
C412 C411 1.355 . S
C412 C414 1.419 . S
C413 C408 1.425 . S
C413 C410 1.409 . S
C413 C411 1.415 . S
C414 H404 0.930 . S
C414 C412 1.419 . S
C414 C415 1.362 . S
C415 H405 0.930 . S
C415 C408 1.409 . S
C415 C414 1.362 . S
H416 C422 0.930 . S
H417 C425 0.930 . S
H418 C426 0.930 . S
H419 C427 0.930 . S
H420 C430 0.930 . S
H421 C431 0.930 . S
C422 H416 0.930 . S
C422 C423 1.355 . S
C422 C424 1.415 . S
C423 C422 1.355 . S
C423 C425 1.419 . S
C424 C422 1.415 . S
C424 C429 1.425 1_556 S
C424 C431 1.409 1_556 S
C425 H417 0.930 . S
C425 C423 1.419 . S
C425 C426 1.362 . S
C426 H418 0.930 . S
C426 C425 1.362 . S
C426 C429 1.409 1_556 S
C427 H419 0.930 . S
C427 C428 1.355 . S
C427 C429 1.415 . S
C428 C427 1.355 . S
C428 C430 1.419 . S
C429 C424 1.425 1_554 S
C429 C426 1.409 1_554 S
C429 C427 1.415 . S
C430 H420 0.930 . S
C430 C428 1.419 . S
C430 C431 1.362 . S
C431 H421 0.930 . S
C431 C424 1.409 1_554 S
C431 C430 1.362 . S
H432 C438 0.930 . S
H433 C441 0.930 . S
H434 C442 0.930 . S
H435 C443 0.930 . S
H436 C446 0.930 . S
H437 C447 0.930 . S
C438 H432 0.930 . S
C438 C439 1.355 . S
C438 C440 1.415 . S
C439 C438 1.355 . S
C439 C441 1.419 . S
C440 C438 1.415 . S
C440 C445 1.425 . S
C440 C447 1.409 . S
C441 H433 0.930 . S
C441 C439 1.419 . S
C441 C442 1.362 . S
C442 H434 0.930 . S
C442 C441 1.362 . S
C442 C445 1.409 . S
C443 H435 0.930 . S
C443 C444 1.355 . S
C443 C445 1.415 . S
C444 C443 1.355 . S
C444 C446 1.419 . S
C445 C440 1.425 . S
C445 C442 1.409 . S
C445 C443 1.415 . S
C446 H436 0.930 . S
C446 C444 1.419 . S
C446 C447 1.362 . S
C447 H437 0.930 . S
C447 C440 1.409 . S
C447 C446 1.362 . S
H448 C454 0.930 . S
H449 C457 0.930 . S
H450 C458 0.930 . S
H451 C459 0.930 . S
H452 C462 0.930 . S
H453 C463 0.930 . S
C454 H448 0.930 . S
C454 C455 1.355 . S
C454 C456 1.415 1_554 S
C455 C454 1.355 . S
C455 C457 1.419 . S
C456 C454 1.415 1_556 S
C456 C461 1.425 1_556 S
C456 C463 1.409 . S
C457 H449 0.930 . S
C457 C455 1.419 . S
C457 C458 1.362 . S
C458 H450 0.930 . S
C458 C457 1.362 . S
C458 C461 1.409 . S
C459 H451 0.930 . S
C459 C460 1.355 . S
C459 C461 1.415 1_556 S
C460 C459 1.355 . S
C460 C462 1.419 . S
C461 C456 1.425 1_554 S
C461 C458 1.409 . S
C461 C459 1.415 1_554 S
C462 H452 0.930 . S
C462 C460 1.419 . S
C462 C463 1.362 . S
C463 H453 0.930 . S
C463 C456 1.409 . S
C463 C462 1.362 . S
H464 C470 0.930 . S
H465 C473 0.930 . S
H466 C474 0.930 . S
H467 C475 0.930 . S
H468 C478 0.930 . S
H469 C479 0.930 . S
C470 H464 0.930 . S
C470 C471 1.355 . S
C470 C472 1.415 . S
C471 C470 1.355 . S
C471 C473 1.419 . S
C472 C470 1.415 . S
C472 C477 1.425 . S
C472 C479 1.409 . S
C473 H465 0.930 . S
C473 C471 1.419 . S
C473 C474 1.362 . S
C474 H466 0.930 . S
C474 C473 1.362 . S
C474 C477 1.409 . S
C475 H467 0.930 . S
C475 C476 1.355 . S
C475 C477 1.415 . S
C476 C475 1.355 . S
C476 C478 1.419 . S
C477 C472 1.425 . S
C477 C474 1.409 . S
C477 C475 1.415 . S
C478 H468 0.930 . S
C478 C476 1.419 . S
C478 C479 1.362 . S
C479 H469 0.930 . S
C479 C472 1.409 . S
C479 C478 1.362 . S
H480 C486 0.930 . S
H481 C489 0.930 . S
H482 C490 0.930 1_554 S
H483 C491 0.930 . S
H484 C494 0.930 . S
H485 C495 0.930 1_556 S
C486 H480 0.930 . S
C486 C487 1.355 . S
C486 C488 1.415 1_565 S
C487 C486 1.355 . S
C487 C489 1.419 . S
C488 C486 1.415 1_545 S
C488 C493 1.425 1_546 S
C488 C495 1.409 1_556 S
C489 H481 0.930 . S
C489 C487 1.419 . S
C489 C490 1.362 . S
C490 H482 0.930 1_556 S
C490 C489 1.362 . S
C490 C493 1.409 1_556 S
C491 H483 0.930 . S
C491 C492 1.355 . S
C491 C493 1.415 1_545 S
C492 C491 1.355 . S
C492 C494 1.419 . S
C493 C488 1.425 1_564 S
C493 C490 1.409 1_554 S
C493 C491 1.415 1_565 S
C494 H484 0.930 . S
C494 C492 1.419 . S
C494 C495 1.362 . S
C495 H485 0.930 1_554 S
C495 C488 1.409 1_554 S
C495 C494 1.362 . S
H496 C502 0.930 . S
H497 C505 0.930 . S
H498 C506 0.930 . S
H499 C507 0.930 . S
H500 C510 0.930 . S
H501 C511 0.930 . S
C502 H496 0.930 . S
C502 C503 1.355 . S
C502 C504 1.415 1_565 S
C503 C502 1.355 . S
C503 C505 1.419 . S
C504 C502 1.415 1_545 S
C504 C509 1.425 1_545 S
C504 C511 1.409 . S
C505 H497 0.930 . S
C505 C503 1.419 . S
C505 C506 1.362 . S
C506 H498 0.930 . S
C506 C505 1.362 . S
C506 C509 1.409 . S
C507 H499 0.930 . S
C507 C508 1.355 . S
C507 C509 1.415 1_545 S
C508 C507 1.355 . S
C508 C510 1.419 . S
C509 C504 1.425 1_565 S
C509 C506 1.409 . S
C509 C507 1.415 1_565 S
C510 H500 0.930 . S
C510 C508 1.419 . S
C510 C511 1.362 . S
C511 H501 0.930 . S
C511 C504 1.409 . S
C511 C510 1.362 . S
H512 C518 0.930 . S
H513 C521 0.930 . S
H514 C522 0.930 . S
H515 C523 0.930 . S
H516 C526 0.930 . S
H517 C527 0.930 . S
C518 H512 0.930 . S
C518 C519 1.355 . S
C518 C520 1.415 1_556 S
C519 C518 1.355 . S
C519 C521 1.419 . S
C520 C518 1.415 1_554 S
C520 C525 1.425 1_564 S
C520 C527 1.409 . S
C521 H513 0.930 . S
C521 C519 1.419 . S
C521 C522 1.362 1_565 S
C522 H514 0.930 . S
C522 C521 1.362 1_545 S
C522 C525 1.409 . S
C523 H515 0.930 . S
C523 C524 1.355 . S
C523 C525 1.415 1_554 S
C524 C523 1.355 . S
C524 C526 1.419 . S
C525 C520 1.425 1_546 S
C525 C522 1.409 . S
C525 C523 1.415 1_556 S
C526 H516 0.930 . S
C526 C524 1.419 . S
C526 C527 1.362 1_545 S
C527 H517 0.930 . S
C527 C520 1.409 . S
C527 C526 1.362 1_565 S
H528 C534 0.930 . S
H529 C537 0.930 . S
H530 C538 0.930 . S
H531 C539 0.930 . S
H532 C542 0.930 . S
H533 C543 0.930 . S
C534 H528 0.930 . S
C534 C535 1.355 . S
C534 C536 1.415 1_565 S
C535 C534 1.355 . S
C535 C537 1.419 . S
C536 C534 1.415 1_545 S
C536 C541 1.425 1_545 S
C536 C543 1.409 . S
C537 H529 0.930 . S
C537 C535 1.419 . S
C537 C538 1.362 . S
C538 H530 0.930 . S
C538 C537 1.362 . S
C538 C541 1.409 . S
C539 H531 0.930 . S
C539 C540 1.355 . S
C539 C541 1.415 1_545 S
C540 C539 1.355 . S
C540 C542 1.419 . S
C541 C536 1.425 1_565 S
C541 C538 1.409 . S
C541 C539 1.415 1_565 S
C542 H532 0.930 . S
C542 C540 1.419 . S
C542 C543 1.362 . S
C543 H533 0.930 . S
C543 C536 1.409 . S
C543 C542 1.362 . S
H544 C550 0.930 . S
H545 C553 0.930 . S
H546 C554 0.930 . S
H547 C555 0.930 . S
H548 C558 0.930 . S
H549 C559 0.930 . S
C550 H544 0.930 . S
C550 C551 1.355 . S
C550 C552 1.415 1_554 S
C551 C550 1.355 . S
C551 C553 1.419 . S
C552 C550 1.415 1_556 S
C552 C557 1.425 1_556 S
C552 C559 1.409 . S
C553 H545 0.930 . S
C553 C551 1.419 . S
C553 C554 1.362 . S
C554 H546 0.930 . S
C554 C553 1.362 . S
C554 C557 1.409 . S
C555 H547 0.930 . S
C555 C556 1.355 . S
C555 C557 1.415 1_556 S
C556 C555 1.355 . S
C556 C558 1.419 . S
C557 C552 1.425 1_554 S
C557 C554 1.409 . S
C557 C555 1.415 1_554 S
C558 H548 0.930 . S
C558 C556 1.419 . S
C558 C559 1.362 . S
C559 H549 0.930 . S
C559 C552 1.409 . S
C559 C558 1.362 . S
H560 C566 0.930 . S
H561 C569 0.930 . S
H562 C570 0.930 . S
H563 C571 0.930 . S
H564 C574 0.930 . S
H565 C575 0.930 . S
C566 H560 0.930 . S
C566 C567 1.355 . S
C566 C568 1.415 . S
C567 C566 1.355 . S
C567 C569 1.419 . S
C568 C566 1.415 . S
C568 C573 1.425 . S
C568 C575 1.409 . S
C569 H561 0.930 . S
C569 C567 1.419 . S
C569 C570 1.362 . S
C570 H562 0.930 . S
C570 C569 1.362 . S
C570 C573 1.409 . S
C571 H563 0.930 . S
C571 C572 1.355 . S
C571 C573 1.415 . S
C572 C571 1.355 . S
C572 C574 1.419 . S
C573 C568 1.425 . S
C573 C570 1.409 . S
C573 C571 1.415 . S
C574 H564 0.930 . S
C574 C572 1.419 . S
C574 C575 1.362 . S
C575 H565 0.930 . S
C575 C568 1.409 . S
C575 C574 1.362 . S
H576 C582 0.930 . S
H577 C585 0.930 . S
H578 C586 0.930 . S
H579 C587 0.930 . S
H580 C590 0.930 . S
H581 C591 0.930 . S
C582 H576 0.930 . S
C582 C583 1.355 . S
C582 C584 1.415 . S
C583 C582 1.355 . S
C583 C585 1.419 . S
C584 C582 1.415 . S
C584 C589 1.425 1_554 S
C584 C591 1.409 . S
C585 H577 0.930 . S
C585 C583 1.419 . S
C585 C586 1.362 1_554 S
C586 H578 0.930 . S
C586 C585 1.362 1_556 S
C586 C589 1.409 . S
C587 H579 0.930 . S
C587 C588 1.355 . S
C587 C589 1.415 . S
C588 C587 1.355 . S
C588 C590 1.419 . S
C589 C584 1.425 1_556 S
C589 C586 1.409 . S
C589 C587 1.415 . S
C590 H580 0.930 . S
C590 C588 1.419 . S
C590 C591 1.362 1_556 S
C591 H581 0.930 . S
C591 C584 1.409 . S
C591 C590 1.362 1_554 S
H592 C598 0.930 . S
H593 C601 0.930 . S
H594 C602 0.930 . S
H595 C603 0.930 . S
H596 C606 0.930 . S
H597 C607 0.930 . S
C598 H592 0.930 . S
C598 C599 1.355 . S
C598 C600 1.415 . S
C599 C598 1.355 . S
C599 C601 1.419 . S
C600 C598 1.415 . S
C600 C605 1.425 . S
C600 C607 1.409 . S
C601 H593 0.930 . S
C601 C599 1.419 . S
C601 C602 1.362 . S
C602 H594 0.930 . S
C602 C601 1.362 . S
C602 C605 1.409 . S
C603 H595 0.930 . S
C603 C604 1.355 . S
C603 C605 1.415 . S
C604 C603 1.355 . S
C604 C606 1.419 . S
C605 C600 1.425 . S
C605 C602 1.409 . S
C605 C603 1.415 . S
C606 H596 0.930 . S
C606 C604 1.419 . S
C606 C607 1.362 . S
C607 H597 0.930 . S
C607 C600 1.409 . S
C607 C606 1.362 . S
H608 C614 0.930 . S
H609 C617 0.930 . S
H610 C618 0.930 . S
H611 C619 0.930 . S
H612 C622 0.930 . S
H613 C623 0.930 . S
C614 H608 0.930 . S
C614 C615 1.355 . S
C614 C616 1.415 . S
C615 C614 1.355 . S
C615 C617 1.419 . S
C616 C614 1.415 . S
C616 C621 1.425 . S
C616 C623 1.409 . S
C617 H609 0.930 . S
C617 C615 1.419 . S
C617 C618 1.362 . S
C618 H610 0.930 . S
C618 C617 1.362 . S
C618 C621 1.409 . S
C619 H611 0.930 . S
C619 C620 1.355 . S
C619 C621 1.415 . S
C620 C619 1.355 . S
C620 C622 1.419 . S
C621 C616 1.425 . S
C621 C618 1.409 . S
C621 C619 1.415 . S
C622 H612 0.930 . S
C622 C620 1.419 . S
C622 C623 1.362 . S
C623 H613 0.930 . S
C623 C616 1.409 . S
C623 C622 1.362 . S
H624 C630 0.930 . S
H625 C633 0.930 . S
H626 C634 0.930 . S
H627 C635 0.930 . S
H628 C638 0.930 . S
H629 C639 0.930 . S
C630 H624 0.930 . S
C630 C631 1.355 . S
C630 C632 1.415 . S
C631 C630 1.355 . S
C631 C633 1.419 . S
C632 C630 1.415 . S
C632 C637 1.425 . S
C632 C639 1.409 . S
C633 H625 0.930 . S
C633 C631 1.419 . S
C633 C634 1.362 . S
C634 H626 0.930 . S
C634 C633 1.362 . S
C634 C637 1.409 . S
C635 H627 0.930 . S
C635 C636 1.355 . S
C635 C637 1.415 . S
C636 C635 1.355 . S
C636 C638 1.419 . S
C637 C632 1.425 . S
C637 C634 1.409 . S
C637 C635 1.415 . S
C638 H628 0.930 . S
C638 C636 1.419 . S
C638 C639 1.362 . S
C639 H629 0.930 . S
C639 C632 1.409 . S
C639 C638 1.362 . S
H640 C646 0.930 . S
H641 C649 0.930 . S
H642 C650 0.930 . S
H643 C651 0.930 . S
H644 C654 0.930 . S
H645 C655 0.930 . S
C646 H640 0.930 . S
C646 C647 1.355 . S
C646 C648 1.415 . S
C647 C646 1.355 . S
C647 C649 1.419 . S
C648 C646 1.415 . S
C648 C653 1.425 . S
C648 C655 1.409 . S
C649 H641 0.930 . S
C649 C647 1.419 . S
C649 C650 1.362 . S
C650 H642 0.930 . S
C650 C649 1.362 . S
C650 C653 1.409 . S
C651 H643 0.930 . S
C651 C652 1.355 . S
C651 C653 1.415 . S
C652 C651 1.355 . S
C652 C654 1.419 . S
C653 C648 1.425 . S
C653 C650 1.409 . S
C653 C651 1.415 . S
C654 H644 0.930 . S
C654 C652 1.419 . S
C654 C655 1.362 . S
C655 H645 0.930 . S
C655 C648 1.409 . S
C655 C654 1.362 . S
H656 C662 0.930 . S
H657 C665 0.930 . S
H658 C666 0.930 . S
H659 C667 0.930 . S
H660 C670 0.930 . S
H661 C671 0.930 . S
C662 H656 0.930 . S
C662 C663 1.355 . S
C662 C664 1.415 . S
C663 C662 1.355 . S
C663 C665 1.419 . S
C664 C662 1.415 . S
C664 C669 1.425 . S
C664 C671 1.409 . S
C665 H657 0.930 . S
C665 C663 1.419 . S
C665 C666 1.362 . S
C666 H658 0.930 . S
C666 C665 1.362 . S
C666 C669 1.409 . S
C667 H659 0.930 . S
C667 C668 1.355 . S
C667 C669 1.415 . S
C668 C667 1.355 . S
C668 C670 1.419 . S
C669 C664 1.425 . S
C669 C666 1.409 . S
C669 C667 1.415 . S
C670 H660 0.930 . S
C670 C668 1.419 . S
C670 C671 1.362 . S
C671 H661 0.930 . S
C671 C664 1.409 . S
C671 C670 1.362 . S
H672 C678 0.930 . S
H673 C681 0.930 . S
H674 C682 0.930 . S
H675 C683 0.930 . S
H676 C686 0.930 . S
H677 C687 0.930 . S
C678 H672 0.930 . S
C678 C679 1.355 . S
C678 C680 1.415 . S
C679 C678 1.355 . S
C679 C681 1.419 . S
C680 C678 1.415 . S
C680 C685 1.425 . S
C680 C687 1.409 . S
C681 H673 0.930 . S
C681 C679 1.419 . S
C681 C682 1.362 . S
C682 H674 0.930 . S
C682 C681 1.362 . S
C682 C685 1.409 . S
C683 H675 0.930 . S
C683 C684 1.355 . S
C683 C685 1.415 . S
C684 C683 1.355 . S
C684 C686 1.419 . S
C685 C680 1.425 . S
C685 C682 1.409 . S
C685 C683 1.415 . S
C686 H676 0.930 . S
C686 C684 1.419 . S
C686 C687 1.362 . S
C687 H677 0.930 . S
C687 C680 1.409 . S
C687 C686 1.362 . S
H688 C694 0.930 . S
H689 C697 0.930 . S
H690 C698 0.930 . S
H691 C699 0.930 . S
H692 C702 0.930 . S
H693 C703 0.930 . S
C694 H688 0.930 . S
C694 C695 1.355 . S
C694 C696 1.415 . S
C695 C694 1.355 . S
C695 C697 1.419 . S
C696 C694 1.415 . S
C696 C701 1.425 . S
C696 C703 1.409 . S
C697 H689 0.930 . S
C697 C695 1.419 . S
C697 C698 1.362 . S
C698 H690 0.930 . S
C698 C697 1.362 . S
C698 C701 1.409 . S
C699 H691 0.930 . S
C699 C700 1.355 . S
C699 C701 1.415 . S
C700 C699 1.355 . S
C700 C702 1.419 . S
C701 C696 1.425 . S
C701 C698 1.409 . S
C701 C699 1.415 . S
C702 H692 0.930 . S
C702 C700 1.419 . S
C702 C703 1.362 . S
C703 H693 0.930 . S
C703 C696 1.409 . S
C703 C702 1.362 . S
H704 C710 0.930 . S
H705 C713 0.930 . S
H706 C714 0.930 . S
H707 C715 0.930 . S
H708 C718 0.930 . S
H709 C719 0.930 . S
C710 H704 0.930 . S
C710 C711 1.355 . S
C710 C712 1.415 . S
C711 C710 1.355 . S
C711 C713 1.419 . S
C712 C710 1.415 . S
C712 C717 1.425 . S
C712 C719 1.409 . S
C713 H705 0.930 . S
C713 C711 1.419 . S
C713 C714 1.362 . S
C714 H706 0.930 . S
C714 C713 1.362 . S
C714 C717 1.409 . S
C715 H707 0.930 . S
C715 C716 1.355 . S
C715 C717 1.415 . S
C716 C715 1.355 . S
C716 C718 1.419 . S
C717 C712 1.425 . S
C717 C714 1.409 . S
C717 C715 1.415 . S
C718 H708 0.930 . S
C718 C716 1.419 . S
C718 C719 1.362 . S
C719 H709 0.930 . S
C719 C712 1.409 . S
C719 C718 1.362 . S
H720 C726 0.930 . S
H721 C729 0.930 . S
H722 C730 0.930 . S
H723 C731 0.930 . S
H724 C734 0.930 . S
H725 C735 0.930 . S
C726 H720 0.930 . S
C726 C727 1.355 . S
C726 C728 1.415 . S
C727 C726 1.355 . S
C727 C729 1.419 . S
C728 C726 1.415 . S
C728 C733 1.425 . S
C728 C735 1.409 . S
C729 H721 0.930 . S
C729 C727 1.419 . S
C729 C730 1.362 . S
C730 H722 0.930 . S
C730 C729 1.362 . S
C730 C733 1.409 . S
C731 H723 0.930 . S
C731 C732 1.355 . S
C731 C733 1.415 . S
C732 C731 1.355 . S
C732 C734 1.419 . S
C733 C728 1.425 . S
C733 C730 1.409 . S
C733 C731 1.415 . S
C734 H724 0.930 . S
C734 C732 1.419 . S
C734 C735 1.362 . S
C735 H725 0.930 . S
C735 C728 1.409 . S
C735 C734 1.362 . S
H736 C742 0.930 . S
H737 C745 0.930 . S
H738 C746 0.930 . S
H739 C747 0.930 . S
H740 C750 0.930 . S
H741 C751 0.930 . S
C742 H736 0.930 . S
C742 C743 1.355 . S
C742 C744 1.415 . S
C743 C742 1.355 . S
C743 C745 1.419 . S
C744 C742 1.415 . S
C744 C749 1.425 . S
C744 C751 1.409 . S
C745 H737 0.930 . S
C745 C743 1.419 . S
C745 C746 1.362 . S
C746 H738 0.930 . S
C746 C745 1.362 . S
C746 C749 1.409 . S
C747 H739 0.930 . S
C747 C748 1.355 . S
C747 C749 1.415 . S
C748 C747 1.355 . S
C748 C750 1.419 . S
C749 C744 1.425 . S
C749 C746 1.409 . S
C749 C747 1.415 . S
C750 H740 0.930 . S
C750 C748 1.419 . S
C750 C751 1.362 . S
C751 H741 0.930 . S
C751 C744 1.409 . S
C751 C750 1.362 . S
H752 C758 0.930 . S
H753 C761 0.930 . S
H754 C762 0.930 . S
H755 C763 0.930 . S
H756 C766 0.930 . S
H757 C767 0.930 . S
C758 H752 0.930 . S
C758 C759 1.355 . S
C758 C760 1.415 . S
C759 C758 1.355 . S
C759 C761 1.419 . S
C760 C758 1.415 . S
C760 C765 1.425 1_455 S
C760 C767 1.409 1_455 S
C761 H753 0.930 . S
C761 C759 1.419 . S
C761 C762 1.362 . S
C762 H754 0.930 . S
C762 C761 1.362 . S
C762 C765 1.409 1_455 S
C763 H755 0.930 . S
C763 C764 1.355 . S
C763 C765 1.415 . S
C764 C763 1.355 . S
C764 C766 1.419 . S
C765 C760 1.425 1_655 S
C765 C762 1.409 1_655 S
C765 C763 1.415 . S
C766 H756 0.930 . S
C766 C764 1.419 . S
C766 C767 1.362 . S
C767 H757 0.930 . S
C767 C760 1.409 1_655 S
C767 C766 1.362 . S
H768 C774 0.930 . S
H769 C777 0.930 . S
H770 C778 0.930 . S
H771 C779 0.930 . S
H772 C782 0.930 . S
H773 C783 0.930 . S
C774 H768 0.930 . S
C774 C775 1.355 . S
C774 C776 1.415 . S
C775 C774 1.355 . S
C775 C777 1.419 . S
C776 C774 1.415 . S
C776 C781 1.425 . S
C776 C783 1.409 . S
C777 H769 0.930 . S
C777 C775 1.419 . S
C777 C778 1.362 . S
C778 H770 0.930 . S
C778 C777 1.362 . S
C778 C781 1.409 . S
C779 H771 0.930 . S
C779 C780 1.355 . S
C779 C781 1.415 . S
C780 C779 1.355 . S
C780 C782 1.419 . S
C781 C776 1.425 . S
C781 C778 1.409 . S
C781 C779 1.415 . S
C782 H772 0.930 . S
C782 C780 1.419 . S
C782 C783 1.362 . S
C783 H773 0.930 . S
C783 C776 1.409 . S
C783 C782 1.362 . S
H784 C790 0.930 . S
H785 C793 0.930 . S
H786 C794 0.930 . S
H787 C795 0.930 . S
H788 C798 0.930 . S
H789 C799 0.930 . S
C790 H784 0.930 . S
C790 C791 1.355 . S
C790 C792 1.415 . S
C791 C790 1.355 . S
C791 C793 1.419 . S
C792 C790 1.415 . S
C792 C797 1.425 1_655 S
C792 C799 1.409 1_655 S
C793 H785 0.930 . S
C793 C791 1.419 . S
C793 C794 1.362 . S
C794 H786 0.930 . S
C794 C793 1.362 . S
C794 C797 1.409 1_655 S
C795 H787 0.930 . S
C795 C796 1.355 . S
C795 C797 1.415 . S
C796 C795 1.355 . S
C796 C798 1.419 . S
C797 C792 1.425 1_455 S
C797 C794 1.409 1_455 S
C797 C795 1.415 . S
C798 H788 0.930 . S
C798 C796 1.419 . S
C798 C799 1.362 . S
C799 H789 0.930 . S
C799 C792 1.409 1_455 S
C799 C798 1.362 . S
H800 C806 0.930 . S
H801 C809 0.930 . S
H802 C810 0.930 . S
H803 C811 0.930 . S
H804 C814 0.930 . S
H805 C815 0.930 . S
C806 H800 0.930 . S
C806 C807 1.355 . S
C806 C808 1.415 . S
C807 C806 1.355 . S
C807 C809 1.419 . S
C808 C806 1.415 . S
C808 C813 1.425 1_655 S
C808 C815 1.409 1_655 S
C809 H801 0.930 . S
C809 C807 1.419 . S
C809 C810 1.362 . S
C810 H802 0.930 . S
C810 C809 1.362 . S
C810 C813 1.409 1_655 S
C811 H803 0.930 . S
C811 C812 1.355 . S
C811 C813 1.415 . S
C812 C811 1.355 . S
C812 C814 1.419 . S
C813 C808 1.425 1_455 S
C813 C810 1.409 1_455 S
C813 C811 1.415 . S
C814 H804 0.930 . S
C814 C812 1.419 . S
C814 C815 1.362 . S
C815 H805 0.930 . S
C815 C808 1.409 1_455 S
C815 C814 1.362 . S
H816 C822 0.930 . S
H817 C825 0.930 . S
H818 C826 0.930 . S
H819 C827 0.930 . S
H820 C830 0.930 . S
H821 C831 0.930 . S
C822 H816 0.930 . S
C822 C823 1.355 . S
C822 C824 1.415 . S
C823 C822 1.355 . S
C823 C825 1.419 . S
C824 C822 1.415 . S
C824 C829 1.425 . S
C824 C831 1.409 . S
C825 H817 0.930 . S
C825 C823 1.419 . S
C825 C826 1.362 . S
C826 H818 0.930 . S
C826 C825 1.362 . S
C826 C829 1.409 . S
C827 H819 0.930 . S
C827 C828 1.355 . S
C827 C829 1.415 . S
C828 C827 1.355 . S
C828 C830 1.419 . S
C829 C824 1.425 . S
C829 C826 1.409 . S
C829 C827 1.415 . S
C830 H820 0.930 . S
C830 C828 1.419 . S
C830 C831 1.362 . S
C831 H821 0.930 . S
C831 C824 1.409 . S
C831 C830 1.362 . S
H832 C838 0.930 . S
H833 C841 0.930 . S
H834 C842 0.930 . S
H835 C843 0.930 . S
H836 C846 0.930 . S
H837 C847 0.930 . S
C838 H832 0.930 . S
C838 C839 1.355 . S
C838 C840 1.415 . S
C839 C838 1.355 . S
C839 C841 1.419 . S
C840 C838 1.415 . S
C840 C845 1.425 1_455 S
C840 C847 1.409 1_455 S
C841 H833 0.930 . S
C841 C839 1.419 . S
C841 C842 1.362 . S
C842 H834 0.930 . S
C842 C841 1.362 . S
C842 C845 1.409 1_455 S
C843 H835 0.930 . S
C843 C844 1.355 . S
C843 C845 1.415 . S
C844 C843 1.355 . S
C844 C846 1.419 . S
C845 C840 1.425 1_655 S
C845 C842 1.409 1_655 S
C845 C843 1.415 . S
C846 H836 0.930 . S
C846 C844 1.419 . S
C846 C847 1.362 . S
C847 H837 0.930 . S
C847 C840 1.409 1_655 S
C847 C846 1.362 . S
H848 C854 0.930 . S
H849 C857 0.930 . S
H850 C858 0.930 . S
H851 C859 0.930 . S
H852 C862 0.930 . S
H853 C863 0.930 . S
C854 H848 0.930 . S
C854 C855 1.355 . S
C854 C856 1.415 . S
C855 C854 1.355 . S
C855 C857 1.419 . S
C856 C854 1.415 . S
C856 C861 1.425 . S
C856 C863 1.409 . S
C857 H849 0.930 . S
C857 C855 1.419 . S
C857 C858 1.362 . S
C858 H850 0.930 . S
C858 C857 1.362 . S
C858 C861 1.409 . S
C859 H851 0.930 . S
C859 C860 1.355 . S
C859 C861 1.415 . S
C860 C859 1.355 . S
C860 C862 1.419 . S
C861 C856 1.425 . S
C861 C858 1.409 . S
C861 C859 1.415 . S
C862 H852 0.930 . S
C862 C860 1.419 . S
C862 C863 1.362 . S
C863 H853 0.930 . S
C863 C856 1.409 . S
C863 C862 1.362 . S
H864 C870 0.930 . S
H865 C873 0.930 . S
H866 C874 0.930 . S
H867 C875 0.930 . S
H868 C878 0.930 . S
H869 C879 0.930 . S
C870 H864 0.930 . S
C870 C871 1.355 1_565 S
C870 C872 1.415 . S
C871 C870 1.355 1_545 S
C871 C873 1.419 . S
C872 C870 1.415 . S
C872 C877 1.425 . S
C872 C879 1.409 . S
C873 H865 0.930 . S
C873 C871 1.419 . S
C873 C874 1.362 1_545 S
C874 H866 0.930 . S
C874 C873 1.362 1_565 S
C874 C877 1.409 . S
C875 H867 0.930 . S
C875 C876 1.355 . S
C875 C877 1.415 . S
C876 C875 1.355 . S
C876 C878 1.419 . S
C877 C872 1.425 . S
C877 C874 1.409 . S
C877 C875 1.415 . S
C878 H868 0.930 . S
C878 C876 1.419 . S
C878 C879 1.362 . S
C879 H869 0.930 . S
C879 C872 1.409 . S
C879 C878 1.362 . S
H880 C886 0.930 . S
H881 C889 0.930 . S
H882 C890 0.930 . S
H883 C891 0.930 . S
H884 C894 0.930 . S
H885 C895 0.930 . S
C886 H880 0.930 . S
C886 C887 1.355 1_545 S
C886 C888 1.415 . S
C887 C886 1.355 1_565 S
C887 C889 1.419 . S
C888 C886 1.415 . S
C888 C893 1.425 . S
C888 C895 1.409 . S
C889 H881 0.930 . S
C889 C887 1.419 . S
C889 C890 1.362 1_565 S
C890 H882 0.930 . S
C890 C889 1.362 1_545 S
C890 C893 1.409 . S
C891 H883 0.930 . S
C891 C892 1.355 . S
C891 C893 1.415 . S
C892 C891 1.355 . S
C892 C894 1.419 . S
C893 C888 1.425 . S
C893 C890 1.409 . S
C893 C891 1.415 . S
C894 H884 0.930 . S
C894 C892 1.419 . S
C894 C895 1.362 . S
C895 H885 0.930 . S
C895 C888 1.409 . S
C895 C894 1.362 . S
H896 C902 0.930 . S
H897 C905 0.930 . S
H898 C906 0.930 . S
H899 C907 0.930 . S
H900 C910 0.930 . S
H901 C911 0.930 . S
C902 H896 0.930 . S
C902 C903 1.355 . S
C902 C904 1.415 . S
C903 C902 1.355 . S
C903 C905 1.419 . S
C904 C902 1.415 . S
C904 C909 1.425 . S
C904 C911 1.409 . S
C905 H897 0.930 . S
C905 C903 1.419 . S
C905 C906 1.362 . S
C906 H898 0.930 . S
C906 C905 1.362 . S
C906 C909 1.409 . S
C907 H899 0.930 . S
C907 C908 1.355 1_545 S
C907 C909 1.415 . S
C908 C907 1.355 1_565 S
C908 C910 1.419 . S
C909 C904 1.425 . S
C909 C906 1.409 . S
C909 C907 1.415 . S
C910 H900 0.930 . S
C910 C908 1.419 . S
C910 C911 1.362 1_565 S
C911 H901 0.930 . S
C911 C904 1.409 . S
C911 C910 1.362 1_545 S
H912 C918 0.930 . S
H913 C921 0.930 . S
H914 C922 0.930 . S
H915 C923 0.930 1_545 S
H916 C926 0.930 1_545 S
H917 C927 0.930 . S
C918 H912 0.930 . S
C918 C919 1.355 . S
C918 C920 1.415 . S
C919 C918 1.355 . S
C919 C921 1.419 . S
C920 C918 1.415 . S
C920 C925 1.425 . S
C920 C927 1.409 . S
C921 H913 0.930 . S
C921 C919 1.419 . S
C921 C922 1.362 . S
C922 H914 0.930 . S
C922 C921 1.362 . S
C922 C925 1.409 . S
C923 H915 0.930 1_565 S
C923 C924 1.355 1_565 S
C923 C925 1.415 . S
C924 C923 1.355 1_545 S
C924 C926 1.419 1_545 S
C925 C920 1.425 . S
C925 C922 1.409 . S
C925 C923 1.415 . S
C926 H916 0.930 1_565 S
C926 C924 1.419 1_565 S
C926 C927 1.362 . S
C927 H917 0.930 . S
C927 C920 1.409 . S
C927 C926 1.362 . S
H928 C934 0.930 . S
H929 C937 0.930 . S
H930 C938 0.930 . S
H931 C939 0.930 . S
H932 C942 0.930 . S
H933 C943 0.930 . S
C934 H928 0.930 . S
C934 C935 1.355 . S
C934 C936 1.415 . S
C935 C934 1.355 . S
C935 C937 1.419 . S
C936 C934 1.415 . S
C936 C941 1.425 . S
C936 C943 1.409 . S
C937 H929 0.930 . S
C937 C935 1.419 . S
C937 C938 1.362 . S
C938 H930 0.930 . S
C938 C937 1.362 . S
C938 C941 1.409 . S
C939 H931 0.930 . S
C939 C940 1.355 1_545 S
C939 C941 1.415 . S
C940 C939 1.355 1_565 S
C940 C942 1.419 . S
C941 C936 1.425 . S
C941 C938 1.409 . S
C941 C939 1.415 . S
C942 H932 0.930 . S
C942 C940 1.419 . S
C942 C943 1.362 1_565 S
C943 H933 0.930 . S
C943 C936 1.409 . S
C943 C942 1.362 1_545 S
H944 C950 0.930 . S
H945 C953 0.930 . S
H946 C954 0.930 . S
H947 C955 0.930 . S
H948 C958 0.930 . S
H949 C959 0.930 . S
C950 H944 0.930 . S
C950 C951 1.355 . S
C950 C952 1.415 1_545 S
C951 C950 1.355 . S
C951 C953 1.419 1_545 S
C952 C950 1.415 1_565 S
C952 C957 1.425 . S
C952 C959 1.409 . S
C953 H945 0.930 . S
C953 C951 1.419 1_565 S
C953 C954 1.362 . S
C954 H946 0.930 . S
C954 C953 1.362 . S
C954 C957 1.409 . S
C955 H947 0.930 . S
C955 C956 1.355 . S
C955 C957 1.415 . S
C956 C955 1.355 . S
C956 C958 1.419 . S
C957 C952 1.425 . S
C957 C954 1.409 . S
C957 C955 1.415 . S
C958 H948 0.930 . S
C958 C956 1.419 . S
C958 C959 1.362 . S
C959 H949 0.930 . S
C959 C952 1.409 . S
C959 C958 1.362 . S
H960 C966 0.930 1_545 S
H961 C969 0.924 1_545 S
H962 C970 0.930 . S
H963 C971 0.930 . S
H964 C974 0.930 . S
H965 C975 0.930 . S
C966 H960 0.930 1_565 S
C966 C967 1.355 1_565 S
C966 C968 1.415 . S
C967 C966 1.355 1_545 S
C967 C969 1.419 1_545 S
C968 C966 1.415 . S
C968 C973 1.425 . S
C968 C975 1.409 . S
C969 H961 0.924 1_565 S
C969 C967 1.419 1_565 S
C969 C970 1.362 . S
C970 H962 0.930 . S
C970 C969 1.362 . S
C970 C973 1.409 . S
C971 H963 0.930 . S
C971 C972 1.355 . S
C971 C973 1.415 . S
C972 C971 1.355 . S
C972 C974 1.419 . S
C973 C968 1.425 . S
C973 C970 1.409 . S
C973 C971 1.415 . S
C974 H964 0.930 . S
C974 C972 1.419 . S
C974 C975 1.362 . S
C975 H965 0.930 . S
C975 C968 1.409 . S
C975 C974 1.362 . S
H976 C982 0.930 . S
H977 C985 0.930 . S
H978 C986 0.930 . S
H979 C987 0.930 . S
H980 C990 0.930 . S
H981 C991 0.930 . S
C982 H976 0.930 . S
C982 C983 1.355 . S
C982 C984 1.415 . S
C983 C982 1.355 . S
C983 C985 1.419 . S
C984 C982 1.415 . S
C984 C989 1.425 . S
C984 C991 1.409 . S
C985 H977 0.930 . S
C985 C983 1.419 . S
C985 C986 1.362 . S
C986 H978 0.930 . S
C986 C985 1.362 . S
C986 C989 1.409 . S
C987 H979 0.930 . S
C987 C988 1.355 1_545 S
C987 C989 1.415 . S
C988 C987 1.355 1_565 S
C988 C990 1.419 . S
C989 C984 1.425 . S
C989 C986 1.409 . S
C989 C987 1.415 . S
C990 H980 0.930 . S
C990 C988 1.419 . S
C990 C991 1.362 1_565 S
C991 H981 0.930 . S
C991 C984 1.409 . S
C991 C990 1.362 1_545 S
H992 C998 0.930 . S
H993 C1001 0.930 . S
H994 C1002 0.930 . S
H995 C1003 0.930 . S
H996 C1006 0.930 . S
H997 C1007 0.930 . S
C998 H992 0.930 . S
C998 C999 1.355 . S
C998 C1000 1.415 . S
C999 C998 1.355 . S
C999 C1001 1.419 . S
C1000 C998 1.415 . S
C1000 C1005 1.425 . S
C1000 C1007 1.409 . S
C1001 H993 0.930 . S
C1001 C999 1.419 . S
C1001 C1002 1.362 . S
C1002 H994 0.930 . S
C1002 C1001 1.362 . S
C1002 C1005 1.409 . S
C1003 H995 0.930 . S
C1003 C1004 1.355 . S
C1003 C1005 1.415 . S
C1004 C1003 1.355 . S
C1004 C1006 1.419 . S
C1005 C1000 1.425 . S
C1005 C1002 1.409 . S
C1005 C1003 1.415 . S
C1006 H996 0.930 . S
C1006 C1004 1.419 . S
C1006 C1007 1.362 . S
C1007 H997 0.930 . S
C1007 C1000 1.409 . S
C1007 C1006 1.362 . S
H1008 C1014 0.930 . S
H1009 C1017 0.930 . S
H1010 C1018 0.930 . S
H1011 C1019 0.930 . S
H1012 C1022 0.930 . S
H1013 C1023 0.930 . S
C1014 H1008 0.930 . S
C1014 C1015 1.355 . S
C1014 C1016 1.415 . S
C1015 C1014 1.355 . S
C1015 C1017 1.419 . S
C1016 C1014 1.415 . S
C1016 C1021 1.425 . S
C1016 C1023 1.409 . S
C1017 H1009 0.930 . S
C1017 C1015 1.419 . S
C1017 C1018 1.362 . S
C1018 H1010 0.930 . S
C1018 C1017 1.362 . S
C1018 C1021 1.409 . S
C1019 H1011 0.930 . S
C1019 C1020 1.355 . S
C1019 C1021 1.415 . S
C1020 C1019 1.355 . S
C1020 C1022 1.419 . S
C1021 C1016 1.425 . S
C1021 C1018 1.409 . S
C1021 C1019 1.415 . S
C1022 H1012 0.930 . S
C1022 C1020 1.419 . S
C1022 C1023 1.362 . S
C1023 H1013 0.930 . S
C1023 C1016 1.409 . S
C1023 C1022 1.362 . S
H1024 C1030 0.930 . S
H1025 C1033 0.930 . S
H1026 C1034 0.930 . S
H1027 C1035 0.930 . S
H1028 C1038 0.930 . S
H1029 C1039 0.930 . S
C1030 H1024 0.930 . S
C1030 C1031 1.355 . S
C1030 C1032 1.415 . S
C1031 C1030 1.355 . S
C1031 C1033 1.419 . S
C1032 C1030 1.415 . S
C1032 C1037 1.425 . S
C1032 C1039 1.409 . S
C1033 H1025 0.930 . S
C1033 C1031 1.419 . S
C1033 C1034 1.362 . S
C1034 H1026 0.930 . S
C1034 C1033 1.362 . S
C1034 C1037 1.409 . S
C1035 H1027 0.930 . S
C1035 C1036 1.355 . S
C1035 C1037 1.415 . S
C1036 C1035 1.355 . S
C1036 C1038 1.419 . S
C1037 C1032 1.425 . S
C1037 C1034 1.409 . S
C1037 C1035 1.415 . S
C1038 H1028 0.930 . S
C1038 C1036 1.419 . S
C1038 C1039 1.362 . S
C1039 H1029 0.930 . S
C1039 C1032 1.409 . S
C1039 C1038 1.362 . S
H1040 C1046 0.930 . S
H1041 C1049 0.930 . S
H1042 C1050 0.930 . S
H1043 C1051 0.930 . S
H1044 C1054 0.930 . S
H1045 C1055 0.930 . S
C1046 H1040 0.930 . S
C1046 C1047 1.355 . S
C1046 C1048 1.415 . S
C1047 C1046 1.355 . S
C1047 C1049 1.419 . S
C1048 C1046 1.415 . S
C1048 C1053 1.425 . S
C1048 C1055 1.409 . S
C1049 H1041 0.930 . S
C1049 C1047 1.419 . S
C1049 C1050 1.362 . S
C1050 H1042 0.930 . S
C1050 C1049 1.362 . S
C1050 C1053 1.409 . S
C1051 H1043 0.930 . S
C1051 C1052 1.355 . S
C1051 C1053 1.415 . S
C1052 C1051 1.355 . S
C1052 C1054 1.419 . S
C1053 C1048 1.425 . S
C1053 C1050 1.409 . S
C1053 C1051 1.415 . S
C1054 H1044 0.930 . S
C1054 C1052 1.419 . S
C1054 C1055 1.362 . S
C1055 H1045 0.930 . S
C1055 C1048 1.409 . S
C1055 C1054 1.362 . S
H1056 C1062 0.930 . S
H1057 C1065 0.930 . S
H1058 C1066 0.930 . S
H1059 C1067 0.930 . S
H1060 C1070 0.930 . S
H1061 C1071 0.930 . S
C1062 H1056 0.930 . S
C1062 C1063 1.355 . S
C1062 C1064 1.415 . S
C1063 C1062 1.355 . S
C1063 C1065 1.419 . S
C1064 C1062 1.415 . S
C1064 C1069 1.425 . S
C1064 C1071 1.409 . S
C1065 H1057 0.930 . S
C1065 C1063 1.419 . S
C1065 C1066 1.362 . S
C1066 H1058 0.930 . S
C1066 C1065 1.362 . S
C1066 C1069 1.409 . S
C1067 H1059 0.930 . S
C1067 C1068 1.355 . S
C1067 C1069 1.415 . S
C1068 C1067 1.355 . S
C1068 C1070 1.419 . S
C1069 C1064 1.425 . S
C1069 C1066 1.409 . S
C1069 C1067 1.415 . S
C1070 H1060 0.930 . S
C1070 C1068 1.419 . S
C1070 C1071 1.362 . S
C1071 H1061 0.930 . S
C1071 C1064 1.409 . S
C1071 C1070 1.362 . S
H1072 C1078 0.930 . S
H1073 C1081 0.930 . S
H1074 C1082 0.930 . S
H1075 C1083 0.930 . S
H1076 C1086 0.930 . S
H1077 C1087 0.930 . S
C1078 H1072 0.930 . S
C1078 C1079 1.355 . S
C1078 C1080 1.415 . S
C1079 C1078 1.355 . S
C1079 C1081 1.419 . S
C1080 C1078 1.415 . S
C1080 C1085 1.425 . S
C1080 C1087 1.409 . S
C1081 H1073 0.930 . S
C1081 C1079 1.419 . S
C1081 C1082 1.362 . S
C1082 H1074 0.930 . S
C1082 C1081 1.362 . S
C1082 C1085 1.409 . S
C1083 H1075 0.930 . S
C1083 C1084 1.355 . S
C1083 C1085 1.415 . S
C1084 C1083 1.355 . S
C1084 C1086 1.419 . S
C1085 C1080 1.425 . S
C1085 C1082 1.409 . S
C1085 C1083 1.415 . S
C1086 H1076 0.930 . S
C1086 C1084 1.419 . S
C1086 C1087 1.362 . S
C1087 H1077 0.930 . S
C1087 C1080 1.409 . S
C1087 C1086 1.362 . S
H1088 C1094 0.930 . S
H1089 C1097 0.930 . S
H1090 C1098 0.930 . S
H1091 C1099 0.930 . S
H1092 C1102 0.930 . S
H1093 C1103 0.930 . S
C1094 H1088 0.930 . S
C1094 C1095 1.355 . S
C1094 C1096 1.415 . S
C1095 C1094 1.355 . S
C1095 C1097 1.419 . S
C1096 C1094 1.415 . S
C1096 C1101 1.425 . S
C1096 C1103 1.409 . S
C1097 H1089 0.930 . S
C1097 C1095 1.419 . S
C1097 C1098 1.362 . S
C1098 H1090 0.930 . S
C1098 C1097 1.362 . S
C1098 C1101 1.409 . S
C1099 H1091 0.930 . S
C1099 C1100 1.355 . S
C1099 C1101 1.415 . S
C1100 C1099 1.355 . S
C1100 C1102 1.419 . S
C1101 C1096 1.425 . S
C1101 C1098 1.409 . S
C1101 C1099 1.415 . S
C1102 H1092 0.930 . S
C1102 C1100 1.419 . S
C1102 C1103 1.362 . S
C1103 H1093 0.930 . S
C1103 C1096 1.409 . S
C1103 C1102 1.362 . S
H1104 C1110 0.930 . S
H1105 C1113 0.930 . S
H1106 C1114 0.930 . S
H1107 C1115 0.930 . S
H1108 C1118 0.930 . S
H1109 C1119 0.930 . S
C1110 H1104 0.930 . S
C1110 C1111 1.355 . S
C1110 C1112 1.415 . S
C1111 C1110 1.355 . S
C1111 C1113 1.419 . S
C1112 C1110 1.415 . S
C1112 C1117 1.425 . S
C1112 C1119 1.409 . S
C1113 H1105 0.930 . S
C1113 C1111 1.419 . S
C1113 C1114 1.362 . S
C1114 H1106 0.930 . S
C1114 C1113 1.362 . S
C1114 C1117 1.409 . S
C1115 H1107 0.930 . S
C1115 C1116 1.355 . S
C1115 C1117 1.415 . S
C1116 C1115 1.355 . S
C1116 C1118 1.419 . S
C1117 C1112 1.425 . S
C1117 C1114 1.409 . S
C1117 C1115 1.415 . S
C1118 H1108 0.930 . S
C1118 C1116 1.419 . S
C1118 C1119 1.362 . S
C1119 H1109 0.930 . S
C1119 C1112 1.409 . S
C1119 C1118 1.362 . S
C359 C21 0.975 . S
C364 C279 0.963 . S
C375 C307 1.062 . S
C380 C29 1.065 . S
C391 C323 1.058 . S
C396 C59 1.062 . S
C407 C345 0.978 . S
C412 C87 0.989 . S
C423 C103 0.950 . S
C428 C197 0.959 . S
C439 C219 1.055 . S
C444 C117 1.049 . S
C455 C147 1.001 . S
C460 C241 1.005 . S
C471 C263 0.968 . S
C476 C161 0.956 . S
C487 C65 1.620 . S
C492 C7 1.591 . S
C503 C37 1.617 . S
C508 C73 1.590 . S
C519 C95 1.617 . S
C524 C139 1.590 . S
C535 C175 1.605 . S
C540 C131 1.595 . S
C551 C183 1.595 . S
C556 C227 1.622 . S
C567 C249 1.603 . S
C572 C205 1.619 . S
C583 C315 1.594 . S
C588 C271 1.607 . S
C599 C337 1.609 . S
C604 C301 1.592 . S
C615 C10 1.817 . S
C620 C76 1.817 . S
C631 C62 1.815 . S
C636 C30 1.816 . S
C647 C164 1.835 . S
C652 C96 1.834 . S
C663 C140 1.791 . S
C668 C120 1.789 . S
C679 C252 1.761 . S
C684 C186 1.760 . S
C695 C230 1.815 . S
C700 C208 1.816 . S
C711 C272 1.804 . S
C716 C338 1.806 . S
C727 C316 1.824 . S
C732 C304 1.826 . S
C743 C18 1.439 . S
C748 C150 1.465 . S
C759 C32 1.445 . S
C764 C162 1.461 . S
C775 C106 1.428 . S
C780 C52 1.473 . S
C791 C118 1.428 . S
C796 C84 1.473 . S
C807 C194 1.454 . S
C812 C326 1.443 . S
C823 C216 1.456 . S
C828 C348 1.442 . S
C839 C282 1.443 . S
C844 C238 1.454 . S
C855 C296 1.458 . S
C860 C260 1.440 . S
C871 C15 1.411 . S
C876 C318 1.348 . S
C887 C43 1.395 . S
C892 C340 1.396 . S
C903 C274 1.370 . S
C908 C51 1.376 . S
C919 C294 1.387 . S
C924 C81 1.369 . S
C935 C228 1.398 . S
C940 C109 1.408 . S
C951 C125 1.383 . S
C956 C250 1.408 . S
C967 C153 1.379 . S
C972 C184 1.397 . S
C983 C206 1.378 . S
C988 C169 1.416 . S
C999 C142 1.404 . S
C1004 C191 1.386 . S
C1015 C213 1.368 . S
C1020 C172 1.399 . S
C1031 C98 1.370 . S
C1036 C235 1.411 . S
C1047 C257 1.376 . S
C1052 C128 1.407 . S
C1063 C54 1.399 . S
C1068 C285 1.379 . S
C1079 C293 1.381 . S
C1084 C74 1.405 . S
C1095 C329 1.407 . S
C1100 C8 1.399 . S
C1111 C40 1.389 . S
C1116 C351 1.380 . S
