# Generated by pormake.
# Topology ulj, (4)-cn, num edge types: 1
# Building blocks:
#     Node 0, Type 0, BuildingBlock: NAWXER_clean_sbu_0, # of connection points: 4
#     Node 1, Type 0, BuildingBlock: NAWXER_clean_sbu_0, # of connection points: 4
#     Node 2, Type 0, BuildingBlock: NAWXER_clean_sbu_0, # of connection points: 4
#     Node 3, Type 0, BuildingBlock: NAWXER_clean_sbu_0, # of connection points: 4
#     Node 4, Type 0, BuildingBlock: NAWXER_clean_sbu_0, # of connection points: 4
#     Node 5, Type 0, BuildingBlock: NAWXER_clean_sbu_0, # of connection points: 4
#     Node 6, Type 0, BuildingBlock: NAWXER_clean_sbu_0, # of connection points: 4
#     Node 7, Type 0, BuildingBlock: NAWXER_clean_sbu_0, # of connection points: 4
#     Node 8, Type 0, BuildingBlock: NAWXER_clean_sbu_0, # of connection points: 4
#     Node 9, Type 0, BuildingBlock: NAWXER_clean_sbu_0, # of connection points: 4
#     Node 10, Type 0, BuildingBlock: NAWXER_clean_sbu_0, # of connection points: 4
#     Node 11, Type 0, BuildingBlock: NAWXER_clean_sbu_0, # of connection points: 4
#     Node 12, Type 0, BuildingBlock: NAWXER_clean_sbu_0, # of connection points: 4
#     Node 13, Type 0, BuildingBlock: NAWXER_clean_sbu_0, # of connection points: 4
#     Node 14, Type 0, BuildingBlock: NAWXER_clean_sbu_0, # of connection points: 4
#     Node 15, Type 0, BuildingBlock: NAWXER_clean_sbu_0, # of connection points: 4
#     Node 16, Type 0, BuildingBlock: NAWXER_clean_sbu_0, # of connection points: 4
#     Node 17, Type 0, BuildingBlock: NAWXER_clean_sbu_0, # of connection points: 4
#     Node 18, Type 0, BuildingBlock: NAWXER_clean_sbu_0, # of connection points: 4
#     Node 19, Type 0, BuildingBlock: NAWXER_clean_sbu_0, # of connection points: 4
#     Node 20, Type 0, BuildingBlock: NAWXER_clean_sbu_0, # of connection points: 4
#     Node 21, Type 0, BuildingBlock: NAWXER_clean_sbu_0, # of connection points: 4
#     Node 22, Type 0, BuildingBlock: NAWXER_clean_sbu_0, # of connection points: 4
#     Node 23, Type 0, BuildingBlock: NAWXER_clean_sbu_0, # of connection points: 4
#     Node 24, Type 0, BuildingBlock: NAWXER_clean_sbu_0, # of connection points: 4
#     Node 25, Type 0, BuildingBlock: NAWXER_clean_sbu_0, # of connection points: 4
#     Node 26, Type 0, BuildingBlock: NAWXER_clean_sbu_0, # of connection points: 4
#     Node 27, Type 0, BuildingBlock: NAWXER_clean_sbu_0, # of connection points: 4
#     Node 28, Type 0, BuildingBlock: NAWXER_clean_sbu_0, # of connection points: 4
#     Node 29, Type 0, BuildingBlock: NAWXER_clean_sbu_0, # of connection points: 4
#     Node 30, Type 0, BuildingBlock: NAWXER_clean_sbu_0, # of connection points: 4
#     Node 31, Type 0, BuildingBlock: NAWXER_clean_sbu_0, # of connection points: 4
#     Node 32, Type 0, BuildingBlock: NAWXER_clean_sbu_0, # of connection points: 4
#     Node 33, Type 0, BuildingBlock: NAWXER_clean_sbu_0, # of connection points: 4
#     Node 34, Type 0, BuildingBlock: NAWXER_clean_sbu_0, # of connection points: 4
#     Node 35, Type 0, BuildingBlock: NAWXER_clean_sbu_0, # of connection points: 4
#     Node 36, Type 0, BuildingBlock: NAWXER_clean_sbu_0, # of connection points: 4
#     Node 37, Type 0, BuildingBlock: NAWXER_clean_sbu_0, # of connection points: 4
#     Node 38, Type 0, BuildingBlock: NAWXER_clean_sbu_0, # of connection points: 4
#     Node 39, Type 0, BuildingBlock: NAWXER_clean_sbu_0, # of connection points: 4
#     Node 40, Type 0, BuildingBlock: NAWXER_clean_sbu_0, # of connection points: 4
#     Node 41, Type 0, BuildingBlock: NAWXER_clean_sbu_0, # of connection points: 4
#     Node 42, Type 0, BuildingBlock: NAWXER_clean_sbu_0, # of connection points: 4
#     Node 43, Type 0, BuildingBlock: NAWXER_clean_sbu_0, # of connection points: 4
#     Node 44, Type 0, BuildingBlock: NAWXER_clean_sbu_0, # of connection points: 4
#     Node 45, Type 0, BuildingBlock: NAWXER_clean_sbu_0, # of connection points: 4
#     Node 46, Type 0, BuildingBlock: NAWXER_clean_sbu_0, # of connection points: 4
#     Node 47, Type 0, BuildingBlock: NAWXER_clean_sbu_0, # of connection points: 4
#     Edge 48, Type (0, 0), BuildingBlock: AJUNOK_clean_linker_0, # of connection points: 2
#     Edge 49, Type (0, 0), BuildingBlock: AJUNOK_clean_linker_0, # of connection points: 2
#     Edge 50, Type (0, 0), BuildingBlock: AJUNOK_clean_linker_0, # of connection points: 2
#     Edge 51, Type (0, 0), BuildingBlock: AJUNOK_clean_linker_0, # of connection points: 2
#     Edge 52, Type (0, 0), BuildingBlock: AJUNOK_clean_linker_0, # of connection points: 2
#     Edge 53, Type (0, 0), BuildingBlock: AJUNOK_clean_linker_0, # of connection points: 2
#     Edge 54, Type (0, 0), BuildingBlock: AJUNOK_clean_linker_0, # of connection points: 2
#     Edge 55, Type (0, 0), BuildingBlock: AJUNOK_clean_linker_0, # of connection points: 2
#     Edge 56, Type (0, 0), BuildingBlock: AJUNOK_clean_linker_0, # of connection points: 2
#     Edge 57, Type (0, 0), BuildingBlock: AJUNOK_clean_linker_0, # of connection points: 2
#     Edge 58, Type (0, 0), BuildingBlock: AJUNOK_clean_linker_0, # of connection points: 2
#     Edge 59, Type (0, 0), BuildingBlock: AJUNOK_clean_linker_0, # of connection points: 2
#     Edge 60, Type (0, 0), BuildingBlock: AJUNOK_clean_linker_0, # of connection points: 2
#     Edge 61, Type (0, 0), BuildingBlock: AJUNOK_clean_linker_0, # of connection points: 2
#     Edge 62, Type (0, 0), BuildingBlock: AJUNOK_clean_linker_0, # of connection points: 2
#     Edge 63, Type (0, 0), BuildingBlock: AJUNOK_clean_linker_0, # of connection points: 2
#     Edge 64, Type (0, 0), BuildingBlock: AJUNOK_clean_linker_0, # of connection points: 2
#     Edge 65, Type (0, 0), BuildingBlock: AJUNOK_clean_linker_0, # of connection points: 2
#     Edge 66, Type (0, 0), BuildingBlock: AJUNOK_clean_linker_0, # of connection points: 2
#     Edge 67, Type (0, 0), BuildingBlock: AJUNOK_clean_linker_0, # of connection points: 2
#     Edge 68, Type (0, 0), BuildingBlock: AJUNOK_clean_linker_0, # of connection points: 2
#     Edge 69, Type (0, 0), BuildingBlock: AJUNOK_clean_linker_0, # of connection points: 2
#     Edge 70, Type (0, 0), BuildingBlock: AJUNOK_clean_linker_0, # of connection points: 2
#     Edge 71, Type (0, 0), BuildingBlock: AJUNOK_clean_linker_0, # of connection points: 2
#     Edge 72, Type (0, 0), BuildingBlock: AJUNOK_clean_linker_0, # of connection points: 2
#     Edge 73, Type (0, 0), BuildingBlock: AJUNOK_clean_linker_0, # of connection points: 2
#     Edge 74, Type (0, 0), BuildingBlock: AJUNOK_clean_linker_0, # of connection points: 2
#     Edge 75, Type (0, 0), BuildingBlock: AJUNOK_clean_linker_0, # of connection points: 2
#     Edge 76, Type (0, 0), BuildingBlock: AJUNOK_clean_linker_0, # of connection points: 2
#     Edge 77, Type (0, 0), BuildingBlock: AJUNOK_clean_linker_0, # of connection points: 2
#     Edge 78, Type (0, 0), BuildingBlock: AJUNOK_clean_linker_0, # of connection points: 2
#     Edge 79, Type (0, 0), BuildingBlock: AJUNOK_clean_linker_0, # of connection points: 2
#     Edge 80, Type (0, 0), BuildingBlock: AJUNOK_clean_linker_0, # of connection points: 2
#     Edge 81, Type (0, 0), BuildingBlock: AJUNOK_clean_linker_0, # of connection points: 2
#     Edge 82, Type (0, 0), BuildingBlock: AJUNOK_clean_linker_0, # of connection points: 2
#     Edge 83, Type (0, 0), BuildingBlock: AJUNOK_clean_linker_0, # of connection points: 2
#     Edge 84, Type (0, 0), BuildingBlock: AJUNOK_clean_linker_0, # of connection points: 2
#     Edge 85, Type (0, 0), BuildingBlock: AJUNOK_clean_linker_0, # of connection points: 2
#     Edge 86, Type (0, 0), BuildingBlock: AJUNOK_clean_linker_0, # of connection points: 2
#     Edge 87, Type (0, 0), BuildingBlock: AJUNOK_clean_linker_0, # of connection points: 2
#     Edge 88, Type (0, 0), BuildingBlock: AJUNOK_clean_linker_0, # of connection points: 2
#     Edge 89, Type (0, 0), BuildingBlock: AJUNOK_clean_linker_0, # of connection points: 2
#     Edge 90, Type (0, 0), BuildingBlock: AJUNOK_clean_linker_0, # of connection points: 2
#     Edge 91, Type (0, 0), BuildingBlock: AJUNOK_clean_linker_0, # of connection points: 2
#     Edge 92, Type (0, 0), BuildingBlock: AJUNOK_clean_linker_0, # of connection points: 2
#     Edge 93, Type (0, 0), BuildingBlock: AJUNOK_clean_linker_0, # of connection points: 2
#     Edge 94, Type (0, 0), BuildingBlock: AJUNOK_clean_linker_0, # of connection points: 2
#     Edge 95, Type (0, 0), BuildingBlock: AJUNOK_clean_linker_0, # of connection points: 2
#     Edge 96, Type (0, 0), BuildingBlock: AJUNOK_clean_linker_0, # of connection points: 2
#     Edge 97, Type (0, 0), BuildingBlock: AJUNOK_clean_linker_0, # of connection points: 2
#     Edge 98, Type (0, 0), BuildingBlock: AJUNOK_clean_linker_0, # of connection points: 2
#     Edge 99, Type (0, 0), BuildingBlock: AJUNOK_clean_linker_0, # of connection points: 2
#     Edge 100, Type (0, 0), BuildingBlock: AJUNOK_clean_linker_0, # of connection points: 2
#     Edge 101, Type (0, 0), BuildingBlock: AJUNOK_clean_linker_0, # of connection points: 2
#     Edge 102, Type (0, 0), BuildingBlock: AJUNOK_clean_linker_0, # of connection points: 2
#     Edge 103, Type (0, 0), BuildingBlock: AJUNOK_clean_linker_0, # of connection points: 2
#     Edge 104, Type (0, 0), BuildingBlock: AJUNOK_clean_linker_0, # of connection points: 2
#     Edge 105, Type (0, 0), BuildingBlock: AJUNOK_clean_linker_0, # of connection points: 2
#     Edge 106, Type (0, 0), BuildingBlock: AJUNOK_clean_linker_0, # of connection points: 2
#     Edge 107, Type (0, 0), BuildingBlock: AJUNOK_clean_linker_0, # of connection points: 2
#     Edge 108, Type (0, 0), BuildingBlock: AJUNOK_clean_linker_0, # of connection points: 2
#     Edge 109, Type (0, 0), BuildingBlock: AJUNOK_clean_linker_0, # of connection points: 2
#     Edge 110, Type (0, 0), BuildingBlock: AJUNOK_clean_linker_0, # of connection points: 2
#     Edge 111, Type (0, 0), BuildingBlock: AJUNOK_clean_linker_0, # of connection points: 2
#     Edge 112, Type (0, 0), BuildingBlock: AJUNOK_clean_linker_0, # of connection points: 2
#     Edge 113, Type (0, 0), BuildingBlock: AJUNOK_clean_linker_0, # of connection points: 2
#     Edge 114, Type (0, 0), BuildingBlock: AJUNOK_clean_linker_0, # of connection points: 2
#     Edge 115, Type (0, 0), BuildingBlock: AJUNOK_clean_linker_0, # of connection points: 2
#     Edge 116, Type (0, 0), BuildingBlock: AJUNOK_clean_linker_0, # of connection points: 2
#     Edge 117, Type (0, 0), BuildingBlock: AJUNOK_clean_linker_0, # of connection points: 2
#     Edge 118, Type (0, 0), BuildingBlock: AJUNOK_clean_linker_0, # of connection points: 2
#     Edge 119, Type (0, 0), BuildingBlock: AJUNOK_clean_linker_0, # of connection points: 2
#     Edge 120, Type (0, 0), BuildingBlock: AJUNOK_clean_linker_0, # of connection points: 2
#     Edge 121, Type (0, 0), BuildingBlock: AJUNOK_clean_linker_0, # of connection points: 2
#     Edge 122, Type (0, 0), BuildingBlock: AJUNOK_clean_linker_0, # of connection points: 2
#     Edge 123, Type (0, 0), BuildingBlock: AJUNOK_clean_linker_0, # of connection points: 2
#     Edge 124, Type (0, 0), BuildingBlock: AJUNOK_clean_linker_0, # of connection points: 2
#     Edge 125, Type (0, 0), BuildingBlock: AJUNOK_clean_linker_0, # of connection points: 2
#     Edge 126, Type (0, 0), BuildingBlock: AJUNOK_clean_linker_0, # of connection points: 2
#     Edge 127, Type (0, 0), BuildingBlock: AJUNOK_clean_linker_0, # of connection points: 2
#     Edge 128, Type (0, 0), BuildingBlock: AJUNOK_clean_linker_0, # of connection points: 2
#     Edge 129, Type (0, 0), BuildingBlock: AJUNOK_clean_linker_0, # of connection points: 2
#     Edge 130, Type (0, 0), BuildingBlock: AJUNOK_clean_linker_0, # of connection points: 2
#     Edge 131, Type (0, 0), BuildingBlock: AJUNOK_clean_linker_0, # of connection points: 2
#     Edge 132, Type (0, 0), BuildingBlock: AJUNOK_clean_linker_0, # of connection points: 2
#     Edge 133, Type (0, 0), BuildingBlock: AJUNOK_clean_linker_0, # of connection points: 2
#     Edge 134, Type (0, 0), BuildingBlock: AJUNOK_clean_linker_0, # of connection points: 2
#     Edge 135, Type (0, 0), BuildingBlock: AJUNOK_clean_linker_0, # of connection points: 2
#     Edge 136, Type (0, 0), BuildingBlock: AJUNOK_clean_linker_0, # of connection points: 2
#     Edge 137, Type (0, 0), BuildingBlock: AJUNOK_clean_linker_0, # of connection points: 2
#     Edge 138, Type (0, 0), BuildingBlock: AJUNOK_clean_linker_0, # of connection points: 2
#     Edge 139, Type (0, 0), BuildingBlock: AJUNOK_clean_linker_0, # of connection points: 2
#     Edge 140, Type (0, 0), BuildingBlock: AJUNOK_clean_linker_0, # of connection points: 2
#     Edge 141, Type (0, 0), BuildingBlock: AJUNOK_clean_linker_0, # of connection points: 2
#     Edge 142, Type (0, 0), BuildingBlock: AJUNOK_clean_linker_0, # of connection points: 2
#     Edge 143, Type (0, 0), BuildingBlock: AJUNOK_clean_linker_0, # of connection points: 2
# Relax obj value: 0.095
# Max RMSD: 0.223
# Mean RMSD: 0.216
data_MOF--net-ulj--node1-NAWXER_clean_sbu_0--edge1-AJUNOK_clean_linker_0
_symmetry_space_group_name_H-M    P1
_symmetry_Int_Tables_number       1
_symmetry_cell_setting            triclinic
loop_
_symmetry_equiv_pos_as_xyz
'x, y, z'
_cell_length_a     48.089292
_cell_length_b     48.100768
_cell_length_c     48.092008
_cell_angle_alpha  90.011686
_cell_angle_beta   90.013874
_cell_angle_gamma 90.045976
loop_
_atom_site_label
_atom_site_type_symbol
_atom_site_fract_x
_atom_site_fract_y
_atom_site_fract_z
_atom_type_partial_charge
C0 C 0.14632 0.26839 0.27563 0.0
C1 C 0.10194 0.19857 0.33291 0.0
O2 O 0.1579 0.26705 0.29967 0.0
Zn3 Zn 0.15157 0.24336 0.33761 0.0
O4 O 0.12549 0.25305 0.27051 0.0
Zn5 Zn 0.12413 0.23407 0.30514 0.0
O6 O 0.10978 0.2655 0.33364 0.0
O7 O 0.14285 0.27091 0.36497 0.0
O8 O 0.09677 0.20559 0.30804 0.0
O9 O 0.12143 0.21094 0.34636 0.0
O10 O 0.18661 0.22464 0.34162 0.0
O11 O 0.16245 0.21085 0.30516 0.0
C12 C 0.11904 0.27739 0.35566 0.0
C13 C 0.18445 0.2094 0.32019 0.0
C14 C 0.52651 0.62254 0.89031 0.0
C15 C 0.45795 0.55641 0.92403 0.0
O16 O 0.52032 0.599 0.88004 0.0
Zn17 Zn 0.492 0.58955 0.9066 0.0
O18 O 0.51369 0.63135 0.91196 0.0
Zn19 Zn 0.48139 0.61704 0.93924 0.0
O20 O 0.49976 0.61546 0.97449 0.0
O21 O 0.51497 0.58404 0.94475 0.0
O22 O 0.45894 0.5786 0.93875 0.0
O23 O 0.47353 0.55414 0.90282 0.0
O24 O 0.46001 0.61921 0.89694 0.0
O25 O 0.45266 0.64423 0.93468 0.0
C26 C 0.5158 0.59523 0.96896 0.0
C27 C 0.44705 0.63886 0.90945 0.0
C28 C 0.87157 0.21288 0.35511 0.0
C29 C 0.80743 0.28224 0.31975 0.0
O30 O 0.8812 0.2252 0.3335 0.0
Zn31 Zn 0.86777 0.25733 0.30548 0.0
O32 O 0.84764 0.21923 0.36424 0.0
Zn33 Zn 0.83944 0.24742 0.33728 0.0
O34 O 0.83385 0.22457 0.29889 0.0
O35 O 0.86666 0.23892 0.27035 0.0
O36 O 0.80449 0.26653 0.34076 0.0
O37 O 0.82978 0.28083 0.30529 0.0
O38 O 0.8954 0.2856 0.31008 0.0
O39 O 0.86958 0.27917 0.34745 0.0
C40 C 0.84569 0.22358 0.27497 0.0
C41 C 0.88968 0.29167 0.33511 0.0
C42 C 0.53327 0.93649 0.92365 0.0
C43 C 0.46415 0.87004 0.89157 0.0
O44 O 0.51725 0.9385 0.90275 0.0
Zn45 Zn 0.49884 0.9032 0.90736 0.0
O46 O 0.53254 0.91448 0.93867 0.0
Zn47 Zn 0.50988 0.87603 0.93994 0.0
O48 O 0.53852 0.84877 0.93539 0.0
O49 O 0.53078 0.87342 0.89749 0.0
O50 O 0.47722 0.86132 0.91312 0.0
O51 O 0.47015 0.8936 0.88129 0.0
O52 O 0.47663 0.90931 0.9459 0.0
O53 O 0.4922 0.87795 0.97549 0.0
C54 C 0.54388 0.85389 0.91006 0.0
C55 C 0.47625 0.89831 0.97021 0.0
C56 C 0.12194 0.71766 0.13929 0.0
C57 C 0.18857 0.78595 0.17241 0.0
O58 O 0.11341 0.73036 0.16112 0.0
Zn59 Zn 0.12813 0.76245 0.18839 0.0
O60 O 0.14531 0.72398 0.12873 0.0
Zn61 Zn 0.15517 0.75206 0.15541 0.0
O62 O 0.16118 0.72877 0.19337 0.0
O63 O 0.13005 0.74388 0.22342 0.0
O64 O 0.19061 0.77034 0.15121 0.0
O65 O 0.16658 0.78496 0.18745 0.0
O66 O 0.10093 0.79122 0.18459 0.0
O67 O 0.12555 0.78446 0.14649 0.0
C68 C 0.15018 0.72781 0.21767 0.0
C69 C 0.10611 0.79733 0.15944 0.0
C70 C 0.04594 0.64184 0.08442 0.0
C71 C 0.97715 0.5962 0.02654 0.0
O72 O 0.03943 0.64703 0.05938 0.0
Zn73 Zn 0.01136 0.61903 0.05578 0.0
O74 O 0.03391 0.62181 0.0973 0.0
Zn75 Zn 0.00245 0.59117 0.0883 0.0
O76 O 0.02197 0.55653 0.09192 0.0
O77 O 0.03518 0.58119 0.0556 0.0
O78 O 0.97885 0.58482 0.05062 0.0
O79 O 0.99224 0.61715 0.021 0.0
O80 O 0.97958 0.63255 0.08433 0.0
O81 O 0.97472 0.59936 0.11565 0.0
C82 C 0.03709 0.55911 0.07044 0.0
C83 C 0.96785 0.62307 0.10634 0.0
C84 C 0.81163 0.70949 0.17672 0.0
C85 C 0.87736 0.77858 0.14374 0.0
O86 O 0.83351 0.7107 0.19193 0.0
Zn87 Zn 0.8718 0.73375 0.19282 0.0
O88 O 0.80965 0.72511 0.15553 0.0
Zn89 Zn 0.84472 0.7438 0.16009 0.0
O90 O 0.87481 0.71166 0.15093 0.0
O91 O 0.89924 0.70537 0.18925 0.0
O92 O 0.85393 0.77203 0.13349 0.0
O93 O 0.88625 0.766 0.1655 0.0
O94 O 0.86996 0.75204 0.22787 0.0
O95 O 0.83821 0.76681 0.19837 0.0
C96 C 0.89421 0.69897 0.16416 0.0
C97 C 0.84939 0.76767 0.22262 0.0
C98 C 0.95169 0.85417 0.0864 0.0
C99 C 0.01818 0.8999 0.02604 0.0
O100 O 0.95736 0.84883 0.06118 0.0
Zn101 Zn 0.98485 0.87711 0.05626 0.0
O102 O 0.96399 0.87438 0.09875 0.0
Zn103 Zn 0.99491 0.90523 0.08859 0.0
O104 O 0.9752 0.94006 0.09227 0.0
O105 O 0.96069 0.91437 0.05711 0.0
O106 O 0.01729 0.91124 0.05017 0.0
O107 O 0.00264 0.87919 0.02082 0.0
O108 O 0.01791 0.8642 0.08316 0.0
O109 O 0.02388 0.89684 0.11493 0.0
C110 C 0.95898 0.93658 0.0717 0.0
C111 C 0.03074 0.87352 0.1046 0.0
C112 C 0.27446 0.14733 0.27019 0.0
C113 C 0.33234 0.10178 0.20157 0.0
O114 O 0.2985 0.15884 0.26855 0.0
Zn115 Zn 0.33637 0.15244 0.24518 0.0
O116 O 0.26917 0.12615 0.25537 0.0
Zn117 Zn 0.30404 0.12424 0.23653 0.0
O118 O 0.3326 0.11109 0.2683 0.0
O119 O 0.36374 0.14448 0.273 0.0
O120 O 0.30755 0.09623 0.20869 0.0
O121 O 0.34541 0.12178 0.21351 0.0
O122 O 0.33973 0.18717 0.22554 0.0
O123 O 0.30394 0.16168 0.21221 0.0
C124 C 0.35454 0.12076 0.28001 0.0
C125 C 0.31859 0.18385 0.21006 0.0
C126 C 0.37257 0.38798 0.96738 0.0
C127 C 0.43697 0.42166 0.03756 0.0
O128 O 0.39596 0.37769 0.97405 0.0
Zn129 Zn 0.40485 0.40443 0.00247 0.0
O130 O 0.36351 0.40962 0.98003 0.0
Zn131 Zn 0.3771 0.43698 0.01251 0.0
O132 O 0.37894 0.4721 0.9941 0.0
O133 O 0.41064 0.44248 0.97932 0.0
O134 O 0.41482 0.43638 0.03603 0.0
O135 O 0.43997 0.40083 0.02162 0.0
O136 O 0.37441 0.3948 0.03397 0.0
O137 O 0.34924 0.43259 0.04052 0.0
C138 C 0.39933 0.46662 0.97825 0.0
C139 C 0.35447 0.40741 0.04642 0.0
C140 C 0.66331 0.3924 0.19844 0.0
C141 C 0.71973 0.34587 0.26772 0.0
O142 O 0.64968 0.37304 0.21075 0.0
Zn143 Zn 0.65765 0.34258 0.24266 0.0
O144 O 0.68836 0.39712 0.20526 0.0
Zn145 Zn 0.69116 0.36932 0.23349 0.0
O146 O 0.69004 0.33138 0.21007 0.0
O147 O 0.65307 0.30774 0.22346 0.0
O148 O 0.72592 0.36647 0.25242 0.0
O149 O 0.69527 0.33526 0.26621 0.0
O150 O 0.63073 0.35204 0.27058 0.0
O151 O 0.66354 0.38374 0.26545 0.0
C152 C 0.67461 0.30969 0.20831 0.0
C153 C 0.64139 0.37516 0.27758 0.0
C154 C 0.55705 0.07206 0.0341 0.0
C155 C 0.62102 0.10673 0.96424 0.0
O156 O 0.55375 0.09277 0.01807 0.0
Zn157 Zn 0.58869 0.08912 -0.00122 0.0
O158 O 0.57922 0.05738 0.03239 0.0
Zn159 Zn 0.61677 0.05685 0.00835 0.0
O160 O 0.64465 0.06093 0.03643 0.0
O161 O 0.61906 0.09856 0.03056 0.0
O162 O 0.63038 0.08492 0.97639 0.0
O163 O 0.59725 0.11616 0.97075 0.0
O164 O 0.58258 0.05111 0.97571 0.0
O165 O 0.61482 0.02177 0.98977 0.0
C166 C 0.6391 0.08593 0.04284 0.0
C167 C 0.59399 0.02703 0.97444 0.0
C168 C 0.33405 0.89156 0.29566 0.0
C169 C 0.27785 0.84646 0.22525 0.0
O170 O 0.34751 0.87192 0.28361 0.0
Zn171 Zn 0.33924 0.8415 0.25162 0.0
O172 O 0.30921 0.89669 0.28844 0.0
Zn173 Zn 0.30637 0.869 0.26015 0.0
O174 O 0.30597 0.83099 0.28358 0.0
O175 O 0.34265 0.80662 0.27088 0.0
O176 O 0.27201 0.8672 0.24049 0.0
O177 O 0.30193 0.83513 0.22724 0.0
O178 O 0.36693 0.85014 0.22429 0.0
O179 O 0.3351 0.88286 0.22883 0.0
C180 C 0.32087 0.80898 0.28561 0.0
C181 C 0.35731 0.87368 0.21727 0.0
C182 C 0.12374 0.3899 0.02919 0.0
C183 C 0.06107 0.42548 0.9586 0.0
O184 O 0.09994 0.38082 0.02224 0.0
Zn185 Zn 0.09234 0.40779 0.994 0.0
O186 O 0.13369 0.41151 0.01712 0.0
Zn187 Zn 0.12093 0.4397 0.98474 0.0
O188 O 0.11937 0.4749 0.00325 0.0
O189 O 0.08669 0.44583 0.01702 0.0
O190 O 0.08341 0.43993 0.96051 0.0
O191 O 0.05762 0.4046 0.97438 0.0
O192 O 0.1229 0.39778 0.96277 0.0
O193 O 0.14904 0.43505 0.95692 0.0
C194 C 0.09839 0.46977 0.01843 0.0
C195 C 0.14325 0.41007 0.95065 0.0
C196 C 0.66065 0.60378 0.29387 0.0
C197 C 0.72091 0.64828 0.22644 0.0
O198 O 0.64816 0.62352 0.28101 0.0
Zn199 Zn 0.65814 0.6535 0.24923 0.0
O200 O 0.68587 0.59844 0.28824 0.0
Zn201 Zn 0.69054 0.62594 0.25991 0.0
O202 O 0.68957 0.66408 0.28297 0.0
O203 O 0.65387 0.68864 0.26797 0.0
O204 O 0.72603 0.62774 0.2422 0.0
O205 O 0.69671 0.65951 0.22698 0.0
O206 O 0.63194 0.6444 0.2205 0.0
O207 O 0.66365 0.6119 0.22715 0.0
C208 C 0.67473 0.68619 0.28398 0.0
C209 C 0.64217 0.6209 0.21417 0.0
C210 C 0.93392 0.06863 0.95897 0.0
C211 C 0.86822 0.10227 0.02785 0.0
O212 O 0.93599 0.08998 0.97436 0.0
Zn213 Zn 0.90092 0.08571 0.99322 0.0
O214 O 0.91204 0.05345 0.9604 0.0
Zn215 Zn 0.87386 0.05273 0.98348 0.0
O216 O 0.84633 0.05604 0.95503 0.0
O217 O 0.87072 0.09444 0.96112 0.0
O218 O 0.85944 0.08035 0.01544 0.0
O219 O 0.89159 0.11261 0.02122 0.0
O220 O 0.90741 0.04784 0.01676 0.0
O221 O 0.87586 0.01793 0.00229 0.0
C222 C 0.85131 0.08111 0.94853 0.0
C223 C 0.89632 0.02357 0.01797 0.0
C224 C 0.20825 0.31921 0.18631 0.0
C225 C 0.27836 0.35138 0.1212 0.0
O226 O 0.20931 0.30425 0.16428 0.0
Zn227 Zn 0.23269 0.30302 0.12632 0.0
O228 O 0.22463 0.33976 0.18903 0.0
Zn229 Zn 0.24323 0.33538 0.15375 0.0
O230 O 0.21116 0.34517 0.12358 0.0
O231 O 0.20456 0.30707 0.09883 0.0
O232 O 0.27195 0.36164 0.14466 0.0
O233 O 0.26541 0.32988 0.11218 0.0
O234 O 0.25026 0.26765 0.12804 0.0
O235 O 0.26562 0.29675 0.15991 0.0
C236 C 0.19838 0.33215 0.10405 0.0
C237 C 0.26604 0.27256 0.14859 0.0
C238 C 0.26772 0.7195 0.34579 0.0
C239 C 0.19913 0.65981 0.38945 0.0
O240 O 0.26699 0.69532 0.33454 0.0
Zn241 Zn 0.24413 0.65704 0.3401 0.0
O242 O 0.25169 0.72489 0.36607 0.0
Zn243 Zn 0.23351 0.68957 0.36763 0.0
O244 O 0.26593 0.66243 0.38184 0.0
O245 O 0.27254 0.63054 0.34946 0.0
O246 O 0.20486 0.68499 0.39487 0.0
O247 O 0.21207 0.64728 0.36978 0.0
O248 O 0.22564 0.65317 0.30472 0.0
O249 O 0.21092 0.68899 0.32926 0.0
C250 C 0.2788 0.64084 0.37297 0.0
C251 C 0.20994 0.67426 0.30706 0.0
C252 C 0.8913 0.46485 0.87255 0.0
C253 C 0.92569 0.53416 0.9373 0.0
O254 O 0.88227 0.47083 0.89661 0.0
Zn255 Zn 0.9086 0.49953 0.90482 0.0
O256 O 0.91254 0.47774 0.86281 0.0
Zn257 Zn 0.93999 0.51043 0.87645 0.0
O258 O 0.97555 0.49284 0.877 0.0
O259 O 0.94746 0.47746 0.90974 0.0
O260 O 0.94006 0.53339 0.91485 0.0
O261 O 0.90496 0.51804 0.94003 0.0
O262 O 0.89754 0.53135 0.87519 0.0
O263 O 0.93463 0.53895 0.84927 0.0
C264 C 0.97131 0.47713 0.89776 0.0
C265 C 0.9095 0.54437 0.85521 0.0
C266 C 0.78689 0.81967 0.31088 0.0
C267 C 0.71654 0.85327 0.37512 0.0
O268 O 0.78478 0.80453 0.3327 0.0
Zn269 Zn 0.76061 0.80351 0.37008 0.0
O270 O 0.77132 0.84079 0.308 0.0
Zn271 Zn 0.75173 0.83673 0.34285 0.0
O272 O 0.78346 0.84494 0.37365 0.0
O273 O 0.78841 0.80648 0.39821 0.0
O274 O 0.72371 0.86379 0.35198 0.0
O275 O 0.72862 0.83122 0.38393 0.0
O276 O 0.74171 0.76877 0.36724 0.0
O277 O 0.72816 0.79911 0.33569 0.0
C278 C 0.79547 0.83142 0.39329 0.0
C279 C 0.72651 0.77477 0.34651 0.0
C280 C 0.60396 0.52968 0.37009 0.0
C281 C 0.57082 0.46032 0.43554 0.0
O282 O 0.61427 0.52327 0.39355 0.0
Zn283 Zn 0.58781 0.4948 0.40272 0.0
O284 O 0.5823 0.5169 0.36119 0.0
Zn285 Zn 0.55512 0.4844 0.37528 0.0
O286 O 0.51984 0.50257 0.3772 0.0
O287 O 0.5496 0.51757 0.40873 0.0
O288 O 0.55593 0.46145 0.41345 0.0
O289 O 0.59193 0.47603 0.43787 0.0
O290 O 0.5974 0.4631 0.37261 0.0
O291 O 0.55952 0.45604 0.3477 0.0
C292 C 0.52534 0.51839 0.39762 0.0
C293 C 0.58477 0.45036 0.35286 0.0
C294 C 0.28507 0.67529 0.68302 0.0
C295 C 0.21522 0.6413 0.61813 0.0
O296 O 0.2831 0.69036 0.66113 0.0
Zn297 Zn 0.25927 0.69116 0.62349 0.0
O298 O 0.26955 0.65407 0.68575 0.0
Zn299 Zn 0.25018 0.65799 0.65073 0.0
O300 O 0.28218 0.64977 0.62029 0.0
O301 O 0.28735 0.68813 0.59562 0.0
O302 O 0.22219 0.63087 0.64137 0.0
O303 O 0.22737 0.66336 0.60939 0.0
O304 O 0.24036 0.72592 0.62613 0.0
O305 O 0.22666 0.69564 0.6577 0.0
C306 C 0.29438 0.66322 0.60072 0.0
C307 C 0.22512 0.71996 0.64684 0.0
C308 C 0.91241 0.44994 0.64202 0.0
C309 C 0.96862 0.51952 0.59574 0.0
O310 O 0.93749 0.45674 0.6466 0.0
Zn311 Zn 0.94011 0.48503 0.61894 0.0
O312 O 0.89867 0.46228 0.62275 0.0
Zn313 Zn 0.90662 0.49431 0.59228 0.0
O314 O 0.90201 0.47524 0.55733 0.0
O315 O 0.93889 0.46167 0.58097 0.0
O316 O 0.9442 0.51801 0.58506 0.0
O317 O 0.97476 0.50408 0.61625 0.0
O318 O 0.91237 0.51668 0.63369 0.0
O319 O 0.87964 0.52209 0.60197 0.0
C320 C 0.92346 0.45998 0.55929 0.0
C321 C 0.89021 0.52882 0.62522 0.0
C322 C 0.08621 0.04526 0.63976 0.0
C323 C 0.0262 0.97706 0.59595 0.0
O324 O 0.06092 0.03981 0.64499 0.0
Zn325 Zn 0.05624 0.01121 0.61772 0.0
O326 O 0.09873 0.03222 0.62016 0.0
Zn327 Zn 0.0888 0.00029 0.59037 0.0
O328 O 0.09297 0.01862 0.55498 0.0
O329 O 0.05718 0.03374 0.57934 0.0
O330 O 0.05042 0.97763 0.58476 0.0
O331 O 0.02082 0.99326 0.6161 0.0
O332 O 0.0831 0.97859 0.63207 0.0
O333 O 0.11501 0.97171 0.59978 0.0
C334 C 0.07203 0.03453 0.55721 0.0
C335 C 0.10461 0.96555 0.62325 0.0
C336 C 0.6824 0.70777 0.81982 0.0
C337 C 0.61867 0.77868 0.85293 0.0
O338 O 0.66026 0.70932 0.80506 0.0
Zn339 Zn 0.6227 0.73325 0.80424 0.0
O340 O 0.68561 0.72401 0.8404 0.0
Zn341 Zn 0.65074 0.74336 0.83645 0.0
O342 O 0.62034 0.71185 0.84638 0.0
O343 O 0.59474 0.70535 0.80883 0.0
O344 O 0.64218 0.77205 0.86294 0.0
O345 O 0.60934 0.76593 0.83145 0.0
O346 O 0.6246 0.75118 0.76891 0.0
O347 O 0.65688 0.76577 0.79797 0.0
C348 C 0.60029 0.69937 0.83393 0.0
C349 C 0.64546 0.76658 0.77385 0.0
C350 C 0.95898 0.05696 0.42478 0.0
C351 C 0.02718 0.12216 0.38862 0.0
O352 O 0.97383 0.05465 0.40308 0.0
Zn353 Zn 0.99286 0.08972 0.40653 0.0
O354 O 0.96082 0.079 0.43967 0.0
Zn355 Zn 0.98409 0.11718 0.43938 0.0
O356 O 0.95564 0.14469 0.43646 0.0
O357 O 0.96062 0.11983 0.39822 0.0
O358 O 0.01548 0.13126 0.4108 0.0
O359 O 0.02027 0.09859 0.37895 0.0
O360 O 0.01714 0.08351 0.44389 0.0
O361 O 0.00366 0.11548 0.47383 0.0
C362 C 0.94843 0.13941 0.41164 0.0
C363 C 0.01902 0.09484 0.46799 0.0
C364 C 0.37226 0.71383 0.85214 0.0
C365 C 0.30863 0.78483 0.81924 0.0
O366 O 0.38178 0.72684 0.8309 0.0
Zn367 Zn 0.36856 0.7598 0.80394 0.0
O368 O 0.34861 0.72026 0.86195 0.0
Zn369 Zn 0.3403 0.74921 0.83571 0.0
O370 O 0.33457 0.72721 0.79683 0.0
O371 O 0.36709 0.74232 0.76834 0.0
O372 O 0.30532 0.76835 0.8396 0.0
O373 O 0.33091 0.78357 0.80468 0.0
O374 O 0.39639 0.78772 0.80914 0.0
O375 O 0.3706 0.78068 0.84644 0.0
C376 C 0.34624 0.72677 0.77281 0.0
C377 C 0.39071 0.79336 0.83429 0.0
C378 C 0.03294 0.43431 0.42469 0.0
C379 C 0.96377 0.36818 0.39179 0.0
O380 O 0.01756 0.43621 0.4033 0.0
Zn381 Zn -0.00142 0.40114 0.40786 0.0
O382 O 0.03149 0.41254 0.44 0.0
Zn383 Zn 0.00832 0.37441 0.44113 0.0
O384 O 0.03669 0.34684 0.43798 0.0
O385 O 0.03057 0.37083 0.39935 0.0
O386 O 0.97623 0.35969 0.41377 0.0
O387 O 0.97039 0.39144 0.38119 0.0
O388 O 0.97535 0.40815 0.44575 0.0
O389 O 0.98971 0.37692 0.47605 0.0
C390 C 0.04314 0.35154 0.41284 0.0
C391 C 0.97418 0.39742 0.47016 0.0
C392 C 0.64816 0.22977 0.72034 0.0
C393 C 0.60433 0.2969 0.65947 0.0
O394 O 0.65977 0.23009 0.69629 0.0
Zn395 Zn 0.65431 0.25237 0.65754 0.0
O396 O 0.62763 0.24565 0.72497 0.0
Zn397 Zn 0.62643 0.2632 0.6895 0.0
O398 O 0.61261 0.23042 0.6625 0.0
O399 O 0.64552 0.22359 0.63125 0.0
O400 O 0.59893 0.29132 0.68468 0.0
O401 O 0.62421 0.28411 0.64707 0.0
O402 O 0.68963 0.27099 0.65361 0.0
O403 O 0.66447 0.28642 0.68874 0.0
C404 C 0.62186 0.21737 0.64118 0.0
C405 C 0.68672 0.28738 0.67411 0.0
C406 C 0.54674 0.14218 0.58428 0.0
C407 C 0.47886 0.09721 0.52468 0.0
O408 O 0.5412 0.14726 0.55898 0.0
Zn409 Zn 0.51275 0.11971 0.55453 0.0
O410 O 0.53389 0.12251 0.5969 0.0
Zn411 Zn 0.50221 0.09241 0.58726 0.0
O412 O 0.52097 0.0573 0.5916 0.0
O413 O 0.53564 0.0815 0.55553 0.0
O414 O 0.4796 0.08622 0.54898 0.0
O415 O 0.49469 0.11762 0.51915 0.0
O416 O 0.48013 0.13396 0.58154 0.0
O417 O 0.47364 0.10169 0.61354 0.0
C418 C 0.53672 0.05949 0.57052 0.0
C419 C 0.46728 0.12512 0.60317 0.0
C420 C 0.31112 0.20905 0.67587 0.0
C421 C 0.37361 0.27962 0.63979 0.0
O422 O 0.33358 0.21095 0.69011 0.0
Zn423 Zn 0.37106 0.23523 0.68955 0.0
O424 O 0.30742 0.22493 0.65511 0.0
Zn425 Zn 0.34217 0.24462 0.65808 0.0
O426 O 0.37263 0.21328 0.64767 0.0
O427 O 0.39904 0.20746 0.68477 0.0
O428 O 0.34966 0.27288 0.63097 0.0
O429 O 0.38368 0.26748 0.6613 0.0
O430 O 0.37007 0.25362 0.72467 0.0
O431 O 0.33674 0.26742 0.69647 0.0
C432 C 0.39305 0.20116 0.65985 0.0
C433 C 0.34884 0.26862 0.72025 0.0
C434 C 0.51791 0.3996 0.52467 0.0
C435 C 0.44873 0.35419 0.58217 0.0
O436 O 0.50223 0.37917 0.51882 0.0
Zn437 Zn 0.48359 0.37693 0.55375 0.0
O438 O 0.51668 0.41053 0.54899 0.0
Zn439 Zn 0.49327 0.40388 0.58685 0.0
O440 O 0.52146 0.39461 0.61356 0.0
O441 O 0.51588 0.36263 0.58111 0.0
O442 O 0.46128 0.37359 0.59555 0.0
O443 O 0.45526 0.3493 0.5571 0.0
O444 O 0.46046 0.41506 0.55461 0.0
O445 O 0.47441 0.43895 0.59119 0.0
C446 C 0.52833 0.37141 0.60301 0.0
C447 C 0.45904 0.43691 0.56982 0.0
C448 C 0.77155 0.64552 0.76911 0.0
C449 C 0.83257 0.60148 0.70209 0.0
O450 O 0.79555 0.65722 0.7685 0.0
Zn451 Zn 0.83422 0.65168 0.74635 0.0
O452 O 0.76695 0.62466 0.75362 0.0
Zn453 Zn 0.80241 0.6233 0.7359 0.0
O454 O 0.82961 0.61001 0.76863 0.0
O455 O 0.86063 0.64323 0.77516 0.0
O456 O 0.80749 0.59559 0.70788 0.0
O457 O 0.84471 0.6216 0.71474 0.0
O458 O 0.83787 0.6867 0.72717 0.0
O459 O 0.80293 0.66099 0.71214 0.0
C460 C 0.85091 0.61952 0.78155 0.0
C461 C 0.81742 0.68332 0.71078 0.0
C462 C 0.87187 0.88766 0.46768 0.0
C463 C 0.93657 0.92345 0.53636 0.0
O464 O 0.89568 0.87833 0.47417 0.0
Zn465 Zn 0.90415 0.90547 0.50207 0.0
O466 O 0.86246 0.90948 0.47979 0.0
Zn467 Zn 0.87613 0.93773 0.51173 0.0
O468 O 0.87756 0.97274 0.49289 0.0
O469 O 0.90977 0.9434 0.47869 0.0
O470 O 0.91431 0.93803 0.53488 0.0
O471 O 0.93916 0.9021 0.52106 0.0
O472 O 0.87411 0.89586 0.53384 0.0
O473 O 0.84858 0.9334 0.54023 0.0
C474 C 0.89826 0.96742 0.47738 0.0
C475 C 0.85414 0.90834 0.54634 0.0
C476 C 0.174 0.80857 0.70984 0.0
C477 C 0.1408 0.87399 0.7792 0.0
O478 O 0.18884 0.8307 0.71093 0.0
Zn479 Zn 0.18957 0.86887 0.73397 0.0
O480 O 0.15306 0.80611 0.72574 0.0
Zn481 Zn 0.15721 0.84128 0.74448 0.0
O482 O 0.14745 0.87122 0.7125 0.0
O483 O 0.18527 0.89628 0.70559 0.0
O484 O 0.13069 0.85041 0.77294 0.0
O485 O 0.16236 0.883 0.76637 0.0
O486 O 0.2248 0.86742 0.75201 0.0
O487 O 0.19568 0.83543 0.76712 0.0
C488 C 0.1601 0.89094 0.69973 0.0
C489 C 0.21982 0.84686 0.76777 0.0
C490 C 0.13999 0.58441 0.54277 0.0
C491 C 0.09444 0.52459 0.47526 0.0
O492 O 0.14504 0.55913 0.53716 0.0
Zn493 Zn 0.11729 0.55467 0.50887 0.0
O494 O 0.12026 0.59702 0.52999 0.0
Zn495 Zn 0.08997 0.58733 0.49835 0.0
O496 O 0.05495 0.59191 0.51723 0.0
O497 O 0.07926 0.55598 0.53209 0.0
O498 O 0.08347 0.5489 0.47594 0.0
O499 O 0.11499 0.51923 0.49096 0.0
O500 O 0.13147 0.58159 0.47619 0.0
O501 O 0.09917 0.61354 0.46969 0.0
C502 C 0.05728 0.57101 0.53319 0.0
C503 C 0.1226 0.60319 0.46332 0.0
C504 C 0.83472 0.39086 0.79612 0.0
C505 C 0.77643 0.34762 0.72638 0.0
O506 O 0.84786 0.37131 0.78355 0.0
Zn507 Zn 0.8385 0.34147 0.75106 0.0
O508 O 0.80984 0.39631 0.78932 0.0
Zn509 Zn 0.80633 0.36916 0.76075 0.0
O510 O 0.80608 0.33077 0.7837 0.0
O511 O 0.84212 0.30624 0.76957 0.0
O512 O 0.77154 0.36828 0.742 0.0
O513 O 0.80037 0.33583 0.72749 0.0
O514 O 0.86574 0.35014 0.72334 0.0
O515 O 0.83461 0.38331 0.72911 0.0
C516 C 0.82081 0.30859 0.78495 0.0
C517 C 0.85645 0.37398 0.71697 0.0
C518 C 0.64147 0.90986 0.45049 0.0
C519 C 0.59677 0.96938 0.5185 0.0
O520 O 0.64691 0.935 0.45644 0.0
Zn521 Zn 0.61915 0.93944 0.48456 0.0
O522 O 0.62153 0.89733 0.46306 0.0
Zn523 Zn 0.59132 0.90702 0.49479 0.0
O524 O 0.55618 0.90314 0.4758 0.0
O525 O 0.58138 0.93853 0.46097 0.0
O526 O 0.58546 0.94522 0.5176 0.0
O527 O 0.61727 0.97471 0.50275 0.0
O528 O 0.63293 0.9121 0.51699 0.0
O529 O 0.60028 0.88041 0.52322 0.0
C530 C 0.55923 0.92377 0.4596 0.0
C531 C 0.62382 0.8905 0.52968 0.0
C532 C 0.22223 0.14692 0.72769 0.0
C533 C 0.16083 0.10298 0.79446 0.0
O534 O 0.19816 0.15846 0.728 0.0
Zn535 Zn 0.15929 0.15282 0.74994 0.0
O536 O 0.22684 0.12623 0.74338 0.0
Zn537 Zn 0.19124 0.1249 0.76083 0.0
O538 O 0.16441 0.11121 0.72787 0.0
O539 O 0.13319 0.14412 0.72098 0.0
O540 O 0.18605 0.09742 0.78908 0.0
O541 O 0.14865 0.12287 0.78153 0.0
O542 O 0.15521 0.18791 0.76878 0.0
O543 O 0.19059 0.16303 0.78395 0.0
C544 C 0.14316 0.1205 0.71473 0.0
C545 C 0.17595 0.18527 0.78491 0.0
C546 C 0.37148 0.60656 0.52752 0.0
C547 C 0.43618 0.57074 0.45889 0.0
O548 O 0.3953 0.6159 0.52103 0.0
Zn549 Zn 0.40385 0.5886 0.4933 0.0
O550 O 0.36214 0.58461 0.51555 0.0
Zn551 Zn 0.37591 0.5562 0.48385 0.0
O552 O 0.37743 0.52136 0.50288 0.0
O553 O 0.40969 0.5508 0.51684 0.0
O554 O 0.41399 0.55603 0.4605 0.0
O555 O 0.43879 0.5921 0.47418 0.0
O556 O 0.37368 0.59784 0.46149 0.0
O557 O 0.34828 0.5601 0.45544 0.0
C558 C 0.39818 0.52676 0.51829 0.0
C559 C 0.35373 0.58514 0.44912 0.0
C560 C 0.69977 0.83303 0.60342 0.0
C561 C 0.76663 0.77223 0.64809 0.0
O562 O 0.71236 0.84525 0.62354 0.0
Zn563 Zn 0.74385 0.83494 0.6538 0.0
O564 O 0.70557 0.80794 0.59769 0.0
Zn565 Zn 0.73349 0.80296 0.62554 0.0
O566 O 0.70963 0.80363 0.66313 0.0
O567 O 0.72452 0.83866 0.68879 0.0
O568 O 0.75121 0.76751 0.6272 0.0
O569 O 0.76599 0.79629 0.65964 0.0
O570 O 0.77272 0.86135 0.64525 0.0
O571 O 0.7663 0.83007 0.61228 0.0
C572 C 0.70818 0.81817 0.68541 0.0
C573 C 0.77921 0.85143 0.62166 0.0
C574 C 0.7772 0.13908 0.87317 0.0
C575 C 0.70834 0.17634 0.80949 0.0
O576 O 0.76583 0.16123 0.8827 0.0
Zn577 Zn 0.73467 0.1903 0.86933 0.0
O578 O 0.77011 0.12992 0.84945 0.0
Zn579 Zn 0.74287 0.15783 0.84118 0.0
O580 O 0.76705 0.19524 0.83498 0.0
O581 O 0.75423 0.22478 0.86759 0.0
O582 O 0.72343 0.15491 0.80626 0.0
O583 O 0.71065 0.19092 0.83169 0.0
O584 O 0.70653 0.18732 0.8971 0.0
O585 O 0.7107 0.14946 0.87149 0.0
C586 C 0.7691 0.21922 0.84652 0.0
C587 C 0.69886 0.16273 0.89139 0.0
C588 C 0.39054 0.96629 0.37147 0.0
C589 C 0.42681 0.03514 0.43576 0.0
O590 O 0.38128 0.97302 0.39524 0.0
Zn591 Zn 0.40872 0.00074 0.40353 0.0
O592 O 0.41244 0.97819 0.36196 0.0
Zn593 Zn 0.44094 0.00988 0.37553 0.0
O594 O 0.47562 0.99087 0.37674 0.0
O595 O 0.44664 0.97711 0.40942 0.0
O596 O 0.44146 0.03338 0.41355 0.0
O597 O 0.40538 0.01993 0.43845 0.0
O598 O 0.3995 0.03276 0.37337 0.0
O599 O 0.43734 0.03815 0.34797 0.0
C600 C 0.47058 0.97564 0.39767 0.0
C601 C 0.41251 0.04506 0.35357 0.0
C602 C 0.28726 0.31945 0.8099 0.0
C603 C 0.21743 0.35297 0.87474 0.0
O604 O 0.28564 0.30451 0.8319 0.0
Zn605 Zn 0.26201 0.30359 0.86964 0.0
O606 O 0.27135 0.34033 0.80703 0.0
Zn607 Zn 0.25221 0.33638 0.84209 0.0
O608 O 0.28405 0.34538 0.87235 0.0
O609 O 0.29018 0.30748 0.89747 0.0
O610 O 0.22406 0.36323 0.85133 0.0
O611 O 0.22987 0.33115 0.88363 0.0
O612 O 0.24343 0.26855 0.86738 0.0
O613 O 0.22905 0.29847 0.83578 0.0
C614 C 0.29647 0.33257 0.89218 0.0
C615 C 0.22783 0.27423 0.84684 0.0
C616 C 0.10291 0.0294 0.87028 0.0
C617 C 0.06975 0.96029 0.93588 0.0
O618 O 0.11302 0.02316 0.89385 0.0
Zn619 Zn 0.0866 0.9947 0.90299 0.0
O620 O 0.08133 0.01656 0.86128 0.0
Zn621 Zn 0.0541 0.98411 0.87548 0.0
O622 O 0.01876 0.00218 0.87721 0.0
O623 O 0.04825 0.01729 0.90892 0.0
O624 O 0.05485 0.96129 0.91378 0.0
O625 O 0.09081 0.97607 0.93813 0.0
O626 O 0.09638 0.96284 0.8731 0.0
O627 O 0.05861 0.95556 0.84809 0.0
C628 C 0.02405 0.01799 0.89769 0.0
C629 C 0.08384 0.94994 0.8534 0.0
C630 C 0.79307 0.1594 0.10276 0.0
C631 C 0.72588 0.21957 0.14768 0.0
O632 O 0.78024 0.14691 0.12254 0.0
Zn633 Zn 0.74863 0.15685 0.15275 0.0
O634 O 0.78762 0.18469 0.09756 0.0
Zn635 Zn 0.75948 0.18937 0.12525 0.0
O636 O 0.78287 0.18795 0.16311 0.0
O637 O 0.76752 0.15256 0.18796 0.0
O638 O 0.74183 0.22487 0.12732 0.0
O639 O 0.72637 0.19532 0.15878 0.0
O640 O 0.71977 0.13074 0.14338 0.0
O641 O 0.72665 0.16265 0.11111 0.0
C642 C 0.78397 0.17305 0.18516 0.0
C643 C 0.71355 0.14117 0.11992 0.0
C644 C 0.41316 0.94996 0.14262 0.0
C645 C 0.46958 0.02006 0.09759 0.0
O646 O 0.438 0.95721 0.14776 0.0
Zn647 Zn 0.44064 0.98554 0.12018 0.0
O648 O 0.39962 0.96206 0.12305 0.0
Zn649 Zn 0.40791 0.99426 0.09274 0.0
O650 O 0.40409 0.9751 0.05788 0.0
O651 O 0.44075 0.96202 0.08208 0.0
O652 O 0.44549 0.01831 0.08618 0.0
O653 O 0.47506 0.00496 0.11848 0.0
O654 O 0.41191 0.01675 0.13437 0.0
O655 O 0.38032 0.0216 0.10147 0.0
C656 C 0.42571 0.96014 0.06013 0.0
C657 C 0.38973 0.02836 0.12518 0.0
C658 C 0.52606 0.47538 0.09737 0.0
C659 C 0.58555 0.54481 0.13989 0.0
O660 O 0.52131 0.49102 0.11808 0.0
Zn661 Zn 0.55611 0.51001 0.11851 0.0
O662 O 0.54982 0.47665 0.08524 0.0
Zn663 Zn 0.58784 0.50029 0.09003 0.0
O664 O 0.61532 0.47261 0.09821 0.0
O665 O 0.58469 0.47837 0.13191 0.0
O666 O 0.59787 0.53231 0.11981 0.0
O667 O 0.56061 0.53857 0.14582 0.0
O668 O 0.55509 0.53304 0.08029 0.0
O669 O 0.59062 0.51917 0.0549 0.0
C670 C 0.6064 0.46629 0.12223 0.0
C671 C 0.56934 0.5345 0.05781 0.0
C672 C 0.19818 0.31362 0.23693 0.0
C673 C 0.18962 0.31073 0.20915 0.0
C674 C 0.18322 0.30103 0.25857 0.0
C675 C 0.15901 0.28537 0.25319 0.0
H676 H 0.21741 0.32428 0.24186 0.0
H677 H 0.19139 0.30264 0.2795 0.0
S678 S 0.12557 0.27584 0.18412 0.0
N679 N 0.15391 0.29404 0.17757 0.0
N680 N 0.12545 0.27077 0.21807 0.0
C681 C 0.14915 0.28424 0.2256 0.0
C682 C 0.16456 0.2968 0.20362 0.0
C683 C 0.53952 0.57319 0.04059 0.0
C684 C 0.55945 0.55254 0.03493 0.0
C685 C 0.52669 0.58805 0.01915 0.0
C686 C 0.53305 0.58266 0.99113 0.0
H687 H 0.53307 0.57736 0.06177 0.0
H688 H 0.5107 0.60293 0.02462 0.0
S689 S 0.58617 0.53301 0.9652 0.0
N690 N 0.58682 0.52925 -0.00069 0.0
N691 N 0.56255 0.5571 0.95892 0.0
C692 C 0.55411 0.56321 0.98519 0.0
C693 C 0.56737 0.54821 0.0071 0.0
C694 C 0.80942 0.19046 0.25752 0.0
C695 C 0.83315 0.20686 0.25223 0.0
C696 C 0.79453 0.17794 0.23578 0.0
C697 C 0.80267 0.18159 0.20797 0.0
H698 H 0.80155 0.18817 0.27849 0.0
H699 H 0.77564 0.16667 0.24071 0.0
S700 S 0.86549 0.21878 0.18306 0.0
N701 N 0.86586 0.22315 0.2171 0.0
N702 N 0.8376 0.19991 0.17641 0.0
C703 C 0.82731 0.19631 0.2025 0.0
C704 C 0.84265 0.20884 0.22459 0.0
C705 C 0.46693 0.90606 0.02063 0.0
C706 C 0.45978 0.91127 0.99276 0.0
C707 C 0.45488 0.92121 0.04233 0.0
C708 C 0.43494 0.94195 0.03708 0.0
H709 H 0.48294 0.89108 0.02576 0.0
H710 H 0.4619 0.91715 0.06335 0.0
S711 S 0.40645 0.96126 0.96799 0.0
N712 N 0.42965 0.9369 0.96121 0.0
N713 N 0.40679 0.96525 0.00209 0.0
C714 C 0.42627 0.94617 0.00946 0.0
C715 C 0.43877 0.93089 0.98728 0.0
C716 C 0.17033 0.70236 0.28927 0.0
C717 C 0.19212 0.68364 0.28382 0.0
C718 C 0.15582 0.7153 0.26767 0.0
C719 C 0.1627 0.71029 0.23969 0.0
H720 H 0.16501 0.70784 0.31046 0.0
H721 H 0.13997 0.73035 0.27309 0.0
S722 S 0.21594 0.66053 0.21417 0.0
N723 N 0.21822 0.65874 0.24838 0.0
N724 N 0.19102 0.6832 0.20764 0.0
C725 C 0.18333 0.69032 0.23388 0.0
C726 C 0.19799 0.67694 0.25597 0.0
C727 C 0.96586 0.58934 0.9764 0.0
C728 C 0.96022 0.58308 0.0044 0.0
C729 C 0.95356 0.57417 0.95484 0.0
C730 C 0.93487 0.55235 0.96037 0.0
H731 H 0.98093 0.60519 0.97098 0.0
H732 H 0.95946 0.57907 0.93366 0.0
S733 S 0.91036 0.52999 0.03007 0.0
N734 N 0.9327 0.55526 0.0365 0.0
N735 N 0.90938 0.52686 0.99589 0.0
C736 C 0.92761 0.54705 0.98821 0.0
C737 C 0.94036 0.56236 0.01025 0.0
C738 C 0.81318 0.80129 0.23912 0.0
C739 C 0.83662 0.7847 0.24497 0.0
C740 C 0.79812 0.81422 0.26048 0.0
C741 C 0.80581 0.81076 0.28845 0.0
H742 H 0.80568 0.80345 0.218 0.0
H743 H 0.77945 0.82563 0.25516 0.0
S744 S 0.86774 0.77319 0.31479 0.0
N745 N 0.86859 0.76845 0.2808 0.0
N746 N 0.83998 0.79241 0.32078 0.0
C747 C 0.83016 0.79583 0.29448 0.0
C748 C 0.84567 0.78291 0.27279 0.0
C749 C 0.04147 0.92088 0.95396 0.0
C750 C 0.06066 0.94236 0.95915 0.0
C751 C 0.02903 0.90619 0.97574 0.0
C752 C 0.03504 0.9126 0.00363 0.0
H753 H 0.03526 0.91591 0.93287 0.0
H754 H 0.01359 0.8906 0.9706 0.0
S755 S 0.08631 0.96481 0.0284 0.0
N756 N 0.08703 0.96761 0.99419 0.0
N757 N 0.06349 0.94008 0.03526 0.0
C758 C 0.05542 0.93291 0.00913 0.0
C759 C 0.0683 0.94775 0.98686 0.0
C760 C 0.22413 0.15449 0.28032 0.0
C761 C 0.25205 0.16056 0.28663 0.0
C762 C 0.20239 0.1697 0.2922 0.0
C763 C 0.20765 0.19133 0.31117 0.0
H764 H 0.21896 0.13874 0.26506 0.0
H765 H 0.18131 0.16493 0.28584 0.0
S766 S 0.27693 0.21333 0.33721 0.0
N767 N 0.28372 0.18814 0.3149 0.0
N768 N 0.24275 0.21657 0.3375 0.0
C769 C 0.23536 0.1965 0.31902 0.0
C770 C 0.25758 0.18118 0.30666 0.0
C771 C 0.41881 0.53836 0.95264 0.0
C772 C 0.44038 0.53305 0.93362 0.0
C773 C 0.40461 0.51666 0.96579 0.0
C774 C 0.41161 0.48875 0.96068 0.0
H775 H 0.41342 0.55951 0.95819 0.0
H776 H 0.38892 0.52196 0.98105 0.0
S777 S 0.46432 0.46358 0.91017 0.0
N778 N 0.46637 0.4978 0.90835 0.0
N779 N 0.43976 0.45688 0.9332 0.0
C780 C 0.43201 0.48307 0.94044 0.0
C781 C 0.44635 0.50525 0.92684 0.0
C782 C 0.79083 0.32247 0.29175 0.0
C783 C 0.78475 0.30079 0.31042 0.0
C784 C 0.76965 0.338 0.27931 0.0
C785 C 0.74149 0.33228 0.28476 0.0
H786 H 0.81214 0.32698 0.286 0.0
H787 H 0.77548 0.35375 0.26429 0.0
S788 S 0.71449 0.2797 0.33444 0.0
N789 N 0.7486 0.27596 0.33566 0.0
N790 N 0.70868 0.30506 0.31207 0.0
C791 C 0.73511 0.31169 0.30458 0.0
C792 C 0.75677 0.296 0.31749 0.0
C793 C 0.57324 0.95487 0.95097 0.0
C794 C 0.5512 0.95993 0.93243 0.0
C795 C 0.58802 0.97675 0.96319 0.0
C796 C 0.58114 0.00462 0.95762 0.0
H797 H 0.57861 0.93381 0.95686 0.0
H798 H 0.60409 0.97167 0.97814 0.0
S799 S 0.52719 0.02908 0.90809 0.0
N800 N 0.52479 0.99485 0.90711 0.0
N801 N 0.55246 0.03608 0.93025 0.0
C802 C 0.5602 0.01 0.93786 0.0
C803 C 0.54528 0.98763 0.92519 0.0
C804 C 0.20643 0.82633 0.19929 0.0
C805 C 0.21188 0.80382 0.18147 0.0
C806 C 0.22802 0.84106 0.21201 0.0
C807 C 0.25598 0.83364 0.20772 0.0
H808 H 0.18522 0.8321 0.20423 0.0
H809 H 0.22258 0.85752 0.22639 0.0
S810 S 0.28151 0.77821 0.16042 0.0
N811 N 0.2473 0.77632 0.15813 0.0
N812 N 0.28807 0.80389 0.18225 0.0
C813 C 0.26183 0.81221 0.18862 0.0
C814 C 0.23974 0.79734 0.17542 0.0
C815 C 0.09105 0.52008 0.02861 0.0
C816 C 0.08564 0.49213 0.03529 0.0
C817 C 0.07605 0.54166 0.04106 0.0
C818 C 0.0553 0.53619 0.06096 0.0
H819 H 0.10603 0.52536 0.01264 0.0
H820 H 0.08021 0.56276 0.03438 0.0
S821 S 0.03563 0.46675 0.08834 0.0
N822 N 0.05989 0.46023 0.06495 0.0
N823 N 0.03185 0.50086 0.08859 0.0
C824 C 0.05094 0.50846 0.06918 0.0
C825 C 0.06604 0.48641 0.05626 0.0
C826 C 0.79328 0.67 0.20472 0.0
C827 C 0.78831 0.69141 0.18544 0.0
C828 C 0.77137 0.65504 0.21662 0.0
C829 C 0.74355 0.66111 0.20998 0.0
H830 H 0.81427 0.66527 0.21139 0.0
H831 H 0.77633 0.63951 0.23216 0.0
S832 S 0.71941 0.71308 0.15825 0.0
N833 N 0.7536 0.71627 0.15831 0.0
N834 N 0.7123 0.68826 0.18087 0.0
C835 C 0.73831 0.68139 0.18952 0.0
C836 C 0.76071 0.69648 0.17718 0.0
C837 C 0.93265 0.00786 0.05185 0.0
C838 C 0.90908 0.00164 0.03555 0.0
C839 C 0.94773 0.98682 0.06525 0.0
C840 C 0.93992 0.95881 0.06258 0.0
H841 H 0.94027 0.02901 0.05339 0.0
H842 H 0.96653 0.9924 0.07635 0.0
S843 S 0.87753 0.93169 0.02621 0.0
N844 N 0.8768 0.96553 0.02054 0.0
N845 N 0.90544 0.92612 0.04539 0.0
C846 C 0.9154 0.95246 0.04802 0.0
C847 C 0.89989 0.97384 0.0346 0.0
C848 C 0.30031 0.25566 0.18395 0.0
C849 C 0.28286 0.24995 0.16111 0.0
C850 C 0.31333 0.2342 0.19873 0.0
C851 C 0.30912 0.20624 0.19138 0.0
H852 H 0.30317 0.2768 0.19118 0.0
H853 H 0.32552 0.23949 0.21693 0.0
S854 S 0.26884 0.18014 0.131 0.0
N855 N 0.26473 0.21419 0.13004 0.0
N856 N 0.28893 0.17399 0.15812 0.0
C857 C 0.2932 0.20029 0.16762 0.0
C858 C 0.28017 0.2221 0.15238 0.0
C859 C 0.2912 0.79138 0.32424 0.0
C860 C 0.31114 0.78595 0.30353 0.0
C861 C 0.27845 0.76977 0.33894 0.0
C862 C 0.28487 0.74182 0.33329 0.0
H863 H 0.28471 0.8125 0.32858 0.0
H864 H 0.26247 0.77507 0.3539 0.0
S865 S 0.33792 0.7165 0.28324 0.0
N866 N 0.33852 0.75065 0.27982 0.0
N867 N 0.31437 0.70993 0.30734 0.0
C868 C 0.30591 0.73611 0.31374 0.0
C869 C 0.31912 0.7582 0.29892 0.0
C870 C 0.98897 0.44249 0.93229 0.0
C871 C 0.99433 0.4606 0.9099 0.0
C872 C 0.01068 0.42977 0.94695 0.0
C873 C 0.03858 0.43493 0.93995 0.0
H874 H 0.96786 0.43886 0.93928 0.0
H875 H 0.00557 0.41701 0.9648 0.0
S876 S 0.06391 0.47739 0.88076 0.0
N877 N 0.02976 0.48052 0.87961 0.0
N878 N 0.07046 0.45683 0.90743 0.0
C879 C 0.04424 0.45155 0.9166 0.0
C880 C 0.02215 0.4643 0.90148 0.0
C881 C 0.71421 0.72487 0.33979 0.0
C882 C 0.70937 0.75293 0.33315 0.0
C883 C 0.70174 0.70346 0.32458 0.0
C884 C 0.68366 0.7092 0.30232 0.0
H885 H 0.72879 0.71925 0.35601 0.0
H886 H 0.70707 0.68221 0.32978 0.0
S887 S 0.66119 0.77912 0.27879 0.0
N888 N 0.68312 0.78535 0.30447 0.0
N889 N 0.6595 0.74495 0.27597 0.0
C890 C 0.6771 0.73711 0.29664 0.0
C891 C 0.69003 0.75901 0.312 0.0
C892 C 0.45358 0.54159 0.41978 0.0
C893 C 0.45914 0.56124 0.44074 0.0
C894 C 0.47511 0.52904 0.40481 0.0
C895 C 0.50311 0.53539 0.41042 0.0
H896 H 0.43243 0.53516 0.41542 0.0
H897 H 0.46972 0.51326 0.38965 0.0
S898 S 0.52874 0.58778 0.46105 0.0
N899 N 0.4946 0.58832 0.46465 0.0
N900 N 0.53516 0.56455 0.43662 0.0
C901 C 0.50893 0.55616 0.43023 0.0
C902 C 0.48692 0.56916 0.44533 0.0
C903 C 0.21345 0.76995 0.65398 0.0
C904 C 0.20816 0.74188 0.66026 0.0
C905 C 0.2012 0.79135 0.66934 0.0
C906 C 0.18289 0.78561 0.69141 0.0
H907 H 0.22823 0.77555 0.63792 0.0
H908 H 0.20686 0.81259 0.6644 0.0
S909 S 0.15925 0.71571 0.71399 0.0
N910 N 0.18126 0.7095 0.6884 0.0
N911 N 0.15804 0.74987 0.71719 0.0
C912 C 0.1759 0.75772 0.69675 0.0
C913 C 0.18861 0.73582 0.68122 0.0
C914 C 0.03995 0.54443 0.57401 0.0
C915 C 0.03424 0.56227 0.55157 0.0
C916 C 0.01851 0.53204 0.58923 0.0
C917 C 0.99045 0.5367 0.58241 0.0
H918 H 0.06121 0.53921 0.57933 0.0
H919 H 0.02412 0.51763 0.6056 0.0
S920 S 0.96433 0.58424 0.52746 0.0
N921 N -0.00148 0.58604 0.52481 0.0
N922 N 0.95807 0.56255 0.55332 0.0
C923 C 0.98439 0.55583 0.56107 0.0
C924 C 0.00633 0.56869 0.5457 0.0
C925 C 0.95428 0.95312 0.57496 0.0
C926 C 0.95967 0.93321 0.55421 0.0
C927 C 0.97593 0.96604 0.58947 0.0
C928 C 0.00388 0.95979 0.5836 0.0
H929 H 0.93316 0.9595 0.57946 0.0
H930 H 0.97065 0.982 0.60446 0.0
S931 S 0.02914 0.90678 0.53348 0.0
N932 N 0.99497 0.90599 0.5303 0.0
N933 N 0.03575 0.93042 0.55749 0.0
C934 C 0.00957 0.93875 0.56406 0.0
C935 C 0.98744 0.92539 0.54941 0.0
C936 C 0.69674 0.81293 0.73577 0.0
C937 C 0.68919 0.80921 0.7078 0.0
C938 C 0.68163 0.80013 0.75716 0.0
C939 C 0.65827 0.78337 0.75135 0.0
H940 H 0.71533 0.8245 0.74111 0.0
H941 H 0.68902 0.80255 0.77829 0.0
S942 S 0.62748 0.77105 0.68154 0.0
N943 N 0.65518 0.7904 0.67549 0.0
N944 N 0.62653 0.7666 0.71556 0.0
C945 C 0.64936 0.78127 0.72353 0.0
C946 C 0.6649 0.7941 0.70178 0.0
C947 C 0.03229 0.08952 0.51782 0.0
C948 C 0.0366 0.08212 0.48985 0.0
C949 C 0.04506 0.07486 0.5394 0.0
C950 C 0.06295 0.0524 0.53393 0.0
H951 H 0.01785 0.10592 0.52327 0.0
H952 H 0.0401 0.0806 0.56061 0.0
S953 S 0.08412 0.02692 0.46426 0.0
N954 N 0.06219 0.0525 0.45774 0.0
N955 N 0.0864 0.02503 0.49846 0.0
C956 C 0.06903 0.04597 0.50606 0.0
C957 C 0.05578 0.06078 0.48399 0.0
C958 C 0.31077 0.69283 0.75528 0.0
C959 C 0.33378 0.71019 0.74992 0.0
C960 C 0.29607 0.68003 0.73357 0.0
C961 C 0.30367 0.68439 0.70571 0.0
H962 H 0.30335 0.68986 0.77633 0.0
H963 H 0.27774 0.66792 0.73859 0.0
S964 S 0.36451 0.72456 0.68048 0.0
N965 N 0.36522 0.72841 0.71457 0.0
N966 N 0.33732 0.70465 0.67393 0.0
C967 C 0.32759 0.70022 0.70011 0.0
C968 C 0.34273 0.71303 0.72217 0.0
C969 C 0.96276 0.40436 0.52025 0.0
C970 C 0.9573 0.41074 0.49223 0.0
C971 C 0.9506 0.41962 0.54179 0.0
C972 C 0.93221 0.44164 0.53623 0.0
H973 H 0.97758 0.38832 0.52571 0.0
H974 H 0.95638 0.41463 0.56298 0.0
S975 S 0.90827 0.46455 0.46657 0.0
N976 N 0.93025 0.439 0.46011 0.0
N977 N 0.90719 0.46756 0.50075 0.0
C978 C 0.92508 0.44709 0.5084 0.0
C979 C 0.93771 0.43169 0.48637 0.0
C980 C 0.68281 0.19495 0.73751 0.0
C981 C 0.66031 0.21286 0.74309 0.0
C982 C 0.69727 0.18172 0.75908 0.0
C983 C 0.68994 0.18617 0.787 0.0
H984 H 0.69001 0.19186 0.7164 0.0
H985 H 0.71522 0.16915 0.75388 0.0
S986 S 0.63037 0.22777 0.81276 0.0
N987 N 0.62958 0.23176 0.77869 0.0
N988 N 0.65705 0.20715 0.81907 0.0
C989 C 0.66651 0.20259 0.79282 0.0
C990 C 0.65159 0.21584 0.7709 0.0
C991 C 0.45621 0.0742 0.45298 0.0
C992 C 0.43635 0.05345 0.4586 0.0
C993 C 0.46866 0.08939 0.47444 0.0
C994 C 0.46199 0.08422 0.50243 0.0
H995 H 0.46287 0.07823 0.43184 0.0
H996 H 0.4846 0.10437 0.46902 0.0
S997 S 0.40899 0.03431 0.52819 0.0
N998 N 0.40876 0.03023 0.4941 0.0
N999 N 0.43234 0.05868 0.53452 0.0
C1000 C 0.44103 0.06462 0.5083 0.0
C1001 C 0.42814 0.04929 0.48637 0.0
C1002 C 0.31311 0.30222 0.73768 0.0
C1003 C 0.33636 0.28523 0.74306 0.0
C1004 C 0.29826 0.31481 0.75937 0.0
C1005 C 0.30596 0.3106 0.78723 0.0
H1006 H 0.30561 0.30501 0.71662 0.0
H1007 H 0.27976 0.32662 0.75434 0.0
S1008 S 0.36739 0.27145 0.81249 0.0
N1009 N 0.36811 0.26756 0.77839 0.0
N1010 N 0.33994 0.29095 0.81902 0.0
C1011 C 0.33012 0.29519 0.79285 0.0
C1012 C 0.34541 0.2826 0.7708 0.0
C1013 C 0.54309 0.42036 0.45315 0.0
C1014 C 0.5616 0.44232 0.4587 0.0
C1015 C 0.53031 0.40562 0.47469 0.0
C1016 C 0.53527 0.41245 0.5027 0.0
H1017 H 0.53766 0.41506 0.43193 0.0
H1018 H 0.51542 0.38962 0.46921 0.0
S1019 S 0.58446 0.46618 0.52844 0.0
N1020 N 0.58623 0.4686 0.49424 0.0
N1021 N 0.56205 0.44098 0.53488 0.0
C1022 C 0.55501 0.43329 0.5086 0.0
C1023 C 0.56825 0.44818 0.48657 0.0
C1024 C 0.73279 0.69624 0.81537 0.0
C1025 C 0.70487 0.68883 0.81102 0.0
C1026 C 0.75436 0.68122 0.80282 0.0
C1027 C 0.7488 0.65809 0.7857 0.0
H1028 H 0.73798 0.71466 0.82726 0.0
H1029 H 0.77548 0.68852 0.80573 0.0
S1030 S 0.67914 0.62765 0.77167 0.0
N1031 N 0.6728 0.65514 0.79121 0.0
N1032 N 0.71324 0.62666 0.76787 0.0
C1033 C 0.72099 0.64927 0.78296 0.0
C1034 C 0.69906 0.66473 0.79553 0.0
C1035 C 0.90507 0.01767 0.46648 0.0
C1036 C 0.91095 0.9897 0.46031 0.0
C1037 C 0.91993 0.03929 0.4539 0.0
C1038 C 0.94102 0.03386 0.43438 0.0
H1039 H 0.88979 0.02298 0.48215 0.0
H1040 H 0.91536 0.06043 0.4602 0.0
S1041 S 0.96218 0.96436 0.40842 0.0
N1042 N 0.93766 0.95779 0.43153 0.0
N1043 N 0.96544 -0.00148 0.40768 0.0
C1044 C 0.94592 0.00609 0.42666 0.0
C1045 C 0.93095 0.98399 0.43971 0.0
C1046 C 0.23671 0.81084 0.80132 0.0
C1047 C 0.24234 0.83431 0.78468 0.0
C1048 C 0.25821 0.79588 0.81406 0.0
C1049 C 0.28612 0.80368 0.8104 0.0
H1050 H 0.21563 0.80323 0.80363 0.0
H1051 H 0.253 0.77718 0.8255 0.0
S1052 S 0.3119 0.86584 0.77274 0.0
N1053 N 0.27789 0.8665 0.76822 0.0
N1054 N 0.31817 0.83809 0.7919 0.0
C1055 C 0.29195 0.8281 0.79548 0.0
C1056 C 0.27009 0.84351 0.78271 0.0
C1057 C 0.08761 0.47423 0.46479 0.0
C1058 C 0.08139 0.50213 0.45863 0.0
C1059 C 0.07263 0.45244 0.45264 0.0
C1060 C 0.05105 0.45759 0.43358 0.0
H1061 H 0.1033 0.46909 0.4801 0.0
H1062 H 0.0775 0.43137 0.45894 0.0
S1063 S 0.02877 0.52679 0.40778 0.0
N1064 N 0.05378 0.53368 0.43028 0.0
N1065 N 0.02576 0.4926 0.40728 0.0
C1066 C 0.04578 0.48529 0.42584 0.0
C1067 C 0.06089 0.50758 0.43843 0.0
C1068 C 0.75911 0.31159 0.69295 0.0
C1069 C 0.75388 0.33543 0.70917 0.0
C1070 C 0.73739 0.29707 0.67998 0.0
C1071 C 0.70965 0.30572 0.68302 0.0
H1072 H 0.77999 0.30335 0.69115 0.0
H1073 H 0.74221 0.27808 0.66888 0.0
S1074 S 0.68505 0.36904 0.71942 0.0
N1075 N 0.71899 0.36882 0.72454 0.0
N1076 N 0.67831 0.34121 0.70052 0.0
C1077 C 0.70429 0.33046 0.69754 0.0
C1078 C 0.72637 0.34543 0.7105 0.0
C1079 C 0.59076 0.01963 0.52976 0.0
C1080 C 0.58422 0.99173 0.53557 0.0
C1081 C 0.57616 0.0414 0.54232 0.0
C1082 C 0.55464 0.0362 0.56144 0.0
H1083 H 0.60638 0.02481 0.51438 0.0
H1084 H 0.58122 0.0625 0.53624 0.0
S1085 S 0.53186 0.96691 0.58663 0.0
N1086 N 0.55657 0.96007 0.56381 0.0
N1087 N 0.52922 0.00112 0.58757 0.0
C1088 C 0.54914 0.00847 0.56891 0.0
C1089 C 0.56387 0.98621 0.55591 0.0
C1090 C 0.26084 0.19702 0.68057 0.0
C1091 C 0.28883 0.19017 0.68538 0.0
C1092 C 0.23934 0.18204 0.69333 0.0
C1093 C 0.24504 0.15949 0.71114 0.0
H1094 H 0.25549 0.21496 0.66805 0.0
H1095 H 0.21816 0.1889 0.68997 0.0
S1096 S 0.31497 0.13067 0.72688 0.0
N1097 N 0.32114 0.15763 0.70657 0.0
N1098 N 0.28085 0.12924 0.73034 0.0
C1099 C 0.27294 0.15125 0.71448 0.0
C1100 C 0.2948 0.16668 0.70168 0.0
C1101 C 0.41923 0.45484 0.54202 0.0
C1102 C 0.44101 0.46014 0.56082 0.0
C1103 C 0.40437 0.47656 0.52967 0.0
C1104 C 0.41093 0.5045 0.53533 0.0
H1105 H 0.41414 0.43372 0.53606 0.0
H1106 H 0.38854 0.47131 0.51452 0.0
S1107 S 0.46411 0.52954 0.58546 0.0
N1108 N 0.4668 0.49533 0.58645 0.0
N1109 N 0.43901 0.53627 0.56302 0.0
C1110 C 0.4316 0.5101 0.55532 0.0
C1111 C 0.44658 0.4879 0.56815 0.0
C1112 C 0.81266 0.7337 0.69924 0.0
C1113 C 0.80851 0.70575 0.69182 0.0
C1114 C 0.80011 0.7552 0.68412 0.0
C1115 C 0.78317 0.74955 0.66086 0.0
H1116 H 0.82442 0.73896 0.71773 0.0
H1117 H 0.80288 0.77633 0.69142 0.0
S1118 S 0.76967 0.67982 0.6304 0.0
N1119 N 0.78906 0.6736 0.65802 0.0
N1120 N 0.76571 0.71389 0.62936 0.0
C1121 C 0.78061 0.72173 0.65207 0.0
C1122 C 0.79319 0.69986 0.66764 0.0
C1123 C 0.79294 0.29092 0.82483 0.0
C1124 C 0.81153 0.28544 0.80294 0.0
C1125 C 0.78062 0.26932 0.8399 0.0
C1126 C 0.78609 0.24133 0.83344 0.0
H1127 H 0.78718 0.3121 0.82989 0.0
H1128 H 0.76566 0.27471 0.85585 0.0
S1129 S 0.8355 0.21581 0.77992 0.0
N1130 N 0.83668 0.25 0.77706 0.0
N1131 N 0.81326 0.20929 0.80524 0.0
C1132 C 0.8058 0.23553 0.81259 0.0
C1133 C 0.81861 0.25761 0.7974 0.0
C1134 C 0.50875 0.92947 0.44899 0.0
C1135 C 0.53663 0.93259 0.44085 0.0
C1136 C 0.48728 0.94233 0.43403 0.0
C1137 C 0.49293 0.95851 0.41026 0.0
H1138 H 0.50359 0.91839 0.46791 0.0
H1139 H 0.46626 0.94047 0.44189 0.0
S1140 S 0.56236 0.96895 0.37792 0.0
N1141 N 0.56861 0.95011 0.40591 0.0
N1142 N 0.52841 0.97396 0.3775 0.0
C1143 C 0.52062 0.95992 0.40077 0.0
C1144 C 0.54243 0.94707 0.41617 0.0
C1145 C 0.21636 0.22414 0.84 0.0
C1146 C 0.21071 0.25215 0.83387 0.0
C1147 C 0.20388 0.20264 0.82491 0.0
C1148 C 0.185 0.20825 0.80327 0.0
H1149 H 0.23159 0.21866 0.85567 0.0
H1150 H 0.20984 0.18146 0.82967 0.0
S1151 S 0.16017 0.27798 0.78152 0.0
N1152 N 0.1828 0.28434 0.80655 0.0
N1153 N 0.15917 0.24382 0.77825 0.0
C1154 C 0.17764 0.23609 0.79819 0.0
C1155 C 0.19057 0.25807 0.81345 0.0
C1156 C 0.97368 0.02823 0.90453 0.0
C1157 C 0.00158 0.03469 0.9105 0.0
C1158 C 0.95192 0.04035 0.91951 0.0
C1159 C 0.95712 0.05969 0.94084 0.0
H1160 H 0.96855 0.01266 0.88908 0.0
H1161 H 0.93086 0.03381 0.91486 0.0
S1162 S 0.0263 0.08646 0.96222 0.0
N1163 N 0.03315 0.06369 0.93747 0.0
N1164 N 0.99213 0.08666 0.96551 0.0
C1165 C 0.98479 0.06777 0.9458 0.0
C1166 C 0.00705 0.0552 0.93069 0.0
C1167 C 0.71546 0.26991 0.15429 0.0
C1168 C 0.70906 0.24203 0.16034 0.0
C1169 C 0.7031 0.29168 0.16905 0.0
C1170 C 0.6836 0.2865 0.19023 0.0
H1171 H 0.73114 0.27504 0.13896 0.0
H1172 H 0.70961 0.31274 0.16439 0.0
S1173 S 0.6569 0.21735 0.21167 0.0
N1174 N 0.67992 0.21047 0.18715 0.0
N1175 N 0.65653 0.25153 0.2148 0.0
C1176 C 0.67557 0.25883 0.19523 0.0
C1177 C 0.68837 0.23656 0.18034 0.0
C1178 C 0.50677 0.06609 0.04541 0.0
C1179 C 0.53477 0.06317 0.05318 0.0
C1180 C 0.48558 0.05323 0.06077 0.0
C1181 C 0.49165 0.03727 0.08459 0.0
H1182 H 0.50129 0.077 0.02649 0.0
H1183 H 0.46443 0.05491 0.0532 0.0
S1184 S 0.56159 0.02746 0.116 0.0
N1185 N 0.56735 0.0461 0.08777 0.0
N1186 N 0.52767 0.02228 0.11696 0.0
C1187 C 0.51948 0.03608 0.09369 0.0
C1188 C 0.54101 0.04892 0.07787 0.0
C1189 C 0.50907 0.44093 0.06218 0.0
C1190 C 0.50359 0.45786 0.08547 0.0
C1191 C 0.48751 0.42758 0.04778 0.0
C1192 C 0.45969 0.43092 0.056 0.0
H1193 H 0.53004 0.43885 0.05424 0.0
H1194 H 0.49254 0.41594 0.02916 0.0
S1195 S 0.4344 0.46924 0.11793 0.0
N1196 N 0.46835 0.4743 0.11797 0.0
N1197 N 0.42795 0.4495 0.09061 0.0
C1198 C 0.45405 0.44615 0.08027 0.0
C1199 C 0.47598 0.45952 0.09511 0.0
C1200 C 0.08044 0.31197 0.35599 0.0
C1201 C 0.1014 0.29767 0.37052 0.0
C1202 C 0.06225 0.33003 0.36976 0.0
C1203 C 0.06398 0.33402 0.39867 0.0
H1204 H 0.07794 0.30908 0.33378 0.0
H1205 H 0.0462 0.34028 0.35774 0.0
S1206 S 0.11571 0.30221 0.44623 0.0
N1207 N 0.12344 0.28944 0.41532 0.0
N1208 N 0.08887 0.32302 0.44129 0.0
C1209 C 0.08511 0.32022 0.41342 0.0
C1210 C 0.10394 0.30217 0.39931 0.0
C1211 C 0.56828 0.65841 0.83405 0.0
C1212 C 0.58317 0.67874 0.84896 0.0
C1213 C 0.55083 0.63949 0.84771 0.0
C1214 C 0.54725 0.6406 0.8767 0.0
H1215 H 0.56996 0.65721 0.81162 0.0
H1216 H 0.53934 0.62454 0.83537 0.0
S1217 S 0.58231 0.68909 0.92545 0.0
N1218 N 0.59397 0.69811 0.89446 0.0
N1219 N 0.56084 0.66284 0.92004 0.0
C1220 C 0.56243 0.66042 0.89192 0.0
C1221 C 0.58051 0.6794 0.87808 0.0
C1222 C 0.9094 0.17756 0.355 0.0
C1223 C 0.88911 0.19247 0.36984 0.0
C1224 C 0.92788 0.15971 0.36864 0.0
C1225 C 0.92714 0.15658 0.3977 0.0
H1226 H 0.91121 0.17989 0.33266 0.0
H1227 H 0.94345 0.149 0.35638 0.0
S1228 S 0.87739 0.19031 0.44605 0.0
N1229 N 0.86869 0.20224 0.41505 0.0
N1230 N 0.90382 0.16906 0.44082 0.0
C1231 C 0.90662 0.17097 0.41276 0.0
C1232 C 0.88747 0.18879 0.39879 0.0
C1233 C 0.43949 0.85358 0.84896 0.0
C1234 C 0.44353 0.85184 0.87786 0.0
C1235 C 0.42212 0.83474 0.83506 0.0
C1236 C 0.40774 0.81384 0.84965 0.0
H1237 H 0.45053 0.869 0.83681 0.0
H1238 H 0.42008 0.83647 0.81269 0.0
S1239 S 0.40999 0.80153 0.9258 0.0
N1240 N 0.43098 0.82824 0.92079 0.0
N1241 N 0.39795 0.79314 0.89476 0.0
C1242 C 0.41087 0.81248 0.87869 0.0
C1243 C 0.4289 0.83138 0.89277 0.0
C1244 C 0.10502 0.69254 0.0971 0.0
C1245 C 0.10394 0.69663 0.12603 0.0
C1246 C 0.08637 0.67451 0.0838 0.0
C1247 C 0.06637 0.65954 0.09904 0.0
H1248 H 0.11979 0.704 0.08453 0.0
H1249 H 0.08753 0.67243 0.0614 0.0
S1250 S 0.05606 0.66177 0.17551 0.0
N1251 N 0.08196 0.68354 0.16965 0.0
N1252 N 0.0472 0.64936 0.14476 0.0
C1253 C 0.06568 0.66279 0.12809 0.0
C1254 C 0.08437 0.68144 0.14156 0.0
C1255 C 0.91474 0.67933 0.12079 0.0
C1256 C 0.91145 0.67798 0.14981 0.0
C1257 C 0.93265 0.66111 0.10685 0.0
C1258 C 0.94749 0.6405 0.12134 0.0
H1259 H 0.90409 0.69515 0.10881 0.0
H1260 H 0.93506 0.66336 0.08457 0.0
S1261 S 0.94488 0.6272 0.1973 0.0
N1262 N 0.92367 0.65374 0.19249 0.0
N1263 N 0.95699 0.61916 0.1662 0.0
C1264 C 0.94366 0.63829 0.15024 0.0
C1265 C 0.92576 0.65715 0.16451 0.0
C1266 C 0.89296 0.80371 0.10111 0.0
C1267 C 0.89506 0.79954 0.12997 0.0
C1268 C 0.91119 0.82167 0.0872 0.0
C1269 C 0.93179 0.83652 0.10174 0.0
H1270 H 0.8777 0.79236 0.08902 0.0
H1271 H 0.90921 0.82382 0.06486 0.0
S1272 S 0.94484 0.83412 0.17778 0.0
N1273 N 0.91866 0.81245 0.17282 0.0
N1274 N 0.95264 0.84656 0.14676 0.0
C1275 C 0.93351 0.83322 0.13075 0.0
C1276 C 0.91524 0.81461 0.14484 0.0
C1277 C 0.05569 0.85667 0.14688 0.0
C1278 C 0.05224 0.85616 0.11787 0.0
C1279 C 0.07356 0.83787 0.16016 0.0
C1280 C 0.08898 0.81827 0.14483 0.0
H1281 H 0.04368 0.87092 0.15952 0.0
H1282 H 0.07502 0.83848 0.18263 0.0
S1283 S 0.08893 0.81013 0.06804 0.0
N1284 N 0.06673 0.83559 0.07404 0.0
N1285 N 0.10062 0.80055 0.09885 0.0
C1286 C 0.08657 0.8184 0.11567 0.0
C1287 C 0.0681 0.83726 0.10223 0.0
C1288 C 0.35513 0.08285 0.31532 0.0
C1289 C 0.36957 0.10352 0.30049 0.0
C1290 C 0.36911 0.06466 0.33321 0.0
C1291 C 0.39812 0.06609 0.33648 0.0
H1292 H 0.33285 0.0805 0.31288 0.0
H1293 H 0.35717 0.04876 0.34382 0.0
S1294 S 0.44548 0.11718 0.30331 0.0
N1295 N 0.41437 0.12513 0.29116 0.0
N1296 N 0.44073 0.09053 0.32442 0.0
C1297 C 0.41277 0.08702 0.32226 0.0
C1298 C 0.39846 0.10588 0.30439 0.0
C1299 C 0.35564 0.34553 0.94274 0.0
C1300 C 0.35495 0.37454 0.94618 0.0
C1301 C 0.33688 0.33211 0.92491 0.0
C1302 C 0.31716 0.34729 0.90952 0.0
H1303 H 0.37007 0.33301 0.95466 0.0
H1304 H 0.33768 0.30965 0.92339 0.0
S1305 S 0.30831 0.42397 0.90974 0.0
N1306 N 0.33392 0.41819 0.93183 0.0
N1307 N 0.29895 0.39309 0.89803 0.0
C1308 C 0.31701 0.37643 0.912 0.0
C1309 C 0.33582 0.39002 0.93043 0.0
C1310 C 0.59878 0.39147 0.30233 0.0
C1311 C 0.62774 0.39291 0.29857 0.0
C1312 C 0.58506 0.40991 0.32023 0.0
C1313 C 0.59987 0.43008 0.3354 0.0
H1314 H 0.58648 0.37661 0.29068 0.0
H1315 H 0.56265 0.40847 0.32201 0.0
S1316 S 0.67629 0.44118 0.33424 0.0
N1317 N 0.67097 0.4153 0.31232 0.0
N1318 N 0.64529 0.44968 0.34625 0.0
C1319 C 0.62898 0.43108 0.33255 0.0
C1320 C 0.64288 0.41258 0.31404 0.0
C1321 C 0.65902 0.10635 0.92908 0.0
C1322 C 0.63875 0.12133 0.94389 0.0
C1323 C 0.67777 0.11986 0.9114 0.0
C1324 C 0.67732 0.14893 0.90835 0.0
H1325 H 0.66062 0.084 0.93138 0.0
H1326 H 0.69332 0.10751 0.90078 0.0
S1327 S 0.62764 0.19762 0.94165 0.0
N1328 N 0.61859 0.16669 0.9535 0.0
N1329 N 0.65422 0.19219 0.92062 0.0
C1330 C 0.65679 0.16412 0.92256 0.0
C1331 C 0.63736 0.15029 0.94021 0.0
C1332 C 0.35692 0.91141 0.1818 0.0
C1333 C 0.37189 0.89116 0.19667 0.0
C1334 C 0.37037 0.9297 0.16361 0.0
C1335 C 0.39936 0.92878 0.16002 0.0
H1336 H 0.33463 0.91333 0.18442 0.0
H1337 H 0.35803 0.94526 0.15298 0.0
S1338 S 0.44798 0.87891 0.19315 0.0
N1339 N 0.41715 0.87049 0.20572 0.0
N1340 N 0.44253 0.90527 0.17185 0.0
C1341 C 0.41454 0.90827 0.17428 0.0
C1342 C 0.40077 0.88932 0.19249 0.0
C1343 C 0.17978 0.37552 0.08263 0.0
C1344 C 0.17756 0.34669 0.08682 0.0
C1345 C 0.16187 0.38941 0.06437 0.0
C1346 C 0.14073 0.37508 0.05006 0.0
H1347 H 0.19609 0.38731 0.09277 0.0
H1348 H 0.16483 0.41152 0.0612 0.0
S1349 S 0.12492 0.29974 0.05547 0.0
N1350 N 0.1518 0.30444 0.07631 0.0
N1351 N 0.11781 0.33063 0.04232 0.0
C1352 C 0.13758 0.34642 0.05493 0.0
C1353 C 0.15611 0.3322 0.0732 0.0
C1354 C 0.59966 0.60463 0.18924 0.0
C1355 C 0.62859 0.60311 0.19318 0.0
C1356 C 0.58592 0.58593 0.17161 0.0
C1357 C 0.6007 0.56545 0.15687 0.0
H1358 H 0.58739 0.6197 0.20062 0.0
H1359 H 0.56351 0.58738 0.16972 0.0
S1360 S 0.67701 0.554 0.15865 0.0
N1361 N 0.67175 0.58029 0.18008 0.0
N1362 N 0.64602 0.54545 0.14658 0.0
C1363 C 0.62977 0.56439 0.15985 0.0
C1364 C 0.64369 0.58313 0.17812 0.0
C1365 C 0.83383 0.15877 0.07055 0.0
C1366 C 0.81327 0.14414 0.08537 0.0
C1367 C 0.85226 0.14492 0.05275 0.0
C1368 C 0.85043 0.11602 0.04873 0.0
H1369 H 0.83559 0.18114 0.07256 0.0
H1370 H 0.86745 0.15708 0.04139 0.0
S1371 S 0.80099 0.06795 0.08341 0.0
N1372 N 0.79284 0.09897 0.0956 0.0
N1373 N 0.8272 0.07304 0.06184 0.0
C1374 C 0.83034 0.10107 0.06383 0.0
C1375 C 0.81185 0.1151 0.08225 0.0
C1376 C 0.32215 0.40724 0.08708 0.0
C1377 C 0.33688 0.39239 0.06663 0.0
C1378 C 0.30405 0.39365 0.10542 0.0
C1379 C 0.29961 0.36481 0.10358 0.0
H1380 H 0.32445 0.42958 0.0888 0.0
H1381 H 0.29276 0.40597 0.12052 0.0
S1382 S 0.3339 0.31624 0.05443 0.0
N1383 N 0.3466 0.34708 0.04632 0.0
N1384 N 0.31224 0.32164 0.08049 0.0
C1385 C 0.31463 0.34963 0.08362 0.0
C1386 C 0.33337 0.36339 0.06524 0.0
C1387 C 0.3037 0.59846 0.38962 0.0
C1388 C 0.29979 0.62739 0.39086 0.0
C1389 C 0.32149 0.58495 0.40834 0.0
C1390 C 0.33639 0.59997 0.42856 0.0
H1391 H 0.29223 0.58602 0.37473 0.0
H1392 H 0.3234 0.56254 0.40709 0.0
S1393 S 0.33465 0.67641 0.43923 0.0
N1394 N 0.31304 0.67082 0.41315 0.0
N1395 N 0.34677 0.64554 0.44802 0.0
C1396 C 0.33337 0.62905 0.42935 0.0
C1397 C 0.31497 0.64273 0.41059 0.0
C1398 C 0.89145 0.43005 0.8341 0.0
C1399 C 0.87676 0.44422 0.85504 0.0
C1400 C 0.87783 0.41197 0.81577 0.0
C1401 C 0.84892 0.40789 0.81736 0.0
H1402 H 0.91364 0.43316 0.83165 0.0
H1403 H 0.8899 0.40188 0.79965 0.0
S1404 S 0.80105 0.43923 0.86909 0.0
N1405 N 0.83189 0.45211 0.877 0.0
N1406 N 0.80618 0.41853 0.84219 0.0
C1407 C 0.83406 0.42146 0.83855 0.0
C1408 C 0.84801 0.4395 0.85752 0.0
C1409 C 0.67415 0.90966 0.41007 0.0
C1410 C 0.65876 0.89479 0.43004 0.0
C1411 C 0.69197 0.89595 0.39154 0.0
C1412 C 0.69544 0.86696 0.39269 0.0
H1413 H 0.67261 0.9321 0.40888 0.0
H1414 H 0.70384 0.90828 0.37688 0.0
S1415 S 0.65901 0.81827 0.44022 0.0
N1416 N 0.64731 0.8493 0.44904 0.0
N1417 N 0.68109 0.82365 0.4145 0.0
C1418 C 0.6797 0.85178 0.4121 0.0
C1419 C 0.66127 0.86566 0.43069 0.0
C1420 C 0.64656 0.55431 0.3536 0.0
C1421 C 0.6176 0.55055 0.35222 0.0
C1422 C 0.6603 0.57186 0.33485 0.0
C1423 C 0.64551 0.58668 0.31442 0.0
H1424 H 0.65883 0.54287 0.36863 0.0
H1425 H 0.68272 0.57365 0.33625 0.0
S1426 S 0.5691 0.58538 0.30338 0.0
N1427 N 0.57438 0.56391 0.32963 0.0
N1428 N 0.60012 0.59723 0.29466 0.0
C1429 C 0.6164 0.58385 0.31349 0.0
C1430 C 0.60248 0.56567 0.33231 0.0
C1431 C 0.1727 0.58478 0.58324 0.0
C1432 C 0.15748 0.59955 0.56309 0.0
C1433 C 0.19055 0.59856 0.60175 0.0
C1434 C 0.19421 0.62753 0.6004 0.0
H1435 H 0.171 0.56237 0.58462 0.0
H1436 H 0.20224 0.5863 0.61659 0.0
S1437 S 0.15838 0.67598 0.55223 0.0
N1438 N 0.14649 0.64495 0.54362 0.0
N1439 N 0.1803 0.67072 0.57811 0.0
C1440 C 0.17869 0.64262 0.58075 0.0
C1441 C 0.16024 0.62866 0.56219 0.0
C1442 C 0.83331 0.56974 0.66099 0.0
C1443 C 0.84792 0.58467 0.68148 0.0
C1444 C 0.84728 0.55255 0.64208 0.0
C1445 C 0.8763 0.54929 0.64335 0.0
H1446 H 0.81086 0.57117 0.65965 0.0
H1447 H 0.83513 0.54102 0.627 0.0
S1448 S 0.92436 0.58465 0.69232 0.0
N1449 N 0.89318 0.59589 0.7012 0.0
N1450 N 0.91935 0.56327 0.66594 0.0
C1451 C 0.89123 0.56454 0.66334 0.0
C1452 C 0.87706 0.58235 0.68232 0.0
C1453 C 0.16027 0.92275 0.6587 0.0
C1454 C 0.14522 0.90809 0.67906 0.0
C1455 C 0.14682 0.94047 0.63991 0.0
C1456 C 0.11792 0.94455 0.64119 0.0
H1457 H 0.18267 0.92073 0.6574 0.0
H1458 H 0.15929 0.95178 0.62494 0.0
S1459 S 0.06881 0.91019 0.68979 0.0
N1460 N 0.09964 0.89799 0.69862 0.0
N1461 N 0.07445 0.93163 0.66358 0.0
C1462 C 0.10253 0.92956 0.66102 0.0
C1463 C 0.11615 0.91121 0.67987 0.0
C1464 C 0.60306 0.80385 0.89557 0.0
C1465 C 0.60123 0.79986 0.86667 0.0
C1466 C 0.58468 0.8217 0.90943 0.0
C1467 C 0.56418 0.83659 0.89479 0.0
H1468 H 0.61814 0.79236 0.90773 0.0
H1469 H 0.58639 0.82364 0.93181 0.0
S1470 S 0.55207 0.83478 0.81855 0.0
N1471 N 0.57818 0.81312 0.82366 0.0
N1472 N 0.54391 0.84697 0.84958 0.0
C1473 C 0.56284 0.83354 0.86573 0.0
C1474 C 0.58127 0.81508 0.8517 0.0
C1475 C 0.06238 0.16024 0.3891 0.0
C1476 C 0.04783 0.13972 0.37415 0.0
C1477 C 0.08065 0.17854 0.37571 0.0
C1478 C 0.08461 0.17735 0.34678 0.0
H1479 H 0.05946 0.16239 0.41134 0.0
H1480 H 0.091 0.19433 0.38802 0.0
S1481 S 0.05248 0.12666 0.29824 0.0
N1482 N 0.03955 0.11849 0.32897 0.0
N1483 N 0.07352 0.15325 0.30371 0.0
C1484 C 0.07069 0.15654 0.33164 0.0
C1485 C 0.05242 0.13761 0.34535 0.0
C1486 C 0.40615 0.6709 0.90873 0.0
C1487 C 0.42671 0.65607 0.89415 0.0
C1488 C 0.38775 0.68869 0.89481 0.0
C1489 C 0.38965 0.69266 0.86591 0.0
H1490 H 0.40441 0.66898 0.93111 0.0
H1491 H 0.37262 0.70016 0.90692 0.0
S1492 S 0.43901 0.65787 0.81794 0.0
N1493 N 0.44712 0.64572 0.849 0.0
N1494 N 0.41283 0.67946 0.82297 0.0
C1495 C 0.40967 0.6775 0.851 0.0
C1496 C 0.42812 0.65909 0.86508 0.0
C1497 C 0.93913 0.3515 0.3492 0.0
C1498 C 0.94298 0.35011 0.37815 0.0
C1499 C 0.92157 0.33272 0.33547 0.0
C1500 C 0.9068 0.31224 0.35025 0.0
H1501 H 0.95049 0.36659 0.33692 0.0
H1502 H 0.91972 0.33414 0.31306 0.0
S1503 S 0.90836 0.30101 0.4266 0.0
N1504 N 0.92976 0.32734 0.42134 0.0
N1505 N 0.89642 0.29234 0.39561 0.0
C1506 C 0.90972 0.31126 0.37934 0.0
C1507 C 0.92792 0.3301 0.39326 0.0
C1508 C 0.60609 0.19215 0.59862 0.0
C1509 C 0.6042 0.19632 0.62749 0.0
C1510 C 0.58762 0.17432 0.5848 0.0
C1511 C 0.56699 0.15962 0.59946 0.0
H1512 H 0.62131 0.20346 0.58645 0.0
H1513 H 0.58939 0.1722 0.56244 0.0
S1514 S 0.55456 0.16208 0.67562 0.0
N1515 N 0.58086 0.18355 0.67048 0.0
N1516 N 0.54644 0.14972 0.64465 0.0
C1517 C 0.56553 0.16291 0.6285 0.0
C1518 C 0.58405 0.18136 0.64248 0.0
C1519 C 0.42495 0.16023 0.65946 0.0
C1520 C 0.41018 0.18069 0.64468 0.0
C1521 C 0.44254 0.14154 0.6457 0.0
C1522 C 0.44641 0.14303 0.61677 0.0
H1523 H 0.42307 0.15876 0.68186 0.0
H1524 H 0.45392 0.12646 0.65797 0.0
S1525 S 0.41182 0.19215 0.56838 0.0
N1526 N 0.39981 0.20069 0.59938 0.0
N1527 N 0.43325 0.16587 0.57361 0.0
C1528 C 0.43136 0.16302 0.60167 0.0
C1529 C 0.41311 0.18176 0.61561 0.0
C1530 C 0.42927 0.33336 0.62544 0.0
C1531 C 0.42785 0.33674 0.59644 0.0
C1532 C 0.41121 0.31526 0.63934 0.0
C1533 C 0.39069 0.30029 0.62484 0.0
H1534 H 0.44504 0.34409 0.63745 0.0
H1535 H 0.41355 0.31276 0.66161 0.0
S1536 S 0.37718 0.30305 0.54893 0.0
N1537 N 0.4036 0.32447 0.55376 0.0
N1538 N 0.36928 0.29077 0.58 0.0
C1539 C 0.38835 0.30422 0.59596 0.0
C1540 C 0.40707 0.32232 0.58172 0.0
C1541 C 0.55386 0.3557 0.64536 0.0
C1542 C 0.54958 0.35385 0.61651 0.0
C1543 C 0.572 0.33749 0.65903 0.0
C1544 C 0.58692 0.31712 0.64425 0.0
H1545 H 0.54241 0.3707 0.65766 0.0
H1546 H 0.57413 0.33921 0.68139 0.0
S1547 S 0.58455 0.30504 0.56806 0.0
N1548 N 0.56267 0.33093 0.57336 0.0
N1549 N 0.59709 0.29697 0.59897 0.0
C1550 C 0.58363 0.31576 0.61523 0.0
C1551 C 0.56485 0.33403 0.60138 0.0
C1552 C 0.90807 0.5857 0.82379 0.0
C1553 C 0.89382 0.56474 0.8384 0.0
C1554 C 0.89385 0.60419 0.80634 0.0
C1555 C 0.86495 0.602 0.80247 0.0
H1556 H 0.93044 0.58769 0.82562 0.0
H1557 H 0.90574 0.61963 0.79503 0.0
S1558 S 0.81778 0.55146 0.83678 0.0
N1559 N 0.84899 0.54358 0.84868 0.0
N1560 N 0.82237 0.57803 0.81554 0.0
C1561 C 0.85036 0.58155 0.81743 0.0
C1562 C 0.86476 0.56301 0.83551 0.0
C1563 C 0.83385 0.88786 0.43249 0.0
C1564 C 0.85428 0.87301 0.44721 0.0
C1565 C 0.81549 0.8743 0.41441 0.0
C1566 C 0.8165 0.84531 0.41085 0.0
H1567 H 0.83186 0.91014 0.4351 0.0
H1568 H 0.79983 0.88656 0.40383 0.0
S1569 S 0.8667 0.79696 0.44387 0.0
N1570 N 0.8751 0.82784 0.45631 0.0
N1571 N 0.84022 0.80225 0.42268 0.0
C1572 C 0.83714 0.83024 0.42505 0.0
C1573 C 0.85616 0.84412 0.44312 0.0
C1574 C 0.09813 0.89025 0.80388 0.0
C1575 C 0.12707 0.89184 0.80004 0.0
C1576 C 0.08431 0.90893 0.82146 0.0
C1577 C 0.09902 0.92947 0.83623 0.0
H1578 H 0.08592 0.87511 0.7925 0.0
H1579 H 0.06191 0.90737 0.82332 0.0
S1580 S 0.17534 0.94112 0.83465 0.0
N1581 N 0.17016 0.9148 0.81324 0.0
N1582 N 0.14431 0.94961 0.8466 0.0
C1583 C 0.12811 0.93063 0.8333 0.0
C1584 C 0.1421 0.9119 0.81509 0.0
C1585 C 0.13917 0.64574 0.43867 0.0
C1586 C 0.14053 0.61679 0.44246 0.0
C1587 C 0.15798 0.65948 0.42117 0.0
C1588 C 0.17847 0.64468 0.40644 0.0
H1589 H 0.12411 0.65802 0.45006 0.0
H1590 H 0.15661 0.68188 0.41938 0.0
S1591 S 0.18948 0.5683 0.40783 0.0
N1592 N 0.16316 0.57359 0.4292 0.0
N1593 N 0.19825 0.59929 0.39598 0.0
C1594 C 0.17937 0.61558 0.40928 0.0
C1595 C 0.16048 0.60167 0.42741 0.0
C1596 C 0.8562 0.41229 0.68212 0.0
C1597 C 0.87102 0.39157 0.69645 0.0
C1598 C 0.86967 0.4305 0.66386 0.0
C1599 C 0.89857 0.42901 0.65969 0.0
H1600 H 0.834 0.41461 0.68517 0.0
H1601 H 0.85745 0.44639 0.65361 0.0
S1602 S 0.94679 0.3779 0.69144 0.0
N1603 N 0.91604 0.36995 0.70448 0.0
N1604 N 0.94148 0.40457 0.67051 0.0
C1605 C 0.9136 0.4081 0.67349 0.0
C1606 C 0.89979 0.38923 0.69175 0.0
C1607 C 0.64012 0.84766 0.55398 0.0
C1608 C 0.64159 0.87664 0.5505 0.0
C1609 C 0.65884 0.83372 0.57142 0.0
C1610 C 0.6793 0.84835 0.5864 0.0
H1611 H 0.62507 0.83552 0.5424 0.0
H1612 H 0.65738 0.8113 0.57301 0.0
S1613 S 0.69055 0.92471 0.58584 0.0
N1614 N 0.6643 0.91967 0.5643 0.0
N1615 N 0.69918 0.89358 0.59742 0.0
C1616 C 0.6803 0.87746 0.58386 0.0
C1617 C 0.66154 0.89158 0.56579 0.0
C1618 C 0.08683 0.08631 0.67161 0.0
C1619 C 0.10146 0.06563 0.657 0.0
C1620 C 0.10065 0.1048 0.6894 0.0
C1621 C 0.12951 0.10289 0.69362 0.0
H1622 H 0.06447 0.08809 0.66948 0.0
H1623 H 0.08848 0.12004 0.70066 0.0
S1624 S 0.17761 0.05318 0.6595 0.0
N1625 N 0.14663 0.04505 0.64714 0.0
N1626 N 0.17249 0.07951 0.68091 0.0
C1627 C 0.14449 0.08272 0.6787 0.0
C1628 C 0.1305 0.06417 0.66027 0.0
C1629 C 0.33329 0.60656 0.5625 0.0
C1630 C 0.35376 0.62135 0.54774 0.0
C1631 C 0.31474 0.62023 0.58025 0.0
C1632 C 0.31559 0.64927 0.58346 0.0
H1633 H 0.33142 0.58423 0.56015 0.0
H1634 H 0.29907 0.608 0.59087 0.0
S1635 S 0.3658 0.69751 0.55018 0.0
N1636 N 0.37443 0.66652 0.53821 0.0
N1637 N 0.33919 0.69232 0.57125 0.0
C1638 C 0.33626 0.66429 0.56922 0.0
C1639 C 0.35547 0.65029 0.55148 0.0
C1640 C 0.82191 0.90793 0.58715 0.0
C1641 C 0.83688 0.8932 0.56679 0.0
C1642 C 0.80416 0.89411 0.60571 0.0
C1643 C 0.80035 0.86516 0.60415 0.0
H1644 H 0.82371 0.93033 0.58863 0.0
H1645 H 0.79259 0.90632 0.62068 0.0
S1646 S 0.83547 0.81687 0.55531 0.0
N1647 N 0.84749 0.8479 0.54688 0.0
N1648 N 0.81382 0.82206 0.58142 0.0
C1649 C 0.81563 0.85013 0.58429 0.0
C1650 C 0.83401 0.86411 0.5657 0.0
C1651 C 0.8305 0.12443 0.92921 0.0
C1652 C 0.83392 0.09544 0.92766 0.0
C1653 C 0.81248 0.13839 0.91112 0.0
C1654 C 0.79761 0.12397 0.89046 0.0
H1655 H 0.84115 0.13637 0.94507 0.0
H1656 H 0.81002 0.16064 0.91354 0.0
S1657 S 0.80062 0.04814 0.87656 0.0
N1658 N 0.82185 0.05288 0.90313 0.0
N1659 N 0.78832 0.07922 0.86876 0.0
C1660 C 0.80158 0.09511 0.88802 0.0
C1661 C 0.81961 0.08081 0.90675 0.0
C1662 C 0.37699 0.91269 0.31548 0.0
C1663 C 0.34801 0.90905 0.31668 0.0
C1664 C 0.3906 0.93088 0.33367 0.0
C1665 C 0.37582 0.94568 0.35409 0.0
H1666 H 0.38919 0.90209 0.29979 0.0
H1667 H 0.41287 0.93355 0.33152 0.0
S1668 S 0.29984 0.94208 0.36704 0.0
N1669 N 0.30505 0.92082 0.3406 0.0
N1670 N 0.33074 0.95467 0.3752 0.0
C1671 C 0.34696 0.94147 0.3562 0.0
C1672 C 0.33301 0.92328 0.33734 0.0
C1673 C 0.19328 0.39581 0.89137 0.0
C1674 C 0.19663 0.3668 0.89257 0.0
C1675 C 0.17572 0.40965 0.91006 0.0
C1676 C 0.16049 0.39491 0.93023 0.0
H1677 H 0.20501 0.40803 0.87652 0.0
H1678 H 0.17423 0.43209 0.9088 0.0
S1679 S 0.16072 0.31845 0.94082 0.0
N1680 N 0.18249 0.32363 0.9148 0.0
N1681 N 0.14918 0.34955 0.94962 0.0
C1682 C 0.16295 0.36578 0.931 0.0
C1683 C 0.18112 0.35175 0.91227 0.0
C1684 C 0.14573 0.05393 0.85426 0.0
C1685 C 0.11681 0.05009 0.85238 0.0
C1686 C 0.15979 0.07136 0.83563 0.0
C1687 C 0.14534 0.08597 0.81481 0.0
H1688 H 0.15776 0.04267 0.86962 0.0
H1689 H 0.18217 0.07323 0.83743 0.0
S1690 S 0.06918 0.08433 0.80229 0.0
N1691 N 0.074 0.0631 0.82882 0.0
N1692 N 0.10032 0.09621 0.79407 0.0
C1693 C 0.11627 0.08304 0.81334 0.0
C1694 C 0.10203 0.06498 0.83204 0.0
C1695 C 0.67094 0.08554 0.08394 0.0
C1696 C 0.65628 0.10067 0.06364 0.0
C1697 C 0.68855 0.09894 0.10293 0.0
C1698 C 0.69253 0.12787 0.10191 0.0
H1699 H 0.66897 0.06312 0.08504 0.0
H1700 H 0.69986 0.08641 0.11784 0.0
S1701 S 0.65821 0.17715 0.05348 0.0
N1702 N 0.64613 0.14634 0.04438 0.0
N1703 N 0.67956 0.17142 0.07975 0.0
C1704 C 0.67756 0.14332 0.08212 0.0
C1705 C 0.65933 0.12975 0.06308 0.0
C1706 C 0.38937 0.06311 0.16366 0.0
C1707 C 0.37481 0.04858 0.14285 0.0
C1708 C 0.37554 0.08098 0.182 0.0
C1709 C 0.34657 0.08453 0.18056 0.0
H1710 H 0.41163 0.0605 0.16596 0.0
H1711 H 0.38756 0.09141 0.19796 0.0
S1712 S 0.29892 0.05216 0.12921 0.0
N1713 N 0.32991 0.03978 0.12118 0.0
N1714 N 0.30386 0.07301 0.15604 0.0
C1715 C 0.3318 0.07056 0.15955 0.0
C1716 C 0.34594 0.0527 0.14056 0.0
C1717 C 0.62029 0.41305 0.17835 0.0
C1718 C 0.64935 0.40991 0.17743 0.0
C1719 C 0.60656 0.43097 0.16002 0.0
C1720 C 0.62129 0.44598 0.13972 0.0
H1721 H 0.60809 0.40222 0.19389 0.0
H1722 H 0.58423 0.43323 0.16193 0.0
S1723 S 0.69745 0.44402 0.12765 0.0
N1724 N 0.69236 0.4226 0.154 0.0
N1725 N 0.66641 0.45595 0.11916 0.0
C1726 C 0.65024 0.44238 0.13795 0.0
C1727 C 0.66432 0.42446 0.15694 0.0
loop_
_geom_bond_atom_site_label_1
_geom_bond_atom_site_label_2
_geom_bond_distance
_geom_bond_site_symmetry_2
_ccdc_geom_bond_type
C0 O2 1.247 . S
C0 O4 1.258 . S
C1 O8 1.247 . S
C1 O9 1.258 . S
O2 C0 1.247 . S
O2 Zn3 2.028 . S
Zn3 O2 2.028 . S
Zn3 O7 2.035 . S
Zn3 O9 2.035 . S
Zn3 O10 2.028 . S
O4 C0 1.258 . S
O4 Zn5 2.035 . S
Zn5 O4 2.035 . S
Zn5 O6 2.028 . S
Zn5 O8 2.028 . S
Zn5 O11 2.035 . S
O6 Zn5 2.028 . S
O6 C12 1.247 . S
O7 Zn3 2.035 . S
O7 C12 1.258 . S
O8 C1 1.247 . S
O8 Zn5 2.028 . S
O9 C1 1.258 . S
O9 Zn3 2.035 . S
O10 Zn3 2.028 . S
O10 C13 1.247 . S
O11 Zn5 2.035 . S
O11 C13 1.258 . S
C12 O6 1.247 . S
C12 O7 1.258 . S
C13 O10 1.247 . S
C13 O11 1.258 . S
C14 O16 1.247 . S
C14 O18 1.258 . S
C15 O22 1.247 . S
C15 O23 1.258 . S
O16 C14 1.247 . S
O16 Zn17 2.028 . S
Zn17 O16 2.028 . S
Zn17 O21 2.035 . S
Zn17 O23 2.035 . S
Zn17 O24 2.028 . S
O18 C14 1.258 . S
O18 Zn19 2.035 . S
Zn19 O18 2.035 . S
Zn19 O20 2.028 . S
Zn19 O22 2.028 . S
Zn19 O25 2.035 . S
O20 Zn19 2.028 . S
O20 C26 1.247 . S
O21 Zn17 2.035 . S
O21 C26 1.258 . S
O22 C15 1.247 . S
O22 Zn19 2.028 . S
O23 C15 1.258 . S
O23 Zn17 2.035 . S
O24 Zn17 2.028 . S
O24 C27 1.247 . S
O25 Zn19 2.035 . S
O25 C27 1.258 . S
C26 O20 1.247 . S
C26 O21 1.258 . S
C27 O24 1.247 . S
C27 O25 1.258 . S
C28 O30 1.247 . S
C28 O32 1.258 . S
C29 O36 1.247 . S
C29 O37 1.258 . S
O30 C28 1.247 . S
O30 Zn31 2.028 . S
Zn31 O30 2.028 . S
Zn31 O35 2.035 . S
Zn31 O37 2.035 . S
Zn31 O38 2.028 . S
O32 C28 1.258 . S
O32 Zn33 2.035 . S
Zn33 O32 2.035 . S
Zn33 O34 2.028 . S
Zn33 O36 2.028 . S
Zn33 O39 2.035 . S
O34 Zn33 2.028 . S
O34 C40 1.247 . S
O35 Zn31 2.035 . S
O35 C40 1.258 . S
O36 C29 1.247 . S
O36 Zn33 2.028 . S
O37 C29 1.258 . S
O37 Zn31 2.035 . S
O38 Zn31 2.028 . S
O38 C41 1.247 . S
O39 Zn33 2.035 . S
O39 C41 1.258 . S
C40 O34 1.247 . S
C40 O35 1.258 . S
C41 O38 1.247 . S
C41 O39 1.258 . S
C42 O44 1.247 . S
C42 O46 1.258 . S
C43 O50 1.247 . S
C43 O51 1.258 . S
O44 C42 1.247 . S
O44 Zn45 2.028 . S
Zn45 O44 2.028 . S
Zn45 O49 2.035 . S
Zn45 O51 2.035 . S
Zn45 O52 2.028 . S
O46 C42 1.258 . S
O46 Zn47 2.035 . S
Zn47 O46 2.035 . S
Zn47 O48 2.028 . S
Zn47 O50 2.028 . S
Zn47 O53 2.035 . S
O48 Zn47 2.028 . S
O48 C54 1.247 . S
O49 Zn45 2.035 . S
O49 C54 1.258 . S
O50 C43 1.247 . S
O50 Zn47 2.028 . S
O51 C43 1.258 . S
O51 Zn45 2.035 . S
O52 Zn45 2.028 . S
O52 C55 1.247 . S
O53 Zn47 2.035 . S
O53 C55 1.258 . S
C54 O48 1.247 . S
C54 O49 1.258 . S
C55 O52 1.247 . S
C55 O53 1.258 . S
C56 O58 1.247 . S
C56 O60 1.258 . S
C57 O64 1.247 . S
C57 O65 1.258 . S
O58 C56 1.247 . S
O58 Zn59 2.028 . S
Zn59 O58 2.028 . S
Zn59 O63 2.035 . S
Zn59 O65 2.035 . S
Zn59 O66 2.028 . S
O60 C56 1.258 . S
O60 Zn61 2.035 . S
Zn61 O60 2.035 . S
Zn61 O62 2.028 . S
Zn61 O64 2.028 . S
Zn61 O67 2.035 . S
O62 Zn61 2.028 . S
O62 C68 1.247 . S
O63 Zn59 2.035 . S
O63 C68 1.258 . S
O64 C57 1.247 . S
O64 Zn61 2.028 . S
O65 C57 1.258 . S
O65 Zn59 2.035 . S
O66 Zn59 2.028 . S
O66 C69 1.247 . S
O67 Zn61 2.035 . S
O67 C69 1.258 . S
C68 O62 1.247 . S
C68 O63 1.258 . S
C69 O66 1.247 . S
C69 O67 1.258 . S
C70 O72 1.247 . S
C70 O74 1.258 . S
C71 O78 1.247 . S
C71 O79 1.258 . S
O72 C70 1.247 . S
O72 Zn73 2.028 . S
Zn73 O72 2.028 . S
Zn73 O77 2.035 . S
Zn73 O79 2.035 1_455 S
Zn73 O80 2.028 1_455 S
O74 C70 1.258 . S
O74 Zn75 2.035 1_455 S
Zn75 O74 2.035 1_655 S
Zn75 O76 2.028 1_655 S
Zn75 O78 2.028 . S
Zn75 O81 2.035 . S
O76 Zn75 2.028 1_455 S
O76 C82 1.247 . S
O77 Zn73 2.035 . S
O77 C82 1.258 . S
O78 C71 1.247 . S
O78 Zn75 2.028 . S
O79 C71 1.258 . S
O79 Zn73 2.035 1_655 S
O80 Zn73 2.028 1_655 S
O80 C83 1.247 . S
O81 Zn75 2.035 . S
O81 C83 1.258 . S
C82 O76 1.247 . S
C82 O77 1.258 . S
C83 O80 1.247 . S
C83 O81 1.258 . S
C84 O86 1.247 . S
C84 O88 1.258 . S
C85 O92 1.247 . S
C85 O93 1.258 . S
O86 C84 1.247 . S
O86 Zn87 2.028 . S
Zn87 O86 2.028 . S
Zn87 O91 2.035 . S
Zn87 O93 2.035 . S
Zn87 O94 2.028 . S
O88 C84 1.258 . S
O88 Zn89 2.035 . S
Zn89 O88 2.035 . S
Zn89 O90 2.028 . S
Zn89 O92 2.028 . S
Zn89 O95 2.035 . S
O90 Zn89 2.028 . S
O90 C96 1.247 . S
O91 Zn87 2.035 . S
O91 C96 1.258 . S
O92 C85 1.247 . S
O92 Zn89 2.028 . S
O93 C85 1.258 . S
O93 Zn87 2.035 . S
O94 Zn87 2.028 . S
O94 C97 1.247 . S
O95 Zn89 2.035 . S
O95 C97 1.258 . S
C96 O90 1.247 . S
C96 O91 1.258 . S
C97 O94 1.247 . S
C97 O95 1.258 . S
C98 O100 1.247 . S
C98 O102 1.258 . S
C99 O106 1.247 . S
C99 O107 1.258 . S
O100 C98 1.247 . S
O100 Zn101 2.028 . S
Zn101 O100 2.028 . S
Zn101 O105 2.035 . S
Zn101 O107 2.035 1_655 S
Zn101 O108 2.028 1_655 S
O102 C98 1.258 . S
O102 Zn103 2.035 1_655 S
Zn103 O102 2.035 1_455 S
Zn103 O104 2.028 1_455 S
Zn103 O106 2.028 . S
Zn103 O109 2.035 . S
O104 Zn103 2.028 1_655 S
O104 C110 1.247 . S
O105 Zn101 2.035 . S
O105 C110 1.258 . S
O106 C99 1.247 . S
O106 Zn103 2.028 . S
O107 C99 1.258 . S
O107 Zn101 2.035 1_455 S
O108 Zn101 2.028 1_455 S
O108 C111 1.247 . S
O109 Zn103 2.035 . S
O109 C111 1.258 . S
C110 O104 1.247 . S
C110 O105 1.258 . S
C111 O108 1.247 . S
C111 O109 1.258 . S
C112 O114 1.247 . S
C112 O116 1.258 . S
C113 O120 1.247 . S
C113 O121 1.258 . S
O114 C112 1.247 . S
O114 Zn115 2.028 . S
Zn115 O114 2.028 . S
Zn115 O119 2.035 . S
Zn115 O121 2.035 . S
Zn115 O122 2.028 . S
O116 C112 1.258 . S
O116 Zn117 2.035 . S
Zn117 O116 2.035 . S
Zn117 O118 2.028 . S
Zn117 O120 2.028 . S
Zn117 O123 2.035 . S
O118 Zn117 2.028 . S
O118 C124 1.247 . S
O119 Zn115 2.035 . S
O119 C124 1.258 . S
O120 C113 1.247 . S
O120 Zn117 2.028 . S
O121 C113 1.258 . S
O121 Zn115 2.035 . S
O122 Zn115 2.028 . S
O122 C125 1.247 . S
O123 Zn117 2.035 . S
O123 C125 1.258 . S
C124 O118 1.247 . S
C124 O119 1.258 . S
C125 O122 1.247 . S
C125 O123 1.258 . S
C126 O128 1.247 . S
C126 O130 1.258 . S
C127 O134 1.247 . S
C127 O135 1.258 . S
O128 C126 1.247 . S
O128 Zn129 2.028 . S
Zn129 O128 2.028 . S
Zn129 O133 2.035 . S
Zn129 O135 2.035 1_556 S
Zn129 O136 2.028 1_556 S
O130 C126 1.258 . S
O130 Zn131 2.035 1_556 S
Zn131 O130 2.035 1_554 S
Zn131 O132 2.028 1_554 S
Zn131 O134 2.028 . S
Zn131 O137 2.035 . S
O132 Zn131 2.028 1_556 S
O132 C138 1.247 . S
O133 Zn129 2.035 . S
O133 C138 1.258 . S
O134 C127 1.247 . S
O134 Zn131 2.028 . S
O135 C127 1.258 . S
O135 Zn129 2.035 1_554 S
O136 Zn129 2.028 1_554 S
O136 C139 1.247 . S
O137 Zn131 2.035 . S
O137 C139 1.258 . S
C138 O132 1.247 . S
C138 O133 1.258 . S
C139 O136 1.247 . S
C139 O137 1.258 . S
C140 O142 1.247 . S
C140 O144 1.258 . S
C141 O148 1.247 . S
C141 O149 1.258 . S
O142 C140 1.247 . S
O142 Zn143 2.028 . S
Zn143 O142 2.028 . S
Zn143 O147 2.035 . S
Zn143 O149 2.035 . S
Zn143 O150 2.028 . S
O144 C140 1.258 . S
O144 Zn145 2.035 . S
Zn145 O144 2.035 . S
Zn145 O146 2.028 . S
Zn145 O148 2.028 . S
Zn145 O151 2.035 . S
O146 Zn145 2.028 . S
O146 C152 1.247 . S
O147 Zn143 2.035 . S
O147 C152 1.258 . S
O148 C141 1.247 . S
O148 Zn145 2.028 . S
O149 C141 1.258 . S
O149 Zn143 2.035 . S
O150 Zn143 2.028 . S
O150 C153 1.247 . S
O151 Zn145 2.035 . S
O151 C153 1.258 . S
C152 O146 1.247 . S
C152 O147 1.258 . S
C153 O150 1.247 . S
C153 O151 1.258 . S
C154 O156 1.247 . S
C154 O158 1.258 . S
C155 O162 1.247 . S
C155 O163 1.258 . S
O156 C154 1.247 . S
O156 Zn157 2.028 1_554 S
Zn157 O156 2.028 1_556 S
Zn157 O161 2.035 1_556 S
Zn157 O163 2.035 . S
Zn157 O164 2.028 . S
O158 C154 1.258 . S
O158 Zn159 2.035 . S
Zn159 O158 2.035 . S
Zn159 O160 2.028 . S
Zn159 O162 2.028 1_554 S
Zn159 O165 2.035 1_554 S
O160 Zn159 2.028 . S
O160 C166 1.247 . S
O161 Zn157 2.035 1_554 S
O161 C166 1.258 . S
O162 C155 1.247 . S
O162 Zn159 2.028 1_556 S
O163 C155 1.258 . S
O163 Zn157 2.035 . S
O164 Zn157 2.028 . S
O164 C167 1.247 . S
O165 Zn159 2.035 1_556 S
O165 C167 1.258 . S
C166 O160 1.247 . S
C166 O161 1.258 . S
C167 O164 1.247 . S
C167 O165 1.258 . S
C168 O170 1.247 . S
C168 O172 1.258 . S
C169 O176 1.247 . S
C169 O177 1.258 . S
O170 C168 1.247 . S
O170 Zn171 2.028 . S
Zn171 O170 2.028 . S
Zn171 O175 2.035 . S
Zn171 O177 2.035 . S
Zn171 O178 2.028 . S
O172 C168 1.258 . S
O172 Zn173 2.035 . S
Zn173 O172 2.035 . S
Zn173 O174 2.028 . S
Zn173 O176 2.028 . S
Zn173 O179 2.035 . S
O174 Zn173 2.028 . S
O174 C180 1.247 . S
O175 Zn171 2.035 . S
O175 C180 1.258 . S
O176 C169 1.247 . S
O176 Zn173 2.028 . S
O177 C169 1.258 . S
O177 Zn171 2.035 . S
O178 Zn171 2.028 . S
O178 C181 1.247 . S
O179 Zn173 2.035 . S
O179 C181 1.258 . S
C180 O174 1.247 . S
C180 O175 1.258 . S
C181 O178 1.247 . S
C181 O179 1.258 . S
C182 O184 1.247 . S
C182 O186 1.258 . S
C183 O190 1.247 . S
C183 O191 1.258 . S
O184 C182 1.247 . S
O184 Zn185 2.028 . S
Zn185 O184 2.028 . S
Zn185 O189 2.035 . S
Zn185 O191 2.035 1_554 S
Zn185 O192 2.028 1_554 S
O186 C182 1.258 . S
O186 Zn187 2.035 1_554 S
Zn187 O186 2.035 1_556 S
Zn187 O188 2.028 1_556 S
Zn187 O190 2.028 . S
Zn187 O193 2.035 . S
O188 Zn187 2.028 1_554 S
O188 C194 1.247 . S
O189 Zn185 2.035 . S
O189 C194 1.258 . S
O190 C183 1.247 . S
O190 Zn187 2.028 . S
O191 C183 1.258 . S
O191 Zn185 2.035 1_556 S
O192 Zn185 2.028 1_556 S
O192 C195 1.247 . S
O193 Zn187 2.035 . S
O193 C195 1.258 . S
C194 O188 1.247 . S
C194 O189 1.258 . S
C195 O192 1.247 . S
C195 O193 1.258 . S
C196 O198 1.247 . S
C196 O200 1.258 . S
C197 O204 1.247 . S
C197 O205 1.258 . S
O198 C196 1.247 . S
O198 Zn199 2.028 . S
Zn199 O198 2.028 . S
Zn199 O203 2.035 . S
Zn199 O205 2.035 . S
Zn199 O206 2.028 . S
O200 C196 1.258 . S
O200 Zn201 2.035 . S
Zn201 O200 2.035 . S
Zn201 O202 2.028 . S
Zn201 O204 2.028 . S
Zn201 O207 2.035 . S
O202 Zn201 2.028 . S
O202 C208 1.247 . S
O203 Zn199 2.035 . S
O203 C208 1.258 . S
O204 C197 1.247 . S
O204 Zn201 2.028 . S
O205 C197 1.258 . S
O205 Zn199 2.035 . S
O206 Zn199 2.028 . S
O206 C209 1.247 . S
O207 Zn201 2.035 . S
O207 C209 1.258 . S
C208 O202 1.247 . S
C208 O203 1.258 . S
C209 O206 1.247 . S
C209 O207 1.258 . S
C210 O212 1.247 . S
C210 O214 1.258 . S
C211 O218 1.247 . S
C211 O219 1.258 . S
O212 C210 1.247 . S
O212 Zn213 2.028 1_556 S
Zn213 O212 2.028 1_554 S
Zn213 O217 2.035 1_554 S
Zn213 O219 2.035 . S
Zn213 O220 2.028 . S
O214 C210 1.258 . S
O214 Zn215 2.035 . S
Zn215 O214 2.035 . S
Zn215 O216 2.028 . S
Zn215 O218 2.028 1_556 S
Zn215 O221 2.035 1_556 S
O216 Zn215 2.028 . S
O216 C222 1.247 . S
O217 Zn213 2.035 1_556 S
O217 C222 1.258 . S
O218 C211 1.247 . S
O218 Zn215 2.028 1_554 S
O219 C211 1.258 . S
O219 Zn213 2.035 . S
O220 Zn213 2.028 . S
O220 C223 1.247 . S
O221 Zn215 2.035 1_554 S
O221 C223 1.258 . S
C222 O216 1.247 . S
C222 O217 1.258 . S
C223 O220 1.247 . S
C223 O221 1.258 . S
C224 O226 1.247 . S
C224 O228 1.258 . S
C225 O232 1.247 . S
C225 O233 1.258 . S
O226 C224 1.247 . S
O226 Zn227 2.028 . S
Zn227 O226 2.028 . S
Zn227 O231 2.035 . S
Zn227 O233 2.035 . S
Zn227 O234 2.028 . S
O228 C224 1.258 . S
O228 Zn229 2.035 . S
Zn229 O228 2.035 . S
Zn229 O230 2.028 . S
Zn229 O232 2.028 . S
Zn229 O235 2.035 . S
O230 Zn229 2.028 . S
O230 C236 1.247 . S
O231 Zn227 2.035 . S
O231 C236 1.258 . S
O232 C225 1.247 . S
O232 Zn229 2.028 . S
O233 C225 1.258 . S
O233 Zn227 2.035 . S
O234 Zn227 2.028 . S
O234 C237 1.247 . S
O235 Zn229 2.035 . S
O235 C237 1.258 . S
C236 O230 1.247 . S
C236 O231 1.258 . S
C237 O234 1.247 . S
C237 O235 1.258 . S
C238 O240 1.247 . S
C238 O242 1.258 . S
C239 O246 1.247 . S
C239 O247 1.258 . S
O240 C238 1.247 . S
O240 Zn241 2.028 . S
Zn241 O240 2.028 . S
Zn241 O245 2.035 . S
Zn241 O247 2.035 . S
Zn241 O248 2.028 . S
O242 C238 1.258 . S
O242 Zn243 2.035 . S
Zn243 O242 2.035 . S
Zn243 O244 2.028 . S
Zn243 O246 2.028 . S
Zn243 O249 2.035 . S
O244 Zn243 2.028 . S
O244 C250 1.247 . S
O245 Zn241 2.035 . S
O245 C250 1.258 . S
O246 C239 1.247 . S
O246 Zn243 2.028 . S
O247 C239 1.258 . S
O247 Zn241 2.035 . S
O248 Zn241 2.028 . S
O248 C251 1.247 . S
O249 Zn243 2.035 . S
O249 C251 1.258 . S
C250 O244 1.247 . S
C250 O245 1.258 . S
C251 O248 1.247 . S
C251 O249 1.258 . S
C252 O254 1.247 . S
C252 O256 1.258 . S
C253 O260 1.247 . S
C253 O261 1.258 . S
O254 C252 1.247 . S
O254 Zn255 2.028 . S
Zn255 O254 2.028 . S
Zn255 O259 2.035 . S
Zn255 O261 2.035 . S
Zn255 O262 2.028 . S
O256 C252 1.258 . S
O256 Zn257 2.035 . S
Zn257 O256 2.035 . S
Zn257 O258 2.028 . S
Zn257 O260 2.028 . S
Zn257 O263 2.035 . S
O258 Zn257 2.028 . S
O258 C264 1.247 . S
O259 Zn255 2.035 . S
O259 C264 1.258 . S
O260 C253 1.247 . S
O260 Zn257 2.028 . S
O261 C253 1.258 . S
O261 Zn255 2.035 . S
O262 Zn255 2.028 . S
O262 C265 1.247 . S
O263 Zn257 2.035 . S
O263 C265 1.258 . S
C264 O258 1.247 . S
C264 O259 1.258 . S
C265 O262 1.247 . S
C265 O263 1.258 . S
C266 O268 1.247 . S
C266 O270 1.258 . S
C267 O274 1.247 . S
C267 O275 1.258 . S
O268 C266 1.247 . S
O268 Zn269 2.028 . S
Zn269 O268 2.028 . S
Zn269 O273 2.035 . S
Zn269 O275 2.035 . S
Zn269 O276 2.028 . S
O270 C266 1.258 . S
O270 Zn271 2.035 . S
Zn271 O270 2.035 . S
Zn271 O272 2.028 . S
Zn271 O274 2.028 . S
Zn271 O277 2.035 . S
O272 Zn271 2.028 . S
O272 C278 1.247 . S
O273 Zn269 2.035 . S
O273 C278 1.258 . S
O274 C267 1.247 . S
O274 Zn271 2.028 . S
O275 C267 1.258 . S
O275 Zn269 2.035 . S
O276 Zn269 2.028 . S
O276 C279 1.247 . S
O277 Zn271 2.035 . S
O277 C279 1.258 . S
C278 O272 1.247 . S
C278 O273 1.258 . S
C279 O276 1.247 . S
C279 O277 1.258 . S
C280 O282 1.247 . S
C280 O284 1.258 . S
C281 O288 1.247 . S
C281 O289 1.258 . S
O282 C280 1.247 . S
O282 Zn283 2.028 . S
Zn283 O282 2.028 . S
Zn283 O287 2.035 . S
Zn283 O289 2.035 . S
Zn283 O290 2.028 . S
O284 C280 1.258 . S
O284 Zn285 2.035 . S
Zn285 O284 2.035 . S
Zn285 O286 2.028 . S
Zn285 O288 2.028 . S
Zn285 O291 2.035 . S
O286 Zn285 2.028 . S
O286 C292 1.247 . S
O287 Zn283 2.035 . S
O287 C292 1.258 . S
O288 C281 1.247 . S
O288 Zn285 2.028 . S
O289 C281 1.258 . S
O289 Zn283 2.035 . S
O290 Zn283 2.028 . S
O290 C293 1.247 . S
O291 Zn285 2.035 . S
O291 C293 1.258 . S
C292 O286 1.247 . S
C292 O287 1.258 . S
C293 O290 1.247 . S
C293 O291 1.258 . S
C294 O296 1.247 . S
C294 O298 1.258 . S
C295 O302 1.247 . S
C295 O303 1.258 . S
O296 C294 1.247 . S
O296 Zn297 2.028 . S
Zn297 O296 2.028 . S
Zn297 O301 2.035 . S
Zn297 O303 2.035 . S
Zn297 O304 2.028 . S
O298 C294 1.258 . S
O298 Zn299 2.035 . S
Zn299 O298 2.035 . S
Zn299 O300 2.028 . S
Zn299 O302 2.028 . S
Zn299 O305 2.035 . S
O300 Zn299 2.028 . S
O300 C306 1.247 . S
O301 Zn297 2.035 . S
O301 C306 1.258 . S
O302 C295 1.247 . S
O302 Zn299 2.028 . S
O303 C295 1.258 . S
O303 Zn297 2.035 . S
O304 Zn297 2.028 . S
O304 C307 1.247 . S
O305 Zn299 2.035 . S
O305 C307 1.258 . S
C306 O300 1.247 . S
C306 O301 1.258 . S
C307 O304 1.247 . S
C307 O305 1.258 . S
C308 O310 1.247 . S
C308 O312 1.258 . S
C309 O316 1.247 . S
C309 O317 1.258 . S
O310 C308 1.247 . S
O310 Zn311 2.028 . S
Zn311 O310 2.028 . S
Zn311 O315 2.035 . S
Zn311 O317 2.035 . S
Zn311 O318 2.028 . S
O312 C308 1.258 . S
O312 Zn313 2.035 . S
Zn313 O312 2.035 . S
Zn313 O314 2.028 . S
Zn313 O316 2.028 . S
Zn313 O319 2.035 . S
O314 Zn313 2.028 . S
O314 C320 1.247 . S
O315 Zn311 2.035 . S
O315 C320 1.258 . S
O316 C309 1.247 . S
O316 Zn313 2.028 . S
O317 C309 1.258 . S
O317 Zn311 2.035 . S
O318 Zn311 2.028 . S
O318 C321 1.247 . S
O319 Zn313 2.035 . S
O319 C321 1.258 . S
C320 O314 1.247 . S
C320 O315 1.258 . S
C321 O318 1.247 . S
C321 O319 1.258 . S
C322 O324 1.247 . S
C322 O326 1.258 . S
C323 O330 1.247 . S
C323 O331 1.258 . S
O324 C322 1.247 . S
O324 Zn325 2.028 . S
Zn325 O324 2.028 . S
Zn325 O329 2.035 . S
Zn325 O331 2.035 1_545 S
Zn325 O332 2.028 1_545 S
O326 C322 1.258 . S
O326 Zn327 2.035 1_545 S
Zn327 O326 2.035 1_565 S
Zn327 O328 2.028 1_565 S
Zn327 O330 2.028 . S
Zn327 O333 2.035 . S
O328 Zn327 2.028 1_545 S
O328 C334 1.247 . S
O329 Zn325 2.035 . S
O329 C334 1.258 . S
O330 C323 1.247 . S
O330 Zn327 2.028 . S
O331 C323 1.258 . S
O331 Zn325 2.035 1_565 S
O332 Zn325 2.028 1_565 S
O332 C335 1.247 . S
O333 Zn327 2.035 . S
O333 C335 1.258 . S
C334 O328 1.247 . S
C334 O329 1.258 . S
C335 O332 1.247 . S
C335 O333 1.258 . S
C336 O338 1.247 . S
C336 O340 1.258 . S
C337 O344 1.247 . S
C337 O345 1.258 . S
O338 C336 1.247 . S
O338 Zn339 2.028 . S
Zn339 O338 2.028 . S
Zn339 O343 2.035 . S
Zn339 O345 2.035 . S
Zn339 O346 2.028 . S
O340 C336 1.258 . S
O340 Zn341 2.035 . S
Zn341 O340 2.035 . S
Zn341 O342 2.028 . S
Zn341 O344 2.028 . S
Zn341 O347 2.035 . S
O342 Zn341 2.028 . S
O342 C348 1.247 . S
O343 Zn339 2.035 . S
O343 C348 1.258 . S
O344 C337 1.247 . S
O344 Zn341 2.028 . S
O345 C337 1.258 . S
O345 Zn339 2.035 . S
O346 Zn339 2.028 . S
O346 C349 1.247 . S
O347 Zn341 2.035 . S
O347 C349 1.258 . S
C348 O342 1.247 . S
C348 O343 1.258 . S
C349 O346 1.247 . S
C349 O347 1.258 . S
C350 O352 1.247 . S
C350 O354 1.258 . S
C351 O358 1.247 . S
C351 O359 1.258 . S
O352 C350 1.247 . S
O352 Zn353 2.028 1_655 S
Zn353 O352 2.028 1_455 S
Zn353 O357 2.035 1_455 S
Zn353 O359 2.035 . S
Zn353 O360 2.028 . S
O354 C350 1.258 . S
O354 Zn355 2.035 . S
Zn355 O354 2.035 . S
Zn355 O356 2.028 . S
Zn355 O358 2.028 1_655 S
Zn355 O361 2.035 1_655 S
O356 Zn355 2.028 . S
O356 C362 1.247 . S
O357 Zn353 2.035 1_655 S
O357 C362 1.258 . S
O358 C351 1.247 . S
O358 Zn355 2.028 1_455 S
O359 C351 1.258 . S
O359 Zn353 2.035 . S
O360 Zn353 2.028 . S
O360 C363 1.247 . S
O361 Zn355 2.035 1_455 S
O361 C363 1.258 . S
C362 O356 1.247 . S
C362 O357 1.258 . S
C363 O360 1.247 . S
C363 O361 1.258 . S
C364 O366 1.247 . S
C364 O368 1.258 . S
C365 O372 1.247 . S
C365 O373 1.258 . S
O366 C364 1.247 . S
O366 Zn367 2.028 . S
Zn367 O366 2.028 . S
Zn367 O371 2.035 . S
Zn367 O373 2.035 . S
Zn367 O374 2.028 . S
O368 C364 1.258 . S
O368 Zn369 2.035 . S
Zn369 O368 2.035 . S
Zn369 O370 2.028 . S
Zn369 O372 2.028 . S
Zn369 O375 2.035 . S
O370 Zn369 2.028 . S
O370 C376 1.247 . S
O371 Zn367 2.035 . S
O371 C376 1.258 . S
O372 C365 1.247 . S
O372 Zn369 2.028 . S
O373 C365 1.258 . S
O373 Zn367 2.035 . S
O374 Zn367 2.028 . S
O374 C377 1.247 . S
O375 Zn369 2.035 . S
O375 C377 1.258 . S
C376 O370 1.247 . S
C376 O371 1.258 . S
C377 O374 1.247 . S
C377 O375 1.258 . S
C378 O380 1.247 . S
C378 O382 1.258 . S
C379 O386 1.247 . S
C379 O387 1.258 . S
O380 C378 1.247 . S
O380 Zn381 2.028 1_455 S
Zn381 O380 2.028 1_655 S
Zn381 O385 2.035 1_655 S
Zn381 O387 2.035 . S
Zn381 O388 2.028 . S
O382 C378 1.258 . S
O382 Zn383 2.035 . S
Zn383 O382 2.035 . S
Zn383 O384 2.028 . S
Zn383 O386 2.028 1_455 S
Zn383 O389 2.035 1_455 S
O384 Zn383 2.028 . S
O384 C390 1.247 . S
O385 Zn381 2.035 1_455 S
O385 C390 1.258 . S
O386 C379 1.247 . S
O386 Zn383 2.028 1_655 S
O387 C379 1.258 . S
O387 Zn381 2.035 . S
O388 Zn381 2.028 . S
O388 C391 1.247 . S
O389 Zn383 2.035 1_655 S
O389 C391 1.258 . S
C390 O384 1.247 . S
C390 O385 1.258 . S
C391 O388 1.247 . S
C391 O389 1.258 . S
C392 O394 1.247 . S
C392 O396 1.258 . S
C393 O400 1.247 . S
C393 O401 1.258 . S
O394 C392 1.247 . S
O394 Zn395 2.028 . S
Zn395 O394 2.028 . S
Zn395 O399 2.035 . S
Zn395 O401 2.035 . S
Zn395 O402 2.028 . S
O396 C392 1.258 . S
O396 Zn397 2.035 . S
Zn397 O396 2.035 . S
Zn397 O398 2.028 . S
Zn397 O400 2.028 . S
Zn397 O403 2.035 . S
O398 Zn397 2.028 . S
O398 C404 1.247 . S
O399 Zn395 2.035 . S
O399 C404 1.258 . S
O400 C393 1.247 . S
O400 Zn397 2.028 . S
O401 C393 1.258 . S
O401 Zn395 2.035 . S
O402 Zn395 2.028 . S
O402 C405 1.247 . S
O403 Zn397 2.035 . S
O403 C405 1.258 . S
C404 O398 1.247 . S
C404 O399 1.258 . S
C405 O402 1.247 . S
C405 O403 1.258 . S
C406 O408 1.247 . S
C406 O410 1.258 . S
C407 O414 1.247 . S
C407 O415 1.258 . S
O408 C406 1.247 . S
O408 Zn409 2.028 . S
Zn409 O408 2.028 . S
Zn409 O413 2.035 . S
Zn409 O415 2.035 . S
Zn409 O416 2.028 . S
O410 C406 1.258 . S
O410 Zn411 2.035 . S
Zn411 O410 2.035 . S
Zn411 O412 2.028 . S
Zn411 O414 2.028 . S
Zn411 O417 2.035 . S
O412 Zn411 2.028 . S
O412 C418 1.247 . S
O413 Zn409 2.035 . S
O413 C418 1.258 . S
O414 C407 1.247 . S
O414 Zn411 2.028 . S
O415 C407 1.258 . S
O415 Zn409 2.035 . S
O416 Zn409 2.028 . S
O416 C419 1.247 . S
O417 Zn411 2.035 . S
O417 C419 1.258 . S
C418 O412 1.247 . S
C418 O413 1.258 . S
C419 O416 1.247 . S
C419 O417 1.258 . S
C420 O422 1.247 . S
C420 O424 1.258 . S
C421 O428 1.247 . S
C421 O429 1.258 . S
O422 C420 1.247 . S
O422 Zn423 2.028 . S
Zn423 O422 2.028 . S
Zn423 O427 2.035 . S
Zn423 O429 2.035 . S
Zn423 O430 2.028 . S
O424 C420 1.258 . S
O424 Zn425 2.035 . S
Zn425 O424 2.035 . S
Zn425 O426 2.028 . S
Zn425 O428 2.028 . S
Zn425 O431 2.035 . S
O426 Zn425 2.028 . S
O426 C432 1.247 . S
O427 Zn423 2.035 . S
O427 C432 1.258 . S
O428 C421 1.247 . S
O428 Zn425 2.028 . S
O429 C421 1.258 . S
O429 Zn423 2.035 . S
O430 Zn423 2.028 . S
O430 C433 1.247 . S
O431 Zn425 2.035 . S
O431 C433 1.258 . S
C432 O426 1.247 . S
C432 O427 1.258 . S
C433 O430 1.247 . S
C433 O431 1.258 . S
C434 O436 1.247 . S
C434 O438 1.258 . S
C435 O442 1.247 . S
C435 O443 1.258 . S
O436 C434 1.247 . S
O436 Zn437 2.028 . S
Zn437 O436 2.028 . S
Zn437 O441 2.035 . S
Zn437 O443 2.035 . S
Zn437 O444 2.028 . S
O438 C434 1.258 . S
O438 Zn439 2.035 . S
Zn439 O438 2.035 . S
Zn439 O440 2.028 . S
Zn439 O442 2.028 . S
Zn439 O445 2.035 . S
O440 Zn439 2.028 . S
O440 C446 1.247 . S
O441 Zn437 2.035 . S
O441 C446 1.258 . S
O442 C435 1.247 . S
O442 Zn439 2.028 . S
O443 C435 1.258 . S
O443 Zn437 2.035 . S
O444 Zn437 2.028 . S
O444 C447 1.247 . S
O445 Zn439 2.035 . S
O445 C447 1.258 . S
C446 O440 1.247 . S
C446 O441 1.258 . S
C447 O444 1.247 . S
C447 O445 1.258 . S
C448 O450 1.247 . S
C448 O452 1.258 . S
C449 O456 1.247 . S
C449 O457 1.258 . S
O450 C448 1.247 . S
O450 Zn451 2.028 . S
Zn451 O450 2.028 . S
Zn451 O455 2.035 . S
Zn451 O457 2.035 . S
Zn451 O458 2.028 . S
O452 C448 1.258 . S
O452 Zn453 2.035 . S
Zn453 O452 2.035 . S
Zn453 O454 2.028 . S
Zn453 O456 2.028 . S
Zn453 O459 2.035 . S
O454 Zn453 2.028 . S
O454 C460 1.247 . S
O455 Zn451 2.035 . S
O455 C460 1.258 . S
O456 C449 1.247 . S
O456 Zn453 2.028 . S
O457 C449 1.258 . S
O457 Zn451 2.035 . S
O458 Zn451 2.028 . S
O458 C461 1.247 . S
O459 Zn453 2.035 . S
O459 C461 1.258 . S
C460 O454 1.247 . S
C460 O455 1.258 . S
C461 O458 1.247 . S
C461 O459 1.258 . S
C462 O464 1.247 . S
C462 O466 1.258 . S
C463 O470 1.247 . S
C463 O471 1.258 . S
O464 C462 1.247 . S
O464 Zn465 2.028 . S
Zn465 O464 2.028 . S
Zn465 O469 2.035 . S
Zn465 O471 2.035 . S
Zn465 O472 2.028 . S
O466 C462 1.258 . S
O466 Zn467 2.035 . S
Zn467 O466 2.035 . S
Zn467 O468 2.028 . S
Zn467 O470 2.028 . S
Zn467 O473 2.035 . S
O468 Zn467 2.028 . S
O468 C474 1.247 . S
O469 Zn465 2.035 . S
O469 C474 1.258 . S
O470 C463 1.247 . S
O470 Zn467 2.028 . S
O471 C463 1.258 . S
O471 Zn465 2.035 . S
O472 Zn465 2.028 . S
O472 C475 1.247 . S
O473 Zn467 2.035 . S
O473 C475 1.258 . S
C474 O468 1.247 . S
C474 O469 1.258 . S
C475 O472 1.247 . S
C475 O473 1.258 . S
C476 O478 1.247 . S
C476 O480 1.258 . S
C477 O484 1.247 . S
C477 O485 1.258 . S
O478 C476 1.247 . S
O478 Zn479 2.028 . S
Zn479 O478 2.028 . S
Zn479 O483 2.035 . S
Zn479 O485 2.035 . S
Zn479 O486 2.028 . S
O480 C476 1.258 . S
O480 Zn481 2.035 . S
Zn481 O480 2.035 . S
Zn481 O482 2.028 . S
Zn481 O484 2.028 . S
Zn481 O487 2.035 . S
O482 Zn481 2.028 . S
O482 C488 1.247 . S
O483 Zn479 2.035 . S
O483 C488 1.258 . S
O484 C477 1.247 . S
O484 Zn481 2.028 . S
O485 C477 1.258 . S
O485 Zn479 2.035 . S
O486 Zn479 2.028 . S
O486 C489 1.247 . S
O487 Zn481 2.035 . S
O487 C489 1.258 . S
C488 O482 1.247 . S
C488 O483 1.258 . S
C489 O486 1.247 . S
C489 O487 1.258 . S
C490 O492 1.247 . S
C490 O494 1.258 . S
C491 O498 1.247 . S
C491 O499 1.258 . S
O492 C490 1.247 . S
O492 Zn493 2.028 . S
Zn493 O492 2.028 . S
Zn493 O497 2.035 . S
Zn493 O499 2.035 . S
Zn493 O500 2.028 . S
O494 C490 1.258 . S
O494 Zn495 2.035 . S
Zn495 O494 2.035 . S
Zn495 O496 2.028 . S
Zn495 O498 2.028 . S
Zn495 O501 2.035 . S
O496 Zn495 2.028 . S
O496 C502 1.247 . S
O497 Zn493 2.035 . S
O497 C502 1.258 . S
O498 C491 1.247 . S
O498 Zn495 2.028 . S
O499 C491 1.258 . S
O499 Zn493 2.035 . S
O500 Zn493 2.028 . S
O500 C503 1.247 . S
O501 Zn495 2.035 . S
O501 C503 1.258 . S
C502 O496 1.247 . S
C502 O497 1.258 . S
C503 O500 1.247 . S
C503 O501 1.258 . S
C504 O506 1.247 . S
C504 O508 1.258 . S
C505 O512 1.247 . S
C505 O513 1.258 . S
O506 C504 1.247 . S
O506 Zn507 2.028 . S
Zn507 O506 2.028 . S
Zn507 O511 2.035 . S
Zn507 O513 2.035 . S
Zn507 O514 2.028 . S
O508 C504 1.258 . S
O508 Zn509 2.035 . S
Zn509 O508 2.035 . S
Zn509 O510 2.028 . S
Zn509 O512 2.028 . S
Zn509 O515 2.035 . S
O510 Zn509 2.028 . S
O510 C516 1.247 . S
O511 Zn507 2.035 . S
O511 C516 1.258 . S
O512 C505 1.247 . S
O512 Zn509 2.028 . S
O513 C505 1.258 . S
O513 Zn507 2.035 . S
O514 Zn507 2.028 . S
O514 C517 1.247 . S
O515 Zn509 2.035 . S
O515 C517 1.258 . S
C516 O510 1.247 . S
C516 O511 1.258 . S
C517 O514 1.247 . S
C517 O515 1.258 . S
C518 O520 1.247 . S
C518 O522 1.258 . S
C519 O526 1.247 . S
C519 O527 1.258 . S
O520 C518 1.247 . S
O520 Zn521 2.028 . S
Zn521 O520 2.028 . S
Zn521 O525 2.035 . S
Zn521 O527 2.035 . S
Zn521 O528 2.028 . S
O522 C518 1.258 . S
O522 Zn523 2.035 . S
Zn523 O522 2.035 . S
Zn523 O524 2.028 . S
Zn523 O526 2.028 . S
Zn523 O529 2.035 . S
O524 Zn523 2.028 . S
O524 C530 1.247 . S
O525 Zn521 2.035 . S
O525 C530 1.258 . S
O526 C519 1.247 . S
O526 Zn523 2.028 . S
O527 C519 1.258 . S
O527 Zn521 2.035 . S
O528 Zn521 2.028 . S
O528 C531 1.247 . S
O529 Zn523 2.035 . S
O529 C531 1.258 . S
C530 O524 1.247 . S
C530 O525 1.258 . S
C531 O528 1.247 . S
C531 O529 1.258 . S
C532 O534 1.247 . S
C532 O536 1.258 . S
C533 O540 1.247 . S
C533 O541 1.258 . S
O534 C532 1.247 . S
O534 Zn535 2.028 . S
Zn535 O534 2.028 . S
Zn535 O539 2.035 . S
Zn535 O541 2.035 . S
Zn535 O542 2.028 . S
O536 C532 1.258 . S
O536 Zn537 2.035 . S
Zn537 O536 2.035 . S
Zn537 O538 2.028 . S
Zn537 O540 2.028 . S
Zn537 O543 2.035 . S
O538 Zn537 2.028 . S
O538 C544 1.247 . S
O539 Zn535 2.035 . S
O539 C544 1.258 . S
O540 C533 1.247 . S
O540 Zn537 2.028 . S
O541 C533 1.258 . S
O541 Zn535 2.035 . S
O542 Zn535 2.028 . S
O542 C545 1.247 . S
O543 Zn537 2.035 . S
O543 C545 1.258 . S
C544 O538 1.247 . S
C544 O539 1.258 . S
C545 O542 1.247 . S
C545 O543 1.258 . S
C546 O548 1.247 . S
C546 O550 1.258 . S
C547 O554 1.247 . S
C547 O555 1.258 . S
O548 C546 1.247 . S
O548 Zn549 2.028 . S
Zn549 O548 2.028 . S
Zn549 O553 2.035 . S
Zn549 O555 2.035 . S
Zn549 O556 2.028 . S
O550 C546 1.258 . S
O550 Zn551 2.035 . S
Zn551 O550 2.035 . S
Zn551 O552 2.028 . S
Zn551 O554 2.028 . S
Zn551 O557 2.035 . S
O552 Zn551 2.028 . S
O552 C558 1.247 . S
O553 Zn549 2.035 . S
O553 C558 1.258 . S
O554 C547 1.247 . S
O554 Zn551 2.028 . S
O555 C547 1.258 . S
O555 Zn549 2.035 . S
O556 Zn549 2.028 . S
O556 C559 1.247 . S
O557 Zn551 2.035 . S
O557 C559 1.258 . S
C558 O552 1.247 . S
C558 O553 1.258 . S
C559 O556 1.247 . S
C559 O557 1.258 . S
C560 O562 1.247 . S
C560 O564 1.258 . S
C561 O568 1.247 . S
C561 O569 1.258 . S
O562 C560 1.247 . S
O562 Zn563 2.028 . S
Zn563 O562 2.028 . S
Zn563 O567 2.035 . S
Zn563 O569 2.035 . S
Zn563 O570 2.028 . S
O564 C560 1.258 . S
O564 Zn565 2.035 . S
Zn565 O564 2.035 . S
Zn565 O566 2.028 . S
Zn565 O568 2.028 . S
Zn565 O571 2.035 . S
O566 Zn565 2.028 . S
O566 C572 1.247 . S
O567 Zn563 2.035 . S
O567 C572 1.258 . S
O568 C561 1.247 . S
O568 Zn565 2.028 . S
O569 C561 1.258 . S
O569 Zn563 2.035 . S
O570 Zn563 2.028 . S
O570 C573 1.247 . S
O571 Zn565 2.035 . S
O571 C573 1.258 . S
C572 O566 1.247 . S
C572 O567 1.258 . S
C573 O570 1.247 . S
C573 O571 1.258 . S
C574 O576 1.247 . S
C574 O578 1.258 . S
C575 O582 1.247 . S
C575 O583 1.258 . S
O576 C574 1.247 . S
O576 Zn577 2.028 . S
Zn577 O576 2.028 . S
Zn577 O581 2.035 . S
Zn577 O583 2.035 . S
Zn577 O584 2.028 . S
O578 C574 1.258 . S
O578 Zn579 2.035 . S
Zn579 O578 2.035 . S
Zn579 O580 2.028 . S
Zn579 O582 2.028 . S
Zn579 O585 2.035 . S
O580 Zn579 2.028 . S
O580 C586 1.247 . S
O581 Zn577 2.035 . S
O581 C586 1.258 . S
O582 C575 1.247 . S
O582 Zn579 2.028 . S
O583 C575 1.258 . S
O583 Zn577 2.035 . S
O584 Zn577 2.028 . S
O584 C587 1.247 . S
O585 Zn579 2.035 . S
O585 C587 1.258 . S
C586 O580 1.247 . S
C586 O581 1.258 . S
C587 O584 1.247 . S
C587 O585 1.258 . S
C588 O590 1.247 . S
C588 O592 1.258 . S
C589 O596 1.247 . S
C589 O597 1.258 . S
O590 C588 1.247 . S
O590 Zn591 2.028 . S
Zn591 O590 2.028 . S
Zn591 O595 2.035 . S
Zn591 O597 2.035 1_565 S
Zn591 O598 2.028 1_565 S
O592 C588 1.258 . S
O592 Zn593 2.035 1_565 S
Zn593 O592 2.035 1_545 S
Zn593 O594 2.028 1_545 S
Zn593 O596 2.028 . S
Zn593 O599 2.035 . S
O594 Zn593 2.028 1_565 S
O594 C600 1.247 . S
O595 Zn591 2.035 . S
O595 C600 1.258 . S
O596 C589 1.247 . S
O596 Zn593 2.028 . S
O597 C589 1.258 . S
O597 Zn591 2.035 1_545 S
O598 Zn591 2.028 1_545 S
O598 C601 1.247 . S
O599 Zn593 2.035 . S
O599 C601 1.258 . S
C600 O594 1.247 . S
C600 O595 1.258 . S
C601 O598 1.247 . S
C601 O599 1.258 . S
C602 O604 1.247 . S
C602 O606 1.258 . S
C603 O610 1.247 . S
C603 O611 1.258 . S
O604 C602 1.247 . S
O604 Zn605 2.028 . S
Zn605 O604 2.028 . S
Zn605 O609 2.035 . S
Zn605 O611 2.035 . S
Zn605 O612 2.028 . S
O606 C602 1.258 . S
O606 Zn607 2.035 . S
Zn607 O606 2.035 . S
Zn607 O608 2.028 . S
Zn607 O610 2.028 . S
Zn607 O613 2.035 . S
O608 Zn607 2.028 . S
O608 C614 1.247 . S
O609 Zn605 2.035 . S
O609 C614 1.258 . S
O610 C603 1.247 . S
O610 Zn607 2.028 . S
O611 C603 1.258 . S
O611 Zn605 2.035 . S
O612 Zn605 2.028 . S
O612 C615 1.247 . S
O613 Zn607 2.035 . S
O613 C615 1.258 . S
C614 O608 1.247 . S
C614 O609 1.258 . S
C615 O612 1.247 . S
C615 O613 1.258 . S
C616 O618 1.247 . S
C616 O620 1.258 . S
C617 O624 1.247 . S
C617 O625 1.258 . S
O618 C616 1.247 . S
O618 Zn619 2.028 . S
Zn619 O618 2.028 . S
Zn619 O623 2.035 . S
Zn619 O625 2.035 1_545 S
Zn619 O626 2.028 1_545 S
O620 C616 1.258 . S
O620 Zn621 2.035 1_545 S
Zn621 O620 2.035 1_565 S
Zn621 O622 2.028 1_565 S
Zn621 O624 2.028 . S
Zn621 O627 2.035 . S
O622 Zn621 2.028 1_545 S
O622 C628 1.247 . S
O623 Zn619 2.035 . S
O623 C628 1.258 . S
O624 C617 1.247 . S
O624 Zn621 2.028 . S
O625 C617 1.258 . S
O625 Zn619 2.035 1_565 S
O626 Zn619 2.028 1_565 S
O626 C629 1.247 . S
O627 Zn621 2.035 . S
O627 C629 1.258 . S
C628 O622 1.247 . S
C628 O623 1.258 . S
C629 O626 1.247 . S
C629 O627 1.258 . S
C630 O632 1.247 . S
C630 O634 1.258 . S
C631 O638 1.247 . S
C631 O639 1.258 . S
O632 C630 1.247 . S
O632 Zn633 2.028 . S
Zn633 O632 2.028 . S
Zn633 O637 2.035 . S
Zn633 O639 2.035 . S
Zn633 O640 2.028 . S
O634 C630 1.258 . S
O634 Zn635 2.035 . S
Zn635 O634 2.035 . S
Zn635 O636 2.028 . S
Zn635 O638 2.028 . S
Zn635 O641 2.035 . S
O636 Zn635 2.028 . S
O636 C642 1.247 . S
O637 Zn633 2.035 . S
O637 C642 1.258 . S
O638 C631 1.247 . S
O638 Zn635 2.028 . S
O639 C631 1.258 . S
O639 Zn633 2.035 . S
O640 Zn633 2.028 . S
O640 C643 1.247 . S
O641 Zn635 2.035 . S
O641 C643 1.258 . S
C642 O636 1.247 . S
C642 O637 1.258 . S
C643 O640 1.247 . S
C643 O641 1.258 . S
C644 O646 1.247 . S
C644 O648 1.258 . S
C645 O652 1.247 . S
C645 O653 1.258 . S
O646 C644 1.247 . S
O646 Zn647 2.028 . S
Zn647 O646 2.028 . S
Zn647 O651 2.035 . S
Zn647 O653 2.035 1_565 S
Zn647 O654 2.028 1_565 S
O648 C644 1.258 . S
O648 Zn649 2.035 1_565 S
Zn649 O648 2.035 1_545 S
Zn649 O650 2.028 1_545 S
Zn649 O652 2.028 . S
Zn649 O655 2.035 . S
O650 Zn649 2.028 1_565 S
O650 C656 1.247 . S
O651 Zn647 2.035 . S
O651 C656 1.258 . S
O652 C645 1.247 . S
O652 Zn649 2.028 . S
O653 C645 1.258 . S
O653 Zn647 2.035 1_545 S
O654 Zn647 2.028 1_545 S
O654 C657 1.247 . S
O655 Zn649 2.035 . S
O655 C657 1.258 . S
C656 O650 1.247 . S
C656 O651 1.258 . S
C657 O654 1.247 . S
C657 O655 1.258 . S
C658 O660 1.247 . S
C658 O662 1.258 . S
C659 O666 1.247 . S
C659 O667 1.258 . S
O660 C658 1.247 . S
O660 Zn661 2.028 . S
Zn661 O660 2.028 . S
Zn661 O665 2.035 . S
Zn661 O667 2.035 . S
Zn661 O668 2.028 . S
O662 C658 1.258 . S
O662 Zn663 2.035 . S
Zn663 O662 2.035 . S
Zn663 O664 2.028 . S
Zn663 O666 2.028 . S
Zn663 O669 2.035 . S
O664 Zn663 2.028 . S
O664 C670 1.247 . S
O665 Zn661 2.035 . S
O665 C670 1.258 . S
O666 C659 1.247 . S
O666 Zn663 2.028 . S
O667 C659 1.258 . S
O667 Zn661 2.035 . S
O668 Zn661 2.028 . S
O668 C671 1.247 . S
O669 Zn663 2.035 . S
O669 C671 1.258 . S
C670 O664 1.247 . S
C670 O665 1.258 . S
C671 O668 1.247 . S
C671 O669 1.258 . S
C672 C673 1.369 . S
C672 C674 1.419 . S
C672 H676 0.930 . S
C673 C672 1.369 . S
C673 C682 1.429 . S
C674 C672 1.419 . S
C674 C675 1.363 . S
C674 H677 0.929 . S
C675 C674 1.363 . S
C675 C681 1.428 . S
H676 C672 0.930 . S
H677 C674 0.929 . S
S678 N679 1.613 . S
S678 N680 1.610 . S
N679 S678 1.613 . S
N679 C682 1.350 . S
N680 S678 1.610 . S
N680 C681 1.351 . S
C681 C675 1.428 . S
C681 N680 1.351 . S
C681 C682 1.434 . S
C682 C673 1.429 . S
C682 N679 1.350 . S
C682 C681 1.434 . S
C683 C684 1.369 . S
C683 C685 1.419 1_554 S
C683 H687 0.930 . S
C684 C683 1.369 . S
C684 C693 1.429 . S
C685 C683 1.419 1_556 S
C685 C686 1.363 . S
C685 H688 0.929 . S
C686 C685 1.363 . S
C686 C692 1.428 . S
H687 C683 0.930 . S
H688 C685 0.929 . S
S689 N690 1.613 1_556 S
S689 N691 1.610 . S
N690 S689 1.613 1_554 S
N690 C693 1.350 . S
N691 S689 1.610 . S
N691 C692 1.351 . S
C692 C686 1.428 . S
C692 N691 1.351 . S
C692 C693 1.434 1_556 S
C693 C684 1.429 . S
C693 N690 1.350 . S
C693 C692 1.434 1_554 S
C694 C695 1.369 . S
C694 C696 1.419 . S
C694 H698 0.930 . S
C695 C694 1.369 . S
C695 C704 1.429 . S
C696 C694 1.419 . S
C696 C697 1.363 . S
C696 H699 0.929 . S
C697 C696 1.363 . S
C697 C703 1.428 . S
H698 C694 0.930 . S
H699 C696 0.929 . S
S700 N701 1.613 . S
S700 N702 1.610 . S
N701 S700 1.613 . S
N701 C704 1.350 . S
N702 S700 1.610 . S
N702 C703 1.351 . S
C703 C697 1.428 . S
C703 N702 1.351 . S
C703 C704 1.434 . S
C704 C695 1.429 . S
C704 N701 1.350 . S
C704 C703 1.434 . S
C705 C706 1.369 . S
C705 C707 1.419 1_556 S
C705 H709 0.930 . S
C706 C705 1.369 . S
C706 C715 1.429 . S
C707 C705 1.419 1_554 S
C707 C708 1.363 . S
C707 H710 0.929 . S
C708 C707 1.363 . S
C708 C714 1.428 . S
H709 C705 0.930 . S
H710 C707 0.929 . S
S711 N712 1.613 . S
S711 N713 1.610 1_556 S
N712 S711 1.613 . S
N712 C715 1.350 . S
N713 S711 1.610 1_554 S
N713 C714 1.351 . S
C714 C708 1.428 . S
C714 N713 1.351 . S
C714 C715 1.434 1_554 S
C715 C706 1.429 . S
C715 N712 1.350 . S
C715 C714 1.434 1_556 S
C716 C717 1.369 . S
C716 C718 1.419 . S
C716 H720 0.930 . S
C717 C716 1.369 . S
C717 C726 1.429 . S
C718 C716 1.419 . S
C718 C719 1.363 . S
C718 H721 0.929 . S
C719 C718 1.363 . S
C719 C725 1.428 . S
H720 C716 0.930 . S
H721 C718 0.929 . S
S722 N723 1.613 . S
S722 N724 1.610 . S
N723 S722 1.613 . S
N723 C726 1.350 . S
N724 S722 1.610 . S
N724 C725 1.351 . S
C725 C719 1.428 . S
C725 N724 1.351 . S
C725 C726 1.434 . S
C726 C717 1.429 . S
C726 N723 1.350 . S
C726 C725 1.434 . S
C727 C728 1.369 . S
C727 C729 1.419 1_554 S
C727 H731 0.930 . S
C728 C727 1.369 . S
C728 C737 1.429 . S
C729 C727 1.419 1_556 S
C729 C730 1.363 . S
C729 H732 0.929 . S
C730 C729 1.363 . S
C730 C736 1.428 . S
H731 C727 0.930 . S
H732 C729 0.929 . S
S733 N734 1.606 1_456 S
S733 N735 1.592 1_455 S
N734 S733 1.606 1_654 S
N734 C737 1.350 . S
N735 S733 1.592 1_655 S
N735 C736 1.351 . S
C736 C730 1.428 . S
C736 N735 1.351 . S
C736 C737 1.434 1_556 S
C737 C728 1.429 . S
C737 N734 1.350 . S
C737 C736 1.434 1_554 S
C738 C739 1.369 . S
C738 C740 1.419 . S
C738 H742 0.930 . S
C739 C738 1.369 . S
C739 C748 1.429 . S
C740 C738 1.419 . S
C740 C741 1.363 . S
C740 H743 0.929 . S
C741 C740 1.363 . S
C741 C747 1.428 . S
H742 C738 0.930 . S
H743 C740 0.929 . S
S744 N745 1.613 . S
S744 N746 1.610 . S
N745 S744 1.613 . S
N745 C748 1.350 . S
N746 S744 1.610 . S
N746 C747 1.351 . S
C747 C741 1.428 . S
C747 N746 1.351 . S
C747 C748 1.434 . S
C748 C739 1.429 . S
C748 N745 1.350 . S
C748 C747 1.434 . S
C749 C750 1.369 . S
C749 C751 1.419 1_556 S
C749 H753 0.930 . S
C750 C749 1.369 . S
C750 C759 1.429 . S
C751 C749 1.419 1_554 S
C751 C752 1.363 . S
C751 H754 0.929 . S
C752 C751 1.363 . S
C752 C758 1.428 . S
H753 C749 0.930 . S
H754 C751 0.929 . S
S755 N756 1.613 1_554 S
S755 N757 1.610 . S
N756 S755 1.613 1_556 S
N756 C759 1.350 . S
N757 S755 1.610 . S
N757 C758 1.351 . S
C758 C752 1.428 . S
C758 N757 1.351 . S
C758 C759 1.434 1_554 S
C759 C750 1.429 . S
C759 N756 1.350 . S
C759 C758 1.434 1_556 S
C760 C761 1.369 . S
C760 C762 1.419 . S
C760 H764 0.930 . S
C761 C760 1.369 . S
C761 C770 1.429 . S
C762 C760 1.419 . S
C762 C763 1.363 . S
C762 H765 0.929 . S
C763 C762 1.363 . S
C763 C769 1.428 . S
H764 C760 0.930 . S
H765 C762 0.929 . S
S766 N767 1.613 . S
S766 N768 1.610 . S
N767 S766 1.613 . S
N767 C770 1.350 . S
N768 S766 1.610 . S
N768 C769 1.351 . S
C769 C763 1.428 . S
C769 N768 1.351 . S
C769 C770 1.434 . S
C770 C761 1.429 . S
C770 N767 1.350 . S
C770 C769 1.434 . S
C771 C772 1.369 . S
C771 C773 1.419 . S
C771 H775 0.930 . S
C772 C771 1.369 . S
C772 C781 1.429 . S
C773 C771 1.419 . S
C773 C774 1.363 . S
C773 H776 0.929 . S
C774 C773 1.363 . S
C774 C780 1.428 . S
H775 C771 0.930 . S
H776 C773 0.929 . S
S777 N778 1.613 . S
S777 N779 1.610 . S
N778 S777 1.613 . S
N778 C781 1.350 . S
N779 S777 1.610 . S
N779 C780 1.351 . S
C780 C774 1.428 . S
C780 N779 1.351 . S
C780 C781 1.434 . S
C781 C772 1.429 . S
C781 N778 1.350 . S
C781 C780 1.434 . S
C782 C783 1.369 . S
C782 C784 1.419 . S
C782 H786 0.930 . S
C783 C782 1.369 . S
C783 C792 1.429 . S
C784 C782 1.419 . S
C784 C785 1.363 . S
C784 H787 0.929 . S
C785 C784 1.363 . S
C785 C791 1.428 . S
H786 C782 0.930 . S
H787 C784 0.929 . S
S788 N789 1.613 . S
S788 N790 1.610 . S
N789 S788 1.613 . S
N789 C792 1.350 . S
N790 S788 1.610 . S
N790 C791 1.351 . S
C791 C785 1.428 . S
C791 N790 1.351 . S
C791 C792 1.434 . S
C792 C783 1.429 . S
C792 N789 1.350 . S
C792 C791 1.434 . S
C793 C794 1.369 . S
C793 C795 1.419 1_565 S
C793 H797 0.930 . S
C794 C793 1.369 . S
C794 C803 1.429 . S
C795 C793 1.419 1_545 S
C795 C796 1.363 . S
C795 H798 0.929 . S
C796 C795 1.363 . S
C796 C802 1.428 . S
H797 C793 0.930 . S
H798 C795 0.929 . S
S799 N800 1.613 1_545 S
S799 N801 1.610 . S
N800 S799 1.613 1_565 S
N800 C803 1.350 . S
N801 S799 1.610 . S
N801 C802 1.351 . S
C802 C796 1.428 . S
C802 N801 1.351 . S
C802 C803 1.434 1_545 S
C803 C794 1.429 . S
C803 N800 1.350 . S
C803 C802 1.434 1_565 S
C804 C805 1.369 . S
C804 C806 1.419 . S
C804 H808 0.930 . S
C805 C804 1.369 . S
C805 C814 1.429 . S
C806 C804 1.419 . S
C806 C807 1.363 . S
C806 H809 0.929 . S
C807 C806 1.363 . S
C807 C813 1.428 . S
H808 C804 0.930 . S
H809 C806 0.929 . S
S810 N811 1.613 . S
S810 N812 1.610 . S
N811 S810 1.613 . S
N811 C814 1.350 . S
N812 S810 1.610 . S
N812 C813 1.351 . S
C813 C807 1.428 . S
C813 N812 1.351 . S
C813 C814 1.434 . S
C814 C805 1.429 . S
C814 N811 1.350 . S
C814 C813 1.434 . S
C815 C816 1.369 . S
C815 C817 1.419 . S
C815 H819 0.930 . S
C816 C815 1.369 . S
C816 C825 1.429 . S
C817 C815 1.419 . S
C817 C818 1.363 . S
C817 H820 0.929 . S
C818 C817 1.363 . S
C818 C824 1.428 . S
H819 C815 0.930 . S
H820 C817 0.929 . S
S821 N822 1.613 . S
S821 N823 1.610 . S
N822 S821 1.613 . S
N822 C825 1.350 . S
N823 S821 1.610 . S
N823 C824 1.351 . S
C824 C818 1.428 . S
C824 N823 1.351 . S
C824 C825 1.434 . S
C825 C816 1.429 . S
C825 N822 1.350 . S
C825 C824 1.434 . S
C826 C827 1.369 . S
C826 C828 1.419 . S
C826 H830 0.930 . S
C827 C826 1.369 . S
C827 C836 1.429 . S
C828 C826 1.419 . S
C828 C829 1.363 . S
C828 H831 0.929 . S
C829 C828 1.363 . S
C829 C835 1.428 . S
H830 C826 0.930 . S
H831 C828 0.929 . S
S832 N833 1.613 . S
S832 N834 1.610 . S
N833 S832 1.613 . S
N833 C836 1.350 . S
N834 S832 1.610 . S
N834 C835 1.351 . S
C835 C829 1.428 . S
C835 N834 1.351 . S
C835 C836 1.434 . S
C836 C827 1.429 . S
C836 N833 1.350 . S
C836 C835 1.434 . S
C837 C838 1.369 . S
C837 C839 1.419 1_545 S
C837 H841 0.930 . S
C838 C837 1.369 . S
C838 C847 1.429 . S
C839 C837 1.419 1_565 S
C839 C840 1.363 . S
C839 H842 0.929 . S
C840 C839 1.363 . S
C840 C846 1.428 . S
H841 C837 0.930 . S
H842 C839 0.929 . S
S843 N844 1.616 1_565 S
S843 N845 1.617 . S
N844 S843 1.616 1_545 S
N844 C847 1.350 . S
N845 S843 1.617 . S
N845 C846 1.351 . S
C846 C840 1.428 . S
C846 N845 1.351 . S
C846 C847 1.434 1_565 S
C847 C838 1.429 . S
C847 N844 1.350 . S
C847 C846 1.434 1_545 S
C848 C849 1.369 . S
C848 C850 1.419 . S
C848 H852 0.930 . S
C849 C848 1.369 . S
C849 C858 1.429 . S
C850 C848 1.419 . S
C850 C851 1.363 . S
C850 H853 0.929 . S
C851 C850 1.363 . S
C851 C857 1.428 . S
H852 C848 0.930 . S
H853 C850 0.929 . S
S854 N855 1.613 . S
S854 N856 1.610 . S
N855 S854 1.613 . S
N855 C858 1.350 . S
N856 S854 1.610 . S
N856 C857 1.351 . S
C857 C851 1.428 . S
C857 N856 1.351 . S
C857 C858 1.434 . S
C858 C849 1.429 . S
C858 N855 1.350 . S
C858 C857 1.434 . S
C859 C860 1.369 . S
C859 C861 1.419 . S
C859 H863 0.930 . S
C860 C859 1.369 . S
C860 C869 1.429 . S
C861 C859 1.419 . S
C861 C862 1.363 . S
C861 H864 0.929 . S
C862 C861 1.363 . S
C862 C868 1.428 . S
H863 C859 0.930 . S
H864 C861 0.929 . S
S865 N866 1.613 . S
S865 N867 1.610 . S
N866 S865 1.613 . S
N866 C869 1.350 . S
N867 S865 1.610 . S
N867 C868 1.351 . S
C868 C862 1.428 . S
C868 N867 1.351 . S
C868 C869 1.434 . S
C869 C860 1.429 . S
C869 N866 1.350 . S
C869 C868 1.434 . S
C870 C871 1.369 . S
C870 C872 1.419 1_655 S
C870 H874 0.930 . S
C871 C870 1.369 . S
C871 C880 1.429 . S
C872 C870 1.419 1_455 S
C872 C873 1.363 . S
C872 H875 0.929 . S
C873 C872 1.363 . S
C873 C879 1.428 . S
H874 C870 0.930 . S
H875 C872 0.929 . S
S876 N877 1.613 1_455 S
S876 N878 1.610 . S
N877 S876 1.613 1_655 S
N877 C880 1.350 . S
N878 S876 1.610 . S
N878 C879 1.351 . S
C879 C873 1.428 . S
C879 N878 1.351 . S
C879 C880 1.434 1_455 S
C880 C871 1.429 . S
C880 N877 1.350 . S
C880 C879 1.434 1_655 S
C881 C882 1.369 . S
C881 C883 1.419 . S
C881 H885 0.930 . S
C882 C881 1.369 . S
C882 C891 1.429 . S
C883 C881 1.419 . S
C883 C884 1.363 . S
C883 H886 0.929 . S
C884 C883 1.363 . S
C884 C890 1.428 . S
H885 C881 0.930 . S
H886 C883 0.929 . S
S887 N888 1.613 . S
S887 N889 1.610 . S
N888 S887 1.613 . S
N888 C891 1.350 . S
N889 S887 1.610 . S
N889 C890 1.351 . S
C890 C884 1.428 . S
C890 N889 1.351 . S
C890 C891 1.434 . S
C891 C882 1.429 . S
C891 N888 1.350 . S
C891 C890 1.434 . S
C892 C893 1.369 . S
C892 C894 1.419 . S
C892 H896 0.930 . S
C893 C892 1.369 . S
C893 C902 1.429 . S
C894 C892 1.419 . S
C894 C895 1.363 . S
C894 H897 0.929 . S
C895 C894 1.363 . S
C895 C901 1.428 . S
H896 C892 0.930 . S
H897 C894 0.929 . S
S898 N899 1.613 . S
S898 N900 1.610 . S
N899 S898 1.613 . S
N899 C902 1.350 . S
N900 S898 1.610 . S
N900 C901 1.351 . S
C901 C895 1.428 . S
C901 N900 1.351 . S
C901 C902 1.434 . S
C902 C893 1.429 . S
C902 N899 1.350 . S
C902 C901 1.434 . S
C903 C904 1.369 . S
C903 C905 1.419 . S
C903 H907 0.930 . S
C904 C903 1.369 . S
C904 C913 1.429 . S
C905 C903 1.419 . S
C905 C906 1.363 . S
C905 H908 0.929 . S
C906 C905 1.363 . S
C906 C912 1.428 . S
H907 C903 0.930 . S
H908 C905 0.929 . S
S909 N910 1.613 . S
S909 N911 1.610 . S
N910 S909 1.613 . S
N910 C913 1.350 . S
N911 S909 1.610 . S
N911 C912 1.351 . S
C912 C906 1.428 . S
C912 N911 1.351 . S
C912 C913 1.434 . S
C913 C904 1.429 . S
C913 N910 1.350 . S
C913 C912 1.434 . S
C914 C915 1.369 . S
C914 C916 1.419 1_455 S
C914 H918 0.930 . S
C915 C914 1.369 . S
C915 C924 1.429 . S
C916 C914 1.419 1_655 S
C916 C917 1.363 . S
C916 H919 0.929 . S
C917 C916 1.363 . S
C917 C923 1.428 . S
H918 C914 0.930 . S
H919 C916 0.929 . S
S920 N921 1.613 1_655 S
S920 N922 1.610 . S
N921 S920 1.613 1_455 S
N921 C924 1.350 . S
N922 S920 1.610 . S
N922 C923 1.351 . S
C923 C917 1.428 . S
C923 N922 1.351 . S
C923 C924 1.434 1_655 S
C924 C915 1.429 . S
C924 N921 1.350 . S
C924 C923 1.434 1_455 S
C925 C926 1.369 . S
C925 C927 1.419 1_655 S
C925 H929 0.930 . S
C926 C925 1.369 . S
C926 C935 1.429 . S
C927 C925 1.419 1_455 S
C927 C928 1.363 . S
C927 H930 0.929 . S
C928 C927 1.363 . S
C928 C934 1.428 . S
H929 C925 0.930 . S
H930 C927 0.929 . S
S931 N932 1.613 1_455 S
S931 N933 1.610 . S
N932 S931 1.613 1_655 S
N932 C935 1.350 . S
N933 S931 1.610 . S
N933 C934 1.351 . S
C934 C928 1.428 . S
C934 N933 1.351 . S
C934 C935 1.434 1_455 S
C935 C926 1.429 . S
C935 N932 1.350 . S
C935 C934 1.434 1_655 S
C936 C937 1.369 . S
C936 C938 1.419 . S
C936 H940 0.930 . S
C937 C936 1.369 . S
C937 C946 1.429 . S
C938 C936 1.419 . S
C938 C939 1.363 . S
C938 H941 0.929 . S
C939 C938 1.363 . S
C939 C945 1.428 . S
H940 C936 0.930 . S
H941 C938 0.929 . S
S942 N943 1.613 . S
S942 N944 1.610 . S
N943 S942 1.613 . S
N943 C946 1.350 . S
N944 S942 1.610 . S
N944 C945 1.351 . S
C945 C939 1.428 . S
C945 N944 1.351 . S
C945 C946 1.434 . S
C946 C937 1.429 . S
C946 N943 1.350 . S
C946 C945 1.434 . S
C947 C948 1.369 . S
C947 C949 1.419 . S
C947 H951 0.930 . S
C948 C947 1.369 . S
C948 C957 1.429 . S
C949 C947 1.419 . S
C949 C950 1.363 . S
C949 H952 0.929 . S
C950 C949 1.363 . S
C950 C956 1.428 . S
H951 C947 0.930 . S
H952 C949 0.929 . S
S953 N954 1.613 . S
S953 N955 1.610 . S
N954 S953 1.613 . S
N954 C957 1.350 . S
N955 S953 1.610 . S
N955 C956 1.351 . S
C956 C950 1.428 . S
C956 N955 1.351 . S
C956 C957 1.434 . S
C957 C948 1.429 . S
C957 N954 1.350 . S
C957 C956 1.434 . S
C958 C959 1.369 . S
C958 C960 1.419 . S
C958 H962 0.930 . S
C959 C958 1.369 . S
C959 C968 1.429 . S
C960 C958 1.419 . S
C960 C961 1.363 . S
C960 H963 0.929 . S
C961 C960 1.363 . S
C961 C967 1.428 . S
H962 C958 0.930 . S
H963 C960 0.929 . S
S964 N965 1.613 . S
S964 N966 1.610 . S
N965 S964 1.613 . S
N965 C968 1.350 . S
N966 S964 1.610 . S
N966 C967 1.351 . S
C967 C961 1.428 . S
C967 N966 1.351 . S
C967 C968 1.434 . S
C968 C959 1.429 . S
C968 N965 1.350 . S
C968 C967 1.434 . S
C969 C970 1.369 . S
C969 C971 1.419 . S
C969 H973 0.930 . S
C970 C969 1.369 . S
C970 C979 1.429 . S
C971 C969 1.419 . S
C971 C972 1.363 . S
C971 H974 0.929 . S
C972 C971 1.363 . S
C972 C978 1.428 . S
H973 C969 0.930 . S
H974 C971 0.929 . S
S975 N976 1.613 1_455 S
S975 N977 1.610 1_455 S
N976 S975 1.613 1_655 S
N976 C979 1.350 . S
N977 S975 1.610 1_655 S
N977 C978 1.351 . S
C978 C972 1.428 . S
C978 N977 1.351 . S
C978 C979 1.434 . S
C979 C970 1.429 . S
C979 N976 1.350 . S
C979 C978 1.434 . S
C980 C981 1.369 . S
C980 C982 1.419 . S
C980 H984 0.930 . S
C981 C980 1.369 . S
C981 C990 1.429 . S
C982 C980 1.419 . S
C982 C983 1.363 . S
C982 H985 0.929 . S
C983 C982 1.363 . S
C983 C989 1.428 . S
H984 C980 0.930 . S
H985 C982 0.929 . S
S986 N987 1.613 . S
S986 N988 1.610 . S
N987 S986 1.613 . S
N987 C990 1.350 . S
N988 S986 1.610 . S
N988 C989 1.351 . S
C989 C983 1.428 . S
C989 N988 1.351 . S
C989 C990 1.434 . S
C990 C981 1.429 . S
C990 N987 1.350 . S
C990 C989 1.434 . S
C991 C992 1.369 . S
C991 C993 1.419 . S
C991 H995 0.930 . S
C992 C991 1.369 . S
C992 C1001 1.429 . S
C993 C991 1.419 . S
C993 C994 1.363 . S
C993 H996 0.929 . S
C994 C993 1.363 . S
C994 C1000 1.428 . S
H995 C991 0.930 . S
H996 C993 0.929 . S
S997 N998 1.613 . S
S997 N999 1.610 1_565 S
N998 S997 1.613 . S
N998 C1001 1.350 1_565 S
N999 S997 1.610 1_545 S
N999 C1000 1.351 . S
C1000 C994 1.428 . S
C1000 N999 1.351 . S
C1000 C1001 1.434 . S
C1001 C992 1.429 . S
C1001 N998 1.350 1_545 S
C1001 C1000 1.434 . S
C1002 C1003 1.369 . S
C1002 C1004 1.419 . S
C1002 H1006 0.930 . S
C1003 C1002 1.369 . S
C1003 C1012 1.429 . S
C1004 C1002 1.419 . S
C1004 C1005 1.363 . S
C1004 H1007 0.929 . S
C1005 C1004 1.363 . S
C1005 C1011 1.428 . S
H1006 C1002 0.930 . S
H1007 C1004 0.929 . S
S1008 N1009 1.613 . S
S1008 N1010 1.610 . S
N1009 S1008 1.613 . S
N1009 C1012 1.350 . S
N1010 S1008 1.610 . S
N1010 C1011 1.351 . S
C1011 C1005 1.428 . S
C1011 N1010 1.351 . S
C1011 C1012 1.434 . S
C1012 C1003 1.429 . S
C1012 N1009 1.350 . S
C1012 C1011 1.434 . S
C1013 C1014 1.369 . S
C1013 C1015 1.419 . S
C1013 H1017 0.930 . S
C1014 C1013 1.369 . S
C1014 C1023 1.429 . S
C1015 C1013 1.419 . S
C1015 C1016 1.363 . S
C1015 H1018 0.929 . S
C1016 C1015 1.363 . S
C1016 C1022 1.428 . S
H1017 C1013 0.930 . S
H1018 C1015 0.929 . S
S1019 N1020 1.613 . S
S1019 N1021 1.610 . S
N1020 S1019 1.613 . S
N1020 C1023 1.350 . S
N1021 S1019 1.610 . S
N1021 C1022 1.351 . S
C1022 C1016 1.428 . S
C1022 N1021 1.351 . S
C1022 C1023 1.434 . S
C1023 C1014 1.429 . S
C1023 N1020 1.350 . S
C1023 C1022 1.434 . S
C1024 C1025 1.369 . S
C1024 C1026 1.419 . S
C1024 H1028 0.930 . S
C1025 C1024 1.369 . S
C1025 C1034 1.429 . S
C1026 C1024 1.419 . S
C1026 C1027 1.363 . S
C1026 H1029 0.929 . S
C1027 C1026 1.363 . S
C1027 C1033 1.428 . S
H1028 C1024 0.930 . S
H1029 C1026 0.929 . S
S1030 N1031 1.613 . S
S1030 N1032 1.610 . S
N1031 S1030 1.613 . S
N1031 C1034 1.350 . S
N1032 S1030 1.610 . S
N1032 C1033 1.351 . S
C1033 C1027 1.428 . S
C1033 N1032 1.351 . S
C1033 C1034 1.434 . S
C1034 C1025 1.429 . S
C1034 N1031 1.350 . S
C1034 C1033 1.434 . S
C1035 C1036 1.369 . S
C1035 C1037 1.419 1_565 S
C1035 H1039 0.930 . S
C1036 C1035 1.369 . S
C1036 C1045 1.429 . S
C1037 C1035 1.419 1_545 S
C1037 C1038 1.363 . S
C1037 H1040 0.929 . S
C1038 C1037 1.363 . S
C1038 C1044 1.428 . S
H1039 C1035 0.930 . S
H1040 C1037 0.929 . S
S1041 N1042 1.613 1_455 S
S1041 N1043 1.610 1_465 S
N1042 S1041 1.613 1_655 S
N1042 C1045 1.350 . S
N1043 S1041 1.610 1_645 S
N1043 C1044 1.351 . S
C1044 C1038 1.428 . S
C1044 N1043 1.351 . S
C1044 C1045 1.434 1_545 S
C1045 C1036 1.429 . S
C1045 N1042 1.350 . S
C1045 C1044 1.434 1_565 S
C1046 C1047 1.369 . S
C1046 C1048 1.419 . S
C1046 H1050 0.930 . S
C1047 C1046 1.369 . S
C1047 C1056 1.429 . S
C1048 C1046 1.419 . S
C1048 C1049 1.363 . S
C1048 H1051 0.929 . S
C1049 C1048 1.363 . S
C1049 C1055 1.428 . S
H1050 C1046 0.930 . S
H1051 C1048 0.929 . S
S1052 N1053 1.613 . S
S1052 N1054 1.610 . S
N1053 S1052 1.613 . S
N1053 C1056 1.350 . S
N1054 S1052 1.610 . S
N1054 C1055 1.351 . S
C1055 C1049 1.428 . S
C1055 N1054 1.351 . S
C1055 C1056 1.434 . S
C1056 C1047 1.429 . S
C1056 N1053 1.350 . S
C1056 C1055 1.434 . S
C1057 C1058 1.369 . S
C1057 C1059 1.419 . S
C1057 H1061 0.930 . S
C1058 C1057 1.369 . S
C1058 C1067 1.429 . S
C1059 C1057 1.419 . S
C1059 C1060 1.363 . S
C1059 H1062 0.929 . S
C1060 C1059 1.363 . S
C1060 C1066 1.428 . S
H1061 C1057 0.930 . S
H1062 C1059 0.929 . S
S1063 N1064 1.613 1_655 S
S1063 N1065 1.610 . S
N1064 S1063 1.613 1_455 S
N1064 C1067 1.350 . S
N1065 S1063 1.610 . S
N1065 C1066 1.351 1_655 S
C1066 C1060 1.428 . S
C1066 N1065 1.351 1_455 S
C1066 C1067 1.434 . S
C1067 C1058 1.429 . S
C1067 N1064 1.350 . S
C1067 C1066 1.434 . S
C1068 C1069 1.369 . S
C1068 C1070 1.419 . S
C1068 H1072 0.930 . S
C1069 C1068 1.369 . S
C1069 C1078 1.429 . S
C1070 C1068 1.419 . S
C1070 C1071 1.363 . S
C1070 H1073 0.929 . S
C1071 C1070 1.363 . S
C1071 C1077 1.428 . S
H1072 C1068 0.930 . S
H1073 C1070 0.929 . S
S1074 N1075 1.613 . S
S1074 N1076 1.610 . S
N1075 S1074 1.613 . S
N1075 C1078 1.350 . S
N1076 S1074 1.610 . S
N1076 C1077 1.351 . S
C1077 C1071 1.428 . S
C1077 N1076 1.351 . S
C1077 C1078 1.434 . S
C1078 C1069 1.429 . S
C1078 N1075 1.350 . S
C1078 C1077 1.434 . S
C1079 C1080 1.369 . S
C1079 C1081 1.419 1_565 S
C1079 H1083 0.930 . S
C1080 C1079 1.369 . S
C1080 C1089 1.429 . S
C1081 C1079 1.419 1_545 S
C1081 C1082 1.363 . S
C1081 H1084 0.929 . S
C1082 C1081 1.363 . S
C1082 C1088 1.428 . S
H1083 C1079 0.930 . S
H1084 C1081 0.929 . S
S1085 N1086 1.613 . S
S1085 N1087 1.610 1_565 S
N1086 S1085 1.613 . S
N1086 C1089 1.350 . S
N1087 S1085 1.610 1_545 S
N1087 C1088 1.351 . S
C1088 C1082 1.428 . S
C1088 N1087 1.351 . S
C1088 C1089 1.434 1_545 S
C1089 C1080 1.429 . S
C1089 N1086 1.350 . S
C1089 C1088 1.434 1_565 S
C1090 C1091 1.369 . S
C1090 C1092 1.419 . S
C1090 H1094 0.930 . S
C1091 C1090 1.369 . S
C1091 C1100 1.429 . S
C1092 C1090 1.419 . S
C1092 C1093 1.363 . S
C1092 H1095 0.929 . S
C1093 C1092 1.363 . S
C1093 C1099 1.428 . S
H1094 C1090 0.930 . S
H1095 C1092 0.929 . S
S1096 N1097 1.613 . S
S1096 N1098 1.610 . S
N1097 S1096 1.613 . S
N1097 C1100 1.350 . S
N1098 S1096 1.610 . S
N1098 C1099 1.351 . S
C1099 C1093 1.428 . S
C1099 N1098 1.351 . S
C1099 C1100 1.434 . S
C1100 C1091 1.429 . S
C1100 N1097 1.350 . S
C1100 C1099 1.434 . S
C1101 C1102 1.369 . S
C1101 C1103 1.419 . S
C1101 H1105 0.930 . S
C1102 C1101 1.369 . S
C1102 C1111 1.429 . S
C1103 C1101 1.419 . S
C1103 C1104 1.363 . S
C1103 H1106 0.929 . S
C1104 C1103 1.363 . S
C1104 C1110 1.428 . S
H1105 C1101 0.930 . S
H1106 C1103 0.929 . S
S1107 N1108 1.613 . S
S1107 N1109 1.610 . S
N1108 S1107 1.613 . S
N1108 C1111 1.350 . S
N1109 S1107 1.610 . S
N1109 C1110 1.351 . S
C1110 C1104 1.428 . S
C1110 N1109 1.351 . S
C1110 C1111 1.434 . S
C1111 C1102 1.429 . S
C1111 N1108 1.350 . S
C1111 C1110 1.434 . S
C1112 C1113 1.369 . S
C1112 C1114 1.419 . S
C1112 H1116 0.930 . S
C1113 C1112 1.369 . S
C1113 C1122 1.429 . S
C1114 C1112 1.419 . S
C1114 C1115 1.363 . S
C1114 H1117 0.929 . S
C1115 C1114 1.363 . S
C1115 C1121 1.428 . S
H1116 C1112 0.930 . S
H1117 C1114 0.929 . S
S1118 N1119 1.613 . S
S1118 N1120 1.610 . S
N1119 S1118 1.613 . S
N1119 C1122 1.350 . S
N1120 S1118 1.610 . S
N1120 C1121 1.351 . S
C1121 C1115 1.428 . S
C1121 N1120 1.351 . S
C1121 C1122 1.434 . S
C1122 C1113 1.429 . S
C1122 N1119 1.350 . S
C1122 C1121 1.434 . S
C1123 C1124 1.369 . S
C1123 C1125 1.419 . S
C1123 H1127 0.930 . S
C1124 C1123 1.369 . S
C1124 C1133 1.429 . S
C1125 C1123 1.419 . S
C1125 C1126 1.363 . S
C1125 H1128 0.929 . S
C1126 C1125 1.363 . S
C1126 C1132 1.428 . S
H1127 C1123 0.930 . S
H1128 C1125 0.929 . S
S1129 N1130 1.613 . S
S1129 N1131 1.610 . S
N1130 S1129 1.613 . S
N1130 C1133 1.350 . S
N1131 S1129 1.610 . S
N1131 C1132 1.351 . S
C1132 C1126 1.428 . S
C1132 N1131 1.351 . S
C1132 C1133 1.434 . S
C1133 C1124 1.429 . S
C1133 N1130 1.350 . S
C1133 C1132 1.434 . S
C1134 C1135 1.369 . S
C1134 C1136 1.419 . S
C1134 H1138 0.930 . S
C1135 C1134 1.369 . S
C1135 C1144 1.429 . S
C1136 C1134 1.419 . S
C1136 C1137 1.363 . S
C1136 H1139 0.929 . S
C1137 C1136 1.363 . S
C1137 C1143 1.428 . S
H1138 C1134 0.930 . S
H1139 C1136 0.929 . S
S1140 N1141 1.613 . S
S1140 N1142 1.610 . S
N1141 S1140 1.613 . S
N1141 C1144 1.350 . S
N1142 S1140 1.610 . S
N1142 C1143 1.351 . S
C1143 C1137 1.428 . S
C1143 N1142 1.351 . S
C1143 C1144 1.434 . S
C1144 C1135 1.429 . S
C1144 N1141 1.350 . S
C1144 C1143 1.434 . S
C1145 C1146 1.369 . S
C1145 C1147 1.419 . S
C1145 H1149 0.930 . S
C1146 C1145 1.369 . S
C1146 C1155 1.429 . S
C1147 C1145 1.419 . S
C1147 C1148 1.363 . S
C1147 H1150 0.929 . S
C1148 C1147 1.363 . S
C1148 C1154 1.428 . S
H1149 C1145 0.930 . S
H1150 C1147 0.929 . S
S1151 N1152 1.613 . S
S1151 N1153 1.610 . S
N1152 S1151 1.613 . S
N1152 C1155 1.350 . S
N1153 S1151 1.610 . S
N1153 C1154 1.351 . S
C1154 C1148 1.428 . S
C1154 N1153 1.351 . S
C1154 C1155 1.434 . S
C1155 C1146 1.429 . S
C1155 N1152 1.350 . S
C1155 C1154 1.434 . S
C1156 C1157 1.369 . S
C1156 C1158 1.419 1_455 S
C1156 H1160 0.930 . S
C1157 C1156 1.369 . S
C1157 C1166 1.429 . S
C1158 C1156 1.419 1_655 S
C1158 C1159 1.363 . S
C1158 H1161 0.929 . S
C1159 C1158 1.363 . S
C1159 C1165 1.428 . S
H1160 C1156 0.930 . S
H1161 C1158 0.929 . S
S1162 N1163 1.613 . S
S1162 N1164 1.610 1_455 S
N1163 S1162 1.613 . S
N1163 C1166 1.350 . S
N1164 S1162 1.610 1_655 S
N1164 C1165 1.351 . S
C1165 C1159 1.428 . S
C1165 N1164 1.351 . S
C1165 C1166 1.434 1_655 S
C1166 C1157 1.429 . S
C1166 N1163 1.350 . S
C1166 C1165 1.434 1_455 S
C1167 C1168 1.369 . S
C1167 C1169 1.419 . S
C1167 H1171 0.930 . S
C1168 C1167 1.369 . S
C1168 C1177 1.429 . S
C1169 C1167 1.419 . S
C1169 C1170 1.363 . S
C1169 H1172 0.929 . S
C1170 C1169 1.363 . S
C1170 C1176 1.428 . S
H1171 C1167 0.930 . S
H1172 C1169 0.929 . S
S1173 N1174 1.613 . S
S1173 N1175 1.610 . S
N1174 S1173 1.613 . S
N1174 C1177 1.350 . S
N1175 S1173 1.610 . S
N1175 C1176 1.351 . S
C1176 C1170 1.428 . S
C1176 N1175 1.351 . S
C1176 C1177 1.434 . S
C1177 C1168 1.429 . S
C1177 N1174 1.350 . S
C1177 C1176 1.434 . S
C1178 C1179 1.369 . S
C1178 C1180 1.419 . S
C1178 H1182 0.930 . S
C1179 C1178 1.369 . S
C1179 C1188 1.429 . S
C1180 C1178 1.419 . S
C1180 C1181 1.363 . S
C1180 H1183 0.929 . S
C1181 C1180 1.363 . S
C1181 C1187 1.428 . S
H1182 C1178 0.930 . S
H1183 C1180 0.929 . S
S1184 N1185 1.613 . S
S1184 N1186 1.610 . S
N1185 S1184 1.613 . S
N1185 C1188 1.350 . S
N1186 S1184 1.610 . S
N1186 C1187 1.351 . S
C1187 C1181 1.428 . S
C1187 N1186 1.351 . S
C1187 C1188 1.434 . S
C1188 C1179 1.429 . S
C1188 N1185 1.350 . S
C1188 C1187 1.434 . S
C1189 C1190 1.369 . S
C1189 C1191 1.419 . S
C1189 H1193 0.930 . S
C1190 C1189 1.369 . S
C1190 C1199 1.429 . S
C1191 C1189 1.419 . S
C1191 C1192 1.363 . S
C1191 H1194 0.929 . S
C1192 C1191 1.363 . S
C1192 C1198 1.428 . S
H1193 C1189 0.930 . S
H1194 C1191 0.929 . S
S1195 N1196 1.613 . S
S1195 N1197 1.610 . S
N1196 S1195 1.613 . S
N1196 C1199 1.350 . S
N1197 S1195 1.610 . S
N1197 C1198 1.351 . S
C1198 C1192 1.428 . S
C1198 N1197 1.351 . S
C1198 C1199 1.434 . S
C1199 C1190 1.429 . S
C1199 N1196 1.350 . S
C1199 C1198 1.434 . S
C1200 C1201 1.369 . S
C1200 C1202 1.419 . S
C1200 H1204 0.930 . S
C1201 C1200 1.369 . S
C1201 C1210 1.429 . S
C1202 C1200 1.419 . S
C1202 C1203 1.363 . S
C1202 H1205 0.929 . S
C1203 C1202 1.363 . S
C1203 C1209 1.428 . S
H1204 C1200 0.930 . S
H1205 C1202 0.929 . S
S1206 N1207 1.613 . S
S1206 N1208 1.610 . S
N1207 S1206 1.613 . S
N1207 C1210 1.350 . S
N1208 S1206 1.610 . S
N1208 C1209 1.351 . S
C1209 C1203 1.428 . S
C1209 N1208 1.351 . S
C1209 C1210 1.434 . S
C1210 C1201 1.429 . S
C1210 N1207 1.350 . S
C1210 C1209 1.434 . S
C1211 C1212 1.369 . S
C1211 C1213 1.419 . S
C1211 H1215 0.930 . S
C1212 C1211 1.369 . S
C1212 C1221 1.429 . S
C1213 C1211 1.419 . S
C1213 C1214 1.363 . S
C1213 H1216 0.929 . S
C1214 C1213 1.363 . S
C1214 C1220 1.428 . S
H1215 C1211 0.930 . S
H1216 C1213 0.929 . S
S1217 N1218 1.613 . S
S1217 N1219 1.610 . S
N1218 S1217 1.613 . S
N1218 C1221 1.350 . S
N1219 S1217 1.610 . S
N1219 C1220 1.351 . S
C1220 C1214 1.428 . S
C1220 N1219 1.351 . S
C1220 C1221 1.434 . S
C1221 C1212 1.429 . S
C1221 N1218 1.350 . S
C1221 C1220 1.434 . S
C1222 C1223 1.369 . S
C1222 C1224 1.419 . S
C1222 H1226 0.930 . S
C1223 C1222 1.369 . S
C1223 C1232 1.429 . S
C1224 C1222 1.419 . S
C1224 C1225 1.363 . S
C1224 H1227 0.929 . S
C1225 C1224 1.363 . S
C1225 C1231 1.428 . S
H1226 C1222 0.930 . S
H1227 C1224 0.929 . S
S1228 N1229 1.613 . S
S1228 N1230 1.610 . S
N1229 S1228 1.613 . S
N1229 C1232 1.350 . S
N1230 S1228 1.610 . S
N1230 C1231 1.351 . S
C1231 C1225 1.428 . S
C1231 N1230 1.351 . S
C1231 C1232 1.434 . S
C1232 C1223 1.429 . S
C1232 N1229 1.350 . S
C1232 C1231 1.434 . S
C1233 C1234 1.369 . S
C1233 C1235 1.419 . S
C1233 H1237 0.930 . S
C1234 C1233 1.369 . S
C1234 C1243 1.429 . S
C1235 C1233 1.419 . S
C1235 C1236 1.363 . S
C1235 H1238 0.929 . S
C1236 C1235 1.363 . S
C1236 C1242 1.428 . S
H1237 C1233 0.930 . S
H1238 C1235 0.929 . S
S1239 N1240 1.613 . S
S1239 N1241 1.610 . S
N1240 S1239 1.613 . S
N1240 C1243 1.350 . S
N1241 S1239 1.610 . S
N1241 C1242 1.351 . S
C1242 C1236 1.428 . S
C1242 N1241 1.351 . S
C1242 C1243 1.434 . S
C1243 C1234 1.429 . S
C1243 N1240 1.350 . S
C1243 C1242 1.434 . S
C1244 C1245 1.369 . S
C1244 C1246 1.419 . S
C1244 H1248 0.930 . S
C1245 C1244 1.369 . S
C1245 C1254 1.429 . S
C1246 C1244 1.419 . S
C1246 C1247 1.363 . S
C1246 H1249 0.929 . S
C1247 C1246 1.363 . S
C1247 C1253 1.428 . S
H1248 C1244 0.930 . S
H1249 C1246 0.929 . S
S1250 N1251 1.613 . S
S1250 N1252 1.610 . S
N1251 S1250 1.613 . S
N1251 C1254 1.350 . S
N1252 S1250 1.610 . S
N1252 C1253 1.351 . S
C1253 C1247 1.428 . S
C1253 N1252 1.351 . S
C1253 C1254 1.434 . S
C1254 C1245 1.429 . S
C1254 N1251 1.350 . S
C1254 C1253 1.434 . S
C1255 C1256 1.369 . S
C1255 C1257 1.419 . S
C1255 H1259 0.930 . S
C1256 C1255 1.369 . S
C1256 C1265 1.429 . S
C1257 C1255 1.419 . S
C1257 C1258 1.363 . S
C1257 H1260 0.929 . S
C1258 C1257 1.363 . S
C1258 C1264 1.428 . S
H1259 C1255 0.930 . S
H1260 C1257 0.929 . S
S1261 N1262 1.613 . S
S1261 N1263 1.610 . S
N1262 S1261 1.613 . S
N1262 C1265 1.350 . S
N1263 S1261 1.610 . S
N1263 C1264 1.351 . S
C1264 C1258 1.428 . S
C1264 N1263 1.351 . S
C1264 C1265 1.434 . S
C1265 C1256 1.429 . S
C1265 N1262 1.350 . S
C1265 C1264 1.434 . S
C1266 C1267 1.369 . S
C1266 C1268 1.419 . S
C1266 H1270 0.930 . S
C1267 C1266 1.369 . S
C1267 C1276 1.429 . S
C1268 C1266 1.419 . S
C1268 C1269 1.363 . S
C1268 H1271 0.929 . S
C1269 C1268 1.363 . S
C1269 C1275 1.428 . S
H1270 C1266 0.930 . S
H1271 C1268 0.929 . S
S1272 N1273 1.613 . S
S1272 N1274 1.610 . S
N1273 S1272 1.613 . S
N1273 C1276 1.350 . S
N1274 S1272 1.610 . S
N1274 C1275 1.351 . S
C1275 C1269 1.428 . S
C1275 N1274 1.351 . S
C1275 C1276 1.434 . S
C1276 C1267 1.429 . S
C1276 N1273 1.350 . S
C1276 C1275 1.434 . S
C1277 C1278 1.369 . S
C1277 C1279 1.419 . S
C1277 H1281 0.930 . S
C1278 C1277 1.369 . S
C1278 C1287 1.429 . S
C1279 C1277 1.419 . S
C1279 C1280 1.363 . S
C1279 H1282 0.929 . S
C1280 C1279 1.363 . S
C1280 C1286 1.428 . S
H1281 C1277 0.930 . S
H1282 C1279 0.929 . S
S1283 N1284 1.613 . S
S1283 N1285 1.610 . S
N1284 S1283 1.613 . S
N1284 C1287 1.350 . S
N1285 S1283 1.610 . S
N1285 C1286 1.351 . S
C1286 C1280 1.428 . S
C1286 N1285 1.351 . S
C1286 C1287 1.434 . S
C1287 C1278 1.429 . S
C1287 N1284 1.350 . S
C1287 C1286 1.434 . S
C1288 C1289 1.369 . S
C1288 C1290 1.419 . S
C1288 H1292 0.930 . S
C1289 C1288 1.369 . S
C1289 C1298 1.429 . S
C1290 C1288 1.419 . S
C1290 C1291 1.363 . S
C1290 H1293 0.929 . S
C1291 C1290 1.363 . S
C1291 C1297 1.428 . S
H1292 C1288 0.930 . S
H1293 C1290 0.929 . S
S1294 N1295 1.613 . S
S1294 N1296 1.610 . S
N1295 S1294 1.613 . S
N1295 C1298 1.350 . S
N1296 S1294 1.610 . S
N1296 C1297 1.351 . S
C1297 C1291 1.428 . S
C1297 N1296 1.351 . S
C1297 C1298 1.434 . S
C1298 C1289 1.429 . S
C1298 N1295 1.350 . S
C1298 C1297 1.434 . S
C1299 C1300 1.369 . S
C1299 C1301 1.419 . S
C1299 H1303 0.930 . S
C1300 C1299 1.369 . S
C1300 C1309 1.429 . S
C1301 C1299 1.419 . S
C1301 C1302 1.363 . S
C1301 H1304 0.929 . S
C1302 C1301 1.363 . S
C1302 C1308 1.428 . S
H1303 C1299 0.930 . S
H1304 C1301 0.929 . S
S1305 N1306 1.613 . S
S1305 N1307 1.610 . S
N1306 S1305 1.613 . S
N1306 C1309 1.350 . S
N1307 S1305 1.610 . S
N1307 C1308 1.351 . S
C1308 C1302 1.428 . S
C1308 N1307 1.351 . S
C1308 C1309 1.434 . S
C1309 C1300 1.429 . S
C1309 N1306 1.350 . S
C1309 C1308 1.434 . S
C1310 C1311 1.369 . S
C1310 C1312 1.419 . S
C1310 H1314 0.930 . S
C1311 C1310 1.369 . S
C1311 C1320 1.429 . S
C1312 C1310 1.419 . S
C1312 C1313 1.363 . S
C1312 H1315 0.929 . S
C1313 C1312 1.363 . S
C1313 C1319 1.428 . S
H1314 C1310 0.930 . S
H1315 C1312 0.929 . S
S1316 N1317 1.613 . S
S1316 N1318 1.610 . S
N1317 S1316 1.613 . S
N1317 C1320 1.350 . S
N1318 S1316 1.610 . S
N1318 C1319 1.351 . S
C1319 C1313 1.428 . S
C1319 N1318 1.351 . S
C1319 C1320 1.434 . S
C1320 C1311 1.429 . S
C1320 N1317 1.350 . S
C1320 C1319 1.434 . S
C1321 C1322 1.369 . S
C1321 C1323 1.419 . S
C1321 H1325 0.930 . S
C1322 C1321 1.369 . S
C1322 C1331 1.429 . S
C1323 C1321 1.419 . S
C1323 C1324 1.363 . S
C1323 H1326 0.929 . S
C1324 C1323 1.363 . S
C1324 C1330 1.428 . S
H1325 C1321 0.930 . S
H1326 C1323 0.929 . S
S1327 N1328 1.613 . S
S1327 N1329 1.610 . S
N1328 S1327 1.613 . S
N1328 C1331 1.350 . S
N1329 S1327 1.610 . S
N1329 C1330 1.351 . S
C1330 C1324 1.428 . S
C1330 N1329 1.351 . S
C1330 C1331 1.434 . S
C1331 C1322 1.429 . S
C1331 N1328 1.350 . S
C1331 C1330 1.434 . S
C1332 C1333 1.369 . S
C1332 C1334 1.419 . S
C1332 H1336 0.930 . S
C1333 C1332 1.369 . S
C1333 C1342 1.429 . S
C1334 C1332 1.419 . S
C1334 C1335 1.363 . S
C1334 H1337 0.929 . S
C1335 C1334 1.363 . S
C1335 C1341 1.428 . S
H1336 C1332 0.930 . S
H1337 C1334 0.929 . S
S1338 N1339 1.613 . S
S1338 N1340 1.610 . S
N1339 S1338 1.613 . S
N1339 C1342 1.350 . S
N1340 S1338 1.610 . S
N1340 C1341 1.351 . S
C1341 C1335 1.428 . S
C1341 N1340 1.351 . S
C1341 C1342 1.434 . S
C1342 C1333 1.429 . S
C1342 N1339 1.350 . S
C1342 C1341 1.434 . S
C1343 C1344 1.369 . S
C1343 C1345 1.419 . S
C1343 H1347 0.930 . S
C1344 C1343 1.369 . S
C1344 C1353 1.429 . S
C1345 C1343 1.419 . S
C1345 C1346 1.363 . S
C1345 H1348 0.929 . S
C1346 C1345 1.363 . S
C1346 C1352 1.428 . S
H1347 C1343 0.930 . S
H1348 C1345 0.929 . S
S1349 N1350 1.613 . S
S1349 N1351 1.610 . S
N1350 S1349 1.613 . S
N1350 C1353 1.350 . S
N1351 S1349 1.610 . S
N1351 C1352 1.351 . S
C1352 C1346 1.428 . S
C1352 N1351 1.351 . S
C1352 C1353 1.434 . S
C1353 C1344 1.429 . S
C1353 N1350 1.350 . S
C1353 C1352 1.434 . S
C1354 C1355 1.369 . S
C1354 C1356 1.419 . S
C1354 H1358 0.930 . S
C1355 C1354 1.369 . S
C1355 C1364 1.429 . S
C1356 C1354 1.419 . S
C1356 C1357 1.363 . S
C1356 H1359 0.929 . S
C1357 C1356 1.363 . S
C1357 C1363 1.428 . S
H1358 C1354 0.930 . S
H1359 C1356 0.929 . S
S1360 N1361 1.613 . S
S1360 N1362 1.610 . S
N1361 S1360 1.613 . S
N1361 C1364 1.350 . S
N1362 S1360 1.610 . S
N1362 C1363 1.351 . S
C1363 C1357 1.428 . S
C1363 N1362 1.351 . S
C1363 C1364 1.434 . S
C1364 C1355 1.429 . S
C1364 N1361 1.350 . S
C1364 C1363 1.434 . S
C1365 C1366 1.369 . S
C1365 C1367 1.419 . S
C1365 H1369 0.930 . S
C1366 C1365 1.369 . S
C1366 C1375 1.429 . S
C1367 C1365 1.419 . S
C1367 C1368 1.363 . S
C1367 H1370 0.929 . S
C1368 C1367 1.363 . S
C1368 C1374 1.428 . S
H1369 C1365 0.930 . S
H1370 C1367 0.929 . S
S1371 N1372 1.613 . S
S1371 N1373 1.610 . S
N1372 S1371 1.613 . S
N1372 C1375 1.350 . S
N1373 S1371 1.610 . S
N1373 C1374 1.351 . S
C1374 C1368 1.428 . S
C1374 N1373 1.351 . S
C1374 C1375 1.434 . S
C1375 C1366 1.429 . S
C1375 N1372 1.350 . S
C1375 C1374 1.434 . S
C1376 C1377 1.369 . S
C1376 C1378 1.419 . S
C1376 H1380 0.930 . S
C1377 C1376 1.369 . S
C1377 C1386 1.429 . S
C1378 C1376 1.419 . S
C1378 C1379 1.363 . S
C1378 H1381 0.929 . S
C1379 C1378 1.363 . S
C1379 C1385 1.428 . S
H1380 C1376 0.930 . S
H1381 C1378 0.929 . S
S1382 N1383 1.613 . S
S1382 N1384 1.610 . S
N1383 S1382 1.613 . S
N1383 C1386 1.350 . S
N1384 S1382 1.610 . S
N1384 C1385 1.351 . S
C1385 C1379 1.428 . S
C1385 N1384 1.351 . S
C1385 C1386 1.434 . S
C1386 C1377 1.429 . S
C1386 N1383 1.350 . S
C1386 C1385 1.434 . S
C1387 C1388 1.369 . S
C1387 C1389 1.419 . S
C1387 H1391 0.930 . S
C1388 C1387 1.369 . S
C1388 C1397 1.429 . S
C1389 C1387 1.419 . S
C1389 C1390 1.363 . S
C1389 H1392 0.929 . S
C1390 C1389 1.363 . S
C1390 C1396 1.428 . S
H1391 C1387 0.930 . S
H1392 C1389 0.929 . S
S1393 N1394 1.613 . S
S1393 N1395 1.610 . S
N1394 S1393 1.613 . S
N1394 C1397 1.350 . S
N1395 S1393 1.610 . S
N1395 C1396 1.351 . S
C1396 C1390 1.428 . S
C1396 N1395 1.351 . S
C1396 C1397 1.434 . S
C1397 C1388 1.429 . S
C1397 N1394 1.350 . S
C1397 C1396 1.434 . S
C1398 C1399 1.369 . S
C1398 C1400 1.419 . S
C1398 H1402 0.930 . S
C1399 C1398 1.369 . S
C1399 C1408 1.429 . S
C1400 C1398 1.419 . S
C1400 C1401 1.363 . S
C1400 H1403 0.929 . S
C1401 C1400 1.363 . S
C1401 C1407 1.428 . S
H1402 C1398 0.930 . S
H1403 C1400 0.929 . S
S1404 N1405 1.613 . S
S1404 N1406 1.610 . S
N1405 S1404 1.613 . S
N1405 C1408 1.350 . S
N1406 S1404 1.610 . S
N1406 C1407 1.351 . S
C1407 C1401 1.428 . S
C1407 N1406 1.351 . S
C1407 C1408 1.434 . S
C1408 C1399 1.429 . S
C1408 N1405 1.350 . S
C1408 C1407 1.434 . S
C1409 C1410 1.369 . S
C1409 C1411 1.419 . S
C1409 H1413 0.930 . S
C1410 C1409 1.369 . S
C1410 C1419 1.429 . S
C1411 C1409 1.419 . S
C1411 C1412 1.363 . S
C1411 H1414 0.929 . S
C1412 C1411 1.363 . S
C1412 C1418 1.428 . S
H1413 C1409 0.930 . S
H1414 C1411 0.929 . S
S1415 N1416 1.613 . S
S1415 N1417 1.610 . S
N1416 S1415 1.613 . S
N1416 C1419 1.350 . S
N1417 S1415 1.610 . S
N1417 C1418 1.351 . S
C1418 C1412 1.428 . S
C1418 N1417 1.351 . S
C1418 C1419 1.434 . S
C1419 C1410 1.429 . S
C1419 N1416 1.350 . S
C1419 C1418 1.434 . S
C1420 C1421 1.369 . S
C1420 C1422 1.419 . S
C1420 H1424 0.930 . S
C1421 C1420 1.369 . S
C1421 C1430 1.429 . S
C1422 C1420 1.419 . S
C1422 C1423 1.363 . S
C1422 H1425 0.929 . S
C1423 C1422 1.363 . S
C1423 C1429 1.428 . S
H1424 C1420 0.930 . S
H1425 C1422 0.929 . S
S1426 N1427 1.613 . S
S1426 N1428 1.610 . S
N1427 S1426 1.613 . S
N1427 C1430 1.350 . S
N1428 S1426 1.610 . S
N1428 C1429 1.351 . S
C1429 C1423 1.428 . S
C1429 N1428 1.351 . S
C1429 C1430 1.434 . S
C1430 C1421 1.429 . S
C1430 N1427 1.350 . S
C1430 C1429 1.434 . S
C1431 C1432 1.369 . S
C1431 C1433 1.419 . S
C1431 H1435 0.930 . S
C1432 C1431 1.369 . S
C1432 C1441 1.429 . S
C1433 C1431 1.419 . S
C1433 C1434 1.363 . S
C1433 H1436 0.929 . S
C1434 C1433 1.363 . S
C1434 C1440 1.428 . S
H1435 C1431 0.930 . S
H1436 C1433 0.929 . S
S1437 N1438 1.613 . S
S1437 N1439 1.610 . S
N1438 S1437 1.613 . S
N1438 C1441 1.350 . S
N1439 S1437 1.610 . S
N1439 C1440 1.351 . S
C1440 C1434 1.428 . S
C1440 N1439 1.351 . S
C1440 C1441 1.434 . S
C1441 C1432 1.429 . S
C1441 N1438 1.350 . S
C1441 C1440 1.434 . S
C1442 C1443 1.369 . S
C1442 C1444 1.419 . S
C1442 H1446 0.930 . S
C1443 C1442 1.369 . S
C1443 C1452 1.429 . S
C1444 C1442 1.419 . S
C1444 C1445 1.363 . S
C1444 H1447 0.929 . S
C1445 C1444 1.363 . S
C1445 C1451 1.428 . S
H1446 C1442 0.930 . S
H1447 C1444 0.929 . S
S1448 N1449 1.613 . S
S1448 N1450 1.610 . S
N1449 S1448 1.613 . S
N1449 C1452 1.350 . S
N1450 S1448 1.610 . S
N1450 C1451 1.351 . S
C1451 C1445 1.428 . S
C1451 N1450 1.351 . S
C1451 C1452 1.434 . S
C1452 C1443 1.429 . S
C1452 N1449 1.350 . S
C1452 C1451 1.434 . S
C1453 C1454 1.369 . S
C1453 C1455 1.419 . S
C1453 H1457 0.930 . S
C1454 C1453 1.369 . S
C1454 C1463 1.429 . S
C1455 C1453 1.419 . S
C1455 C1456 1.363 . S
C1455 H1458 0.929 . S
C1456 C1455 1.363 . S
C1456 C1462 1.428 . S
H1457 C1453 0.930 . S
H1458 C1455 0.929 . S
S1459 N1460 1.613 . S
S1459 N1461 1.610 . S
N1460 S1459 1.613 . S
N1460 C1463 1.350 . S
N1461 S1459 1.610 . S
N1461 C1462 1.351 . S
C1462 C1456 1.428 . S
C1462 N1461 1.351 . S
C1462 C1463 1.434 . S
C1463 C1454 1.429 . S
C1463 N1460 1.350 . S
C1463 C1462 1.434 . S
C1464 C1465 1.369 . S
C1464 C1466 1.419 . S
C1464 H1468 0.930 . S
C1465 C1464 1.369 . S
C1465 C1474 1.429 . S
C1466 C1464 1.419 . S
C1466 C1467 1.363 . S
C1466 H1469 0.929 . S
C1467 C1466 1.363 . S
C1467 C1473 1.428 . S
H1468 C1464 0.930 . S
H1469 C1466 0.929 . S
S1470 N1471 1.613 . S
S1470 N1472 1.610 . S
N1471 S1470 1.613 . S
N1471 C1474 1.350 . S
N1472 S1470 1.610 . S
N1472 C1473 1.351 . S
C1473 C1467 1.428 . S
C1473 N1472 1.351 . S
C1473 C1474 1.434 . S
C1474 C1465 1.429 . S
C1474 N1471 1.350 . S
C1474 C1473 1.434 . S
C1475 C1476 1.369 . S
C1475 C1477 1.419 . S
C1475 H1479 0.930 . S
C1476 C1475 1.369 . S
C1476 C1485 1.429 . S
C1477 C1475 1.419 . S
C1477 C1478 1.363 . S
C1477 H1480 0.929 . S
C1478 C1477 1.363 . S
C1478 C1484 1.428 . S
H1479 C1475 0.930 . S
H1480 C1477 0.929 . S
S1481 N1482 1.613 . S
S1481 N1483 1.610 . S
N1482 S1481 1.613 . S
N1482 C1485 1.350 . S
N1483 S1481 1.610 . S
N1483 C1484 1.351 . S
C1484 C1478 1.428 . S
C1484 N1483 1.351 . S
C1484 C1485 1.434 . S
C1485 C1476 1.429 . S
C1485 N1482 1.350 . S
C1485 C1484 1.434 . S
C1486 C1487 1.369 . S
C1486 C1488 1.419 . S
C1486 H1490 0.930 . S
C1487 C1486 1.369 . S
C1487 C1496 1.429 . S
C1488 C1486 1.419 . S
C1488 C1489 1.363 . S
C1488 H1491 0.929 . S
C1489 C1488 1.363 . S
C1489 C1495 1.428 . S
H1490 C1486 0.930 . S
H1491 C1488 0.929 . S
S1492 N1493 1.613 . S
S1492 N1494 1.610 . S
N1493 S1492 1.613 . S
N1493 C1496 1.350 . S
N1494 S1492 1.610 . S
N1494 C1495 1.351 . S
C1495 C1489 1.428 . S
C1495 N1494 1.351 . S
C1495 C1496 1.434 . S
C1496 C1487 1.429 . S
C1496 N1493 1.350 . S
C1496 C1495 1.434 . S
C1497 C1498 1.369 . S
C1497 C1499 1.419 . S
C1497 H1501 0.930 . S
C1498 C1497 1.369 . S
C1498 C1507 1.429 . S
C1499 C1497 1.419 . S
C1499 C1500 1.363 . S
C1499 H1502 0.929 . S
C1500 C1499 1.363 . S
C1500 C1506 1.428 . S
H1501 C1497 0.930 . S
H1502 C1499 0.929 . S
S1503 N1504 1.613 . S
S1503 N1505 1.610 . S
N1504 S1503 1.613 . S
N1504 C1507 1.350 . S
N1505 S1503 1.610 . S
N1505 C1506 1.351 . S
C1506 C1500 1.428 . S
C1506 N1505 1.351 . S
C1506 C1507 1.434 . S
C1507 C1498 1.429 . S
C1507 N1504 1.350 . S
C1507 C1506 1.434 . S
C1508 C1509 1.369 . S
C1508 C1510 1.419 . S
C1508 H1512 0.930 . S
C1509 C1508 1.369 . S
C1509 C1518 1.429 . S
C1510 C1508 1.419 . S
C1510 C1511 1.363 . S
C1510 H1513 0.929 . S
C1511 C1510 1.363 . S
C1511 C1517 1.428 . S
H1512 C1508 0.930 . S
H1513 C1510 0.929 . S
S1514 N1515 1.613 . S
S1514 N1516 1.610 . S
N1515 S1514 1.613 . S
N1515 C1518 1.350 . S
N1516 S1514 1.610 . S
N1516 C1517 1.351 . S
C1517 C1511 1.428 . S
C1517 N1516 1.351 . S
C1517 C1518 1.434 . S
C1518 C1509 1.429 . S
C1518 N1515 1.350 . S
C1518 C1517 1.434 . S
C1519 C1520 1.369 . S
C1519 C1521 1.419 . S
C1519 H1523 0.930 . S
C1520 C1519 1.369 . S
C1520 C1529 1.429 . S
C1521 C1519 1.419 . S
C1521 C1522 1.363 . S
C1521 H1524 0.929 . S
C1522 C1521 1.363 . S
C1522 C1528 1.428 . S
H1523 C1519 0.930 . S
H1524 C1521 0.929 . S
S1525 N1526 1.613 . S
S1525 N1527 1.610 . S
N1526 S1525 1.613 . S
N1526 C1529 1.350 . S
N1527 S1525 1.610 . S
N1527 C1528 1.351 . S
C1528 C1522 1.428 . S
C1528 N1527 1.351 . S
C1528 C1529 1.434 . S
C1529 C1520 1.429 . S
C1529 N1526 1.350 . S
C1529 C1528 1.434 . S
C1530 C1531 1.369 . S
C1530 C1532 1.419 . S
C1530 H1534 0.930 . S
C1531 C1530 1.369 . S
C1531 C1540 1.429 . S
C1532 C1530 1.419 . S
C1532 C1533 1.363 . S
C1532 H1535 0.929 . S
C1533 C1532 1.363 . S
C1533 C1539 1.428 . S
H1534 C1530 0.930 . S
H1535 C1532 0.929 . S
S1536 N1537 1.613 . S
S1536 N1538 1.610 . S
N1537 S1536 1.613 . S
N1537 C1540 1.350 . S
N1538 S1536 1.610 . S
N1538 C1539 1.351 . S
C1539 C1533 1.428 . S
C1539 N1538 1.351 . S
C1539 C1540 1.434 . S
C1540 C1531 1.429 . S
C1540 N1537 1.350 . S
C1540 C1539 1.434 . S
C1541 C1542 1.369 . S
C1541 C1543 1.419 . S
C1541 H1545 0.930 . S
C1542 C1541 1.369 . S
C1542 C1551 1.429 . S
C1543 C1541 1.419 . S
C1543 C1544 1.363 . S
C1543 H1546 0.929 . S
C1544 C1543 1.363 . S
C1544 C1550 1.428 . S
H1545 C1541 0.930 . S
H1546 C1543 0.929 . S
S1547 N1548 1.613 . S
S1547 N1549 1.610 . S
N1548 S1547 1.613 . S
N1548 C1551 1.350 . S
N1549 S1547 1.610 . S
N1549 C1550 1.351 . S
C1550 C1544 1.428 . S
C1550 N1549 1.351 . S
C1550 C1551 1.434 . S
C1551 C1542 1.429 . S
C1551 N1548 1.350 . S
C1551 C1550 1.434 . S
C1552 C1553 1.369 . S
C1552 C1554 1.419 . S
C1552 H1556 0.930 . S
C1553 C1552 1.369 . S
C1553 C1562 1.429 . S
C1554 C1552 1.419 . S
C1554 C1555 1.363 . S
C1554 H1557 0.929 . S
C1555 C1554 1.363 . S
C1555 C1561 1.428 . S
H1556 C1552 0.930 . S
H1557 C1554 0.929 . S
S1558 N1559 1.613 . S
S1558 N1560 1.610 . S
N1559 S1558 1.613 . S
N1559 C1562 1.350 . S
N1560 S1558 1.610 . S
N1560 C1561 1.351 . S
C1561 C1555 1.428 . S
C1561 N1560 1.351 . S
C1561 C1562 1.434 . S
C1562 C1553 1.429 . S
C1562 N1559 1.350 . S
C1562 C1561 1.434 . S
C1563 C1564 1.369 . S
C1563 C1565 1.419 . S
C1563 H1567 0.930 . S
C1564 C1563 1.369 . S
C1564 C1573 1.429 . S
C1565 C1563 1.419 . S
C1565 C1566 1.363 . S
C1565 H1568 0.929 . S
C1566 C1565 1.363 . S
C1566 C1572 1.428 . S
H1567 C1563 0.930 . S
H1568 C1565 0.929 . S
S1569 N1570 1.613 . S
S1569 N1571 1.610 . S
N1570 S1569 1.613 . S
N1570 C1573 1.350 . S
N1571 S1569 1.610 . S
N1571 C1572 1.351 . S
C1572 C1566 1.428 . S
C1572 N1571 1.351 . S
C1572 C1573 1.434 . S
C1573 C1564 1.429 . S
C1573 N1570 1.350 . S
C1573 C1572 1.434 . S
C1574 C1575 1.369 . S
C1574 C1576 1.419 . S
C1574 H1578 0.930 . S
C1575 C1574 1.369 . S
C1575 C1584 1.429 . S
C1576 C1574 1.419 . S
C1576 C1577 1.363 . S
C1576 H1579 0.929 . S
C1577 C1576 1.363 . S
C1577 C1583 1.428 . S
H1578 C1574 0.930 . S
H1579 C1576 0.929 . S
S1580 N1581 1.613 . S
S1580 N1582 1.610 . S
N1581 S1580 1.613 . S
N1581 C1584 1.350 . S
N1582 S1580 1.610 . S
N1582 C1583 1.351 . S
C1583 C1577 1.428 . S
C1583 N1582 1.351 . S
C1583 C1584 1.434 . S
C1584 C1575 1.429 . S
C1584 N1581 1.350 . S
C1584 C1583 1.434 . S
C1585 C1586 1.369 . S
C1585 C1587 1.419 . S
C1585 H1589 0.930 . S
C1586 C1585 1.369 . S
C1586 C1595 1.429 . S
C1587 C1585 1.419 . S
C1587 C1588 1.363 . S
C1587 H1590 0.929 . S
C1588 C1587 1.363 . S
C1588 C1594 1.428 . S
H1589 C1585 0.930 . S
H1590 C1587 0.929 . S
S1591 N1592 1.613 . S
S1591 N1593 1.610 . S
N1592 S1591 1.613 . S
N1592 C1595 1.350 . S
N1593 S1591 1.610 . S
N1593 C1594 1.351 . S
C1594 C1588 1.428 . S
C1594 N1593 1.351 . S
C1594 C1595 1.434 . S
C1595 C1586 1.429 . S
C1595 N1592 1.350 . S
C1595 C1594 1.434 . S
C1596 C1597 1.369 . S
C1596 C1598 1.419 . S
C1596 H1600 0.930 . S
C1597 C1596 1.369 . S
C1597 C1606 1.429 . S
C1598 C1596 1.419 . S
C1598 C1599 1.363 . S
C1598 H1601 0.929 . S
C1599 C1598 1.363 . S
C1599 C1605 1.428 . S
H1600 C1596 0.930 . S
H1601 C1598 0.929 . S
S1602 N1603 1.613 . S
S1602 N1604 1.610 . S
N1603 S1602 1.613 . S
N1603 C1606 1.350 . S
N1604 S1602 1.610 . S
N1604 C1605 1.351 . S
C1605 C1599 1.428 . S
C1605 N1604 1.351 . S
C1605 C1606 1.434 . S
C1606 C1597 1.429 . S
C1606 N1603 1.350 . S
C1606 C1605 1.434 . S
C1607 C1608 1.369 . S
C1607 C1609 1.419 . S
C1607 H1611 0.930 . S
C1608 C1607 1.369 . S
C1608 C1617 1.429 . S
C1609 C1607 1.419 . S
C1609 C1610 1.363 . S
C1609 H1612 0.929 . S
C1610 C1609 1.363 . S
C1610 C1616 1.428 . S
H1611 C1607 0.930 . S
H1612 C1609 0.929 . S
S1613 N1614 1.613 . S
S1613 N1615 1.610 . S
N1614 S1613 1.613 . S
N1614 C1617 1.350 . S
N1615 S1613 1.610 . S
N1615 C1616 1.351 . S
C1616 C1610 1.428 . S
C1616 N1615 1.351 . S
C1616 C1617 1.434 . S
C1617 C1608 1.429 . S
C1617 N1614 1.350 . S
C1617 C1616 1.434 . S
C1618 C1619 1.369 . S
C1618 C1620 1.419 . S
C1618 H1622 0.930 . S
C1619 C1618 1.369 . S
C1619 C1628 1.429 . S
C1620 C1618 1.419 . S
C1620 C1621 1.363 . S
C1620 H1623 0.929 . S
C1621 C1620 1.363 . S
C1621 C1627 1.428 . S
H1622 C1618 0.930 . S
H1623 C1620 0.929 . S
S1624 N1625 1.613 . S
S1624 N1626 1.610 . S
N1625 S1624 1.613 . S
N1625 C1628 1.350 . S
N1626 S1624 1.610 . S
N1626 C1627 1.351 . S
C1627 C1621 1.428 . S
C1627 N1626 1.351 . S
C1627 C1628 1.434 . S
C1628 C1619 1.429 . S
C1628 N1625 1.350 . S
C1628 C1627 1.434 . S
C1629 C1630 1.369 . S
C1629 C1631 1.419 . S
C1629 H1633 0.930 . S
C1630 C1629 1.369 . S
C1630 C1639 1.429 . S
C1631 C1629 1.419 . S
C1631 C1632 1.363 . S
C1631 H1634 0.929 . S
C1632 C1631 1.363 . S
C1632 C1638 1.428 . S
H1633 C1629 0.930 . S
H1634 C1631 0.929 . S
S1635 N1636 1.613 . S
S1635 N1637 1.610 . S
N1636 S1635 1.613 . S
N1636 C1639 1.350 . S
N1637 S1635 1.610 . S
N1637 C1638 1.351 . S
C1638 C1632 1.428 . S
C1638 N1637 1.351 . S
C1638 C1639 1.434 . S
C1639 C1630 1.429 . S
C1639 N1636 1.350 . S
C1639 C1638 1.434 . S
C1640 C1641 1.369 . S
C1640 C1642 1.419 . S
C1640 H1644 0.930 . S
C1641 C1640 1.369 . S
C1641 C1650 1.429 . S
C1642 C1640 1.419 . S
C1642 C1643 1.363 . S
C1642 H1645 0.929 . S
C1643 C1642 1.363 . S
C1643 C1649 1.428 . S
H1644 C1640 0.930 . S
H1645 C1642 0.929 . S
S1646 N1647 1.613 . S
S1646 N1648 1.610 . S
N1647 S1646 1.613 . S
N1647 C1650 1.350 . S
N1648 S1646 1.610 . S
N1648 C1649 1.351 . S
C1649 C1643 1.428 . S
C1649 N1648 1.351 . S
C1649 C1650 1.434 . S
C1650 C1641 1.429 . S
C1650 N1647 1.350 . S
C1650 C1649 1.434 . S
C1651 C1652 1.369 . S
C1651 C1653 1.419 . S
C1651 H1655 0.930 . S
C1652 C1651 1.369 . S
C1652 C1661 1.429 . S
C1653 C1651 1.419 . S
C1653 C1654 1.363 . S
C1653 H1656 0.929 . S
C1654 C1653 1.363 . S
C1654 C1660 1.428 . S
H1655 C1651 0.930 . S
H1656 C1653 0.929 . S
S1657 N1658 1.613 . S
S1657 N1659 1.610 . S
N1658 S1657 1.613 . S
N1658 C1661 1.350 . S
N1659 S1657 1.610 . S
N1659 C1660 1.351 . S
C1660 C1654 1.428 . S
C1660 N1659 1.351 . S
C1660 C1661 1.434 . S
C1661 C1652 1.429 . S
C1661 N1658 1.350 . S
C1661 C1660 1.434 . S
C1662 C1663 1.369 . S
C1662 C1664 1.419 . S
C1662 H1666 0.930 . S
C1663 C1662 1.369 . S
C1663 C1672 1.429 . S
C1664 C1662 1.419 . S
C1664 C1665 1.363 . S
C1664 H1667 0.929 . S
C1665 C1664 1.363 . S
C1665 C1671 1.428 . S
H1666 C1662 0.930 . S
H1667 C1664 0.929 . S
S1668 N1669 1.613 . S
S1668 N1670 1.610 . S
N1669 S1668 1.613 . S
N1669 C1672 1.350 . S
N1670 S1668 1.610 . S
N1670 C1671 1.351 . S
C1671 C1665 1.428 . S
C1671 N1670 1.351 . S
C1671 C1672 1.434 . S
C1672 C1663 1.429 . S
C1672 N1669 1.350 . S
C1672 C1671 1.434 . S
C1673 C1674 1.369 . S
C1673 C1675 1.419 . S
C1673 H1677 0.930 . S
C1674 C1673 1.369 . S
C1674 C1683 1.429 . S
C1675 C1673 1.419 . S
C1675 C1676 1.363 . S
C1675 H1678 0.929 . S
C1676 C1675 1.363 . S
C1676 C1682 1.428 . S
H1677 C1673 0.930 . S
H1678 C1675 0.929 . S
S1679 N1680 1.613 . S
S1679 N1681 1.610 . S
N1680 S1679 1.613 . S
N1680 C1683 1.350 . S
N1681 S1679 1.610 . S
N1681 C1682 1.351 . S
C1682 C1676 1.428 . S
C1682 N1681 1.351 . S
C1682 C1683 1.434 . S
C1683 C1674 1.429 . S
C1683 N1680 1.350 . S
C1683 C1682 1.434 . S
C1684 C1685 1.369 . S
C1684 C1686 1.419 . S
C1684 H1688 0.930 . S
C1685 C1684 1.369 . S
C1685 C1694 1.429 . S
C1686 C1684 1.419 . S
C1686 C1687 1.363 . S
C1686 H1689 0.929 . S
C1687 C1686 1.363 . S
C1687 C1693 1.428 . S
H1688 C1684 0.930 . S
H1689 C1686 0.929 . S
S1690 N1691 1.613 . S
S1690 N1692 1.610 . S
N1691 S1690 1.613 . S
N1691 C1694 1.350 . S
N1692 S1690 1.610 . S
N1692 C1693 1.351 . S
C1693 C1687 1.428 . S
C1693 N1692 1.351 . S
C1693 C1694 1.434 . S
C1694 C1685 1.429 . S
C1694 N1691 1.350 . S
C1694 C1693 1.434 . S
C1695 C1696 1.369 . S
C1695 C1697 1.419 . S
C1695 H1699 0.930 . S
C1696 C1695 1.369 . S
C1696 C1705 1.429 . S
C1697 C1695 1.419 . S
C1697 C1698 1.363 . S
C1697 H1700 0.929 . S
C1698 C1697 1.363 . S
C1698 C1704 1.428 . S
H1699 C1695 0.930 . S
H1700 C1697 0.929 . S
S1701 N1702 1.613 . S
S1701 N1703 1.610 . S
N1702 S1701 1.613 . S
N1702 C1705 1.350 . S
N1703 S1701 1.610 . S
N1703 C1704 1.351 . S
C1704 C1698 1.428 . S
C1704 N1703 1.351 . S
C1704 C1705 1.434 . S
C1705 C1696 1.429 . S
C1705 N1702 1.350 . S
C1705 C1704 1.434 . S
C1706 C1707 1.369 . S
C1706 C1708 1.419 . S
C1706 H1710 0.930 . S
C1707 C1706 1.369 . S
C1707 C1716 1.429 . S
C1708 C1706 1.419 . S
C1708 C1709 1.363 . S
C1708 H1711 0.929 . S
C1709 C1708 1.363 . S
C1709 C1715 1.428 . S
H1710 C1706 0.930 . S
H1711 C1708 0.929 . S
S1712 N1713 1.613 . S
S1712 N1714 1.610 . S
N1713 S1712 1.613 . S
N1713 C1716 1.350 . S
N1714 S1712 1.610 . S
N1714 C1715 1.351 . S
C1715 C1709 1.428 . S
C1715 N1714 1.351 . S
C1715 C1716 1.434 . S
C1716 C1707 1.429 . S
C1716 N1713 1.350 . S
C1716 C1715 1.434 . S
C1717 C1718 1.369 . S
C1717 C1719 1.419 . S
C1717 H1721 0.930 . S
C1718 C1717 1.369 . S
C1718 C1727 1.429 . S
C1719 C1717 1.419 . S
C1719 C1720 1.363 . S
C1719 H1722 0.929 . S
C1720 C1719 1.363 . S
C1720 C1726 1.428 . S
H1721 C1717 0.930 . S
H1722 C1719 0.929 . S
S1723 N1724 1.613 . S
S1723 N1725 1.610 . S
N1724 S1723 1.613 . S
N1724 C1727 1.350 . S
N1725 S1723 1.610 . S
N1725 C1726 1.351 . S
C1726 C1720 1.428 . S
C1726 N1725 1.351 . S
C1726 C1727 1.434 . S
C1727 C1718 1.429 . S
C1727 N1724 1.350 . S
C1727 C1726 1.434 . S
C673 C224 1.579 . S
C675 C0 1.528 . S
C684 C671 1.599 . S
C686 C26 1.548 . S
C695 C40 1.536 . S
C697 C642 1.587 . S
C706 C55 1.527 . S
C708 C656 1.568 . S
C717 C251 1.601 . S
C719 C68 1.552 . S
C728 C71 1.560 . S
C730 C253 1.606 . S
C739 C97 1.557 . S
C741 C266 1.610 . S
C750 C617 1.574 . S
C752 C99 1.538 . S
C761 C112 1.535 . S
C763 C13 1.572 . S
C772 C15 1.592 . S
C774 C138 1.546 . S
C783 C29 1.566 . S
C785 C141 1.519 . S
C794 C42 1.605 . S
C796 C167 1.565 . S
C805 C57 1.581 . S
C807 C169 1.540 . S
C816 C194 1.521 . S
C818 C82 1.556 . S
C827 C84 1.576 . S
C829 C197 1.528 . S
C838 C223 1.531 . S
C840 C110 1.575 . S
C849 C237 1.521 . S
C851 C125 1.578 . S
C860 C180 1.566 . S
C862 C238 1.523 . S
C871 C264 1.517 . S
C873 C183 1.571 . S
C882 C279 1.539 . S
C884 C208 1.589 . S
C893 C547 1.586 . S
C895 C292 1.536 . S
C904 C307 1.529 . S
C906 C476 1.575 . S
C915 C502 1.597 . S
C917 C309 1.554 . S
C926 C463 1.607 . S
C928 C323 1.563 . S
C937 C572 1.601 . S
C939 C349 1.545 . S
C948 C363 1.525 . S
C950 C334 1.555 . S
C959 C376 1.534 . S
C961 C294 1.594 . S
C970 C391 1.545 . S
C972 C320 1.591 . S
C981 C392 1.527 . S
C983 C575 1.578 . S
C992 C589 1.553 . S
C994 C407 1.511 . S
C1003 C433 1.513 . S
C1005 C602 1.570 . S
C1014 C281 1.589 . S
C1016 C434 1.536 . S
C1025 C336 1.602 . S
C1027 C448 1.546 . S
C1036 C474 1.525 . S
C1038 C350 1.566 . S
C1047 C489 1.555 . S
C1049 C365 1.610 . S
C1058 C491 1.512 . S
C1060 C378 1.551 . S
C1069 C505 1.531 . S
C1071 C405 1.592 . S
C1080 C519 1.551 . S
C1082 C418 1.598 . S
C1091 C420 1.603 . S
C1093 C532 1.554 . S
C1102 C447 1.590 . S
C1104 C558 1.535 . S
C1113 C461 1.600 . S
C1115 C561 1.542 . S
C1124 C516 1.606 . S
C1126 C586 1.567 . S
C1135 C530 1.592 . S
C1137 C600 1.544 . S
C1146 C615 1.539 . S
C1148 C545 1.582 . S
C1157 C628 1.537 . S
C1159 C210 1.571 . S
C1168 C631 1.552 . S
C1170 C152 1.600 . S
C1179 C154 1.560 . S
C1181 C645 1.519 . S
C1190 C658 1.502 . S
C1192 C127 1.558 . S
C1201 C12 1.592 . S
C1203 C390 1.547 . S
C1212 C348 1.703 . S
C1214 C14 1.742 . S
C1223 C28 1.562 . S
C1225 C362 1.515 . S
C1234 C43 1.734 . S
C1236 C377 1.689 . S
C1245 C56 1.627 . S
C1247 C70 1.587 . S
C1256 C96 1.773 . S
C1258 C83 1.817 . S
C1267 C85 1.595 . S
C1269 C98 1.557 . S
C1278 C111 1.803 . S
C1280 C69 1.772 . S
C1289 C124 1.591 . S
C1291 C601 1.551 . S
C1300 C126 1.775 . S
C1302 C614 1.744 . S
C1311 C153 1.725 . S
C1313 C293 1.681 . S
C1322 C155 1.813 . S
C1324 C587 1.775 . S
C1333 C181 1.560 . S
C1335 C644 1.516 . S
C1344 C236 1.730 . S
C1346 C182 1.770 . S
C1355 C209 1.694 . S
C1357 C659 1.650 . S
C1366 C630 1.773 . S
C1368 C211 1.807 . S
C1377 C139 1.553 . S
C1379 C225 1.590 . S
C1388 C250 1.725 . S
C1390 C559 1.683 . S
C1399 C252 1.732 . S
C1401 C504 1.692 . S
C1410 C518 1.710 . S
C1412 C267 1.755 . S
C1421 C280 1.707 . S
C1423 C196 1.657 . S
C1432 C490 1.651 . S
C1434 C295 1.694 . S
C1443 C449 1.697 . S
C1445 C321 1.741 . S
C1454 C488 1.778 . S
C1456 C335 1.815 . S
C1465 C337 1.724 . S
C1467 C54 1.679 . S
C1476 C351 1.768 . S
C1478 C1 1.729 . S
C1487 C27 1.709 . S
C1489 C364 1.756 . S
C1498 C379 1.778 . S
C1500 C41 1.738 . S
C1509 C404 1.693 . S
C1511 C406 1.647 . S
C1520 C432 1.652 . S
C1522 C419 1.693 . S
C1531 C435 1.677 . S
C1533 C421 1.728 . S
C1542 C446 1.703 . S
C1544 C393 1.659 . S
C1553 C265 1.681 . S
C1555 C460 1.726 . S
C1564 C462 1.733 . S
C1566 C278 1.691 . S
C1575 C477 1.596 . S
C1577 C629 1.557 . S
C1586 C503 1.693 . S
C1588 C239 1.650 . S
C1597 C517 1.757 . S
C1599 C308 1.707 . S
C1608 C531 1.743 . S
C1610 C560 1.700 . S
C1619 C322 1.592 . S
C1621 C544 1.624 . S
C1630 C546 1.707 . S
C1632 C306 1.656 . S
C1641 C475 1.683 . S
C1643 C573 1.724 . S
C1652 C222 1.553 . S
C1654 C574 1.596 . S
C1663 C168 1.737 . S
C1665 C588 1.779 . S
C1674 C603 1.560 . S
C1676 C195 1.522 . S
C1685 C616 1.803 . S
C1687 C533 1.772 . S
C1696 C166 1.592 . S
C1698 C643 1.624 . S
C1707 C657 1.770 . S
C1709 C113 1.729 . S
C1718 C140 1.647 . S
C1720 C670 1.697 . S
