# Generated by pormake.
# Topology wgi, (5)-cn, num edge types: 1
# Building blocks:
#     Node 0, Type 0, BuildingBlock: XOMCOT_clean_sbu_1, # of connection points: 5
#     Node 1, Type 0, BuildingBlock: XOMCOT_clean_sbu_1, # of connection points: 5
#     Node 2, Type 0, BuildingBlock: XOMCOT_clean_sbu_1, # of connection points: 5
#     Node 3, Type 0, BuildingBlock: XOMCOT_clean_sbu_1, # of connection points: 5
#     Node 4, Type 0, BuildingBlock: XOMCOT_clean_sbu_1, # of connection points: 5
#     Node 5, Type 0, BuildingBlock: XOMCOT_clean_sbu_1, # of connection points: 5
#     Node 6, Type 0, BuildingBlock: XOMCOT_clean_sbu_1, # of connection points: 5
#     Node 7, Type 0, BuildingBlock: XOMCOT_clean_sbu_1, # of connection points: 5
#     Node 8, Type 0, BuildingBlock: XOMCOT_clean_sbu_1, # of connection points: 5
#     Node 9, Type 0, BuildingBlock: XOMCOT_clean_sbu_1, # of connection points: 5
#     Node 10, Type 0, BuildingBlock: XOMCOT_clean_sbu_1, # of connection points: 5
#     Node 11, Type 0, BuildingBlock: XOMCOT_clean_sbu_1, # of connection points: 5
#     Node 12, Type 0, BuildingBlock: XOMCOT_clean_sbu_1, # of connection points: 5
#     Node 13, Type 0, BuildingBlock: XOMCOT_clean_sbu_1, # of connection points: 5
#     Node 14, Type 0, BuildingBlock: XOMCOT_clean_sbu_1, # of connection points: 5
#     Node 15, Type 0, BuildingBlock: XOMCOT_clean_sbu_1, # of connection points: 5
#     Node 16, Type 0, BuildingBlock: XOMCOT_clean_sbu_1, # of connection points: 5
#     Node 17, Type 0, BuildingBlock: XOMCOT_clean_sbu_1, # of connection points: 5
#     Node 18, Type 0, BuildingBlock: XOMCOT_clean_sbu_1, # of connection points: 5
#     Node 19, Type 0, BuildingBlock: XOMCOT_clean_sbu_1, # of connection points: 5
#     Node 20, Type 0, BuildingBlock: XOMCOT_clean_sbu_1, # of connection points: 5
#     Node 21, Type 0, BuildingBlock: XOMCOT_clean_sbu_1, # of connection points: 5
#     Node 22, Type 0, BuildingBlock: XOMCOT_clean_sbu_1, # of connection points: 5
#     Node 23, Type 0, BuildingBlock: XOMCOT_clean_sbu_1, # of connection points: 5
#     Node 24, Type 0, BuildingBlock: XOMCOT_clean_sbu_1, # of connection points: 5
#     Node 25, Type 0, BuildingBlock: XOMCOT_clean_sbu_1, # of connection points: 5
#     Node 26, Type 0, BuildingBlock: XOMCOT_clean_sbu_1, # of connection points: 5
#     Node 27, Type 0, BuildingBlock: XOMCOT_clean_sbu_1, # of connection points: 5
#     Node 28, Type 0, BuildingBlock: XOMCOT_clean_sbu_1, # of connection points: 5
#     Node 29, Type 0, BuildingBlock: XOMCOT_clean_sbu_1, # of connection points: 5
#     Node 30, Type 0, BuildingBlock: XOMCOT_clean_sbu_1, # of connection points: 5
#     Node 31, Type 0, BuildingBlock: XOMCOT_clean_sbu_1, # of connection points: 5
#     Edge 32, Type (0, 0), BuildingBlock: XUDNAN_clean_linker_2, # of connection points: 2
#     Edge 33, Type (0, 0), BuildingBlock: XUDNAN_clean_linker_2, # of connection points: 2
#     Edge 34, Type (0, 0), BuildingBlock: XUDNAN_clean_linker_2, # of connection points: 2
#     Edge 35, Type (0, 0), BuildingBlock: XUDNAN_clean_linker_2, # of connection points: 2
#     Edge 36, Type (0, 0), BuildingBlock: XUDNAN_clean_linker_2, # of connection points: 2
#     Edge 37, Type (0, 0), BuildingBlock: XUDNAN_clean_linker_2, # of connection points: 2
#     Edge 38, Type (0, 0), BuildingBlock: XUDNAN_clean_linker_2, # of connection points: 2
#     Edge 39, Type (0, 0), BuildingBlock: XUDNAN_clean_linker_2, # of connection points: 2
#     Edge 40, Type (0, 0), BuildingBlock: XUDNAN_clean_linker_2, # of connection points: 2
#     Edge 41, Type (0, 0), BuildingBlock: XUDNAN_clean_linker_2, # of connection points: 2
#     Edge 42, Type (0, 0), BuildingBlock: XUDNAN_clean_linker_2, # of connection points: 2
#     Edge 43, Type (0, 0), BuildingBlock: XUDNAN_clean_linker_2, # of connection points: 2
#     Edge 44, Type (0, 0), BuildingBlock: XUDNAN_clean_linker_2, # of connection points: 2
#     Edge 45, Type (0, 0), BuildingBlock: XUDNAN_clean_linker_2, # of connection points: 2
#     Edge 46, Type (0, 0), BuildingBlock: XUDNAN_clean_linker_2, # of connection points: 2
#     Edge 47, Type (0, 0), BuildingBlock: XUDNAN_clean_linker_2, # of connection points: 2
#     Edge 48, Type (0, 0), BuildingBlock: XUDNAN_clean_linker_2, # of connection points: 2
#     Edge 49, Type (0, 0), BuildingBlock: XUDNAN_clean_linker_2, # of connection points: 2
#     Edge 50, Type (0, 0), BuildingBlock: XUDNAN_clean_linker_2, # of connection points: 2
#     Edge 51, Type (0, 0), BuildingBlock: XUDNAN_clean_linker_2, # of connection points: 2
#     Edge 52, Type (0, 0), BuildingBlock: XUDNAN_clean_linker_2, # of connection points: 2
#     Edge 53, Type (0, 0), BuildingBlock: XUDNAN_clean_linker_2, # of connection points: 2
#     Edge 54, Type (0, 0), BuildingBlock: XUDNAN_clean_linker_2, # of connection points: 2
#     Edge 55, Type (0, 0), BuildingBlock: XUDNAN_clean_linker_2, # of connection points: 2
#     Edge 56, Type (0, 0), BuildingBlock: XUDNAN_clean_linker_2, # of connection points: 2
#     Edge 57, Type (0, 0), BuildingBlock: XUDNAN_clean_linker_2, # of connection points: 2
#     Edge 58, Type (0, 0), BuildingBlock: XUDNAN_clean_linker_2, # of connection points: 2
#     Edge 59, Type (0, 0), BuildingBlock: XUDNAN_clean_linker_2, # of connection points: 2
#     Edge 60, Type (0, 0), BuildingBlock: XUDNAN_clean_linker_2, # of connection points: 2
#     Edge 61, Type (0, 0), BuildingBlock: XUDNAN_clean_linker_2, # of connection points: 2
#     Edge 62, Type (0, 0), BuildingBlock: XUDNAN_clean_linker_2, # of connection points: 2
#     Edge 63, Type (0, 0), BuildingBlock: XUDNAN_clean_linker_2, # of connection points: 2
#     Edge 64, Type (0, 0), BuildingBlock: XUDNAN_clean_linker_2, # of connection points: 2
#     Edge 65, Type (0, 0), BuildingBlock: XUDNAN_clean_linker_2, # of connection points: 2
#     Edge 66, Type (0, 0), BuildingBlock: XUDNAN_clean_linker_2, # of connection points: 2
#     Edge 67, Type (0, 0), BuildingBlock: XUDNAN_clean_linker_2, # of connection points: 2
#     Edge 68, Type (0, 0), BuildingBlock: XUDNAN_clean_linker_2, # of connection points: 2
#     Edge 69, Type (0, 0), BuildingBlock: XUDNAN_clean_linker_2, # of connection points: 2
#     Edge 70, Type (0, 0), BuildingBlock: XUDNAN_clean_linker_2, # of connection points: 2
#     Edge 71, Type (0, 0), BuildingBlock: XUDNAN_clean_linker_2, # of connection points: 2
#     Edge 72, Type (0, 0), BuildingBlock: XUDNAN_clean_linker_2, # of connection points: 2
#     Edge 73, Type (0, 0), BuildingBlock: XUDNAN_clean_linker_2, # of connection points: 2
#     Edge 74, Type (0, 0), BuildingBlock: XUDNAN_clean_linker_2, # of connection points: 2
#     Edge 75, Type (0, 0), BuildingBlock: XUDNAN_clean_linker_2, # of connection points: 2
#     Edge 76, Type (0, 0), BuildingBlock: XUDNAN_clean_linker_2, # of connection points: 2
#     Edge 77, Type (0, 0), BuildingBlock: XUDNAN_clean_linker_2, # of connection points: 2
#     Edge 78, Type (0, 0), BuildingBlock: XUDNAN_clean_linker_2, # of connection points: 2
#     Edge 79, Type (0, 0), BuildingBlock: XUDNAN_clean_linker_2, # of connection points: 2
#     Edge 80, Type (0, 0), BuildingBlock: XUDNAN_clean_linker_2, # of connection points: 2
#     Edge 81, Type (0, 0), BuildingBlock: XUDNAN_clean_linker_2, # of connection points: 2
#     Edge 82, Type (0, 0), BuildingBlock: XUDNAN_clean_linker_2, # of connection points: 2
#     Edge 83, Type (0, 0), BuildingBlock: XUDNAN_clean_linker_2, # of connection points: 2
#     Edge 84, Type (0, 0), BuildingBlock: XUDNAN_clean_linker_2, # of connection points: 2
#     Edge 85, Type (0, 0), BuildingBlock: XUDNAN_clean_linker_2, # of connection points: 2
#     Edge 86, Type (0, 0), BuildingBlock: XUDNAN_clean_linker_2, # of connection points: 2
#     Edge 87, Type (0, 0), BuildingBlock: XUDNAN_clean_linker_2, # of connection points: 2
#     Edge 88, Type (0, 0), BuildingBlock: XUDNAN_clean_linker_2, # of connection points: 2
#     Edge 89, Type (0, 0), BuildingBlock: XUDNAN_clean_linker_2, # of connection points: 2
#     Edge 90, Type (0, 0), BuildingBlock: XUDNAN_clean_linker_2, # of connection points: 2
#     Edge 91, Type (0, 0), BuildingBlock: XUDNAN_clean_linker_2, # of connection points: 2
#     Edge 92, Type (0, 0), BuildingBlock: XUDNAN_clean_linker_2, # of connection points: 2
#     Edge 93, Type (0, 0), BuildingBlock: XUDNAN_clean_linker_2, # of connection points: 2
#     Edge 94, Type (0, 0), BuildingBlock: XUDNAN_clean_linker_2, # of connection points: 2
#     Edge 95, Type (0, 0), BuildingBlock: XUDNAN_clean_linker_2, # of connection points: 2
#     Edge 96, Type (0, 0), BuildingBlock: XUDNAN_clean_linker_2, # of connection points: 2
#     Edge 97, Type (0, 0), BuildingBlock: XUDNAN_clean_linker_2, # of connection points: 2
#     Edge 98, Type (0, 0), BuildingBlock: XUDNAN_clean_linker_2, # of connection points: 2
#     Edge 99, Type (0, 0), BuildingBlock: XUDNAN_clean_linker_2, # of connection points: 2
#     Edge 100, Type (0, 0), BuildingBlock: XUDNAN_clean_linker_2, # of connection points: 2
#     Edge 101, Type (0, 0), BuildingBlock: XUDNAN_clean_linker_2, # of connection points: 2
#     Edge 102, Type (0, 0), BuildingBlock: XUDNAN_clean_linker_2, # of connection points: 2
#     Edge 103, Type (0, 0), BuildingBlock: XUDNAN_clean_linker_2, # of connection points: 2
#     Edge 104, Type (0, 0), BuildingBlock: XUDNAN_clean_linker_2, # of connection points: 2
#     Edge 105, Type (0, 0), BuildingBlock: XUDNAN_clean_linker_2, # of connection points: 2
#     Edge 106, Type (0, 0), BuildingBlock: XUDNAN_clean_linker_2, # of connection points: 2
#     Edge 107, Type (0, 0), BuildingBlock: XUDNAN_clean_linker_2, # of connection points: 2
#     Edge 108, Type (0, 0), BuildingBlock: XUDNAN_clean_linker_2, # of connection points: 2
#     Edge 109, Type (0, 0), BuildingBlock: XUDNAN_clean_linker_2, # of connection points: 2
#     Edge 110, Type (0, 0), BuildingBlock: XUDNAN_clean_linker_2, # of connection points: 2
#     Edge 111, Type (0, 0), BuildingBlock: XUDNAN_clean_linker_2, # of connection points: 2
# Relax obj value: 0.188
# Max RMSD: 0.146
# Mean RMSD: 0.146
data_MOF--net-wgi--node1-XOMCOT_clean_sbu_1--edge1-XUDNAN_clean_linker_2
_symmetry_space_group_name_H-M    P1
_symmetry_Int_Tables_number       1
_symmetry_cell_setting            triclinic
loop_
_symmetry_equiv_pos_as_xyz
'x, y, z'
_cell_length_a     75.400378
_cell_length_b     75.409731
_cell_length_c     26.923424
_cell_angle_alpha  90.079693
_cell_angle_beta   90.11893
_cell_angle_gamma 89.905826
loop_
_atom_site_label
_atom_site_type_symbol
_atom_site_fract_x
_atom_site_fract_y
_atom_site_fract_z
_atom_type_partial_charge
C0 C 0.1247 0.19176 0.42555 0.0
C1 C 0.10664 0.19264 0.42961 0.0
N2 N 0.09964 0.17831 0.40708 0.0
N3 N 0.12921 0.1771 0.39979 0.0
C4 C 0.11365 0.16897 0.38951 0.0
H5 H 0.13408 0.20098 0.44163 0.0
Co6 Co 0.15283 0.17025 0.39274 0.0
C7 C 0.15662 0.16287 0.28577 0.0
O8 O 0.1704 0.17347 0.2888 0.0
N9 N 0.1768 0.163 0.3907 0.0
C10 C 0.20182 0.1472 0.38545 0.0
C11 C 0.18558 0.15061 0.36374 0.0
C12 C 0.18766 0.16607 0.42973 0.0
N13 N 0.20293 0.15687 0.42726 0.0
O14 O 0.14767 0.14871 0.42832 0.0
H15 H 0.18012 0.14325 0.3329 0.0
H16 H 0.18406 0.17432 0.46104 0.0
O17 O 0.14786 0.15936 0.32558 0.0
C18 C 0.14861 0.15278 0.47441 0.0
O19 O 0.15188 0.1694 0.48604 0.0
N20 N 0.15779 0.19281 0.36307 0.0
C21 C 0.1567 0.22967 0.34969 0.0
C22 C 0.14489 0.2185 0.32405 0.0
C23 C 0.14587 0.20013 0.33052 0.0
C24 C 0.17049 0.20333 0.38401 0.0
C25 C 0.1705 0.22163 0.37658 0.0
H26 H 0.13564 0.19202 0.31391 0.0
H27 H 0.17987 0.19808 0.41011 0.0
H28 H 0.11268 0.15629 0.37083 0.0
H29 H 0.09927 0.20266 0.44977 0.0
H30 H 0.2114 0.13735 0.37368 0.0
H31 H 0.13393 0.22377 0.30266 0.0
H32 H 0.18054 0.22944 0.39518 0.0
C33 C 0.07101 0.86912 0.68887 0.0
C34 C 0.07415 0.85186 0.70228 0.0
N35 N 0.08975 0.84686 0.68259 0.0
N36 N 0.08454 0.875 0.66063 0.0
C37 C 0.0958 0.86106 0.65726 0.0
H38 H 0.0602 0.87731 0.70198 0.0
Co39 Co 0.08833 0.89906 0.64824 0.0
C40 C 0.09537 0.89865 0.53821 0.0
O41 O 0.08095 0.90811 0.53273 0.0
N42 N 0.09236 0.92411 0.63865 0.0
C43 C 0.0882 0.95283 0.62119 0.0
C44 C 0.08421 0.93575 0.60765 0.0
C45 C 0.10146 0.93484 0.67029 0.0
N46 N 0.09901 0.95222 0.66071 0.0
O47 O 0.11047 0.89691 0.68426 0.0
H48 H 0.07407 0.93259 0.58094 0.0
H49 H 0.1085 0.93028 0.70277 0.0
O50 O 0.1 0.89345 0.58196 0.0
C51 C 0.10594 0.89758 0.73012 0.0
O52 O 0.08933 0.9015 0.74031 0.0
N53 N 0.06523 0.90056 0.62091 0.0
C54 C 0.02831 0.89794 0.61092 0.0
C55 C 0.03967 0.88625 0.5854 0.0
C56 C 0.05808 0.8878 0.59081 0.0
C57 C 0.0544 0.91216 0.64518 0.0
C58 C 0.03609 0.91162 0.63891 0.0
H59 H 0.06654 0.87784 0.57416 0.0
H60 H 0.05987 0.92137 0.67192 0.0
H61 H 0.10887 0.86185 0.64086 0.0
H62 H 0.06615 0.84392 0.72707 0.0
H63 H 0.08236 0.96477 0.60594 0.0
H64 H 0.03452 0.87518 0.56426 0.0
H65 H 0.02814 0.92132 0.65844 0.0
C66 C 0.38178 0.82107 0.95552 0.0
C67 C 0.39956 0.82016 0.96593 0.0
N68 N 0.40772 0.83385 0.94335 0.0
N69 N 0.37864 0.83518 0.92617 0.0
C70 C 0.39466 0.84285 0.91965 0.0
H71 H 0.37166 0.81214 0.96898 0.0
Co72 Co 0.35585 0.84187 0.90698 0.0
C73 C 0.36149 0.85152 0.8006 0.0
O74 O 0.34907 0.84003 0.78887 0.0
N75 N 0.33246 0.849 0.89156 0.0
C76 C 0.30884 0.8653 0.87134 0.0
C77 C 0.32618 0.8614 0.8598 0.0
C78 C 0.31873 0.84608 0.9228 0.0
N79 N 0.30419 0.85572 0.91138 0.0
O80 O 0.35811 0.86274 0.94802 0.0
H81 H 0.33392 0.86855 0.83283 0.0
H82 H 0.31987 0.83803 0.95586 0.0
O83 O 0.36536 0.85413 0.84666 0.0
C84 C 0.35462 0.85797 0.99254 0.0
O85 O 0.35002 0.84139 1.00007 0.0
N86 N 0.35356 0.81997 0.87208 0.0
C87 C 0.35672 0.78327 0.85843 0.0
C88 C 0.36961 0.79487 0.83965 0.0
C89 C 0.36769 0.81316 0.84638 0.0
C90 C 0.34008 0.809 0.88587 0.0
C91 C 0.34119 0.79073 0.87828 0.0
H92 H 0.37866 0.82161 0.83616 0.0
H93 H 0.32911 0.81392 0.90725 0.0
H94 H 0.39665 0.8548 0.89821 0.0
H95 H 0.40586 0.81041 0.98956 0.0
H96 H 0.30067 0.87517 0.85318 0.0
H97 H 0.3819 0.78995 0.82412 0.0
H98 H 0.33052 0.78245 0.89169 0.0
C99 C 0.43092 0.13586 0.21834 0.0
C100 C 0.42991 0.15364 0.22834 0.0
N101 N 0.4178 0.16095 0.19768 0.0
N102 N 0.41958 0.13184 0.18132 0.0
C103 C 0.41156 0.14738 0.1697 0.0
H104 H 0.43946 0.12637 0.23673 0.0
Co105 Co 0.41727 0.10862 0.15856 0.0
C106 C 0.4108 0.11371 0.05065 0.0
O107 O 0.4246 0.10357 0.0426 0.0
N108 N 0.41484 0.08409 0.13755 0.0
C109 C 0.42168 0.05653 0.11301 0.0
C110 C 0.42536 0.07421 0.10733 0.0
C111 C 0.40447 0.07168 0.15974 0.0
N112 N 0.40865 0.05495 0.14652 0.0
O113 O 0.39489 0.10766 0.19224 0.0
H114 H 0.43652 0.07902 0.08637 0.0
H115 H 0.39508 0.07441 0.18883 0.0
O116 O 0.40597 0.11702 0.09542 0.0
C117 C 0.39887 0.1029 0.23648 0.0
O118 O 0.41532 0.09819 0.24599 0.0
N119 N 0.44053 0.11008 0.1332 0.0
C120 C 0.47719 0.11504 0.12261 0.0
C121 C 0.46501 0.12688 0.10078 0.0
C122 C 0.44675 0.12418 0.10657 0.0
C123 C 0.45215 0.0987 0.15531 0.0
C124 C 0.47035 0.10041 0.14854 0.0
H125 H 0.43766 0.13408 0.09247 0.0
H126 H 0.44726 0.08841 0.17962 0.0
H127 H 0.40163 0.14878 0.14088 0.0
H128 H 0.43748 0.16066 0.25634 0.0
H129 H 0.42917 0.04561 0.09735 0.0
H130 H 0.46939 0.13871 0.08177 0.0
H131 H 0.4789 0.09057 0.16535 0.0
C132 C 0.11624 0.81883 0.08344 0.0
C133 C 0.09916 0.8227 0.06939 0.0
N134 N 0.09483 0.83864 0.08835 0.0
N135 N 0.12266 0.83227 0.11119 0.0
C136 C 0.10927 0.84418 0.11377 0.0
H137 H 0.12388 0.80742 0.07181 0.0
Co138 Co 0.14653 0.8344 0.12667 0.0
C139 C 0.14623 0.84796 0.23145 0.0
O140 O 0.15756 0.83546 0.24327 0.0
N141 N 0.17162 0.83651 0.13984 0.0
C142 C 0.19989 0.83025 0.15859 0.0
C143 C 0.18243 0.82637 0.16846 0.0
C144 C 0.18316 0.84677 0.11404 0.0
N145 N 0.2003 0.84301 0.1239 0.0
O146 O 0.14717 0.85472 0.08312 0.0
H147 H 0.17818 0.81602 0.19337 0.0
H148 H 0.17932 0.85613 0.0858 0.0
O149 O 0.14084 0.84939 0.18621 0.0
C150 C 0.15025 0.84899 0.03919 0.0
O151 O 0.15396 0.83208 0.03334 0.0
N152 N 0.14497 0.81313 0.16285 0.0
C153 C 0.13857 0.77862 0.19587 0.0
C154 C 0.12956 0.7931 0.21685 0.0
C155 C 0.13268 0.81021 0.19914 0.0
C156 C 0.15358 0.79918 0.14138 0.0
C157 C 0.15086 0.78187 0.15796 0.0
H158 H 0.12441 0.8209 0.21249 0.0
H159 H 0.16225 0.80147 0.11008 0.0
H160 H 0.1105 0.85716 0.13068 0.0
H161 H 0.09075 0.81471 0.04562 0.0
H162 H 0.21137 0.82363 0.17418 0.0
H163 H 0.1194 0.79115 0.24468 0.0
H164 H 0.15799 0.77111 0.14028 0.0
C165 C 0.41942 0.86724 0.33019 0.0
C166 C 0.41382 0.84991 0.32855 0.0
N167 N 0.4017 0.84758 0.36463 0.0
N168 N 0.4109 0.87576 0.36717 0.0
C169 C 0.40015 0.86346 0.38747 0.0
H170 H 0.4289 0.87337 0.3055 0.0
Co171 Co 0.41265 0.8999 0.37937 0.0
C172 C 0.40967 0.90214 0.4899 0.0
O173 O 0.42439 0.91132 0.4894 0.0
N174 N 0.41435 0.92528 0.38963 0.0
C175 C 0.42577 0.95246 0.39891 0.0
C176 C 0.42775 0.93484 0.41009 0.0
C177 C 0.40416 0.93789 0.36741 0.0
N178 N 0.41101 0.95432 0.37155 0.0
O179 O 0.38937 0.90242 0.35099 0.0
H180 H 0.43932 0.92945 0.42832 0.0
H181 H 0.3927 0.93516 0.34466 0.0
O182 O 0.40319 0.89647 0.44866 0.0
C183 C 0.39271 0.90429 0.30466 0.0
O184 O 0.40931 0.90605 0.29075 0.0
N185 N 0.4363 0.89637 0.39835 0.0
C186 C 0.47172 0.88549 0.39475 0.0
C187 C 0.45994 0.87802 0.42935 0.0
C188 C 0.44218 0.88357 0.43033 0.0
C189 C 0.44763 0.90379 0.36499 0.0
C190 C 0.46543 0.89909 0.36389 0.0
H191 H 0.4329 0.87659 0.45377 0.0
H192 H 0.44263 0.91292 0.33738 0.0
H193 H 0.39094 0.86624 0.41725 0.0
H194 H 0.41836 0.83981 0.30297 0.0
H195 H 0.43522 0.96289 0.40685 0.0
H196 H 0.46403 0.86718 0.45309 0.0
H197 H 0.47396 0.90553 0.33715 0.0
C198 C 0.39549 0.1833 0.5853 0.0
C199 C 0.41246 0.17846 0.57198 0.0
N200 N 0.41425 0.16085 0.57887 0.0
N201 N 0.3867 0.16889 0.6018 0.0
C202 C 0.39835 0.15537 0.59587 0.0
H203 H 0.38993 0.19648 0.58254 0.0
Co204 Co 0.36277 0.16701 0.62176 0.0
C205 C 0.38336 0.15466 0.71314 0.0
O206 O 0.39855 0.16053 0.69618 0.0
N207 N 0.33889 0.16492 0.63993 0.0
C208 C 0.31338 0.1662 0.6808 0.0
C209 C 0.33151 0.16795 0.68468 0.0
C210 C 0.32506 0.16139 0.60961 0.0
N211 N 0.30929 0.16208 0.63333 0.0
O212 O 0.36163 0.1444 0.58888 0.0
H213 H 0.33877 0.17183 0.71762 0.0
H214 H 0.32655 0.15871 0.57055 0.0
O215 O 0.36921 0.15641 0.6871 0.0
C216 C 0.35919 0.14867 0.54337 0.0
O217 O 0.35736 0.1656 0.53278 0.0
N218 N 0.36311 0.19022 0.64722 0.0
C219 C 0.36572 0.22706 0.65393 0.0
C220 C 0.37605 0.21606 0.68472 0.0
C221 C 0.37443 0.19758 0.6811 0.0
C222 C 0.35216 0.20074 0.61974 0.0
C223 C 0.35292 0.21909 0.62343 0.0
H224 H 0.3833 0.18947 0.70255 0.0
H225 H 0.34347 0.19488 0.59232 0.0
H226 H 0.39539 0.1418 0.60592 0.0
H227 H 0.42261 0.18723 0.55786 0.0
H228 H 0.30403 0.16842 0.71056 0.0
H229 H 0.38616 0.22156 0.70881 0.0
H230 H 0.34419 0.22693 0.60019 0.0
C231 C 0.08818 0.14322 0.82035 0.0
C232 C 0.09379 0.16048 0.8153 0.0
N233 N 0.10813 0.16285 0.84455 0.0
N234 N 0.09885 0.13477 0.85281 0.0
C235 C 0.11095 0.14701 0.86665 0.0
H236 H 0.07705 0.13716 0.8015 0.0
Co237 Co 0.0971 0.11095 0.86942 0.0
C238 C 0.11001 0.1097 0.97499 0.0
O239 O 0.09716 0.09873 0.98616 0.0
N240 N 0.09524 0.08606 0.88461 0.0
C241 C 0.08379 0.05951 0.90285 0.0
C242 C 0.0823 0.07748 0.90994 0.0
C243 C 0.10478 0.07262 0.86407 0.0
N244 N 0.0979 0.05651 0.87376 0.0
O245 O 0.11751 0.10681 0.82845 0.0
H246 H 0.07179 0.08373 0.9308 0.0
H247 H 0.11585 0.07443 0.83926 0.0
O248 O 0.11176 0.11505 0.92997 0.0
C249 C 0.11154 0.10304 0.78519 0.0
O250 O 0.0944 0.1005 0.77983 0.0
N251 N 0.07592 0.11614 0.90246 0.0
C252 C 0.04236 0.12926 0.92604 0.0
C253 C 0.05737 0.13459 0.95318 0.0
C254 C 0.07411 0.12816 0.94011 0.0
C255 C 0.06147 0.11075 0.876 0.0
C256 C 0.04455 0.11689 0.88764 0.0
H257 H 0.08559 0.1339 0.95786 0.0
H258 H 0.06324 0.10222 0.84404 0.0
H259 H 0.12183 0.14425 0.89169 0.0
H260 H 0.08759 0.17054 0.79247 0.0
H261 H 0.07465 0.04947 0.91579 0.0
H262 H 0.05633 0.1443 0.98271 0.0
H263 H 0.03348 0.11284 0.86461 0.0
C264 C 0.892 0.82494 0.59268 0.0
C265 C 0.90864 0.83181 0.58431 0.0
N266 N 0.90905 0.84839 0.60271 0.0
N267 N 0.88201 0.83706 0.61701 0.0
C268 C 0.89272 0.85134 0.62123 0.0
H269 H 0.88763 0.81199 0.5809 0.0
Co270 Co 0.85785 0.8368 0.63454 0.0
C271 C 0.87652 0.84788 0.7287 0.0
O272 O 0.88982 0.83728 0.7179 0.0
N273 N 0.83373 0.8368 0.64979 0.0
C274 C 0.80767 0.83627 0.68826 0.0
C275 C 0.82579 0.83677 0.69468 0.0
C276 C 0.82021 0.83628 0.61681 0.0
N277 N 0.80423 0.83604 0.63916 0.0
O278 O 0.85528 0.8591 0.60077 0.0
H279 H 0.83266 0.83685 0.7299 0.0
H280 H 0.82195 0.83559 0.57707 0.0
O281 O 0.86309 0.8488 0.69933 0.0
C282 C 0.85293 0.85554 0.55484 0.0
O283 O 0.85224 0.83884 0.54105 0.0
N284 N 0.85981 0.81393 0.66193 0.0
C285 C 0.86273 0.77802 0.68428 0.0
C286 C 0.86246 0.79066 0.72245 0.0
C287 C 0.86078 0.80868 0.71049 0.0
C288 C 0.85856 0.80159 0.62512 0.0
C289 C 0.86043 0.78358 0.63526 0.0
H290 H 0.86006 0.81816 0.74037 0.0
H291 H 0.85658 0.80585 0.58718 0.0
H292 H 0.88861 0.86374 0.63795 0.0
H293 H 0.91969 0.82499 0.56714 0.0
H294 H 0.79782 0.83613 0.71742 0.0
H295 H 0.86372 0.78666 0.76092 0.0
H296 H 0.86015 0.77408 0.60504 0.0
C297 C 0.93301 0.13725 0.35355 0.0
C298 C 0.92628 0.15388 0.34556 0.0
N299 N 0.91103 0.15546 0.37119 0.0
N300 N 0.92224 0.12837 0.38466 0.0
C301 C 0.9088 0.13972 0.39445 0.0
H302 H 0.94476 0.13174 0.33648 0.0
Co303 Co 0.92576 0.10462 0.39943 0.0
C304 C 0.91815 0.10127 0.50772 0.0
O305 O 0.93338 0.09297 0.51067 0.0
N306 N 0.92962 0.07965 0.41153 0.0
C307 C 0.94221 0.05349 0.42933 0.0
C308 C 0.94352 0.07153 0.43426 0.0
C309 C 0.92019 0.06584 0.39255 0.0
N310 N 0.92762 0.04995 0.40261 0.0
O311 O 0.9041 0.09971 0.36407 0.0
H312 H 0.95444 0.07809 0.45256 0.0
H313 H 0.9083 0.06719 0.37046 0.0
O314 O 0.913 0.10731 0.46536 0.0
C315 C 0.90853 0.09696 0.31885 0.0
O316 O 0.92548 0.09568 0.30811 0.0
N317 N 0.94792 0.11068 0.42666 0.0
C318 C 0.98105 0.12668 0.43794 0.0
C319 C 0.9668 0.13147 0.46872 0.0
C320 C 0.95025 0.1235 0.462 0.0
C321 C 0.96176 0.10563 0.39723 0.0
C322 C 0.9785 0.11317 0.40291 0.0
H323 H 0.93904 0.12874 0.4822 0.0
H324 H 0.95947 0.09647 0.36693 0.0
H325 H 0.89749 0.1364 0.41728 0.0
H326 H 0.93183 0.16382 0.32118 0.0
H327 H 0.95181 0.04378 0.44187 0.0
H328 H 0.96816 0.14204 0.49575 0.0
H329 H 0.98895 0.10945 0.37738 0.0
C330 C 0.61735 0.18195 0.09017 0.0
C331 C 0.60001 0.17684 0.08198 0.0
N332 N 0.59874 0.15937 0.0915 0.0
N333 N 0.62684 0.1678 0.10571 0.0
C334 C 0.61525 0.15417 0.10406 0.0
H335 H 0.62251 0.19525 0.08634 0.0
Co336 Co 0.65088 0.16599 0.12319 0.0
C337 C 0.63126 0.15403 0.21707 0.0
O338 O 0.61609 0.16088 0.20271 0.0
N339 N 0.67518 0.16381 0.13783 0.0
C340 C 0.70171 0.15546 0.16638 0.0
C341 C 0.6837 0.15581 0.17599 0.0
C342 C 0.68825 0.16813 0.10585 0.0
N343 N 0.70439 0.16339 0.12235 0.0
O344 O 0.6516 0.14318 0.09137 0.0
H345 H 0.67732 0.14997 0.20792 0.0
H346 H 0.68603 0.17388 0.06964 0.0
O347 O 0.64512 0.15551 0.1897 0.0
C348 C 0.65511 0.14636 0.04586 0.0
O349 O 0.65747 0.16289 0.03216 0.0
N350 N 0.65075 0.18938 0.14835 0.0
C351 C 0.64803 0.22634 0.15859 0.0
C352 C 0.63935 0.21484 0.19185 0.0
C353 C 0.64118 0.1964 0.18669 0.0
C354 C 0.65968 0.20035 0.11713 0.0
C355 C 0.65924 0.21862 0.12302 0.0
H356 H 0.63392 0.18808 0.21166 0.0
H357 H 0.6664 0.19503 0.0852 0.0
H358 H 0.61862 0.14079 0.11521 0.0
H359 H 0.58902 0.18549 0.07272 0.0
H360 H 0.71196 0.14968 0.18948 0.0
H361 H 0.63046 0.2198 0.2201 0.0
H362 H 0.66707 0.22649 0.09774 0.0
C363 C 0.57082 0.86786 0.83099 0.0
C364 C 0.57139 0.84992 0.82488 0.0
N365 N 0.58286 0.84314 0.85827 0.0
N366 N 0.58183 0.87261 0.86805 0.0
C367 C 0.58921 0.85725 0.88398 0.0
H368 H 0.5629 0.87703 0.80947 0.0
Co369 Co 0.58327 0.89655 0.88191 0.0
C370 C 0.59812 0.90106 0.98329 0.0
O371 O 0.58668 0.91408 0.98752 0.0
N372 N 0.58409 0.92188 0.89193 0.0
C373 C 0.5748 0.95002 0.89473 0.0
C374 C 0.57105 0.93285 0.90799 0.0
C375 C 0.59597 0.93313 0.87116 0.0
N376 N 0.59031 0.95016 0.87022 0.0
O377 O 0.60339 0.89762 0.83744 0.0
H378 H 0.55893 0.92879 0.92582 0.0
H379 H 0.60812 0.92883 0.85383 0.0
O380 O 0.5987 0.89222 0.94235 0.0
C381 C 0.59808 0.90231 0.79418 0.0
O382 O 0.5815 0.90736 0.7888 0.0
N383 N 0.56221 0.89424 0.91873 0.0
C384 C 0.52869 0.88156 0.9451 0.0
C385 C 0.54369 0.8776 0.97412 0.0
C386 C 0.56038 0.88373 0.95973 0.0
C387 C 0.54766 0.89882 0.89137 0.0
C388 C 0.53078 0.89285 0.90423 0.0
H389 H 0.57181 0.87854 0.97898 0.0
H390 H 0.54938 0.90608 0.85709 0.0
H391 H 0.59884 0.8564 0.91377 0.0
H392 H 0.56413 0.84244 0.79718 0.0
H393 H 0.56589 0.9612 0.89875 0.0
H394 H 0.54274 0.86884 1.00583 0.0
H395 H 0.51973 0.89589 0.87989 0.0
C396 C 0.89276 0.17705 0.97581 0.0
C397 C 0.91074 0.17883 0.98062 0.0
N398 N 0.91857 0.16735 0.94923 0.0
N399 N 0.88919 0.16461 0.94131 0.0
C400 C 0.9052 0.15872 0.92593 0.0
H401 H 0.88282 0.18447 0.99597 0.0
Co402 Co 0.86594 0.15965 0.92499 0.0
C403 C 0.86649 0.14594 0.82103 0.0
O404 O 0.85306 0.15657 0.81172 0.0
N405 N 0.84197 0.1547 0.91209 0.0
C406 C 0.81742 0.1383 0.90791 0.0
C407 C 0.83534 0.13878 0.8982 0.0
C408 C 0.82782 0.16352 0.93053 0.0
N409 N 0.81279 0.15391 0.92827 0.0
O410 O 0.86703 0.13901 0.9671 0.0
H411 H 0.84326 0.12761 0.88623 0.0
H412 H 0.82867 0.17581 0.9508 0.0
O413 O 0.8732 0.14553 0.86507 0.0
C414 C 0.8627 0.14296 1.01166 0.0
O415 O 0.85687 0.15908 0.02053 0.0
N416 N 0.86552 0.18125 0.8888 0.0
C417 C 0.87607 0.216 0.86744 0.0
C418 C 0.88209 0.20174 0.83865 0.0
C419 C 0.8771 0.18449 0.85074 0.0
C420 C 0.85855 0.19519 0.91474 0.0
C421 C 0.86343 0.21267 0.90424 0.0
H422 H 0.8845 0.17396 0.83346 0.0
H423 H 0.85133 0.19282 0.94853 0.0
H424 H 0.90704 0.14865 0.89773 0.0
H425 H 0.91755 0.18776 1.00573 0.0
H426 H 0.80874 0.12698 0.90345 0.0
H427 H 0.89206 0.2037 0.81024 0.0
H428 H 0.85893 0.22321 0.92854 0.0
C429 C 0.57054 0.1338 0.6989 0.0
C430 C 0.56989 0.15176 0.7068 0.0
N431 N 0.58398 0.1592 0.68431 0.0
N432 N 0.58485 0.12991 0.6711 0.0
C433 C 0.59297 0.14562 0.66318 0.0
H434 H 0.56122 0.12411 0.71271 0.0
Co435 Co 0.59082 0.10684 0.654 0.0
C436 C 0.60169 0.10929 0.54895 0.0
O437 O 0.59098 0.0958 0.54139 0.0
N438 N 0.59728 0.08309 0.6405 0.0
C439 C 0.61505 0.06 0.62622 0.0
C440 C 0.61202 0.07758 0.61641 0.0
C441 C 0.59218 0.06864 0.66673 0.0
N442 N 0.60263 0.05435 0.65827 0.0
O443 O 0.6115 0.10868 0.69516 0.0
H444 H 0.62123 0.08607 0.59711 0.0
H445 H 0.58198 0.06901 0.69481 0.0
O446 O 0.60379 0.1153 0.59335 0.0
C447 C 0.60702 0.10474 0.73953 0.0
O448 O 0.59056 0.09981 0.74752 0.0
N449 N 0.56904 0.1053 0.61785 0.0
C450 C 0.53357 0.10954 0.58846 0.0
C451 C 0.5468 0.1208 0.57028 0.0
C452 C 0.56431 0.11865 0.58593 0.0
C453 C 0.55641 0.09377 0.63426 0.0
C454 C 0.53865 0.09551 0.61958 0.0
H455 H 0.57376 0.12869 0.57538 0.0
H456 H 0.55959 0.08412 0.66225 0.0
H457 H 0.6051 0.14707 0.64221 0.0
H458 H 0.55998 0.15875 0.72828 0.0
H459 H 0.62652 0.05249 0.6143 0.0
H460 H 0.54351 0.13183 0.54623 0.0
H461 H 0.52883 0.08676 0.63554 0.0
C462 C 0.61403 0.82069 0.43498 0.0
C463 C 0.59592 0.82297 0.43439 0.0
N464 N 0.5922 0.8368 0.40464 0.0
N465 N 0.6216 0.83311 0.40592 0.0
C466 C 0.60794 0.84275 0.38793 0.0
H467 H 0.6213 0.81086 0.45606 0.0
Co468 Co 0.64584 0.83719 0.40025 0.0
C469 C 0.64528 0.84631 0.29037 0.0
O470 O 0.65449 0.83203 0.27956 0.0
N471 N 0.67041 0.84168 0.39803 0.0
C472 C 0.69907 0.84657 0.38337 0.0
C473 C 0.68224 0.84631 0.36277 0.0
C474 C 0.6803 0.83975 0.43951 0.0
N475 N 0.69778 0.8422 0.43176 0.0
O476 O 0.64271 0.85862 0.43934 0.0
H477 H 0.67914 0.84906 0.32445 0.0
H478 H 0.67474 0.83587 0.47464 0.0
O479 O 0.64182 0.85007 0.336 0.0
C480 C 0.64183 0.85408 0.48514 0.0
O481 O 0.64313 0.83714 0.49591 0.0
N482 N 0.64865 0.81472 0.36797 0.0
C483 C 0.64695 0.77798 0.3528 0.0
C484 C 0.63437 0.78933 0.33101 0.0
C485 C 0.63556 0.80767 0.33863 0.0
C486 C 0.66175 0.80389 0.38567 0.0
C487 C 0.66143 0.78569 0.37724 0.0
H488 H 0.62504 0.81601 0.3244 0.0
H489 H 0.67185 0.80878 0.41023 0.0
H490 H 0.6095 0.85431 0.36459 0.0
H491 H 0.58624 0.81514 0.45428 0.0
H492 H 0.7113 0.84918 0.36374 0.0
H493 H 0.62291 0.78411 0.31167 0.0
H494 H 0.67183 0.7776 0.39336 0.0
C495 C 0.93192 0.85911 0.19519 0.0
C496 C 0.92678 0.84162 0.19783 0.0
N497 N 0.91082 0.84005 0.17559 0.0
N498 N 0.91929 0.86845 0.17118 0.0
C499 C 0.9066 0.85651 0.15986 0.0
H500 H 0.94386 0.86478 0.21083 0.0
Co501 Co 0.91824 0.89292 0.16396 0.0
C502 C 0.90821 0.89585 0.05717 0.0
O503 O 0.92142 0.90701 0.05149 0.0
N504 N 0.91663 0.91786 0.16011 0.0
C505 C 0.90498 0.94503 0.15536 0.0
C506 C 0.90546 0.92841 0.13406 0.0
C507 C 0.92234 0.92836 0.1976 0.0
N508 N 0.91544 0.94488 0.19588 0.0
O509 O 0.89709 0.89313 0.2038 0.0
H510 H 0.89659 0.92403 0.10507 0.0
H511 H 0.93034 0.92351 0.22801 0.0
O512 O 0.90464 0.88983 0.10063 0.0
C513 C 0.90212 0.8933 0.24919 0.0
O514 O 0.91924 0.89313 0.25837 0.0
N515 N 0.94033 0.89231 0.1298 0.0
C516 C 0.97516 0.88669 0.09706 0.0
C517 C 0.961 0.87706 0.07663 0.0
C518 C 0.94377 0.87989 0.09395 0.0
C519 C 0.95397 0.90192 0.14951 0.0
C520 C 0.97138 0.89949 0.1333 0.0
H521 H 0.93332 0.87136 0.08035 0.0
H522 H 0.95172 0.9108 0.18013 0.0
H523 H 0.89413 0.86001 0.14246 0.0
H524 H 0.93415 0.83094 0.21508 0.0
H525 H 0.89624 0.95579 0.14472 0.0
H526 H 0.96331 0.86668 0.04958 0.0
H527 H 0.98189 0.90717 0.15035 0.0
C528 C 0.60532 0.68173 0.94001 0.0
C529 C 0.58818 0.67618 0.94827 0.0
N530 N 0.58765 0.65848 0.94223 0.0
N531 N 0.61554 0.66759 0.92826 0.0
C532 C 0.60438 0.65361 0.93101 0.0
H533 H 0.60985 0.69525 0.94292 0.0
Co534 Co 0.6402 0.66606 0.91792 0.0
C535 C 0.62347 0.65194 0.82307 0.0
O536 O 0.6091 0.6613 0.83155 0.0
N537 N 0.66465 0.66452 0.911 0.0
C538 C 0.69249 0.65749 0.8921 0.0
C539 C 0.67531 0.6587 0.87419 0.0
C540 C 0.67555 0.6671 0.94998 0.0
N541 N 0.69247 0.66256 0.94013 0.0
O542 O 0.64047 0.64438 0.95616 0.0
H543 H 0.67082 0.65467 0.83772 0.0
H544 H 0.671 0.67162 0.98584 0.0
O545 O 0.63671 0.65288 0.85328 0.0
C546 C 0.64011 0.64873 1.0021 0.0
O547 O 0.6397 0.66571 1.01325 0.0
N548 N 0.64045 0.68829 0.88677 0.0
C549 C 0.63296 0.72338 0.86351 0.0
C550 C 0.63241 0.71023 0.8266 0.0
C551 C 0.63656 0.69269 0.83881 0.0
C552 C 0.64344 0.70126 0.92111 0.0
C553 C 0.6397 0.71897 0.91035 0.0
H554 H 0.63577 0.68283 0.81009 0.0
H555 H 0.64705 0.69761 0.95864 0.0
H556 H 0.60843 0.64005 0.92415 0.0
H557 H 0.57693 0.68456 0.9569 0.0
H558 H 0.70382 0.65221 0.87232 0.0
H559 H 0.62779 0.7133 0.78946 0.0
H560 H 0.64042 0.72875 0.93979 0.0
C561 C 0.57679 0.36346 0.20076 0.0
C562 C 0.58346 0.34656 0.20608 0.0
N563 N 0.59951 0.34604 0.18463 0.0
N564 N 0.58847 0.37351 0.1751 0.0
C565 C 0.60238 0.36252 0.16728 0.0
H566 H 0.56441 0.36796 0.21619 0.0
Co567 Co 0.58882 0.39807 0.16234 0.0
C568 C 0.59862 0.3816 0.06502 0.0
O569 O 0.58681 0.36917 0.07342 0.0
N570 N 0.58958 0.42238 0.15313 0.0
C571 C 0.60075 0.44952 0.14732 0.0
C572 C 0.60147 0.43245 0.12871 0.0
C573 C 0.58156 0.43355 0.18504 0.0
N574 N 0.58845 0.45003 0.18362 0.0
O575 O 0.61096 0.39911 0.19765 0.0
H576 H 0.61135 0.42738 0.10333 0.0
H577 H 0.57204 0.42913 0.21232 0.0
O578 O 0.60088 0.39411 0.0969 0.0
C579 C 0.60738 0.40239 0.24307 0.0
O580 O 0.59075 0.40473 0.25582 0.0
N581 N 0.56618 0.39758 0.13298 0.0
C582 C 0.53103 0.3936 0.10231 0.0
C583 C 0.54441 0.39767 0.06783 0.0
C584 C 0.56191 0.39997 0.08412 0.0
C585 C 0.55305 0.39615 0.16733 0.0
C586 C 0.53548 0.39363 0.15293 0.0
H587 H 0.5719 0.40352 0.0573 0.0
H588 H 0.55636 0.39638 0.20641 0.0
H589 H 0.61455 0.36659 0.14937 0.0
H590 H 0.57689 0.33546 0.22361 0.0
H591 H 0.60988 0.46013 0.13861 0.0
H592 H 0.54147 0.39881 0.02859 0.0
H593 H 0.52573 0.39095 0.18136 0.0
C594 C 0.8846 0.31084 0.45671 0.0
C595 C 0.90253 0.31065 0.4652 0.0
N596 N 0.90978 0.32485 0.44263 0.0
N597 N 0.88043 0.32502 0.42869 0.0
C598 C 0.89601 0.33342 0.4209 0.0
H599 H 0.87508 0.30145 0.47107 0.0
Co600 Co 0.85719 0.33098 0.4125 0.0
C601 C 0.86966 0.35701 0.33358 0.0
O602 O 0.87103 0.37055 0.36407 0.0
N603 N 0.83369 0.33673 0.39762 0.0
C604 C 0.80818 0.34223 0.35917 0.0
C605 C 0.82622 0.34044 0.35324 0.0
C606 C 0.81997 0.33632 0.4298 0.0
N607 N 0.80426 0.33956 0.4074 0.0
O608 O 0.85962 0.35242 0.45075 0.0
H609 H 0.83326 0.34121 0.31838 0.0
H610 H 0.82135 0.33277 0.4685 0.0
O611 O 0.86484 0.34192 0.35013 0.0
C612 C 0.85712 0.34822 0.49622 0.0
O613 O 0.85279 0.33172 0.50618 0.0
N614 N 0.85465 0.30914 0.3804 0.0
C615 C 0.85666 0.27307 0.35828 0.0
C616 C 0.86646 0.28549 0.33086 0.0
C617 C 0.8654 0.3035 0.34279 0.0
C618 C 0.84404 0.29745 0.40485 0.0
C619 C 0.84477 0.27935 0.39424 0.0
H620 H 0.87435 0.31257 0.32467 0.0
H621 H 0.8361 0.30198 0.43577 0.0
H622 H 0.89719 0.34563 0.40023 0.0
H623 H 0.90955 0.30105 0.48772 0.0
H624 H 0.79868 0.34498 0.32998 0.0
H625 H 0.87572 0.28124 0.30251 0.0
H626 H 0.83717 0.27028 0.41692 0.0
C627 C 0.92288 0.63404 0.70663 0.0
C628 C 0.91914 0.65171 0.71386 0.0
N629 N 0.90346 0.65525 0.69213 0.0
N630 N 0.90983 0.62663 0.67922 0.0
C631 C 0.89802 0.63985 0.67162 0.0
H632 H 0.93422 0.62694 0.72122 0.0
Co633 Co 0.90763 0.60264 0.66356 0.0
C634 C 0.90525 0.60233 0.55399 0.0
O635 O 0.91772 0.59016 0.55685 0.0
N636 N 0.90456 0.57793 0.6508 0.0
C637 C 0.89368 0.55196 0.62469 0.0
C638 C 0.89388 0.56998 0.61691 0.0
C639 C 0.90945 0.5644 0.68108 0.0
N640 N 0.90344 0.54855 0.66527 0.0
O641 O 0.8844 0.60305 0.6926 0.0
H642 H 0.8858 0.57677 0.58979 0.0
H643 H 0.91658 0.56608 0.71561 0.0
O644 O 0.89888 0.60883 0.59455 0.0
C645 C 0.88726 0.59891 0.73798 0.0
O646 O 0.90356 0.59513 0.75165 0.0
N647 N 0.9317 0.60257 0.64147 0.0
C648 C 0.96831 0.60885 0.63751 0.0
C649 C 0.95642 0.61942 0.61031 0.0
C650 C 0.9382 0.61602 0.61259 0.0
C651 C 0.94323 0.59166 0.66578 0.0
C652 C 0.96148 0.59418 0.66295 0.0
H653 H 0.92925 0.62535 0.59516 0.0
H654 H 0.93857 0.58192 0.69142 0.0
H655 H 0.88552 0.63813 0.65235 0.0
H656 H 0.92696 0.66109 0.73506 0.0
H657 H 0.88615 0.54224 0.60387 0.0
H658 H 0.96088 0.63109 0.59063 0.0
H659 H 0.97005 0.58533 0.68367 0.0
C660 C 0.61613 0.31869 0.59159 0.0
C661 C 0.59809 0.31872 0.58667 0.0
N662 N 0.59156 0.33252 0.61264 0.0
N663 N 0.6211 0.33231 0.62087 0.0
C664 C 0.60583 0.34073 0.63282 0.0
H665 H 0.62517 0.30928 0.5749 0.0
Co666 Co 0.64501 0.33551 0.63426 0.0
C667 C 0.64618 0.34825 0.7384 0.0
O668 O 0.65841 0.3361 0.74603 0.0
N669 N 0.6696 0.33853 0.64312 0.0
C670 C 0.69579 0.35223 0.64634 0.0
C671 C 0.67873 0.35193 0.66465 0.0
C672 C 0.68134 0.33128 0.61108 0.0
N673 N 0.69729 0.33938 0.61191 0.0
O674 O 0.64497 0.35603 0.59206 0.0
H675 H 0.67297 0.36225 0.68737 0.0
H676 H 0.67767 0.32154 0.58355 0.0
O677 O 0.63959 0.35016 0.69462 0.0
C678 C 0.64726 0.3513 0.54694 0.0
O679 O 0.64966 0.33436 0.53753 0.0
N680 N 0.64445 0.31403 0.67144 0.0
C681 C 0.63246 0.27988 0.69433 0.0
C682 C 0.626 0.29471 0.72001 0.0
C683 C 0.63174 0.31161 0.70707 0.0
C684 C 0.65225 0.29956 0.64999 0.0
C685 C 0.64648 0.28236 0.66093 0.0
H686 H 0.62426 0.32266 0.72155 0.0
H687 H 0.66134 0.30119 0.61964 0.0
H688 H 0.60516 0.35241 0.65616 0.0
H689 H 0.59036 0.30943 0.5649 0.0
H690 H 0.70559 0.36239 0.65359 0.0
H691 H 0.6153 0.29345 0.74655 0.0
H692 H 0.65172 0.27136 0.63962 0.0
C693 C 0.93549 0.36196 0.84511 0.0
C694 C 0.93566 0.3439 0.84035 0.0
N695 N 0.92248 0.33724 0.86832 0.0
N696 N 0.9224 0.36676 0.87632 0.0
C697 C 0.91446 0.3514 0.88956 0.0
H698 H 0.9444 0.37113 0.82705 0.0
Co699 Co 0.91878 0.39048 0.8905 0.0
C700 C 0.90606 0.39159 0.9948 0.0
O701 O 0.91719 0.4048 1.00137 0.0
N702 N 0.91515 0.41504 0.90063 0.0
C703 C 0.90002 0.4405 0.90346 0.0
C704 C 0.90072 0.42322 0.91986 0.0
C705 C 0.92267 0.42763 0.87181 0.0
N706 N 0.9137 0.44313 0.87241 0.0
O707 O 0.89806 0.39016 0.84834 0.0
H708 H 0.89008 0.4166 0.93919 0.0
H709 H 0.93313 0.4249 0.84562 0.0
O710 O 0.90472 0.38447 0.95145 0.0
C711 C 0.90275 0.39461 0.80449 0.0
O712 O 0.91944 0.39864 0.79663 0.0
N713 N 0.94046 0.3902 0.9269 0.0
C714 C 0.97498 0.37903 0.94998 0.0
C715 C 0.96039 0.37268 0.97673 0.0
C716 C 0.94329 0.378 0.96373 0.0
C717 C 0.95467 0.39769 0.90362 0.0
C718 C 0.97203 0.39239 0.91475 0.0
H719 H 0.93248 0.37057 0.97945 0.0
H720 H 0.9527 0.40604 0.87178 0.0
H721 H 0.90331 0.35058 0.91467 0.0
H722 H 0.94468 0.33623 0.81761 0.0
H723 H 0.88907 0.44962 0.90877 0.0
H724 H 0.96199 0.36242 1.00448 0.0
H725 H 0.98281 0.39741 0.8923 0.0
C726 C 0.87993 0.68371 0.08547 0.0
C727 C 0.8979 0.68458 0.07795 0.0
N728 N 0.90559 0.67099 0.10231 0.0
N729 N 0.87629 0.66977 0.11498 0.0
C730 C 0.89218 0.66208 0.12414 0.0
H731 H 0.87008 0.69278 0.07095 0.0
Co732 Co 0.85342 0.66386 0.13482 0.0
C733 C 0.85917 0.65432 0.2412 0.0
O734 O 0.84684 0.66594 0.2527 0.0
N735 N 0.82996 0.65742 0.15137 0.0
C736 C 0.80602 0.64263 0.1763 0.0
C737 C 0.82391 0.64502 0.18336 0.0
C738 C 0.81556 0.66152 0.12346 0.0
N739 N 0.80078 0.65301 0.13844 0.0
O740 O 0.85489 0.64287 0.09424 0.0
H741 H 0.83197 0.63707 0.20785 0.0
H742 H 0.81604 0.67015 0.09145 0.0
O743 O 0.86295 0.65155 0.19518 0.0
C744 C 0.85096 0.64768 0.04999 0.0
O745 O 0.84631 0.66428 0.04278 0.0
N746 N 0.85196 0.68595 0.16943 0.0
C747 C 0.85603 0.72248 0.18479 0.0
C748 C 0.8687 0.71042 0.20281 0.0
C749 C 0.86633 0.69223 0.19521 0.0
C750 C 0.8388 0.69741 0.1559 0.0
C751 C 0.84035 0.71558 0.16443 0.0
H752 H 0.87709 0.68343 0.20515 0.0
H753 H 0.82773 0.69301 0.13414 0.0
H754 H 0.89392 0.65045 0.14718 0.0
H755 H 0.90479 0.69444 0.0561 0.0
H756 H 0.79775 0.63315 0.19552 0.0
H757 H 0.88112 0.71491 0.21861 0.0
H758 H 0.82985 0.72423 0.15143 0.0
C759 C 0.57425 0.64129 0.33367 0.0
C760 C 0.58144 0.6578 0.32612 0.0
N761 N 0.59601 0.65934 0.35492 0.0
N762 N 0.58413 0.63252 0.36738 0.0
C763 C 0.59735 0.64376 0.37946 0.0
H764 H 0.56269 0.6359 0.3153 0.0
Co765 Co 0.58046 0.60915 0.38508 0.0
C766 C 0.5902 0.60775 0.49324 0.0
O767 O 0.57583 0.59838 0.50053 0.0
N768 N 0.57644 0.58458 0.40071 0.0
C769 C 0.56335 0.55906 0.42163 0.0
C770 C 0.56276 0.57717 0.42593 0.0
C771 C 0.58508 0.57033 0.38148 0.0
N772 N 0.57728 0.5548 0.39308 0.0
O773 O 0.60171 0.6034 0.34928 0.0
H774 H 0.55243 0.58431 0.44517 0.0
H775 H 0.59659 0.57109 0.35787 0.0
O776 O 0.59399 0.61283 0.44895 0.0
C777 C 0.59729 0.59985 0.30449 0.0
O778 O 0.58035 0.59823 0.29378 0.0
N779 N 0.55873 0.61594 0.4132 0.0
C780 C 0.52531 0.63079 0.43038 0.0
C781 C 0.54002 0.63572 0.45942 0.0
C782 C 0.55671 0.62844 0.44951 0.0
C783 C 0.54459 0.61096 0.38479 0.0
C784 C 0.52774 0.61799 0.3932 0.0
H785 H 0.56808 0.63373 0.46885 0.0
H786 H 0.5466 0.602 0.35387 0.0
H787 H 0.60802 0.64036 0.40463 0.0
H788 H 0.5762 0.66791 0.30165 0.0
H789 H 0.5536 0.54982 0.43569 0.0
H790 H 0.53883 0.64569 0.48822 0.0
H791 H 0.51698 0.61417 0.36875 0.0
C792 C 0.39391 0.31899 0.10244 0.0
C793 C 0.41145 0.32196 0.0922 0.0
N794 N 0.41482 0.33927 0.09958 0.0
N795 N 0.38617 0.33432 0.11685 0.0
C796 C 0.39935 0.34647 0.11488 0.0
H797 H 0.38706 0.30662 0.09632 0.0
Co798 Co 0.3616 0.33764 0.12187 0.0
C799 C 0.36905 0.36629 0.1997 0.0
O800 O 0.37308 0.37866 0.16738 0.0
N801 N 0.33706 0.34077 0.1247 0.0
C802 C 0.30891 0.34533 0.14599 0.0
C803 C 0.32592 0.34242 0.1636 0.0
C804 C 0.32659 0.34249 0.08428 0.0
N805 N 0.30947 0.34553 0.09595 0.0
O806 O 0.36352 0.35857 0.08057 0.0
H807 H 0.32993 0.34184 0.20217 0.0
H808 H 0.33142 0.34153 0.04665 0.0
O809 O 0.36446 0.35091 0.18441 0.0
C810 C 0.36504 0.35381 0.03514 0.0
O811 O 0.36507 0.33673 0.02516 0.0
N812 N 0.35983 0.31627 0.1576 0.0
C813 C 0.36868 0.28177 0.18552 0.0
C814 C 0.37276 0.29623 0.21646 0.0
C815 C 0.36846 0.31341 0.20152 0.0
C816 C 0.35353 0.30229 0.13063 0.0
C817 C 0.35792 0.28484 0.14379 0.0
H818 H 0.37385 0.32428 0.22276 0.0
H819 H 0.34696 0.30473 0.09554 0.0
H820 H 0.39734 0.36054 0.12021 0.0
H821 H 0.42081 0.31229 0.07808 0.0
H822 H 0.29719 0.34766 0.16824 0.0
H823 H 0.38065 0.29444 0.24975 0.0
H824 H 0.35444 0.27413 0.11878 0.0
C825 C 0.4275 0.64313 0.85576 0.0
C826 C 0.42373 0.66102 0.85317 0.0
N827 N 0.40795 0.66385 0.87527 0.0
N828 N 0.41417 0.63482 0.87961 0.0
C829 C 0.40247 0.64777 0.89074 0.0
H830 H 0.43892 0.63651 0.84004 0.0
Co831 Co 0.41034 0.61046 0.88655 0.0
C832 C 0.39918 0.61089 0.99341 0.0
O833 O 0.41191 0.59966 1.00453 0.0
N834 N 0.40564 0.58601 0.88977 0.0
C835 C 0.39347 0.55921 0.89753 0.0
C836 C 0.39581 0.57558 0.91982 0.0
C837 C 0.40882 0.57576 0.8496 0.0
N838 N 0.40153 0.55952 0.85298 0.0
O839 O 0.38991 0.61279 0.84373 0.0
H840 H 0.38948 0.5798 0.95374 0.0
H841 H 0.41609 0.58039 0.81762 0.0
O842 O 0.39651 0.61526 0.94788 0.0
C843 C 0.39572 0.6132 0.7991 0.0
O844 O 0.41297 0.61257 0.79235 0.0
N845 N 0.43196 0.60812 0.92366 0.0
C846 C 0.4681 0.60948 0.94862 0.0
C847 C 0.45637 0.62299 0.96367 0.0
C848 C 0.4383 0.6218 0.95204 0.0
C849 C 0.44285 0.59412 0.91329 0.0
C850 C 0.46064 0.59423 0.92717 0.0
H851 H 0.42975 0.63274 0.96214 0.0
H852 H 0.43843 0.58311 0.89124 0.0
H853 H 0.38968 0.6453 0.90749 0.0
H854 H 0.43184 0.67108 0.83587 0.0
H855 H 0.38544 0.54843 0.91145 0.0
H856 H 0.46106 0.63502 0.98112 0.0
H857 H 0.46862 0.5828 0.91772 0.0
C858 C 0.10619 0.68201 0.6134 0.0
C859 C 0.0884 0.67797 0.61365 0.0
N860 N 0.08615 0.66323 0.6411 0.0
N861 N 0.11501 0.66986 0.64061 0.0
C862 C 0.10248 0.65859 0.65702 0.0
H863 H 0.11241 0.69272 0.59326 0.0
Co864 Co 0.13937 0.66753 0.64456 0.0
C865 C 0.14579 0.65977 0.75124 0.0
O866 O 0.15841 0.67174 0.74853 0.0
N867 N 0.16427 0.66455 0.64525 0.0
C868 C 0.19056 0.65091 0.64814 0.0
C869 C 0.17374 0.65156 0.66772 0.0
C870 C 0.17554 0.67097 0.61058 0.0
N871 N 0.19162 0.66316 0.61205 0.0
O872 O 0.13764 0.64549 0.60845 0.0
H873 H 0.16843 0.64199 0.69352 0.0
H874 H 0.17151 0.67966 0.58079 0.0
O875 O 0.13703 0.65584 0.71165 0.0
C876 C 0.13836 0.64983 0.56254 0.0
O877 O 0.14006 0.66674 0.55179 0.0
N878 N 0.1405 0.69045 0.67413 0.0
C879 C 0.13593 0.72635 0.69848 0.0
C880 C 0.12756 0.71303 0.72618 0.0
C881 C 0.12981 0.69521 0.71301 0.0
C882 C 0.14876 0.70332 0.64719 0.0
C883 C 0.147 0.72121 0.65931 0.0
H884 H 0.12191 0.68538 0.73192 0.0
H885 H 0.15561 0.70007 0.61356 0.0
H886 H 0.10538 0.64667 0.67787 0.0
H887 H 0.07798 0.68512 0.59448 0.0
H888 H 0.20084 0.64149 0.6578 0.0
H889 H 0.11839 0.71633 0.7557 0.0
H890 H 0.15363 0.73099 0.63653 0.0
C891 C 0.07429 0.36075 0.34876 0.0
C892 C 0.08164 0.34415 0.3437 0.0
N893 N 0.09774 0.34428 0.36551 0.0
N894 N 0.08569 0.37126 0.37372 0.0
C895 C 0.09985 0.36086 0.38352 0.0
H896 H 0.0617 0.36507 0.3337 0.0
Co897 Co 0.08334 0.39555 0.38265 0.0
C898 C 0.10765 0.40087 0.47421 0.0
O899 O 0.11511 0.41579 0.46038 0.0
N900 N 0.08071 0.42014 0.38934 0.0
C901 C 0.07574 0.4482 0.41131 0.0
C902 C 0.07837 0.43108 0.4285 0.0
C903 C 0.07916 0.43077 0.34933 0.0
N904 N 0.07614 0.44789 0.36123 0.0
O905 O 0.1048 0.39895 0.34473 0.0
H906 H 0.07814 0.42686 0.46687 0.0
H907 H 0.08005 0.42598 0.31175 0.0
O908 O 0.09618 0.39344 0.44605 0.0
C909 C 0.10077 0.39742 0.29876 0.0
O910 O 0.0842 0.39419 0.28662 0.0
N911 N 0.06164 0.39188 0.41464 0.0
C912 C 0.02835 0.37853 0.43946 0.0
C913 C 0.04307 0.3756 0.47045 0.0
C914 C 0.05966 0.38226 0.45719 0.0
C915 C 0.04725 0.39614 0.38632 0.0
C916 C 0.03043 0.38963 0.39811 0.0
H917 H 0.07098 0.37844 0.47919 0.0
H918 H 0.04909 0.40339 0.35208 0.0
H919 H 0.11182 0.36559 0.40138 0.0
H920 H 0.07569 0.3329 0.32506 0.0
H921 H 0.07322 0.45982 0.43389 0.0
H922 H 0.04201 0.36731 0.50313 0.0
H923 H 0.01951 0.39211 0.37285 0.0
C924 C 0.37668 0.683 0.46721 0.0
C925 C 0.39466 0.68397 0.47401 0.0
N926 N 0.40249 0.67324 0.44058 0.0
N927 N 0.37312 0.67192 0.42919 0.0
C928 C 0.38913 0.66592 0.41397 0.0
H929 H 0.36674 0.68981 0.48895 0.0
Co930 Co 0.34998 0.66713 0.41085 0.0
C931 C 0.3492 0.66173 0.30298 0.0
O932 O 0.33544 0.67243 0.30503 0.0
N933 N 0.32595 0.66181 0.39507 0.0
C934 C 0.30238 0.64456 0.38171 0.0
C935 C 0.3205 0.64595 0.37713 0.0
C936 C 0.31076 0.66981 0.40989 0.0
N937 N 0.29634 0.65963 0.40237 0.0
O938 O 0.35222 0.64432 0.44202 0.0
H939 H 0.32931 0.63548 0.36499 0.0
H940 H 0.31013 0.68199 0.43061 0.0
O941 O 0.35744 0.65793 0.34358 0.0
C942 C 0.34465 0.64546 0.48438 0.0
O943 O 0.33596 0.66006 0.49526 0.0
N944 N 0.34823 0.69072 0.38775 0.0
C945 C 0.35303 0.72758 0.38495 0.0
C946 C 0.36182 0.71644 0.35103 0.0
C947 C 0.3594 0.69804 0.35339 0.0
C948 C 0.33963 0.70143 0.42062 0.0
C949 C 0.34118 0.71979 0.41849 0.0
H950 H 0.36791 0.68974 0.33103 0.0
H951 H 0.33326 0.69577 0.45265 0.0
H952 H 0.39097 0.65648 0.38409 0.0
H953 H 0.40147 0.69167 0.50212 0.0
H954 H 0.29442 0.63299 0.37342 0.0
H955 H 0.37161 0.72167 0.32564 0.0
H956 H 0.33413 0.72766 0.4457 0.0
C957 C 0.07091 0.63761 0.22539 0.0
C958 C 0.07524 0.65437 0.24117 0.0
N959 N 0.09016 0.65936 0.2177 0.0
N960 N 0.08301 0.63208 0.19202 0.0
C961 C 0.09462 0.64563 0.18791 0.0
H962 H 0.06001 0.62964 0.2387 0.0
Co963 Co 0.08363 0.60893 0.16951 0.0
C964 C 0.09497 0.61242 0.06337 0.0
O965 O 0.08154 0.60213 0.05157 0.0
N966 N 0.08436 0.58476 0.15052 0.0
C967 C 0.09433 0.55818 0.12667 0.0
C968 C 0.0962 0.57622 0.12119 0.0
C969 C 0.07611 0.57146 0.17519 0.0
N970 N 0.0818 0.55529 0.16103 0.0
O971 O 0.10454 0.60532 0.20949 0.0
H972 H 0.10671 0.58247 0.10049 0.0
H973 H 0.06703 0.5735 0.20566 0.0
O974 O 0.09792 0.61604 0.10949 0.0
C975 C 0.09995 0.59981 0.25246 0.0
O976 O 0.08316 0.59622 0.26027 0.0
N977 N 0.06189 0.61315 0.13558 0.0
C978 C 0.02812 0.62679 0.11393 0.0
C979 C 0.04338 0.63421 0.09283 0.0
C980 C 0.06006 0.62762 0.10537 0.0
C981 C 0.04711 0.60504 0.1539 0.0
C982 C 0.03011 0.61157 0.14337 0.0
H983 H 0.07145 0.63527 0.09423 0.0
H984 H 0.04836 0.59464 0.18098 0.0
H985 H 0.10657 0.64507 0.16573 0.0
H986 H 0.06812 0.66218 0.2684 0.0
H987 H 0.10257 0.54804 0.10998 0.0
H988 H 0.0426 0.64587 0.0695 0.0
H989 H 0.01881 0.60559 0.16155 0.0
C990 C 0.12326 0.32149 0.95014 0.0
C991 C 0.10544 0.3202 0.95937 0.0
N992 N 0.09719 0.33405 0.93763 0.0
N993 N 0.12632 0.33599 0.92233 0.0
C994 C 0.1102 0.34352 0.9156 0.0
H995 H 0.13345 0.31252 0.96327 0.0
Co996 Co 0.14893 0.34324 0.9037 0.0
C997 C 0.14038 0.3686 0.82013 0.0
O998 O 0.14904 0.38163 0.84162 0.0
N999 N 0.17195 0.35032 0.88681 0.0
C1000 C 0.19759 0.35432 0.84786 0.0
C1001 C 0.17969 0.35125 0.84178 0.0
C1002 C 0.18537 0.35278 0.91948 0.0
N1003 N 0.20117 0.35515 0.89692 0.0
O1004 O 0.14558 0.36457 0.94232 0.0
H1005 H 0.17299 0.34884 0.80687 0.0
H1006 H 0.18371 0.35213 0.95923 0.0
O1007 O 0.13934 0.35357 0.84197 0.0
C1008 C 0.14855 0.36004 0.98741 0.0
O1009 O 0.15389 0.3437 0.99579 0.0
N1010 N 0.15238 0.32138 0.87146 0.0
C1011 C 0.15221 0.28474 0.85619 0.0
C1012 C 0.13951 0.29567 0.83308 0.0
C1013 C 0.13992 0.31403 0.84085 0.0
C1014 C 0.16566 0.3112 0.89065 0.0
C1015 C 0.16607 0.29295 0.88247 0.0
H1016 H 0.12906 0.32198 0.82701 0.0
H1017 H 0.17519 0.31694 0.91598 0.0
H1018 H 0.10808 0.35566 0.89502 0.0
H1019 H 0.09909 0.31004 0.9814 0.0
H1020 H 0.20731 0.35488 0.81841 0.0
H1021 H 0.12845 0.29007 0.81277 0.0
H1022 H 0.17651 0.28524 0.89973 0.0
C1023 C 0.42509 0.37058 0.69723 0.0
C1024 C 0.4202 0.35309 0.70169 0.0
N1025 N 0.40734 0.3498 0.66812 0.0
N1026 N 0.41539 0.37822 0.661 0.0
C1027 C 0.40462 0.36528 0.64415 0.0
H1028 H 0.43501 0.37738 0.71918 0.0
Co1029 Co 0.41655 0.40199 0.64477 0.0
C1030 C 0.40476 0.40375 0.53753 0.0
O1031 O 0.4172 0.41549 0.52941 0.0
N1032 N 0.41798 0.42694 0.63082 0.0
C1033 C 0.42813 0.45381 0.61034 0.0
C1034 C 0.43059 0.43587 0.60513 0.0
C1035 C 0.40812 0.44009 0.65153 0.0
N1036 N 0.41412 0.45641 0.64006 0.0
O1037 O 0.39533 0.40526 0.68325 0.0
H1038 H 0.44136 0.42991 0.58463 0.0
H1039 H 0.39702 0.43799 0.67604 0.0
O1040 O 0.40275 0.39753 0.58164 0.0
C1041 C 0.40002 0.40881 0.72786 0.0
O1042 O 0.41679 0.41229 0.7368 0.0
N1043 N 0.43837 0.39755 0.61406 0.0
C1044 C 0.47199 0.38311 0.59865 0.0
C1045 C 0.45762 0.37814 0.56847 0.0
C1046 C 0.44082 0.38532 0.57724 0.0
C1047 C 0.45236 0.40311 0.64222 0.0
C1048 C 0.46935 0.39629 0.63461 0.0
H1049 H 0.42966 0.37971 0.55765 0.0
H1050 H 0.45005 0.41195 0.67323 0.0
H1051 H 0.39469 0.36724 0.61567 0.0
H1052 H 0.42585 0.3435 0.72707 0.0
H1053 H 0.43666 0.46413 0.59594 0.0
H1054 H 0.45908 0.36787 0.54059 0.0
H1055 H 0.47995 0.4002 0.65951 0.0
H1056 H 0.10358 0.10763 0.07562 0.0
H1057 H 0.13922 0.13134 0.96809 0.0
H1058 H 0.15495 0.14667 0.03633 0.0
H1059 H 0.09982 0.14584 0.15385 0.0
H1060 H 0.0991 0.13349 0.21108 0.0
H1061 H 0.09111 0.12359 0.15438 0.0
H1062 H 0.11256 0.0971 0.16653 0.0
H1063 H 0.12058 0.10689 0.22338 0.0
H1064 H 0.13593 0.10122 0.17462 0.0
H1065 H 0.16644 0.15973 0.11508 0.0
H1066 H 0.1731 0.1704 0.19883 0.0
H1067 H 0.12966 0.13908 0.25797 0.0
C1068 C 0.11484 0.11587 0.06634 0.0
C1069 C 0.12025 0.11813 1.01619 0.0
C1070 C 0.13486 0.12929 1.00595 0.0
C1071 C 0.14387 0.13806 0.04455 0.0
C1072 C 0.13809 0.13564 0.09334 0.0
C1073 C 0.12391 0.12485 0.10445 0.0
C1074 C 0.12007 0.12505 0.16003 0.0
C1075 C 0.10142 0.13243 0.17043 0.0
C1076 C 0.12243 0.10646 0.18246 0.0
C1077 C 0.13435 0.13767 0.17851 0.0
C1078 C 0.14458 0.1435 0.13917 0.0
C1079 C 0.15853 0.15524 0.1461 0.0
C1080 C 0.16219 0.16122 0.19425 0.0
C1081 C 0.15196 0.15563 0.23565 0.0
C1082 C 0.13778 0.14362 0.22743 0.0
H1083 H 0.11562 0.86867 0.51235 0.0
H1084 H 0.09745 0.91973 0.45793 0.0
H1085 H 0.10881 0.91269 0.3749 0.0
H1086 H 0.15665 0.86728 0.43448 0.0
H1087 H 0.15493 0.84375 0.4237 0.0
H1088 H 0.14657 0.85322 0.48054 0.0
H1089 H 0.11586 0.83926 0.46282 0.0
H1090 H 0.12405 0.82995 0.40565 0.0
H1091 H 0.10474 0.84407 0.40503 0.0
H1092 H 0.11889 0.89913 0.29488 0.0
H1093 H 0.13073 0.88099 0.22559 0.0
H1094 H 0.14407 0.83932 0.33026 0.0
C1095 C 0.11452 0.87852 0.48329 0.0
C1096 C 0.10557 0.89477 0.49196 0.0
C1097 C 0.10412 0.90715 0.45242 0.0
C1098 C 0.11054 0.9033 0.40487 0.0
C1099 C 0.11864 0.88699 0.39684 0.0
C1100 C 0.121 0.8749 0.435 0.0
C1101 C 0.12989 0.85819 0.41533 0.0
C1102 C 0.14809 0.85545 0.43998 0.0
C1103 C 0.11792 0.84191 0.42265 0.0
C1104 C 0.13179 0.86276 0.36047 0.0
C1105 C 0.12509 0.8794 0.35058 0.0
C1106 C 0.12447 0.88617 0.30226 0.0
C1107 C 0.13113 0.87576 0.26302 0.0
C1108 C 0.13855 0.85886 0.27235 0.0
C1109 C 0.13879 0.85234 0.32188 0.0
H1110 H 0.35973 0.84506 0.70008 0.0
H1111 H 0.3828 0.88102 0.80837 0.0
H1112 H 0.39611 0.89836 0.73998 0.0
H1113 H 0.397 0.84486 0.61608 0.0
H1114 H 0.38348 0.84381 0.56086 0.0
H1115 H 0.37551 0.83446 0.61813 0.0
H1116 H 0.34725 0.85389 0.61194 0.0
H1117 H 0.35523 0.8634 0.55485 0.0
H1118 H 0.3494 0.87761 0.60621 0.0
H1119 H 0.40658 0.91191 0.66044 0.0
H1120 H 0.41569 0.91978 0.57588 0.0
H1121 H 0.38656 0.87473 0.51711 0.0
C1122 C 0.36755 0.85662 0.70954 0.0
C1123 C 0.37011 0.86174 0.75988 0.0
C1124 C 0.38061 0.87682 0.77036 0.0
C1125 C 0.38817 0.88679 0.73166 0.0
C1126 C 0.38522 0.88146 0.6826 0.0
C1127 C 0.37531 0.86662 0.67137 0.0
C1128 C 0.37463 0.86349 0.61545 0.0
C1129 C 0.38317 0.84559 0.60184 0.0
C1130 C 0.35549 0.86467 0.59598 0.0
C1131 C 0.38572 0.87892 0.59686 0.0
C1132 C 0.39155 0.88913 0.63642 0.0
C1133 C 0.40213 0.90398 0.6293 0.0
C1134 C 0.40723 0.90833 0.58085 0.0
C1135 C 0.40191 0.8979 0.53946 0.0
C1136 C 0.39073 0.8831 0.54769 0.0
H1137 H 0.41128 0.14367 0.76923 0.0
H1138 H 0.35425 0.15081 0.77509 0.0
H1139 H 0.35459 0.14246 0.86429 0.0
H1140 H 0.41321 0.10558 0.84904 0.0
H1141 H 0.434 0.11224 0.87641 0.0
H1142 H 0.4287 0.11867 0.81377 0.0
H1143 H 0.43371 0.15164 0.8375 0.0
H1144 H 0.43877 0.14533 0.90041 0.0
H1145 H 0.42137 0.16116 0.88827 0.0
H1146 H 0.36218 0.13411 0.95649 0.0
H1147 H 0.37564 0.12378 0.03607 0.0
H1148 H 0.42714 0.12216 0.96501 0.0
C1149 C 0.39879 0.14343 0.78902 0.0
C1150 C 0.38275 0.14801 0.7651 0.0
C1151 C 0.36672 0.14734 0.79252 0.0
C1152 C 0.36682 0.14271 0.84333 0.0
C1153 C 0.38302 0.13865 0.86601 0.0
C1154 C 0.39865 0.13877 0.8392 0.0
C1155 C 0.41434 0.13361 0.87096 0.0
C1156 C 0.42307 0.11651 0.85138 0.0
C1157 C 0.42783 0.14884 0.87448 0.0
C1158 C 0.40523 0.13055 0.92008 0.0
C1159 C 0.38719 0.13363 0.91717 0.0
C1160 C 0.37629 0.13161 0.95887 0.0
C1161 C 0.38402 0.12587 1.00401 0.0
C1162 C 0.40239 0.12207 1.00663 0.0
C1163 C 0.41301 0.12479 0.96419 0.0
H1164 H 0.90515 0.86165 0.77686 0.0
H1165 H 0.84845 0.85421 0.79179 0.0
H1166 H 0.84995 0.86566 0.87815 0.0
H1167 H 0.91774 0.84918 0.89778 0.0
H1168 H 0.93472 0.86583 0.90431 0.0
H1169 H 0.92896 0.85757 0.84363 0.0
H1170 H 0.92241 0.88954 0.81357 0.0
H1171 H 0.92836 0.89794 0.874 0.0
H1172 H 0.90698 0.90316 0.84771 0.0
H1173 H 0.8588 0.87514 0.96743 0.0
H1174 H 0.87319 0.88592 0.04505 0.0
H1175 H 0.92334 0.88948 0.96745 0.0
C1176 C 0.893 0.86265 0.7981 0.0
C1177 C 0.87668 0.85699 0.77766 0.0
C1178 C 0.86107 0.85858 0.80654 0.0
C1179 C 0.86184 0.86496 0.85578 0.0
C1180 C 0.87826 0.87007 0.87523 0.0
C1181 C 0.89348 0.86937 0.84668 0.0
C1182 C 0.90945 0.87592 0.87549 0.0
C1183 C 0.92354 0.86125 0.8806 0.0
C1184 C 0.91725 0.89263 0.85125 0.0
C1185 C 0.90099 0.88016 0.92509 0.0
C1186 C 0.88303 0.87649 0.92472 0.0
C1187 C 0.87278 0.87837 0.96769 0.0
C1188 C 0.88104 0.8844 1.01167 0.0
C1189 C 0.89928 0.88883 1.01202 0.0
C1190 C 0.90927 0.88659 0.96807 0.0
H1191 H 0.86579 0.15468 0.72188 0.0
H1192 H 0.88602 0.1152 0.82457 0.0
H1193 H 0.89892 0.09857 0.75388 0.0
H1194 H 0.8553 0.12523 0.61909 0.0
H1195 H 0.86279 0.14043 0.572 0.0
H1196 H 0.85425 0.14881 0.62996 0.0
H1197 H 0.88329 0.16635 0.64445 0.0
H1198 H 0.89184 0.15817 0.58636 0.0
H1199 H 0.90424 0.15481 0.64289 0.0
H1200 H 0.90925 0.08616 0.67286 0.0
H1201 H 0.92003 0.08033 0.58854 0.0
H1202 H 0.89494 0.12871 0.53625 0.0
C1203 C 0.87282 0.14244 0.72947 0.0
C1204 C 0.87471 0.13609 0.77889 0.0
C1205 C 0.88434 0.12027 0.78723 0.0
C1206 C 0.89162 0.11071 0.74721 0.0
C1207 C 0.88938 0.11726 0.69904 0.0
C1208 C 0.88047 0.13291 0.68999 0.0
C1209 C 0.88101 0.13758 0.6349 0.0
C1210 C 0.86222 0.13804 0.61269 0.0
C1211 C 0.89067 0.15528 0.62668 0.0
C1212 C 0.89164 0.12208 0.61425 0.0
C1213 C 0.89606 0.11045 0.65208 0.0
C1214 C 0.90594 0.09522 0.64311 0.0
C1215 C 0.912 0.09204 0.5948 0.0
C1216 C 0.90843 0.10405 0.55541 0.0
C1217 C 0.89773 0.11914 0.56519 0.0
H1218 H 0.60609 0.13435 0.26254 0.0
H1219 H 0.65791 0.15752 0.28681 0.0
H1220 H 0.65647 0.14885 0.37583 0.0
H1221 H 0.58647 0.14735 0.37433 0.0
H1222 H 0.57411 0.12715 0.38287 0.0
H1223 H 0.57984 0.13433 0.32125 0.0
H1224 H 0.59539 0.10428 0.30413 0.0
H1225 H 0.58945 0.09687 0.36543 0.0
H1226 H 0.61233 0.09651 0.34619 0.0
H1227 H 0.64727 0.13983 0.46581 0.0
H1228 H 0.63333 0.12793 0.54265 0.0
H1229 H 0.58861 0.10964 0.45525 0.0
C1230 C 0.61729 0.13732 0.28641 0.0
C1231 C 0.63215 0.14652 0.26787 0.0
C1232 C 0.64652 0.15023 0.30019 0.0
C1233 C 0.64571 0.1455 0.35087 0.0
C1234 C 0.63058 0.13681 0.3683 0.0
C1235 C 0.61683 0.13243 0.3365 0.0
C1236 C 0.60203 0.12303 0.36355 0.0
C1237 C 0.58459 0.1336 0.3603 0.0
C1238 C 0.59967 0.10404 0.34365 0.0
C1239 C 0.60936 0.12302 0.41587 0.0
C1240 C 0.62576 0.13113 0.4184 0.0
C1241 C 0.63455 0.13323 0.46389 0.0
C1242 C 0.62652 0.12655 0.50741 0.0
C1243 C 0.61 0.11768 0.50488 0.0
C1244 C 0.60139 0.1161 0.45842 0.0
H1245 H 0.63935 0.83662 0.19308 0.0
H1246 H 0.63625 0.88162 0.2933 0.0
H1247 H 0.6263 0.90054 0.22347 0.0
H1248 H 0.65427 0.86013 0.08329 0.0
H1249 H 0.64073 0.84746 0.04093 0.0
H1250 H 0.64848 0.83754 0.09788 0.0
H1251 H 0.61617 0.83006 0.12239 0.0
H1252 H 0.60837 0.83981 0.06535 0.0
H1253 H 0.5998 0.8475 0.12403 0.0
H1254 H 0.61712 0.91461 0.14326 0.0
H1255 H 0.60561 0.92252 0.06091 0.0
H1256 H 0.61265 0.86816 1.01123 0.0
C1257 C 0.6367 0.85051 0.20029 0.0
C1258 C 0.63881 0.85771 0.24878 0.0
C1259 C 0.63482 0.87582 0.25669 0.0
C1260 C 0.62924 0.88668 0.21711 0.0
C1261 C 0.62746 0.8792 0.16982 0.0
C1262 C 0.6308 0.86147 0.16131 0.0
C1263 C 0.62676 0.85656 0.10746 0.0
C1264 C 0.64356 0.85004 0.08082 0.0
C1265 C 0.61189 0.84266 0.10466 0.0
C1266 C 0.62063 0.87434 0.0869 0.0
C1267 C 0.62142 0.8872 0.1236 0.0
C1268 C 0.61639 0.90463 0.11441 0.0
C1269 C 0.60986 0.90897 0.06722 0.0
C1270 C 0.60814 0.89601 0.0292 0.0
C1271 C 0.61398 0.87846 0.03905 0.0
H1272 H 0.57877 0.60705 0.58898 0.0
H1273 H 0.62364 0.62338 0.49962 0.0
H1274 H 0.63894 0.63384 0.5763 0.0
H1275 H 0.57894 0.6441 0.66861 0.0
H1276 H 0.57196 0.63165 0.72221 0.0
H1277 H 0.56577 0.62435 0.66098 0.0
H1278 H 0.57995 0.59365 0.67867 0.0
H1279 H 0.58637 0.60095 0.73986 0.0
H1280 H 0.60285 0.5924 0.69774 0.0
H1281 H 0.64892 0.64299 0.66631 0.0
H1282 H 0.65061 0.65288 0.75443 0.0
H1283 H 0.59817 0.6316 0.78033 0.0
C1284 C 0.59193 0.6126 0.58517 0.0
C1285 C 0.60008 0.61412 0.53803 0.0
C1286 C 0.61715 0.62191 0.53522 0.0
C1287 C 0.62595 0.62782 0.5787 0.0
C1288 C 0.61745 0.626 0.62467 0.0
C1289 C 0.60069 0.61872 0.6277 0.0
C1290 C 0.59361 0.61928 0.68025 0.0
C1291 C 0.57657 0.63052 0.68316 0.0
C1292 C 0.59052 0.60045 0.7003 0.0
C1293 C 0.60888 0.62818 0.70679 0.0
C1294 C 0.62273 0.63171 0.67466 0.0
C1295 C 0.63813 0.64018 0.69152 0.0
C1296 C 0.63908 0.64559 0.74178 0.0
C1297 C 0.62461 0.64278 0.7743 0.0
C1298 C 0.60952 0.63371 0.75646 0.0
H1299 H 0.64 0.33376 0.82869 0.0
H1300 H 0.635 0.38307 0.74753 0.0
H1301 H 0.62423 0.39798 0.82441 0.0
H1302 H 0.60002 0.3392 0.89947 0.0
H1303 H 0.60908 0.32856 0.95382 0.0
H1304 H 0.61704 0.32253 0.8931 0.0
H1305 H 0.64915 0.32971 0.92117 0.0
H1306 H 0.64121 0.33601 0.98175 0.0
H1307 H 0.65415 0.35139 0.94573 0.0
H1308 H 0.61517 0.40751 0.91397 0.0
H1309 H 0.60423 0.40945 1.00095 0.0
H1310 H 0.61297 0.35305 1.01865 0.0
C1311 C 0.63669 0.34774 0.82708 0.0
C1312 C 0.63854 0.35736 0.78238 0.0
C1313 C 0.63371 0.3755 0.78147 0.0
C1314 C 0.6277 0.38406 0.82504 0.0
C1315 C 0.6263 0.37418 0.86887 0.0
C1316 C 0.63034 0.35629 0.86964 0.0
C1317 C 0.6267 0.34822 0.92006 0.0
C1318 C 0.61235 0.33378 0.91638 0.0
C1319 C 0.64383 0.34091 0.94355 0.0
C1320 C 0.62004 0.36432 0.94797 0.0
C1321 C 0.62021 0.37931 0.9184 0.0
C1322 C 0.61492 0.3958 0.93714 0.0
C1323 C 0.60888 0.39684 0.98668 0.0
C1324 C 0.60785 0.38142 1.01645 0.0
C1325 C 0.61368 0.36506 0.99677 0.0
H1326 H 0.90488 0.40566 0.08852 0.0
H1327 H 0.88789 0.35987 1.00311 0.0
H1328 H 0.87617 0.34623 0.08011 0.0
H1329 H 0.9196 0.38228 0.19461 0.0
H1330 H 0.91212 0.39875 0.23844 0.0
H1331 H 0.91816 0.40524 0.17642 0.0
H1332 H 0.88727 0.41967 0.16395 0.0
H1333 H 0.88117 0.41335 0.22612 0.0
H1334 H 0.86758 0.40666 0.17425 0.0
H1335 H 0.86782 0.33697 0.16855 0.0
H1336 H 0.86235 0.33348 0.25836 0.0
H1337 H 0.88479 0.38557 0.28537 0.0
C1338 C 0.89852 0.39283 0.08567 0.0
C1339 C 0.89729 0.38387 0.03945 0.0
C1340 C 0.88889 0.36708 0.03781 0.0
C1341 C 0.88226 0.35921 0.08148 0.0
C1342 C 0.88402 0.36831 0.12653 0.0
C1343 C 0.89183 0.38484 0.12871 0.0
C1344 C 0.89247 0.39179 0.18165 0.0
C1345 C 0.91173 0.39468 0.19877 0.0
C1346 C 0.88146 0.40888 0.18678 0.0
C1347 C 0.88394 0.37653 0.20928 0.0
C1348 C 0.87917 0.36309 0.17688 0.0
C1349 C 0.87144 0.34748 0.19404 0.0
C1350 C 0.86846 0.34559 0.24533 0.0
C1351 C 0.87314 0.35922 0.27931 0.0
C1352 C 0.88096 0.3749 0.26063 0.0
H1353 H 0.85544 0.65937 0.34192 0.0
H1354 H 0.88285 0.62659 0.23367 0.0
H1355 H 0.89687 0.60979 0.3022 0.0
H1356 H 0.89141 0.66177 0.43045 0.0
H1357 H 0.87714 0.66097 0.48402 0.0
H1358 H 0.86911 0.67033 0.42668 0.0
H1359 H 0.84264 0.64851 0.42738 0.0
H1360 H 0.85061 0.63904 0.48465 0.0
H1361 H 0.84682 0.62501 0.43142 0.0
H1362 H 0.90756 0.59641 0.38172 0.0
H1363 H 0.91547 0.5877 0.46641 0.0
H1364 H 0.88163 0.62936 0.52561 0.0
C1365 C 0.86438 0.64863 0.33246 0.0
C1366 C 0.86796 0.64426 0.28209 0.0
C1367 C 0.87984 0.6302 0.27169 0.0
C1368 C 0.88785 0.62056 0.31045 0.0
C1369 C 0.88393 0.62518 0.35951 0.0
C1370 C 0.87255 0.63894 0.37071 0.0
C1371 C 0.87081 0.64132 0.42671 0.0
C1372 C 0.87752 0.65969 0.44291 0.0
C1373 C 0.85158 0.63829 0.44352 0.0
C1374 C 0.88297 0.62668 0.44541 0.0
C1375 C 0.89031 0.61756 0.40578 0.0
C1376 C 0.90193 0.60349 0.41294 0.0
C1377 C 0.90633 0.59866 0.4616 0.0
C1378 C 0.89924 0.60782 0.5033 0.0
C1379 C 0.88727 0.62202 0.49484 0.0
H1380 H 0.40578 0.41593 0.44185 0.0
H1381 H 0.38275 0.37427 0.53193 0.0
H1382 H 0.36997 0.3607 0.45588 0.0
H1383 H 0.36964 0.41979 0.35242 0.0
H1384 H 0.38446 0.4237 0.30115 0.0
H1385 H 0.39069 0.43048 0.36296 0.0
H1386 H 0.41966 0.41216 0.35594 0.0
H1387 H 0.41351 0.40525 0.29427 0.0
H1388 H 0.41843 0.38888 0.34104 0.0
H1389 H 0.36125 0.35076 0.36729 0.0
H1390 H 0.35687 0.34591 0.27723 0.0
H1391 H 0.38575 0.39433 0.24625 0.0
C1392 C 0.39787 0.40406 0.446 0.0
C1393 C 0.39528 0.39623 0.49334 0.0
C1394 C 0.38487 0.38064 0.49645 0.0
C1395 C 0.37759 0.37281 0.45327 0.0
C1396 C 0.38073 0.38075 0.40715 0.0
C1397 C 0.39055 0.39613 0.4035 0.0
C1398 C 0.39256 0.40187 0.34976 0.0
C1399 C 0.38381 0.42004 0.34107 0.0
C1400 C 0.4122 0.40204 0.33436 0.0
C1401 C 0.38249 0.38724 0.32332 0.0
C1402 C 0.37573 0.37517 0.35696 0.0
C1403 C 0.36642 0.36023 0.34089 0.0
C1404 C 0.36404 0.35755 0.28947 0.0
C1405 C 0.37092 0.36973 0.25426 0.0
C1406 C 0.38015 0.38483 0.27189 0.0
H1407 H 0.40479 0.6081 0.09455 0.0
H1408 H 0.37055 0.63324 0.98539 0.0
H1409 H 0.3544 0.64836 0.05298 0.0
H1410 H 0.37125 0.60138 0.1895 0.0
H1411 H 0.38601 0.60634 0.24038 0.0
H1412 H 0.39467 0.597 0.18374 0.0
H1413 H 0.41653 0.62328 0.1761 0.0
H1414 H 0.40791 0.63273 0.23262 0.0
H1415 H 0.40807 0.64565 0.17636 0.0
H1416 H 0.34222 0.66094 0.13101 0.0
H1417 H 0.33437 0.67071 0.21468 0.0
H1418 H 0.37659 0.63813 0.27655 0.0
C1419 C 0.39378 0.61665 0.08479 0.0
C1420 C 0.38887 0.61935 0.03434 0.0
C1421 C 0.37453 0.63085 0.02346 0.0
C1422 C 0.36528 0.63952 0.0617 0.0
C1423 C 0.37053 0.63664 0.1108 0.0
C1424 C 0.38444 0.62551 0.1226 0.0
C1425 C 0.38754 0.62511 0.17859 0.0
C1426 C 0.38469 0.60634 0.19926 0.0
C1427 C 0.40612 0.63211 0.19167 0.0
C1428 C 0.37316 0.63777 0.19644 0.0
C1429 C 0.36356 0.64417 0.15641 0.0
C1430 C 0.34963 0.65601 0.16258 0.0
C1431 C 0.34529 0.66148 0.2107 0.0
C1432 C 0.35481 0.65524 0.25286 0.0
C1433 C 0.36902 0.64318 0.24539 0.0
H1434 H 0.08758 0.61214 0.96327 0.0
H1435 H 0.1265 0.6308 0.07017 0.0
H1436 H 0.14404 0.64367 1.00139 0.0
H1437 H 0.11808 0.60078 0.86475 0.0
H1438 H 0.10362 0.60842 0.81583 0.0
H1439 H 0.09437 0.60027 0.87306 0.0
H1440 H 0.07717 0.62973 0.88457 0.0
H1441 H 0.08631 0.63792 0.82728 0.0
H1442 H 0.0891 0.65042 0.88387 0.0
H1443 H 0.15732 0.6544 0.92103 0.0
H1444 H 0.16479 0.66389 0.83647 0.0
H1445 H 0.11679 0.63911 0.78032 0.0
C1446 C 0.09986 0.61884 0.97238 0.0
C1447 C 0.10573 0.6203 0.02244 0.0
C1448 C 0.12175 0.62942 0.03239 0.0
C1449 C 0.1318 0.63674 0.99345 0.0
C1450 C 0.12564 0.63498 0.94466 0.0
C1451 C 0.10996 0.62636 0.93402 0.0
C1452 C 0.10601 0.6268 0.8785 0.0
C1453 C 0.10549 0.60794 0.85676 0.0
C1454 C 0.08862 0.63681 0.86795 0.0
C1455 C 0.12194 0.63702 0.85939 0.0
C1456 C 0.13311 0.64148 0.8983 0.0
C1457 C 0.14864 0.65099 0.89043 0.0
C1458 C 0.15275 0.65633 0.84193 0.0
C1459 C 0.14142 0.65231 0.80122 0.0
C1460 C 0.12584 0.64232 0.81029 0.0
H1461 H 0.1431 0.39763 0.75719 0.0
H1462 H 0.12195 0.34419 0.76475 0.0
H1463 H 0.11186 0.3466 0.67793 0.0
H1464 H 0.10775 0.4159 0.6802 0.0
H1465 H 0.12241 0.42997 0.64513 0.0
H1466 H 0.12783 0.42419 0.70828 0.0
H1467 H 0.15817 0.41191 0.67922 0.0
H1468 H 0.15281 0.41755 0.61594 0.0
H1469 H 0.15886 0.3951 0.63156 0.0
H1470 H 0.10465 0.35437 0.58913 0.0
H1471 H 0.09969 0.36738 0.50634 0.0
H1472 H 0.1249 0.41614 0.555 0.0
C1473 C 0.13624 0.38646 0.74076 0.0
C1474 C 0.1334 0.37066 0.7683 0.0
C1475 C 0.12439 0.35641 0.74491 0.0
C1476 C 0.11859 0.35764 0.69537 0.0
C1477 C 0.12178 0.37326 0.66923 0.0
C1478 C 0.1303 0.38748 0.69114 0.0
C1479 C 0.13203 0.40276 0.65453 0.0
C1480 C 0.1219 0.41918 0.67315 0.0
C1481 C 0.15163 0.40708 0.64474 0.0
C1482 C 0.12323 0.39488 0.60863 0.0
C1483 C 0.11745 0.37783 0.61803 0.0
C1484 C 0.10901 0.36776 0.58154 0.0
C1485 C 0.10618 0.37533 0.53451 0.0
C1486 C 0.11169 0.3929 0.52389 0.0
C1487 C 0.1205 0.40269 0.56164 0.0
H1488 H 0.15445 0.15861 0.57264 0.0
H1489 H 0.13656 0.11811 0.46954 0.0
H1490 H 0.13002 0.09832 0.54082 0.0
H1491 H 0.17382 0.12862 0.66748 0.0
H1492 H 0.1663 0.14256 0.71767 0.0
H1493 H 0.17198 0.15224 0.65861 0.0
H1494 H 0.14085 0.1668 0.65343 0.0
H1495 H 0.13517 0.1573 0.71241 0.0
H1496 H 0.12139 0.15308 0.65892 0.0
H1497 H 0.12154 0.08497 0.62356 0.0
H1498 H 0.11081 0.07968 0.70891 0.0
H1499 H 0.13488 0.12879 0.75763 0.0
C1500 C 0.14946 0.14546 0.5647 0.0
C1501 C 0.14602 0.13989 0.51535 0.0
C1502 C 0.13939 0.12261 0.50693 0.0
C1503 C 0.1357 0.11129 0.54723 0.0
C1504 C 0.13895 0.1174 0.59552 0.0
C1505 C 0.14576 0.1341 0.60424 0.0
C1506 C 0.14652 0.13831 0.6593 0.0
C1507 C 0.16581 0.14056 0.67679 0.0
C1508 C 0.13531 0.15483 0.67171 0.0
C1509 C 0.1384 0.12163 0.68053 0.0
C1510 C 0.13438 0.1096 0.64319 0.0
C1511 C 0.12504 0.09408 0.65308 0.0
C1512 C 0.11907 0.09114 0.7017 0.0
C1513 C 0.1225 0.10359 0.73994 0.0
C1514 C 0.1328 0.1187 0.72954 0.0
H1515 H 0.09847 0.90004 0.82872 0.0
H1516 H 0.14029 0.88448 0.72702 0.0
H1517 H 0.15834 0.8742 0.79869 0.0
H1518 H 0.12691 0.91414 0.93344 0.0
H1519 H 0.11182 0.9052 0.97879 0.0
H1520 H 0.10345 0.91348 0.92047 0.0
H1521 H 0.08823 0.88326 0.90356 0.0
H1522 H 0.09649 0.87496 0.96175 0.0
H1523 H 0.10133 0.86324 0.90498 0.0
H1524 H 0.16994 0.86227 0.88051 0.0
H1525 H 0.17391 0.84914 0.96386 0.0
H1526 H 0.12449 0.87281 1.01201 0.0
C1527 C 0.1116 0.89483 0.82129 0.0
C1528 C 0.11804 0.8932 0.77205 0.0
C1529 C 0.13516 0.88606 0.76431 0.0
C1530 C 0.14548 0.8802 0.80486 0.0
C1531 C 0.13851 0.8817 0.85283 0.0
C1532 C 0.12195 0.88892 0.86109 0.0
C1533 C 0.1167 0.88768 0.91539 0.0
C1534 C 0.1146 0.90623 0.93837 0.0
C1535 C 0.09969 0.87663 0.92176 0.0
C1536 C 0.13272 0.87818 0.93657 0.0
C1537 C 0.14524 0.87502 0.89996 0.0
C1538 C 0.16041 0.86502 0.90952 0.0
C1539 C 0.16257 0.85765 0.957 0.0
C1540 C 0.14972 0.86036 0.99456 0.0
C1541 C 0.13484 0.87114 0.98455 0.0
H1542 H 0.35337 0.84829 0.08969 0.0
H1543 H 0.36097 0.89416 0.99505 0.0
H1544 H 0.3656 0.91278 0.07009 0.0
H1545 H 0.33152 0.87105 0.19492 0.0
H1546 H 0.34296 0.85754 0.24 0.0
H1547 H 0.33765 0.84857 0.17968 0.0
H1548 H 0.37075 0.84071 0.16544 0.0
H1549 H 0.37602 0.84936 0.22585 0.0
H1550 H 0.38728 0.85782 0.17186 0.0
H1551 H 0.37282 0.92539 0.1548 0.0
H1552 H 0.38513 0.93014 0.23888 0.0
H1553 H 0.37277 0.87595 0.27775 0.0
C1554 C 0.35563 0.86234 0.08448 0.0
C1555 C 0.35663 0.86981 0.03632 0.0
C1556 C 0.36003 0.88817 0.03147 0.0
C1557 C 0.36254 0.89884 0.07394 0.0
C1558 C 0.36156 0.89094 0.12088 0.0
C1559 C 0.35828 0.87305 0.1262 0.0
C1560 C 0.35985 0.86724 0.17995 0.0
C1561 C 0.34192 0.86072 0.1998 0.0
C1562 C 0.37434 0.85296 0.18611 0.0
C1563 C 0.36517 0.88456 0.20422 0.0
C1564 C 0.36569 0.89818 0.1697 0.0
C1565 C 0.37202 0.91496 0.18226 0.0
C1566 C 0.37881 0.91761 0.23027 0.0
C1567 C 0.37922 0.9036 0.2652 0.0
C1568 C 0.3717 0.8871 0.25258 0.0
H1569 H 0.37502 0.12863 0.26158 0.0
H1570 H 0.39587 0.07766 0.30691 0.0
H1571 H 0.38247 0.08141 0.38972 0.0
H1572 H 0.38593 0.15015 0.36365 0.0
H1573 H 0.36686 0.16448 0.36867 0.0
H1574 H 0.37317 0.15581 0.3092 0.0
H1575 H 0.34195 0.14217 0.29734 0.0
H1576 H 0.33535 0.15109 0.3567 0.0
H1577 H 0.33303 0.12771 0.34432 0.0
H1578 H 0.37364 0.09378 0.4723 0.0
H1579 H 0.36826 0.11309 0.54539 0.0
H1580 H 0.35254 0.15569 0.44641 0.0
C1581 C 0.37576 0.11785 0.28804 0.0
C1582 C 0.38612 0.10274 0.27783 0.0
C1583 C 0.3877 0.08922 0.31402 0.0
C1584 C 0.38015 0.09124 0.36118 0.0
C1585 C 0.37094 0.10683 0.37152 0.0
C1586 C 0.36838 0.11977 0.3356 0.0
C1587 C 0.36037 0.13634 0.35811 0.0
C1588 C 0.3723 0.15263 0.3494 0.0
C1589 C 0.34155 0.13951 0.33792 0.0
C1590 C 0.35995 0.13112 0.41243 0.0
C1591 C 0.36576 0.11395 0.41951 0.0
C1592 C 0.36852 0.10706 0.46716 0.0
C1593 C 0.36548 0.1181 0.50851 0.0
C1594 C 0.35988 0.13584 0.50173 0.0
C1595 C 0.35663 0.14212 0.45304 0.0
H1596 H 0.91057 0.89615 0.34705 0.0
H1597 H 0.86574 0.88855 0.24808 0.0
H1598 H 0.84625 0.88427 0.32118 0.0
H1599 H 0.90071 0.86274 0.42721 0.0
H1600 H 0.90822 0.87392 0.48259 0.0
H1601 H 0.91753 0.87966 0.42349 0.0
H1602 H 0.90874 0.91251 0.43783 0.0
H1603 H 0.89923 0.90676 0.49705 0.0
H1604 H 0.88598 0.91809 0.45115 0.0
H1605 H 0.83309 0.87572 0.40352 0.0
H1606 H 0.8278 0.86239 0.48596 0.0
H1607 H 0.88105 0.87621 0.53142 0.0
C1608 C 0.89657 0.89401 0.34054 0.0
C1609 C 0.88965 0.89273 0.29173 0.0
C1610 C 0.87129 0.88971 0.28507 0.0
C1611 C 0.86014 0.88734 0.32642 0.0
C1612 C 0.86753 0.88825 0.37407 0.0
C1613 C 0.88535 0.8916 0.3812 0.0
C1614 C 0.89057 0.88991 0.43542 0.0
C1615 C 0.90509 0.87571 0.44256 0.0
C1616 C 0.89647 0.9079 0.45661 0.0
C1617 C 0.87308 0.88416 0.45765 0.0
C1618 C 0.85984 0.88365 0.42185 0.0
C1619 C 0.84316 0.87661 0.43209 0.0
C1620 C 0.84021 0.86918 0.47912 0.0
C1621 C 0.85381 0.86895 0.5154 0.0
C1622 C 0.87019 0.87711 0.50515 0.0
H1623 H 0.88522 0.12323 0.29433 0.0
H1624 H 0.90546 0.07229 0.24653 0.0
H1625 H 0.89206 0.07674 0.16365 0.0
H1626 H 0.84322 0.12335 0.21443 0.0
H1627 H 0.84562 0.14672 0.20228 0.0
H1628 H 0.85297 0.13764 0.26074 0.0
H1629 H 0.88412 0.15091 0.246 0.0
H1630 H 0.87707 0.15974 0.18722 0.0
H1631 H 0.89604 0.1452 0.19021 0.0
H1632 H 0.88169 0.08921 0.08183 0.0
H1633 H 0.87357 0.10797 1.00973 0.0
H1634 H 0.86018 0.15089 0.11047 0.0
C1635 C 0.88585 0.11261 0.26726 0.0
C1636 C 0.89582 0.09715 0.27714 0.0
C1637 C 0.89741 0.08397 0.23994 0.0
C1638 C 0.88992 0.08645 0.19267 0.0
C1639 C 0.88092 0.10224 0.18304 0.0
C1640 C 0.8786 0.115 0.21957 0.0
C1641 C 0.87043 0.1317 0.19801 0.0
C1642 C 0.85195 0.13504 0.22018 0.0
C1643 C 0.88265 0.14782 0.20582 0.0
C1644 C 0.86919 0.1266 0.14355 0.0
C1645 C 0.8751 0.10949 0.13564 0.0
C1646 C 0.87663 0.10248 0.08773 0.0
C1647 C 0.87205 0.11324 0.04692 0.0
C1648 C 0.86606 0.13084 0.05424 0.0
C1649 C 0.86441 0.13739 0.1034 0.0
H1650 H 0.59821 0.10316 0.83745 0.0
H1651 H 0.64293 0.11187 0.73934 0.0
H1652 H 0.66206 0.1175 0.81264 0.0
H1653 H 0.60708 0.13782 0.91646 0.0
H1654 H 0.59974 0.12682 0.97212 0.0
H1655 H 0.59068 0.12049 0.91297 0.0
H1656 H 0.6002 0.08794 0.92906 0.0
H1657 H 0.6095 0.09428 0.98823 0.0
H1658 H 0.62307 0.08299 0.94306 0.0
H1659 H 0.67505 0.12609 0.89493 0.0
H1660 H 0.68016 0.13959 0.9773 0.0
H1661 H 0.627 0.12532 0.0221 0.0
C1662 C 0.61214 0.10581 0.83123 0.0
C1663 C 0.61913 0.1069 0.78257 0.0
C1664 C 0.63732 0.11084 0.77622 0.0
C1665 C 0.64828 0.11394 0.81769 0.0
C1666 C 0.64086 0.11297 0.86516 0.0
C1667 C 0.62316 0.10906 0.87203 0.0
C1668 C 0.61783 0.11095 0.92609 0.0
C1669 C 0.60297 0.12485 0.93224 0.0
C1670 C 0.61233 0.09297 0.94789 0.0
C1671 C 0.63514 0.11728 0.94851 0.0
C1672 C 0.64837 0.11795 0.9129 0.0
C1673 C 0.66495 0.12519 0.92331 0.0
C1674 C 0.66779 0.13271 0.97031 0.0
C1675 C 0.65416 0.13292 1.00634 0.0
C1676 C 0.63788 0.12452 0.99598 0.0
H1677 H 0.62104 0.87573 0.76733 0.0
H1678 H 0.59868 0.92558 0.71766 0.0
H1679 H 0.61123 0.92072 0.63413 0.0
H1680 H 0.66195 0.87619 0.68544 0.0
H1681 H 0.66026 0.85267 0.67446 0.0
H1682 H 0.65295 0.86191 0.73274 0.0
H1683 H 0.62209 0.84759 0.71969 0.0
H1684 H 0.62919 0.8385 0.66128 0.0
H1685 H 0.60976 0.85242 0.66386 0.0
H1686 H 0.62217 0.90821 0.55225 0.0
H1687 H 0.63069 0.88912 0.48088 0.0
H1688 H 0.64525 0.84733 0.58383 0.0
C1689 C 0.61958 0.88599 0.73949 0.0
C1690 C 0.6093 0.90124 0.74924 0.0
C1691 C 0.60684 0.91397 0.71116 0.0
C1692 C 0.61389 0.91131 0.66352 0.0
C1693 C 0.62334 0.89577 0.65425 0.0
C1694 C 0.62634 0.88338 0.69136 0.0
C1695 C 0.63494 0.86683 0.67036 0.0
C1696 C 0.65364 0.86425 0.69204 0.0
C1697 C 0.6233 0.85038 0.67932 0.0
C1698 C 0.6357 0.87158 0.61567 0.0
C1699 C 0.62924 0.88842 0.607 0.0
C1700 C 0.62756 0.8951 0.55873 0.0
C1701 C 0.63242 0.8842 0.51834 0.0
C1702 C 0.63866 0.86675 0.52657 0.0
C1703 C 0.64059 0.86063 0.57605 0.0
H1704 H 0.64446 0.65524 0.10056 0.0
H1705 H 0.63145 0.61315 0.99683 0.0
H1706 H 0.62454 0.59337 0.06773 0.0
H1707 H 0.66279 0.62659 0.20236 0.0
H1708 H 0.65311 0.64057 0.24946 0.0
H1709 H 0.66024 0.65003 0.19137 0.0
H1710 H 0.62883 0.6632 0.17769 0.0
H1711 H 0.62169 0.65386 0.23556 0.0
H1712 H 0.60987 0.64867 0.17913 0.0
H1713 H 0.61391 0.58038 0.14861 0.0
H1714 H 0.60017 0.57556 0.23077 0.0
H1715 H 0.6208 0.62588 0.28199 0.0
C1716 C 0.64061 0.6417 0.0926 0.0
C1717 C 0.63855 0.6357 0.04307 0.0
C1718 C 0.63331 0.61796 0.0344 0.0
C1719 C 0.62938 0.60666 0.0745 0.0
C1720 C 0.63102 0.61323 0.12293 0.0
C1721 C 0.63667 0.63034 0.13201 0.0
C1722 C 0.63548 0.635 0.18673 0.0
C1723 C 0.65401 0.63823 0.20878 0.0
C1724 C 0.62324 0.65112 0.19524 0.0
C1725 C 0.62743 0.61812 0.20702 0.0
C1726 C 0.62524 0.60559 0.16979 0.0
C1727 C 0.61606 0.58985 0.17824 0.0
C1728 C 0.60836 0.58718 0.22506 0.0
C1729 C 0.60997 0.6001 0.26298 0.0
C1730 C 0.62015 0.61545 0.25435 0.0
H1731 H 0.64938 0.34331 0.4484 0.0
H1732 H 0.64133 0.38743 0.54953 0.0
H1733 H 0.63613 0.40723 0.47756 0.0
H1734 H 0.67014 0.36881 0.34474 0.0
H1735 H 0.65878 0.35573 0.29852 0.0
H1736 H 0.66499 0.3459 0.35706 0.0
H1737 H 0.63234 0.33663 0.372 0.0
H1738 H 0.62615 0.34626 0.31353 0.0
H1739 H 0.61515 0.35325 0.36963 0.0
H1740 H 0.62725 0.42084 0.39635 0.0
H1741 H 0.61382 0.42672 0.31425 0.0
H1742 H 0.62803 0.37389 0.26557 0.0
C1743 C 0.64697 0.35723 0.45558 0.0
C1744 C 0.64587 0.36386 0.50473 0.0
C1745 C 0.64236 0.38209 0.51229 0.0
C1746 C 0.63948 0.39343 0.47158 0.0
C1747 C 0.64031 0.38635 0.42362 0.0
C1748 C 0.64401 0.36864 0.41553 0.0
C1749 C 0.64212 0.36377 0.36108 0.0
C1750 C 0.66008 0.35823 0.33906 0.0
C1751 C 0.62811 0.34913 0.35366 0.0
C1752 C 0.63597 0.38133 0.33988 0.0
C1753 C 0.63538 0.39429 0.37641 0.0
C1754 C 0.62815 0.41098 0.36722 0.0
C1755 C 0.62065 0.41425 0.32041 0.0
C1756 C 0.62051 0.40096 0.2833 0.0
C1757 C 0.62882 0.38453 0.29256 0.0
H1758 H 0.87951 0.36818 0.77854 0.0
H1759 H 0.90079 0.41856 0.73026 0.0
H1760 H 0.88767 0.41412 0.64719 0.0
H1761 H 0.89001 0.34554 0.67419 0.0
H1762 H 0.87065 0.33158 0.67144 0.0
H1763 H 0.87796 0.34035 0.73008 0.0
H1764 H 0.84711 0.35456 0.7446 0.0
H1765 H 0.83956 0.3456 0.68617 0.0
H1766 H 0.83779 0.36905 0.69814 0.0
H1767 H 0.87711 0.40178 0.56538 0.0
H1768 H 0.86861 0.38304 0.49341 0.0
H1769 H 0.85417 0.34079 0.59483 0.0
C1770 C 0.88056 0.37864 0.7512 0.0
C1771 C 0.89079 0.39389 0.76102 0.0
C1772 C 0.89271 0.40693 0.72361 0.0
C1773 C 0.88533 0.4045 0.67625 0.0
C1774 C 0.87603 0.38893 0.66672 0.0
C1775 C 0.87338 0.37631 0.70337 0.0
C1776 C 0.86478 0.35984 0.68195 0.0
C1777 C 0.87656 0.34337 0.68988 0.0
C1778 C 0.8462 0.35711 0.70402 0.0
C1779 C 0.86371 0.36489 0.62749 0.0
C1780 C 0.87004 0.38179 0.61939 0.0
C1781 C 0.87173 0.38867 0.5714 0.0
C1782 C 0.86692 0.37793 0.53068 0.0
C1783 C 0.8606 0.3605 0.53829 0.0
C1784 C 0.85874 0.35414 0.58751 0.0
H1785 H 0.86961 0.62887 0.76512 0.0
H1786 H 0.87791 0.57386 0.80407 0.0
H1787 H 0.86579 0.57949 0.88777 0.0
H1788 H 0.88507 0.64567 0.87148 0.0
H1789 H 0.86987 0.66401 0.87767 0.0
H1790 H 0.87458 0.65504 0.81728 0.0
H1791 H 0.8412 0.64939 0.80175 0.0
H1792 H 0.83624 0.65874 0.8618 0.0
H1793 H 0.82858 0.63679 0.84622 0.0
H1794 H 0.85914 0.59245 0.97214 0.0
H1795 H 0.85526 0.61121 0.04721 0.0
H1796 H 0.8512 0.65768 0.95298 0.0
C1797 C 0.86771 0.61783 0.79023 0.0
C1798 C 0.87404 0.6008 0.77775 0.0
C1799 C 0.87253 0.58685 0.81259 0.0
C1800 C 0.86582 0.58998 0.86037 0.0
C1801 C 0.86066 0.60716 0.8728 0.0
C1802 C 0.86116 0.62081 0.83835 0.0
C1803 C 0.85703 0.63846 0.86273 0.0
C1804 C 0.87256 0.65155 0.85694 0.0
C1805 C 0.83973 0.6463 0.84189 0.0
C1806 C 0.85484 0.6327 0.91632 0.0
C1807 C 0.85686 0.61461 0.92152 0.0
C1808 C 0.85706 0.60658 0.96835 0.0
C1809 C 0.85497 0.61732 1.01084 0.0
C1810 C 0.85271 0.63586 1.00609 0.0
C1811 C 0.85253 0.6435 0.95804 0.0
H1812 H 0.36449 0.34614 0.93622 0.0
H1813 H 0.36961 0.39019 0.03906 0.0
H1814 H 0.37433 0.4105 0.96783 0.0
H1815 H 0.39827 0.35851 0.85634 0.0
H1816 H 0.38727 0.3511 0.80055 0.0
H1817 H 0.38223 0.34083 0.859 0.0
H1818 H 0.34893 0.34806 0.84608 0.0
H1819 H 0.35395 0.35855 0.78765 0.0
H1820 H 0.34215 0.37065 0.83503 0.0
H1821 H 0.38243 0.42501 0.886 0.0
H1822 H 0.39387 0.4322 0.80235 0.0
H1823 H 0.38221 0.37885 0.75297 0.0
C1824 C 0.36632 0.36011 0.94398 0.0
C1825 C 0.36664 0.36659 0.9934 0.0
C1826 C 0.3692 0.38494 1.00162 0.0
C1827 C 0.37184 0.39656 0.96132 0.0
C1828 C 0.37165 0.38963 0.91308 0.0
C1829 C 0.36887 0.37181 0.90438 0.0
C1830 C 0.37059 0.36732 0.84964 0.0
C1831 C 0.38548 0.35365 0.8409 0.0
C1832 C 0.35284 0.36076 0.82835 0.0
C1833 C 0.3754 0.38532 0.82878 0.0
C1834 C 0.37575 0.39808 0.86587 0.0
C1835 C 0.38172 0.41525 0.85655 0.0
C1836 C 0.38808 0.41927 0.80886 0.0
C1837 C 0.38825 0.40626 0.77091 0.0
C1838 C 0.38134 0.38926 0.78065 0.0
H1839 H 0.40622 0.61638 0.70297 0.0
H1840 H 0.35901 0.61263 0.79426 0.0
H1841 H 0.34041 0.61511 0.71836 0.0
H1842 H 0.39059 0.6491 0.62375 0.0
H1843 H 0.40157 0.64055 0.56931 0.0
H1844 H 0.41067 0.63627 0.62984 0.0
H1845 H 0.40986 0.6025 0.61156 0.0
H1846 H 0.40047 0.60675 0.55109 0.0
H1847 H 0.38923 0.59222 0.59379 0.0
H1848 H 0.32728 0.62123 0.63363 0.0
H1849 H 0.32069 0.63299 0.55002 0.0
H1850 H 0.37663 0.63223 0.51431 0.0
C1851 C 0.39196 0.61579 0.70724 0.0
C1852 C 0.38405 0.61423 0.75471 0.0
C1853 C 0.36535 0.61378 0.75836 0.0
C1854 C 0.35472 0.61505 0.71539 0.0
C1855 C 0.36303 0.61663 0.66917 0.0
C1856 C 0.38126 0.61706 0.66502 0.0
C1857 C 0.38704 0.6205 0.61199 0.0
C1858 C 0.39811 0.63762 0.60854 0.0
C1859 C 0.39725 0.60454 0.59087 0.0
C1860 C 0.36919 0.62258 0.58685 0.0
C1861 C 0.35549 0.61997 0.6203 0.0
C1862 C 0.33787 0.62291 0.60699 0.0
C1863 C 0.33424 0.62946 0.5593 0.0
C1864 C 0.34812 0.633 0.5254 0.0
C1865 C 0.36574 0.62887 0.53873 0.0
H1866 H 0.1426 0.65668 0.46413 0.0
H1867 H 0.12913 0.61428 0.56602 0.0
H1868 H 0.12292 0.5946 0.49409 0.0
H1869 H 0.10878 0.64957 0.38078 0.0
H1870 H 0.1215 0.65501 0.3263 0.0
H1871 H 0.12739 0.66448 0.38528 0.0
H1872 H 0.15927 0.65198 0.37557 0.0
H1873 H 0.15326 0.64235 0.31656 0.0
H1874 H 0.16245 0.62858 0.36489 0.0
H1875 H 0.11403 0.58128 0.41136 0.0
H1876 H 0.10224 0.57589 0.327 0.0
H1877 H 0.12201 0.62694 0.27925 0.0
C1878 C 0.13871 0.64313 0.47161 0.0
C1879 C 0.13641 0.637 0.52091 0.0
C1880 C 0.13112 0.61923 0.52871 0.0
C1881 C 0.12761 0.60797 0.48801 0.0
C1882 C 0.12966 0.61463 0.43985 0.0
C1883 C 0.13518 0.63182 0.43164 0.0
C1884 C 0.13476 0.63645 0.37681 0.0
C1885 C 0.12236 0.6523 0.36677 0.0
C1886 C 0.15356 0.64005 0.35732 0.0
C1887 C 0.12737 0.61943 0.35528 0.0
C1888 C 0.12481 0.60688 0.39215 0.0
C1889 C 0.11639 0.59083 0.38216 0.0
C1890 C 0.10981 0.58784 0.33406 0.0
C1891 C 0.11169 0.60079 0.29637 0.0
C1892 C 0.12111 0.61651 0.30676 0.0
H1893 H 0.12627 0.37392 0.27136 0.0
H1894 H 0.10175 0.42375 0.23117 0.0
H1895 H 0.11519 0.42191 0.14765 0.0
H1896 H 0.16795 0.37876 0.19114 0.0
H1897 H 0.16742 0.35547 0.17603 0.0
H1898 H 0.15967 0.36302 0.23575 0.0
H1899 H 0.12965 0.34737 0.21987 0.0
H1900 H 0.13709 0.3401 0.15989 0.0
H1901 H 0.11699 0.35294 0.16515 0.0
H1902 H 0.12605 0.41149 0.06356 0.0
H1903 H 0.13507 0.3943 0.98901 0.0
H1904 H 0.15259 0.35145 0.08479 0.0
C1905 C 0.12474 0.38494 0.24593 0.0
C1906 C 0.11361 0.39932 0.25809 0.0
C1907 C 0.1108 0.41297 0.22292 0.0
C1908 C 0.11828 0.41195 0.17528 0.0
C1909 C 0.12853 0.39715 0.16333 0.0
C1910 C 0.13204 0.38402 0.19804 0.0
C1911 C 0.14143 0.36842 0.17424 0.0
C1912 C 0.16024 0.3663 0.19556 0.0
C1913 C 0.13064 0.35121 0.18014 0.0
C1914 C 0.14194 0.37446 0.12058 0.0
C1915 C 0.13464 0.39113 0.11487 0.0
C1916 C 0.13222 0.39861 0.06777 0.0
C1917 C 0.13733 0.38876 0.02557 0.0
C1918 C 0.14468 0.3716 0.03084 0.0
C1919 C 0.14724 0.36463 0.07919 0.0
H1920 H 0.30064 0.15991 0.53423 0.0
H1921 H 0.27765 0.15912 0.68232 0.0
H1922 H 0.24796 0.15666 0.64525 0.0
H1923 H 0.26761 0.18552 0.47649 0.0
H1924 H 0.26807 0.17336 0.41881 0.0
H1925 H 0.28767 0.17452 0.45693 0.0
H1926 H 0.28935 0.14023 0.45923 0.0
H1927 H 0.26976 0.13892 0.42098 0.0
H1928 H 0.27041 0.12773 0.48008 0.0
H1929 H 0.22054 0.15599 0.59211 0.0
H1930 H 0.19758 0.15608 0.52643 0.0
H1931 H 0.23849 0.15577 0.41363 0.0
C1932 C 0.28956 0.15899 0.55941 0.0
C1933 C 0.29181 0.15985 0.61168 0.0
C1934 C 0.27654 0.15877 0.64233 0.0
C1935 C 0.25953 0.15724 0.62159 0.0
C1936 C 0.25791 0.1566 0.5701 0.0
C1937 C 0.27253 0.15729 0.53943 0.0
C1938 C 0.26718 0.15659 0.48516 0.0
C1939 C 0.27297 0.17351 0.45776 0.0
C1940 C 0.27461 0.13987 0.45989 0.0
C1941 C 0.24721 0.15567 0.49009 0.0
C1942 C 0.24214 0.15572 0.53944 0.0
C1943 C 0.22436 0.1558 0.55338 0.0
C1944 C 0.21144 0.15596 0.51591 0.0
C1945 C 0.21635 0.15592 0.46515 0.0
C1946 C 0.23446 0.15556 0.4522 0.0
H1947 H 0.0754 0.97574 0.69667 0.0
H1948 H 0.13082 0.96088 0.70067 0.0
H1949 H 0.13703 0.98611 0.75785 0.0
H1950 H 0.08084 0.02276 0.69997 0.0
H1951 H 0.06203 0.02642 0.73991 0.0
H1952 H 0.06243 0.00754 0.69895 0.0
H1953 H 0.05736 0.98667 0.77402 0.0
H1954 H 0.05702 0.00549 0.81526 0.0
H1955 H 0.07236 0.98755 0.8262 0.0
H1956 H 0.13696 0.01451 0.8107 0.0
H1957 H 0.13023 0.04162 0.86003 0.0
H1958 H 0.07446 0.03564 0.826 0.0
C1959 C 0.08885 0.97793 0.70938 0.0
C1960 C 0.10275 0.96669 0.69388 0.0
C1961 C 0.12011 0.96954 0.71208 0.0
C1962 C 0.1237 0.98379 0.7444 0.0
C1963 C 0.10965 0.99474 0.75883 0.0
C1964 C 0.09253 0.99176 0.74234 0.0
C1965 C 0.07963 0.00497 0.76431 0.0
C1966 C 0.07072 0.01608 0.72334 0.0
C1967 C 0.06578 0.9956 0.79689 0.0
C1968 C 0.09214 0.01606 0.79532 0.0
C1969 C 0.10945 0.01013 0.79141 0.0
C1970 C 0.12341 0.01906 0.81463 0.0
C1971 C 0.11953 0.03439 0.84246 0.0
C1972 C 0.10183 0.04036 0.84752 0.0
C1973 C 0.08803 0.031 0.82379 0.0
H1974 H 0.23017 0.82422 0.10211 0.0
H1975 H 0.20447 0.87512 0.08023 0.0
H1976 H 0.22869 0.88417 0.02405 0.0
H1977 H 0.27601 0.84067 0.09973 0.0
H1978 H 0.28408 0.82143 0.06701 0.0
H1979 H 0.26533 0.81951 0.10803 0.0
H1980 H 0.24673 0.80619 0.0361 0.0
H1981 H 0.26534 0.80823 0.99474 0.0
H1982 H 0.24443 0.8184 0.9789 0.0
H1983 H 0.25491 0.88705 0.96698 0.0
H1984 H 0.28177 0.88409 0.91571 0.0
H1985 H 0.29016 0.83105 0.97388 0.0
C1986 C 0.22984 0.83743 0.08653 0.0
C1987 C 0.21542 0.849 0.09576 0.0
C1988 C 0.21531 0.86601 0.07348 0.0
C1989 C 0.22903 0.87128 0.04164 0.0
C1990 C 0.24282 0.8594 0.03247 0.0
C1991 C 0.2434 0.84287 0.05453 0.0
C1992 C 0.25936 0.83235 0.037 0.0
C1993 C 0.27194 0.82826 0.08054 0.0
C1994 C 0.25361 0.81529 1.01009 0.0
C1995 C 0.26757 0.84548 1.00128 0.0
C1996 C 0.25785 0.86101 0.99931 0.0
C1997 C 0.26266 0.87497 0.96833 0.0
C1998 C 0.27789 0.87308 0.93892 0.0
C1999 C 0.28817 0.85731 0.94048 0.0
C2000 C 0.28279 0.84336 0.97213 0.0
H2001 H 0.43398 0.97414 0.31895 0.0
H2002 H 0.37824 0.96749 0.35218 0.0
H2003 H 0.37091 0.99242 0.29525 0.0
H2004 H 0.43441 0.02155 0.30955 0.0
H2005 H 0.44991 0.02164 0.25867 0.0
H2006 H 0.45032 0.00383 0.3031 0.0
H2007 H 0.44667 0.98109 0.23145 0.0
H2008 H 0.44603 0.99886 0.18684 0.0
H2009 H 0.42811 0.9831 0.18951 0.0
H2010 H 0.37034 0.01934 0.23686 0.0
H2011 H 0.37642 0.04447 0.17965 0.0
H2012 H 0.43229 0.03119 0.18147 0.0
C2013 C 0.42025 0.97813 0.31483 0.0
C2014 C 0.40666 0.96923 0.34058 0.0
C2015 C 0.3888 0.97436 0.33303 0.0
C2016 C 0.38456 0.98844 0.30081 0.0
C2017 C 0.39835 0.99693 0.27581 0.0
C2018 C 0.41582 0.99182 0.28225 0.0
C2019 C 0.42822 0.00256 0.25018 0.0
C2020 C 0.44149 0.01302 0.2823 0.0
C2021 C 0.43782 0.99069 0.21225 0.0
C2022 C 0.41507 0.01473 0.225 0.0
C2023 C 0.3979 0.01144 0.24036 0.0
C2024 C 0.3837 0.02182 0.22404 0.0
C2025 C 0.38722 0.036 0.1916 0.0
C2026 C 0.40472 0.03941 0.17531 0.0
C2027 C 0.41871 0.0285 0.19201 0.0
H2028 H 0.73191 0.85479 0.42878 0.0
H2029 H 0.69604 0.82226 0.51598 0.0
H2030 H 0.71924 0.81788 0.57832 0.0
H2031 H 0.77099 0.82788 0.45294 0.0
H2032 H 0.78582 0.84657 0.4562 0.0
H2033 H 0.76619 0.8477 0.41803 0.0
H2034 H 0.75627 0.87613 0.46452 0.0
H2035 H 0.77584 0.87503 0.50288 0.0
H2036 H 0.75421 0.87571 0.53122 0.0
H2037 H 0.7458 0.81729 0.63283 0.0
H2038 H 0.77508 0.81927 0.67364 0.0
H2039 H 0.79465 0.85076 0.55076 0.0
C2040 C 0.72894 0.84667 0.46077 0.0
C2041 C 0.71186 0.83923 0.46746 0.0
C2042 C 0.70868 0.82865 0.51015 0.0
C2043 C 0.72188 0.8259 0.54588 0.0
C2044 C 0.73839 0.83359 0.53845 0.0
C2045 C 0.74208 0.84361 0.49683 0.0
C2046 C 0.76114 0.85007 0.49787 0.0
C2047 C 0.77165 0.8426 0.45363 0.0
C2048 C 0.7619 0.87045 0.49921 0.0
C2049 C 0.76745 0.84212 0.54658 0.0
C2050 C 0.75404 0.83276 0.56945 0.0
C2051 C 0.75645 0.82452 0.61525 0.0
C2052 C 0.77308 0.8258 0.6383 0.0
C2053 C 0.78713 0.83512 0.61537 0.0
C2054 C 0.78422 0.84336 0.56885 0.0
H2055 H 0.91173 0.98064 0.18501 0.0
H2056 H 0.92069 0.93941 0.29469 0.0
H2057 H 0.92245 0.962 0.36036 0.0
H2058 H 0.94122 0.01229 0.23664 0.0
H2059 H 0.92738 0.03122 0.22334 0.0
H2060 H 0.926 0.01172 0.18491 0.0
H2061 H 0.89222 0.00995 0.20174 0.0
H2062 H 0.89358 0.02941 0.24052 0.0
H2063 H 0.88436 0.00918 0.26489 0.0
H2064 H 0.9251 0.98887 0.41357 0.0
H2065 H 0.92886 0.01867 0.45058 0.0
H2066 H 0.91703 0.04273 0.30828 0.0
C2067 C 0.91388 0.97637 0.22291 0.0
C2068 C 0.91629 0.95821 0.23437 0.0
C2069 C 0.91923 0.9532 0.28449 0.0
C2070 C 0.92004 0.96594 0.32231 0.0
C2071 C 0.91773 0.98369 0.30969 0.0
C2072 C 0.91467 0.98895 0.26128 0.0
C2073 C 0.91332 0.009 0.25771 0.0
C2074 C 0.92785 0.01649 0.22365 0.0
C2075 C 0.89476 0.01471 0.24018 0.0
C2076 C 0.91645 0.01414 0.31151 0.0
C2077 C 0.91885 0.99929 0.34085 0.0
C2078 C 0.92302 1.00059 0.39116 0.0
C2079 C 0.92514 0.01752 0.41185 0.0
C2080 C 0.92301 0.0329 0.38243 0.0
C2081 C 0.91827 0.03116 0.33183 0.0
H2082 H 0.79246 0.13229 0.98518 0.0
H2083 H 0.79648 0.18568 0.92717 0.0
H2084 H 0.76928 0.19417 0.9729 0.0
H2085 H 0.7445 0.12895 0.98302 0.0
H2086 H 0.74339 0.11683 0.04057 0.0
H2087 H 0.76269 0.11489 1.00165 0.0
H2088 H 0.78257 0.12434 0.07568 0.0
H2089 H 0.7633 0.12651 0.11469 0.0
H2090 H 0.77816 0.145 0.10712 0.0
H2091 H 0.74154 0.19662 0.02317 0.0
H2092 H 0.71506 0.19306 0.07639 0.0
H2093 H 0.72992 0.13862 0.10625 0.0
C2094 C 0.7874 0.14567 0.98157 0.0
C2095 C 0.79634 0.15834 0.95225 0.0
C2096 C 0.78969 0.17585 0.94935 0.0
C2097 C 0.77431 0.18075 0.97517 0.0
C2098 C 0.76592 0.16802 1.00427 0.0
C2099 C 0.77223 0.15085 1.00781 0.0
C2100 C 0.76097 0.13991 0.04287 0.0
C2101 C 0.75238 0.12422 1.01537 0.0
C2102 C 0.77191 0.13357 0.08775 0.0
C2103 C 0.74725 0.15357 0.05814 0.0
C2104 C 0.75034 0.16967 0.0352 0.0
C2105 C 0.73908 0.18414 0.04169 0.0
C2106 C 0.72413 0.18203 0.07189 0.0
C2107 C 0.7207 0.16568 0.09569 0.0
C2108 C 0.73254 0.15135 0.08925 0.0
H2109 H 0.5889 0.04659 0.75008 0.0
H2110 H 0.61626 0.02346 0.62378 0.0
H2111 H 0.61818 0.99495 0.66785 0.0
H2112 H 0.61289 0.0232 0.84575 0.0
H2113 H 0.59373 0.02001 0.88463 0.0
H2114 H 0.5949 0.03897 0.84408 0.0
H2115 H 0.56506 0.03004 0.80331 0.0
H2116 H 0.5637 0.01119 0.84409 0.0
H2117 H 0.56256 0.00807 0.77778 0.0
H2118 H 0.61702 0.96895 0.72454 0.0
H2119 H 0.61049 0.94628 0.78685 0.0
H2120 H 0.58346 0.98573 0.8771 0.0
C2121 C 0.59515 0.03553 0.73138 0.0
C2122 C 0.60259 0.03742 0.6834 0.0
C2123 C 0.61077 0.02252 0.66076 0.0
C2124 C 0.61189 0.00623 0.68548 0.0
C2125 C 0.60472 0.00493 0.7329 0.0
C2126 C 0.59634 0.01909 0.75551 0.0
C2127 C 0.58922 0.01388 0.80611 0.0
C2128 C 0.59823 0.02466 0.84759 0.0
C2129 C 0.56893 0.01591 0.8079 0.0
C2130 C 0.59474 0.99453 0.80801 0.0
C2131 C 0.60384 0.98975 0.7656 0.0
C2132 C 0.60997 0.97255 0.75807 0.0
C2133 C 0.60629 0.95973 0.79418 0.0
C2134 C 0.59643 0.96406 0.83742 0.0
C2135 C 0.59095 0.98187 0.8446 0.0
H2136 H 0.72816 0.66557 0.92459 0.0
H2137 H 0.68868 0.65474 0.03767 0.0
H2138 H 0.71222 0.65158 0.10018 0.0
H2139 H 0.76092 0.63438 0.9701 0.0
H2140 H 0.77959 0.64841 0.95621 0.0
H2141 H 0.75961 0.65004 0.91968 0.0
H2142 H 0.75773 0.68364 0.93924 0.0
H2143 H 0.77768 0.68209 0.97593 0.0
H2144 H 0.7577 0.69095 1.00303 0.0
H2145 H 0.73965 0.64922 0.15064 0.0
H2146 H 0.76975 0.64809 0.18645 0.0
H2147 H 0.79202 0.66011 0.04185 0.0
C2148 C 0.72453 0.6625 0.96248 0.0
C2149 C 0.70652 0.66066 0.97623 0.0
C2150 C 0.7023 0.65666 0.02629 0.0
C2151 C 0.7156 0.65469 0.06213 0.0
C2152 C 0.73315 0.65673 0.04753 0.0
C2153 C 0.73771 0.66054 0.99901 0.0
C2154 C 0.75769 0.66205 0.99363 0.0
C2155 C 0.76487 0.64787 0.95779 0.0
C2156 C 0.76301 0.6808 0.97698 0.0
C2157 C 0.76355 0.65846 0.04667 0.0
C2158 C 0.74914 0.65539 0.07699 0.0
C2159 C 0.75107 0.65159 0.1273 0.0
C2160 C 0.76822 0.65088 0.14726 0.0
C2161 C 0.78325 0.65399 0.11709 0.0
C2162 C 0.78081 0.65789 0.06608 0.0
H2163 H 0.58793 0.54752 0.29881 0.0
H2164 H 0.5738 0.52327 0.43913 0.0
H2165 H 0.5763 0.49357 0.40075 0.0
H2166 H 0.56324 0.51872 0.22335 0.0
H2167 H 0.57902 0.51776 0.17322 0.0
H2168 H 0.57803 0.53707 0.21251 0.0
H2169 H 0.61137 0.53372 0.23344 0.0
H2170 H 0.61258 0.51449 0.19374 0.0
H2171 H 0.61952 0.51297 0.2577 0.0
H2172 H 0.57847 0.46697 0.34676 0.0
H2173 H 0.58085 0.44457 0.28096 0.0
H2174 H 0.59281 0.48578 0.17368 0.0
C2175 C 0.58585 0.53592 0.32171 0.0
C2176 C 0.58083 0.53761 0.3721 0.0
C2177 C 0.57768 0.52218 0.40055 0.0
C2178 C 0.5791 0.50531 0.37909 0.0
C2179 C 0.58364 0.50411 0.32906 0.0
C2180 C 0.58707 0.51896 0.3007 0.0
C2181 C 0.59069 0.51396 0.24703 0.0
C2182 C 0.57692 0.52238 0.21198 0.0
C2183 C 0.60967 0.51909 0.23211 0.0
C2184 C 0.58851 0.49399 0.2496 0.0
C2185 C 0.58454 0.48865 0.29738 0.0
C2186 C 0.58156 0.47097 0.30918 0.0
C2187 C 0.58272 0.45834 0.27122 0.0
C2188 C 0.58672 0.4634 0.22174 0.0
C2189 C 0.58974 0.48151 0.21104 0.0
H2190 H 0.73258 0.34576 0.62468 0.0
H2191 H 0.69338 0.32985 0.51508 0.0
H2192 H 0.71666 0.32799 0.45156 0.0
H2193 H 0.75821 0.37322 0.54278 0.0
H2194 H 0.77932 0.36703 0.56917 0.0
H2195 H 0.75966 0.36666 0.60703 0.0
H2196 H 0.76559 0.33372 0.62878 0.0
H2197 H 0.78529 0.33401 0.59106 0.0
H2198 H 0.76827 0.31777 0.57941 0.0
H2199 H 0.74381 0.32857 0.39902 0.0
H2200 H 0.77349 0.33057 0.36141 0.0
H2201 H 0.79546 0.34645 0.5038 0.0
C2202 C 0.72895 0.34183 0.58735 0.0
C2203 C 0.71115 0.3377 0.57525 0.0
C2204 C 0.70692 0.33264 0.52586 0.0
C2205 C 0.72005 0.3317 0.48924 0.0
C2206 C 0.73741 0.33586 0.50239 0.0
C2207 C 0.74194 0.34076 0.55022 0.0
C2208 C 0.76164 0.34462 0.55418 0.0
C2209 C 0.76489 0.36404 0.56917 0.0
C2210 C 0.77073 0.33176 0.59051 0.0
C2211 C 0.7674 0.34116 0.50108 0.0
C2212 C 0.75318 0.33618 0.47187 0.0
C2213 C 0.75507 0.33246 0.42149 0.0
C2214 C 0.77199 0.33376 0.40036 0.0
C2215 C 0.78685 0.33871 0.42951 0.0
C2216 C 0.78443 0.34246 0.4806 0.0
H2217 H 0.90765 0.47836 0.88615 0.0
H2218 H 0.92157 0.4391 0.77496 0.0
H2219 H 0.92094 0.46211 0.71024 0.0
H2220 H 0.87777 0.50335 0.81161 0.0
H2221 H 0.88446 0.5247 0.83522 0.0
H2222 H 0.88659 0.50528 0.87367 0.0
H2223 H 0.92005 0.51176 0.88597 0.0
H2224 H 0.91799 0.53126 0.84777 0.0
H2225 H 0.93407 0.51443 0.83234 0.0
H2226 H 0.91642 0.48866 0.65648 0.0
H2227 H 0.91114 0.51804 0.61812 0.0
H2228 H 0.90191 0.54077 0.76365 0.0
C2229 C 0.91076 0.47473 0.84823 0.0
C2230 C 0.9148 0.45697 0.83568 0.0
C2231 C 0.91874 0.45264 0.78565 0.0
C2232 C 0.91829 0.46561 0.74851 0.0
C2233 C 0.91411 0.48294 0.76199 0.0
C2234 C 0.91067 0.48762 0.81069 0.0
C2235 C 0.90657 0.50727 0.81492 0.0
C2236 C 0.88772 0.51032 0.83504 0.0
C2237 C 0.9205 0.51674 0.84716 0.0
C2238 C 0.90798 0.51279 0.76092 0.0
C2239 C 0.9122 0.49849 0.73102 0.0
C2240 C 0.91335 0.50002 0.67954 0.0
C2241 C 0.91025 0.51666 0.65806 0.0
C2242 C 0.90631 0.53156 0.68802 0.0
C2243 C 0.90521 0.52959 0.74012 0.0
H2244 H 0.21082 0.34335 0.98931 0.0
H2245 H 0.231 0.36964 0.85769 0.0
H2246 H 0.26079 0.37061 0.8956 0.0
H2247 H 0.23751 0.36804 0.07887 0.0
H2248 H 0.24079 0.3491 0.11863 0.0
H2249 H 0.22091 0.35089 0.08169 0.0
H2250 H 0.22743 0.3202 0.0424 0.0
H2251 H 0.24734 0.31833 0.07905 0.0
H2252 H 0.24845 0.31638 1.0124 0.0
H2253 H 0.28857 0.36782 0.94634 0.0
H2254 H 0.3124 0.36194 1.00691 0.0
H2255 H 0.27427 0.33793 0.10669 0.0
C2256 C 0.22137 0.3496 0.96863 0.0
C2257 C 0.21844 0.35643 0.92025 0.0
C2258 C 0.23286 0.36413 0.89441 0.0
C2259 C 0.24983 0.36484 0.9158 0.0
C2260 C 0.25224 0.35786 0.96325 0.0
C2261 C 0.2384 0.35046 0.98948 0.0
C2262 C 0.24465 0.34357 0.03953 0.0
C2263 C 0.23542 0.35349 0.0822 0.0
C2264 C 0.2418 0.32342 0.04355 0.0
C2265 C 0.26422 0.34811 0.03713 0.0
C2266 C 0.26828 0.35636 0.99277 0.0
C2267 C 0.28554 0.36141 0.98124 0.0
C2268 C 0.29902 0.35789 1.01579 0.0
C2269 C 0.29525 0.34938 0.06152 0.0
C2270 C 0.27754 0.34459 0.07234 0.0
H2271 H 0.39975 0.52358 0.86354 0.0
H2272 H 0.40163 0.56564 0.75381 0.0
H2273 H 0.4025 0.54345 0.68688 0.0
H2274 H 0.42952 0.49474 0.8038 0.0
H2275 H 0.41793 0.47461 0.81929 0.0
H2276 H 0.41599 0.49376 0.85886 0.0
H2277 H 0.38178 0.49269 0.84995 0.0
H2278 H 0.38367 0.47351 0.81023 0.0
H2279 H 0.37193 0.49291 0.78889 0.0
H2280 H 0.40608 0.51712 0.63224 0.0
H2281 H 0.41152 0.48786 0.59332 0.0
H2282 H 0.40604 0.46251 0.73673 0.0
C2283 C 0.40002 0.52808 0.82539 0.0
C2284 C 0.40084 0.54636 0.81405 0.0
C2285 C 0.4014 0.55173 0.76361 0.0
C2286 C 0.4017 0.53922 0.7252 0.0
C2287 C 0.40125 0.52133 0.7376 0.0
C2288 C 0.4003 0.5157 0.78638 0.0
C2289 C 0.40088 0.49561 0.78937 0.0
C2290 C 0.41705 0.48932 0.81961 0.0
C2291 C 0.38353 0.48825 0.81088 0.0
C2292 C 0.40276 0.49092 0.7348 0.0
C2293 C 0.40284 0.50598 0.70562 0.0
C2294 C 0.40572 0.5052 0.65453 0.0
C2295 C 0.40883 0.48859 0.63276 0.0
C2296 C 0.40891 0.47302 0.66191 0.0
C2297 C 0.40555 0.4742 0.71345 0.0
H2298 H 0.27589 0.63599 0.45172 0.0
H2299 H 0.27859 0.69068 0.40344 0.0
H2300 H 0.25094 0.69733 0.4494 0.0
H2301 H 0.22703 0.63171 0.4501 0.0
H2302 H 0.22687 0.61824 0.50536 0.0
H2303 H 0.24562 0.61748 0.46401 0.0
H2304 H 0.26644 0.62535 0.53747 0.0
H2305 H 0.24776 0.62639 0.57888 0.0
H2306 H 0.26232 0.6452 0.57307 0.0
H2307 H 0.2242 0.69835 0.50477 0.0
H2308 H 0.20013 0.69375 0.56557 0.0
H2309 H 0.21538 0.63848 0.57946 0.0
C2310 C 0.27032 0.64921 0.44964 0.0
C2311 C 0.27913 0.66281 0.42351 0.0
C2312 C 0.27187 0.68012 0.42303 0.0
C2313 C 0.25622 0.68398 0.44895 0.0
C2314 C 0.24808 0.67038 0.47539 0.0
C2315 C 0.25483 0.65332 0.47582 0.0
C2316 C 0.24424 0.64143 0.50997 0.0
C2317 C 0.23541 0.62632 0.48059 0.0
C2318 C 0.25589 0.63417 0.55235 0.0
C2319 C 0.23062 0.65451 0.52918 0.0
C2320 C 0.23296 0.67109 0.50842 0.0
C2321 C 0.22215 0.6854 0.52098 0.0
C2322 C 0.20852 0.68266 0.55545 0.0
C2323 C 0.20589 0.66579 0.57731 0.0
C2324 C 0.21716 0.65158 0.56389 0.0
H2325 H 0.08362 0.54717 0.25905 0.0
H2326 H 0.07193 0.52556 0.11365 0.0
H2327 H 0.06678 0.49601 0.15111 0.0
H2328 H 0.10846 0.51004 0.30042 0.0
H2329 H 0.1011 0.51116 0.36401 0.0
H2330 H 0.10182 0.53099 0.32692 0.0
H2331 H 0.06863 0.53679 0.34521 0.0
H2332 H 0.06778 0.51696 0.38246 0.0
H2333 H 0.05253 0.51982 0.33144 0.0
H2334 H 0.06365 0.46906 0.20331 0.0
H2335 H 0.06507 0.44535 0.26523 0.0
H2336 H 0.08133 0.48347 0.37755 0.0
C2337 C 0.07958 0.53623 0.23554 0.0
C2338 C 0.07778 0.53854 0.18366 0.0
C2339 C 0.07313 0.52394 0.15347 0.0
C2340 C 0.07016 0.5072 0.17446 0.0
C2341 C 0.07217 0.50527 0.22568 0.0
C2342 C 0.07694 0.51931 0.25588 0.0
C2343 C 0.07971 0.51322 0.30913 0.0
C2344 C 0.09891 0.51654 0.3261 0.0
C2345 C 0.06636 0.52224 0.34412 0.0
C2346 C 0.0759 0.49352 0.304 0.0
C2347 C 0.07132 0.48937 0.25563 0.0
C2348 C 0.06734 0.47212 0.24123 0.0
C2349 C 0.06837 0.45867 0.27684 0.0
C2350 C 0.07367 0.46234 0.32645 0.0
C2351 C 0.07718 0.48014 0.3402 0.0
H2352 H 0.13943 0.25234 0.28363 0.0
H2353 H 0.16467 0.25136 0.42917 0.0
H2354 H 0.15551 0.28199 0.4432 0.0
H2355 H 0.14633 0.30022 0.25626 0.0
H2356 H 0.1246 0.30248 0.22899 0.0
H2357 H 0.13624 0.28162 0.22501 0.0
H2358 H 0.10947 0.26574 0.26551 0.0
H2359 H 0.09781 0.2865 0.26987 0.0
H2360 H 0.10141 0.27335 0.32484 0.0
H2361 H 0.1408 0.31148 0.44702 0.0
H2362 H 0.12068 0.33729 0.44027 0.0
H2363 H 0.10288 0.31857 0.29625 0.0
C2364 C 0.1433 0.25853 0.31824 0.0
C2365 C 0.15314 0.24915 0.35468 0.0
C2366 C 0.15778 0.2581 0.39941 0.0
C2367 C 0.15246 0.27561 0.40818 0.0
C2368 C 0.14233 0.28414 0.37227 0.0
C2369 C 0.13777 0.27593 0.32815 0.0
C2370 C 0.12506 0.28734 0.29831 0.0
C2371 C 0.13357 0.29327 0.24923 0.0
C2372 C 0.1074 0.27765 0.28912 0.0
C2373 C 0.12272 0.30287 0.33349 0.0
C2374 C 0.13312 0.30095 0.37541 0.0
C2375 C 0.13275 0.31326 0.41408 0.0
C2376 C 0.12132 0.32787 0.40995 0.0
C2377 C 0.11022 0.32987 0.36788 0.0
C2378 C 0.11112 0.31728 0.329 0.0
H2379 H 0.93648 0.85161 0.53792 0.0
H2380 H 0.91632 0.87028 0.67943 0.0
H2381 H 0.94367 0.8875 0.69257 0.0
H2382 H 0.98024 0.84523 0.5749 0.0
H2383 H 0.99033 0.85295 0.51829 0.0
H2384 H 0.96836 0.84369 0.51686 0.0
H2385 H 0.95629 0.87234 0.47574 0.0
H2386 H 0.9783 0.88165 0.47664 0.0
H2387 H 0.96018 0.89347 0.50515 0.0
H2388 H 0.97432 0.89877 0.69632 0.0
H2389 H 0.00582 0.90547 0.68871 0.0
H2390 H 0.00618 0.88199 0.54088 0.0
C2391 C 0.93778 0.85956 0.57124 0.0
C2392 C 0.92428 0.8597 0.60759 0.0
C2393 C 0.92637 0.87023 0.65078 0.0
C2394 C 0.94189 0.87999 0.65864 0.0
C2395 C 0.95508 0.87932 0.62257 0.0
C2396 C 0.95313 0.8696 0.57937 0.0
C2397 C 0.96974 0.87058 0.54776 0.0
C2398 C 0.97763 0.85201 0.53896 0.0
C2399 C 0.9659 0.88008 0.4984 0.0
C2400 C 0.98158 0.8817 0.58109 0.0
C2401 C 0.97275 0.88664 0.62384 0.0
C2402 C 0.98124 0.89552 0.66231 0.0
C2403 C 0.99925 0.89944 0.65722 0.0
C2404 C 0.00874 0.89476 0.6135 0.0
C2405 C 0.99954 0.8859 0.57475 0.0
H2406 H 0.40875 0.69197 0.81162 0.0
H2407 H 0.38526 0.67302 0.94862 0.0
H2408 H 0.36811 0.70077 0.9557 0.0
H2409 H 0.41336 0.73732 0.84902 0.0
H2410 H 0.40789 0.74628 0.78887 0.0
H2411 H 0.41794 0.72467 0.79363 0.0
H2412 H 0.39184 0.71115 0.74367 0.0
H2413 H 0.38165 0.73272 0.73901 0.0
H2414 H 0.36943 0.71444 0.76508 0.0
H2415 H 0.35478 0.73082 0.95054 0.0
H2416 H 0.3462 0.76159 0.93468 0.0
H2417 H 0.37696 0.76109 0.79814 0.0
C2418 C 0.40006 0.69371 0.8432 0.0
C2419 C 0.39831 0.68029 0.87955 0.0
C2420 C 0.38665 0.68301 0.92005 0.0
C2421 C 0.37688 0.69874 0.92444 0.0
C2422 C 0.37882 0.71162 0.88786 0.0
C2423 C 0.39009 0.70932 0.84799 0.0
C2424 C 0.38985 0.72545 0.81433 0.0
C2425 C 0.40836 0.73393 0.81131 0.0
C2426 C 0.38277 0.72065 0.76245 0.0
C2427 C 0.37693 0.73727 0.84209 0.0
C2428 C 0.3707 0.72895 0.88423 0.0
C2429 C 0.3593 0.73738 0.91719 0.0
C2430 C 0.35432 0.75491 0.90735 0.0
C2431 C 0.36056 0.76393 0.8645 0.0
C2432 C 0.37187 0.75475 0.83119 0.0
H2433 H 0.49725 0.13362 0.05288 0.0
H2434 H 0.50185 0.10562 0.19374 0.0
H2435 H 0.53364 0.1114 0.1948 0.0
H2436 H 0.54052 0.12221 1.00193 0.0
H2437 H 0.54436 0.14404 0.97703 0.0
H2438 H 0.52204 0.13578 0.98274 0.0
H2439 H 0.51344 0.16333 0.0351 0.0
H2440 H 0.53569 0.17169 0.02938 0.0
H2441 H 0.5261 0.16862 0.09003 0.0
H2442 H 0.56468 0.1206 0.18342 0.0
H2443 H 0.59272 0.13572 0.16465 0.0
H2444 H 0.56832 0.1609 0.03676 0.0
C2445 C 0.50483 0.12863 0.08404 0.0
C2446 C 0.49674 0.1186 0.12237 0.0
C2447 C 0.50748 0.11255 0.16241 0.0
C2448 C 0.52569 0.11594 0.1638 0.0
C2449 C 0.53311 0.12577 0.12557 0.0
C2450 C 0.52304 0.13231 0.08683 0.0
C2451 C 0.53417 0.14395 0.0531 0.0
C2452 C 0.53534 0.13602 1.00058 0.0
C2453 C 0.52692 0.16303 0.05186 0.0
C2454 C 0.55196 0.14305 0.07951 0.0
C2455 C 0.55104 0.13215 0.12061 0.0
C2456 C 0.5656 0.12914 0.15126 0.0
C2457 C 0.58152 0.13772 0.14011 0.0
C2458 C 0.58271 0.14943 0.09914 0.0
C2459 C 0.56773 0.15203 0.06828 0.0
H2460 H 0.13442 0.74961 0.13513 0.0
H2461 H 0.1319 0.76603 0.28957 0.0
H2462 H 0.12154 0.73613 0.31277 0.0
H2463 H 0.09602 0.72439 0.13429 0.0
H2464 H 0.10433 0.70717 0.09407 0.0
H2465 H 0.11329 0.72921 0.09012 0.0
H2466 H 0.14493 0.71686 0.10512 0.0
H2467 H 0.13607 0.69471 0.10886 0.0
H2468 H 0.14927 0.70343 0.15915 0.0
H2469 H 0.10861 0.70569 0.31793 0.0
H2470 H 0.0946 0.67647 0.30494 0.0
H2471 H 0.10658 0.67927 0.14784 0.0
C2472 C 0.13219 0.7468 0.17404 0.0
C2473 C 0.13404 0.76018 0.21059 0.0
C2474 C 0.13046 0.75605 0.26089 0.0
C2475 C 0.12469 0.73907 0.27447 0.0
C2476 C 0.12272 0.72631 0.23738 0.0
C2477 C 0.12651 0.72991 0.18824 0.0
C2478 C 0.12225 0.71417 0.15521 0.0
C2479 C 0.10813 0.71903 0.11614 0.0
C2480 C 0.13914 0.70686 0.13064 0.0
C2481 C 0.11502 0.70133 0.19328 0.0
C2482 C 0.11551 0.70857 0.24049 0.0
C2483 C 0.1084 0.69978 0.28128 0.0
C2484 C 0.10039 0.68326 0.27354 0.0
C2485 C 0.09965 0.67564 0.22548 0.0
C2486 C 0.10733 0.68468 0.18505 0.0
H2487 H 0.49505 0.87187 0.46491 0.0
H2488 H 0.48953 0.8819 0.30659 0.0
H2489 H 0.5198 0.87112 0.29299 0.0
H2490 H 0.54085 0.88335 0.47674 0.0
H2491 H 0.54611 0.86562 0.51915 0.0
H2492 H 0.52401 0.8747 0.51748 0.0
H2493 H 0.51118 0.84337 0.5011 0.0
H2494 H 0.53325 0.83418 0.50287 0.0
H2495 H 0.51932 0.83056 0.44932 0.0
H2496 H 0.551 0.86056 0.29605 0.0
H2497 H 0.58059 0.84806 0.31548 0.0
H2498 H 0.56533 0.84217 0.46963 0.0
C2499 C 0.50013 0.8717 0.42733 0.0
C2500 C 0.48992 0.87825 0.38714 0.0
C2501 C 0.49718 0.87767 0.3385 0.0
C2502 C 0.51436 0.87138 0.33015 0.0
C2503 C 0.5241 0.86532 0.37056 0.0
C2504 C 0.51722 0.86515 0.41808 0.0
C2505 C 0.53042 0.85736 0.45461 0.0
C2506 C 0.53565 0.87108 0.49433 0.0
C2507 C 0.5231 0.84036 0.47836 0.0
C2508 C 0.54577 0.85334 0.42009 0.0
C2509 C 0.54188 0.85822 0.37186 0.0
C2510 C 0.55417 0.8565 0.33357 0.0
C2511 C 0.57091 0.84949 0.34487 0.0
C2512 C 0.57504 0.84407 0.39378 0.0
C2513 C 0.5623 0.84598 0.43179 0.0
H2514 H 0.37665 0.25104 0.72626 0.0
H2515 H 0.36436 0.24678 0.5688 0.0
H2516 H 0.37136 0.27819 0.55779 0.0
H2517 H 0.36083 0.29663 0.74392 0.0
H2518 H 0.37881 0.30252 0.78491 0.0
H2519 H 0.37105 0.27994 0.78247 0.0
H2520 H 0.40287 0.26913 0.76224 0.0
H2521 H 0.41072 0.29165 0.76468 0.0
H2522 H 0.4144 0.27843 0.70981 0.0
H2523 H 0.38101 0.30942 0.56156 0.0
H2524 H 0.39417 0.33858 0.57996 0.0
H2525 H 0.40157 0.32298 0.73377 0.0
C2526 C 0.37531 0.25672 0.68954 0.0
C2527 C 0.36948 0.24637 0.64876 0.0
C2528 C 0.3681 0.25441 0.60122 0.0
C2529 C 0.37221 0.27229 0.59434 0.0
C2530 C 0.37788 0.28205 0.63513 0.0
C2531 C 0.37955 0.27461 0.68178 0.0
C2532 C 0.38706 0.28791 0.71851 0.0
C2533 C 0.37363 0.29199 0.7599 0.0
C2534 C 0.40482 0.28139 0.74006 0.0
C2535 C 0.38963 0.30379 0.6848 0.0
C2536 C 0.38402 0.30015 0.63704 0.0
C2537 C 0.38533 0.31253 0.59892 0.0
C2538 C 0.39275 0.32909 0.60978 0.0
C2539 C 0.39887 0.33307 0.65828 0.0
C2540 C 0.39713 0.32026 0.69628 0.0
H2541 H 0.93636 0.13663 0.93071 0.0
H2542 H 0.94327 0.19309 0.95446 0.0
H2543 H 0.97573 0.1893 0.95226 0.0
H2544 H 0.97242 0.12265 1.00654 0.0
H2545 H 0.97913 0.10465 0.96664 0.0
H2546 H 0.95632 0.11174 0.9675 0.0
H2547 H 0.95712 0.11681 0.87236 0.0
H2548 H 0.97989 0.10953 0.87111 0.0
H2549 H 0.97397 0.13092 0.84626 0.0
H2550 H 0.00715 0.17949 0.95033 0.0
H2551 H 0.03604 0.16441 0.94409 0.0
H2552 H 0.00915 0.11402 0.92328 0.0
C2553 C 0.94475 0.14818 0.93456 0.0
C2554 C 0.93736 0.16514 0.94299 0.0
C2555 C 0.94871 0.17996 0.94861 0.0
C2556 C 0.96714 0.17795 0.94727 0.0
C2557 C 0.97403 0.16102 0.94023 0.0
C2558 C 0.96325 0.14639 0.93358 0.0
C2559 C 0.97419 0.12964 0.92765 0.0
C2560 C 0.97028 0.11639 0.96959 0.0
C2561 C 0.97111 0.12123 0.87628 0.0
C2562 C 0.99274 0.13718 0.93221 0.0
C2563 C 0.9923 0.15531 0.93949 0.0
C2564 C 0.0077 0.16529 0.94475 0.0
C2565 C 0.02406 0.15655 0.94171 0.0
C2566 C 0.02491 0.13799 0.93364 0.0
C2567 C 0.00897 0.12822 0.92925 0.0
H2568 H 0.91681 0.68745 0.67111 0.0
H2569 H 0.86914 0.66028 0.71745 0.0
H2570 H 0.85355 0.6892 0.72524 0.0
H2571 H 0.9128 0.72591 0.74841 0.0
H2572 H 0.92064 0.74107 0.70166 0.0
H2573 H 0.92801 0.71834 0.7013 0.0
H2574 H 0.91695 0.71471 0.61062 0.0
H2575 H 0.90972 0.73748 0.61053 0.0
H2576 H 0.89426 0.72005 0.59562 0.0
H2577 H 0.84364 0.72149 0.72975 0.0
H2578 H 0.83923 0.75404 0.7218 0.0
H2579 H 0.89297 0.75951 0.66763 0.0
C2580 C 0.90309 0.68769 0.68288 0.0
C2581 C 0.8941 0.67182 0.69391 0.0
C2582 C 0.87611 0.67241 0.70861 0.0
C2583 C 0.86725 0.68873 0.71341 0.0
C2584 C 0.87654 0.70424 0.70253 0.0
C2585 C 0.89399 0.7038 0.68676 0.0
C2586 C 0.90076 0.72218 0.67489 0.0
C2587 C 0.91648 0.72716 0.70859 0.0
C2588 C 0.90571 0.72369 0.61964 0.0
C2589 C 0.8845 0.73311 0.68697 0.0
C2590 C 0.8707 0.72259 0.70337 0.0
C2591 C 0.85434 0.72983 0.71685 0.0
C2592 C 0.85197 0.74826 0.71253 0.0
C2593 C 0.86582 0.75907 0.6945 0.0
C2594 C 0.88227 0.75142 0.68189 0.0
H2595 H 0.01561 0.1148 0.43105 0.0
H2596 H 0.98376 0.1627 0.44077 0.0
H2597 H 0.01067 0.18083 0.4311 0.0
H2598 H 0.05372 0.13197 0.49885 0.0
H2599 H 0.06965 0.12058 0.46044 0.0
H2600 H 0.04789 0.1113 0.46934 0.0
H2601 H 0.04335 0.11036 0.37395 0.0
H2602 H 0.065 0.11985 0.36479 0.0
H2603 H 0.04573 0.13044 0.33837 0.0
H2604 H 0.0404 0.19378 0.41667 0.0
H2605 H 0.07198 0.20108 0.40661 0.0
H2606 H 0.08521 0.14505 0.40774 0.0
C2607 C 0.01435 0.1291 0.43148 0.0
C2608 C 0.99759 0.13734 0.43712 0.0
C2609 C 0.99647 0.15609 0.43754 0.0
C2610 C 0.01166 0.16651 0.43152 0.0
C2611 C 0.0279 0.15799 0.42525 0.0
C2612 C 0.02943 0.13974 0.42579 0.0
C2613 C 0.04859 0.13404 0.41884 0.0
C2614 C 0.05536 0.12387 0.4646 0.0
C2615 C 0.05079 0.12302 0.37115 0.0
C2616 C 0.05753 0.15197 0.41414 0.0
C2617 C 0.04526 0.16555 0.4176 0.0
C2618 C 0.05016 0.18328 0.41436 0.0
C2619 C 0.06814 0.18728 0.40878 0.0
C2620 C 0.0811 0.17367 0.40687 0.0
C2621 C 0.07563 0.15574 0.40866 0.0
H2622 H 0.63512 0.24852 0.23405 0.0
H2623 H 0.65093 0.24907 0.07836 0.0
H2624 H 0.64429 0.28048 0.07408 0.0
H2625 H 0.59698 0.27431 0.21193 0.0
H2626 H 0.59774 0.28605 0.27025 0.0
H2627 H 0.60705 0.26412 0.26561 0.0
H2628 H 0.63717 0.27596 0.29804 0.0
H2629 H 0.62796 0.29798 0.30261 0.0
H2630 H 0.64772 0.29419 0.26655 0.0
H2631 H 0.63438 0.31132 0.08275 0.0
H2632 H 0.61822 0.3389 0.10201 0.0
H2633 H 0.60486 0.31831 0.24746 0.0
C2634 C 0.63736 0.2551 0.199 0.0
C2635 C 0.64433 0.24591 0.15727 0.0
C2636 C 0.64669 0.25549 0.1122 0.0
C2637 C 0.64272 0.27353 0.10892 0.0
C2638 C 0.63587 0.28198 0.15044 0.0
C2639 C 0.63288 0.27309 0.19441 0.0
C2640 C 0.6232 0.2849 0.23121 0.0
C2641 C 0.60518 0.27686 0.24557 0.0
C2642 C 0.6347 0.28847 0.27734 0.0
C2643 C 0.62091 0.30157 0.20034 0.0
C2644 C 0.62878 0.29969 0.15437 0.0
C2645 C 0.62824 0.31303 0.11874 0.0
C2646 C 0.6191 0.32866 0.13002 0.0
C2647 C 0.61034 0.33067 0.1761 0.0
C2648 C 0.61143 0.31702 0.21192 0.0
H2649 H 0.42359 0.86618 0.93067 0.0
H2650 H 0.43453 0.81066 0.96085 0.0
H2651 H 0.46625 0.81739 0.96934 0.0
H2652 H 0.46273 0.87363 0.85639 0.0
H2653 H 0.46623 0.89583 0.87929 0.0
H2654 H 0.44414 0.8868 0.87689 0.0
H2655 H 0.44029 0.89333 0.97076 0.0
H2656 H 0.46243 0.90224 0.97354 0.0
H2657 H 0.45612 0.88446 1.01449 0.0
H2658 H 0.49665 0.82972 0.97404 0.0
H2659 H 0.52441 0.84666 0.96939 0.0
H2660 H 0.49444 0.89442 0.93561 0.0
C2661 C 0.43265 0.85542 0.9387 0.0
C2662 C 0.42642 0.83789 0.94571 0.0
C2663 C 0.43881 0.82424 0.95641 0.0
C2664 C 0.45692 0.82791 0.96111 0.0
C2665 C 0.46255 0.84531 0.95477 0.0
C2666 C 0.45086 0.85884 0.94338 0.0
C2667 C 0.4606 0.8763 0.9373 0.0
C2668 C 0.45829 0.88356 0.88432 0.0
C2669 C 0.45449 0.88988 0.97636 0.0
C2670 C 0.47955 0.87038 0.94677 0.0
C2671 C 0.48029 0.85247 0.95713 0.0
C2672 C 0.49626 0.84379 0.96635 0.0
C2673 C 0.51197 0.85361 0.96413 0.0
C2674 C 0.51167 0.87197 0.95277 0.0
C2675 C 0.49515 0.88044 0.94444 0.0
H2676 H 0.88983 0.32182 0.87552 0.0
H2677 H 0.94628 0.31074 0.87292 0.0
H2678 H 0.94017 0.27869 0.87275 0.0
H2679 H 0.87761 0.28406 0.95587 0.0
H2680 H 0.85724 0.27977 0.92285 0.0
H2681 H 0.86595 0.30199 0.92583 0.0
H2682 H 0.86545 0.30366 0.82975 0.0
H2683 H 0.85693 0.28139 0.82645 0.0
H2684 H 0.87704 0.28706 0.79408 0.0
H2685 H 0.92851 0.24841 0.86797 0.0
H2686 H 0.91173 0.22057 0.86448 0.0
H2687 H 0.86229 0.25016 0.87039 0.0
C2688 C 0.90083 0.31258 0.87595 0.0
C2689 C 0.91854 0.3187 0.87398 0.0
C2690 C 0.93264 0.30629 0.87381 0.0
C2691 C 0.92931 0.28808 0.87386 0.0
C2692 C 0.91177 0.28244 0.87427 0.0
C2693 C 0.89772 0.29422 0.87584 0.0
C2694 C 0.88014 0.28438 0.87475 0.0
C2695 C 0.86962 0.28775 0.92269 0.0
C2696 C 0.86925 0.28943 0.8285 0.0
C2697 C 0.88661 0.26531 0.87183 0.0
C2698 C 0.90492 0.26463 0.87152 0.0
C2699 C 0.91417 0.24872 0.86818 0.0
C2700 C 0.90448 0.23297 0.86561 0.0
C2701 C 0.88568 0.23317 0.86626 0.0
C2702 C 0.87664 0.24961 0.86958 0.0
H2703 H 0.51768 0.14217 0.59125 0.0
H2704 H 0.50622 0.0864 0.56809 0.0
H2705 H 0.47431 0.09361 0.55897 0.0
H2706 H 0.48015 0.1518 0.66385 0.0
H2707 H 0.47681 0.17365 0.63845 0.0
H2708 H 0.49871 0.16414 0.63993 0.0
H2709 H 0.50162 0.16879 0.54493 0.0
H2710 H 0.47972 0.17836 0.54315 0.0
H2711 H 0.48502 0.1597 0.50392 0.0
H2712 H 0.44337 0.10709 0.55574 0.0
H2713 H 0.41622 0.12543 0.55982 0.0
H2714 H 0.4484 0.17219 0.58575 0.0
C2715 C 0.50855 0.13148 0.58309 0.0
C2716 C 0.5145 0.11372 0.57976 0.0
C2717 C 0.50198 0.1001 0.57076 0.0
C2718 C 0.48385 0.10408 0.56533 0.0
C2719 C 0.47846 0.12175 0.56907 0.0
C2720 C 0.49049 0.13521 0.57772 0.0
C2721 C 0.48131 0.15301 0.58248 0.0
C2722 C 0.48443 0.16112 0.63425 0.0
C2723 C 0.48727 0.16571 0.54115 0.0
C2724 C 0.46218 0.14749 0.57556 0.0
C2725 C 0.46078 0.12943 0.56765 0.0
C2726 C 0.44435 0.12124 0.56175 0.0
C2727 C 0.42898 0.13177 0.56443 0.0
C2728 C 0.43011 0.15029 0.5731 0.0
C2729 C 0.44702 0.15816 0.57823 0.0
H2730 H 0.63088 0.75535 0.28475 0.0
H2731 H 0.65476 0.75653 0.43187 0.0
H2732 H 0.64731 0.72527 0.44343 0.0
H2733 H 0.59412 0.73038 0.31935 0.0
H2734 H 0.59268 0.71759 0.26288 0.0
H2735 H 0.60236 0.73938 0.26185 0.0
H2736 H 0.63112 0.72644 0.22354 0.0
H2737 H 0.62149 0.70457 0.22434 0.0
H2738 H 0.64246 0.70853 0.25458 0.0
H2739 H 0.63456 0.6951 0.44417 0.0
H2740 H 0.6169 0.66795 0.43363 0.0
H2741 H 0.60065 0.68578 0.28707 0.0
C2742 C 0.6348 0.74899 0.31908 0.0
C2743 C 0.6438 0.75851 0.35681 0.0
C2744 C 0.64847 0.74957 0.4014 0.0
C2745 C 0.64417 0.73175 0.40866 0.0
C2746 C 0.63509 0.7229 0.37118 0.0
C2747 C 0.63048 0.73114 0.32718 0.0
C2748 C 0.61941 0.71893 0.29482 0.0
C2749 C 0.60106 0.72706 0.28413 0.0
C2750 C 0.62921 0.71435 0.24645 0.0
C2751 C 0.61803 0.70287 0.32843 0.0
C2752 C 0.62741 0.70536 0.37194 0.0
C2753 C 0.62739 0.69284 0.4099 0.0
C2754 C 0.61734 0.67739 0.40347 0.0
C2755 C 0.60736 0.67463 0.35952 0.0
C2756 C 0.60799 0.68749 0.32129 0.0
H2757 H 0.07448 0.85626 0.1549 0.0
H2758 H 0.07881 0.84224 0.99943 0.0
H2759 H 0.04964 0.85606 0.98281 0.0
H2760 H 0.02971 0.84568 0.16628 0.0
H2761 H 0.02418 0.86344 0.20839 0.0
H2762 H 0.04644 0.85485 0.20675 0.0
H2763 H 0.05854 0.88638 0.18948 0.0
H2764 H 0.03627 0.8951 0.1912 0.0
H2765 H 0.05001 0.89883 0.13752 0.0
H2766 H 0.01892 0.86866 0.98464 0.0
H2767 H 0.98863 0.87888 1.00486 0.0
H2768 H 0.00376 0.88385 0.15989 0.0
C2769 C 0.0694 0.85657 0.11727 0.0
C2770 C 0.0788 0.84831 0.07833 0.0
C2771 C 0.07168 0.84848 0.02964 0.0
C2772 C 0.05521 0.85638 1.01987 0.0
C2773 C 0.04599 0.864 0.05929 0.0
C2774 C 0.05282 0.86421 0.10704 0.0
C2775 C 0.03952 0.87181 0.14345 0.0
C2776 C 0.03468 0.85813 0.18356 0.0
C2777 C 0.0465 0.88906 0.16678 0.0
C2778 C 0.02401 0.87541 0.10894 0.0
C2779 C 0.02811 0.87104 0.06046 0.0
C2780 C 0.01561 0.87231 0.02239 0.0
C2781 C 0.99841 0.87801 0.03427 0.0
C2782 C 0.99381 0.88227 0.08388 0.0
C2783 C 0.00693 0.88112 0.12142 0.0
H2784 H 0.61455 0.82818 0.88578 0.0
H2785 H 0.56057 0.81593 0.84136 0.0
H2786 H 0.5682 0.78435 0.83575 0.0
H2787 H 0.6362 0.79699 0.8086 0.0
H2788 H 0.65275 0.79035 0.85328 0.0
H2789 H 0.64323 0.81225 0.85633 0.0
H2790 H 0.63365 0.80686 0.94739 0.0
H2791 H 0.64343 0.78506 0.94494 0.0
H2792 H 0.62049 0.78765 0.96218 0.0
H2793 H 0.58173 0.75494 0.82701 0.0
H2794 H 0.59958 0.7276 0.82906 0.0
H2795 H 0.6447 0.7574 0.8845 0.0
C2796 C 0.60431 0.81877 0.87592 0.0
C2797 C 0.58704 0.82457 0.86304 0.0
C2798 C 0.57398 0.81186 0.85013 0.0
C2799 C 0.57816 0.79387 0.84698 0.0
C2800 C 0.59542 0.78866 0.85769 0.0
C2801 C 0.60822 0.80056 0.87308 0.0
C2802 C 0.62571 0.79111 0.88268 0.0
C2803 C 0.64034 0.79809 0.84816 0.0
C2804 C 0.63114 0.79277 0.93757 0.0
C2805 C 0.62067 0.77216 0.86954 0.0
C2806 C 0.60316 0.77121 0.85467 0.0
C2807 C 0.59543 0.75542 0.83898 0.0
C2808 C 0.60573 0.74001 0.83971 0.0
C2809 C 0.62353 0.74043 0.85648 0.0
C2810 C 0.63113 0.75675 0.87137 0.0
H2811 H 0.43055 0.36639 0.14927 0.0
H2812 H 0.43544 0.33241 1.02007 0.0
H2813 H 0.46427 0.34602 1.00022 0.0
H2814 H 0.45342 0.40598 0.09484 0.0
H2815 H 0.46426 0.41126 0.15274 0.0
H2816 H 0.44279 0.40076 0.15292 0.0
H2817 H 0.4553 0.37539 0.20754 0.0
H2818 H 0.47675 0.38576 0.2075 0.0
H2819 H 0.47445 0.36316 0.18661 0.0
H2820 H 0.49374 0.36043 0.99972 0.0
H2821 H 0.52249 0.37391 1.02012 0.0
H2822 H 0.49876 0.39959 0.1485 0.0
C2823 C 0.43755 0.3622 0.11619 0.0
C2824 C 0.43086 0.34836 0.08621 0.0
C2825 C 0.44047 0.34288 0.04375 0.0
C2826 C 0.45676 0.35064 0.03192 0.0
C2827 C 0.46325 0.36395 0.06281 0.0
C2828 C 0.45397 0.36976 0.10404 0.0
C2829 C 0.46476 0.38305 0.13362 0.0
C2830 C 0.45577 0.40135 0.1335 0.0
C2831 C 0.46801 0.37643 0.18696 0.0
C2832 C 0.48177 0.38323 0.10362 0.0
C2833 C 0.48047 0.37237 0.06247 0.0
C2834 C 0.49484 0.36928 0.03123 0.0
C2835 C 0.51114 0.37714 0.04302 0.0
C2836 C 0.51301 0.38794 0.08586 0.0
C2837 C 0.4979 0.39136 0.11561 0.0
H2838 H 0.88929 0.25768 0.3494 0.0
H2839 H 0.8334 0.24485 0.36199 0.0
H2840 H 0.84104 0.21293 0.36664 0.0
H2841 H 0.90181 0.21961 0.27319 0.0
H2842 H 0.92297 0.21733 0.30384 0.0
H2843 H 0.91272 0.23885 0.29862 0.0
H2844 H 0.91479 0.24267 0.39419 0.0
H2845 H 0.9248 0.22108 0.39981 0.0
H2846 H 0.90493 0.22623 0.43405 0.0
H2847 H 0.85541 0.18222 0.37418 0.0
H2848 H 0.87501 0.15581 0.37938 0.0
H2849 H 0.92097 0.18967 0.36204 0.0
C2850 C 0.87856 0.24819 0.35168 0.0
C2851 C 0.86071 0.2538 0.35481 0.0
C2852 C 0.84717 0.24088 0.35956 0.0
C2853 C 0.85139 0.22273 0.36216 0.0
C2854 C 0.86919 0.21773 0.35992 0.0
C2855 C 0.88251 0.23014 0.35434 0.0
C2856 C 0.90064 0.22157 0.35444 0.0
C2857 C 0.91008 0.22451 0.30455 0.0
C2858 C 0.91194 0.22829 0.39823 0.0
C2859 C 0.8955 0.20238 0.36124 0.0
C2860 C 0.87734 0.20033 0.36438 0.0
C2861 C 0.86965 0.18369 0.37156 0.0
C2862 C 0.88086 0.1688 0.3749 0.0
C2863 C 0.89949 0.17069 0.37095 0.0
C2864 C 0.90678 0.18776 0.36445 0.0
H2865 H 0.99066 0.62608 0.57155 0.0
H2866 H 0.9886 0.60491 0.72164 0.0
H2867 H 0.01895 0.61512 0.73653 0.0
H2868 H 0.03745 0.61748 0.54819 0.0
H2869 H 0.04073 0.63811 0.51581 0.0
H2870 H 0.01933 0.62752 0.5146 0.0
H2871 H 0.00485 0.65624 0.54869 0.0
H2872 H 0.0262 0.66689 0.55023 0.0
H2873 H 0.01298 0.66575 0.60583 0.0
H2874 H 0.04914 0.62845 0.7372 0.0
H2875 H 0.07693 0.6451 0.72355 0.0
H2876 H 0.05886 0.6595 0.57596 0.0
C2877 C 0.99656 0.62349 0.6075 0.0
C2878 C 0.98716 0.61427 0.64486 0.0
C2879 C 0.99555 0.61129 0.69146 0.0
C2880 C 0.01281 0.61723 0.70065 0.0
C2881 C 0.02155 0.62637 0.66326 0.0
C2882 C 0.01373 0.62958 0.61769 0.0
C2883 C 0.02572 0.64065 0.58501 0.0
C2884 C 0.03113 0.63032 0.53813 0.0
C2885 C 0.01691 0.65844 0.57168 0.0
C2886 C 0.04137 0.64328 0.61964 0.0
C2887 C 0.03876 0.63474 0.66438 0.0
C2888 C 0.05137 0.63517 0.70229 0.0
C2889 C 0.06709 0.6446 0.69422 0.0
C2890 C 0.06995 0.65362 0.64889 0.0
C2891 C 0.05689 0.65292 0.61122 0.0
H2892 H 0.61687 0.1744 0.68212 0.0
H2893 H 0.56054 0.18625 0.68506 0.0
H2894 H 0.56716 0.21815 0.68936 0.0
H2895 H 0.63018 0.2084 0.76748 0.0
H2896 H 0.65038 0.21388 0.73529 0.0
H2897 H 0.64145 0.19178 0.73107 0.0
H2898 H 0.64102 0.19402 0.63508 0.0
H2899 H 0.65007 0.21608 0.63898 0.0
H2900 H 0.62963 0.21228 0.60584 0.0
H2901 H 0.57936 0.24833 0.69415 0.0
H2902 H 0.59657 0.27584 0.69665 0.0
H2903 H 0.64554 0.24537 0.69213 0.0
C2904 C 0.60597 0.18375 0.68305 0.0
C2905 C 0.58816 0.17783 0.6836 0.0
C2906 C 0.57425 0.19046 0.6854 0.0
C2907 C 0.57788 0.20861 0.68763 0.0
C2908 C 0.59551 0.21399 0.68797 0.0
C2909 C 0.60937 0.20203 0.68548 0.0
C2910 C 0.6271 0.21156 0.68695 0.0
C2911 C 0.63791 0.20608 0.73294 0.0
C2912 C 0.63757 0.20829 0.63884 0.0
C2913 C 0.62096 0.23071 0.69072 0.0
C2914 C 0.60267 0.23169 0.69128 0.0
C2915 C 0.59371 0.24777 0.69416 0.0
C2916 C 0.60367 0.26335 0.6962 0.0
C2917 C 0.62249 0.26286 0.69573 0.0
C2918 C 0.63121 0.24623 0.69286 0.0
H2919 H 0.00901 0.39304 0.94502 0.0
H2920 H 0.98025 0.34335 0.95777 0.0
H2921 H 0.00833 0.32695 0.95637 0.0
H2922 H 0.04168 0.3769 0.85943 0.0
H2923 H 0.0598 0.38933 0.88589 0.0
H2924 H 0.03746 0.39767 0.89051 0.0
H2925 H 0.04053 0.39949 0.98624 0.0
H2926 H 0.06292 0.39128 0.98187 0.0
H2927 H 0.04705 0.38002 0.02055 0.0
H2928 H 0.03891 0.31557 0.95055 0.0
H2929 H 0.07092 0.30984 0.94375 0.0
H2930 H 0.08078 0.36642 0.93381 0.0
C2931 C 0.00865 0.37873 0.94786 0.0
C2932 C 0.99233 0.36958 0.95255 0.0
C2933 C 0.99249 0.3508 0.95581 0.0
C2934 C 0.00841 0.34129 0.95445 0.0
C2935 C 0.02416 0.35066 0.94955 0.0
C2936 C 0.0245 0.36894 0.94649 0.0
C2937 C 0.0434 0.37557 0.94067 0.0
C2938 C 0.04571 0.38545 0.89118 0.0
C2939 C 0.04879 0.38728 0.98498 0.0
C2940 C 0.05351 0.35814 0.94071 0.0
C2941 C 0.04206 0.34398 0.94587 0.0
C2942 C 0.04805 0.32654 0.94687 0.0
C2943 C 0.06628 0.32342 0.94321 0.0
C2944 C 0.07841 0.33766 0.93868 0.0
C2945 C 0.07186 0.35526 0.93689 0.0
H2946 H 0.91024 0.81168 0.23825 0.0
H2947 H 0.88721 0.83263 0.10259 0.0
H2948 H 0.86894 0.80569 0.09416 0.0
H2949 H 0.91341 0.76687 0.19807 0.0
H2950 H 0.90779 0.75748 0.2575 0.0
H2951 H 0.91836 0.77883 0.25443 0.0
H2952 H 0.89264 0.79261 0.30532 0.0
H2953 H 0.88195 0.77128 0.30839 0.0
H2954 H 0.87014 0.79012 0.2837 0.0
H2955 H 0.85491 0.77592 0.09701 0.0
H2956 H 0.84585 0.74515 0.1102 0.0
H2957 H 0.87669 0.74358 0.24689 0.0
C2958 C 0.90138 0.81059 0.20675 0.0
C2959 C 0.90013 0.8243 0.17109 0.0
C2960 C 0.88822 0.82243 0.13068 0.0
C2961 C 0.87782 0.80715 0.12551 0.0
C2962 C 0.87938 0.79391 0.16129 0.0
C2963 C 0.8908 0.79546 0.20121 0.0
C2964 C 0.89023 0.77904 0.23364 0.0
C2965 C 0.90853 0.77002 0.23602 0.0
C2966 C 0.88333 0.78354 0.28586 0.0
C2967 C 0.87699 0.76786 0.20501 0.0
C2968 C 0.87086 0.77677 0.1636 0.0
C2969 C 0.85933 0.76892 0.12985 0.0
C2970 C 0.85408 0.75138 0.13815 0.0
C2971 C 0.86021 0.74179 0.18025 0.0
C2972 C 0.87167 0.75038 0.21439 0.0
H2973 H 0.41943 0.64203 0.42189 0.0
H2974 H 0.42794 0.69795 0.45048 0.0
H2975 H 0.46031 0.69306 0.45111 0.0
H2976 H 0.45393 0.62639 0.50113 0.0
H2977 H 0.46056 0.60835 0.46126 0.0
H2978 H 0.43801 0.61627 0.45991 0.0
H2979 H 0.44038 0.62172 0.36514 0.0
H2980 H 0.46289 0.61366 0.36612 0.0
H2981 H 0.45807 0.63536 0.34152 0.0
H2982 H 0.49142 0.68221 0.45113 0.0
H2983 H 0.51983 0.66617 0.44783 0.0
H2984 H 0.49155 0.61682 0.42218 0.0
C2985 C 0.42818 0.65324 0.4273 0.0
C2986 C 0.42127 0.67038 0.43604 0.0
C2987 C 0.43304 0.68472 0.44403 0.0
C2988 C 0.45141 0.68208 0.44435 0.0
C2989 C 0.45782 0.66498 0.4368 0.0
C2990 C 0.44663 0.65079 0.42821 0.0
C2991 C 0.45707 0.63369 0.42279 0.0
C2992 C 0.4521 0.62039 0.46372 0.0
C2993 C 0.45445 0.62564 0.37079 0.0
C2994 C 0.47583 0.64054 0.42972 0.0
C2995 C 0.47591 0.65862 0.43771 0.0
C2996 C 0.49157 0.66802 0.44508 0.0
C2997 C 0.50765 0.65873 0.44368 0.0
C2998 C 0.508 0.64017 0.43523 0.0
C2999 C 0.49179 0.63101 0.42846 0.0
H3000 H 0.38561 0.17604 0.17557 0.0
H3001 H 0.4402 0.18812 0.21393 0.0
H3002 H 0.43304 0.2199 0.21627 0.0
H3003 H 0.37863 0.21478 0.09583 0.0
H3004 H 0.35608 0.21827 0.11579 0.0
H3005 H 0.3654 0.19625 0.11601 0.0
H3006 H 0.35758 0.19311 0.20919 0.0
H3007 H 0.34836 0.21518 0.20937 0.0
H3008 H 0.36562 0.20938 0.25285 0.0
H3009 H 0.42049 0.24989 0.21654 0.0
H3010 H 0.40335 0.27743 0.21064 0.0
H3011 H 0.35621 0.24725 0.17211 0.0
C3012 C 0.39605 0.18544 0.18382 0.0
C3013 C 0.41346 0.17957 0.19505 0.0
C3014 C 0.42674 0.19225 0.20611 0.0
C3015 C 0.42282 0.21036 0.20732 0.0
C3016 C 0.40553 0.2157 0.19723 0.0
C3017 C 0.39233 0.20373 0.18531 0.0
C3018 C 0.37483 0.2133 0.17644 0.0
C3019 C 0.36836 0.21048 0.12283 0.0
C3020 C 0.36077 0.20739 0.21422 0.0
C3021 C 0.38036 0.23245 0.18529 0.0
C3022 C 0.39814 0.23337 0.19741 0.0
C3023 C 0.40652 0.24938 0.20736 0.0
C3024 C 0.39656 0.26498 0.20447 0.0
C3025 C 0.37828 0.2646 0.19189 0.0
C3026 C 0.3701 0.24802 0.18208 0.0
H3027 H 0.48871 0.63184 1.00846 0.0
H3028 H 0.49284 0.59397 0.88654 0.0
H3029 H 0.5244 0.59988 0.88066 0.0
H3030 H 0.51515 0.66351 0.95006 0.0
H3031 H 0.52557 0.6716 1.00596 0.0
H3032 H 0.50376 0.66203 1.00873 0.0
H3033 H 0.51466 0.63944 0.07454 0.0
H3034 H 0.53653 0.64901 0.07214 0.0
H3035 H 0.53359 0.62562 0.06114 0.0
H3036 H 0.55485 0.61159 0.8806 0.0
H3037 H 0.58194 0.62975 0.88445 0.0
H3038 H 0.55826 0.6622 0.99988 0.0
C3039 C 0.49612 0.62458 0.98075 0.0
C3040 C 0.48784 0.61201 0.94902 0.0
C3041 C 0.4985 0.60304 0.9133 0.0
C3042 C 0.51663 0.60645 0.90903 0.0
C3043 C 0.52413 0.61913 0.93996 0.0
C3044 C 0.51425 0.62817 0.97492 0.0
C3045 C 0.52521 0.64263 0.99938 0.0
C3046 C 0.51693 0.66103 0.99048 0.0
C3047 C 0.52764 0.63895 0.05511 0.0
C3048 C 0.54256 0.64054 0.97156 0.0
C3049 C 0.54171 0.62663 0.93824 0.0
C3050 C 0.55579 0.62238 0.907 0.0
C3051 C 0.57115 0.63273 0.90957 0.0
C3052 C 0.57223 0.64729 0.94266 0.0
C3053 C 0.55776 0.65114 0.97425 0.0
H3054 H 0.10466 0.82354 0.61853 0.0
H3055 H 0.09559 0.83416 0.77442 0.0
H3056 H 0.10924 0.80535 0.79643 0.0
H3057 H 0.09278 0.77875 0.62332 0.0
H3058 H 0.10901 0.77115 0.57903 0.0
H3059 H 0.10087 0.79356 0.57601 0.0
H3060 H 0.13303 0.80542 0.58187 0.0
H3061 H 0.14129 0.783 0.58483 0.0
H3062 H 0.14698 0.79865 0.63293 0.0
H3063 H 0.12153 0.77452 0.80096 0.0
H3064 H 0.13102 0.7435 0.78769 0.0
H3065 H 0.13074 0.75233 0.62833 0.0
C3066 C 0.10602 0.81988 0.65722 0.0
C3067 C 0.09927 0.83096 0.69493 0.0
C3068 C 0.10074 0.82572 0.74522 0.0
C3069 C 0.10853 0.80947 0.75799 0.0
C3070 C 0.11469 0.79858 0.71993 0.0
C3071 C 0.11353 0.80354 0.67054 0.0
C3072 C 0.1197 0.7887 0.63671 0.0
C3073 C 0.10469 0.78269 0.60173 0.0
C3074 C 0.13624 0.79428 0.60736 0.0
C3075 C 0.12414 0.77455 0.67472 0.0
C3076 C 0.1214 0.78059 0.72251 0.0
C3077 C 0.12387 0.76966 0.76369 0.0
C3078 C 0.12914 0.75203 0.75579 0.0
C3079 C 0.13174 0.74543 0.70704 0.0
C3080 C 0.12932 0.757 0.66616 0.0
H3081 H 0.92399 0.3579 0.42783 0.0
H3082 H 0.93789 0.30307 0.45886 0.0
H3083 H 0.96925 0.31139 0.46507 0.0
H3084 H 0.96224 0.36688 0.35063 0.0
H3085 H 0.96481 0.38932 0.3726 0.0
H3086 H 0.94318 0.37923 0.37164 0.0
H3087 H 0.9396 0.38599 0.46545 0.0
H3088 H 0.96129 0.39599 0.4668 0.0
H3089 H 0.95611 0.37811 0.50867 0.0
H3090 H 0.99894 0.32522 0.46863 0.0
H3091 H 0.02579 0.34356 0.46365 0.0
H3092 H 0.99348 0.38962 0.42831 0.0
C3093 C 0.9336 0.34761 0.43551 0.0
C3094 C 0.92828 0.32982 0.44353 0.0
C3095 C 0.94143 0.31684 0.45372 0.0
C3096 C 0.95936 0.32141 0.45708 0.0
C3097 C 0.96408 0.33902 0.44979 0.0
C3098 C 0.95167 0.35192 0.43872 0.0
C3099 C 0.9605 0.36982 0.43154 0.0
C3100 C 0.95751 0.37672 0.37844 0.0
C3101 C 0.95399 0.38327 0.47044 0.0
C3102 C 0.97979 0.36488 0.44024 0.0
C3103 C 0.98145 0.34706 0.45107 0.0
C3104 C 0.99784 0.33923 0.4604 0.0
C3105 C 0.01301 0.34983 0.45796 0.0
C3106 C 0.01179 0.36811 0.44621 0.0
C3107 C 0.99487 0.37571 0.43744 0.0
H3108 H 0.39217 0.82141 0.3004 0.0
H3109 H 0.39043 0.83713 0.45539 0.0
H3110 H 0.37604 0.80873 0.47644 0.0
H3111 H 0.34961 0.79798 0.2991 0.0
H3112 H 0.35751 0.78092 0.2577 0.0
H3113 H 0.36667 0.80295 0.25445 0.0
H3114 H 0.39823 0.79003 0.26684 0.0
H3115 H 0.38918 0.76799 0.27035 0.0
H3116 H 0.40279 0.77635 0.32025 0.0
H3117 H 0.36463 0.77784 0.48167 0.0
H3118 H 0.35544 0.74694 0.4712 0.0
H3119 H 0.36287 0.75142 0.31157 0.0
C3120 C 0.38872 0.81888 0.33873 0.0
C3121 C 0.39245 0.83144 0.37635 0.0
C3122 C 0.38752 0.82776 0.42598 0.0
C3123 C 0.37941 0.81165 0.43828 0.0
C3124 C 0.37614 0.79947 0.40039 0.0
C3125 C 0.38047 0.80293 0.35156 0.0
C3126 C 0.37586 0.78739 0.31817 0.0
C3127 C 0.36156 0.79263 0.28011 0.0
C3128 C 0.39251 0.78 0.2924 0.0
C3129 C 0.36867 0.77445 0.35613 0.0
C3130 C 0.36893 0.78175 0.40323 0.0
C3131 C 0.36395 0.77211 0.44484 0.0
C3132 C 0.35855 0.75452 0.43828 0.0
C3133 C 0.35793 0.74667 0.39028 0.0
C3134 C 0.36304 0.75693 0.34872 0.0
H3135 H 0.99409 0.6127 0.10856 0.0
H3136 H 0.02271 0.66267 0.11476 0.0
H3137 H 0.99457 0.67891 0.11193 0.0
H3138 H 0.95884 0.62722 0.02704 0.0
H3139 H 0.94177 0.61508 0.05905 0.0
H3140 H 0.96428 0.60705 0.05958 0.0
H3141 H 0.96397 0.60677 0.15579 0.0
H3142 H 0.94148 0.61488 0.15555 0.0
H3143 H 0.95842 0.62679 0.18905 0.0
H3144 H 0.9638 0.69005 0.1087 0.0
H3145 H 0.93158 0.69545 0.10616 0.0
H3146 H 0.92202 0.63875 0.10613 0.0
C3147 C 0.99445 0.62705 0.10932 0.0
C3148 C 0.01079 0.63632 0.11075 0.0
C3149 C 0.01055 0.65515 0.11187 0.0
C3150 C 0.99457 0.66456 0.11088 0.0
C3151 C 0.97881 0.65505 0.1094 0.0
C3152 C 0.97853 0.63674 0.10881 0.0
C3153 C 0.95959 0.62991 0.10814 0.0
C3154 C 0.95591 0.61918 0.06062 0.0
C3155 C 0.95564 0.61894 0.15492 0.0
C3156 C 0.94936 0.64727 0.10832 0.0
C3157 C 0.96079 0.66157 0.10889 0.0
C3158 C 0.95469 0.67899 0.10825 0.0
C3159 C 0.93638 0.68192 0.10657 0.0
C3160 C 0.92433 0.66754 0.1058 0.0
C3161 C 0.93094 0.64998 0.10718 0.0
H3162 H 0.13752 0.26195 0.78599 0.0
H3163 H 0.16016 0.26293 0.93466 0.0
H3164 H 0.1538 0.23129 0.94388 0.0
H3165 H 0.10138 0.23489 0.81713 0.0
H3166 H 0.10099 0.22269 0.75952 0.0
H3167 H 0.10952 0.24496 0.76095 0.0
H3168 H 0.13916 0.234 0.7232 0.0
H3169 H 0.13069 0.21166 0.72148 0.0
H3170 H 0.15122 0.21634 0.75329 0.0
H3171 H 0.14273 0.2003 0.94107 0.0
H3172 H 0.12732 0.17203 0.92609 0.0
H3173 H 0.1109 0.19079 0.78063 0.0
C3174 C 0.14134 0.25551 0.82029 0.0
C3175 C 0.14972 0.2651 0.85909 0.0
C3176 C 0.15435 0.25598 0.90344 0.0
C3177 C 0.15063 0.23794 0.90938 0.0
C3178 C 0.14215 0.22904 0.87085 0.0
C3179 C 0.13757 0.23746 0.82711 0.0
C3180 C 0.12738 0.22505 0.79308 0.0
C3181 C 0.10871 0.23233 0.78204 0.0
C3182 C 0.13773 0.22156 0.74491 0.0
C3183 C 0.12659 0.20855 0.82517 0.0
C3184 C 0.1354 0.2111 0.86961 0.0
C3185 C 0.13598 0.19804 0.90613 0.0
C3186 C 0.12723 0.18197 0.89716 0.0
C3187 C 0.1179 0.17908 0.85211 0.0
C3188 C 0.11778 0.19257 0.81557 0.0
H3189 H 0.50646 0.39546 0.60415 0.0
H3190 H 0.47527 0.34721 0.59434 0.0
H3191 H 0.50252 0.32938 0.60087 0.0
H3192 H 0.54375 0.37935 0.53198 0.0
H3193 H 0.56013 0.39055 0.56942 0.0
H3194 H 0.53813 0.39968 0.56363 0.0
H3195 H 0.53506 0.39968 0.65945 0.0
H3196 H 0.55698 0.39034 0.6655 0.0
H3197 H 0.53828 0.3793 0.69325 0.0
H3198 H 0.53246 0.31667 0.61082 0.0
H3199 H 0.56428 0.30956 0.61549 0.0
H3200 H 0.57693 0.36565 0.61769 0.0
C3201 C 0.50542 0.38114 0.60313 0.0
C3202 C 0.48874 0.37273 0.59818 0.0
C3203 C 0.4879 0.35397 0.59699 0.0
C3204 C 0.50329 0.34371 0.60127 0.0
C3205 C 0.51946 0.35237 0.60667 0.0
C3206 C 0.52073 0.37064 0.60706 0.0
C3207 C 0.53991 0.37648 0.6123 0.0
C3208 C 0.54583 0.38714 0.56661 0.0
C3209 C 0.54272 0.38708 0.6605 0.0
C3210 C 0.54917 0.35861 0.6147 0.0
C3211 C 0.53701 0.34494 0.61182 0.0
C3212 C 0.54214 0.32724 0.61277 0.0
C3213 C 0.56024 0.32334 0.61529 0.0
C3214 C 0.57306 0.33704 0.61648 0.0
C3215 C 0.56741 0.35493 0.61726 0.0
loop_
_geom_bond_atom_site_label_1
_geom_bond_atom_site_label_2
_geom_bond_distance
_geom_bond_site_symmetry_2
_ccdc_geom_bond_type
C0 C1 1.351 . S
C0 N3 1.368 . S
C0 H5 0.931 . S
C1 C0 1.351 . S
C1 N2 1.373 . S
C1 H29 0.930 . S
N2 C1 1.373 . S
N2 C4 1.340 . S
N3 C0 1.368 . S
N3 C4 1.321 . S
N3 Co6 2.135 . S
C4 N2 1.340 . S
C4 N3 1.321 . S
C4 H28 0.930 . S
H5 C0 0.931 . S
Co6 N3 2.135 . S
Co6 N9 2.121 . S
Co6 O14 2.055 . S
Co6 O17 2.039 . S
Co6 N20 2.140 . S
C7 O8 1.227 . S
C7 O17 1.265 . S
O8 C7 1.227 . S
N9 Co6 2.121 . S
N9 C11 1.375 . S
N9 C12 1.313 . S
C10 C11 1.338 . S
C10 N13 1.377 . S
C10 H30 0.930 . S
C11 N9 1.375 . S
C11 C10 1.338 . S
C11 H15 0.931 . S
C12 N9 1.313 . S
C12 N13 1.344 . S
C12 H16 0.930 . S
N13 C10 1.377 . S
N13 C12 1.344 . S
O14 Co6 2.055 . S
O14 C18 1.253 . S
H15 C11 0.931 . S
H16 C12 0.930 . S
O17 Co6 2.039 . S
O17 C7 1.265 . S
C18 O14 1.253 . S
C18 O19 1.227 . S
O19 C18 1.227 . S
N20 Co6 2.140 . S
N20 C23 1.346 . S
N20 C24 1.345 . S
C21 C22 1.387 . S
C21 C25 1.391 . S
C22 C21 1.387 . S
C22 C23 1.369 . S
C22 H31 0.929 . S
C23 N20 1.346 . S
C23 C22 1.369 . S
C23 H26 0.928 . S
C24 N20 1.345 . S
C24 C25 1.371 . S
C24 H27 0.931 . S
C25 C21 1.391 . S
C25 C24 1.371 . S
C25 H32 0.930 . S
H26 C23 0.928 . S
H27 C24 0.931 . S
H28 C4 0.930 . S
H29 C1 0.930 . S
H30 C10 0.930 . S
H31 C22 0.929 . S
H32 C25 0.930 . S
C33 C34 1.351 . S
C33 N36 1.368 . S
C33 H38 0.931 . S
C34 C33 1.351 . S
C34 N35 1.373 . S
C34 H62 0.930 . S
N35 C34 1.373 . S
N35 C37 1.340 . S
N36 C33 1.368 . S
N36 C37 1.321 . S
N36 Co39 2.135 . S
C37 N35 1.340 . S
C37 N36 1.321 . S
C37 H61 0.930 . S
H38 C33 0.931 . S
Co39 N36 2.135 . S
Co39 N42 2.121 . S
Co39 O47 2.055 . S
Co39 O50 2.039 . S
Co39 N53 2.140 . S
C40 O41 1.227 . S
C40 O50 1.265 . S
O41 C40 1.227 . S
N42 Co39 2.121 . S
N42 C44 1.375 . S
N42 C45 1.313 . S
C43 C44 1.338 . S
C43 N46 1.377 . S
C43 H63 0.930 . S
C44 N42 1.375 . S
C44 C43 1.338 . S
C44 H48 0.931 . S
C45 N42 1.313 . S
C45 N46 1.344 . S
C45 H49 0.930 . S
N46 C43 1.377 . S
N46 C45 1.344 . S
O47 Co39 2.055 . S
O47 C51 1.253 . S
H48 C44 0.931 . S
H49 C45 0.930 . S
O50 Co39 2.039 . S
O50 C40 1.265 . S
C51 O47 1.253 . S
C51 O52 1.227 . S
O52 C51 1.227 . S
N53 Co39 2.140 . S
N53 C56 1.346 . S
N53 C57 1.345 . S
C54 C55 1.387 . S
C54 C58 1.391 . S
C55 C54 1.387 . S
C55 C56 1.369 . S
C55 H64 0.929 . S
C56 N53 1.346 . S
C56 C55 1.369 . S
C56 H59 0.928 . S
C57 N53 1.345 . S
C57 C58 1.371 . S
C57 H60 0.931 . S
C58 C54 1.391 . S
C58 C57 1.371 . S
C58 H65 0.930 . S
H59 C56 0.928 . S
H60 C57 0.931 . S
H61 C37 0.930 . S
H62 C34 0.930 . S
H63 C43 0.930 . S
H64 C55 0.929 . S
H65 C58 0.930 . S
C66 C67 1.351 . S
C66 N69 1.368 . S
C66 H71 0.931 . S
C67 C66 1.351 . S
C67 N68 1.373 . S
C67 H95 0.930 . S
N68 C67 1.373 . S
N68 C70 1.340 . S
N69 C66 1.368 . S
N69 C70 1.321 . S
N69 Co72 2.135 . S
C70 N68 1.340 . S
C70 N69 1.321 . S
C70 H94 0.930 . S
H71 C66 0.931 . S
Co72 N69 2.135 . S
Co72 N75 2.121 . S
Co72 O80 2.055 . S
Co72 O83 2.039 . S
Co72 N86 2.140 . S
C73 O74 1.227 . S
C73 O83 1.265 . S
O74 C73 1.227 . S
N75 Co72 2.121 . S
N75 C77 1.375 . S
N75 C78 1.313 . S
C76 C77 1.338 . S
C76 N79 1.377 . S
C76 H96 0.930 . S
C77 N75 1.375 . S
C77 C76 1.338 . S
C77 H81 0.931 . S
C78 N75 1.313 . S
C78 N79 1.344 . S
C78 H82 0.930 . S
N79 C76 1.377 . S
N79 C78 1.344 . S
O80 Co72 2.055 . S
O80 C84 1.253 . S
H81 C77 0.931 . S
H82 C78 0.930 . S
O83 Co72 2.039 . S
O83 C73 1.265 . S
C84 O80 1.253 . S
C84 O85 1.227 . S
O85 C84 1.227 . S
N86 Co72 2.140 . S
N86 C89 1.346 . S
N86 C90 1.345 . S
C87 C88 1.387 . S
C87 C91 1.391 . S
C88 C87 1.387 . S
C88 C89 1.369 . S
C88 H97 0.929 . S
C89 N86 1.346 . S
C89 C88 1.369 . S
C89 H92 0.928 . S
C90 N86 1.345 . S
C90 C91 1.371 . S
C90 H93 0.931 . S
C91 C87 1.391 . S
C91 C90 1.371 . S
C91 H98 0.930 . S
H92 C89 0.928 . S
H93 C90 0.931 . S
H94 C70 0.930 . S
H95 C67 0.930 . S
H96 C76 0.930 . S
H97 C88 0.929 . S
H98 C91 0.930 . S
C99 C100 1.351 . S
C99 N102 1.368 . S
C99 H104 0.931 . S
C100 C99 1.351 . S
C100 N101 1.373 . S
C100 H128 0.930 . S
N101 C100 1.373 . S
N101 C103 1.340 . S
N102 C99 1.368 . S
N102 C103 1.321 . S
N102 Co105 2.135 . S
C103 N101 1.340 . S
C103 N102 1.321 . S
C103 H127 0.930 . S
H104 C99 0.931 . S
Co105 N102 2.135 . S
Co105 N108 2.121 . S
Co105 O113 2.055 . S
Co105 O116 2.039 . S
Co105 N119 2.140 . S
C106 O107 1.227 . S
C106 O116 1.265 . S
O107 C106 1.227 . S
N108 Co105 2.121 . S
N108 C110 1.375 . S
N108 C111 1.313 . S
C109 C110 1.338 . S
C109 N112 1.377 . S
C109 H129 0.930 . S
C110 N108 1.375 . S
C110 C109 1.338 . S
C110 H114 0.931 . S
C111 N108 1.313 . S
C111 N112 1.344 . S
C111 H115 0.930 . S
N112 C109 1.377 . S
N112 C111 1.344 . S
O113 Co105 2.055 . S
O113 C117 1.253 . S
H114 C110 0.931 . S
H115 C111 0.930 . S
O116 Co105 2.039 . S
O116 C106 1.265 . S
C117 O113 1.253 . S
C117 O118 1.227 . S
O118 C117 1.227 . S
N119 Co105 2.140 . S
N119 C122 1.346 . S
N119 C123 1.345 . S
C120 C121 1.387 . S
C120 C124 1.391 . S
C121 C120 1.387 . S
C121 C122 1.369 . S
C121 H130 0.929 . S
C122 N119 1.346 . S
C122 C121 1.369 . S
C122 H125 0.928 . S
C123 N119 1.345 . S
C123 C124 1.371 . S
C123 H126 0.931 . S
C124 C120 1.391 . S
C124 C123 1.371 . S
C124 H131 0.930 . S
H125 C122 0.928 . S
H126 C123 0.931 . S
H127 C103 0.930 . S
H128 C100 0.930 . S
H129 C109 0.930 . S
H130 C121 0.929 . S
H131 C124 0.930 . S
C132 C133 1.351 . S
C132 N135 1.368 . S
C132 H137 0.931 . S
C133 C132 1.351 . S
C133 N134 1.373 . S
C133 H161 0.930 . S
N134 C133 1.373 . S
N134 C136 1.340 . S
N135 C132 1.368 . S
N135 C136 1.321 . S
N135 Co138 2.135 . S
C136 N134 1.340 . S
C136 N135 1.321 . S
C136 H160 0.930 . S
H137 C132 0.931 . S
Co138 N135 2.135 . S
Co138 N141 2.121 . S
Co138 O146 2.055 . S
Co138 O149 2.039 . S
Co138 N152 2.140 . S
C139 O140 1.227 . S
C139 O149 1.265 . S
O140 C139 1.227 . S
N141 Co138 2.121 . S
N141 C143 1.375 . S
N141 C144 1.313 . S
C142 C143 1.338 . S
C142 N145 1.377 . S
C142 H162 0.930 . S
C143 N141 1.375 . S
C143 C142 1.338 . S
C143 H147 0.931 . S
C144 N141 1.313 . S
C144 N145 1.344 . S
C144 H148 0.930 . S
N145 C142 1.377 . S
N145 C144 1.344 . S
O146 Co138 2.055 . S
O146 C150 1.253 . S
H147 C143 0.931 . S
H148 C144 0.930 . S
O149 Co138 2.039 . S
O149 C139 1.265 . S
C150 O146 1.253 . S
C150 O151 1.227 . S
O151 C150 1.227 . S
N152 Co138 2.140 . S
N152 C155 1.346 . S
N152 C156 1.345 . S
C153 C154 1.387 . S
C153 C157 1.391 . S
C154 C153 1.387 . S
C154 C155 1.369 . S
C154 H163 0.929 . S
C155 N152 1.346 . S
C155 C154 1.369 . S
C155 H158 0.928 . S
C156 N152 1.345 . S
C156 C157 1.371 . S
C156 H159 0.931 . S
C157 C153 1.391 . S
C157 C156 1.371 . S
C157 H164 0.930 . S
H158 C155 0.928 . S
H159 C156 0.931 . S
H160 C136 0.930 . S
H161 C133 0.930 . S
H162 C142 0.930 . S
H163 C154 0.929 . S
H164 C157 0.930 . S
C165 C166 1.351 . S
C165 N168 1.368 . S
C165 H170 0.931 . S
C166 C165 1.351 . S
C166 N167 1.373 . S
C166 H194 0.930 . S
N167 C166 1.373 . S
N167 C169 1.340 . S
N168 C165 1.368 . S
N168 C169 1.321 . S
N168 Co171 2.135 . S
C169 N167 1.340 . S
C169 N168 1.321 . S
C169 H193 0.930 . S
H170 C165 0.931 . S
Co171 N168 2.135 . S
Co171 N174 2.121 . S
Co171 O179 2.055 . S
Co171 O182 2.039 . S
Co171 N185 2.140 . S
C172 O173 1.227 . S
C172 O182 1.265 . S
O173 C172 1.227 . S
N174 Co171 2.121 . S
N174 C176 1.375 . S
N174 C177 1.313 . S
C175 C176 1.338 . S
C175 N178 1.377 . S
C175 H195 0.930 . S
C176 N174 1.375 . S
C176 C175 1.338 . S
C176 H180 0.931 . S
C177 N174 1.313 . S
C177 N178 1.344 . S
C177 H181 0.930 . S
N178 C175 1.377 . S
N178 C177 1.344 . S
O179 Co171 2.055 . S
O179 C183 1.253 . S
H180 C176 0.931 . S
H181 C177 0.930 . S
O182 Co171 2.039 . S
O182 C172 1.265 . S
C183 O179 1.253 . S
C183 O184 1.227 . S
O184 C183 1.227 . S
N185 Co171 2.140 . S
N185 C188 1.346 . S
N185 C189 1.345 . S
C186 C187 1.387 . S
C186 C190 1.391 . S
C187 C186 1.387 . S
C187 C188 1.369 . S
C187 H196 0.929 . S
C188 N185 1.346 . S
C188 C187 1.369 . S
C188 H191 0.928 . S
C189 N185 1.345 . S
C189 C190 1.371 . S
C189 H192 0.931 . S
C190 C186 1.391 . S
C190 C189 1.371 . S
C190 H197 0.930 . S
H191 C188 0.928 . S
H192 C189 0.931 . S
H193 C169 0.930 . S
H194 C166 0.930 . S
H195 C175 0.930 . S
H196 C187 0.929 . S
H197 C190 0.930 . S
C198 C199 1.351 . S
C198 N201 1.368 . S
C198 H203 0.931 . S
C199 C198 1.351 . S
C199 N200 1.373 . S
C199 H227 0.930 . S
N200 C199 1.373 . S
N200 C202 1.340 . S
N201 C198 1.368 . S
N201 C202 1.321 . S
N201 Co204 2.135 . S
C202 N200 1.340 . S
C202 N201 1.321 . S
C202 H226 0.930 . S
H203 C198 0.931 . S
Co204 N201 2.135 . S
Co204 N207 2.121 . S
Co204 O212 2.055 . S
Co204 O215 2.039 . S
Co204 N218 2.140 . S
C205 O206 1.227 . S
C205 O215 1.265 . S
O206 C205 1.227 . S
N207 Co204 2.121 . S
N207 C209 1.375 . S
N207 C210 1.313 . S
C208 C209 1.338 . S
C208 N211 1.377 . S
C208 H228 0.930 . S
C209 N207 1.375 . S
C209 C208 1.338 . S
C209 H213 0.931 . S
C210 N207 1.313 . S
C210 N211 1.344 . S
C210 H214 0.930 . S
N211 C208 1.377 . S
N211 C210 1.344 . S
O212 Co204 2.055 . S
O212 C216 1.253 . S
H213 C209 0.931 . S
H214 C210 0.930 . S
O215 Co204 2.039 . S
O215 C205 1.265 . S
C216 O212 1.253 . S
C216 O217 1.227 . S
O217 C216 1.227 . S
N218 Co204 2.140 . S
N218 C221 1.346 . S
N218 C222 1.345 . S
C219 C220 1.387 . S
C219 C223 1.391 . S
C220 C219 1.387 . S
C220 C221 1.369 . S
C220 H229 0.929 . S
C221 N218 1.346 . S
C221 C220 1.369 . S
C221 H224 0.928 . S
C222 N218 1.345 . S
C222 C223 1.371 . S
C222 H225 0.931 . S
C223 C219 1.391 . S
C223 C222 1.371 . S
C223 H230 0.930 . S
H224 C221 0.928 . S
H225 C222 0.931 . S
H226 C202 0.930 . S
H227 C199 0.930 . S
H228 C208 0.930 . S
H229 C220 0.929 . S
H230 C223 0.930 . S
C231 C232 1.351 . S
C231 N234 1.368 . S
C231 H236 0.931 . S
C232 C231 1.351 . S
C232 N233 1.373 . S
C232 H260 0.930 . S
N233 C232 1.373 . S
N233 C235 1.340 . S
N234 C231 1.368 . S
N234 C235 1.321 . S
N234 Co237 2.135 . S
C235 N233 1.340 . S
C235 N234 1.321 . S
C235 H259 0.930 . S
H236 C231 0.931 . S
Co237 N234 2.135 . S
Co237 N240 2.121 . S
Co237 O245 2.055 . S
Co237 O248 2.039 . S
Co237 N251 2.140 . S
C238 O239 1.227 . S
C238 O248 1.265 . S
O239 C238 1.227 . S
N240 Co237 2.121 . S
N240 C242 1.375 . S
N240 C243 1.313 . S
C241 C242 1.338 . S
C241 N244 1.377 . S
C241 H261 0.930 . S
C242 N240 1.375 . S
C242 C241 1.338 . S
C242 H246 0.931 . S
C243 N240 1.313 . S
C243 N244 1.344 . S
C243 H247 0.930 . S
N244 C241 1.377 . S
N244 C243 1.344 . S
O245 Co237 2.055 . S
O245 C249 1.253 . S
H246 C242 0.931 . S
H247 C243 0.930 . S
O248 Co237 2.039 . S
O248 C238 1.265 . S
C249 O245 1.253 . S
C249 O250 1.227 . S
O250 C249 1.227 . S
N251 Co237 2.140 . S
N251 C254 1.346 . S
N251 C255 1.345 . S
C252 C253 1.387 . S
C252 C256 1.391 . S
C253 C252 1.387 . S
C253 C254 1.369 . S
C253 H262 0.929 . S
C254 N251 1.346 . S
C254 C253 1.369 . S
C254 H257 0.928 . S
C255 N251 1.345 . S
C255 C256 1.371 . S
C255 H258 0.931 . S
C256 C252 1.391 . S
C256 C255 1.371 . S
C256 H263 0.930 . S
H257 C254 0.928 . S
H258 C255 0.931 . S
H259 C235 0.930 . S
H260 C232 0.930 . S
H261 C241 0.930 . S
H262 C253 0.929 . S
H263 C256 0.930 . S
C264 C265 1.351 . S
C264 N267 1.368 . S
C264 H269 0.931 . S
C265 C264 1.351 . S
C265 N266 1.373 . S
C265 H293 0.930 . S
N266 C265 1.373 . S
N266 C268 1.340 . S
N267 C264 1.368 . S
N267 C268 1.321 . S
N267 Co270 2.135 . S
C268 N266 1.340 . S
C268 N267 1.321 . S
C268 H292 0.930 . S
H269 C264 0.931 . S
Co270 N267 2.135 . S
Co270 N273 2.121 . S
Co270 O278 2.055 . S
Co270 O281 2.039 . S
Co270 N284 2.140 . S
C271 O272 1.227 . S
C271 O281 1.265 . S
O272 C271 1.227 . S
N273 Co270 2.121 . S
N273 C275 1.375 . S
N273 C276 1.313 . S
C274 C275 1.338 . S
C274 N277 1.377 . S
C274 H294 0.930 . S
C275 N273 1.375 . S
C275 C274 1.338 . S
C275 H279 0.931 . S
C276 N273 1.313 . S
C276 N277 1.344 . S
C276 H280 0.930 . S
N277 C274 1.377 . S
N277 C276 1.344 . S
O278 Co270 2.055 . S
O278 C282 1.253 . S
H279 C275 0.931 . S
H280 C276 0.930 . S
O281 Co270 2.039 . S
O281 C271 1.265 . S
C282 O278 1.253 . S
C282 O283 1.227 . S
O283 C282 1.227 . S
N284 Co270 2.140 . S
N284 C287 1.346 . S
N284 C288 1.345 . S
C285 C286 1.387 . S
C285 C289 1.391 . S
C286 C285 1.387 . S
C286 C287 1.369 . S
C286 H295 0.929 . S
C287 N284 1.346 . S
C287 C286 1.369 . S
C287 H290 0.928 . S
C288 N284 1.345 . S
C288 C289 1.371 . S
C288 H291 0.931 . S
C289 C285 1.391 . S
C289 C288 1.371 . S
C289 H296 0.930 . S
H290 C287 0.928 . S
H291 C288 0.931 . S
H292 C268 0.930 . S
H293 C265 0.930 . S
H294 C274 0.930 . S
H295 C286 0.929 . S
H296 C289 0.930 . S
C297 C298 1.351 . S
C297 N300 1.368 . S
C297 H302 0.931 . S
C298 C297 1.351 . S
C298 N299 1.373 . S
C298 H326 0.930 . S
N299 C298 1.373 . S
N299 C301 1.340 . S
N300 C297 1.368 . S
N300 C301 1.321 . S
N300 Co303 2.135 . S
C301 N299 1.340 . S
C301 N300 1.321 . S
C301 H325 0.930 . S
H302 C297 0.931 . S
Co303 N300 2.135 . S
Co303 N306 2.121 . S
Co303 O311 2.055 . S
Co303 O314 2.039 . S
Co303 N317 2.140 . S
C304 O305 1.227 . S
C304 O314 1.265 . S
O305 C304 1.227 . S
N306 Co303 2.121 . S
N306 C308 1.375 . S
N306 C309 1.313 . S
C307 C308 1.338 . S
C307 N310 1.377 . S
C307 H327 0.930 . S
C308 N306 1.375 . S
C308 C307 1.338 . S
C308 H312 0.931 . S
C309 N306 1.313 . S
C309 N310 1.344 . S
C309 H313 0.930 . S
N310 C307 1.377 . S
N310 C309 1.344 . S
O311 Co303 2.055 . S
O311 C315 1.253 . S
H312 C308 0.931 . S
H313 C309 0.930 . S
O314 Co303 2.039 . S
O314 C304 1.265 . S
C315 O311 1.253 . S
C315 O316 1.227 . S
O316 C315 1.227 . S
N317 Co303 2.140 . S
N317 C320 1.346 . S
N317 C321 1.345 . S
C318 C319 1.387 . S
C318 C322 1.391 . S
C319 C318 1.387 . S
C319 C320 1.369 . S
C319 H328 0.929 . S
C320 N317 1.346 . S
C320 C319 1.369 . S
C320 H323 0.928 . S
C321 N317 1.345 . S
C321 C322 1.371 . S
C321 H324 0.931 . S
C322 C318 1.391 . S
C322 C321 1.371 . S
C322 H329 0.930 . S
H323 C320 0.928 . S
H324 C321 0.931 . S
H325 C301 0.930 . S
H326 C298 0.930 . S
H327 C307 0.930 . S
H328 C319 0.929 . S
H329 C322 0.930 . S
C330 C331 1.351 . S
C330 N333 1.368 . S
C330 H335 0.931 . S
C331 C330 1.351 . S
C331 N332 1.373 . S
C331 H359 0.930 . S
N332 C331 1.373 . S
N332 C334 1.340 . S
N333 C330 1.368 . S
N333 C334 1.321 . S
N333 Co336 2.135 . S
C334 N332 1.340 . S
C334 N333 1.321 . S
C334 H358 0.930 . S
H335 C330 0.931 . S
Co336 N333 2.135 . S
Co336 N339 2.121 . S
Co336 O344 2.055 . S
Co336 O347 2.039 . S
Co336 N350 2.140 . S
C337 O338 1.227 . S
C337 O347 1.265 . S
O338 C337 1.227 . S
N339 Co336 2.121 . S
N339 C341 1.375 . S
N339 C342 1.313 . S
C340 C341 1.338 . S
C340 N343 1.377 . S
C340 H360 0.930 . S
C341 N339 1.375 . S
C341 C340 1.338 . S
C341 H345 0.931 . S
C342 N339 1.313 . S
C342 N343 1.344 . S
C342 H346 0.930 . S
N343 C340 1.377 . S
N343 C342 1.344 . S
O344 Co336 2.055 . S
O344 C348 1.253 . S
H345 C341 0.931 . S
H346 C342 0.930 . S
O347 Co336 2.039 . S
O347 C337 1.265 . S
C348 O344 1.253 . S
C348 O349 1.227 . S
O349 C348 1.227 . S
N350 Co336 2.140 . S
N350 C353 1.346 . S
N350 C354 1.345 . S
C351 C352 1.387 . S
C351 C355 1.391 . S
C352 C351 1.387 . S
C352 C353 1.369 . S
C352 H361 0.929 . S
C353 N350 1.346 . S
C353 C352 1.369 . S
C353 H356 0.928 . S
C354 N350 1.345 . S
C354 C355 1.371 . S
C354 H357 0.931 . S
C355 C351 1.391 . S
C355 C354 1.371 . S
C355 H362 0.930 . S
H356 C353 0.928 . S
H357 C354 0.931 . S
H358 C334 0.930 . S
H359 C331 0.930 . S
H360 C340 0.930 . S
H361 C352 0.929 . S
H362 C355 0.930 . S
C363 C364 1.351 . S
C363 N366 1.368 . S
C363 H368 0.931 . S
C364 C363 1.351 . S
C364 N365 1.373 . S
C364 H392 0.930 . S
N365 C364 1.373 . S
N365 C367 1.340 . S
N366 C363 1.368 . S
N366 C367 1.321 . S
N366 Co369 2.135 . S
C367 N365 1.340 . S
C367 N366 1.321 . S
C367 H391 0.930 . S
H368 C363 0.931 . S
Co369 N366 2.135 . S
Co369 N372 2.121 . S
Co369 O377 2.055 . S
Co369 O380 2.039 . S
Co369 N383 2.140 . S
C370 O371 1.227 . S
C370 O380 1.265 . S
O371 C370 1.227 . S
N372 Co369 2.121 . S
N372 C374 1.375 . S
N372 C375 1.313 . S
C373 C374 1.338 . S
C373 N376 1.377 . S
C373 H393 0.930 . S
C374 N372 1.375 . S
C374 C373 1.338 . S
C374 H378 0.931 . S
C375 N372 1.313 . S
C375 N376 1.344 . S
C375 H379 0.930 . S
N376 C373 1.377 . S
N376 C375 1.344 . S
O377 Co369 2.055 . S
O377 C381 1.253 . S
H378 C374 0.931 . S
H379 C375 0.930 . S
O380 Co369 2.039 . S
O380 C370 1.265 . S
C381 O377 1.253 . S
C381 O382 1.227 . S
O382 C381 1.227 . S
N383 Co369 2.140 . S
N383 C386 1.346 . S
N383 C387 1.345 . S
C384 C385 1.387 . S
C384 C388 1.391 . S
C385 C384 1.387 . S
C385 C386 1.369 . S
C385 H394 0.929 . S
C386 N383 1.346 . S
C386 C385 1.369 . S
C386 H389 0.928 . S
C387 N383 1.345 . S
C387 C388 1.371 . S
C387 H390 0.931 . S
C388 C384 1.391 . S
C388 C387 1.371 . S
C388 H395 0.930 . S
H389 C386 0.928 . S
H390 C387 0.931 . S
H391 C367 0.930 . S
H392 C364 0.930 . S
H393 C373 0.930 . S
H394 C385 0.929 . S
H395 C388 0.930 . S
C396 C397 1.351 . S
C396 N399 1.368 . S
C396 H401 0.931 . S
C397 C396 1.351 . S
C397 N398 1.373 . S
C397 H425 0.930 . S
N398 C397 1.373 . S
N398 C400 1.340 . S
N399 C396 1.368 . S
N399 C400 1.321 . S
N399 Co402 2.135 . S
C400 N398 1.340 . S
C400 N399 1.321 . S
C400 H424 0.930 . S
H401 C396 0.931 . S
Co402 N399 2.135 . S
Co402 N405 2.121 . S
Co402 O410 2.055 . S
Co402 O413 2.039 . S
Co402 N416 2.140 . S
C403 O404 1.227 . S
C403 O413 1.265 . S
O404 C403 1.227 . S
N405 Co402 2.121 . S
N405 C407 1.375 . S
N405 C408 1.313 . S
C406 C407 1.338 . S
C406 N409 1.377 . S
C406 H426 0.930 . S
C407 N405 1.375 . S
C407 C406 1.338 . S
C407 H411 0.931 . S
C408 N405 1.313 . S
C408 N409 1.344 . S
C408 H412 0.930 . S
N409 C406 1.377 . S
N409 C408 1.344 . S
O410 Co402 2.055 . S
O410 C414 1.253 . S
H411 C407 0.931 . S
H412 C408 0.930 . S
O413 Co402 2.039 . S
O413 C403 1.265 . S
C414 O410 1.253 . S
C414 O415 1.227 . S
O415 C414 1.227 . S
N416 Co402 2.140 . S
N416 C419 1.346 . S
N416 C420 1.345 . S
C417 C418 1.387 . S
C417 C421 1.391 . S
C418 C417 1.387 . S
C418 C419 1.369 . S
C418 H427 0.929 . S
C419 N416 1.346 . S
C419 C418 1.369 . S
C419 H422 0.928 . S
C420 N416 1.345 . S
C420 C421 1.371 . S
C420 H423 0.931 . S
C421 C417 1.391 . S
C421 C420 1.371 . S
C421 H428 0.930 . S
H422 C419 0.928 . S
H423 C420 0.931 . S
H424 C400 0.930 . S
H425 C397 0.930 . S
H426 C406 0.930 . S
H427 C418 0.929 . S
H428 C421 0.930 . S
C429 C430 1.351 . S
C429 N432 1.368 . S
C429 H434 0.931 . S
C430 C429 1.351 . S
C430 N431 1.373 . S
C430 H458 0.930 . S
N431 C430 1.373 . S
N431 C433 1.340 . S
N432 C429 1.368 . S
N432 C433 1.321 . S
N432 Co435 2.135 . S
C433 N431 1.340 . S
C433 N432 1.321 . S
C433 H457 0.930 . S
H434 C429 0.931 . S
Co435 N432 2.135 . S
Co435 N438 2.121 . S
Co435 O443 2.055 . S
Co435 O446 2.039 . S
Co435 N449 2.140 . S
C436 O437 1.227 . S
C436 O446 1.265 . S
O437 C436 1.227 . S
N438 Co435 2.121 . S
N438 C440 1.375 . S
N438 C441 1.313 . S
C439 C440 1.338 . S
C439 N442 1.377 . S
C439 H459 0.930 . S
C440 N438 1.375 . S
C440 C439 1.338 . S
C440 H444 0.931 . S
C441 N438 1.313 . S
C441 N442 1.344 . S
C441 H445 0.930 . S
N442 C439 1.377 . S
N442 C441 1.344 . S
O443 Co435 2.055 . S
O443 C447 1.253 . S
H444 C440 0.931 . S
H445 C441 0.930 . S
O446 Co435 2.039 . S
O446 C436 1.265 . S
C447 O443 1.253 . S
C447 O448 1.227 . S
O448 C447 1.227 . S
N449 Co435 2.140 . S
N449 C452 1.346 . S
N449 C453 1.345 . S
C450 C451 1.387 . S
C450 C454 1.391 . S
C451 C450 1.387 . S
C451 C452 1.369 . S
C451 H460 0.929 . S
C452 N449 1.346 . S
C452 C451 1.369 . S
C452 H455 0.928 . S
C453 N449 1.345 . S
C453 C454 1.371 . S
C453 H456 0.931 . S
C454 C450 1.391 . S
C454 C453 1.371 . S
C454 H461 0.930 . S
H455 C452 0.928 . S
H456 C453 0.931 . S
H457 C433 0.930 . S
H458 C430 0.930 . S
H459 C439 0.930 . S
H460 C451 0.929 . S
H461 C454 0.930 . S
C462 C463 1.351 . S
C462 N465 1.368 . S
C462 H467 0.931 . S
C463 C462 1.351 . S
C463 N464 1.373 . S
C463 H491 0.930 . S
N464 C463 1.373 . S
N464 C466 1.340 . S
N465 C462 1.368 . S
N465 C466 1.321 . S
N465 Co468 2.135 . S
C466 N464 1.340 . S
C466 N465 1.321 . S
C466 H490 0.930 . S
H467 C462 0.931 . S
Co468 N465 2.135 . S
Co468 N471 2.121 . S
Co468 O476 2.055 . S
Co468 O479 2.039 . S
Co468 N482 2.140 . S
C469 O470 1.227 . S
C469 O479 1.265 . S
O470 C469 1.227 . S
N471 Co468 2.121 . S
N471 C473 1.375 . S
N471 C474 1.313 . S
C472 C473 1.338 . S
C472 N475 1.377 . S
C472 H492 0.930 . S
C473 N471 1.375 . S
C473 C472 1.338 . S
C473 H477 0.931 . S
C474 N471 1.313 . S
C474 N475 1.344 . S
C474 H478 0.930 . S
N475 C472 1.377 . S
N475 C474 1.344 . S
O476 Co468 2.055 . S
O476 C480 1.253 . S
H477 C473 0.931 . S
H478 C474 0.930 . S
O479 Co468 2.039 . S
O479 C469 1.265 . S
C480 O476 1.253 . S
C480 O481 1.227 . S
O481 C480 1.227 . S
N482 Co468 2.140 . S
N482 C485 1.346 . S
N482 C486 1.345 . S
C483 C484 1.387 . S
C483 C487 1.391 . S
C484 C483 1.387 . S
C484 C485 1.369 . S
C484 H493 0.929 . S
C485 N482 1.346 . S
C485 C484 1.369 . S
C485 H488 0.928 . S
C486 N482 1.345 . S
C486 C487 1.371 . S
C486 H489 0.931 . S
C487 C483 1.391 . S
C487 C486 1.371 . S
C487 H494 0.930 . S
H488 C485 0.928 . S
H489 C486 0.931 . S
H490 C466 0.930 . S
H491 C463 0.930 . S
H492 C472 0.930 . S
H493 C484 0.929 . S
H494 C487 0.930 . S
C495 C496 1.351 . S
C495 N498 1.368 . S
C495 H500 0.931 . S
C496 C495 1.351 . S
C496 N497 1.373 . S
C496 H524 0.930 . S
N497 C496 1.373 . S
N497 C499 1.340 . S
N498 C495 1.368 . S
N498 C499 1.321 . S
N498 Co501 2.135 . S
C499 N497 1.340 . S
C499 N498 1.321 . S
C499 H523 0.930 . S
H500 C495 0.931 . S
Co501 N498 2.135 . S
Co501 N504 2.121 . S
Co501 O509 2.055 . S
Co501 O512 2.039 . S
Co501 N515 2.140 . S
C502 O503 1.227 . S
C502 O512 1.265 . S
O503 C502 1.227 . S
N504 Co501 2.121 . S
N504 C506 1.375 . S
N504 C507 1.313 . S
C505 C506 1.338 . S
C505 N508 1.377 . S
C505 H525 0.930 . S
C506 N504 1.375 . S
C506 C505 1.338 . S
C506 H510 0.931 . S
C507 N504 1.313 . S
C507 N508 1.344 . S
C507 H511 0.930 . S
N508 C505 1.377 . S
N508 C507 1.344 . S
O509 Co501 2.055 . S
O509 C513 1.253 . S
H510 C506 0.931 . S
H511 C507 0.930 . S
O512 Co501 2.039 . S
O512 C502 1.265 . S
C513 O509 1.253 . S
C513 O514 1.227 . S
O514 C513 1.227 . S
N515 Co501 2.140 . S
N515 C518 1.346 . S
N515 C519 1.345 . S
C516 C517 1.387 . S
C516 C520 1.391 . S
C517 C516 1.387 . S
C517 C518 1.369 . S
C517 H526 0.929 . S
C518 N515 1.346 . S
C518 C517 1.369 . S
C518 H521 0.928 . S
C519 N515 1.345 . S
C519 C520 1.371 . S
C519 H522 0.931 . S
C520 C516 1.391 . S
C520 C519 1.371 . S
C520 H527 0.930 . S
H521 C518 0.928 . S
H522 C519 0.931 . S
H523 C499 0.930 . S
H524 C496 0.930 . S
H525 C505 0.930 . S
H526 C517 0.929 . S
H527 C520 0.930 . S
C528 C529 1.351 . S
C528 N531 1.368 . S
C528 H533 0.931 . S
C529 C528 1.351 . S
C529 N530 1.373 . S
C529 H557 0.930 . S
N530 C529 1.373 . S
N530 C532 1.340 . S
N531 C528 1.368 . S
N531 C532 1.321 . S
N531 Co534 2.135 . S
C532 N530 1.340 . S
C532 N531 1.321 . S
C532 H556 0.930 . S
H533 C528 0.931 . S
Co534 N531 2.135 . S
Co534 N537 2.121 . S
Co534 O542 2.055 . S
Co534 O545 2.039 . S
Co534 N548 2.140 . S
C535 O536 1.227 . S
C535 O545 1.265 . S
O536 C535 1.227 . S
N537 Co534 2.121 . S
N537 C539 1.375 . S
N537 C540 1.313 . S
C538 C539 1.338 . S
C538 N541 1.377 . S
C538 H558 0.930 . S
C539 N537 1.375 . S
C539 C538 1.338 . S
C539 H543 0.931 . S
C540 N537 1.313 . S
C540 N541 1.344 . S
C540 H544 0.930 . S
N541 C538 1.377 . S
N541 C540 1.344 . S
O542 Co534 2.055 . S
O542 C546 1.253 . S
H543 C539 0.931 . S
H544 C540 0.930 . S
O545 Co534 2.039 . S
O545 C535 1.265 . S
C546 O542 1.253 . S
C546 O547 1.227 . S
O547 C546 1.227 . S
N548 Co534 2.140 . S
N548 C551 1.346 . S
N548 C552 1.345 . S
C549 C550 1.387 . S
C549 C553 1.391 . S
C550 C549 1.387 . S
C550 C551 1.369 . S
C550 H559 0.929 . S
C551 N548 1.346 . S
C551 C550 1.369 . S
C551 H554 0.928 . S
C552 N548 1.345 . S
C552 C553 1.371 . S
C552 H555 0.931 . S
C553 C549 1.391 . S
C553 C552 1.371 . S
C553 H560 0.930 . S
H554 C551 0.928 . S
H555 C552 0.931 . S
H556 C532 0.930 . S
H557 C529 0.930 . S
H558 C538 0.930 . S
H559 C550 0.929 . S
H560 C553 0.930 . S
C561 C562 1.351 . S
C561 N564 1.368 . S
C561 H566 0.931 . S
C562 C561 1.351 . S
C562 N563 1.373 . S
C562 H590 0.930 . S
N563 C562 1.373 . S
N563 C565 1.340 . S
N564 C561 1.368 . S
N564 C565 1.321 . S
N564 Co567 2.135 . S
C565 N563 1.340 . S
C565 N564 1.321 . S
C565 H589 0.930 . S
H566 C561 0.931 . S
Co567 N564 2.135 . S
Co567 N570 2.121 . S
Co567 O575 2.055 . S
Co567 O578 2.039 . S
Co567 N581 2.140 . S
C568 O569 1.227 . S
C568 O578 1.265 . S
O569 C568 1.227 . S
N570 Co567 2.121 . S
N570 C572 1.375 . S
N570 C573 1.313 . S
C571 C572 1.338 . S
C571 N574 1.377 . S
C571 H591 0.930 . S
C572 N570 1.375 . S
C572 C571 1.338 . S
C572 H576 0.931 . S
C573 N570 1.313 . S
C573 N574 1.344 . S
C573 H577 0.930 . S
N574 C571 1.377 . S
N574 C573 1.344 . S
O575 Co567 2.055 . S
O575 C579 1.253 . S
H576 C572 0.931 . S
H577 C573 0.930 . S
O578 Co567 2.039 . S
O578 C568 1.265 . S
C579 O575 1.253 . S
C579 O580 1.227 . S
O580 C579 1.227 . S
N581 Co567 2.140 . S
N581 C584 1.346 . S
N581 C585 1.345 . S
C582 C583 1.387 . S
C582 C586 1.391 . S
C583 C582 1.387 . S
C583 C584 1.369 . S
C583 H592 0.929 . S
C584 N581 1.346 . S
C584 C583 1.369 . S
C584 H587 0.928 . S
C585 N581 1.345 . S
C585 C586 1.371 . S
C585 H588 0.931 . S
C586 C582 1.391 . S
C586 C585 1.371 . S
C586 H593 0.930 . S
H587 C584 0.928 . S
H588 C585 0.931 . S
H589 C565 0.930 . S
H590 C562 0.930 . S
H591 C571 0.930 . S
H592 C583 0.929 . S
H593 C586 0.930 . S
C594 C595 1.351 . S
C594 N597 1.368 . S
C594 H599 0.931 . S
C595 C594 1.351 . S
C595 N596 1.373 . S
C595 H623 0.930 . S
N596 C595 1.373 . S
N596 C598 1.340 . S
N597 C594 1.368 . S
N597 C598 1.321 . S
N597 Co600 2.135 . S
C598 N596 1.340 . S
C598 N597 1.321 . S
C598 H622 0.930 . S
H599 C594 0.931 . S
Co600 N597 2.135 . S
Co600 N603 2.121 . S
Co600 O608 2.055 . S
Co600 O611 2.039 . S
Co600 N614 2.140 . S
C601 O602 1.227 . S
C601 O611 1.265 . S
O602 C601 1.227 . S
N603 Co600 2.121 . S
N603 C605 1.375 . S
N603 C606 1.313 . S
C604 C605 1.338 . S
C604 N607 1.377 . S
C604 H624 0.930 . S
C605 N603 1.375 . S
C605 C604 1.338 . S
C605 H609 0.931 . S
C606 N603 1.313 . S
C606 N607 1.344 . S
C606 H610 0.930 . S
N607 C604 1.377 . S
N607 C606 1.344 . S
O608 Co600 2.055 . S
O608 C612 1.253 . S
H609 C605 0.931 . S
H610 C606 0.930 . S
O611 Co600 2.039 . S
O611 C601 1.265 . S
C612 O608 1.253 . S
C612 O613 1.227 . S
O613 C612 1.227 . S
N614 Co600 2.140 . S
N614 C617 1.346 . S
N614 C618 1.345 . S
C615 C616 1.387 . S
C615 C619 1.391 . S
C616 C615 1.387 . S
C616 C617 1.369 . S
C616 H625 0.929 . S
C617 N614 1.346 . S
C617 C616 1.369 . S
C617 H620 0.928 . S
C618 N614 1.345 . S
C618 C619 1.371 . S
C618 H621 0.931 . S
C619 C615 1.391 . S
C619 C618 1.371 . S
C619 H626 0.930 . S
H620 C617 0.928 . S
H621 C618 0.931 . S
H622 C598 0.930 . S
H623 C595 0.930 . S
H624 C604 0.930 . S
H625 C616 0.929 . S
H626 C619 0.930 . S
C627 C628 1.351 . S
C627 N630 1.368 . S
C627 H632 0.931 . S
C628 C627 1.351 . S
C628 N629 1.373 . S
C628 H656 0.930 . S
N629 C628 1.373 . S
N629 C631 1.340 . S
N630 C627 1.368 . S
N630 C631 1.321 . S
N630 Co633 2.135 . S
C631 N629 1.340 . S
C631 N630 1.321 . S
C631 H655 0.930 . S
H632 C627 0.931 . S
Co633 N630 2.135 . S
Co633 N636 2.121 . S
Co633 O641 2.055 . S
Co633 O644 2.039 . S
Co633 N647 2.140 . S
C634 O635 1.227 . S
C634 O644 1.265 . S
O635 C634 1.227 . S
N636 Co633 2.121 . S
N636 C638 1.375 . S
N636 C639 1.313 . S
C637 C638 1.338 . S
C637 N640 1.377 . S
C637 H657 0.930 . S
C638 N636 1.375 . S
C638 C637 1.338 . S
C638 H642 0.931 . S
C639 N636 1.313 . S
C639 N640 1.344 . S
C639 H643 0.930 . S
N640 C637 1.377 . S
N640 C639 1.344 . S
O641 Co633 2.055 . S
O641 C645 1.253 . S
H642 C638 0.931 . S
H643 C639 0.930 . S
O644 Co633 2.039 . S
O644 C634 1.265 . S
C645 O641 1.253 . S
C645 O646 1.227 . S
O646 C645 1.227 . S
N647 Co633 2.140 . S
N647 C650 1.346 . S
N647 C651 1.345 . S
C648 C649 1.387 . S
C648 C652 1.391 . S
C649 C648 1.387 . S
C649 C650 1.369 . S
C649 H658 0.929 . S
C650 N647 1.346 . S
C650 C649 1.369 . S
C650 H653 0.928 . S
C651 N647 1.345 . S
C651 C652 1.371 . S
C651 H654 0.931 . S
C652 C648 1.391 . S
C652 C651 1.371 . S
C652 H659 0.930 . S
H653 C650 0.928 . S
H654 C651 0.931 . S
H655 C631 0.930 . S
H656 C628 0.930 . S
H657 C637 0.930 . S
H658 C649 0.929 . S
H659 C652 0.930 . S
C660 C661 1.351 . S
C660 N663 1.368 . S
C660 H665 0.931 . S
C661 C660 1.351 . S
C661 N662 1.373 . S
C661 H689 0.930 . S
N662 C661 1.373 . S
N662 C664 1.340 . S
N663 C660 1.368 . S
N663 C664 1.321 . S
N663 Co666 2.135 . S
C664 N662 1.340 . S
C664 N663 1.321 . S
C664 H688 0.930 . S
H665 C660 0.931 . S
Co666 N663 2.135 . S
Co666 N669 2.121 . S
Co666 O674 2.055 . S
Co666 O677 2.039 . S
Co666 N680 2.140 . S
C667 O668 1.227 . S
C667 O677 1.265 . S
O668 C667 1.227 . S
N669 Co666 2.121 . S
N669 C671 1.375 . S
N669 C672 1.313 . S
C670 C671 1.338 . S
C670 N673 1.377 . S
C670 H690 0.930 . S
C671 N669 1.375 . S
C671 C670 1.338 . S
C671 H675 0.931 . S
C672 N669 1.313 . S
C672 N673 1.344 . S
C672 H676 0.930 . S
N673 C670 1.377 . S
N673 C672 1.344 . S
O674 Co666 2.055 . S
O674 C678 1.253 . S
H675 C671 0.931 . S
H676 C672 0.930 . S
O677 Co666 2.039 . S
O677 C667 1.265 . S
C678 O674 1.253 . S
C678 O679 1.227 . S
O679 C678 1.227 . S
N680 Co666 2.140 . S
N680 C683 1.346 . S
N680 C684 1.345 . S
C681 C682 1.387 . S
C681 C685 1.391 . S
C682 C681 1.387 . S
C682 C683 1.369 . S
C682 H691 0.929 . S
C683 N680 1.346 . S
C683 C682 1.369 . S
C683 H686 0.928 . S
C684 N680 1.345 . S
C684 C685 1.371 . S
C684 H687 0.931 . S
C685 C681 1.391 . S
C685 C684 1.371 . S
C685 H692 0.930 . S
H686 C683 0.928 . S
H687 C684 0.931 . S
H688 C664 0.930 . S
H689 C661 0.930 . S
H690 C670 0.930 . S
H691 C682 0.929 . S
H692 C685 0.930 . S
C693 C694 1.351 . S
C693 N696 1.368 . S
C693 H698 0.931 . S
C694 C693 1.351 . S
C694 N695 1.373 . S
C694 H722 0.930 . S
N695 C694 1.373 . S
N695 C697 1.340 . S
N696 C693 1.368 . S
N696 C697 1.321 . S
N696 Co699 2.135 . S
C697 N695 1.340 . S
C697 N696 1.321 . S
C697 H721 0.930 . S
H698 C693 0.931 . S
Co699 N696 2.135 . S
Co699 N702 2.121 . S
Co699 O707 2.055 . S
Co699 O710 2.039 . S
Co699 N713 2.140 . S
C700 O701 1.227 . S
C700 O710 1.265 . S
O701 C700 1.227 . S
N702 Co699 2.121 . S
N702 C704 1.375 . S
N702 C705 1.313 . S
C703 C704 1.338 . S
C703 N706 1.377 . S
C703 H723 0.930 . S
C704 N702 1.375 . S
C704 C703 1.338 . S
C704 H708 0.931 . S
C705 N702 1.313 . S
C705 N706 1.344 . S
C705 H709 0.930 . S
N706 C703 1.377 . S
N706 C705 1.344 . S
O707 Co699 2.055 . S
O707 C711 1.253 . S
H708 C704 0.931 . S
H709 C705 0.930 . S
O710 Co699 2.039 . S
O710 C700 1.265 . S
C711 O707 1.253 . S
C711 O712 1.227 . S
O712 C711 1.227 . S
N713 Co699 2.140 . S
N713 C716 1.346 . S
N713 C717 1.345 . S
C714 C715 1.387 . S
C714 C718 1.391 . S
C715 C714 1.387 . S
C715 C716 1.369 . S
C715 H724 0.929 . S
C716 N713 1.346 . S
C716 C715 1.369 . S
C716 H719 0.928 . S
C717 N713 1.345 . S
C717 C718 1.371 . S
C717 H720 0.931 . S
C718 C714 1.391 . S
C718 C717 1.371 . S
C718 H725 0.930 . S
H719 C716 0.928 . S
H720 C717 0.931 . S
H721 C697 0.930 . S
H722 C694 0.930 . S
H723 C703 0.930 . S
H724 C715 0.929 . S
H725 C718 0.930 . S
C726 C727 1.351 . S
C726 N729 1.368 . S
C726 H731 0.931 . S
C727 C726 1.351 . S
C727 N728 1.373 . S
C727 H755 0.930 . S
N728 C727 1.373 . S
N728 C730 1.340 . S
N729 C726 1.368 . S
N729 C730 1.321 . S
N729 Co732 2.135 . S
C730 N728 1.340 . S
C730 N729 1.321 . S
C730 H754 0.930 . S
H731 C726 0.931 . S
Co732 N729 2.135 . S
Co732 N735 2.121 . S
Co732 O740 2.055 . S
Co732 O743 2.039 . S
Co732 N746 2.140 . S
C733 O734 1.227 . S
C733 O743 1.265 . S
O734 C733 1.227 . S
N735 Co732 2.121 . S
N735 C737 1.375 . S
N735 C738 1.313 . S
C736 C737 1.338 . S
C736 N739 1.377 . S
C736 H756 0.930 . S
C737 N735 1.375 . S
C737 C736 1.338 . S
C737 H741 0.931 . S
C738 N735 1.313 . S
C738 N739 1.344 . S
C738 H742 0.930 . S
N739 C736 1.377 . S
N739 C738 1.344 . S
O740 Co732 2.055 . S
O740 C744 1.253 . S
H741 C737 0.931 . S
H742 C738 0.930 . S
O743 Co732 2.039 . S
O743 C733 1.265 . S
C744 O740 1.253 . S
C744 O745 1.227 . S
O745 C744 1.227 . S
N746 Co732 2.140 . S
N746 C749 1.346 . S
N746 C750 1.345 . S
C747 C748 1.387 . S
C747 C751 1.391 . S
C748 C747 1.387 . S
C748 C749 1.369 . S
C748 H757 0.929 . S
C749 N746 1.346 . S
C749 C748 1.369 . S
C749 H752 0.928 . S
C750 N746 1.345 . S
C750 C751 1.371 . S
C750 H753 0.931 . S
C751 C747 1.391 . S
C751 C750 1.371 . S
C751 H758 0.930 . S
H752 C749 0.928 . S
H753 C750 0.931 . S
H754 C730 0.930 . S
H755 C727 0.930 . S
H756 C736 0.930 . S
H757 C748 0.929 . S
H758 C751 0.930 . S
C759 C760 1.351 . S
C759 N762 1.368 . S
C759 H764 0.931 . S
C760 C759 1.351 . S
C760 N761 1.373 . S
C760 H788 0.930 . S
N761 C760 1.373 . S
N761 C763 1.340 . S
N762 C759 1.368 . S
N762 C763 1.321 . S
N762 Co765 2.135 . S
C763 N761 1.340 . S
C763 N762 1.321 . S
C763 H787 0.930 . S
H764 C759 0.931 . S
Co765 N762 2.135 . S
Co765 N768 2.121 . S
Co765 O773 2.055 . S
Co765 O776 2.039 . S
Co765 N779 2.140 . S
C766 O767 1.227 . S
C766 O776 1.265 . S
O767 C766 1.227 . S
N768 Co765 2.121 . S
N768 C770 1.375 . S
N768 C771 1.313 . S
C769 C770 1.338 . S
C769 N772 1.377 . S
C769 H789 0.930 . S
C770 N768 1.375 . S
C770 C769 1.338 . S
C770 H774 0.931 . S
C771 N768 1.313 . S
C771 N772 1.344 . S
C771 H775 0.930 . S
N772 C769 1.377 . S
N772 C771 1.344 . S
O773 Co765 2.055 . S
O773 C777 1.253 . S
H774 C770 0.931 . S
H775 C771 0.930 . S
O776 Co765 2.039 . S
O776 C766 1.265 . S
C777 O773 1.253 . S
C777 O778 1.227 . S
O778 C777 1.227 . S
N779 Co765 2.140 . S
N779 C782 1.346 . S
N779 C783 1.345 . S
C780 C781 1.387 . S
C780 C784 1.391 . S
C781 C780 1.387 . S
C781 C782 1.369 . S
C781 H790 0.929 . S
C782 N779 1.346 . S
C782 C781 1.369 . S
C782 H785 0.928 . S
C783 N779 1.345 . S
C783 C784 1.371 . S
C783 H786 0.931 . S
C784 C780 1.391 . S
C784 C783 1.371 . S
C784 H791 0.930 . S
H785 C782 0.928 . S
H786 C783 0.931 . S
H787 C763 0.930 . S
H788 C760 0.930 . S
H789 C769 0.930 . S
H790 C781 0.929 . S
H791 C784 0.930 . S
C792 C793 1.351 . S
C792 N795 1.368 . S
C792 H797 0.931 . S
C793 C792 1.351 . S
C793 N794 1.373 . S
C793 H821 0.930 . S
N794 C793 1.373 . S
N794 C796 1.340 . S
N795 C792 1.368 . S
N795 C796 1.321 . S
N795 Co798 2.135 . S
C796 N794 1.340 . S
C796 N795 1.321 . S
C796 H820 0.930 . S
H797 C792 0.931 . S
Co798 N795 2.135 . S
Co798 N801 2.121 . S
Co798 O806 2.055 . S
Co798 O809 2.039 . S
Co798 N812 2.140 . S
C799 O800 1.227 . S
C799 O809 1.265 . S
O800 C799 1.227 . S
N801 Co798 2.121 . S
N801 C803 1.375 . S
N801 C804 1.313 . S
C802 C803 1.338 . S
C802 N805 1.377 . S
C802 H822 0.930 . S
C803 N801 1.375 . S
C803 C802 1.338 . S
C803 H807 0.931 . S
C804 N801 1.313 . S
C804 N805 1.344 . S
C804 H808 0.930 . S
N805 C802 1.377 . S
N805 C804 1.344 . S
O806 Co798 2.055 . S
O806 C810 1.253 . S
H807 C803 0.931 . S
H808 C804 0.930 . S
O809 Co798 2.039 . S
O809 C799 1.265 . S
C810 O806 1.253 . S
C810 O811 1.227 . S
O811 C810 1.227 . S
N812 Co798 2.140 . S
N812 C815 1.346 . S
N812 C816 1.345 . S
C813 C814 1.387 . S
C813 C817 1.391 . S
C814 C813 1.387 . S
C814 C815 1.369 . S
C814 H823 0.929 . S
C815 N812 1.346 . S
C815 C814 1.369 . S
C815 H818 0.928 . S
C816 N812 1.345 . S
C816 C817 1.371 . S
C816 H819 0.931 . S
C817 C813 1.391 . S
C817 C816 1.371 . S
C817 H824 0.930 . S
H818 C815 0.928 . S
H819 C816 0.931 . S
H820 C796 0.930 . S
H821 C793 0.930 . S
H822 C802 0.930 . S
H823 C814 0.929 . S
H824 C817 0.930 . S
C825 C826 1.351 . S
C825 N828 1.368 . S
C825 H830 0.931 . S
C826 C825 1.351 . S
C826 N827 1.373 . S
C826 H854 0.930 . S
N827 C826 1.373 . S
N827 C829 1.340 . S
N828 C825 1.368 . S
N828 C829 1.321 . S
N828 Co831 2.135 . S
C829 N827 1.340 . S
C829 N828 1.321 . S
C829 H853 0.930 . S
H830 C825 0.931 . S
Co831 N828 2.135 . S
Co831 N834 2.121 . S
Co831 O839 2.055 . S
Co831 O842 2.039 . S
Co831 N845 2.140 . S
C832 O833 1.227 . S
C832 O842 1.265 . S
O833 C832 1.227 . S
N834 Co831 2.121 . S
N834 C836 1.375 . S
N834 C837 1.313 . S
C835 C836 1.338 . S
C835 N838 1.377 . S
C835 H855 0.930 . S
C836 N834 1.375 . S
C836 C835 1.338 . S
C836 H840 0.931 . S
C837 N834 1.313 . S
C837 N838 1.344 . S
C837 H841 0.930 . S
N838 C835 1.377 . S
N838 C837 1.344 . S
O839 Co831 2.055 . S
O839 C843 1.253 . S
H840 C836 0.931 . S
H841 C837 0.930 . S
O842 Co831 2.039 . S
O842 C832 1.265 . S
C843 O839 1.253 . S
C843 O844 1.227 . S
O844 C843 1.227 . S
N845 Co831 2.140 . S
N845 C848 1.346 . S
N845 C849 1.345 . S
C846 C847 1.387 . S
C846 C850 1.391 . S
C847 C846 1.387 . S
C847 C848 1.369 . S
C847 H856 0.929 . S
C848 N845 1.346 . S
C848 C847 1.369 . S
C848 H851 0.928 . S
C849 N845 1.345 . S
C849 C850 1.371 . S
C849 H852 0.931 . S
C850 C846 1.391 . S
C850 C849 1.371 . S
C850 H857 0.930 . S
H851 C848 0.928 . S
H852 C849 0.931 . S
H853 C829 0.930 . S
H854 C826 0.930 . S
H855 C835 0.930 . S
H856 C847 0.929 . S
H857 C850 0.930 . S
C858 C859 1.351 . S
C858 N861 1.368 . S
C858 H863 0.931 . S
C859 C858 1.351 . S
C859 N860 1.373 . S
C859 H887 0.930 . S
N860 C859 1.373 . S
N860 C862 1.340 . S
N861 C858 1.368 . S
N861 C862 1.321 . S
N861 Co864 2.135 . S
C862 N860 1.340 . S
C862 N861 1.321 . S
C862 H886 0.930 . S
H863 C858 0.931 . S
Co864 N861 2.135 . S
Co864 N867 2.121 . S
Co864 O872 2.055 . S
Co864 O875 2.039 . S
Co864 N878 2.140 . S
C865 O866 1.227 . S
C865 O875 1.265 . S
O866 C865 1.227 . S
N867 Co864 2.121 . S
N867 C869 1.375 . S
N867 C870 1.313 . S
C868 C869 1.338 . S
C868 N871 1.377 . S
C868 H888 0.930 . S
C869 N867 1.375 . S
C869 C868 1.338 . S
C869 H873 0.931 . S
C870 N867 1.313 . S
C870 N871 1.344 . S
C870 H874 0.930 . S
N871 C868 1.377 . S
N871 C870 1.344 . S
O872 Co864 2.055 . S
O872 C876 1.253 . S
H873 C869 0.931 . S
H874 C870 0.930 . S
O875 Co864 2.039 . S
O875 C865 1.265 . S
C876 O872 1.253 . S
C876 O877 1.227 . S
O877 C876 1.227 . S
N878 Co864 2.140 . S
N878 C881 1.346 . S
N878 C882 1.345 . S
C879 C880 1.387 . S
C879 C883 1.391 . S
C880 C879 1.387 . S
C880 C881 1.369 . S
C880 H889 0.929 . S
C881 N878 1.346 . S
C881 C880 1.369 . S
C881 H884 0.928 . S
C882 N878 1.345 . S
C882 C883 1.371 . S
C882 H885 0.931 . S
C883 C879 1.391 . S
C883 C882 1.371 . S
C883 H890 0.930 . S
H884 C881 0.928 . S
H885 C882 0.931 . S
H886 C862 0.930 . S
H887 C859 0.930 . S
H888 C868 0.930 . S
H889 C880 0.929 . S
H890 C883 0.930 . S
C891 C892 1.351 . S
C891 N894 1.368 . S
C891 H896 0.931 . S
C892 C891 1.351 . S
C892 N893 1.373 . S
C892 H920 0.930 . S
N893 C892 1.373 . S
N893 C895 1.340 . S
N894 C891 1.368 . S
N894 C895 1.321 . S
N894 Co897 2.135 . S
C895 N893 1.340 . S
C895 N894 1.321 . S
C895 H919 0.930 . S
H896 C891 0.931 . S
Co897 N894 2.135 . S
Co897 N900 2.121 . S
Co897 O905 2.055 . S
Co897 O908 2.039 . S
Co897 N911 2.140 . S
C898 O899 1.227 . S
C898 O908 1.265 . S
O899 C898 1.227 . S
N900 Co897 2.121 . S
N900 C902 1.375 . S
N900 C903 1.313 . S
C901 C902 1.338 . S
C901 N904 1.377 . S
C901 H921 0.930 . S
C902 N900 1.375 . S
C902 C901 1.338 . S
C902 H906 0.931 . S
C903 N900 1.313 . S
C903 N904 1.344 . S
C903 H907 0.930 . S
N904 C901 1.377 . S
N904 C903 1.344 . S
O905 Co897 2.055 . S
O905 C909 1.253 . S
H906 C902 0.931 . S
H907 C903 0.930 . S
O908 Co897 2.039 . S
O908 C898 1.265 . S
C909 O905 1.253 . S
C909 O910 1.227 . S
O910 C909 1.227 . S
N911 Co897 2.140 . S
N911 C914 1.346 . S
N911 C915 1.345 . S
C912 C913 1.387 . S
C912 C916 1.391 . S
C913 C912 1.387 . S
C913 C914 1.369 . S
C913 H922 0.929 . S
C914 N911 1.346 . S
C914 C913 1.369 . S
C914 H917 0.928 . S
C915 N911 1.345 . S
C915 C916 1.371 . S
C915 H918 0.931 . S
C916 C912 1.391 . S
C916 C915 1.371 . S
C916 H923 0.930 . S
H917 C914 0.928 . S
H918 C915 0.931 . S
H919 C895 0.930 . S
H920 C892 0.930 . S
H921 C901 0.930 . S
H922 C913 0.929 . S
H923 C916 0.930 . S
C924 C925 1.351 . S
C924 N927 1.368 . S
C924 H929 0.931 . S
C925 C924 1.351 . S
C925 N926 1.373 . S
C925 H953 0.930 . S
N926 C925 1.373 . S
N926 C928 1.340 . S
N927 C924 1.368 . S
N927 C928 1.321 . S
N927 Co930 2.135 . S
C928 N926 1.340 . S
C928 N927 1.321 . S
C928 H952 0.930 . S
H929 C924 0.931 . S
Co930 N927 2.135 . S
Co930 N933 2.121 . S
Co930 O938 2.055 . S
Co930 O941 2.039 . S
Co930 N944 2.140 . S
C931 O932 1.227 . S
C931 O941 1.265 . S
O932 C931 1.227 . S
N933 Co930 2.121 . S
N933 C935 1.375 . S
N933 C936 1.313 . S
C934 C935 1.338 . S
C934 N937 1.377 . S
C934 H954 0.930 . S
C935 N933 1.375 . S
C935 C934 1.338 . S
C935 H939 0.931 . S
C936 N933 1.313 . S
C936 N937 1.344 . S
C936 H940 0.930 . S
N937 C934 1.377 . S
N937 C936 1.344 . S
O938 Co930 2.055 . S
O938 C942 1.253 . S
H939 C935 0.931 . S
H940 C936 0.930 . S
O941 Co930 2.039 . S
O941 C931 1.265 . S
C942 O938 1.253 . S
C942 O943 1.227 . S
O943 C942 1.227 . S
N944 Co930 2.140 . S
N944 C947 1.346 . S
N944 C948 1.345 . S
C945 C946 1.387 . S
C945 C949 1.391 . S
C946 C945 1.387 . S
C946 C947 1.369 . S
C946 H955 0.929 . S
C947 N944 1.346 . S
C947 C946 1.369 . S
C947 H950 0.928 . S
C948 N944 1.345 . S
C948 C949 1.371 . S
C948 H951 0.931 . S
C949 C945 1.391 . S
C949 C948 1.371 . S
C949 H956 0.930 . S
H950 C947 0.928 . S
H951 C948 0.931 . S
H952 C928 0.930 . S
H953 C925 0.930 . S
H954 C934 0.930 . S
H955 C946 0.929 . S
H956 C949 0.930 . S
C957 C958 1.351 . S
C957 N960 1.368 . S
C957 H962 0.931 . S
C958 C957 1.351 . S
C958 N959 1.373 . S
C958 H986 0.930 . S
N959 C958 1.373 . S
N959 C961 1.340 . S
N960 C957 1.368 . S
N960 C961 1.321 . S
N960 Co963 2.135 . S
C961 N959 1.340 . S
C961 N960 1.321 . S
C961 H985 0.930 . S
H962 C957 0.931 . S
Co963 N960 2.135 . S
Co963 N966 2.121 . S
Co963 O971 2.055 . S
Co963 O974 2.039 . S
Co963 N977 2.140 . S
C964 O965 1.227 . S
C964 O974 1.265 . S
O965 C964 1.227 . S
N966 Co963 2.121 . S
N966 C968 1.375 . S
N966 C969 1.313 . S
C967 C968 1.338 . S
C967 N970 1.377 . S
C967 H987 0.930 . S
C968 N966 1.375 . S
C968 C967 1.338 . S
C968 H972 0.931 . S
C969 N966 1.313 . S
C969 N970 1.344 . S
C969 H973 0.930 . S
N970 C967 1.377 . S
N970 C969 1.344 . S
O971 Co963 2.055 . S
O971 C975 1.253 . S
H972 C968 0.931 . S
H973 C969 0.930 . S
O974 Co963 2.039 . S
O974 C964 1.265 . S
C975 O971 1.253 . S
C975 O976 1.227 . S
O976 C975 1.227 . S
N977 Co963 2.140 . S
N977 C980 1.346 . S
N977 C981 1.345 . S
C978 C979 1.387 . S
C978 C982 1.391 . S
C979 C978 1.387 . S
C979 C980 1.369 . S
C979 H988 0.929 . S
C980 N977 1.346 . S
C980 C979 1.369 . S
C980 H983 0.928 . S
C981 N977 1.345 . S
C981 C982 1.371 . S
C981 H984 0.931 . S
C982 C978 1.391 . S
C982 C981 1.371 . S
C982 H989 0.930 . S
H983 C980 0.928 . S
H984 C981 0.931 . S
H985 C961 0.930 . S
H986 C958 0.930 . S
H987 C967 0.930 . S
H988 C979 0.929 . S
H989 C982 0.930 . S
C990 C991 1.351 . S
C990 N993 1.368 . S
C990 H995 0.931 . S
C991 C990 1.351 . S
C991 N992 1.373 . S
C991 H1019 0.930 . S
N992 C991 1.373 . S
N992 C994 1.340 . S
N993 C990 1.368 . S
N993 C994 1.321 . S
N993 Co996 2.135 . S
C994 N992 1.340 . S
C994 N993 1.321 . S
C994 H1018 0.930 . S
H995 C990 0.931 . S
Co996 N993 2.135 . S
Co996 N999 2.121 . S
Co996 O1004 2.055 . S
Co996 O1007 2.039 . S
Co996 N1010 2.140 . S
C997 O998 1.227 . S
C997 O1007 1.265 . S
O998 C997 1.227 . S
N999 Co996 2.121 . S
N999 C1001 1.375 . S
N999 C1002 1.313 . S
C1000 C1001 1.338 . S
C1000 N1003 1.377 . S
C1000 H1020 0.930 . S
C1001 N999 1.375 . S
C1001 C1000 1.338 . S
C1001 H1005 0.931 . S
C1002 N999 1.313 . S
C1002 N1003 1.344 . S
C1002 H1006 0.930 . S
N1003 C1000 1.377 . S
N1003 C1002 1.344 . S
O1004 Co996 2.055 . S
O1004 C1008 1.253 . S
H1005 C1001 0.931 . S
H1006 C1002 0.930 . S
O1007 Co996 2.039 . S
O1007 C997 1.265 . S
C1008 O1004 1.253 . S
C1008 O1009 1.227 . S
O1009 C1008 1.227 . S
N1010 Co996 2.140 . S
N1010 C1013 1.346 . S
N1010 C1014 1.345 . S
C1011 C1012 1.387 . S
C1011 C1015 1.391 . S
C1012 C1011 1.387 . S
C1012 C1013 1.369 . S
C1012 H1021 0.929 . S
C1013 N1010 1.346 . S
C1013 C1012 1.369 . S
C1013 H1016 0.928 . S
C1014 N1010 1.345 . S
C1014 C1015 1.371 . S
C1014 H1017 0.931 . S
C1015 C1011 1.391 . S
C1015 C1014 1.371 . S
C1015 H1022 0.930 . S
H1016 C1013 0.928 . S
H1017 C1014 0.931 . S
H1018 C994 0.930 . S
H1019 C991 0.930 . S
H1020 C1000 0.930 . S
H1021 C1012 0.929 . S
H1022 C1015 0.930 . S
C1023 C1024 1.351 . S
C1023 N1026 1.368 . S
C1023 H1028 0.931 . S
C1024 C1023 1.351 . S
C1024 N1025 1.373 . S
C1024 H1052 0.930 . S
N1025 C1024 1.373 . S
N1025 C1027 1.340 . S
N1026 C1023 1.368 . S
N1026 C1027 1.321 . S
N1026 Co1029 2.135 . S
C1027 N1025 1.340 . S
C1027 N1026 1.321 . S
C1027 H1051 0.930 . S
H1028 C1023 0.931 . S
Co1029 N1026 2.135 . S
Co1029 N1032 2.121 . S
Co1029 O1037 2.055 . S
Co1029 O1040 2.039 . S
Co1029 N1043 2.140 . S
C1030 O1031 1.227 . S
C1030 O1040 1.265 . S
O1031 C1030 1.227 . S
N1032 Co1029 2.121 . S
N1032 C1034 1.375 . S
N1032 C1035 1.313 . S
C1033 C1034 1.338 . S
C1033 N1036 1.377 . S
C1033 H1053 0.930 . S
C1034 N1032 1.375 . S
C1034 C1033 1.338 . S
C1034 H1038 0.931 . S
C1035 N1032 1.313 . S
C1035 N1036 1.344 . S
C1035 H1039 0.930 . S
N1036 C1033 1.377 . S
N1036 C1035 1.344 . S
O1037 Co1029 2.055 . S
O1037 C1041 1.253 . S
H1038 C1034 0.931 . S
H1039 C1035 0.930 . S
O1040 Co1029 2.039 . S
O1040 C1030 1.265 . S
C1041 O1037 1.253 . S
C1041 O1042 1.227 . S
O1042 C1041 1.227 . S
N1043 Co1029 2.140 . S
N1043 C1046 1.346 . S
N1043 C1047 1.345 . S
C1044 C1045 1.387 . S
C1044 C1048 1.391 . S
C1045 C1044 1.387 . S
C1045 C1046 1.369 . S
C1045 H1054 0.929 . S
C1046 N1043 1.346 . S
C1046 C1045 1.369 . S
C1046 H1049 0.928 . S
C1047 N1043 1.345 . S
C1047 C1048 1.371 . S
C1047 H1050 0.931 . S
C1048 C1044 1.391 . S
C1048 C1047 1.371 . S
C1048 H1055 0.930 . S
H1049 C1046 0.928 . S
H1050 C1047 0.931 . S
H1051 C1027 0.930 . S
H1052 C1024 0.930 . S
H1053 C1033 0.930 . S
H1054 C1045 0.929 . S
H1055 C1048 0.930 . S
H1056 C1068 0.930 . S
H1057 C1070 0.930 1_556 S
H1058 C1071 0.930 . S
H1059 C1075 0.959 . S
H1060 C1075 0.959 . S
H1061 C1075 0.961 . S
H1062 C1076 0.960 . S
H1063 C1076 0.961 . S
H1064 C1076 0.959 . S
H1065 C1079 0.929 . S
H1066 C1080 0.931 . S
H1067 C1082 0.930 . S
C1068 H1056 0.930 . S
C1068 C1069 1.399 . S
C1068 C1073 1.399 . S
C1069 C1068 1.399 . S
C1069 C1070 1.376 . S
C1070 H1057 0.930 1_554 S
C1070 C1069 1.376 . S
C1070 C1071 1.388 . S
C1071 H1058 0.930 . S
C1071 C1070 1.388 . S
C1071 C1072 1.390 . S
C1072 C1071 1.390 . S
C1072 C1073 1.394 . S
C1072 C1078 1.465 . S
C1073 C1068 1.399 . S
C1073 C1072 1.394 . S
C1073 C1074 1.516 . S
C1074 C1073 1.516 . S
C1074 C1075 1.502 . S
C1074 C1076 1.561 . S
C1074 C1077 1.526 . S
C1075 H1059 0.959 . S
C1075 H1060 0.959 . S
C1075 H1061 0.961 . S
C1075 C1074 1.502 . S
C1076 H1062 0.960 . S
C1076 H1063 0.961 . S
C1076 H1064 0.959 . S
C1076 C1074 1.561 . S
C1077 C1074 1.526 . S
C1077 C1078 1.396 . S
C1077 C1082 1.390 . S
C1078 C1072 1.465 . S
C1078 C1077 1.396 . S
C1078 C1079 1.399 . S
C1079 H1065 0.929 . S
C1079 C1078 1.399 . S
C1079 C1080 1.385 . S
C1080 H1066 0.931 . S
C1080 C1079 1.385 . S
C1080 C1081 1.389 . S
C1081 C1080 1.389 . S
C1081 C1082 1.387 . S
C1082 H1067 0.930 . S
C1082 C1077 1.390 . S
C1082 C1081 1.387 . S
H1083 C1095 0.930 . S
H1084 C1097 0.930 . S
H1085 C1098 0.930 . S
H1086 C1102 0.959 . S
H1087 C1102 0.959 . S
H1088 C1102 0.961 . S
H1089 C1103 0.960 . S
H1090 C1103 0.961 . S
H1091 C1103 0.959 . S
H1092 C1106 0.929 . S
H1093 C1107 0.931 . S
H1094 C1109 0.930 . S
C1095 H1083 0.930 . S
C1095 C1096 1.399 . S
C1095 C1100 1.399 . S
C1096 C1095 1.399 . S
C1096 C1097 1.376 . S
C1097 H1084 0.930 . S
C1097 C1096 1.376 . S
C1097 C1098 1.388 . S
C1098 H1085 0.930 . S
C1098 C1097 1.388 . S
C1098 C1099 1.390 . S
C1099 C1098 1.390 . S
C1099 C1100 1.394 . S
C1099 C1105 1.465 . S
C1100 C1095 1.399 . S
C1100 C1099 1.394 . S
C1100 C1101 1.516 . S
C1101 C1100 1.516 . S
C1101 C1102 1.502 . S
C1101 C1103 1.561 . S
C1101 C1104 1.526 . S
C1102 H1086 0.959 . S
C1102 H1087 0.959 . S
C1102 H1088 0.961 . S
C1102 C1101 1.502 . S
C1103 H1089 0.960 . S
C1103 H1090 0.961 . S
C1103 H1091 0.959 . S
C1103 C1101 1.561 . S
C1104 C1101 1.526 . S
C1104 C1105 1.396 . S
C1104 C1109 1.390 . S
C1105 C1099 1.465 . S
C1105 C1104 1.396 . S
C1105 C1106 1.399 . S
C1106 H1092 0.929 . S
C1106 C1105 1.399 . S
C1106 C1107 1.385 . S
C1107 H1093 0.931 . S
C1107 C1106 1.385 . S
C1107 C1108 1.389 . S
C1108 C1107 1.389 . S
C1108 C1109 1.387 . S
C1109 H1094 0.930 . S
C1109 C1104 1.390 . S
C1109 C1108 1.387 . S
H1110 C1122 0.930 . S
H1111 C1124 0.930 . S
H1112 C1125 0.930 . S
H1113 C1129 0.959 . S
H1114 C1129 0.959 . S
H1115 C1129 0.961 . S
H1116 C1130 0.960 . S
H1117 C1130 0.961 . S
H1118 C1130 0.959 . S
H1119 C1133 0.929 . S
H1120 C1134 0.931 . S
H1121 C1136 0.930 . S
C1122 H1110 0.930 . S
C1122 C1123 1.399 . S
C1122 C1127 1.399 . S
C1123 C1122 1.399 . S
C1123 C1124 1.376 . S
C1124 H1111 0.930 . S
C1124 C1123 1.376 . S
C1124 C1125 1.388 . S
C1125 H1112 0.930 . S
C1125 C1124 1.388 . S
C1125 C1126 1.390 . S
C1126 C1125 1.390 . S
C1126 C1127 1.394 . S
C1126 C1132 1.465 . S
C1127 C1122 1.399 . S
C1127 C1126 1.394 . S
C1127 C1128 1.516 . S
C1128 C1127 1.516 . S
C1128 C1129 1.502 . S
C1128 C1130 1.561 . S
C1128 C1131 1.526 . S
C1129 H1113 0.959 . S
C1129 H1114 0.959 . S
C1129 H1115 0.961 . S
C1129 C1128 1.502 . S
C1130 H1116 0.960 . S
C1130 H1117 0.961 . S
C1130 H1118 0.959 . S
C1130 C1128 1.561 . S
C1131 C1128 1.526 . S
C1131 C1132 1.396 . S
C1131 C1136 1.390 . S
C1132 C1126 1.465 . S
C1132 C1131 1.396 . S
C1132 C1133 1.399 . S
C1133 H1119 0.929 . S
C1133 C1132 1.399 . S
C1133 C1134 1.385 . S
C1134 H1120 0.931 . S
C1134 C1133 1.385 . S
C1134 C1135 1.389 . S
C1135 C1134 1.389 . S
C1135 C1136 1.387 . S
C1136 H1121 0.930 . S
C1136 C1131 1.390 . S
C1136 C1135 1.387 . S
H1137 C1149 0.930 . S
H1138 C1151 0.930 . S
H1139 C1152 0.930 . S
H1140 C1156 0.959 . S
H1141 C1156 0.959 . S
H1142 C1156 0.961 . S
H1143 C1157 0.960 . S
H1144 C1157 0.961 . S
H1145 C1157 0.959 . S
H1146 C1160 0.929 . S
H1147 C1161 0.931 1_554 S
H1148 C1163 0.930 . S
C1149 H1137 0.930 . S
C1149 C1150 1.399 . S
C1149 C1154 1.399 . S
C1150 C1149 1.399 . S
C1150 C1151 1.376 . S
C1151 H1138 0.930 . S
C1151 C1150 1.376 . S
C1151 C1152 1.388 . S
C1152 H1139 0.930 . S
C1152 C1151 1.388 . S
C1152 C1153 1.390 . S
C1153 C1152 1.390 . S
C1153 C1154 1.394 . S
C1153 C1159 1.465 . S
C1154 C1149 1.399 . S
C1154 C1153 1.394 . S
C1154 C1155 1.516 . S
C1155 C1154 1.516 . S
C1155 C1156 1.502 . S
C1155 C1157 1.561 . S
C1155 C1158 1.526 . S
C1156 H1140 0.959 . S
C1156 H1141 0.959 . S
C1156 H1142 0.961 . S
C1156 C1155 1.502 . S
C1157 H1143 0.960 . S
C1157 H1144 0.961 . S
C1157 H1145 0.959 . S
C1157 C1155 1.561 . S
C1158 C1155 1.526 . S
C1158 C1159 1.396 . S
C1158 C1163 1.390 . S
C1159 C1153 1.465 . S
C1159 C1158 1.396 . S
C1159 C1160 1.399 . S
C1160 H1146 0.929 . S
C1160 C1159 1.399 . S
C1160 C1161 1.385 . S
C1161 H1147 0.931 1_556 S
C1161 C1160 1.385 . S
C1161 C1162 1.389 . S
C1162 C1161 1.389 . S
C1162 C1163 1.387 . S
C1163 H1148 0.930 . S
C1163 C1158 1.390 . S
C1163 C1162 1.387 . S
H1164 C1176 0.930 . S
H1165 C1178 0.930 . S
H1166 C1179 0.930 . S
H1167 C1183 0.959 . S
H1168 C1183 0.959 . S
H1169 C1183 0.961 . S
H1170 C1184 0.960 . S
H1171 C1184 0.961 . S
H1172 C1184 0.959 . S
H1173 C1187 0.929 . S
H1174 C1188 0.931 1_554 S
H1175 C1190 0.930 . S
C1176 H1164 0.930 . S
C1176 C1177 1.399 . S
C1176 C1181 1.399 . S
C1177 C1176 1.399 . S
C1177 C1178 1.376 . S
C1178 H1165 0.930 . S
C1178 C1177 1.376 . S
C1178 C1179 1.388 . S
C1179 H1166 0.930 . S
C1179 C1178 1.388 . S
C1179 C1180 1.390 . S
C1180 C1179 1.390 . S
C1180 C1181 1.394 . S
C1180 C1186 1.465 . S
C1181 C1176 1.399 . S
C1181 C1180 1.394 . S
C1181 C1182 1.516 . S
C1182 C1181 1.516 . S
C1182 C1183 1.502 . S
C1182 C1184 1.561 . S
C1182 C1185 1.526 . S
C1183 H1167 0.959 . S
C1183 H1168 0.959 . S
C1183 H1169 0.961 . S
C1183 C1182 1.502 . S
C1184 H1170 0.960 . S
C1184 H1171 0.961 . S
C1184 H1172 0.959 . S
C1184 C1182 1.561 . S
C1185 C1182 1.526 . S
C1185 C1186 1.396 . S
C1185 C1190 1.390 . S
C1186 C1180 1.465 . S
C1186 C1185 1.396 . S
C1186 C1187 1.399 . S
C1187 H1173 0.929 . S
C1187 C1186 1.399 . S
C1187 C1188 1.385 . S
C1188 H1174 0.931 1_556 S
C1188 C1187 1.385 . S
C1188 C1189 1.389 . S
C1189 C1188 1.389 . S
C1189 C1190 1.387 . S
C1190 H1175 0.930 . S
C1190 C1185 1.390 . S
C1190 C1189 1.387 . S
H1191 C1203 0.930 . S
H1192 C1205 0.930 . S
H1193 C1206 0.930 . S
H1194 C1210 0.959 . S
H1195 C1210 0.959 . S
H1196 C1210 0.961 . S
H1197 C1211 0.960 . S
H1198 C1211 0.961 . S
H1199 C1211 0.959 . S
H1200 C1214 0.929 . S
H1201 C1215 0.931 . S
H1202 C1217 0.930 . S
C1203 H1191 0.930 . S
C1203 C1204 1.399 . S
C1203 C1208 1.399 . S
C1204 C1203 1.399 . S
C1204 C1205 1.376 . S
C1205 H1192 0.930 . S
C1205 C1204 1.376 . S
C1205 C1206 1.388 . S
C1206 H1193 0.930 . S
C1206 C1205 1.388 . S
C1206 C1207 1.390 . S
C1207 C1206 1.390 . S
C1207 C1208 1.394 . S
C1207 C1213 1.465 . S
C1208 C1203 1.399 . S
C1208 C1207 1.394 . S
C1208 C1209 1.516 . S
C1209 C1208 1.516 . S
C1209 C1210 1.502 . S
C1209 C1211 1.561 . S
C1209 C1212 1.526 . S
C1210 H1194 0.959 . S
C1210 H1195 0.959 . S
C1210 H1196 0.961 . S
C1210 C1209 1.502 . S
C1211 H1197 0.960 . S
C1211 H1198 0.961 . S
C1211 H1199 0.959 . S
C1211 C1209 1.561 . S
C1212 C1209 1.526 . S
C1212 C1213 1.396 . S
C1212 C1217 1.390 . S
C1213 C1207 1.465 . S
C1213 C1212 1.396 . S
C1213 C1214 1.399 . S
C1214 H1200 0.929 . S
C1214 C1213 1.399 . S
C1214 C1215 1.385 . S
C1215 H1201 0.931 . S
C1215 C1214 1.385 . S
C1215 C1216 1.389 . S
C1216 C1215 1.389 . S
C1216 C1217 1.387 . S
C1217 H1202 0.930 . S
C1217 C1212 1.390 . S
C1217 C1216 1.387 . S
H1218 C1230 0.930 . S
H1219 C1232 0.930 . S
H1220 C1233 0.930 . S
H1221 C1237 0.959 . S
H1222 C1237 0.959 . S
H1223 C1237 0.961 . S
H1224 C1238 0.960 . S
H1225 C1238 0.961 . S
H1226 C1238 0.959 . S
H1227 C1241 0.929 . S
H1228 C1242 0.931 . S
H1229 C1244 0.930 . S
C1230 H1218 0.930 . S
C1230 C1231 1.399 . S
C1230 C1235 1.399 . S
C1231 C1230 1.399 . S
C1231 C1232 1.376 . S
C1232 H1219 0.930 . S
C1232 C1231 1.376 . S
C1232 C1233 1.388 . S
C1233 H1220 0.930 . S
C1233 C1232 1.388 . S
C1233 C1234 1.390 . S
C1234 C1233 1.390 . S
C1234 C1235 1.394 . S
C1234 C1240 1.465 . S
C1235 C1230 1.399 . S
C1235 C1234 1.394 . S
C1235 C1236 1.516 . S
C1236 C1235 1.516 . S
C1236 C1237 1.502 . S
C1236 C1238 1.561 . S
C1236 C1239 1.526 . S
C1237 H1221 0.959 . S
C1237 H1222 0.959 . S
C1237 H1223 0.961 . S
C1237 C1236 1.502 . S
C1238 H1224 0.960 . S
C1238 H1225 0.961 . S
C1238 H1226 0.959 . S
C1238 C1236 1.561 . S
C1239 C1236 1.526 . S
C1239 C1240 1.396 . S
C1239 C1244 1.390 . S
C1240 C1234 1.465 . S
C1240 C1239 1.396 . S
C1240 C1241 1.399 . S
C1241 H1227 0.929 . S
C1241 C1240 1.399 . S
C1241 C1242 1.385 . S
C1242 H1228 0.931 . S
C1242 C1241 1.385 . S
C1242 C1243 1.389 . S
C1243 C1242 1.389 . S
C1243 C1244 1.387 . S
C1244 H1229 0.930 . S
C1244 C1239 1.390 . S
C1244 C1243 1.387 . S
H1245 C1257 0.930 . S
H1246 C1259 0.930 . S
H1247 C1260 0.930 . S
H1248 C1264 0.959 . S
H1249 C1264 0.959 . S
H1250 C1264 0.961 . S
H1251 C1265 0.960 . S
H1252 C1265 0.961 . S
H1253 C1265 0.959 . S
H1254 C1268 0.929 . S
H1255 C1269 0.931 . S
H1256 C1271 0.930 . S
C1257 H1245 0.930 . S
C1257 C1258 1.399 . S
C1257 C1262 1.399 . S
C1258 C1257 1.399 . S
C1258 C1259 1.376 . S
C1259 H1246 0.930 . S
C1259 C1258 1.376 . S
C1259 C1260 1.388 . S
C1260 H1247 0.930 . S
C1260 C1259 1.388 . S
C1260 C1261 1.390 . S
C1261 C1260 1.390 . S
C1261 C1262 1.394 . S
C1261 C1267 1.465 . S
C1262 C1257 1.399 . S
C1262 C1261 1.394 . S
C1262 C1263 1.516 . S
C1263 C1262 1.516 . S
C1263 C1264 1.502 . S
C1263 C1265 1.561 . S
C1263 C1266 1.526 . S
C1264 H1248 0.959 . S
C1264 H1249 0.959 . S
C1264 H1250 0.961 . S
C1264 C1263 1.502 . S
C1265 H1251 0.960 . S
C1265 H1252 0.961 . S
C1265 H1253 0.959 . S
C1265 C1263 1.561 . S
C1266 C1263 1.526 . S
C1266 C1267 1.396 . S
C1266 C1271 1.390 . S
C1267 C1261 1.465 . S
C1267 C1266 1.396 . S
C1267 C1268 1.399 . S
C1268 H1254 0.929 . S
C1268 C1267 1.399 . S
C1268 C1269 1.385 . S
C1269 H1255 0.931 . S
C1269 C1268 1.385 . S
C1269 C1270 1.389 . S
C1270 C1269 1.389 . S
C1270 C1271 1.387 . S
C1271 H1256 0.930 . S
C1271 C1266 1.390 . S
C1271 C1270 1.387 . S
H1272 C1284 0.930 . S
H1273 C1286 0.930 . S
H1274 C1287 0.930 . S
H1275 C1291 0.959 . S
H1276 C1291 0.959 . S
H1277 C1291 0.961 . S
H1278 C1292 0.960 . S
H1279 C1292 0.961 . S
H1280 C1292 0.959 . S
H1281 C1295 0.929 . S
H1282 C1296 0.931 . S
H1283 C1298 0.930 . S
C1284 H1272 0.930 . S
C1284 C1285 1.399 . S
C1284 C1289 1.399 . S
C1285 C1284 1.399 . S
C1285 C1286 1.376 . S
C1286 H1273 0.930 . S
C1286 C1285 1.376 . S
C1286 C1287 1.388 . S
C1287 H1274 0.930 . S
C1287 C1286 1.388 . S
C1287 C1288 1.390 . S
C1288 C1287 1.390 . S
C1288 C1289 1.394 . S
C1288 C1294 1.465 . S
C1289 C1284 1.399 . S
C1289 C1288 1.394 . S
C1289 C1290 1.516 . S
C1290 C1289 1.516 . S
C1290 C1291 1.502 . S
C1290 C1292 1.561 . S
C1290 C1293 1.526 . S
C1291 H1275 0.959 . S
C1291 H1276 0.959 . S
C1291 H1277 0.961 . S
C1291 C1290 1.502 . S
C1292 H1278 0.960 . S
C1292 H1279 0.961 . S
C1292 H1280 0.959 . S
C1292 C1290 1.561 . S
C1293 C1290 1.526 . S
C1293 C1294 1.396 . S
C1293 C1298 1.390 . S
C1294 C1288 1.465 . S
C1294 C1293 1.396 . S
C1294 C1295 1.399 . S
C1295 H1281 0.929 . S
C1295 C1294 1.399 . S
C1295 C1296 1.385 . S
C1296 H1282 0.931 . S
C1296 C1295 1.385 . S
C1296 C1297 1.389 . S
C1297 C1296 1.389 . S
C1297 C1298 1.387 . S
C1298 H1283 0.930 . S
C1298 C1293 1.390 . S
C1298 C1297 1.387 . S
H1299 C1311 0.930 . S
H1300 C1313 0.930 . S
H1301 C1314 0.930 . S
H1302 C1318 0.959 . S
H1303 C1318 0.959 . S
H1304 C1318 0.961 . S
H1305 C1319 0.960 . S
H1306 C1319 0.961 . S
H1307 C1319 0.959 . S
H1308 C1322 0.929 . S
H1309 C1323 0.931 . S
H1310 C1325 0.930 . S
C1311 H1299 0.930 . S
C1311 C1312 1.399 . S
C1311 C1316 1.399 . S
C1312 C1311 1.399 . S
C1312 C1313 1.376 . S
C1313 H1300 0.930 . S
C1313 C1312 1.376 . S
C1313 C1314 1.388 . S
C1314 H1301 0.930 . S
C1314 C1313 1.388 . S
C1314 C1315 1.390 . S
C1315 C1314 1.390 . S
C1315 C1316 1.394 . S
C1315 C1321 1.465 . S
C1316 C1311 1.399 . S
C1316 C1315 1.394 . S
C1316 C1317 1.516 . S
C1317 C1316 1.516 . S
C1317 C1318 1.502 . S
C1317 C1319 1.561 . S
C1317 C1320 1.526 . S
C1318 H1302 0.959 . S
C1318 H1303 0.959 . S
C1318 H1304 0.961 . S
C1318 C1317 1.502 . S
C1319 H1305 0.960 . S
C1319 H1306 0.961 . S
C1319 H1307 0.959 . S
C1319 C1317 1.561 . S
C1320 C1317 1.526 . S
C1320 C1321 1.396 . S
C1320 C1325 1.390 . S
C1321 C1315 1.465 . S
C1321 C1320 1.396 . S
C1321 C1322 1.399 . S
C1322 H1308 0.929 . S
C1322 C1321 1.399 . S
C1322 C1323 1.385 . S
C1323 H1309 0.931 . S
C1323 C1322 1.385 . S
C1323 C1324 1.389 . S
C1324 C1323 1.389 . S
C1324 C1325 1.387 . S
C1325 H1310 0.930 . S
C1325 C1320 1.390 . S
C1325 C1324 1.387 . S
H1326 C1338 0.930 . S
H1327 C1340 0.930 1_556 S
H1328 C1341 0.930 . S
H1329 C1345 0.959 . S
H1330 C1345 0.959 . S
H1331 C1345 0.961 . S
H1332 C1346 0.960 . S
H1333 C1346 0.961 . S
H1334 C1346 0.959 . S
H1335 C1349 0.929 . S
H1336 C1350 0.931 . S
H1337 C1352 0.930 . S
C1338 H1326 0.930 . S
C1338 C1339 1.399 . S
C1338 C1343 1.399 . S
C1339 C1338 1.399 . S
C1339 C1340 1.376 . S
C1340 H1327 0.930 1_554 S
C1340 C1339 1.376 . S
C1340 C1341 1.388 . S
C1341 H1328 0.930 . S
C1341 C1340 1.388 . S
C1341 C1342 1.390 . S
C1342 C1341 1.390 . S
C1342 C1343 1.394 . S
C1342 C1348 1.465 . S
C1343 C1338 1.399 . S
C1343 C1342 1.394 . S
C1343 C1344 1.516 . S
C1344 C1343 1.516 . S
C1344 C1345 1.502 . S
C1344 C1346 1.561 . S
C1344 C1347 1.526 . S
C1345 H1329 0.959 . S
C1345 H1330 0.959 . S
C1345 H1331 0.961 . S
C1345 C1344 1.502 . S
C1346 H1332 0.960 . S
C1346 H1333 0.961 . S
C1346 H1334 0.959 . S
C1346 C1344 1.561 . S
C1347 C1344 1.526 . S
C1347 C1348 1.396 . S
C1347 C1352 1.390 . S
C1348 C1342 1.465 . S
C1348 C1347 1.396 . S
C1348 C1349 1.399 . S
C1349 H1335 0.929 . S
C1349 C1348 1.399 . S
C1349 C1350 1.385 . S
C1350 H1336 0.931 . S
C1350 C1349 1.385 . S
C1350 C1351 1.389 . S
C1351 C1350 1.389 . S
C1351 C1352 1.387 . S
C1352 H1337 0.930 . S
C1352 C1347 1.390 . S
C1352 C1351 1.387 . S
H1353 C1365 0.930 . S
H1354 C1367 0.930 . S
H1355 C1368 0.930 . S
H1356 C1372 0.959 . S
H1357 C1372 0.959 . S
H1358 C1372 0.961 . S
H1359 C1373 0.960 . S
H1360 C1373 0.961 . S
H1361 C1373 0.959 . S
H1362 C1376 0.929 . S
H1363 C1377 0.931 . S
H1364 C1379 0.930 . S
C1365 H1353 0.930 . S
C1365 C1366 1.399 . S
C1365 C1370 1.399 . S
C1366 C1365 1.399 . S
C1366 C1367 1.376 . S
C1367 H1354 0.930 . S
C1367 C1366 1.376 . S
C1367 C1368 1.388 . S
C1368 H1355 0.930 . S
C1368 C1367 1.388 . S
C1368 C1369 1.390 . S
C1369 C1368 1.390 . S
C1369 C1370 1.394 . S
C1369 C1375 1.465 . S
C1370 C1365 1.399 . S
C1370 C1369 1.394 . S
C1370 C1371 1.516 . S
C1371 C1370 1.516 . S
C1371 C1372 1.502 . S
C1371 C1373 1.561 . S
C1371 C1374 1.526 . S
C1372 H1356 0.959 . S
C1372 H1357 0.959 . S
C1372 H1358 0.961 . S
C1372 C1371 1.502 . S
C1373 H1359 0.960 . S
C1373 H1360 0.961 . S
C1373 H1361 0.959 . S
C1373 C1371 1.561 . S
C1374 C1371 1.526 . S
C1374 C1375 1.396 . S
C1374 C1379 1.390 . S
C1375 C1369 1.465 . S
C1375 C1374 1.396 . S
C1375 C1376 1.399 . S
C1376 H1362 0.929 . S
C1376 C1375 1.399 . S
C1376 C1377 1.385 . S
C1377 H1363 0.931 . S
C1377 C1376 1.385 . S
C1377 C1378 1.389 . S
C1378 C1377 1.389 . S
C1378 C1379 1.387 . S
C1379 H1364 0.930 . S
C1379 C1374 1.390 . S
C1379 C1378 1.387 . S
H1380 C1392 0.930 . S
H1381 C1394 0.930 . S
H1382 C1395 0.930 . S
H1383 C1399 0.959 . S
H1384 C1399 0.959 . S
H1385 C1399 0.961 . S
H1386 C1400 0.960 . S
H1387 C1400 0.961 . S
H1388 C1400 0.959 . S
H1389 C1403 0.929 . S
H1390 C1404 0.931 . S
H1391 C1406 0.930 . S
C1392 H1380 0.930 . S
C1392 C1393 1.399 . S
C1392 C1397 1.399 . S
C1393 C1392 1.399 . S
C1393 C1394 1.376 . S
C1394 H1381 0.930 . S
C1394 C1393 1.376 . S
C1394 C1395 1.388 . S
C1395 H1382 0.930 . S
C1395 C1394 1.388 . S
C1395 C1396 1.390 . S
C1396 C1395 1.390 . S
C1396 C1397 1.394 . S
C1396 C1402 1.465 . S
C1397 C1392 1.399 . S
C1397 C1396 1.394 . S
C1397 C1398 1.516 . S
C1398 C1397 1.516 . S
C1398 C1399 1.502 . S
C1398 C1400 1.561 . S
C1398 C1401 1.526 . S
C1399 H1383 0.959 . S
C1399 H1384 0.959 . S
C1399 H1385 0.961 . S
C1399 C1398 1.502 . S
C1400 H1386 0.960 . S
C1400 H1387 0.961 . S
C1400 H1388 0.959 . S
C1400 C1398 1.561 . S
C1401 C1398 1.526 . S
C1401 C1402 1.396 . S
C1401 C1406 1.390 . S
C1402 C1396 1.465 . S
C1402 C1401 1.396 . S
C1402 C1403 1.399 . S
C1403 H1389 0.929 . S
C1403 C1402 1.399 . S
C1403 C1404 1.385 . S
C1404 H1390 0.931 . S
C1404 C1403 1.385 . S
C1404 C1405 1.389 . S
C1405 C1404 1.389 . S
C1405 C1406 1.387 . S
C1406 H1391 0.930 . S
C1406 C1401 1.390 . S
C1406 C1405 1.387 . S
H1407 C1419 0.930 . S
H1408 C1421 0.930 1_556 S
H1409 C1422 0.930 . S
H1410 C1426 0.959 . S
H1411 C1426 0.959 . S
H1412 C1426 0.961 . S
H1413 C1427 0.960 . S
H1414 C1427 0.961 . S
H1415 C1427 0.959 . S
H1416 C1430 0.929 . S
H1417 C1431 0.931 . S
H1418 C1433 0.930 . S
C1419 H1407 0.930 . S
C1419 C1420 1.399 . S
C1419 C1424 1.399 . S
C1420 C1419 1.399 . S
C1420 C1421 1.376 . S
C1421 H1408 0.930 1_554 S
C1421 C1420 1.376 . S
C1421 C1422 1.388 . S
C1422 H1409 0.930 . S
C1422 C1421 1.388 . S
C1422 C1423 1.390 . S
C1423 C1422 1.390 . S
C1423 C1424 1.394 . S
C1423 C1429 1.465 . S
C1424 C1419 1.399 . S
C1424 C1423 1.394 . S
C1424 C1425 1.516 . S
C1425 C1424 1.516 . S
C1425 C1426 1.502 . S
C1425 C1427 1.561 . S
C1425 C1428 1.526 . S
C1426 H1410 0.959 . S
C1426 H1411 0.959 . S
C1426 H1412 0.961 . S
C1426 C1425 1.502 . S
C1427 H1413 0.960 . S
C1427 H1414 0.961 . S
C1427 H1415 0.959 . S
C1427 C1425 1.561 . S
C1428 C1425 1.526 . S
C1428 C1429 1.396 . S
C1428 C1433 1.390 . S
C1429 C1423 1.465 . S
C1429 C1428 1.396 . S
C1429 C1430 1.399 . S
C1430 H1416 0.929 . S
C1430 C1429 1.399 . S
C1430 C1431 1.385 . S
C1431 H1417 0.931 . S
C1431 C1430 1.385 . S
C1431 C1432 1.389 . S
C1432 C1431 1.389 . S
C1432 C1433 1.387 . S
C1433 H1418 0.930 . S
C1433 C1428 1.390 . S
C1433 C1432 1.387 . S
H1434 C1446 0.930 . S
H1435 C1448 0.930 1_554 S
H1436 C1449 0.930 . S
H1437 C1453 0.959 . S
H1438 C1453 0.959 . S
H1439 C1453 0.961 . S
H1440 C1454 0.960 . S
H1441 C1454 0.961 . S
H1442 C1454 0.959 . S
H1443 C1457 0.929 . S
H1444 C1458 0.931 . S
H1445 C1460 0.930 . S
C1446 H1434 0.930 . S
C1446 C1447 1.399 . S
C1446 C1451 1.399 . S
C1447 C1446 1.399 . S
C1447 C1448 1.376 . S
C1448 H1435 0.930 1_556 S
C1448 C1447 1.376 . S
C1448 C1449 1.388 . S
C1449 H1436 0.930 . S
C1449 C1448 1.388 . S
C1449 C1450 1.390 . S
C1450 C1449 1.390 . S
C1450 C1451 1.394 . S
C1450 C1456 1.465 . S
C1451 C1446 1.399 . S
C1451 C1450 1.394 . S
C1451 C1452 1.516 . S
C1452 C1451 1.516 . S
C1452 C1453 1.502 . S
C1452 C1454 1.561 . S
C1452 C1455 1.526 . S
C1453 H1437 0.959 . S
C1453 H1438 0.959 . S
C1453 H1439 0.961 . S
C1453 C1452 1.502 . S
C1454 H1440 0.960 . S
C1454 H1441 0.961 . S
C1454 H1442 0.959 . S
C1454 C1452 1.561 . S
C1455 C1452 1.526 . S
C1455 C1456 1.396 . S
C1455 C1460 1.390 . S
C1456 C1450 1.465 . S
C1456 C1455 1.396 . S
C1456 C1457 1.399 . S
C1457 H1443 0.929 . S
C1457 C1456 1.399 . S
C1457 C1458 1.385 . S
C1458 H1444 0.931 . S
C1458 C1457 1.385 . S
C1458 C1459 1.389 . S
C1459 C1458 1.389 . S
C1459 C1460 1.387 . S
C1460 H1445 0.930 . S
C1460 C1455 1.390 . S
C1460 C1459 1.387 . S
H1461 C1473 0.930 . S
H1462 C1475 0.930 . S
H1463 C1476 0.930 . S
H1464 C1480 0.959 . S
H1465 C1480 0.959 . S
H1466 C1480 0.961 . S
H1467 C1481 0.960 . S
H1468 C1481 0.961 . S
H1469 C1481 0.959 . S
H1470 C1484 0.929 . S
H1471 C1485 0.931 . S
H1472 C1487 0.930 . S
C1473 H1461 0.930 . S
C1473 C1474 1.399 . S
C1473 C1478 1.399 . S
C1474 C1473 1.399 . S
C1474 C1475 1.376 . S
C1475 H1462 0.930 . S
C1475 C1474 1.376 . S
C1475 C1476 1.388 . S
C1476 H1463 0.930 . S
C1476 C1475 1.388 . S
C1476 C1477 1.390 . S
C1477 C1476 1.390 . S
C1477 C1478 1.394 . S
C1477 C1483 1.465 . S
C1478 C1473 1.399 . S
C1478 C1477 1.394 . S
C1478 C1479 1.516 . S
C1479 C1478 1.516 . S
C1479 C1480 1.502 . S
C1479 C1481 1.561 . S
C1479 C1482 1.526 . S
C1480 H1464 0.959 . S
C1480 H1465 0.959 . S
C1480 H1466 0.961 . S
C1480 C1479 1.502 . S
C1481 H1467 0.960 . S
C1481 H1468 0.961 . S
C1481 H1469 0.959 . S
C1481 C1479 1.561 . S
C1482 C1479 1.526 . S
C1482 C1483 1.396 . S
C1482 C1487 1.390 . S
C1483 C1477 1.465 . S
C1483 C1482 1.396 . S
C1483 C1484 1.399 . S
C1484 H1470 0.929 . S
C1484 C1483 1.399 . S
C1484 C1485 1.385 . S
C1485 H1471 0.931 . S
C1485 C1484 1.385 . S
C1485 C1486 1.389 . S
C1486 C1485 1.389 . S
C1486 C1487 1.387 . S
C1487 H1472 0.930 . S
C1487 C1482 1.390 . S
C1487 C1486 1.387 . S
H1488 C1500 0.930 . S
H1489 C1502 0.930 . S
H1490 C1503 0.930 . S
H1491 C1507 0.959 . S
H1492 C1507 0.959 . S
H1493 C1507 0.961 . S
H1494 C1508 0.960 . S
H1495 C1508 0.961 . S
H1496 C1508 0.959 . S
H1497 C1511 0.929 . S
H1498 C1512 0.931 . S
H1499 C1514 0.930 . S
C1500 H1488 0.930 . S
C1500 C1501 1.399 . S
C1500 C1505 1.399 . S
C1501 C1500 1.399 . S
C1501 C1502 1.376 . S
C1502 H1489 0.930 . S
C1502 C1501 1.376 . S
C1502 C1503 1.388 . S
C1503 H1490 0.930 . S
C1503 C1502 1.388 . S
C1503 C1504 1.390 . S
C1504 C1503 1.390 . S
C1504 C1505 1.394 . S
C1504 C1510 1.465 . S
C1505 C1500 1.399 . S
C1505 C1504 1.394 . S
C1505 C1506 1.516 . S
C1506 C1505 1.516 . S
C1506 C1507 1.502 . S
C1506 C1508 1.561 . S
C1506 C1509 1.526 . S
C1507 H1491 0.959 . S
C1507 H1492 0.959 . S
C1507 H1493 0.961 . S
C1507 C1506 1.502 . S
C1508 H1494 0.960 . S
C1508 H1495 0.961 . S
C1508 H1496 0.959 . S
C1508 C1506 1.561 . S
C1509 C1506 1.526 . S
C1509 C1510 1.396 . S
C1509 C1514 1.390 . S
C1510 C1504 1.465 . S
C1510 C1509 1.396 . S
C1510 C1511 1.399 . S
C1511 H1497 0.929 . S
C1511 C1510 1.399 . S
C1511 C1512 1.385 . S
C1512 H1498 0.931 . S
C1512 C1511 1.385 . S
C1512 C1513 1.389 . S
C1513 C1512 1.389 . S
C1513 C1514 1.387 . S
C1514 H1499 0.930 . S
C1514 C1509 1.390 . S
C1514 C1513 1.387 . S
H1515 C1527 0.930 . S
H1516 C1529 0.930 . S
H1517 C1530 0.930 . S
H1518 C1534 0.959 . S
H1519 C1534 0.959 . S
H1520 C1534 0.961 . S
H1521 C1535 0.960 . S
H1522 C1535 0.961 . S
H1523 C1535 0.959 . S
H1524 C1538 0.929 . S
H1525 C1539 0.931 1_554 S
H1526 C1541 0.930 . S
C1527 H1515 0.930 . S
C1527 C1528 1.399 . S
C1527 C1532 1.399 . S
C1528 C1527 1.399 . S
C1528 C1529 1.376 . S
C1529 H1516 0.930 . S
C1529 C1528 1.376 . S
C1529 C1530 1.388 . S
C1530 H1517 0.930 . S
C1530 C1529 1.388 . S
C1530 C1531 1.390 . S
C1531 C1530 1.390 . S
C1531 C1532 1.394 . S
C1531 C1537 1.465 . S
C1532 C1527 1.399 . S
C1532 C1531 1.394 . S
C1532 C1533 1.516 . S
C1533 C1532 1.516 . S
C1533 C1534 1.502 . S
C1533 C1535 1.561 . S
C1533 C1536 1.526 . S
C1534 H1518 0.959 . S
C1534 H1519 0.959 . S
C1534 H1520 0.961 . S
C1534 C1533 1.502 . S
C1535 H1521 0.960 . S
C1535 H1522 0.961 . S
C1535 H1523 0.959 . S
C1535 C1533 1.561 . S
C1536 C1533 1.526 . S
C1536 C1537 1.396 . S
C1536 C1541 1.390 . S
C1537 C1531 1.465 . S
C1537 C1536 1.396 . S
C1537 C1538 1.399 . S
C1538 H1524 0.929 . S
C1538 C1537 1.399 . S
C1538 C1539 1.385 . S
C1539 H1525 0.931 1_556 S
C1539 C1538 1.385 . S
C1539 C1540 1.389 . S
C1540 C1539 1.389 . S
C1540 C1541 1.387 . S
C1541 H1526 0.930 . S
C1541 C1536 1.390 . S
C1541 C1540 1.387 . S
H1542 C1554 0.930 . S
H1543 C1556 0.930 1_556 S
H1544 C1557 0.930 . S
H1545 C1561 0.959 . S
H1546 C1561 0.959 . S
H1547 C1561 0.961 . S
H1548 C1562 0.960 . S
H1549 C1562 0.961 . S
H1550 C1562 0.959 . S
H1551 C1565 0.929 . S
H1552 C1566 0.931 . S
H1553 C1568 0.930 . S
C1554 H1542 0.930 . S
C1554 C1555 1.399 . S
C1554 C1559 1.399 . S
C1555 C1554 1.399 . S
C1555 C1556 1.376 . S
C1556 H1543 0.930 1_554 S
C1556 C1555 1.376 . S
C1556 C1557 1.388 . S
C1557 H1544 0.930 . S
C1557 C1556 1.388 . S
C1557 C1558 1.390 . S
C1558 C1557 1.390 . S
C1558 C1559 1.394 . S
C1558 C1564 1.465 . S
C1559 C1554 1.399 . S
C1559 C1558 1.394 . S
C1559 C1560 1.516 . S
C1560 C1559 1.516 . S
C1560 C1561 1.502 . S
C1560 C1562 1.561 . S
C1560 C1563 1.526 . S
C1561 H1545 0.959 . S
C1561 H1546 0.959 . S
C1561 H1547 0.961 . S
C1561 C1560 1.502 . S
C1562 H1548 0.960 . S
C1562 H1549 0.961 . S
C1562 H1550 0.959 . S
C1562 C1560 1.561 . S
C1563 C1560 1.526 . S
C1563 C1564 1.396 . S
C1563 C1568 1.390 . S
C1564 C1558 1.465 . S
C1564 C1563 1.396 . S
C1564 C1565 1.399 . S
C1565 H1551 0.929 . S
C1565 C1564 1.399 . S
C1565 C1566 1.385 . S
C1566 H1552 0.931 . S
C1566 C1565 1.385 . S
C1566 C1567 1.389 . S
C1567 C1566 1.389 . S
C1567 C1568 1.387 . S
C1568 H1553 0.930 . S
C1568 C1563 1.390 . S
C1568 C1567 1.387 . S
H1569 C1581 0.930 . S
H1570 C1583 0.930 . S
H1571 C1584 0.930 . S
H1572 C1588 0.959 . S
H1573 C1588 0.959 . S
H1574 C1588 0.961 . S
H1575 C1589 0.960 . S
H1576 C1589 0.961 . S
H1577 C1589 0.959 . S
H1578 C1592 0.929 . S
H1579 C1593 0.931 . S
H1580 C1595 0.930 . S
C1581 H1569 0.930 . S
C1581 C1582 1.399 . S
C1581 C1586 1.399 . S
C1582 C1581 1.399 . S
C1582 C1583 1.376 . S
C1583 H1570 0.930 . S
C1583 C1582 1.376 . S
C1583 C1584 1.388 . S
C1584 H1571 0.930 . S
C1584 C1583 1.388 . S
C1584 C1585 1.390 . S
C1585 C1584 1.390 . S
C1585 C1586 1.394 . S
C1585 C1591 1.465 . S
C1586 C1581 1.399 . S
C1586 C1585 1.394 . S
C1586 C1587 1.516 . S
C1587 C1586 1.516 . S
C1587 C1588 1.502 . S
C1587 C1589 1.561 . S
C1587 C1590 1.526 . S
C1588 H1572 0.959 . S
C1588 H1573 0.959 . S
C1588 H1574 0.961 . S
C1588 C1587 1.502 . S
C1589 H1575 0.960 . S
C1589 H1576 0.961 . S
C1589 H1577 0.959 . S
C1589 C1587 1.561 . S
C1590 C1587 1.526 . S
C1590 C1591 1.396 . S
C1590 C1595 1.390 . S
C1591 C1585 1.465 . S
C1591 C1590 1.396 . S
C1591 C1592 1.399 . S
C1592 H1578 0.929 . S
C1592 C1591 1.399 . S
C1592 C1593 1.385 . S
C1593 H1579 0.931 . S
C1593 C1592 1.385 . S
C1593 C1594 1.389 . S
C1594 C1593 1.389 . S
C1594 C1595 1.387 . S
C1595 H1580 0.930 . S
C1595 C1590 1.390 . S
C1595 C1594 1.387 . S
H1596 C1608 0.930 . S
H1597 C1610 0.930 . S
H1598 C1611 0.930 . S
H1599 C1615 0.959 . S
H1600 C1615 0.959 . S
H1601 C1615 0.961 . S
H1602 C1616 0.960 . S
H1603 C1616 0.961 . S
H1604 C1616 0.959 . S
H1605 C1619 0.929 . S
H1606 C1620 0.931 . S
H1607 C1622 0.930 . S
C1608 H1596 0.930 . S
C1608 C1609 1.399 . S
C1608 C1613 1.399 . S
C1609 C1608 1.399 . S
C1609 C1610 1.376 . S
C1610 H1597 0.930 . S
C1610 C1609 1.376 . S
C1610 C1611 1.388 . S
C1611 H1598 0.930 . S
C1611 C1610 1.388 . S
C1611 C1612 1.390 . S
C1612 C1611 1.390 . S
C1612 C1613 1.394 . S
C1612 C1618 1.465 . S
C1613 C1608 1.399 . S
C1613 C1612 1.394 . S
C1613 C1614 1.516 . S
C1614 C1613 1.516 . S
C1614 C1615 1.502 . S
C1614 C1616 1.561 . S
C1614 C1617 1.526 . S
C1615 H1599 0.959 . S
C1615 H1600 0.959 . S
C1615 H1601 0.961 . S
C1615 C1614 1.502 . S
C1616 H1602 0.960 . S
C1616 H1603 0.961 . S
C1616 H1604 0.959 . S
C1616 C1614 1.561 . S
C1617 C1614 1.526 . S
C1617 C1618 1.396 . S
C1617 C1622 1.390 . S
C1618 C1612 1.465 . S
C1618 C1617 1.396 . S
C1618 C1619 1.399 . S
C1619 H1605 0.929 . S
C1619 C1618 1.399 . S
C1619 C1620 1.385 . S
C1620 H1606 0.931 . S
C1620 C1619 1.385 . S
C1620 C1621 1.389 . S
C1621 C1620 1.389 . S
C1621 C1622 1.387 . S
C1622 H1607 0.930 . S
C1622 C1617 1.390 . S
C1622 C1621 1.387 . S
H1623 C1635 0.930 . S
H1624 C1637 0.930 . S
H1625 C1638 0.930 . S
H1626 C1642 0.959 . S
H1627 C1642 0.959 . S
H1628 C1642 0.961 . S
H1629 C1643 0.960 . S
H1630 C1643 0.961 . S
H1631 C1643 0.959 . S
H1632 C1646 0.929 . S
H1633 C1647 0.931 1_556 S
H1634 C1649 0.930 . S
C1635 H1623 0.930 . S
C1635 C1636 1.399 . S
C1635 C1640 1.399 . S
C1636 C1635 1.399 . S
C1636 C1637 1.376 . S
C1637 H1624 0.930 . S
C1637 C1636 1.376 . S
C1637 C1638 1.388 . S
C1638 H1625 0.930 . S
C1638 C1637 1.388 . S
C1638 C1639 1.390 . S
C1639 C1638 1.390 . S
C1639 C1640 1.394 . S
C1639 C1645 1.465 . S
C1640 C1635 1.399 . S
C1640 C1639 1.394 . S
C1640 C1641 1.516 . S
C1641 C1640 1.516 . S
C1641 C1642 1.502 . S
C1641 C1643 1.561 . S
C1641 C1644 1.526 . S
C1642 H1626 0.959 . S
C1642 H1627 0.959 . S
C1642 H1628 0.961 . S
C1642 C1641 1.502 . S
C1643 H1629 0.960 . S
C1643 H1630 0.961 . S
C1643 H1631 0.959 . S
C1643 C1641 1.561 . S
C1644 C1641 1.526 . S
C1644 C1645 1.396 . S
C1644 C1649 1.390 . S
C1645 C1639 1.465 . S
C1645 C1644 1.396 . S
C1645 C1646 1.399 . S
C1646 H1632 0.929 . S
C1646 C1645 1.399 . S
C1646 C1647 1.385 . S
C1647 H1633 0.931 1_554 S
C1647 C1646 1.385 . S
C1647 C1648 1.389 . S
C1648 C1647 1.389 . S
C1648 C1649 1.387 . S
C1649 H1634 0.930 . S
C1649 C1644 1.390 . S
C1649 C1648 1.387 . S
H1650 C1662 0.930 . S
H1651 C1664 0.930 . S
H1652 C1665 0.930 . S
H1653 C1669 0.959 . S
H1654 C1669 0.959 . S
H1655 C1669 0.961 . S
H1656 C1670 0.960 . S
H1657 C1670 0.961 . S
H1658 C1670 0.959 . S
H1659 C1673 0.929 . S
H1660 C1674 0.931 . S
H1661 C1676 0.930 . S
C1662 H1650 0.930 . S
C1662 C1663 1.399 . S
C1662 C1667 1.399 . S
C1663 C1662 1.399 . S
C1663 C1664 1.376 . S
C1664 H1651 0.930 . S
C1664 C1663 1.376 . S
C1664 C1665 1.388 . S
C1665 H1652 0.930 . S
C1665 C1664 1.388 . S
C1665 C1666 1.390 . S
C1666 C1665 1.390 . S
C1666 C1667 1.394 . S
C1666 C1672 1.465 . S
C1667 C1662 1.399 . S
C1667 C1666 1.394 . S
C1667 C1668 1.516 . S
C1668 C1667 1.516 . S
C1668 C1669 1.502 . S
C1668 C1670 1.561 . S
C1668 C1671 1.526 . S
C1669 H1653 0.959 . S
C1669 H1654 0.959 . S
C1669 H1655 0.961 . S
C1669 C1668 1.502 . S
C1670 H1656 0.960 . S
C1670 H1657 0.961 . S
C1670 H1658 0.959 . S
C1670 C1668 1.561 . S
C1671 C1668 1.526 . S
C1671 C1672 1.396 . S
C1671 C1676 1.390 . S
C1672 C1666 1.465 . S
C1672 C1671 1.396 . S
C1672 C1673 1.399 . S
C1673 H1659 0.929 . S
C1673 C1672 1.399 . S
C1673 C1674 1.385 . S
C1674 H1660 0.931 . S
C1674 C1673 1.385 . S
C1674 C1675 1.389 . S
C1675 C1674 1.389 . S
C1675 C1676 1.387 . S
C1676 H1661 0.930 . S
C1676 C1671 1.390 . S
C1676 C1675 1.387 . S
H1677 C1689 0.930 . S
H1678 C1691 0.930 . S
H1679 C1692 0.930 . S
H1680 C1696 0.959 . S
H1681 C1696 0.959 . S
H1682 C1696 0.961 . S
H1683 C1697 0.960 . S
H1684 C1697 0.961 . S
H1685 C1697 0.959 . S
H1686 C1700 0.929 . S
H1687 C1701 0.931 . S
H1688 C1703 0.930 . S
C1689 H1677 0.930 . S
C1689 C1690 1.399 . S
C1689 C1694 1.399 . S
C1690 C1689 1.399 . S
C1690 C1691 1.376 . S
C1691 H1678 0.930 . S
C1691 C1690 1.376 . S
C1691 C1692 1.388 . S
C1692 H1679 0.930 . S
C1692 C1691 1.388 . S
C1692 C1693 1.390 . S
C1693 C1692 1.390 . S
C1693 C1694 1.394 . S
C1693 C1699 1.465 . S
C1694 C1689 1.399 . S
C1694 C1693 1.394 . S
C1694 C1695 1.516 . S
C1695 C1694 1.516 . S
C1695 C1696 1.502 . S
C1695 C1697 1.561 . S
C1695 C1698 1.526 . S
C1696 H1680 0.959 . S
C1696 H1681 0.959 . S
C1696 H1682 0.961 . S
C1696 C1695 1.502 . S
C1697 H1683 0.960 . S
C1697 H1684 0.961 . S
C1697 H1685 0.959 . S
C1697 C1695 1.561 . S
C1698 C1695 1.526 . S
C1698 C1699 1.396 . S
C1698 C1703 1.390 . S
C1699 C1693 1.465 . S
C1699 C1698 1.396 . S
C1699 C1700 1.399 . S
C1700 H1686 0.929 . S
C1700 C1699 1.399 . S
C1700 C1701 1.385 . S
C1701 H1687 0.931 . S
C1701 C1700 1.385 . S
C1701 C1702 1.389 . S
C1702 C1701 1.389 . S
C1702 C1703 1.387 . S
C1703 H1688 0.930 . S
C1703 C1698 1.390 . S
C1703 C1702 1.387 . S
H1704 C1716 0.930 . S
H1705 C1718 0.930 1_556 S
H1706 C1719 0.930 . S
H1707 C1723 0.959 . S
H1708 C1723 0.959 . S
H1709 C1723 0.961 . S
H1710 C1724 0.960 . S
H1711 C1724 0.961 . S
H1712 C1724 0.959 . S
H1713 C1727 0.929 . S
H1714 C1728 0.931 . S
H1715 C1730 0.930 . S
C1716 H1704 0.930 . S
C1716 C1717 1.399 . S
C1716 C1721 1.399 . S
C1717 C1716 1.399 . S
C1717 C1718 1.376 . S
C1718 H1705 0.930 1_554 S
C1718 C1717 1.376 . S
C1718 C1719 1.388 . S
C1719 H1706 0.930 . S
C1719 C1718 1.388 . S
C1719 C1720 1.390 . S
C1720 C1719 1.390 . S
C1720 C1721 1.394 . S
C1720 C1726 1.465 . S
C1721 C1716 1.399 . S
C1721 C1720 1.394 . S
C1721 C1722 1.516 . S
C1722 C1721 1.516 . S
C1722 C1723 1.502 . S
C1722 C1724 1.561 . S
C1722 C1725 1.526 . S
C1723 H1707 0.959 . S
C1723 H1708 0.959 . S
C1723 H1709 0.961 . S
C1723 C1722 1.502 . S
C1724 H1710 0.960 . S
C1724 H1711 0.961 . S
C1724 H1712 0.959 . S
C1724 C1722 1.561 . S
C1725 C1722 1.526 . S
C1725 C1726 1.396 . S
C1725 C1730 1.390 . S
C1726 C1720 1.465 . S
C1726 C1725 1.396 . S
C1726 C1727 1.399 . S
C1727 H1713 0.929 . S
C1727 C1726 1.399 . S
C1727 C1728 1.385 . S
C1728 H1714 0.931 . S
C1728 C1727 1.385 . S
C1728 C1729 1.389 . S
C1729 C1728 1.389 . S
C1729 C1730 1.387 . S
C1730 H1715 0.930 . S
C1730 C1725 1.390 . S
C1730 C1729 1.387 . S
H1731 C1743 0.930 . S
H1732 C1745 0.930 . S
H1733 C1746 0.930 . S
H1734 C1750 0.959 . S
H1735 C1750 0.959 . S
H1736 C1750 0.961 . S
H1737 C1751 0.960 . S
H1738 C1751 0.961 . S
H1739 C1751 0.959 . S
H1740 C1754 0.929 . S
H1741 C1755 0.931 . S
H1742 C1757 0.930 . S
C1743 H1731 0.930 . S
C1743 C1744 1.399 . S
C1743 C1748 1.399 . S
C1744 C1743 1.399 . S
C1744 C1745 1.376 . S
C1745 H1732 0.930 . S
C1745 C1744 1.376 . S
C1745 C1746 1.388 . S
C1746 H1733 0.930 . S
C1746 C1745 1.388 . S
C1746 C1747 1.390 . S
C1747 C1746 1.390 . S
C1747 C1748 1.394 . S
C1747 C1753 1.465 . S
C1748 C1743 1.399 . S
C1748 C1747 1.394 . S
C1748 C1749 1.516 . S
C1749 C1748 1.516 . S
C1749 C1750 1.502 . S
C1749 C1751 1.561 . S
C1749 C1752 1.526 . S
C1750 H1734 0.959 . S
C1750 H1735 0.959 . S
C1750 H1736 0.961 . S
C1750 C1749 1.502 . S
C1751 H1737 0.960 . S
C1751 H1738 0.961 . S
C1751 H1739 0.959 . S
C1751 C1749 1.561 . S
C1752 C1749 1.526 . S
C1752 C1753 1.396 . S
C1752 C1757 1.390 . S
C1753 C1747 1.465 . S
C1753 C1752 1.396 . S
C1753 C1754 1.399 . S
C1754 H1740 0.929 . S
C1754 C1753 1.399 . S
C1754 C1755 1.385 . S
C1755 H1741 0.931 . S
C1755 C1754 1.385 . S
C1755 C1756 1.389 . S
C1756 C1755 1.389 . S
C1756 C1757 1.387 . S
C1757 H1742 0.930 . S
C1757 C1752 1.390 . S
C1757 C1756 1.387 . S
H1758 C1770 0.930 . S
H1759 C1772 0.930 . S
H1760 C1773 0.930 . S
H1761 C1777 0.959 . S
H1762 C1777 0.959 . S
H1763 C1777 0.961 . S
H1764 C1778 0.960 . S
H1765 C1778 0.961 . S
H1766 C1778 0.959 . S
H1767 C1781 0.929 . S
H1768 C1782 0.931 . S
H1769 C1784 0.930 . S
C1770 H1758 0.930 . S
C1770 C1771 1.399 . S
C1770 C1775 1.399 . S
C1771 C1770 1.399 . S
C1771 C1772 1.376 . S
C1772 H1759 0.930 . S
C1772 C1771 1.376 . S
C1772 C1773 1.388 . S
C1773 H1760 0.930 . S
C1773 C1772 1.388 . S
C1773 C1774 1.390 . S
C1774 C1773 1.390 . S
C1774 C1775 1.394 . S
C1774 C1780 1.465 . S
C1775 C1770 1.399 . S
C1775 C1774 1.394 . S
C1775 C1776 1.516 . S
C1776 C1775 1.516 . S
C1776 C1777 1.502 . S
C1776 C1778 1.561 . S
C1776 C1779 1.526 . S
C1777 H1761 0.959 . S
C1777 H1762 0.959 . S
C1777 H1763 0.961 . S
C1777 C1776 1.502 . S
C1778 H1764 0.960 . S
C1778 H1765 0.961 . S
C1778 H1766 0.959 . S
C1778 C1776 1.561 . S
C1779 C1776 1.526 . S
C1779 C1780 1.396 . S
C1779 C1784 1.390 . S
C1780 C1774 1.465 . S
C1780 C1779 1.396 . S
C1780 C1781 1.399 . S
C1781 H1767 0.929 . S
C1781 C1780 1.399 . S
C1781 C1782 1.385 . S
C1782 H1768 0.931 . S
C1782 C1781 1.385 . S
C1782 C1783 1.389 . S
C1783 C1782 1.389 . S
C1783 C1784 1.387 . S
C1784 H1769 0.930 . S
C1784 C1779 1.390 . S
C1784 C1783 1.387 . S
H1785 C1797 0.930 . S
H1786 C1799 0.930 . S
H1787 C1800 0.930 . S
H1788 C1804 0.959 . S
H1789 C1804 0.959 . S
H1790 C1804 0.961 . S
H1791 C1805 0.960 . S
H1792 C1805 0.961 . S
H1793 C1805 0.959 . S
H1794 C1808 0.929 . S
H1795 C1809 0.931 1_554 S
H1796 C1811 0.930 . S
C1797 H1785 0.930 . S
C1797 C1798 1.399 . S
C1797 C1802 1.399 . S
C1798 C1797 1.399 . S
C1798 C1799 1.376 . S
C1799 H1786 0.930 . S
C1799 C1798 1.376 . S
C1799 C1800 1.388 . S
C1800 H1787 0.930 . S
C1800 C1799 1.388 . S
C1800 C1801 1.390 . S
C1801 C1800 1.390 . S
C1801 C1802 1.394 . S
C1801 C1807 1.465 . S
C1802 C1797 1.399 . S
C1802 C1801 1.394 . S
C1802 C1803 1.516 . S
C1803 C1802 1.516 . S
C1803 C1804 1.502 . S
C1803 C1805 1.561 . S
C1803 C1806 1.526 . S
C1804 H1788 0.959 . S
C1804 H1789 0.959 . S
C1804 H1790 0.961 . S
C1804 C1803 1.502 . S
C1805 H1791 0.960 . S
C1805 H1792 0.961 . S
C1805 H1793 0.959 . S
C1805 C1803 1.561 . S
C1806 C1803 1.526 . S
C1806 C1807 1.396 . S
C1806 C1811 1.390 . S
C1807 C1801 1.465 . S
C1807 C1806 1.396 . S
C1807 C1808 1.399 . S
C1808 H1794 0.929 . S
C1808 C1807 1.399 . S
C1808 C1809 1.385 . S
C1809 H1795 0.931 1_556 S
C1809 C1808 1.385 . S
C1809 C1810 1.389 . S
C1810 C1809 1.389 . S
C1810 C1811 1.387 . S
C1811 H1796 0.930 . S
C1811 C1806 1.390 . S
C1811 C1810 1.387 . S
H1812 C1824 0.930 . S
H1813 C1826 0.930 1_554 S
H1814 C1827 0.930 . S
H1815 C1831 0.959 . S
H1816 C1831 0.959 . S
H1817 C1831 0.961 . S
H1818 C1832 0.960 . S
H1819 C1832 0.961 . S
H1820 C1832 0.959 . S
H1821 C1835 0.929 . S
H1822 C1836 0.931 . S
H1823 C1838 0.930 . S
C1824 H1812 0.930 . S
C1824 C1825 1.399 . S
C1824 C1829 1.399 . S
C1825 C1824 1.399 . S
C1825 C1826 1.376 . S
C1826 H1813 0.930 1_556 S
C1826 C1825 1.376 . S
C1826 C1827 1.388 . S
C1827 H1814 0.930 . S
C1827 C1826 1.388 . S
C1827 C1828 1.390 . S
C1828 C1827 1.390 . S
C1828 C1829 1.394 . S
C1828 C1834 1.465 . S
C1829 C1824 1.399 . S
C1829 C1828 1.394 . S
C1829 C1830 1.516 . S
C1830 C1829 1.516 . S
C1830 C1831 1.502 . S
C1830 C1832 1.561 . S
C1830 C1833 1.526 . S
C1831 H1815 0.959 . S
C1831 H1816 0.959 . S
C1831 H1817 0.961 . S
C1831 C1830 1.502 . S
C1832 H1818 0.960 . S
C1832 H1819 0.961 . S
C1832 H1820 0.959 . S
C1832 C1830 1.561 . S
C1833 C1830 1.526 . S
C1833 C1834 1.396 . S
C1833 C1838 1.390 . S
C1834 C1828 1.465 . S
C1834 C1833 1.396 . S
C1834 C1835 1.399 . S
C1835 H1821 0.929 . S
C1835 C1834 1.399 . S
C1835 C1836 1.385 . S
C1836 H1822 0.931 . S
C1836 C1835 1.385 . S
C1836 C1837 1.389 . S
C1837 C1836 1.389 . S
C1837 C1838 1.387 . S
C1838 H1823 0.930 . S
C1838 C1833 1.390 . S
C1838 C1837 1.387 . S
H1839 C1851 0.930 . S
H1840 C1853 0.930 . S
H1841 C1854 0.930 . S
H1842 C1858 0.959 . S
H1843 C1858 0.959 . S
H1844 C1858 0.961 . S
H1845 C1859 0.960 . S
H1846 C1859 0.961 . S
H1847 C1859 0.959 . S
H1848 C1862 0.929 . S
H1849 C1863 0.931 . S
H1850 C1865 0.930 . S
C1851 H1839 0.930 . S
C1851 C1852 1.399 . S
C1851 C1856 1.399 . S
C1852 C1851 1.399 . S
C1852 C1853 1.376 . S
C1853 H1840 0.930 . S
C1853 C1852 1.376 . S
C1853 C1854 1.388 . S
C1854 H1841 0.930 . S
C1854 C1853 1.388 . S
C1854 C1855 1.390 . S
C1855 C1854 1.390 . S
C1855 C1856 1.394 . S
C1855 C1861 1.465 . S
C1856 C1851 1.399 . S
C1856 C1855 1.394 . S
C1856 C1857 1.516 . S
C1857 C1856 1.516 . S
C1857 C1858 1.502 . S
C1857 C1859 1.561 . S
C1857 C1860 1.526 . S
C1858 H1842 0.959 . S
C1858 H1843 0.959 . S
C1858 H1844 0.961 . S
C1858 C1857 1.502 . S
C1859 H1845 0.960 . S
C1859 H1846 0.961 . S
C1859 H1847 0.959 . S
C1859 C1857 1.561 . S
C1860 C1857 1.526 . S
C1860 C1861 1.396 . S
C1860 C1865 1.390 . S
C1861 C1855 1.465 . S
C1861 C1860 1.396 . S
C1861 C1862 1.399 . S
C1862 H1848 0.929 . S
C1862 C1861 1.399 . S
C1862 C1863 1.385 . S
C1863 H1849 0.931 . S
C1863 C1862 1.385 . S
C1863 C1864 1.389 . S
C1864 C1863 1.389 . S
C1864 C1865 1.387 . S
C1865 H1850 0.930 . S
C1865 C1860 1.390 . S
C1865 C1864 1.387 . S
H1866 C1878 0.930 . S
H1867 C1880 0.930 . S
H1868 C1881 0.930 . S
H1869 C1885 0.959 . S
H1870 C1885 0.959 . S
H1871 C1885 0.961 . S
H1872 C1886 0.960 . S
H1873 C1886 0.961 . S
H1874 C1886 0.959 . S
H1875 C1889 0.929 . S
H1876 C1890 0.931 . S
H1877 C1892 0.930 . S
C1878 H1866 0.930 . S
C1878 C1879 1.399 . S
C1878 C1883 1.399 . S
C1879 C1878 1.399 . S
C1879 C1880 1.376 . S
C1880 H1867 0.930 . S
C1880 C1879 1.376 . S
C1880 C1881 1.388 . S
C1881 H1868 0.930 . S
C1881 C1880 1.388 . S
C1881 C1882 1.390 . S
C1882 C1881 1.390 . S
C1882 C1883 1.394 . S
C1882 C1888 1.465 . S
C1883 C1878 1.399 . S
C1883 C1882 1.394 . S
C1883 C1884 1.516 . S
C1884 C1883 1.516 . S
C1884 C1885 1.502 . S
C1884 C1886 1.561 . S
C1884 C1887 1.526 . S
C1885 H1869 0.959 . S
C1885 H1870 0.959 . S
C1885 H1871 0.961 . S
C1885 C1884 1.502 . S
C1886 H1872 0.960 . S
C1886 H1873 0.961 . S
C1886 H1874 0.959 . S
C1886 C1884 1.561 . S
C1887 C1884 1.526 . S
C1887 C1888 1.396 . S
C1887 C1892 1.390 . S
C1888 C1882 1.465 . S
C1888 C1887 1.396 . S
C1888 C1889 1.399 . S
C1889 H1875 0.929 . S
C1889 C1888 1.399 . S
C1889 C1890 1.385 . S
C1890 H1876 0.931 . S
C1890 C1889 1.385 . S
C1890 C1891 1.389 . S
C1891 C1890 1.389 . S
C1891 C1892 1.387 . S
C1892 H1877 0.930 . S
C1892 C1887 1.390 . S
C1892 C1891 1.387 . S
H1893 C1905 0.930 . S
H1894 C1907 0.930 . S
H1895 C1908 0.930 . S
H1896 C1912 0.959 . S
H1897 C1912 0.959 . S
H1898 C1912 0.961 . S
H1899 C1913 0.960 . S
H1900 C1913 0.961 . S
H1901 C1913 0.959 . S
H1902 C1916 0.929 . S
H1903 C1917 0.931 1_556 S
H1904 C1919 0.930 . S
C1905 H1893 0.930 . S
C1905 C1906 1.399 . S
C1905 C1910 1.399 . S
C1906 C1905 1.399 . S
C1906 C1907 1.376 . S
C1907 H1894 0.930 . S
C1907 C1906 1.376 . S
C1907 C1908 1.388 . S
C1908 H1895 0.930 . S
C1908 C1907 1.388 . S
C1908 C1909 1.390 . S
C1909 C1908 1.390 . S
C1909 C1910 1.394 . S
C1909 C1915 1.465 . S
C1910 C1905 1.399 . S
C1910 C1909 1.394 . S
C1910 C1911 1.516 . S
C1911 C1910 1.516 . S
C1911 C1912 1.502 . S
C1911 C1913 1.561 . S
C1911 C1914 1.526 . S
C1912 H1896 0.959 . S
C1912 H1897 0.959 . S
C1912 H1898 0.961 . S
C1912 C1911 1.502 . S
C1913 H1899 0.960 . S
C1913 H1900 0.961 . S
C1913 H1901 0.959 . S
C1913 C1911 1.561 . S
C1914 C1911 1.526 . S
C1914 C1915 1.396 . S
C1914 C1919 1.390 . S
C1915 C1909 1.465 . S
C1915 C1914 1.396 . S
C1915 C1916 1.399 . S
C1916 H1902 0.929 . S
C1916 C1915 1.399 . S
C1916 C1917 1.385 . S
C1917 H1903 0.931 1_554 S
C1917 C1916 1.385 . S
C1917 C1918 1.389 . S
C1918 C1917 1.389 . S
C1918 C1919 1.387 . S
C1919 H1904 0.930 . S
C1919 C1914 1.390 . S
C1919 C1918 1.387 . S
H1920 C1932 0.930 . S
H1921 C1934 0.930 . S
H1922 C1935 0.930 . S
H1923 C1939 0.959 . S
H1924 C1939 0.959 . S
H1925 C1939 0.961 . S
H1926 C1940 0.960 . S
H1927 C1940 0.961 . S
H1928 C1940 0.959 . S
H1929 C1943 0.929 . S
H1930 C1944 0.931 . S
H1931 C1946 0.930 . S
C1932 H1920 0.930 . S
C1932 C1933 1.399 . S
C1932 C1937 1.399 . S
C1933 C1932 1.399 . S
C1933 C1934 1.376 . S
C1934 H1921 0.930 . S
C1934 C1933 1.376 . S
C1934 C1935 1.388 . S
C1935 H1922 0.930 . S
C1935 C1934 1.388 . S
C1935 C1936 1.390 . S
C1936 C1935 1.390 . S
C1936 C1937 1.394 . S
C1936 C1942 1.465 . S
C1937 C1932 1.399 . S
C1937 C1936 1.394 . S
C1937 C1938 1.516 . S
C1938 C1937 1.516 . S
C1938 C1939 1.502 . S
C1938 C1940 1.561 . S
C1938 C1941 1.526 . S
C1939 H1923 0.959 . S
C1939 H1924 0.959 . S
C1939 H1925 0.961 . S
C1939 C1938 1.502 . S
C1940 H1926 0.960 . S
C1940 H1927 0.961 . S
C1940 H1928 0.959 . S
C1940 C1938 1.561 . S
C1941 C1938 1.526 . S
C1941 C1942 1.396 . S
C1941 C1946 1.390 . S
C1942 C1936 1.465 . S
C1942 C1941 1.396 . S
C1942 C1943 1.399 . S
C1943 H1929 0.929 . S
C1943 C1942 1.399 . S
C1943 C1944 1.385 . S
C1944 H1930 0.931 . S
C1944 C1943 1.385 . S
C1944 C1945 1.389 . S
C1945 C1944 1.389 . S
C1945 C1946 1.387 . S
C1946 H1931 0.930 . S
C1946 C1941 1.390 . S
C1946 C1945 1.387 . S
H1947 C1959 0.930 . S
H1948 C1961 0.930 . S
H1949 C1962 0.930 . S
H1950 C1966 0.959 . S
H1951 C1966 0.959 . S
H1952 C1966 0.961 1_565 S
H1953 C1967 0.960 . S
H1954 C1967 0.961 . S
H1955 C1967 0.959 . S
H1956 C1970 0.929 . S
H1957 C1971 0.931 . S
H1958 C1973 0.930 . S
C1959 H1947 0.930 . S
C1959 C1960 1.399 . S
C1959 C1964 1.399 . S
C1960 C1959 1.399 . S
C1960 C1961 1.376 . S
C1961 H1948 0.930 . S
C1961 C1960 1.376 . S
C1961 C1962 1.388 . S
C1962 H1949 0.930 . S
C1962 C1961 1.388 . S
C1962 C1963 1.390 . S
C1963 C1962 1.390 . S
C1963 C1964 1.394 . S
C1963 C1969 1.465 1_565 S
C1964 C1959 1.399 . S
C1964 C1963 1.394 . S
C1964 C1965 1.536 . S
C1965 C1964 1.536 . S
C1965 C1966 1.490 1_565 S
C1965 C1967 1.575 . S
C1965 C1968 1.506 1_565 S
C1966 H1950 0.959 . S
C1966 H1951 0.959 . S
C1966 H1952 0.961 1_545 S
C1966 C1965 1.490 1_545 S
C1967 H1953 0.960 . S
C1967 H1954 0.961 . S
C1967 H1955 0.959 . S
C1967 C1965 1.575 . S
C1968 C1965 1.506 1_545 S
C1968 C1969 1.396 . S
C1968 C1973 1.390 . S
C1969 C1963 1.465 1_545 S
C1969 C1968 1.396 . S
C1969 C1970 1.399 . S
C1970 H1956 0.929 . S
C1970 C1969 1.399 . S
C1970 C1971 1.385 . S
C1971 H1957 0.931 . S
C1971 C1970 1.385 . S
C1971 C1972 1.389 . S
C1972 C1971 1.389 . S
C1972 C1973 1.387 . S
C1973 H1958 0.930 . S
C1973 C1968 1.390 . S
C1973 C1972 1.387 . S
H1974 C1986 0.930 . S
H1975 C1988 0.930 . S
H1976 C1989 0.930 1_556 S
H1977 C1993 0.959 . S
H1978 C1993 0.959 . S
H1979 C1993 0.961 . S
H1980 C1994 0.960 . S
H1981 C1994 0.961 . S
H1982 C1994 0.959 . S
H1983 C1997 0.929 . S
H1984 C1998 0.931 . S
H1985 C2000 0.930 . S
C1986 H1974 0.930 . S
C1986 C1987 1.399 . S
C1986 C1991 1.399 . S
C1987 C1986 1.399 . S
C1987 C1988 1.376 . S
C1988 H1975 0.930 . S
C1988 C1987 1.376 . S
C1988 C1989 1.388 . S
C1989 H1976 0.930 1_554 S
C1989 C1988 1.388 . S
C1989 C1990 1.390 . S
C1990 C1989 1.390 . S
C1990 C1991 1.394 . S
C1990 C1996 1.465 1_554 S
C1991 C1986 1.399 . S
C1991 C1990 1.394 . S
C1991 C1992 1.516 . S
C1992 C1991 1.516 . S
C1992 C1993 1.502 . S
C1992 C1994 1.561 1_554 S
C1992 C1995 1.526 1_554 S
C1993 H1977 0.959 . S
C1993 H1978 0.959 . S
C1993 H1979 0.961 . S
C1993 C1992 1.502 . S
C1994 H1980 0.960 . S
C1994 H1981 0.961 . S
C1994 H1982 0.959 . S
C1994 C1992 1.561 1_556 S
C1995 C1992 1.526 1_556 S
C1995 C1996 1.396 . S
C1995 C2000 1.390 . S
C1996 C1990 1.465 1_556 S
C1996 C1995 1.396 . S
C1996 C1997 1.399 . S
C1997 H1983 0.929 . S
C1997 C1996 1.399 . S
C1997 C1998 1.385 . S
C1998 H1984 0.931 . S
C1998 C1997 1.385 . S
C1998 C1999 1.389 . S
C1999 C1998 1.389 . S
C1999 C2000 1.387 . S
C2000 H1985 0.930 . S
C2000 C1995 1.390 . S
C2000 C1999 1.387 . S
H2001 C2013 0.930 . S
H2002 C2015 0.930 . S
H2003 C2016 0.930 . S
H2004 C2020 0.961 1_545 S
H2005 C2020 0.961 1_545 S
H2006 C2020 0.958 . S
H2007 C2021 0.960 . S
H2008 C2021 0.961 . S
H2009 C2021 0.959 . S
H2010 C2024 0.929 . S
H2011 C2025 0.931 . S
H2012 C2027 0.930 . S
C2013 H2001 0.930 . S
C2013 C2014 1.399 . S
C2013 C2018 1.399 . S
C2014 C2013 1.399 . S
C2014 C2015 1.376 . S
C2015 H2002 0.930 . S
C2015 C2014 1.376 . S
C2015 C2016 1.388 . S
C2016 H2003 0.930 . S
C2016 C2015 1.388 . S
C2016 C2017 1.390 . S
C2017 C2016 1.390 . S
C2017 C2018 1.394 . S
C2017 C2023 1.465 1_565 S
C2018 C2013 1.399 . S
C2018 C2017 1.394 . S
C2018 C2019 1.516 . S
C2019 C2018 1.516 . S
C2019 C2020 1.501 . S
C2019 C2021 1.561 . S
C2019 C2022 1.526 1_565 S
C2020 H2004 0.961 1_565 S
C2020 H2005 0.961 1_565 S
C2020 H2006 0.958 . S
C2020 C2019 1.501 . S
C2021 H2007 0.960 . S
C2021 H2008 0.961 . S
C2021 H2009 0.959 . S
C2021 C2019 1.561 . S
C2022 C2019 1.526 1_545 S
C2022 C2023 1.396 . S
C2022 C2027 1.390 . S
C2023 C2017 1.465 1_545 S
C2023 C2022 1.396 . S
C2023 C2024 1.399 . S
C2024 H2010 0.929 . S
C2024 C2023 1.399 . S
C2024 C2025 1.385 . S
C2025 H2011 0.931 . S
C2025 C2024 1.385 . S
C2025 C2026 1.389 . S
C2026 C2025 1.389 . S
C2026 C2027 1.387 . S
C2027 H2012 0.930 . S
C2027 C2022 1.390 . S
C2027 C2026 1.387 . S
H2028 C2040 0.930 . S
H2029 C2042 0.930 . S
H2030 C2043 0.930 . S
H2031 C2047 0.959 . S
H2032 C2047 0.959 . S
H2033 C2047 0.961 . S
H2034 C2048 0.960 . S
H2035 C2048 0.961 . S
H2036 C2048 0.959 . S
H2037 C2051 0.929 . S
H2038 C2052 0.931 . S
H2039 C2054 0.930 . S
C2040 H2028 0.930 . S
C2040 C2041 1.399 . S
C2040 C2045 1.399 . S
C2041 C2040 1.399 . S
C2041 C2042 1.376 . S
C2042 H2029 0.930 . S
C2042 C2041 1.376 . S
C2042 C2043 1.388 . S
C2043 H2030 0.930 . S
C2043 C2042 1.388 . S
C2043 C2044 1.390 . S
C2044 C2043 1.390 . S
C2044 C2045 1.394 . S
C2044 C2050 1.465 . S
C2045 C2040 1.399 . S
C2045 C2044 1.394 . S
C2045 C2046 1.516 . S
C2046 C2045 1.516 . S
C2046 C2047 1.502 . S
C2046 C2048 1.561 . S
C2046 C2049 1.526 . S
C2047 H2031 0.959 . S
C2047 H2032 0.959 . S
C2047 H2033 0.961 . S
C2047 C2046 1.502 . S
C2048 H2034 0.960 . S
C2048 H2035 0.961 . S
C2048 H2036 0.959 . S
C2048 C2046 1.561 . S
C2049 C2046 1.526 . S
C2049 C2050 1.396 . S
C2049 C2054 1.390 . S
C2050 C2044 1.465 . S
C2050 C2049 1.396 . S
C2050 C2051 1.399 . S
C2051 H2037 0.929 . S
C2051 C2050 1.399 . S
C2051 C2052 1.385 . S
C2052 H2038 0.931 . S
C2052 C2051 1.385 . S
C2052 C2053 1.389 . S
C2053 C2052 1.389 . S
C2053 C2054 1.387 . S
C2054 H2039 0.930 . S
C2054 C2049 1.390 . S
C2054 C2053 1.387 . S
H2055 C2067 0.930 . S
H2056 C2069 0.930 . S
H2057 C2070 0.930 . S
H2058 C2074 0.959 . S
H2059 C2074 0.959 . S
H2060 C2074 0.961 . S
H2061 C2075 0.960 . S
H2062 C2075 0.961 . S
H2063 C2075 0.959 . S
H2064 C2078 0.929 1_565 S
H2065 C2079 0.931 . S
H2066 C2081 0.930 . S
C2067 H2055 0.930 . S
C2067 C2068 1.399 . S
C2067 C2072 1.399 . S
C2068 C2067 1.399 . S
C2068 C2069 1.376 . S
C2069 H2056 0.930 . S
C2069 C2068 1.376 . S
C2069 C2070 1.388 . S
C2070 H2057 0.930 . S
C2070 C2069 1.388 . S
C2070 C2071 1.390 . S
C2071 C2070 1.390 . S
C2071 C2072 1.394 . S
C2071 C2077 1.465 1_565 S
C2072 C2067 1.399 . S
C2072 C2071 1.394 . S
C2072 C2073 1.516 1_565 S
C2073 C2072 1.516 1_545 S
C2073 C2074 1.502 . S
C2073 C2075 1.561 . S
C2073 C2076 1.526 . S
C2074 H2058 0.959 . S
C2074 H2059 0.959 . S
C2074 H2060 0.961 . S
C2074 C2073 1.502 . S
C2075 H2061 0.960 . S
C2075 H2062 0.961 . S
C2075 H2063 0.959 . S
C2075 C2073 1.561 . S
C2076 C2073 1.526 . S
C2076 C2077 1.396 . S
C2076 C2081 1.390 . S
C2077 C2071 1.465 1_545 S
C2077 C2076 1.396 . S
C2077 C2078 1.399 . S
C2078 H2064 0.929 1_545 S
C2078 C2077 1.399 . S
C2078 C2079 1.385 . S
C2079 H2065 0.931 . S
C2079 C2078 1.385 . S
C2079 C2080 1.389 . S
C2080 C2079 1.389 . S
C2080 C2081 1.387 . S
C2081 H2066 0.930 . S
C2081 C2076 1.390 . S
C2081 C2080 1.387 . S
H2082 C2094 0.930 . S
H2083 C2096 0.930 . S
H2084 C2097 0.930 . S
H2085 C2101 0.953 1_556 S
H2086 C2101 0.959 . S
H2087 C2101 0.961 . S
H2088 C2102 0.960 . S
H2089 C2102 0.961 . S
H2090 C2102 0.959 . S
H2091 C2105 0.919 1_556 S
H2092 C2106 0.931 . S
H2093 C2108 0.930 . S
C2094 H2082 0.930 . S
C2094 C2095 1.399 . S
C2094 C2099 1.399 . S
C2095 C2094 1.399 . S
C2095 C2096 1.376 . S
C2096 H2083 0.930 . S
C2096 C2095 1.376 . S
C2096 C2097 1.388 . S
C2097 H2084 0.930 . S
C2097 C2096 1.388 . S
C2097 C2098 1.390 . S
C2098 C2097 1.390 . S
C2098 C2099 1.394 . S
C2098 C2104 1.465 1_556 S
C2099 C2094 1.399 . S
C2099 C2098 1.394 . S
C2099 C2100 1.516 1_556 S
C2100 C2099 1.516 1_554 S
C2100 C2101 1.502 . S
C2100 C2102 1.561 . S
C2100 C2103 1.526 . S
C2101 H2085 0.953 1_554 S
C2101 H2086 0.959 . S
C2101 H2087 0.961 . S
C2101 C2100 1.502 . S
C2102 H2088 0.960 . S
C2102 H2089 0.961 . S
C2102 H2090 0.959 . S
C2102 C2100 1.561 . S
C2103 C2100 1.526 . S
C2103 C2104 1.396 . S
C2103 C2108 1.390 . S
C2104 C2098 1.465 1_554 S
C2104 C2103 1.396 . S
C2104 C2105 1.400 . S
C2105 H2091 0.919 1_554 S
C2105 C2104 1.400 . S
C2105 C2106 1.395 . S
C2106 H2092 0.931 . S
C2106 C2105 1.395 . S
C2106 C2107 1.389 . S
C2107 C2106 1.389 . S
C2107 C2108 1.387 . S
C2108 H2093 0.930 . S
C2108 C2103 1.390 . S
C2108 C2107 1.387 . S
H2109 C2121 0.930 . S
H2110 C2123 0.930 . S
H2111 C2124 0.962 . S
H2112 C2128 0.959 . S
H2113 C2128 0.959 . S
H2114 C2128 0.961 . S
H2115 C2129 0.960 . S
H2116 C2129 0.961 . S
H2117 C2129 0.959 . S
H2118 C2132 0.929 . S
H2119 C2133 0.931 . S
H2120 C2135 0.930 . S
C2121 H2109 0.930 . S
C2121 C2122 1.399 . S
C2121 C2126 1.399 . S
C2122 C2121 1.399 . S
C2122 C2123 1.376 . S
C2123 H2110 0.930 . S
C2123 C2122 1.376 . S
C2123 C2124 1.388 . S
C2124 H2111 0.962 . S
C2124 C2123 1.388 . S
C2124 C2125 1.390 . S
C2125 C2124 1.390 . S
C2125 C2126 1.394 . S
C2125 C2131 1.465 1_545 S
C2126 C2121 1.399 . S
C2126 C2125 1.394 . S
C2126 C2127 1.516 . S
C2127 C2126 1.516 . S
C2127 C2128 1.502 . S
C2127 C2129 1.561 . S
C2127 C2130 1.526 1_545 S
C2128 H2112 0.959 . S
C2128 H2113 0.959 . S
C2128 H2114 0.961 . S
C2128 C2127 1.502 . S
C2129 H2115 0.960 . S
C2129 H2116 0.961 . S
C2129 H2117 0.959 . S
C2129 C2127 1.561 . S
C2130 C2127 1.526 1_565 S
C2130 C2131 1.396 . S
C2130 C2135 1.390 . S
C2131 C2125 1.465 1_565 S
C2131 C2130 1.396 . S
C2131 C2132 1.399 . S
C2132 H2118 0.929 . S
C2132 C2131 1.399 . S
C2132 C2133 1.385 . S
C2133 H2119 0.931 . S
C2133 C2132 1.385 . S
C2133 C2134 1.389 . S
C2134 C2133 1.389 . S
C2134 C2135 1.387 . S
C2135 H2120 0.930 . S
C2135 C2130 1.390 . S
C2135 C2134 1.387 . S
H2136 C2148 0.930 . S
H2137 C2150 0.930 . S
H2138 C2151 0.930 . S
H2139 C2155 0.959 . S
H2140 C2155 0.959 . S
H2141 C2155 0.961 . S
H2142 C2156 0.960 . S
H2143 C2156 0.961 . S
H2144 C2156 0.959 . S
H2145 C2159 0.929 . S
H2146 C2160 0.931 . S
H2147 C2162 0.930 1_556 S
C2148 H2136 0.930 . S
C2148 C2149 1.399 . S
C2148 C2153 1.399 . S
C2149 C2148 1.399 . S
C2149 C2150 1.376 . S
C2150 H2137 0.930 . S
C2150 C2149 1.376 . S
C2150 C2151 1.388 1_556 S
C2151 H2138 0.930 . S
C2151 C2150 1.388 1_554 S
C2151 C2152 1.390 . S
C2152 C2151 1.390 . S
C2152 C2153 1.394 1_554 S
C2152 C2158 1.465 . S
C2153 C2148 1.399 . S
C2153 C2152 1.394 1_556 S
C2153 C2154 1.516 . S
C2154 C2153 1.516 . S
C2154 C2155 1.502 . S
C2154 C2156 1.561 . S
C2154 C2157 1.526 1_556 S
C2155 H2139 0.959 . S
C2155 H2140 0.959 . S
C2155 H2141 0.961 . S
C2155 C2154 1.502 . S
C2156 H2142 0.960 . S
C2156 H2143 0.961 . S
C2156 H2144 0.959 . S
C2156 C2154 1.561 . S
C2157 C2154 1.526 1_554 S
C2157 C2158 1.396 . S
C2157 C2162 1.390 . S
C2158 C2152 1.465 . S
C2158 C2157 1.396 . S
C2158 C2159 1.399 . S
C2159 H2145 0.929 . S
C2159 C2158 1.399 . S
C2159 C2160 1.385 . S
C2160 H2146 0.931 . S
C2160 C2159 1.385 . S
C2160 C2161 1.389 . S
C2161 C2160 1.389 . S
C2161 C2162 1.387 . S
C2162 H2147 0.930 1_554 S
C2162 C2157 1.390 . S
C2162 C2161 1.387 . S
H2163 C2175 0.930 . S
H2164 C2177 0.930 . S
H2165 C2178 0.930 . S
H2166 C2182 0.959 . S
H2167 C2182 0.959 . S
H2168 C2182 0.961 . S
H2169 C2183 0.960 . S
H2170 C2183 0.961 . S
H2171 C2183 0.959 . S
H2172 C2186 0.929 . S
H2173 C2187 0.931 . S
H2174 C2189 0.930 . S
C2175 H2163 0.930 . S
C2175 C2176 1.399 . S
C2175 C2180 1.399 . S
C2176 C2175 1.399 . S
C2176 C2177 1.376 . S
C2177 H2164 0.930 . S
C2177 C2176 1.376 . S
C2177 C2178 1.388 . S
C2178 H2165 0.930 . S
C2178 C2177 1.388 . S
C2178 C2179 1.390 . S
C2179 C2178 1.390 . S
C2179 C2180 1.394 . S
C2179 C2185 1.465 . S
C2180 C2175 1.399 . S
C2180 C2179 1.394 . S
C2180 C2181 1.516 . S
C2181 C2180 1.516 . S
C2181 C2182 1.502 . S
C2181 C2183 1.561 . S
C2181 C2184 1.526 . S
C2182 H2166 0.959 . S
C2182 H2167 0.959 . S
C2182 H2168 0.961 . S
C2182 C2181 1.502 . S
C2183 H2169 0.960 . S
C2183 H2170 0.961 . S
C2183 H2171 0.959 . S
C2183 C2181 1.561 . S
C2184 C2181 1.526 . S
C2184 C2185 1.396 . S
C2184 C2189 1.390 . S
C2185 C2179 1.465 . S
C2185 C2184 1.396 . S
C2185 C2186 1.399 . S
C2186 H2172 0.929 . S
C2186 C2185 1.399 . S
C2186 C2187 1.385 . S
C2187 H2173 0.931 . S
C2187 C2186 1.385 . S
C2187 C2188 1.389 . S
C2188 C2187 1.389 . S
C2188 C2189 1.387 . S
C2189 H2174 0.930 . S
C2189 C2184 1.390 . S
C2189 C2188 1.387 . S
H2190 C2202 0.930 . S
H2191 C2204 0.930 . S
H2192 C2205 0.930 . S
H2193 C2209 0.959 . S
H2194 C2209 0.959 . S
H2195 C2209 0.961 . S
H2196 C2210 0.960 . S
H2197 C2210 0.961 . S
H2198 C2210 0.959 . S
H2199 C2213 0.929 . S
H2200 C2214 0.931 . S
H2201 C2216 0.930 . S
C2202 H2190 0.930 . S
C2202 C2203 1.399 . S
C2202 C2207 1.399 . S
C2203 C2202 1.399 . S
C2203 C2204 1.376 . S
C2204 H2191 0.930 . S
C2204 C2203 1.376 . S
C2204 C2205 1.388 . S
C2205 H2192 0.930 . S
C2205 C2204 1.388 . S
C2205 C2206 1.390 . S
C2206 C2205 1.390 . S
C2206 C2207 1.394 . S
C2206 C2212 1.465 . S
C2207 C2202 1.399 . S
C2207 C2206 1.394 . S
C2207 C2208 1.516 . S
C2208 C2207 1.516 . S
C2208 C2209 1.502 . S
C2208 C2210 1.561 . S
C2208 C2211 1.526 . S
C2209 H2193 0.959 . S
C2209 H2194 0.959 . S
C2209 H2195 0.961 . S
C2209 C2208 1.502 . S
C2210 H2196 0.960 . S
C2210 H2197 0.961 . S
C2210 H2198 0.959 . S
C2210 C2208 1.561 . S
C2211 C2208 1.526 . S
C2211 C2212 1.396 . S
C2211 C2216 1.390 . S
C2212 C2206 1.465 . S
C2212 C2211 1.396 . S
C2212 C2213 1.399 . S
C2213 H2199 0.929 . S
C2213 C2212 1.399 . S
C2213 C2214 1.385 . S
C2214 H2200 0.931 . S
C2214 C2213 1.385 . S
C2214 C2215 1.389 . S
C2215 C2214 1.389 . S
C2215 C2216 1.387 . S
C2216 H2201 0.930 . S
C2216 C2211 1.390 . S
C2216 C2215 1.387 . S
H2217 C2229 0.930 . S
H2218 C2231 0.930 . S
H2219 C2232 0.930 . S
H2220 C2236 0.959 . S
H2221 C2236 0.959 . S
H2222 C2236 0.961 . S
H2223 C2237 0.960 . S
H2224 C2237 0.961 . S
H2225 C2237 0.959 . S
H2226 C2240 0.929 . S
H2227 C2241 0.931 . S
H2228 C2243 0.930 . S
C2229 H2217 0.930 . S
C2229 C2230 1.399 . S
C2229 C2234 1.399 . S
C2230 C2229 1.399 . S
C2230 C2231 1.376 . S
C2231 H2218 0.930 . S
C2231 C2230 1.376 . S
C2231 C2232 1.388 . S
C2232 H2219 0.930 . S
C2232 C2231 1.388 . S
C2232 C2233 1.390 . S
C2233 C2232 1.390 . S
C2233 C2234 1.394 . S
C2233 C2239 1.465 . S
C2234 C2229 1.399 . S
C2234 C2233 1.394 . S
C2234 C2235 1.516 . S
C2235 C2234 1.516 . S
C2235 C2236 1.502 . S
C2235 C2237 1.561 . S
C2235 C2238 1.526 . S
C2236 H2220 0.959 . S
C2236 H2221 0.959 . S
C2236 H2222 0.961 . S
C2236 C2235 1.502 . S
C2237 H2223 0.960 . S
C2237 H2224 0.961 . S
C2237 H2225 0.959 . S
C2237 C2235 1.561 . S
C2238 C2235 1.526 . S
C2238 C2239 1.396 . S
C2238 C2243 1.390 . S
C2239 C2233 1.465 . S
C2239 C2238 1.396 . S
C2239 C2240 1.399 . S
C2240 H2226 0.929 . S
C2240 C2239 1.399 . S
C2240 C2241 1.385 . S
C2241 H2227 0.931 . S
C2241 C2240 1.385 . S
C2241 C2242 1.389 . S
C2242 C2241 1.389 . S
C2242 C2243 1.387 . S
C2243 H2228 0.930 . S
C2243 C2238 1.390 . S
C2243 C2242 1.387 . S
H2244 C2256 0.930 . S
H2245 C2258 0.930 . S
H2246 C2259 0.930 . S
H2247 C2263 0.959 . S
H2248 C2263 0.959 . S
H2249 C2263 0.961 . S
H2250 C2264 0.960 . S
H2251 C2264 0.961 . S
H2252 C2264 0.959 1_556 S
H2253 C2267 0.929 . S
H2254 C2268 0.931 . S
H2255 C2270 0.930 . S
C2256 H2244 0.930 . S
C2256 C2257 1.399 . S
C2256 C2261 1.399 . S
C2257 C2256 1.399 . S
C2257 C2258 1.376 . S
C2258 H2245 0.930 . S
C2258 C2257 1.376 . S
C2258 C2259 1.388 . S
C2259 H2246 0.930 . S
C2259 C2258 1.388 . S
C2259 C2260 1.390 . S
C2260 C2259 1.390 . S
C2260 C2261 1.394 . S
C2260 C2266 1.465 . S
C2261 C2256 1.399 . S
C2261 C2260 1.394 . S
C2261 C2262 1.516 1_556 S
C2262 C2261 1.516 1_554 S
C2262 C2263 1.502 . S
C2262 C2264 1.561 . S
C2262 C2265 1.526 . S
C2263 H2247 0.959 . S
C2263 H2248 0.959 . S
C2263 H2249 0.961 . S
C2263 C2262 1.502 . S
C2264 H2250 0.960 . S
C2264 H2251 0.961 . S
C2264 H2252 0.959 1_554 S
C2264 C2262 1.561 . S
C2265 C2262 1.526 . S
C2265 C2266 1.396 1_554 S
C2265 C2270 1.390 . S
C2266 C2260 1.465 . S
C2266 C2265 1.396 1_556 S
C2266 C2267 1.399 . S
C2267 H2253 0.929 . S
C2267 C2266 1.399 . S
C2267 C2268 1.385 1_556 S
C2268 H2254 0.931 . S
C2268 C2267 1.385 1_554 S
C2268 C2269 1.389 . S
C2269 C2268 1.389 . S
C2269 C2270 1.387 . S
C2270 H2255 0.930 . S
C2270 C2265 1.390 . S
C2270 C2269 1.387 . S
H2271 C2283 0.930 . S
H2272 C2285 0.930 . S
H2273 C2286 0.930 . S
H2274 C2290 0.959 . S
H2275 C2290 0.959 . S
H2276 C2290 0.961 . S
H2277 C2291 0.960 . S
H2278 C2291 0.961 . S
H2279 C2291 0.959 . S
H2280 C2294 0.929 . S
H2281 C2295 0.931 . S
H2282 C2297 0.930 . S
C2283 H2271 0.930 . S
C2283 C2284 1.399 . S
C2283 C2288 1.399 . S
C2284 C2283 1.399 . S
C2284 C2285 1.376 . S
C2285 H2272 0.930 . S
C2285 C2284 1.376 . S
C2285 C2286 1.388 . S
C2286 H2273 0.930 . S
C2286 C2285 1.388 . S
C2286 C2287 1.390 . S
C2287 C2286 1.390 . S
C2287 C2288 1.394 . S
C2287 C2293 1.465 . S
C2288 C2283 1.399 . S
C2288 C2287 1.394 . S
C2288 C2289 1.516 . S
C2289 C2288 1.516 . S
C2289 C2290 1.502 . S
C2289 C2291 1.561 . S
C2289 C2292 1.526 . S
C2290 H2274 0.959 . S
C2290 H2275 0.959 . S
C2290 H2276 0.961 . S
C2290 C2289 1.502 . S
C2291 H2277 0.960 . S
C2291 H2278 0.961 . S
C2291 H2279 0.959 . S
C2291 C2289 1.561 . S
C2292 C2289 1.526 . S
C2292 C2293 1.396 . S
C2292 C2297 1.390 . S
C2293 C2287 1.465 . S
C2293 C2292 1.396 . S
C2293 C2294 1.399 . S
C2294 H2280 0.929 . S
C2294 C2293 1.399 . S
C2294 C2295 1.385 . S
C2295 H2281 0.931 . S
C2295 C2294 1.385 . S
C2295 C2296 1.389 . S
C2296 C2295 1.389 . S
C2296 C2297 1.387 . S
C2297 H2282 0.930 . S
C2297 C2292 1.390 . S
C2297 C2296 1.387 . S
H2298 C2310 0.930 . S
H2299 C2312 0.930 . S
H2300 C2313 0.930 . S
H2301 C2317 0.959 . S
H2302 C2317 0.959 . S
H2303 C2317 0.961 . S
H2304 C2318 0.960 . S
H2305 C2318 0.961 . S
H2306 C2318 0.959 . S
H2307 C2321 0.929 . S
H2308 C2322 0.931 . S
H2309 C2324 0.930 . S
C2310 H2298 0.930 . S
C2310 C2311 1.399 . S
C2310 C2315 1.399 . S
C2311 C2310 1.399 . S
C2311 C2312 1.376 . S
C2312 H2299 0.930 . S
C2312 C2311 1.376 . S
C2312 C2313 1.388 . S
C2313 H2300 0.930 . S
C2313 C2312 1.388 . S
C2313 C2314 1.390 . S
C2314 C2313 1.390 . S
C2314 C2315 1.394 . S
C2314 C2320 1.465 . S
C2315 C2310 1.399 . S
C2315 C2314 1.394 . S
C2315 C2316 1.516 . S
C2316 C2315 1.516 . S
C2316 C2317 1.502 . S
C2316 C2318 1.561 . S
C2316 C2319 1.526 . S
C2317 H2301 0.959 . S
C2317 H2302 0.959 . S
C2317 H2303 0.961 . S
C2317 C2316 1.502 . S
C2318 H2304 0.960 . S
C2318 H2305 0.961 . S
C2318 H2306 0.959 . S
C2318 C2316 1.561 . S
C2319 C2316 1.526 . S
C2319 C2320 1.396 . S
C2319 C2324 1.390 . S
C2320 C2314 1.465 . S
C2320 C2319 1.396 . S
C2320 C2321 1.399 . S
C2321 H2307 0.929 . S
C2321 C2320 1.399 . S
C2321 C2322 1.385 . S
C2322 H2308 0.931 . S
C2322 C2321 1.385 . S
C2322 C2323 1.389 . S
C2323 C2322 1.389 . S
C2323 C2324 1.387 . S
C2324 H2309 0.930 . S
C2324 C2319 1.390 . S
C2324 C2323 1.387 . S
H2325 C2337 0.930 . S
H2326 C2339 0.930 . S
H2327 C2340 0.930 . S
H2328 C2344 0.959 . S
H2329 C2344 0.959 . S
H2330 C2344 0.961 . S
H2331 C2345 0.960 . S
H2332 C2345 0.961 . S
H2333 C2345 0.959 . S
H2334 C2348 0.929 . S
H2335 C2349 0.931 . S
H2336 C2351 0.930 . S
C2337 H2325 0.930 . S
C2337 C2338 1.399 . S
C2337 C2342 1.399 . S
C2338 C2337 1.399 . S
C2338 C2339 1.376 . S
C2339 H2326 0.930 . S
C2339 C2338 1.376 . S
C2339 C2340 1.388 . S
C2340 H2327 0.930 . S
C2340 C2339 1.388 . S
C2340 C2341 1.390 . S
C2341 C2340 1.390 . S
C2341 C2342 1.394 . S
C2341 C2347 1.465 . S
C2342 C2337 1.399 . S
C2342 C2341 1.394 . S
C2342 C2343 1.516 . S
C2343 C2342 1.516 . S
C2343 C2344 1.502 . S
C2343 C2345 1.561 . S
C2343 C2346 1.526 . S
C2344 H2328 0.959 . S
C2344 H2329 0.959 . S
C2344 H2330 0.961 . S
C2344 C2343 1.502 . S
C2345 H2331 0.960 . S
C2345 H2332 0.961 . S
C2345 H2333 0.959 . S
C2345 C2343 1.561 . S
C2346 C2343 1.526 . S
C2346 C2347 1.396 . S
C2346 C2351 1.390 . S
C2347 C2341 1.465 . S
C2347 C2346 1.396 . S
C2347 C2348 1.399 . S
C2348 H2334 0.929 . S
C2348 C2347 1.399 . S
C2348 C2349 1.385 . S
C2349 H2335 0.931 . S
C2349 C2348 1.385 . S
C2349 C2350 1.389 . S
C2350 C2349 1.389 . S
C2350 C2351 1.387 . S
C2351 H2336 0.930 . S
C2351 C2346 1.390 . S
C2351 C2350 1.387 . S
H2352 C2364 0.930 . S
H2353 C2366 0.930 . S
H2354 C2367 0.930 . S
H2355 C2371 0.959 . S
H2356 C2371 0.959 . S
H2357 C2371 0.961 . S
H2358 C2372 0.960 . S
H2359 C2372 0.961 . S
H2360 C2372 0.959 . S
H2361 C2375 0.929 . S
H2362 C2376 0.931 . S
H2363 C2378 0.930 . S
C2364 H2352 0.930 . S
C2364 C2365 1.399 . S
C2364 C2369 1.399 . S
C2365 C2364 1.399 . S
C2365 C2366 1.376 . S
C2366 H2353 0.930 . S
C2366 C2365 1.376 . S
C2366 C2367 1.388 . S
C2367 H2354 0.930 . S
C2367 C2366 1.388 . S
C2367 C2368 1.390 . S
C2368 C2367 1.390 . S
C2368 C2369 1.394 . S
C2368 C2374 1.465 . S
C2369 C2364 1.399 . S
C2369 C2368 1.394 . S
C2369 C2370 1.516 . S
C2370 C2369 1.516 . S
C2370 C2371 1.502 . S
C2370 C2372 1.561 . S
C2370 C2373 1.526 . S
C2371 H2355 0.959 . S
C2371 H2356 0.959 . S
C2371 H2357 0.961 . S
C2371 C2370 1.502 . S
C2372 H2358 0.960 . S
C2372 H2359 0.961 . S
C2372 H2360 0.959 . S
C2372 C2370 1.561 . S
C2373 C2370 1.526 . S
C2373 C2374 1.396 . S
C2373 C2378 1.390 . S
C2374 C2368 1.465 . S
C2374 C2373 1.396 . S
C2374 C2375 1.399 . S
C2375 H2361 0.929 . S
C2375 C2374 1.399 . S
C2375 C2376 1.385 . S
C2376 H2362 0.931 . S
C2376 C2375 1.385 . S
C2376 C2377 1.389 . S
C2377 C2376 1.389 . S
C2377 C2378 1.387 . S
C2378 H2363 0.930 . S
C2378 C2373 1.390 . S
C2378 C2377 1.387 . S
H2379 C2391 0.930 . S
H2380 C2393 0.930 . S
H2381 C2394 0.930 . S
H2382 C2398 0.959 . S
H2383 C2398 0.959 . S
H2384 C2398 0.961 . S
H2385 C2399 0.960 . S
H2386 C2399 0.961 . S
H2387 C2399 0.959 . S
H2388 C2402 0.929 . S
H2389 C2403 0.931 . S
H2390 C2405 0.930 . S
C2391 H2379 0.930 . S
C2391 C2392 1.399 . S
C2391 C2396 1.399 . S
C2392 C2391 1.399 . S
C2392 C2393 1.376 . S
C2393 H2380 0.930 . S
C2393 C2392 1.376 . S
C2393 C2394 1.388 . S
C2394 H2381 0.930 . S
C2394 C2393 1.388 . S
C2394 C2395 1.390 . S
C2395 C2394 1.390 . S
C2395 C2396 1.394 . S
C2395 C2401 1.465 . S
C2396 C2391 1.399 . S
C2396 C2395 1.394 . S
C2396 C2397 1.516 . S
C2397 C2396 1.516 . S
C2397 C2398 1.502 . S
C2397 C2399 1.561 . S
C2397 C2400 1.526 . S
C2398 H2382 0.959 . S
C2398 H2383 0.959 . S
C2398 H2384 0.961 . S
C2398 C2397 1.502 . S
C2399 H2385 0.960 . S
C2399 H2386 0.961 . S
C2399 H2387 0.959 . S
C2399 C2397 1.561 . S
C2400 C2397 1.526 . S
C2400 C2401 1.396 . S
C2400 C2405 1.390 1_655 S
C2401 C2395 1.465 . S
C2401 C2400 1.396 . S
C2401 C2402 1.399 1_655 S
C2402 H2388 0.929 . S
C2402 C2401 1.399 1_455 S
C2402 C2403 1.385 . S
C2403 H2389 0.931 . S
C2403 C2402 1.385 . S
C2403 C2404 1.389 . S
C2404 C2403 1.389 . S
C2404 C2405 1.387 . S
C2405 H2390 0.930 . S
C2405 C2400 1.390 1_455 S
C2405 C2404 1.387 . S
H2406 C2418 0.930 . S
H2407 C2420 0.930 . S
H2408 C2421 0.930 . S
H2409 C2425 0.959 . S
H2410 C2425 0.959 . S
H2411 C2425 0.961 . S
H2412 C2426 0.960 . S
H2413 C2426 0.961 . S
H2414 C2426 0.959 . S
H2415 C2429 0.929 . S
H2416 C2430 0.931 . S
H2417 C2432 0.930 . S
C2418 H2406 0.930 . S
C2418 C2419 1.399 . S
C2418 C2423 1.399 . S
C2419 C2418 1.399 . S
C2419 C2420 1.376 . S
C2420 H2407 0.930 . S
C2420 C2419 1.376 . S
C2420 C2421 1.388 . S
C2421 H2408 0.930 . S
C2421 C2420 1.388 . S
C2421 C2422 1.390 . S
C2422 C2421 1.390 . S
C2422 C2423 1.394 . S
C2422 C2428 1.465 . S
C2423 C2418 1.399 . S
C2423 C2422 1.394 . S
C2423 C2424 1.516 . S
C2424 C2423 1.516 . S
C2424 C2425 1.502 . S
C2424 C2426 1.561 . S
C2424 C2427 1.526 . S
C2425 H2409 0.959 . S
C2425 H2410 0.959 . S
C2425 H2411 0.961 . S
C2425 C2424 1.502 . S
C2426 H2412 0.960 . S
C2426 H2413 0.961 . S
C2426 H2414 0.959 . S
C2426 C2424 1.561 . S
C2427 C2424 1.526 . S
C2427 C2428 1.396 . S
C2427 C2432 1.390 . S
C2428 C2422 1.465 . S
C2428 C2427 1.396 . S
C2428 C2429 1.399 . S
C2429 H2415 0.929 . S
C2429 C2428 1.399 . S
C2429 C2430 1.385 . S
C2430 H2416 0.931 . S
C2430 C2429 1.385 . S
C2430 C2431 1.389 . S
C2431 C2430 1.389 . S
C2431 C2432 1.387 . S
C2432 H2417 0.930 . S
C2432 C2427 1.390 . S
C2432 C2431 1.387 . S
H2433 C2445 0.930 . S
H2434 C2447 0.930 . S
H2435 C2448 0.930 . S
H2436 C2452 0.959 . S
H2437 C2452 0.959 . S
H2438 C2452 0.961 . S
H2439 C2453 0.960 . S
H2440 C2453 0.961 . S
H2441 C2453 0.959 . S
H2442 C2456 0.929 . S
H2443 C2457 0.931 . S
H2444 C2459 0.930 . S
C2445 H2433 0.930 . S
C2445 C2446 1.399 . S
C2445 C2450 1.399 . S
C2446 C2445 1.399 . S
C2446 C2447 1.376 . S
C2447 H2434 0.930 . S
C2447 C2446 1.376 . S
C2447 C2448 1.388 . S
C2448 H2435 0.930 . S
C2448 C2447 1.388 . S
C2448 C2449 1.390 . S
C2449 C2448 1.390 . S
C2449 C2450 1.394 . S
C2449 C2455 1.465 . S
C2450 C2445 1.399 . S
C2450 C2449 1.394 . S
C2450 C2451 1.516 . S
C2451 C2450 1.516 . S
C2451 C2452 1.502 . S
C2451 C2453 1.561 . S
C2451 C2454 1.526 . S
C2452 H2436 0.959 . S
C2452 H2437 0.959 . S
C2452 H2438 0.961 . S
C2452 C2451 1.502 . S
C2453 H2439 0.960 . S
C2453 H2440 0.961 . S
C2453 H2441 0.959 . S
C2453 C2451 1.561 . S
C2454 C2451 1.526 . S
C2454 C2455 1.396 . S
C2454 C2459 1.390 . S
C2455 C2449 1.465 . S
C2455 C2454 1.396 . S
C2455 C2456 1.399 . S
C2456 H2442 0.929 . S
C2456 C2455 1.399 . S
C2456 C2457 1.385 . S
C2457 H2443 0.931 . S
C2457 C2456 1.385 . S
C2457 C2458 1.389 . S
C2458 C2457 1.389 . S
C2458 C2459 1.387 . S
C2459 H2444 0.930 . S
C2459 C2454 1.390 . S
C2459 C2458 1.387 . S
H2460 C2472 0.930 . S
H2461 C2474 0.930 . S
H2462 C2475 0.930 . S
H2463 C2479 0.959 . S
H2464 C2479 0.959 . S
H2465 C2479 0.961 . S
H2466 C2480 0.970 . S
H2467 C2480 0.961 1_556 S
H2468 C2480 0.959 . S
H2469 C2483 0.929 . S
H2470 C2484 0.931 . S
H2471 C2486 0.930 . S
C2472 H2460 0.930 . S
C2472 C2473 1.399 . S
C2472 C2477 1.399 . S
C2473 C2472 1.399 . S
C2473 C2474 1.376 . S
C2474 H2461 0.930 . S
C2474 C2473 1.376 . S
C2474 C2475 1.388 . S
C2475 H2462 0.930 . S
C2475 C2474 1.388 . S
C2475 C2476 1.390 . S
C2476 C2475 1.390 . S
C2476 C2477 1.394 . S
C2476 C2482 1.465 . S
C2477 C2472 1.399 . S
C2477 C2476 1.394 . S
C2477 C2478 1.516 . S
C2478 C2477 1.516 . S
C2478 C2479 1.502 . S
C2478 C2480 1.561 . S
C2478 C2481 1.526 . S
C2479 H2463 0.959 . S
C2479 H2464 0.959 . S
C2479 H2465 0.961 . S
C2479 C2478 1.502 . S
C2480 H2466 0.970 . S
C2480 H2467 0.961 1_554 S
C2480 H2468 0.959 . S
C2480 C2478 1.561 . S
C2481 C2478 1.526 . S
C2481 C2482 1.396 . S
C2481 C2486 1.390 . S
C2482 C2476 1.465 . S
C2482 C2481 1.396 . S
C2482 C2483 1.399 . S
C2483 H2469 0.929 . S
C2483 C2482 1.399 . S
C2483 C2484 1.385 . S
C2484 H2470 0.931 . S
C2484 C2483 1.385 . S
C2484 C2485 1.389 . S
C2485 C2484 1.389 . S
C2485 C2486 1.387 . S
C2486 H2471 0.930 . S
C2486 C2481 1.390 . S
C2486 C2485 1.387 . S
H2487 C2499 0.930 . S
H2488 C2501 0.930 . S
H2489 C2502 0.930 . S
H2490 C2506 0.959 . S
H2491 C2506 0.959 . S
H2492 C2506 0.961 . S
H2493 C2507 0.960 . S
H2494 C2507 0.961 . S
H2495 C2507 0.959 . S
H2496 C2510 0.929 . S
H2497 C2511 0.931 . S
H2498 C2513 0.930 . S
C2499 H2487 0.930 . S
C2499 C2500 1.399 . S
C2499 C2504 1.399 . S
C2500 C2499 1.399 . S
C2500 C2501 1.376 . S
C2501 H2488 0.930 . S
C2501 C2500 1.376 . S
C2501 C2502 1.388 . S
C2502 H2489 0.930 . S
C2502 C2501 1.388 . S
C2502 C2503 1.390 . S
C2503 C2502 1.390 . S
C2503 C2504 1.394 . S
C2503 C2509 1.465 . S
C2504 C2499 1.399 . S
C2504 C2503 1.394 . S
C2504 C2505 1.516 . S
C2505 C2504 1.516 . S
C2505 C2506 1.502 . S
C2505 C2507 1.561 . S
C2505 C2508 1.526 . S
C2506 H2490 0.959 . S
C2506 H2491 0.959 . S
C2506 H2492 0.961 . S
C2506 C2505 1.502 . S
C2507 H2493 0.960 . S
C2507 H2494 0.961 . S
C2507 H2495 0.959 . S
C2507 C2505 1.561 . S
C2508 C2505 1.526 . S
C2508 C2509 1.396 . S
C2508 C2513 1.390 . S
C2509 C2503 1.465 . S
C2509 C2508 1.396 . S
C2509 C2510 1.399 . S
C2510 H2496 0.929 . S
C2510 C2509 1.399 . S
C2510 C2511 1.385 . S
C2511 H2497 0.931 . S
C2511 C2510 1.385 . S
C2511 C2512 1.389 . S
C2512 C2511 1.389 . S
C2512 C2513 1.387 . S
C2513 H2498 0.930 . S
C2513 C2508 1.390 . S
C2513 C2512 1.387 . S
H2514 C2526 0.930 . S
H2515 C2528 0.930 . S
H2516 C2529 0.930 . S
H2517 C2533 0.959 . S
H2518 C2533 0.959 . S
H2519 C2533 0.961 . S
H2520 C2534 0.960 . S
H2521 C2534 0.961 . S
H2522 C2534 0.959 . S
H2523 C2537 0.929 . S
H2524 C2538 0.931 . S
H2525 C2540 0.930 . S
C2526 H2514 0.930 . S
C2526 C2527 1.399 . S
C2526 C2531 1.399 . S
C2527 C2526 1.399 . S
C2527 C2528 1.376 . S
C2528 H2515 0.930 . S
C2528 C2527 1.376 . S
C2528 C2529 1.388 . S
C2529 H2516 0.930 . S
C2529 C2528 1.388 . S
C2529 C2530 1.390 . S
C2530 C2529 1.390 . S
C2530 C2531 1.394 . S
C2530 C2536 1.465 . S
C2531 C2526 1.399 . S
C2531 C2530 1.394 . S
C2531 C2532 1.516 . S
C2532 C2531 1.516 . S
C2532 C2533 1.502 . S
C2532 C2534 1.561 . S
C2532 C2535 1.526 . S
C2533 H2517 0.959 . S
C2533 H2518 0.959 . S
C2533 H2519 0.961 . S
C2533 C2532 1.502 . S
C2534 H2520 0.960 . S
C2534 H2521 0.961 . S
C2534 H2522 0.959 . S
C2534 C2532 1.561 . S
C2535 C2532 1.526 . S
C2535 C2536 1.396 . S
C2535 C2540 1.390 . S
C2536 C2530 1.465 . S
C2536 C2535 1.396 . S
C2536 C2537 1.399 . S
C2537 H2523 0.929 . S
C2537 C2536 1.399 . S
C2537 C2538 1.385 . S
C2538 H2524 0.931 . S
C2538 C2537 1.385 . S
C2538 C2539 1.389 . S
C2539 C2538 1.389 . S
C2539 C2540 1.387 . S
C2540 H2525 0.930 . S
C2540 C2535 1.390 . S
C2540 C2539 1.387 . S
H2541 C2553 0.930 . S
H2542 C2555 0.930 . S
H2543 C2556 0.930 . S
H2544 C2560 0.959 . S
H2545 C2560 0.959 . S
H2546 C2560 0.961 . S
H2547 C2561 0.960 . S
H2548 C2561 0.961 . S
H2549 C2561 0.959 . S
H2550 C2564 0.929 . S
H2551 C2565 0.931 . S
H2552 C2567 0.930 . S
C2553 H2541 0.930 . S
C2553 C2554 1.399 . S
C2553 C2558 1.399 . S
C2554 C2553 1.399 . S
C2554 C2555 1.376 . S
C2555 H2542 0.930 . S
C2555 C2554 1.376 . S
C2555 C2556 1.388 . S
C2556 H2543 0.930 . S
C2556 C2555 1.388 . S
C2556 C2557 1.390 . S
C2557 C2556 1.390 . S
C2557 C2558 1.394 . S
C2557 C2563 1.465 . S
C2558 C2553 1.399 . S
C2558 C2557 1.394 . S
C2558 C2559 1.516 . S
C2559 C2558 1.516 . S
C2559 C2560 1.502 . S
C2559 C2561 1.561 . S
C2559 C2562 1.526 . S
C2560 H2544 0.959 . S
C2560 H2545 0.959 . S
C2560 H2546 0.961 . S
C2560 C2559 1.502 . S
C2561 H2547 0.960 . S
C2561 H2548 0.961 . S
C2561 H2549 0.959 . S
C2561 C2559 1.561 . S
C2562 C2559 1.526 . S
C2562 C2563 1.396 . S
C2562 C2567 1.390 1_655 S
C2563 C2557 1.465 . S
C2563 C2562 1.396 . S
C2563 C2564 1.399 1_655 S
C2564 H2550 0.929 . S
C2564 C2563 1.399 1_455 S
C2564 C2565 1.385 . S
C2565 H2551 0.931 . S
C2565 C2564 1.385 . S
C2565 C2566 1.389 . S
C2566 C2565 1.389 . S
C2566 C2567 1.387 . S
C2567 H2552 0.930 . S
C2567 C2562 1.390 1_455 S
C2567 C2566 1.387 . S
H2568 C2580 0.930 . S
H2569 C2582 0.930 . S
H2570 C2583 0.930 . S
H2571 C2587 0.959 . S
H2572 C2587 0.959 . S
H2573 C2587 0.961 . S
H2574 C2588 0.960 . S
H2575 C2588 0.961 . S
H2576 C2588 0.959 . S
H2577 C2591 0.929 . S
H2578 C2592 0.931 . S
H2579 C2594 0.930 . S
C2580 H2568 0.930 . S
C2580 C2581 1.399 . S
C2580 C2585 1.399 . S
C2581 C2580 1.399 . S
C2581 C2582 1.376 . S
C2582 H2569 0.930 . S
C2582 C2581 1.376 . S
C2582 C2583 1.388 . S
C2583 H2570 0.930 . S
C2583 C2582 1.388 . S
C2583 C2584 1.390 . S
C2584 C2583 1.390 . S
C2584 C2585 1.394 . S
C2584 C2590 1.465 . S
C2585 C2580 1.399 . S
C2585 C2584 1.394 . S
C2585 C2586 1.516 . S
C2586 C2585 1.516 . S
C2586 C2587 1.502 . S
C2586 C2588 1.561 . S
C2586 C2589 1.526 . S
C2587 H2571 0.959 . S
C2587 H2572 0.959 . S
C2587 H2573 0.961 . S
C2587 C2586 1.502 . S
C2588 H2574 0.960 . S
C2588 H2575 0.961 . S
C2588 H2576 0.959 . S
C2588 C2586 1.561 . S
C2589 C2586 1.526 . S
C2589 C2590 1.396 . S
C2589 C2594 1.390 . S
C2590 C2584 1.465 . S
C2590 C2589 1.396 . S
C2590 C2591 1.399 . S
C2591 H2577 0.929 . S
C2591 C2590 1.399 . S
C2591 C2592 1.385 . S
C2592 H2578 0.931 . S
C2592 C2591 1.385 . S
C2592 C2593 1.389 . S
C2593 C2592 1.389 . S
C2593 C2594 1.387 . S
C2594 H2579 0.930 . S
C2594 C2589 1.390 . S
C2594 C2593 1.387 . S
H2595 C2607 0.930 . S
H2596 C2609 0.930 . S
H2597 C2610 0.930 . S
H2598 C2614 0.959 . S
H2599 C2614 0.959 . S
H2600 C2614 0.961 . S
H2601 C2615 0.960 . S
H2602 C2615 0.961 . S
H2603 C2615 0.959 . S
H2604 C2618 0.929 . S
H2605 C2619 0.931 . S
H2606 C2621 0.930 . S
C2607 H2595 0.930 . S
C2607 C2608 1.399 . S
C2607 C2612 1.399 1_655 S
C2608 C2607 1.399 . S
C2608 C2609 1.376 . S
C2609 H2596 0.930 . S
C2609 C2608 1.376 . S
C2609 C2610 1.388 . S
C2610 H2597 0.930 . S
C2610 C2609 1.388 . S
C2610 C2611 1.390 1_655 S
C2611 C2610 1.390 1_455 S
C2611 C2612 1.394 . S
C2611 C2617 1.465 . S
C2612 C2607 1.399 1_455 S
C2612 C2611 1.394 . S
C2612 C2613 1.516 . S
C2613 C2612 1.516 . S
C2613 C2614 1.502 . S
C2613 C2615 1.561 . S
C2613 C2616 1.526 . S
C2614 H2598 0.959 . S
C2614 H2599 0.959 . S
C2614 H2600 0.961 . S
C2614 C2613 1.502 . S
C2615 H2601 0.960 . S
C2615 H2602 0.961 . S
C2615 H2603 0.959 . S
C2615 C2613 1.561 . S
C2616 C2613 1.526 . S
C2616 C2617 1.396 . S
C2616 C2621 1.390 . S
C2617 C2611 1.465 . S
C2617 C2616 1.396 . S
C2617 C2618 1.399 . S
C2618 H2604 0.929 . S
C2618 C2617 1.399 . S
C2618 C2619 1.385 . S
C2619 H2605 0.931 . S
C2619 C2618 1.385 . S
C2619 C2620 1.389 . S
C2620 C2619 1.389 . S
C2620 C2621 1.387 . S
C2621 H2606 0.930 . S
C2621 C2616 1.390 . S
C2621 C2620 1.387 . S
H2622 C2634 0.930 . S
H2623 C2636 0.930 . S
H2624 C2637 0.930 . S
H2625 C2641 0.959 . S
H2626 C2641 0.959 . S
H2627 C2641 0.961 . S
H2628 C2642 0.960 . S
H2629 C2642 0.961 . S
H2630 C2642 0.959 . S
H2631 C2645 0.929 . S
H2632 C2646 0.931 . S
H2633 C2648 0.930 . S
C2634 H2622 0.930 . S
C2634 C2635 1.399 . S
C2634 C2639 1.399 . S
C2635 C2634 1.399 . S
C2635 C2636 1.376 . S
C2636 H2623 0.930 . S
C2636 C2635 1.376 . S
C2636 C2637 1.388 . S
C2637 H2624 0.930 . S
C2637 C2636 1.388 . S
C2637 C2638 1.390 . S
C2638 C2637 1.390 . S
C2638 C2639 1.394 . S
C2638 C2644 1.465 . S
C2639 C2634 1.399 . S
C2639 C2638 1.394 . S
C2639 C2640 1.516 . S
C2640 C2639 1.516 . S
C2640 C2641 1.502 . S
C2640 C2642 1.561 . S
C2640 C2643 1.526 . S
C2641 H2625 0.959 . S
C2641 H2626 0.959 . S
C2641 H2627 0.961 . S
C2641 C2640 1.502 . S
C2642 H2628 0.960 . S
C2642 H2629 0.961 . S
C2642 H2630 0.959 . S
C2642 C2640 1.561 . S
C2643 C2640 1.526 . S
C2643 C2644 1.396 . S
C2643 C2648 1.390 . S
C2644 C2638 1.465 . S
C2644 C2643 1.396 . S
C2644 C2645 1.399 . S
C2645 H2631 0.929 . S
C2645 C2644 1.399 . S
C2645 C2646 1.385 . S
C2646 H2632 0.931 . S
C2646 C2645 1.385 . S
C2646 C2647 1.389 . S
C2647 C2646 1.389 . S
C2647 C2648 1.387 . S
C2648 H2633 0.930 . S
C2648 C2643 1.390 . S
C2648 C2647 1.387 . S
H2649 C2661 0.930 . S
H2650 C2663 0.930 . S
H2651 C2664 0.930 . S
H2652 C2668 0.959 . S
H2653 C2668 0.959 . S
H2654 C2668 0.961 . S
H2655 C2669 0.960 . S
H2656 C2669 0.961 . S
H2657 C2669 0.959 . S
H2658 C2672 0.929 . S
H2659 C2673 0.931 . S
H2660 C2675 0.930 . S
C2661 H2649 0.930 . S
C2661 C2662 1.399 . S
C2661 C2666 1.399 . S
C2662 C2661 1.399 . S
C2662 C2663 1.376 . S
C2663 H2650 0.930 . S
C2663 C2662 1.376 . S
C2663 C2664 1.388 . S
C2664 H2651 0.930 . S
C2664 C2663 1.388 . S
C2664 C2665 1.390 . S
C2665 C2664 1.390 . S
C2665 C2666 1.394 . S
C2665 C2671 1.465 . S
C2666 C2661 1.399 . S
C2666 C2665 1.394 . S
C2666 C2667 1.516 . S
C2667 C2666 1.516 . S
C2667 C2668 1.502 . S
C2667 C2669 1.561 . S
C2667 C2670 1.526 . S
C2668 H2652 0.959 . S
C2668 H2653 0.959 . S
C2668 H2654 0.961 . S
C2668 C2667 1.502 . S
C2669 H2655 0.960 . S
C2669 H2656 0.961 . S
C2669 H2657 0.959 . S
C2669 C2667 1.561 . S
C2670 C2667 1.526 . S
C2670 C2671 1.396 . S
C2670 C2675 1.390 . S
C2671 C2665 1.465 . S
C2671 C2670 1.396 . S
C2671 C2672 1.399 . S
C2672 H2658 0.929 . S
C2672 C2671 1.399 . S
C2672 C2673 1.385 . S
C2673 H2659 0.931 . S
C2673 C2672 1.385 . S
C2673 C2674 1.389 . S
C2674 C2673 1.389 . S
C2674 C2675 1.387 . S
C2675 H2660 0.930 . S
C2675 C2670 1.390 . S
C2675 C2674 1.387 . S
H2676 C2688 0.930 . S
H2677 C2690 0.930 . S
H2678 C2691 0.930 . S
H2679 C2695 0.959 . S
H2680 C2695 0.959 . S
H2681 C2695 0.961 . S
H2682 C2696 0.960 . S
H2683 C2696 0.961 . S
H2684 C2696 0.959 . S
H2685 C2699 0.929 . S
H2686 C2700 0.931 . S
H2687 C2702 0.930 . S
C2688 H2676 0.930 . S
C2688 C2689 1.399 . S
C2688 C2693 1.399 . S
C2689 C2688 1.399 . S
C2689 C2690 1.376 . S
C2690 H2677 0.930 . S
C2690 C2689 1.376 . S
C2690 C2691 1.388 . S
C2691 H2678 0.930 . S
C2691 C2690 1.388 . S
C2691 C2692 1.390 . S
C2692 C2691 1.390 . S
C2692 C2693 1.394 . S
C2692 C2698 1.465 . S
C2693 C2688 1.399 . S
C2693 C2692 1.394 . S
C2693 C2694 1.516 . S
C2694 C2693 1.516 . S
C2694 C2695 1.502 . S
C2694 C2696 1.561 . S
C2694 C2697 1.526 . S
C2695 H2679 0.959 . S
C2695 H2680 0.959 . S
C2695 H2681 0.961 . S
C2695 C2694 1.502 . S
C2696 H2682 0.960 . S
C2696 H2683 0.961 . S
C2696 H2684 0.959 . S
C2696 C2694 1.561 . S
C2697 C2694 1.526 . S
C2697 C2698 1.396 . S
C2697 C2702 1.390 . S
C2698 C2692 1.465 . S
C2698 C2697 1.396 . S
C2698 C2699 1.399 . S
C2699 H2685 0.929 . S
C2699 C2698 1.399 . S
C2699 C2700 1.385 . S
C2700 H2686 0.931 . S
C2700 C2699 1.385 . S
C2700 C2701 1.389 . S
C2701 C2700 1.389 . S
C2701 C2702 1.387 . S
C2702 H2687 0.930 . S
C2702 C2697 1.390 . S
C2702 C2701 1.387 . S
H2703 C2715 0.930 . S
H2704 C2717 0.930 . S
H2705 C2718 0.930 . S
H2706 C2722 0.959 . S
H2707 C2722 0.959 . S
H2708 C2722 0.961 . S
H2709 C2723 0.960 . S
H2710 C2723 0.961 . S
H2711 C2723 0.959 . S
H2712 C2726 0.929 . S
H2713 C2727 0.931 . S
H2714 C2729 0.930 . S
C2715 H2703 0.930 . S
C2715 C2716 1.399 . S
C2715 C2720 1.399 . S
C2716 C2715 1.399 . S
C2716 C2717 1.376 . S
C2717 H2704 0.930 . S
C2717 C2716 1.376 . S
C2717 C2718 1.388 . S
C2718 H2705 0.930 . S
C2718 C2717 1.388 . S
C2718 C2719 1.390 . S
C2719 C2718 1.390 . S
C2719 C2720 1.394 . S
C2719 C2725 1.465 . S
C2720 C2715 1.399 . S
C2720 C2719 1.394 . S
C2720 C2721 1.516 . S
C2721 C2720 1.516 . S
C2721 C2722 1.502 . S
C2721 C2723 1.561 . S
C2721 C2724 1.526 . S
C2722 H2706 0.959 . S
C2722 H2707 0.959 . S
C2722 H2708 0.961 . S
C2722 C2721 1.502 . S
C2723 H2709 0.960 . S
C2723 H2710 0.961 . S
C2723 H2711 0.959 . S
C2723 C2721 1.561 . S
C2724 C2721 1.526 . S
C2724 C2725 1.396 . S
C2724 C2729 1.390 . S
C2725 C2719 1.465 . S
C2725 C2724 1.396 . S
C2725 C2726 1.399 . S
C2726 H2712 0.929 . S
C2726 C2725 1.399 . S
C2726 C2727 1.385 . S
C2727 H2713 0.931 . S
C2727 C2726 1.385 . S
C2727 C2728 1.389 . S
C2728 C2727 1.389 . S
C2728 C2729 1.387 . S
C2729 H2714 0.930 . S
C2729 C2724 1.390 . S
C2729 C2728 1.387 . S
H2730 C2742 0.930 . S
H2731 C2744 0.930 . S
H2732 C2745 0.930 . S
H2733 C2749 0.959 . S
H2734 C2749 0.959 . S
H2735 C2749 0.961 . S
H2736 C2750 0.960 . S
H2737 C2750 0.961 . S
H2738 C2750 0.959 . S
H2739 C2753 0.929 . S
H2740 C2754 0.931 . S
H2741 C2756 0.930 . S
C2742 H2730 0.930 . S
C2742 C2743 1.399 . S
C2742 C2747 1.399 . S
C2743 C2742 1.399 . S
C2743 C2744 1.376 . S
C2744 H2731 0.930 . S
C2744 C2743 1.376 . S
C2744 C2745 1.388 . S
C2745 H2732 0.930 . S
C2745 C2744 1.388 . S
C2745 C2746 1.390 . S
C2746 C2745 1.390 . S
C2746 C2747 1.394 . S
C2746 C2752 1.465 . S
C2747 C2742 1.399 . S
C2747 C2746 1.394 . S
C2747 C2748 1.516 . S
C2748 C2747 1.516 . S
C2748 C2749 1.502 . S
C2748 C2750 1.561 . S
C2748 C2751 1.526 . S
C2749 H2733 0.959 . S
C2749 H2734 0.959 . S
C2749 H2735 0.961 . S
C2749 C2748 1.502 . S
C2750 H2736 0.960 . S
C2750 H2737 0.961 . S
C2750 H2738 0.959 . S
C2750 C2748 1.561 . S
C2751 C2748 1.526 . S
C2751 C2752 1.396 . S
C2751 C2756 1.390 . S
C2752 C2746 1.465 . S
C2752 C2751 1.396 . S
C2752 C2753 1.399 . S
C2753 H2739 0.929 . S
C2753 C2752 1.399 . S
C2753 C2754 1.385 . S
C2754 H2740 0.931 . S
C2754 C2753 1.385 . S
C2754 C2755 1.389 . S
C2755 C2754 1.389 . S
C2755 C2756 1.387 . S
C2756 H2741 0.930 . S
C2756 C2751 1.390 . S
C2756 C2755 1.387 . S
H2757 C2769 0.930 . S
H2758 C2771 0.930 . S
H2759 C2772 0.930 . S
H2760 C2776 0.959 . S
H2761 C2776 0.959 . S
H2762 C2776 0.961 . S
H2763 C2777 0.960 . S
H2764 C2777 0.961 . S
H2765 C2777 0.959 . S
H2766 C2780 0.929 1_455 S
H2767 C2781 0.931 . S
H2768 C2783 0.930 . S
C2769 H2757 0.930 . S
C2769 C2770 1.399 . S
C2769 C2774 1.399 . S
C2770 C2769 1.399 . S
C2770 C2771 1.376 . S
C2771 H2758 0.930 . S
C2771 C2770 1.376 . S
C2771 C2772 1.388 . S
C2772 H2759 0.930 . S
C2772 C2771 1.388 . S
C2772 C2773 1.390 . S
C2773 C2772 1.390 . S
C2773 C2774 1.394 . S
C2773 C2779 1.465 . S
C2774 C2769 1.399 . S
C2774 C2773 1.394 . S
C2774 C2775 1.516 . S
C2775 C2774 1.516 . S
C2775 C2776 1.502 . S
C2775 C2777 1.561 . S
C2775 C2778 1.566 . S
C2776 H2760 0.959 . S
C2776 H2761 0.959 . S
C2776 H2762 0.961 . S
C2776 C2775 1.502 . S
C2777 H2763 0.960 . S
C2777 H2764 0.961 . S
C2777 H2765 0.959 . S
C2777 C2775 1.561 . S
C2778 C2775 1.566 . S
C2778 C2779 1.419 . S
C2778 C2783 1.335 1_455 S
C2779 C2773 1.465 . S
C2779 C2778 1.419 . S
C2779 C2780 1.399 1_455 S
C2780 H2766 0.929 1_655 S
C2780 C2779 1.399 1_655 S
C2780 C2781 1.385 . S
C2781 H2767 0.931 . S
C2781 C2780 1.385 . S
C2781 C2782 1.389 . S
C2782 C2781 1.389 . S
C2782 C2783 1.387 . S
C2783 H2768 0.930 . S
C2783 C2778 1.335 1_655 S
C2783 C2782 1.387 . S
H2784 C2796 0.930 . S
H2785 C2798 0.930 . S
H2786 C2799 0.930 . S
H2787 C2803 0.959 . S
H2788 C2803 0.959 . S
H2789 C2803 0.961 . S
H2790 C2804 0.965 . S
H2791 C2804 0.962 . S
H2792 C2804 0.959 . S
H2793 C2807 0.929 . S
H2794 C2808 0.931 . S
H2795 C2810 0.930 . S
C2796 H2784 0.930 . S
C2796 C2797 1.399 . S
C2796 C2801 1.399 . S
C2797 C2796 1.399 . S
C2797 C2798 1.376 . S
C2798 H2785 0.930 . S
C2798 C2797 1.376 . S
C2798 C2799 1.388 . S
C2799 H2786 0.930 . S
C2799 C2798 1.388 . S
C2799 C2800 1.390 . S
C2800 C2799 1.390 . S
C2800 C2801 1.394 . S
C2800 C2806 1.465 . S
C2801 C2796 1.399 . S
C2801 C2800 1.394 . S
C2801 C2802 1.516 . S
C2802 C2801 1.516 . S
C2802 C2803 1.502 . S
C2802 C2804 1.561 . S
C2802 C2805 1.526 . S
C2803 H2787 0.959 . S
C2803 H2788 0.959 . S
C2803 H2789 0.961 . S
C2803 C2802 1.502 . S
C2804 H2790 0.965 . S
C2804 H2791 0.962 . S
C2804 H2792 0.959 . S
C2804 C2802 1.561 . S
C2805 C2802 1.526 . S
C2805 C2806 1.396 . S
C2805 C2810 1.390 . S
C2806 C2800 1.465 . S
C2806 C2805 1.396 . S
C2806 C2807 1.399 . S
C2807 H2793 0.929 . S
C2807 C2806 1.399 . S
C2807 C2808 1.385 . S
C2808 H2794 0.931 . S
C2808 C2807 1.385 . S
C2808 C2809 1.389 . S
C2809 C2808 1.389 . S
C2809 C2810 1.387 . S
C2810 H2795 0.930 . S
C2810 C2805 1.390 . S
C2810 C2809 1.387 . S
H2811 C2823 0.930 . S
H2812 C2825 0.930 . S
H2813 C2826 0.930 . S
H2814 C2830 0.959 . S
H2815 C2830 0.959 . S
H2816 C2830 0.961 . S
H2817 C2831 0.960 . S
H2818 C2831 0.961 . S
H2819 C2831 0.959 . S
H2820 C2834 0.929 . S
H2821 C2835 0.931 . S
H2822 C2837 0.930 . S
C2823 H2811 0.930 . S
C2823 C2824 1.399 . S
C2823 C2828 1.399 . S
C2824 C2823 1.399 . S
C2824 C2825 1.376 . S
C2825 H2812 0.930 . S
C2825 C2824 1.376 . S
C2825 C2826 1.388 . S
C2826 H2813 0.930 . S
C2826 C2825 1.388 . S
C2826 C2827 1.390 . S
C2827 C2826 1.390 . S
C2827 C2828 1.394 . S
C2827 C2833 1.465 . S
C2828 C2823 1.399 . S
C2828 C2827 1.394 . S
C2828 C2829 1.516 . S
C2829 C2828 1.516 . S
C2829 C2830 1.502 . S
C2829 C2831 1.561 . S
C2829 C2832 1.526 . S
C2830 H2814 0.959 . S
C2830 H2815 0.959 . S
C2830 H2816 0.961 . S
C2830 C2829 1.502 . S
C2831 H2817 0.960 . S
C2831 H2818 0.961 . S
C2831 H2819 0.959 . S
C2831 C2829 1.561 . S
C2832 C2829 1.526 . S
C2832 C2833 1.396 . S
C2832 C2837 1.390 . S
C2833 C2827 1.465 . S
C2833 C2832 1.396 . S
C2833 C2834 1.399 . S
C2834 H2820 0.929 . S
C2834 C2833 1.399 . S
C2834 C2835 1.385 . S
C2835 H2821 0.931 . S
C2835 C2834 1.385 . S
C2835 C2836 1.389 . S
C2836 C2835 1.389 . S
C2836 C2837 1.387 . S
C2837 H2822 0.930 . S
C2837 C2832 1.390 . S
C2837 C2836 1.387 . S
H2838 C2850 0.930 . S
H2839 C2852 0.930 . S
H2840 C2853 0.930 . S
H2841 C2857 0.959 . S
H2842 C2857 0.959 . S
H2843 C2857 0.961 . S
H2844 C2858 0.960 . S
H2845 C2858 0.961 . S
H2846 C2858 0.959 . S
H2847 C2861 0.929 . S
H2848 C2862 0.931 . S
H2849 C2864 0.930 . S
C2850 H2838 0.930 . S
C2850 C2851 1.399 . S
C2850 C2855 1.399 . S
C2851 C2850 1.399 . S
C2851 C2852 1.376 . S
C2852 H2839 0.930 . S
C2852 C2851 1.376 . S
C2852 C2853 1.388 . S
C2853 H2840 0.930 . S
C2853 C2852 1.388 . S
C2853 C2854 1.390 . S
C2854 C2853 1.390 . S
C2854 C2855 1.394 . S
C2854 C2860 1.465 . S
C2855 C2850 1.399 . S
C2855 C2854 1.394 . S
C2855 C2856 1.516 . S
C2856 C2855 1.516 . S
C2856 C2857 1.502 . S
C2856 C2858 1.561 . S
C2856 C2859 1.526 . S
C2857 H2841 0.959 . S
C2857 H2842 0.959 . S
C2857 H2843 0.961 . S
C2857 C2856 1.502 . S
C2858 H2844 0.960 . S
C2858 H2845 0.961 . S
C2858 H2846 0.959 . S
C2858 C2856 1.561 . S
C2859 C2856 1.526 . S
C2859 C2860 1.396 . S
C2859 C2864 1.390 . S
C2860 C2854 1.465 . S
C2860 C2859 1.396 . S
C2860 C2861 1.399 . S
C2861 H2847 0.929 . S
C2861 C2860 1.399 . S
C2861 C2862 1.385 . S
C2862 H2848 0.931 . S
C2862 C2861 1.385 . S
C2862 C2863 1.389 . S
C2863 C2862 1.389 . S
C2863 C2864 1.387 . S
C2864 H2849 0.930 . S
C2864 C2859 1.390 . S
C2864 C2863 1.387 . S
H2865 C2877 0.930 . S
H2866 C2879 0.930 . S
H2867 C2880 0.922 1_455 S
H2868 C2884 0.959 . S
H2869 C2884 0.959 . S
H2870 C2884 0.961 . S
H2871 C2885 0.997 . S
H2872 C2885 0.961 . S
H2873 C2885 0.959 . S
H2874 C2888 0.929 . S
H2875 C2889 0.931 . S
H2876 C2891 0.930 . S
C2877 H2865 0.930 . S
C2877 C2878 1.399 . S
C2877 C2882 1.357 1_655 S
C2878 C2877 1.399 . S
C2878 C2879 1.376 . S
C2879 H2866 0.930 . S
C2879 C2878 1.376 . S
C2879 C2880 1.388 . S
C2880 H2867 0.922 1_655 S
C2880 C2879 1.388 . S
C2880 C2881 1.390 1_655 S
C2881 C2880 1.390 1_455 S
C2881 C2882 1.410 . S
C2881 C2887 1.465 . S
C2882 C2877 1.357 1_455 S
C2882 C2881 1.410 . S
C2882 C2883 1.548 . S
C2883 C2882 1.548 . S
C2883 C2884 1.502 . S
C2883 C2885 1.561 . S
C2883 C2886 1.526 . S
C2884 H2868 0.959 . S
C2884 H2869 0.959 . S
C2884 H2870 0.961 . S
C2884 C2883 1.502 . S
C2885 H2871 0.997 . S
C2885 H2872 0.961 . S
C2885 H2873 0.959 . S
C2885 C2883 1.561 . S
C2886 C2883 1.526 . S
C2886 C2887 1.396 . S
C2886 C2891 1.390 . S
C2887 C2881 1.465 . S
C2887 C2886 1.396 . S
C2887 C2888 1.399 . S
C2888 H2874 0.929 . S
C2888 C2887 1.399 . S
C2888 C2889 1.385 . S
C2889 H2875 0.931 . S
C2889 C2888 1.385 . S
C2889 C2890 1.389 . S
C2890 C2889 1.389 . S
C2890 C2891 1.387 . S
C2891 H2876 0.930 . S
C2891 C2886 1.390 . S
C2891 C2890 1.387 . S
H2892 C2904 0.930 . S
H2893 C2906 0.930 . S
H2894 C2907 0.930 . S
H2895 C2911 0.959 . S
H2896 C2911 0.959 . S
H2897 C2911 0.961 . S
H2898 C2912 0.960 . S
H2899 C2912 0.961 . S
H2900 C2912 0.959 . S
H2901 C2915 0.929 . S
H2902 C2916 0.931 . S
H2903 C2918 0.930 . S
C2904 H2892 0.930 . S
C2904 C2905 1.399 . S
C2904 C2909 1.399 . S
C2905 C2904 1.399 . S
C2905 C2906 1.376 . S
C2906 H2893 0.930 . S
C2906 C2905 1.376 . S
C2906 C2907 1.388 . S
C2907 H2894 0.930 . S
C2907 C2906 1.388 . S
C2907 C2908 1.390 . S
C2908 C2907 1.390 . S
C2908 C2909 1.394 . S
C2908 C2914 1.465 . S
C2909 C2904 1.399 . S
C2909 C2908 1.394 . S
C2909 C2910 1.516 . S
C2910 C2909 1.516 . S
C2910 C2911 1.502 . S
C2910 C2912 1.561 . S
C2910 C2913 1.526 . S
C2911 H2895 0.959 . S
C2911 H2896 0.959 . S
C2911 H2897 0.961 . S
C2911 C2910 1.502 . S
C2912 H2898 0.960 . S
C2912 H2899 0.961 . S
C2912 H2900 0.959 . S
C2912 C2910 1.561 . S
C2913 C2910 1.526 . S
C2913 C2914 1.396 . S
C2913 C2918 1.390 . S
C2914 C2908 1.465 . S
C2914 C2913 1.396 . S
C2914 C2915 1.399 . S
C2915 H2901 0.929 . S
C2915 C2914 1.399 . S
C2915 C2916 1.385 . S
C2916 H2902 0.931 . S
C2916 C2915 1.385 . S
C2916 C2917 1.389 . S
C2917 C2916 1.389 . S
C2917 C2918 1.387 . S
C2918 H2903 0.930 . S
C2918 C2913 1.390 . S
C2918 C2917 1.387 . S
H2919 C2931 0.930 . S
H2920 C2933 0.930 . S
H2921 C2934 0.930 . S
H2922 C2938 0.959 . S
H2923 C2938 0.959 . S
H2924 C2938 0.961 . S
H2925 C2939 0.960 . S
H2926 C2939 0.961 . S
H2927 C2939 0.959 . S
H2928 C2942 0.929 . S
H2929 C2943 0.931 . S
H2930 C2945 0.930 . S
C2931 H2919 0.930 . S
C2931 C2932 1.399 . S
C2931 C2936 1.399 1_655 S
C2932 C2931 1.399 . S
C2932 C2933 1.376 . S
C2933 H2920 0.930 . S
C2933 C2932 1.376 . S
C2933 C2934 1.388 . S
C2934 H2921 0.930 . S
C2934 C2933 1.388 . S
C2934 C2935 1.390 1_655 S
C2935 C2934 1.390 1_455 S
C2935 C2936 1.394 . S
C2935 C2941 1.465 . S
C2936 C2931 1.399 1_455 S
C2936 C2935 1.394 . S
C2936 C2937 1.516 . S
C2937 C2936 1.516 . S
C2937 C2938 1.502 . S
C2937 C2939 1.561 . S
C2937 C2940 1.526 . S
C2938 H2922 0.959 . S
C2938 H2923 0.959 . S
C2938 H2924 0.961 . S
C2938 C2937 1.502 . S
C2939 H2925 0.960 . S
C2939 H2926 0.961 . S
C2939 H2927 0.959 . S
C2939 C2937 1.561 . S
C2940 C2937 1.526 . S
C2940 C2941 1.396 . S
C2940 C2945 1.390 . S
C2941 C2935 1.465 . S
C2941 C2940 1.396 . S
C2941 C2942 1.399 . S
C2942 H2928 0.929 . S
C2942 C2941 1.399 . S
C2942 C2943 1.385 . S
C2943 H2929 0.931 . S
C2943 C2942 1.385 . S
C2943 C2944 1.389 . S
C2944 C2943 1.389 . S
C2944 C2945 1.387 . S
C2945 H2930 0.930 . S
C2945 C2940 1.390 . S
C2945 C2944 1.387 . S
H2946 C2958 0.930 . S
H2947 C2960 0.930 . S
H2948 C2961 0.930 . S
H2949 C2965 0.959 . S
H2950 C2965 0.959 . S
H2951 C2965 0.961 . S
H2952 C2966 0.960 . S
H2953 C2966 0.961 . S
H2954 C2966 0.959 . S
H2955 C2969 0.929 . S
H2956 C2970 0.931 . S
H2957 C2972 0.930 . S
C2958 H2946 0.930 . S
C2958 C2959 1.399 . S
C2958 C2963 1.399 . S
C2959 C2958 1.399 . S
C2959 C2960 1.376 . S
C2960 H2947 0.930 . S
C2960 C2959 1.376 . S
C2960 C2961 1.388 . S
C2961 H2948 0.930 . S
C2961 C2960 1.388 . S
C2961 C2962 1.390 . S
C2962 C2961 1.390 . S
C2962 C2963 1.394 . S
C2962 C2968 1.465 . S
C2963 C2958 1.399 . S
C2963 C2962 1.394 . S
C2963 C2964 1.516 . S
C2964 C2963 1.516 . S
C2964 C2965 1.502 . S
C2964 C2966 1.561 . S
C2964 C2967 1.526 . S
C2965 H2949 0.959 . S
C2965 H2950 0.959 . S
C2965 H2951 0.961 . S
C2965 C2964 1.502 . S
C2966 H2952 0.960 . S
C2966 H2953 0.961 . S
C2966 H2954 0.959 . S
C2966 C2964 1.561 . S
C2967 C2964 1.526 . S
C2967 C2968 1.396 . S
C2967 C2972 1.390 . S
C2968 C2962 1.465 . S
C2968 C2967 1.396 . S
C2968 C2969 1.399 . S
C2969 H2955 0.929 . S
C2969 C2968 1.399 . S
C2969 C2970 1.385 . S
C2970 H2956 0.931 . S
C2970 C2969 1.385 . S
C2970 C2971 1.389 . S
C2971 C2970 1.389 . S
C2971 C2972 1.387 . S
C2972 H2957 0.930 . S
C2972 C2967 1.390 . S
C2972 C2971 1.387 . S
H2973 C2985 0.930 . S
H2974 C2987 0.930 . S
H2975 C2988 0.930 . S
H2976 C2992 0.959 . S
H2977 C2992 0.959 . S
H2978 C2992 0.961 . S
H2979 C2993 0.960 . S
H2980 C2993 0.961 . S
H2981 C2993 0.959 . S
H2982 C2996 0.929 . S
H2983 C2997 0.931 . S
H2984 C2999 0.930 . S
C2985 H2973 0.930 . S
C2985 C2986 1.399 . S
C2985 C2990 1.399 . S
C2986 C2985 1.399 . S
C2986 C2987 1.376 . S
C2987 H2974 0.930 . S
C2987 C2986 1.376 . S
C2987 C2988 1.388 . S
C2988 H2975 0.930 . S
C2988 C2987 1.388 . S
C2988 C2989 1.390 . S
C2989 C2988 1.390 . S
C2989 C2990 1.394 . S
C2989 C2995 1.465 . S
C2990 C2985 1.399 . S
C2990 C2989 1.394 . S
C2990 C2991 1.516 . S
C2991 C2990 1.516 . S
C2991 C2992 1.502 . S
C2991 C2993 1.561 . S
C2991 C2994 1.526 . S
C2992 H2976 0.959 . S
C2992 H2977 0.959 . S
C2992 H2978 0.961 . S
C2992 C2991 1.502 . S
C2993 H2979 0.960 . S
C2993 H2980 0.961 . S
C2993 H2981 0.959 . S
C2993 C2991 1.561 . S
C2994 C2991 1.526 . S
C2994 C2995 1.396 . S
C2994 C2999 1.390 . S
C2995 C2989 1.465 . S
C2995 C2994 1.396 . S
C2995 C2996 1.399 . S
C2996 H2982 0.929 . S
C2996 C2995 1.399 . S
C2996 C2997 1.385 . S
C2997 H2983 0.931 . S
C2997 C2996 1.385 . S
C2997 C2998 1.389 . S
C2998 C2997 1.389 . S
C2998 C2999 1.387 . S
C2999 H2984 0.930 . S
C2999 C2994 1.390 . S
C2999 C2998 1.387 . S
H3000 C3012 0.930 . S
H3001 C3014 0.930 . S
H3002 C3015 0.930 . S
H3003 C3019 0.959 . S
H3004 C3019 0.959 . S
H3005 C3019 0.961 . S
H3006 C3020 0.960 . S
H3007 C3020 0.961 . S
H3008 C3020 0.959 . S
H3009 C3023 0.929 . S
H3010 C3024 0.931 . S
H3011 C3026 0.930 . S
C3012 H3000 0.930 . S
C3012 C3013 1.399 . S
C3012 C3017 1.399 . S
C3013 C3012 1.399 . S
C3013 C3014 1.376 . S
C3014 H3001 0.930 . S
C3014 C3013 1.376 . S
C3014 C3015 1.388 . S
C3015 H3002 0.930 . S
C3015 C3014 1.388 . S
C3015 C3016 1.390 . S
C3016 C3015 1.390 . S
C3016 C3017 1.394 . S
C3016 C3022 1.465 . S
C3017 C3012 1.399 . S
C3017 C3016 1.394 . S
C3017 C3018 1.516 . S
C3018 C3017 1.516 . S
C3018 C3019 1.502 . S
C3018 C3020 1.561 . S
C3018 C3021 1.526 . S
C3019 H3003 0.959 . S
C3019 H3004 0.959 . S
C3019 H3005 0.961 . S
C3019 C3018 1.502 . S
C3020 H3006 0.960 . S
C3020 H3007 0.961 . S
C3020 H3008 0.959 . S
C3020 C3018 1.561 . S
C3021 C3018 1.526 . S
C3021 C3022 1.396 . S
C3021 C3026 1.390 . S
C3022 C3016 1.465 . S
C3022 C3021 1.396 . S
C3022 C3023 1.399 . S
C3023 H3009 0.929 . S
C3023 C3022 1.399 . S
C3023 C3024 1.385 . S
C3024 H3010 0.931 . S
C3024 C3023 1.385 . S
C3024 C3025 1.389 . S
C3025 C3024 1.389 . S
C3025 C3026 1.387 . S
C3026 H3011 0.930 . S
C3026 C3021 1.390 . S
C3026 C3025 1.387 . S
H3027 C3039 0.930 . S
H3028 C3041 0.930 . S
H3029 C3042 0.930 . S
H3030 C3046 0.959 . S
H3031 C3046 0.959 . S
H3032 C3046 0.961 . S
H3033 C3047 0.960 . S
H3034 C3047 0.961 . S
H3035 C3047 0.959 . S
H3036 C3050 0.929 . S
H3037 C3051 0.931 . S
H3038 C3053 0.930 . S
C3039 H3027 0.930 . S
C3039 C3040 1.399 . S
C3039 C3044 1.399 . S
C3040 C3039 1.399 . S
C3040 C3041 1.376 . S
C3041 H3028 0.930 . S
C3041 C3040 1.376 . S
C3041 C3042 1.388 . S
C3042 H3029 0.930 . S
C3042 C3041 1.388 . S
C3042 C3043 1.390 . S
C3043 C3042 1.390 . S
C3043 C3044 1.394 . S
C3043 C3049 1.465 . S
C3044 C3039 1.399 . S
C3044 C3043 1.394 . S
C3044 C3045 1.516 . S
C3045 C3044 1.516 . S
C3045 C3046 1.502 . S
C3045 C3047 1.561 . S
C3045 C3048 1.526 . S
C3046 H3030 0.959 . S
C3046 H3031 0.959 . S
C3046 H3032 0.961 . S
C3046 C3045 1.502 . S
C3047 H3033 0.960 . S
C3047 H3034 0.961 . S
C3047 H3035 0.959 . S
C3047 C3045 1.561 . S
C3048 C3045 1.526 . S
C3048 C3049 1.396 . S
C3048 C3053 1.390 . S
C3049 C3043 1.465 . S
C3049 C3048 1.396 . S
C3049 C3050 1.399 . S
C3050 H3036 0.929 . S
C3050 C3049 1.399 . S
C3050 C3051 1.385 . S
C3051 H3037 0.931 . S
C3051 C3050 1.385 . S
C3051 C3052 1.389 . S
C3052 C3051 1.389 . S
C3052 C3053 1.387 . S
C3053 H3038 0.930 . S
C3053 C3048 1.390 . S
C3053 C3052 1.387 . S
H3054 C3066 0.930 . S
H3055 C3068 0.930 . S
H3056 C3069 0.930 . S
H3057 C3073 0.959 . S
H3058 C3073 0.959 . S
H3059 C3073 0.961 . S
H3060 C3074 0.960 . S
H3061 C3074 0.961 . S
H3062 C3074 0.959 . S
H3063 C3077 0.929 . S
H3064 C3078 0.931 . S
H3065 C3080 0.930 . S
C3066 H3054 0.930 . S
C3066 C3067 1.399 . S
C3066 C3071 1.399 . S
C3067 C3066 1.399 . S
C3067 C3068 1.376 . S
C3068 H3055 0.930 . S
C3068 C3067 1.376 . S
C3068 C3069 1.388 . S
C3069 H3056 0.930 . S
C3069 C3068 1.388 . S
C3069 C3070 1.390 . S
C3070 C3069 1.390 . S
C3070 C3071 1.394 . S
C3070 C3076 1.465 . S
C3071 C3066 1.399 . S
C3071 C3070 1.394 . S
C3071 C3072 1.516 . S
C3072 C3071 1.516 . S
C3072 C3073 1.502 . S
C3072 C3074 1.561 . S
C3072 C3075 1.526 . S
C3073 H3057 0.959 . S
C3073 H3058 0.959 . S
C3073 H3059 0.961 . S
C3073 C3072 1.502 . S
C3074 H3060 0.960 . S
C3074 H3061 0.961 . S
C3074 H3062 0.959 . S
C3074 C3072 1.561 . S
C3075 C3072 1.526 . S
C3075 C3076 1.396 . S
C3075 C3080 1.390 . S
C3076 C3070 1.465 . S
C3076 C3075 1.396 . S
C3076 C3077 1.399 . S
C3077 H3063 0.929 . S
C3077 C3076 1.399 . S
C3077 C3078 1.385 . S
C3078 H3064 0.931 . S
C3078 C3077 1.385 . S
C3078 C3079 1.389 . S
C3079 C3078 1.389 . S
C3079 C3080 1.387 . S
C3080 H3065 0.930 . S
C3080 C3075 1.390 . S
C3080 C3079 1.387 . S
H3081 C3093 0.930 . S
H3082 C3095 0.930 . S
H3083 C3096 0.930 . S
H3084 C3100 0.959 . S
H3085 C3100 0.959 . S
H3086 C3100 0.961 . S
H3087 C3101 0.960 . S
H3088 C3101 0.961 . S
H3089 C3101 0.959 . S
H3090 C3104 0.929 . S
H3091 C3105 0.931 . S
H3092 C3107 0.930 . S
C3093 H3081 0.930 . S
C3093 C3094 1.399 . S
C3093 C3098 1.399 . S
C3094 C3093 1.399 . S
C3094 C3095 1.376 . S
C3095 H3082 0.930 . S
C3095 C3094 1.376 . S
C3095 C3096 1.388 . S
C3096 H3083 0.930 . S
C3096 C3095 1.388 . S
C3096 C3097 1.390 . S
C3097 C3096 1.390 . S
C3097 C3098 1.394 . S
C3097 C3103 1.465 . S
C3098 C3093 1.399 . S
C3098 C3097 1.394 . S
C3098 C3099 1.516 . S
C3099 C3098 1.516 . S
C3099 C3100 1.502 . S
C3099 C3101 1.561 . S
C3099 C3102 1.526 . S
C3100 H3084 0.959 . S
C3100 H3085 0.959 . S
C3100 H3086 0.961 . S
C3100 C3099 1.502 . S
C3101 H3087 0.960 . S
C3101 H3088 0.961 . S
C3101 H3089 0.959 . S
C3101 C3099 1.561 . S
C3102 C3099 1.526 . S
C3102 C3103 1.396 . S
C3102 C3107 1.390 1_655 S
C3103 C3097 1.465 . S
C3103 C3102 1.396 . S
C3103 C3104 1.399 1_655 S
C3104 H3090 0.929 . S
C3104 C3103 1.399 1_455 S
C3104 C3105 1.385 . S
C3105 H3091 0.931 . S
C3105 C3104 1.385 . S
C3105 C3106 1.389 . S
C3106 C3105 1.389 . S
C3106 C3107 1.387 . S
C3107 H3092 0.930 . S
C3107 C3102 1.390 1_455 S
C3107 C3106 1.387 . S
H3108 C3120 0.930 . S
H3109 C3122 0.930 . S
H3110 C3123 0.930 . S
H3111 C3127 0.959 . S
H3112 C3127 0.959 . S
H3113 C3127 0.961 . S
H3114 C3128 0.960 . S
H3115 C3128 0.961 . S
H3116 C3128 0.959 . S
H3117 C3131 0.929 . S
H3118 C3132 0.931 . S
H3119 C3134 0.930 . S
C3120 H3108 0.930 . S
C3120 C3121 1.399 . S
C3120 C3125 1.399 . S
C3121 C3120 1.399 . S
C3121 C3122 1.376 . S
C3122 H3109 0.930 . S
C3122 C3121 1.376 . S
C3122 C3123 1.388 . S
C3123 H3110 0.930 . S
C3123 C3122 1.388 . S
C3123 C3124 1.390 . S
C3124 C3123 1.390 . S
C3124 C3125 1.394 . S
C3124 C3130 1.465 . S
C3125 C3120 1.399 . S
C3125 C3124 1.394 . S
C3125 C3126 1.516 . S
C3126 C3125 1.516 . S
C3126 C3127 1.502 . S
C3126 C3128 1.561 . S
C3126 C3129 1.526 . S
C3127 H3111 0.959 . S
C3127 H3112 0.959 . S
C3127 H3113 0.961 . S
C3127 C3126 1.502 . S
C3128 H3114 0.960 . S
C3128 H3115 0.961 . S
C3128 H3116 0.959 . S
C3128 C3126 1.561 . S
C3129 C3126 1.526 . S
C3129 C3130 1.396 . S
C3129 C3134 1.390 . S
C3130 C3124 1.465 . S
C3130 C3129 1.396 . S
C3130 C3131 1.399 . S
C3131 H3117 0.929 . S
C3131 C3130 1.399 . S
C3131 C3132 1.385 . S
C3132 H3118 0.931 . S
C3132 C3131 1.385 . S
C3132 C3133 1.389 . S
C3133 C3132 1.389 . S
C3133 C3134 1.387 . S
C3134 H3119 0.930 . S
C3134 C3129 1.390 . S
C3134 C3133 1.387 . S
H3135 C3147 0.930 . S
H3136 C3149 0.930 . S
H3137 C3150 0.930 . S
H3138 C3154 0.959 . S
H3139 C3154 0.959 . S
H3140 C3154 0.961 . S
H3141 C3155 0.960 . S
H3142 C3155 0.961 . S
H3143 C3155 0.959 . S
H3144 C3158 0.929 . S
H3145 C3159 0.931 . S
H3146 C3161 0.930 . S
C3147 H3135 0.930 . S
C3147 C3148 1.399 . S
C3147 C3152 1.399 1_455 S
C3148 C3147 1.399 . S
C3148 C3149 1.376 . S
C3149 H3136 0.930 . S
C3149 C3148 1.376 . S
C3149 C3150 1.388 . S
C3150 H3137 0.930 . S
C3150 C3149 1.388 . S
C3150 C3151 1.390 1_455 S
C3151 C3150 1.390 1_655 S
C3151 C3152 1.394 . S
C3151 C3157 1.465 . S
C3152 C3147 1.399 1_655 S
C3152 C3151 1.394 . S
C3152 C3153 1.516 . S
C3153 C3152 1.516 . S
C3153 C3154 1.502 . S
C3153 C3155 1.561 . S
C3153 C3156 1.526 . S
C3154 H3138 0.959 . S
C3154 H3139 0.959 . S
C3154 H3140 0.961 . S
C3154 C3153 1.502 . S
C3155 H3141 0.960 . S
C3155 H3142 0.961 . S
C3155 H3143 0.959 . S
C3155 C3153 1.561 . S
C3156 C3153 1.526 . S
C3156 C3157 1.396 . S
C3156 C3161 1.390 . S
C3157 C3151 1.465 . S
C3157 C3156 1.396 . S
C3157 C3158 1.399 . S
C3158 H3144 0.929 . S
C3158 C3157 1.399 . S
C3158 C3159 1.385 . S
C3159 H3145 0.931 . S
C3159 C3158 1.385 . S
C3159 C3160 1.389 . S
C3160 C3159 1.389 . S
C3160 C3161 1.387 . S
C3161 H3146 0.930 . S
C3161 C3156 1.390 . S
C3161 C3160 1.387 . S
H3162 C3174 0.930 . S
H3163 C3176 0.930 . S
H3164 C3177 0.930 . S
H3165 C3181 0.959 . S
H3166 C3181 0.959 . S
H3167 C3181 0.961 . S
H3168 C3182 0.960 . S
H3169 C3182 0.961 . S
H3170 C3182 0.959 . S
H3171 C3185 0.929 . S
H3172 C3186 0.931 . S
H3173 C3188 0.930 . S
C3174 H3162 0.930 . S
C3174 C3175 1.399 . S
C3174 C3179 1.399 . S
C3175 C3174 1.399 . S
C3175 C3176 1.376 . S
C3176 H3163 0.930 . S
C3176 C3175 1.376 . S
C3176 C3177 1.388 . S
C3177 H3164 0.930 . S
C3177 C3176 1.388 . S
C3177 C3178 1.390 . S
C3178 C3177 1.390 . S
C3178 C3179 1.394 . S
C3178 C3184 1.465 . S
C3179 C3174 1.399 . S
C3179 C3178 1.394 . S
C3179 C3180 1.516 . S
C3180 C3179 1.516 . S
C3180 C3181 1.502 . S
C3180 C3182 1.561 . S
C3180 C3183 1.526 . S
C3181 H3165 0.959 . S
C3181 H3166 0.959 . S
C3181 H3167 0.961 . S
C3181 C3180 1.502 . S
C3182 H3168 0.960 . S
C3182 H3169 0.961 . S
C3182 H3170 0.959 . S
C3182 C3180 1.561 . S
C3183 C3180 1.526 . S
C3183 C3184 1.396 . S
C3183 C3188 1.390 . S
C3184 C3178 1.465 . S
C3184 C3183 1.396 . S
C3184 C3185 1.399 . S
C3185 H3171 0.929 . S
C3185 C3184 1.399 . S
C3185 C3186 1.385 . S
C3186 H3172 0.931 . S
C3186 C3185 1.385 . S
C3186 C3187 1.389 . S
C3187 C3186 1.389 . S
C3187 C3188 1.387 . S
C3188 H3173 0.930 . S
C3188 C3183 1.390 . S
C3188 C3187 1.387 . S
H3189 C3201 0.930 . S
H3190 C3203 0.930 . S
H3191 C3204 0.930 . S
H3192 C3208 0.959 . S
H3193 C3208 0.959 . S
H3194 C3208 0.961 . S
H3195 C3209 0.960 . S
H3196 C3209 0.961 . S
H3197 C3209 0.959 . S
H3198 C3212 0.929 . S
H3199 C3213 0.931 . S
H3200 C3215 0.930 . S
C3201 H3189 0.930 . S
C3201 C3202 1.399 . S
C3201 C3206 1.399 . S
C3202 C3201 1.399 . S
C3202 C3203 1.376 . S
C3203 H3190 0.930 . S
C3203 C3202 1.376 . S
C3203 C3204 1.388 . S
C3204 H3191 0.930 . S
C3204 C3203 1.388 . S
C3204 C3205 1.390 . S
C3205 C3204 1.390 . S
C3205 C3206 1.394 . S
C3205 C3211 1.465 . S
C3206 C3201 1.399 . S
C3206 C3205 1.394 . S
C3206 C3207 1.516 . S
C3207 C3206 1.516 . S
C3207 C3208 1.502 . S
C3207 C3209 1.561 . S
C3207 C3210 1.526 . S
C3208 H3192 0.959 . S
C3208 H3193 0.959 . S
C3208 H3194 0.961 . S
C3208 C3207 1.502 . S
C3209 H3195 0.960 . S
C3209 H3196 0.961 . S
C3209 H3197 0.959 . S
C3209 C3207 1.561 . S
C3210 C3207 1.526 . S
C3210 C3211 1.396 . S
C3210 C3215 1.390 . S
C3211 C3205 1.465 . S
C3211 C3210 1.396 . S
C3211 C3212 1.399 . S
C3212 H3198 0.929 . S
C3212 C3211 1.399 . S
C3212 C3213 1.385 . S
C3213 H3199 0.931 . S
C3213 C3212 1.385 . S
C3213 C3214 1.389 . S
C3214 C3213 1.389 . S
C3214 C3215 1.387 . S
C3215 H3200 0.930 . S
C3215 C3210 1.390 . S
C3215 C3214 1.387 . S
C1069 C238 1.376 1_554 S
C1081 C7 1.344 . S
C1096 C40 1.354 . S
C1108 C139 1.386 . S
C1123 C73 1.408 . S
C1135 C172 1.398 . S
C1150 C205 1.325 . S
C1162 C106 1.349 1_556 S
C1177 C271 1.361 . S
C1189 C502 1.368 1_556 S
C1204 C403 1.371 . S
C1216 C304 1.364 . S
C1231 C337 1.354 . S
C1243 C436 1.361 . S
C1258 C469 1.356 . S
C1270 C370 1.350 1_554 S
C1285 C766 1.380 . S
C1297 C535 1.347 . S
C1312 C667 1.391 . S
C1324 C568 1.359 1_556 S
C1339 C700 1.373 1_554 S
C1351 C601 1.342 . S
C1366 C733 1.406 . S
C1378 C634 1.404 . S
C1393 C1030 1.326 . S
C1405 C799 1.325 . S
C1420 C832 1.323 1_554 S
C1432 C931 1.323 . S
C1447 C964 1.322 1_556 S
C1459 C865 1.324 . S
C1474 C997 1.355 . S
C1486 C898 1.362 . S
C1501 C18 0.742 . S
C1513 C249 0.692 . S
C1528 C51 0.650 . S
C1540 C150 0.666 1_556 S
C1555 C84 0.684 1_554 S
C1567 C183 0.652 . S
C1582 C117 0.754 . S
C1594 C216 0.770 . S
C1609 C513 0.746 . S
C1621 C282 0.664 . S
C1636 C315 0.677 . S
C1648 C414 0.757 1_554 S
C1663 C447 0.747 . S
C1675 C348 0.666 1_556 S
C1690 C381 0.677 . S
C1702 C480 0.757 . S
C1717 C546 0.741 1_554 S
C1729 C777 0.690 . S
C1744 C678 0.743 . S
C1756 C579 0.693 . S
C1771 C711 0.765 . S
C1783 C612 0.766 . S
C1798 C645 0.763 . S
C1810 C744 0.767 1_556 S
C1825 C810 0.747 1_556 S
C1837 C1041 0.762 . S
C1852 C843 0.716 . S
C1864 C942 0.651 . S
C1879 C876 0.759 . S
C1891 C975 0.752 . S
C1906 C909 0.676 . S
C1918 C1008 0.756 1_554 S
C1933 N211 1.576 . S
C1945 N13 1.575 . S
C1960 N46 1.577 . S
C1972 N244 1.574 . S
C1987 N145 1.577 . S
C1999 N79 1.573 . S
C2014 N178 1.575 . S
C2026 N112 1.576 . S
C2041 N475 1.574 . S
C2053 N277 1.571 . S
C2068 N508 1.577 . S
C2080 N310 1.570 . S
C2095 N409 1.571 . S
C2107 N343 1.574 . S
C2122 N442 1.569 . S
C2134 N376 1.576 . S
C2149 N541 1.577 . S
C2161 N739 1.569 . S
C2176 N772 1.571 . S
C2188 N574 1.578 . S
C2203 N673 1.576 . S
C2215 N607 1.569 . S
C2230 N706 1.574 . S
C2242 N640 1.569 . S
C2257 N1003 1.570 . S
C2269 N805 1.578 . S
C2284 N838 1.576 . S
C2296 N1036 1.572 . S
C2311 N937 1.576 . S
C2323 N871 1.570 . S
C2338 N970 1.569 . S
C2350 N904 1.576 . S
C2365 C21 1.609 . S
C2377 N893 1.571 . S
C2392 N266 1.561 . S
C2404 C54 1.613 . S
C2419 N827 1.559 . S
C2431 C87 1.614 . S
C2446 C120 1.609 . S
C2458 N332 1.573 . S
C2473 C153 1.628 . S
C2485 N959 1.488 . S
C2500 C186 1.609 . S
C2512 N464 1.571 . S
C2527 C219 1.609 . S
C2539 N1025 1.571 . S
C2554 N398 1.572 . S
C2566 C252 1.609 . S
C2581 N629 1.489 . S
C2593 C285 1.628 . S
C2608 C318 1.618 . S
C2620 N2 1.497 . S
C2635 C351 1.614 . S
C2647 N563 1.571 . S
C2662 N68 1.483 . S
C2674 C384 1.623 . S
C2689 N695 1.489 . S
C2701 C417 1.621 . S
C2716 C450 1.625 . S
C2728 N200 1.532 . S
C2743 C483 1.616 . S
C2755 N761 1.567 . S
C2770 N134 1.483 . S
C2782 C516 1.627 . S
C2797 N365 1.502 . S
C2809 C549 1.623 . S
C2824 N794 1.544 . S
C2836 C582 1.614 . S
C2851 C615 1.628 . S
C2863 N299 1.491 . S
C2878 C648 1.613 . S
C2890 N860 1.559 . S
C2905 N431 1.555 . S
C2917 C681 1.612 . S
C2932 C714 1.626 . S
C2944 N992 1.490 . S
C2959 N497 1.553 . S
C2971 C747 1.615 . S
C2986 N926 1.516 . S
C2998 C780 1.620 . S
C3013 N101 1.524 . S
C3025 C813 1.613 . S
C3040 C846 1.619 . S
C3052 N530 1.560 . S
C3067 N35 1.486 . S
C3079 C879 1.628 . S
C3094 N596 1.538 . S
C3106 C912 1.611 . S
C3121 N167 1.566 . S
C3133 C945 1.610 . S
C3148 C978 1.617 . S
C3160 N728 1.503 . S
C3175 C1011 1.623 . S
C3187 N233 1.540 . S
C3202 C1044 1.612 . S
C3214 N662 1.529 . S
