# Generated by pormake.
# Topology umk, (4)-cn, num edge types: 1
# Building blocks:
#     Node 0, Type 0, BuildingBlock: KUFVIS_clean_sbu_0, # of connection points: 4
#     Node 1, Type 0, BuildingBlock: KUFVIS_clean_sbu_0, # of connection points: 4
#     Node 2, Type 0, BuildingBlock: KUFVIS_clean_sbu_0, # of connection points: 4
#     Node 3, Type 0, BuildingBlock: KUFVIS_clean_sbu_0, # of connection points: 4
#     Node 4, Type 0, BuildingBlock: KUFVIS_clean_sbu_0, # of connection points: 4
#     Node 5, Type 0, BuildingBlock: KUFVIS_clean_sbu_0, # of connection points: 4
#     Node 6, Type 0, BuildingBlock: KUFVIS_clean_sbu_0, # of connection points: 4
#     Node 7, Type 0, BuildingBlock: KUFVIS_clean_sbu_0, # of connection points: 4
#     Node 8, Type 0, BuildingBlock: KUFVIS_clean_sbu_0, # of connection points: 4
#     Node 9, Type 0, BuildingBlock: KUFVIS_clean_sbu_0, # of connection points: 4
#     Node 10, Type 0, BuildingBlock: KUFVIS_clean_sbu_0, # of connection points: 4
#     Node 11, Type 0, BuildingBlock: KUFVIS_clean_sbu_0, # of connection points: 4
#     Node 12, Type 0, BuildingBlock: KUFVIS_clean_sbu_0, # of connection points: 4
#     Node 13, Type 0, BuildingBlock: KUFVIS_clean_sbu_0, # of connection points: 4
#     Node 14, Type 0, BuildingBlock: KUFVIS_clean_sbu_0, # of connection points: 4
#     Node 15, Type 0, BuildingBlock: KUFVIS_clean_sbu_0, # of connection points: 4
#     Node 16, Type 0, BuildingBlock: KUFVIS_clean_sbu_0, # of connection points: 4
#     Node 17, Type 0, BuildingBlock: KUFVIS_clean_sbu_0, # of connection points: 4
#     Node 18, Type 0, BuildingBlock: KUFVIS_clean_sbu_0, # of connection points: 4
#     Node 19, Type 0, BuildingBlock: KUFVIS_clean_sbu_0, # of connection points: 4
#     Node 20, Type 0, BuildingBlock: KUFVIS_clean_sbu_0, # of connection points: 4
#     Node 21, Type 0, BuildingBlock: KUFVIS_clean_sbu_0, # of connection points: 4
#     Node 22, Type 0, BuildingBlock: KUFVIS_clean_sbu_0, # of connection points: 4
#     Node 23, Type 0, BuildingBlock: KUFVIS_clean_sbu_0, # of connection points: 4
#     Edge 24, Type (0, 0), BuildingBlock: XUDNAN_clean_linker_2, # of connection points: 2
#     Edge 25, Type (0, 0), BuildingBlock: XUDNAN_clean_linker_2, # of connection points: 2
#     Edge 26, Type (0, 0), BuildingBlock: XUDNAN_clean_linker_2, # of connection points: 2
#     Edge 27, Type (0, 0), BuildingBlock: XUDNAN_clean_linker_2, # of connection points: 2
#     Edge 28, Type (0, 0), BuildingBlock: XUDNAN_clean_linker_2, # of connection points: 2
#     Edge 29, Type (0, 0), BuildingBlock: XUDNAN_clean_linker_2, # of connection points: 2
#     Edge 30, Type (0, 0), BuildingBlock: XUDNAN_clean_linker_2, # of connection points: 2
#     Edge 31, Type (0, 0), BuildingBlock: XUDNAN_clean_linker_2, # of connection points: 2
#     Edge 32, Type (0, 0), BuildingBlock: XUDNAN_clean_linker_2, # of connection points: 2
#     Edge 33, Type (0, 0), BuildingBlock: XUDNAN_clean_linker_2, # of connection points: 2
#     Edge 34, Type (0, 0), BuildingBlock: XUDNAN_clean_linker_2, # of connection points: 2
#     Edge 35, Type (0, 0), BuildingBlock: XUDNAN_clean_linker_2, # of connection points: 2
#     Edge 36, Type (0, 0), BuildingBlock: XUDNAN_clean_linker_2, # of connection points: 2
#     Edge 37, Type (0, 0), BuildingBlock: XUDNAN_clean_linker_2, # of connection points: 2
#     Edge 38, Type (0, 0), BuildingBlock: XUDNAN_clean_linker_2, # of connection points: 2
#     Edge 39, Type (0, 0), BuildingBlock: XUDNAN_clean_linker_2, # of connection points: 2
#     Edge 40, Type (0, 0), BuildingBlock: XUDNAN_clean_linker_2, # of connection points: 2
#     Edge 41, Type (0, 0), BuildingBlock: XUDNAN_clean_linker_2, # of connection points: 2
#     Edge 42, Type (0, 0), BuildingBlock: XUDNAN_clean_linker_2, # of connection points: 2
#     Edge 43, Type (0, 0), BuildingBlock: XUDNAN_clean_linker_2, # of connection points: 2
#     Edge 44, Type (0, 0), BuildingBlock: XUDNAN_clean_linker_2, # of connection points: 2
#     Edge 45, Type (0, 0), BuildingBlock: XUDNAN_clean_linker_2, # of connection points: 2
#     Edge 46, Type (0, 0), BuildingBlock: XUDNAN_clean_linker_2, # of connection points: 2
#     Edge 47, Type (0, 0), BuildingBlock: XUDNAN_clean_linker_2, # of connection points: 2
#     Edge 48, Type (0, 0), BuildingBlock: XUDNAN_clean_linker_2, # of connection points: 2
#     Edge 49, Type (0, 0), BuildingBlock: XUDNAN_clean_linker_2, # of connection points: 2
#     Edge 50, Type (0, 0), BuildingBlock: XUDNAN_clean_linker_2, # of connection points: 2
#     Edge 51, Type (0, 0), BuildingBlock: XUDNAN_clean_linker_2, # of connection points: 2
#     Edge 52, Type (0, 0), BuildingBlock: XUDNAN_clean_linker_2, # of connection points: 2
#     Edge 53, Type (0, 0), BuildingBlock: XUDNAN_clean_linker_2, # of connection points: 2
#     Edge 54, Type (0, 0), BuildingBlock: XUDNAN_clean_linker_2, # of connection points: 2
#     Edge 55, Type (0, 0), BuildingBlock: XUDNAN_clean_linker_2, # of connection points: 2
#     Edge 56, Type (0, 0), BuildingBlock: XUDNAN_clean_linker_2, # of connection points: 2
#     Edge 57, Type (0, 0), BuildingBlock: XUDNAN_clean_linker_2, # of connection points: 2
#     Edge 58, Type (0, 0), BuildingBlock: XUDNAN_clean_linker_2, # of connection points: 2
#     Edge 59, Type (0, 0), BuildingBlock: XUDNAN_clean_linker_2, # of connection points: 2
#     Edge 60, Type (0, 0), BuildingBlock: XUDNAN_clean_linker_2, # of connection points: 2
#     Edge 61, Type (0, 0), BuildingBlock: XUDNAN_clean_linker_2, # of connection points: 2
#     Edge 62, Type (0, 0), BuildingBlock: XUDNAN_clean_linker_2, # of connection points: 2
#     Edge 63, Type (0, 0), BuildingBlock: XUDNAN_clean_linker_2, # of connection points: 2
#     Edge 64, Type (0, 0), BuildingBlock: XUDNAN_clean_linker_2, # of connection points: 2
#     Edge 65, Type (0, 0), BuildingBlock: XUDNAN_clean_linker_2, # of connection points: 2
#     Edge 66, Type (0, 0), BuildingBlock: XUDNAN_clean_linker_2, # of connection points: 2
#     Edge 67, Type (0, 0), BuildingBlock: XUDNAN_clean_linker_2, # of connection points: 2
#     Edge 68, Type (0, 0), BuildingBlock: XUDNAN_clean_linker_2, # of connection points: 2
#     Edge 69, Type (0, 0), BuildingBlock: XUDNAN_clean_linker_2, # of connection points: 2
#     Edge 70, Type (0, 0), BuildingBlock: XUDNAN_clean_linker_2, # of connection points: 2
#     Edge 71, Type (0, 0), BuildingBlock: XUDNAN_clean_linker_2, # of connection points: 2
# Relax obj value: 0.071
# Max RMSD: 0.061
# Mean RMSD: 0.061
data_MOF--net-umk--node1-KUFVIS_clean_sbu_0--edge1-XUDNAN_clean_linker_2
_symmetry_space_group_name_H-M    P1
_symmetry_Int_Tables_number       1
_symmetry_cell_setting            triclinic
loop_
_symmetry_equiv_pos_as_xyz
'x, y, z'
_cell_length_a     66.266604
_cell_length_b     66.247413
_cell_length_c     42.663189
_cell_angle_alpha  89.989856
_cell_angle_beta   89.974777
_cell_angle_gamma 120.01054
loop_
_atom_site_label
_atom_site_type_symbol
_atom_site_fract_x
_atom_site_fract_y
_atom_site_fract_z
_atom_type_partial_charge
Mn0 Mn 0.33867 0.48133 0.07891 0.0
Mn1 Mn 0.38686 0.50724 0.12433 0.0
C2 C 0.37381 0.51053 0.0584 0.0
C3 C 0.30479 0.48103 0.06143 0.0
C4 C 0.36904 0.45953 0.09472 0.0
O5 O 0.32518 0.47149 0.1231 0.0
O6 O 0.35861 0.49046 0.1505 0.0
C7 C 0.37683 0.54197 0.15297 0.0
N8 N 0.39136 0.537 0.13637 0.0
C9 C 0.41968 0.57772 0.13093 0.0
C10 C 0.40508 0.58328 0.14812 0.0
C11 C 0.38353 0.56532 0.15912 0.0
C12 C 0.41198 0.55414 0.12535 0.0
H13 H 0.36021 0.52822 0.16136 0.0
C14 C 0.33651 0.47733 0.1488 0.0
O15 O 0.30659 0.46239 0.05958 0.0
O16 O 0.32228 0.4992 0.07369 0.0
N17 N 0.41592 0.52431 0.10277 0.0
C18 C 0.42848 0.51589 0.08818 0.0
C19 C 0.45098 0.53152 0.07722 0.0
C20 C 0.4603 0.55562 0.08125 0.0
C21 C 0.44723 0.56385 0.09684 0.0
C22 C 0.42517 0.5474 0.10805 0.0
H23 H 0.42149 0.49737 0.08529 0.0
O24 O 0.35725 0.49626 0.03997 0.0
O25 O 0.36911 0.50762 0.08814 0.0
O26 O 0.3514 0.45835 0.0805 0.0
O27 O 0.38314 0.47693 0.11159 0.0
C28 C 0.45539 0.58769 0.10222 0.0
C29 C 0.44154 0.59463 0.11905 0.0
H30 H 0.41021 0.60127 0.15297 0.0
H31 H 0.37213 0.56948 0.17231 0.0
H32 H 0.46115 0.52499 0.06577 0.0
H33 H 0.47764 0.56765 0.07266 0.0
H34 H 0.4723 0.60082 0.09356 0.0
H35 H 0.44796 0.61301 0.12296 0.0
Mn36 Mn 0.87426 0.34808 0.57228 0.0
Mn37 Mn 0.89384 0.39315 0.62337 0.0
C38 C 0.88343 0.38489 0.55457 0.0
C39 C 0.842 0.31626 0.54829 0.0
C40 C 0.92514 0.37638 0.59579 0.0
O41 O 0.86645 0.33152 0.61477 0.0
O42 O 0.87966 0.36303 0.64584 0.0
C43 C 0.84711 0.38219 0.64552 0.0
N44 N 0.86808 0.39754 0.63258 0.0
C45 C 0.85745 0.42728 0.62926 0.0
C46 C 0.83577 0.41183 0.64265 0.0
C47 C 0.83054 0.38914 0.65067 0.0
C48 C 0.87305 0.41919 0.62402 0.0
H49 H 0.84307 0.36478 0.65184 0.0
C50 C 0.87023 0.34106 0.64168 0.0
O51 O 0.86209 0.31726 0.54969 0.0
O52 O 0.84071 0.33316 0.56146 0.0
N53 N 0.90842 0.42398 0.60635 0.0
C54 C 0.93113 0.43759 0.59755 0.0
C55 C 0.93959 0.46111 0.58994 0.0
C56 C 0.92486 0.4706 0.59243 0.0
C57 C 0.90201 0.45664 0.60339 0.0
C58 C 0.89455 0.43332 0.6106 0.0
H59 H 0.94268 0.43054 0.59621 0.0
O60 O 0.88182 0.36916 0.53509 0.0
O61 O 0.87889 0.37846 0.58372 0.0
O62 O 0.90955 0.35969 0.57908 0.0
O63 O 0.92085 0.38953 0.61324 0.0
C64 C 0.88664 0.46519 0.60855 0.0
C65 C 0.86433 0.45048 0.62132 0.0
H66 H 0.82305 0.41722 0.647 0.0
H67 H 0.81383 0.3771 0.66097 0.0
H68 H 0.95744 0.47191 0.58227 0.0
H69 H 0.93145 0.48874 0.58657 0.0
H70 H 0.89187 0.48311 0.603 0.0
H71 H 0.85266 0.45726 0.62519 0.0
Mn72 Mn 0.53671 0.8642 0.06966 0.0
Mn73 Mn 0.50321 0.87833 0.11431 0.0
C74 C 0.50778 0.869 0.04614 0.0
C75 C 0.54479 0.83588 0.04949 0.0
C76 C 0.55064 0.91453 0.09041 0.0
O77 O 0.54439 0.85845 0.1141 0.0
O78 O 0.52266 0.87002 0.14031 0.0
C79 C 0.47359 0.82995 0.13691 0.0
N80 N 0.47561 0.84929 0.12269 0.0
C81 C 0.43409 0.83085 0.1159 0.0
C82 C 0.43156 0.81076 0.13055 0.0
C83 C 0.45141 0.81027 0.14094 0.0
C84 C 0.45669 0.84967 0.11168 0.0
H85 H 0.48878 0.82952 0.14511 0.0
C86 C 0.53725 0.86283 0.13948 0.0
O87 O 0.56094 0.85756 0.05253 0.0
O88 O 0.52399 0.83061 0.05833 0.0
N89 N 0.48291 0.88728 0.09472 0.0
C90 C 0.48796 0.90939 0.08753 0.0
C91 C 0.46995 0.91355 0.07865 0.0
C92 C 0.44679 0.89517 0.07874 0.0
C93 C 0.44179 0.87306 0.08907 0.0
C94 C 0.46051 0.86994 0.09741 0.0
H95 H 0.50567 0.92374 0.08834 0.0
O96 O 0.52429 0.86924 0.02958 0.0
O97 O 0.50775 0.86457 0.07595 0.0
O98 O 0.55556 0.90004 0.07724 0.0
O99 O 0.53131 0.90836 0.10455 0.0
C100 C 0.4189 0.85441 0.0932 0.0
C101 C 0.41506 0.83317 0.10609 0.0
H102 H 0.41445 0.7957 0.13418 0.0
H103 H 0.44961 0.79483 0.15227 0.0
H104 H 0.47391 0.93091 0.07193 0.0
H105 H 0.43292 0.89846 0.07204 0.0
H106 H 0.4041 0.8563 0.08687 0.0
H107 H 0.39737 0.81896 0.10918 0.0
Mn108 Mn 0.67222 0.53876 0.57614 0.0
Mn109 Mn 0.62975 0.50163 0.62438 0.0
C110 C 0.6378 0.50822 0.55519 0.0
C111 C 0.70773 0.54856 0.55149 0.0
C112 C 0.63989 0.5511 0.61094 0.0
O113 O 0.68783 0.54576 0.61953 0.0
O114 O 0.66005 0.51502 0.64601 0.0
C115 C 0.64356 0.46555 0.62805 0.0
N116 N 0.62717 0.47164 0.62168 0.0
C117 C 0.59871 0.43206 0.60896 0.0
C118 C 0.61522 0.42531 0.61554 0.0
C119 C 0.63779 0.44216 0.62496 0.0
C120 C 0.60565 0.45571 0.61176 0.0
H121 H 0.6609 0.47846 0.63536 0.0
C122 C 0.68048 0.53279 0.64384 0.0
O123 O 0.70168 0.56414 0.55678 0.0
O124 O 0.69322 0.52749 0.56048 0.0
N125 N 0.59908 0.48697 0.60702 0.0
C126 C 0.58486 0.49618 0.6035 0.0
C127 C 0.56113 0.48138 0.59716 0.0
C128 C 0.55222 0.45726 0.59459 0.0
C129 C 0.56721 0.44819 0.59765 0.0
C130 C 0.59057 0.46372 0.60488 0.0
H131 H 0.59139 0.5146 0.60649 0.0
O132 O 0.65199 0.52561 0.53771 0.0
O133 O 0.64484 0.50896 0.58367 0.0
O134 O 0.65465 0.55576 0.58884 0.0
O135 O 0.63115 0.53229 0.6272 0.0
C136 C 0.55973 0.42427 0.59488 0.0
C137 C 0.57557 0.41625 0.60006 0.0
H138 H 0.61075 0.40724 0.61354 0.0
H139 H 0.65065 0.4371 0.63001 0.0
H140 H 0.54964 0.4885 0.59471 0.0
H141 H 0.5338 0.44587 0.5902 0.0
H142 H 0.54181 0.41188 0.58893 0.0
H143 H 0.56966 0.39784 0.59777 0.0
Mn144 Mn 0.14829 0.67432 0.07815 0.0
Mn145 Mn 0.12991 0.62928 0.12844 0.0
C146 C 0.13949 0.63753 0.06013 0.0
C147 C 0.18056 0.70583 0.05386 0.0
C148 C 0.09859 0.64732 0.10378 0.0
O149 O 0.15587 0.69039 0.12113 0.0
O150 O 0.14705 0.65916 0.15145 0.0
C151 C 0.17645 0.63667 0.14543 0.0
N152 N 0.15451 0.62251 0.13435 0.0
C153 C 0.16223 0.591 0.12683 0.0
C154 C 0.18478 0.60513 0.13865 0.0
C155 C 0.19196 0.62811 0.14784 0.0
C156 C 0.14762 0.60056 0.12477 0.0
H157 H 0.18212 0.65441 0.1521 0.0
C158 C 0.15518 0.68104 0.1476 0.0
O159 O 0.16061 0.70514 0.05538 0.0
O160 O 0.18174 0.68904 0.0675 0.0
N161 N 0.11313 0.59905 0.10971 0.0
C162 C 0.09067 0.58758 0.09934 0.0
C163 C 0.08044 0.56407 0.09061 0.0
C164 C 0.09337 0.5526 0.09262 0.0
C165 C 0.1165 0.56478 0.10307 0.0
C166 C 0.12556 0.588 0.11228 0.0
H167 H 0.08048 0.59615 0.09827 0.0
O168 O 0.14067 0.65314 0.04075 0.0
O169 O 0.14408 0.6442 0.08904 0.0
O170 O 0.11337 0.66281 0.08505 0.0
O171 O 0.10356 0.63499 0.12195 0.0
C172 C 0.13077 0.55468 0.10526 0.0
C173 C 0.15371 0.56785 0.11684 0.0
H174 H 0.19678 0.59857 0.14058 0.0
H175 H 0.20942 0.6392 0.1567 0.0
H176 H 0.06255 0.55474 0.08262 0.0
H177 H 0.08531 0.53435 0.08636 0.0
H178 H 0.12429 0.5368 0.09804 0.0
H179 H 0.16459 0.55997 0.11817 0.0
Mn180 Mn 0.48273 0.14704 0.58127 0.0
Mn181 Mn 0.50532 0.12311 0.63031 0.0
C182 C 0.51571 0.14572 0.56568 0.0
C183 C 0.48201 0.1806 0.56475 0.0
C184 C 0.46134 0.09434 0.59195 0.0
O185 O 0.46833 0.14725 0.62336 0.0
O186 O 0.4863 0.13338 0.65417 0.0
C187 C 0.53706 0.16396 0.66882 0.0
N188 N 0.53332 0.14563 0.6504 0.0
C189 C 0.5718 0.15209 0.66075 0.0
C190 C 0.57607 0.17101 0.67996 0.0
C191 C 0.55866 0.17701 0.68391 0.0
C192 C 0.54988 0.13958 0.6466 0.0
H193 H 0.52362 0.16846 0.67206 0.0
C194 C 0.47271 0.14166 0.65003 0.0
O195 O 0.46452 0.15989 0.5592 0.0
O196 O 0.49924 0.18155 0.58022 0.0
N197 N 0.5241 0.11217 0.61109 0.0
C198 C 0.51827 0.09567 0.58844 0.0
C199 C 0.53439 0.08879 0.57977 0.0
C200 C 0.55617 0.0987 0.59477 0.0
C201 C 0.56172 0.1156 0.6181 0.0
C202 C 0.54496 0.12177 0.62574 0.0
H203 H 0.50148 0.0879 0.57707 0.0
O204 O 0.50206 0.14742 0.5454 0.0
O205 O 0.50951 0.14436 0.59507 0.0
O206 O 0.46081 0.11095 0.57719 0.0
O207 O 0.47706 0.09792 0.61183 0.0
C208 C 0.5836 0.12733 0.63306 0.0
C209 C 0.58864 0.14557 0.65435 0.0
H210 H 0.59276 0.18124 0.69145 0.0
H211 H 0.56187 0.19164 0.6986 0.0
H212 H 0.53004 0.07585 0.56162 0.0
H213 H 0.56864 0.09352 0.58779 0.0
H214 H 0.59691 0.12293 0.62765 0.0
H215 H 0.60572 0.15486 0.66507 0.0
Mn216 Mn 0.54373 0.66687 0.93273 0.0
Mn217 Mn 0.51694 0.62432 0.87879 0.0
C218 C 0.51223 0.63051 0.94825 0.0
C219 C 0.54872 0.70084 0.95756 0.0
C220 C 0.5639 0.63732 0.90741 0.0
O221 O 0.55483 0.68457 0.8911 0.0
O222 O 0.53304 0.65508 0.85822 0.0
C223 C 0.48154 0.63637 0.85858 0.0
N224 N 0.48705 0.62036 0.86931 0.0
C225 C 0.44736 0.5894 0.86452 0.0
C226 C 0.44118 0.60551 0.85341 0.0
C227 C 0.45833 0.62914 0.8507 0.0
C228 C 0.47058 0.5978 0.87318 0.0
H229 H 0.49481 0.65445 0.85589 0.0
C230 C 0.54747 0.67647 0.86378 0.0
O231 O 0.56533 0.69589 0.95609 0.0
O232 O 0.52902 0.68594 0.94482 0.0
N233 N 0.5005 0.59291 0.89341 0.0
C234 C 0.50977 0.57943 0.90211 0.0
C235 C 0.49552 0.55512 0.90311 0.0
C236 C 0.47203 0.54483 0.89433 0.0
C237 C 0.4628 0.55898 0.88551 0.0
C238 C 0.47787 0.58312 0.8849 0.0
H239 H 0.52803 0.58708 0.90763 0.0
O240 O 0.52738 0.64493 0.96819 0.0
O241 O 0.51589 0.63803 0.91942 0.0
O242 O 0.5648 0.65258 0.92651 0.0
O243 O 0.54735 0.62673 0.88773 0.0
C244 C 0.43938 0.55002 0.8765 0.0
C245 C 0.43155 0.56527 0.8666 0.0
H246 H 0.42339 0.5999 0.84664 0.0
H247 H 0.45372 0.64168 0.84209 0.0
H248 H 0.50275 0.54431 0.90996 0.0
H249 H 0.46117 0.52602 0.89467 0.0
H250 H 0.42725 0.53143 0.87709 0.0
H251 H 0.4135 0.55819 0.85987 0.0
Mn252 Mn 0.87465 0.54606 0.436 0.0
Mn253 Mn 0.88864 0.5119 0.3927 0.0
C254 C 0.88128 0.51865 0.46096 0.0
C255 C 0.8457 0.55312 0.45613 0.0
C256 C 0.92347 0.56231 0.40931 0.0
O257 O 0.86732 0.5513 0.39108 0.0
O258 O 0.87279 0.52441 0.36651 0.0
C259 C 0.84034 0.47414 0.38069 0.0
N260 N 0.86221 0.48116 0.39147 0.0
C261 C 0.85226 0.44165 0.40244 0.0
C262 C 0.82969 0.43394 0.39117 0.0
C263 C 0.82364 0.45029 0.38051 0.0
C264 C 0.86794 0.46568 0.40293 0.0
H265 H 0.83568 0.48664 0.37233 0.0
C266 C 0.86641 0.5397 0.36677 0.0
O267 O 0.86696 0.56989 0.45182 0.0
O268 O 0.84123 0.53233 0.44853 0.0
N269 N 0.90423 0.49798 0.41358 0.0
C270 C 0.92745 0.50793 0.41995 0.0
C271 C 0.93655 0.49393 0.43013 0.0
C272 C 0.92188 0.4697 0.43258 0.0
C273 C 0.89838 0.45967 0.42405 0.0
C274 C 0.89027 0.47453 0.41423 0.0
H275 H 0.939 0.52646 0.41739 0.0
O276 O 0.88139 0.53543 0.47672 0.0
O277 O 0.8763 0.51774 0.43134 0.0
O278 O 0.90979 0.56592 0.42664 0.0
O279 O 0.91691 0.54326 0.39429 0.0
C280 C 0.88296 0.43541 0.42359 0.0
C281 C 0.85993 0.42642 0.41274 0.0
H282 H 0.81688 0.41553 0.39054 0.0
H283 H 0.80623 0.4445 0.3719 0.0
H284 H 0.95485 0.50177 0.43588 0.0
H285 H 0.92897 0.45893 0.4403 0.0
H286 H 0.88872 0.42351 0.43118 0.0
H287 H 0.84825 0.40773 0.4124 0.0
Mn288 Mn 0.34448 0.87109 0.92541 0.0
Mn289 Mn 0.39356 0.89553 0.88185 0.0
C290 C 0.38002 0.88065 0.94881 0.0
C291 C 0.31169 0.83645 0.94252 0.0
C292 C 0.3697 0.92196 0.90508 0.0
O293 O 0.33246 0.8662 0.87996 0.0
O294 O 0.3662 0.87678 0.85474 0.0
C295 C 0.39335 0.85221 0.86423 0.0
N296 N 0.40447 0.8739 0.87715 0.0
C297 C 0.43856 0.87101 0.888 0.0
C298 C 0.42758 0.84873 0.87448 0.0
C299 C 0.40481 0.83923 0.86273 0.0
C300 C 0.4261 0.88291 0.88936 0.0
H301 H 0.37584 0.84484 0.85528 0.0
C302 C 0.34406 0.86797 0.85513 0.0
O303 O 0.31175 0.85611 0.94269 0.0
O304 O 0.33022 0.83702 0.93167 0.0
N305 N 0.4219 0.9144 0.90437 0.0
C306 C 0.43055 0.93663 0.91504 0.0
C307 C 0.45334 0.94887 0.92696 0.0
C308 C 0.46724 0.93837 0.92709 0.0
C309 C 0.4583 0.91583 0.91494 0.0
C310 C 0.4355 0.90453 0.90324 0.0
H311 H 0.4202 0.94504 0.91443 0.0
O312 O 0.36219 0.87655 0.96591 0.0
O313 O 0.37626 0.87837 0.91887 0.0
O314 O 0.3544 0.90584 0.92258 0.0
O315 O 0.38361 0.91905 0.8872 0.0
C316 C 0.47126 0.90428 0.91358 0.0
C317 C 0.46138 0.88187 0.90016 0.0
H318 H 0.43642 0.83874 0.87311 0.0
H319 H 0.39615 0.82199 0.85247 0.0
H320 H 0.46022 0.96639 0.93587 0.0
H321 H 0.48479 0.94784 0.93636 0.0
H322 H 0.48886 0.91249 0.9227 0.0
H323 H 0.4715 0.87314 0.89927 0.0
Mn324 Mn 0.48112 0.34168 0.42708 0.0
Mn325 Mn 0.50637 0.38401 0.37263 0.0
C326 C 0.51115 0.37877 0.44089 0.0
C327 C 0.48042 0.31046 0.45407 0.0
C328 C 0.46048 0.37167 0.40382 0.0
O329 O 0.46986 0.32305 0.38626 0.0
O330 O 0.48694 0.35326 0.35281 0.0
C331 C 0.53748 0.3676 0.34809 0.0
N332 N 0.53463 0.38483 0.36096 0.0
C333 C 0.57604 0.41115 0.36176 0.0
C334 C 0.57943 0.39373 0.34842 0.0
C335 C 0.56005 0.37183 0.34165 0.0
C336 C 0.55316 0.40577 0.3682 0.0
H337 H 0.52266 0.35074 0.34284 0.0
C338 C 0.47405 0.33158 0.35867 0.0
O339 O 0.46198 0.3126 0.45284 0.0
O340 O 0.49855 0.32571 0.43882 0.0
N341 N 0.52593 0.41508 0.38739 0.0
C342 C 0.51941 0.43073 0.39631 0.0
C343 C 0.5365 0.45413 0.40088 0.0
C344 C 0.56011 0.46119 0.39639 0.0
C345 C 0.5664 0.44487 0.38673 0.0
C346 C 0.54853 0.42196 0.38151 0.0
H347 H 0.50126 0.42552 0.39921 0.0
O348 O 0.49707 0.3646 0.4619 0.0
O349 O 0.50765 0.37051 0.41258 0.0
O350 O 0.45878 0.35465 0.42026 0.0
O351 O 0.47766 0.38394 0.38543 0.0
C352 C 0.58959 0.45069 0.38065 0.0
C353 C 0.59444 0.43375 0.36852 0.0
H354 H 0.5968 0.39701 0.34313 0.0
H355 H 0.56251 0.35828 0.33138 0.0
H356 H 0.53145 0.46674 0.40757 0.0
H357 H 0.57323 0.47931 0.39965 0.0
H358 H 0.60381 0.46823 0.38479 0.0
H359 H 0.61232 0.43845 0.36378 0.0
Mn360 Mn 0.13405 0.47154 0.93639 0.0
Mn361 Mn 0.11436 0.49496 0.88332 0.0
C362 C 0.12477 0.50006 0.95234 0.0
C363 C 0.16697 0.47385 0.96086 0.0
C364 C 0.08473 0.44614 0.91067 0.0
O365 O 0.14182 0.46187 0.89439 0.0
O366 O 0.13378 0.48402 0.86253 0.0
C367 C 0.15936 0.53608 0.8655 0.0
N368 N 0.13701 0.52682 0.87576 0.0
C369 C 0.13942 0.56423 0.87408 0.0
C370 C 0.16244 0.57419 0.86324 0.0
C371 C 0.17252 0.56008 0.85921 0.0
C372 C 0.12745 0.54036 0.88086 0.0
H373 H 0.16704 0.52522 0.86212 0.0
C374 C 0.142 0.47051 0.86759 0.0
O375 O 0.1472 0.45436 0.96052 0.0
O376 O 0.16757 0.49127 0.94635 0.0
N377 N 0.09514 0.50654 0.89927 0.0
C378 C 0.07256 0.49407 0.90909 0.0
C379 C 0.05949 0.50528 0.91266 0.0
C380 C 0.06958 0.52906 0.90549 0.0
C381 C 0.09287 0.54159 0.89557 0.0
C382 C 0.10504 0.52949 0.89248 0.0
H383 H 0.06437 0.47562 0.91356 0.0
O384 O 0.12621 0.48604 0.97226 0.0
O385 O 0.12899 0.49686 0.92364 0.0
O386 O 0.09938 0.44708 0.93097 0.0
O387 O 0.08959 0.4623 0.89058 0.0
C388 C 0.10436 0.56553 0.88813 0.0
C389 C 0.12775 0.57694 0.87794 0.0
H390 H 0.17249 0.59262 0.85786 0.0
H391 H 0.19029 0.56763 0.85094 0.0
H392 H 0.04153 0.4955 0.92034 0.0
H393 H 0.05933 0.53757 0.90789 0.0
H394 H 0.09541 0.57538 0.89043 0.0
H395 H 0.13648 0.5954 0.87264 0.0
Mn396 Mn 0.67662 0.14105 0.44055 0.0
Mn397 Mn 0.62453 0.10769 0.40553 0.0
C398 C 0.64246 0.13306 0.46704 0.0
C399 C 0.70922 0.17765 0.4524 0.0
C400 C 0.6509 0.08746 0.43743 0.0
O401 O 0.68642 0.14316 0.39501 0.0
O402 O 0.65097 0.11871 0.37559 0.0
C403 C 0.62414 0.14321 0.36374 0.0
N404 N 0.61339 0.12589 0.38531 0.0
C405 C 0.57587 0.12125 0.37307 0.0
C406 C 0.58653 0.13924 0.35092 0.0
C407 C 0.61081 0.15047 0.34654 0.0
C408 C 0.5902 0.11555 0.39045 0.0
H409 H 0.64261 0.15103 0.35932 0.0
C410 C 0.673 0.13187 0.37241 0.0
O411 O 0.71015 0.15858 0.45474 0.0
O412 O 0.68977 0.17541 0.44233 0.0
N413 N 0.59654 0.09497 0.42956 0.0
C414 C 0.58955 0.07965 0.45388 0.0
C415 C 0.56583 0.06711 0.46195 0.0
C416 C 0.54952 0.06999 0.44431 0.0
C417 C 0.55723 0.08611 0.41957 0.0
C418 C 0.58117 0.09873 0.4135 0.0
H419 H 0.602 0.07695 0.4667 0.0
O420 O 0.6616 0.13795 0.48143 0.0
O421 O 0.64328 0.13248 0.43637 0.0
O422 O 0.66956 0.10665 0.44326 0.0
O423 O 0.63306 0.0864 0.42481 0.0
C424 C 0.54222 0.09056 0.40106 0.0
C425 C 0.55159 0.10839 0.37817 0.0
H426 H 0.57623 0.14446 0.33701 0.0
H427 H 0.61913 0.16423 0.3293 0.0
H428 H 0.56006 0.05485 0.48123 0.0
H429 H 0.53119 0.06001 0.45025 0.0
H430 H 0.52358 0.08099 0.40502 0.0
H431 H 0.53997 0.11211 0.36471 0.0
Mn432 Mn 0.67681 0.52854 0.93095 0.0
Mn433 Mn 0.63016 0.50041 0.88354 0.0
C434 C 0.64127 0.49965 0.95121 0.0
C435 C 0.71025 0.52906 0.95095 0.0
C436 C 0.6472 0.54944 0.90897 0.0
O437 O 0.6911 0.53772 0.88704 0.0
O438 O 0.65925 0.51436 0.85844 0.0
C439 C 0.63914 0.46275 0.8639 0.0
N440 N 0.62462 0.46953 0.8766 0.0
C441 C 0.59465 0.42969 0.88477 0.0
C442 C 0.60914 0.42227 0.87128 0.0
C443 C 0.63153 0.43888 0.86094 0.0
C444 C 0.60325 0.45371 0.88723 0.0
H445 H 0.65646 0.47544 0.85637 0.0
C446 C 0.68106 0.52888 0.86103 0.0
O447 O 0.70859 0.54783 0.95133 0.0
O448 O 0.69301 0.51082 0.93852 0.0
N449 N 0.60055 0.48568 0.90417 0.0
C450 C 0.58861 0.49572 0.91619 0.0
C451 C 0.56561 0.48151 0.92658 0.0
C452 C 0.55512 0.45715 0.92453 0.0
C453 C 0.56772 0.44721 0.9121 0.0
C454 C 0.59036 0.46226 0.90134 0.0
H455 H 0.59643 0.51443 0.91742 0.0
O456 O 0.65745 0.51435 0.96972 0.0
O457 O 0.64673 0.50189 0.92174 0.0
O458 O 0.6637 0.5509 0.92636 0.0
O459 O 0.63468 0.53192 0.89121 0.0
C460 C 0.55856 0.42297 0.90954 0.0
C461 C 0.5721 0.41421 0.89613 0.0
H462 H 0.60332 0.40388 0.86896 0.0
H463 H 0.64292 0.43331 0.8508 0.0
H464 H 0.55593 0.48931 0.93598 0.0
H465 H 0.53731 0.44622 0.93231 0.0
H466 H 0.54116 0.41091 0.91791 0.0
H467 H 0.56497 0.39554 0.89454 0.0
Mn468 Mn 0.14298 0.67223 0.43216 0.0
Mn469 Mn 0.12745 0.62847 0.38052 0.0
C470 C 0.13615 0.63568 0.45026 0.0
C471 C 0.17243 0.70639 0.45605 0.0
C472 C 0.09434 0.6445 0.40411 0.0
O473 O 0.15032 0.68868 0.38936 0.0
O474 O 0.14572 0.65882 0.35929 0.0
C475 C 0.17451 0.63597 0.36677 0.0
N476 N 0.15198 0.62156 0.3755 0.0
C477 C 0.15711 0.58814 0.37463 0.0
C478 C 0.18037 0.60255 0.36545 0.0
C479 C 0.18917 0.62662 0.36183 0.0
C480 C 0.14364 0.59861 0.38041 0.0
H481 H 0.18117 0.6544 0.36353 0.0
C482 C 0.15214 0.68029 0.36329 0.0
O483 O 0.15114 0.70214 0.45356 0.0
O484 O 0.17671 0.69071 0.44476 0.0
N485 N 0.10945 0.59744 0.3963 0.0
C486 C 0.08629 0.58582 0.40351 0.0
C487 C 0.07412 0.5614 0.40489 0.0
C488 C 0.08576 0.5491 0.39829 0.0
C489 C 0.1097 0.56135 0.39168 0.0
C490 C 0.12086 0.58569 0.39031 0.0
H491 H 0.07697 0.59503 0.40752 0.0
O492 O 0.13623 0.65107 0.46917 0.0
O493 O 0.14081 0.64255 0.42129 0.0
O494 O 0.10806 0.65879 0.4246 0.0
O495 O 0.10057 0.63379 0.38491 0.0
C496 C 0.12276 0.55032 0.38543 0.0
C497 C 0.14658 0.56375 0.37754 0.0
H498 H 0.19157 0.59532 0.36093 0.0
H499 H 0.2071 0.63788 0.35477 0.0
H500 H 0.0557 0.55207 0.41036 0.0
H501 H 0.07622 0.53022 0.39892 0.0
H502 H 0.11465 0.53152 0.38664 0.0
H503 H 0.15648 0.55509 0.37297 0.0
Mn504 Mn 0.47165 0.14073 0.93363 0.0
Mn505 Mn 0.49504 0.12077 0.88072 0.0
C506 C 0.5004 0.13196 0.95005 0.0
C507 C 0.47376 0.17434 0.956 0.0
C508 C 0.44666 0.09096 0.9091 0.0
O509 O 0.46091 0.14699 0.89158 0.0
O510 O 0.48308 0.13911 0.85964 0.0
C511 C 0.53525 0.16604 0.86176 0.0
N512 N 0.52659 0.14383 0.87235 0.0
C513 C 0.56423 0.14691 0.86917 0.0
C514 C 0.57363 0.16985 0.85822 0.0
C515 C 0.55911 0.17952 0.85477 0.0
C516 C 0.54053 0.13467 0.8769 0.0
H517 H 0.52397 0.17329 0.85852 0.0
C518 C 0.46879 0.14634 0.86459 0.0
O519 O 0.4545 0.15436 0.957 0.0
O520 O 0.49111 0.17459 0.94181 0.0
N521 N 0.50731 0.10204 0.89606 0.0
C522 C 0.4951 0.07914 0.90466 0.0
C523 C 0.5065 0.06616 0.9065 0.0
C524 C 0.53018 0.07662 0.89867 0.0
C525 C 0.54246 0.10019 0.8899 0.0
C526 C 0.53016 0.11225 0.88843 0.0
H527 H 0.47665 0.07062 0.90937 0.0
O528 O 0.4867 0.13406 0.96981 0.0
O529 O 0.49708 0.13563 0.92107 0.0
O530 O 0.44751 0.10567 0.92935 0.0
O531 O 0.46275 0.09584 0.88892 0.0
C532 C 0.56627 0.11201 0.88176 0.0
C533 C 0.57726 0.1355 0.87199 0.0
H534 H 0.59192 0.18012 0.85215 0.0
H535 H 0.56621 0.19719 0.84628 0.0
H536 H 0.49691 0.04797 0.91324 0.0
H537 H 0.53884 0.06643 0.89965 0.0
H538 H 0.5763 0.1032 0.88297 0.0
H539 H 0.5956 0.14444 0.86597 0.0
Mn540 Mn 0.34492 0.47739 0.43755 0.0
Mn541 Mn 0.39173 0.50649 0.39003 0.0
C542 C 0.38074 0.50429 0.45854 0.0
C543 C 0.3123 0.47583 0.46169 0.0
C544 C 0.37532 0.45741 0.41314 0.0
O545 O 0.32982 0.47075 0.39419 0.0
O546 O 0.3625 0.49053 0.36561 0.0
C547 C 0.37965 0.54187 0.36973 0.0
N548 N 0.39512 0.5365 0.38285 0.0
C549 C 0.42362 0.57706 0.3892 0.0
C550 C 0.40804 0.58304 0.37567 0.0
C551 C 0.3859 0.56535 0.36606 0.0
C552 C 0.41621 0.55336 0.39295 0.0
H553 H 0.36268 0.52832 0.36212 0.0
C554 C 0.34044 0.47759 0.36808 0.0
O555 O 0.3136 0.45702 0.45814 0.0
O556 O 0.32917 0.49484 0.4501 0.0
N557 N 0.42185 0.52297 0.40905 0.0
C558 C 0.43581 0.51431 0.41794 0.0
C559 C 0.45884 0.5297 0.42731 0.0
C560 C 0.46756 0.55386 0.42634 0.0
C561 C 0.45336 0.5624 0.41518 0.0
C562 C 0.4305 0.54621 0.40639 0.0
H563 H 0.42937 0.49577 0.41806 0.0
O564 O 0.36448 0.48881 0.47622 0.0
O565 O 0.37539 0.50423 0.42919 0.0
O566 O 0.35748 0.45475 0.42865 0.0
O567 O 0.38907 0.47604 0.39807 0.0
C568 C 0.46129 0.58633 0.41131 0.0
C569 C 0.44636 0.59367 0.39862 0.0
H570 H 0.41291 0.60114 0.37243 0.0
H571 H 0.37376 0.56982 0.35562 0.0
H572 H 0.46986 0.52296 0.43511 0.0
H573 H 0.48536 0.56568 0.43347 0.0
H574 H 0.47888 0.59925 0.41796 0.0
H575 H 0.45263 0.61213 0.39588 0.0
Mn576 Mn 0.86318 0.33533 0.92927 0.0
Mn577 Mn 0.88464 0.38296 0.88284 0.0
C578 C 0.87062 0.37105 0.9496 0.0
C579 C 0.82975 0.30229 0.94906 0.0
C580 C 0.91494 0.36517 0.91093 0.0
O581 O 0.85791 0.32111 0.8853 0.0
O582 O 0.87258 0.35434 0.85739 0.0
C583 C 0.83909 0.37231 0.85632 0.0
N584 N 0.859 0.38716 0.87193 0.0
C585 C 0.84654 0.41538 0.87788 0.0
C586 C 0.82595 0.40046 0.86171 0.0
C587 C 0.82219 0.3788 0.85096 0.0
C588 C 0.86264 0.40787 0.88276 0.0
H589 H 0.83608 0.35561 0.8481 0.0
C590 C 0.86324 0.33222 0.8594 0.0
O591 O 0.84995 0.30347 0.9496 0.0
O592 O 0.82922 0.31977 0.93652 0.0
N593 N 0.89712 0.41237 0.90356 0.0
C594 C 0.9186 0.42535 0.91669 0.0
C595 C 0.92577 0.4481 0.92687 0.0
C596 C 0.91077 0.45723 0.92357 0.0
C597 C 0.88893 0.4437 0.90952 0.0
C598 C 0.88302 0.42141 0.89897 0.0
H599 H 0.9303 0.41852 0.91892 0.0
O600 O 0.86854 0.35457 0.96804 0.0
O601 O 0.86759 0.36588 0.92 0.0
O602 O 0.89867 0.34752 0.92548 0.0
O603 O 0.91147 0.3794 0.89458 0.0
C604 C 0.87302 0.45166 0.90488 0.0
C605 C 0.85175 0.43743 0.8893 0.0
H606 H 0.81292 0.40544 0.85744 0.0
H607 H 0.80631 0.36714 0.83855 0.0
H608 H 0.94287 0.45862 0.9371 0.0
H609 H 0.91635 0.47479 0.93143 0.0
H610 H 0.87703 0.46875 0.91307 0.0
H611 H 0.83963 0.44372 0.88589 0.0
Mn612 Mn 0.54754 0.86956 0.43123 0.0
Mn613 Mn 0.51936 0.89115 0.38842 0.0
C614 C 0.51937 0.87593 0.45467 0.0
C615 C 0.55304 0.83935 0.45032 0.0
C616 C 0.56708 0.92174 0.41588 0.0
O617 O 0.5548 0.8642 0.38626 0.0
O618 O 0.53746 0.88148 0.36189 0.0
C619 C 0.48682 0.84556 0.35959 0.0
N620 N 0.49047 0.86471 0.37608 0.0
C621 C 0.44929 0.85068 0.3788 0.0
C622 C 0.44511 0.83083 0.36183 0.0
C623 C 0.46396 0.8282 0.35236 0.0
C624 C 0.47241 0.86701 0.38627 0.0
H625 H 0.50124 0.84353 0.35198 0.0
C626 C 0.54967 0.8715 0.36155 0.0
O627 O 0.57002 0.86064 0.44792 0.0
O628 O 0.53263 0.83534 0.44119 0.0
N629 N 0.50065 0.90181 0.40875 0.0
C630 C 0.50783 0.92393 0.41884 0.0
C631 C 0.49127 0.93029 0.42723 0.0
C632 C 0.46744 0.9142 0.42379 0.0
C633 C 0.46047 0.89225 0.41079 0.0
C634 C 0.47781 0.88687 0.40303 0.0
H635 H 0.52611 0.9367 0.42042 0.0
O636 O 0.53494 0.87454 0.47143 0.0
O637 O 0.52011 0.87296 0.42462 0.0
O638 O 0.56954 0.90503 0.42635 0.0
O639 O 0.54867 0.91887 0.4021 0.0
C640 C 0.43711 0.87612 0.40345 0.0
C641 C 0.43149 0.85519 0.38784 0.0
H642 H 0.42751 0.81763 0.35567 0.0
H643 H 0.46088 0.81294 0.33922 0.0
H644 H 0.49688 0.94761 0.43607 0.0
H645 H 0.4547 0.91919 0.43008 0.0
H646 H 0.42335 0.87976 0.40937 0.0
H647 H 0.41346 0.84294 0.38225 0.0
Mn648 Mn 0.47285 0.34227 0.07593 0.0
Mn649 Mn 0.49523 0.38563 0.12906 0.0
C650 C 0.50265 0.37971 0.06066 0.0
C651 C 0.47472 0.31074 0.05319 0.0
C652 C 0.44824 0.36856 0.09743 0.0
O653 O 0.46163 0.32471 0.1176 0.0
O654 O 0.4805 0.35509 0.15035 0.0
C655 C 0.53251 0.37766 0.15328 0.0
N656 N 0.52573 0.39221 0.14068 0.0
C657 C 0.56441 0.42514 0.14525 0.0
C658 C 0.57187 0.41055 0.15831 0.0
C659 C 0.55588 0.38666 0.1621 0.0
C660 C 0.5411 0.41501 0.1359 0.0
H661 H 0.52014 0.35937 0.15668 0.0
C662 C 0.46758 0.33335 0.14499 0.0
O663 O 0.4557 0.31187 0.05178 0.0
O664 O 0.49201 0.32749 0.06796 0.0
N665 N 0.51002 0.41675 0.11331 0.0
C666 C 0.49957 0.42862 0.10238 0.0
C667 C 0.51263 0.45296 0.09946 0.0
C668 C 0.53611 0.46491 0.10857 0.0
C669 C 0.54651 0.45238 0.1199 0.0
C670 C 0.53262 0.42814 0.1223 0.0
H671 H 0.48129 0.41969 0.09652 0.0
O672 O 0.4888 0.36442 0.04047 0.0
O673 O 0.49851 0.37244 0.08955 0.0
O674 O 0.44878 0.35349 0.07914 0.0
O675 O 0.46419 0.38029 0.1175 0.0
C676 C 0.56996 0.46305 0.12962 0.0
C677 C 0.57902 0.44939 0.14175 0.0
H678 H 0.58978 0.41752 0.16571 0.0
H679 H 0.56149 0.37529 0.1722 0.0
H680 H 0.50448 0.46252 0.0908 0.0
H681 H 0.54605 0.48373 0.1067 0.0
H682 H 0.58119 0.48177 0.1278 0.0
H683 H 0.5971 0.45778 0.14895 0.0
Mn684 Mn 0.14706 0.47916 0.58198 0.0
Mn685 Mn 0.12825 0.50684 0.6296 0.0
C686 C 0.14253 0.50965 0.56261 0.0
C687 C 0.18001 0.4776 0.56472 0.0
C688 C 0.09615 0.45878 0.60116 0.0
O689 O 0.14986 0.46809 0.62582 0.0
O690 O 0.14264 0.49221 0.65474 0.0
C691 C 0.17463 0.54381 0.65122 0.0
N692 N 0.1536 0.53746 0.63794 0.0
C693 C 0.16393 0.57755 0.63117 0.0
C694 C 0.18554 0.58451 0.64528 0.0
C695 C 0.19096 0.56755 0.65518 0.0
C696 C 0.14846 0.55363 0.62759 0.0
H697 H 0.17899 0.53085 0.65842 0.0
C698 C 0.14899 0.47696 0.65197 0.0
O699 O 0.15922 0.45956 0.5619 0.0
O700 O 0.18129 0.49595 0.57728 0.0
N701 N 0.11405 0.52221 0.60893 0.0
C702 C 0.09222 0.51258 0.59651 0.0
C703 C 0.0836 0.52711 0.58697 0.0
C704 C 0.0975 0.55138 0.59022 0.0
C705 C 0.11995 0.56093 0.60282 0.0
C706 C 0.12732 0.54554 0.61281 0.0
H707 H 0.08125 0.49393 0.5945 0.0
O708 O 0.14432 0.49538 0.54355 0.0
O709 O 0.14425 0.50602 0.59203 0.0
O710 O 0.11133 0.45768 0.58365 0.0
O711 O 0.1012 0.47558 0.62036 0.0
C712 C 0.13508 0.58507 0.60649 0.0
C713 C 0.15717 0.59339 0.62035 0.0
H714 H 0.19815 0.60281 0.64844 0.0
H715 H 0.20769 0.57277 0.6658 0.0
H716 H 0.0662 0.51961 0.57738 0.0
H717 H 0.09068 0.56253 0.58328 0.0
H718 H 0.12992 0.5974 0.5987 0.0
H719 H 0.16875 0.612 0.62281 0.0
Mn720 Mn 0.66533 0.13821 0.08088 0.0
Mn721 Mn 0.61796 0.11843 0.1274 0.0
C722 C 0.63057 0.1339 0.06152 0.0
C723 C 0.69883 0.17063 0.06014 0.0
C724 C 0.63227 0.08625 0.09649 0.0
O725 O 0.67963 0.14185 0.12452 0.0
O726 O 0.64632 0.12728 0.15226 0.0
C727 C 0.63248 0.16389 0.15768 0.0
N728 N 0.61653 0.14521 0.14087 0.0
C729 C 0.59128 0.16146 0.13698 0.0
C730 C 0.60738 0.18081 0.15438 0.0
C731 C 0.62809 0.18205 0.16472 0.0
C732 C 0.59669 0.14399 0.13049 0.0
H733 H 0.64847 0.16497 0.16557 0.0
C734 C 0.66834 0.13566 0.15029 0.0
O735 O 0.69662 0.14998 0.05935 0.0
O736 O 0.68254 0.17231 0.07439 0.0
N737 N 0.58892 0.1091 0.10706 0.0
C738 C 0.57452 0.08848 0.09258 0.0
C739 C 0.55245 0.08381 0.08245 0.0
C740 C 0.54545 0.10041 0.0872 0.0
C741 C 0.56037 0.12129 0.10271 0.0
C742 C 0.58188 0.12467 0.11308 0.0
H743 H 0.57973 0.07559 0.08911 0.0
O744 O 0.64628 0.13477 0.04263 0.0
O745 O 0.63581 0.13598 0.09107 0.0
O746 O 0.65097 0.10222 0.08339 0.0
O747 O 0.61866 0.09053 0.11295 0.0
C748 C 0.55453 0.13863 0.10892 0.0
C749 C 0.57006 0.15879 0.12585 0.0
H750 H 0.60402 0.19482 0.15993 0.0
H751 H 0.64064 0.19696 0.17808 0.0
H752 H 0.54081 0.06742 0.07112 0.0
H753 H 0.52843 0.09678 0.07928 0.0
H754 H 0.5381 0.13658 0.10093 0.0
H755 H 0.5654 0.17202 0.13047 0.0
Mn756 Mn 0.54339 0.67086 0.58015 0.0
Mn757 Mn 0.50775 0.62763 0.62953 0.0
C758 C 0.51399 0.63618 0.55962 0.0
C759 C 0.55184 0.70574 0.55478 0.0
C760 C 0.55684 0.63822 0.61336 0.0
O761 O 0.55071 0.68677 0.623 0.0
O762 O 0.52299 0.65781 0.65207 0.0
C763 C 0.47306 0.6428 0.63836 0.0
N764 N 0.47819 0.62608 0.62978 0.0
C765 C 0.43785 0.5986 0.61964 0.0
C766 C 0.43209 0.61548 0.62848 0.0
C767 C 0.44979 0.63773 0.63768 0.0
C768 C 0.46139 0.60485 0.62003 0.0
H769 H 0.48662 0.65986 0.64568 0.0
C770 C 0.53972 0.6787 0.64864 0.0
O771 O 0.56794 0.70043 0.56013 0.0
O772 O 0.53104 0.69099 0.56449 0.0
N773 N 0.49149 0.59688 0.61229 0.0
C774 C 0.49966 0.58185 0.60781 0.0
C775 C 0.48411 0.55866 0.59926 0.0
C776 C 0.46022 0.55092 0.59645 0.0
C777 C 0.45204 0.56632 0.60296 0.0
C778 C 0.46838 0.58928 0.61119 0.0
H779 H 0.51793 0.58754 0.6106 0.0
O780 O 0.53094 0.65085 0.54198 0.0
O781 O 0.51412 0.64276 0.5884 0.0
O782 O 0.56148 0.65406 0.59273 0.0
O783 O 0.53785 0.62817 0.62918 0.0
C784 C 0.42823 0.55957 0.60268 0.0
C785 C 0.42115 0.57572 0.6109 0.0
H786 H 0.41412 0.61153 0.62838 0.0
H787 H 0.44549 0.65087 0.6445 0.0
H788 H 0.49051 0.54674 0.59499 0.0
H789 H 0.44827 0.533 0.58995 0.0
H790 H 0.4152 0.54195 0.59633 0.0
H791 H 0.40279 0.57033 0.61055 0.0
Mn792 Mn 0.87894 0.53631 0.0802 0.0
Mn793 Mn 0.89877 0.51219 0.13199 0.0
C794 C 0.88798 0.50784 0.06291 0.0
C795 C 0.8459 0.53425 0.05631 0.0
C796 C 0.92846 0.5613 0.10545 0.0
O797 O 0.8712 0.54545 0.1226 0.0
O798 O 0.87977 0.52331 0.1536 0.0
C799 C 0.85361 0.4713 0.1499 0.0
N800 N 0.87593 0.4804 0.13956 0.0
C801 C 0.87331 0.44291 0.14154 0.0
C802 C 0.85035 0.43312 0.15257 0.0
C803 C 0.84038 0.44735 0.15644 0.0
C804 C 0.88535 0.46674 0.1345 0.0
H805 H 0.84602 0.48226 0.1531 0.0
C806 C 0.87133 0.5367 0.14918 0.0
O807 O 0.86567 0.55374 0.05679 0.0
O808 O 0.84542 0.51673 0.07034 0.0
N809 N 0.91758 0.50034 0.11543 0.0
C810 C 0.94 0.51258 0.10491 0.0
C811 C 0.95279 0.50113 0.1007 0.0
C812 C 0.94264 0.47737 0.10811 0.0
C813 C 0.9196 0.46514 0.11908 0.0
C814 C 0.90763 0.47742 0.1225 0.0
H815 H 0.94823 0.53102 0.10025 0.0
O816 O 0.88675 0.52237 0.04372 0.0
O817 O 0.88388 0.51062 0.0919 0.0
O818 O 0.91361 0.56072 0.08578 0.0
O819 O 0.92378 0.54477 0.12482 0.0
C820 C 0.90811 0.44128 0.12704 0.0
C821 C 0.88484 0.43008 0.1377 0.0
H822 H 0.84025 0.41473 0.15816 0.0
H823 H 0.82265 0.43993 0.16479 0.0
H824 H 0.97058 0.5107 0.09232 0.0
H825 H 0.95266 0.46866 0.10517 0.0
H826 H 0.91692 0.43131 0.12462 0.0
H827 H 0.87608 0.41166 0.14325 0.0
Mn828 Mn 0.3484 0.87256 0.56326 0.0
Mn829 Mn 0.39638 0.89046 0.60861 0.0
C830 C 0.38296 0.87797 0.54068 0.0
C831 C 0.31228 0.84258 0.54462 0.0
C832 C 0.37948 0.92295 0.58511 0.0
O833 O 0.33558 0.8678 0.60837 0.0
O834 O 0.36787 0.87458 0.63436 0.0
C835 C 0.38821 0.84364 0.62567 0.0
N836 N 0.40242 0.86532 0.61375 0.0
C837 C 0.43376 0.85728 0.60717 0.0
C838 C 0.41958 0.83498 0.61977 0.0
C839 C 0.39662 0.82805 0.62877 0.0
C840 C 0.42417 0.87179 0.60375 0.0
H841 H 0.37058 0.8383 0.63266 0.0
C842 C 0.34616 0.86787 0.63344 0.0
O843 O 0.31718 0.86412 0.54616 0.0
O844 O 0.32841 0.83827 0.55401 0.0
N845 N 0.42611 0.90644 0.58828 0.0
C846 C 0.43841 0.9294 0.57999 0.0
C847 C 0.46191 0.93936 0.57122 0.0
C848 C 0.47284 0.92587 0.5721 0.0
C849 C 0.46027 0.90269 0.58238 0.0
C850 C 0.43686 0.8937 0.59077 0.0
H851 H 0.4304 0.94013 0.58007 0.0
O852 O 0.36635 0.87678 0.52328 0.0
O853 O 0.3786 0.87514 0.57052 0.0
O854 O 0.36308 0.90808 0.56771 0.0
O855 O 0.39165 0.91764 0.60306 0.0
C856 C 0.47035 0.88847 0.58579 0.0
C857 C 0.4571 0.8658 0.59823 0.0
H858 H 0.42614 0.82303 0.62263 0.0
H859 H 0.38551 0.8108 0.63833 0.0
H860 H 0.47162 0.95743 0.56403 0.0
H861 H 0.49099 0.93363 0.56543 0.0
H862 H 0.48835 0.8949 0.57928 0.0
H863 H 0.46506 0.85505 0.60085 0.0
H864 H 0.34707 0.45482 0.19195 0.0
H865 H 0.3008 0.48186 0.17406 0.0
H866 H 0.28961 0.47677 0.23033 0.0
H867 H 0.31229 0.41334 0.25885 0.0
H868 H 0.33902 0.42036 0.2787 0.0
H869 H 0.33796 0.41999 0.23646 0.0
H870 H 0.37281 0.4623 0.23528 0.0
H871 H 0.37384 0.46292 0.27725 0.0
H872 H 0.37068 0.4848 0.25625 0.0
H873 H 0.29086 0.47714 0.29023 0.0
H874 H 0.30421 0.48265 0.34565 0.0
H875 H 0.34969 0.45544 0.32299 0.0
C876 C 0.33369 0.45855 0.1997 0.0
C877 C 0.32443 0.46831 0.17888 0.0
C878 C 0.30758 0.47378 0.18969 0.0
C879 C 0.30124 0.47101 0.22161 0.0
C880 C 0.31168 0.46242 0.24206 0.0
C881 C 0.32727 0.45585 0.23123 0.0
C882 C 0.33884 0.45045 0.25785 0.0
C883 C 0.33158 0.42449 0.25797 0.0
C884 C 0.3656 0.46606 0.25657 0.0
C885 C 0.32856 0.45641 0.28548 0.0
C886 C 0.31248 0.46274 0.27622 0.0
C887 C 0.30288 0.47154 0.29777 0.0
C888 C 0.31045 0.47456 0.32919 0.0
C889 C 0.32765 0.46909 0.33838 0.0
C890 C 0.33613 0.45924 0.31649 0.0
H891 H 0.90065 0.34659 0.68668 0.0
H892 H 0.82775 0.30583 0.66211 0.0
H893 H 0.81842 0.29097 0.71675 0.0
H894 H 0.90113 0.30539 0.74951 0.0
H895 H 0.92118 0.33006 0.77276 0.0
H896 H 0.92244 0.3319 0.73057 0.0
H897 H 0.91815 0.36866 0.73315 0.0
H898 H 0.91675 0.36688 0.77505 0.0
H899 H 0.89351 0.36711 0.7534 0.0
H900 H 0.8165 0.28846 0.77638 0.0
H901 H 0.82227 0.29866 0.83295 0.0
H902 H 0.89651 0.34065 0.8175 0.0
C903 C 0.88289 0.3336 0.69254 0.0
C904 C 0.86495 0.32694 0.67035 0.0
C905 C 0.84176 0.3106 0.67875 0.0
C906 C 0.83637 0.30217 0.70974 0.0
C907 C 0.85444 0.31001 0.73168 0.0
C908 C 0.87736 0.32508 0.72313 0.0
C909 C 0.89325 0.33383 0.75134 0.0
C910 C 0.91052 0.32474 0.75102 0.0
C911 C 0.90613 0.36068 0.75334 0.0
C912 C 0.8756 0.32266 0.77737 0.0
C913 C 0.85334 0.30848 0.7658 0.0
C914 C 0.83393 0.29887 0.78568 0.0
C915 C 0.83731 0.3046 0.8178 0.0
C916 C 0.85988 0.31996 0.82942 0.0
C917 C 0.87919 0.32828 0.80916 0.0
H918 H 0.56406 0.90205 0.31386 0.0
H919 H 0.54967 0.83263 0.3379 0.0
H920 H 0.55183 0.82446 0.28149 0.0
H921 H 0.5278 0.88644 0.25289 0.0
H922 H 0.54533 0.91168 0.2289 0.0
H923 H 0.54851 0.91374 0.2707 0.0
H924 H 0.59269 0.9284 0.26534 0.0
H925 H 0.58971 0.92663 0.22328 0.0
H926 H 0.60224 0.91151 0.24323 0.0
H927 H 0.5483 0.82204 0.221 0.0
H928 H 0.53953 0.82572 0.16523 0.0
H929 H 0.55532 0.89644 0.18298 0.0
C930 C 0.56231 0.88544 0.30736 0.0
C931 C 0.55696 0.86805 0.33015 0.0
C932 C 0.55428 0.84635 0.32082 0.0
C933 C 0.55536 0.84157 0.28879 0.0
C934 C 0.55948 0.85882 0.26664 0.0
C935 C 0.56326 0.88048 0.27581 0.0
C936 C 0.56429 0.89514 0.24806 0.0
C937 C 0.54535 0.90213 0.25028 0.0
C938 C 0.58869 0.91669 0.24479 0.0
C939 C 0.55938 0.87807 0.22176 0.0
C940 C 0.55713 0.85734 0.23254 0.0
C941 C 0.55057 0.8384 0.21233 0.0
C942 C 0.54569 0.84061 0.1807 0.0
C943 C 0.54702 0.86144 0.16996 0.0
C944 C 0.55452 0.88045 0.19062 0.0
H945 H 0.68081 0.50023 0.81604 0.0
H946 H 0.70951 0.57312 0.83877 0.0
H947 H 0.72194 0.58359 0.78345 0.0
H948 H 0.72441 0.50864 0.75049 0.0
H949 H 0.70138 0.48507 0.72871 0.0
H950 H 0.70117 0.48429 0.77097 0.0
H951 H 0.65966 0.47895 0.77109 0.0
H952 H 0.65977 0.47983 0.72915 0.0
H953 H 0.65463 0.50005 0.75117 0.0
H954 H 0.72175 0.58474 0.72394 0.0
H955 H 0.7092 0.5764 0.66845 0.0
H956 H 0.68177 0.50281 0.68539 0.0
C957 C 0.69072 0.51845 0.80964 0.0
C958 C 0.6945 0.53589 0.83155 0.0
C959 C 0.70697 0.55956 0.82236 0.0
C960 C 0.71401 0.56562 0.79096 0.0
C961 C 0.70888 0.54779 0.76938 0.0
C962 C 0.69795 0.52467 0.77864 0.0
C963 C 0.69119 0.50843 0.75083 0.0
C964 C 0.70539 0.49587 0.75022 0.0
C965 C 0.66477 0.49082 0.75056 0.0
C966 C 0.69825 0.52579 0.7243 0.0
C967 C 0.70903 0.5485 0.73521 0.0
C968 C 0.71405 0.56711 0.71508 0.0
C969 C 0.70698 0.56227 0.68352 0.0
C970 C 0.69473 0.53898 0.67267 0.0
C971 C 0.69146 0.5208 0.69301 0.0
H972 H 0.1829 0.68087 0.32179 0.0
H973 H 0.13897 0.7106 0.33984 0.0
H974 H 0.14361 0.72376 0.28455 0.0
H975 H 0.22085 0.72365 0.25665 0.0
H976 H 0.22095 0.69994 0.23606 0.0
H977 H 0.22057 0.70015 0.27833 0.0
H978 H 0.18358 0.65922 0.27804 0.0
H979 H 0.18367 0.65895 0.2361 0.0
H980 H 0.15818 0.65489 0.25682 0.0
H981 H 0.14451 0.72399 0.22507 0.0
H982 H 0.14142 0.71111 0.16981 0.0
H983 H 0.18434 0.68078 0.19129 0.0
C984 C 0.17533 0.69128 0.31446 0.0
C985 C 0.16089 0.69505 0.33501 0.0
C986 C 0.15059 0.70809 0.32459 0.0
C987 C 0.15308 0.71551 0.29314 0.0
C988 C 0.16623 0.71007 0.27275 0.0
C989 C 0.17759 0.69861 0.28333 0.0
C990 C 0.18722 0.69107 0.25648 0.0
C991 C 0.21399 0.70452 0.25691 0.0
C992 C 0.17756 0.66449 0.2569 0.0
C993 C 0.17799 0.69837 0.22896 0.0
C994 C 0.16656 0.70999 0.23856 0.0
C995 C 0.15406 0.71561 0.21728 0.0
C996 C 0.15247 0.70836 0.18587 0.0
C997 C 0.16296 0.69529 0.17635 0.0
C998 C 0.17662 0.69119 0.19789 0.0
H999 H 0.44147 0.11344 0.82455 0.0
H1000 H 0.47658 0.18784 0.8395 0.0
H1001 H 0.47143 0.19375 0.7833 0.0
H1002 H 0.4714 0.11613 0.76346 0.0
H1003 H 0.44909 0.09198 0.74161 0.0
H1004 H 0.4468 0.09269 0.78333 0.0
H1005 H 0.40624 0.08921 0.77835 0.0
H1006 H 0.40816 0.08805 0.73628 0.0
H1007 H 0.40274 0.10955 0.75413 0.0
H1008 H 0.47137 0.19196 0.7244 0.0
H1009 H 0.47848 0.18319 0.67037 0.0
H1010 H 0.44688 0.11017 0.69427 0.0
C1011 C 0.44665 0.13082 0.81622 0.0
C1012 C 0.45866 0.15015 0.8362 0.0
C1013 C 0.46653 0.17283 0.82462 0.0
C1014 C 0.46376 0.17627 0.79269 0.0
C1015 C 0.4532 0.15682 0.77292 0.0
C1016 C 0.44455 0.13444 0.78447 0.0
C1017 C 0.4388 0.11692 0.75836 0.0
C1018 C 0.45235 0.1037 0.76192 0.0
C1019 C 0.41241 0.09994 0.75668 0.0
C1020 C 0.4471 0.13304 0.73037 0.0
C1021 C 0.45443 0.15585 0.73893 0.0
C1022 C 0.46508 0.1741 0.71736 0.0
C1023 C 0.46902 0.169 0.68673 0.0
C1024 C 0.46286 0.14598 0.67838 0.0
C1025 C 0.45119 0.12779 0.70013 0.0
H1026 H 0.57037 0.67721 0.68778 0.0
H1027 H 0.52632 0.70749 0.67596 0.0
H1028 H 0.5329 0.72018 0.73153 0.0
H1029 H 0.54696 0.65087 0.75436 0.0
H1030 H 0.57291 0.6541 0.77274 0.0
H1031 H 0.5712 0.6545 0.73087 0.0
H1032 H 0.60896 0.69482 0.72928 0.0
H1033 H 0.61083 0.69452 0.77143 0.0
H1034 H 0.61079 0.71864 0.75194 0.0
H1035 H 0.53658 0.72102 0.79009 0.0
H1036 H 0.53489 0.7079 0.84489 0.0
H1037 H 0.57551 0.67593 0.8189 0.0
C1038 C 0.56333 0.68777 0.69657 0.0
C1039 C 0.54865 0.69228 0.6776 0.0
C1040 C 0.53835 0.70475 0.69002 0.0
C1041 C 0.54199 0.71193 0.72155 0.0
C1042 C 0.55586 0.70637 0.74024 0.0
C1043 C 0.56652 0.69466 0.72802 0.0
C1044 C 0.57669 0.68665 0.75367 0.0
C1045 C 0.5663 0.65997 0.75285 0.0
C1046 C 0.60341 0.69943 0.75144 0.0
C1047 C 0.56885 0.6943 0.78239 0.0
C1048 C 0.55752 0.70633 0.77428 0.0
C1049 C 0.54609 0.71236 0.79676 0.0
C1050 C 0.54535 0.70502 0.82791 0.0
C1051 C 0.55578 0.69166 0.83607 0.0
C1052 C 0.56834 0.68704 0.81331 0.0
H1053 H 0.84044 0.50797 0.32293 0.0
H1054 H 0.87755 0.58215 0.34119 0.0
H1055 H 0.87442 0.5897 0.28495 0.0
H1056 H 0.86882 0.50937 0.25947 0.0
H1057 H 0.84486 0.48643 0.23809 0.0
H1058 H 0.84386 0.48691 0.28001 0.0
H1059 H 0.80469 0.48674 0.27772 0.0
H1060 H 0.80548 0.4861 0.23549 0.0
H1061 H 0.80261 0.50862 0.25513 0.0
H1062 H 0.87575 0.58892 0.22532 0.0
H1063 H 0.88125 0.57983 0.17062 0.0
H1064 H 0.84285 0.50623 0.19241 0.0
C1065 C 0.84693 0.52576 0.31533 0.0
C1066 C 0.85903 0.54446 0.33631 0.0
C1067 C 0.8678 0.56756 0.32553 0.0
C1068 C 0.86613 0.57197 0.29359 0.0
C1069 C 0.8552 0.55305 0.27303 0.0
C1070 C 0.84532 0.53034 0.28378 0.0
C1071 C 0.8377 0.5131 0.25705 0.0
C1072 C 0.84954 0.49812 0.25877 0.0
C1073 C 0.81103 0.49774 0.2563 0.0
C1074 C 0.84641 0.52964 0.2295 0.0
C1075 C 0.85589 0.55261 0.23888 0.0
C1076 C 0.86771 0.57097 0.21765 0.0
C1077 C 0.87067 0.5657 0.18657 0.0
C1078 C 0.86217 0.54231 0.17736 0.0
C1079 C 0.84908 0.5242 0.19876 0.0
H1080 H 0.35344 0.84422 0.67922 0.0
H1081 H 0.31255 0.8768 0.65725 0.0
H1082 H 0.3005 0.87315 0.71311 0.0
H1083 H 0.31536 0.80483 0.74457 0.0
H1084 H 0.34082 0.80959 0.76598 0.0
H1085 H 0.34102 0.80951 0.72372 0.0
H1086 H 0.37802 0.85046 0.7239 0.0
H1087 H 0.37785 0.85076 0.76592 0.0
H1088 H 0.37746 0.87398 0.74439 0.0
H1089 H 0.29971 0.87283 0.77361 0.0
H1090 H 0.31069 0.87638 0.82987 0.0
H1091 H 0.35257 0.8445 0.8103 0.0
C1092 C 0.34117 0.84974 0.68585 0.0
C1093 C 0.33376 0.8606 0.66389 0.0
C1094 C 0.31808 0.86802 0.6736 0.0
C1095 C 0.31124 0.86607 0.70533 0.0
C1096 C 0.31993 0.8563 0.72679 0.0
C1097 C 0.33431 0.84792 0.71712 0.0
C1098 C 0.34402 0.84108 0.74458 0.0
C1099 C 0.33474 0.81468 0.74472 0.0
C1100 C 0.37091 0.85491 0.74469 0.0
C1101 C 0.33402 0.84811 0.77146 0.0
C1102 C 0.31968 0.85633 0.76104 0.0
C1103 C 0.31044 0.86589 0.78194 0.0
C1104 C 0.31664 0.86774 0.8139 0.0
C1105 C 0.33227 0.86047 0.82439 0.0
C1106 C 0.34031 0.84986 0.80299 0.0
H1107 H 0.44364 0.33383 0.31993 0.0
H1108 H 0.48312 0.29883 0.3339 0.0
H1109 H 0.47624 0.28581 0.2785 0.0
H1110 H 0.40218 0.29319 0.25497 0.0
H1111 H 0.40402 0.31817 0.23538 0.0
H1112 H 0.40501 0.31745 0.2776 0.0
H1113 H 0.44399 0.35667 0.27704 0.0
H1114 H 0.4433 0.35742 0.23515 0.0
H1115 H 0.46818 0.35902 0.25467 0.0
H1116 H 0.47449 0.28633 0.21949 0.0
H1117 H 0.47816 0.3004 0.16476 0.0
H1118 H 0.44018 0.33544 0.18936 0.0
C1119 C 0.44948 0.32214 0.3117 0.0
C1120 C 0.46323 0.31666 0.33115 0.0
C1121 C 0.4718 0.30242 0.31953 0.0
C1122 C 0.46806 0.2951 0.28803 0.0
C1123 C 0.45556 0.30204 0.26871 0.0
C1124 C 0.44601 0.31493 0.28041 0.0
C1125 C 0.43718 0.32401 0.25437 0.0
C1126 C 0.41051 0.31251 0.25566 0.0
C1127 C 0.44888 0.35084 0.25538 0.0
C1128 C 0.44482 0.31582 0.22604 0.0
C1129 C 0.45475 0.30254 0.23457 0.0
C1130 C 0.466 0.29595 0.21249 0.0
C1131 C 0.46791 0.30388 0.1814 0.0
C1132 C 0.45885 0.3184 0.17294 0.0
C1133 C 0.44646 0.32362 0.19522 0.0
H1134 H 0.1772 0.5049 0.69754 0.0
H1135 H 0.1327 0.43235 0.67335 0.0
H1136 H 0.13446 0.4212 0.72838 0.0
H1137 H 0.21196 0.49559 0.76271 0.0
H1138 H 0.2125 0.51896 0.78503 0.0
H1139 H 0.21328 0.52022 0.74278 0.0
H1140 H 0.17719 0.52572 0.74286 0.0
H1141 H 0.17628 0.52443 0.78478 0.0
H1142 H 0.15096 0.50449 0.76248 0.0
H1143 H 0.13282 0.41939 0.78775 0.0
H1144 H 0.12792 0.42722 0.84324 0.0
H1145 H 0.17445 0.50084 0.82796 0.0
C1146 C 0.16875 0.48661 0.70355 0.0
C1147 C 0.15504 0.46946 0.68133 0.0
C1148 C 0.14371 0.44568 0.69 0.0
C1149 C 0.14461 0.43925 0.72123 0.0
C1150 C 0.15735 0.4568 0.74314 0.0
C1151 C 0.16964 0.48003 0.73437 0.0
C1152 C 0.17904 0.49595 0.7625 0.0
C1153 C 0.20579 0.50841 0.7633 0.0
C1154 C 0.17032 0.51364 0.76318 0.0
C1155 C 0.16856 0.4783 0.78867 0.0
C1156 C 0.15665 0.45571 0.77729 0.0
C1157 C 0.14277 0.4369 0.79699 0.0
C1158 C 0.14018 0.44143 0.82856 0.0
C1159 C 0.1512 0.46459 0.83981 0.0
C1160 C 0.16638 0.48296 0.82 0.0
H1161 H 0.65544 0.10033 0.32532 0.0
H1162 H 0.71115 0.17013 0.34667 0.0
H1163 H 0.72163 0.17668 0.29028 0.0
H1164 H 0.68502 0.08879 0.25773 0.0
H1165 H 0.6577 0.0731 0.23711 0.0
H1166 H 0.65821 0.07256 0.27935 0.0
H1167 H 0.62872 0.08746 0.28134 0.0
H1168 H 0.62815 0.08806 0.23935 0.0
H1169 H 0.63557 0.11411 0.26131 0.0
H1170 H 0.72069 0.17773 0.23018 0.0
H1171 H 0.70819 0.17299 0.17442 0.0
H1172 H 0.65376 0.10236 0.1941 0.0
C1173 C 0.67032 0.11676 0.31829 0.0
C1174 C 0.68251 0.1347 0.34029 0.0
C1175 C 0.70175 0.15604 0.33019 0.0
C1176 C 0.7078 0.15989 0.2982 0.0
C1177 C 0.69473 0.14206 0.27684 0.0
C1178 C 0.6766 0.12076 0.28673 0.0
C1179 C 0.6634 0.10528 0.25942 0.0
C1180 C 0.66627 0.08366 0.25834 0.0
C1181 C 0.63746 0.09836 0.26042 0.0
C1182 C 0.67602 0.12157 0.2325 0.0
C1183 C 0.69437 0.14258 0.2427 0.0
C1184 C 0.70677 0.16112 0.22191 0.0
C1185 C 0.69969 0.1583 0.19027 0.0
C1186 C 0.68023 0.13723 0.18012 0.0
C1187 C 0.66895 0.1185 0.20129 0.0
H1188 H 0.18156 0.44195 0.97557 0.0
H1189 H 0.19943 0.5142 0.98652 0.0
H1190 H 0.23493 0.52254 0.015 0.0
H1191 H 0.20458 0.43626 0.0516 0.0
H1192 H 0.21631 0.41889 0.03627 0.0
H1193 H 0.19109 0.41759 0.01823 0.0
H1194 H 0.21232 0.42847 0.96469 0.0
H1195 H 0.2376 0.42982 0.98256 0.0
H1196 H 0.24034 0.45462 0.9614 0.0
H1197 H 0.26836 0.52406 0.04102 0.0
H1198 H 0.3001 0.5193 0.06194 0.0
H1199 H 0.26351 0.44649 0.03368 0.0
C1200 C 0.19288 0.4594 0.98432 0.0
C1201 C 0.18766 0.47743 0.97887 0.0
C1202 C 0.20306 0.50014 0.99025 0.0
C1203 C 0.22326 0.50507 0.00661 0.0
C1204 C 0.22812 0.48716 0.01131 0.0
C1205 C 0.21359 0.46481 1.00046 0.0
C1206 C 0.224 0.44934 0.00764 0.0
C1207 C 0.20804 0.42933 0.02975 0.0
C1208 C 0.22885 0.44001 0.97726 0.0
C1209 C 0.24661 0.46664 0.02396 0.0
C1210 C 0.24828 0.48823 0.02596 0.0
C1211 C 0.2673 0.50724 0.03966 0.0
C1212 C 0.2853 0.5043 0.05151 0.0
C1213 C 0.28446 0.48252 0.04953 0.0
C1214 C 0.2647 0.46335 0.03563 0.0
H1215 H 0.75231 0.18899 0.47809 0.0
H1216 H 0.70982 0.2189 0.44998 0.0
H1217 H 0.73974 0.25709 0.46975 0.0
H1218 H 0.77372 0.22111 0.54911 0.0
H1219 H 0.8028 0.22563 0.54566 0.0
H1220 H 0.77868 0.20046 0.52789 0.0
H1221 H 0.79947 0.2121 0.47406 0.0
H1222 H 0.82372 0.23727 0.4917 0.0
H1223 H 0.8089 0.24078 0.45854 0.0
H1224 H 0.77205 0.2911 0.49555 0.0
H1225 H 0.8068 0.32044 0.52353 0.0
H1226 H 0.83074 0.27061 0.53409 0.0
C1227 C 0.74948 0.20366 0.47575 0.0
C1228 C 0.7286 0.20083 0.46239 0.0
C1229 C 0.72556 0.22048 0.46001 0.0
C1230 C 0.7425 0.24233 0.47122 0.0
C1231 C 0.76262 0.24448 0.48462 0.0
C1232 C 0.76642 0.22585 0.48673 0.0
C1233 C 0.78963 0.23321 0.50281 0.0
C1234 C 0.78598 0.21927 0.53317 0.0
C1235 C 0.80642 0.23069 0.48044 0.0
C1236 C 0.79797 0.25874 0.50978 0.0
C1237 C 0.78194 0.26468 0.49905 0.0
C1238 C 0.78487 0.28676 0.50376 0.0
C1239 C 0.80467 0.30329 0.51985 0.0
C1240 C 0.82159 0.29792 0.53093 0.0
C1241 C 0.81826 0.27532 0.52558 0.0
H1242 H 0.51362 0.79164 0.02836 0.0
H1243 H 0.58751 0.83976 0.04117 0.0
H1244 H 0.59632 0.81031 0.01998 0.0
H1245 H 0.51412 0.73885 0.04822 0.0
H1246 H 0.49312 0.72142 0.01871 0.0
H1247 H 0.4925 0.74603 0.0356 0.0
H1248 H 0.49561 0.76333 0.98018 0.0
H1249 H 0.49622 0.73877 0.96313 0.0
H1250 H 0.51935 0.76797 0.95487 0.0
H1251 H 0.59715 0.7754 0.99829 0.0
H1252 H 0.59019 0.7384 0.9749 0.0
H1253 H 0.51583 0.71316 0.97363 0.0
C1254 C 0.53165 0.79594 0.02682 0.0
C1255 C 0.5499 0.81803 0.03661 0.0
C1256 C 0.57325 0.82302 0.03386 0.0
C1257 C 0.57842 0.80636 0.0219 0.0
C1258 C 0.56007 0.78479 0.01245 0.0
C1259 C 0.53715 0.77958 0.01452 0.0
C1260 C 0.52076 0.7553 1.00187 0.0
C1261 C 0.50414 0.73947 0.02764 0.0
C1262 C 0.50719 0.75642 0.97332 0.0
C1263 C 0.53803 0.74766 0.99246 0.0
C1264 C 0.5606 0.76489 0.99902 0.0
C1265 C 0.57956 0.76183 0.99294 0.0
C1266 C 0.57541 0.74069 0.97969 0.0
C1267 C 0.55249 0.72284 0.9723 0.0
C1268 C 0.53358 0.72647 0.97884 0.0
H1269 H 0.72195 0.51819 0.53196 0.0
H1270 H 0.74438 0.59189 0.53659 0.0
H1271 H 0.78204 0.60121 0.51238 0.0
H1272 H 0.777 0.52322 0.55002 0.0
H1273 H 0.7733 0.50054 0.52331 0.0
H1274 H 0.74817 0.4998 0.54071 0.0
H1275 H 0.73109 0.49797 0.48548 0.0
H1276 H 0.75615 0.49867 0.4679 0.0
H1277 H 0.74825 0.5201 0.45699 0.0
H1278 H 0.81796 0.60236 0.48889 0.0
H1279 H 0.8483 0.59524 0.46653 0.0
H1280 H 0.80173 0.5207 0.47602 0.0
C1281 C 0.73474 0.53632 0.52786 0.0
C1282 C 0.73019 0.55434 0.53627 0.0
C1283 C 0.74742 0.57779 0.53035 0.0
C1284 C 0.76889 0.58325 0.51663 0.0
C1285 C 0.77283 0.56505 0.50876 0.0
C1286 C 0.75615 0.54205 0.51401 0.0
C1287 C 0.76459 0.52569 0.50329 0.0
C1288 C 0.76584 0.51148 0.53098 0.0
C1289 C 0.7491 0.50967 0.47684 0.0
C1290 C 0.78871 0.54306 0.49133 0.0
C1291 C 0.79319 0.56569 0.49477 0.0
C1292 C 0.81455 0.5847 0.48596 0.0
C1293 C 0.8317 0.58048 0.47331 0.0
C1294 C 0.82741 0.55742 0.46936 0.0
C1295 C 0.80554 0.53853 0.47849 0.0
H1296 H 0.27001 0.8282 0.97022 0.0
H1297 H 0.30972 0.79465 0.94478 0.0
H1298 H 0.28004 0.75834 0.96915 0.0
H1299 H 0.25056 0.8007 0.04489 0.0
H1300 H 0.22164 0.79672 0.04227 0.0
H1301 H 0.24541 0.8204 0.02161 0.0
H1302 H 0.22269 0.80591 0.96944 0.0
H1303 H 0.19878 0.78225 0.98998 0.0
H1304 H 0.2121 0.77625 0.95715 0.0
H1305 H 0.2486 0.72679 0.99872 0.0
H1306 H 0.21459 0.69966 0.02967 0.0
H1307 H 0.19235 0.7511 0.03561 0.0
C1308 C 0.27226 0.81311 0.9695 0.0
C1309 C 0.29232 0.8144 0.95551 0.0
C1310 C 0.29463 0.79426 0.95524 0.0
C1311 C 0.27783 0.77346 0.96908 0.0
C1312 C 0.25854 0.77282 0.983 0.0
C1313 C 0.25538 0.7919 0.98314 0.0
C1314 C 0.23289 0.78609 1.00023 0.0
C1315 C 0.23794 0.80192 0.02896 0.0
C1316 C 0.21559 0.78772 0.97786 0.0
C1317 C 0.22427 0.76094 0.01 0.0
C1318 C 0.23956 0.75388 0.99974 0.0
C1319 C 0.23635 0.73198 0.00664 0.0
C1320 C 0.21696 0.71671 0.02444 0.0
C1321 C 0.20071 0.72316 0.0351 0.0
C1322 C 0.20434 0.7456 0.02757 0.0
H1323 H 0.45013 0.1864 0.52844 0.0
H1324 H 0.51753 0.22452 0.57439 0.0
H1325 H 0.52275 0.26115 0.55305 0.0
H1326 H 0.46614 0.22007 0.45835 0.0
H1327 H 0.43912 0.2201 0.45376 0.0
H1328 H 0.43948 0.19639 0.47391 0.0
H1329 H 0.42045 0.20348 0.52251 0.0
H1330 H 0.41996 0.22718 0.50245 0.0
H1331 H 0.43398 0.23204 0.54009 0.0
H1332 H 0.52309 0.29301 0.52379 0.0
H1333 H 0.51714 0.31974 0.49018 0.0
H1334 H 0.44864 0.26332 0.46426 0.0
C1335 C 0.46581 0.20251 0.53429 0.0
C1336 C 0.48343 0.20245 0.55314 0.0
C1337 C 0.50375 0.22394 0.56007 0.0
C1338 C 0.50693 0.24495 0.54805 0.0
C1339 C 0.48955 0.24443 0.52928 0.0
C1340 C 0.46925 0.22394 0.5226 0.0
C1341 C 0.4537 0.2287 0.50114 0.0
C1342 C 0.44936 0.21553 0.46994 0.0
C1343 C 0.43065 0.22248 0.51753 0.0
C1344 C 0.46876 0.25494 0.49642 0.0
C1345 C 0.48937 0.26345 0.51294 0.0
C1346 C 0.50689 0.28667 0.51111 0.0
C1347 C 0.50338 0.3017 0.49185 0.0
C1348 C 0.4824 0.29366 0.4749 0.0
C1349 C 0.46468 0.26998 0.47745 0.0
H1350 H 0.83327 0.5671 0.03771 0.0
H1351 H 0.81092 0.49325 0.03567 0.0
H1352 H 0.77538 0.48521 0.00785 0.0
H1353 H 0.7757 0.55902 0.05148 0.0
H1354 H 0.77964 0.58288 0.02695 0.0
H1355 H 0.80443 0.58378 0.04572 0.0
H1356 H 0.82464 0.58988 0.99185 0.0
H1357 H 0.79991 0.589 0.9729 0.0
H1358 H 0.80976 0.56931 0.96072 0.0
H1359 H 0.7427 0.48411 0.98096 0.0
H1360 H 0.71227 0.4896 0.95726 0.0
H1361 H 0.7526 0.56395 0.97659 0.0
C1362 C 0.82091 0.54932 0.03116 0.0
C1363 C 0.82497 0.5308 0.03894 0.0
C1364 C 0.80826 0.50773 0.03024 0.0
C1365 C 0.78797 0.50294 0.01426 0.0
C1366 C 0.78434 0.52134 0.00717 0.0
C1367 C 0.80011 0.54407 0.01535 0.0
C1368 C 0.79096 0.56018 0.00545 0.0
C1369 C 0.78747 0.57217 0.03412 0.0
C1370 C 0.80729 0.57816 0.98129 0.0
C1371 C 0.76766 0.54281 0.99065 0.0
C1372 C 0.76457 0.5206 0.99184 0.0
C1373 C 0.74485 0.5014 0.97986 0.0
C1374 C 0.72761 0.50479 0.96635 0.0
C1375 C 0.72987 0.52722 0.96494 0.0
C1376 C 0.7503 0.54658 0.97729 0.0
H1377 H 0.21765 0.7184 0.47209 0.0
H1378 H 0.16906 0.74432 0.4727 0.0
H1379 H 0.1993 0.78129 0.49571 0.0
H1380 H 0.24547 0.74466 0.54631 0.0
H1381 H 0.27415 0.7515 0.53359 0.0
H1382 H 0.24875 0.72689 0.51703 0.0
H1383 H 0.2627 0.74355 0.4613 0.0
H1384 H 0.28813 0.76822 0.47768 0.0
H1385 H 0.26894 0.77273 0.45242 0.0
H1386 H 0.23485 0.81594 0.51688 0.0
H1387 H 0.27317 0.8457 0.53704 0.0
H1388 H 0.29918 0.79765 0.52521 0.0
C1389 C 0.21339 0.73186 0.47711 0.0
C1390 C 0.1909 0.7284 0.47048 0.0
C1391 C 0.18606 0.74645 0.47755 0.0
C1392 C 0.20316 0.76758 0.49062 0.0
C1393 C 0.2251 0.77046 0.4968 0.0
C1394 C 0.23028 0.75309 0.49052 0.0
C1395 C 0.25528 0.76079 0.49978 0.0
C1396 C 0.25594 0.74502 0.52572 0.0
C1397 C 0.2696 0.76136 0.47108 0.0
C1398 C 0.26333 0.78523 0.51199 0.0
C1399 C 0.2456 0.7904 0.50988 0.0
C1400 C 0.24882 0.81204 0.51883 0.0
C1401 C 0.27072 0.82888 0.53021 0.0
C1402 C 0.28922 0.82406 0.53288 0.0
C1403 C 0.28535 0.80182 0.52374 0.0
H1404 H 0.44019 0.1854 0.97667 0.0
H1405 H 0.51484 0.21274 0.96923 0.0
H1406 H 0.52219 0.24955 0.99265 0.0
H1407 H 0.44234 0.23995 0.95744 0.0
H1408 H 0.41988 0.236 0.98473 0.0
H1409 H 0.41973 0.21098 0.96791 0.0
H1410 H 0.41944 0.19517 0.02349 0.0
H1411 H 0.41953 0.22012 0.04047 0.0
H1412 H 0.44181 0.21335 0.0511 0.0
H1413 H 0.52245 0.28304 0.01681 0.0
H1414 H 0.51557 0.31281 0.04029 0.0
H1415 H 0.4408 0.26647 0.03203 0.0
C1416 C 0.45803 0.19913 0.98015 0.0
C1417 C 0.47694 0.19606 0.97101 0.0
C1418 C 0.50003 0.21456 0.97578 0.0
C1419 C 0.50445 0.23562 0.98918 0.0
C1420 C 0.48563 0.23823 0.99767 0.0
C1421 C 0.46286 0.22067 0.99337 0.0
C1422 C 0.44609 0.22872 1.00435 0.0
C1423 C 0.43112 0.22892 0.97697 0.0
C1424 C 0.43081 0.21342 0.03147 0.0
C1425 C 0.46311 0.25341 0.01548 0.0
C1426 C 0.48579 0.25826 0.01139 0.0
C1427 C 0.50478 0.27951 0.02011 0.0
C1428 C 0.50064 0.29633 0.03353 0.0
C1429 C 0.47765 0.2921 0.03809 0.0
C1430 C 0.45857 0.27031 0.0287 0.0
H1431 H 0.18577 0.44644 0.52635 0.0
H1432 H 0.22382 0.51049 0.57994 0.0
H1433 H 0.26074 0.51484 0.56155 0.0
H1434 H 0.22857 0.42637 0.53867 0.0
H1435 H 0.22534 0.41487 0.49955 0.0
H1436 H 0.2012 0.41534 0.51836 0.0
H1437 H 0.19815 0.43853 0.47157 0.0
H1438 H 0.2223 0.4382 0.45268 0.0
H1439 H 0.22341 0.46554 0.45997 0.0
H1440 H 0.2932 0.51507 0.5349 0.0
H1441 H 0.32084 0.50995 0.50227 0.0
H1442 H 0.26422 0.445 0.46602 0.0
C1443 C 0.20191 0.46114 0.53452 0.0
C1444 C 0.20177 0.47816 0.5546 0.0
C1445 C 0.2233 0.49727 0.56449 0.0
C1446 C 0.24448 0.4999 0.55425 0.0
C1447 C 0.24411 0.48324 0.53413 0.0
C1448 C 0.22354 0.4641 0.52443 0.0
C1449 C 0.22863 0.4494 0.50173 0.0
C1450 C 0.22045 0.42504 0.5154 0.0
C1451 C 0.21746 0.44783 0.46958 0.0
C1452 C 0.25515 0.46364 0.49988 0.0
C1453 C 0.26348 0.48306 0.51892 0.0
C1454 C 0.28699 0.49979 0.52021 0.0
C1455 C 0.30254 0.49677 0.50146 0.0
C1456 C 0.29472 0.47705 0.48181 0.0
C1457 C 0.27069 0.46004 0.48125 0.0
H1458 H 0.82202 0.26059 0.97725 0.0
H1459 H 0.78819 0.30034 0.95318 0.0
H1460 H 0.75227 0.27083 0.97805 0.0
H1461 H 0.76993 0.20292 0.96421 0.0
H1462 H 0.77579 0.18919 0.99665 0.0
H1463 H 0.79955 0.21324 0.97642 0.0
H1464 H 0.8141 0.23545 0.02892 0.0
H1465 H 0.79035 0.21152 0.04929 0.0
H1466 H 0.79447 0.24047 0.05257 0.0
H1467 H 0.72101 0.23965 0.00726 0.0
H1468 H 0.69354 0.20538 0.03725 0.0
H1469 H 0.74431 0.18218 0.04215 0.0
C1470 C 0.80697 0.26292 0.97708 0.0
C1471 C 0.80812 0.28297 0.96319 0.0
C1472 C 0.78799 0.28531 0.96352 0.0
C1473 C 0.76736 0.26859 0.97768 0.0
C1474 C 0.76681 0.24929 0.99134 0.0
C1475 C 0.78582 0.24604 0.99102 0.0
C1476 C 0.77984 0.22329 0.00766 0.0
C1477 C 0.78137 0.20614 0.98487 0.0
C1478 C 0.79563 0.22797 0.03632 0.0
C1479 C 0.75467 0.21467 0.01756 0.0
C1480 C 0.74785 0.23025 0.00786 0.0
C1481 C 0.72602 0.22718 0.0148 0.0
C1482 C 0.71055 0.20762 0.03208 0.0
C1483 C 0.71667 0.191 0.04217 0.0
C1484 C 0.73907 0.19448 0.03459 0.0
H1485 H 0.52055 0.79562 0.47227 0.0
H1486 H 0.59484 0.8416 0.45892 0.0
H1487 H 0.60253 0.81227 0.48303 0.0
H1488 H 0.52509 0.77442 0.54761 0.0
H1489 H 0.5016 0.7451 0.54114 0.0
H1490 H 0.50167 0.76913 0.52129 0.0
H1491 H 0.49857 0.74937 0.46773 0.0
H1492 H 0.4984 0.72523 0.48744 0.0
H1493 H 0.51978 0.74101 0.45749 0.0
H1494 H 0.6024 0.77823 0.50937 0.0
H1495 H 0.59432 0.74209 0.53692 0.0
H1496 H 0.52031 0.7185 0.53483 0.0
C1497 C 0.5384 0.79938 0.47412 0.0
C1498 C 0.55709 0.82091 0.46352 0.0
C1499 C 0.58022 0.82527 0.46681 0.0
C1500 C 0.58479 0.80869 0.48046 0.0
C1501 C 0.56606 0.78779 0.49096 0.0
C1502 C 0.54331 0.78306 0.48803 0.0
C1503 C 0.52646 0.75952 0.50228 0.0
C1504 C 0.51291 0.76221 0.52971 0.0
C1505 C 0.50982 0.7428 0.47723 0.0
C1506 C 0.54328 0.75184 0.5137 0.0
C1507 C 0.56603 0.76835 0.50676 0.0
C1508 C 0.58464 0.76517 0.51492 0.0
C1509 C 0.57989 0.74458 0.53058 0.0
C1510 C 0.55672 0.72746 0.53814 0.0
C1511 C 0.53824 0.73126 0.52951 0.0
H1512 H 0.39614 0.45033 0.13335 0.0
H1513 H 0.35437 0.42532 0.0489 0.0
H1514 H 0.36696 0.39599 0.04224 0.0
H1515 H 0.44385 0.447 0.10586 0.0
H1516 H 0.44999 0.43816 0.14291 0.0
H1517 H 0.43582 0.45527 0.14199 0.0
H1518 H 0.40159 0.42374 0.17491 0.0
H1519 H 0.41569 0.40651 0.17591 0.0
H1520 H 0.38633 0.39399 0.16133 0.0
H1521 H 0.38816 0.37177 0.04281 0.0
H1522 H 0.41458 0.35576 0.05094 0.0
H1523 H 0.44044 0.39675 0.13601 0.0
C1524 C 0.38932 0.43854 0.11358 0.0
C1525 C 0.37426 0.4402 0.09161 0.0
C1526 C 0.3658 0.42431 0.06618 0.0
C1527 C 0.37291 0.40762 0.0622 0.0
C1528 C 0.38822 0.40684 0.08409 0.0
C1529 C 0.39607 0.42184 0.10944 0.0
C1530 C 0.41319 0.41856 0.12905 0.0
C1531 C 0.43711 0.44108 0.12998 0.0
C1532 C 0.40362 0.4102 0.16226 0.0
C1533 C 0.41423 0.39966 0.11057 0.0
C1534 C 0.39974 0.39293 0.08473 0.0
C1535 C 0.39927 0.37673 0.06328 0.0
C1536 C 0.41429 0.36764 0.06813 0.0
C1537 C 0.42962 0.37483 0.09419 0.0
C1538 C 0.42894 0.39063 0.1159 0.0
H1539 H 0.05947 0.45557 0.63481 0.0
H1540 H 0.07553 0.42145 0.55996 0.0
H1541 H 0.03327 0.39421 0.55236 0.0
H1542 H 0.00913 0.40402 0.66668 0.0
H1543 H 0.99385 0.41958 0.67469 0.0
H1544 H 0.02523 0.43472 0.6756 0.0
H1545 H 0.02663 0.4645 0.6349 0.0
H1546 H 0.9953 0.44945 0.63381 0.0
H1547 H 0.01159 0.45411 0.59809 0.0
H1548 H 0.988 0.37229 0.55092 0.0
H1549 H 0.94579 0.35879 0.55583 0.0
H1550 H 0.96125 0.40805 0.63173 0.0
C1551 C 0.0543 0.44218 0.61708 0.0
C1552 C 0.07103 0.4407 0.5981 0.0
C1553 C 0.06317 0.42294 0.575 0.0
C1554 C 0.03916 0.40738 0.57048 0.0
C1555 C 0.02318 0.40971 0.58931 0.0
C1556 C 0.03058 0.42668 0.61223 0.0
C1557 C 0.01027 0.42667 0.62837 0.0
C1558 C 0.00958 0.42089 0.66341 0.0
C1559 C 0.011 0.45006 0.62349 0.0
C1560 C 0.99015 0.40715 0.61087 0.0
C1561 C 0.99773 0.3974 0.58846 0.0
C1562 C 0.98196 0.37971 0.56865 0.0
C1563 C 0.95797 0.37208 0.57164 0.0
C1564 C 0.94999 0.38222 0.5942 0.0
C1565 C 0.9665 0.39973 0.61425 0.0
H1566 H 0.54668 0.95 0.11706 0.0
H1567 H 0.59314 0.93714 0.05951 0.0
H1568 H 0.62004 0.97976 0.05528 0.0
H1569 H 0.55354 0.99924 0.07522 0.0
H1570 H 0.55207 0.01408 0.10981 0.0
H1571 H 0.53729 0.98272 0.10898 0.0
H1572 H 0.5595 0.98268 0.159 0.0
H1573 H 0.57432 0.01404 0.16002 0.0
H1574 H 0.5909 0.99922 0.15945 0.0
H1575 H 0.64144 0.02497 0.05647 0.0
H1576 H 0.6547 0.06699 0.06343 0.0
H1577 H 0.59338 0.04837 0.12012 0.0
C1578 C 0.56254 0.95596 0.10364 0.0
C1579 C 0.5677 0.94002 0.08865 0.0
C1580 C 0.58874 0.94889 0.07134 0.0
C1581 C 0.60414 0.97311 0.06877 0.0
C1582 C 0.5983 0.98827 0.08368 0.0
C1583 C 0.57797 0.9799 0.10084 0.0
C1584 C 0.57522 0.9995 0.11427 0.0
C1585 C 0.55323 0.99884 0.10129 0.0
C1586 C 0.57498 0.99881 0.15032 0.0
C1587 C 0.59714 0.02033 0.10197 0.0
C1588 C 0.61035 0.0137 0.08437 0.0
C1589 C 0.6312 0.03027 0.07034 0.0
C1590 C 0.63862 0.05413 0.07441 0.0
C1591 C 0.6252 0.0612 0.09237 0.0
C1592 C 0.60424 0.04384 0.10629 0.0
H1593 H 0.63251 0.57877 0.56957 0.0
H1594 H 0.62759 0.56004 0.66784 0.0
H1595 H 0.61013 0.58448 0.67955 0.0
H1596 H 0.64387 0.63935 0.5807 0.0
H1597 H 0.62571 0.63735 0.54804 0.0
H1598 H 0.64077 0.621 0.54772 0.0
H1599 H 0.60159 0.58284 0.53888 0.0
H1600 H 0.58644 0.59905 0.53917 0.0
H1601 H 0.5779 0.57505 0.56593 0.0
H1602 H 0.5899 0.60739 0.68024 0.0
H1603 H 0.56681 0.62645 0.66966 0.0
H1604 H 0.58378 0.63056 0.57081 0.0
C1605 C 0.62834 0.58038 0.59366 0.0
C1606 C 0.63171 0.56776 0.61791 0.0
C1607 C 0.6253 0.56965 0.64897 0.0
C1608 C 0.61545 0.58357 0.65586 0.0
C1609 C 0.61195 0.59544 0.63142 0.0
C1610 C 0.61813 0.594 0.60091 0.0
C1611 C 0.61035 0.60675 0.57868 0.0
C1612 C 0.63144 0.62734 0.56285 0.0
C1613 C 0.59304 0.58992 0.55423 0.0
C1614 C 0.59849 0.61519 0.60142 0.0
C1615 C 0.59988 0.60863 0.63175 0.0
C1616 C 0.58896 0.6129 0.65667 0.0
C1617 C 0.57585 0.62371 0.65042 0.0
C1618 C 0.57373 0.63022 0.61951 0.0
C1619 C 0.58561 0.62632 0.59477 0.0
H1620 H 0.96457 0.56734 0.14291 0.0
H1621 H 0.94859 0.59877 0.06452 0.0
H1622 H 0.99063 0.62745 0.05873 0.0
H1623 H 0.01392 0.62073 0.17501 0.0
H1624 H 0.02964 0.60588 0.18468 0.0
H1625 H 0.99824 0.5902 0.18502 0.0
H1626 H 0.99798 0.55995 0.14616 0.0
H1627 H 0.02931 0.57556 0.14558 0.0
H1628 H 0.0133 0.56985 0.10943 0.0
H1629 H 0.03547 0.65019 0.05843 0.0
H1630 H 0.07765 0.66404 0.06339 0.0
H1631 H 0.06294 0.61672 0.14161 0.0
C1632 C 0.96968 0.58054 0.12491 0.0
C1633 C 0.95308 0.58077 0.10428 0.0
C1634 C 0.96085 0.59827 0.08082 0.0
C1635 C 0.98474 0.61464 0.07733 0.0
C1636 C 1.00065 0.61338 0.09756 0.0
C1637 C 0.99331 0.59678 0.12099 0.0
C1638 C 0.0137 0.59759 0.13807 0.0
C1639 C 0.01388 0.60399 0.17275 0.0
C1640 C 0.01355 0.57437 0.13459 0.0
C1641 C 0.03379 0.61702 0.12036 0.0
C1642 C 0.02606 0.62612 0.09722 0.0
C1643 C 0.04166 0.64337 0.07678 0.0
C1644 C 0.06563 0.65117 0.07982 0.0
C1645 C 0.0738 0.64162 0.10299 0.0
C1646 C 0.0575 0.62464 0.12378 0.0
H1647 H 0.45768 0.05723 0.62414 0.0
H1648 H 0.42543 0.07398 0.54752 0.0
H1649 H 0.39873 0.03149 0.5388 0.0
H1650 H 0.45792 0.00992 0.58789 0.0
H1651 H 0.4527 0.99375 0.62384 0.0
H1652 H 0.46755 0.02509 0.62474 0.0
H1653 H 0.43694 0.02353 0.66408 0.0
H1654 H 0.42196 0.99216 0.66331 0.0
H1655 H 0.40643 0.00729 0.65414 0.0
H1656 H 0.37667 0.98576 0.538 0.0
H1657 H 0.36289 0.94364 0.54404 0.0
H1658 H 0.41131 0.95933 0.62099 0.0
C1659 C 0.44497 0.0523 0.60552 0.0
C1660 C 0.44377 0.06924 0.5865 0.0
C1661 C 0.42671 0.06149 0.56252 0.0
C1662 C 0.4115 0.03736 0.55743 0.0
C1663 C 0.41357 0.02127 0.57656 0.0
C1664 C 0.42998 0.02865 0.60013 0.0
C1665 C 0.42984 0.00847 0.61688 0.0
C1666 C 0.45339 0.00937 0.6131 0.0
C1667 C 0.4234 0.00783 0.65166 0.0
C1668 C 0.41078 0.98825 0.5991 0.0
C1669 C 0.4014 0.99577 0.57599 0.0
C1670 C 0.3839 0.97986 0.55617 0.0
C1671 C 0.37612 0.9559 0.55986 0.0
C1672 C 0.38591 0.94798 0.58309 0.0
C1673 C 0.40328 0.96457 0.60308 0.0
H1674 H 0.56583 0.60313 0.8735 0.0
H1675 H 0.6024 0.65453 0.94624 0.0
H1676 H 0.62984 0.63969 0.95222 0.0
H1677 H 0.56859 0.55729 0.91037 0.0
H1678 H 0.57215 0.54501 0.87453 0.0
H1679 H 0.55703 0.56123 0.87412 0.0
H1680 H 0.58546 0.58884 0.83164 0.0
H1681 H 0.60067 0.57266 0.8319 0.0
H1682 H 0.61641 0.60366 0.83881 0.0
H1683 H 0.65181 0.61686 0.95246 0.0
H1684 H 0.6655 0.5884 0.94724 0.0
H1685 H 0.61377 0.55236 0.87468 0.0
C1686 C 0.57979 0.61162 0.89041 0.0
C1687 C 0.58191 0.63014 0.90931 0.0
C1688 C 0.60039 0.64041 0.93133 0.0
C1689 C 0.61609 0.63209 0.93491 0.0
C1690 C 0.61315 0.61349 0.91627 0.0
C1691 C 0.59545 0.60347 0.89439 0.0
C1692 C 0.59501 0.58285 0.87845 0.0
C1693 C 0.57183 0.56027 0.88476 0.0
C1694 C 0.59968 0.58728 0.84311 0.0
C1695 C 0.61511 0.58262 0.89492 0.0
C1696 C 0.62551 0.60045 0.91655 0.0
C1697 C 0.64389 0.60298 0.93536 0.0
C1698 C 0.65158 0.58673 0.9322 0.0
C1699 C 0.64086 0.56809 0.91047 0.0
C1700 C 0.62258 0.5664 0.89142 0.0
H1701 H 0.95836 0.561 0.37588 0.0
H1702 H 0.94605 0.60421 0.44082 0.0
H1703 H 0.98839 0.63191 0.44298 0.0
H1704 H 1.00826 0.56721 0.41283 0.0
H1705 H 0.02312 0.56779 0.37716 0.0
H1706 H 0.99177 0.55264 0.37824 0.0
H1707 H 0.99127 0.57727 0.33134 0.0
H1708 H 0.02266 0.59247 0.33003 0.0
H1709 H 1.00755 0.60864 0.33375 0.0
H1710 H 0.03256 0.65293 0.44203 0.0
H1711 H 0.0744 0.66569 0.43731 0.0
H1712 H 0.05757 0.60924 0.37186 0.0
C1713 C 0.96442 0.57648 0.39017 0.0
C1714 C 0.94867 0.58035 0.40811 0.0
C1715 C 0.9576 0.6008 0.42669 0.0
C1716 C 0.98168 0.61667 0.4281 0.0
C1717 C 0.99669 0.61201 0.41062 0.0
C1718 C 0.98835 0.59247 0.39183 0.0
C1719 C 1.00814 0.59075 0.3767 0.0
C1720 C 1.0078 0.56827 0.38684 0.0
C1721 C 1.00736 0.59239 0.34082 0.0
C1722 C 0.02896 0.61217 0.3903 0.0
C1723 C 0.02202 0.62425 0.40976 0.0
C1724 C 0.03817 0.64377 0.42651 0.0
C1725 C 0.06195 0.65089 0.42368 0.0
C1726 C 0.06947 0.63857 0.40417 0.0
C1727 C 0.05261 0.61924 0.38681 0.0
H1728 H 0.43885 0.05658 0.86746 0.0
H1729 H 0.41194 0.06877 0.95383 0.0
H1730 H 0.38495 0.02621 0.95892 0.0
H1731 H 0.38477 1.00572 0.83901 0.0
H1732 H 0.40047 0.99189 0.82464 0.0
H1733 H 0.41434 0.02324 0.82535 0.0
H1734 H 0.44825 0.0253 0.85823 0.0
H1735 H 0.43447 0.99405 0.85782 0.0
H1736 H 0.44183 0.00944 0.89463 0.0
H1737 H 0.36426 0.98138 0.95732 0.0
H1738 H 0.35307 0.93999 0.95003 0.0
H1739 H 0.39527 0.95863 0.86567 0.0
C1740 C 0.42692 0.05054 0.88714 0.0
C1741 C 0.42753 0.0662 0.91019 0.0
C1742 C 0.41171 0.05724 0.93567 0.0
C1743 C 0.39633 0.03305 0.93877 0.0
C1744 C 0.39694 0.01809 0.91614 0.0
C1745 C 0.41183 0.02665 0.89075 0.0
C1746 C 0.41123 0.00725 0.87135 0.0
C1747 C 0.40215 0.00701 0.83812 0.0
C1748 C 0.43536 0.00913 0.87048 0.0
C1749 C 0.39395 0.98629 0.89001 0.0
C1750 C 0.3856 0.99272 0.91556 0.0
C1751 C 0.37048 0.9762 0.93712 0.0
C1752 C 0.36416 0.95268 0.93274 0.0
C1753 C 0.37319 0.94593 0.9072 0.0
C1754 C 0.38787 0.96304 0.88533 0.0
H1755 H 0.40979 0.45649 0.37927 0.0
H1756 H 0.35612 0.41658 0.44815 0.0
H1757 H 0.3703 0.38833 0.45127 0.0
H1758 H 0.40937 0.408 0.33929 0.0
H1759 H 0.44052 0.42377 0.33383 0.0
H1760 H 0.42469 0.43931 0.3355 0.0
H1761 H 0.45138 0.46488 0.38073 0.0
H1762 H 0.46723 0.44939 0.3793 0.0
H1763 H 0.45413 0.45102 0.41554 0.0
H1764 H 0.39301 0.36593 0.449 0.0
H1765 H 0.42109 0.35198 0.4414 0.0
H1766 H 0.4591 0.40762 0.3742 0.0
C1767 C 0.40067 0.44169 0.39481 0.0
C1768 C 0.38172 0.43882 0.41343 0.0
C1769 C 0.37055 0.41915 0.43347 0.0
C1770 C 0.37854 0.40303 0.43543 0.0
C1771 C 0.39762 0.40679 0.41713 0.0
C1772 C 0.4084 0.42566 0.39711 0.0
C1773 C 0.42925 0.42678 0.38101 0.0
C1774 C 0.42573 0.42431 0.34529 0.0
C1775 C 0.45182 0.44934 0.38967 0.0
C1776 C 0.42876 0.40564 0.39513 0.0
C1777 C 0.41044 0.3942 0.41587 0.0
C1778 C 0.40727 0.37469 0.43257 0.0
C1779 C 0.42332 0.36688 0.42809 0.0
C1780 C 0.44237 0.37859 0.40711 0.0
C1781 C 0.44476 0.39806 0.39029 0.0
H1782 H 0.04929 0.43909 0.8713 0.0
H1783 H 0.06371 0.41041 0.95418 0.0
H1784 H 0.02139 0.38307 0.96065 0.0
H1785 H 1.00221 0.44061 0.90233 0.0
H1786 H 0.98603 0.43378 0.86619 0.0
H1787 H 0.0173 0.44805 0.86527 0.0
H1788 H 0.0152 0.41516 0.83 0.0
H1789 H 0.98384 0.40084 0.83053 0.0
H1790 H 0.99834 0.38525 0.84265 0.0
H1791 H 0.97636 0.36158 0.96073 0.0
H1792 H 0.93447 0.34908 0.95469 0.0
H1793 H 0.95122 0.39358 0.87287 0.0
C1794 C 0.04377 0.4267 0.89043 0.0
C1795 C 0.06002 0.42691 0.91212 0.0
C1796 C 0.05173 0.41052 0.93703 0.0
C1797 C 0.02767 0.39493 0.94093 0.0
C1798 C 0.01212 0.39589 0.9197 0.0
C1799 C 0.02 0.41135 0.89483 0.0
C1800 C 1.00007 0.41078 0.87688 0.0
C1801 C 1.00149 0.43472 0.87774 0.0
C1802 C 0.99932 0.40251 0.84301 0.0
C1803 C 0.97963 0.39286 0.89574 0.0
C1804 C 0.98673 0.38417 0.92016 0.0
C1805 C 0.97067 0.36813 0.94144 0.0
C1806 C 0.94689 0.36108 0.93782 0.0
C1807 C 0.93946 0.37032 0.91333 0.0
C1808 C 0.95618 0.38612 0.89188 0.0
H1809 H 0.56332 0.95512 0.44748 0.0
H1810 H 0.61299 0.9424 0.39825 0.0
H1811 H 0.64364 0.98378 0.40632 0.0
H1812 H 0.58078 0.01009 0.41762 0.0
H1813 H 0.57627 0.02155 0.45359 0.0
H1814 H 0.55971 0.99081 0.4459 0.0
H1815 H 0.57418 0.98282 0.49845 0.0
H1816 H 0.59115 0.0137 0.50594 0.0
H1817 H 0.60503 0.99623 0.5058 0.0
H1818 H 0.6669 0.02851 0.41333 0.0
H1819 H 0.67943 0.07054 0.41845 0.0
H1820 H 0.61562 0.05201 0.46825 0.0
C1821 C 0.58071 0.96106 0.43861 0.0
C1822 C 0.58586 0.94584 0.42195 0.0
C1823 C 0.60883 0.95397 0.41106 0.0
C1824 C 0.6263 0.97737 0.41564 0.0
C1825 C 0.6206 0.99213 0.43197 0.0
C1826 C 0.59836 0.98408 0.44365 0.0
C1827 C 0.59612 1.00336 0.45915 0.0
C1828 C 0.57712 0.00665 0.4431 0.0
C1829 C 0.59134 0.99874 0.49443 0.0
C1830 C 0.62024 0.02382 0.4532 0.0
C1831 C 0.6343 0.01718 0.43768 0.0
C1832 C 0.65627 0.03379 0.42631 0.0
C1833 C 0.66345 0.05766 0.42963 0.0
C1834 C 0.64867 0.06454 0.44424 0.0
C1835 C 0.62746 0.04732 0.4575 0.0
H1836 H 0.48783 0.58183 0.95326 0.0
H1837 H 0.48429 0.64382 0.97498 0.0
H1838 H 0.449 0.62016 0.0067 0.0
H1839 H 0.42196 0.54483 0.94537 0.0
H1840 H 0.41873 0.51859 0.96294 0.0
H1841 H 0.44372 0.53642 0.93995 0.0
H1842 H 0.47289 0.543 0.97993 0.0
H1843 H 0.45057 0.52401 0.00695 0.0
H1844 H 0.47168 0.55354 0.01813 0.0
H1845 H 0.41626 0.59046 0.03999 0.0
H1846 H 0.38492 0.55553 0.06661 0.0
H1847 H 0.40723 0.5122 0.01939 0.0
C1848 C 0.47882 0.5902 0.96276 0.0
C1849 C 0.48845 0.61464 0.96058 0.0
C1850 C 0.47696 0.62508 0.97579 0.0
C1851 C 0.45694 0.6118 0.99393 0.0
C1852 C 0.44806 0.58785 0.99594 0.0
C1853 C 0.45795 0.57691 0.9796 0.0
C1854 C 0.44466 0.5508 0.986 0.0
C1855 C 0.43148 0.53696 0.9568 0.0
C1856 C 0.46086 0.54231 0.9986 0.0
C1857 C 0.42724 0.54923 0.01022 0.0
C1858 C 0.4292 0.57073 0.01525 0.0
C1859 C 0.41445 0.57351 0.03593 0.0
C1860 C 0.3968 0.55366 0.05104 0.0
C1861 C 0.39408 0.53141 0.04533 0.0
C1862 C 0.40935 0.52917 0.0245 0.0
H1863 H 0.85149 0.3988 0.54535 0.0
H1864 H 0.92429 0.42024 0.53286 0.0
H1865 H 0.93192 0.45854 0.51269 0.0
H1866 H 0.84865 0.41896 0.47339 0.0
H1867 H 0.82903 0.43004 0.47971 0.0
H1868 H 0.82673 0.40634 0.50315 0.0
H1869 H 0.83387 0.42683 0.55681 0.0
H1870 H 0.8302 0.448 0.53474 0.0
H1871 H 0.85544 0.4574 0.55899 0.0
H1872 H 0.93193 0.4968 0.50399 0.0
H1873 H 0.9232 0.52577 0.48025 0.0
H1874 H 0.84955 0.47482 0.48119 0.0
C1875 C 0.86912 0.41194 0.53924 0.0
C1876 C 0.88777 0.40756 0.5428 0.0
C1877 C 0.91018 0.42402 0.53186 0.0
C1878 C 0.91464 0.44575 0.52057 0.0
C1879 C 0.89617 0.45012 0.51885 0.0
C1880 C 0.87362 0.43327 0.52629 0.0
C1881 C 0.85631 0.44048 0.51536 0.0
C1882 C 0.83917 0.42298 0.49143 0.0
C1883 C 0.84318 0.44329 0.54318 0.0
C1884 C 0.87278 0.46398 0.50066 0.0
C1885 C 0.89571 0.46981 0.50515 0.0
C1886 C 0.91413 0.49209 0.49874 0.0
C1887 C 0.90906 0.50835 0.48532 0.0
C1888 C 0.88599 0.50175 0.47679 0.0
C1889 C 0.8675 0.47959 0.48556 0.0
H1890 H 0.39148 0.84701 0.95855 0.0
H1891 H 0.41478 0.91973 0.97605 0.0
H1892 H 0.45178 0.92505 0.99814 0.0
H1893 H 0.40984 0.84114 0.03287 0.0
H1894 H 0.41889 0.82017 0.02444 0.0
H1895 H 0.39607 0.82047 1.00183 0.0
H1896 H 0.41695 0.82709 0.94872 0.0
H1897 H 0.43793 0.82262 0.96992 0.0
H1898 H 0.44757 0.84827 0.94633 0.0
H1899 H 0.48927 0.92314 0.00674 0.0
H1900 H 0.51665 0.91211 0.03018 0.0
H1901 H 0.46382 0.83921 0.02412 0.0
C1902 C 0.40472 0.86414 0.96637 0.0
C1903 C 0.40141 0.88353 0.96336 0.0
C1904 C 0.41789 0.90517 0.97637 0.0
C1905 C 0.43885 0.9083 0.98887 0.0
C1906 C 0.44235 0.88923 0.98964 0.0
C1907 C 0.42516 0.86725 0.98058 0.0
C1908 C 0.43115 0.84886 0.99063 0.0
C1909 C 0.41295 0.83163 0.01386 0.0
C1910 C 0.43351 0.83596 0.96218 0.0
C1911 C 0.45462 0.8641 0.00617 0.0
C1912 C 0.46134 0.88741 1.00328 0.0
C1913 C 0.48379 0.90499 0.01083 0.0
C1914 C 0.49916 0.89861 0.02406 0.0
C1915 C 0.49152 0.87504 0.03118 0.0
C1916 C 0.46932 0.85747 0.021 0.0
H1917 H 0.52011 0.4214 0.46344 0.0
H1918 H 0.55199 0.3795 0.4437 0.0
H1919 H 0.58736 0.40769 0.47249 0.0
H1920 H 0.57776 0.48024 0.45579 0.0
H1921 H 0.56886 0.49304 0.48599 0.0
H1922 H 0.54724 0.47135 0.46084 0.0
H1923 H 0.525 0.44726 0.50819 0.0
H1924 H 0.54654 0.46841 0.53397 0.0
H1925 H 0.53919 0.43805 0.53586 0.0
H1926 H 0.61642 0.43693 0.50954 0.0
H1927 H 0.64221 0.47094 0.54242 0.0
H1928 H 0.59418 0.49702 0.53346 0.0
C1929 C 0.53499 0.41881 0.46408 0.0
C1930 C 0.5336 0.39853 0.45112 0.0
C1931 C 0.55299 0.39516 0.45312 0.0
C1932 C 0.57306 0.41101 0.46952 0.0
C1933 C 0.57369 0.43051 0.48291 0.0
C1934 C 0.55573 0.4352 0.47894 0.0
C1935 C 0.56095 0.45744 0.49602 0.0
C1936 C 0.56387 0.4766 0.47316 0.0
C1937 C 0.54183 0.4525 0.52008 0.0
C1938 C 0.58411 0.46389 0.51131 0.0
C1939 C 0.59098 0.44796 0.50356 0.0
C1940 C 0.61147 0.44979 0.51522 0.0
C1941 C 0.62592 0.46903 0.534 0.0
C1942 C 0.62006 0.48639 0.54043 0.0
C1943 C 0.59885 0.48378 0.52907 0.0
H1944 H 0.09664 0.51986 0.96212 0.0
H1945 H 0.16694 0.53204 0.97211 0.0
H1946 H 0.17769 0.5675 1.00286 0.0
H1947 H 0.11647 0.58373 0.95251 0.0
H1948 H 0.09308 0.58337 0.97459 0.0
H1949 H 0.08761 0.55841 0.95236 0.0
H1950 H 0.07247 0.53113 0.99682 0.0
H1951 H 0.07596 0.55378 0.02334 0.0
H1952 H 0.08935 0.53631 0.03176 0.0
H1953 H 0.17996 0.59913 0.03674 0.0
H1954 H 0.17571 0.62985 0.06372 0.0
H1955 H 0.10535 0.60013 0.0281 0.0
C1956 C 0.11456 0.53065 0.9693 0.0
C1957 C 0.13114 0.52351 0.96408 0.0
C1958 C 0.15413 0.53746 0.97544 0.0
C1959 C 0.16037 0.55756 0.99304 0.0
C1960 C 0.14358 0.5639 0.99842 0.0
C1961 C 0.12145 0.55155 0.98573 0.0
C1962 C 0.10694 0.56253 0.99527 0.0
C1963 C 0.10076 0.57264 0.96693 0.0
C1964 C 0.08488 0.54495 0.01295 0.0
C1965 C 0.12402 0.58214 0.01625 0.0
C1966 C 0.14504 0.58255 0.01776 0.0
C1967 C 0.16368 0.59917 0.03538 0.0
C1968 C 0.16109 0.61644 0.05073 0.0
C1969 C 0.14016 0.61707 0.04809 0.0
C1970 C 0.12139 0.59972 0.03071 0.0
H1971 H 0.52868 0.14158 0.506 0.0
H1972 H 0.5569 0.16517 0.59813 0.0
H1973 H 0.59205 0.16272 0.58407 0.0
H1974 H 0.54942 0.1087 0.47684 0.0
H1975 H 0.56076 0.1253 0.44093 0.0
H1976 H 0.53752 0.12591 0.46118 0.0
H1977 H 0.56433 0.17118 0.45916 0.0
H1978 H 0.58727 0.16831 0.44074 0.0
H1979 H 0.59283 0.18435 0.47683 0.0
H1980 H 0.61561 0.14413 0.56255 0.0
H1981 H 0.63966 0.13369 0.53025 0.0
H1982 H 0.60569 0.13933 0.44639 0.0
C1983 C 0.54219 0.14595 0.52331 0.0
C1984 C 0.5386 0.14936 0.55512 0.0
C1985 C 0.5578 0.15825 0.57568 0.0
C1986 C 0.57806 0.15778 0.5674 0.0
C1987 C 0.57971 0.15114 0.53701 0.0
C1988 C 0.56355 0.14805 0.5145 0.0
C1989 C 0.57212 0.14632 0.48227 0.0
C1990 C 0.55373 0.12511 0.4644 0.0
C1991 C 0.57958 0.16888 0.46366 0.0
C1992 C 0.59319 0.14413 0.4909 0.0
C1993 C 0.59722 0.14715 0.5228 0.0
C1994 C 0.61355 0.14302 0.53733 0.0
C1995 C 0.62691 0.13677 0.51864 0.0
C1996 C 0.62456 0.13535 0.48546 0.0
C1997 C 0.60747 0.13932 0.47149 0.0
H1998 H 0.52527 0.42822 0.05317 0.0
H1999 H 0.53284 0.3676 0.03893 0.0
H2000 H 0.56843 0.3914 0.00795 0.0
H2001 H 0.54193 0.45434 0.9867 0.0
H2002 H 0.5618 0.48455 0.99631 0.0
H2003 H 0.5393 0.46593 0.02339 0.0
H2004 H 0.56769 0.47487 0.0656 0.0
H2005 H 0.59276 0.49314 0.04282 0.0
H2006 H 0.59088 0.46823 0.06273 0.0
H2007 H 0.6006 0.42045 0.97396 0.0
H2008 H 0.63166 0.45499 0.94646 0.0
H2009 H 0.60616 0.49796 0.98686 0.0
C2010 C 0.53517 0.4203 0.0454 0.0
C2011 C 0.52657 0.39612 0.04938 0.0
C2012 C 0.53934 0.38615 0.03667 0.0
C2013 C 0.55953 0.3995 0.01894 0.0
C2014 C 0.56731 0.42311 0.01491 0.0
C2015 C 0.55626 0.43377 0.02904 0.0
C2016 C 0.56871 0.45962 0.02094 0.0
C2017 C 0.552 0.46655 0.00584 0.0
C2018 C 0.58073 0.47476 0.04977 0.0
C2019 C 0.58704 0.46121 0.99822 0.0
C2020 C 0.58612 0.44001 0.99541 0.0
C2021 C 0.60166 0.43722 0.97633 0.0
C2022 C 0.61912 0.45683 0.96068 0.0
C2023 C 0.62092 0.47888 0.96429 0.0
C2024 C 0.60477 0.48111 0.98337 0.0
H2025 H 0.107 0.58787 0.4594 0.0
H2026 H 0.177 0.64517 0.47495 0.0
H2027 H 0.18556 0.61971 0.50787 0.0
H2028 H 0.09569 0.56322 0.52887 0.0
H2029 H 0.08227 0.53244 0.51978 0.0
H2030 H 0.08064 0.55229 0.49252 0.0
H2031 H 0.09716 0.53986 0.45076 0.0
H2032 H 0.10192 0.52021 0.47355 0.0
H2033 H 0.12607 0.54359 0.4529 0.0
H2034 H 0.18565 0.58909 0.54238 0.0
H2035 H 0.17932 0.55319 0.56917 0.0
H2036 H 0.11065 0.5146 0.52781 0.0
C2037 C 0.12448 0.59468 0.46818 0.0
C2038 C 0.1416 0.61836 0.46376 0.0
C2039 C 0.16384 0.62697 0.47754 0.0
C2040 C 0.16882 0.61268 0.49639 0.0
C2041 C 0.15153 0.58955 0.5007 0.0
C2042 C 0.13013 0.58025 0.48593 0.0
C2043 C 0.1148 0.55469 0.49462 0.0
C2044 C 0.092 0.55036 0.50997 0.0
C2045 C 0.10983 0.53872 0.46619 0.0
C2046 C 0.1305 0.55148 0.51739 0.0
C2047 C 0.15163 0.57182 0.52057 0.0
C2048 C 0.16924 0.57301 0.53976 0.0
C2049 C 0.1655 0.55263 0.55496 0.0
C2050 C 0.14444 0.53138 0.55064 0.0
C2051 C 0.12674 0.53081 0.53173 0.0
H2052 H 0.5949 0.10376 0.02392 0.0
H2053 H 0.6244 0.17099 0.06948 0.0
H2054 H 0.59592 0.17868 0.04219 0.0
H2055 H 0.58315 0.12232 0.94929 0.0
H2056 H 0.55842 0.09334 0.94536 0.0
H2057 H 0.58249 0.09773 0.96855 0.0
H2058 H 0.54989 0.076 0.01306 0.0
H2059 H 0.52848 0.07523 0.98645 0.0
H2060 H 0.53233 0.08879 0.024 0.0
H2061 H 0.56629 0.18002 0.00718 0.0
H2062 H 0.53244 0.17242 0.97468 0.0
H2063 H 0.51897 0.10243 0.95644 0.0
C2064 C 0.59491 0.11984 0.02856 0.0
C2065 C 0.61147 0.13669 0.04895 0.0
C2066 C 0.6115 0.15777 0.0542 0.0
C2067 C 0.59551 0.1623 0.03869 0.0
C2068 C 0.57955 0.14544 0.01826 0.0
C2069 C 0.57859 0.12431 0.01401 0.0
C2070 C 0.56007 0.10939 0.99032 0.0
C2071 C 0.57176 0.1056 0.96164 0.0
C2072 C 0.54165 0.08598 1.00441 0.0
C2073 C 0.54991 0.12497 0.98287 0.0
C2074 C 0.56209 0.14603 0.99845 0.0
C2075 C 0.55651 0.16355 0.99507 0.0
C2076 C 0.53733 0.1591 0.97643 0.0
C2077 C 0.52345 0.1371 0.96209 0.0
C2078 C 0.52986 0.11979 0.96542 0.0
H2079 H 0.47028 0.62493 0.5404 0.0
H2080 H 0.51874 0.59919 0.54479 0.0
H2081 H 0.48913 0.56185 0.52107 0.0
H2082 H 0.41258 0.56895 0.54704 0.0
H2083 H 0.40122 0.57996 0.51777 0.0
H2084 H 0.42442 0.60001 0.54304 0.0
H2085 H 0.44388 0.61894 0.48982 0.0
H2086 H 0.42362 0.59537 0.46518 0.0
H2087 H 0.4542 0.60426 0.4649 0.0
H2088 H 0.45147 0.52527 0.50651 0.0
H2089 H 0.41435 0.4966 0.48131 0.0
H2090 H 0.39516 0.54987 0.47132 0.0
C2091 C 0.47425 0.61107 0.53712 0.0
C2092 C 0.496 0.61397 0.5464 0.0
C2093 C 0.50162 0.59656 0.53928 0.0
C2094 C 0.48498 0.5754 0.52589 0.0
C2095 C 0.46329 0.57257 0.5182 0.0
C2096 C 0.4582 0.59026 0.52226 0.0
C2097 C 0.43536 0.58428 0.50638 0.0
C2098 C 0.4174 0.5833 0.53003 0.0
C2099 C 0.43946 0.60169 0.47995 0.0
C2100 C 0.42814 0.56016 0.49381 0.0
C2101 C 0.44401 0.5534 0.50231 0.0
C2102 C 0.43941 0.53061 0.49829 0.0
C2103 C 0.41837 0.5145 0.48408 0.0
C2104 C 0.40294 0.52162 0.47257 0.0
C2105 C 0.40759 0.54457 0.47806 0.0
H2106 H 0.90379 0.40561 0.98633 0.0
H2107 H 0.8361 0.38127 0.94404 0.0
H2108 H 0.83257 0.41218 0.97174 0.0
H2109 H 0.88998 0.42116 0.06213 0.0
H2110 H 0.91989 0.44447 0.06439 0.0
H2111 H 0.91282 0.41932 0.04161 0.0
H2112 H 0.93489 0.45044 0.99553 0.0
H2113 H 0.93854 0.47304 0.02222 0.0
H2114 H 0.92414 0.46995 0.98558 0.0
H2115 H 0.83517 0.44359 0.00648 0.0
H2116 H 0.84633 0.47839 0.03885 0.0
H2117 H 0.91426 0.48569 0.05468 0.0
C2118 C 0.88849 0.40721 0.98254 0.0
C2119 C 0.87031 0.3914 0.96287 0.0
C2120 C 0.8503 0.39352 0.95873 0.0
C2121 C 0.84812 0.41091 0.97448 0.0
C2122 C 0.86623 0.42612 0.99407 0.0
C2123 C 0.88635 0.42496 0.9974 0.0
C2124 C 0.90302 0.44329 0.02025 0.0
C2125 C 0.90651 0.43132 0.04884 0.0
C2126 C 0.92651 0.46012 0.00486 0.0
C2127 C 0.88946 0.45554 0.02847 0.0
C2128 C 0.86797 0.44473 0.01377 0.0
C2129 C 0.85201 0.45232 0.01789 0.0
C2130 C 0.85848 0.47204 0.03644 0.0
C2131 C 0.88094 0.48447 0.05003 0.0
C2132 C 0.89665 0.47606 0.04598 0.0
H2133 H 0.47379 0.84385 0.46793 0.0
H2134 H 0.5261 0.91656 0.47903 0.0
H2135 H 0.49592 0.9249 0.49933 0.0
H2136 H 0.42063 0.84647 0.45262 0.0
H2137 H 0.40407 0.8227 0.47885 0.0
H2138 H 0.42931 0.82503 0.45937 0.0
H2139 H 0.44192 0.82124 0.51541 0.0
H2140 H 0.41941 0.82407 0.53522 0.0
H2141 H 0.44971 0.84437 0.54299 0.0
H2142 H 0.45729 0.92582 0.50049 0.0
H2143 H 0.41866 0.91854 0.5188 0.0
H2144 H 0.39497 0.84488 0.52669 0.0
C2145 C 0.47868 0.86154 0.47426 0.0
C2146 C 0.50175 0.88005 0.46972 0.0
C2147 C 0.5082 0.90253 0.48089 0.0
C2148 C 0.49122 0.9074 0.49223 0.0
C2149 C 0.4682 0.88925 0.49381 0.0
C2150 C 0.46221 0.86648 0.4875 0.0
C2151 C 0.43733 0.84976 0.49799 0.0
C2152 C 0.42199 0.83513 0.47053 0.0
C2153 C 0.43703 0.83393 0.52452 0.0
C2154 C 0.43006 0.86696 0.50941 0.0
C2155 C 0.44773 0.88961 0.50463 0.0
C2156 C 0.44381 0.90837 0.50669 0.0
C2157 C 0.42191 0.9041 0.51693 0.0
C2158 C 0.40483 0.88157 0.52663 0.0
C2159 C 0.40853 0.86255 0.52162 0.0
loop_
_geom_bond_atom_site_label_1
_geom_bond_atom_site_label_2
_geom_bond_distance
_geom_bond_site_symmetry_2
_ccdc_geom_bond_type
Mn0 O5 2.095 . S
Mn0 O15 2.162 . S
Mn0 O16 2.297 . S
Mn0 O24 2.385 . S
Mn0 O25 2.209 . S
Mn0 O26 2.094 . S
Mn1 O6 2.121 . S
Mn1 N8 2.257 . S
Mn1 N17 2.282 . S
Mn1 O25 2.215 . S
Mn1 O27 2.117 . S
C2 O24 1.234 . S
C2 O25 1.283 . S
C3 O15 1.281 . S
C3 O16 1.236 . S
C4 O26 1.240 . S
C4 O27 1.264 . S
O5 Mn0 2.095 . S
O5 C14 1.250 . S
O6 Mn1 2.121 . S
O6 C14 1.258 . S
C7 N8 1.326 . S
C7 C11 1.460 . S
C7 H13 0.929 . S
N8 Mn1 2.257 . S
N8 C7 1.326 . S
N8 C12 1.362 . S
C9 C10 1.258 . S
C9 C12 1.431 . S
C9 C29 1.449 . S
C10 C9 1.258 . S
C10 C11 1.477 . S
C10 H30 0.931 . S
C11 C7 1.460 . S
C11 C10 1.477 . S
C11 H31 0.930 . S
C12 N8 1.362 . S
C12 C9 1.431 . S
C12 C22 1.476 . S
H13 C7 0.929 . S
C14 O5 1.250 . S
C14 O6 1.258 . S
O15 Mn0 2.162 . S
O15 C3 1.281 . S
O16 Mn0 2.297 . S
O16 C3 1.236 . S
N17 Mn1 2.282 . S
N17 C18 1.328 . S
N17 C22 1.318 . S
C18 N17 1.328 . S
C18 C19 1.457 . S
C18 H23 0.929 . S
C19 C18 1.457 . S
C19 C20 1.291 . S
C19 H32 0.931 . S
C20 C19 1.291 . S
C20 C21 1.373 . S
C20 H33 0.929 . S
C21 C20 1.373 . S
C21 C22 1.396 . S
C21 C28 1.403 . S
C22 C12 1.476 . S
C22 N17 1.318 . S
C22 C21 1.396 . S
H23 C18 0.929 . S
O24 Mn0 2.385 . S
O24 C2 1.234 . S
O25 Mn0 2.209 . S
O25 Mn1 2.215 . S
O25 C2 1.283 . S
O26 Mn0 2.094 . S
O26 C4 1.240 . S
O27 Mn1 2.117 . S
O27 C4 1.264 . S
C28 C21 1.403 . S
C28 C29 1.399 . S
C28 H34 0.929 . S
C29 C9 1.449 . S
C29 C28 1.399 . S
C29 H35 0.930 . S
H30 C10 0.931 . S
H31 C11 0.930 . S
H32 C19 0.931 . S
H33 C20 0.929 . S
H34 C28 0.929 . S
H35 C29 0.930 . S
Mn36 O41 2.095 . S
Mn36 O51 2.162 . S
Mn36 O52 2.297 . S
Mn36 O60 2.385 . S
Mn36 O61 2.209 . S
Mn36 O62 2.094 . S
Mn37 O42 2.121 . S
Mn37 N44 2.257 . S
Mn37 N53 2.282 . S
Mn37 O61 2.215 . S
Mn37 O63 2.117 . S
C38 O60 1.234 . S
C38 O61 1.283 . S
C39 O51 1.281 . S
C39 O52 1.236 . S
C40 O62 1.240 . S
C40 O63 1.264 . S
O41 Mn36 2.095 . S
O41 C50 1.250 . S
O42 Mn37 2.121 . S
O42 C50 1.258 . S
C43 N44 1.326 . S
C43 C47 1.460 . S
C43 H49 0.929 . S
N44 Mn37 2.257 . S
N44 C43 1.326 . S
N44 C48 1.362 . S
C45 C46 1.258 . S
C45 C48 1.431 . S
C45 C65 1.449 . S
C46 C45 1.258 . S
C46 C47 1.477 . S
C46 H66 0.931 . S
C47 C43 1.460 . S
C47 C46 1.477 . S
C47 H67 0.930 . S
C48 N44 1.362 . S
C48 C45 1.431 . S
C48 C58 1.476 . S
H49 C43 0.929 . S
C50 O41 1.250 . S
C50 O42 1.258 . S
O51 Mn36 2.162 . S
O51 C39 1.281 . S
O52 Mn36 2.297 . S
O52 C39 1.236 . S
N53 Mn37 2.282 . S
N53 C54 1.328 . S
N53 C58 1.318 . S
C54 N53 1.328 . S
C54 C55 1.457 . S
C54 H59 0.929 . S
C55 C54 1.457 . S
C55 C56 1.291 . S
C55 H68 0.931 . S
C56 C55 1.291 . S
C56 C57 1.373 . S
C56 H69 0.929 . S
C57 C56 1.373 . S
C57 C58 1.396 . S
C57 C64 1.403 . S
C58 C48 1.476 . S
C58 N53 1.318 . S
C58 C57 1.396 . S
H59 C54 0.929 . S
O60 Mn36 2.385 . S
O60 C38 1.234 . S
O61 Mn36 2.209 . S
O61 Mn37 2.215 . S
O61 C38 1.283 . S
O62 Mn36 2.094 . S
O62 C40 1.240 . S
O63 Mn37 2.117 . S
O63 C40 1.264 . S
C64 C57 1.403 . S
C64 C65 1.399 . S
C64 H70 0.929 . S
C65 C45 1.449 . S
C65 C64 1.399 . S
C65 H71 0.930 . S
H66 C46 0.931 . S
H67 C47 0.930 . S
H68 C55 0.931 . S
H69 C56 0.929 . S
H70 C64 0.929 . S
H71 C65 0.930 . S
Mn72 O77 2.095 . S
Mn72 O87 2.162 . S
Mn72 O88 2.297 . S
Mn72 O96 2.385 . S
Mn72 O97 2.209 . S
Mn72 O98 2.094 . S
Mn73 O78 2.121 . S
Mn73 N80 2.257 . S
Mn73 N89 2.282 . S
Mn73 O97 2.215 . S
Mn73 O99 2.117 . S
C74 O96 1.234 . S
C74 O97 1.283 . S
C75 O87 1.281 . S
C75 O88 1.236 . S
C76 O98 1.240 . S
C76 O99 1.264 . S
O77 Mn72 2.095 . S
O77 C86 1.250 . S
O78 Mn73 2.121 . S
O78 C86 1.258 . S
C79 N80 1.326 . S
C79 C83 1.460 . S
C79 H85 0.929 . S
N80 Mn73 2.257 . S
N80 C79 1.326 . S
N80 C84 1.362 . S
C81 C82 1.258 . S
C81 C84 1.431 . S
C81 C101 1.449 . S
C82 C81 1.258 . S
C82 C83 1.477 . S
C82 H102 0.931 . S
C83 C79 1.460 . S
C83 C82 1.477 . S
C83 H103 0.930 . S
C84 N80 1.362 . S
C84 C81 1.431 . S
C84 C94 1.476 . S
H85 C79 0.929 . S
C86 O77 1.250 . S
C86 O78 1.258 . S
O87 Mn72 2.162 . S
O87 C75 1.281 . S
O88 Mn72 2.297 . S
O88 C75 1.236 . S
N89 Mn73 2.282 . S
N89 C90 1.328 . S
N89 C94 1.318 . S
C90 N89 1.328 . S
C90 C91 1.457 . S
C90 H95 0.929 . S
C91 C90 1.457 . S
C91 C92 1.291 . S
C91 H104 0.931 . S
C92 C91 1.291 . S
C92 C93 1.373 . S
C92 H105 0.929 . S
C93 C92 1.373 . S
C93 C94 1.396 . S
C93 C100 1.403 . S
C94 C84 1.476 . S
C94 N89 1.318 . S
C94 C93 1.396 . S
H95 C90 0.929 . S
O96 Mn72 2.385 . S
O96 C74 1.234 . S
O97 Mn72 2.209 . S
O97 Mn73 2.215 . S
O97 C74 1.283 . S
O98 Mn72 2.094 . S
O98 C76 1.240 . S
O99 Mn73 2.117 . S
O99 C76 1.264 . S
C100 C93 1.403 . S
C100 C101 1.399 . S
C100 H106 0.929 . S
C101 C81 1.449 . S
C101 C100 1.399 . S
C101 H107 0.930 . S
H102 C82 0.931 . S
H103 C83 0.930 . S
H104 C91 0.931 . S
H105 C92 0.929 . S
H106 C100 0.929 . S
H107 C101 0.930 . S
Mn108 O113 2.095 . S
Mn108 O123 2.162 . S
Mn108 O124 2.297 . S
Mn108 O132 2.385 . S
Mn108 O133 2.209 . S
Mn108 O134 2.094 . S
Mn109 O114 2.121 . S
Mn109 N116 2.257 . S
Mn109 N125 2.282 . S
Mn109 O133 2.215 . S
Mn109 O135 2.117 . S
C110 O132 1.234 . S
C110 O133 1.283 . S
C111 O123 1.281 . S
C111 O124 1.236 . S
C112 O134 1.240 . S
C112 O135 1.264 . S
O113 Mn108 2.095 . S
O113 C122 1.250 . S
O114 Mn109 2.121 . S
O114 C122 1.258 . S
C115 N116 1.326 . S
C115 C119 1.460 . S
C115 H121 0.929 . S
N116 Mn109 2.257 . S
N116 C115 1.326 . S
N116 C120 1.362 . S
C117 C118 1.258 . S
C117 C120 1.431 . S
C117 C137 1.449 . S
C118 C117 1.258 . S
C118 C119 1.477 . S
C118 H138 0.931 . S
C119 C115 1.460 . S
C119 C118 1.477 . S
C119 H139 0.930 . S
C120 N116 1.362 . S
C120 C117 1.431 . S
C120 C130 1.476 . S
H121 C115 0.929 . S
C122 O113 1.250 . S
C122 O114 1.258 . S
O123 Mn108 2.162 . S
O123 C111 1.281 . S
O124 Mn108 2.297 . S
O124 C111 1.236 . S
N125 Mn109 2.282 . S
N125 C126 1.328 . S
N125 C130 1.318 . S
C126 N125 1.328 . S
C126 C127 1.457 . S
C126 H131 0.929 . S
C127 C126 1.457 . S
C127 C128 1.291 . S
C127 H140 0.931 . S
C128 C127 1.291 . S
C128 C129 1.373 . S
C128 H141 0.929 . S
C129 C128 1.373 . S
C129 C130 1.396 . S
C129 C136 1.403 . S
C130 C120 1.476 . S
C130 N125 1.318 . S
C130 C129 1.396 . S
H131 C126 0.929 . S
O132 Mn108 2.385 . S
O132 C110 1.234 . S
O133 Mn108 2.209 . S
O133 Mn109 2.215 . S
O133 C110 1.283 . S
O134 Mn108 2.094 . S
O134 C112 1.240 . S
O135 Mn109 2.117 . S
O135 C112 1.264 . S
C136 C129 1.403 . S
C136 C137 1.399 . S
C136 H142 0.929 . S
C137 C117 1.449 . S
C137 C136 1.399 . S
C137 H143 0.930 . S
H138 C118 0.931 . S
H139 C119 0.930 . S
H140 C127 0.931 . S
H141 C128 0.929 . S
H142 C136 0.929 . S
H143 C137 0.930 . S
Mn144 O149 2.095 . S
Mn144 O159 2.162 . S
Mn144 O160 2.297 . S
Mn144 O168 2.385 . S
Mn144 O169 2.209 . S
Mn144 O170 2.094 . S
Mn145 O150 2.121 . S
Mn145 N152 2.257 . S
Mn145 N161 2.282 . S
Mn145 O169 2.215 . S
Mn145 O171 2.117 . S
C146 O168 1.234 . S
C146 O169 1.283 . S
C147 O159 1.281 . S
C147 O160 1.236 . S
C148 O170 1.240 . S
C148 O171 1.264 . S
O149 Mn144 2.095 . S
O149 C158 1.250 . S
O150 Mn145 2.121 . S
O150 C158 1.258 . S
C151 N152 1.326 . S
C151 C155 1.460 . S
C151 H157 0.929 . S
N152 Mn145 2.257 . S
N152 C151 1.326 . S
N152 C156 1.362 . S
C153 C154 1.258 . S
C153 C156 1.431 . S
C153 C173 1.449 . S
C154 C153 1.258 . S
C154 C155 1.477 . S
C154 H174 0.931 . S
C155 C151 1.460 . S
C155 C154 1.477 . S
C155 H175 0.930 . S
C156 N152 1.362 . S
C156 C153 1.431 . S
C156 C166 1.476 . S
H157 C151 0.929 . S
C158 O149 1.250 . S
C158 O150 1.258 . S
O159 Mn144 2.162 . S
O159 C147 1.281 . S
O160 Mn144 2.297 . S
O160 C147 1.236 . S
N161 Mn145 2.282 . S
N161 C162 1.328 . S
N161 C166 1.318 . S
C162 N161 1.328 . S
C162 C163 1.457 . S
C162 H167 0.929 . S
C163 C162 1.457 . S
C163 C164 1.291 . S
C163 H176 0.931 . S
C164 C163 1.291 . S
C164 C165 1.373 . S
C164 H177 0.929 . S
C165 C164 1.373 . S
C165 C166 1.396 . S
C165 C172 1.403 . S
C166 C156 1.476 . S
C166 N161 1.318 . S
C166 C165 1.396 . S
H167 C162 0.929 . S
O168 Mn144 2.385 . S
O168 C146 1.234 . S
O169 Mn144 2.209 . S
O169 Mn145 2.215 . S
O169 C146 1.283 . S
O170 Mn144 2.094 . S
O170 C148 1.240 . S
O171 Mn145 2.117 . S
O171 C148 1.264 . S
C172 C165 1.403 . S
C172 C173 1.399 . S
C172 H178 0.929 . S
C173 C153 1.449 . S
C173 C172 1.399 . S
C173 H179 0.930 . S
H174 C154 0.931 . S
H175 C155 0.930 . S
H176 C163 0.931 . S
H177 C164 0.929 . S
H178 C172 0.929 . S
H179 C173 0.930 . S
Mn180 O185 2.095 . S
Mn180 O195 2.162 . S
Mn180 O196 2.297 . S
Mn180 O204 2.385 . S
Mn180 O205 2.209 . S
Mn180 O206 2.094 . S
Mn181 O186 2.121 . S
Mn181 N188 2.257 . S
Mn181 N197 2.282 . S
Mn181 O205 2.215 . S
Mn181 O207 2.117 . S
C182 O204 1.234 . S
C182 O205 1.283 . S
C183 O195 1.281 . S
C183 O196 1.236 . S
C184 O206 1.240 . S
C184 O207 1.264 . S
O185 Mn180 2.095 . S
O185 C194 1.250 . S
O186 Mn181 2.121 . S
O186 C194 1.258 . S
C187 N188 1.326 . S
C187 C191 1.460 . S
C187 H193 0.929 . S
N188 Mn181 2.257 . S
N188 C187 1.326 . S
N188 C192 1.362 . S
C189 C190 1.258 . S
C189 C192 1.431 . S
C189 C209 1.449 . S
C190 C189 1.258 . S
C190 C191 1.477 . S
C190 H210 0.931 . S
C191 C187 1.460 . S
C191 C190 1.477 . S
C191 H211 0.930 . S
C192 N188 1.362 . S
C192 C189 1.431 . S
C192 C202 1.476 . S
H193 C187 0.929 . S
C194 O185 1.250 . S
C194 O186 1.258 . S
O195 Mn180 2.162 . S
O195 C183 1.281 . S
O196 Mn180 2.297 . S
O196 C183 1.236 . S
N197 Mn181 2.282 . S
N197 C198 1.328 . S
N197 C202 1.318 . S
C198 N197 1.328 . S
C198 C199 1.457 . S
C198 H203 0.929 . S
C199 C198 1.457 . S
C199 C200 1.291 . S
C199 H212 0.931 . S
C200 C199 1.291 . S
C200 C201 1.373 . S
C200 H213 0.929 . S
C201 C200 1.373 . S
C201 C202 1.396 . S
C201 C208 1.403 . S
C202 C192 1.476 . S
C202 N197 1.318 . S
C202 C201 1.396 . S
H203 C198 0.929 . S
O204 Mn180 2.385 . S
O204 C182 1.234 . S
O205 Mn180 2.209 . S
O205 Mn181 2.215 . S
O205 C182 1.283 . S
O206 Mn180 2.094 . S
O206 C184 1.240 . S
O207 Mn181 2.117 . S
O207 C184 1.264 . S
C208 C201 1.403 . S
C208 C209 1.399 . S
C208 H214 0.929 . S
C209 C189 1.449 . S
C209 C208 1.399 . S
C209 H215 0.930 . S
H210 C190 0.931 . S
H211 C191 0.930 . S
H212 C199 0.931 . S
H213 C200 0.929 . S
H214 C208 0.929 . S
H215 C209 0.930 . S
Mn216 O221 2.095 . S
Mn216 O231 2.162 . S
Mn216 O232 2.297 . S
Mn216 O240 2.385 . S
Mn216 O241 2.209 . S
Mn216 O242 2.094 . S
Mn217 O222 2.121 . S
Mn217 N224 2.257 . S
Mn217 N233 2.282 . S
Mn217 O241 2.215 . S
Mn217 O243 2.117 . S
C218 O240 1.234 . S
C218 O241 1.283 . S
C219 O231 1.281 . S
C219 O232 1.236 . S
C220 O242 1.240 . S
C220 O243 1.264 . S
O221 Mn216 2.095 . S
O221 C230 1.250 . S
O222 Mn217 2.121 . S
O222 C230 1.258 . S
C223 N224 1.326 . S
C223 C227 1.460 . S
C223 H229 0.929 . S
N224 Mn217 2.257 . S
N224 C223 1.326 . S
N224 C228 1.362 . S
C225 C226 1.258 . S
C225 C228 1.431 . S
C225 C245 1.449 . S
C226 C225 1.258 . S
C226 C227 1.477 . S
C226 H246 0.931 . S
C227 C223 1.460 . S
C227 C226 1.477 . S
C227 H247 0.930 . S
C228 N224 1.362 . S
C228 C225 1.431 . S
C228 C238 1.476 . S
H229 C223 0.929 . S
C230 O221 1.250 . S
C230 O222 1.258 . S
O231 Mn216 2.162 . S
O231 C219 1.281 . S
O232 Mn216 2.297 . S
O232 C219 1.236 . S
N233 Mn217 2.282 . S
N233 C234 1.328 . S
N233 C238 1.318 . S
C234 N233 1.328 . S
C234 C235 1.457 . S
C234 H239 0.929 . S
C235 C234 1.457 . S
C235 C236 1.291 . S
C235 H248 0.931 . S
C236 C235 1.291 . S
C236 C237 1.373 . S
C236 H249 0.929 . S
C237 C236 1.373 . S
C237 C238 1.396 . S
C237 C244 1.403 . S
C238 C228 1.476 . S
C238 N233 1.318 . S
C238 C237 1.396 . S
H239 C234 0.929 . S
O240 Mn216 2.385 . S
O240 C218 1.234 . S
O241 Mn216 2.209 . S
O241 Mn217 2.215 . S
O241 C218 1.283 . S
O242 Mn216 2.094 . S
O242 C220 1.240 . S
O243 Mn217 2.117 . S
O243 C220 1.264 . S
C244 C237 1.403 . S
C244 C245 1.399 . S
C244 H250 0.929 . S
C245 C225 1.449 . S
C245 C244 1.399 . S
C245 H251 0.930 . S
H246 C226 0.931 . S
H247 C227 0.930 . S
H248 C235 0.931 . S
H249 C236 0.929 . S
H250 C244 0.929 . S
H251 C245 0.930 . S
Mn252 O257 2.095 . S
Mn252 O267 2.162 . S
Mn252 O268 2.297 . S
Mn252 O276 2.385 . S
Mn252 O277 2.209 . S
Mn252 O278 2.094 . S
Mn253 O258 2.121 . S
Mn253 N260 2.257 . S
Mn253 N269 2.282 . S
Mn253 O277 2.215 . S
Mn253 O279 2.117 . S
C254 O276 1.234 . S
C254 O277 1.283 . S
C255 O267 1.281 . S
C255 O268 1.236 . S
C256 O278 1.240 . S
C256 O279 1.264 . S
O257 Mn252 2.095 . S
O257 C266 1.250 . S
O258 Mn253 2.121 . S
O258 C266 1.258 . S
C259 N260 1.326 . S
C259 C263 1.460 . S
C259 H265 0.929 . S
N260 Mn253 2.257 . S
N260 C259 1.326 . S
N260 C264 1.362 . S
C261 C262 1.258 . S
C261 C264 1.431 . S
C261 C281 1.449 . S
C262 C261 1.258 . S
C262 C263 1.477 . S
C262 H282 0.931 . S
C263 C259 1.460 . S
C263 C262 1.477 . S
C263 H283 0.930 . S
C264 N260 1.362 . S
C264 C261 1.431 . S
C264 C274 1.476 . S
H265 C259 0.929 . S
C266 O257 1.250 . S
C266 O258 1.258 . S
O267 Mn252 2.162 . S
O267 C255 1.281 . S
O268 Mn252 2.297 . S
O268 C255 1.236 . S
N269 Mn253 2.282 . S
N269 C270 1.328 . S
N269 C274 1.318 . S
C270 N269 1.328 . S
C270 C271 1.457 . S
C270 H275 0.929 . S
C271 C270 1.457 . S
C271 C272 1.291 . S
C271 H284 0.931 . S
C272 C271 1.291 . S
C272 C273 1.373 . S
C272 H285 0.929 . S
C273 C272 1.373 . S
C273 C274 1.396 . S
C273 C280 1.403 . S
C274 C264 1.476 . S
C274 N269 1.318 . S
C274 C273 1.396 . S
H275 C270 0.929 . S
O276 Mn252 2.385 . S
O276 C254 1.234 . S
O277 Mn252 2.209 . S
O277 Mn253 2.215 . S
O277 C254 1.283 . S
O278 Mn252 2.094 . S
O278 C256 1.240 . S
O279 Mn253 2.117 . S
O279 C256 1.264 . S
C280 C273 1.403 . S
C280 C281 1.399 . S
C280 H286 0.929 . S
C281 C261 1.449 . S
C281 C280 1.399 . S
C281 H287 0.930 . S
H282 C262 0.931 . S
H283 C263 0.930 . S
H284 C271 0.931 . S
H285 C272 0.929 . S
H286 C280 0.929 . S
H287 C281 0.930 . S
Mn288 O293 2.095 . S
Mn288 O303 2.162 . S
Mn288 O304 2.297 . S
Mn288 O312 2.385 . S
Mn288 O313 2.209 . S
Mn288 O314 2.094 . S
Mn289 O294 2.121 . S
Mn289 N296 2.257 . S
Mn289 N305 2.282 . S
Mn289 O313 2.215 . S
Mn289 O315 2.117 . S
C290 O312 1.234 . S
C290 O313 1.283 . S
C291 O303 1.281 . S
C291 O304 1.236 . S
C292 O314 1.240 . S
C292 O315 1.264 . S
O293 Mn288 2.095 . S
O293 C302 1.250 . S
O294 Mn289 2.121 . S
O294 C302 1.258 . S
C295 N296 1.326 . S
C295 C299 1.460 . S
C295 H301 0.929 . S
N296 Mn289 2.257 . S
N296 C295 1.326 . S
N296 C300 1.362 . S
C297 C298 1.258 . S
C297 C300 1.431 . S
C297 C317 1.449 . S
C298 C297 1.258 . S
C298 C299 1.477 . S
C298 H318 0.931 . S
C299 C295 1.460 . S
C299 C298 1.477 . S
C299 H319 0.930 . S
C300 N296 1.362 . S
C300 C297 1.431 . S
C300 C310 1.476 . S
H301 C295 0.929 . S
C302 O293 1.250 . S
C302 O294 1.258 . S
O303 Mn288 2.162 . S
O303 C291 1.281 . S
O304 Mn288 2.297 . S
O304 C291 1.236 . S
N305 Mn289 2.282 . S
N305 C306 1.328 . S
N305 C310 1.318 . S
C306 N305 1.328 . S
C306 C307 1.457 . S
C306 H311 0.929 . S
C307 C306 1.457 . S
C307 C308 1.291 . S
C307 H320 0.931 . S
C308 C307 1.291 . S
C308 C309 1.373 . S
C308 H321 0.929 . S
C309 C308 1.373 . S
C309 C310 1.396 . S
C309 C316 1.403 . S
C310 C300 1.476 . S
C310 N305 1.318 . S
C310 C309 1.396 . S
H311 C306 0.929 . S
O312 Mn288 2.385 . S
O312 C290 1.234 . S
O313 Mn288 2.209 . S
O313 Mn289 2.215 . S
O313 C290 1.283 . S
O314 Mn288 2.094 . S
O314 C292 1.240 . S
O315 Mn289 2.117 . S
O315 C292 1.264 . S
C316 C309 1.403 . S
C316 C317 1.399 . S
C316 H322 0.929 . S
C317 C297 1.449 . S
C317 C316 1.399 . S
C317 H323 0.930 . S
H318 C298 0.931 . S
H319 C299 0.930 . S
H320 C307 0.931 . S
H321 C308 0.929 . S
H322 C316 0.929 . S
H323 C317 0.930 . S
Mn324 O329 2.095 . S
Mn324 O339 2.162 . S
Mn324 O340 2.297 . S
Mn324 O348 2.385 . S
Mn324 O349 2.209 . S
Mn324 O350 2.094 . S
Mn325 O330 2.121 . S
Mn325 N332 2.257 . S
Mn325 N341 2.282 . S
Mn325 O349 2.215 . S
Mn325 O351 2.117 . S
C326 O348 1.234 . S
C326 O349 1.283 . S
C327 O339 1.281 . S
C327 O340 1.236 . S
C328 O350 1.240 . S
C328 O351 1.264 . S
O329 Mn324 2.095 . S
O329 C338 1.250 . S
O330 Mn325 2.121 . S
O330 C338 1.258 . S
C331 N332 1.326 . S
C331 C335 1.460 . S
C331 H337 0.929 . S
N332 Mn325 2.257 . S
N332 C331 1.326 . S
N332 C336 1.362 . S
C333 C334 1.258 . S
C333 C336 1.431 . S
C333 C353 1.449 . S
C334 C333 1.258 . S
C334 C335 1.477 . S
C334 H354 0.931 . S
C335 C331 1.460 . S
C335 C334 1.477 . S
C335 H355 0.930 . S
C336 N332 1.362 . S
C336 C333 1.431 . S
C336 C346 1.476 . S
H337 C331 0.929 . S
C338 O329 1.250 . S
C338 O330 1.258 . S
O339 Mn324 2.162 . S
O339 C327 1.281 . S
O340 Mn324 2.297 . S
O340 C327 1.236 . S
N341 Mn325 2.282 . S
N341 C342 1.328 . S
N341 C346 1.318 . S
C342 N341 1.328 . S
C342 C343 1.457 . S
C342 H347 0.929 . S
C343 C342 1.457 . S
C343 C344 1.291 . S
C343 H356 0.931 . S
C344 C343 1.291 . S
C344 C345 1.373 . S
C344 H357 0.929 . S
C345 C344 1.373 . S
C345 C346 1.396 . S
C345 C352 1.403 . S
C346 C336 1.476 . S
C346 N341 1.318 . S
C346 C345 1.396 . S
H347 C342 0.929 . S
O348 Mn324 2.385 . S
O348 C326 1.234 . S
O349 Mn324 2.209 . S
O349 Mn325 2.215 . S
O349 C326 1.283 . S
O350 Mn324 2.094 . S
O350 C328 1.240 . S
O351 Mn325 2.117 . S
O351 C328 1.264 . S
C352 C345 1.403 . S
C352 C353 1.399 . S
C352 H358 0.929 . S
C353 C333 1.449 . S
C353 C352 1.399 . S
C353 H359 0.930 . S
H354 C334 0.931 . S
H355 C335 0.930 . S
H356 C343 0.931 . S
H357 C344 0.929 . S
H358 C352 0.929 . S
H359 C353 0.930 . S
Mn360 O365 2.095 . S
Mn360 O375 2.162 . S
Mn360 O376 2.297 . S
Mn360 O384 2.385 . S
Mn360 O385 2.209 . S
Mn360 O386 2.094 . S
Mn361 O366 2.121 . S
Mn361 N368 2.257 . S
Mn361 N377 2.282 . S
Mn361 O385 2.215 . S
Mn361 O387 2.117 . S
C362 O384 1.234 . S
C362 O385 1.283 . S
C363 O375 1.281 . S
C363 O376 1.236 . S
C364 O386 1.240 . S
C364 O387 1.264 . S
O365 Mn360 2.095 . S
O365 C374 1.250 . S
O366 Mn361 2.121 . S
O366 C374 1.258 . S
C367 N368 1.326 . S
C367 C371 1.460 . S
C367 H373 0.929 . S
N368 Mn361 2.257 . S
N368 C367 1.326 . S
N368 C372 1.362 . S
C369 C370 1.258 . S
C369 C372 1.431 . S
C369 C389 1.449 . S
C370 C369 1.258 . S
C370 C371 1.477 . S
C370 H390 0.931 . S
C371 C367 1.460 . S
C371 C370 1.477 . S
C371 H391 0.930 . S
C372 N368 1.362 . S
C372 C369 1.431 . S
C372 C382 1.476 . S
H373 C367 0.929 . S
C374 O365 1.250 . S
C374 O366 1.258 . S
O375 Mn360 2.162 . S
O375 C363 1.281 . S
O376 Mn360 2.297 . S
O376 C363 1.236 . S
N377 Mn361 2.282 . S
N377 C378 1.328 . S
N377 C382 1.318 . S
C378 N377 1.328 . S
C378 C379 1.457 . S
C378 H383 0.929 . S
C379 C378 1.457 . S
C379 C380 1.291 . S
C379 H392 0.931 . S
C380 C379 1.291 . S
C380 C381 1.373 . S
C380 H393 0.929 . S
C381 C380 1.373 . S
C381 C382 1.396 . S
C381 C388 1.403 . S
C382 C372 1.476 . S
C382 N377 1.318 . S
C382 C381 1.396 . S
H383 C378 0.929 . S
O384 Mn360 2.385 . S
O384 C362 1.234 . S
O385 Mn360 2.209 . S
O385 Mn361 2.215 . S
O385 C362 1.283 . S
O386 Mn360 2.094 . S
O386 C364 1.240 . S
O387 Mn361 2.117 . S
O387 C364 1.264 . S
C388 C381 1.403 . S
C388 C389 1.399 . S
C388 H394 0.929 . S
C389 C369 1.449 . S
C389 C388 1.399 . S
C389 H395 0.930 . S
H390 C370 0.931 . S
H391 C371 0.930 . S
H392 C379 0.931 . S
H393 C380 0.929 . S
H394 C388 0.929 . S
H395 C389 0.930 . S
Mn396 O401 2.095 . S
Mn396 O411 2.162 . S
Mn396 O412 2.297 . S
Mn396 O420 2.385 . S
Mn396 O421 2.209 . S
Mn396 O422 2.094 . S
Mn397 O402 2.121 . S
Mn397 N404 2.257 . S
Mn397 N413 2.282 . S
Mn397 O421 2.215 . S
Mn397 O423 2.117 . S
C398 O420 1.234 . S
C398 O421 1.283 . S
C399 O411 1.281 . S
C399 O412 1.236 . S
C400 O422 1.240 . S
C400 O423 1.264 . S
O401 Mn396 2.095 . S
O401 C410 1.250 . S
O402 Mn397 2.121 . S
O402 C410 1.258 . S
C403 N404 1.326 . S
C403 C407 1.460 . S
C403 H409 0.929 . S
N404 Mn397 2.257 . S
N404 C403 1.326 . S
N404 C408 1.362 . S
C405 C406 1.258 . S
C405 C408 1.431 . S
C405 C425 1.449 . S
C406 C405 1.258 . S
C406 C407 1.477 . S
C406 H426 0.931 . S
C407 C403 1.460 . S
C407 C406 1.477 . S
C407 H427 0.930 . S
C408 N404 1.362 . S
C408 C405 1.431 . S
C408 C418 1.476 . S
H409 C403 0.929 . S
C410 O401 1.250 . S
C410 O402 1.258 . S
O411 Mn396 2.162 . S
O411 C399 1.281 . S
O412 Mn396 2.297 . S
O412 C399 1.236 . S
N413 Mn397 2.282 . S
N413 C414 1.328 . S
N413 C418 1.318 . S
C414 N413 1.328 . S
C414 C415 1.457 . S
C414 H419 0.929 . S
C415 C414 1.457 . S
C415 C416 1.291 . S
C415 H428 0.931 . S
C416 C415 1.291 . S
C416 C417 1.373 . S
C416 H429 0.929 . S
C417 C416 1.373 . S
C417 C418 1.396 . S
C417 C424 1.403 . S
C418 C408 1.476 . S
C418 N413 1.318 . S
C418 C417 1.396 . S
H419 C414 0.929 . S
O420 Mn396 2.385 . S
O420 C398 1.234 . S
O421 Mn396 2.209 . S
O421 Mn397 2.215 . S
O421 C398 1.283 . S
O422 Mn396 2.094 . S
O422 C400 1.240 . S
O423 Mn397 2.117 . S
O423 C400 1.264 . S
C424 C417 1.403 . S
C424 C425 1.399 . S
C424 H430 0.929 . S
C425 C405 1.449 . S
C425 C424 1.399 . S
C425 H431 0.930 . S
H426 C406 0.931 . S
H427 C407 0.930 . S
H428 C415 0.931 . S
H429 C416 0.929 . S
H430 C424 0.929 . S
H431 C425 0.930 . S
Mn432 O437 2.095 . S
Mn432 O447 2.162 . S
Mn432 O448 2.297 . S
Mn432 O456 2.385 . S
Mn432 O457 2.209 . S
Mn432 O458 2.094 . S
Mn433 O438 2.121 . S
Mn433 N440 2.257 . S
Mn433 N449 2.282 . S
Mn433 O457 2.215 . S
Mn433 O459 2.117 . S
C434 O456 1.234 . S
C434 O457 1.283 . S
C435 O447 1.281 . S
C435 O448 1.236 . S
C436 O458 1.240 . S
C436 O459 1.264 . S
O437 Mn432 2.095 . S
O437 C446 1.250 . S
O438 Mn433 2.121 . S
O438 C446 1.258 . S
C439 N440 1.326 . S
C439 C443 1.460 . S
C439 H445 0.929 . S
N440 Mn433 2.257 . S
N440 C439 1.326 . S
N440 C444 1.362 . S
C441 C442 1.258 . S
C441 C444 1.431 . S
C441 C461 1.449 . S
C442 C441 1.258 . S
C442 C443 1.477 . S
C442 H462 0.931 . S
C443 C439 1.460 . S
C443 C442 1.477 . S
C443 H463 0.930 . S
C444 N440 1.362 . S
C444 C441 1.431 . S
C444 C454 1.476 . S
H445 C439 0.929 . S
C446 O437 1.250 . S
C446 O438 1.258 . S
O447 Mn432 2.162 . S
O447 C435 1.281 . S
O448 Mn432 2.297 . S
O448 C435 1.236 . S
N449 Mn433 2.282 . S
N449 C450 1.328 . S
N449 C454 1.318 . S
C450 N449 1.328 . S
C450 C451 1.457 . S
C450 H455 0.929 . S
C451 C450 1.457 . S
C451 C452 1.291 . S
C451 H464 0.931 . S
C452 C451 1.291 . S
C452 C453 1.373 . S
C452 H465 0.929 . S
C453 C452 1.373 . S
C453 C454 1.396 . S
C453 C460 1.403 . S
C454 C444 1.476 . S
C454 N449 1.318 . S
C454 C453 1.396 . S
H455 C450 0.929 . S
O456 Mn432 2.385 . S
O456 C434 1.234 . S
O457 Mn432 2.209 . S
O457 Mn433 2.215 . S
O457 C434 1.283 . S
O458 Mn432 2.094 . S
O458 C436 1.240 . S
O459 Mn433 2.117 . S
O459 C436 1.264 . S
C460 C453 1.403 . S
C460 C461 1.399 . S
C460 H466 0.929 . S
C461 C441 1.449 . S
C461 C460 1.399 . S
C461 H467 0.930 . S
H462 C442 0.931 . S
H463 C443 0.930 . S
H464 C451 0.931 . S
H465 C452 0.929 . S
H466 C460 0.929 . S
H467 C461 0.930 . S
Mn468 O473 2.095 . S
Mn468 O483 2.162 . S
Mn468 O484 2.297 . S
Mn468 O492 2.385 . S
Mn468 O493 2.209 . S
Mn468 O494 2.094 . S
Mn469 O474 2.121 . S
Mn469 N476 2.257 . S
Mn469 N485 2.282 . S
Mn469 O493 2.215 . S
Mn469 O495 2.117 . S
C470 O492 1.234 . S
C470 O493 1.283 . S
C471 O483 1.281 . S
C471 O484 1.236 . S
C472 O494 1.240 . S
C472 O495 1.264 . S
O473 Mn468 2.095 . S
O473 C482 1.250 . S
O474 Mn469 2.121 . S
O474 C482 1.258 . S
C475 N476 1.326 . S
C475 C479 1.460 . S
C475 H481 0.929 . S
N476 Mn469 2.257 . S
N476 C475 1.326 . S
N476 C480 1.362 . S
C477 C478 1.258 . S
C477 C480 1.431 . S
C477 C497 1.449 . S
C478 C477 1.258 . S
C478 C479 1.477 . S
C478 H498 0.931 . S
C479 C475 1.460 . S
C479 C478 1.477 . S
C479 H499 0.930 . S
C480 N476 1.362 . S
C480 C477 1.431 . S
C480 C490 1.476 . S
H481 C475 0.929 . S
C482 O473 1.250 . S
C482 O474 1.258 . S
O483 Mn468 2.162 . S
O483 C471 1.281 . S
O484 Mn468 2.297 . S
O484 C471 1.236 . S
N485 Mn469 2.282 . S
N485 C486 1.328 . S
N485 C490 1.318 . S
C486 N485 1.328 . S
C486 C487 1.457 . S
C486 H491 0.929 . S
C487 C486 1.457 . S
C487 C488 1.291 . S
C487 H500 0.931 . S
C488 C487 1.291 . S
C488 C489 1.373 . S
C488 H501 0.929 . S
C489 C488 1.373 . S
C489 C490 1.396 . S
C489 C496 1.403 . S
C490 C480 1.476 . S
C490 N485 1.318 . S
C490 C489 1.396 . S
H491 C486 0.929 . S
O492 Mn468 2.385 . S
O492 C470 1.234 . S
O493 Mn468 2.209 . S
O493 Mn469 2.215 . S
O493 C470 1.283 . S
O494 Mn468 2.094 . S
O494 C472 1.240 . S
O495 Mn469 2.117 . S
O495 C472 1.264 . S
C496 C489 1.403 . S
C496 C497 1.399 . S
C496 H502 0.929 . S
C497 C477 1.449 . S
C497 C496 1.399 . S
C497 H503 0.930 . S
H498 C478 0.931 . S
H499 C479 0.930 . S
H500 C487 0.931 . S
H501 C488 0.929 . S
H502 C496 0.929 . S
H503 C497 0.930 . S
Mn504 O509 2.095 . S
Mn504 O519 2.162 . S
Mn504 O520 2.297 . S
Mn504 O528 2.385 . S
Mn504 O529 2.209 . S
Mn504 O530 2.094 . S
Mn505 O510 2.121 . S
Mn505 N512 2.257 . S
Mn505 N521 2.282 . S
Mn505 O529 2.215 . S
Mn505 O531 2.117 . S
C506 O528 1.234 . S
C506 O529 1.283 . S
C507 O519 1.281 . S
C507 O520 1.236 . S
C508 O530 1.240 . S
C508 O531 1.264 . S
O509 Mn504 2.095 . S
O509 C518 1.250 . S
O510 Mn505 2.121 . S
O510 C518 1.258 . S
C511 N512 1.326 . S
C511 C515 1.460 . S
C511 H517 0.929 . S
N512 Mn505 2.257 . S
N512 C511 1.326 . S
N512 C516 1.362 . S
C513 C514 1.258 . S
C513 C516 1.431 . S
C513 C533 1.449 . S
C514 C513 1.258 . S
C514 C515 1.477 . S
C514 H534 0.931 . S
C515 C511 1.460 . S
C515 C514 1.477 . S
C515 H535 0.930 . S
C516 N512 1.362 . S
C516 C513 1.431 . S
C516 C526 1.476 . S
H517 C511 0.929 . S
C518 O509 1.250 . S
C518 O510 1.258 . S
O519 Mn504 2.162 . S
O519 C507 1.281 . S
O520 Mn504 2.297 . S
O520 C507 1.236 . S
N521 Mn505 2.282 . S
N521 C522 1.328 . S
N521 C526 1.318 . S
C522 N521 1.328 . S
C522 C523 1.457 . S
C522 H527 0.929 . S
C523 C522 1.457 . S
C523 C524 1.291 . S
C523 H536 0.931 . S
C524 C523 1.291 . S
C524 C525 1.373 . S
C524 H537 0.929 . S
C525 C524 1.373 . S
C525 C526 1.396 . S
C525 C532 1.403 . S
C526 C516 1.476 . S
C526 N521 1.318 . S
C526 C525 1.396 . S
H527 C522 0.929 . S
O528 Mn504 2.385 . S
O528 C506 1.234 . S
O529 Mn504 2.209 . S
O529 Mn505 2.215 . S
O529 C506 1.283 . S
O530 Mn504 2.094 . S
O530 C508 1.240 . S
O531 Mn505 2.117 . S
O531 C508 1.264 . S
C532 C525 1.403 . S
C532 C533 1.399 . S
C532 H538 0.929 . S
C533 C513 1.449 . S
C533 C532 1.399 . S
C533 H539 0.930 . S
H534 C514 0.931 . S
H535 C515 0.930 . S
H536 C523 0.931 . S
H537 C524 0.929 . S
H538 C532 0.929 . S
H539 C533 0.930 . S
Mn540 O545 2.095 . S
Mn540 O555 2.162 . S
Mn540 O556 2.297 . S
Mn540 O564 2.385 . S
Mn540 O565 2.209 . S
Mn540 O566 2.094 . S
Mn541 O546 2.121 . S
Mn541 N548 2.257 . S
Mn541 N557 2.282 . S
Mn541 O565 2.215 . S
Mn541 O567 2.117 . S
C542 O564 1.234 . S
C542 O565 1.283 . S
C543 O555 1.281 . S
C543 O556 1.236 . S
C544 O566 1.240 . S
C544 O567 1.264 . S
O545 Mn540 2.095 . S
O545 C554 1.250 . S
O546 Mn541 2.121 . S
O546 C554 1.258 . S
C547 N548 1.326 . S
C547 C551 1.460 . S
C547 H553 0.929 . S
N548 Mn541 2.257 . S
N548 C547 1.326 . S
N548 C552 1.362 . S
C549 C550 1.258 . S
C549 C552 1.431 . S
C549 C569 1.449 . S
C550 C549 1.258 . S
C550 C551 1.477 . S
C550 H570 0.931 . S
C551 C547 1.460 . S
C551 C550 1.477 . S
C551 H571 0.930 . S
C552 N548 1.362 . S
C552 C549 1.431 . S
C552 C562 1.476 . S
H553 C547 0.929 . S
C554 O545 1.250 . S
C554 O546 1.258 . S
O555 Mn540 2.162 . S
O555 C543 1.281 . S
O556 Mn540 2.297 . S
O556 C543 1.236 . S
N557 Mn541 2.282 . S
N557 C558 1.328 . S
N557 C562 1.318 . S
C558 N557 1.328 . S
C558 C559 1.457 . S
C558 H563 0.929 . S
C559 C558 1.457 . S
C559 C560 1.291 . S
C559 H572 0.931 . S
C560 C559 1.291 . S
C560 C561 1.373 . S
C560 H573 0.929 . S
C561 C560 1.373 . S
C561 C562 1.396 . S
C561 C568 1.403 . S
C562 C552 1.476 . S
C562 N557 1.318 . S
C562 C561 1.396 . S
H563 C558 0.929 . S
O564 Mn540 2.385 . S
O564 C542 1.234 . S
O565 Mn540 2.209 . S
O565 Mn541 2.215 . S
O565 C542 1.283 . S
O566 Mn540 2.094 . S
O566 C544 1.240 . S
O567 Mn541 2.117 . S
O567 C544 1.264 . S
C568 C561 1.403 . S
C568 C569 1.399 . S
C568 H574 0.929 . S
C569 C549 1.449 . S
C569 C568 1.399 . S
C569 H575 0.930 . S
H570 C550 0.931 . S
H571 C551 0.930 . S
H572 C559 0.931 . S
H573 C560 0.929 . S
H574 C568 0.929 . S
H575 C569 0.930 . S
Mn576 O581 2.095 . S
Mn576 O591 2.162 . S
Mn576 O592 2.297 . S
Mn576 O600 2.385 . S
Mn576 O601 2.209 . S
Mn576 O602 2.094 . S
Mn577 O582 2.121 . S
Mn577 N584 2.257 . S
Mn577 N593 2.282 . S
Mn577 O601 2.215 . S
Mn577 O603 2.117 . S
C578 O600 1.234 . S
C578 O601 1.283 . S
C579 O591 1.281 . S
C579 O592 1.236 . S
C580 O602 1.240 . S
C580 O603 1.264 . S
O581 Mn576 2.095 . S
O581 C590 1.250 . S
O582 Mn577 2.121 . S
O582 C590 1.258 . S
C583 N584 1.326 . S
C583 C587 1.460 . S
C583 H589 0.929 . S
N584 Mn577 2.257 . S
N584 C583 1.326 . S
N584 C588 1.362 . S
C585 C586 1.258 . S
C585 C588 1.431 . S
C585 C605 1.449 . S
C586 C585 1.258 . S
C586 C587 1.477 . S
C586 H606 0.931 . S
C587 C583 1.460 . S
C587 C586 1.477 . S
C587 H607 0.930 . S
C588 N584 1.362 . S
C588 C585 1.431 . S
C588 C598 1.476 . S
H589 C583 0.929 . S
C590 O581 1.250 . S
C590 O582 1.258 . S
O591 Mn576 2.162 . S
O591 C579 1.281 . S
O592 Mn576 2.297 . S
O592 C579 1.236 . S
N593 Mn577 2.282 . S
N593 C594 1.328 . S
N593 C598 1.318 . S
C594 N593 1.328 . S
C594 C595 1.457 . S
C594 H599 0.929 . S
C595 C594 1.457 . S
C595 C596 1.291 . S
C595 H608 0.931 . S
C596 C595 1.291 . S
C596 C597 1.373 . S
C596 H609 0.929 . S
C597 C596 1.373 . S
C597 C598 1.396 . S
C597 C604 1.403 . S
C598 C588 1.476 . S
C598 N593 1.318 . S
C598 C597 1.396 . S
H599 C594 0.929 . S
O600 Mn576 2.385 . S
O600 C578 1.234 . S
O601 Mn576 2.209 . S
O601 Mn577 2.215 . S
O601 C578 1.283 . S
O602 Mn576 2.094 . S
O602 C580 1.240 . S
O603 Mn577 2.117 . S
O603 C580 1.264 . S
C604 C597 1.403 . S
C604 C605 1.399 . S
C604 H610 0.929 . S
C605 C585 1.449 . S
C605 C604 1.399 . S
C605 H611 0.930 . S
H606 C586 0.931 . S
H607 C587 0.930 . S
H608 C595 0.931 . S
H609 C596 0.929 . S
H610 C604 0.929 . S
H611 C605 0.930 . S
Mn612 O617 2.095 . S
Mn612 O627 2.162 . S
Mn612 O628 2.297 . S
Mn612 O636 2.385 . S
Mn612 O637 2.209 . S
Mn612 O638 2.094 . S
Mn613 O618 2.121 . S
Mn613 N620 2.257 . S
Mn613 N629 2.282 . S
Mn613 O637 2.215 . S
Mn613 O639 2.117 . S
C614 O636 1.234 . S
C614 O637 1.283 . S
C615 O627 1.281 . S
C615 O628 1.236 . S
C616 O638 1.240 . S
C616 O639 1.264 . S
O617 Mn612 2.095 . S
O617 C626 1.250 . S
O618 Mn613 2.121 . S
O618 C626 1.258 . S
C619 N620 1.326 . S
C619 C623 1.460 . S
C619 H625 0.929 . S
N620 Mn613 2.257 . S
N620 C619 1.326 . S
N620 C624 1.362 . S
C621 C622 1.258 . S
C621 C624 1.431 . S
C621 C641 1.449 . S
C622 C621 1.258 . S
C622 C623 1.477 . S
C622 H642 0.931 . S
C623 C619 1.460 . S
C623 C622 1.477 . S
C623 H643 0.930 . S
C624 N620 1.362 . S
C624 C621 1.431 . S
C624 C634 1.476 . S
H625 C619 0.929 . S
C626 O617 1.250 . S
C626 O618 1.258 . S
O627 Mn612 2.162 . S
O627 C615 1.281 . S
O628 Mn612 2.297 . S
O628 C615 1.236 . S
N629 Mn613 2.282 . S
N629 C630 1.328 . S
N629 C634 1.318 . S
C630 N629 1.328 . S
C630 C631 1.457 . S
C630 H635 0.929 . S
C631 C630 1.457 . S
C631 C632 1.291 . S
C631 H644 0.931 . S
C632 C631 1.291 . S
C632 C633 1.373 . S
C632 H645 0.929 . S
C633 C632 1.373 . S
C633 C634 1.396 . S
C633 C640 1.403 . S
C634 C624 1.476 . S
C634 N629 1.318 . S
C634 C633 1.396 . S
H635 C630 0.929 . S
O636 Mn612 2.385 . S
O636 C614 1.234 . S
O637 Mn612 2.209 . S
O637 Mn613 2.215 . S
O637 C614 1.283 . S
O638 Mn612 2.094 . S
O638 C616 1.240 . S
O639 Mn613 2.117 . S
O639 C616 1.264 . S
C640 C633 1.403 . S
C640 C641 1.399 . S
C640 H646 0.929 . S
C641 C621 1.449 . S
C641 C640 1.399 . S
C641 H647 0.930 . S
H642 C622 0.931 . S
H643 C623 0.930 . S
H644 C631 0.931 . S
H645 C632 0.929 . S
H646 C640 0.929 . S
H647 C641 0.930 . S
Mn648 O653 2.095 . S
Mn648 O663 2.162 . S
Mn648 O664 2.297 . S
Mn648 O672 2.385 . S
Mn648 O673 2.209 . S
Mn648 O674 2.094 . S
Mn649 O654 2.121 . S
Mn649 N656 2.257 . S
Mn649 N665 2.282 . S
Mn649 O673 2.215 . S
Mn649 O675 2.117 . S
C650 O672 1.234 . S
C650 O673 1.283 . S
C651 O663 1.281 . S
C651 O664 1.236 . S
C652 O674 1.240 . S
C652 O675 1.264 . S
O653 Mn648 2.095 . S
O653 C662 1.250 . S
O654 Mn649 2.121 . S
O654 C662 1.258 . S
C655 N656 1.326 . S
C655 C659 1.460 . S
C655 H661 0.929 . S
N656 Mn649 2.257 . S
N656 C655 1.326 . S
N656 C660 1.362 . S
C657 C658 1.258 . S
C657 C660 1.431 . S
C657 C677 1.449 . S
C658 C657 1.258 . S
C658 C659 1.477 . S
C658 H678 0.931 . S
C659 C655 1.460 . S
C659 C658 1.477 . S
C659 H679 0.930 . S
C660 N656 1.362 . S
C660 C657 1.431 . S
C660 C670 1.476 . S
H661 C655 0.929 . S
C662 O653 1.250 . S
C662 O654 1.258 . S
O663 Mn648 2.162 . S
O663 C651 1.281 . S
O664 Mn648 2.297 . S
O664 C651 1.236 . S
N665 Mn649 2.282 . S
N665 C666 1.328 . S
N665 C670 1.318 . S
C666 N665 1.328 . S
C666 C667 1.457 . S
C666 H671 0.929 . S
C667 C666 1.457 . S
C667 C668 1.291 . S
C667 H680 0.931 . S
C668 C667 1.291 . S
C668 C669 1.373 . S
C668 H681 0.929 . S
C669 C668 1.373 . S
C669 C670 1.396 . S
C669 C676 1.403 . S
C670 C660 1.476 . S
C670 N665 1.318 . S
C670 C669 1.396 . S
H671 C666 0.929 . S
O672 Mn648 2.385 . S
O672 C650 1.234 . S
O673 Mn648 2.209 . S
O673 Mn649 2.215 . S
O673 C650 1.283 . S
O674 Mn648 2.094 . S
O674 C652 1.240 . S
O675 Mn649 2.117 . S
O675 C652 1.264 . S
C676 C669 1.403 . S
C676 C677 1.399 . S
C676 H682 0.929 . S
C677 C657 1.449 . S
C677 C676 1.399 . S
C677 H683 0.930 . S
H678 C658 0.931 . S
H679 C659 0.930 . S
H680 C667 0.931 . S
H681 C668 0.929 . S
H682 C676 0.929 . S
H683 C677 0.930 . S
Mn684 O689 2.095 . S
Mn684 O699 2.162 . S
Mn684 O700 2.297 . S
Mn684 O708 2.385 . S
Mn684 O709 2.209 . S
Mn684 O710 2.094 . S
Mn685 O690 2.121 . S
Mn685 N692 2.257 . S
Mn685 N701 2.282 . S
Mn685 O709 2.215 . S
Mn685 O711 2.117 . S
C686 O708 1.234 . S
C686 O709 1.283 . S
C687 O699 1.281 . S
C687 O700 1.236 . S
C688 O710 1.240 . S
C688 O711 1.264 . S
O689 Mn684 2.095 . S
O689 C698 1.250 . S
O690 Mn685 2.121 . S
O690 C698 1.258 . S
C691 N692 1.326 . S
C691 C695 1.460 . S
C691 H697 0.929 . S
N692 Mn685 2.257 . S
N692 C691 1.326 . S
N692 C696 1.362 . S
C693 C694 1.258 . S
C693 C696 1.431 . S
C693 C713 1.449 . S
C694 C693 1.258 . S
C694 C695 1.477 . S
C694 H714 0.931 . S
C695 C691 1.460 . S
C695 C694 1.477 . S
C695 H715 0.930 . S
C696 N692 1.362 . S
C696 C693 1.431 . S
C696 C706 1.476 . S
H697 C691 0.929 . S
C698 O689 1.250 . S
C698 O690 1.258 . S
O699 Mn684 2.162 . S
O699 C687 1.281 . S
O700 Mn684 2.297 . S
O700 C687 1.236 . S
N701 Mn685 2.282 . S
N701 C702 1.328 . S
N701 C706 1.318 . S
C702 N701 1.328 . S
C702 C703 1.457 . S
C702 H707 0.929 . S
C703 C702 1.457 . S
C703 C704 1.291 . S
C703 H716 0.931 . S
C704 C703 1.291 . S
C704 C705 1.373 . S
C704 H717 0.929 . S
C705 C704 1.373 . S
C705 C706 1.396 . S
C705 C712 1.403 . S
C706 C696 1.476 . S
C706 N701 1.318 . S
C706 C705 1.396 . S
H707 C702 0.929 . S
O708 Mn684 2.385 . S
O708 C686 1.234 . S
O709 Mn684 2.209 . S
O709 Mn685 2.215 . S
O709 C686 1.283 . S
O710 Mn684 2.094 . S
O710 C688 1.240 . S
O711 Mn685 2.117 . S
O711 C688 1.264 . S
C712 C705 1.403 . S
C712 C713 1.399 . S
C712 H718 0.929 . S
C713 C693 1.449 . S
C713 C712 1.399 . S
C713 H719 0.930 . S
H714 C694 0.931 . S
H715 C695 0.930 . S
H716 C703 0.931 . S
H717 C704 0.929 . S
H718 C712 0.929 . S
H719 C713 0.930 . S
Mn720 O725 2.095 . S
Mn720 O735 2.162 . S
Mn720 O736 2.297 . S
Mn720 O744 2.385 . S
Mn720 O745 2.209 . S
Mn720 O746 2.094 . S
Mn721 O726 2.121 . S
Mn721 N728 2.257 . S
Mn721 N737 2.282 . S
Mn721 O745 2.215 . S
Mn721 O747 2.117 . S
C722 O744 1.234 . S
C722 O745 1.283 . S
C723 O735 1.281 . S
C723 O736 1.236 . S
C724 O746 1.240 . S
C724 O747 1.264 . S
O725 Mn720 2.095 . S
O725 C734 1.250 . S
O726 Mn721 2.121 . S
O726 C734 1.258 . S
C727 N728 1.326 . S
C727 C731 1.460 . S
C727 H733 0.929 . S
N728 Mn721 2.257 . S
N728 C727 1.326 . S
N728 C732 1.362 . S
C729 C730 1.258 . S
C729 C732 1.431 . S
C729 C749 1.449 . S
C730 C729 1.258 . S
C730 C731 1.477 . S
C730 H750 0.931 . S
C731 C727 1.460 . S
C731 C730 1.477 . S
C731 H751 0.930 . S
C732 N728 1.362 . S
C732 C729 1.431 . S
C732 C742 1.476 . S
H733 C727 0.929 . S
C734 O725 1.250 . S
C734 O726 1.258 . S
O735 Mn720 2.162 . S
O735 C723 1.281 . S
O736 Mn720 2.297 . S
O736 C723 1.236 . S
N737 Mn721 2.282 . S
N737 C738 1.328 . S
N737 C742 1.318 . S
C738 N737 1.328 . S
C738 C739 1.457 . S
C738 H743 0.929 . S
C739 C738 1.457 . S
C739 C740 1.291 . S
C739 H752 0.931 . S
C740 C739 1.291 . S
C740 C741 1.373 . S
C740 H753 0.929 . S
C741 C740 1.373 . S
C741 C742 1.396 . S
C741 C748 1.403 . S
C742 C732 1.476 . S
C742 N737 1.318 . S
C742 C741 1.396 . S
H743 C738 0.929 . S
O744 Mn720 2.385 . S
O744 C722 1.234 . S
O745 Mn720 2.209 . S
O745 Mn721 2.215 . S
O745 C722 1.283 . S
O746 Mn720 2.094 . S
O746 C724 1.240 . S
O747 Mn721 2.117 . S
O747 C724 1.264 . S
C748 C741 1.403 . S
C748 C749 1.399 . S
C748 H754 0.929 . S
C749 C729 1.449 . S
C749 C748 1.399 . S
C749 H755 0.930 . S
H750 C730 0.931 . S
H751 C731 0.930 . S
H752 C739 0.931 . S
H753 C740 0.929 . S
H754 C748 0.929 . S
H755 C749 0.930 . S
Mn756 O761 2.095 . S
Mn756 O771 2.162 . S
Mn756 O772 2.297 . S
Mn756 O780 2.385 . S
Mn756 O781 2.209 . S
Mn756 O782 2.094 . S
Mn757 O762 2.121 . S
Mn757 N764 2.257 . S
Mn757 N773 2.282 . S
Mn757 O781 2.215 . S
Mn757 O783 2.117 . S
C758 O780 1.234 . S
C758 O781 1.283 . S
C759 O771 1.281 . S
C759 O772 1.236 . S
C760 O782 1.240 . S
C760 O783 1.264 . S
O761 Mn756 2.095 . S
O761 C770 1.250 . S
O762 Mn757 2.121 . S
O762 C770 1.258 . S
C763 N764 1.326 . S
C763 C767 1.460 . S
C763 H769 0.929 . S
N764 Mn757 2.257 . S
N764 C763 1.326 . S
N764 C768 1.362 . S
C765 C766 1.258 . S
C765 C768 1.431 . S
C765 C785 1.449 . S
C766 C765 1.258 . S
C766 C767 1.477 . S
C766 H786 0.931 . S
C767 C763 1.460 . S
C767 C766 1.477 . S
C767 H787 0.930 . S
C768 N764 1.362 . S
C768 C765 1.431 . S
C768 C778 1.476 . S
H769 C763 0.929 . S
C770 O761 1.250 . S
C770 O762 1.258 . S
O771 Mn756 2.162 . S
O771 C759 1.281 . S
O772 Mn756 2.297 . S
O772 C759 1.236 . S
N773 Mn757 2.282 . S
N773 C774 1.328 . S
N773 C778 1.318 . S
C774 N773 1.328 . S
C774 C775 1.457 . S
C774 H779 0.929 . S
C775 C774 1.457 . S
C775 C776 1.291 . S
C775 H788 0.931 . S
C776 C775 1.291 . S
C776 C777 1.373 . S
C776 H789 0.929 . S
C777 C776 1.373 . S
C777 C778 1.396 . S
C777 C784 1.403 . S
C778 C768 1.476 . S
C778 N773 1.318 . S
C778 C777 1.396 . S
H779 C774 0.929 . S
O780 Mn756 2.385 . S
O780 C758 1.234 . S
O781 Mn756 2.209 . S
O781 Mn757 2.215 . S
O781 C758 1.283 . S
O782 Mn756 2.094 . S
O782 C760 1.240 . S
O783 Mn757 2.117 . S
O783 C760 1.264 . S
C784 C777 1.403 . S
C784 C785 1.399 . S
C784 H790 0.929 . S
C785 C765 1.449 . S
C785 C784 1.399 . S
C785 H791 0.930 . S
H786 C766 0.931 . S
H787 C767 0.930 . S
H788 C775 0.931 . S
H789 C776 0.929 . S
H790 C784 0.929 . S
H791 C785 0.930 . S
Mn792 O797 2.095 . S
Mn792 O807 2.162 . S
Mn792 O808 2.297 . S
Mn792 O816 2.385 . S
Mn792 O817 2.209 . S
Mn792 O818 2.094 . S
Mn793 O798 2.121 . S
Mn793 N800 2.257 . S
Mn793 N809 2.282 . S
Mn793 O817 2.215 . S
Mn793 O819 2.117 . S
C794 O816 1.234 . S
C794 O817 1.283 . S
C795 O807 1.281 . S
C795 O808 1.236 . S
C796 O818 1.240 . S
C796 O819 1.264 . S
O797 Mn792 2.095 . S
O797 C806 1.250 . S
O798 Mn793 2.121 . S
O798 C806 1.258 . S
C799 N800 1.326 . S
C799 C803 1.460 . S
C799 H805 0.929 . S
N800 Mn793 2.257 . S
N800 C799 1.326 . S
N800 C804 1.362 . S
C801 C802 1.258 . S
C801 C804 1.431 . S
C801 C821 1.449 . S
C802 C801 1.258 . S
C802 C803 1.477 . S
C802 H822 0.931 . S
C803 C799 1.460 . S
C803 C802 1.477 . S
C803 H823 0.930 . S
C804 N800 1.362 . S
C804 C801 1.431 . S
C804 C814 1.476 . S
H805 C799 0.929 . S
C806 O797 1.250 . S
C806 O798 1.258 . S
O807 Mn792 2.162 . S
O807 C795 1.281 . S
O808 Mn792 2.297 . S
O808 C795 1.236 . S
N809 Mn793 2.282 . S
N809 C810 1.328 . S
N809 C814 1.318 . S
C810 N809 1.328 . S
C810 C811 1.457 . S
C810 H815 0.929 . S
C811 C810 1.457 . S
C811 C812 1.291 . S
C811 H824 0.931 . S
C812 C811 1.291 . S
C812 C813 1.373 . S
C812 H825 0.929 . S
C813 C812 1.373 . S
C813 C814 1.396 . S
C813 C820 1.403 . S
C814 C804 1.476 . S
C814 N809 1.318 . S
C814 C813 1.396 . S
H815 C810 0.929 . S
O816 Mn792 2.385 . S
O816 C794 1.234 . S
O817 Mn792 2.209 . S
O817 Mn793 2.215 . S
O817 C794 1.283 . S
O818 Mn792 2.094 . S
O818 C796 1.240 . S
O819 Mn793 2.117 . S
O819 C796 1.264 . S
C820 C813 1.403 . S
C820 C821 1.399 . S
C820 H826 0.929 . S
C821 C801 1.449 . S
C821 C820 1.399 . S
C821 H827 0.930 . S
H822 C802 0.931 . S
H823 C803 0.930 . S
H824 C811 0.931 . S
H825 C812 0.929 . S
H826 C820 0.929 . S
H827 C821 0.930 . S
Mn828 O833 2.095 . S
Mn828 O843 2.162 . S
Mn828 O844 2.297 . S
Mn828 O852 2.385 . S
Mn828 O853 2.209 . S
Mn828 O854 2.094 . S
Mn829 O834 2.121 . S
Mn829 N836 2.257 . S
Mn829 N845 2.282 . S
Mn829 O853 2.215 . S
Mn829 O855 2.117 . S
C830 O852 1.234 . S
C830 O853 1.283 . S
C831 O843 1.281 . S
C831 O844 1.236 . S
C832 O854 1.240 . S
C832 O855 1.264 . S
O833 Mn828 2.095 . S
O833 C842 1.250 . S
O834 Mn829 2.121 . S
O834 C842 1.258 . S
C835 N836 1.326 . S
C835 C839 1.460 . S
C835 H841 0.929 . S
N836 Mn829 2.257 . S
N836 C835 1.326 . S
N836 C840 1.362 . S
C837 C838 1.258 . S
C837 C840 1.431 . S
C837 C857 1.449 . S
C838 C837 1.258 . S
C838 C839 1.477 . S
C838 H858 0.931 . S
C839 C835 1.460 . S
C839 C838 1.477 . S
C839 H859 0.930 . S
C840 N836 1.362 . S
C840 C837 1.431 . S
C840 C850 1.476 . S
H841 C835 0.929 . S
C842 O833 1.250 . S
C842 O834 1.258 . S
O843 Mn828 2.162 . S
O843 C831 1.281 . S
O844 Mn828 2.297 . S
O844 C831 1.236 . S
N845 Mn829 2.282 . S
N845 C846 1.328 . S
N845 C850 1.318 . S
C846 N845 1.328 . S
C846 C847 1.457 . S
C846 H851 0.929 . S
C847 C846 1.457 . S
C847 C848 1.291 . S
C847 H860 0.931 . S
C848 C847 1.291 . S
C848 C849 1.373 . S
C848 H861 0.929 . S
C849 C848 1.373 . S
C849 C850 1.396 . S
C849 C856 1.403 . S
C850 C840 1.476 . S
C850 N845 1.318 . S
C850 C849 1.396 . S
H851 C846 0.929 . S
O852 Mn828 2.385 . S
O852 C830 1.234 . S
O853 Mn828 2.209 . S
O853 Mn829 2.215 . S
O853 C830 1.283 . S
O854 Mn828 2.094 . S
O854 C832 1.240 . S
O855 Mn829 2.117 . S
O855 C832 1.264 . S
C856 C849 1.403 . S
C856 C857 1.399 . S
C856 H862 0.929 . S
C857 C837 1.449 . S
C857 C856 1.399 . S
C857 H863 0.930 . S
H858 C838 0.931 . S
H859 C839 0.930 . S
H860 C847 0.931 . S
H861 C848 0.929 . S
H862 C856 0.929 . S
H863 C857 0.930 . S
H864 C876 0.930 . S
H865 C878 0.930 . S
H866 C879 0.930 . S
H867 C883 0.959 . S
H868 C883 0.959 . S
H869 C883 0.961 . S
H870 C884 0.960 . S
H871 C884 0.961 . S
H872 C884 0.959 . S
H873 C887 0.929 . S
H874 C888 0.931 . S
H875 C890 0.930 . S
C876 H864 0.930 . S
C876 C877 1.399 . S
C876 C881 1.399 . S
C877 C876 1.399 . S
C877 C878 1.376 . S
C878 H865 0.930 . S
C878 C877 1.376 . S
C878 C879 1.388 . S
C879 H866 0.930 . S
C879 C878 1.388 . S
C879 C880 1.390 . S
C880 C879 1.390 . S
C880 C881 1.394 . S
C880 C886 1.465 . S
C881 C876 1.399 . S
C881 C880 1.394 . S
C881 C882 1.516 . S
C882 C881 1.516 . S
C882 C883 1.502 . S
C882 C884 1.561 . S
C882 C885 1.526 . S
C883 H867 0.959 . S
C883 H868 0.959 . S
C883 H869 0.961 . S
C883 C882 1.502 . S
C884 H870 0.960 . S
C884 H871 0.961 . S
C884 H872 0.959 . S
C884 C882 1.561 . S
C885 C882 1.526 . S
C885 C886 1.396 . S
C885 C890 1.390 . S
C886 C880 1.465 . S
C886 C885 1.396 . S
C886 C887 1.399 . S
C887 H873 0.929 . S
C887 C886 1.399 . S
C887 C888 1.385 . S
C888 H874 0.931 . S
C888 C887 1.385 . S
C888 C889 1.389 . S
C889 C888 1.389 . S
C889 C890 1.387 . S
C890 H875 0.930 . S
C890 C885 1.390 . S
C890 C889 1.387 . S
H891 C903 0.930 . S
H892 C905 0.930 . S
H893 C906 0.930 . S
H894 C910 0.959 . S
H895 C910 0.959 . S
H896 C910 0.961 . S
H897 C911 0.960 . S
H898 C911 0.961 . S
H899 C911 0.959 . S
H900 C914 0.929 . S
H901 C915 0.931 . S
H902 C917 0.930 . S
C903 H891 0.930 . S
C903 C904 1.399 . S
C903 C908 1.399 . S
C904 C903 1.399 . S
C904 C905 1.376 . S
C905 H892 0.930 . S
C905 C904 1.376 . S
C905 C906 1.388 . S
C906 H893 0.930 . S
C906 C905 1.388 . S
C906 C907 1.390 . S
C907 C906 1.390 . S
C907 C908 1.394 . S
C907 C913 1.465 . S
C908 C903 1.399 . S
C908 C907 1.394 . S
C908 C909 1.516 . S
C909 C908 1.516 . S
C909 C910 1.502 . S
C909 C911 1.561 . S
C909 C912 1.526 . S
C910 H894 0.959 . S
C910 H895 0.959 . S
C910 H896 0.961 . S
C910 C909 1.502 . S
C911 H897 0.960 . S
C911 H898 0.961 . S
C911 H899 0.959 . S
C911 C909 1.561 . S
C912 C909 1.526 . S
C912 C913 1.396 . S
C912 C917 1.390 . S
C913 C907 1.465 . S
C913 C912 1.396 . S
C913 C914 1.399 . S
C914 H900 0.929 . S
C914 C913 1.399 . S
C914 C915 1.385 . S
C915 H901 0.931 . S
C915 C914 1.385 . S
C915 C916 1.389 . S
C916 C915 1.389 . S
C916 C917 1.387 . S
C917 H902 0.930 . S
C917 C912 1.390 . S
C917 C916 1.387 . S
H918 C930 0.930 . S
H919 C932 0.930 . S
H920 C933 0.930 . S
H921 C937 0.959 . S
H922 C937 0.959 . S
H923 C937 0.961 . S
H924 C938 0.960 . S
H925 C938 0.961 . S
H926 C938 0.959 . S
H927 C941 0.929 . S
H928 C942 0.931 . S
H929 C944 0.930 . S
C930 H918 0.930 . S
C930 C931 1.399 . S
C930 C935 1.399 . S
C931 C930 1.399 . S
C931 C932 1.376 . S
C932 H919 0.930 . S
C932 C931 1.376 . S
C932 C933 1.388 . S
C933 H920 0.930 . S
C933 C932 1.388 . S
C933 C934 1.390 . S
C934 C933 1.390 . S
C934 C935 1.394 . S
C934 C940 1.465 . S
C935 C930 1.399 . S
C935 C934 1.394 . S
C935 C936 1.516 . S
C936 C935 1.516 . S
C936 C937 1.502 . S
C936 C938 1.561 . S
C936 C939 1.526 . S
C937 H921 0.959 . S
C937 H922 0.959 . S
C937 H923 0.961 . S
C937 C936 1.502 . S
C938 H924 0.960 . S
C938 H925 0.961 . S
C938 H926 0.959 . S
C938 C936 1.561 . S
C939 C936 1.526 . S
C939 C940 1.396 . S
C939 C944 1.390 . S
C940 C934 1.465 . S
C940 C939 1.396 . S
C940 C941 1.399 . S
C941 H927 0.929 . S
C941 C940 1.399 . S
C941 C942 1.385 . S
C942 H928 0.931 . S
C942 C941 1.385 . S
C942 C943 1.389 . S
C943 C942 1.389 . S
C943 C944 1.387 . S
C944 H929 0.930 . S
C944 C939 1.390 . S
C944 C943 1.387 . S
H945 C957 0.930 . S
H946 C959 0.930 . S
H947 C960 0.930 . S
H948 C964 0.959 . S
H949 C964 0.959 . S
H950 C964 0.961 . S
H951 C965 0.960 . S
H952 C965 0.961 . S
H953 C965 0.959 . S
H954 C968 0.929 . S
H955 C969 0.931 . S
H956 C971 0.930 . S
C957 H945 0.930 . S
C957 C958 1.399 . S
C957 C962 1.399 . S
C958 C957 1.399 . S
C958 C959 1.376 . S
C959 H946 0.930 . S
C959 C958 1.376 . S
C959 C960 1.388 . S
C960 H947 0.930 . S
C960 C959 1.388 . S
C960 C961 1.390 . S
C961 C960 1.390 . S
C961 C962 1.394 . S
C961 C967 1.465 . S
C962 C957 1.399 . S
C962 C961 1.394 . S
C962 C963 1.516 . S
C963 C962 1.516 . S
C963 C964 1.502 . S
C963 C965 1.561 . S
C963 C966 1.526 . S
C964 H948 0.959 . S
C964 H949 0.959 . S
C964 H950 0.961 . S
C964 C963 1.502 . S
C965 H951 0.960 . S
C965 H952 0.961 . S
C965 H953 0.959 . S
C965 C963 1.561 . S
C966 C963 1.526 . S
C966 C967 1.396 . S
C966 C971 1.390 . S
C967 C961 1.465 . S
C967 C966 1.396 . S
C967 C968 1.399 . S
C968 H954 0.929 . S
C968 C967 1.399 . S
C968 C969 1.385 . S
C969 H955 0.931 . S
C969 C968 1.385 . S
C969 C970 1.389 . S
C970 C969 1.389 . S
C970 C971 1.387 . S
C971 H956 0.930 . S
C971 C966 1.390 . S
C971 C970 1.387 . S
H972 C984 0.930 . S
H973 C986 0.930 . S
H974 C987 0.930 . S
H975 C991 0.959 . S
H976 C991 0.959 . S
H977 C991 0.961 . S
H978 C992 0.960 . S
H979 C992 0.961 . S
H980 C992 0.959 . S
H981 C995 0.929 . S
H982 C996 0.931 . S
H983 C998 0.930 . S
C984 H972 0.930 . S
C984 C985 1.399 . S
C984 C989 1.399 . S
C985 C984 1.399 . S
C985 C986 1.376 . S
C986 H973 0.930 . S
C986 C985 1.376 . S
C986 C987 1.388 . S
C987 H974 0.930 . S
C987 C986 1.388 . S
C987 C988 1.390 . S
C988 C987 1.390 . S
C988 C989 1.394 . S
C988 C994 1.465 . S
C989 C984 1.399 . S
C989 C988 1.394 . S
C989 C990 1.516 . S
C990 C989 1.516 . S
C990 C991 1.502 . S
C990 C992 1.561 . S
C990 C993 1.526 . S
C991 H975 0.959 . S
C991 H976 0.959 . S
C991 H977 0.961 . S
C991 C990 1.502 . S
C992 H978 0.960 . S
C992 H979 0.961 . S
C992 H980 0.959 . S
C992 C990 1.561 . S
C993 C990 1.526 . S
C993 C994 1.396 . S
C993 C998 1.390 . S
C994 C988 1.465 . S
C994 C993 1.396 . S
C994 C995 1.399 . S
C995 H981 0.929 . S
C995 C994 1.399 . S
C995 C996 1.385 . S
C996 H982 0.931 . S
C996 C995 1.385 . S
C996 C997 1.389 . S
C997 C996 1.389 . S
C997 C998 1.387 . S
C998 H983 0.930 . S
C998 C993 1.390 . S
C998 C997 1.387 . S
H999 C1011 0.930 . S
H1000 C1013 0.930 . S
H1001 C1014 0.930 . S
H1002 C1018 0.959 . S
H1003 C1018 0.959 . S
H1004 C1018 0.961 . S
H1005 C1019 0.960 . S
H1006 C1019 0.961 . S
H1007 C1019 0.959 . S
H1008 C1022 0.929 . S
H1009 C1023 0.931 . S
H1010 C1025 0.930 . S
C1011 H999 0.930 . S
C1011 C1012 1.399 . S
C1011 C1016 1.399 . S
C1012 C1011 1.399 . S
C1012 C1013 1.376 . S
C1013 H1000 0.930 . S
C1013 C1012 1.376 . S
C1013 C1014 1.388 . S
C1014 H1001 0.930 . S
C1014 C1013 1.388 . S
C1014 C1015 1.390 . S
C1015 C1014 1.390 . S
C1015 C1016 1.394 . S
C1015 C1021 1.465 . S
C1016 C1011 1.399 . S
C1016 C1015 1.394 . S
C1016 C1017 1.516 . S
C1017 C1016 1.516 . S
C1017 C1018 1.502 . S
C1017 C1019 1.561 . S
C1017 C1020 1.526 . S
C1018 H1002 0.959 . S
C1018 H1003 0.959 . S
C1018 H1004 0.961 . S
C1018 C1017 1.502 . S
C1019 H1005 0.960 . S
C1019 H1006 0.961 . S
C1019 H1007 0.959 . S
C1019 C1017 1.561 . S
C1020 C1017 1.526 . S
C1020 C1021 1.396 . S
C1020 C1025 1.390 . S
C1021 C1015 1.465 . S
C1021 C1020 1.396 . S
C1021 C1022 1.399 . S
C1022 H1008 0.929 . S
C1022 C1021 1.399 . S
C1022 C1023 1.385 . S
C1023 H1009 0.931 . S
C1023 C1022 1.385 . S
C1023 C1024 1.389 . S
C1024 C1023 1.389 . S
C1024 C1025 1.387 . S
C1025 H1010 0.930 . S
C1025 C1020 1.390 . S
C1025 C1024 1.387 . S
H1026 C1038 0.930 . S
H1027 C1040 0.930 . S
H1028 C1041 0.930 . S
H1029 C1045 0.959 . S
H1030 C1045 0.959 . S
H1031 C1045 0.961 . S
H1032 C1046 0.960 . S
H1033 C1046 0.961 . S
H1034 C1046 0.959 . S
H1035 C1049 0.929 . S
H1036 C1050 0.931 . S
H1037 C1052 0.930 . S
C1038 H1026 0.930 . S
C1038 C1039 1.399 . S
C1038 C1043 1.399 . S
C1039 C1038 1.399 . S
C1039 C1040 1.376 . S
C1040 H1027 0.930 . S
C1040 C1039 1.376 . S
C1040 C1041 1.388 . S
C1041 H1028 0.930 . S
C1041 C1040 1.388 . S
C1041 C1042 1.390 . S
C1042 C1041 1.390 . S
C1042 C1043 1.394 . S
C1042 C1048 1.465 . S
C1043 C1038 1.399 . S
C1043 C1042 1.394 . S
C1043 C1044 1.516 . S
C1044 C1043 1.516 . S
C1044 C1045 1.502 . S
C1044 C1046 1.561 . S
C1044 C1047 1.526 . S
C1045 H1029 0.959 . S
C1045 H1030 0.959 . S
C1045 H1031 0.961 . S
C1045 C1044 1.502 . S
C1046 H1032 0.960 . S
C1046 H1033 0.961 . S
C1046 H1034 0.959 . S
C1046 C1044 1.561 . S
C1047 C1044 1.526 . S
C1047 C1048 1.396 . S
C1047 C1052 1.390 . S
C1048 C1042 1.465 . S
C1048 C1047 1.396 . S
C1048 C1049 1.399 . S
C1049 H1035 0.929 . S
C1049 C1048 1.399 . S
C1049 C1050 1.385 . S
C1050 H1036 0.931 . S
C1050 C1049 1.385 . S
C1050 C1051 1.389 . S
C1051 C1050 1.389 . S
C1051 C1052 1.387 . S
C1052 H1037 0.930 . S
C1052 C1047 1.390 . S
C1052 C1051 1.387 . S
H1053 C1065 0.930 . S
H1054 C1067 0.930 . S
H1055 C1068 0.930 . S
H1056 C1072 0.959 . S
H1057 C1072 0.959 . S
H1058 C1072 0.961 . S
H1059 C1073 0.960 . S
H1060 C1073 0.961 . S
H1061 C1073 0.959 . S
H1062 C1076 0.929 . S
H1063 C1077 0.931 . S
H1064 C1079 0.930 . S
C1065 H1053 0.930 . S
C1065 C1066 1.399 . S
C1065 C1070 1.399 . S
C1066 C1065 1.399 . S
C1066 C1067 1.376 . S
C1067 H1054 0.930 . S
C1067 C1066 1.376 . S
C1067 C1068 1.388 . S
C1068 H1055 0.930 . S
C1068 C1067 1.388 . S
C1068 C1069 1.390 . S
C1069 C1068 1.390 . S
C1069 C1070 1.394 . S
C1069 C1075 1.465 . S
C1070 C1065 1.399 . S
C1070 C1069 1.394 . S
C1070 C1071 1.516 . S
C1071 C1070 1.516 . S
C1071 C1072 1.502 . S
C1071 C1073 1.561 . S
C1071 C1074 1.526 . S
C1072 H1056 0.959 . S
C1072 H1057 0.959 . S
C1072 H1058 0.961 . S
C1072 C1071 1.502 . S
C1073 H1059 0.960 . S
C1073 H1060 0.961 . S
C1073 H1061 0.959 . S
C1073 C1071 1.561 . S
C1074 C1071 1.526 . S
C1074 C1075 1.396 . S
C1074 C1079 1.390 . S
C1075 C1069 1.465 . S
C1075 C1074 1.396 . S
C1075 C1076 1.399 . S
C1076 H1062 0.929 . S
C1076 C1075 1.399 . S
C1076 C1077 1.385 . S
C1077 H1063 0.931 . S
C1077 C1076 1.385 . S
C1077 C1078 1.389 . S
C1078 C1077 1.389 . S
C1078 C1079 1.387 . S
C1079 H1064 0.930 . S
C1079 C1074 1.390 . S
C1079 C1078 1.387 . S
H1080 C1092 0.930 . S
H1081 C1094 0.930 . S
H1082 C1095 0.930 . S
H1083 C1099 0.959 . S
H1084 C1099 0.959 . S
H1085 C1099 0.961 . S
H1086 C1100 0.960 . S
H1087 C1100 0.961 . S
H1088 C1100 0.959 . S
H1089 C1103 0.929 . S
H1090 C1104 0.931 . S
H1091 C1106 0.930 . S
C1092 H1080 0.930 . S
C1092 C1093 1.399 . S
C1092 C1097 1.399 . S
C1093 C1092 1.399 . S
C1093 C1094 1.376 . S
C1094 H1081 0.930 . S
C1094 C1093 1.376 . S
C1094 C1095 1.388 . S
C1095 H1082 0.930 . S
C1095 C1094 1.388 . S
C1095 C1096 1.390 . S
C1096 C1095 1.390 . S
C1096 C1097 1.394 . S
C1096 C1102 1.465 . S
C1097 C1092 1.399 . S
C1097 C1096 1.394 . S
C1097 C1098 1.516 . S
C1098 C1097 1.516 . S
C1098 C1099 1.502 . S
C1098 C1100 1.561 . S
C1098 C1101 1.526 . S
C1099 H1083 0.959 . S
C1099 H1084 0.959 . S
C1099 H1085 0.961 . S
C1099 C1098 1.502 . S
C1100 H1086 0.960 . S
C1100 H1087 0.961 . S
C1100 H1088 0.959 . S
C1100 C1098 1.561 . S
C1101 C1098 1.526 . S
C1101 C1102 1.396 . S
C1101 C1106 1.390 . S
C1102 C1096 1.465 . S
C1102 C1101 1.396 . S
C1102 C1103 1.399 . S
C1103 H1089 0.929 . S
C1103 C1102 1.399 . S
C1103 C1104 1.385 . S
C1104 H1090 0.931 . S
C1104 C1103 1.385 . S
C1104 C1105 1.389 . S
C1105 C1104 1.389 . S
C1105 C1106 1.387 . S
C1106 H1091 0.930 . S
C1106 C1101 1.390 . S
C1106 C1105 1.387 . S
H1107 C1119 0.930 . S
H1108 C1121 0.930 . S
H1109 C1122 0.930 . S
H1110 C1126 0.959 . S
H1111 C1126 0.959 . S
H1112 C1126 0.961 . S
H1113 C1127 0.960 . S
H1114 C1127 0.961 . S
H1115 C1127 0.959 . S
H1116 C1130 0.929 . S
H1117 C1131 0.931 . S
H1118 C1133 0.930 . S
C1119 H1107 0.930 . S
C1119 C1120 1.399 . S
C1119 C1124 1.399 . S
C1120 C1119 1.399 . S
C1120 C1121 1.376 . S
C1121 H1108 0.930 . S
C1121 C1120 1.376 . S
C1121 C1122 1.388 . S
C1122 H1109 0.930 . S
C1122 C1121 1.388 . S
C1122 C1123 1.390 . S
C1123 C1122 1.390 . S
C1123 C1124 1.394 . S
C1123 C1129 1.465 . S
C1124 C1119 1.399 . S
C1124 C1123 1.394 . S
C1124 C1125 1.516 . S
C1125 C1124 1.516 . S
C1125 C1126 1.502 . S
C1125 C1127 1.561 . S
C1125 C1128 1.526 . S
C1126 H1110 0.959 . S
C1126 H1111 0.959 . S
C1126 H1112 0.961 . S
C1126 C1125 1.502 . S
C1127 H1113 0.960 . S
C1127 H1114 0.961 . S
C1127 H1115 0.959 . S
C1127 C1125 1.561 . S
C1128 C1125 1.526 . S
C1128 C1129 1.396 . S
C1128 C1133 1.390 . S
C1129 C1123 1.465 . S
C1129 C1128 1.396 . S
C1129 C1130 1.399 . S
C1130 H1116 0.929 . S
C1130 C1129 1.399 . S
C1130 C1131 1.385 . S
C1131 H1117 0.931 . S
C1131 C1130 1.385 . S
C1131 C1132 1.389 . S
C1132 C1131 1.389 . S
C1132 C1133 1.387 . S
C1133 H1118 0.930 . S
C1133 C1128 1.390 . S
C1133 C1132 1.387 . S
H1134 C1146 0.930 . S
H1135 C1148 0.930 . S
H1136 C1149 0.930 . S
H1137 C1153 0.959 . S
H1138 C1153 0.959 . S
H1139 C1153 0.961 . S
H1140 C1154 0.960 . S
H1141 C1154 0.961 . S
H1142 C1154 0.959 . S
H1143 C1157 0.929 . S
H1144 C1158 0.931 . S
H1145 C1160 0.930 . S
C1146 H1134 0.930 . S
C1146 C1147 1.399 . S
C1146 C1151 1.399 . S
C1147 C1146 1.399 . S
C1147 C1148 1.376 . S
C1148 H1135 0.930 . S
C1148 C1147 1.376 . S
C1148 C1149 1.388 . S
C1149 H1136 0.930 . S
C1149 C1148 1.388 . S
C1149 C1150 1.390 . S
C1150 C1149 1.390 . S
C1150 C1151 1.394 . S
C1150 C1156 1.465 . S
C1151 C1146 1.399 . S
C1151 C1150 1.394 . S
C1151 C1152 1.516 . S
C1152 C1151 1.516 . S
C1152 C1153 1.502 . S
C1152 C1154 1.561 . S
C1152 C1155 1.526 . S
C1153 H1137 0.959 . S
C1153 H1138 0.959 . S
C1153 H1139 0.961 . S
C1153 C1152 1.502 . S
C1154 H1140 0.960 . S
C1154 H1141 0.961 . S
C1154 H1142 0.959 . S
C1154 C1152 1.561 . S
C1155 C1152 1.526 . S
C1155 C1156 1.396 . S
C1155 C1160 1.390 . S
C1156 C1150 1.465 . S
C1156 C1155 1.396 . S
C1156 C1157 1.399 . S
C1157 H1143 0.929 . S
C1157 C1156 1.399 . S
C1157 C1158 1.385 . S
C1158 H1144 0.931 . S
C1158 C1157 1.385 . S
C1158 C1159 1.389 . S
C1159 C1158 1.389 . S
C1159 C1160 1.387 . S
C1160 H1145 0.930 . S
C1160 C1155 1.390 . S
C1160 C1159 1.387 . S
H1161 C1173 0.930 . S
H1162 C1175 0.930 . S
H1163 C1176 0.930 . S
H1164 C1180 0.959 . S
H1165 C1180 0.959 . S
H1166 C1180 0.961 . S
H1167 C1181 0.960 . S
H1168 C1181 0.961 . S
H1169 C1181 0.959 . S
H1170 C1184 0.929 . S
H1171 C1185 0.931 . S
H1172 C1187 0.930 . S
C1173 H1161 0.930 . S
C1173 C1174 1.399 . S
C1173 C1178 1.399 . S
C1174 C1173 1.399 . S
C1174 C1175 1.376 . S
C1175 H1162 0.930 . S
C1175 C1174 1.376 . S
C1175 C1176 1.388 . S
C1176 H1163 0.930 . S
C1176 C1175 1.388 . S
C1176 C1177 1.390 . S
C1177 C1176 1.390 . S
C1177 C1178 1.394 . S
C1177 C1183 1.465 . S
C1178 C1173 1.399 . S
C1178 C1177 1.394 . S
C1178 C1179 1.516 . S
C1179 C1178 1.516 . S
C1179 C1180 1.502 . S
C1179 C1181 1.561 . S
C1179 C1182 1.526 . S
C1180 H1164 0.959 . S
C1180 H1165 0.959 . S
C1180 H1166 0.961 . S
C1180 C1179 1.502 . S
C1181 H1167 0.960 . S
C1181 H1168 0.961 . S
C1181 H1169 0.959 . S
C1181 C1179 1.561 . S
C1182 C1179 1.526 . S
C1182 C1183 1.396 . S
C1182 C1187 1.390 . S
C1183 C1177 1.465 . S
C1183 C1182 1.396 . S
C1183 C1184 1.399 . S
C1184 H1170 0.929 . S
C1184 C1183 1.399 . S
C1184 C1185 1.385 . S
C1185 H1171 0.931 . S
C1185 C1184 1.385 . S
C1185 C1186 1.389 . S
C1186 C1185 1.389 . S
C1186 C1187 1.387 . S
C1187 H1172 0.930 . S
C1187 C1182 1.390 . S
C1187 C1186 1.387 . S
H1188 C1200 0.930 . S
H1189 C1202 0.930 . S
H1190 C1203 0.930 . S
H1191 C1207 0.959 . S
H1192 C1207 0.959 . S
H1193 C1207 0.961 . S
H1194 C1208 0.960 . S
H1195 C1208 0.961 . S
H1196 C1208 0.959 . S
H1197 C1211 0.929 . S
H1198 C1212 0.931 . S
H1199 C1214 0.930 . S
C1200 H1188 0.930 . S
C1200 C1201 1.399 . S
C1200 C1205 1.399 . S
C1201 C1200 1.399 . S
C1201 C1202 1.376 . S
C1202 H1189 0.930 . S
C1202 C1201 1.376 . S
C1202 C1203 1.388 . S
C1203 H1190 0.930 . S
C1203 C1202 1.388 . S
C1203 C1204 1.390 . S
C1204 C1203 1.390 . S
C1204 C1205 1.394 . S
C1204 C1210 1.465 1_556 S
C1205 C1200 1.399 . S
C1205 C1204 1.394 . S
C1205 C1206 1.516 . S
C1206 C1205 1.516 . S
C1206 C1207 1.502 1_556 S
C1206 C1208 1.561 . S
C1206 C1209 1.526 1_556 S
C1207 H1191 0.959 . S
C1207 H1192 0.959 . S
C1207 H1193 0.961 . S
C1207 C1206 1.502 1_554 S
C1208 H1194 0.960 . S
C1208 H1195 0.961 . S
C1208 H1196 0.959 . S
C1208 C1206 1.561 . S
C1209 C1206 1.526 1_554 S
C1209 C1210 1.396 . S
C1209 C1214 1.390 . S
C1210 C1204 1.465 1_554 S
C1210 C1209 1.396 . S
C1210 C1211 1.399 . S
C1211 H1197 0.929 . S
C1211 C1210 1.399 . S
C1211 C1212 1.385 . S
C1212 H1198 0.931 . S
C1212 C1211 1.385 . S
C1212 C1213 1.389 . S
C1213 C1212 1.389 . S
C1213 C1214 1.387 . S
C1214 H1199 0.930 . S
C1214 C1209 1.390 . S
C1214 C1213 1.387 . S
H1215 C1227 0.930 . S
H1216 C1229 0.930 . S
H1217 C1230 0.930 . S
H1218 C1234 0.959 . S
H1219 C1234 0.959 . S
H1220 C1234 0.961 . S
H1221 C1235 0.960 . S
H1222 C1235 0.961 . S
H1223 C1235 0.959 . S
H1224 C1238 0.929 . S
H1225 C1239 0.931 . S
H1226 C1241 0.930 . S
C1227 H1215 0.930 . S
C1227 C1228 1.399 . S
C1227 C1232 1.399 . S
C1228 C1227 1.399 . S
C1228 C1229 1.376 . S
C1229 H1216 0.930 . S
C1229 C1228 1.376 . S
C1229 C1230 1.388 . S
C1230 H1217 0.930 . S
C1230 C1229 1.388 . S
C1230 C1231 1.390 . S
C1231 C1230 1.390 . S
C1231 C1232 1.394 . S
C1231 C1237 1.465 . S
C1232 C1227 1.399 . S
C1232 C1231 1.394 . S
C1232 C1233 1.516 . S
C1233 C1232 1.516 . S
C1233 C1234 1.502 . S
C1233 C1235 1.561 . S
C1233 C1236 1.526 . S
C1234 H1218 0.959 . S
C1234 H1219 0.959 . S
C1234 H1220 0.961 . S
C1234 C1233 1.502 . S
C1235 H1221 0.960 . S
C1235 H1222 0.961 . S
C1235 H1223 0.959 . S
C1235 C1233 1.561 . S
C1236 C1233 1.526 . S
C1236 C1237 1.396 . S
C1236 C1241 1.390 . S
C1237 C1231 1.465 . S
C1237 C1236 1.396 . S
C1237 C1238 1.399 . S
C1238 H1224 0.929 . S
C1238 C1237 1.399 . S
C1238 C1239 1.385 . S
C1239 H1225 0.931 . S
C1239 C1238 1.385 . S
C1239 C1240 1.389 . S
C1240 C1239 1.389 . S
C1240 C1241 1.387 . S
C1241 H1226 0.930 . S
C1241 C1236 1.390 . S
C1241 C1240 1.387 . S
H1242 C1254 0.930 . S
H1243 C1256 0.930 . S
H1244 C1257 0.930 . S
H1245 C1261 0.959 1_554 S
H1246 C1261 0.959 . S
H1247 C1261 0.961 . S
H1248 C1262 0.960 . S
H1249 C1262 0.961 . S
H1250 C1262 0.959 . S
H1251 C1265 0.911 1_554 S
H1252 C1266 0.931 . S
H1253 C1268 0.930 . S
C1254 H1242 0.930 . S
C1254 C1255 1.399 . S
C1254 C1259 1.399 . S
C1255 C1254 1.399 . S
C1255 C1256 1.376 . S
C1256 H1243 0.930 . S
C1256 C1255 1.376 . S
C1256 C1257 1.388 . S
C1257 H1244 0.930 . S
C1257 C1256 1.388 . S
C1257 C1258 1.390 . S
C1258 C1257 1.390 . S
C1258 C1259 1.394 . S
C1258 C1264 1.465 1_554 S
C1259 C1254 1.399 . S
C1259 C1258 1.394 . S
C1259 C1260 1.516 1_554 S
C1260 C1259 1.516 1_556 S
C1260 C1261 1.502 . S
C1260 C1262 1.561 . S
C1260 C1263 1.526 . S
C1261 H1245 0.959 1_556 S
C1261 H1246 0.959 . S
C1261 H1247 0.961 . S
C1261 C1260 1.502 . S
C1262 H1248 0.960 . S
C1262 H1249 0.961 . S
C1262 H1250 0.959 . S
C1262 C1260 1.561 . S
C1263 C1260 1.526 . S
C1263 C1264 1.396 . S
C1263 C1268 1.390 . S
C1264 C1258 1.465 1_556 S
C1264 C1263 1.396 . S
C1264 C1265 1.401 . S
C1265 H1251 0.911 1_556 S
C1265 C1264 1.401 . S
C1265 C1266 1.403 . S
C1266 H1252 0.931 . S
C1266 C1265 1.403 . S
C1266 C1267 1.389 . S
C1267 C1266 1.389 . S
C1267 C1268 1.387 . S
C1268 H1253 0.930 . S
C1268 C1263 1.390 . S
C1268 C1267 1.387 . S
H1269 C1281 0.930 . S
H1270 C1283 0.930 . S
H1271 C1284 0.930 . S
H1272 C1288 0.959 . S
H1273 C1288 0.959 . S
H1274 C1288 0.961 . S
H1275 C1289 0.960 . S
H1276 C1289 0.961 . S
H1277 C1289 0.959 . S
H1278 C1292 0.929 . S
H1279 C1293 0.931 . S
H1280 C1295 0.930 . S
C1281 H1269 0.930 . S
C1281 C1282 1.399 . S
C1281 C1286 1.399 . S
C1282 C1281 1.399 . S
C1282 C1283 1.376 . S
C1283 H1270 0.930 . S
C1283 C1282 1.376 . S
C1283 C1284 1.388 . S
C1284 H1271 0.930 . S
C1284 C1283 1.388 . S
C1284 C1285 1.390 . S
C1285 C1284 1.390 . S
C1285 C1286 1.394 . S
C1285 C1291 1.465 . S
C1286 C1281 1.399 . S
C1286 C1285 1.394 . S
C1286 C1287 1.516 . S
C1287 C1286 1.516 . S
C1287 C1288 1.502 . S
C1287 C1289 1.561 . S
C1287 C1290 1.526 . S
C1288 H1272 0.959 . S
C1288 H1273 0.959 . S
C1288 H1274 0.961 . S
C1288 C1287 1.502 . S
C1289 H1275 0.960 . S
C1289 H1276 0.961 . S
C1289 H1277 0.959 . S
C1289 C1287 1.561 . S
C1290 C1287 1.526 . S
C1290 C1291 1.396 . S
C1290 C1295 1.390 . S
C1291 C1285 1.465 . S
C1291 C1290 1.396 . S
C1291 C1292 1.399 . S
C1292 H1278 0.929 . S
C1292 C1291 1.399 . S
C1292 C1293 1.385 . S
C1293 H1279 0.931 . S
C1293 C1292 1.385 . S
C1293 C1294 1.389 . S
C1294 C1293 1.389 . S
C1294 C1295 1.387 . S
C1295 H1280 0.930 . S
C1295 C1290 1.390 . S
C1295 C1294 1.387 . S
H1296 C1308 0.930 . S
H1297 C1310 0.930 1_554 S
H1298 C1311 0.930 . S
H1299 C1315 0.959 . S
H1300 C1315 0.959 . S
H1301 C1315 0.961 . S
H1302 C1316 0.960 . S
H1303 C1316 0.961 . S
H1304 C1316 0.959 . S
H1305 C1319 0.929 . S
H1306 C1320 0.931 . S
H1307 C1322 0.930 1_556 S
C1308 H1296 0.930 . S
C1308 C1309 1.399 . S
C1308 C1313 1.399 . S
C1309 C1308 1.399 . S
C1309 C1310 1.376 . S
C1310 H1297 0.930 1_556 S
C1310 C1309 1.376 . S
C1310 C1311 1.388 1_556 S
C1311 H1298 0.930 . S
C1311 C1310 1.388 1_554 S
C1311 C1312 1.390 . S
C1312 C1311 1.390 . S
C1312 C1313 1.394 1_554 S
C1312 C1318 1.465 . S
C1313 C1308 1.399 . S
C1313 C1312 1.394 1_556 S
C1313 C1314 1.516 . S
C1314 C1313 1.516 . S
C1314 C1315 1.502 . S
C1314 C1316 1.561 . S
C1314 C1317 1.527 . S
C1315 H1299 0.959 . S
C1315 H1300 0.959 . S
C1315 H1301 0.961 . S
C1315 C1314 1.502 . S
C1316 H1302 0.960 . S
C1316 H1303 0.961 . S
C1316 H1304 0.959 . S
C1316 C1314 1.561 . S
C1317 C1314 1.527 . S
C1317 C1318 1.395 1_556 S
C1317 C1322 1.389 1_556 S
C1318 C1312 1.465 . S
C1318 C1317 1.395 1_554 S
C1318 C1319 1.399 . S
C1319 H1305 0.929 . S
C1319 C1318 1.399 . S
C1319 C1320 1.385 . S
C1320 H1306 0.931 . S
C1320 C1319 1.385 . S
C1320 C1321 1.389 . S
C1321 C1320 1.389 . S
C1321 C1322 1.387 . S
C1322 H1307 0.930 1_554 S
C1322 C1317 1.389 1_554 S
C1322 C1321 1.387 . S
H1323 C1335 0.930 . S
H1324 C1337 0.930 . S
H1325 C1338 0.930 . S
H1326 C1342 0.959 . S
H1327 C1342 0.959 . S
H1328 C1342 0.961 . S
H1329 C1343 0.960 . S
H1330 C1343 0.961 . S
H1331 C1343 0.959 . S
H1332 C1346 0.929 . S
H1333 C1347 0.931 . S
H1334 C1349 0.930 . S
C1335 H1323 0.930 . S
C1335 C1336 1.399 . S
C1335 C1340 1.399 . S
C1336 C1335 1.399 . S
C1336 C1337 1.376 . S
C1337 H1324 0.930 . S
C1337 C1336 1.376 . S
C1337 C1338 1.388 . S
C1338 H1325 0.930 . S
C1338 C1337 1.388 . S
C1338 C1339 1.390 . S
C1339 C1338 1.390 . S
C1339 C1340 1.394 . S
C1339 C1345 1.465 . S
C1340 C1335 1.399 . S
C1340 C1339 1.394 . S
C1340 C1341 1.516 . S
C1341 C1340 1.516 . S
C1341 C1342 1.502 . S
C1341 C1343 1.561 . S
C1341 C1344 1.526 . S
C1342 H1326 0.959 . S
C1342 H1327 0.959 . S
C1342 H1328 0.961 . S
C1342 C1341 1.502 . S
C1343 H1329 0.960 . S
C1343 H1330 0.961 . S
C1343 H1331 0.959 . S
C1343 C1341 1.561 . S
C1344 C1341 1.526 . S
C1344 C1345 1.396 . S
C1344 C1349 1.390 . S
C1345 C1339 1.465 . S
C1345 C1344 1.396 . S
C1345 C1346 1.399 . S
C1346 H1332 0.929 . S
C1346 C1345 1.399 . S
C1346 C1347 1.385 . S
C1347 H1333 0.931 . S
C1347 C1346 1.385 . S
C1347 C1348 1.389 . S
C1348 C1347 1.389 . S
C1348 C1349 1.387 . S
C1349 H1334 0.930 . S
C1349 C1344 1.390 . S
C1349 C1348 1.387 . S
H1350 C1362 0.930 . S
H1351 C1364 0.930 . S
H1352 C1365 0.930 . S
H1353 C1369 0.959 . S
H1354 C1369 0.959 . S
H1355 C1369 0.961 . S
H1356 C1370 0.960 . S
H1357 C1370 0.961 . S
H1358 C1370 0.959 . S
H1359 C1373 0.929 . S
H1360 C1374 0.931 . S
H1361 C1376 0.930 . S
C1362 H1350 0.930 . S
C1362 C1363 1.399 . S
C1362 C1367 1.399 . S
C1363 C1362 1.399 . S
C1363 C1364 1.376 . S
C1364 H1351 0.930 . S
C1364 C1363 1.376 . S
C1364 C1365 1.388 . S
C1365 H1352 0.930 . S
C1365 C1364 1.388 . S
C1365 C1366 1.390 . S
C1366 C1365 1.390 . S
C1366 C1367 1.394 . S
C1366 C1372 1.465 1_554 S
C1367 C1362 1.399 . S
C1367 C1366 1.394 . S
C1367 C1368 1.516 1_554 S
C1368 C1367 1.516 1_556 S
C1368 C1369 1.502 1_556 S
C1368 C1370 1.561 . S
C1368 C1371 1.526 . S
C1369 H1353 0.959 . S
C1369 H1354 0.959 . S
C1369 H1355 0.961 . S
C1369 C1368 1.502 1_554 S
C1370 H1356 0.960 . S
C1370 H1357 0.961 . S
C1370 H1358 0.959 . S
C1370 C1368 1.561 . S
C1371 C1368 1.526 . S
C1371 C1372 1.396 . S
C1371 C1376 1.390 . S
C1372 C1366 1.465 1_556 S
C1372 C1371 1.396 . S
C1372 C1373 1.399 . S
C1373 H1359 0.929 . S
C1373 C1372 1.399 . S
C1373 C1374 1.385 . S
C1374 H1360 0.931 . S
C1374 C1373 1.385 . S
C1374 C1375 1.389 . S
C1375 C1374 1.389 . S
C1375 C1376 1.387 . S
C1376 H1361 0.930 . S
C1376 C1371 1.390 . S
C1376 C1375 1.387 . S
H1377 C1389 0.930 . S
H1378 C1391 0.930 . S
H1379 C1392 0.930 . S
H1380 C1396 0.959 . S
H1381 C1396 0.959 . S
H1382 C1396 0.961 . S
H1383 C1397 0.960 . S
H1384 C1397 0.961 . S
H1385 C1397 0.959 . S
H1386 C1400 0.929 . S
H1387 C1401 0.931 . S
H1388 C1403 0.930 . S
C1389 H1377 0.930 . S
C1389 C1390 1.399 . S
C1389 C1394 1.399 . S
C1390 C1389 1.399 . S
C1390 C1391 1.376 . S
C1391 H1378 0.930 . S
C1391 C1390 1.376 . S
C1391 C1392 1.388 . S
C1392 H1379 0.930 . S
C1392 C1391 1.388 . S
C1392 C1393 1.390 . S
C1393 C1392 1.390 . S
C1393 C1394 1.394 . S
C1393 C1399 1.465 . S
C1394 C1389 1.399 . S
C1394 C1393 1.394 . S
C1394 C1395 1.516 . S
C1395 C1394 1.516 . S
C1395 C1396 1.502 . S
C1395 C1397 1.561 . S
C1395 C1398 1.526 . S
C1396 H1380 0.959 . S
C1396 H1381 0.959 . S
C1396 H1382 0.961 . S
C1396 C1395 1.502 . S
C1397 H1383 0.960 . S
C1397 H1384 0.961 . S
C1397 H1385 0.959 . S
C1397 C1395 1.561 . S
C1398 C1395 1.526 . S
C1398 C1399 1.396 . S
C1398 C1403 1.390 . S
C1399 C1393 1.465 . S
C1399 C1398 1.396 . S
C1399 C1400 1.399 . S
C1400 H1386 0.929 . S
C1400 C1399 1.399 . S
C1400 C1401 1.385 . S
C1401 H1387 0.931 . S
C1401 C1400 1.385 . S
C1401 C1402 1.389 . S
C1402 C1401 1.389 . S
C1402 C1403 1.387 . S
C1403 H1388 0.930 . S
C1403 C1398 1.390 . S
C1403 C1402 1.387 . S
H1404 C1416 0.930 1_554 S
H1405 C1418 0.930 . S
H1406 C1419 0.930 . S
H1407 C1423 0.959 . S
H1408 C1423 0.959 . S
H1409 C1423 0.961 . S
H1410 C1424 0.960 . S
H1411 C1424 0.961 . S
H1412 C1424 0.959 . S
H1413 C1427 0.929 . S
H1414 C1428 0.931 . S
H1415 C1430 0.930 . S
C1416 H1404 0.930 1_556 S
C1416 C1417 1.399 . S
C1416 C1421 1.399 . S
C1417 C1416 1.399 . S
C1417 C1418 1.376 . S
C1418 H1405 0.930 . S
C1418 C1417 1.376 . S
C1418 C1419 1.388 . S
C1419 H1406 0.930 . S
C1419 C1418 1.388 . S
C1419 C1420 1.390 . S
C1420 C1419 1.390 . S
C1420 C1421 1.393 . S
C1420 C1426 1.465 . S
C1421 C1416 1.399 . S
C1421 C1420 1.393 . S
C1421 C1422 1.517 1_556 S
C1422 C1421 1.517 1_554 S
C1422 C1423 1.502 . S
C1422 C1424 1.561 . S
C1422 C1425 1.526 . S
C1423 H1407 0.959 . S
C1423 H1408 0.959 . S
C1423 H1409 0.961 . S
C1423 C1422 1.502 . S
C1424 H1410 0.960 . S
C1424 H1411 0.961 . S
C1424 H1412 0.959 . S
C1424 C1422 1.561 . S
C1425 C1422 1.526 . S
C1425 C1426 1.396 1_554 S
C1425 C1430 1.390 . S
C1426 C1420 1.465 . S
C1426 C1425 1.396 1_556 S
C1426 C1427 1.399 . S
C1427 H1413 0.929 . S
C1427 C1426 1.399 . S
C1427 C1428 1.385 1_556 S
C1428 H1414 0.931 . S
C1428 C1427 1.385 1_554 S
C1428 C1429 1.389 . S
C1429 C1428 1.389 . S
C1429 C1430 1.387 . S
C1430 H1415 0.930 . S
C1430 C1425 1.390 . S
C1430 C1429 1.387 . S
H1431 C1443 0.930 . S
H1432 C1445 0.930 . S
H1433 C1446 0.930 . S
H1434 C1450 0.959 . S
H1435 C1450 0.959 . S
H1436 C1450 0.961 . S
H1437 C1451 0.960 . S
H1438 C1451 0.961 . S
H1439 C1451 0.959 . S
H1440 C1454 0.929 . S
H1441 C1455 0.931 . S
H1442 C1457 0.930 . S
C1443 H1431 0.930 . S
C1443 C1444 1.399 . S
C1443 C1448 1.399 . S
C1444 C1443 1.399 . S
C1444 C1445 1.376 . S
C1445 H1432 0.930 . S
C1445 C1444 1.376 . S
C1445 C1446 1.388 . S
C1446 H1433 0.930 . S
C1446 C1445 1.388 . S
C1446 C1447 1.390 . S
C1447 C1446 1.390 . S
C1447 C1448 1.394 . S
C1447 C1453 1.465 . S
C1448 C1443 1.399 . S
C1448 C1447 1.394 . S
C1448 C1449 1.516 . S
C1449 C1448 1.516 . S
C1449 C1450 1.502 . S
C1449 C1451 1.561 . S
C1449 C1452 1.526 . S
C1450 H1434 0.959 . S
C1450 H1435 0.959 . S
C1450 H1436 0.961 . S
C1450 C1449 1.502 . S
C1451 H1437 0.960 . S
C1451 H1438 0.961 . S
C1451 H1439 0.959 . S
C1451 C1449 1.561 . S
C1452 C1449 1.526 . S
C1452 C1453 1.396 . S
C1452 C1457 1.390 . S
C1453 C1447 1.465 . S
C1453 C1452 1.396 . S
C1453 C1454 1.399 . S
C1454 H1440 0.929 . S
C1454 C1453 1.399 . S
C1454 C1455 1.385 . S
C1455 H1441 0.931 . S
C1455 C1454 1.385 . S
C1455 C1456 1.389 . S
C1456 C1455 1.389 . S
C1456 C1457 1.387 . S
C1457 H1442 0.930 . S
C1457 C1452 1.390 . S
C1457 C1456 1.387 . S
H1458 C1470 0.930 1_554 S
H1459 C1472 0.930 . S
H1460 C1473 0.930 . S
H1461 C1477 0.959 . S
H1462 C1477 0.959 . S
H1463 C1477 0.961 . S
H1464 C1478 0.960 . S
H1465 C1478 0.961 . S
H1466 C1478 0.959 . S
H1467 C1481 0.929 . S
H1468 C1482 0.931 1_556 S
H1469 C1484 0.930 . S
C1470 H1458 0.930 1_556 S
C1470 C1471 1.399 . S
C1470 C1475 1.393 1_556 S
C1471 C1470 1.399 . S
C1471 C1472 1.376 . S
C1472 H1459 0.930 . S
C1472 C1471 1.376 . S
C1472 C1473 1.388 . S
C1473 H1460 0.930 . S
C1473 C1472 1.388 . S
C1473 C1474 1.390 . S
C1474 C1473 1.390 . S
C1474 C1475 1.379 1_556 S
C1474 C1480 1.465 . S
C1475 C1470 1.393 1_554 S
C1475 C1474 1.379 1_554 S
C1475 C1476 1.537 . S
C1476 C1475 1.537 . S
C1476 C1477 1.502 . S
C1476 C1478 1.561 . S
C1476 C1479 1.526 . S
C1477 H1461 0.959 . S
C1477 H1462 0.959 . S
C1477 H1463 0.961 . S
C1477 C1476 1.502 . S
C1478 H1464 0.960 . S
C1478 H1465 0.961 . S
C1478 H1466 0.959 . S
C1478 C1476 1.561 . S
C1479 C1476 1.526 . S
C1479 C1480 1.396 1_554 S
C1479 C1484 1.390 . S
C1480 C1474 1.465 . S
C1480 C1479 1.396 1_556 S
C1480 C1481 1.399 . S
C1481 H1467 0.929 . S
C1481 C1480 1.399 . S
C1481 C1482 1.385 1_556 S
C1482 H1468 0.931 1_554 S
C1482 C1481 1.385 1_554 S
C1482 C1483 1.389 . S
C1483 C1482 1.389 . S
C1483 C1484 1.387 . S
C1484 H1469 0.930 . S
C1484 C1479 1.390 . S
C1484 C1483 1.387 . S
H1485 C1497 0.930 . S
H1486 C1499 0.930 . S
H1487 C1500 0.930 . S
H1488 C1504 0.959 . S
H1489 C1504 0.959 . S
H1490 C1504 0.961 . S
H1491 C1505 0.960 . S
H1492 C1505 0.961 . S
H1493 C1505 0.959 . S
H1494 C1508 0.929 . S
H1495 C1509 0.931 . S
H1496 C1511 0.930 . S
C1497 H1485 0.930 . S
C1497 C1498 1.399 . S
C1497 C1502 1.399 . S
C1498 C1497 1.399 . S
C1498 C1499 1.376 . S
C1499 H1486 0.930 . S
C1499 C1498 1.376 . S
C1499 C1500 1.388 . S
C1500 H1487 0.930 . S
C1500 C1499 1.388 . S
C1500 C1501 1.390 . S
C1501 C1500 1.390 . S
C1501 C1502 1.394 . S
C1501 C1507 1.465 . S
C1502 C1497 1.399 . S
C1502 C1501 1.394 . S
C1502 C1503 1.516 . S
C1503 C1502 1.516 . S
C1503 C1504 1.502 . S
C1503 C1505 1.561 . S
C1503 C1506 1.526 . S
C1504 H1488 0.959 . S
C1504 H1489 0.959 . S
C1504 H1490 0.961 . S
C1504 C1503 1.502 . S
C1505 H1491 0.960 . S
C1505 H1492 0.961 . S
C1505 H1493 0.959 . S
C1505 C1503 1.561 . S
C1506 C1503 1.526 . S
C1506 C1507 1.396 . S
C1506 C1511 1.390 . S
C1507 C1501 1.465 . S
C1507 C1506 1.396 . S
C1507 C1508 1.399 . S
C1508 H1494 0.929 . S
C1508 C1507 1.399 . S
C1508 C1509 1.385 . S
C1509 H1495 0.931 . S
C1509 C1508 1.385 . S
C1509 C1510 1.389 . S
C1510 C1509 1.389 . S
C1510 C1511 1.387 . S
C1511 H1496 0.930 . S
C1511 C1506 1.390 . S
C1511 C1510 1.387 . S
H1512 C1524 0.930 . S
H1513 C1526 0.930 . S
H1514 C1527 0.930 . S
H1515 C1531 0.959 . S
H1516 C1531 0.959 . S
H1517 C1531 0.961 . S
H1518 C1532 0.960 . S
H1519 C1532 0.961 . S
H1520 C1532 0.959 . S
H1521 C1535 0.929 . S
H1522 C1536 0.931 . S
H1523 C1538 0.930 . S
C1524 H1512 0.930 . S
C1524 C1525 1.399 . S
C1524 C1529 1.399 . S
C1525 C1524 1.399 . S
C1525 C1526 1.376 . S
C1526 H1513 0.930 . S
C1526 C1525 1.376 . S
C1526 C1527 1.388 . S
C1527 H1514 0.930 . S
C1527 C1526 1.388 . S
C1527 C1528 1.390 . S
C1528 C1527 1.390 . S
C1528 C1529 1.394 . S
C1528 C1534 1.465 . S
C1529 C1524 1.399 . S
C1529 C1528 1.394 . S
C1529 C1530 1.516 . S
C1530 C1529 1.516 . S
C1530 C1531 1.502 . S
C1530 C1532 1.561 . S
C1530 C1533 1.526 . S
C1531 H1515 0.959 . S
C1531 H1516 0.959 . S
C1531 H1517 0.961 . S
C1531 C1530 1.502 . S
C1532 H1518 0.960 . S
C1532 H1519 0.961 . S
C1532 H1520 0.959 . S
C1532 C1530 1.561 . S
C1533 C1530 1.526 . S
C1533 C1534 1.396 . S
C1533 C1538 1.390 . S
C1534 C1528 1.465 . S
C1534 C1533 1.396 . S
C1534 C1535 1.399 . S
C1535 H1521 0.929 . S
C1535 C1534 1.399 . S
C1535 C1536 1.385 . S
C1536 H1522 0.931 . S
C1536 C1535 1.385 . S
C1536 C1537 1.389 . S
C1537 C1536 1.389 . S
C1537 C1538 1.387 . S
C1538 H1523 0.930 . S
C1538 C1533 1.390 . S
C1538 C1537 1.387 . S
H1539 C1551 0.930 . S
H1540 C1553 0.930 . S
H1541 C1554 0.930 . S
H1542 C1558 0.976 . S
H1543 C1558 0.976 . S
H1544 C1558 0.938 1_455 S
H1545 C1559 0.957 1_455 S
H1546 C1559 0.963 . S
H1547 C1559 0.958 . S
H1548 C1562 0.929 . S
H1549 C1563 0.931 . S
H1550 C1565 0.930 . S
C1551 H1539 0.930 . S
C1551 C1552 1.399 . S
C1551 C1556 1.399 . S
C1552 C1551 1.399 . S
C1552 C1553 1.376 . S
C1553 H1540 0.930 . S
C1553 C1552 1.376 . S
C1553 C1554 1.388 . S
C1554 H1541 0.930 . S
C1554 C1553 1.388 . S
C1554 C1555 1.390 . S
C1555 C1554 1.390 . S
C1555 C1556 1.394 . S
C1555 C1561 1.465 1_455 S
C1556 C1551 1.399 . S
C1556 C1555 1.394 . S
C1556 C1557 1.517 1_455 S
C1557 C1556 1.517 1_655 S
C1557 C1558 1.493 . S
C1557 C1559 1.564 . S
C1557 C1560 1.525 . S
C1558 H1542 0.976 . S
C1558 H1543 0.976 . S
C1558 H1544 0.938 1_655 S
C1558 C1557 1.493 . S
C1559 H1545 0.957 1_655 S
C1559 H1546 0.963 . S
C1559 H1547 0.958 . S
C1559 C1557 1.564 . S
C1560 C1557 1.525 . S
C1560 C1561 1.396 . S
C1560 C1565 1.390 . S
C1561 C1555 1.465 1_655 S
C1561 C1560 1.396 . S
C1561 C1562 1.399 . S
C1562 H1548 0.929 . S
C1562 C1561 1.399 . S
C1562 C1563 1.385 . S
C1563 H1549 0.931 . S
C1563 C1562 1.385 . S
C1563 C1564 1.389 . S
C1564 C1563 1.389 . S
C1564 C1565 1.387 . S
C1565 H1550 0.930 . S
C1565 C1560 1.390 . S
C1565 C1564 1.387 . S
H1566 C1578 0.930 . S
H1567 C1580 0.930 . S
H1568 C1581 0.930 . S
H1569 C1585 0.971 . S
H1570 C1585 0.980 . S
H1571 C1585 0.942 1_565 S
H1572 C1586 0.958 1_565 S
H1573 C1586 0.963 . S
H1574 C1586 0.957 . S
H1575 C1589 0.929 . S
H1576 C1590 0.931 . S
H1577 C1592 0.930 . S
C1578 H1566 0.930 . S
C1578 C1579 1.399 . S
C1578 C1583 1.399 . S
C1579 C1578 1.399 . S
C1579 C1580 1.376 . S
C1580 H1567 0.930 . S
C1580 C1579 1.376 . S
C1580 C1581 1.388 . S
C1581 H1568 0.930 . S
C1581 C1580 1.388 . S
C1581 C1582 1.390 . S
C1582 C1581 1.390 . S
C1582 C1583 1.394 . S
C1582 C1588 1.465 1_565 S
C1583 C1578 1.399 . S
C1583 C1582 1.394 . S
C1583 C1584 1.517 1_565 S
C1584 C1583 1.517 1_545 S
C1584 C1585 1.488 . S
C1584 C1586 1.563 . S
C1584 C1587 1.525 . S
C1585 H1569 0.971 . S
C1585 H1570 0.980 . S
C1585 H1571 0.942 1_545 S
C1585 C1584 1.488 . S
C1586 H1572 0.958 1_545 S
C1586 H1573 0.963 . S
C1586 H1574 0.957 . S
C1586 C1584 1.563 . S
C1587 C1584 1.525 . S
C1587 C1588 1.396 . S
C1587 C1592 1.390 . S
C1588 C1582 1.465 1_545 S
C1588 C1587 1.396 . S
C1588 C1589 1.399 . S
C1589 H1575 0.929 . S
C1589 C1588 1.399 . S
C1589 C1590 1.385 . S
C1590 H1576 0.931 . S
C1590 C1589 1.385 . S
C1590 C1591 1.389 . S
C1591 C1590 1.389 . S
C1591 C1592 1.387 . S
C1592 H1577 0.930 . S
C1592 C1587 1.390 . S
C1592 C1591 1.387 . S
H1593 C1605 0.930 . S
H1594 C1607 0.930 . S
H1595 C1608 0.930 . S
H1596 C1612 0.959 . S
H1597 C1612 0.959 . S
H1598 C1612 0.961 . S
H1599 C1613 0.960 . S
H1600 C1613 0.961 . S
H1601 C1613 0.959 . S
H1602 C1616 0.929 . S
H1603 C1617 0.931 . S
H1604 C1619 0.930 . S
C1605 H1593 0.930 . S
C1605 C1606 1.399 . S
C1605 C1610 1.399 . S
C1606 C1605 1.399 . S
C1606 C1607 1.376 . S
C1607 H1594 0.930 . S
C1607 C1606 1.376 . S
C1607 C1608 1.388 . S
C1608 H1595 0.930 . S
C1608 C1607 1.388 . S
C1608 C1609 1.390 . S
C1609 C1608 1.390 . S
C1609 C1610 1.394 . S
C1609 C1615 1.465 . S
C1610 C1605 1.399 . S
C1610 C1609 1.394 . S
C1610 C1611 1.516 . S
C1611 C1610 1.516 . S
C1611 C1612 1.502 . S
C1611 C1613 1.561 . S
C1611 C1614 1.526 . S
C1612 H1596 0.959 . S
C1612 H1597 0.959 . S
C1612 H1598 0.961 . S
C1612 C1611 1.502 . S
C1613 H1599 0.960 . S
C1613 H1600 0.961 . S
C1613 H1601 0.959 . S
C1613 C1611 1.561 . S
C1614 C1611 1.526 . S
C1614 C1615 1.396 . S
C1614 C1619 1.390 . S
C1615 C1609 1.465 . S
C1615 C1614 1.396 . S
C1615 C1616 1.399 . S
C1616 H1602 0.929 . S
C1616 C1615 1.399 . S
C1616 C1617 1.385 . S
C1617 H1603 0.931 . S
C1617 C1616 1.385 . S
C1617 C1618 1.389 . S
C1618 C1617 1.389 . S
C1618 C1619 1.387 . S
C1619 H1604 0.930 . S
C1619 C1614 1.390 . S
C1619 C1618 1.387 . S
H1620 C1632 0.930 . S
H1621 C1634 0.930 . S
H1622 C1635 0.930 . S
H1623 C1639 0.952 . S
H1624 C1639 0.978 . S
H1625 C1639 0.937 1_655 S
H1626 C1640 0.957 1_655 S
H1627 C1640 0.963 . S
H1628 C1640 0.961 . S
H1629 C1643 0.929 . S
H1630 C1644 0.931 . S
H1631 C1646 0.930 . S
C1632 H1620 0.930 . S
C1632 C1633 1.399 . S
C1632 C1637 1.399 . S
C1633 C1632 1.399 . S
C1633 C1634 1.376 . S
C1634 H1621 0.930 . S
C1634 C1633 1.376 . S
C1634 C1635 1.388 . S
C1635 H1622 0.930 . S
C1635 C1634 1.388 . S
C1635 C1636 1.390 . S
C1636 C1635 1.390 . S
C1636 C1637 1.394 . S
C1636 C1642 1.465 1_655 S
C1637 C1632 1.399 . S
C1637 C1636 1.394 . S
C1637 C1638 1.517 1_655 S
C1638 C1637 1.517 1_455 S
C1638 C1639 1.515 . S
C1638 C1640 1.560 . S
C1638 C1641 1.525 . S
C1639 H1623 0.952 . S
C1639 H1624 0.978 . S
C1639 H1625 0.937 1_455 S
C1639 C1638 1.515 . S
C1640 H1626 0.957 1_455 S
C1640 H1627 0.963 . S
C1640 H1628 0.961 . S
C1640 C1638 1.560 . S
C1641 C1638 1.525 . S
C1641 C1642 1.396 . S
C1641 C1646 1.390 . S
C1642 C1636 1.465 1_455 S
C1642 C1641 1.396 . S
C1642 C1643 1.399 . S
C1643 H1629 0.929 . S
C1643 C1642 1.399 . S
C1643 C1644 1.385 . S
C1644 H1630 0.931 . S
C1644 C1643 1.385 . S
C1644 C1645 1.389 . S
C1645 C1644 1.389 . S
C1645 C1646 1.387 . S
C1646 H1631 0.930 . S
C1646 C1641 1.390 . S
C1646 C1645 1.387 . S
H1647 C1659 0.930 . S
H1648 C1661 0.930 . S
H1649 C1662 0.930 . S
H1650 C1666 0.972 . S
H1651 C1666 0.980 . S
H1652 C1666 0.942 1_545 S
H1653 C1667 0.958 1_545 S
H1654 C1667 0.964 . S
H1655 C1667 0.957 . S
H1656 C1670 0.929 . S
H1657 C1671 0.931 . S
H1658 C1673 0.930 . S
C1659 H1647 0.930 . S
C1659 C1660 1.399 . S
C1659 C1664 1.399 . S
C1660 C1659 1.399 . S
C1660 C1661 1.376 . S
C1661 H1648 0.930 . S
C1661 C1660 1.376 . S
C1661 C1662 1.388 . S
C1662 H1649 0.930 . S
C1662 C1661 1.388 . S
C1662 C1663 1.390 . S
C1663 C1662 1.390 . S
C1663 C1664 1.394 . S
C1663 C1669 1.465 1_545 S
C1664 C1659 1.399 . S
C1664 C1663 1.394 . S
C1664 C1665 1.517 1_545 S
C1665 C1664 1.517 1_565 S
C1665 C1666 1.488 . S
C1665 C1667 1.563 . S
C1665 C1668 1.525 . S
C1666 H1650 0.972 . S
C1666 H1651 0.980 . S
C1666 H1652 0.942 1_565 S
C1666 C1665 1.488 . S
C1667 H1653 0.958 1_565 S
C1667 H1654 0.964 . S
C1667 H1655 0.957 . S
C1667 C1665 1.563 . S
C1668 C1665 1.525 . S
C1668 C1669 1.396 . S
C1668 C1673 1.390 . S
C1669 C1663 1.465 1_565 S
C1669 C1668 1.396 . S
C1669 C1670 1.399 . S
C1670 H1656 0.929 . S
C1670 C1669 1.399 . S
C1670 C1671 1.385 . S
C1671 H1657 0.931 . S
C1671 C1670 1.385 . S
C1671 C1672 1.389 . S
C1672 C1671 1.389 . S
C1672 C1673 1.387 . S
C1673 H1658 0.930 . S
C1673 C1668 1.390 . S
C1673 C1672 1.387 . S
H1674 C1686 0.930 . S
H1675 C1688 0.930 . S
H1676 C1689 0.930 . S
H1677 C1693 0.959 . S
H1678 C1693 0.959 . S
H1679 C1693 0.961 . S
H1680 C1694 0.960 . S
H1681 C1694 0.961 . S
H1682 C1694 0.959 . S
H1683 C1697 0.929 . S
H1684 C1698 0.931 . S
H1685 C1700 0.930 . S
C1686 H1674 0.930 . S
C1686 C1687 1.399 . S
C1686 C1691 1.399 . S
C1687 C1686 1.399 . S
C1687 C1688 1.376 . S
C1688 H1675 0.930 . S
C1688 C1687 1.376 . S
C1688 C1689 1.388 . S
C1689 H1676 0.930 . S
C1689 C1688 1.388 . S
C1689 C1690 1.390 . S
C1690 C1689 1.390 . S
C1690 C1691 1.394 . S
C1690 C1696 1.465 . S
C1691 C1686 1.399 . S
C1691 C1690 1.394 . S
C1691 C1692 1.516 . S
C1692 C1691 1.516 . S
C1692 C1693 1.502 . S
C1692 C1694 1.561 . S
C1692 C1695 1.526 . S
C1693 H1677 0.959 . S
C1693 H1678 0.959 . S
C1693 H1679 0.961 . S
C1693 C1692 1.502 . S
C1694 H1680 0.960 . S
C1694 H1681 0.961 . S
C1694 H1682 0.959 . S
C1694 C1692 1.561 . S
C1695 C1692 1.526 . S
C1695 C1696 1.396 . S
C1695 C1700 1.390 . S
C1696 C1690 1.465 . S
C1696 C1695 1.396 . S
C1696 C1697 1.399 . S
C1697 H1683 0.929 . S
C1697 C1696 1.399 . S
C1697 C1698 1.385 . S
C1698 H1684 0.931 . S
C1698 C1697 1.385 . S
C1698 C1699 1.389 . S
C1699 C1698 1.389 . S
C1699 C1700 1.387 . S
C1700 H1685 0.930 . S
C1700 C1695 1.390 . S
C1700 C1699 1.387 . S
H1701 C1713 0.930 . S
H1702 C1715 0.930 . S
H1703 C1716 0.930 . S
H1704 C1720 0.949 . S
H1705 C1720 0.987 . S
H1706 C1720 0.946 1_655 S
H1707 C1721 0.959 1_655 S
H1708 C1721 0.964 . S
H1709 C1721 0.959 . S
H1710 C1724 0.929 . S
H1711 C1725 0.931 . S
H1712 C1727 0.930 . S
C1713 H1701 0.930 . S
C1713 C1714 1.399 . S
C1713 C1718 1.399 . S
C1714 C1713 1.399 . S
C1714 C1715 1.376 . S
C1715 H1702 0.930 . S
C1715 C1714 1.376 . S
C1715 C1716 1.388 . S
C1716 H1703 0.930 . S
C1716 C1715 1.388 . S
C1716 C1717 1.390 . S
C1717 C1716 1.390 . S
C1717 C1718 1.394 . S
C1717 C1723 1.465 1_655 S
C1718 C1713 1.399 . S
C1718 C1717 1.394 . S
C1718 C1719 1.517 1_655 S
C1719 C1718 1.517 1_455 S
C1719 C1720 1.499 . S
C1719 C1721 1.559 . S
C1719 C1722 1.525 . S
C1720 H1704 0.949 . S
C1720 H1705 0.987 . S
C1720 H1706 0.946 1_455 S
C1720 C1719 1.499 . S
C1721 H1707 0.959 1_455 S
C1721 H1708 0.964 . S
C1721 H1709 0.959 . S
C1721 C1719 1.559 . S
C1722 C1719 1.525 . S
C1722 C1723 1.396 . S
C1722 C1727 1.390 . S
C1723 C1717 1.465 1_455 S
C1723 C1722 1.396 . S
C1723 C1724 1.399 . S
C1724 H1710 0.929 . S
C1724 C1723 1.399 . S
C1724 C1725 1.385 . S
C1725 H1711 0.931 . S
C1725 C1724 1.385 . S
C1725 C1726 1.389 . S
C1726 C1725 1.389 . S
C1726 C1727 1.387 . S
C1727 H1712 0.930 . S
C1727 C1722 1.390 . S
C1727 C1726 1.387 . S
H1728 C1740 0.930 . S
H1729 C1742 0.930 . S
H1730 C1743 0.930 . S
H1731 C1747 0.954 . S
H1732 C1747 0.977 . S
H1733 C1747 0.936 1_545 S
H1734 C1748 0.957 1_545 S
H1735 C1748 0.963 . S
H1736 C1748 0.961 . S
H1737 C1751 0.929 . S
H1738 C1752 0.931 . S
H1739 C1754 0.930 . S
C1740 H1728 0.930 . S
C1740 C1741 1.399 . S
C1740 C1745 1.399 . S
C1741 C1740 1.399 . S
C1741 C1742 1.376 . S
C1742 H1729 0.930 . S
C1742 C1741 1.376 . S
C1742 C1743 1.388 . S
C1743 H1730 0.930 . S
C1743 C1742 1.388 . S
C1743 C1744 1.390 . S
C1744 C1743 1.390 . S
C1744 C1745 1.394 . S
C1744 C1750 1.465 1_545 S
C1745 C1740 1.399 . S
C1745 C1744 1.394 . S
C1745 C1746 1.517 1_545 S
C1746 C1745 1.517 1_565 S
C1746 C1747 1.516 . S
C1746 C1748 1.560 . S
C1746 C1749 1.525 . S
C1747 H1731 0.954 . S
C1747 H1732 0.977 . S
C1747 H1733 0.936 1_565 S
C1747 C1746 1.516 . S
C1748 H1734 0.957 1_565 S
C1748 H1735 0.963 . S
C1748 H1736 0.961 . S
C1748 C1746 1.560 . S
C1749 C1746 1.525 . S
C1749 C1750 1.396 . S
C1749 C1754 1.390 . S
C1750 C1744 1.465 1_565 S
C1750 C1749 1.396 . S
C1750 C1751 1.399 . S
C1751 H1737 0.929 . S
C1751 C1750 1.399 . S
C1751 C1752 1.385 . S
C1752 H1738 0.931 . S
C1752 C1751 1.385 . S
C1752 C1753 1.389 . S
C1753 C1752 1.389 . S
C1753 C1754 1.387 . S
C1754 H1739 0.930 . S
C1754 C1749 1.390 . S
C1754 C1753 1.387 . S
H1755 C1767 0.930 . S
H1756 C1769 0.930 . S
H1757 C1770 0.930 . S
H1758 C1774 0.959 . S
H1759 C1774 0.959 . S
H1760 C1774 0.961 . S
H1761 C1775 0.960 . S
H1762 C1775 0.961 . S
H1763 C1775 0.959 . S
H1764 C1778 0.929 . S
H1765 C1779 0.931 . S
H1766 C1781 0.930 . S
C1767 H1755 0.930 . S
C1767 C1768 1.399 . S
C1767 C1772 1.399 . S
C1768 C1767 1.399 . S
C1768 C1769 1.376 . S
C1769 H1756 0.930 . S
C1769 C1768 1.376 . S
C1769 C1770 1.388 . S
C1770 H1757 0.930 . S
C1770 C1769 1.388 . S
C1770 C1771 1.390 . S
C1771 C1770 1.390 . S
C1771 C1772 1.394 . S
C1771 C1777 1.465 . S
C1772 C1767 1.399 . S
C1772 C1771 1.394 . S
C1772 C1773 1.516 . S
C1773 C1772 1.516 . S
C1773 C1774 1.502 . S
C1773 C1775 1.561 . S
C1773 C1776 1.526 . S
C1774 H1758 0.959 . S
C1774 H1759 0.959 . S
C1774 H1760 0.961 . S
C1774 C1773 1.502 . S
C1775 H1761 0.960 . S
C1775 H1762 0.961 . S
C1775 H1763 0.959 . S
C1775 C1773 1.561 . S
C1776 C1773 1.526 . S
C1776 C1777 1.396 . S
C1776 C1781 1.390 . S
C1777 C1771 1.465 . S
C1777 C1776 1.396 . S
C1777 C1778 1.399 . S
C1778 H1764 0.929 . S
C1778 C1777 1.399 . S
C1778 C1779 1.385 . S
C1779 H1765 0.931 . S
C1779 C1778 1.385 . S
C1779 C1780 1.389 . S
C1780 C1779 1.389 . S
C1780 C1781 1.387 . S
C1781 H1766 0.930 . S
C1781 C1776 1.390 . S
C1781 C1780 1.387 . S
H1782 C1794 0.930 . S
H1783 C1796 0.930 . S
H1784 C1797 0.930 . S
H1785 C1801 0.971 . S
H1786 C1801 0.980 . S
H1787 C1801 0.942 1_455 S
H1788 C1802 0.958 1_455 S
H1789 C1802 0.963 . S
H1790 C1802 0.957 . S
H1791 C1805 0.929 . S
H1792 C1806 0.931 . S
H1793 C1808 0.930 . S
C1794 H1782 0.930 . S
C1794 C1795 1.399 . S
C1794 C1799 1.399 . S
C1795 C1794 1.399 . S
C1795 C1796 1.376 . S
C1796 H1783 0.930 . S
C1796 C1795 1.376 . S
C1796 C1797 1.388 . S
C1797 H1784 0.930 . S
C1797 C1796 1.388 . S
C1797 C1798 1.390 . S
C1798 C1797 1.390 . S
C1798 C1799 1.394 . S
C1798 C1804 1.465 1_455 S
C1799 C1794 1.399 . S
C1799 C1798 1.394 . S
C1799 C1800 1.517 1_455 S
C1800 C1799 1.517 1_655 S
C1800 C1801 1.488 . S
C1800 C1802 1.563 . S
C1800 C1803 1.525 . S
C1801 H1785 0.971 . S
C1801 H1786 0.980 . S
C1801 H1787 0.942 1_655 S
C1801 C1800 1.488 . S
C1802 H1788 0.958 1_655 S
C1802 H1789 0.963 . S
C1802 H1790 0.957 . S
C1802 C1800 1.563 . S
C1803 C1800 1.525 . S
C1803 C1804 1.396 . S
C1803 C1808 1.390 . S
C1804 C1798 1.465 1_655 S
C1804 C1803 1.396 . S
C1804 C1805 1.399 . S
C1805 H1791 0.929 . S
C1805 C1804 1.399 . S
C1805 C1806 1.385 . S
C1806 H1792 0.931 . S
C1806 C1805 1.385 . S
C1806 C1807 1.389 . S
C1807 C1806 1.389 . S
C1807 C1808 1.387 . S
C1808 H1793 0.930 . S
C1808 C1803 1.390 . S
C1808 C1807 1.387 . S
H1809 C1821 0.930 . S
H1810 C1823 0.930 . S
H1811 C1824 0.930 . S
H1812 C1828 0.965 . S
H1813 C1828 0.984 . S
H1814 C1828 0.945 1_565 S
H1815 C1829 0.958 1_565 S
H1816 C1829 0.964 . S
H1817 C1829 0.957 . S
H1818 C1832 0.929 . S
H1819 C1833 0.931 . S
H1820 C1835 0.930 . S
C1821 H1809 0.930 . S
C1821 C1822 1.399 . S
C1821 C1826 1.399 . S
C1822 C1821 1.399 . S
C1822 C1823 1.376 . S
C1823 H1810 0.930 . S
C1823 C1822 1.376 . S
C1823 C1824 1.388 . S
C1824 H1811 0.930 . S
C1824 C1823 1.388 . S
C1824 C1825 1.390 . S
C1825 C1824 1.390 . S
C1825 C1826 1.394 . S
C1825 C1831 1.465 1_565 S
C1826 C1821 1.399 . S
C1826 C1825 1.394 . S
C1826 C1827 1.517 1_565 S
C1827 C1826 1.517 1_545 S
C1827 C1828 1.486 . S
C1827 C1829 1.562 . S
C1827 C1830 1.525 . S
C1828 H1812 0.965 . S
C1828 H1813 0.984 . S
C1828 H1814 0.945 1_545 S
C1828 C1827 1.486 . S
C1829 H1815 0.958 1_545 S
C1829 H1816 0.964 . S
C1829 H1817 0.957 . S
C1829 C1827 1.562 . S
C1830 C1827 1.525 . S
C1830 C1831 1.396 . S
C1830 C1835 1.390 . S
C1831 C1825 1.465 1_545 S
C1831 C1830 1.396 . S
C1831 C1832 1.399 . S
C1832 H1818 0.929 . S
C1832 C1831 1.399 . S
C1832 C1833 1.385 . S
C1833 H1819 0.931 . S
C1833 C1832 1.385 . S
C1833 C1834 1.389 . S
C1834 C1833 1.389 . S
C1834 C1835 1.387 . S
C1835 H1820 0.930 . S
C1835 C1830 1.390 . S
C1835 C1834 1.387 . S
H1836 C1848 0.930 . S
H1837 C1850 0.930 . S
H1838 C1851 0.930 . S
H1839 C1855 0.959 . S
H1840 C1855 0.959 . S
H1841 C1855 0.961 . S
H1842 C1856 0.960 . S
H1843 C1856 0.961 . S
H1844 C1856 0.959 . S
H1845 C1859 0.929 . S
H1846 C1860 0.931 . S
H1847 C1862 0.930 1_556 S
C1848 H1836 0.930 . S
C1848 C1849 1.399 . S
C1848 C1853 1.399 . S
C1849 C1848 1.399 . S
C1849 C1850 1.378 1_556 S
C1850 H1837 0.930 . S
C1850 C1849 1.378 1_554 S
C1850 C1851 1.388 . S
C1851 H1838 0.930 . S
C1851 C1850 1.388 . S
C1851 C1852 1.390 . S
C1852 C1851 1.390 . S
C1852 C1853 1.394 1_554 S
C1852 C1858 1.465 . S
C1853 C1848 1.399 . S
C1853 C1852 1.394 1_556 S
C1853 C1854 1.516 . S
C1854 C1853 1.516 . S
C1854 C1855 1.502 . S
C1854 C1856 1.561 . S
C1854 C1857 1.526 . S
C1855 H1839 0.959 . S
C1855 H1840 0.959 . S
C1855 H1841 0.961 . S
C1855 C1854 1.502 . S
C1856 H1842 0.960 . S
C1856 H1843 0.961 . S
C1856 H1844 0.959 . S
C1856 C1854 1.561 . S
C1857 C1854 1.526 . S
C1857 C1858 1.396 1_556 S
C1857 C1862 1.390 1_556 S
C1858 C1852 1.465 . S
C1858 C1857 1.396 1_554 S
C1858 C1859 1.399 . S
C1859 H1845 0.929 . S
C1859 C1858 1.399 . S
C1859 C1860 1.385 . S
C1860 H1846 0.931 . S
C1860 C1859 1.385 . S
C1860 C1861 1.389 . S
C1861 C1860 1.389 . S
C1861 C1862 1.387 . S
C1862 H1847 0.930 1_554 S
C1862 C1857 1.390 1_554 S
C1862 C1861 1.387 . S
H1863 C1875 0.930 . S
H1864 C1877 0.930 . S
H1865 C1878 0.930 . S
H1866 C1882 0.959 . S
H1867 C1882 0.959 . S
H1868 C1882 0.961 . S
H1869 C1883 0.960 . S
H1870 C1883 0.961 . S
H1871 C1883 0.959 . S
H1872 C1886 0.929 . S
H1873 C1887 0.931 . S
H1874 C1889 0.930 . S
C1875 H1863 0.930 . S
C1875 C1876 1.399 . S
C1875 C1880 1.399 . S
C1876 C1875 1.399 . S
C1876 C1877 1.376 . S
C1877 H1864 0.930 . S
C1877 C1876 1.376 . S
C1877 C1878 1.388 . S
C1878 H1865 0.930 . S
C1878 C1877 1.388 . S
C1878 C1879 1.390 . S
C1879 C1878 1.390 . S
C1879 C1880 1.394 . S
C1879 C1885 1.465 . S
C1880 C1875 1.399 . S
C1880 C1879 1.394 . S
C1880 C1881 1.516 . S
C1881 C1880 1.516 . S
C1881 C1882 1.502 . S
C1881 C1883 1.561 . S
C1881 C1884 1.526 . S
C1882 H1866 0.959 . S
C1882 H1867 0.959 . S
C1882 H1868 0.961 . S
C1882 C1881 1.502 . S
C1883 H1869 0.960 . S
C1883 H1870 0.961 . S
C1883 H1871 0.959 . S
C1883 C1881 1.561 . S
C1884 C1881 1.526 . S
C1884 C1885 1.396 . S
C1884 C1889 1.390 . S
C1885 C1879 1.465 . S
C1885 C1884 1.396 . S
C1885 C1886 1.399 . S
C1886 H1872 0.929 . S
C1886 C1885 1.399 . S
C1886 C1887 1.385 . S
C1887 H1873 0.931 . S
C1887 C1886 1.385 . S
C1887 C1888 1.389 . S
C1888 C1887 1.389 . S
C1888 C1889 1.387 . S
C1889 H1874 0.930 . S
C1889 C1884 1.390 . S
C1889 C1888 1.387 . S
H1890 C1902 0.930 . S
H1891 C1904 0.930 . S
H1892 C1905 0.930 . S
H1893 C1909 0.959 . S
H1894 C1909 0.959 . S
H1895 C1909 0.961 . S
H1896 C1910 0.960 . S
H1897 C1910 0.961 1_554 S
H1898 C1910 0.959 . S
H1899 C1913 0.929 . S
H1900 C1914 0.931 . S
H1901 C1916 0.930 . S
C1902 H1890 0.930 . S
C1902 C1903 1.399 . S
C1902 C1907 1.399 . S
C1903 C1902 1.399 . S
C1903 C1904 1.376 . S
C1904 H1891 0.930 . S
C1904 C1903 1.376 . S
C1904 C1905 1.388 . S
C1905 H1892 0.930 . S
C1905 C1904 1.388 . S
C1905 C1906 1.390 . S
C1906 C1905 1.390 . S
C1906 C1907 1.394 . S
C1906 C1912 1.465 . S
C1907 C1902 1.399 . S
C1907 C1906 1.394 . S
C1907 C1908 1.516 1_556 S
C1908 C1907 1.516 1_554 S
C1908 C1909 1.502 . S
C1908 C1910 1.561 1_554 S
C1908 C1911 1.526 . S
C1909 H1893 0.959 . S
C1909 H1894 0.959 . S
C1909 H1895 0.961 . S
C1909 C1908 1.502 . S
C1910 H1896 0.960 . S
C1910 H1897 0.961 1_556 S
C1910 H1898 0.959 . S
C1910 C1908 1.561 1_556 S
C1911 C1908 1.526 . S
C1911 C1912 1.396 1_554 S
C1911 C1916 1.390 . S
C1912 C1906 1.465 . S
C1912 C1911 1.396 1_556 S
C1912 C1913 1.399 . S
C1913 H1899 0.929 . S
C1913 C1912 1.399 . S
C1913 C1914 1.385 1_556 S
C1914 H1900 0.931 . S
C1914 C1913 1.385 1_554 S
C1914 C1915 1.389 . S
C1915 C1914 1.389 . S
C1915 C1916 1.387 . S
C1916 H1901 0.930 . S
C1916 C1911 1.390 . S
C1916 C1915 1.387 . S
H1917 C1929 0.930 . S
H1918 C1931 0.930 . S
H1919 C1932 0.930 . S
H1920 C1936 0.959 . S
H1921 C1936 0.959 . S
H1922 C1936 0.961 . S
H1923 C1937 0.960 . S
H1924 C1937 0.961 . S
H1925 C1937 0.959 . S
H1926 C1940 0.929 . S
H1927 C1941 0.931 . S
H1928 C1943 0.930 . S
C1929 H1917 0.930 . S
C1929 C1930 1.399 . S
C1929 C1934 1.399 . S
C1930 C1929 1.399 . S
C1930 C1931 1.376 . S
C1931 H1918 0.930 . S
C1931 C1930 1.376 . S
C1931 C1932 1.388 . S
C1932 H1919 0.930 . S
C1932 C1931 1.388 . S
C1932 C1933 1.390 . S
C1933 C1932 1.390 . S
C1933 C1934 1.394 . S
C1933 C1939 1.465 . S
C1934 C1929 1.399 . S
C1934 C1933 1.394 . S
C1934 C1935 1.516 . S
C1935 C1934 1.516 . S
C1935 C1936 1.502 . S
C1935 C1937 1.561 . S
C1935 C1938 1.526 . S
C1936 H1920 0.959 . S
C1936 H1921 0.959 . S
C1936 H1922 0.961 . S
C1936 C1935 1.502 . S
C1937 H1923 0.960 . S
C1937 H1924 0.961 . S
C1937 H1925 0.959 . S
C1937 C1935 1.561 . S
C1938 C1935 1.526 . S
C1938 C1939 1.396 . S
C1938 C1943 1.390 . S
C1939 C1933 1.465 . S
C1939 C1938 1.396 . S
C1939 C1940 1.399 . S
C1940 H1926 0.929 . S
C1940 C1939 1.399 . S
C1940 C1941 1.385 . S
C1941 H1927 0.931 . S
C1941 C1940 1.385 . S
C1941 C1942 1.389 . S
C1942 C1941 1.389 . S
C1942 C1943 1.387 . S
C1943 H1928 0.930 . S
C1943 C1938 1.390 . S
C1943 C1942 1.387 . S
H1944 C1956 0.930 . S
H1945 C1958 0.930 1_554 S
H1946 C1959 0.930 . S
H1947 C1963 0.959 . S
H1948 C1963 0.959 . S
H1949 C1963 0.961 . S
H1950 C1964 0.960 . S
H1951 C1964 0.961 . S
H1952 C1964 0.959 . S
H1953 C1967 0.929 . S
H1954 C1968 0.931 . S
H1955 C1970 0.930 1_556 S
C1956 H1944 0.930 . S
C1956 C1957 1.399 . S
C1956 C1961 1.399 . S
C1957 C1956 1.399 . S
C1957 C1958 1.376 . S
C1958 H1945 0.930 1_556 S
C1958 C1957 1.376 . S
C1958 C1959 1.388 1_556 S
C1959 H1946 0.930 . S
C1959 C1958 1.388 1_554 S
C1959 C1960 1.390 . S
C1960 C1959 1.390 . S
C1960 C1961 1.394 1_554 S
C1960 C1966 1.465 . S
C1961 C1956 1.399 . S
C1961 C1960 1.394 1_556 S
C1961 C1962 1.516 . S
C1962 C1961 1.516 . S
C1962 C1963 1.502 . S
C1962 C1964 1.561 . S
C1962 C1965 1.526 . S
C1963 H1947 0.959 . S
C1963 H1948 0.959 . S
C1963 H1949 0.961 . S
C1963 C1962 1.502 . S
C1964 H1950 0.960 . S
C1964 H1951 0.961 . S
C1964 H1952 0.959 . S
C1964 C1962 1.561 . S
C1965 C1962 1.526 . S
C1965 C1966 1.396 1_556 S
C1965 C1970 1.390 1_556 S
C1966 C1960 1.465 . S
C1966 C1965 1.396 1_554 S
C1966 C1967 1.399 . S
C1967 H1953 0.929 . S
C1967 C1966 1.399 . S
C1967 C1968 1.385 . S
C1968 H1954 0.931 . S
C1968 C1967 1.385 . S
C1968 C1969 1.389 . S
C1969 C1968 1.389 . S
C1969 C1970 1.387 . S
C1970 H1955 0.930 1_554 S
C1970 C1965 1.390 1_554 S
C1970 C1969 1.387 . S
H1971 C1983 0.930 . S
H1972 C1985 0.930 . S
H1973 C1986 0.930 . S
H1974 C1990 0.959 . S
H1975 C1990 0.959 . S
H1976 C1990 0.961 . S
H1977 C1991 0.960 . S
H1978 C1991 0.961 . S
H1979 C1991 0.959 . S
H1980 C1994 0.929 . S
H1981 C1995 0.931 . S
H1982 C1997 0.930 . S
C1983 H1971 0.930 . S
C1983 C1984 1.399 . S
C1983 C1988 1.399 . S
C1984 C1983 1.399 . S
C1984 C1985 1.376 . S
C1985 H1972 0.930 . S
C1985 C1984 1.376 . S
C1985 C1986 1.388 . S
C1986 H1973 0.930 . S
C1986 C1985 1.388 . S
C1986 C1987 1.390 . S
C1987 C1986 1.390 . S
C1987 C1988 1.394 . S
C1987 C1993 1.465 . S
C1988 C1983 1.399 . S
C1988 C1987 1.394 . S
C1988 C1989 1.516 . S
C1989 C1988 1.516 . S
C1989 C1990 1.502 . S
C1989 C1991 1.561 . S
C1989 C1992 1.526 . S
C1990 H1974 0.959 . S
C1990 H1975 0.959 . S
C1990 H1976 0.961 . S
C1990 C1989 1.502 . S
C1991 H1977 0.960 . S
C1991 H1978 0.961 . S
C1991 H1979 0.959 . S
C1991 C1989 1.561 . S
C1992 C1989 1.526 . S
C1992 C1993 1.396 . S
C1992 C1997 1.390 . S
C1993 C1987 1.465 . S
C1993 C1992 1.396 . S
C1993 C1994 1.399 . S
C1994 H1980 0.929 . S
C1994 C1993 1.399 . S
C1994 C1995 1.385 . S
C1995 H1981 0.931 . S
C1995 C1994 1.385 . S
C1995 C1996 1.389 . S
C1996 C1995 1.389 . S
C1996 C1997 1.387 . S
C1997 H1982 0.930 . S
C1997 C1992 1.390 . S
C1997 C1996 1.387 . S
H1998 C2010 0.930 . S
H1999 C2012 0.928 1_556 S
H2000 C2013 0.930 . S
H2001 C2017 0.959 . S
H2002 C2017 0.959 . S
H2003 C2017 0.961 . S
H2004 C2018 0.960 . S
H2005 C2018 0.961 . S
H2006 C2018 0.959 . S
H2007 C2021 0.929 . S
H2008 C2022 0.931 . S
H2009 C2024 0.930 1_554 S
C2010 H1998 0.930 . S
C2010 C2011 1.399 . S
C2010 C2015 1.399 . S
C2011 C2010 1.399 . S
C2011 C2012 1.376 . S
C2012 H1999 0.928 1_554 S
C2012 C2011 1.376 . S
C2012 C2013 1.388 1_554 S
C2013 H2000 0.930 . S
C2013 C2012 1.388 1_556 S
C2013 C2014 1.390 . S
C2014 C2013 1.390 . S
C2014 C2015 1.394 1_556 S
C2014 C2020 1.465 . S
C2015 C2010 1.399 . S
C2015 C2014 1.394 1_554 S
C2015 C2016 1.516 . S
C2016 C2015 1.516 . S
C2016 C2017 1.502 . S
C2016 C2018 1.561 . S
C2016 C2019 1.555 . S
C2017 H2001 0.959 . S
C2017 H2002 0.959 . S
C2017 H2003 0.961 . S
C2017 C2016 1.502 . S
C2018 H2004 0.960 . S
C2018 H2005 0.961 . S
C2018 H2006 0.959 . S
C2018 C2016 1.561 . S
C2019 C2016 1.555 . S
C2019 C2020 1.376 1_554 S
C2019 C2024 1.380 1_554 S
C2020 C2014 1.465 . S
C2020 C2019 1.376 1_556 S
C2020 C2021 1.399 . S
C2021 H2007 0.929 . S
C2021 C2020 1.399 . S
C2021 C2022 1.385 . S
C2022 H2008 0.931 . S
C2022 C2021 1.385 . S
C2022 C2023 1.389 . S
C2023 C2022 1.389 . S
C2023 C2024 1.387 . S
C2024 H2009 0.930 1_556 S
C2024 C2019 1.380 1_556 S
C2024 C2023 1.387 . S
H2025 C2037 0.930 . S
H2026 C2039 0.930 . S
H2027 C2040 0.930 . S
H2028 C2044 0.959 . S
H2029 C2044 0.959 . S
H2030 C2044 0.961 . S
H2031 C2045 0.960 . S
H2032 C2045 0.961 . S
H2033 C2045 0.959 . S
H2034 C2048 0.929 . S
H2035 C2049 0.931 . S
H2036 C2051 0.930 . S
C2037 H2025 0.930 . S
C2037 C2038 1.399 . S
C2037 C2042 1.399 . S
C2038 C2037 1.399 . S
C2038 C2039 1.376 . S
C2039 H2026 0.930 . S
C2039 C2038 1.376 . S
C2039 C2040 1.388 . S
C2040 H2027 0.930 . S
C2040 C2039 1.388 . S
C2040 C2041 1.390 . S
C2041 C2040 1.390 . S
C2041 C2042 1.394 . S
C2041 C2047 1.465 . S
C2042 C2037 1.399 . S
C2042 C2041 1.394 . S
C2042 C2043 1.516 . S
C2043 C2042 1.516 . S
C2043 C2044 1.502 . S
C2043 C2045 1.561 . S
C2043 C2046 1.526 . S
C2044 H2028 0.959 . S
C2044 H2029 0.959 . S
C2044 H2030 0.961 . S
C2044 C2043 1.502 . S
C2045 H2031 0.960 . S
C2045 H2032 0.961 . S
C2045 H2033 0.959 . S
C2045 C2043 1.561 . S
C2046 C2043 1.526 . S
C2046 C2047 1.396 . S
C2046 C2051 1.390 . S
C2047 C2041 1.465 . S
C2047 C2046 1.396 . S
C2047 C2048 1.399 . S
C2048 H2034 0.929 . S
C2048 C2047 1.399 . S
C2048 C2049 1.385 . S
C2049 H2035 0.931 . S
C2049 C2048 1.385 . S
C2049 C2050 1.389 . S
C2050 C2049 1.389 . S
C2050 C2051 1.387 . S
C2051 H2036 0.930 . S
C2051 C2046 1.390 . S
C2051 C2050 1.387 . S
H2052 C2064 0.930 1_556 S
H2053 C2066 0.930 . S
H2054 C2067 0.930 . S
H2055 C2071 0.959 . S
H2056 C2071 0.959 . S
H2057 C2071 0.961 . S
H2058 C2072 0.960 . S
H2059 C2072 0.961 . S
H2060 C2072 0.959 . S
H2061 C2075 0.929 . S
H2062 C2076 0.930 1_554 S
H2063 C2078 0.930 . S
C2064 H2052 0.930 1_554 S
C2064 C2065 1.399 . S
C2064 C2069 1.399 1_554 S
C2065 C2064 1.399 . S
C2065 C2066 1.376 . S
C2066 H2053 0.930 . S
C2066 C2065 1.376 . S
C2066 C2067 1.388 . S
C2067 H2054 0.930 . S
C2067 C2066 1.388 . S
C2067 C2068 1.390 . S
C2068 C2067 1.390 . S
C2068 C2069 1.394 1_554 S
C2068 C2074 1.465 . S
C2069 C2064 1.399 1_556 S
C2069 C2068 1.394 1_556 S
C2069 C2070 1.516 . S
C2070 C2069 1.516 . S
C2070 C2071 1.502 . S
C2070 C2072 1.561 . S
C2070 C2073 1.526 . S
C2071 H2055 0.959 . S
C2071 H2056 0.959 . S
C2071 H2057 0.961 . S
C2071 C2070 1.502 . S
C2072 H2058 0.960 . S
C2072 H2059 0.961 . S
C2072 H2060 0.959 . S
C2072 C2070 1.561 . S
C2073 C2070 1.526 . S
C2073 C2074 1.396 1_556 S
C2073 C2078 1.390 . S
C2074 C2068 1.465 . S
C2074 C2073 1.396 1_554 S
C2074 C2075 1.399 . S
C2075 H2061 0.929 . S
C2075 C2074 1.399 . S
C2075 C2076 1.384 1_554 S
C2076 H2062 0.930 1_556 S
C2076 C2075 1.384 1_556 S
C2076 C2077 1.391 . S
C2077 C2076 1.391 . S
C2077 C2078 1.387 . S
C2078 H2063 0.930 . S
C2078 C2073 1.390 . S
C2078 C2077 1.387 . S
H2079 C2091 0.930 . S
H2080 C2093 0.930 . S
H2081 C2094 0.930 . S
H2082 C2098 0.959 . S
H2083 C2098 0.959 . S
H2084 C2098 0.961 . S
H2085 C2099 0.960 . S
H2086 C2099 0.961 . S
H2087 C2099 0.959 . S
H2088 C2102 0.929 . S
H2089 C2103 0.931 . S
H2090 C2105 0.930 . S
C2091 H2079 0.930 . S
C2091 C2092 1.399 . S
C2091 C2096 1.399 . S
C2092 C2091 1.399 . S
C2092 C2093 1.376 . S
C2093 H2080 0.930 . S
C2093 C2092 1.376 . S
C2093 C2094 1.388 . S
C2094 H2081 0.930 . S
C2094 C2093 1.388 . S
C2094 C2095 1.390 . S
C2095 C2094 1.390 . S
C2095 C2096 1.394 . S
C2095 C2101 1.465 . S
C2096 C2091 1.399 . S
C2096 C2095 1.394 . S
C2096 C2097 1.516 . S
C2097 C2096 1.516 . S
C2097 C2098 1.502 . S
C2097 C2099 1.561 . S
C2097 C2100 1.526 . S
C2098 H2082 0.959 . S
C2098 H2083 0.959 . S
C2098 H2084 0.961 . S
C2098 C2097 1.502 . S
C2099 H2085 0.960 . S
C2099 H2086 0.961 . S
C2099 H2087 0.959 . S
C2099 C2097 1.561 . S
C2100 C2097 1.526 . S
C2100 C2101 1.396 . S
C2100 C2105 1.390 . S
C2101 C2095 1.465 . S
C2101 C2100 1.396 . S
C2101 C2102 1.399 . S
C2102 H2088 0.929 . S
C2102 C2101 1.399 . S
C2102 C2103 1.385 . S
C2103 H2089 0.931 . S
C2103 C2102 1.385 . S
C2103 C2104 1.389 . S
C2104 C2103 1.389 . S
C2104 C2105 1.387 . S
C2105 H2090 0.930 . S
C2105 C2100 1.390 . S
C2105 C2104 1.387 . S
H2106 C2118 0.926 1_554 S
H2107 C2120 0.930 . S
H2108 C2121 0.930 . S
H2109 C2125 0.959 . S
H2110 C2125 0.959 . S
H2111 C2125 0.961 . S
H2112 C2126 0.960 . S
H2113 C2126 0.961 . S
H2114 C2126 0.959 . S
H2115 C2129 0.929 . S
H2116 C2130 0.931 . S
H2117 C2132 0.930 . S
C2118 H2106 0.926 1_556 S
C2118 C2119 1.399 . S
C2118 C2123 1.398 1_556 S
C2119 C2118 1.399 . S
C2119 C2120 1.376 . S
C2120 H2107 0.930 . S
C2120 C2119 1.376 . S
C2120 C2121 1.388 . S
C2121 H2108 0.930 . S
C2121 C2120 1.388 . S
C2121 C2122 1.390 . S
C2122 C2121 1.390 . S
C2122 C2123 1.392 1_556 S
C2122 C2128 1.465 . S
C2123 C2118 1.398 1_554 S
C2123 C2122 1.392 1_554 S
C2123 C2124 1.519 . S
C2124 C2123 1.519 . S
C2124 C2125 1.502 . S
C2124 C2126 1.561 . S
C2124 C2127 1.526 . S
C2125 H2109 0.959 . S
C2125 H2110 0.959 . S
C2125 H2111 0.961 . S
C2125 C2124 1.502 . S
C2126 H2112 0.960 . S
C2126 H2113 0.961 . S
C2126 H2114 0.959 . S
C2126 C2124 1.561 . S
C2127 C2124 1.526 . S
C2127 C2128 1.396 1_554 S
C2127 C2132 1.390 . S
C2128 C2122 1.465 . S
C2128 C2127 1.396 1_556 S
C2128 C2129 1.399 . S
C2129 H2115 0.929 . S
C2129 C2128 1.399 . S
C2129 C2130 1.385 1_556 S
C2130 H2116 0.931 . S
C2130 C2129 1.385 1_554 S
C2130 C2131 1.389 . S
C2131 C2130 1.389 . S
C2131 C2132 1.387 . S
C2132 H2117 0.930 . S
C2132 C2127 1.390 . S
C2132 C2131 1.387 . S
H2133 C2145 0.930 . S
H2134 C2147 0.930 . S
H2135 C2148 0.930 . S
H2136 C2152 0.959 . S
H2137 C2152 0.959 . S
H2138 C2152 0.961 . S
H2139 C2153 0.960 . S
H2140 C2153 0.961 . S
H2141 C2153 0.959 . S
H2142 C2156 0.929 . S
H2143 C2157 0.931 . S
H2144 C2159 0.930 . S
C2145 H2133 0.930 . S
C2145 C2146 1.399 . S
C2145 C2150 1.399 . S
C2146 C2145 1.399 . S
C2146 C2147 1.376 . S
C2147 H2134 0.930 . S
C2147 C2146 1.376 . S
C2147 C2148 1.388 . S
C2148 H2135 0.930 . S
C2148 C2147 1.388 . S
C2148 C2149 1.390 . S
C2149 C2148 1.390 . S
C2149 C2150 1.394 . S
C2149 C2155 1.465 . S
C2150 C2145 1.399 . S
C2150 C2149 1.394 . S
C2150 C2151 1.516 . S
C2151 C2150 1.516 . S
C2151 C2152 1.502 . S
C2151 C2153 1.561 . S
C2151 C2154 1.526 . S
C2152 H2136 0.959 . S
C2152 H2137 0.959 . S
C2152 H2138 0.961 . S
C2152 C2151 1.502 . S
C2153 H2139 0.960 . S
C2153 H2140 0.961 . S
C2153 H2141 0.959 . S
C2153 C2151 1.561 . S
C2154 C2151 1.526 . S
C2154 C2155 1.396 . S
C2154 C2159 1.390 . S
C2155 C2149 1.465 . S
C2155 C2154 1.396 . S
C2155 C2156 1.399 . S
C2156 H2142 0.929 . S
C2156 C2155 1.399 . S
C2156 C2157 1.385 . S
C2157 H2143 0.931 . S
C2157 C2156 1.385 . S
C2157 C2158 1.389 . S
C2158 C2157 1.389 . S
C2158 C2159 1.387 . S
C2159 H2144 0.930 . S
C2159 C2154 1.390 . S
C2159 C2158 1.387 . S
C877 C14 1.339 . S
C889 C554 1.351 . S
C904 C50 1.425 . S
C916 C590 1.428 . S
C931 C626 1.429 . S
C943 C86 1.428 . S
C958 C446 1.348 . S
C970 C122 1.362 . S
C985 C482 1.398 . S
C997 C158 1.411 . S
C1012 C518 1.422 . S
C1024 C194 1.427 . S
C1039 C770 1.393 . S
C1051 C230 1.378 . S
C1066 C266 1.422 . S
C1078 C806 1.412 . S
C1093 C842 1.330 . S
C1105 C302 1.331 . S
C1120 C338 1.426 . S
C1132 C662 1.429 . S
C1147 C698 1.344 . S
C1159 C374 1.357 . S
C1174 C410 1.387 . S
C1186 C734 1.402 . S
C1201 C363 1.286 . S
C1213 C3 1.284 . S
C1228 C399 1.289 . S
C1240 C39 1.281 . S
C1255 C75 1.286 . S
C1267 C219 1.284 . S
C1282 C111 1.282 . S
C1294 C255 1.287 . S
C1309 C291 1.281 . S
C1321 C147 1.288 . S
C1336 C183 1.283 . S
C1348 C327 1.287 . S
C1363 C795 1.283 . S
C1375 C435 1.285 . S
C1390 C471 1.288 . S
C1402 C831 1.281 . S
C1417 C507 1.287 . S
C1429 C651 1.281 . S
C1444 C687 1.281 . S
C1456 C543 1.286 . S
C1471 C579 1.288 . S
C1483 C723 1.281 . S
C1498 C615 1.281 . S
C1510 C759 1.289 . S
C1525 C4 1.392 . S
C1537 C652 1.395 . S
C1552 C688 1.364 . S
C1564 C40 1.356 . S
C1579 C76 1.393 . S
C1591 C724 1.387 . S
C1606 C112 1.345 . S
C1618 C760 1.341 . S
C1633 C796 1.355 . S
C1645 C148 1.364 . S
C1660 C184 1.392 . S
C1672 C832 1.387 . S
C1687 C220 1.393 . S
C1699 C436 1.395 . S
C1714 C256 1.372 . S
C1726 C472 1.380 . S
C1741 C508 1.352 . S
C1753 C292 1.360 . S
C1768 C544 1.341 . S
C1780 C328 1.339 . S
C1795 C364 1.393 . S
C1807 C580 1.387 . S
C1822 C616 1.390 . S
C1834 C400 1.384 . S
C1849 C218 1.462 . S
C1861 C2 1.484 . S
C1876 C38 1.475 . S
C1888 C254 1.462 . S
C1903 C290 1.478 . S
C1915 C74 1.462 . S
C1930 C326 1.492 . S
C1942 C110 1.469 . S
C1957 C362 1.461 . S
C1969 C146 1.480 . S
C1984 C182 1.485 . S
C1996 C398 1.463 . S
C2011 C650 1.484 . S
C2023 C434 1.494 . S
C2038 C470 1.481 . S
C2050 C686 1.493 . S
C2065 C722 1.477 . S
C2077 C506 1.464 . S
C2092 C758 1.463 . S
C2104 C542 1.464 . S
C2119 C578 1.469 . S
C2131 C794 1.462 . S
C2146 C614 1.461 . S
C2158 C830 1.468 . S
