# Generated by pormake.
# Topology zfp, (5)-cn, num edge types: 1
# Building blocks:
#     Node 0, Type 0, BuildingBlock: XOMCOT_clean_sbu_0, # of connection points: 5
#     Node 1, Type 0, BuildingBlock: XOMCOT_clean_sbu_0, # of connection points: 5
#     Node 2, Type 0, BuildingBlock: XOMCOT_clean_sbu_0, # of connection points: 5
#     Node 3, Type 0, BuildingBlock: XOMCOT_clean_sbu_0, # of connection points: 5
#     Node 4, Type 0, BuildingBlock: XOMCOT_clean_sbu_0, # of connection points: 5
#     Node 5, Type 0, BuildingBlock: XOMCOT_clean_sbu_0, # of connection points: 5
#     Node 6, Type 0, BuildingBlock: XOMCOT_clean_sbu_0, # of connection points: 5
#     Node 7, Type 0, BuildingBlock: XOMCOT_clean_sbu_0, # of connection points: 5
#     Node 8, Type 0, BuildingBlock: XOMCOT_clean_sbu_0, # of connection points: 5
#     Node 9, Type 0, BuildingBlock: XOMCOT_clean_sbu_0, # of connection points: 5
#     Node 10, Type 0, BuildingBlock: XOMCOT_clean_sbu_0, # of connection points: 5
#     Node 11, Type 0, BuildingBlock: XOMCOT_clean_sbu_0, # of connection points: 5
#     Node 12, Type 0, BuildingBlock: XOMCOT_clean_sbu_0, # of connection points: 5
#     Node 13, Type 0, BuildingBlock: XOMCOT_clean_sbu_0, # of connection points: 5
#     Node 14, Type 0, BuildingBlock: XOMCOT_clean_sbu_0, # of connection points: 5
#     Node 15, Type 0, BuildingBlock: XOMCOT_clean_sbu_0, # of connection points: 5
#     Edge 16, Type (0, 0), BuildingBlock: KIFKEQ_clean_linker_1, # of connection points: 2
#     Edge 17, Type (0, 0), BuildingBlock: KIFKEQ_clean_linker_1, # of connection points: 2
#     Edge 18, Type (0, 0), BuildingBlock: KIFKEQ_clean_linker_1, # of connection points: 2
#     Edge 19, Type (0, 0), BuildingBlock: KIFKEQ_clean_linker_1, # of connection points: 2
#     Edge 20, Type (0, 0), BuildingBlock: KIFKEQ_clean_linker_1, # of connection points: 2
#     Edge 21, Type (0, 0), BuildingBlock: KIFKEQ_clean_linker_1, # of connection points: 2
#     Edge 22, Type (0, 0), BuildingBlock: KIFKEQ_clean_linker_1, # of connection points: 2
#     Edge 23, Type (0, 0), BuildingBlock: KIFKEQ_clean_linker_1, # of connection points: 2
#     Edge 24, Type (0, 0), BuildingBlock: KIFKEQ_clean_linker_1, # of connection points: 2
#     Edge 25, Type (0, 0), BuildingBlock: KIFKEQ_clean_linker_1, # of connection points: 2
#     Edge 26, Type (0, 0), BuildingBlock: KIFKEQ_clean_linker_1, # of connection points: 2
#     Edge 27, Type (0, 0), BuildingBlock: KIFKEQ_clean_linker_1, # of connection points: 2
#     Edge 28, Type (0, 0), BuildingBlock: KIFKEQ_clean_linker_1, # of connection points: 2
#     Edge 29, Type (0, 0), BuildingBlock: KIFKEQ_clean_linker_1, # of connection points: 2
#     Edge 30, Type (0, 0), BuildingBlock: KIFKEQ_clean_linker_1, # of connection points: 2
#     Edge 31, Type (0, 0), BuildingBlock: KIFKEQ_clean_linker_1, # of connection points: 2
#     Edge 32, Type (0, 0), BuildingBlock: KIFKEQ_clean_linker_1, # of connection points: 2
#     Edge 33, Type (0, 0), BuildingBlock: KIFKEQ_clean_linker_1, # of connection points: 2
#     Edge 34, Type (0, 0), BuildingBlock: KIFKEQ_clean_linker_1, # of connection points: 2
#     Edge 35, Type (0, 0), BuildingBlock: KIFKEQ_clean_linker_1, # of connection points: 2
#     Edge 36, Type (0, 0), BuildingBlock: KIFKEQ_clean_linker_1, # of connection points: 2
#     Edge 37, Type (0, 0), BuildingBlock: KIFKEQ_clean_linker_1, # of connection points: 2
#     Edge 38, Type (0, 0), BuildingBlock: KIFKEQ_clean_linker_1, # of connection points: 2
#     Edge 39, Type (0, 0), BuildingBlock: KIFKEQ_clean_linker_1, # of connection points: 2
#     Edge 40, Type (0, 0), BuildingBlock: KIFKEQ_clean_linker_1, # of connection points: 2
#     Edge 41, Type (0, 0), BuildingBlock: KIFKEQ_clean_linker_1, # of connection points: 2
#     Edge 42, Type (0, 0), BuildingBlock: KIFKEQ_clean_linker_1, # of connection points: 2
#     Edge 43, Type (0, 0), BuildingBlock: KIFKEQ_clean_linker_1, # of connection points: 2
#     Edge 44, Type (0, 0), BuildingBlock: KIFKEQ_clean_linker_1, # of connection points: 2
#     Edge 45, Type (0, 0), BuildingBlock: KIFKEQ_clean_linker_1, # of connection points: 2
#     Edge 46, Type (0, 0), BuildingBlock: KIFKEQ_clean_linker_1, # of connection points: 2
#     Edge 47, Type (0, 0), BuildingBlock: KIFKEQ_clean_linker_1, # of connection points: 2
#     Edge 48, Type (0, 0), BuildingBlock: KIFKEQ_clean_linker_1, # of connection points: 2
#     Edge 49, Type (0, 0), BuildingBlock: KIFKEQ_clean_linker_1, # of connection points: 2
#     Edge 50, Type (0, 0), BuildingBlock: KIFKEQ_clean_linker_1, # of connection points: 2
#     Edge 51, Type (0, 0), BuildingBlock: KIFKEQ_clean_linker_1, # of connection points: 2
#     Edge 52, Type (0, 0), BuildingBlock: KIFKEQ_clean_linker_1, # of connection points: 2
#     Edge 53, Type (0, 0), BuildingBlock: KIFKEQ_clean_linker_1, # of connection points: 2
#     Edge 54, Type (0, 0), BuildingBlock: KIFKEQ_clean_linker_1, # of connection points: 2
#     Edge 55, Type (0, 0), BuildingBlock: KIFKEQ_clean_linker_1, # of connection points: 2
# Relax obj value: 0.349
# Max RMSD: 0.236
# Mean RMSD: 0.236
data_MOF--net-zfp--node1-XOMCOT_clean_sbu_0--edge1-KIFKEQ_clean_linker_1
_symmetry_space_group_name_H-M    P1
_symmetry_Int_Tables_number       1
_symmetry_cell_setting            triclinic
loop_
_symmetry_equiv_pos_as_xyz
'x, y, z'
_cell_length_a     29.928513
_cell_length_b     29.698611
_cell_length_c     70.927022
_cell_angle_alpha  90.341348
_cell_angle_beta   89.833503
_cell_angle_gamma 90.0421
loop_
_atom_site_label
_atom_site_type_symbol
_atom_site_fract_x
_atom_site_fract_y
_atom_site_fract_z
_atom_type_partial_charge
Co0 Co 0.24277 0.32055 0.13666 0.0
C1 C 0.25192 0.29415 0.17749 0.0
C2 C 0.18438 0.29221 0.16765 0.0
C3 C 0.18404 0.28516 0.18666 0.0
N4 N 0.22687 0.29716 0.16157 0.0
N5 N 0.22631 0.28726 0.19306 0.0
H6 H 0.28743 0.30083 0.17798 0.0
H7 H 0.15478 0.29805 0.1594 0.0
C8 C 0.16403 0.2588 0.12685 0.0
O9 O 0.18605 0.22388 0.13328 0.0
N10 N 0.258 0.34454 0.11217 0.0
C11 C 0.27687 0.38495 0.10912 0.0
C12 C 0.2829 0.39026 0.09007 0.0
C13 C 0.25305 0.32549 0.09495 0.0
N14 N 0.26815 0.35285 0.08107 0.0
C15 C 0.21821 0.39684 0.15973 0.0
C16 C 0.15336 0.42796 0.13533 0.0
C17 C 0.1574 0.44787 0.15318 0.0
C18 C 0.19076 0.43257 0.16539 0.0
C19 C 0.18071 0.392 0.13043 0.0
N20 N 0.21152 0.37582 0.1428 0.0
H21 H 0.24372 0.38492 0.16921 0.0
H22 H 0.17623 0.37634 0.11678 0.0
H23 H 0.28531 0.40905 0.12004 0.0
H24 H 0.2393 0.29219 0.09272 0.0
O25 O 0.30243 0.33637 0.14531 0.0
O26 O 0.2853 0.27139 0.13197 0.0
O27 O 0.18369 0.29701 0.12596 0.0
C28 C 0.31632 0.29793 0.13877 0.0
H29 H 0.15434 0.28157 0.19525 0.0
H30 H 0.29659 0.41992 0.08341 0.0
H31 H 0.12794 0.43883 0.12552 0.0
H32 H 0.19516 0.44769 0.17919 0.0
Co33 Co 0.74964 0.23712 0.63956 0.0
C34 C 0.76379 0.25725 0.68026 0.0
C35 C 0.82552 0.25071 0.66499 0.0
C36 C 0.83505 0.2577 0.68377 0.0
N37 N 0.78092 0.25006 0.66284 0.0
N38 N 0.79623 0.2614 0.69345 0.0
H39 H 0.72834 0.25729 0.68327 0.0
H40 H 0.84942 0.24549 0.65372 0.0
C41 C 0.79658 0.15686 0.62108 0.0
O42 O 0.79304 0.17458 0.60424 0.0
N43 N 0.71874 0.224 0.61576 0.0
C44 C 0.6968 0.18552 0.61141 0.0
C45 C 0.68739 0.18479 0.59246 0.0
C46 C 0.72237 0.24601 0.59908 0.0
N47 N 0.70386 0.22256 0.58463 0.0
C48 C 0.66357 0.20288 0.65157 0.0
C49 C 0.69872 0.13196 0.67186 0.0
C50 C 0.653 0.13183 0.66775 0.0
C51 C 0.63498 0.16917 0.6583 0.0
C52 C 0.72597 0.16535 0.66446 0.0
N53 N 0.70873 0.19852 0.6534 0.0
H54 H 0.64997 0.23029 0.64342 0.0
H55 H 0.76142 0.16352 0.66712 0.0
H56 H 0.69127 0.15774 0.62091 0.0
H57 H 0.74103 0.27683 0.59718 0.0
O58 O 0.71826 0.29392 0.64207 0.0
O59 O 0.78313 0.28662 0.62762 0.0
O60 O 0.78885 0.18116 0.63574 0.0
C61 C 0.75115 0.31343 0.6334 0.0
H62 H 0.86819 0.25945 0.68977 0.0
H63 H 0.67144 0.15742 0.58491 0.0
H64 H 0.71387 0.10517 0.67992 0.0
H65 H 0.59975 0.17089 0.65497 0.0
Co66 Co 0.78056 0.74203 0.14315 0.0
C67 C 0.77118 0.76521 0.18367 0.0
C68 C 0.79254 0.82211 0.16743 0.0
C69 C 0.79141 0.8343 0.18623 0.0
N70 N 0.78034 0.77869 0.1659 0.0
N71 N 0.77821 0.79842 0.19653 0.0
H72 H 0.76087 0.73128 0.18703 0.0
H73 H 0.80298 0.84301 0.15579 0.0
C74 C 0.8715 0.75198 0.12679 0.0
O75 O 0.86757 0.70888 0.12287 0.0
N76 N 0.77779 0.70662 0.11971 0.0
C77 C 0.75364 0.66878 0.11687 0.0
C78 C 0.75278 0.6587 0.09797 0.0
C79 C 0.7886 0.7205 0.10203 0.0
N80 N 0.77501 0.69104 0.08853 0.0
C81 C 0.81554 0.65324 0.1543 0.0
C82 C 0.88924 0.68935 0.17229 0.0
C83 C 0.88912 0.64343 0.16798 0.0
C84 C 0.85052 0.62483 0.15981 0.0
C85 C 0.85465 0.71637 0.16605 0.0
N86 N 0.81961 0.6989 0.156 0.0
H87 H 0.78653 0.63832 0.14804 0.0
H88 H 0.85831 0.75221 0.16805 0.0
H89 H 0.73452 0.65135 0.1275 0.0
H90 H 0.80504 0.75213 0.09909 0.0
O91 O 0.72221 0.71899 0.15014 0.0
O92 O 0.73324 0.77964 0.13282 0.0
O93 O 0.83802 0.77341 0.13404 0.0
C94 C 0.7049 0.75186 0.14059 0.0
H95 H 0.80126 0.86676 0.19182 0.0
H96 H 0.73457 0.63106 0.09161 0.0
H97 H 0.91736 0.70506 0.17932 0.0
H98 H 0.84832 0.58918 0.15667 0.0
Co99 Co 0.32475 0.78499 0.63625 0.0
C100 C 0.30352 0.77281 0.67755 0.0
C101 C 0.26712 0.82736 0.66536 0.0
C102 C 0.25843 0.82682 0.68432 0.0
N103 N 0.2963 0.79422 0.66094 0.0
N104 N 0.28162 0.79295 0.69207 0.0
H105 H 0.32581 0.74447 0.67922 0.0
H106 H 0.25337 0.85163 0.65584 0.0
C107 C 0.26798 0.86569 0.62078 0.0
O108 O 0.23313 0.84117 0.61612 0.0
N109 N 0.35209 0.77562 0.61177 0.0
C110 C 0.39181 0.75582 0.60846 0.0
C111 C 0.39917 0.75456 0.5893 0.0
C112 C 0.33562 0.78594 0.59463 0.0
N113 N 0.36386 0.77348 0.58058 0.0
C114 C 0.39922 0.80712 0.661 0.0
C115 C 0.43043 0.87666 0.63879 0.0
C116 C 0.45021 0.86927 0.65631 0.0
C117 C 0.43477 0.83373 0.66746 0.0
C118 C 0.39466 0.85015 0.63313 0.0
N119 N 0.37816 0.81696 0.64447 0.0
H120 H 0.38888 0.77878 0.66931 0.0
H121 H 0.37991 0.85683 0.61956 0.0
H122 H 0.41398 0.74342 0.61926 0.0
H123 H 0.30347 0.80166 0.59249 0.0
O124 O 0.34151 0.72419 0.64294 0.0
O125 O 0.27801 0.74085 0.62914 0.0
O126 O 0.3023 0.84689 0.62798 0.0
C127 C 0.30481 0.70956 0.63547 0.0
H128 H 0.23742 0.85038 0.69195 0.0
H129 H 0.42873 0.74146 0.58238 0.0
H130 H 0.44179 0.90359 0.62971 0.0
H131 H 0.45023 0.82644 0.68089 0.0
Co132 Co 0.75361 0.22501 0.88771 0.0
C133 C 0.76358 0.2474 0.84729 0.0
C134 C 0.74508 0.30535 0.86379 0.0
C135 C 0.74829 0.3178 0.84513 0.0
N136 N 0.75425 0.26116 0.86506 0.0
N137 N 0.75969 0.28128 0.8347 0.0
H138 H 0.77151 0.21288 0.84369 0.0
H139 H 0.73636 0.32689 0.87558 0.0
C140 C 0.66237 0.23608 0.90379 0.0
O141 O 0.66608 0.1933 0.90809 0.0
N142 N 0.75617 0.19011 0.91109 0.0
C143 C 0.78095 0.15283 0.91387 0.0
C144 C 0.78276 0.14365 0.93276 0.0
C145 C 0.74562 0.20444 0.92879 0.0
N146 N 0.7603 0.17592 0.94234 0.0
C147 C 0.7179 0.136 0.87659 0.0
C148 C 0.64511 0.1719 0.85809 0.0
C149 C 0.64505 0.12592 0.8621 0.0
C150 C 0.68314 0.10752 0.87067 0.0
C151 C 0.67959 0.19897 0.86462 0.0
N152 N 0.7143 0.18163 0.87482 0.0
H153 H 0.74649 0.12109 0.88311 0.0
H154 H 0.67628 0.23478 0.86259 0.0
H155 H 0.79994 0.13525 0.90315 0.0
H156 H 0.72897 0.23603 0.93166 0.0
O157 O 0.81204 0.20175 0.88072 0.0
O158 O 0.80113 0.26282 0.89806 0.0
O159 O 0.69624 0.25695 0.89666 0.0
C160 C 0.82945 0.23498 0.8902 0.0
H161 H 0.74277 0.35134 0.83975 0.0
H162 H 0.80176 0.1165 0.93887 0.0
H163 H 0.6175 0.18755 0.85078 0.0
H164 H 0.68521 0.07189 0.87368 0.0
Co165 Co 0.81283 0.7808 0.39234 0.0
C166 C 0.79396 0.78706 0.35124 0.0
C167 C 0.73581 0.76846 0.36724 0.0
C168 C 0.72484 0.7686 0.34839 0.0
N169 N 0.7792 0.77954 0.369 0.0
N170 N 0.76142 0.78012 0.33831 0.0
H171 H 0.8282 0.79562 0.34785 0.0
H172 H 0.71387 0.76009 0.37885 0.0
C173 C 0.79774 0.69061 0.40913 0.0
O174 O 0.84016 0.69294 0.41376 0.0
N175 N 0.84499 0.78454 0.4164 0.0
C176 C 0.88261 0.80816 0.42007 0.0
C177 C 0.88978 0.80941 0.43921 0.0
C178 C 0.82855 0.7743 0.43372 0.0
N179 N 0.8558 0.78799 0.44786 0.0
C180 C 0.90166 0.74744 0.38175 0.0
C181 C 0.8699 0.67033 0.36436 0.0
C182 C 0.91588 0.67444 0.3674 0.0
C183 C 0.93191 0.71452 0.37554 0.0
C184 C 0.84107 0.70342 0.37106 0.0
N185 N 0.85669 0.74023 0.3807 0.0
H186 H 0.91469 0.77811 0.38759 0.0
H187 H 0.80566 0.69818 0.36919 0.0
H188 H 0.90213 0.82643 0.40984 0.0
H189 H 0.79625 0.75886 0.43599 0.0
O190 O 0.83806 0.83798 0.38514 0.0
O191 O 0.77535 0.8304 0.40139 0.0
O192 O 0.77885 0.72479 0.40138 0.0
C193 C 0.80476 0.85729 0.39375 0.0
H194 H 0.69236 0.76075 0.34256 0.0
H195 H 0.91748 0.82588 0.44619 0.0
H196 H 0.85593 0.64103 0.35738 0.0
H197 H 0.96729 0.71981 0.37779 0.0
Co198 Co 0.29123 0.8023 0.88816 0.0
C199 C 0.28423 0.78773 0.84573 0.0
C200 C 0.28628 0.72682 0.86171 0.0
C201 C 0.28483 0.71564 0.84286 0.0
N202 N 0.28673 0.77206 0.86363 0.0
N203 N 0.2836 0.75397 0.83283 0.0
H204 H 0.28402 0.82264 0.84188 0.0
H205 H 0.28802 0.70343 0.87332 0.0
C206 C 0.38007 0.75897 0.88176 0.0
O207 O 0.37445 0.77132 0.86419 0.0
N208 N 0.29414 0.83047 0.91283 0.0
C209 C 0.29124 0.87492 0.91662 0.0
C210 C 0.29413 0.88132 0.9358 0.0
C211 C 0.29748 0.81026 0.92979 0.0
N212 N 0.29787 0.84073 0.94404 0.0
C213 C 0.31172 0.88192 0.86593 0.0
C214 C 0.39625 0.89396 0.88075 0.0
C215 C 0.3815 0.92292 0.86671 0.0
C216 C 0.33843 0.91747 0.85941 0.0
C217 C 0.36878 0.85922 0.88671 0.0
N218 N 0.32823 0.85136 0.87845 0.0
H219 H 0.27748 0.87964 0.86127 0.0
H220 H 0.37979 0.83962 0.89856 0.0
H221 H 0.28693 0.90092 0.90618 0.0
H222 H 0.29943 0.77417 0.93167 0.0
O223 O 0.23246 0.82856 0.88457 0.0
O224 O 0.24413 0.76224 0.89748 0.0
O225 O 0.34858 0.76632 0.89388 0.0
C226 C 0.21547 0.7929 0.89231 0.0
H227 H 0.28468 0.68191 0.837 0.0
H228 H 0.29226 0.91324 0.94321 0.0
H229 H 0.42852 0.89877 0.88736 0.0
H230 H 0.32528 0.94096 0.84921 0.0
Co231 Co 0.24462 0.32409 0.38622 0.0
C232 C 0.25859 0.30564 0.34546 0.0
C233 C 0.32041 0.31639 0.36007 0.0
C234 C 0.32959 0.30949 0.34122 0.0
N235 N 0.27595 0.31417 0.36267 0.0
N236 N 0.29068 0.3029 0.33197 0.0
H237 H 0.2231 0.303 0.34284 0.0
H238 H 0.34442 0.32312 0.37111 0.0
C239 C 0.28893 0.40537 0.40487 0.0
O240 O 0.2863 0.38614 0.42146 0.0
N241 N 0.21324 0.33484 0.41008 0.0
C242 C 0.18887 0.37185 0.41425 0.0
C243 C 0.17685 0.37095 0.43291 0.0
C244 C 0.21595 0.3121 0.42658 0.0
N245 N 0.19393 0.3335 0.44076 0.0
C246 C 0.15603 0.34502 0.37433 0.0
C247 C 0.17698 0.4264 0.35765 0.0
C248 C 0.13202 0.4158 0.36105 0.0
C249 C 0.12167 0.3734 0.36854 0.0
C250 C 0.2103 0.39687 0.36353 0.0
N251 N 0.1995 0.3584 0.37297 0.0
H252 H 0.14768 0.31387 0.38132 0.0
H253 H 0.24478 0.40605 0.36124 0.0
H254 H 0.18258 0.39944 0.40476 0.0
H255 H 0.23475 0.28139 0.42838 0.0
O256 O 0.21757 0.26525 0.38387 0.0
O257 O 0.282 0.27713 0.39797 0.0
O258 O 0.27981 0.38259 0.38997 0.0
C259 C 0.25164 0.24816 0.39245 0.0
H260 H 0.3625 0.30947 0.33486 0.0
H261 H 0.15909 0.3974 0.44034 0.0
H262 H 0.18659 0.45844 0.35165 0.0
H263 H 0.08733 0.36326 0.37087 0.0
Co264 Co 0.79319 0.72895 0.89166 0.0
C265 C 0.78556 0.7475 0.85074 0.0
C266 C 0.81277 0.80406 0.86587 0.0
C267 C 0.81273 0.81387 0.84688 0.0
N268 N 0.79625 0.76226 0.86824 0.0
N269 N 0.79555 0.77835 0.83743 0.0
H270 H 0.77239 0.71426 0.84776 0.0
H271 H 0.82501 0.82551 0.87709 0.0
C272 C 0.88194 0.74321 0.90975 0.0
O273 O 0.87777 0.70107 0.91501 0.0
N274 N 0.78768 0.69674 0.91564 0.0
C275 C 0.76495 0.65811 0.91861 0.0
C276 C 0.76029 0.65125 0.93761 0.0
C277 C 0.79419 0.71396 0.93323 0.0
N278 N 0.77844 0.68642 0.94692 0.0
C279 C 0.82474 0.63928 0.88052 0.0
C280 C 0.90459 0.66969 0.86563 0.0
C281 C 0.8984 0.62335 0.86783 0.0
C282 C 0.85703 0.60808 0.87465 0.0
C283 C 0.87175 0.69941 0.87179 0.0
N284 N 0.83372 0.68433 0.88048 0.0
H285 H 0.7929 0.62688 0.88506 0.0
H286 H 0.87798 0.73498 0.87024 0.0
H287 H 0.74862 0.63805 0.90796 0.0
H288 H 0.80793 0.74708 0.93591 0.0
O289 O 0.73667 0.70367 0.88381 0.0
O290 O 0.74304 0.76692 0.90006 0.0
O291 O 0.84893 0.76263 0.9014 0.0
C292 C 0.71678 0.73705 0.89221 0.0
H293 H 0.82449 0.84472 0.84049 0.0
H294 H 0.74308 0.62314 0.94401 0.0
H295 H 0.93507 0.68309 0.85958 0.0
H296 H 0.85009 0.57247 0.87603 0.0
Co297 Co 0.3044 0.82496 0.38761 0.0
C298 C 0.28663 0.80178 0.34767 0.0
C299 C 0.22653 0.81862 0.36273 0.0
C300 C 0.21601 0.81095 0.34409 0.0
N301 N 0.27078 0.8132 0.36488 0.0
N302 N 0.25384 0.80053 0.33454 0.0
H303 H 0.32165 0.79572 0.34488 0.0
H304 H 0.20376 0.82886 0.37381 0.0
C305 C 0.26049 0.90549 0.40713 0.0
O306 O 0.26528 0.88726 0.42382 0.0
N307 N 0.33779 0.83695 0.41084 0.0
C308 C 0.36085 0.87487 0.41501 0.0
C309 C 0.37231 0.87464 0.43374 0.0
C310 C 0.33547 0.81439 0.4274 0.0
N311 N 0.35593 0.83687 0.44162 0.0
C312 C 0.39012 0.85788 0.37446 0.0
C313 C 0.35438 0.92965 0.3549 0.0
C314 C 0.40027 0.9295 0.35867 0.0
C315 C 0.41858 0.89167 0.36767 0.0
C316 C 0.32732 0.89614 0.36234 0.0
N317 N 0.34491 0.86269 0.37315 0.0
H318 H 0.40398 0.83017 0.38236 0.0
H319 H 0.29172 0.89839 0.3601 0.0
H320 H 0.36585 0.90291 0.40559 0.0
H321 H 0.31631 0.78395 0.42945 0.0
O322 O 0.33409 0.76743 0.38452 0.0
O323 O 0.2707 0.77636 0.4 0.0
O324 O 0.26704 0.8817 0.39224 0.0
C325 C 0.30149 0.74879 0.39371 0.0
H326 H 0.1831 0.81458 0.33804 0.0
H327 H 0.38954 0.90143 0.44115 0.0
H328 H 0.33897 0.95684 0.34716 0.0
H329 H 0.45395 0.88964 0.37069 0.0
Co330 Co 0.25382 0.2933 0.88509 0.0
C331 C 0.25936 0.27344 0.84424 0.0
C332 C 0.23515 0.21652 0.85978 0.0
C333 C 0.23509 0.20576 0.84082 0.0
N334 N 0.24995 0.25907 0.86184 0.0
N335 N 0.25028 0.2416 0.83108 0.0
H336 H 0.27095 0.30713 0.84114 0.0
H337 H 0.22442 0.19511 0.87121 0.0
C338 C 0.16378 0.28391 0.90276 0.0
O339 O 0.169 0.32628 0.90772 0.0
N340 N 0.26021 0.3263 0.90894 0.0
C341 C 0.28744 0.36196 0.91203 0.0
C342 C 0.29273 0.36839 0.93106 0.0
C343 C 0.25108 0.31048 0.92647 0.0
N344 N 0.26984 0.33611 0.94013 0.0
C345 C 0.22567 0.3845 0.87502 0.0
C346 C 0.1459 0.35702 0.85912 0.0
C347 C 0.15254 0.40291 0.86264 0.0
C348 C 0.19397 0.41679 0.86988 0.0
C349 C 0.17805 0.32612 0.86465 0.0
N350 N 0.21605 0.33966 0.87377 0.0
H351 H 0.25722 0.39588 0.88033 0.0
H352 H 0.1709 0.29081 0.86258 0.0
H353 H 0.30628 0.37962 0.90139 0.0
H354 H 0.23388 0.27911 0.92916 0.0
O355 O 0.31233 0.3147 0.87746 0.0
O356 O 0.3007 0.25284 0.89392 0.0
O357 O 0.19627 0.26289 0.8946 0.0
C358 C 0.32934 0.28048 0.88624 0.0
H359 H 0.22462 0.174 0.83471 0.0
H360 H 0.3138 0.39346 0.93774 0.0
H361 H 0.11529 0.34477 0.85279 0.0
H362 H 0.20117 0.45206 0.87237 0.0
Co363 Co 0.72476 0.28239 0.38912 0.0
C364 C 0.73737 0.2864 0.34641 0.0
C365 C 0.79822 0.28939 0.36215 0.0
C366 C 0.80858 0.29111 0.34327 0.0
N367 N 0.75355 0.28606 0.36429 0.0
N368 N 0.77033 0.28904 0.3333 0.0
H369 H 0.70272 0.28364 0.34274 0.0
H370 H 0.82188 0.29003 0.37364 0.0
C371 C 0.76746 0.19318 0.38267 0.0
O372 O 0.75379 0.19796 0.36523 0.0
N373 N 0.69771 0.28055 0.41397 0.0
C374 C 0.65536 0.29252 0.41801 0.0
C375 C 0.64927 0.29101 0.43722 0.0
C376 C 0.71699 0.27195 0.4308 0.0
N377 N 0.68799 0.27826 0.44531 0.0
C378 C 0.64468 0.26245 0.36752 0.0
C379 C 0.63231 0.17764 0.38251 0.0
C380 C 0.60371 0.19237 0.36837 0.0
C381 C 0.60931 0.23562 0.361 0.0
C382 C 0.66716 0.20515 0.38838 0.0
N383 N 0.67514 0.2457 0.37996 0.0
H384 H 0.64745 0.29673 0.36265 0.0
H385 H 0.68717 0.19395 0.40007 0.0
H386 H 0.6308 0.30248 0.40769 0.0
H387 H 0.75175 0.26276 0.43241 0.0
O388 O 0.6995 0.34181 0.38549 0.0
O389 O 0.76566 0.32891 0.3981 0.0
O390 O 0.76028 0.22489 0.39477 0.0
C391 C 0.7356 0.3582 0.39301 0.0
H392 H 0.84186 0.29401 0.33741 0.0
H393 H 0.61857 0.29873 0.44466 0.0
H394 H 0.62749 0.14517 0.38912 0.0
H395 H 0.58622 0.24873 0.35067 0.0
Co396 Co 0.28137 0.80797 0.13961 0.0
C397 C 0.27402 0.79204 0.1807 0.0
C398 C 0.2972 0.73334 0.16576 0.0
C399 C 0.29658 0.72406 0.18478 0.0
N400 N 0.28356 0.77606 0.16328 0.0
N401 N 0.2821 0.76101 0.19414 0.0
H402 H 0.26315 0.82619 0.18349 0.0
H403 H 0.30763 0.7108 0.15456 0.0
C404 C 0.37209 0.79538 0.12307 0.0
O405 O 0.36797 0.83741 0.11766 0.0
N406 N 0.27669 0.83813 0.11522 0.0
C407 C 0.24996 0.87335 0.11097 0.0
C408 C 0.24717 0.87753 0.0917 0.0
C409 C 0.28791 0.82027 0.0982 0.0
N410 N 0.27125 0.84427 0.08372 0.0
C411 C 0.31179 0.8996 0.14821 0.0
C412 C 0.38886 0.87185 0.16615 0.0
C413 C 0.3839 0.91743 0.16187 0.0
C414 C 0.34387 0.9316 0.15352 0.0
C415 C 0.35643 0.84125 0.16049 0.0
N416 N 0.31971 0.85471 0.15054 0.0
H417 H 0.28139 0.91111 0.14189 0.0
H418 H 0.36243 0.80606 0.16319 0.0
H419 H 0.23055 0.8927 0.12099 0.0
H420 H 0.30562 0.78879 0.09637 0.0
O421 O 0.22333 0.83155 0.1466 0.0
O422 O 0.23374 0.76757 0.13115 0.0
O423 O 0.3387 0.77551 0.13102 0.0
C424 C 0.20567 0.79662 0.13841 0.0
H425 H 0.30612 0.69256 0.19121 0.0
H426 H 0.22768 0.90219 0.08413 0.0
H427 H 0.41842 0.85954 0.17323 0.0
H428 H 0.33817 0.96675 0.15036 0.0
Co429 Co 0.22297 0.2846 0.63561 0.0
C430 C 0.24481 0.27104 0.67663 0.0
C431 C 0.28484 0.32261 0.66407 0.0
C432 C 0.29473 0.32081 0.68291 0.0
N433 N 0.25259 0.29228 0.66002 0.0
N434 N 0.26919 0.28884 0.69092 0.0
H435 H 0.22101 0.244 0.67842 0.0
H436 H 0.30038 0.34528 0.65429 0.0
C437 C 0.27938 0.36627 0.62027 0.0
O438 O 0.31376 0.34216 0.61465 0.0
N439 N 0.19432 0.27641 0.61138 0.0
C440 C 0.15459 0.25624 0.60865 0.0
C441 C 0.14551 0.25567 0.58968 0.0
C442 C 0.20918 0.2876 0.59401 0.0
N443 N 0.17969 0.27552 0.58041 0.0
C444 C 0.14911 0.30603 0.66109 0.0
C445 C 0.11843 0.37714 0.63974 0.0
C446 C 0.09891 0.36905 0.65729 0.0
C447 C 0.11403 0.33271 0.668 0.0
C448 C 0.15374 0.35053 0.63363 0.0
N449 N 0.17013 0.31663 0.64457 0.0
H450 H 0.15895 0.27696 0.66899 0.0
H451 H 0.16817 0.35769 0.62 0.0
H452 H 0.13371 0.24275 0.61974 0.0
H453 H 0.24058 0.30456 0.59145 0.0
O454 O 0.20602 0.22365 0.64204 0.0
O455 O 0.26908 0.24044 0.62774 0.0
O456 O 0.24562 0.34688 0.62777 0.0
C457 C 0.2424 0.2091 0.6342 0.0
H458 H 0.31867 0.34191 0.69021 0.0
H459 H 0.1161 0.24107 0.58325 0.0
H460 H 0.10718 0.40463 0.63097 0.0
H461 H 0.09861 0.3248 0.68142 0.0
Co462 Co 0.7457 0.23567 0.13844 0.0
C463 C 0.7529 0.2603 0.17891 0.0
C464 C 0.73364 0.31673 0.16199 0.0
C465 C 0.73484 0.33014 0.18063 0.0
N466 N 0.74457 0.2729 0.16097 0.0
N467 N 0.74667 0.29456 0.19134 0.0
H468 H 0.76162 0.22623 0.18275 0.0
H469 H 0.72482 0.33731 0.15003 0.0
C470 C 0.65304 0.23941 0.12313 0.0
O471 O 0.66111 0.19702 0.11897 0.0
N472 N 0.74947 0.19995 0.11515 0.0
C473 C 0.77282 0.16159 0.11222 0.0
C474 C 0.77252 0.15105 0.09333 0.0
C475 C 0.73844 0.21387 0.09755 0.0
N476 N 0.75087 0.18387 0.0841 0.0
C477 C 0.71799 0.146 0.15141 0.0
C478 C 0.63966 0.17662 0.16773 0.0
C479 C 0.64485 0.13044 0.16461 0.0
C480 C 0.68575 0.1149 0.15735 0.0
C481 C 0.67228 0.20623 0.16142 0.0
N482 N 0.70916 0.19107 0.15183 0.0
H483 H 0.74916 0.1335 0.1461 0.0
H484 H 0.66579 0.24185 0.16294 0.0
H485 H 0.79231 0.14415 0.12264 0.0
H486 H 0.7222 0.2456 0.09461 0.0
O487 O 0.80487 0.21497 0.14537 0.0
O488 O 0.79292 0.27442 0.12772 0.0
O489 O 0.68565 0.26386 0.12953 0.0
C490 C 0.82193 0.24766 0.13567 0.0
H491 H 0.72746 0.36365 0.18582 0.0
H492 H 0.78933 0.12278 0.08672 0.0
H493 H 0.60951 0.19008 0.1741 0.0
H494 H 0.69192 0.07927 0.15533 0.0
Co495 Co 0.80165 0.73738 0.64225 0.0
C496 C 0.78704 0.75882 0.68278 0.0
C497 C 0.72611 0.74058 0.6687 0.0
C498 C 0.71749 0.74484 0.68773 0.0
N499 N 0.76979 0.74873 0.66565 0.0
N500 N 0.75579 0.75616 0.69655 0.0
H501 H 0.82224 0.7647 0.68529 0.0
H502 H 0.70269 0.72998 0.65798 0.0
C503 C 0.75586 0.65756 0.62296 0.0
O504 O 0.75914 0.6767 0.60638 0.0
N505 N 0.83327 0.72574 0.61839 0.0
C506 C 0.85604 0.68789 0.61384 0.0
C507 C 0.86602 0.68808 0.59493 0.0
C508 C 0.82956 0.74821 0.60182 0.0
N509 N 0.84894 0.72572 0.58725 0.0
C510 C 0.88804 0.70379 0.65415 0.0
C511 C 0.85295 0.63278 0.67451 0.0
C512 C 0.89867 0.63272 0.6703 0.0
C513 C 0.91668 0.67014 0.66083 0.0
C514 C 0.82566 0.66589 0.66706 0.0
N515 N 0.84288 0.69914 0.65598 0.0
H516 H 0.90163 0.73132 0.64602 0.0
H517 H 0.79017 0.66362 0.66964 0.0
H518 H 0.86187 0.65989 0.62317 0.0
H519 H 0.81022 0.7786 0.60008 0.0
O520 O 0.83192 0.79475 0.64508 0.0
O521 O 0.76749 0.78647 0.6305 0.0
O522 O 0.76381 0.68062 0.63792 0.0
C523 C 0.799 0.81375 0.63632 0.0
H524 H 0.68579 0.73868 0.69465 0.0
H525 H 0.88285 0.66134 0.58731 0.0
H526 H 0.83777 0.606 0.68262 0.0
H527 H 0.95192 0.672 0.65745 0.0
H528 H 0.30647 0.26486 0.20876 0.0
H529 H 0.17512 0.31604 0.22232 0.0
H530 H 0.32521 0.26575 0.24253 0.0
H531 H 0.19332 0.31612 0.25546 0.0
H532 H 0.21909 0.26599 0.31411 0.0
H533 H 0.20667 0.26035 0.2803 0.0
H534 H 0.33594 0.31982 0.26987 0.0
H535 H 0.34835 0.32605 0.30375 0.0
C536 C 0.2817 0.2763 0.21885 0.0
C537 C 0.23896 0.28936 0.21275 0.0
C538 C 0.29236 0.27677 0.23817 0.0
C539 C 0.26039 0.29015 0.25173 0.0
C540 C 0.21828 0.30433 0.2455 0.0
C541 C 0.20782 0.30412 0.22637 0.0
C542 C 0.24488 0.2781 0.3047 0.0
C543 C 0.28452 0.29697 0.31184 0.0
C544 C 0.2378 0.27472 0.28525 0.0
C545 C 0.27018 0.28999 0.27235 0.0
C546 C 0.31049 0.3074 0.27941 0.0
C547 C 0.31753 0.31098 0.2989 0.0
H548 H 0.80384 0.21707 0.81433 0.0
H549 H 0.72723 0.33946 0.8085 0.0
H550 H 0.81117 0.21198 0.78025 0.0
H551 H 0.73652 0.33552 0.77449 0.0
H552 H 0.72296 0.29071 0.71289 0.0
H553 H 0.71344 0.29465 0.74699 0.0
H554 H 0.84835 0.24644 0.75437 0.0
H555 H 0.85711 0.2404 0.72047 0.0
C556 C 0.78853 0.24297 0.80587 0.0
C557 C 0.76491 0.2787 0.81438 0.0
C558 C 0.79322 0.24033 0.78624 0.0
C559 C 0.77458 0.27342 0.7745 0.0
C560 C 0.75093 0.30912 0.78299 0.0
C561 C 0.74612 0.31169 0.80262 0.0
C562 C 0.7505 0.28057 0.72174 0.0
C563 C 0.79083 0.26524 0.71373 0.0
C564 C 0.7452 0.28331 0.74137 0.0
C565 C 0.7801 0.27083 0.75355 0.0
C566 C 0.82046 0.25577 0.74552 0.0
C567 C 0.82572 0.25292 0.72595 0.0
H568 H 0.81617 0.83382 0.31764 0.0
H569 H 0.71482 0.73104 0.31272 0.0
H570 H 0.8209 0.83802 0.2832 0.0
H571 H 0.71905 0.7356 0.27845 0.0
H572 H 0.77448 0.72243 0.21809 0.0
H573 H 0.77129 0.71795 0.25227 0.0
H574 H 0.77375 0.86294 0.25618 0.0
H575 H 0.776 0.86781 0.22198 0.0
C576 C 0.79505 0.81202 0.30923 0.0
C577 C 0.76499 0.78226 0.31798 0.0
C578 C 0.79746 0.81468 0.2895 0.0
C579 C 0.77028 0.78719 0.27803 0.0
C580 C 0.74069 0.75703 0.28681 0.0
C581 C 0.73794 0.75475 0.30649 0.0
C582 C 0.77382 0.75353 0.22607 0.0
C583 C 0.7755 0.79555 0.21695 0.0
C584 C 0.77211 0.75087 0.24579 0.0
C585 C 0.77242 0.79007 0.25702 0.0
C586 C 0.77415 0.83204 0.24799 0.0
C587 C 0.77543 0.83476 0.22827 0.0
H588 H 0.24416 0.81893 0.81211 0.0
H589 H 0.32301 0.69787 0.80745 0.0
H590 H 0.24458 0.82619 0.77794 0.0
H591 H 0.32485 0.70565 0.77322 0.0
H592 H 0.28401 0.71268 0.71027 0.0
H593 H 0.28417 0.70135 0.74456 0.0
H594 H 0.2914 0.84551 0.75294 0.0
H595 H 0.2895 0.85624 0.71906 0.0
C596 C 0.262 0.79411 0.80377 0.0
C597 C 0.28362 0.75794 0.81252 0.0
C598 C 0.26245 0.79828 0.78412 0.0
C599 C 0.28517 0.76674 0.77265 0.0
C600 C 0.30652 0.7303 0.78146 0.0
C601 C 0.30558 0.72587 0.80113 0.0
C602 C 0.2859 0.74168 0.71956 0.0
C603 C 0.28605 0.7853 0.71205 0.0
C604 C 0.28606 0.73535 0.7392 0.0
C605 C 0.28699 0.77257 0.75169 0.0
C606 C 0.28913 0.81602 0.74395 0.0
C607 C 0.28835 0.82225 0.72447 0.0
H608 H 0.85409 0.80505 0.81071 0.0
H609 H 0.72587 0.74201 0.81858 0.0
H610 H 0.8462 0.7982 0.77664 0.0
H611 H 0.71587 0.73769 0.78452 0.0
H612 H 0.72254 0.70016 0.72287 0.0
H613 H 0.73377 0.7037 0.75679 0.0
H614 H 0.81394 0.82388 0.74976 0.0
H615 H 0.80481 0.81777 0.71563 0.0
C616 C 0.82389 0.79018 0.80505 0.0
C617 C 0.79062 0.77399 0.81726 0.0
C618 C 0.81906 0.78651 0.78545 0.0
C619 C 0.78021 0.76751 0.77746 0.0
C620 C 0.7468 0.75159 0.78986 0.0
C621 C 0.75224 0.75427 0.80947 0.0
C622 C 0.74257 0.72725 0.72867 0.0
C623 C 0.76268 0.75879 0.71666 0.0
C624 C 0.74883 0.72962 0.7482 0.0
C625 C 0.77455 0.76436 0.7564 0.0
C626 C 0.79461 0.79603 0.74421 0.0
C627 C 0.7892 0.79289 0.7246 0.0
H628 H 0.18755 0.78251 0.30924 0.0
H629 H 0.3305 0.80178 0.31346 0.0
H630 H 0.19468 0.77379 0.27529 0.0
H631 H 0.33733 0.79176 0.27953 0.0
H632 H 0.33323 0.72197 0.22088 0.0
H633 H 0.32651 0.73078 0.25504 0.0
H634 H 0.21589 0.822 0.24736 0.0
H635 H 0.22246 0.81288 0.21314 0.0
C636 C 0.2205 0.78512 0.30307 0.0
C637 C 0.25837 0.7932 0.31438 0.0
C638 C 0.2245 0.78003 0.28352 0.0
C639 C 0.26651 0.78227 0.27471 0.0
C640 C 0.3045 0.7895 0.28593 0.0
C641 C 0.30049 0.79512 0.30548 0.0
C642 C 0.30731 0.74368 0.22649 0.0
C643 C 0.27825 0.76661 0.21431 0.0
C644 C 0.30373 0.74904 0.24604 0.0
C645 C 0.27065 0.77704 0.2539 0.0
C646 C 0.2415 0.79991 0.24173 0.0
C647 C 0.24547 0.795 0.22215 0.0
H648 H 0.27993 0.34901 0.7192 0.0
H649 H 0.24943 0.2094 0.70805 0.0
H650 H 0.27558 0.33565 0.75281 0.0
H651 H 0.2459 0.19539 0.74207 0.0
H652 H 0.19958 0.20003 0.80446 0.0
H653 H 0.20395 0.20952 0.77036 0.0
H654 H 0.31467 0.30143 0.77766 0.0
H655 H 0.30943 0.29262 0.8117 0.0
C656 C 0.27294 0.31517 0.72395 0.0
C657 C 0.26565 0.28013 0.7109 0.0
C658 C 0.27051 0.30743 0.74331 0.0
C659 C 0.26104 0.26426 0.75031 0.0
C660 C 0.25301 0.22918 0.73725 0.0
C661 C 0.2551 0.23709 0.71775 0.0
C662 C 0.22508 0.22196 0.79876 0.0
C663 C 0.25398 0.24581 0.81084 0.0
C664 C 0.22768 0.22734 0.77916 0.0
C665 C 0.25945 0.25652 0.77113 0.0
C666 C 0.28903 0.27948 0.78327 0.0
C667 C 0.28615 0.2744 0.80283 0.0
H668 H 0.8336 0.26528 0.30746 0.0
H669 H 0.69733 0.31179 0.31246 0.0
H670 H 0.82762 0.26682 0.27335 0.0
H671 H 0.69066 0.31122 0.27824 0.0
H672 H 0.70925 0.35265 0.21676 0.0
H673 H 0.71497 0.3508 0.25087 0.0
H674 H 0.79459 0.22986 0.24696 0.0
H675 H 0.79072 0.23291 0.21273 0.0
C676 C 0.80229 0.27588 0.30135 0.0
C677 C 0.76607 0.28871 0.31292 0.0
C678 C 0.79866 0.27615 0.28168 0.0
C679 C 0.75864 0.28911 0.27289 0.0
C680 C 0.72224 0.30157 0.28443 0.0
C681 C 0.72589 0.30138 0.30415 0.0
C682 C 0.72847 0.32589 0.22306 0.0
C683 C 0.74971 0.29307 0.21175 0.0
C684 C 0.73122 0.32448 0.24276 0.0
C685 C 0.75518 0.29014 0.25182 0.0
C686 C 0.77627 0.25718 0.24055 0.0
C687 C 0.77362 0.25864 0.22083 0.0
H688 H 0.21782 0.29299 0.06077 0.0
H689 H 0.32078 0.39414 0.05519 0.0
H690 H 0.21891 0.28143 0.02659 0.0
H691 H 0.3199 0.38472 0.02144 0.0
H692 H 0.34128 0.33913 0.96293 0.0
H693 H 0.3416 0.33613 0.99721 0.0
H694 H 0.19852 0.31573 0.99717 0.0
H695 H 0.19911 0.31669 0.96254 0.0
C696 C 0.24072 0.3127 0.05235 0.0
C697 C 0.26904 0.34471 0.06091 0.0
C698 C 0.241 0.30642 0.03269 0.0
C699 C 0.26964 0.33194 0.02112 0.0
C700 C 0.29797 0.36368 0.02977 0.0
C701 C 0.29791 0.3697 0.04929 0.0
C702 C 0.31004 0.33348 0.97029 0.0
C703 C 0.27011 0.32867 0.96017 0.0
C704 C 0.31005 0.33207 0.98996 0.0
C705 C 0.26991 0.32681 1.00011 0.0
C706 C 0.23012 0.31971 0.9899 0.0
C707 C 0.23031 0.32034 0.97009 0.0
H708 H 0.64851 0.32522 0.47363 0.0
H709 H 0.74524 0.22067 0.46251 0.0
H710 H 0.65642 0.31335 0.50739 0.0
H711 H 0.754 0.20929 0.49649 0.0
H712 H 0.70787 0.16246 0.55571 0.0
H713 H 0.70841 0.17834 0.52211 0.0
H714 H 0.70728 0.32098 0.53426 0.0
H715 H 0.70569 0.30489 0.56811 0.0
C716 C 0.67166 0.29977 0.4784 0.0
C717 C 0.69587 0.27353 0.46532 0.0
C718 C 0.67659 0.29332 0.49781 0.0
C719 C 0.70572 0.26025 0.50473 0.0
C720 C 0.73089 0.23475 0.49166 0.0
C721 C 0.7262 0.24149 0.47219 0.0
C722 C 0.70743 0.19725 0.55128 0.0
C723 C 0.70611 0.23242 0.56468 0.0
C724 C 0.7084 0.20637 0.53195 0.0
C725 C 0.70787 0.25094 0.52541 0.0
C726 C 0.70731 0.28622 0.53879 0.0
C727 C 0.7067 0.27706 0.55819 0.0
H728 H 0.71834 0.65305 0.97187 0.0
H729 H 0.83652 0.73611 0.96823 0.0
H730 H 0.72089 0.65745 1.00597 0.0
H731 H 0.83845 0.74126 1.00287 0.0
H732 H 0.77296 0.62169 0.06362 0.0
H733 H 0.77479 0.62531 0.02949 0.0
H734 H 0.79242 0.76935 0.03239 0.0
H735 H 0.78964 0.76601 0.06697 0.0
C736 C 0.74508 0.67218 0.9783 0.0
C737 C 0.77784 0.69337 0.96717 0.0
C738 C 0.7464 0.67484 0.99794 0.0
C739 C 0.7803 0.69905 1.00718 0.0
C740 C 0.81192 0.72228 0.99616 0.0
C741 C 0.81078 0.71937 0.97633 0.0
C742 C 0.77682 0.65433 0.05713 0.0
C743 C 0.78012 0.69365 0.06821 0.0
C744 C 0.77806 0.65635 0.03748 0.0
C745 C 0.78303 0.69769 0.02818 0.0
C746 C 0.78852 0.73697 0.03914 0.0
C747 C 0.78694 0.73501 0.05897 0.0
H748 H 0.35885 0.89583 0.471 0.0
H749 H 0.34999 0.75408 0.45759 0.0
H750 H 0.35819 0.87856 0.50441 0.0
H751 H 0.34778 0.73676 0.49126 0.0
H752 H 0.40092 0.72392 0.55232 0.0
H753 H 0.3969 0.73818 0.5186 0.0
H754 H 0.30969 0.85137 0.52927 0.0
H755 H 0.315 0.838 0.5631 0.0
C756 C 0.35694 0.86089 0.47514 0.0
C757 C 0.35495 0.82631 0.46151 0.0
C758 C 0.35586 0.85102 0.49438 0.0
C759 C 0.35278 0.80627 0.50059 0.0
C760 C 0.35054 0.7716 0.48699 0.0
C761 C 0.35146 0.78152 0.46768 0.0
C762 C 0.38101 0.75197 0.54752 0.0
C763 C 0.35864 0.78007 0.56051 0.0
C764 C 0.37827 0.75982 0.52812 0.0
C765 C 0.35315 0.79606 0.52117 0.0
C766 C 0.32985 0.8235 0.53413 0.0
C767 C 0.33249 0.81555 0.55355 0.0
H768 H 0.72804 0.11573 0.06108 0.0
H769 H 0.76064 0.25699 0.06155 0.0
H770 H 0.72502 0.11611 0.02682 0.0
H771 H 0.75991 0.25743 0.02693 0.0
H772 H 0.7283 0.2472 0.96335 0.0
H773 H 0.72056 0.25143 0.99757 0.0
H774 H 0.7757 0.1176 1.00212 0.0
H775 H 0.78082 0.11215 0.96844 0.0
C776 C 0.73463 0.14692 0.05374 0.0
C777 C 0.74497 0.18616 0.06394 0.0
C778 C 0.73329 0.1472 0.03406 0.0
C779 C 0.7433 0.18657 0.02389 0.0
C780 C 0.75185 0.22647 0.03417 0.0
C781 C 0.75238 0.22631 0.05401 0.0
C782 C 0.73842 0.21846 0.97157 0.0
C783 C 0.75553 0.17938 0.96273 0.0
C784 C 0.7343 0.22109 0.99133 0.0
C785 C 0.74716 0.18477 1.0028 0.0
C786 C 0.76439 0.14602 0.99392 0.0
C787 C 0.7681 0.14321 0.97433 0.0
H788 H 0.85178 0.6667 0.55783 0.0
H789 H 0.8406 0.80831 0.57115 0.0
H790 H 0.85048 0.68369 0.52444 0.0
H791 H 0.83761 0.82534 0.53746 0.0
H792 H 0.88974 0.83973 0.47621 0.0
H793 H 0.88546 0.82572 0.50992 0.0
H794 H 0.80316 0.70882 0.49932 0.0
H795 H 0.80891 0.72192 0.46546 0.0
C796 C 0.84916 0.70158 0.55368 0.0
C797 C 0.84685 0.73617 0.56733 0.0
C798 C 0.8477 0.71129 0.53442 0.0
C799 C 0.84383 0.75591 0.52812 0.0
C800 C 0.84104 0.79058 0.54174 0.0
C801 C 0.84238 0.78082 0.56109 0.0
C802 C 0.87085 0.8109 0.481 0.0
C803 C 0.85005 0.78171 0.46798 0.0
C804 C 0.86792 0.80318 0.50043 0.0
C805 C 0.84415 0.76598 0.50746 0.0
C806 C 0.82231 0.73746 0.49447 0.0
C807 C 0.82518 0.74524 0.47501 0.0
H808 H 0.20686 0.84837 0.05725 0.0
H809 H 0.34688 0.82084 0.06531 0.0
H810 H 0.2163 0.83951 0.02308 0.0
H811 H 0.35673 0.81318 0.03098 0.0
H812 H 0.34841 0.88416 0.96961 0.0
H813 H 0.34423 0.87737 1.00401 0.0
H814 H 0.24341 0.77439 0.99808 0.0
H815 H 0.24872 0.78037 0.96354 0.0
C816 C 0.23957 0.84013 0.05166 0.0
C817 C 0.27619 0.8354 0.06384 0.0
C818 C 0.24492 0.83478 0.03217 0.0
C819 C 0.28722 0.82562 0.02443 0.0
C820 C 0.32377 0.82015 0.03662 0.0
C821 C 0.31815 0.82438 0.05619 0.0
C822 C 0.32604 0.85951 0.97571 0.0
C823 C 0.29896 0.83271 0.96402 0.0
C824 C 0.32375 0.8555 0.99533 0.0
C825 C 0.29349 0.82538 1.00366 0.0
C826 C 0.26704 0.79782 0.99197 0.0
C827 C 0.27021 0.80103 0.97229 0.0
H828 H 0.25499 0.28893 0.55933 0.0
H829 H 0.11133 0.27843 0.55539 0.0
H830 H 0.25921 0.30132 0.52531 0.0
H831 H 0.11573 0.28839 0.52163 0.0
H832 H 0.13109 0.35972 0.46608 0.0
H833 H 0.1299 0.34608 0.49968 0.0
H834 H 0.24963 0.26573 0.49452 0.0
H835 H 0.25214 0.2815 0.46072 0.0
C836 C 0.22434 0.28917 0.55129 0.0
C837 C 0.18282 0.28261 0.56025 0.0
C838 C 0.2268 0.29571 0.53171 0.0
C839 C 0.1878 0.29597 0.52065 0.0
C840 C 0.14646 0.28907 0.52964 0.0
C841 C 0.144 0.28272 0.54911 0.0
C842 C 0.15747 0.33942 0.47203 0.0
C843 C 0.19187 0.32202 0.46056 0.0
C844 C 0.15647 0.33108 0.49137 0.0
C845 C 0.18958 0.30463 0.49992 0.0
C846 C 0.22381 0.28665 0.48847 0.0
C847 C 0.22492 0.29519 0.46902 0.0
H848 H 0.10744 0.45017 0.1854 0.0
H849 H 0.13286 0.52226 0.1338 0.0
H850 H 0.04437 0.50033 0.19233 0.0
H851 H 0.0698 0.57153 0.14041 0.0
H852 H 0.97377 0.67246 0.1609 0.0
H853 H 0.04241 0.62965 0.16142 0.0
H854 H 0.96898 0.51103 0.17808 0.0
H855 H 0.89973 0.55484 0.17862 0.0
C856 C 0.1001 0.47739 0.17579 0.0
C857 C 0.12479 0.48248 0.15906 0.0
C858 C 0.06379 0.50566 0.17962 0.0
C859 C 0.052 0.53965 0.16687 0.0
C860 C 0.07826 0.54597 0.15063 0.0
C861 C 0.11423 0.51767 0.14677 0.0
C862 C 0.97213 0.63762 0.16528 0.0
C863 C 0.93106 0.61716 0.16984 0.0
C864 C 1.01158 0.61293 0.16532 0.0
C865 C 1.01107 0.56694 0.16963 0.0
C866 C 0.97042 0.54659 0.17484 0.0
C867 C 0.93071 0.5715 0.17492 0.0
H868 H 0.45241 0.92053 0.68831 0.0
H869 H 0.52723 0.8881 0.63797 0.0
H870 H 0.50472 0.98217 0.69528 0.0
H871 H 0.57896 0.94931 0.64468 0.0
H872 H 0.68044 0.04465 0.66419 0.0
H873 H 0.63595 0.97682 0.66627 0.0
H874 H 0.51924 0.05641 0.6796 0.0
H875 H 0.56453 0.12496 0.67851 0.0
C876 C 0.48076 0.9259 0.67906 0.0
C877 C 0.48607 0.89981 0.66264 0.0
C878 C 0.5103 0.96134 0.68291 0.0
C879 C 0.54578 0.97068 0.67049 0.0
C880 C 0.55231 0.94272 0.65465 0.0
C881 C 0.52268 0.90775 0.65075 0.0
C882 C 0.64565 0.04794 0.66821 0.0
C883 C 0.62611 0.09053 0.67119 0.0
C884 C 0.62003 1.00889 0.66917 0.0
C885 C 0.57406 1.01129 0.67291 0.0
C886 C 0.55472 0.05351 0.67681 0.0
C887 C 0.58052 0.09281 0.67594 0.0
H888 H 0.39478 1.00043 0.8857 0.0
H889 H 0.43675 0.92641 0.83632 0.0
H890 H 0.45695 0.05246 0.88168 0.0
H891 H 0.49897 0.97918 0.83183 0.0
H892 H 0.63727 0.03725 0.8507 0.0
H893 H 0.56886 0.99266 0.84844 0.0
H894 H 0.49091 0.11002 0.86341 0.0
H895 H 0.55877 0.15351 0.86689 0.0
C896 C 0.41649 0.99657 0.87354 0.0
C897 C 0.41092 0.96016 0.86114 0.0
C898 C 0.45218 0.02622 0.87121 0.0
C899 C 0.48316 1.01986 0.85647 0.0
C900 C 0.47602 0.98466 0.84344 0.0
C901 C 0.44015 0.95492 0.84581 0.0
C902 C 0.60554 0.05346 0.85352 0.0
C903 C 0.60374 0.09901 0.85896 0.0
C904 C 0.56624 0.02809 0.85195 0.0
C905 C 0.52436 0.04778 0.85577 0.0
C906 C 0.52257 0.09365 0.86056 0.0
C907 C 0.56166 0.11879 0.86229 0.0
H908 H 0.12196 0.47879 0.33299 0.0
H909 H 0.06373 0.43306 0.38533 0.0
H910 H 0.06821 0.5409 0.33221 0.0
H911 H 1.01064 0.49443 0.38454 0.0
H912 H 0.89773 0.58536 0.37248 0.0
H913 H 0.94683 0.52159 0.36773 0.0
H914 H 0.05259 0.611 0.34996 0.0
H915 H 1.00224 0.67529 0.35365 0.0
C916 C 0.09754 0.48176 0.34422 0.0
C917 C 0.09688 0.4507 0.35912 0.0
C918 C 0.0669 0.51736 0.3438 0.0
C919 C 0.03506 0.52249 0.35827 0.0
C920 C 0.03405 0.49095 0.37295 0.0
C921 C 0.06448 0.45556 0.37336 0.0
C922 C 0.93103 0.59161 0.36708 0.0
C923 C 0.94592 0.63565 0.36341 0.0
C924 C 0.95942 0.55493 0.36461 0.0
C925 C 1.00375 0.56122 0.35867 0.0
C926 C 1.01849 0.60502 0.35445 0.0
C927 C 0.98984 0.64191 0.3568 0.0
H928 H 0.89515 0.53931 0.85137 0.0
H929 H 0.9865 0.63582 0.87598 0.0
H930 H 0.95684 0.48623 0.84722 0.0
H931 H 0.04779 0.58322 0.87162 0.0
H932 H 0.06468 0.38923 0.87097 0.0
H933 H 1.00353 0.44255 0.86916 0.0
H934 H 0.09393 0.54362 0.84775 0.0
H935 H 0.15559 0.48975 0.8493 0.0
C936 C 0.92832 0.54926 0.85583 0.0
C937 C 0.93585 0.5918 0.864 0.0
C938 C 0.96364 0.51896 0.85339 0.0
C939 C 1.00715 0.53064 0.85906 0.0
C940 C 1.01483 0.57354 0.86679 0.0
C941 C 0.9796 0.60369 0.86928 0.0
C942 C 0.0715 0.42244 0.86542 0.0
C943 C 0.11511 0.43514 0.86019 0.0
C944 C 0.03633 0.45303 0.86441 0.0
C945 C 0.04388 0.49722 0.85827 0.0
C946 C 0.08724 0.50984 0.85269 0.0
C947 C 0.12253 0.47907 0.85362 0.0
H948 H 0.60017 0.14041 0.33677 0.0
H949 H 0.52763 0.17514 0.38737 0.0
H950 H 0.54754 0.07855 0.33062 0.0
H951 H 0.47544 0.1136 0.38154 0.0
H952 H 0.3732 1.01659 0.36321 0.0
H953 H 0.41755 0.08451 0.36107 0.0
H954 H 0.53353 1.00531 0.34622 0.0
H955 H 0.48832 0.93677 0.34734 0.0
C956 C 0.57209 0.13549 0.34622 0.0
C957 C 0.5672 0.16253 0.36236 0.0
C958 C 0.5424 0.09992 0.34286 0.0
C959 C 0.50744 0.0911 0.35561 0.0
C960 C 0.50156 0.11983 0.37127 0.0
C961 C 0.5313 0.15508 0.37465 0.0
C962 C 0.40779 1.01344 0.35887 0.0
C963 C 0.42711 0.97094 0.3554 0.0
C964 C 0.43337 0.05254 0.3579 0.0
C965 C 0.47911 0.05031 0.35365 0.0
C966 C 0.49823 1.00816 0.34939 0.0
C967 C 0.47248 0.96883 0.35027 0.0
H968 H 0.47191 0.9014 0.1549 0.0
H969 H 0.38171 1.00448 0.17526 0.0
H970 H 0.53447 0.95276 0.15841 0.0
H971 H 0.44481 0.05628 0.17874 0.0
H972 H 0.55839 0.14638 0.15511 0.0
H973 H 0.49515 0.09552 0.15714 0.0
H974 H 0.58012 0.99367 0.18138 0.0
H975 H 0.64393 0.045 0.1794 0.0
C976 C 0.46553 0.93482 0.16048 0.0
C977 C 0.42181 0.94882 0.16489 0.0
C978 C 0.50149 0.96425 0.16252 0.0
C979 C 0.49465 1.0085 0.16893 0.0
C980 C 0.45104 1.02244 0.1736 0.0
C981 C 0.41493 0.99288 0.17158 0.0
C982 C 0.56352 0.11352 0.1613 0.0
C983 C 0.60621 0.0998 0.16721 0.0
C984 C 0.52716 0.08435 0.16245 0.0
C985 C 0.53257 0.04063 0.16947 0.0
C986 C 0.57504 0.02708 0.17574 0.0
C987 C 0.61156 0.05638 0.17459 0.0
H988 H 0.09852 0.42025 0.68931 0.0
H989 H 0.02116 0.38797 0.63982 0.0
H990 H 0.04703 0.48232 0.69676 0.0
H991 H 0.97026 0.44958 0.64699 0.0
H992 H 0.87061 0.54561 0.66708 0.0
H993 H 0.91456 0.47762 0.66901 0.0
H994 H 0.0323 0.55658 0.68122 0.0
H995 H 0.98749 0.62542 0.6804 0.0
C996 C 0.06976 0.42574 0.68038 0.0
C997 C 0.06348 0.39956 0.66405 0.0
C998 C 0.0407 0.46143 0.68448 0.0
C999 C 1.00476 0.47093 0.67242 0.0
C1000 C 0.99727 0.44286 0.6567 0.0
C1001 C 0.0264 0.40765 0.65254 0.0
C1002 C 0.90551 0.54879 0.67085 0.0
C1003 C 0.92543 0.59131 0.67361 0.0
C1004 C 0.93083 0.5096 0.67171 0.0
C1005 C 0.97692 0.51175 0.67506 0.0
C1006 C 0.99671 0.55388 0.67873 0.0
C1007 C 0.97118 0.59335 0.678 0.0
H1008 H 0.61267 0.32023 0.13529 0.0
H1009 H 0.58154 0.18723 0.11423 0.0
H1010 H 0.53223 0.33527 0.13883 0.0
H1011 H 0.50351 0.20049 0.11895 0.0
H1012 H 0.35926 0.2399 0.11446 0.0
H1013 H 0.4391 0.23066 0.10945 0.0
H1014 H 0.46553 0.32465 0.15487 0.0
H1015 H 0.38523 0.33576 0.15891 0.0
C1016 C 0.58897 0.29434 0.1313 0.0
C1017 C 0.60437 0.25273 0.12422 0.0
C1018 C 0.54253 0.30262 0.13357 0.0
C1019 C 0.5101 0.2693 0.1291 0.0
C1020 C 0.52612 0.22793 0.12209 0.0
C1021 C 0.57183 0.2201 0.11951 0.0
C1022 C 0.38209 0.25817 0.12353 0.0
C1023 C 0.36546 0.28812 0.13724 0.0
C1024 C 0.42841 0.25286 0.12072 0.0
C1025 C 0.4601 0.27652 0.13182 0.0
C1026 C 0.4431 0.30614 0.14574 0.0
C1027 C 0.3967 0.31212 0.14826 0.0
H1028 H 0.69565 0.37492 0.64999 0.0
H1029 H 0.80806 0.36659 0.61193 0.0
H1030 H 0.69575 0.45662 0.64735 0.0
H1031 H 0.80805 0.44912 0.60919 0.0
H1032 H 0.76301 0.59495 0.59437 0.0
H1033 H 0.76291 0.51285 0.59655 0.0
H1034 H 0.74024 0.5229 0.65652 0.0
H1035 H 0.74029 0.60506 0.65435 0.0
C1036 C 0.72045 0.39046 0.64098 0.0
C1037 C 0.75184 0.36374 0.63115 0.0
C1038 C 0.72066 0.43763 0.63957 0.0
C1039 C 0.75194 0.45999 0.6281 0.0
C1040 C 0.78317 0.43329 0.61807 0.0
C1041 C 0.78334 0.38588 0.61969 0.0
C1042 C 0.75743 0.5798 0.60802 0.0
C1043 C 0.75125 0.60716 0.62416 0.0
C1044 C 0.75793 0.53248 0.6093 0.0
C1045 C 0.75172 0.51076 0.62671 0.0
C1046 C 0.74478 0.53811 0.64281 0.0
C1047 C 0.74483 0.58546 0.64157 0.0
H1048 H 0.41142 0.74219 0.15011 0.0
H1049 H 0.4381 0.80971 0.09763 0.0
H1050 H 0.49167 0.73023 0.15446 0.0
H1051 H 0.5177 0.79635 0.10143 0.0
H1052 H 0.64029 0.69161 0.1511 0.0
H1053 H 0.55993 0.69554 0.14575 0.0
H1054 H 0.57705 0.82504 0.1192 0.0
H1055 H 0.65755 0.82011 0.12398 0.0
C1056 C 0.43428 0.75304 0.13917 0.0
C1057 C 0.4183 0.77686 0.12351 0.0
C1058 C 0.4805 0.74644 0.14169 0.0
C1059 C 0.5118 0.76317 0.12851 0.0
C1060 C 0.49517 0.7842 0.11223 0.0
C1061 C 0.44928 0.79122 0.10987 0.0
C1062 C 0.62688 0.72099 0.14414 0.0
C1063 C 0.65556 0.75555 0.13795 0.0
C1064 C 0.58057 0.72333 0.14112 0.0
C1065 C 0.56141 0.76044 0.1319 0.0
C1066 C 0.59025 0.79531 0.12596 0.0
C1067 C 0.63659 0.79278 0.12885 0.0
H1068 H 0.35086 0.42231 0.61219 0.0
H1069 H 0.21253 0.42664 0.62936 0.0
H1070 H 0.35491 0.50438 0.61501 0.0
H1071 H 0.21657 0.50838 0.63217 0.0
H1072 H 0.2318 0.66285 0.62054 0.0
H1073 H 0.22455 0.58102 0.61556 0.0
H1074 H 0.3553 0.5615 0.6396 0.0
H1075 H 0.36239 0.64212 0.64454 0.0
C1076 C 0.32114 0.44058 0.61641 0.0
C1077 C 0.28138 0.41714 0.62053 0.0
C1078 C 0.32351 0.4879 0.61816 0.0
C1079 C 0.28611 0.51363 0.62394 0.0
C1080 C 0.24604 0.49026 0.62753 0.0
C1081 C 0.24381 0.44297 0.62597 0.0
C1082 C 0.25882 0.64103 0.62485 0.0
C1083 C 0.29761 0.6596 0.63301 0.0
C1084 C 0.25472 0.59395 0.62201 0.0
C1085 C 0.28955 0.56409 0.62698 0.0
C1086 C 0.32803 0.58293 0.63522 0.0
C1087 C 0.33188 0.62956 0.63823 0.0
H1088 H 0.09908 0.30257 0.92845 0.0
H1089 H 0.12238 0.22723 0.87723 0.0
H1090 H 1.01936 0.28805 0.92603 0.0
H1091 H 0.04194 0.21411 0.8742 0.0
H1092 H 0.89428 0.17444 0.87996 0.0
H1093 H 0.97491 0.18026 0.8842 0.0
H1094 H 0.95765 0.31235 0.90906 0.0
H1095 H 0.87694 0.30548 0.90547 0.0
C1096 C 0.08714 0.28223 0.91677 0.0
C1097 C 0.11726 0.26589 0.9031 0.0
C1098 C 0.04112 0.27448 0.91518 0.0
C1099 C 0.0234 0.25072 0.89967 0.0
C1100 C 0.05389 0.23237 0.88644 0.0
C1101 C 0.10025 0.23968 0.88819 0.0
C1102 C 0.90771 0.20475 0.88635 0.0
C1103 C 0.87892 0.23948 0.8924 0.0
C1104 C 0.95421 0.20821 0.88871 0.0
C1105 C 0.9735 0.24668 0.8971 0.0
C1106 C 0.94449 0.28163 0.90295 0.0
C1107 C 0.89797 0.27795 0.90074 0.0
H1108 H 0.86795 0.91762 0.38288 0.0
H1109 H 0.73625 0.91064 0.40766 0.0
H1110 H 0.86465 0.99926 0.38354 0.0
H1111 H 0.73239 0.99327 0.4079 0.0
H1112 H 0.75106 0.14674 0.4157 0.0
H1113 H 0.76207 0.06555 0.42072 0.0
H1114 H 0.82562 0.05502 0.36611 0.0
H1115 H 0.8151 0.13508 0.36134 0.0
C1116 C 0.83811 0.93351 0.38845 0.0
C1117 C 0.80211 0.90737 0.39498 0.0
C1118 C 0.83619 0.98056 0.3888 0.0
C1119 C 0.79807 1.0032 0.39558 0.0
C1120 C 0.76246 0.97713 0.4027 0.0
C1121 C 0.76448 0.92972 0.40242 0.0
C1122 C 0.76859 0.12716 0.40508 0.0
C1123 C 0.78255 0.14743 0.38818 0.0
C1124 C 0.77428 0.08052 0.40781 0.0
C1125 C 0.79459 0.05342 0.39379 0.0
C1126 C 0.81037 0.07452 0.37736 0.0
C1127 C 0.80433 0.12064 0.3746 0.0
H1128 H 0.94872 0.72478 0.93427 0.0
H1129 H 0.92128 0.8013 0.88415 0.0
H1130 H 0.0282 0.73913 0.93056 0.0
H1131 H 1.00152 0.8147 0.87998 0.0
H1132 H 0.15009 0.8547 0.8846 0.0
H1133 H 0.06972 0.84873 0.88993 0.0
H1134 H 0.08805 0.71441 0.91161 0.0
H1135 H 0.16855 0.72108 0.90676 0.0
C1136 C 0.95965 0.7454 0.92257 0.0
C1137 C 0.92836 0.76191 0.90955 0.0
C1138 C 1.00554 0.75307 0.92026 0.0
C1139 C 0.02203 0.77721 0.90469 0.0
C1140 C 0.99048 0.79601 0.89219 0.0
C1141 C 0.94424 0.78858 0.89462 0.0
C1142 C 0.137 0.82385 0.89053 0.0
C1143 C 0.16609 0.7884 0.89529 0.0
C1144 C 0.09064 0.82033 0.89351 0.0
C1145 C 0.07175 0.78119 0.90134 0.0
C1146 C 0.10099 0.74557 0.90593 0.0
C1147 C 0.14737 0.74917 0.90301 0.0
H1148 H 0.31115 0.1981 0.41402 0.0
H1149 H 0.19773 0.18422 0.37702 0.0
H1150 H 0.31281 0.11574 0.4179 0.0
H1151 H 0.19925 0.10311 0.38088 0.0
H1152 H 0.24276 0.95572 0.37545 0.0
H1153 H 0.24315 0.03748 0.37223 0.0
H1154 H 0.26983 0.05188 0.43172 0.0
H1155 H 0.26994 0.96992 0.43491 0.0
C1156 C 0.28666 0.17765 0.40671 0.0
C1157 C 0.25437 0.19814 0.3952 0.0
C1158 C 0.2874 0.13038 0.409 0.0
C1159 C 0.25623 0.10233 0.39964 0.0
C1160 C 0.22422 0.12311 0.38813 0.0
C1161 C 0.22321 0.17001 0.38601 0.0
C1162 C 0.24839 0.97617 0.38791 0.0
C1163 C 0.25595 0.95573 0.40548 0.0
C1164 C 0.24856 1.02332 0.38607 0.0
C1165 C 0.25661 0.05177 0.40171 0.0
C1166 C 0.26399 0.03134 0.4193 0.0
C1167 C 0.26345 0.98414 0.42117 0.0
H1168 H 0.43963 0.71271 0.86066 0.0
H1169 H 0.4269 0.78004 0.91443 0.0
H1170 H 0.51972 0.70715 0.8649 0.0
H1171 H 0.50823 0.77396 0.91895 0.0
H1172 H 0.66115 0.80472 0.90598 0.0
H1173 H 0.57892 0.80558 0.90622 0.0
H1174 H 0.57779 0.67211 0.88175 0.0
H1175 H 0.65873 0.67186 0.88104 0.0
C1176 C 0.45388 0.72524 0.87371 0.0
C1177 C 0.42656 0.74645 0.88725 0.0
C1178 C 0.50013 0.7221 0.87616 0.0
C1179 C 0.52104 0.7402 0.89227 0.0
C1180 C 0.49355 0.76002 0.90626 0.0
C1181 C 0.44678 0.76284 0.90384 0.0
C1182 C 0.64321 0.77565 0.90067 0.0
C1183 C 0.6668 0.73855 0.89322 0.0
C1184 C 0.596 0.77593 0.90095 0.0
C1185 C 0.57126 0.73906 0.89383 0.0
C1186 C 0.59522 0.70159 0.88698 0.0
C1187 C 0.64199 0.70143 0.88661 0.0
H1188 H 0.30547 0.45717 0.37343 0.0
H1189 H 0.28387 0.46817 0.43346 0.0
H1190 H 0.30765 0.53923 0.37117 0.0
H1191 H 0.28622 0.55024 0.43121 0.0
H1192 H 0.24444 0.69735 0.41578 0.0
H1193 H 0.24276 0.61493 0.41877 0.0
H1194 H 0.35349 0.60432 0.37991 0.0
H1195 H 0.35515 0.68592 0.37696 0.0
C1196 C 0.30158 0.47696 0.3862 0.0
C1197 C 0.29476 0.45557 0.40365 0.0
C1198 C 0.30291 0.52425 0.38492 0.0
C1199 C 0.29695 0.55183 0.401 0.0
C1200 C 0.29044 0.53041 0.41846 0.0
C1201 C 0.28963 0.48312 0.41978 0.0
C1202 C 0.26844 0.6774 0.40791 0.0
C1203 C 0.29991 0.69861 0.39614 0.0
C1204 C 0.26766 0.63005 0.40968 0.0
C1205 C 0.29792 0.60253 0.39953 0.0
C1206 C 0.32926 0.62398 0.38778 0.0
C1207 C 0.33038 0.67108 0.3862 0.0
H1208 H 0.6234 0.29131 0.87733 0.0
H1209 H 0.59585 0.21945 0.92869 0.0
H1210 H 0.54316 0.30273 0.8727 0.0
H1211 H 0.51624 0.23225 0.92464 0.0
H1212 H 0.3766 0.21038 0.90169 0.0
H1213 H 0.45716 0.20488 0.90638 0.0
H1214 H 0.47455 0.33621 0.88148 0.0
H1215 H 0.39428 0.34071 0.87618 0.0
C1216 C 0.60034 0.2794 0.88799 0.0
C1217 C 0.61613 0.25459 0.90342 0.0
C1218 C 0.55411 0.28565 0.8853 0.0
C1219 C 0.52256 0.26759 0.89807 0.0
C1220 C 0.53894 0.24548 0.91413 0.0
C1221 C 0.58485 0.23882 0.91666 0.0
C1222 C 0.39765 0.23793 0.89711 0.0
C1223 C 0.37876 0.27589 0.88852 0.0
C1224 C 0.44403 0.23508 0.89997 0.0
C1225 C 0.47297 0.27035 0.89453 0.0
C1226 C 0.45389 0.30809 0.88573 0.0
C1227 C 0.40758 0.31075 0.88274 0.0
H1228 H 0.67544 0.42536 0.38576 0.0
H1229 H 0.80881 0.40322 0.40671 0.0
H1230 H 0.68399 0.50624 0.39099 0.0
H1231 H 0.81797 0.48408 0.41146 0.0
H1232 H 0.81285 0.62412 0.43422 0.0
H1233 H 0.79472 0.54462 0.43097 0.0
H1234 H 0.72098 0.57308 0.38014 0.0
H1235 H 0.73823 0.65334 0.38384 0.0
C1236 C 0.70674 0.43776 0.3914 0.0
C1237 C 0.74142 0.40764 0.39587 0.0
C1238 C 0.71171 0.48431 0.39432 0.0
C1239 C 0.75155 0.50211 0.40179 0.0
C1240 C 0.78637 0.47184 0.40608 0.0
C1241 C 0.78132 0.42532 0.40321 0.0
C1242 C 0.79179 0.61357 0.4226 0.0
C1243 C 0.77692 0.64513 0.40932 0.0
C1244 C 0.78192 0.56776 0.42056 0.0
C1245 C 0.75725 0.55185 0.40503 0.0
C1246 C 0.73999 0.58385 0.39232 0.0
C1247 C 0.74961 0.63002 0.39448 0.0
H1248 H 0.93503 0.73484 0.10059 0.0
H1249 H 0.91319 0.80785 0.1525 0.0
H1250 H 1.01506 0.74769 0.1031 0.0
H1251 H 0.99392 0.81956 0.15553 0.0
H1252 H 0.14203 0.85794 0.14883 0.0
H1253 H 0.06133 0.85334 0.14494 0.0
H1254 H 0.07579 0.72039 0.12061 0.0
H1255 H 0.15682 0.72585 0.12395 0.0
C1256 C 0.94737 0.75454 0.11239 0.0
C1257 C 0.91762 0.77066 0.12624 0.0
C1258 C 0.9935 0.76124 0.11403 0.0
C1259 C 1.0116 0.78379 0.12975 0.0
C1260 C 0.98153 0.80217 0.14314 0.0
C1261 C 0.93506 0.7958 0.14137 0.0
C1262 C 0.12803 0.82763 0.14266 0.0
C1263 C 0.15613 0.79225 0.13667 0.0
C1264 C 0.08149 0.82492 0.1405 0.0
C1265 C 0.06147 0.78664 0.13233 0.0
C1266 C 0.08969 0.75094 0.12659 0.0
C1267 C 0.13632 0.7538 0.12865 0.0
H1268 H 0.18534 0.14168 0.64402 0.0
H1269 H 0.31474 0.16241 0.61855 0.0
H1270 H 0.19245 0.06103 0.63937 0.0
H1271 H 0.32198 0.0805 0.61381 0.0
H1272 H 0.3353 0.92667 0.62828 0.0
H1273 H 0.33114 1.00849 0.63052 0.0
H1274 H 0.19178 1.00312 0.61529 0.0
H1275 H 0.19591 0.92099 0.61311 0.0
C1276 C 0.21557 0.12912 0.63742 0.0
C1277 C 0.24952 0.15916 0.63172 0.0
C1278 C 0.21944 0.08246 0.63458 0.0
C1279 C 0.25759 0.06358 0.62601 0.0
C1280 C 0.29207 0.09346 0.62052 0.0
C1281 C 0.28797 0.14058 0.62322 0.0
C1282 C 0.30376 0.94272 0.62519 0.0
C1283 C 0.2659 0.91651 0.62052 0.0
C1284 C 0.30146 0.99004 0.62643 0.0
C1285 C 0.26108 1.01306 0.62323 0.0
C1286 C 0.22343 0.98694 0.61815 0.0
C1287 C 0.22584 0.93958 0.61675 0.0
H1288 H 0.88617 0.19861 0.15338 0.0
H1289 H 0.87152 0.3053 0.11291 0.0
H1290 H 0.96671 0.2015 0.14977 0.0
H1291 H 0.95301 0.30756 0.10881 0.0
H1292 H 0.10479 0.32849 0.12064 0.0
H1293 H 0.02342 0.32704 0.12203 0.0
H1294 H 0.027 0.18314 0.13026 0.0
H1295 H 0.1084 0.18496 0.12948 0.0
C1296 C 0.9001 0.22275 0.1436 0.0
C1297 C 0.87183 0.25175 0.13346 0.0
C1298 C 0.94673 0.2241 0.14136 0.0
C1299 C 0.96728 0.25437 0.12879 0.0
C1300 C 0.93899 0.28389 0.11875 0.0
C1301 C 0.89202 0.28258 0.12105 0.0
C1302 C 0.08836 0.29636 0.12254 0.0
C1303 C 0.11383 0.25683 0.125 0.0
C1304 C 0.04126 0.29551 0.1233 0.0
C1305 C 1.01775 0.25507 0.12651 0.0
C1306 C 0.04331 0.2153 0.12824 0.0
C1307 C 0.09037 0.21619 0.12756 0.0
H1308 H 0.81302 0.10701 0.6531 0.0
H1309 H 0.78806 0.09188 0.59352 0.0
H1310 H 0.81214 0.02517 0.65656 0.0
H1311 H 0.78752 1.01006 0.59696 0.0
H1312 H 0.7423 0.86556 0.61438 0.0
H1313 H 0.7428 0.94779 0.61055 0.0
H1314 H 0.85485 0.95768 0.64849 0.0
H1315 H 0.85431 0.87626 0.65228 0.0
C1316 C 0.80777 0.08636 0.64068 0.0
C1317 C 0.80093 0.10658 0.623 0.0
C1318 C 0.80734 0.03917 0.64265 0.0
C1319 C 0.79959 1.01049 0.62706 0.0
C1320 C 0.79307 0.03073 0.60936 0.0
C1321 C 0.79397 0.07789 0.60735 0.0
C1322 C 0.767 0.88532 0.6219 0.0
C1323 C 0.79824 0.86392 0.63364 0.0
C1324 C 0.76749 0.93257 0.61963 0.0
C1325 C 0.79885 0.95988 0.62924 0.0
C1326 C 0.82983 0.93826 0.64102 0.0
C1327 C 0.82966 0.89123 0.64309 0.0
loop_
_geom_bond_atom_site_label_1
_geom_bond_atom_site_label_2
_geom_bond_distance
_geom_bond_site_symmetry_2
_ccdc_geom_bond_type
Co0 N4 2.148 . S
Co0 N10 2.128 . S
Co0 N20 2.194 . S
Co0 O25 2.351 . S
Co0 O26 2.155 . S
Co0 O27 2.096 . S
C1 N4 1.301 . S
C1 N5 1.328 . S
C1 H6 0.930 . S
C2 C3 1.333 . S
C2 N4 1.317 . S
C2 H7 0.930 . S
C3 C2 1.333 . S
C3 N5 1.350 . S
C3 H29 0.931 . S
N4 Co0 2.148 . S
N4 C1 1.301 . S
N4 C2 1.317 . S
N5 C1 1.328 . S
N5 C3 1.350 . S
H6 C1 0.930 . S
H7 C2 0.930 . S
C8 O9 1.224 1_455 S
C8 O27 1.247 . S
O9 C8 1.224 1_655 S
N10 Co0 2.128 . S
N10 C11 1.355 . S
N10 C13 1.311 . S
C11 N10 1.355 . S
C11 C12 1.363 . S
C11 H23 0.929 . S
C12 C11 1.363 . S
C12 N14 1.375 . S
C12 H30 0.931 . S
C13 N10 1.311 . S
C13 N14 1.347 . S
C13 H24 0.929 . S
N14 C12 1.375 . S
N14 C13 1.347 . S
C15 C18 1.365 . S
C15 N20 1.328 . S
C15 H21 0.929 . S
C16 C17 1.362 . S
C16 C19 1.378 . S
C16 H31 0.929 1_455 S
C17 C16 1.362 . S
C17 C18 1.366 . S
C18 C15 1.365 . S
C18 C17 1.366 . S
C18 H32 0.930 . S
C19 C16 1.378 . S
C19 N20 1.315 . S
C19 H22 0.930 . S
N20 Co0 2.194 . S
N20 C15 1.328 . S
N20 C19 1.315 . S
H21 C15 0.929 . S
H22 C19 0.930 . S
H23 C11 0.929 . S
H24 C13 0.929 . S
O25 Co0 2.351 . S
O25 C28 1.244 . S
O26 Co0 2.155 . S
O26 C28 1.240 . S
O27 Co0 2.096 . S
O27 C8 1.247 . S
C28 O25 1.244 . S
C28 O26 1.240 . S
H29 C3 0.931 . S
H30 C12 0.931 . S
H31 C16 0.929 1_655 S
H32 C18 0.930 . S
Co33 N37 2.148 . S
Co33 N43 2.128 . S
Co33 N53 2.194 . S
Co33 O58 2.351 . S
Co33 O59 2.155 . S
Co33 O60 2.096 . S
C34 N37 1.301 . S
C34 N38 1.328 . S
C34 H39 0.930 . S
C35 C36 1.333 . S
C35 N37 1.317 . S
C35 H40 0.930 . S
C36 C35 1.333 . S
C36 N38 1.350 . S
C36 H62 0.931 . S
N37 Co33 2.148 . S
N37 C34 1.301 . S
N37 C35 1.317 . S
N38 C34 1.328 . S
N38 C36 1.350 . S
H39 C34 0.930 . S
H40 C35 0.930 . S
C41 O42 1.224 1_545 S
C41 O60 1.247 . S
O42 C41 1.224 1_565 S
N43 Co33 2.128 . S
N43 C44 1.355 . S
N43 C46 1.311 . S
C44 N43 1.355 . S
C44 C45 1.363 . S
C44 H56 0.929 . S
C45 C44 1.363 . S
C45 N47 1.375 . S
C45 H63 0.931 . S
C46 N43 1.311 . S
C46 N47 1.347 . S
C46 H57 0.929 . S
N47 C45 1.375 . S
N47 C46 1.347 . S
C48 C51 1.365 . S
C48 N53 1.328 . S
C48 H54 0.929 . S
C49 C50 1.362 . S
C49 C52 1.378 . S
C49 H64 0.929 1_545 S
C50 C49 1.362 . S
C50 C51 1.366 . S
C51 C48 1.365 . S
C51 C50 1.366 . S
C51 H65 0.930 . S
C52 C49 1.378 . S
C52 N53 1.315 . S
C52 H55 0.930 . S
N53 Co33 2.194 . S
N53 C48 1.328 . S
N53 C52 1.315 . S
H54 C48 0.929 . S
H55 C52 0.930 . S
H56 C44 0.929 . S
H57 C46 0.929 . S
O58 Co33 2.351 . S
O58 C61 1.244 . S
O59 Co33 2.155 . S
O59 C61 1.240 . S
O60 Co33 2.096 . S
O60 C41 1.247 . S
C61 O58 1.244 . S
C61 O59 1.240 . S
H62 C36 0.931 . S
H63 C45 0.931 . S
H64 C49 0.929 1_565 S
H65 C51 0.930 . S
Co66 N70 2.148 . S
Co66 N76 2.128 . S
Co66 N86 2.194 . S
Co66 O91 2.351 . S
Co66 O92 2.155 . S
Co66 O93 2.096 . S
C67 N70 1.301 . S
C67 N71 1.328 . S
C67 H72 0.930 . S
C68 C69 1.333 . S
C68 N70 1.317 . S
C68 H73 0.930 . S
C69 C68 1.333 . S
C69 N71 1.350 . S
C69 H95 0.931 . S
N70 Co66 2.148 . S
N70 C67 1.301 . S
N70 C68 1.317 . S
N71 C67 1.328 . S
N71 C69 1.350 . S
H72 C67 0.930 . S
H73 C68 0.930 . S
C74 O75 1.224 1_655 S
C74 O93 1.247 . S
O75 C74 1.224 1_455 S
N76 Co66 2.128 . S
N76 C77 1.355 . S
N76 C79 1.311 . S
C77 N76 1.355 . S
C77 C78 1.363 . S
C77 H89 0.929 . S
C78 C77 1.363 . S
C78 N80 1.375 . S
C78 H96 0.931 . S
C79 N76 1.311 . S
C79 N80 1.347 . S
C79 H90 0.929 . S
N80 C78 1.375 . S
N80 C79 1.347 . S
C81 C84 1.365 . S
C81 N86 1.328 . S
C81 H87 0.929 . S
C82 C83 1.362 . S
C82 C85 1.378 . S
C82 H97 0.929 1_655 S
C83 C82 1.362 . S
C83 C84 1.366 . S
C84 C81 1.365 . S
C84 C83 1.366 . S
C84 H98 0.930 . S
C85 C82 1.378 . S
C85 N86 1.315 . S
C85 H88 0.930 . S
N86 Co66 2.194 . S
N86 C81 1.328 . S
N86 C85 1.315 . S
H87 C81 0.929 . S
H88 C85 0.930 . S
H89 C77 0.929 . S
H90 C79 0.929 . S
O91 Co66 2.351 . S
O91 C94 1.244 . S
O92 Co66 2.155 . S
O92 C94 1.240 . S
O93 Co66 2.096 . S
O93 C74 1.247 . S
C94 O91 1.244 . S
C94 O92 1.240 . S
H95 C69 0.931 . S
H96 C78 0.931 . S
H97 C82 0.929 1_455 S
H98 C84 0.930 . S
Co99 N103 2.148 . S
Co99 N109 2.128 . S
Co99 N119 2.194 . S
Co99 O124 2.351 . S
Co99 O125 2.155 . S
Co99 O126 2.096 . S
C100 N103 1.301 . S
C100 N104 1.328 . S
C100 H105 0.930 . S
C101 C102 1.333 . S
C101 N103 1.317 . S
C101 H106 0.930 . S
C102 C101 1.333 . S
C102 N104 1.350 . S
C102 H128 0.931 . S
N103 Co99 2.148 . S
N103 C100 1.301 . S
N103 C101 1.317 . S
N104 C100 1.328 . S
N104 C102 1.350 . S
H105 C100 0.930 . S
H106 C101 0.930 . S
C107 O108 1.224 1_565 S
C107 O126 1.247 . S
O108 C107 1.224 1_545 S
N109 Co99 2.128 . S
N109 C110 1.355 . S
N109 C112 1.311 . S
C110 N109 1.355 . S
C110 C111 1.363 . S
C110 H122 0.929 . S
C111 C110 1.363 . S
C111 N113 1.375 . S
C111 H129 0.931 . S
C112 N109 1.311 . S
C112 N113 1.347 . S
C112 H123 0.929 . S
N113 C111 1.375 . S
N113 C112 1.347 . S
C114 C117 1.365 . S
C114 N119 1.328 . S
C114 H120 0.929 . S
C115 C116 1.362 . S
C115 C118 1.378 . S
C115 H130 0.929 1_565 S
C116 C115 1.362 . S
C116 C117 1.366 . S
C117 C114 1.365 . S
C117 C116 1.366 . S
C117 H131 0.930 . S
C118 C115 1.378 . S
C118 N119 1.315 . S
C118 H121 0.930 . S
N119 Co99 2.194 . S
N119 C114 1.328 . S
N119 C118 1.315 . S
H120 C114 0.929 . S
H121 C118 0.930 . S
H122 C110 0.929 . S
H123 C112 0.929 . S
O124 Co99 2.351 . S
O124 C127 1.244 . S
O125 Co99 2.155 . S
O125 C127 1.240 . S
O126 Co99 2.096 . S
O126 C107 1.247 . S
C127 O124 1.244 . S
C127 O125 1.240 . S
H128 C102 0.931 . S
H129 C111 0.931 . S
H130 C115 0.929 1_545 S
H131 C117 0.930 . S
Co132 N136 2.148 . S
Co132 N142 2.128 . S
Co132 N152 2.194 . S
Co132 O157 2.351 . S
Co132 O158 2.155 . S
Co132 O159 2.096 . S
C133 N136 1.301 . S
C133 N137 1.328 . S
C133 H138 0.930 . S
C134 C135 1.333 . S
C134 N136 1.317 . S
C134 H139 0.930 . S
C135 C134 1.333 . S
C135 N137 1.350 . S
C135 H161 0.931 . S
N136 Co132 2.148 . S
N136 C133 1.301 . S
N136 C134 1.317 . S
N137 C133 1.328 . S
N137 C135 1.350 . S
H138 C133 0.930 . S
H139 C134 0.930 . S
C140 O141 1.224 . S
C140 O159 1.247 . S
O141 C140 1.224 . S
N142 Co132 2.128 . S
N142 C143 1.355 . S
N142 C145 1.311 . S
C143 N142 1.355 . S
C143 C144 1.363 . S
C143 H155 0.929 . S
C144 C143 1.363 . S
C144 N146 1.375 . S
C144 H162 0.931 . S
C145 N142 1.311 . S
C145 N146 1.347 . S
C145 H156 0.929 . S
N146 C144 1.375 . S
N146 C145 1.347 . S
C147 C150 1.365 . S
C147 N152 1.328 . S
C147 H153 0.929 . S
C148 C149 1.362 . S
C148 C151 1.378 . S
C148 H163 0.929 . S
C149 C148 1.362 . S
C149 C150 1.366 . S
C150 C147 1.365 . S
C150 C149 1.366 . S
C150 H164 0.930 . S
C151 C148 1.378 . S
C151 N152 1.315 . S
C151 H154 0.930 . S
N152 Co132 2.194 . S
N152 C147 1.328 . S
N152 C151 1.315 . S
H153 C147 0.929 . S
H154 C151 0.930 . S
H155 C143 0.929 . S
H156 C145 0.929 . S
O157 Co132 2.351 . S
O157 C160 1.244 . S
O158 Co132 2.155 . S
O158 C160 1.240 . S
O159 Co132 2.096 . S
O159 C140 1.247 . S
C160 O157 1.244 . S
C160 O158 1.240 . S
H161 C135 0.931 . S
H162 C144 0.931 . S
H163 C148 0.929 . S
H164 C150 0.930 . S
Co165 N169 2.148 . S
Co165 N175 2.128 . S
Co165 N185 2.194 . S
Co165 O190 2.351 . S
Co165 O191 2.155 . S
Co165 O192 2.096 . S
C166 N169 1.301 . S
C166 N170 1.328 . S
C166 H171 0.930 . S
C167 C168 1.333 . S
C167 N169 1.317 . S
C167 H172 0.930 . S
C168 C167 1.333 . S
C168 N170 1.350 . S
C168 H194 0.931 . S
N169 Co165 2.148 . S
N169 C166 1.301 . S
N169 C167 1.317 . S
N170 C166 1.328 . S
N170 C168 1.350 . S
H171 C166 0.930 . S
H172 C167 0.930 . S
C173 O174 1.224 . S
C173 O192 1.247 . S
O174 C173 1.224 . S
N175 Co165 2.128 . S
N175 C176 1.355 . S
N175 C178 1.311 . S
C176 N175 1.355 . S
C176 C177 1.363 . S
C176 H188 0.929 . S
C177 C176 1.363 . S
C177 N179 1.375 . S
C177 H195 0.931 . S
C178 N175 1.311 . S
C178 N179 1.347 . S
C178 H189 0.929 . S
N179 C177 1.375 . S
N179 C178 1.347 . S
C180 C183 1.365 . S
C180 N185 1.328 . S
C180 H186 0.929 . S
C181 C182 1.362 . S
C181 C184 1.378 . S
C181 H196 0.929 . S
C182 C181 1.362 . S
C182 C183 1.366 . S
C183 C180 1.365 . S
C183 C182 1.366 . S
C183 H197 0.930 . S
C184 C181 1.378 . S
C184 N185 1.315 . S
C184 H187 0.930 . S
N185 Co165 2.194 . S
N185 C180 1.328 . S
N185 C184 1.315 . S
H186 C180 0.929 . S
H187 C184 0.930 . S
H188 C176 0.929 . S
H189 C178 0.929 . S
O190 Co165 2.351 . S
O190 C193 1.244 . S
O191 Co165 2.155 . S
O191 C193 1.240 . S
O192 Co165 2.096 . S
O192 C173 1.247 . S
C193 O190 1.244 . S
C193 O191 1.240 . S
H194 C168 0.931 . S
H195 C177 0.931 . S
H196 C181 0.929 . S
H197 C183 0.930 . S
Co198 N202 2.148 . S
Co198 N208 2.128 . S
Co198 N218 2.194 . S
Co198 O223 2.351 . S
Co198 O224 2.155 . S
Co198 O225 2.096 . S
C199 N202 1.301 . S
C199 N203 1.328 . S
C199 H204 0.930 . S
C200 C201 1.333 . S
C200 N202 1.317 . S
C200 H205 0.930 . S
C201 C200 1.333 . S
C201 N203 1.350 . S
C201 H227 0.931 . S
N202 Co198 2.148 . S
N202 C199 1.301 . S
N202 C200 1.317 . S
N203 C199 1.328 . S
N203 C201 1.350 . S
H204 C199 0.930 . S
H205 C200 0.930 . S
C206 O207 1.224 . S
C206 O225 1.247 . S
O207 C206 1.224 . S
N208 Co198 2.128 . S
N208 C209 1.355 . S
N208 C211 1.311 . S
C209 N208 1.355 . S
C209 C210 1.363 . S
C209 H221 0.929 . S
C210 C209 1.363 . S
C210 N212 1.375 . S
C210 H228 0.931 . S
C211 N208 1.311 . S
C211 N212 1.347 . S
C211 H222 0.929 . S
N212 C210 1.375 . S
N212 C211 1.347 . S
C213 C216 1.365 . S
C213 N218 1.328 . S
C213 H219 0.929 . S
C214 C215 1.362 . S
C214 C217 1.378 . S
C214 H229 0.929 . S
C215 C214 1.362 . S
C215 C216 1.366 . S
C216 C213 1.365 . S
C216 C215 1.366 . S
C216 H230 0.930 . S
C217 C214 1.378 . S
C217 N218 1.315 . S
C217 H220 0.930 . S
N218 Co198 2.194 . S
N218 C213 1.328 . S
N218 C217 1.315 . S
H219 C213 0.929 . S
H220 C217 0.930 . S
H221 C209 0.929 . S
H222 C211 0.929 . S
O223 Co198 2.351 . S
O223 C226 1.244 . S
O224 Co198 2.155 . S
O224 C226 1.240 . S
O225 Co198 2.096 . S
O225 C206 1.247 . S
C226 O223 1.244 . S
C226 O224 1.240 . S
H227 C201 0.931 . S
H228 C210 0.931 . S
H229 C214 0.929 . S
H230 C216 0.930 . S
Co231 N235 2.148 . S
Co231 N241 2.128 . S
Co231 N251 2.194 . S
Co231 O256 2.351 . S
Co231 O257 2.155 . S
Co231 O258 2.096 . S
C232 N235 1.301 . S
C232 N236 1.328 . S
C232 H237 0.930 . S
C233 C234 1.333 . S
C233 N235 1.317 . S
C233 H238 0.930 . S
C234 C233 1.333 . S
C234 N236 1.350 . S
C234 H260 0.931 . S
N235 Co231 2.148 . S
N235 C232 1.301 . S
N235 C233 1.317 . S
N236 C232 1.328 . S
N236 C234 1.350 . S
H237 C232 0.930 . S
H238 C233 0.930 . S
C239 O240 1.224 . S
C239 O258 1.247 . S
O240 C239 1.224 . S
N241 Co231 2.128 . S
N241 C242 1.355 . S
N241 C244 1.311 . S
C242 N241 1.355 . S
C242 C243 1.363 . S
C242 H254 0.929 . S
C243 C242 1.363 . S
C243 N245 1.375 . S
C243 H261 0.931 . S
C244 N241 1.311 . S
C244 N245 1.347 . S
C244 H255 0.929 . S
N245 C243 1.375 . S
N245 C244 1.347 . S
C246 C249 1.365 . S
C246 N251 1.328 . S
C246 H252 0.929 . S
C247 C248 1.362 . S
C247 C250 1.378 . S
C247 H262 0.929 . S
C248 C247 1.362 . S
C248 C249 1.366 . S
C249 C246 1.365 . S
C249 C248 1.366 . S
C249 H263 0.930 . S
C250 C247 1.378 . S
C250 N251 1.315 . S
C250 H253 0.930 . S
N251 Co231 2.194 . S
N251 C246 1.328 . S
N251 C250 1.315 . S
H252 C246 0.929 . S
H253 C250 0.930 . S
H254 C242 0.929 . S
H255 C244 0.929 . S
O256 Co231 2.351 . S
O256 C259 1.244 . S
O257 Co231 2.155 . S
O257 C259 1.240 . S
O258 Co231 2.096 . S
O258 C239 1.247 . S
C259 O256 1.244 . S
C259 O257 1.240 . S
H260 C234 0.931 . S
H261 C243 0.931 . S
H262 C247 0.929 . S
H263 C249 0.930 . S
Co264 N268 2.148 . S
Co264 N274 2.128 . S
Co264 N284 2.194 . S
Co264 O289 2.351 . S
Co264 O290 2.155 . S
Co264 O291 2.096 . S
C265 N268 1.301 . S
C265 N269 1.328 . S
C265 H270 0.930 . S
C266 C267 1.333 . S
C266 N268 1.317 . S
C266 H271 0.930 . S
C267 C266 1.333 . S
C267 N269 1.350 . S
C267 H293 0.931 . S
N268 Co264 2.148 . S
N268 C265 1.301 . S
N268 C266 1.317 . S
N269 C265 1.328 . S
N269 C267 1.350 . S
H270 C265 0.930 . S
H271 C266 0.930 . S
C272 O273 1.224 1_655 S
C272 O291 1.247 . S
O273 C272 1.224 1_455 S
N274 Co264 2.128 . S
N274 C275 1.355 . S
N274 C277 1.311 . S
C275 N274 1.355 . S
C275 C276 1.363 . S
C275 H287 0.929 . S
C276 C275 1.363 . S
C276 N278 1.375 . S
C276 H294 0.931 . S
C277 N274 1.311 . S
C277 N278 1.347 . S
C277 H288 0.929 . S
N278 C276 1.375 . S
N278 C277 1.347 . S
C279 C282 1.365 . S
C279 N284 1.328 . S
C279 H285 0.929 . S
C280 C281 1.362 . S
C280 C283 1.378 . S
C280 H295 0.929 1_655 S
C281 C280 1.362 . S
C281 C282 1.366 . S
C282 C279 1.365 . S
C282 C281 1.366 . S
C282 H296 0.930 . S
C283 C280 1.378 . S
C283 N284 1.315 . S
C283 H286 0.930 . S
N284 Co264 2.194 . S
N284 C279 1.328 . S
N284 C283 1.315 . S
H285 C279 0.929 . S
H286 C283 0.930 . S
H287 C275 0.929 . S
H288 C277 0.929 . S
O289 Co264 2.351 . S
O289 C292 1.244 . S
O290 Co264 2.155 . S
O290 C292 1.240 . S
O291 Co264 2.096 . S
O291 C272 1.247 . S
C292 O289 1.244 . S
C292 O290 1.240 . S
H293 C267 0.931 . S
H294 C276 0.931 . S
H295 C280 0.929 1_455 S
H296 C282 0.930 . S
Co297 N301 2.148 . S
Co297 N307 2.128 . S
Co297 N317 2.194 . S
Co297 O322 2.351 . S
Co297 O323 2.155 . S
Co297 O324 2.096 . S
C298 N301 1.301 . S
C298 N302 1.328 . S
C298 H303 0.930 . S
C299 C300 1.333 . S
C299 N301 1.317 . S
C299 H304 0.930 . S
C300 C299 1.333 . S
C300 N302 1.350 . S
C300 H326 0.931 . S
N301 Co297 2.148 . S
N301 C298 1.301 . S
N301 C299 1.317 . S
N302 C298 1.328 . S
N302 C300 1.350 . S
H303 C298 0.930 . S
H304 C299 0.930 . S
C305 O306 1.224 1_565 S
C305 O324 1.247 . S
O306 C305 1.224 1_545 S
N307 Co297 2.128 . S
N307 C308 1.355 . S
N307 C310 1.311 . S
C308 N307 1.355 . S
C308 C309 1.363 . S
C308 H320 0.929 . S
C309 C308 1.363 . S
C309 N311 1.375 . S
C309 H327 0.931 . S
C310 N307 1.311 . S
C310 N311 1.347 . S
C310 H321 0.929 . S
N311 C309 1.375 . S
N311 C310 1.347 . S
C312 C315 1.365 . S
C312 N317 1.328 . S
C312 H318 0.929 . S
C313 C314 1.362 . S
C313 C316 1.378 . S
C313 H328 0.929 1_565 S
C314 C313 1.362 . S
C314 C315 1.366 . S
C315 C312 1.365 . S
C315 C314 1.366 . S
C315 H329 0.930 . S
C316 C313 1.378 . S
C316 N317 1.315 . S
C316 H319 0.930 . S
N317 Co297 2.194 . S
N317 C312 1.328 . S
N317 C316 1.315 . S
H318 C312 0.929 . S
H319 C316 0.930 . S
H320 C308 0.929 . S
H321 C310 0.929 . S
O322 Co297 2.351 . S
O322 C325 1.244 . S
O323 Co297 2.155 . S
O323 C325 1.240 . S
O324 Co297 2.096 . S
O324 C305 1.247 . S
C325 O322 1.244 . S
C325 O323 1.240 . S
H326 C300 0.931 . S
H327 C309 0.931 . S
H328 C313 0.929 1_545 S
H329 C315 0.930 . S
Co330 N334 2.148 . S
Co330 N340 2.128 . S
Co330 N350 2.194 . S
Co330 O355 2.351 . S
Co330 O356 2.155 . S
Co330 O357 2.096 . S
C331 N334 1.301 . S
C331 N335 1.328 . S
C331 H336 0.930 . S
C332 C333 1.333 . S
C332 N334 1.317 . S
C332 H337 0.930 . S
C333 C332 1.333 . S
C333 N335 1.350 . S
C333 H359 0.931 . S
N334 Co330 2.148 . S
N334 C331 1.301 . S
N334 C332 1.317 . S
N335 C331 1.328 . S
N335 C333 1.350 . S
H336 C331 0.930 . S
H337 C332 0.930 . S
C338 O339 1.224 1_455 S
C338 O357 1.247 . S
O339 C338 1.224 1_655 S
N340 Co330 2.128 . S
N340 C341 1.355 . S
N340 C343 1.311 . S
C341 N340 1.355 . S
C341 C342 1.363 . S
C341 H353 0.929 . S
C342 C341 1.363 . S
C342 N344 1.375 . S
C342 H360 0.931 . S
C343 N340 1.311 . S
C343 N344 1.347 . S
C343 H354 0.929 . S
N344 C342 1.375 . S
N344 C343 1.347 . S
C345 C348 1.365 . S
C345 N350 1.328 . S
C345 H351 0.929 . S
C346 C347 1.362 . S
C346 C349 1.378 . S
C346 H361 0.929 1_455 S
C347 C346 1.362 . S
C347 C348 1.366 . S
C348 C345 1.365 . S
C348 C347 1.366 . S
C348 H362 0.930 . S
C349 C346 1.378 . S
C349 N350 1.315 . S
C349 H352 0.930 . S
N350 Co330 2.194 . S
N350 C345 1.328 . S
N350 C349 1.315 . S
H351 C345 0.929 . S
H352 C349 0.930 . S
H353 C341 0.929 . S
H354 C343 0.929 . S
O355 Co330 2.351 . S
O355 C358 1.244 . S
O356 Co330 2.155 . S
O356 C358 1.240 . S
O357 Co330 2.096 . S
O357 C338 1.247 . S
C358 O355 1.244 . S
C358 O356 1.240 . S
H359 C333 0.931 . S
H360 C342 0.931 . S
H361 C346 0.929 1_655 S
H362 C348 0.930 . S
Co363 N367 2.148 . S
Co363 N373 2.128 . S
Co363 N383 2.194 . S
Co363 O388 2.351 . S
Co363 O389 2.155 . S
Co363 O390 2.096 . S
C364 N367 1.301 . S
C364 N368 1.328 . S
C364 H369 0.930 . S
C365 C366 1.333 . S
C365 N367 1.317 . S
C365 H370 0.930 . S
C366 C365 1.333 . S
C366 N368 1.350 . S
C366 H392 0.931 . S
N367 Co363 2.148 . S
N367 C364 1.301 . S
N367 C365 1.317 . S
N368 C364 1.328 . S
N368 C366 1.350 . S
H369 C364 0.930 . S
H370 C365 0.930 . S
C371 O372 1.224 1_545 S
C371 O390 1.247 . S
O372 C371 1.224 1_565 S
N373 Co363 2.128 . S
N373 C374 1.355 . S
N373 C376 1.311 . S
C374 N373 1.355 . S
C374 C375 1.363 . S
C374 H386 0.929 . S
C375 C374 1.363 . S
C375 N377 1.375 . S
C375 H393 0.931 . S
C376 N373 1.311 . S
C376 N377 1.347 . S
C376 H387 0.929 . S
N377 C375 1.375 . S
N377 C376 1.347 . S
C378 C381 1.365 . S
C378 N383 1.328 . S
C378 H384 0.929 . S
C379 C380 1.362 . S
C379 C382 1.378 . S
C379 H394 0.929 1_545 S
C380 C379 1.362 . S
C380 C381 1.366 . S
C381 C378 1.365 . S
C381 C380 1.366 . S
C381 H395 0.930 . S
C382 C379 1.378 . S
C382 N383 1.315 . S
C382 H385 0.930 . S
N383 Co363 2.194 . S
N383 C378 1.328 . S
N383 C382 1.315 . S
H384 C378 0.929 . S
H385 C382 0.930 . S
H386 C374 0.929 . S
H387 C376 0.929 . S
O388 Co363 2.351 . S
O388 C391 1.244 . S
O389 Co363 2.155 . S
O389 C391 1.240 . S
O390 Co363 2.096 . S
O390 C371 1.247 . S
C391 O388 1.244 . S
C391 O389 1.240 . S
H392 C366 0.931 . S
H393 C375 0.931 . S
H394 C379 0.929 1_565 S
H395 C381 0.930 . S
Co396 N400 2.148 . S
Co396 N406 2.128 . S
Co396 N416 2.194 . S
Co396 O421 2.351 . S
Co396 O422 2.155 . S
Co396 O423 2.096 . S
C397 N400 1.301 . S
C397 N401 1.328 . S
C397 H402 0.930 . S
C398 C399 1.333 . S
C398 N400 1.317 . S
C398 H403 0.930 . S
C399 C398 1.333 . S
C399 N401 1.350 . S
C399 H425 0.931 . S
N400 Co396 2.148 . S
N400 C397 1.301 . S
N400 C398 1.317 . S
N401 C397 1.328 . S
N401 C399 1.350 . S
H402 C397 0.930 . S
H403 C398 0.930 . S
C404 O405 1.224 . S
C404 O423 1.247 . S
O405 C404 1.224 . S
N406 Co396 2.128 . S
N406 C407 1.355 . S
N406 C409 1.311 . S
C407 N406 1.355 . S
C407 C408 1.363 . S
C407 H419 0.929 . S
C408 C407 1.363 . S
C408 N410 1.375 . S
C408 H426 0.931 . S
C409 N406 1.311 . S
C409 N410 1.347 . S
C409 H420 0.929 . S
N410 C408 1.375 . S
N410 C409 1.347 . S
C411 C414 1.365 . S
C411 N416 1.328 . S
C411 H417 0.929 . S
C412 C413 1.362 . S
C412 C415 1.378 . S
C412 H427 0.929 . S
C413 C412 1.362 . S
C413 C414 1.366 . S
C414 C411 1.365 . S
C414 C413 1.366 . S
C414 H428 0.930 . S
C415 C412 1.378 . S
C415 N416 1.315 . S
C415 H418 0.930 . S
N416 Co396 2.194 . S
N416 C411 1.328 . S
N416 C415 1.315 . S
H417 C411 0.929 . S
H418 C415 0.930 . S
H419 C407 0.929 . S
H420 C409 0.929 . S
O421 Co396 2.351 . S
O421 C424 1.244 . S
O422 Co396 2.155 . S
O422 C424 1.240 . S
O423 Co396 2.096 . S
O423 C404 1.247 . S
C424 O421 1.244 . S
C424 O422 1.240 . S
H425 C399 0.931 . S
H426 C408 0.931 . S
H427 C412 0.929 . S
H428 C414 0.930 . S
Co429 N433 2.148 . S
Co429 N439 2.128 . S
Co429 N449 2.194 . S
Co429 O454 2.351 . S
Co429 O455 2.155 . S
Co429 O456 2.096 . S
C430 N433 1.301 . S
C430 N434 1.328 . S
C430 H435 0.930 . S
C431 C432 1.333 . S
C431 N433 1.317 . S
C431 H436 0.930 . S
C432 C431 1.333 . S
C432 N434 1.350 . S
C432 H458 0.931 . S
N433 Co429 2.148 . S
N433 C430 1.301 . S
N433 C431 1.317 . S
N434 C430 1.328 . S
N434 C432 1.350 . S
H435 C430 0.930 . S
H436 C431 0.930 . S
C437 O438 1.224 . S
C437 O456 1.247 . S
O438 C437 1.224 . S
N439 Co429 2.128 . S
N439 C440 1.355 . S
N439 C442 1.311 . S
C440 N439 1.355 . S
C440 C441 1.363 . S
C440 H452 0.929 . S
C441 C440 1.363 . S
C441 N443 1.375 . S
C441 H459 0.931 . S
C442 N439 1.311 . S
C442 N443 1.347 . S
C442 H453 0.929 . S
N443 C441 1.375 . S
N443 C442 1.347 . S
C444 C447 1.365 . S
C444 N449 1.328 . S
C444 H450 0.929 . S
C445 C446 1.362 . S
C445 C448 1.378 . S
C445 H460 0.929 . S
C446 C445 1.362 . S
C446 C447 1.366 . S
C447 C444 1.365 . S
C447 C446 1.366 . S
C447 H461 0.930 . S
C448 C445 1.378 . S
C448 N449 1.315 . S
C448 H451 0.930 . S
N449 Co429 2.194 . S
N449 C444 1.328 . S
N449 C448 1.315 . S
H450 C444 0.929 . S
H451 C448 0.930 . S
H452 C440 0.929 . S
H453 C442 0.929 . S
O454 Co429 2.351 . S
O454 C457 1.244 . S
O455 Co429 2.155 . S
O455 C457 1.240 . S
O456 Co429 2.096 . S
O456 C437 1.247 . S
C457 O454 1.244 . S
C457 O455 1.240 . S
H458 C432 0.931 . S
H459 C441 0.931 . S
H460 C445 0.929 . S
H461 C447 0.930 . S
Co462 N466 2.148 . S
Co462 N472 2.128 . S
Co462 N482 2.194 . S
Co462 O487 2.351 . S
Co462 O488 2.155 . S
Co462 O489 2.096 . S
C463 N466 1.301 . S
C463 N467 1.328 . S
C463 H468 0.930 . S
C464 C465 1.333 . S
C464 N466 1.317 . S
C464 H469 0.930 . S
C465 C464 1.333 . S
C465 N467 1.350 . S
C465 H491 0.931 . S
N466 Co462 2.148 . S
N466 C463 1.301 . S
N466 C464 1.317 . S
N467 C463 1.328 . S
N467 C465 1.350 . S
H468 C463 0.930 . S
H469 C464 0.930 . S
C470 O471 1.224 . S
C470 O489 1.247 . S
O471 C470 1.224 . S
N472 Co462 2.128 . S
N472 C473 1.355 . S
N472 C475 1.311 . S
C473 N472 1.355 . S
C473 C474 1.363 . S
C473 H485 0.929 . S
C474 C473 1.363 . S
C474 N476 1.375 . S
C474 H492 0.931 . S
C475 N472 1.311 . S
C475 N476 1.347 . S
C475 H486 0.929 . S
N476 C474 1.375 . S
N476 C475 1.347 . S
C477 C480 1.365 . S
C477 N482 1.328 . S
C477 H483 0.929 . S
C478 C479 1.362 . S
C478 C481 1.378 . S
C478 H493 0.929 . S
C479 C478 1.362 . S
C479 C480 1.366 . S
C480 C477 1.365 . S
C480 C479 1.366 . S
C480 H494 0.930 . S
C481 C478 1.378 . S
C481 N482 1.315 . S
C481 H484 0.930 . S
N482 Co462 2.194 . S
N482 C477 1.328 . S
N482 C481 1.315 . S
H483 C477 0.929 . S
H484 C481 0.930 . S
H485 C473 0.929 . S
H486 C475 0.929 . S
O487 Co462 2.351 . S
O487 C490 1.244 . S
O488 Co462 2.155 . S
O488 C490 1.240 . S
O489 Co462 2.096 . S
O489 C470 1.247 . S
C490 O487 1.244 . S
C490 O488 1.240 . S
H491 C465 0.931 . S
H492 C474 0.931 . S
H493 C478 0.929 . S
H494 C480 0.930 . S
Co495 N499 2.148 . S
Co495 N505 2.128 . S
Co495 N515 2.194 . S
Co495 O520 2.351 . S
Co495 O521 2.155 . S
Co495 O522 2.096 . S
C496 N499 1.301 . S
C496 N500 1.328 . S
C496 H501 0.930 . S
C497 C498 1.333 . S
C497 N499 1.317 . S
C497 H502 0.930 . S
C498 C497 1.333 . S
C498 N500 1.350 . S
C498 H524 0.931 . S
N499 Co495 2.148 . S
N499 C496 1.301 . S
N499 C497 1.317 . S
N500 C496 1.328 . S
N500 C498 1.350 . S
H501 C496 0.930 . S
H502 C497 0.930 . S
C503 O504 1.224 . S
C503 O522 1.247 . S
O504 C503 1.224 . S
N505 Co495 2.128 . S
N505 C506 1.355 . S
N505 C508 1.311 . S
C506 N505 1.355 . S
C506 C507 1.363 . S
C506 H518 0.929 . S
C507 C506 1.363 . S
C507 N509 1.375 . S
C507 H525 0.931 . S
C508 N505 1.311 . S
C508 N509 1.347 . S
C508 H519 0.929 . S
N509 C507 1.375 . S
N509 C508 1.347 . S
C510 C513 1.365 . S
C510 N515 1.328 . S
C510 H516 0.929 . S
C511 C512 1.362 . S
C511 C514 1.378 . S
C511 H526 0.929 . S
C512 C511 1.362 . S
C512 C513 1.366 . S
C513 C510 1.365 . S
C513 C512 1.366 . S
C513 H527 0.930 . S
C514 C511 1.378 . S
C514 N515 1.315 . S
C514 H517 0.930 . S
N515 Co495 2.194 . S
N515 C510 1.328 . S
N515 C514 1.315 . S
H516 C510 0.929 . S
H517 C514 0.930 . S
H518 C506 0.929 . S
H519 C508 0.929 . S
O520 Co495 2.351 . S
O520 C523 1.244 . S
O521 Co495 2.155 . S
O521 C523 1.240 . S
O522 Co495 2.096 . S
O522 C503 1.247 . S
C523 O520 1.244 . S
C523 O521 1.240 . S
H524 C498 0.931 . S
H525 C507 0.931 . S
H526 C511 0.929 . S
H527 C513 0.930 . S
H528 C536 0.950 . S
H529 C541 0.950 . S
H530 C538 0.950 . S
H531 C540 0.950 . S
H532 C542 0.950 . S
H533 C544 0.950 . S
H534 C546 0.950 . S
H535 C547 0.950 . S
C536 H528 0.950 . S
C536 C537 1.386 . S
C536 C538 1.391 . S
C537 C536 1.386 . S
C537 C541 1.393 . S
C538 H530 0.950 . S
C538 C536 1.391 . S
C538 C539 1.400 . S
C539 C538 1.400 . S
C539 C540 1.398 . S
C539 C545 1.491 . S
C540 H531 0.950 . S
C540 C539 1.398 . S
C540 C541 1.391 . S
C541 H529 0.950 . S
C541 C537 1.393 . S
C541 C540 1.391 . S
C542 H532 0.950 . S
C542 C543 1.386 . S
C542 C544 1.391 . S
C543 C542 1.386 . S
C543 C547 1.393 . S
C544 H533 0.950 . S
C544 C542 1.391 . S
C544 C545 1.400 . S
C545 C539 1.491 . S
C545 C544 1.400 . S
C545 C546 1.398 . S
C546 H534 0.950 . S
C546 C545 1.398 . S
C546 C547 1.391 . S
C547 H535 0.950 . S
C547 C543 1.393 . S
C547 C546 1.391 . S
H548 C556 0.950 . S
H549 C561 0.950 . S
H550 C558 0.950 . S
H551 C560 0.950 . S
H552 C562 0.950 . S
H553 C564 0.950 . S
H554 C566 0.950 . S
H555 C567 0.950 . S
C556 H548 0.950 . S
C556 C557 1.386 . S
C556 C558 1.391 . S
C557 C556 1.386 . S
C557 C561 1.393 . S
C558 H550 0.950 . S
C558 C556 1.391 . S
C558 C559 1.400 . S
C559 C558 1.400 . S
C559 C560 1.398 . S
C559 C565 1.491 . S
C560 H551 0.950 . S
C560 C559 1.398 . S
C560 C561 1.391 . S
C561 H549 0.950 . S
C561 C557 1.393 . S
C561 C560 1.391 . S
C562 H552 0.950 . S
C562 C563 1.386 . S
C562 C564 1.391 . S
C563 C562 1.386 . S
C563 C567 1.393 . S
C564 H553 0.950 . S
C564 C562 1.391 . S
C564 C565 1.400 . S
C565 C559 1.491 . S
C565 C564 1.400 . S
C565 C566 1.398 . S
C566 H554 0.950 . S
C566 C565 1.398 . S
C566 C567 1.391 . S
C567 H555 0.950 . S
C567 C563 1.393 . S
C567 C566 1.391 . S
H568 C576 0.950 . S
H569 C581 0.950 . S
H570 C578 0.950 . S
H571 C580 0.950 . S
H572 C582 0.950 . S
H573 C584 0.950 . S
H574 C586 0.950 . S
H575 C587 0.950 . S
C576 H568 0.950 . S
C576 C577 1.386 . S
C576 C578 1.391 . S
C577 C576 1.386 . S
C577 C581 1.393 . S
C578 H570 0.950 . S
C578 C576 1.391 . S
C578 C579 1.400 . S
C579 C578 1.400 . S
C579 C580 1.398 . S
C579 C585 1.491 . S
C580 H571 0.950 . S
C580 C579 1.398 . S
C580 C581 1.391 . S
C581 H569 0.950 . S
C581 C577 1.393 . S
C581 C580 1.391 . S
C582 H572 0.950 . S
C582 C583 1.386 . S
C582 C584 1.391 . S
C583 C582 1.386 . S
C583 C587 1.393 . S
C584 H573 0.950 . S
C584 C582 1.391 . S
C584 C585 1.400 . S
C585 C579 1.491 . S
C585 C584 1.400 . S
C585 C586 1.398 . S
C586 H574 0.950 . S
C586 C585 1.398 . S
C586 C587 1.391 . S
C587 H575 0.950 . S
C587 C583 1.393 . S
C587 C586 1.391 . S
H588 C596 0.950 . S
H589 C601 0.950 . S
H590 C598 0.950 . S
H591 C600 0.950 . S
H592 C602 0.950 . S
H593 C604 0.950 . S
H594 C606 0.950 . S
H595 C607 0.950 . S
C596 H588 0.950 . S
C596 C597 1.386 . S
C596 C598 1.391 . S
C597 C596 1.386 . S
C597 C601 1.393 . S
C598 H590 0.950 . S
C598 C596 1.391 . S
C598 C599 1.400 . S
C599 C598 1.400 . S
C599 C600 1.398 . S
C599 C605 1.491 . S
C600 H591 0.950 . S
C600 C599 1.398 . S
C600 C601 1.391 . S
C601 H589 0.950 . S
C601 C597 1.393 . S
C601 C600 1.391 . S
C602 H592 0.950 . S
C602 C603 1.386 . S
C602 C604 1.391 . S
C603 C602 1.386 . S
C603 C607 1.393 . S
C604 H593 0.950 . S
C604 C602 1.391 . S
C604 C605 1.400 . S
C605 C599 1.491 . S
C605 C604 1.400 . S
C605 C606 1.398 . S
C606 H594 0.950 . S
C606 C605 1.398 . S
C606 C607 1.391 . S
C607 H595 0.950 . S
C607 C603 1.393 . S
C607 C606 1.391 . S
H608 C616 0.950 . S
H609 C621 0.950 . S
H610 C618 0.950 . S
H611 C620 0.950 . S
H612 C622 0.950 . S
H613 C624 0.950 . S
H614 C626 0.950 . S
H615 C627 0.950 . S
C616 H608 0.950 . S
C616 C617 1.386 . S
C616 C618 1.391 . S
C617 C616 1.386 . S
C617 C621 1.393 . S
C618 H610 0.950 . S
C618 C616 1.391 . S
C618 C619 1.400 . S
C619 C618 1.400 . S
C619 C620 1.398 . S
C619 C625 1.491 . S
C620 H611 0.950 . S
C620 C619 1.398 . S
C620 C621 1.391 . S
C621 H609 0.950 . S
C621 C617 1.393 . S
C621 C620 1.391 . S
C622 H612 0.950 . S
C622 C623 1.386 . S
C622 C624 1.391 . S
C623 C622 1.386 . S
C623 C627 1.393 . S
C624 H613 0.950 . S
C624 C622 1.391 . S
C624 C625 1.400 . S
C625 C619 1.491 . S
C625 C624 1.400 . S
C625 C626 1.398 . S
C626 H614 0.950 . S
C626 C625 1.398 . S
C626 C627 1.391 . S
C627 H615 0.950 . S
C627 C623 1.393 . S
C627 C626 1.391 . S
H628 C636 0.950 . S
H629 C641 0.950 . S
H630 C638 0.950 . S
H631 C640 0.950 . S
H632 C642 0.950 . S
H633 C644 0.950 . S
H634 C646 0.950 . S
H635 C647 0.950 . S
C636 H628 0.950 . S
C636 C637 1.386 . S
C636 C638 1.391 . S
C637 C636 1.386 . S
C637 C641 1.393 . S
C638 H630 0.950 . S
C638 C636 1.391 . S
C638 C639 1.400 . S
C639 C638 1.400 . S
C639 C640 1.398 . S
C639 C645 1.491 . S
C640 H631 0.950 . S
C640 C639 1.398 . S
C640 C641 1.391 . S
C641 H629 0.950 . S
C641 C637 1.393 . S
C641 C640 1.391 . S
C642 H632 0.950 . S
C642 C643 1.386 . S
C642 C644 1.391 . S
C643 C642 1.386 . S
C643 C647 1.393 . S
C644 H633 0.950 . S
C644 C642 1.391 . S
C644 C645 1.400 . S
C645 C639 1.491 . S
C645 C644 1.400 . S
C645 C646 1.398 . S
C646 H634 0.950 . S
C646 C645 1.398 . S
C646 C647 1.391 . S
C647 H635 0.950 . S
C647 C643 1.393 . S
C647 C646 1.391 . S
H648 C656 0.950 . S
H649 C661 0.950 . S
H650 C658 0.950 . S
H651 C660 0.950 . S
H652 C662 0.950 . S
H653 C664 0.950 . S
H654 C666 0.950 . S
H655 C667 0.950 . S
C656 H648 0.950 . S
C656 C657 1.386 . S
C656 C658 1.391 . S
C657 C656 1.386 . S
C657 C661 1.393 . S
C658 H650 0.950 . S
C658 C656 1.391 . S
C658 C659 1.400 . S
C659 C658 1.400 . S
C659 C660 1.398 . S
C659 C665 1.491 . S
C660 H651 0.950 . S
C660 C659 1.398 . S
C660 C661 1.391 . S
C661 H649 0.950 . S
C661 C657 1.393 . S
C661 C660 1.391 . S
C662 H652 0.950 . S
C662 C663 1.386 . S
C662 C664 1.391 . S
C663 C662 1.386 . S
C663 C667 1.393 . S
C664 H653 0.950 . S
C664 C662 1.391 . S
C664 C665 1.400 . S
C665 C659 1.491 . S
C665 C664 1.400 . S
C665 C666 1.398 . S
C666 H654 0.950 . S
C666 C665 1.398 . S
C666 C667 1.391 . S
C667 H655 0.950 . S
C667 C663 1.393 . S
C667 C666 1.391 . S
H668 C676 0.950 . S
H669 C681 0.950 . S
H670 C678 0.950 . S
H671 C680 0.950 . S
H672 C682 0.950 . S
H673 C684 0.950 . S
H674 C686 0.950 . S
H675 C687 0.950 . S
C676 H668 0.950 . S
C676 C677 1.386 . S
C676 C678 1.391 . S
C677 C676 1.386 . S
C677 C681 1.393 . S
C678 H670 0.950 . S
C678 C676 1.391 . S
C678 C679 1.400 . S
C679 C678 1.400 . S
C679 C680 1.398 . S
C679 C685 1.491 . S
C680 H671 0.950 . S
C680 C679 1.398 . S
C680 C681 1.391 . S
C681 H669 0.950 . S
C681 C677 1.393 . S
C681 C680 1.391 . S
C682 H672 0.950 . S
C682 C683 1.386 . S
C682 C684 1.391 . S
C683 C682 1.386 . S
C683 C687 1.393 . S
C684 H673 0.950 . S
C684 C682 1.391 . S
C684 C685 1.400 . S
C685 C679 1.491 . S
C685 C684 1.400 . S
C685 C686 1.398 . S
C686 H674 0.950 . S
C686 C685 1.398 . S
C686 C687 1.391 . S
C687 H675 0.950 . S
C687 C683 1.393 . S
C687 C686 1.391 . S
H688 C696 0.950 1_655 S
H689 C701 0.950 . S
H690 C698 0.950 1_655 S
H691 C700 0.950 . S
H692 C702 0.950 . S
H693 C704 0.950 . S
H694 C706 0.950 1_655 S
H695 C707 0.950 1_655 S
C696 H688 0.950 1_455 S
C696 C697 1.386 . S
C696 C698 1.391 . S
C697 C696 1.386 . S
C697 C701 1.393 . S
C698 H690 0.950 1_455 S
C698 C696 1.391 . S
C698 C699 1.400 . S
C699 C698 1.400 . S
C699 C700 1.398 . S
C699 C705 1.491 1_554 S
C700 H691 0.950 . S
C700 C699 1.398 . S
C700 C701 1.391 . S
C701 H689 0.950 . S
C701 C697 1.393 . S
C701 C700 1.391 . S
C702 H692 0.950 . S
C702 C703 1.386 . S
C702 C704 1.391 . S
C703 C702 1.386 . S
C703 C707 1.393 . S
C704 H693 0.950 . S
C704 C702 1.391 . S
C704 C705 1.400 . S
C705 C699 1.491 1_556 S
C705 C704 1.400 . S
C705 C706 1.398 . S
C706 H694 0.950 1_455 S
C706 C705 1.398 . S
C706 C707 1.391 . S
C707 H695 0.950 1_455 S
C707 C703 1.393 . S
C707 C706 1.391 . S
H708 C716 0.950 . S
H709 C721 0.950 1_565 S
H710 C718 0.950 . S
H711 C720 0.950 1_565 S
H712 C722 0.945 1_565 S
H713 C724 0.950 1_565 S
H714 C726 0.950 . S
H715 C727 0.950 . S
C716 H708 0.950 . S
C716 C717 1.386 . S
C716 C718 1.391 . S
C717 C716 1.386 . S
C717 C721 1.393 . S
C718 H710 0.950 . S
C718 C716 1.391 . S
C718 C719 1.400 . S
C719 C718 1.400 . S
C719 C720 1.398 . S
C719 C725 1.491 . S
C720 H711 0.950 1_545 S
C720 C719 1.398 . S
C720 C721 1.391 . S
C721 H709 0.950 1_545 S
C721 C717 1.393 . S
C721 C720 1.391 . S
C722 H712 0.945 1_545 S
C722 C723 1.386 . S
C722 C724 1.391 . S
C723 C722 1.386 . S
C723 C727 1.393 . S
C724 H713 0.950 1_545 S
C724 C722 1.391 . S
C724 C725 1.400 . S
C725 C719 1.491 . S
C725 C724 1.400 . S
C725 C726 1.398 . S
C726 H714 0.950 . S
C726 C725 1.398 . S
C726 C727 1.391 . S
C727 H715 0.950 . S
C727 C723 1.393 . S
C727 C726 1.391 . S
H728 C736 0.950 . S
H729 C741 0.950 . S
H730 C738 0.950 . S
H731 C740 0.950 . S
H732 C742 0.950 . S
H733 C744 0.950 . S
H734 C746 0.950 . S
H735 C747 0.950 . S
C736 H728 0.950 . S
C736 C737 1.386 . S
C736 C738 1.391 . S
C737 C736 1.386 . S
C737 C741 1.393 . S
C738 H730 0.950 . S
C738 C736 1.391 . S
C738 C739 1.400 . S
C739 C738 1.400 . S
C739 C740 1.398 . S
C739 C745 1.491 1_556 S
C740 H731 0.950 . S
C740 C739 1.398 . S
C740 C741 1.391 . S
C741 H729 0.950 . S
C741 C737 1.393 . S
C741 C740 1.391 . S
C742 H732 0.950 . S
C742 C743 1.386 . S
C742 C744 1.391 . S
C743 C742 1.386 . S
C743 C747 1.393 . S
C744 H733 0.950 . S
C744 C742 1.391 . S
C744 C745 1.400 . S
C745 C739 1.491 1_554 S
C745 C744 1.400 . S
C745 C746 1.398 . S
C746 H734 0.950 . S
C746 C745 1.398 . S
C746 C747 1.391 . S
C747 H735 0.950 . S
C747 C743 1.393 . S
C747 C746 1.391 . S
H748 C756 0.950 1_545 S
H749 C761 0.950 . S
H750 C758 0.950 1_545 S
H751 C760 0.950 . S
H752 C762 0.950 . S
H753 C764 0.950 . S
H754 C766 0.950 1_545 S
H755 C767 0.950 1_545 S
C756 H748 0.950 1_565 S
C756 C757 1.386 . S
C756 C758 1.391 . S
C757 C756 1.386 . S
C757 C761 1.393 . S
C758 H750 0.950 1_565 S
C758 C756 1.391 . S
C758 C759 1.400 . S
C759 C758 1.400 . S
C759 C760 1.398 . S
C759 C765 1.491 . S
C760 H751 0.950 . S
C760 C759 1.398 . S
C760 C761 1.391 . S
C761 H749 0.950 . S
C761 C757 1.393 . S
C761 C760 1.391 . S
C762 H752 0.950 . S
C762 C763 1.386 . S
C762 C764 1.391 . S
C763 C762 1.386 . S
C763 C767 1.393 . S
C764 H753 0.950 . S
C764 C762 1.391 . S
C764 C765 1.400 . S
C765 C759 1.491 . S
C765 C764 1.400 . S
C765 C766 1.398 . S
C766 H754 0.950 1_565 S
C766 C765 1.398 . S
C766 C767 1.391 . S
C767 H755 0.950 1_565 S
C767 C763 1.393 . S
C767 C766 1.391 . S
H768 C776 0.950 . S
H769 C781 0.950 . S
H770 C778 0.950 . S
H771 C780 0.950 . S
H772 C782 0.950 . S
H773 C784 0.950 . S
H774 C786 0.950 . S
H775 C787 0.950 . S
C776 H768 0.950 . S
C776 C777 1.386 . S
C776 C778 1.391 . S
C777 C776 1.386 . S
C777 C781 1.393 . S
C778 H770 0.950 . S
C778 C776 1.391 . S
C778 C779 1.400 . S
C779 C778 1.400 . S
C779 C780 1.398 . S
C779 C785 1.491 1_554 S
C780 H771 0.950 . S
C780 C779 1.398 . S
C780 C781 1.391 . S
C781 H769 0.950 . S
C781 C777 1.393 . S
C781 C780 1.391 . S
C782 H772 0.950 . S
C782 C783 1.386 . S
C782 C784 1.391 . S
C783 C782 1.386 . S
C783 C787 1.393 . S
C784 H773 0.950 . S
C784 C782 1.391 . S
C784 C785 1.400 . S
C785 C779 1.491 1_556 S
C785 C784 1.400 . S
C785 C786 1.398 . S
C786 H774 0.950 . S
C786 C785 1.398 . S
C786 C787 1.391 . S
C787 H775 0.950 . S
C787 C783 1.393 . S
C787 C786 1.391 . S
H788 C796 0.950 . S
H789 C801 0.950 . S
H790 C798 0.950 . S
H791 C800 0.950 . S
H792 C802 0.950 . S
H793 C804 0.950 . S
H794 C806 0.950 . S
H795 C807 0.950 . S
C796 H788 0.950 . S
C796 C797 1.386 . S
C796 C798 1.391 . S
C797 C796 1.386 . S
C797 C801 1.393 . S
C798 H790 0.950 . S
C798 C796 1.391 . S
C798 C799 1.400 . S
C799 C798 1.400 . S
C799 C800 1.398 . S
C799 C805 1.491 . S
C800 H791 0.950 . S
C800 C799 1.398 . S
C800 C801 1.391 . S
C801 H789 0.950 . S
C801 C797 1.393 . S
C801 C800 1.391 . S
C802 H792 0.950 . S
C802 C803 1.386 . S
C802 C804 1.391 . S
C803 C802 1.386 . S
C803 C807 1.393 . S
C804 H793 0.950 . S
C804 C802 1.391 . S
C804 C805 1.400 . S
C805 C799 1.491 . S
C805 C804 1.400 . S
C805 C806 1.398 . S
C806 H794 0.950 . S
C806 C805 1.398 . S
C806 C807 1.391 . S
C807 H795 0.950 . S
C807 C803 1.393 . S
C807 C806 1.391 . S
H808 C816 0.950 . S
H809 C821 0.950 . S
H810 C818 0.950 . S
H811 C820 0.950 . S
H812 C822 0.950 . S
H813 C824 0.950 . S
H814 C826 0.950 . S
H815 C827 0.950 . S
C816 H808 0.950 . S
C816 C817 1.386 . S
C816 C818 1.391 . S
C817 C816 1.386 . S
C817 C821 1.393 . S
C818 H810 0.950 . S
C818 C816 1.391 . S
C818 C819 1.400 . S
C819 C818 1.400 . S
C819 C820 1.398 . S
C819 C825 1.491 1_554 S
C820 H811 0.950 . S
C820 C819 1.398 . S
C820 C821 1.391 . S
C821 H809 0.950 . S
C821 C817 1.393 . S
C821 C820 1.391 . S
C822 H812 0.950 . S
C822 C823 1.386 . S
C822 C824 1.391 . S
C823 C822 1.386 . S
C823 C827 1.393 . S
C824 H813 0.950 . S
C824 C822 1.391 . S
C824 C825 1.400 . S
C825 C819 1.491 1_556 S
C825 C824 1.400 . S
C825 C826 1.398 . S
C826 H814 0.950 . S
C826 C825 1.398 . S
C826 C827 1.391 . S
C827 H815 0.950 . S
C827 C823 1.393 . S
C827 C826 1.391 . S
H828 C836 0.950 . S
H829 C841 0.950 . S
H830 C838 0.950 . S
H831 C840 0.950 . S
H832 C842 0.950 . S
H833 C844 0.950 . S
H834 C846 0.950 . S
H835 C847 0.950 . S
C836 H828 0.950 . S
C836 C837 1.386 . S
C836 C838 1.391 . S
C837 C836 1.386 . S
C837 C841 1.393 . S
C838 H830 0.950 . S
C838 C836 1.391 . S
C838 C839 1.400 . S
C839 C838 1.400 . S
C839 C840 1.398 . S
C839 C845 1.491 . S
C840 H831 0.950 . S
C840 C839 1.398 . S
C840 C841 1.391 . S
C841 H829 0.950 . S
C841 C837 1.393 . S
C841 C840 1.391 . S
C842 H832 0.950 . S
C842 C843 1.386 . S
C842 C844 1.391 . S
C843 C842 1.386 . S
C843 C847 1.393 . S
C844 H833 0.950 . S
C844 C842 1.391 . S
C844 C845 1.400 . S
C845 C839 1.491 . S
C845 C844 1.400 . S
C845 C846 1.398 . S
C846 H834 0.950 . S
C846 C845 1.398 . S
C846 C847 1.391 . S
C847 H835 0.950 . S
C847 C843 1.393 . S
C847 C846 1.391 . S
H848 C856 0.950 . S
H849 C861 0.950 . S
H850 C858 0.950 1_655 S
H851 C860 0.950 . S
H852 C862 0.950 . S
H853 C864 0.950 1_455 S
H854 C866 0.950 . S
H855 C867 0.950 . S
C856 H848 0.950 . S
C856 C857 1.386 . S
C856 C858 1.391 . S
C857 C856 1.386 . S
C857 C861 1.393 . S
C858 H850 0.950 1_455 S
C858 C856 1.391 . S
C858 C859 1.400 . S
C859 C858 1.400 . S
C859 C860 1.398 . S
C859 C865 1.491 1_455 S
C860 H851 0.950 . S
C860 C859 1.398 . S
C860 C861 1.391 . S
C861 H849 0.950 . S
C861 C857 1.393 . S
C861 C860 1.391 . S
C862 H852 0.950 . S
C862 C863 1.386 . S
C862 C864 1.391 . S
C863 C862 1.386 . S
C863 C867 1.393 . S
C864 H853 0.950 1_655 S
C864 C862 1.391 . S
C864 C865 1.400 . S
C865 C859 1.491 1_655 S
C865 C864 1.400 . S
C865 C866 1.398 . S
C866 H854 0.950 . S
C866 C865 1.398 . S
C866 C867 1.391 . S
C867 H855 0.950 . S
C867 C863 1.393 . S
C867 C866 1.391 . S
H868 C876 0.950 . S
H869 C881 0.950 . S
H870 C878 0.950 . S
H871 C880 0.950 1_545 S
H872 C882 0.950 . S
H873 C884 0.950 . S
H874 C886 0.950 1_565 S
H875 C887 0.950 . S
C876 H868 0.950 . S
C876 C877 1.386 . S
C876 C878 1.391 . S
C877 C876 1.386 . S
C877 C881 1.393 . S
C878 H870 0.950 . S
C878 C876 1.391 . S
C878 C879 1.400 . S
C879 C878 1.400 . S
C879 C880 1.398 . S
C879 C885 1.491 1_565 S
C880 H871 0.950 1_565 S
C880 C879 1.398 . S
C880 C881 1.391 . S
C881 H869 0.950 . S
C881 C877 1.393 . S
C881 C880 1.391 . S
C882 H872 0.950 . S
C882 C883 1.386 . S
C882 C884 1.391 . S
C883 C882 1.386 . S
C883 C887 1.393 . S
C884 H873 0.950 . S
C884 C882 1.391 . S
C884 C885 1.400 . S
C885 C879 1.491 1_545 S
C885 C884 1.400 . S
C885 C886 1.398 . S
C886 H874 0.950 1_545 S
C886 C885 1.398 . S
C886 C887 1.391 . S
C887 H875 0.950 . S
C887 C883 1.393 . S
C887 C886 1.391 . S
H888 C896 0.950 . S
H889 C901 0.950 . S
H890 C898 0.950 . S
H891 C900 0.950 . S
H892 C902 0.950 . S
H893 C904 0.950 . S
H894 C906 0.950 . S
H895 C907 0.950 . S
C896 H888 0.950 . S
C896 C897 1.386 . S
C896 C898 1.391 . S
C897 C896 1.386 . S
C897 C901 1.393 . S
C898 H890 0.950 . S
C898 C896 1.391 . S
C898 C899 1.400 . S
C899 C898 1.400 . S
C899 C900 1.398 . S
C899 C905 1.491 1_565 S
C900 H891 0.950 . S
C900 C899 1.398 . S
C900 C901 1.391 . S
C901 H889 0.950 . S
C901 C897 1.393 . S
C901 C900 1.391 . S
C902 H892 0.950 . S
C902 C903 1.386 . S
C902 C904 1.391 . S
C903 C902 1.386 . S
C903 C907 1.393 . S
C904 H893 0.950 . S
C904 C902 1.391 . S
C904 C905 1.400 . S
C905 C899 1.491 1_545 S
C905 C904 1.400 . S
C905 C906 1.398 . S
C906 H894 0.950 . S
C906 C905 1.398 . S
C906 C907 1.391 . S
C907 H895 0.950 . S
C907 C903 1.393 . S
C907 C906 1.391 . S
H908 C916 0.950 . S
H909 C921 0.950 . S
H910 C918 0.950 . S
H911 C920 0.950 1_655 S
H912 C922 0.950 . S
H913 C924 0.950 . S
H914 C926 0.950 1_455 S
H915 C927 0.950 . S
C916 H908 0.950 . S
C916 C917 1.386 . S
C916 C918 1.391 . S
C917 C916 1.386 . S
C917 C921 1.393 . S
C918 H910 0.950 . S
C918 C916 1.391 . S
C918 C919 1.400 . S
C919 C918 1.400 . S
C919 C920 1.398 . S
C919 C925 1.491 1_455 S
C920 H911 0.950 1_455 S
C920 C919 1.398 . S
C920 C921 1.391 . S
C921 H909 0.950 . S
C921 C917 1.393 . S
C921 C920 1.391 . S
C922 H912 0.950 . S
C922 C923 1.386 . S
C922 C924 1.391 . S
C923 C922 1.386 . S
C923 C927 1.393 . S
C924 H913 0.950 . S
C924 C922 1.391 . S
C924 C925 1.400 . S
C925 C919 1.491 1_655 S
C925 C924 1.400 . S
C925 C926 1.398 . S
C926 H914 0.950 1_655 S
C926 C925 1.398 . S
C926 C927 1.391 . S
C927 H915 0.950 . S
C927 C923 1.393 . S
C927 C926 1.391 . S
H928 C936 0.950 . S
H929 C941 0.950 . S
H930 C938 0.950 1_455 S
H931 C940 0.950 . S
H932 C942 0.950 . S
H933 C944 0.950 1_655 S
H934 C946 0.950 . S
H935 C947 0.950 . S
C936 H928 0.950 . S
C936 C937 1.386 . S
C936 C938 1.391 . S
C937 C936 1.386 . S
C937 C941 1.393 . S
C938 H930 0.950 1_655 S
C938 C936 1.391 . S
C938 C939 1.400 . S
C939 C938 1.400 . S
C939 C940 1.398 . S
C939 C945 1.491 1_655 S
C940 H931 0.950 . S
C940 C939 1.398 . S
C940 C941 1.391 . S
C941 H929 0.950 . S
C941 C937 1.393 . S
C941 C940 1.391 . S
C942 H932 0.950 . S
C942 C943 1.386 . S
C942 C944 1.391 . S
C943 C942 1.386 . S
C943 C947 1.393 . S
C944 H933 0.950 1_455 S
C944 C942 1.391 . S
C944 C945 1.400 . S
C945 C939 1.491 1_455 S
C945 C944 1.400 . S
C945 C946 1.398 . S
C946 H934 0.950 . S
C946 C945 1.398 . S
C946 C947 1.391 . S
C947 H935 0.950 . S
C947 C943 1.393 . S
C947 C946 1.391 . S
H948 C956 0.950 . S
H949 C961 0.950 . S
H950 C958 0.950 . S
H951 C960 0.950 1_565 S
H952 C962 0.950 . S
H953 C964 0.950 . S
H954 C966 0.950 1_545 S
H955 C967 0.950 . S
C956 H948 0.950 . S
C956 C957 1.386 . S
C956 C958 1.391 . S
C957 C956 1.386 . S
C957 C961 1.393 . S
C958 H950 0.950 . S
C958 C956 1.391 . S
C958 C959 1.400 . S
C959 C958 1.400 . S
C959 C960 1.398 . S
C959 C965 1.491 1_545 S
C960 H951 0.950 1_545 S
C960 C959 1.398 . S
C960 C961 1.391 . S
C961 H949 0.950 . S
C961 C957 1.393 . S
C961 C960 1.391 . S
C962 H952 0.950 . S
C962 C963 1.386 . S
C962 C964 1.391 . S
C963 C962 1.386 . S
C963 C967 1.393 . S
C964 H953 0.950 . S
C964 C962 1.391 . S
C964 C965 1.400 . S
C965 C959 1.491 1_565 S
C965 C964 1.400 . S
C965 C966 1.398 . S
C966 H954 0.950 1_565 S
C966 C965 1.398 . S
C966 C967 1.391 . S
C967 H955 0.950 . S
C967 C963 1.393 . S
C967 C966 1.391 . S
H968 C976 0.950 . S
H969 C981 0.950 . S
H970 C978 0.950 . S
H971 C980 0.950 1_545 S
H972 C982 0.950 . S
H973 C984 0.950 . S
H974 C986 0.950 1_565 S
H975 C987 0.950 . S
C976 H968 0.950 . S
C976 C977 1.386 . S
C976 C978 1.391 . S
C977 C976 1.386 . S
C977 C981 1.393 . S
C978 H970 0.950 . S
C978 C976 1.391 . S
C978 C979 1.400 . S
C979 C978 1.400 . S
C979 C980 1.398 . S
C979 C985 1.491 1_565 S
C980 H971 0.950 1_565 S
C980 C979 1.398 . S
C980 C981 1.391 . S
C981 H969 0.950 . S
C981 C977 1.393 . S
C981 C980 1.391 . S
C982 H972 0.950 . S
C982 C983 1.386 . S
C982 C984 1.391 . S
C983 C982 1.386 . S
C983 C987 1.393 . S
C984 H973 0.950 . S
C984 C982 1.391 . S
C984 C985 1.400 . S
C985 C979 1.491 1_545 S
C985 C984 1.400 . S
C985 C986 1.398 . S
C986 H974 0.950 1_545 S
C986 C985 1.398 . S
C986 C987 1.391 . S
C987 H975 0.950 . S
C987 C983 1.393 . S
C987 C986 1.391 . S
H988 C996 0.950 . S
H989 C1001 0.950 . S
H990 C998 0.950 . S
H991 C1000 0.950 . S
H992 C1002 0.950 . S
H993 C1004 0.950 . S
H994 C1006 0.950 . S
H995 C1007 0.950 . S
C996 H988 0.950 . S
C996 C997 1.386 . S
C996 C998 1.391 . S
C997 C996 1.386 . S
C997 C1001 1.393 . S
C998 H990 0.950 . S
C998 C996 1.391 . S
C998 C999 1.400 . S
C999 C998 1.400 . S
C999 C1000 1.398 . S
C999 C1005 1.491 1_455 S
C1000 H991 0.950 . S
C1000 C999 1.398 . S
C1000 C1001 1.391 . S
C1001 H989 0.950 . S
C1001 C997 1.393 . S
C1001 C1000 1.391 . S
C1002 H992 0.950 . S
C1002 C1003 1.386 . S
C1002 C1004 1.391 . S
C1003 C1002 1.386 . S
C1003 C1007 1.393 . S
C1004 H993 0.950 . S
C1004 C1002 1.391 . S
C1004 C1005 1.400 . S
C1005 C999 1.491 1_655 S
C1005 C1004 1.400 . S
C1005 C1006 1.398 . S
C1006 H994 0.950 . S
C1006 C1005 1.398 . S
C1006 C1007 1.391 . S
C1007 H995 0.950 . S
C1007 C1003 1.393 . S
C1007 C1006 1.391 . S
H1008 C1016 0.950 . S
H1009 C1021 0.950 . S
H1010 C1018 0.950 . S
H1011 C1020 0.950 . S
H1012 C1022 0.950 . S
H1013 C1024 0.950 . S
H1014 C1026 0.950 . S
H1015 C1027 0.950 . S
C1016 H1008 0.950 . S
C1016 C1017 1.386 . S
C1016 C1018 1.391 . S
C1017 C1016 1.386 . S
C1017 C1021 1.393 . S
C1018 H1010 0.950 . S
C1018 C1016 1.391 . S
C1018 C1019 1.400 . S
C1019 C1018 1.400 . S
C1019 C1020 1.398 . S
C1019 C1025 1.491 . S
C1020 H1011 0.950 . S
C1020 C1019 1.398 . S
C1020 C1021 1.391 . S
C1021 H1009 0.950 . S
C1021 C1017 1.393 . S
C1021 C1020 1.391 . S
C1022 H1012 0.950 . S
C1022 C1023 1.386 . S
C1022 C1024 1.391 . S
C1023 C1022 1.386 . S
C1023 C1027 1.393 . S
C1024 H1013 0.950 . S
C1024 C1022 1.391 . S
C1024 C1025 1.400 . S
C1025 C1019 1.491 . S
C1025 C1024 1.400 . S
C1025 C1026 1.398 . S
C1026 H1014 0.950 . S
C1026 C1025 1.398 . S
C1026 C1027 1.391 . S
C1027 H1015 0.950 . S
C1027 C1023 1.393 . S
C1027 C1026 1.391 . S
H1028 C1036 0.950 . S
H1029 C1041 0.950 . S
H1030 C1038 0.950 . S
H1031 C1040 0.950 . S
H1032 C1042 0.950 . S
H1033 C1044 0.950 . S
H1034 C1046 0.950 . S
H1035 C1047 0.950 . S
C1036 H1028 0.950 . S
C1036 C1037 1.386 . S
C1036 C1038 1.391 . S
C1037 C1036 1.386 . S
C1037 C1041 1.393 . S
C1038 H1030 0.950 . S
C1038 C1036 1.391 . S
C1038 C1039 1.400 . S
C1039 C1038 1.400 . S
C1039 C1040 1.398 . S
C1039 C1045 1.491 . S
C1040 H1031 0.950 . S
C1040 C1039 1.398 . S
C1040 C1041 1.391 . S
C1041 H1029 0.950 . S
C1041 C1037 1.393 . S
C1041 C1040 1.391 . S
C1042 H1032 0.950 . S
C1042 C1043 1.386 . S
C1042 C1044 1.391 . S
C1043 C1042 1.386 . S
C1043 C1047 1.393 . S
C1044 H1033 0.950 . S
C1044 C1042 1.391 . S
C1044 C1045 1.400 . S
C1045 C1039 1.491 . S
C1045 C1044 1.400 . S
C1045 C1046 1.398 . S
C1046 H1034 0.950 . S
C1046 C1045 1.398 . S
C1046 C1047 1.391 . S
C1047 H1035 0.950 . S
C1047 C1043 1.393 . S
C1047 C1046 1.391 . S
H1048 C1056 0.950 . S
H1049 C1061 0.950 . S
H1050 C1058 0.950 . S
H1051 C1060 0.950 . S
H1052 C1062 0.950 . S
H1053 C1064 0.950 . S
H1054 C1066 0.950 . S
H1055 C1067 0.950 . S
C1056 H1048 0.950 . S
C1056 C1057 1.386 . S
C1056 C1058 1.391 . S
C1057 C1056 1.386 . S
C1057 C1061 1.393 . S
C1058 H1050 0.950 . S
C1058 C1056 1.391 . S
C1058 C1059 1.400 . S
C1059 C1058 1.400 . S
C1059 C1060 1.398 . S
C1059 C1065 1.491 . S
C1060 H1051 0.950 . S
C1060 C1059 1.398 . S
C1060 C1061 1.391 . S
C1061 H1049 0.950 . S
C1061 C1057 1.393 . S
C1061 C1060 1.391 . S
C1062 H1052 0.950 . S
C1062 C1063 1.386 . S
C1062 C1064 1.391 . S
C1063 C1062 1.386 . S
C1063 C1067 1.393 . S
C1064 H1053 0.950 . S
C1064 C1062 1.391 . S
C1064 C1065 1.400 . S
C1065 C1059 1.491 . S
C1065 C1064 1.400 . S
C1065 C1066 1.398 . S
C1066 H1054 0.950 . S
C1066 C1065 1.398 . S
C1066 C1067 1.391 . S
C1067 H1055 0.950 . S
C1067 C1063 1.393 . S
C1067 C1066 1.391 . S
H1068 C1076 0.950 . S
H1069 C1081 0.950 . S
H1070 C1078 0.950 . S
H1071 C1080 0.950 . S
H1072 C1082 0.950 . S
H1073 C1084 0.950 . S
H1074 C1086 0.950 . S
H1075 C1087 0.950 . S
C1076 H1068 0.950 . S
C1076 C1077 1.386 . S
C1076 C1078 1.391 . S
C1077 C1076 1.386 . S
C1077 C1081 1.393 . S
C1078 H1070 0.950 . S
C1078 C1076 1.391 . S
C1078 C1079 1.400 . S
C1079 C1078 1.400 . S
C1079 C1080 1.398 . S
C1079 C1085 1.491 . S
C1080 H1071 0.950 . S
C1080 C1079 1.398 . S
C1080 C1081 1.391 . S
C1081 H1069 0.950 . S
C1081 C1077 1.393 . S
C1081 C1080 1.391 . S
C1082 H1072 0.950 . S
C1082 C1083 1.386 . S
C1082 C1084 1.391 . S
C1083 C1082 1.386 . S
C1083 C1087 1.393 . S
C1084 H1073 0.950 . S
C1084 C1082 1.391 . S
C1084 C1085 1.400 . S
C1085 C1079 1.491 . S
C1085 C1084 1.400 . S
C1085 C1086 1.398 . S
C1086 H1074 0.950 . S
C1086 C1085 1.398 . S
C1086 C1087 1.391 . S
C1087 H1075 0.950 . S
C1087 C1083 1.393 . S
C1087 C1086 1.391 . S
H1088 C1096 0.950 . S
H1089 C1101 0.950 . S
H1090 C1098 0.950 . S
H1091 C1100 0.950 . S
H1092 C1102 0.950 . S
H1093 C1104 0.950 . S
H1094 C1106 0.950 . S
H1095 C1107 0.950 . S
C1096 H1088 0.950 . S
C1096 C1097 1.386 . S
C1096 C1098 1.391 . S
C1097 C1096 1.386 . S
C1097 C1101 1.393 . S
C1098 H1090 0.950 . S
C1098 C1096 1.391 . S
C1098 C1099 1.400 . S
C1099 C1098 1.400 . S
C1099 C1100 1.398 . S
C1099 C1105 1.491 . S
C1100 H1091 0.950 . S
C1100 C1099 1.398 . S
C1100 C1101 1.391 . S
C1101 H1089 0.950 . S
C1101 C1097 1.393 . S
C1101 C1100 1.391 . S
C1102 H1092 0.950 . S
C1102 C1103 1.386 . S
C1102 C1104 1.391 . S
C1103 C1102 1.386 . S
C1103 C1107 1.393 . S
C1104 H1093 0.950 . S
C1104 C1102 1.391 . S
C1104 C1105 1.400 . S
C1105 C1099 1.491 . S
C1105 C1104 1.400 . S
C1105 C1106 1.398 . S
C1106 H1094 0.950 . S
C1106 C1105 1.398 . S
C1106 C1107 1.391 . S
C1107 H1095 0.950 . S
C1107 C1103 1.393 . S
C1107 C1106 1.391 . S
H1108 C1116 0.950 . S
H1109 C1121 0.950 . S
H1110 C1118 0.950 . S
H1111 C1120 0.950 . S
H1112 C1122 0.950 . S
H1113 C1124 0.950 . S
H1114 C1126 0.950 . S
H1115 C1127 0.950 . S
C1116 H1108 0.950 . S
C1116 C1117 1.386 . S
C1116 C1118 1.391 . S
C1117 C1116 1.386 . S
C1117 C1121 1.393 . S
C1118 H1110 0.950 . S
C1118 C1116 1.391 . S
C1118 C1119 1.400 . S
C1119 C1118 1.400 . S
C1119 C1120 1.398 . S
C1119 C1125 1.491 . S
C1120 H1111 0.950 . S
C1120 C1119 1.398 . S
C1120 C1121 1.391 . S
C1121 H1109 0.950 . S
C1121 C1117 1.393 . S
C1121 C1120 1.391 . S
C1122 H1112 0.950 . S
C1122 C1123 1.386 . S
C1122 C1124 1.391 . S
C1123 C1122 1.386 . S
C1123 C1127 1.393 . S
C1124 H1113 0.950 . S
C1124 C1122 1.391 . S
C1124 C1125 1.400 . S
C1125 C1119 1.491 . S
C1125 C1124 1.400 . S
C1125 C1126 1.398 . S
C1126 H1114 0.950 . S
C1126 C1125 1.398 . S
C1126 C1127 1.391 . S
C1127 H1115 0.950 . S
C1127 C1123 1.393 . S
C1127 C1126 1.391 . S
H1128 C1136 0.950 . S
H1129 C1141 0.950 . S
H1130 C1138 0.950 . S
H1131 C1140 0.950 . S
H1132 C1142 0.950 . S
H1133 C1144 0.950 . S
H1134 C1146 0.950 . S
H1135 C1147 0.950 . S
C1136 H1128 0.950 . S
C1136 C1137 1.386 . S
C1136 C1138 1.391 . S
C1137 C1136 1.386 . S
C1137 C1141 1.393 . S
C1138 H1130 0.950 . S
C1138 C1136 1.391 . S
C1138 C1139 1.400 . S
C1139 C1138 1.400 . S
C1139 C1140 1.398 . S
C1139 C1145 1.491 . S
C1140 H1131 0.950 . S
C1140 C1139 1.398 . S
C1140 C1141 1.391 . S
C1141 H1129 0.950 . S
C1141 C1137 1.393 . S
C1141 C1140 1.391 . S
C1142 H1132 0.950 . S
C1142 C1143 1.386 . S
C1142 C1144 1.391 . S
C1143 C1142 1.386 . S
C1143 C1147 1.393 . S
C1144 H1133 0.950 . S
C1144 C1142 1.391 . S
C1144 C1145 1.400 . S
C1145 C1139 1.491 . S
C1145 C1144 1.400 . S
C1145 C1146 1.398 . S
C1146 H1134 0.950 . S
C1146 C1145 1.398 . S
C1146 C1147 1.391 . S
C1147 H1135 0.950 . S
C1147 C1143 1.393 . S
C1147 C1146 1.391 . S
H1148 C1156 0.950 . S
H1149 C1161 0.950 . S
H1150 C1158 0.950 . S
H1151 C1160 0.950 . S
H1152 C1162 0.950 . S
H1153 C1164 0.950 . S
H1154 C1166 0.950 . S
H1155 C1167 0.950 . S
C1156 H1148 0.950 . S
C1156 C1157 1.386 . S
C1156 C1158 1.391 . S
C1157 C1156 1.386 . S
C1157 C1161 1.393 . S
C1158 H1150 0.950 . S
C1158 C1156 1.391 . S
C1158 C1159 1.400 . S
C1159 C1158 1.400 . S
C1159 C1160 1.398 . S
C1159 C1165 1.491 . S
C1160 H1151 0.950 . S
C1160 C1159 1.398 . S
C1160 C1161 1.391 . S
C1161 H1149 0.950 . S
C1161 C1157 1.393 . S
C1161 C1160 1.391 . S
C1162 H1152 0.950 . S
C1162 C1163 1.386 . S
C1162 C1164 1.391 . S
C1163 C1162 1.386 . S
C1163 C1167 1.393 . S
C1164 H1153 0.950 . S
C1164 C1162 1.391 . S
C1164 C1165 1.400 . S
C1165 C1159 1.491 . S
C1165 C1164 1.400 . S
C1165 C1166 1.398 . S
C1166 H1154 0.950 . S
C1166 C1165 1.398 . S
C1166 C1167 1.391 . S
C1167 H1155 0.950 . S
C1167 C1163 1.393 . S
C1167 C1166 1.391 . S
H1168 C1176 0.950 . S
H1169 C1181 0.950 . S
H1170 C1178 0.950 . S
H1171 C1180 0.950 . S
H1172 C1182 0.950 . S
H1173 C1184 0.950 . S
H1174 C1186 0.950 . S
H1175 C1187 0.950 . S
C1176 H1168 0.950 . S
C1176 C1177 1.386 . S
C1176 C1178 1.391 . S
C1177 C1176 1.386 . S
C1177 C1181 1.393 . S
C1178 H1170 0.950 . S
C1178 C1176 1.391 . S
C1178 C1179 1.400 . S
C1179 C1178 1.400 . S
C1179 C1180 1.398 . S
C1179 C1185 1.491 . S
C1180 H1171 0.950 . S
C1180 C1179 1.398 . S
C1180 C1181 1.391 . S
C1181 H1169 0.950 . S
C1181 C1177 1.393 . S
C1181 C1180 1.391 . S
C1182 H1172 0.950 . S
C1182 C1183 1.386 . S
C1182 C1184 1.391 . S
C1183 C1182 1.386 . S
C1183 C1187 1.393 . S
C1184 H1173 0.950 . S
C1184 C1182 1.391 . S
C1184 C1185 1.400 . S
C1185 C1179 1.491 . S
C1185 C1184 1.400 . S
C1185 C1186 1.398 . S
C1186 H1174 0.950 . S
C1186 C1185 1.398 . S
C1186 C1187 1.391 . S
C1187 H1175 0.950 . S
C1187 C1183 1.393 . S
C1187 C1186 1.391 . S
H1188 C1196 0.950 . S
H1189 C1201 0.950 . S
H1190 C1198 0.950 . S
H1191 C1200 0.950 . S
H1192 C1202 0.950 . S
H1193 C1204 0.950 . S
H1194 C1206 0.950 . S
H1195 C1207 0.950 . S
C1196 H1188 0.950 . S
C1196 C1197 1.386 . S
C1196 C1198 1.391 . S
C1197 C1196 1.386 . S
C1197 C1201 1.393 . S
C1198 H1190 0.950 . S
C1198 C1196 1.391 . S
C1198 C1199 1.400 . S
C1199 C1198 1.400 . S
C1199 C1200 1.398 . S
C1199 C1205 1.491 . S
C1200 H1191 0.950 . S
C1200 C1199 1.398 . S
C1200 C1201 1.391 . S
C1201 H1189 0.950 . S
C1201 C1197 1.393 . S
C1201 C1200 1.391 . S
C1202 H1192 0.950 . S
C1202 C1203 1.386 . S
C1202 C1204 1.391 . S
C1203 C1202 1.386 . S
C1203 C1207 1.393 . S
C1204 H1193 0.950 . S
C1204 C1202 1.391 . S
C1204 C1205 1.400 . S
C1205 C1199 1.491 . S
C1205 C1204 1.400 . S
C1205 C1206 1.398 . S
C1206 H1194 0.950 . S
C1206 C1205 1.398 . S
C1206 C1207 1.391 . S
C1207 H1195 0.950 . S
C1207 C1203 1.393 . S
C1207 C1206 1.391 . S
H1208 C1216 0.950 . S
H1209 C1221 0.950 . S
H1210 C1218 0.950 . S
H1211 C1220 0.950 . S
H1212 C1222 0.950 . S
H1213 C1224 0.950 . S
H1214 C1226 0.950 . S
H1215 C1227 0.950 . S
C1216 H1208 0.950 . S
C1216 C1217 1.386 . S
C1216 C1218 1.391 . S
C1217 C1216 1.386 . S
C1217 C1221 1.393 . S
C1218 H1210 0.950 . S
C1218 C1216 1.391 . S
C1218 C1219 1.400 . S
C1219 C1218 1.400 . S
C1219 C1220 1.398 . S
C1219 C1225 1.491 . S
C1220 H1211 0.950 . S
C1220 C1219 1.398 . S
C1220 C1221 1.391 . S
C1221 H1209 0.950 . S
C1221 C1217 1.393 . S
C1221 C1220 1.391 . S
C1222 H1212 0.950 . S
C1222 C1223 1.386 . S
C1222 C1224 1.391 . S
C1223 C1222 1.386 . S
C1223 C1227 1.393 . S
C1224 H1213 0.950 . S
C1224 C1222 1.391 . S
C1224 C1225 1.400 . S
C1225 C1219 1.491 . S
C1225 C1224 1.400 . S
C1225 C1226 1.398 . S
C1226 H1214 0.950 . S
C1226 C1225 1.398 . S
C1226 C1227 1.391 . S
C1227 H1215 0.950 . S
C1227 C1223 1.393 . S
C1227 C1226 1.391 . S
H1228 C1236 0.950 . S
H1229 C1241 0.950 . S
H1230 C1238 0.950 . S
H1231 C1240 0.950 . S
H1232 C1242 0.950 . S
H1233 C1244 0.950 . S
H1234 C1246 0.950 . S
H1235 C1247 0.950 . S
C1236 H1228 0.950 . S
C1236 C1237 1.386 . S
C1236 C1238 1.391 . S
C1237 C1236 1.386 . S
C1237 C1241 1.393 . S
C1238 H1230 0.950 . S
C1238 C1236 1.391 . S
C1238 C1239 1.400 . S
C1239 C1238 1.400 . S
C1239 C1240 1.398 . S
C1239 C1245 1.491 . S
C1240 H1231 0.950 . S
C1240 C1239 1.398 . S
C1240 C1241 1.391 . S
C1241 H1229 0.950 . S
C1241 C1237 1.393 . S
C1241 C1240 1.391 . S
C1242 H1232 0.950 . S
C1242 C1243 1.386 . S
C1242 C1244 1.391 . S
C1243 C1242 1.386 . S
C1243 C1247 1.393 . S
C1244 H1233 0.950 . S
C1244 C1242 1.391 . S
C1244 C1245 1.400 . S
C1245 C1239 1.491 . S
C1245 C1244 1.400 . S
C1245 C1246 1.398 . S
C1246 H1234 0.950 . S
C1246 C1245 1.398 . S
C1246 C1247 1.391 . S
C1247 H1235 0.950 . S
C1247 C1243 1.393 . S
C1247 C1246 1.391 . S
H1248 C1256 0.950 . S
H1249 C1261 0.950 . S
H1250 C1258 0.950 . S
H1251 C1260 0.950 . S
H1252 C1262 0.950 . S
H1253 C1264 0.950 . S
H1254 C1266 0.950 . S
H1255 C1267 0.950 . S
C1256 H1248 0.950 . S
C1256 C1257 1.386 . S
C1256 C1258 1.391 . S
C1257 C1256 1.386 . S
C1257 C1261 1.393 . S
C1258 H1250 0.950 . S
C1258 C1256 1.391 . S
C1258 C1259 1.400 . S
C1259 C1258 1.400 . S
C1259 C1260 1.398 . S
C1259 C1265 1.491 . S
C1260 H1251 0.950 . S
C1260 C1259 1.398 . S
C1260 C1261 1.391 . S
C1261 H1249 0.950 . S
C1261 C1257 1.393 . S
C1261 C1260 1.391 . S
C1262 H1252 0.950 . S
C1262 C1263 1.386 . S
C1262 C1264 1.391 . S
C1263 C1262 1.386 . S
C1263 C1267 1.393 . S
C1264 H1253 0.950 . S
C1264 C1262 1.391 . S
C1264 C1265 1.400 . S
C1265 C1259 1.491 . S
C1265 C1264 1.400 . S
C1265 C1266 1.398 . S
C1266 H1254 0.950 . S
C1266 C1265 1.398 . S
C1266 C1267 1.391 . S
C1267 H1255 0.950 . S
C1267 C1263 1.393 . S
C1267 C1266 1.391 . S
H1268 C1276 0.950 . S
H1269 C1281 0.950 . S
H1270 C1278 0.950 . S
H1271 C1280 0.950 . S
H1272 C1282 0.950 . S
H1273 C1284 0.950 . S
H1274 C1286 0.950 . S
H1275 C1287 0.950 . S
C1276 H1268 0.950 . S
C1276 C1277 1.386 . S
C1276 C1278 1.391 . S
C1277 C1276 1.386 . S
C1277 C1281 1.393 . S
C1278 H1270 0.950 . S
C1278 C1276 1.391 . S
C1278 C1279 1.400 . S
C1279 C1278 1.400 . S
C1279 C1280 1.398 . S
C1279 C1285 1.491 . S
C1280 H1271 0.950 . S
C1280 C1279 1.398 . S
C1280 C1281 1.391 . S
C1281 H1269 0.950 . S
C1281 C1277 1.393 . S
C1281 C1280 1.391 . S
C1282 H1272 0.950 . S
C1282 C1283 1.386 . S
C1282 C1284 1.391 . S
C1283 C1282 1.386 . S
C1283 C1287 1.393 . S
C1284 H1273 0.950 . S
C1284 C1282 1.391 . S
C1284 C1285 1.400 . S
C1285 C1279 1.491 . S
C1285 C1284 1.400 . S
C1285 C1286 1.398 . S
C1286 H1274 0.950 . S
C1286 C1285 1.398 . S
C1286 C1287 1.391 . S
C1287 H1275 0.950 . S
C1287 C1283 1.393 . S
C1287 C1286 1.391 . S
H1288 C1296 0.950 . S
H1289 C1301 0.950 . S
H1290 C1298 0.950 . S
H1291 C1300 0.950 . S
H1292 C1302 0.950 . S
H1293 C1304 0.950 . S
H1294 C1306 0.950 . S
H1295 C1307 0.950 . S
C1296 H1288 0.950 . S
C1296 C1297 1.386 . S
C1296 C1298 1.391 . S
C1297 C1296 1.386 . S
C1297 C1301 1.393 . S
C1298 H1290 0.950 . S
C1298 C1296 1.391 . S
C1298 C1299 1.400 . S
C1299 C1298 1.400 . S
C1299 C1300 1.398 . S
C1299 C1305 1.491 . S
C1300 H1291 0.950 . S
C1300 C1299 1.398 . S
C1300 C1301 1.391 . S
C1301 H1289 0.950 . S
C1301 C1297 1.393 . S
C1301 C1300 1.391 . S
C1302 H1292 0.950 . S
C1302 C1303 1.386 . S
C1302 C1304 1.391 . S
C1303 C1302 1.386 . S
C1303 C1307 1.393 . S
C1304 H1293 0.950 . S
C1304 C1302 1.391 . S
C1304 C1305 1.400 . S
C1305 C1299 1.491 . S
C1305 C1304 1.400 . S
C1305 C1306 1.398 . S
C1306 H1294 0.950 . S
C1306 C1305 1.398 . S
C1306 C1307 1.391 . S
C1307 H1295 0.950 . S
C1307 C1303 1.393 . S
C1307 C1306 1.391 . S
H1308 C1316 0.950 . S
H1309 C1321 0.950 . S
H1310 C1318 0.950 . S
H1311 C1320 0.950 . S
H1312 C1322 0.950 . S
H1313 C1324 0.950 . S
H1314 C1326 0.950 . S
H1315 C1327 0.950 . S
C1316 H1308 0.950 . S
C1316 C1317 1.386 . S
C1316 C1318 1.391 . S
C1317 C1316 1.386 . S
C1317 C1321 1.393 . S
C1318 H1310 0.950 . S
C1318 C1316 1.391 . S
C1318 C1319 1.400 . S
C1319 C1318 1.400 . S
C1319 C1320 1.398 . S
C1319 C1325 1.491 . S
C1320 H1311 0.950 . S
C1320 C1319 1.398 . S
C1320 C1321 1.391 . S
C1321 H1309 0.950 . S
C1321 C1317 1.393 . S
C1321 C1320 1.391 . S
C1322 H1312 0.950 . S
C1322 C1323 1.386 . S
C1322 C1324 1.391 . S
C1323 C1322 1.386 . S
C1323 C1327 1.393 . S
C1324 H1313 0.950 . S
C1324 C1322 1.391 . S
C1324 C1325 1.400 . S
C1325 C1319 1.491 . S
C1325 C1324 1.400 . S
C1325 C1326 1.398 . S
C1326 H1314 0.950 . S
C1326 C1325 1.398 . S
C1326 C1327 1.391 . S
C1327 H1315 0.950 . S
C1327 C1323 1.393 . S
C1327 C1326 1.391 . S
C537 N5 1.813 . S
C543 N236 1.816 . S
C557 N137 1.814 . S
C563 N38 1.814 . S
C577 N170 1.813 . S
C583 N71 1.816 . S
C597 N203 1.813 . S
C603 N104 1.817 . S
C617 N269 1.814 . S
C623 N500 1.816 . S
C637 N302 1.813 . S
C643 N401 1.815 . S
C657 N434 1.813 . S
C663 N335 1.816 . S
C677 N368 1.814 . S
C683 N467 1.815 . S
C697 N14 1.614 . S
C703 N344 1.624 . S
C717 N377 1.619 . S
C723 N47 1.619 . S
C737 N278 1.607 . S
C743 N80 1.631 . S
C757 N311 1.620 . S
C763 N113 1.618 . S
C777 N476 1.632 . S
C783 N146 1.606 . S
C797 N509 1.616 . S
C803 N179 1.623 . S
C817 N410 1.606 . S
C823 N212 1.632 . S
C837 N443 1.606 . S
C843 N245 1.632 . S
C857 C17 0.804 . S
C863 C83 0.813 . S
C877 C116 0.798 . S
C883 C50 0.785 . S
C897 C215 0.765 . S
C903 C149 0.767 . S
C917 C248 0.797 . S
C923 C182 0.809 . S
C937 C281 0.789 . S
C943 C347 0.776 . S
C957 C380 0.767 . S
C963 C314 0.775 . S
C977 C413 0.801 . S
C983 C479 0.788 . S
C997 C446 0.765 . S
C1003 C512 0.769 . S
C1017 C470 1.740 . S
C1023 C28 1.854 . S
C1037 C61 1.857 . S
C1043 C503 1.743 . S
C1057 C404 1.739 . S
C1063 C94 1.854 . S
C1077 C437 1.718 . S
C1083 C127 1.846 . S
C1097 C338 1.715 1_655 S
C1103 C160 1.844 . S
C1117 C193 1.860 . S
C1123 C371 1.744 1_565 S
C1137 C272 1.716 1_455 S
C1143 C226 1.843 . S
C1157 C259 1.847 . S
C1163 C305 1.720 1_545 S
C1177 C206 1.720 . S
C1183 C292 1.844 . S
C1197 C239 1.717 . S
C1203 C325 1.845 . S
C1217 C140 1.715 . S
C1223 C358 1.843 . S
C1237 C391 1.843 . S
C1243 C173 1.715 . S
C1257 C74 1.746 1_455 S
C1263 C424 1.859 . S
C1277 C457 1.853 . S
C1283 C107 1.737 1_545 S
C1297 C490 1.849 . S
C1303 C8 1.730 1_655 S
C1317 C41 1.715 1_565 S
C1323 C523 1.843 . S
