# Generated by pormake.
# Topology smg, (6)-cn, num edge types: 1
# Building blocks:
#     Node 0, Type 0, BuildingBlock: IZENUY_clean_sbu_0, # of connection points: 6
#     Node 1, Type 0, BuildingBlock: IZENUY_clean_sbu_0, # of connection points: 6
#     Node 2, Type 0, BuildingBlock: IZENUY_clean_sbu_0, # of connection points: 6
#     Node 3, Type 0, BuildingBlock: IZENUY_clean_sbu_0, # of connection points: 6
#     Node 4, Type 0, BuildingBlock: IZENUY_clean_sbu_0, # of connection points: 6
#     Node 5, Type 0, BuildingBlock: IZENUY_clean_sbu_0, # of connection points: 6
#     Node 6, Type 0, BuildingBlock: IZENUY_clean_sbu_0, # of connection points: 6
#     Node 7, Type 0, BuildingBlock: IZENUY_clean_sbu_0, # of connection points: 6
#     Node 8, Type 0, BuildingBlock: IZENUY_clean_sbu_0, # of connection points: 6
#     Node 9, Type 0, BuildingBlock: IZENUY_clean_sbu_0, # of connection points: 6
#     Node 10, Type 0, BuildingBlock: IZENUY_clean_sbu_0, # of connection points: 6
#     Node 11, Type 0, BuildingBlock: IZENUY_clean_sbu_0, # of connection points: 6
#     Node 12, Type 0, BuildingBlock: IZENUY_clean_sbu_0, # of connection points: 6
#     Node 13, Type 0, BuildingBlock: IZENUY_clean_sbu_0, # of connection points: 6
#     Node 14, Type 0, BuildingBlock: IZENUY_clean_sbu_0, # of connection points: 6
#     Node 15, Type 0, BuildingBlock: IZENUY_clean_sbu_0, # of connection points: 6
#     Node 16, Type 0, BuildingBlock: IZENUY_clean_sbu_0, # of connection points: 6
#     Node 17, Type 0, BuildingBlock: IZENUY_clean_sbu_0, # of connection points: 6
#     Edge 18, Type (0, 0), BuildingBlock: XUDNAN_clean_linker_2, # of connection points: 2
#     Edge 19, Type (0, 0), BuildingBlock: XUDNAN_clean_linker_2, # of connection points: 2
#     Edge 20, Type (0, 0), BuildingBlock: XUDNAN_clean_linker_2, # of connection points: 2
#     Edge 21, Type (0, 0), BuildingBlock: XUDNAN_clean_linker_2, # of connection points: 2
#     Edge 22, Type (0, 0), BuildingBlock: XUDNAN_clean_linker_2, # of connection points: 2
#     Edge 23, Type (0, 0), BuildingBlock: XUDNAN_clean_linker_2, # of connection points: 2
#     Edge 24, Type (0, 0), BuildingBlock: XUDNAN_clean_linker_2, # of connection points: 2
#     Edge 25, Type (0, 0), BuildingBlock: XUDNAN_clean_linker_2, # of connection points: 2
#     Edge 26, Type (0, 0), BuildingBlock: XUDNAN_clean_linker_2, # of connection points: 2
#     Edge 27, Type (0, 0), BuildingBlock: XUDNAN_clean_linker_2, # of connection points: 2
#     Edge 28, Type (0, 0), BuildingBlock: XUDNAN_clean_linker_2, # of connection points: 2
#     Edge 29, Type (0, 0), BuildingBlock: XUDNAN_clean_linker_2, # of connection points: 2
#     Edge 30, Type (0, 0), BuildingBlock: XUDNAN_clean_linker_2, # of connection points: 2
#     Edge 31, Type (0, 0), BuildingBlock: XUDNAN_clean_linker_2, # of connection points: 2
#     Edge 32, Type (0, 0), BuildingBlock: XUDNAN_clean_linker_2, # of connection points: 2
#     Edge 33, Type (0, 0), BuildingBlock: XUDNAN_clean_linker_2, # of connection points: 2
#     Edge 34, Type (0, 0), BuildingBlock: XUDNAN_clean_linker_2, # of connection points: 2
#     Edge 35, Type (0, 0), BuildingBlock: XUDNAN_clean_linker_2, # of connection points: 2
#     Edge 36, Type (0, 0), BuildingBlock: XUDNAN_clean_linker_2, # of connection points: 2
#     Edge 37, Type (0, 0), BuildingBlock: XUDNAN_clean_linker_2, # of connection points: 2
#     Edge 38, Type (0, 0), BuildingBlock: XUDNAN_clean_linker_2, # of connection points: 2
#     Edge 39, Type (0, 0), BuildingBlock: XUDNAN_clean_linker_2, # of connection points: 2
#     Edge 40, Type (0, 0), BuildingBlock: XUDNAN_clean_linker_2, # of connection points: 2
#     Edge 41, Type (0, 0), BuildingBlock: XUDNAN_clean_linker_2, # of connection points: 2
#     Edge 42, Type (0, 0), BuildingBlock: XUDNAN_clean_linker_2, # of connection points: 2
#     Edge 43, Type (0, 0), BuildingBlock: XUDNAN_clean_linker_2, # of connection points: 2
#     Edge 44, Type (0, 0), BuildingBlock: XUDNAN_clean_linker_2, # of connection points: 2
#     Edge 45, Type (0, 0), BuildingBlock: XUDNAN_clean_linker_2, # of connection points: 2
#     Edge 46, Type (0, 0), BuildingBlock: XUDNAN_clean_linker_2, # of connection points: 2
#     Edge 47, Type (0, 0), BuildingBlock: XUDNAN_clean_linker_2, # of connection points: 2
#     Edge 48, Type (0, 0), BuildingBlock: XUDNAN_clean_linker_2, # of connection points: 2
#     Edge 49, Type (0, 0), BuildingBlock: XUDNAN_clean_linker_2, # of connection points: 2
#     Edge 50, Type (0, 0), BuildingBlock: XUDNAN_clean_linker_2, # of connection points: 2
#     Edge 51, Type (0, 0), BuildingBlock: XUDNAN_clean_linker_2, # of connection points: 2
#     Edge 52, Type (0, 0), BuildingBlock: XUDNAN_clean_linker_2, # of connection points: 2
#     Edge 53, Type (0, 0), BuildingBlock: XUDNAN_clean_linker_2, # of connection points: 2
#     Edge 54, Type (0, 0), BuildingBlock: XUDNAN_clean_linker_2, # of connection points: 2
#     Edge 55, Type (0, 0), BuildingBlock: XUDNAN_clean_linker_2, # of connection points: 2
#     Edge 56, Type (0, 0), BuildingBlock: XUDNAN_clean_linker_2, # of connection points: 2
#     Edge 57, Type (0, 0), BuildingBlock: XUDNAN_clean_linker_2, # of connection points: 2
#     Edge 58, Type (0, 0), BuildingBlock: XUDNAN_clean_linker_2, # of connection points: 2
#     Edge 59, Type (0, 0), BuildingBlock: XUDNAN_clean_linker_2, # of connection points: 2
#     Edge 60, Type (0, 0), BuildingBlock: XUDNAN_clean_linker_2, # of connection points: 2
#     Edge 61, Type (0, 0), BuildingBlock: XUDNAN_clean_linker_2, # of connection points: 2
#     Edge 62, Type (0, 0), BuildingBlock: XUDNAN_clean_linker_2, # of connection points: 2
#     Edge 63, Type (0, 0), BuildingBlock: XUDNAN_clean_linker_2, # of connection points: 2
#     Edge 64, Type (0, 0), BuildingBlock: XUDNAN_clean_linker_2, # of connection points: 2
#     Edge 65, Type (0, 0), BuildingBlock: XUDNAN_clean_linker_2, # of connection points: 2
#     Edge 66, Type (0, 0), BuildingBlock: XUDNAN_clean_linker_2, # of connection points: 2
#     Edge 67, Type (0, 0), BuildingBlock: XUDNAN_clean_linker_2, # of connection points: 2
#     Edge 68, Type (0, 0), BuildingBlock: XUDNAN_clean_linker_2, # of connection points: 2
#     Edge 69, Type (0, 0), BuildingBlock: XUDNAN_clean_linker_2, # of connection points: 2
#     Edge 70, Type (0, 0), BuildingBlock: XUDNAN_clean_linker_2, # of connection points: 2
#     Edge 71, Type (0, 0), BuildingBlock: XUDNAN_clean_linker_2, # of connection points: 2
# Relax obj value: 0.248
# Max RMSD: 0.243
# Mean RMSD: 0.241
data_MOF--net-smg--node1-IZENUY_clean_sbu_0--edge1-XUDNAN_clean_linker_2
_symmetry_space_group_name_H-M    P1
_symmetry_Int_Tables_number       1
_symmetry_cell_setting            triclinic
loop_
_symmetry_equiv_pos_as_xyz
'x, y, z'
_cell_length_a     45.682422
_cell_length_b     45.787088
_cell_length_c     42.327232
_cell_angle_alpha  89.874335
_cell_angle_beta   90.107186
_cell_angle_gamma 120.10214
loop_
_atom_site_label
_atom_site_type_symbol
_atom_site_fract_x
_atom_site_fract_y
_atom_site_fract_z
_atom_type_partial_charge
Fe0 Fe 0.0573 0.60655 0.25207 0.0
Fe1 Fe 0.02368 0.64967 0.24737 0.0
O2 O 0.02173 0.61047 0.24278 0.0
Fe3 Fe 0.98406 0.57528 0.22878 0.0
O4 O 0.97939 0.55238 0.26484 0.0
O5 O 0.03176 0.56212 0.26606 0.0
O6 O 0.05739 0.61905 0.29254 0.0
C7 C 0.0596 0.6466 0.30009 0.0
C8 C 0.03613 0.56842 0.19895 0.0
O9 O 0.05332 0.66358 0.28054 0.0
C10 C 0.98916 0.62514 0.19024 0.0
O11 O 0.08897 0.65028 0.23953 0.0
O12 O 0.0574 0.66939 0.21929 0.0
O13 O 1.0058 0.55536 0.20868 0.0
O14 O 0.05948 0.59402 0.21229 0.0
C15 C 0.9605 0.60858 0.26954 0.0
O16 O 0.99485 0.64317 0.21459 0.0
O17 O 0.98702 0.59665 0.19196 0.0
C18 C 0.08563 0.67116 0.22211 0.0
O19 O 0.98989 0.63205 0.27589 0.0
O20 O 0.95559 0.58879 0.24652 0.0
C21 C 1.00115 0.5457 0.27543 0.0
Fe22 Fe 0.42867 0.46585 0.25845 0.0
Fe23 Fe 0.47033 0.43486 0.2347 0.0
O24 O 0.43068 0.43092 0.2432 0.0
Fe25 Fe 0.39313 0.39231 0.23664 0.0
O26 O 0.3774 0.4118 0.20982 0.0
O27 O 0.38673 0.4536 0.24108 0.0
O28 O 0.44769 0.48986 0.22301 0.0
C29 C 0.47655 0.49688 0.21319 0.0
C30 C 0.38292 0.41476 0.29544 0.0
O31 O 0.49026 0.4801 0.22281 0.0
C32 C 0.43231 0.36828 0.2604 0.0
O33 O 0.47019 0.48461 0.27893 0.0
O34 O 0.48345 0.44488 0.27529 0.0
O35 O 0.37093 0.39692 0.27078 0.0
O36 O 0.40954 0.44325 0.29447 0.0
C37 C 0.43396 0.39897 0.1837 0.0
O38 O 0.45734 0.39024 0.24448 0.0
O39 O 0.40604 0.37027 0.26308 0.0
C40 C 0.48648 0.47063 0.28887 0.0
O41 O 0.4595 0.4251 0.19386 0.0
O42 O 0.40911 0.38086 0.20162 0.0
C43 C 0.37081 0.43418 0.21816 0.0
Fe44 Fe 0.60489 0.04701 0.23728 0.0
Fe45 Fe 0.57185 0.97325 0.25915 0.0
O46 O 0.60827 0.0115 0.24823 0.0
Fe47 Fe 0.64812 0.01395 0.24876 0.0
O48 O 0.66405 0.04694 0.27759 0.0
O49 O 0.64684 0.0786 0.25425 0.0
O50 O 0.58658 0.04769 0.27477 0.0
C51 C 0.55987 0.02333 0.28567 0.0
C52 C 0.65087 0.05091 0.1943 0.0
O53 O 0.54902 0.99352 0.27567 0.0
C54 C 0.61073 0.95152 0.22431 0.0
O55 O 0.5625 0.02121 0.21841 0.0
O56 O 0.55329 0.96912 0.2207 0.0
O57 O 0.66571 0.04382 0.21565 0.0
O58 O 0.62281 0.04895 0.19908 0.0
C59 C 0.61684 0.97915 0.30409 0.0
O60 O 0.58806 0.94565 0.24477 0.0
O61 O 0.63449 0.9811 0.21986 0.0
C62 C 0.54692 0.99062 0.20885 0.0
O63 O 0.58863 0.97636 0.29815 0.0
O64 O 0.63784 0.98458 0.28224 0.0
C65 C 0.66577 0.07498 0.27422 0.0
Fe66 Fe 0.05479 0.46117 0.7597 0.0
Fe67 Fe 0.98596 0.42736 0.72598 0.0
O68 O 0.02086 0.42544 0.74167 0.0
Fe69 Fe 0.02215 0.38766 0.73923 0.0
O70 O 0.05997 0.40785 0.71544 0.0
O71 O 0.0877 0.45039 0.74785 0.0
O72 O 0.06417 0.48496 0.72349 0.0
C73 C 0.04348 0.49035 0.70851 0.0
C74 C 0.04818 0.41218 0.79966 0.0
O75 O 0.01174 0.47234 0.71349 0.0
C76 C 0.95633 0.36263 0.75573 0.0
O77 O 0.02823 0.4785 0.77465 0.0
O78 O 0.97634 0.43851 0.7639 0.0
O79 O 0.04622 0.3948 0.77576 0.0
O80 O 0.04704 0.43897 0.79688 0.0
C81 C 0.99619 0.39143 0.6807 0.0
O82 O 0.95447 0.38251 0.73572 0.0
O83 O 0.98443 0.36557 0.76286 0.0
C84 C 0.99645 0.4645 0.77923 0.0
O85 O 0.99356 0.41677 0.68707 0.0
O86 O 0.99856 0.37362 0.70221 0.0
C87 C 0.08748 0.432 0.72518 0.0
Fe88 Fe 0.65386 0.64549 0.75013 0.0
Fe89 Fe 0.61308 0.57261 0.72692 0.0
O90 O 0.61458 0.60813 0.74509 0.0
Fe91 Fe 0.57691 0.60593 0.75823 0.0
O92 O 0.59211 0.61471 0.79807 0.0
O93 O 0.64258 0.65758 0.78763 0.0
O94 O 0.66996 0.62374 0.77366 0.0
C95 C 0.67416 0.60057 0.763 0.0
C96 C 0.61511 0.67241 0.73208 0.0
O97 O 0.65659 0.58313 0.73958 0.0
C98 C 0.55275 0.57029 0.70429 0.0
O99 O 0.67155 0.64017 0.71294 0.0
O100 O 0.62866 0.59566 0.69065 0.0
O101 O 0.59093 0.6511 0.74937 0.0
O102 O 0.64056 0.66949 0.7272 0.0
C103 C 0.5705 0.54291 0.77623 0.0
O104 O 0.56931 0.55536 0.71052 0.0
O105 O 0.55921 0.59663 0.71905 0.0
C106 C 0.65563 0.62366 0.6886 0.0
O107 O 0.5974 0.54842 0.76278 0.0
O108 O 0.55676 0.56052 0.76956 0.0
C109 C 0.61961 0.63929 0.80708 0.0
Fe110 Fe 0.46648 0.06014 0.72388 0.0
Fe111 Fe 0.39185 0.02262 0.74133 0.0
O112 O 0.4311 0.02426 0.7399 0.0
Fe113 Fe 0.4346 0.98996 0.75456 0.0
O114 O 0.4472 0.98289 0.71633 0.0
O115 O 0.48593 0.036 0.70794 0.0
O116 O 0.44574 0.05378 0.68605 0.0
C117 C 0.41815 0.05324 0.68258 0.0
C118 C 0.4964 0.04822 0.77384 0.0
O119 O 0.39904 0.04852 0.70588 0.0
C120 C 0.3953 0.99542 0.79933 0.0
O121 O 0.45303 0.09058 0.73739 0.0
O122 O 0.40874 0.05847 0.7667 0.0
O123 O 0.47932 0.01667 0.76798 0.0
O124 O 0.48913 0.06837 0.76055 0.0
C125 C 0.37095 0.95881 0.72276 0.0
O126 O 0.37737 0.99677 0.77727 0.0
O127 O 0.42235 0.99558 0.79362 0.0
C128 C 0.43208 0.08727 0.75896 0.0
O129 O 0.37335 0.98663 0.71592 0.0
O130 O 0.39045 0.9573 0.7435 0.0
C131 C 0.47256 1.00476 0.70136 0.0
Fe132 Fe 0.72578 0.94321 0.59659 0.0
Fe133 Fe 0.68977 0.98282 0.58387 0.0
O134 O 0.69013 0.94464 0.5825 0.0
Fe135 Fe 0.65472 0.90812 0.56734 0.0
O136 O 0.64801 0.88646 0.60456 0.0
O137 O 0.70083 0.89869 0.61066 0.0
O138 O 0.7198 0.95512 0.63559 0.0
C139 C 0.7186 0.98137 0.64141 0.0
C140 C 0.71148 0.90435 0.54422 0.0
O141 O 0.71613 0.99868 0.61944 0.0
C142 C 0.66019 0.95546 0.52526 0.0
O143 O 0.75698 0.98773 0.58493 0.0
O144 O 0.72542 1.00261 0.55805 0.0
O145 O 0.68019 0.89005 0.5514 0.0
O146 O 0.73292 0.93067 0.55835 0.0
C147 C 0.62561 0.94047 0.60246 0.0
O148 O 0.66335 0.97402 0.5486 0.0
O149 O 0.65977 0.92799 0.52922 0.0
C150 C 0.75408 0.00691 0.56475 0.0
O151 O 0.65407 0.96477 0.60978 0.0
O152 O 0.62308 0.91997 0.58083 0.0
C153 C 0.66961 0.88127 0.618 0.0
Fe154 Fe 0.14112 0.76617 0.56723 0.0
Fe155 Fe 0.09844 0.79585 0.5912 0.0
O156 O 0.10109 0.76163 0.57506 0.0
Fe157 Fe 0.06362 0.72335 0.5671 0.0
O158 O 0.07566 0.70025 0.59286 0.0
O159 O 0.12839 0.72166 0.57739 0.0
O160 O 0.15369 0.77594 0.60803 0.0
C161 C 0.15628 0.80139 0.62169 0.0
C162 C 0.10585 0.73103 0.51518 0.0
O163 O 0.13999 0.81517 0.61148 0.0
C164 C 0.04146 0.76565 0.55028 0.0
O165 O 0.1603 0.81154 0.55526 0.0
O166 O 0.11697 0.82036 0.55612 0.0
O167 O 0.08023 0.71288 0.53215 0.0
O168 O 0.13131 0.75661 0.52619 0.0
C169 C 0.05302 0.74345 0.62666 0.0
O170 O 0.05648 0.78343 0.57428 0.0
O171 O 0.04863 0.74405 0.54069 0.0
C172 C 0.14564 0.82753 0.54573 0.0
O173 O 0.07959 0.77205 0.62659 0.0
O174 O 0.04092 0.7269 0.60134 0.0
C175 C 0.10252 0.69916 0.59211 0.0
Fe176 Fe 0.24947 0.31911 0.59346 0.0
Fe177 Fe 0.32401 0.36102 0.57699 0.0
O178 O 0.28313 0.35652 0.57724 0.0
Fe179 Fe 0.27774 0.38925 0.56105 0.0
O180 O 0.24707 0.38573 0.59065 0.0
O181 O 0.23804 0.34254 0.62109 0.0
O182 O 0.2763 0.31793 0.62564 0.0
C183 C 0.3037 0.34203 0.63706 0.0
C184 C 0.2189 0.33165 0.54035 0.0
O185 O 0.32587 0.36476 0.61949 0.0
C186 C 0.316 0.37615 0.51679 0.0
O187 O 0.25786 0.29256 0.56576 0.0
O188 O 0.30972 0.31638 0.58053 0.0
O189 O 0.2437 0.36075 0.53448 0.0
O190 O 0.21791 0.31549 0.56495 0.0
C191 C 0.34096 0.42631 0.58811 0.0
O192 O 0.32171 0.35728 0.53454 0.0
O193 O 0.30718 0.39646 0.52802 0.0
C194 C 0.28609 0.29382 0.5648 0.0
O195 O 0.3475 0.40652 0.57366 0.0
O196 O 0.31106 0.42108 0.58723 0.0
C197 C 0.23537 0.36835 0.61558 0.0
Fe198 Fe 0.73714 0.80432 0.09092 0.0
Fe199 Fe 0.70188 0.72804 0.08057 0.0
O200 O 0.70133 0.76624 0.07884 0.0
Fe201 Fe 0.66466 0.766 0.0652 0.0
O202 O 0.65942 0.78136 0.10255 0.0
O203 O 0.71212 0.82287 0.10678 0.0
O204 O 0.73522 0.78791 0.13023 0.0
C205 C 0.73625 0.76148 0.13579 0.0
C206 C 0.71876 0.82765 0.04005 0.0
O207 O 0.7307 0.74025 0.11431 0.0
C208 C 0.66778 0.72281 0.02373 0.0
O209 O 0.76827 0.79215 0.07693 0.0
O210 O 0.73625 0.74357 0.05302 0.0
O211 O 0.68789 0.80933 0.04805 0.0
O212 O 0.74119 0.82314 0.05256 0.0
C213 C 0.63851 0.70576 0.10224 0.0
O214 O 0.67331 0.70882 0.04695 0.0
O215 O 0.66809 0.7503 0.02699 0.0
C216 C 0.7648 0.76917 0.05776 0.0
O217 O 0.66747 0.71037 0.10841 0.0
O218 O 0.6347 0.72283 0.08042 0.0
C219 C 0.68127 0.80835 0.11534 0.0
Fe220 Fe 0.28177 0.9117 0.05665 0.0
Fe221 Fe 0.24062 0.93943 0.09023 0.0
O222 O 0.27948 0.94487 0.07557 0.0
Fe223 Fe 0.31684 0.98467 0.08004 0.0
O224 O 0.34622 0.96887 0.08032 0.0
O225 O 0.31387 0.91436 0.0845 0.0
O226 O 0.25039 0.87862 0.0822 0.0
C227 C 0.23672 0.87938 0.10795 0.0
C228 C 0.3217 0.96958 0.01895 0.0
O229 O 0.23418 0.90467 0.11584 0.0
C230 C 0.26962 1.0032 0.06488 0.0
O231 O 0.24976 0.90586 0.02751 0.0
O232 O 0.21392 0.90982 0.05943 0.0
O233 O 0.32092 0.99054 0.03778 0.0
O234 O 0.3135 0.93989 0.02784 0.0
C235 C 0.28832 0.97468 0.13808 0.0
O236 O 0.24427 0.97368 0.06474 0.0
O237 O 0.29541 0.00911 0.08057 0.0
C238 C 0.22067 0.90156 0.03311 0.0
O239 O 0.26073 0.96761 0.12442 0.0
O240 O 0.31388 0.97959 0.12242 0.0
C241 C 0.34164 0.9409 0.08988 0.0
Fe242 Fe 0.05346 0.34708 0.07219 0.0
Fe243 Fe 0.13085 0.3845 0.06934 0.0
O244 O 0.09214 0.34859 0.07967 0.0
Fe245 Fe 0.09191 0.31361 0.09744 0.0
O246 O 0.07364 0.31954 0.13269 0.0
O247 O 0.03233 0.32122 0.1073 0.0
O248 O 0.06507 0.38307 0.09676 0.0
C249 C 0.09103 0.41159 0.09348 0.0
C250 C 0.0346 0.28287 0.05713 0.0
O251 O 0.11624 0.41508 0.07757 0.0
C252 C 0.13784 0.32866 0.05086 0.0
O253 O 0.06795 0.37292 0.03618 0.0
O254 O 0.11873 0.38027 0.02861 0.0
O255 O 0.04979 0.28174 0.08184 0.0
O256 O 0.03958 0.31078 0.04695 0.0
C257 C 0.15017 0.36944 0.12436 0.0
O258 O 0.15152 0.35962 0.05886 0.0
O259 O 0.11007 0.30677 0.06263 0.0
C260 C 0.09204 0.37808 0.01804 0.0
O261 O 0.14556 0.39071 0.10972 0.0
O262 O 0.13397 0.33857 0.11638 0.0
C263 C 0.04574 0.3189 0.13275 0.0
Fe264 Fe 0.38695 0.27079 0.92167 0.0
Fe265 Fe 0.35502 0.31523 0.91573 0.0
O266 O 0.35222 0.27567 0.91113 0.0
Fe267 Fe 0.3148 0.2415 0.89561 0.0
O268 O 0.3082 0.21709 0.93082 0.0
O269 O 0.36012 0.22601 0.93501 0.0
O270 O 0.38575 0.2828 0.96211 0.0
C271 C 0.38863 0.31068 0.96946 0.0
C272 C 0.36729 0.23465 0.86706 0.0
O273 O 0.38415 0.3284 0.9493 0.0
C274 C 0.32194 0.29276 0.85797 0.0
O275 O 0.4196 0.31466 0.90967 0.0
O276 O 0.38896 0.33409 0.888 0.0
O277 O 0.33659 0.2217 0.87558 0.0
O278 O 0.39048 0.2588 0.88207 0.0
C279 C 0.29141 0.27484 0.93665 0.0
O280 O 0.3269 0.30997 0.88271 0.0
O281 O 0.31949 0.26416 0.85925 0.0
C282 C 0.41675 0.33498 0.89088 0.0
O283 O 0.32083 0.29788 0.9436 0.0
O284 O 0.28651 0.2553 0.91335 0.0
C285 C 0.32872 0.20903 0.94201 0.0
Fe286 Fe 0.76357 0.13744 0.92646 0.0
Fe287 Fe 0.79225 0.09562 0.89711 0.0
O288 O 0.75828 0.09802 0.91441 0.0
Fe289 Fe 0.71837 0.06108 0.91998 0.0
O290 O 0.6942 0.08264 0.91495 0.0
O291 O 0.73118 0.13333 0.89826 0.0
O292 O 0.79574 0.16295 0.89703 0.0
C293 C 0.80313 0.15525 0.87084 0.0
C294 C 0.72492 0.09374 0.97521 0.0
O295 O 0.79769 0.12575 0.86595 0.0
C296 C 0.76341 0.03767 0.93367 0.0
O297 O 0.79594 0.14303 0.9548 0.0
O298 O 0.82467 0.12896 0.9222 0.0
O299 O 0.72146 0.06733 0.96245 0.0
O300 O 0.73297 0.11976 0.95874 0.0
C301 C 0.73502 0.05199 0.86032 0.0
O302 O 0.78983 0.06507 0.92663 0.0
O303 O 0.73467 0.03248 0.92549 0.0
C304 C 0.8221 0.14148 0.94806 0.0
O305 O 0.76512 0.06226 0.86937 0.0
O306 O 0.71342 0.05294 0.87811 0.0
C307 C 0.70149 0.10805 0.89788 0.0
Fe308 Fe 0.98969 0.68296 0.90817 0.0
Fe309 Fe 0.95234 0.71951 0.88781 0.0
O310 O 0.95194 0.68501 0.90692 0.0
Fe311 Fe 0.91478 0.6522 0.9247 0.0
O312 O 0.93848 0.64664 0.95726 0.0
O313 O 0.99126 0.6878 0.95049 0.0
O314 O 0.01899 0.72828 0.90495 0.0
C315 C 0.01548 0.75223 0.91476 0.0
C316 C 0.94177 0.61611 0.89826 0.0
O317 O 0.98696 0.75025 0.91306 0.0
C318 C 0.88951 0.66702 0.86909 0.0
O319 O 0.98861 0.67811 0.86585 0.0
O320 O 0.98133 0.72162 0.85673 0.0
O321 O 0.91642 0.62023 0.8995 0.0
O322 O 0.9688 0.63723 0.91155 0.0
C323 C 0.91181 0.70893 0.94224 0.0
O324 O 0.91776 0.69194 0.86124 0.0
O325 O 0.88523 0.65318 0.89589 0.0
C326 C 0.9873 0.69885 0.84706 0.0
O327 O 0.92333 0.72236 0.91559 0.0
O328 O 0.91013 0.68152 0.95039 0.0
C329 C 0.96733 0.66802 0.96837 0.0
Fe330 Fe 0.34843 0.05726 0.41441 0.0
Fe331 Fe 0.38933 0.1339 0.41025 0.0
O332 O 0.35066 0.09587 0.40558 0.0
Fe333 Fe 0.31422 0.0965 0.39218 0.0
O334 O 0.31196 0.07253 0.35748 0.0
O335 O 0.31737 0.03367 0.38325 0.0
O336 O 0.38019 0.06454 0.38567 0.0
C337 C 0.41007 0.08856 0.38714 0.0
C338 C 0.28773 0.04287 0.43761 0.0
O339 O 0.4168 0.11568 0.40126 0.0
C340 C 0.33996 0.14978 0.43237 0.0
O341 O 0.3792 0.07421 0.44703 0.0
O342 O 0.38972 0.12632 0.45191 0.0
O343 O 0.28345 0.05746 0.41386 0.0
O344 O 0.31663 0.04762 0.44381 0.0
C345 C 0.36834 0.14894 0.35631 0.0
O346 O 0.36894 0.15862 0.42079 0.0
O347 O 0.31489 0.12106 0.42623 0.0
C348 C 0.38742 0.10007 0.46379 0.0
O349 O 0.39034 0.14358 0.36869 0.0
O350 O 0.3386 0.13533 0.36791 0.0
C351 C 0.31102 0.04453 0.35807 0.0
Fe352 Fe 0.91225 0.27794 0.42745 0.0
Fe353 Fe 0.98487 0.31062 0.40301 0.0
O354 O 0.9459 0.27409 0.41152 0.0
Fe355 Fe 0.94031 0.23364 0.40388 0.0
O356 O 0.93188 0.22214 0.44494 0.0
O357 O 0.89355 0.23734 0.44966 0.0
O358 O 0.93662 0.29828 0.46217 0.0
C359 C 0.96549 0.32438 0.46161 0.0
C360 C 0.87829 0.22877 0.38401 0.0
O361 O 0.9826 0.33486 0.43641 0.0
C362 C 0.97336 0.26837 0.35105 0.0
O363 O 0.92476 0.31917 0.40835 0.0
O364 O 0.96518 0.32608 0.37614 0.0
O365 O 0.89446 0.2144 0.39365 0.0
O366 O 0.88655 0.25803 0.39322 0.0
C367 C 1.00827 0.27119 0.42725 0.0
O368 O 0.99394 0.29239 0.36847 0.0
O369 O 0.9481 0.24297 0.36253 0.0
C370 C 0.94327 0.33341 0.38438 0.0
O371 O 1.0072 0.29794 0.42922 0.0
O372 O 0.98523 0.24581 0.41242 0.0
C373 C 0.90728 0.22073 0.45952 0.0
Fe374 Fe 0.7277 0.68834 0.40825 0.0
Fe375 Fe 0.76125 0.64814 0.42939 0.0
O376 O 0.76457 0.68603 0.41507 0.0
Fe377 Fe 0.80501 0.72126 0.40784 0.0
O378 O 0.79534 0.72187 0.36709 0.0
O379 O 0.74467 0.71576 0.3731 0.0
O380 O 0.71106 0.65326 0.38127 0.0
C381 C 0.7036 0.62397 0.38937 0.0
C382 C 0.76822 0.75079 0.43364 0.0
O383 O 0.719 0.61969 0.41225 0.0
C384 C 0.81923 0.69878 0.46112 0.0
O385 O 0.70515 0.66176 0.44267 0.0
O386 O 0.74286 0.65175 0.46546 0.0
O387 O 0.79341 0.75366 0.41829 0.0
O388 O 0.7411 0.72313 0.43468 0.0
C389 C 0.80881 0.66504 0.38424 0.0
O390 O 0.80284 0.66919 0.44977 0.0
O391 O 0.81691 0.72242 0.44863 0.0
C392 C 0.71711 0.65506 0.467 0.0
O393 O 0.77959 0.64345 0.39352 0.0
O394 O 0.82367 0.69501 0.39529 0.0
C395 C 0.76984 0.72179 0.35591 0.0
H396 H 0.0422 0.41003 0.13157 0.0
H397 H 0.13567 0.47962 0.08359 0.0
H398 H 0.12961 0.52755 0.10258 0.0
H399 H 0.99746 0.45384 0.11492 0.0
H400 H 0.97661 0.44429 0.15276 0.0
H401 H 0.98848 0.41576 0.1356 0.0
H402 H 0.02285 0.41975 0.18589 0.0
H403 H 0.01052 0.44778 0.20332 0.0
H404 H 0.0547 0.46066 0.19999 0.0
H405 H 0.11325 0.5676 0.12775 0.0
H406 H 0.09008 0.59678 0.15914 0.0
H407 H 1.00644 0.50014 0.18899 0.0
C408 C 0.06153 0.43531 0.12491 0.0
C409 C 0.08942 0.44104 0.10589 0.0
C410 C 0.11414 0.4746 0.09812 0.0
C411 C 0.11078 0.50191 0.10867 0.0
C412 C 0.08257 0.49515 0.12689 0.0
C413 C 0.05852 0.46263 0.13508 0.0
C414 C 0.03083 0.46188 0.15532 0.0
C415 C 0.99631 0.44281 0.13864 0.0
C416 C 0.02969 0.44663 0.18806 0.0
C417 C 0.04305 0.49922 0.15748 0.0
C418 C 0.0729 0.51799 0.14087 0.0
C419 C 0.08981 0.55312 0.1406 0.0
C420 C 0.07639 0.56944 0.15842 0.0
C421 C 0.04626 0.55069 0.17616 0.0
C422 C 0.02904 0.51511 0.17507 0.0
H423 H 0.54575 0.53618 0.20502 0.0
H424 H 0.45022 0.52737 0.17692 0.0
H425 H 0.48085 0.58004 0.14612 0.0
H426 H 0.5904 0.62583 0.21493 0.0
H427 H 0.62997 0.63222 0.19958 0.0
H428 H 0.60091 0.5929 0.21845 0.0
H429 H 0.59996 0.55963 0.16887 0.0
H430 H 0.62956 0.59865 0.14984 0.0
H431 H 0.58983 0.57038 0.13098 0.0
H432 H 0.52202 0.63414 0.11819 0.0
H433 H 0.57081 0.68507 0.09523 0.0
H434 H 0.63919 0.6594 0.14294 0.0
C435 C 0.5313 0.54514 0.1921 0.0
C436 C 0.49555 0.52753 0.19333 0.0
C437 C 0.47761 0.54043 0.17642 0.0
C438 C 0.49477 0.57035 0.15882 0.0
C439 C 0.52998 0.58737 0.15844 0.0
C440 C 0.54807 0.57526 0.17462 0.0
C441 C 0.58581 0.59879 0.17078 0.0
C442 C 0.60276 0.6133 0.20284 0.0
C443 C 0.60225 0.58079 0.15412 0.0
C444 C 0.58603 0.62585 0.14986 0.0
C445 C 0.55362 0.61881 0.14292 0.0
C446 C 0.54757 0.63996 0.12353 0.0
C447 C 0.57542 0.66887 0.11061 0.0
C448 C 0.6089 0.67643 0.11723 0.0
C449 C 0.61401 0.65461 0.13741 0.0
H450 H 0.51506 0.0245 0.18659 0.0
H451 H 0.51049 0.92749 0.18322 0.0
H452 H 0.4576 0.9038 0.15264 0.0
H453 H 0.42679 0.99215 0.19623 0.0
H454 H 0.42531 0.02349 0.17153 0.0
H455 H 0.46371 0.03346 0.19219 0.0
H456 H 0.49677 0.05016 0.1393 0.0
H457 H 0.45851 0.04054 0.11853 0.0
H458 H 0.48215 0.02044 0.10707 0.0
H459 H 0.40255 0.8893 0.12495 0.0
H460 H 0.35296 0.8874 0.09865 0.0
H461 H 0.39466 0.99387 0.11903 0.0
C462 C 0.50324 0.99843 0.17905 0.0
C463 C 0.51709 0.97796 0.18749 0.0
C464 C 0.50049 0.94382 0.17723 0.0
C465 C 0.47031 0.93 0.15984 0.0
C466 C 0.45692 0.9506 0.15257 0.0
C467 C 0.47305 0.98419 0.16154 0.0
C468 C 0.45319 1.00078 0.15092 0.0
C469 C 0.44157 0.01319 0.17942 0.0
C470 C 0.47389 0.02968 0.12756 0.0
C471 C 0.42345 0.97131 0.13472 0.0
C472 C 0.42582 0.94246 0.13607 0.0
C473 C 0.4006 0.91186 0.12346 0.0
C474 C 0.37248 0.91093 0.10868 0.0
C475 C 0.37011 0.9405 0.1064 0.0
C476 C 0.39593 0.97088 0.11988 0.0
H477 H 0.46473 0.11903 0.34632 0.0
H478 H 0.41324 0.03689 0.41319 0.0
H479 H 0.4494 0.01374 0.39746 0.0
H480 H 0.47084 0.07112 0.2861 0.0
H481 H 0.51241 0.10209 0.27247 0.0
H482 H 0.48611 0.11547 0.29186 0.0
H483 H 0.53322 0.1486 0.33316 0.0
H484 H 0.55989 0.13563 0.31365 0.0
H485 H 0.55069 0.12712 0.35514 0.0
H486 H 0.48405 0.99446 0.36937 0.0
H487 H 0.5202 0.98342 0.33362 0.0
H488 H 0.55191 0.07874 0.28614 0.0
C489 C 0.46206 0.0969 0.35831 0.0
C490 C 0.4365 0.07982 0.38111 0.0
C491 C 0.43287 0.05034 0.39576 0.0
C492 C 0.45326 0.037 0.387 0.0
C493 C 0.4774 0.05354 0.36364 0.0
C494 C 0.4824 0.08313 0.34978 0.0
C495 C 0.50869 0.09436 0.32376 0.0
C496 C 0.4936 0.09583 0.29166 0.0
C497 C 0.53998 0.12845 0.33193 0.0
C498 C 0.51676 0.06597 0.32467 0.0
C499 C 0.49838 0.04271 0.34787 0.0
C500 C 0.49922 0.01285 0.35156 0.0
C501 C 0.51958 0.00666 0.33108 0.0
C502 C 0.53907 0.03039 0.30752 0.0
C503 C 0.53781 0.06053 0.30448 0.0
H504 H 0.02612 0.50208 0.28036 0.0
H505 H 0.94793 0.52067 0.31594 0.0
H506 H 0.92363 0.46785 0.34685 0.0
H507 H 0.97273 0.41307 0.27092 0.0
H508 H 1.00424 0.40263 0.28301 0.0
H509 H 0.01701 0.44289 0.26493 0.0
H510 H 0.05498 0.47385 0.31301 0.0
H511 H 0.04289 0.43372 0.33105 0.0
H512 H 0.03698 0.46453 0.35213 0.0
H513 H 0.90738 0.41257 0.37375 0.0
H514 H 0.90142 0.35953 0.3953 0.0
H515 H 0.98855 0.37588 0.34024 0.0
C516 C 1.00424 0.49527 0.29507 0.0
C517 C 0.98905 0.51558 0.29595 0.0
C518 C 0.95998 0.50547 0.31497 0.0
C519 C 0.94596 0.4755 0.33258 0.0
C520 C 0.96105 0.45565 0.33074 0.0
C521 C 0.98957 0.4651 0.31251 0.0
C522 C 1.00028 0.43872 0.31407 0.0
C523 C 0.99843 0.42342 0.28128 0.0
C524 C 0.03589 0.4536 0.32843 0.0
C525 C 0.97346 0.41315 0.33608 0.0
C526 C 0.9511 0.42338 0.34552 0.0
C527 C 0.92469 0.40422 0.36646 0.0
C528 C 0.92141 0.37408 0.37852 0.0
C529 C 0.94434 0.36333 0.36946 0.0
C530 C 0.97035 0.38308 0.34757 0.0
H531 H 0.5286 0.53879 0.29535 0.0
H532 H 0.5102 0.44193 0.33032 0.0
H533 H 0.56386 0.47045 0.36033 0.0
H534 H 0.61517 0.5727 0.28214 0.0
H535 H 0.62753 0.61515 0.29392 0.0
H536 H 0.58579 0.58791 0.27835 0.0
H537 H 0.55875 0.59656 0.32851 0.0
H538 H 0.60038 0.62451 0.34405 0.0
H539 H 0.57055 0.5885 0.36683 0.0
H540 H 0.62128 0.50939 0.38401 0.0
H541 H 0.67682 0.5562 0.40154 0.0
H542 H 0.65849 0.62689 0.34863 0.0
C543 C 0.53537 0.52374 0.31015 0.0
C544 C 0.51509 0.48824 0.31099 0.0
C545 C 0.52531 0.46922 0.3297 0.0
C546 C 0.55576 0.48517 0.3467 0.0
C547 C 0.57583 0.52013 0.34451 0.0
C548 C 0.56596 0.53922 0.32689 0.0
C549 C 0.59303 0.57615 0.32697 0.0
C550 C 0.60616 0.5887 0.29335 0.0
C551 C 0.57989 0.5977 0.34253 0.0
C552 C 0.61971 0.57478 0.34718 0.0
C553 C 0.6093 0.54232 0.35723 0.0
C554 C 0.62969 0.53496 0.37637 0.0
C555 C 0.66126 0.56167 0.38607 0.0
C556 C 0.67217 0.59523 0.37644 0.0
C557 C 0.65114 0.60155 0.35633 0.0
H558 H 0.99659 0.61423 0.87624 0.0
H559 H 0.88706 0.5545 0.88024 0.0
H560 H 0.88923 0.50816 0.85176 0.0
H561 H 1.00458 0.58932 0.79793 0.0
H562 H 0.04354 0.58993 0.80652 0.0
H563 H 0.03287 0.61737 0.82774 0.0
H564 H 0.03912 0.59262 0.88079 0.0
H565 H 0.04963 0.56495 0.85978 0.0
H566 H 0.0149 0.54768 0.88735 0.0
H567 H 0.90439 0.46818 0.82338 0.0
H568 H 0.92981 0.43963 0.79462 0.0
H569 H 0.02965 0.5271 0.80825 0.0
C570 C 0.97294 0.59129 0.87145 0.0
C571 C 0.94159 0.58777 0.88096 0.0
C572 C 0.91132 0.55767 0.87341 0.0
C573 C 0.91239 0.53126 0.85731 0.0
C574 C 0.94389 0.53559 0.84861 0.0
C575 C 0.97356 0.56509 0.85518 0.0
C576 C 1.00413 0.56429 0.84237 0.0
C577 C 0.02235 0.59185 0.81714 0.0
C578 C 0.02837 0.56757 0.86918 0.0
C579 C 0.98725 0.52938 0.82787 0.0
C580 C 0.9525 0.51319 0.83175 0.0
C581 C 0.93153 0.48074 0.82019 0.0
C582 C 0.94633 0.4647 0.80388 0.0
C583 C 0.98187 0.48102 0.79905 0.0
C584 C 1.00249 0.51374 0.8116 0.0
H585 H 0.5022 0.50006 0.78373 0.0
H586 H 0.60027 0.51741 0.81439 0.0
H587 H 0.57242 0.46503 0.84625 0.0
H588 H 0.457 0.46466 0.85639 0.0
H589 H 0.41894 0.43381 0.83667 0.0
H590 H 0.44693 0.4733 0.81753 0.0
H591 H 0.45102 0.44064 0.76935 0.0
H592 H 0.42344 0.40109 0.78865 0.0
H593 H 0.4646 0.41023 0.77521 0.0
H594 H 0.533 0.41014 0.87552 0.0
H595 H 0.48538 0.35854 0.89945 0.0
H596 H 0.41457 0.37658 0.84628 0.0
C597 C 0.51773 0.49304 0.7975 0.0
C598 C 0.55332 0.51287 0.79688 0.0
C599 C 0.57289 0.50251 0.81465 0.0
C600 C 0.55733 0.4728 0.83276 0.0
C601 C 0.52216 0.45343 0.8325 0.0
C602 C 0.50264 0.46311 0.81521 0.0
C603 C 0.46542 0.43742 0.81815 0.0
C604 C 0.44594 0.45325 0.83309 0.0
C605 C 0.45024 0.4214 0.78593 0.0
C606 C 0.46705 0.41219 0.84019 0.0
C607 C 0.49987 0.42165 0.8483 0.0
C608 C 0.50715 0.4024 0.8692 0.0
C609 C 0.48003 0.37307 0.88259 0.0
C610 C 0.4462 0.36344 0.87493 0.0
C611 C 0.44004 0.38311 0.85291 0.0
H612 H 0.52721 0.01587 0.8024 0.0
H613 H 0.5377 0.11473 0.78843 0.0
H614 H 0.5918 0.14104 0.81697 0.0
H615 H 0.5615 0.0316 0.88139 0.0
H616 H 0.58316 0.00816 0.87606 0.0
H617 H 0.54526 0.99689 0.85391 0.0
H618 H 0.57766 1.00341 0.80171 0.0
H619 H 0.61572 0.01493 0.82374 0.0
H620 H 0.61581 0.04266 0.79341 0.0
H621 H 0.64632 0.15747 0.84577 0.0
H622 H 0.69431 0.16128 0.87684 0.0
H623 H 0.64724 0.05217 0.87393 0.0
C624 C 0.54078 0.043 0.80548 0.0
C625 C 0.52802 0.06307 0.79295 0.0
C626 C 0.54677 0.0986 0.7976 0.0
C627 C 0.5777 0.11394 0.81376 0.0
C628 C 0.58976 0.09356 0.82543 0.0
C629 C 0.57178 0.05884 0.82177 0.0
C630 C 0.59022 0.04277 0.83721 0.0
C631 C 0.56875 0.01842 0.86372 0.0
C632 C 0.60045 0.02489 0.81255 0.0
C633 C 0.62097 0.07382 0.85034 0.0
C634 C 0.62057 0.10296 0.84292 0.0
C635 C 0.64682 0.13478 0.85196 0.0
C636 C 0.67399 0.13678 0.86949 0.0
C637 C 0.67424 0.10708 0.87816 0.0
C638 C 0.64747 0.07534 0.86813 0.0
H639 H 0.62624 0.98261 0.64794 0.0
H640 H 0.55789 0.90127 0.58589 0.0
H641 H 0.51069 0.90939 0.60384 0.0
H642 H 0.56785 0.96683 0.71193 0.0
H643 H 0.58493 0.01119 0.71944 0.0
H644 H 0.6117 0.99638 0.70357 0.0
H645 H 0.62704 0.03799 0.65664 0.0
H646 H 0.59981 0.05247 0.67197 0.0
H647 H 0.59377 0.03622 0.63228 0.0
H648 H 0.4714 0.92784 0.62872 0.0
H649 H 0.44364 0.95399 0.65831 0.0
H650 H 0.54004 0.02613 0.69963 0.0
C651 C 0.60133 0.96608 0.63819 0.0
C652 C 0.59581 0.94122 0.61539 0.0
C653 C 0.56271 0.92032 0.60348 0.0
C654 C 0.53585 0.92491 0.61343 0.0
C655 C 0.54267 0.95058 0.63511 0.0
C656 C 0.57467 0.97069 0.64737 0.0
C657 C 0.57616 0.99745 0.66932 0.0
C658 C 0.58571 0.99266 0.70306 0.0
C659 C 0.60064 0.03313 0.65678 0.0
C660 C 0.5399 0.98954 0.66751 0.0
C661 C 0.52081 0.96222 0.64794 0.0
C662 C 0.48622 0.9494 0.6438 0.0
C663 C 0.47072 0.96448 0.66053 0.0
C664 C 0.48993 0.99247 0.68059 0.0
C665 C 0.52501 1.0054 0.68371 0.0
H666 H 0.01334 0.52674 0.68958 0.0
H667 H 0.1059 0.52276 0.68099 0.0
H668 H 0.13164 0.57534 0.64963 0.0
H669 H 0.0152 0.56049 0.61133 0.0
H670 H 0.99936 0.5872 0.62505 0.0
H671 H 0.98787 0.54831 0.64537 0.0
H672 H 0.01063 0.5814 0.69779 0.0
H673 H 0.0225 0.62037 0.67749 0.0
H674 H 0.05369 0.61584 0.69969 0.0
H675 H 0.14807 0.6303 0.61997 0.0
H676 H 0.15253 0.68144 0.59467 0.0
H677 H 0.04964 0.64881 0.6243 0.0
C678 C 0.03882 0.53665 0.68071 0.0
C679 C 0.0575 0.52052 0.68768 0.0
C680 C 0.09105 0.53469 0.67602 0.0
C681 C 0.10594 0.56457 0.65814 0.0
C682 C 0.08708 0.58022 0.65215 0.0
C683 C 0.05422 0.56668 0.66309 0.0
C684 C 0.03976 0.58895 0.65438 0.0
C685 C 1.00872 0.57011 0.63274 0.0
C686 C 0.03115 0.60243 0.68412 0.0
C687 C 0.06948 0.61695 0.63681 0.0
C688 C 0.09662 0.61166 0.63564 0.0
C689 C 0.12688 0.63463 0.62068 0.0
C690 C 0.12926 0.66364 0.60642 0.0
C691 C 0.10154 0.66933 0.60731 0.0
C692 C 0.07146 0.6455 0.62293 0.0
H693 H 0.39012 0.42115 0.61871 0.0
H694 H 0.35508 0.49179 0.60046 0.0
H695 H 0.40642 0.53683 0.62747 0.0
H696 H 0.42524 0.45357 0.69705 0.0
H697 H 0.45951 0.44525 0.69171 0.0
H698 H 0.41958 0.41919 0.67223 0.0
H699 H 0.4505 0.43215 0.61835 0.0
H700 H 0.49047 0.45871 0.63749 0.0
H701 H 0.47661 0.47541 0.60592 0.0
H702 H 0.4641 0.5746 0.65334 0.0
H703 H 0.51905 0.60076 0.68079 0.0
H704 H 0.51507 0.50404 0.68323 0.0
C705 C 0.39298 0.44604 0.6206 0.0
C706 C 0.36868 0.4531 0.60727 0.0
C707 C 0.37326 0.48584 0.61058 0.0
C708 C 0.40243 0.51151 0.6257 0.0
C709 C 0.42632 0.50374 0.63779 0.0
C710 C 0.42144 0.47154 0.6359 0.0
C711 C 0.45042 0.46926 0.65095 0.0
C712 C 0.43795 0.44542 0.67969 0.0
C713 C 0.46803 0.45823 0.62672 0.0
C714 C 0.47321 0.50558 0.66093 0.0
C715 C 0.45883 0.52506 0.65315 0.0
C716 C 0.4753 0.55944 0.65973 0.0
C717 C 0.50668 0.57409 0.67527 0.0
C718 C 0.52162 0.55454 0.68427 0.0
C719 C 0.50466 0.51983 0.67651 0.0
H720 H 0.71975 0.74858 0.4724 0.0
H721 H 0.81564 0.81911 0.42872 0.0
H722 H 0.81104 0.86671 0.45133 0.0
H723 H 0.67819 0.79471 0.4582 0.0
H724 H 0.65565 0.78323 0.49521 0.0
H725 H 0.66755 0.75521 0.47699 0.0
H726 H 0.69934 0.7554 0.52782 0.0
H727 H 0.68707 0.78295 0.54644 0.0
H728 H 0.73113 0.79505 0.54429 0.0
H729 H 0.7947 0.90632 0.4788 0.0
H730 H 0.76961 0.93426 0.50946 0.0
H731 H 0.68343 0.83653 0.53265 0.0
C732 C 0.74003 0.77397 0.46754 0.0
C733 C 0.76809 0.78006 0.4486 0.0
C734 C 0.79399 0.81379 0.44318 0.0
C735 C 0.79147 0.84092 0.45583 0.0
C736 C 0.76295 0.83378 0.47381 0.0
C737 C 0.73784 0.80103 0.47975 0.0
C738 C 0.70952 0.79963 0.49944 0.0
C739 C 0.67574 0.78217 0.48137 0.0
C740 C 0.70661 0.78224 0.53139 0.0
C741 C 0.72231 0.83688 0.50356 0.0
C742 C 0.75326 0.85623 0.48881 0.0
C743 C 0.77046 0.89135 0.49028 0.0
C744 C 0.75596 0.90698 0.50769 0.0
C745 C 0.7244 0.88756 0.52316 0.0
C746 C 0.70724 0.85207 0.5206 0.0
H747 H 0.29048 0.01022 0.49061 0.0
H748 H 0.22053 0.00797 0.41973 0.0
H749 H 0.1765 0.95237 0.44018 0.0
H750 H 0.26886 0.92628 0.48461 0.0
H751 H 0.27277 0.91998 0.52613 0.0
H752 H 0.29728 0.96141 0.50908 0.0
H753 H 0.27289 0.98552 0.5497 0.0
H754 H 0.24836 0.94435 0.56732 0.0
H755 H 0.22768 0.9667 0.55364 0.0
H756 H 0.14183 0.89515 0.46572 0.0
H757 H 0.11742 0.84236 0.4968 0.0
H758 H 0.21134 0.88073 0.54899 0.0
C759 C 0.26567 0.99849 0.47974 0.0
C760 C 0.25897 0.0136 0.4535 0.0
C761 C 0.22619 0.99718 0.44 0.0
C762 C 0.20114 0.96544 0.45132 0.0
C763 C 0.20928 0.95061 0.47616 0.0
C764 C 0.24063 0.96683 0.49048 0.0
C765 C 0.24361 0.94497 0.51586 0.0
C766 C 0.27234 0.93774 0.50845 0.0
C767 C 0.24841 0.96136 0.54856 0.0
C768 C 0.20927 0.91334 0.51303 0.0
C769 C 0.18975 0.91732 0.49022 0.0
C770 C 0.15689 0.89183 0.4836 0.0
C771 C 0.14334 0.8619 0.50122 0.0
C772 C 0.16271 0.85735 0.52486 0.0
C773 C 0.19629 0.88326 0.53054 0.0
H774 H 0.06756 0.32707 0.44351 0.0
H775 H 0.01866 0.21775 0.44138 0.0
H776 H 0.06944 0.22138 0.46701 0.0
H777 H 0.15308 0.34498 0.42774 0.0
H778 H 0.17166 0.3809 0.45383 0.0
H779 H 0.13244 0.36928 0.43389 0.0
H780 H 0.10379 0.36563 0.48773 0.0
H781 H 0.14288 0.37729 0.50783 0.0
H782 H 0.10488 0.33881 0.51839 0.0
H783 H 0.12428 0.23781 0.49734 0.0
H784 H 0.17797 0.26476 0.52744 0.0
H785 H 0.19094 0.3634 0.50719 0.0
C786 C 0.06739 0.30371 0.4481 0.0
C787 C 0.03892 0.27199 0.44044 0.0
C788 C 0.04013 0.24228 0.44687 0.0
C789 C 0.06886 0.24417 0.46146 0.0
C790 C 0.09624 0.27598 0.46906 0.0
C791 C 0.0957 0.30518 0.46229 0.0
C792 C 0.1276 0.33631 0.47354 0.0
C793 C 0.14736 0.35921 0.44558 0.0
C794 C 0.11928 0.35563 0.49834 0.0
C795 C 0.14635 0.32023 0.48815 0.0
C796 C 0.12785 0.28539 0.48545 0.0
C797 C 0.13908 0.26503 0.4991 0.0
C798 C 0.1696 0.28058 0.51618 0.0
C799 C 0.18887 0.31621 0.51925 0.0
C800 C 0.17723 0.3362 0.50457 0.0
H801 H 0.10849 0.43231 0.66506 0.0
H802 H 0.13386 0.42789 0.76288 0.0
H803 H 0.17604 0.41211 0.74584 0.0
H804 H 0.11206 0.36387 0.63764 0.0
H805 H 0.13155 0.38159 0.60009 0.0
H806 H 0.10657 0.3965 0.61956 0.0
H807 H 0.1564 0.45778 0.61822 0.0
H808 H 0.18158 0.44352 0.5979 0.0
H809 H 0.19689 0.46723 0.63404 0.0
H810 H 0.20888 0.38784 0.71756 0.0
H811 H 0.23675 0.36733 0.68052 0.0
H812 H 0.19303 0.39234 0.60136 0.0
C813 C 0.12391 0.42928 0.68278 0.0
C814 C 0.11845 0.43189 0.71524 0.0
C815 C 0.13835 0.42688 0.73788 0.0
C816 C 0.16206 0.41753 0.72839 0.0
C817 C 0.16603 0.414 0.69615 0.0
C818 C 0.14821 0.42079 0.67367 0.0
C819 C 0.15657 0.41468 0.64058 0.0
C820 C 0.12479 0.38751 0.62348 0.0
C821 C 0.1739 0.44777 0.62157 0.0
C822 C 0.18096 0.40225 0.64786 0.0
C823 C 0.18597 0.40172 0.68004 0.0
C824 C 0.20567 0.38887 0.69232 0.0
C825 C 0.22117 0.377 0.67118 0.0
C826 C 0.21729 0.37855 0.63813 0.0
C827 C 0.19687 0.39133 0.62651 0.0
H828 H 0.66593 0.72177 0.69712 0.0
H829 H 0.56711 0.69276 0.73611 0.0
H830 H 0.57115 0.7445 0.71264 0.0
H831 H 0.70451 0.81041 0.70932 0.0
H832 H 0.72807 0.82098 0.6729 0.0
H833 H 0.71715 0.7821 0.69295 0.0
H834 H 0.68778 0.74831 0.64229 0.0
H835 H 0.69869 0.78703 0.62194 0.0
H836 H 0.65517 0.75365 0.62386 0.0
H837 H 0.58645 0.79947 0.68341 0.0
H838 H 0.61044 0.85145 0.65117 0.0
H839 H 0.69951 0.84347 0.63248 0.0
C840 C 0.6449 0.72597 0.70091 0.0
C841 C 0.61607 0.70296 0.71859 0.0
C842 C 0.58942 0.70991 0.72275 0.0
C843 C 0.59156 0.73925 0.7095 0.0
C844 C 0.6205 0.76127 0.69225 0.0
C845 C 0.64661 0.75479 0.68796 0.0
C846 C 0.67485 0.78179 0.66813 0.0
C847 C 0.70811 0.79989 0.68696 0.0
C848 C 0.67937 0.7668 0.63723 0.0
C849 C 0.66079 0.80492 0.6619 0.0
C850 C 0.62938 0.79265 0.6759 0.0
C851 C 0.61104 0.80926 0.67253 0.0
C852 C 0.62493 0.83879 0.65415 0.0
C853 C 0.65699 0.85168 0.63943 0.0
C854 C 0.67524 0.83461 0.64378 0.0
H855 H 0.20269 0.86833 0.62107 0.0
H856 H 0.17603 0.7746 0.66909 0.0
H857 H 0.22925 0.80375 0.70012 0.0
H858 H 0.29027 0.89418 0.61292 0.0
H859 H 0.30396 0.93836 0.61726 0.0
H860 H 0.26271 0.90983 0.60129 0.0
H861 H 0.23574 0.92918 0.64467 0.0
H862 H 0.27707 0.95725 0.66067 0.0
H863 H 0.24452 0.92592 0.68569 0.0
H864 H 0.28688 0.84425 0.72538 0.0
H865 H 0.342 0.89231 0.743 0.0
H866 H 0.33121 0.95675 0.67417 0.0
C867 C 0.20764 0.85422 0.63878 0.0
C868 C 0.18504 0.81953 0.64342 0.0
C869 C 0.19294 0.80143 0.66576 0.0
C870 C 0.22313 0.81771 0.68328 0.0
C871 C 0.2454 0.85188 0.6776 0.0
C872 C 0.23797 0.86982 0.65578 0.0
C873 C 0.26676 0.90568 0.65254 0.0
C874 C 0.28182 0.91241 0.61902 0.0
C875 C 0.25533 0.93099 0.66144 0.0
C876 C 0.2912 0.90545 0.67652 0.0
C877 C 0.27871 0.87431 0.69077 0.0
C878 C 0.29695 0.86874 0.71427 0.0
C879 C 0.32831 0.89605 0.72399 0.0
C880 C 0.34094 0.92831 0.7101 0.0
C881 C 0.32234 0.9325 0.68549 0.0
H882 H 0.65708 0.95771 0.18022 0.0
H883 H 0.57226 0.88307 0.23547 0.0
H884 H 0.58253 0.83848 0.21466 0.0
H885 H 0.64461 0.90541 0.11182 0.0
H886 H 0.68933 0.92292 0.10542 0.0
H887 H 0.67398 0.94825 0.12343 0.0
H888 H 0.7136 0.95933 0.17119 0.0
H889 H 0.7288 0.93363 0.15366 0.0
H890 H 0.71096 0.92412 0.19283 0.0
H891 H 0.60302 0.80258 0.18872 0.0
H892 H 0.63008 0.77716 0.15738 0.0
H893 H 0.70303 0.87599 0.12103 0.0
C894 C 0.64036 0.93196 0.18783 0.0
C895 C 0.61383 0.92388 0.2096 0.0
C896 C 0.59262 0.88984 0.21878 0.0
C897 C 0.59839 0.86441 0.2072 0.0
C898 C 0.62543 0.87354 0.18653 0.0
C899 C 0.64588 0.90646 0.17674 0.0
C900 C 0.67359 0.90986 0.15476 0.0
C901 C 0.67014 0.92233 0.12191 0.0
C902 C 0.70881 0.93311 0.16898 0.0
C903 C 0.66565 0.87359 0.15375 0.0
C904 C 0.63773 0.85306 0.17219 0.0
C905 C 0.62493 0.81841 0.17432 0.0
C906 C 0.64053 0.80426 0.15655 0.0
C907 C 0.66882 0.82473 0.13715 0.0
C908 C 0.6819 0.85992 0.1362 0.0
H909 H 0.09016 0.73092 0.20692 0.0
H910 H 0.14756 0.67887 0.20517 0.0
H911 H 0.19464 0.72842 0.17817 0.0
H912 H 0.11335 0.76829 0.13196 0.0
H913 H 0.11534 0.80707 0.14365 0.0
H914 H 0.08758 0.7684 0.1641 0.0
H915 H 0.11608 0.79614 0.21733 0.0
H916 H 0.14397 0.83496 0.19703 0.0
H917 H 0.16127 0.81503 0.22154 0.0
H918 H 0.23277 0.78199 0.14679 0.0
H919 H 0.26015 0.83578 0.11696 0.0
H920 H 0.17831 0.85314 0.1426 0.0
C921 C 0.1127 0.72987 0.20109 0.0
C922 C 0.11518 0.70093 0.20796 0.0
C923 C 0.14522 0.70082 0.20018 0.0
C924 C 0.17198 0.7288 0.18482 0.0
C925 C 0.16836 0.75674 0.17801 0.0
C926 C 0.13956 0.75752 0.1863 0.0
C927 C 0.1413 0.79004 0.176 0.0
C928 C 0.11271 0.78302 0.15254 0.0
C929 C 0.14062 0.81023 0.20469 0.0
C930 C 0.17548 0.80748 0.16004 0.0
C931 C 0.19068 0.78785 0.16129 0.0
C932 C 0.22132 0.79773 0.14617 0.0
C933 C 0.23662 0.82824 0.12924 0.0
C934 C 0.2215 0.84872 0.12788 0.0
C935 C 0.19078 0.83835 0.14387 0.0
H936 H 0.19129 0.34261 0.1326 0.0
H937 H 0.17842 0.4266 0.16035 0.0
H938 H 0.23372 0.45289 0.18782 0.0
H939 H 0.23563 0.33972 0.20398 0.0
H940 H 0.26322 0.32988 0.18181 0.0
H941 H 0.22119 0.31644 0.16753 0.0
H942 H 0.24652 0.34683 0.11452 0.0
H943 H 0.28871 0.36109 0.12874 0.0
H944 H 0.27743 0.39126 0.11443 0.0
H945 H 0.29196 0.47098 0.21062 0.0
H946 H 0.3473 0.47846 0.22755 0.0
H947 H 0.32248 0.38415 0.18144 0.0
C948 C 0.19966 0.36604 0.14523 0.0
C949 C 0.18039 0.38234 0.14481 0.0
C950 C 0.19272 0.41357 0.1607 0.0
C951 C 0.22411 0.42872 0.17626 0.0
C952 C 0.243 0.41249 0.17541 0.0
C953 C 0.23114 0.38176 0.16039 0.0
C954 C 0.25705 0.37044 0.1613 0.0
C955 C 0.24346 0.33715 0.17977 0.0
C956 C 0.26809 0.36725 0.12776 0.0
C957 C 0.2854 0.39963 0.17901 0.0
C958 C 0.27683 0.42355 0.18722 0.0
C959 C 0.29895 0.45241 0.20428 0.0
C960 C 0.33037 0.45654 0.21368 0.0
C961 C 0.33945 0.4321 0.20569 0.0
C962 C 0.31665 0.40359 0.18772 0.0
H963 H 0.20645 0.35593 0.04266 0.0
H964 H 0.10877 0.27357 0.01296 0.0
H965 H 0.1371 0.24995 0.98106 0.0
H966 H 0.25033 0.36564 0.96843 0.0
H967 H 0.28922 0.3743 0.98742 0.0
H968 H 0.26108 0.3854 0.00677 0.0
H969 H 0.25948 0.35062 0.05551 0.0
H970 H 0.28687 0.33848 0.03629 0.0
H971 H 0.24628 0.30654 0.05108 0.0
H972 H 0.17601 0.23495 0.95257 0.0
H973 H 0.2232 0.23048 0.92903 0.0
H974 H 0.29493 0.32126 0.97924 0.0
C975 C 0.19112 0.33322 0.02908 0.0
C976 C 0.15549 0.31661 0.03015 0.0
C977 C 0.13617 0.28661 0.0125 0.0
C978 C 0.15199 0.27299 -0.00569 0.0
C979 C 0.18714 0.28953 -0.0058 0.0
C980 C 0.20651 0.31899 0.01108 0.0
C981 C 0.24385 0.33129 0.00747 0.0
C982 C 0.26219 0.36622 0.99156 0.0
C983 C 0.26005 0.33172 0.03949 0.0
C984 C 0.24235 0.3042 0.98595 0.0
C985 C 0.20947 0.28039 0.97845 0.0
C986 C 0.20193 0.2534 0.95832 0.0
C987 C 0.22884 0.25101 0.94511 0.0
C988 C 0.26275 0.27539 0.95227 0.0
C989 C 0.26933 0.302 0.97332 0.0
H990 H 0.68474 0.86189 0.02611 0.0
H991 H 0.7795 0.86378 0.01007 0.0
H992 H 0.80217 0.91842 0.9826 0.0
H993 H 0.68258 0.89969 0.95115 0.0
H994 H 0.66518 0.92374 0.9682 0.0
H995 H 0.65619 0.88425 0.9858 0.0
H996 H 0.67915 0.91456 0.03941 0.0
H997 H 0.68872 0.95425 0.02187 0.0
H998 H 0.72151 0.95021 0.04157 0.0
H999 H 0.81575 0.97469 0.9586 0.0
H1000 H 0.81663 0.02518 0.93597 0.0
H1001 H 0.71318 0.98618 0.9673 0.0
C1002 C 0.71002 0.87349 0.01633 0.0
C1003 C 0.73023 0.85835 0.0202 0.0
C1004 C 0.76346 0.87478 0.00746 0.0
C1005 C 0.77667 0.90595 0.99187 0.0
C1006 C 0.75645 0.92061 0.98916 0.0
C1007 C 0.72373 0.90479 0.00078 0.0
C1008 C 0.70743 0.92611 -0.00506 0.0
C1009 C 0.67599 0.90733 0.97375 0.0
C1010 C 0.69869 0.93692 0.02631 0.0
C1011 C 0.73591 0.95607 0.97792 0.0
C1012 C 0.76414 0.95269 0.9751 0.0
C1013 C 0.79369 0.97753 0.96052 0.0
C1014 C 0.79408 1.00621 0.94789 0.0
C1015 C 0.76497 0.00955 0.94961 0.0
C1016 C 0.73579 0.98425 0.96527 0.0
H1017 H 0.1518 0.86774 0.0431 0.0
H1018 H 0.22717 0.89629 0.96928 0.0
H1019 H 0.18156 0.86701 0.92989 0.0
H1020 H 0.09701 0.78503 0.01437 0.0
H1021 H 0.05861 0.78433 0.0255 0.0
H1022 H 0.09705 0.81013 0.04714 0.0
H1023 H 0.09086 0.86253 0.03628 0.0
H1024 H 0.0526 0.8368 0.01419 0.0
H1025 H 0.08724 0.87357 -0.00387 0.0
H1026 H 0.12832 0.83162 0.89916 0.0
H1027 H 0.07166 0.78905 0.87989 0.0
H1028 H 0.03002 0.78257 0.97317 0.0
C1029 C 0.15872 0.8683 0.01856 0.0
C1030 C 0.19318 0.88466 0.00925 0.0
C1031 C 0.20107 0.88406 0.977 0.0
C1032 C 0.17528 0.86764 0.95443 0.0
C1033 C 0.14164 0.85171 0.96441 0.0
C1034 C 0.13327 0.85165 -0.00425 0.0
C1035 C 0.09522 0.83035 0.00061 0.0
C1036 C 0.08648 0.80071 0.02323 0.0
C1037 C 0.08063 0.85212 0.01251 0.0
C1038 C 0.0835 0.81808 0.96715 0.0
C1039 C 0.11073 0.83109 0.94661 0.0
C1040 C 0.10679 0.82175 0.9149 0.0
C1041 C 0.07449 0.79773 0.9041 0.0
C1042 C 0.04638 0.78337 0.92479 0.0
C1043 C 0.05083 0.7942 0.95659 0.0
H1044 H 0.3432 0.16724 0.85957 0.0
H1045 H 0.41701 0.26559 0.82327 0.0
H1046 H 0.44214 0.23923 0.79023 0.0
H1047 H 0.40024 0.13776 0.86802 0.0
H1048 H 0.37042 0.09475 0.85736 0.0
H1049 H 0.35564 0.12079 0.87485 0.0
H1050 H 0.31569 0.10959 0.82705 0.0
H1051 H 0.33 0.08303 0.8098 0.0
H1052 H 0.33286 0.11801 0.7876 0.0
H1053 H 0.4613 0.20147 0.7633 0.0
H1054 H 0.47092 0.15558 0.74433 0.0
H1055 H 0.38638 0.08407 0.80184 0.0
C1056 C 0.36388 0.18301 0.84382 0.0
C1057 C 0.37778 0.21825 0.84334 0.0
C1058 C 0.40577 0.23838 0.82348 0.0
C1059 C 0.42028 0.22368 0.80478 0.0
C1060 C 0.40675 0.18887 0.80657 0.0
C1061 C 0.37908 0.16883 0.82555 0.0
C1062 C 0.37082 0.13253 0.82517 0.0
C1063 C 0.37452 0.1208 0.85831 0.0
C1064 C 0.33524 0.10943 0.81158 0.0
C1065 C 0.39804 0.13526 0.80308 0.0
C1066 C 0.41853 0.16777 0.79235 0.0
C1067 C 0.44532 0.17585 0.77154 0.0
C1068 C 0.45077 0.14974 0.76102 0.0
C1069 C 0.42964 0.11619 0.77159 0.0
C1070 C 0.40332 0.10935 0.79323 0.0
H1071 H 0.8557 0.21815 0.88273 0.0
H1072 H 0.79304 0.154 0.80664 0.0
H1073 H 0.82207 0.20202 0.76908 0.0
H1074 H 0.86155 0.29575 0.85803 0.0
H1075 H 0.90542 0.32144 0.869 0.0
H1076 H 0.87874 0.2826 0.88977 0.0
H1077 H 0.92023 0.26122 0.87696 0.0
H1078 H 0.94731 0.30027 0.85673 0.0
H1079 H 0.93217 0.26064 0.8365 0.0
H1080 H 0.85734 0.25912 0.74044 0.0
H1081 H 0.90169 0.31572 0.72173 0.0
H1082 H 0.94373 0.33982 0.81618 0.0
C1083 C 0.84808 0.21425 0.85813 0.0
C1084 C 0.82191 0.18257 0.84753 0.0
C1085 C 0.81304 0.17814 0.81514 0.0
C1086 C 0.82922 0.20534 0.79377 0.0
C1087 C 0.85463 0.23654 0.80512 0.0
C1088 C 0.86451 0.24076 0.83647 0.0
C1089 C 0.894 0.2759 0.84252 0.0
C1090 C 0.88433 0.29504 0.86623 0.0
C1091 C 0.92528 0.2744 0.85383 0.0
C1092 C 0.8992 0.29102 0.80974 0.0
C1093 C 0.87588 0.26828 0.78854 0.0
C1094 C 0.87574 0.277 0.75688 0.0
C1095 C 0.90074 0.3093 0.74649 0.0
C1096 C 0.92583 0.33214 0.76759 0.0
C1097 C 0.92461 0.32291 0.79964 0.0
H1098 H 0.82422 0.64755 0.88474 0.0
H1099 H 0.88815 0.6591 0.80469 0.0
H1100 H 0.83811 0.63657 0.76925 0.0
H1101 H 0.74822 0.57168 0.85962 0.0
H1102 H 0.7202 0.58589 0.87352 0.0
H1103 H 0.76033 0.60012 0.89275 0.0
H1104 H 0.77653 0.66239 0.88345 0.0
H1105 H 0.73628 0.64835 0.86465 0.0
H1106 H 0.77485 0.67638 0.84398 0.0
H1107 H 0.77981 0.61203 0.74259 0.0
H1108 H 0.72191 0.59755 0.72612 0.0
H1109 H 0.69785 0.60689 0.82317 0.0
C1110 C 0.8276 0.64503 0.85977 0.0
C1111 C 0.85997 0.65465 0.84746 0.0
C1112 C 0.86355 0.65179 0.81458 0.0
C1113 C 0.83521 0.63878 0.79435 0.0
C1114 C 0.80353 0.62929 0.80728 0.0
C1115 C 0.7998 0.63297 0.8392 0.0
C1116 C 0.7638 0.62394 0.8469 0.0
C1117 C 0.74716 0.5936 0.86954 0.0
C1118 C 0.76282 0.65459 0.86053 0.0
C1119 C 0.74776 0.61467 0.81437 0.0
C1120 C 0.7708 0.61713 0.79187 0.0
C1121 C 0.76164 0.61001 0.76008 0.0
C1122 C 0.72856 0.60142 0.75094 0.0
C1123 C 0.70528 0.60067 0.7734 0.0
C1124 C 0.71498 0.60679 0.80556 0.0
H1125 H 0.85587 0.67786 0.98028 0.0
H1126 H 0.93568 0.77623 0.94964 0.0
H1127 H 0.90982 0.80351 0.9802 0.0
H1128 H 0.79069 0.6962 0.97123 0.0
H1129 H 0.7664 0.67164 0.00469 0.0
H1130 H 0.79377 0.66032 0.98427 0.0
H1131 H 0.82482 0.66405 0.03677 0.0
H1132 H 0.79741 0.67529 0.05741 0.0
H1133 H 0.84266 0.70232 0.05973 0.0
H1134 H 0.87292 0.81988 0.01217 0.0
H1135 H 0.82627 0.82301 0.03923 0.0
H1136 H 0.76975 0.71374 0.04554 0.0
C1137 C 0.86833 0.70516 0.98072 0.0
C1138 C 0.89797 0.725 0.96302 0.0
C1139 C 0.913 0.76062 0.96326 0.0
C1140 C 0.89858 0.77634 0.98062 0.0
C1141 C 0.8689 0.75606 -0.00263 0.0
C1142 C 0.85387 0.7212 -0.00262 0.0
C1143 C 0.82038 0.70494 0.01461 0.0
C1144 C 0.7911 0.68193 0.99237 0.0
C1145 C 0.8214 0.68551 0.04387 0.0
C1146 C 0.81868 0.73597 0.02388 0.0
C1147 C 0.84709 0.76532 0.0143 0.0
C1148 C 0.8506 0.79703 0.01989 0.0
C1149 C 0.82411 0.79864 0.03529 0.0
C1150 C 0.79439 0.76868 0.04423 0.0
C1151 C 0.79207 0.73712 0.03874 0.0
H1152 H 0.3619 0.18002 0.9729 0.0
H1153 H 0.26182 0.16474 0.95281 0.0
H1154 H 0.23595 0.11081 0.98122 0.0
H1155 H 0.33945 0.09215 0.96547 0.0
H1156 H 0.36651 0.0945 -0.00241 0.0
H1157 H 0.37698 0.13164 0.97467 0.0
H1158 H 0.37893 0.16298 0.02649 0.0
H1159 H 0.36773 0.12544 0.0491 0.0
H1160 H 0.34235 0.14534 0.0519 0.0
H1161 H 0.21998 0.05698 0.01056 0.0
H1162 H 0.21631 0.0093 0.04179 0.0
H1163 H 0.326 0.06027 0.04494 0.0
C1164 C 0.33459 0.16537 0.97451 0.0
C1165 C 0.31412 0.17691 0.96039 0.0
C1166 C 0.27835 0.15678 0.96328 0.0
C1167 C 0.26321 0.12588 0.97937 0.0
C1168 C 0.28397 0.11517 0.99283 0.0
C1169 C 0.31888 0.13435 0.99082 0.0
C1170 C 0.33524 0.11712 0.00803 0.0
C1171 C 0.35574 0.10832 0.98506 0.0
C1172 C 0.35737 0.13903 0.03551 0.0
C1173 C 0.30411 0.08552 0.01998 0.0
C1174 C 0.27474 0.08466 0.0107 0.0
C1175 C 0.24283 0.05747 0.01823 0.0
C1176 C 0.24093 0.03049 0.03593 0.0
C1177 C 0.27075 0.03124 0.04625 0.0
C1178 C 0.30265 0.05917 0.03797 0.0
H1179 H 0.88705 0.18739 0.93269 0.0
H1180 H 0.82282 0.13071 0.01127 0.0
H1181 H 0.87281 0.15535 0.04681 0.0
H1182 H 0.96302 0.18556 0.95557 0.0
H1183 H 0.99116 0.22862 0.94365 0.0
H1184 H 0.95116 0.20389 0.92383 0.0
H1185 H 0.93486 0.24929 0.93642 0.0
H1186 H 0.97499 0.27436 0.95574 0.0
H1187 H 0.93633 0.26255 0.97674 0.0
H1188 H 0.92999 0.18681 0.07363 0.0
H1189 H 0.98718 0.22983 0.09173 0.0
H1190 H 0.01264 0.26918 -0.00367 0.0
C1191 C 0.88372 0.17998 0.95734 0.0
C1192 C 0.85144 0.15695 0.96939 0.0
C1193 C 0.84756 0.14832 0.0018 0.0
C1194 C 0.87578 0.16193 0.02199 0.0
C1195 C 0.90747 0.18451 0.00938 0.0
C1196 C 0.91142 0.19402 0.97793 0.0
C1197 C 0.94737 0.2214 0.97095 0.0
C1198 C 0.96416 0.20912 0.94709 0.0
C1199 C 0.94844 0.25381 0.95929 0.0
C1200 C 0.96301 0.22605 0.00343 0.0
C1201 C 0.93986 0.20396 0.02513 0.0
C1202 C 0.94837 0.20412 0.05683 0.0
C1203 C 0.98098 0.22839 0.06686 0.0
C1204 C 1.00428 0.25249 0.04532 0.0
C1205 C 0.99537 0.25071 0.01314 0.0
H1206 H 0.28228 0.1424 0.46273 0.0
H1207 H 0.38711 0.21566 0.44088 0.0
H1208 H 0.38153 0.25925 0.46876 0.0
H1209 H 0.25025 0.20212 0.45565 0.0
H1210 H 0.2213 0.18425 0.48834 0.0
H1211 H 0.23192 0.15794 0.46504 0.0
H1212 H 0.25111 0.14027 0.51559 0.0
H1213 H 0.24051 0.16646 0.53903 0.0
H1214 H 0.28259 0.17239 0.54082 0.0
H1215 H 0.36808 0.29355 0.50121 0.0
H1216 H 0.34711 0.31948 0.53762 0.0
H1217 H 0.24846 0.22792 0.53918 0.0
C1218 C 0.30393 0.16769 0.46369 0.0
C1219 C 0.33522 0.17543 0.44951 0.0
C1220 C 0.36294 0.20882 0.45148 0.0
C1221 C 0.36001 0.23395 0.4672 0.0
C1222 C 0.32915 0.22557 0.48093 0.0
C1223 C 0.30146 0.19346 0.47948 0.0
C1224 C 0.27178 0.19182 0.49764 0.0
C1225 C 0.24204 0.18354 0.47533 0.0
C1226 C 0.26086 0.16621 0.52489 0.0
C1227 C 0.28765 0.22788 0.51001 0.0
C1228 C 0.32074 0.24652 0.49966 0.0
C1229 C 0.34204 0.27951 0.50902 0.0
C1230 C 0.3296 0.29404 0.52986 0.0
C1231 C 0.2957 0.27618 0.541 0.0
C1232 C 0.27416 0.24255 0.53058 0.0
H1233 H 0.83929 0.17981 0.46885 0.0
H1234 H 0.93719 0.19825 0.50112 0.0
H1235 H 0.90928 0.1459 0.53307 0.0
H1236 H 0.79149 0.14042 0.54205 0.0
H1237 H 0.75473 0.11029 0.52027 0.0
H1238 H 0.78256 0.15137 0.5037 0.0
H1239 H 0.78972 0.12298 0.45379 0.0
H1240 H 0.76251 0.08182 0.47037 0.0
H1241 H 0.80465 0.09343 0.45778 0.0
H1242 H 0.86987 0.08862 0.55905 0.0
H1243 H 0.82258 0.03339 0.5774 0.0
H1244 H 0.75222 0.05241 0.52453 0.0
C1245 C 0.85474 0.17344 0.48352 0.0
C1246 C 0.89031 0.19334 0.48303 0.0
C1247 C 0.90981 0.18348 0.50155 0.0
C1248 C 0.8942 0.15375 0.51967 0.0
C1249 C 0.85906 0.13395 0.51877 0.0
C1250 C 0.83961 0.14356 0.50127 0.0
C1251 C 0.80261 0.11681 0.50233 0.0
C1252 C 0.78162 0.13054 0.51803 0.0
C1253 C 0.7891 0.10294 0.4691 0.0
C1254 C 0.8043 0.09061 0.52288 0.0
C1255 C 0.8369 0.10084 0.53246 0.0
C1256 C 0.84418 0.08041 0.55174 0.0
C1257 C 0.81725 0.04901 0.56192 0.0
C1258 C 0.78362 0.03835 0.55252 0.0
C1259 C 0.77751 0.05951 0.53236 0.0
H1260 H 1.00166 0.72813 0.50078 0.0
H1261 H 1.00863 0.7969 0.57482 0.0
H1262 H 0.95117 0.7854 0.56143 0.0
H1263 H 0.95484 0.75086 0.44608 0.0
H1264 H 0.92866 0.70893 0.43095 0.0
H1265 H 0.97099 0.72216 0.44434 0.0
H1266 H 0.94992 0.67308 0.4839 0.0
H1267 H 0.9073 0.65756 0.47027 0.0
H1268 H 0.91712 0.66598 0.5117 0.0
H1269 H 0.89208 0.76482 0.54107 0.0
H1270 H 0.83738 0.73971 0.51246 0.0
H1271 H 0.86834 0.68242 0.45399 0.0
C1272 C 0.99137 0.74119 0.51394 0.0
C1273 C 0.00968 0.76335 0.53896 0.0
C1274 C 0.99521 0.77993 0.55548 0.0
C1275 C 0.96248 0.77338 0.5482 0.0
C1276 C 0.94467 0.75035 0.52426 0.0
C1277 C 0.9588 0.7349 0.50706 0.0
C1278 C 0.93441 0.71127 0.48242 0.0
C1279 C 0.94806 0.72404 0.44898 0.0
C1280 C 0.92674 0.67482 0.4874 0.0
C1281 C 0.90379 0.71468 0.48934 0.0
C1282 C 0.91038 0.73775 0.51322 0.0
C1283 C 0.88653 0.7465 0.52256 0.0
C1284 C 0.85553 0.73196 0.50644 0.0
C1285 C 0.84849 0.70849 0.48183 0.0
C1286 C 0.8727 0.69934 0.47357 0.0
H1287 H 0.96307 0.64639 0.32065 0.0
H1288 H 0.893 0.5724 0.25378 0.0
H1289 H 0.84659 0.5787 0.27638 0.0
H1290 H 0.90308 0.61991 0.38607 0.0
H1291 H 0.91915 0.66207 0.4007 0.0
H1292 H 0.94707 0.65109 0.38075 0.0
H1293 H 0.9639 0.69929 0.34046 0.0
H1294 H 0.93682 0.71146 0.36024 0.0
H1295 H 0.93141 0.70197 0.31858 0.0
H1296 H 0.80865 0.59531 0.30436 0.0
H1297 H 0.78102 0.619 0.3373 0.0
H1298 H 0.87625 0.68344 0.38496 0.0
C1299 C 0.93791 0.63119 0.3109 0.0
C1300 C 0.93172 0.60894 0.2853 0.0
C1301 C 0.89837 0.58949 0.27342 0.0
C1302 C 0.87188 0.59301 0.28602 0.0
C1303 C 0.87915 0.61593 0.3106 0.0
C1304 C 0.91128 0.63442 0.32313 0.0
C1305 C 0.9125 0.65754 0.34934 0.0
C1306 C 0.92096 0.64704 0.38108 0.0
C1307 C 0.93765 0.69477 0.34167 0.0
C1308 C 0.87631 0.65028 0.34871 0.0
C1309 C 0.8574 0.6258 0.3265 0.0
C1310 C 0.82319 0.61444 0.32181 0.0
C1311 C 0.80777 0.62811 0.34054 0.0
C1312 C 0.82662 0.65325 0.36336 0.0
C1313 C 0.86142 0.66468 0.36728 0.0
H1314 H 0.38415 0.3213 0.29919 0.0
H1315 H 0.47599 0.3439 0.24903 0.0
H1316 H 0.46824 0.28844 0.26585 0.0
H1317 H 0.39492 0.27798 0.36524 0.0
H1318 H 0.35031 0.24797 0.36808 0.0
H1319 H 0.3644 0.28971 0.35292 0.0
H1320 H 0.32949 0.26366 0.30196 0.0
H1321 H 0.3157 0.22179 0.31666 0.0
H1322 H 0.33667 0.23475 0.27895 0.0
H1323 H 0.44927 0.2295 0.28845 0.0
H1324 H 0.42314 0.17478 0.31675 0.0
H1325 H 0.3426 0.19121 0.34937 0.0
C1326 C 0.4029 0.31488 0.29176 0.0
C1327 C 0.43073 0.33706 0.27265 0.0
C1328 C 0.45459 0.32747 0.26375 0.0
C1329 C 0.45023 0.29593 0.27305 0.0
C1330 C 0.42189 0.27436 0.29116 0.0
C1331 C 0.39883 0.28368 0.30057 0.0
C1332 C 0.37039 0.25627 0.31984 0.0
C1333 C 0.37 0.26873 0.3535 0.0
C1334 C 0.33604 0.24336 0.30335 0.0
C1335 C 0.38085 0.22975 0.31986 0.0
C1336 C 0.41065 0.24059 0.30329 0.0
C1337 C 0.42585 0.22078 0.30127 0.0
C1338 C 0.41073 0.18966 0.31728 0.0
C1339 C 0.38054 0.17844 0.33487 0.0
C1340 C 0.36517 0.19859 0.33551 0.0
H1341 H 0.83297 0.16006 0.38014 0.0
H1342 H 0.85307 0.25717 0.34404 0.0
H1343 H 0.7996 0.22926 0.31403 0.0
H1344 H 0.79461 0.11223 0.30895 0.0
H1345 H 0.7634 0.07546 0.32998 0.0
H1346 H 0.80367 0.10323 0.34809 0.0
H1347 H 0.77273 0.11012 0.39603 0.0
H1348 H 0.73227 0.08309 0.37788 0.0
H1349 H 0.74339 0.12511 0.39009 0.0
H1350 H 0.74355 0.19049 0.28724 0.0
H1351 H 0.69088 0.14336 0.26458 0.0
H1352 H 0.70646 0.07242 0.32013 0.0
C1353 C 0.82627 0.17534 0.36563 0.0
C1354 C 0.84728 0.21079 0.36438 0.0
C1355 C 0.83733 0.22996 0.34545 0.0
C1356 C 0.80695 0.21436 0.32832 0.0
C1357 C 0.78645 0.17949 0.33048 0.0
C1358 C 0.7957 0.16018 0.34861 0.0
C1359 C 0.76894 0.12316 0.34697 0.0
C1360 C 0.78353 0.1023 0.33263 0.0
C1361 C 0.75341 0.10959 0.37969 0.0
C1362 C 0.74356 0.12474 0.32491 0.0
C1363 C 0.75398 0.1574 0.31564 0.0
C1364 C 0.73502 0.16477 0.29446 0.0
C1365 C 0.70503 0.1379 0.28182 0.0
C1366 C 0.69438 0.10415 0.29044 0.0
C1367 C 0.71371 0.09787 0.31288 0.0
H1368 H 0.06048 0.67284 0.48469 0.0
H1369 H 0.15279 0.76904 0.47072 0.0
H1370 H 0.15309 0.75545 0.41461 0.0
H1371 H 0.0817 0.62411 0.43015 0.0
H1372 H 0.03879 0.5991 0.41619 0.0
H1373 H 0.04684 0.61526 0.45597 0.0
H1374 H 0.01126 0.64412 0.44558 0.0
H1375 H 1.0031 0.62806 0.40583 0.0
H1376 H 0.02189 0.67275 0.41268 0.0
H1377 H 0.14057 0.73479 0.35975 0.0
H1378 H 0.1169 0.7061 0.30881 0.0
H1379 H 0.03488 0.62201 0.35832 0.0
C1380 C 0.08095 0.69086 0.46991 0.0
C1381 C 0.10663 0.72192 0.48206 0.0
C1382 C 0.13293 0.74496 0.46196 0.0
C1383 C 0.13338 0.73751 0.43006 0.0
C1384 C 0.10757 0.70682 0.4188 0.0
C1385 C 0.08197 0.68372 0.43805 0.0
C1386 C 0.05657 0.65316 0.41959 0.0
C1387 C 0.05596 0.621 0.43117 0.0
C1388 C 0.02113 0.64932 0.42101 0.0
C1389 C 0.07165 0.66307 0.38688 0.0
C1390 C 0.10103 0.69418 0.387 0.0
C1391 C 0.11803 0.7101 0.35933 0.0
C1392 C 0.10447 0.69379 0.33067 0.0
C1393 C 0.07467 0.66189 0.33023 0.0
C1394 C 0.05825 0.64608 0.35852 0.0
H1395 H 0.34268 0.42922 0.47543 0.0
H1396 H 0.30066 0.32087 0.48181 0.0
H1397 H 0.30879 0.31837 0.42441 0.0
H1398 H 0.30972 0.43162 0.39751 0.0
H1399 H 0.34783 0.46936 0.38569 0.0
H1400 H 0.33589 0.46229 0.42675 0.0
H1401 H 0.39413 0.46892 0.44114 0.0
H1402 H 0.40629 0.47619 0.4002 0.0
H1403 H 0.40781 0.44289 0.42158 0.0
H1404 H 0.32198 0.3277 0.36681 0.0
H1405 H 0.34541 0.34908 0.31369 0.0
H1406 H 0.38243 0.45174 0.34569 0.0
C1407 C 0.33488 0.405 0.46456 0.0
C1408 C 0.32097 0.37521 0.48272 0.0
C1409 C 0.31158 0.34396 0.46809 0.0
C1410 C 0.31581 0.34226 0.43556 0.0
C1411 C 0.32977 0.37211 0.41822 0.0
C1412 C 0.33959 0.40295 0.43222 0.0
C1413 C 0.3566 0.43157 0.40872 0.0
C1414 C 0.33629 0.44977 0.40442 0.0
C1415 C 0.39339 0.45634 0.4185 0.0
C1416 C 0.35504 0.412 0.37942 0.0
C1417 C 0.33885 0.37769 0.38525 0.0
C1418 C 0.3346 0.3545 0.36188 0.0
C1419 C 0.34783 0.36683 0.33182 0.0
C1420 C 0.36561 0.40198 0.32578 0.0
C1421 C 0.36891 0.42474 0.34978 0.0
H1422 H 0.6596 0.92591 0.4688 0.0
H1423 H 0.65079 0.00809 0.50988 0.0
H1424 H 0.64357 0.02552 0.45675 0.0
H1425 H 0.70604 0.9721 0.39804 0.0
H1426 H 0.68464 0.93559 0.37288 0.0
H1427 H 0.69109 0.93047 0.41408 0.0
H1428 H 0.62665 0.88992 0.42107 0.0
H1429 H 0.62001 0.89481 0.37994 0.0
H1430 H 0.59755 0.90385 0.40974 0.0
H1431 H 0.63283 0.03139 0.40078 0.0
H1432 H 0.61936 0.02562 0.34385 0.0
H1433 H 0.63742 0.94143 0.33792 0.0
C1434 C 0.65621 0.94761 0.46661 0.0
C1435 C 0.65552 0.96552 0.49346 0.0
C1436 C 0.65128 0.99392 0.48964 0.0
C1437 C 0.64732 1.00412 0.45957 0.0
C1438 C 0.64804 0.98588 0.43365 0.0
C1439 C 0.65249 0.95833 0.43674 0.0
C1440 C 0.6511 0.94251 0.40497 0.0
C1441 C 0.68526 0.94535 0.39703 0.0
C1442 C 0.62209 0.90559 0.40388 0.0
C1443 C 0.64408 0.96489 0.38368 0.0
C1444 C 0.64268 0.98988 0.40081 0.0
C1445 C 0.63431 0.01229 0.38699 0.0
C1446 C 0.6266 0.00875 0.35483 0.0
C1447 C 0.62764 0.98324 0.33698 0.0
C1448 C 0.63707 0.96141 0.35127 0.0
H1449 H 0.71196 0.04516 0.02025 0.0
H1450 H 0.71994 0.14301 0.00627 0.0
H1451 H 0.7068 0.14436 0.06225 0.0
H1452 H 0.64235 0.01234 0.07266 0.0
H1453 H 0.65696 0.99037 0.09772 0.0
H1454 H 0.66916 0.99751 0.05678 0.0
H1455 H 0.73224 0.02722 0.07282 0.0
H1456 H 0.72036 0.02016 0.1139 0.0
H1457 H 0.7488 0.06234 0.09985 0.0
H1458 H 0.6883 0.13375 0.11742 0.0
H1459 H 0.66569 0.11135 0.1705 0.0
H1460 H 0.67222 0.02192 0.15084 0.0
C1461 C 0.71106 0.06689 0.02904 0.0
C1462 C 0.71685 0.09391 0.00886 0.0
C1463 C 0.71556 0.12198 0.02123 0.0
C1464 C 0.70825 0.1231 0.05304 0.0
C1465 C 0.70265 0.09614 0.07226 0.0
C1466 C 0.70404 0.06858 0.06093 0.0
C1467 C 0.69568 0.04248 0.08666 0.0
C1468 C 0.66416 0.00869 0.07793 0.0
C1469 C 0.7261 0.0378 0.09372 0.0
C1470 C 0.68865 0.05949 0.11392 0.0
C1471 C 0.69296 0.09047 0.10497 0.0
C1472 C 0.68544 0.10987 0.12501 0.0
C1473 C 0.67264 0.09703 0.15496 0.0
C1474 C 0.668 0.06543 0.16451 0.0
C1475 C 0.67658 0.04662 0.14408 0.0
H1476 H 0.95283 0.58912 0.13886 0.0
H1477 H 0.02026 0.69092 0.17239 0.0
H1478 H 0.02109 0.71331 0.1191 0.0
H1479 H 0.98923 0.59785 0.0641 0.0
H1480 H 0.94981 0.573 0.0434 0.0
H1481 H 0.95303 0.565 0.08455 0.0
H1482 H 0.90245 0.57363 0.09762 0.0
H1483 H 0.89882 0.58132 0.05643 0.0
H1484 H 0.90382 0.6121 0.08562 0.0
H1485 H 0.01938 0.72376 0.06141 0.0
H1486 H 1.00948 0.72246 0.00385 0.0
H1487 H 0.93986 0.61447 0.0089 0.0
C1488 C 0.96734 0.61614 0.135 0.0
C1489 C 0.9864 0.63836 0.15952 0.0
C1490 C 1.00516 0.67358 0.15384 0.0
C1491 C 1.00595 0.68649 0.12368 0.0
C1492 C 0.98729 0.66385 0.09983 0.0
C1493 C 0.9678 0.62951 0.10525 0.0
C1494 C 0.95017 0.61068 0.07549 0.0
C1495 C 0.96124 0.58513 0.06636 0.0
C1496 C 0.91152 0.59342 0.07901 0.0
C1497 C 0.96341 0.63971 0.05235 0.0
C1498 C 0.98502 0.67013 0.06681 0.0
C1499 C 1.00206 0.70022 0.04988 0.0
C1500 C 0.99649 0.6992 0.01729 0.0
C1501 C 0.97376 0.66841 0.00229 0.0
C1502 C 0.95698 0.63838 0.02003 0.0
H1503 H 0.38585 0.34187 0.1532 0.0
H1504 H 0.48285 0.43347 0.13965 0.0
H1505 H 0.48335 0.41812 0.08421 0.0
H1506 H 0.40281 0.28798 0.10161 0.0
H1507 H 0.36019 0.26559 0.08644 0.0
H1508 H 0.36805 0.28255 0.12592 0.0
H1509 H 0.33742 0.31581 0.1125 0.0
H1510 H 0.32942 0.2989 0.07306 0.0
H1511 H 0.35127 0.34393 0.07897 0.0
H1512 H 0.47164 0.39629 0.02986 0.0
H1513 H 0.44841 0.36733 0.97895 0.0
H1514 H 0.36063 0.28856 0.02736 0.0
C1515 C 0.40734 0.3585 0.13865 0.0
C1516 C 0.43433 0.38879 0.15081 0.0
C1517 C 0.46191 0.41004 0.13095 0.0
C1518 C 0.46251 0.40155 0.09941 0.0
C1519 C 0.4355 0.37167 0.08815 0.0
C1520 C 0.40847 0.35034 0.10706 0.0
C1521 C 0.38208 0.32041 0.08853 0.0
C1522 C 0.37806 0.28717 0.10139 0.0
C1523 C 0.34805 0.31975 0.08825 0.0
C1524 C 0.39838 0.32862 0.0562 0.0
C1525 C 0.42918 0.35836 0.05659 0.0
C1526 C 0.4479 0.37265 0.02925 0.0
C1527 C 0.4346 0.35618 0.00059 0.0
C1528 C 0.40328 0.32572 -0.00018 0.0
C1529 C 0.3851 0.31147 0.02784 0.0
H1530 H 0.95347 0.38495 0.63305 0.0
H1531 H 0.04355 0.37987 0.65501 0.0
H1532 H 0.04951 0.36974 0.59859 0.0
H1533 H 0.92066 0.31617 0.57972 0.0
H1534 H 0.90183 0.33334 0.55363 0.0
H1535 H 0.90723 0.34436 0.59483 0.0
H1536 H 0.94096 0.40781 0.57965 0.0
H1537 H 0.93606 0.39689 0.53834 0.0
H1538 H 0.97772 0.42305 0.55471 0.0
H1539 H 0.04618 0.36094 0.54048 0.0
H1540 H 0.02663 0.34121 0.48599 0.0
H1541 H 0.93551 0.34572 0.50344 0.0
C1542 C 0.97457 0.38201 0.62575 0.0
C1543 C 0.99826 0.38344 0.64782 0.0
C1544 C 0.02523 0.37881 0.63807 0.0
C1545 C 0.02908 0.37354 0.6062 0.0
C1546 C 1.00548 0.37258 0.58479 0.0
C1547 C 0.97824 0.37579 0.59422 0.0
C1548 C 0.95413 0.36942 0.56722 0.0
C1549 C 0.91889 0.33901 0.57427 0.0
C1550 C 0.95212 0.40119 0.55953 0.0
C1551 C 0.97186 0.36167 0.54127 0.0
C1552 C 1.00201 0.36476 0.55163 0.0
C1553 C 0.02267 0.35846 0.53201 0.0
C1554 C 0.01154 0.34751 0.5012 0.0
C1555 C 0.97978 0.34222 0.49104 0.0
C1556 C 0.96 0.34991 0.51097 0.0
H1557 H 0.68559 0.60202 0.64726 0.0
H1558 H 0.65048 0.67329 0.6594 0.0
H1559 H 0.66048 0.68824 0.6026 0.0
H1560 H 0.75246 0.6531 0.58944 0.0
H1561 H 0.74557 0.61623 0.56795 0.0
H1562 H 0.73762 0.61352 0.60981 0.0
H1563 H 0.6765 0.56446 0.59974 0.0
H1564 H 0.68394 0.56768 0.5578 0.0
H1565 H 0.64913 0.57104 0.57359 0.0
H1566 H 0.6689 0.69059 0.54351 0.0
H1567 H 0.68479 0.68787 0.4881 0.0
H1568 H 0.71627 0.61654 0.51603 0.0
C1569 C 0.68099 0.62144 0.63796 0.0
C1570 C 0.66799 0.63712 0.65726 0.0
C1571 C 0.66132 0.66182 0.6447 0.0
C1572 C 0.66653 0.67009 0.61254 0.0
C1573 C 0.67854 0.65345 0.59372 0.0
C1574 C 0.68647 0.63026 0.60612 0.0
C1575 C 0.69901 0.61594 0.58096 0.0
C1576 C 0.73585 0.62527 0.58742 0.0
C1577 C 0.67574 0.5775 0.57785 0.0
C1578 C 0.69638 0.63424 0.55239 0.0
C1579 C 0.68417 0.65548 0.56006 0.0
C1580 C 0.67887 0.67436 0.53724 0.0
C1581 C 0.68759 0.67241 0.50588 0.0
C1582 C 0.7018 0.65211 0.49806 0.0
C1583 C 0.70554 0.63234 0.5215 0.0
H1584 H 0.42223 0.03103 0.6242 0.0
H1585 H 0.39821 0.09926 0.67353 0.0
H1586 H 0.38938 0.11995 0.62234 0.0
H1587 H 0.46575 0.08336 0.55862 0.0
H1588 H 0.44777 0.04987 0.52986 0.0
H1589 H 0.45259 0.04062 0.57028 0.0
H1590 H 0.38852 0.99646 0.57324 0.0
H1591 H 0.3836 1.00532 0.53271 0.0
H1592 H 0.35799 0.00891 0.56307 0.0
H1593 H 0.38666 0.13533 0.56647 0.0
H1594 H 0.3825 0.13961 0.50878 0.0
H1595 H 0.40384 0.05804 0.49566 0.0
C1596 C 0.41506 0.05029 0.62403 0.0
C1597 C 0.4111 0.06392 0.65239 0.0
C1598 C 0.40123 0.08865 0.65176 0.0
C1599 C 0.39635 0.10059 0.62293 0.0
C1600 C 0.40077 0.08689 0.59523 0.0
C1601 C 0.40917 0.06179 0.5955 0.0
C1602 C 0.41077 0.0503 0.56239 0.0
C1603 C 0.44634 0.05642 0.55486 0.0
C1604 C 0.3836 0.01304 0.55758 0.0
C1605 C 0.40282 0.0735 0.54346 0.0
C1606 C 0.39743 0.09458 0.56289 0.0
C1607 C 0.39054 0.11882 0.55096 0.0
C1608 C 0.3885 0.1212 0.5182 0.0
C1609 C 0.39291 0.09917 0.49788 0.0
C1610 C 0.40029 0.07513 0.51071 0.0
H1611 H 0.36248 0.94416 0.84162 0.0
H1612 H 0.4092 0.05242 0.82976 0.0
H1613 H 0.39422 0.05789 0.88467 0.0
H1614 H 0.29283 0.9335 0.89084 0.0
H1615 H 0.29345 0.90162 0.91542 0.0
H1616 H 0.30699 0.90623 0.87486 0.0
H1617 H 0.36465 0.9137 0.89292 0.0
H1618 H 0.35128 0.9091 0.9335 0.0
H1619 H 0.38986 0.94609 0.92123 0.0
H1620 H 0.37429 0.05145 0.94052 0.0
H1621 H 0.3524 0.03373 -0.00533 0.0
H1622 H 0.31982 0.92969 0.97029 0.0
C1623 C 0.36936 0.96887 0.85077 0.0
C1624 C 0.38648 0.99788 0.83185 0.0
C1625 C 0.39548 0.02998 0.84412 0.0
C1626 C 0.38721 0.0333 0.87517 0.0
C1627 C 0.37007 1.0042 0.89341 0.0
C1628 C 0.36131 0.97261 0.88175 0.0
C1629 C 0.3435 0.94552 0.90649 0.0
C1630 C 0.30703 0.92023 0.89629 0.0
C1631 C 0.36353 0.92756 0.91398 0.0
C1632 C 0.34408 0.96689 0.93392 0.0
C1633 C 0.35924 1.00061 0.92583 0.0
C1634 C 0.36246 0.02512 0.94723 0.0
C1635 C 0.34996 0.01484 0.97787 0.0
C1636 C 0.33473 0.98042 0.98672 0.0
C1637 C 0.33168 0.95624 0.96434 0.0
H1638 H 0.05266 0.39834 0.98671 0.0
H1639 H 0.12463 0.36386 0.97267 0.0
H1640 H 0.11948 0.36715 0.91506 0.0
H1641 H 0.99897 0.35512 0.91946 0.0
H1642 H 0.99181 0.38937 0.90967 0.0
H1643 H 0.99971 0.38282 0.95006 0.0
H1644 H 0.04984 0.4444 0.95274 0.0
H1645 H 0.04206 0.45115 0.9124 0.0
H1646 H 0.08331 0.45874 0.92394 0.0
H1647 H 0.10619 0.37292 0.85987 0.0
H1648 H 0.08888 0.38573 0.80887 0.0
H1649 H 0.02843 0.42006 0.85819 0.0
C1650 C 0.06719 0.39141 0.97143 0.0
C1651 C 0.08906 0.38094 0.98391 0.0
C1652 C 0.10796 0.37227 0.9634 0.0
C1653 C 0.10505 0.37381 0.93073 0.0
C1654 C 0.08339 0.38434 0.91911 0.0
C1655 C 0.06501 0.39332 0.93869 0.0
C1656 C 0.04474 0.40519 0.91988 0.0
C1657 C 1.00655 0.38172 0.92508 0.0
C1658 C 0.05566 0.44206 0.92771 0.0
C1659 C 0.05501 0.40182 0.88676 0.0
C1660 C 0.07682 0.38916 0.88693 0.0
C1661 C 0.08925 0.383 0.85931 0.0
C1662 C 0.07924 0.39025 0.83058 0.0
C1663 C 0.05761 0.40402 0.82995 0.0
C1664 C 0.04533 0.40989 0.8583 0.0
H1665 H 0.65542 0.70069 0.83662 0.0
H1666 H 0.59459 0.59285 0.85369 0.0
H1667 H 0.60108 0.60281 0.91108 0.0
H1668 H 0.71353 0.7201 0.90232 0.0
H1669 H 0.71533 0.75939 0.91152 0.0
H1670 H 0.70753 0.74387 0.87153 0.0
H1671 H 0.65238 0.74693 0.87034 0.0
H1672 H 0.65994 0.76232 0.91036 0.0
H1673 H 0.62061 0.72505 0.90021 0.0
H1674 H 0.6144 0.62362 0.96571 0.0
H1675 H 0.63155 0.65497 0.01598 0.0
H1676 H 0.68046 0.74971 0.96432 0.0
C1677 C 0.64377 0.67929 0.85255 0.0
C1678 C 0.62457 0.64607 0.84101 0.0
C1679 C 0.60923 0.61853 0.86229 0.0
C1680 C 0.61287 0.62388 0.89484 0.0
C1681 C 0.63158 0.65692 0.90557 0.0
C1682 C 0.6466 0.68422 0.88523 0.0
C1683 C 0.66411 0.71718 0.90325 0.0
C1684 C 0.7024 0.73625 0.89677 0.0
C1685 C 0.6483 0.73915 0.89558 0.0
C1686 C 0.65643 0.704 0.9368 0.0
C1687 C 0.638 0.66914 0.93749 0.0
C1688 C 0.62866 0.65093 0.9656 0.0
C1689 C 0.63853 0.6689 -0.00607 0.0
C1690 C 0.657 0.7046 -0.00624 0.0
C1691 C 0.66589 0.72239 0.9649 0.0
H1692 H 0.76575 0.03007 0.67951 0.0
H1693 H 0.66158 0.94872 0.67552 0.0
H1694 H 0.65292 0.96012 0.73087 0.0
H1695 H 0.7821 0.01304 0.75686 0.0
H1696 H 0.80872 0.05667 0.7678 0.0
H1697 H 0.80566 0.04432 0.72706 0.0
H1698 H 0.78747 0.08778 0.71163 0.0
H1699 H 0.79048 0.10028 0.75239 0.0
H1700 H 0.75158 0.08625 0.73093 0.0
H1701 H 0.6561 0.97988 0.78651 0.0
H1702 H 0.67211 1.00381 0.84034 0.0
H1703 H 0.77525 0.06948 0.80863 0.0
C1704 C 0.74117 0.01499 0.69042 0.0
C1705 C 0.71422 0.98872 0.67385 0.0
C1706 C 0.68236 0.969 0.68837 0.0
C1707 C 0.67721 0.97537 0.71956 0.0
C1708 C 0.70438 1.00133 0.73564 0.0
C1709 C 0.73579 0.0207 0.72168 0.0
C1710 C 0.76127 0.04563 0.74476 0.0
C1711 C 0.79119 0.03952 0.74939 0.0
C1712 C 0.7734 0.08215 0.7343 0.0
C1713 C 0.73954 0.03658 0.77403 0.0
C1714 C 0.70663 0.01154 0.76813 0.0
C1715 C 0.68183 0.99939 0.79151 0.0
C1716 C 0.69111 0.01305 0.82191 0.0
C1717 C 0.72497 0.03794 0.82851 0.0
C1718 C 0.74933 0.04995 0.80423 0.0
H1719 H 0.05241 0.77815 0.67813 0.0
H1720 H 0.01635 0.67688 0.64268 0.0
H1721 H 0.99497 0.65364 0.69599 0.0
H1722 H 0.08141 0.7683 0.75124 0.0
H1723 H 0.0678 0.79321 0.77294 0.0
H1724 H 0.07817 0.8016 0.73169 0.0
H1725 H 0.01882 0.79359 0.7199 0.0
H1726 H 1.00846 0.7858 0.76124 0.0
H1727 H 0.98157 0.75528 0.73224 0.0
H1728 H 0.98391 0.64269 0.7544 0.0
H1729 H 0.97533 0.64392 0.81209 0.0
H1730 H 0.01605 0.75221 0.80719 0.0
C1731 C 0.03957 0.75105 0.68152 0.0
C1732 C 0.03603 0.72921 0.65665 0.0
C1733 C 0.01903 0.69389 0.66166 0.0
C1734 C 1.00708 0.68053 0.69177 0.0
C1735 C 0.01195 0.70293 0.71612 0.0
C1736 C 0.02707 0.73735 0.71111 0.0
C1737 C 0.02933 0.75609 0.74106 0.0
C1738 C 0.06638 0.78127 0.74973 0.0
C1739 C 1.00828 0.77371 0.73844 0.0
C1740 C 0.01372 0.72692 0.76389 0.0
C1741 C 1.00414 0.69647 0.74924 0.0
C1742 C 0.99075 0.66628 0.76607 0.0
C1743 C 0.98626 0.66725 0.79871 0.0
C1744 C 0.99481 0.69813 0.81367 0.0
C1745 C 1.00891 0.72824 0.7961 0.0
H1746 H 0.27906 0.28725 0.67576 0.0
H1747 H 0.34509 0.39604 0.67391 0.0
H1748 H 0.35509 0.39561 0.73133 0.0
H1749 H 0.24114 0.28076 0.75094 0.0
H1750 H 0.24085 0.24257 0.762 0.0
H1751 H 0.23842 0.25158 0.72095 0.0
H1752 H 0.29108 0.24611 0.70867 0.0
H1753 H 0.29346 0.23673 0.7496 0.0
H1754 H 0.32961 0.27119 0.73061 0.0
H1755 H 0.35537 0.38327 0.78916 0.0
H1756 H 0.35221 0.35927 0.84221 0.0
H1757 H 0.28917 0.25829 0.8048 0.0
C1758 C 0.29555 0.31098 0.68747 0.0
C1759 C 0.31111 0.3417 0.6707 0.0
C1760 C 0.33299 0.37224 0.68655 0.0
C1761 C 0.33863 0.37226 0.71908 0.0
C1762 C 0.3225 0.34149 0.73505 0.0
C1763 C 0.30191 0.31138 0.71968 0.0
C1764 C 0.28885 0.2816 0.74189 0.0
C1765 C 0.25001 0.26305 0.74407 0.0
C1766 C 0.30152 0.2575 0.73211 0.0
C1767 C 0.30509 0.29968 0.77229 0.0
C1768 C 0.32401 0.33424 0.76797 0.0
C1769 C 0.3408 0.35625 0.79282 0.0
C1770 C 0.3387 0.34242 0.82282 0.0
C1771 C 0.32052 0.30699 0.82736 0.0
C1772 C 0.30332 0.28545 0.80184 0.0
H1773 H 0.07139 0.34301 0.19032 0.0
H1774 H 0.97823 0.27565 0.14108 0.0
H1775 H 0.9486 0.25599 0.19243 0.0
H1776 H 0.06352 0.29045 0.25193 0.0
H1777 H 0.08008 0.3225 0.28212 0.0
H1778 H 0.09304 0.33374 0.24171 0.0
H1779 H 0.07326 0.37786 0.24275 0.0
H1780 H 0.06078 0.36725 0.28343 0.0
H1781 H 0.03059 0.36498 0.25464 0.0
H1782 H 0.93175 0.23916 0.24866 0.0
H1783 H 0.92607 0.23132 0.30643 0.0
H1784 H 0.0302 0.31183 0.31827 0.0
C1785 C 0.0446 0.32457 0.19047 0.0
C1786 C 0.02687 0.31057 0.16222 0.0
C1787 C 0.99191 0.28665 0.1628 0.0
C1788 C 0.97505 0.27533 0.19171 0.0
C1789 C 0.99356 0.28889 0.21936 0.0
C1790 C 0.02735 0.31357 0.21894 0.0
C1791 C 0.04169 0.32362 0.25183 0.0
C1792 C 0.07132 0.31717 0.25719 0.0
C1793 C 0.05219 0.36062 0.25856 0.0
C1794 C 0.01107 0.29965 0.27087 0.0
C1795 C 0.98356 0.27988 0.25175 0.0
C1796 C 0.95291 0.2548 0.26394 0.0
C1797 C 0.9501 0.25032 0.2967 0.0
C1798 C 0.97779 0.27097 0.31669 0.0
C1799 C 1.00863 0.29579 0.30353 0.0
H1800 H 0.73225 0.74395 0.32314 0.0
H1801 H 0.8073 0.71291 0.31179 0.0
H1802 H 0.80794 0.72168 0.25459 0.0
H1803 H 0.68579 0.70544 0.25225 0.0
H1804 H 0.67788 0.73926 0.24274 0.0
H1805 H 0.68324 0.73095 0.28332 0.0
H1806 H 0.73158 0.79297 0.28977 0.0
H1807 H 0.72639 0.80143 0.24917 0.0
H1808 H 0.76717 0.80978 0.26317 0.0
H1809 H 0.79846 0.72986 0.19918 0.0
H1810 H 0.78122 0.74078 0.14717 0.0
H1811 H 0.71538 0.77037 0.19333 0.0
C1812 C 0.74883 0.73915 0.30854 0.0
C1813 C 0.76984 0.72797 0.32186 0.0
C1814 C 0.79127 0.7219 0.30211 0.0
C1815 C 0.79178 0.72667 0.26957 0.0
C1816 C 0.77097 0.73782 0.25716 0.0
C1817 C 0.75007 0.74427 0.27585 0.0
C1818 C 0.73035 0.75613 0.25607 0.0
C1819 C 0.69205 0.73147 0.25876 0.0
C1820 C 0.73943 0.79223 0.26509 0.0
C1821 C 0.74339 0.75504 0.22348 0.0
C1822 C 0.76657 0.74408 0.22475 0.0
C1823 C 0.78072 0.73894 0.19775 0.0
C1824 C 0.77078 0.74509 0.16845 0.0
C1825 C 0.74748 0.75676 0.16666 0.0
C1826 C 0.73383 0.76212 0.19441 0.0
H1827 H 0.27755 0.04729 0.30534 0.0
H1828 H 0.33059 0.99884 0.34412 0.0
H1829 H 0.3273 0.97271 0.29236 0.0
H1830 H 0.22076 0.976 0.25242 0.0
H1831 H 0.22222 1.00423 0.22193 0.0
H1832 H 0.22589 0.01646 0.26284 0.0
H1833 H 0.28248 0.07098 0.25043 0.0
H1834 H 0.27924 0.05876 0.20963 0.0
H1835 H 0.31635 0.06772 0.23216 0.0
H1836 H 0.32629 0.95943 0.2352 0.0
H1837 H 0.32041 0.95303 0.17717 0.0
H1838 H 0.26379 1.00582 0.17607 0.0
C1839 C 0.28777 0.03055 0.30308 0.0
C1840 C 0.30426 0.02499 0.32868 0.0
C1841 C 0.31751 1.00312 0.32487 0.0
C1842 C 0.3159 0.98829 0.29555 0.0
C1843 C 0.30031 0.99503 0.27055 0.0
C1844 C 0.28577 0.01499 0.27415 0.0
C1845 C 0.27142 0.01898 0.24321 0.0
C1846 C 0.23277 1.00295 0.24523 0.0
C1847 C 0.2884 0.05632 0.23329 0.0
C1848 C 0.28125 0.99913 0.22145 0.0
C1849 C 0.29807 0.9857 0.23771 0.0
C1850 C 0.31241 0.96905 0.22231 0.0
C1851 C 0.30918 0.96576 0.18944 0.0
C1852 C 0.29132 0.97859 0.17252 0.0
C1853 C 0.27694 0.99521 0.18871 0.0
loop_
_geom_bond_atom_site_label_1
_geom_bond_atom_site_label_2
_geom_bond_distance
_geom_bond_site_symmetry_2
_ccdc_geom_bond_type
Fe0 O2 1.918 . S
Fe0 O5 1.997 . S
Fe0 O6 2.002 . S
Fe0 O11 1.976 . S
Fe0 O14 1.996 . S
Fe1 O2 1.918 . S
Fe1 O9 1.997 . S
Fe1 O12 1.996 . S
Fe1 O16 1.976 1_455 S
Fe1 O19 2.002 1_455 S
O2 Fe0 1.918 . S
O2 Fe1 1.918 . S
O2 Fe3 1.918 1_455 S
Fe3 O2 1.918 1_655 S
Fe3 O4 2.002 . S
Fe3 O13 1.976 1_655 S
Fe3 O17 1.996 . S
Fe3 O20 1.997 . S
O4 Fe3 2.002 . S
O4 C21 1.295 . S
O5 Fe0 1.997 . S
O5 C21 1.235 1_455 S
O6 Fe0 2.002 . S
O6 C7 1.295 . S
C7 O6 1.295 . S
C7 O9 1.235 . S
C8 O13 1.287 . S
C8 O14 1.255 . S
O9 Fe1 1.997 . S
O9 C7 1.235 . S
C10 O16 1.287 . S
C10 O17 1.255 . S
O11 Fe0 1.976 . S
O11 C18 1.287 . S
O12 Fe1 1.996 . S
O12 C18 1.255 . S
O13 Fe3 1.976 1_455 S
O13 C8 1.287 . S
O14 Fe0 1.996 . S
O14 C8 1.255 . S
C15 O19 1.295 . S
C15 O20 1.235 . S
O16 Fe1 1.976 1_655 S
O16 C10 1.287 . S
O17 Fe3 1.996 . S
O17 C10 1.255 . S
C18 O11 1.287 . S
C18 O12 1.255 . S
O19 Fe1 2.002 1_655 S
O19 C15 1.295 . S
O20 Fe3 1.997 . S
O20 C15 1.235 . S
C21 O4 1.295 . S
C21 O5 1.235 1_655 S
Fe22 O24 1.918 . S
Fe22 O27 1.997 . S
Fe22 O28 2.002 . S
Fe22 O33 1.976 . S
Fe22 O36 1.996 . S
Fe23 O24 1.918 . S
Fe23 O31 1.997 . S
Fe23 O34 1.996 . S
Fe23 O38 1.976 . S
Fe23 O41 2.002 . S
O24 Fe22 1.918 . S
O24 Fe23 1.918 . S
O24 Fe25 1.918 . S
Fe25 O24 1.918 . S
Fe25 O26 2.002 . S
Fe25 O35 1.976 . S
Fe25 O39 1.996 . S
Fe25 O42 1.997 . S
O26 Fe25 2.002 . S
O26 C43 1.295 . S
O27 Fe22 1.997 . S
O27 C43 1.235 . S
O28 Fe22 2.002 . S
O28 C29 1.295 . S
C29 O28 1.295 . S
C29 O31 1.235 . S
C30 O35 1.287 . S
C30 O36 1.255 . S
O31 Fe23 1.997 . S
O31 C29 1.235 . S
C32 O38 1.287 . S
C32 O39 1.255 . S
O33 Fe22 1.976 . S
O33 C40 1.287 . S
O34 Fe23 1.996 . S
O34 C40 1.255 . S
O35 Fe25 1.976 . S
O35 C30 1.287 . S
O36 Fe22 1.996 . S
O36 C30 1.255 . S
C37 O41 1.295 . S
C37 O42 1.235 . S
O38 Fe23 1.976 . S
O38 C32 1.287 . S
O39 Fe25 1.996 . S
O39 C32 1.255 . S
C40 O33 1.287 . S
C40 O34 1.255 . S
O41 Fe23 2.002 . S
O41 C37 1.295 . S
O42 Fe25 1.997 . S
O42 C37 1.235 . S
C43 O26 1.295 . S
C43 O27 1.235 . S
Fe44 O46 1.918 . S
Fe44 O49 1.997 . S
Fe44 O50 2.002 . S
Fe44 O55 1.976 . S
Fe44 O58 1.996 . S
Fe45 O46 1.918 1_565 S
Fe45 O53 2.012 . S
Fe45 O56 1.996 . S
Fe45 O60 1.976 . S
Fe45 O63 2.002 . S
O46 Fe44 1.918 . S
O46 Fe45 1.918 1_545 S
O46 Fe47 1.918 . S
Fe47 O46 1.918 . S
Fe47 O48 2.002 . S
Fe47 O57 1.976 . S
Fe47 O61 1.996 1_545 S
Fe47 O64 1.997 1_545 S
O48 Fe47 2.002 . S
O48 C65 1.295 . S
O49 Fe44 1.997 . S
O49 C65 1.235 . S
O50 Fe44 2.002 . S
O50 C51 1.295 . S
C51 O50 1.295 . S
C51 O53 1.217 1_545 S
C52 O57 1.287 . S
C52 O58 1.255 . S
O53 Fe45 2.012 . S
O53 C51 1.217 1_565 S
C54 O60 1.287 . S
C54 O61 1.255 . S
O55 Fe44 1.976 . S
O55 C62 1.287 1_545 S
O56 Fe45 1.996 . S
O56 C62 1.255 . S
O57 Fe47 1.976 . S
O57 C52 1.287 . S
O58 Fe44 1.996 . S
O58 C52 1.255 . S
C59 O63 1.295 . S
C59 O64 1.235 . S
O60 Fe45 1.976 . S
O60 C54 1.287 . S
O61 Fe47 1.996 1_565 S
O61 C54 1.255 . S
C62 O55 1.287 1_565 S
C62 O56 1.255 . S
O63 Fe45 2.002 . S
O63 C59 1.295 . S
O64 Fe47 1.997 1_565 S
O64 C59 1.235 . S
C65 O48 1.295 . S
C65 O49 1.235 . S
Fe66 O68 1.918 . S
Fe66 O71 1.997 . S
Fe66 O72 2.002 . S
Fe66 O77 1.976 . S
Fe66 O80 1.996 . S
Fe67 O68 1.918 1_655 S
Fe67 O75 1.994 1_655 S
Fe67 O78 1.996 . S
Fe67 O82 1.976 . S
Fe67 O85 2.002 . S
O68 Fe66 1.918 . S
O68 Fe67 1.918 1_455 S
O68 Fe69 1.918 . S
Fe69 O68 1.918 . S
Fe69 O70 2.002 . S
Fe69 O79 1.976 . S
Fe69 O83 1.996 1_455 S
Fe69 O86 1.997 1_455 S
O70 Fe69 2.002 . S
O70 C87 1.295 . S
O71 Fe66 1.997 . S
O71 C87 1.235 . S
O72 Fe66 2.002 . S
O72 C73 1.295 . S
C73 O72 1.295 . S
C73 O75 1.248 . S
C74 O79 1.287 . S
C74 O80 1.255 . S
O75 Fe67 1.994 1_455 S
O75 C73 1.248 . S
C76 O82 1.287 . S
C76 O83 1.255 . S
O77 Fe66 1.976 . S
O77 C84 1.287 1_455 S
O78 Fe67 1.996 . S
O78 C84 1.255 . S
O79 Fe69 1.976 . S
O79 C74 1.287 . S
O80 Fe66 1.996 . S
O80 C74 1.255 . S
C81 O85 1.295 . S
C81 O86 1.235 . S
O82 Fe67 1.976 . S
O82 C76 1.287 . S
O83 Fe69 1.996 1_655 S
O83 C76 1.255 . S
C84 O77 1.287 1_655 S
C84 O78 1.255 . S
O85 Fe67 2.002 . S
O85 C81 1.295 . S
O86 Fe69 1.997 1_655 S
O86 C81 1.235 . S
C87 O70 1.295 . S
C87 O71 1.235 . S
Fe88 O90 1.918 . S
Fe88 O93 1.997 . S
Fe88 O94 2.002 . S
Fe88 O99 1.976 . S
Fe88 O102 1.996 . S
Fe89 O90 1.918 . S
Fe89 O97 1.997 . S
Fe89 O100 1.996 . S
Fe89 O104 1.976 . S
Fe89 O107 2.002 . S
O90 Fe88 1.918 . S
O90 Fe89 1.918 . S
O90 Fe91 1.918 . S
Fe91 O90 1.918 . S
Fe91 O92 2.002 . S
Fe91 O101 1.976 . S
Fe91 O105 1.996 . S
Fe91 O108 1.997 . S
O92 Fe91 2.002 . S
O92 C109 1.295 . S
O93 Fe88 1.997 . S
O93 C109 1.235 . S
O94 Fe88 2.002 . S
O94 C95 1.295 . S
C95 O94 1.295 . S
C95 O97 1.235 . S
C96 O101 1.287 . S
C96 O102 1.255 . S
O97 Fe89 1.997 . S
O97 C95 1.235 . S
C98 O104 1.287 . S
C98 O105 1.255 . S
O99 Fe88 1.976 . S
O99 C106 1.287 . S
O100 Fe89 1.996 . S
O100 C106 1.255 . S
O101 Fe91 1.976 . S
O101 C96 1.287 . S
O102 Fe88 1.996 . S
O102 C96 1.255 . S
C103 O107 1.295 . S
C103 O108 1.235 . S
O104 Fe89 1.976 . S
O104 C98 1.287 . S
O105 Fe91 1.996 . S
O105 C98 1.255 . S
C106 O99 1.287 . S
C106 O100 1.255 . S
O107 Fe89 2.002 . S
O107 C103 1.295 . S
O108 Fe91 1.997 . S
O108 C103 1.235 . S
C109 O92 1.295 . S
C109 O93 1.235 . S
Fe110 O112 1.918 . S
Fe110 O115 1.997 . S
Fe110 O116 2.002 . S
Fe110 O121 1.976 . S
Fe110 O124 1.996 . S
Fe111 O112 1.918 . S
Fe111 O119 1.997 . S
Fe111 O122 1.996 . S
Fe111 O126 1.976 1_545 S
Fe111 O129 2.002 1_545 S
O112 Fe110 1.918 . S
O112 Fe111 1.918 . S
O112 Fe113 1.918 1_545 S
Fe113 O112 1.918 1_565 S
Fe113 O114 2.002 . S
Fe113 O123 1.972 1_565 S
Fe113 O127 1.996 . S
Fe113 O130 1.997 . S
O114 Fe113 2.002 . S
O114 C131 1.295 . S
O115 Fe110 1.997 . S
O115 C131 1.235 1_545 S
O116 Fe110 2.002 . S
O116 C117 1.295 . S
C117 O116 1.295 . S
C117 O119 1.235 . S
C118 O123 1.301 . S
C118 O124 1.255 . S
O119 Fe111 1.997 . S
O119 C117 1.235 . S
C120 O126 1.287 . S
C120 O127 1.255 . S
O121 Fe110 1.976 . S
O121 C128 1.287 . S
O122 Fe111 1.996 . S
O122 C128 1.255 . S
O123 Fe113 1.972 1_545 S
O123 C118 1.301 . S
O124 Fe110 1.996 . S
O124 C118 1.255 . S
C125 O129 1.295 . S
C125 O130 1.235 . S
O126 Fe111 1.976 1_565 S
O126 C120 1.287 . S
O127 Fe113 1.996 . S
O127 C120 1.255 . S
C128 O121 1.287 . S
C128 O122 1.255 . S
O129 Fe111 2.002 1_565 S
O129 C125 1.295 . S
O130 Fe113 1.997 . S
O130 C125 1.235 . S
C131 O114 1.295 . S
C131 O115 1.235 1_565 S
Fe132 O134 1.918 . S
Fe132 O137 1.997 . S
Fe132 O138 2.002 . S
Fe132 O143 1.976 . S
Fe132 O146 1.996 . S
Fe133 O134 1.918 . S
Fe133 O141 1.997 . S
Fe133 O144 1.996 1_565 S
Fe133 O148 1.976 . S
Fe133 O151 2.002 . S
O134 Fe132 1.918 . S
O134 Fe133 1.918 . S
O134 Fe135 1.918 . S
Fe135 O134 1.918 . S
Fe135 O136 2.002 . S
Fe135 O145 1.976 . S
Fe135 O149 1.996 . S
Fe135 O152 1.997 . S
O136 Fe135 2.002 . S
O136 C153 1.295 . S
O137 Fe132 1.997 . S
O137 C153 1.235 . S
O138 Fe132 2.002 . S
O138 C139 1.295 . S
C139 O138 1.295 . S
C139 O141 1.235 . S
C140 O145 1.287 . S
C140 O146 1.255 . S
O141 Fe133 1.997 . S
O141 C139 1.235 . S
C142 O148 1.287 . S
C142 O149 1.255 . S
O143 Fe132 1.976 . S
O143 C150 1.287 . S
O144 Fe133 1.996 1_545 S
O144 C150 1.255 1_545 S
O145 Fe135 1.976 . S
O145 C140 1.287 . S
O146 Fe132 1.996 . S
O146 C140 1.255 . S
C147 O151 1.295 . S
C147 O152 1.235 . S
O148 Fe133 1.976 . S
O148 C142 1.287 . S
O149 Fe135 1.996 . S
O149 C142 1.255 . S
C150 O143 1.287 . S
C150 O144 1.255 1_565 S
O151 Fe133 2.002 . S
O151 C147 1.295 . S
O152 Fe135 1.997 . S
O152 C147 1.235 . S
C153 O136 1.295 . S
C153 O137 1.235 . S
Fe154 O156 1.918 . S
Fe154 O159 1.997 . S
Fe154 O160 2.002 . S
Fe154 O165 1.976 . S
Fe154 O168 1.996 . S
Fe155 O156 1.918 . S
Fe155 O163 1.997 . S
Fe155 O166 1.996 . S
Fe155 O170 1.976 . S
Fe155 O173 2.002 . S
O156 Fe154 1.918 . S
O156 Fe155 1.918 . S
O156 Fe157 1.918 . S
Fe157 O156 1.918 . S
Fe157 O158 2.002 . S
Fe157 O167 1.976 . S
Fe157 O171 1.996 . S
Fe157 O174 1.997 . S
O158 Fe157 2.002 . S
O158 C175 1.295 . S
O159 Fe154 1.997 . S
O159 C175 1.235 . S
O160 Fe154 2.002 . S
O160 C161 1.295 . S
C161 O160 1.295 . S
C161 O163 1.235 . S
C162 O167 1.287 . S
C162 O168 1.255 . S
O163 Fe155 1.997 . S
O163 C161 1.235 . S
C164 O170 1.287 . S
C164 O171 1.255 . S
O165 Fe154 1.976 . S
O165 C172 1.287 . S
O166 Fe155 1.996 . S
O166 C172 1.255 . S
O167 Fe157 1.976 . S
O167 C162 1.287 . S
O168 Fe154 1.996 . S
O168 C162 1.255 . S
C169 O173 1.295 . S
C169 O174 1.235 . S
O170 Fe155 1.976 . S
O170 C164 1.287 . S
O171 Fe157 1.996 . S
O171 C164 1.255 . S
C172 O165 1.287 . S
C172 O166 1.255 . S
O173 Fe155 2.002 . S
O173 C169 1.295 . S
O174 Fe157 1.997 . S
O174 C169 1.235 . S
C175 O158 1.295 . S
C175 O159 1.235 . S
Fe176 O178 1.918 . S
Fe176 O181 1.997 . S
Fe176 O182 2.002 . S
Fe176 O187 1.976 . S
Fe176 O190 1.996 . S
Fe177 O178 1.918 . S
Fe177 O185 1.997 . S
Fe177 O188 1.996 . S
Fe177 O192 1.976 . S
Fe177 O195 2.002 . S
O178 Fe176 1.918 . S
O178 Fe177 1.918 . S
O178 Fe179 1.918 . S
Fe179 O178 1.918 . S
Fe179 O180 2.002 . S
Fe179 O189 1.976 . S
Fe179 O193 1.996 . S
Fe179 O196 1.997 . S
O180 Fe179 2.002 . S
O180 C197 1.295 . S
O181 Fe176 1.997 . S
O181 C197 1.235 . S
O182 Fe176 2.002 . S
O182 C183 1.295 . S
C183 O182 1.295 . S
C183 O185 1.235 . S
C184 O189 1.287 . S
C184 O190 1.255 . S
O185 Fe177 1.997 . S
O185 C183 1.235 . S
C186 O192 1.287 . S
C186 O193 1.255 . S
O187 Fe176 1.976 . S
O187 C194 1.287 . S
O188 Fe177 1.996 . S
O188 C194 1.255 . S
O189 Fe179 1.976 . S
O189 C184 1.287 . S
O190 Fe176 1.996 . S
O190 C184 1.255 . S
C191 O195 1.295 . S
C191 O196 1.235 . S
O192 Fe177 1.976 . S
O192 C186 1.287 . S
O193 Fe179 1.996 . S
O193 C186 1.255 . S
C194 O187 1.287 . S
C194 O188 1.255 . S
O195 Fe177 2.002 . S
O195 C191 1.295 . S
O196 Fe179 1.997 . S
O196 C191 1.235 . S
C197 O180 1.295 . S
C197 O181 1.235 . S
Fe198 O200 1.918 . S
Fe198 O203 1.997 . S
Fe198 O204 2.002 . S
Fe198 O209 1.976 . S
Fe198 O212 1.996 . S
Fe199 O200 1.918 . S
Fe199 O207 1.997 . S
Fe199 O210 1.996 . S
Fe199 O214 1.976 . S
Fe199 O217 2.002 . S
O200 Fe198 1.918 . S
O200 Fe199 1.918 . S
O200 Fe201 1.918 . S
Fe201 O200 1.918 . S
Fe201 O202 2.002 . S
Fe201 O211 1.976 . S
Fe201 O215 1.996 . S
Fe201 O218 1.997 . S
O202 Fe201 2.002 . S
O202 C219 1.295 . S
O203 Fe198 1.997 . S
O203 C219 1.235 . S
O204 Fe198 2.002 . S
O204 C205 1.295 . S
C205 O204 1.295 . S
C205 O207 1.235 . S
C206 O211 1.287 . S
C206 O212 1.255 . S
O207 Fe199 1.997 . S
O207 C205 1.235 . S
C208 O214 1.287 . S
C208 O215 1.255 . S
O209 Fe198 1.976 . S
O209 C216 1.287 . S
O210 Fe199 1.996 . S
O210 C216 1.255 . S
O211 Fe201 1.976 . S
O211 C206 1.287 . S
O212 Fe198 1.996 . S
O212 C206 1.255 . S
C213 O217 1.295 . S
C213 O218 1.235 . S
O214 Fe199 1.976 . S
O214 C208 1.287 . S
O215 Fe201 1.996 . S
O215 C208 1.255 . S
C216 O209 1.287 . S
C216 O210 1.255 . S
O217 Fe199 2.002 . S
O217 C213 1.295 . S
O218 Fe201 1.997 . S
O218 C213 1.235 . S
C219 O202 1.295 . S
C219 O203 1.235 . S
Fe220 O222 1.918 . S
Fe220 O225 1.997 . S
Fe220 O226 2.002 . S
Fe220 O231 1.976 . S
Fe220 O234 1.996 . S
Fe221 O222 1.918 . S
Fe221 O229 1.997 . S
Fe221 O232 1.996 . S
Fe221 O236 1.976 . S
Fe221 O239 2.002 . S
O222 Fe220 1.918 . S
O222 Fe221 1.918 . S
O222 Fe223 1.918 . S
Fe223 O222 1.918 . S
Fe223 O224 2.002 . S
Fe223 O233 1.976 . S
Fe223 O237 1.996 1_565 S
Fe223 O240 1.997 . S
O224 Fe223 2.002 . S
O224 C241 1.295 . S
O225 Fe220 1.997 . S
O225 C241 1.235 . S
O226 Fe220 2.002 . S
O226 C227 1.295 . S
C227 O226 1.295 . S
C227 O229 1.235 . S
C228 O233 1.287 . S
C228 O234 1.255 . S
O229 Fe221 1.997 . S
O229 C227 1.235 . S
C230 O236 1.287 . S
C230 O237 1.255 1_565 S
O231 Fe220 1.976 . S
O231 C238 1.287 . S
O232 Fe221 1.996 . S
O232 C238 1.255 . S
O233 Fe223 1.976 . S
O233 C228 1.287 . S
O234 Fe220 1.996 . S
O234 C228 1.255 . S
C235 O239 1.295 . S
C235 O240 1.235 . S
O236 Fe221 1.976 . S
O236 C230 1.287 . S
O237 Fe223 1.996 1_545 S
O237 C230 1.255 1_545 S
C238 O231 1.287 . S
C238 O232 1.255 . S
O239 Fe221 2.002 . S
O239 C235 1.295 . S
O240 Fe223 1.997 . S
O240 C235 1.235 . S
C241 O224 1.295 . S
C241 O225 1.235 . S
Fe242 O244 1.918 . S
Fe242 O247 1.997 . S
Fe242 O248 2.002 . S
Fe242 O253 1.976 . S
Fe242 O256 1.996 . S
Fe243 O244 1.918 . S
Fe243 O251 1.997 . S
Fe243 O254 1.996 . S
Fe243 O258 1.976 . S
Fe243 O261 2.002 . S
O244 Fe242 1.918 . S
O244 Fe243 1.918 . S
O244 Fe245 1.918 . S
Fe245 O244 1.918 . S
Fe245 O246 2.002 . S
Fe245 O255 1.976 . S
Fe245 O259 1.996 . S
Fe245 O262 1.997 . S
O246 Fe245 2.002 . S
O246 C263 1.295 . S
O247 Fe242 1.997 . S
O247 C263 1.235 . S
O248 Fe242 2.002 . S
O248 C249 1.295 . S
C249 O248 1.295 . S
C249 O251 1.235 . S
C250 O255 1.287 . S
C250 O256 1.255 . S
O251 Fe243 1.997 . S
O251 C249 1.235 . S
C252 O258 1.287 . S
C252 O259 1.255 . S
O253 Fe242 1.976 . S
O253 C260 1.287 . S
O254 Fe243 1.996 . S
O254 C260 1.255 . S
O255 Fe245 1.976 . S
O255 C250 1.287 . S
O256 Fe242 1.996 . S
O256 C250 1.255 . S
C257 O261 1.295 . S
C257 O262 1.235 . S
O258 Fe243 1.976 . S
O258 C252 1.287 . S
O259 Fe245 1.996 . S
O259 C252 1.255 . S
C260 O253 1.287 . S
C260 O254 1.255 . S
O261 Fe243 2.002 . S
O261 C257 1.295 . S
O262 Fe245 1.997 . S
O262 C257 1.235 . S
C263 O246 1.295 . S
C263 O247 1.235 . S
Fe264 O266 1.918 . S
Fe264 O269 1.997 . S
Fe264 O270 2.002 . S
Fe264 O275 1.976 . S
Fe264 O278 1.996 . S
Fe265 O266 1.918 . S
Fe265 O273 1.997 . S
Fe265 O276 1.996 . S
Fe265 O280 1.976 . S
Fe265 O283 2.002 . S
O266 Fe264 1.918 . S
O266 Fe265 1.918 . S
O266 Fe267 1.918 . S
Fe267 O266 1.918 . S
Fe267 O268 2.002 . S
Fe267 O277 1.976 . S
Fe267 O281 1.996 . S
Fe267 O284 1.997 . S
O268 Fe267 2.002 . S
O268 C285 1.295 . S
O269 Fe264 1.997 . S
O269 C285 1.235 . S
O270 Fe264 2.002 . S
O270 C271 1.295 . S
C271 O270 1.295 . S
C271 O273 1.235 . S
C272 O277 1.287 . S
C272 O278 1.255 . S
O273 Fe265 1.997 . S
O273 C271 1.235 . S
C274 O280 1.287 . S
C274 O281 1.255 . S
O275 Fe264 1.976 . S
O275 C282 1.287 . S
O276 Fe265 1.996 . S
O276 C282 1.255 . S
O277 Fe267 1.976 . S
O277 C272 1.287 . S
O278 Fe264 1.996 . S
O278 C272 1.255 . S
C279 O283 1.295 . S
C279 O284 1.235 . S
O280 Fe265 1.976 . S
O280 C274 1.287 . S
O281 Fe267 1.996 . S
O281 C274 1.255 . S
C282 O275 1.287 . S
C282 O276 1.255 . S
O283 Fe265 2.002 . S
O283 C279 1.295 . S
O284 Fe267 1.997 . S
O284 C279 1.235 . S
C285 O268 1.295 . S
C285 O269 1.235 . S
Fe286 O288 1.918 . S
Fe286 O291 1.997 . S
Fe286 O292 2.002 . S
Fe286 O297 1.976 . S
Fe286 O300 1.996 . S
Fe287 O288 1.918 . S
Fe287 O295 1.997 . S
Fe287 O298 1.996 . S
Fe287 O302 1.976 . S
Fe287 O305 2.002 . S
O288 Fe286 1.918 . S
O288 Fe287 1.918 . S
O288 Fe289 1.918 . S
Fe289 O288 1.918 . S
Fe289 O290 2.002 . S
Fe289 O299 1.976 . S
Fe289 O303 1.996 . S
Fe289 O306 1.997 . S
O290 Fe289 2.002 . S
O290 C307 1.295 . S
O291 Fe286 1.997 . S
O291 C307 1.235 . S
O292 Fe286 2.002 . S
O292 C293 1.295 . S
C293 O292 1.295 . S
C293 O295 1.235 . S
C294 O299 1.287 . S
C294 O300 1.255 . S
O295 Fe287 1.997 . S
O295 C293 1.235 . S
C296 O302 1.287 . S
C296 O303 1.255 . S
O297 Fe286 1.976 . S
O297 C304 1.287 . S
O298 Fe287 1.996 . S
O298 C304 1.255 . S
O299 Fe289 1.976 . S
O299 C294 1.287 . S
O300 Fe286 1.996 . S
O300 C294 1.255 . S
C301 O305 1.295 . S
C301 O306 1.235 . S
O302 Fe287 1.976 . S
O302 C296 1.287 . S
O303 Fe289 1.996 . S
O303 C296 1.255 . S
C304 O297 1.287 . S
C304 O298 1.255 . S
O305 Fe287 2.002 . S
O305 C301 1.295 . S
O306 Fe289 1.997 . S
O306 C301 1.235 . S
C307 O290 1.295 . S
C307 O291 1.235 . S
Fe308 O310 1.918 . S
Fe308 O313 1.997 . S
Fe308 O314 2.006 . S
Fe308 O319 1.976 . S
Fe308 O322 1.996 . S
Fe309 O310 1.918 . S
Fe309 O317 1.997 . S
Fe309 O320 1.996 . S
Fe309 O324 1.976 . S
Fe309 O327 2.002 . S
O310 Fe308 1.918 . S
O310 Fe309 1.918 . S
O310 Fe311 1.918 . S
Fe311 O310 1.918 . S
Fe311 O312 2.002 . S
Fe311 O321 1.976 . S
Fe311 O325 1.996 . S
Fe311 O328 1.997 . S
O312 Fe311 2.002 . S
O312 C329 1.295 . S
O313 Fe308 1.997 . S
O313 C329 1.235 . S
O314 Fe308 2.006 . S
O314 C315 1.314 . S
C315 O314 1.314 . S
C315 O317 1.235 . S
C316 O321 1.287 . S
C316 O322 1.255 . S
O317 Fe309 1.997 . S
O317 C315 1.235 . S
C318 O324 1.287 . S
C318 O325 1.255 . S
O319 Fe308 1.976 . S
O319 C326 1.287 . S
O320 Fe309 1.996 . S
O320 C326 1.255 . S
O321 Fe311 1.976 . S
O321 C316 1.287 . S
O322 Fe308 1.996 . S
O322 C316 1.255 . S
C323 O327 1.295 . S
C323 O328 1.235 . S
O324 Fe309 1.976 . S
O324 C318 1.287 . S
O325 Fe311 1.996 . S
O325 C318 1.255 . S
C326 O319 1.287 . S
C326 O320 1.255 . S
O327 Fe309 2.002 . S
O327 C323 1.295 . S
O328 Fe311 1.997 . S
O328 C323 1.235 . S
C329 O312 1.295 . S
C329 O313 1.235 . S
Fe330 O332 1.918 . S
Fe330 O335 1.997 . S
Fe330 O336 2.002 . S
Fe330 O341 1.976 . S
Fe330 O344 1.996 . S
Fe331 O332 1.918 . S
Fe331 O339 1.997 . S
Fe331 O342 1.996 . S
Fe331 O346 1.976 . S
Fe331 O349 2.002 . S
O332 Fe330 1.918 . S
O332 Fe331 1.918 . S
O332 Fe333 1.918 . S
Fe333 O332 1.918 . S
Fe333 O334 2.002 . S
Fe333 O343 1.976 . S
Fe333 O347 1.996 . S
Fe333 O350 1.997 . S
O334 Fe333 2.002 . S
O334 C351 1.295 . S
O335 Fe330 1.997 . S
O335 C351 1.235 . S
O336 Fe330 2.002 . S
O336 C337 1.295 . S
C337 O336 1.295 . S
C337 O339 1.235 . S
C338 O343 1.287 . S
C338 O344 1.255 . S
O339 Fe331 1.997 . S
O339 C337 1.235 . S
C340 O346 1.287 . S
C340 O347 1.255 . S
O341 Fe330 1.976 . S
O341 C348 1.287 . S
O342 Fe331 1.996 . S
O342 C348 1.255 . S
O343 Fe333 1.976 . S
O343 C338 1.287 . S
O344 Fe330 1.996 . S
O344 C338 1.255 . S
C345 O349 1.295 . S
C345 O350 1.235 . S
O346 Fe331 1.976 . S
O346 C340 1.287 . S
O347 Fe333 1.996 . S
O347 C340 1.255 . S
C348 O341 1.287 . S
C348 O342 1.255 . S
O349 Fe331 2.002 . S
O349 C345 1.295 . S
O350 Fe333 1.997 . S
O350 C345 1.235 . S
C351 O334 1.295 . S
C351 O335 1.235 . S
Fe352 O354 1.918 . S
Fe352 O357 1.997 . S
Fe352 O358 2.002 . S
Fe352 O363 1.976 . S
Fe352 O366 1.996 . S
Fe353 O354 1.918 . S
Fe353 O361 1.997 . S
Fe353 O364 1.996 . S
Fe353 O368 1.976 . S
Fe353 O371 2.023 . S
O354 Fe352 1.918 . S
O354 Fe353 1.918 . S
O354 Fe355 1.918 . S
Fe355 O354 1.918 . S
Fe355 O356 2.002 . S
Fe355 O365 1.976 . S
Fe355 O369 1.996 . S
Fe355 O372 1.997 . S
O356 Fe355 2.002 . S
O356 C373 1.295 . S
O357 Fe352 1.997 . S
O357 C373 1.235 . S
O358 Fe352 2.002 . S
O358 C359 1.295 . S
C359 O358 1.295 . S
C359 O361 1.235 . S
C360 O365 1.287 . S
C360 O366 1.255 . S
O361 Fe353 1.997 . S
O361 C359 1.235 . S
C362 O368 1.287 . S
C362 O369 1.255 . S
O363 Fe352 1.976 . S
O363 C370 1.287 . S
O364 Fe353 1.996 . S
O364 C370 1.255 . S
O365 Fe355 1.976 . S
O365 C360 1.287 . S
O366 Fe352 1.996 . S
O366 C360 1.255 . S
C367 O371 1.287 . S
C367 O372 1.235 . S
O368 Fe353 1.976 . S
O368 C362 1.287 . S
O369 Fe355 1.996 . S
O369 C362 1.255 . S
C370 O363 1.287 . S
C370 O364 1.255 . S
O371 Fe353 2.023 . S
O371 C367 1.287 . S
O372 Fe355 1.997 . S
O372 C367 1.235 . S
C373 O356 1.295 . S
C373 O357 1.235 . S
Fe374 O376 1.918 . S
Fe374 O379 1.997 . S
Fe374 O380 2.002 . S
Fe374 O385 1.976 . S
Fe374 O388 1.996 . S
Fe375 O376 1.918 . S
Fe375 O383 1.997 . S
Fe375 O386 1.996 . S
Fe375 O390 1.976 . S
Fe375 O393 2.002 . S
O376 Fe374 1.918 . S
O376 Fe375 1.918 . S
O376 Fe377 1.918 . S
Fe377 O376 1.918 . S
Fe377 O378 2.002 . S
Fe377 O387 1.976 . S
Fe377 O391 1.996 . S
Fe377 O394 1.997 . S
O378 Fe377 2.002 . S
O378 C395 1.295 . S
O379 Fe374 1.997 . S
O379 C395 1.235 . S
O380 Fe374 2.002 . S
O380 C381 1.295 . S
C381 O380 1.295 . S
C381 O383 1.235 . S
C382 O387 1.287 . S
C382 O388 1.255 . S
O383 Fe375 1.997 . S
O383 C381 1.235 . S
C384 O390 1.287 . S
C384 O391 1.255 . S
O385 Fe374 1.976 . S
O385 C392 1.287 . S
O386 Fe375 1.996 . S
O386 C392 1.255 . S
O387 Fe377 1.976 . S
O387 C382 1.287 . S
O388 Fe374 1.996 . S
O388 C382 1.255 . S
C389 O393 1.295 . S
C389 O394 1.235 . S
O390 Fe375 1.976 . S
O390 C384 1.287 . S
O391 Fe377 1.996 . S
O391 C384 1.255 . S
C392 O385 1.287 . S
C392 O386 1.255 . S
O393 Fe375 2.002 . S
O393 C389 1.295 . S
O394 Fe377 1.997 . S
O394 C389 1.235 . S
C395 O378 1.295 . S
C395 O379 1.235 . S
H396 C408 0.930 . S
H397 C410 0.930 . S
H398 C411 0.930 . S
H399 C415 0.959 . S
H400 C415 0.959 . S
H401 C415 0.961 . S
H402 C416 0.960 . S
H403 C416 0.961 . S
H404 C416 0.959 . S
H405 C419 0.929 . S
H406 C420 0.931 . S
H407 C422 0.930 . S
C408 H396 0.930 . S
C408 C409 1.399 . S
C408 C413 1.399 . S
C409 C408 1.399 . S
C409 C410 1.376 . S
C410 H397 0.930 . S
C410 C409 1.376 . S
C410 C411 1.388 . S
C411 H398 0.930 . S
C411 C410 1.388 . S
C411 C412 1.390 . S
C412 C411 1.390 . S
C412 C413 1.394 . S
C412 C418 1.465 . S
C413 C408 1.399 . S
C413 C412 1.394 . S
C413 C414 1.516 . S
C414 C413 1.516 . S
C414 C415 1.502 . S
C414 C416 1.561 . S
C414 C417 1.526 . S
C415 H399 0.959 . S
C415 H400 0.959 . S
C415 H401 0.961 . S
C415 C414 1.502 . S
C416 H402 0.960 . S
C416 H403 0.961 . S
C416 H404 0.959 . S
C416 C414 1.561 . S
C417 C414 1.526 . S
C417 C418 1.396 . S
C417 C422 1.390 . S
C418 C412 1.465 . S
C418 C417 1.396 . S
C418 C419 1.399 . S
C419 H405 0.929 . S
C419 C418 1.399 . S
C419 C420 1.385 . S
C420 H406 0.931 . S
C420 C419 1.385 . S
C420 C421 1.389 . S
C421 C420 1.389 . S
C421 C422 1.387 . S
C422 H407 0.930 . S
C422 C417 1.390 . S
C422 C421 1.387 . S
H423 C435 0.930 . S
H424 C437 0.930 . S
H425 C438 0.930 . S
H426 C442 0.959 . S
H427 C442 0.959 . S
H428 C442 0.961 . S
H429 C443 0.960 . S
H430 C443 0.961 . S
H431 C443 0.959 . S
H432 C446 0.929 . S
H433 C447 0.931 . S
H434 C449 0.930 . S
C435 H423 0.930 . S
C435 C436 1.399 . S
C435 C440 1.399 . S
C436 C435 1.399 . S
C436 C437 1.376 . S
C437 H424 0.930 . S
C437 C436 1.376 . S
C437 C438 1.388 . S
C438 H425 0.930 . S
C438 C437 1.388 . S
C438 C439 1.390 . S
C439 C438 1.390 . S
C439 C440 1.394 . S
C439 C445 1.465 . S
C440 C435 1.399 . S
C440 C439 1.394 . S
C440 C441 1.516 . S
C441 C440 1.516 . S
C441 C442 1.502 . S
C441 C443 1.561 . S
C441 C444 1.526 . S
C442 H426 0.959 . S
C442 H427 0.959 . S
C442 H428 0.961 . S
C442 C441 1.502 . S
C443 H429 0.960 . S
C443 H430 0.961 . S
C443 H431 0.959 . S
C443 C441 1.561 . S
C444 C441 1.526 . S
C444 C445 1.396 . S
C444 C449 1.390 . S
C445 C439 1.465 . S
C445 C444 1.396 . S
C445 C446 1.399 . S
C446 H432 0.929 . S
C446 C445 1.399 . S
C446 C447 1.385 . S
C447 H433 0.931 . S
C447 C446 1.385 . S
C447 C448 1.389 . S
C448 C447 1.389 . S
C448 C449 1.387 . S
C449 H434 0.930 . S
C449 C444 1.390 . S
C449 C448 1.387 . S
H450 C462 0.930 . S
H451 C464 0.930 . S
H452 C465 0.930 1_545 S
H453 C469 0.959 . S
H454 C469 0.959 . S
H455 C469 0.961 . S
H456 C470 0.960 . S
H457 C470 0.961 . S
H458 C470 0.959 . S
H459 C473 0.929 . S
H460 C474 0.931 . S
H461 C476 0.930 . S
C462 H450 0.930 . S
C462 C463 1.399 . S
C462 C467 1.399 . S
C463 C462 1.399 . S
C463 C464 1.376 1_565 S
C464 H451 0.930 . S
C464 C463 1.376 1_545 S
C464 C465 1.388 1_545 S
C465 H452 0.930 1_565 S
C465 C464 1.388 1_565 S
C465 C466 1.390 . S
C466 C465 1.390 . S
C466 C467 1.394 . S
C466 C472 1.465 . S
C467 C462 1.399 . S
C467 C466 1.394 . S
C467 C468 1.516 . S
C468 C467 1.516 . S
C468 C469 1.502 . S
C468 C470 1.561 . S
C468 C471 1.526 . S
C469 H453 0.959 . S
C469 H454 0.959 . S
C469 H455 0.961 . S
C469 C468 1.502 . S
C470 H456 0.960 . S
C470 H457 0.961 . S
C470 H458 0.959 . S
C470 C468 1.561 . S
C471 C468 1.526 . S
C471 C472 1.396 . S
C471 C476 1.390 . S
C472 C466 1.465 . S
C472 C471 1.396 . S
C472 C473 1.399 . S
C473 H459 0.929 . S
C473 C472 1.399 . S
C473 C474 1.385 . S
C474 H460 0.931 . S
C474 C473 1.385 . S
C474 C475 1.389 . S
C475 C474 1.389 . S
C475 C476 1.387 . S
C476 H461 0.930 . S
C476 C471 1.390 . S
C476 C475 1.387 . S
H477 C489 0.930 . S
H478 C491 0.930 . S
H479 C492 0.930 . S
H480 C496 0.959 . S
H481 C496 0.959 . S
H482 C496 0.961 . S
H483 C497 0.960 . S
H484 C497 0.961 . S
H485 C497 0.959 . S
H486 C500 0.929 1_565 S
H487 C501 0.931 1_565 S
H488 C503 0.930 . S
C489 H477 0.930 . S
C489 C490 1.399 . S
C489 C494 1.399 . S
C490 C489 1.399 . S
C490 C491 1.376 . S
C491 H478 0.930 . S
C491 C490 1.376 . S
C491 C492 1.388 . S
C492 H479 0.930 . S
C492 C491 1.388 . S
C492 C493 1.390 . S
C493 C492 1.390 . S
C493 C494 1.394 . S
C493 C499 1.465 . S
C494 C489 1.399 . S
C494 C493 1.394 . S
C494 C495 1.516 . S
C495 C494 1.516 . S
C495 C496 1.502 . S
C495 C497 1.561 . S
C495 C498 1.526 . S
C496 H480 0.959 . S
C496 H481 0.959 . S
C496 H482 0.961 . S
C496 C495 1.502 . S
C497 H483 0.960 . S
C497 H484 0.961 . S
C497 H485 0.959 . S
C497 C495 1.561 . S
C498 C495 1.526 . S
C498 C499 1.396 . S
C498 C503 1.390 . S
C499 C493 1.465 . S
C499 C498 1.396 . S
C499 C500 1.399 . S
C500 H486 0.929 1_545 S
C500 C499 1.399 . S
C500 C501 1.385 . S
C501 H487 0.931 1_545 S
C501 C500 1.385 . S
C501 C502 1.389 . S
C502 C501 1.389 . S
C502 C503 1.387 . S
C503 H488 0.930 . S
C503 C498 1.390 . S
C503 C502 1.387 . S
H504 C516 0.930 1_455 S
H505 C518 0.930 . S
H506 C519 0.930 . S
H507 C523 0.959 . S
H508 C523 0.959 . S
H509 C523 0.961 . S
H510 C524 0.960 . S
H511 C524 0.961 . S
H512 C524 0.959 . S
H513 C527 0.929 . S
H514 C528 0.931 . S
H515 C530 0.930 . S
C516 H504 0.930 1_655 S
C516 C517 1.399 . S
C516 C521 1.399 . S
C517 C516 1.399 . S
C517 C518 1.376 . S
C518 H505 0.930 . S
C518 C517 1.376 . S
C518 C519 1.388 . S
C519 H506 0.930 . S
C519 C518 1.388 . S
C519 C520 1.390 . S
C520 C519 1.390 . S
C520 C521 1.394 . S
C520 C526 1.465 . S
C521 C516 1.399 . S
C521 C520 1.394 . S
C521 C522 1.516 . S
C522 C521 1.516 . S
C522 C523 1.502 1_655 S
C522 C524 1.561 . S
C522 C525 1.526 . S
C523 H507 0.959 . S
C523 H508 0.959 . S
C523 H509 0.961 . S
C523 C522 1.502 1_455 S
C524 H510 0.960 . S
C524 H511 0.961 . S
C524 H512 0.959 . S
C524 C522 1.561 . S
C525 C522 1.526 . S
C525 C526 1.396 . S
C525 C530 1.390 . S
C526 C520 1.465 . S
C526 C525 1.396 . S
C526 C527 1.399 . S
C527 H513 0.929 . S
C527 C526 1.399 . S
C527 C528 1.385 . S
C528 H514 0.931 . S
C528 C527 1.385 . S
C528 C529 1.389 . S
C529 C528 1.389 . S
C529 C530 1.387 . S
C530 H515 0.930 . S
C530 C525 1.390 . S
C530 C529 1.387 . S
H531 C543 0.930 . S
H532 C545 0.930 . S
H533 C546 0.930 . S
H534 C550 0.959 . S
H535 C550 0.959 . S
H536 C550 0.961 . S
H537 C551 0.960 . S
H538 C551 0.961 . S
H539 C551 0.959 . S
H540 C554 0.929 . S
H541 C555 0.931 . S
H542 C557 0.930 . S
C543 H531 0.930 . S
C543 C544 1.399 . S
C543 C548 1.399 . S
C544 C543 1.399 . S
C544 C545 1.376 . S
C545 H532 0.930 . S
C545 C544 1.376 . S
C545 C546 1.388 . S
C546 H533 0.930 . S
C546 C545 1.388 . S
C546 C547 1.390 . S
C547 C546 1.390 . S
C547 C548 1.394 . S
C547 C553 1.465 . S
C548 C543 1.399 . S
C548 C547 1.394 . S
C548 C549 1.516 . S
C549 C548 1.516 . S
C549 C550 1.502 . S
C549 C551 1.561 . S
C549 C552 1.526 . S
C550 H534 0.959 . S
C550 H535 0.959 . S
C550 H536 0.961 . S
C550 C549 1.502 . S
C551 H537 0.960 . S
C551 H538 0.961 . S
C551 H539 0.959 . S
C551 C549 1.561 . S
C552 C549 1.526 . S
C552 C553 1.396 . S
C552 C557 1.390 . S
C553 C547 1.465 . S
C553 C552 1.396 . S
C553 C554 1.399 . S
C554 H540 0.929 . S
C554 C553 1.399 . S
C554 C555 1.385 . S
C555 H541 0.931 . S
C555 C554 1.385 . S
C555 C556 1.389 . S
C556 C555 1.389 . S
C556 C557 1.387 . S
C557 H542 0.930 . S
C557 C552 1.390 . S
C557 C556 1.387 . S
H558 C570 0.930 . S
H559 C572 0.930 . S
H560 C573 0.930 . S
H561 C577 0.959 . S
H562 C577 0.959 . S
H563 C577 0.961 . S
H564 C578 0.960 . S
H565 C578 0.961 . S
H566 C578 0.959 . S
H567 C581 0.929 . S
H568 C582 0.931 . S
H569 C584 0.939 . S
C570 H558 0.930 . S
C570 C571 1.399 . S
C570 C575 1.399 . S
C571 C570 1.399 . S
C571 C572 1.376 . S
C572 H559 0.930 . S
C572 C571 1.376 . S
C572 C573 1.388 . S
C573 H560 0.930 . S
C573 C572 1.388 . S
C573 C574 1.390 . S
C574 C573 1.390 . S
C574 C575 1.394 . S
C574 C580 1.465 . S
C575 C570 1.399 . S
C575 C574 1.394 . S
C575 C576 1.516 . S
C576 C575 1.516 . S
C576 C577 1.502 1_655 S
C576 C578 1.561 . S
C576 C579 1.526 . S
C577 H561 0.959 . S
C577 H562 0.959 . S
C577 H563 0.961 . S
C577 C576 1.502 1_455 S
C578 H564 0.960 . S
C578 H565 0.961 . S
C578 H566 0.959 . S
C578 C576 1.561 . S
C579 C576 1.526 . S
C579 C580 1.396 . S
C579 C584 1.390 . S
C580 C574 1.465 . S
C580 C579 1.396 . S
C580 C581 1.399 . S
C581 H567 0.929 . S
C581 C580 1.399 . S
C581 C582 1.385 . S
C582 H568 0.931 . S
C582 C581 1.385 . S
C582 C583 1.389 . S
C583 C582 1.389 . S
C583 C584 1.387 . S
C584 H569 0.939 . S
C584 C579 1.390 . S
C584 C583 1.387 . S
H585 C597 0.930 . S
H586 C599 0.930 . S
H587 C600 0.930 . S
H588 C604 0.959 . S
H589 C604 0.959 . S
H590 C604 0.961 . S
H591 C605 0.960 . S
H592 C605 0.961 . S
H593 C605 0.959 . S
H594 C608 0.929 . S
H595 C609 0.931 . S
H596 C611 0.930 . S
C597 H585 0.930 . S
C597 C598 1.399 . S
C597 C602 1.399 . S
C598 C597 1.399 . S
C598 C599 1.376 . S
C599 H586 0.930 . S
C599 C598 1.376 . S
C599 C600 1.388 . S
C600 H587 0.930 . S
C600 C599 1.388 . S
C600 C601 1.390 . S
C601 C600 1.390 . S
C601 C602 1.394 . S
C601 C607 1.465 . S
C602 C597 1.399 . S
C602 C601 1.394 . S
C602 C603 1.516 . S
C603 C602 1.516 . S
C603 C604 1.502 . S
C603 C605 1.561 . S
C603 C606 1.526 . S
C604 H588 0.959 . S
C604 H589 0.959 . S
C604 H590 0.961 . S
C604 C603 1.502 . S
C605 H591 0.960 . S
C605 H592 0.961 . S
C605 H593 0.959 . S
C605 C603 1.561 . S
C606 C603 1.526 . S
C606 C607 1.396 . S
C606 C611 1.390 . S
C607 C601 1.465 . S
C607 C606 1.396 . S
C607 C608 1.399 . S
C608 H594 0.929 . S
C608 C607 1.399 . S
C608 C609 1.385 . S
C609 H595 0.931 . S
C609 C608 1.385 . S
C609 C610 1.389 . S
C610 C609 1.389 . S
C610 C611 1.387 . S
C611 H596 0.930 . S
C611 C606 1.390 . S
C611 C610 1.387 . S
H612 C624 0.930 . S
H613 C626 0.930 . S
H614 C627 0.930 . S
H615 C631 0.959 . S
H616 C631 0.959 . S
H617 C631 0.961 . S
H618 C632 0.960 1_565 S
H619 C632 0.961 . S
H620 C632 0.959 . S
H621 C635 0.929 . S
H622 C636 0.931 . S
H623 C638 0.930 . S
C624 H612 0.930 . S
C624 C625 1.399 . S
C624 C629 1.399 . S
C625 C624 1.399 . S
C625 C626 1.376 . S
C626 H613 0.930 . S
C626 C625 1.376 . S
C626 C627 1.388 . S
C627 H614 0.930 . S
C627 C626 1.388 . S
C627 C628 1.390 . S
C628 C627 1.390 . S
C628 C629 1.394 . S
C628 C634 1.465 . S
C629 C624 1.399 . S
C629 C628 1.394 . S
C629 C630 1.516 . S
C630 C629 1.516 . S
C630 C631 1.502 . S
C630 C632 1.561 . S
C630 C633 1.526 . S
C631 H615 0.959 . S
C631 H616 0.959 . S
C631 H617 0.961 . S
C631 C630 1.502 . S
C632 H618 0.960 1_545 S
C632 H619 0.961 . S
C632 H620 0.959 . S
C632 C630 1.561 . S
C633 C630 1.526 . S
C633 C634 1.396 . S
C633 C638 1.390 . S
C634 C628 1.465 . S
C634 C633 1.396 . S
C634 C635 1.399 . S
C635 H621 0.929 . S
C635 C634 1.399 . S
C635 C636 1.385 . S
C636 H622 0.931 . S
C636 C635 1.385 . S
C636 C637 1.389 . S
C637 C636 1.389 . S
C637 C638 1.387 . S
C638 H623 0.930 . S
C638 C633 1.390 . S
C638 C637 1.387 . S
H639 C651 0.930 . S
H640 C653 0.930 . S
H641 C654 0.945 . S
H642 C658 0.959 . S
H643 C658 0.959 . S
H644 C658 0.961 . S
H645 C659 0.960 . S
H646 C659 0.961 . S
H647 C659 0.959 . S
H648 C662 0.929 . S
H649 C663 0.931 . S
H650 C665 0.930 . S
C651 H639 0.930 . S
C651 C652 1.399 . S
C651 C656 1.399 . S
C652 C651 1.399 . S
C652 C653 1.376 . S
C653 H640 0.930 . S
C653 C652 1.376 . S
C653 C654 1.388 . S
C654 H641 0.945 . S
C654 C653 1.388 . S
C654 C655 1.390 . S
C655 C654 1.390 . S
C655 C656 1.394 . S
C655 C661 1.465 . S
C656 C651 1.399 . S
C656 C655 1.394 . S
C656 C657 1.516 . S
C657 C656 1.516 . S
C657 C658 1.502 . S
C657 C659 1.561 . S
C657 C660 1.526 . S
C658 H642 0.959 . S
C658 H643 0.959 . S
C658 H644 0.961 . S
C658 C657 1.502 . S
C659 H645 0.960 . S
C659 H646 0.961 . S
C659 H647 0.959 . S
C659 C657 1.561 . S
C660 C657 1.526 . S
C660 C661 1.396 . S
C660 C665 1.390 . S
C661 C655 1.465 . S
C661 C660 1.396 . S
C661 C662 1.399 1_565 S
C662 H648 0.929 . S
C662 C661 1.399 1_545 S
C662 C663 1.385 . S
C663 H649 0.931 . S
C663 C662 1.385 . S
C663 C664 1.389 1_545 S
C664 C663 1.389 1_565 S
C664 C665 1.387 . S
C665 H650 0.930 . S
C665 C660 1.390 . S
C665 C664 1.387 . S
H666 C678 0.930 . S
H667 C680 0.930 . S
H668 C681 0.930 . S
H669 C685 0.959 . S
H670 C685 0.959 . S
H671 C685 0.961 . S
H672 C686 0.960 . S
H673 C686 0.961 . S
H674 C686 0.959 . S
H675 C689 0.929 . S
H676 C690 0.931 . S
H677 C692 0.930 . S
C678 H666 0.930 . S
C678 C679 1.399 . S
C678 C683 1.399 . S
C679 C678 1.399 . S
C679 C680 1.376 . S
C680 H667 0.930 . S
C680 C679 1.376 . S
C680 C681 1.388 . S
C681 H668 0.930 . S
C681 C680 1.388 . S
C681 C682 1.390 . S
C682 C681 1.390 . S
C682 C683 1.394 . S
C682 C688 1.465 . S
C683 C678 1.399 . S
C683 C682 1.394 . S
C683 C684 1.516 . S
C684 C683 1.516 . S
C684 C685 1.502 . S
C684 C686 1.561 . S
C684 C687 1.526 . S
C685 H669 0.959 . S
C685 H670 0.959 . S
C685 H671 0.961 . S
C685 C684 1.502 . S
C686 H672 0.960 . S
C686 H673 0.961 . S
C686 H674 0.959 . S
C686 C684 1.561 . S
C687 C684 1.526 . S
C687 C688 1.396 . S
C687 C692 1.390 . S
C688 C682 1.465 . S
C688 C687 1.396 . S
C688 C689 1.399 . S
C689 H675 0.929 . S
C689 C688 1.399 . S
C689 C690 1.385 . S
C690 H676 0.931 . S
C690 C689 1.385 . S
C690 C691 1.389 . S
C691 C690 1.389 . S
C691 C692 1.387 . S
C692 H677 0.930 . S
C692 C687 1.390 . S
C692 C691 1.387 . S
H693 C705 0.930 . S
H694 C707 0.930 . S
H695 C708 0.930 . S
H696 C712 0.959 . S
H697 C712 0.959 . S
H698 C712 0.961 . S
H699 C713 0.960 . S
H700 C713 0.961 . S
H701 C713 0.959 . S
H702 C716 0.929 . S
H703 C717 0.931 . S
H704 C719 0.930 . S
C705 H693 0.930 . S
C705 C706 1.399 . S
C705 C710 1.399 . S
C706 C705 1.399 . S
C706 C707 1.376 . S
C707 H694 0.930 . S
C707 C706 1.376 . S
C707 C708 1.388 . S
C708 H695 0.930 . S
C708 C707 1.388 . S
C708 C709 1.390 . S
C709 C708 1.390 . S
C709 C710 1.394 . S
C709 C715 1.465 . S
C710 C705 1.399 . S
C710 C709 1.394 . S
C710 C711 1.516 . S
C711 C710 1.516 . S
C711 C712 1.502 . S
C711 C713 1.561 . S
C711 C714 1.526 . S
C712 H696 0.959 . S
C712 H697 0.959 . S
C712 H698 0.961 . S
C712 C711 1.502 . S
C713 H699 0.960 . S
C713 H700 0.961 . S
C713 H701 0.959 . S
C713 C711 1.561 . S
C714 C711 1.526 . S
C714 C715 1.396 . S
C714 C719 1.390 . S
C715 C709 1.465 . S
C715 C714 1.396 . S
C715 C716 1.399 . S
C716 H702 0.929 . S
C716 C715 1.399 . S
C716 C717 1.385 . S
C717 H703 0.931 . S
C717 C716 1.385 . S
C717 C718 1.389 . S
C718 C717 1.389 . S
C718 C719 1.387 . S
C719 H704 0.930 . S
C719 C714 1.390 . S
C719 C718 1.387 . S
H720 C732 0.930 . S
H721 C734 0.930 . S
H722 C735 0.930 . S
H723 C739 0.959 . S
H724 C739 0.959 . S
H725 C739 0.961 . S
H726 C740 0.960 . S
H727 C740 0.961 . S
H728 C740 0.959 . S
H729 C743 0.929 . S
H730 C744 0.931 . S
H731 C746 0.930 . S
C732 H720 0.930 . S
C732 C733 1.399 . S
C732 C737 1.399 . S
C733 C732 1.399 . S
C733 C734 1.376 . S
C734 H721 0.930 . S
C734 C733 1.376 . S
C734 C735 1.388 . S
C735 H722 0.930 . S
C735 C734 1.388 . S
C735 C736 1.390 . S
C736 C735 1.390 . S
C736 C737 1.394 . S
C736 C742 1.465 . S
C737 C732 1.399 . S
C737 C736 1.394 . S
C737 C738 1.516 . S
C738 C737 1.516 . S
C738 C739 1.502 . S
C738 C740 1.561 . S
C738 C741 1.526 . S
C739 H723 0.959 . S
C739 H724 0.959 . S
C739 H725 0.961 . S
C739 C738 1.502 . S
C740 H726 0.960 . S
C740 H727 0.961 . S
C740 H728 0.959 . S
C740 C738 1.561 . S
C741 C738 1.526 . S
C741 C742 1.396 . S
C741 C746 1.390 . S
C742 C736 1.465 . S
C742 C741 1.396 . S
C742 C743 1.399 . S
C743 H729 0.929 . S
C743 C742 1.399 . S
C743 C744 1.385 . S
C744 H730 0.931 . S
C744 C743 1.385 . S
C744 C745 1.389 . S
C745 C744 1.389 . S
C745 C746 1.387 . S
C746 H731 0.930 . S
C746 C741 1.390 . S
C746 C745 1.387 . S
H747 C759 0.930 1_545 S
H748 C761 0.930 . S
H749 C762 0.930 . S
H750 C766 0.959 . S
H751 C766 0.959 . S
H752 C766 0.961 . S
H753 C767 0.960 . S
H754 C767 0.961 . S
H755 C767 0.959 . S
H756 C770 0.929 . S
H757 C771 0.931 . S
H758 C773 0.930 . S
C759 H747 0.930 1_565 S
C759 C760 1.399 1_565 S
C759 C764 1.399 . S
C760 C759 1.399 1_545 S
C760 C761 1.376 1_545 S
C761 H748 0.930 . S
C761 C760 1.376 1_565 S
C761 C762 1.388 . S
C762 H749 0.930 . S
C762 C761 1.388 . S
C762 C763 1.390 . S
C763 C762 1.390 . S
C763 C764 1.394 . S
C763 C769 1.465 . S
C764 C759 1.399 . S
C764 C763 1.394 . S
C764 C765 1.516 . S
C765 C764 1.516 . S
C765 C766 1.502 . S
C765 C767 1.561 . S
C765 C768 1.526 . S
C766 H750 0.959 . S
C766 H751 0.959 . S
C766 H752 0.961 . S
C766 C765 1.502 . S
C767 H753 0.960 . S
C767 H754 0.961 . S
C767 H755 0.959 . S
C767 C765 1.561 . S
C768 C765 1.526 . S
C768 C769 1.396 . S
C768 C773 1.390 . S
C769 C763 1.465 . S
C769 C768 1.396 . S
C769 C770 1.399 . S
C770 H756 0.929 . S
C770 C769 1.399 . S
C770 C771 1.385 . S
C771 H757 0.931 . S
C771 C770 1.385 . S
C771 C772 1.389 . S
C772 C771 1.389 . S
C772 C773 1.387 . S
C773 H758 0.930 . S
C773 C768 1.390 . S
C773 C772 1.387 . S
H774 C786 0.930 . S
H775 C788 0.930 1_655 S
H776 C789 0.930 . S
H777 C793 0.959 . S
H778 C793 0.959 . S
H779 C793 0.961 . S
H780 C794 0.960 . S
H781 C794 0.961 . S
H782 C794 0.959 . S
H783 C797 0.929 . S
H784 C798 0.931 . S
H785 C800 0.930 . S
C786 H774 0.930 . S
C786 C787 1.399 . S
C786 C791 1.399 . S
C787 C786 1.399 . S
C787 C788 1.376 . S
C788 H775 0.930 1_455 S
C788 C787 1.376 . S
C788 C789 1.388 . S
C789 H776 0.930 . S
C789 C788 1.388 . S
C789 C790 1.390 . S
C790 C789 1.390 . S
C790 C791 1.394 . S
C790 C796 1.465 . S
C791 C786 1.399 . S
C791 C790 1.394 . S
C791 C792 1.516 . S
C792 C791 1.516 . S
C792 C793 1.502 . S
C792 C794 1.561 . S
C792 C795 1.526 . S
C793 H777 0.959 . S
C793 H778 0.959 . S
C793 H779 0.961 . S
C793 C792 1.502 . S
C794 H780 0.960 . S
C794 H781 0.961 . S
C794 H782 0.959 . S
C794 C792 1.561 . S
C795 C792 1.526 . S
C795 C796 1.396 . S
C795 C800 1.390 . S
C796 C790 1.465 . S
C796 C795 1.396 . S
C796 C797 1.399 . S
C797 H783 0.929 . S
C797 C796 1.399 . S
C797 C798 1.385 . S
C798 H784 0.931 . S
C798 C797 1.385 . S
C798 C799 1.389 . S
C799 C798 1.389 . S
C799 C800 1.387 . S
C800 H785 0.930 . S
C800 C795 1.390 . S
C800 C799 1.387 . S
H801 C813 0.930 . S
H802 C815 0.930 . S
H803 C816 0.930 . S
H804 C820 0.959 . S
H805 C820 0.959 . S
H806 C820 0.961 . S
H807 C821 0.960 . S
H808 C821 0.961 . S
H809 C821 0.959 . S
H810 C824 0.929 . S
H811 C825 0.931 . S
H812 C827 0.930 . S
C813 H801 0.930 . S
C813 C814 1.399 . S
C813 C818 1.399 . S
C814 C813 1.399 . S
C814 C815 1.376 . S
C815 H802 0.930 . S
C815 C814 1.376 . S
C815 C816 1.388 . S
C816 H803 0.930 . S
C816 C815 1.388 . S
C816 C817 1.390 . S
C817 C816 1.390 . S
C817 C818 1.394 . S
C817 C823 1.465 . S
C818 C813 1.399 . S
C818 C817 1.394 . S
C818 C819 1.516 . S
C819 C818 1.516 . S
C819 C820 1.502 . S
C819 C821 1.561 . S
C819 C822 1.526 . S
C820 H804 0.959 . S
C820 H805 0.959 . S
C820 H806 0.961 . S
C820 C819 1.502 . S
C821 H807 0.960 . S
C821 H808 0.961 . S
C821 H809 0.959 . S
C821 C819 1.561 . S
C822 C819 1.526 . S
C822 C823 1.396 . S
C822 C827 1.390 . S
C823 C817 1.465 . S
C823 C822 1.396 . S
C823 C824 1.399 . S
C824 H810 0.929 . S
C824 C823 1.399 . S
C824 C825 1.385 . S
C825 H811 0.931 . S
C825 C824 1.385 . S
C825 C826 1.389 . S
C826 C825 1.389 . S
C826 C827 1.387 . S
C827 H812 0.930 . S
C827 C822 1.390 . S
C827 C826 1.387 . S
H828 C840 0.930 . S
H829 C842 0.930 . S
H830 C843 0.930 . S
H831 C847 0.959 . S
H832 C847 0.959 . S
H833 C847 0.961 . S
H834 C848 0.960 . S
H835 C848 0.961 . S
H836 C848 0.959 . S
H837 C851 0.929 . S
H838 C852 0.931 . S
H839 C854 0.930 . S
C840 H828 0.930 . S
C840 C841 1.399 . S
C840 C845 1.399 . S
C841 C840 1.399 . S
C841 C842 1.376 . S
C842 H829 0.930 . S
C842 C841 1.376 . S
C842 C843 1.388 . S
C843 H830 0.930 . S
C843 C842 1.388 . S
C843 C844 1.390 . S
C844 C843 1.390 . S
C844 C845 1.394 . S
C844 C850 1.465 . S
C845 C840 1.399 . S
C845 C844 1.394 . S
C845 C846 1.516 . S
C846 C845 1.516 . S
C846 C847 1.502 . S
C846 C848 1.561 . S
C846 C849 1.526 . S
C847 H831 0.959 . S
C847 H832 0.959 . S
C847 H833 0.961 . S
C847 C846 1.502 . S
C848 H834 0.960 . S
C848 H835 0.961 . S
C848 H836 0.959 . S
C848 C846 1.561 . S
C849 C846 1.526 . S
C849 C850 1.396 . S
C849 C854 1.390 . S
C850 C844 1.465 . S
C850 C849 1.396 . S
C850 C851 1.399 . S
C851 H837 0.929 . S
C851 C850 1.399 . S
C851 C852 1.385 . S
C852 H838 0.931 . S
C852 C851 1.385 . S
C852 C853 1.389 . S
C853 C852 1.389 . S
C853 C854 1.387 . S
C854 H839 0.930 . S
C854 C849 1.390 . S
C854 C853 1.387 . S
H855 C867 0.930 . S
H856 C869 0.930 . S
H857 C870 0.930 . S
H858 C874 0.959 . S
H859 C874 0.959 . S
H860 C874 0.961 . S
H861 C875 0.960 . S
H862 C875 0.961 . S
H863 C875 0.959 . S
H864 C878 0.929 . S
H865 C879 0.931 . S
H866 C881 0.930 . S
C867 H855 0.930 . S
C867 C868 1.399 . S
C867 C872 1.399 . S
C868 C867 1.399 . S
C868 C869 1.376 . S
C869 H856 0.930 . S
C869 C868 1.376 . S
C869 C870 1.388 . S
C870 H857 0.930 . S
C870 C869 1.388 . S
C870 C871 1.390 . S
C871 C870 1.390 . S
C871 C872 1.394 . S
C871 C877 1.465 . S
C872 C867 1.399 . S
C872 C871 1.394 . S
C872 C873 1.516 . S
C873 C872 1.516 . S
C873 C874 1.502 . S
C873 C875 1.561 . S
C873 C876 1.526 . S
C874 H858 0.959 . S
C874 H859 0.959 . S
C874 H860 0.961 . S
C874 C873 1.502 . S
C875 H861 0.960 . S
C875 H862 0.961 . S
C875 H863 0.959 . S
C875 C873 1.561 . S
C876 C873 1.526 . S
C876 C877 1.396 . S
C876 C881 1.390 . S
C877 C871 1.465 . S
C877 C876 1.396 . S
C877 C878 1.399 . S
C878 H864 0.929 . S
C878 C877 1.399 . S
C878 C879 1.385 . S
C879 H865 0.931 . S
C879 C878 1.385 . S
C879 C880 1.389 . S
C880 C879 1.389 . S
C880 C881 1.387 . S
C881 H866 0.930 . S
C881 C876 1.390 . S
C881 C880 1.387 . S
H882 C894 0.930 . S
H883 C896 0.930 . S
H884 C897 0.930 . S
H885 C901 0.959 . S
H886 C901 0.959 . S
H887 C901 0.961 . S
H888 C902 0.960 . S
H889 C902 0.961 . S
H890 C902 0.959 . S
H891 C905 0.929 . S
H892 C906 0.931 . S
H893 C908 0.930 . S
C894 H882 0.930 . S
C894 C895 1.399 . S
C894 C899 1.399 . S
C895 C894 1.399 . S
C895 C896 1.376 . S
C896 H883 0.930 . S
C896 C895 1.376 . S
C896 C897 1.388 . S
C897 H884 0.930 . S
C897 C896 1.388 . S
C897 C898 1.390 . S
C898 C897 1.390 . S
C898 C899 1.394 . S
C898 C904 1.465 . S
C899 C894 1.399 . S
C899 C898 1.394 . S
C899 C900 1.516 . S
C900 C899 1.516 . S
C900 C901 1.502 . S
C900 C902 1.561 . S
C900 C903 1.526 . S
C901 H885 0.959 . S
C901 H886 0.959 . S
C901 H887 0.961 . S
C901 C900 1.502 . S
C902 H888 0.960 . S
C902 H889 0.961 . S
C902 H890 0.959 . S
C902 C900 1.561 . S
C903 C900 1.526 . S
C903 C904 1.396 . S
C903 C908 1.390 . S
C904 C898 1.465 . S
C904 C903 1.396 . S
C904 C905 1.399 . S
C905 H891 0.929 . S
C905 C904 1.399 . S
C905 C906 1.385 . S
C906 H892 0.931 . S
C906 C905 1.385 . S
C906 C907 1.389 . S
C907 C906 1.389 . S
C907 C908 1.387 . S
C908 H893 0.930 . S
C908 C903 1.390 . S
C908 C907 1.387 . S
H909 C921 0.930 . S
H910 C923 0.930 . S
H911 C924 0.930 . S
H912 C928 0.959 . S
H913 C928 0.959 . S
H914 C928 0.961 . S
H915 C929 0.960 . S
H916 C929 0.961 . S
H917 C929 0.959 . S
H918 C932 0.929 . S
H919 C933 0.931 . S
H920 C935 0.930 . S
C921 H909 0.930 . S
C921 C922 1.399 . S
C921 C926 1.399 . S
C922 C921 1.399 . S
C922 C923 1.376 . S
C923 H910 0.930 . S
C923 C922 1.376 . S
C923 C924 1.388 . S
C924 H911 0.930 . S
C924 C923 1.388 . S
C924 C925 1.390 . S
C925 C924 1.390 . S
C925 C926 1.394 . S
C925 C931 1.465 . S
C926 C921 1.399 . S
C926 C925 1.394 . S
C926 C927 1.516 . S
C927 C926 1.516 . S
C927 C928 1.502 . S
C927 C929 1.561 . S
C927 C930 1.526 . S
C928 H912 0.959 . S
C928 H913 0.959 . S
C928 H914 0.961 . S
C928 C927 1.502 . S
C929 H915 0.960 . S
C929 H916 0.961 . S
C929 H917 0.959 . S
C929 C927 1.561 . S
C930 C927 1.526 . S
C930 C931 1.396 . S
C930 C935 1.390 . S
C931 C925 1.465 . S
C931 C930 1.396 . S
C931 C932 1.399 . S
C932 H918 0.929 . S
C932 C931 1.399 . S
C932 C933 1.385 . S
C933 H919 0.931 . S
C933 C932 1.385 . S
C933 C934 1.389 . S
C934 C933 1.389 . S
C934 C935 1.387 . S
C935 H920 0.930 . S
C935 C930 1.390 . S
C935 C934 1.387 . S
H936 C948 0.930 . S
H937 C950 0.930 . S
H938 C951 0.930 . S
H939 C955 0.959 . S
H940 C955 0.959 . S
H941 C955 0.961 . S
H942 C956 0.960 . S
H943 C956 0.961 . S
H944 C956 0.959 . S
H945 C959 0.929 . S
H946 C960 0.931 . S
H947 C962 0.930 . S
C948 H936 0.930 . S
C948 C949 1.399 . S
C948 C953 1.399 . S
C949 C948 1.399 . S
C949 C950 1.376 . S
C950 H937 0.930 . S
C950 C949 1.376 . S
C950 C951 1.388 . S
C951 H938 0.930 . S
C951 C950 1.388 . S
C951 C952 1.390 . S
C952 C951 1.390 . S
C952 C953 1.394 . S
C952 C958 1.465 . S
C953 C948 1.399 . S
C953 C952 1.394 . S
C953 C954 1.516 . S
C954 C953 1.516 . S
C954 C955 1.502 . S
C954 C956 1.561 . S
C954 C957 1.526 . S
C955 H939 0.959 . S
C955 H940 0.959 . S
C955 H941 0.961 . S
C955 C954 1.502 . S
C956 H942 0.960 . S
C956 H943 0.961 . S
C956 H944 0.959 . S
C956 C954 1.561 . S
C957 C954 1.526 . S
C957 C958 1.396 . S
C957 C962 1.390 . S
C958 C952 1.465 . S
C958 C957 1.396 . S
C958 C959 1.399 . S
C959 H945 0.929 . S
C959 C958 1.399 . S
C959 C960 1.385 . S
C960 H946 0.931 . S
C960 C959 1.385 . S
C960 C961 1.389 . S
C961 C960 1.389 . S
C961 C962 1.387 . S
C962 H947 0.930 . S
C962 C957 1.390 . S
C962 C961 1.387 . S
H963 C975 0.930 . S
H964 C977 0.930 . S
H965 C978 0.930 . S
H966 C982 0.959 . S
H967 C982 0.959 . S
H968 C982 0.961 . S
H969 C983 0.960 . S
H970 C983 0.961 . S
H971 C983 0.959 . S
H972 C986 0.929 . S
H973 C987 0.931 . S
H974 C989 0.930 . S
C975 H963 0.930 . S
C975 C976 1.399 1_556 S
C975 C980 1.399 . S
C976 C975 1.399 1_554 S
C976 C977 1.376 . S
C977 H964 0.930 . S
C977 C976 1.376 . S
C977 C978 1.388 . S
C978 H965 0.930 . S
C978 C977 1.388 . S
C978 C979 1.390 . S
C979 C978 1.390 . S
C979 C980 1.394 1_554 S
C979 C985 1.465 1_554 S
C980 C975 1.399 . S
C980 C979 1.394 1_556 S
C980 C981 1.516 . S
C981 C980 1.516 . S
C981 C982 1.502 . S
C981 C983 1.561 . S
C981 C984 1.526 . S
C982 H966 0.959 . S
C982 H967 0.959 . S
C982 H968 0.961 . S
C982 C981 1.502 . S
C983 H969 0.960 . S
C983 H970 0.961 . S
C983 H971 0.959 . S
C983 C981 1.561 . S
C984 C981 1.526 . S
C984 C985 1.396 . S
C984 C989 1.390 . S
C985 C979 1.465 1_556 S
C985 C984 1.396 . S
C985 C986 1.399 1_556 S
C986 H972 0.929 . S
C986 C985 1.399 1_554 S
C986 C987 1.385 1_554 S
C987 H973 0.931 . S
C987 C986 1.385 1_556 S
C987 C988 1.389 . S
C988 C987 1.389 . S
C988 C989 1.387 . S
C989 H974 0.930 . S
C989 C984 1.390 . S
C989 C988 1.387 . S
H990 C1002 0.930 . S
H991 C1004 0.930 . S
H992 C1005 0.930 . S
H993 C1009 0.959 . S
H994 C1009 0.959 . S
H995 C1009 0.961 . S
H996 C1010 0.960 . S
H997 C1010 0.961 . S
H998 C1010 0.959 . S
H999 C1013 0.929 . S
H1000 C1014 0.931 . S
H1001 C1016 0.930 . S
C1002 H990 0.930 . S
C1002 C1003 1.399 1_556 S
C1002 C1007 1.399 . S
C1003 C1002 1.399 1_554 S
C1003 C1004 1.376 . S
C1004 H991 0.930 . S
C1004 C1003 1.376 . S
C1004 C1005 1.388 . S
C1005 H992 0.930 . S
C1005 C1004 1.388 . S
C1005 C1006 1.390 . S
C1006 C1005 1.390 . S
C1006 C1007 1.394 1_554 S
C1006 C1012 1.465 1_554 S
C1007 C1002 1.399 . S
C1007 C1006 1.394 1_556 S
C1007 C1008 1.516 . S
C1008 C1007 1.516 . S
C1008 C1009 1.502 . S
C1008 C1010 1.561 . S
C1008 C1011 1.526 . S
C1009 H993 0.959 . S
C1009 H994 0.959 . S
C1009 H995 0.961 . S
C1009 C1008 1.502 . S
C1010 H996 0.960 . S
C1010 H997 0.961 . S
C1010 H998 0.959 . S
C1010 C1008 1.561 . S
C1011 C1008 1.526 . S
C1011 C1012 1.396 . S
C1011 C1016 1.390 . S
C1012 C1006 1.465 1_556 S
C1012 C1011 1.396 . S
C1012 C1013 1.399 1_556 S
C1013 H999 0.929 . S
C1013 C1012 1.399 1_554 S
C1013 C1014 1.385 1_564 S
C1014 H1000 0.931 . S
C1014 C1013 1.385 1_546 S
C1014 C1015 1.389 . S
C1015 C1014 1.389 . S
C1015 C1016 1.387 1_545 S
C1016 H1001 0.930 . S
C1016 C1011 1.390 . S
C1016 C1015 1.387 1_565 S
H1017 C1029 0.930 . S
H1018 C1031 0.930 . S
H1019 C1032 0.930 . S
H1020 C1036 0.959 . S
H1021 C1036 0.959 . S
H1022 C1036 0.961 . S
H1023 C1037 0.960 . S
H1024 C1037 0.961 . S
H1025 C1037 0.959 . S
H1026 C1040 0.929 . S
H1027 C1041 0.931 . S
H1028 C1043 0.930 . S
C1029 H1017 0.930 . S
C1029 C1030 1.399 . S
C1029 C1034 1.399 . S
C1030 C1029 1.399 . S
C1030 C1031 1.376 1_554 S
C1031 H1018 0.930 . S
C1031 C1030 1.376 1_556 S
C1031 C1032 1.388 . S
C1032 H1019 0.930 . S
C1032 C1031 1.388 . S
C1032 C1033 1.390 . S
C1033 C1032 1.390 . S
C1033 C1034 1.394 1_556 S
C1033 C1039 1.465 . S
C1034 C1029 1.399 . S
C1034 C1033 1.394 1_554 S
C1034 C1035 1.516 . S
C1035 C1034 1.516 . S
C1035 C1036 1.502 . S
C1035 C1037 1.561 . S
C1035 C1038 1.526 1_554 S
C1036 H1020 0.959 . S
C1036 H1021 0.959 . S
C1036 H1022 0.961 . S
C1036 C1035 1.502 . S
C1037 H1023 0.960 . S
C1037 H1024 0.961 . S
C1037 H1025 0.959 . S
C1037 C1035 1.561 . S
C1038 C1035 1.526 1_556 S
C1038 C1039 1.396 . S
C1038 C1043 1.390 . S
C1039 C1033 1.465 . S
C1039 C1038 1.396 . S
C1039 C1040 1.399 . S
C1040 H1026 0.929 . S
C1040 C1039 1.399 . S
C1040 C1041 1.385 . S
C1041 H1027 0.931 . S
C1041 C1040 1.385 . S
C1041 C1042 1.389 . S
C1042 C1041 1.389 . S
C1042 C1043 1.387 . S
C1043 H1028 0.930 . S
C1043 C1038 1.390 . S
C1043 C1042 1.387 . S
H1044 C1056 0.930 . S
H1045 C1058 0.930 . S
H1046 C1059 0.930 . S
H1047 C1063 0.959 . S
H1048 C1063 0.959 . S
H1049 C1063 0.961 . S
H1050 C1064 0.960 . S
H1051 C1064 0.961 . S
H1052 C1064 0.959 . S
H1053 C1067 0.929 . S
H1054 C1068 0.931 . S
H1055 C1070 0.930 . S
C1056 H1044 0.930 . S
C1056 C1057 1.399 . S
C1056 C1061 1.399 . S
C1057 C1056 1.399 . S
C1057 C1058 1.376 . S
C1058 H1045 0.930 . S
C1058 C1057 1.376 . S
C1058 C1059 1.388 . S
C1059 H1046 0.930 . S
C1059 C1058 1.388 . S
C1059 C1060 1.390 . S
C1060 C1059 1.390 . S
C1060 C1061 1.394 . S
C1060 C1066 1.465 . S
C1061 C1056 1.399 . S
C1061 C1060 1.394 . S
C1061 C1062 1.516 . S
C1062 C1061 1.516 . S
C1062 C1063 1.502 . S
C1062 C1064 1.561 . S
C1062 C1065 1.526 . S
C1063 H1047 0.959 . S
C1063 H1048 0.959 . S
C1063 H1049 0.961 . S
C1063 C1062 1.502 . S
C1064 H1050 0.960 . S
C1064 H1051 0.961 . S
C1064 H1052 0.959 . S
C1064 C1062 1.561 . S
C1065 C1062 1.526 . S
C1065 C1066 1.396 . S
C1065 C1070 1.390 . S
C1066 C1060 1.465 . S
C1066 C1065 1.396 . S
C1066 C1067 1.399 . S
C1067 H1053 0.929 . S
C1067 C1066 1.399 . S
C1067 C1068 1.385 . S
C1068 H1054 0.931 . S
C1068 C1067 1.385 . S
C1068 C1069 1.389 . S
C1069 C1068 1.389 . S
C1069 C1070 1.387 . S
C1070 H1055 0.930 . S
C1070 C1065 1.390 . S
C1070 C1069 1.387 . S
H1071 C1083 0.930 . S
H1072 C1085 0.930 . S
H1073 C1086 0.930 . S
H1074 C1090 0.959 . S
H1075 C1090 0.959 . S
H1076 C1090 0.961 . S
H1077 C1091 0.960 . S
H1078 C1091 0.961 . S
H1079 C1091 0.959 . S
H1080 C1094 0.929 . S
H1081 C1095 0.931 . S
H1082 C1097 0.930 . S
C1083 H1071 0.930 . S
C1083 C1084 1.399 . S
C1083 C1088 1.399 . S
C1084 C1083 1.399 . S
C1084 C1085 1.376 . S
C1085 H1072 0.930 . S
C1085 C1084 1.376 . S
C1085 C1086 1.388 . S
C1086 H1073 0.930 . S
C1086 C1085 1.388 . S
C1086 C1087 1.390 . S
C1087 C1086 1.390 . S
C1087 C1088 1.394 . S
C1087 C1093 1.465 . S
C1088 C1083 1.399 . S
C1088 C1087 1.394 . S
C1088 C1089 1.516 . S
C1089 C1088 1.516 . S
C1089 C1090 1.502 . S
C1089 C1091 1.561 . S
C1089 C1092 1.526 . S
C1090 H1074 0.959 . S
C1090 H1075 0.959 . S
C1090 H1076 0.961 . S
C1090 C1089 1.502 . S
C1091 H1077 0.960 . S
C1091 H1078 0.961 . S
C1091 H1079 0.959 . S
C1091 C1089 1.561 . S
C1092 C1089 1.526 . S
C1092 C1093 1.396 . S
C1092 C1097 1.390 . S
C1093 C1087 1.465 . S
C1093 C1092 1.396 . S
C1093 C1094 1.399 . S
C1094 H1080 0.929 . S
C1094 C1093 1.399 . S
C1094 C1095 1.385 . S
C1095 H1081 0.931 . S
C1095 C1094 1.385 . S
C1095 C1096 1.389 . S
C1096 C1095 1.389 . S
C1096 C1097 1.387 . S
C1097 H1082 0.930 . S
C1097 C1092 1.390 . S
C1097 C1096 1.387 . S
H1098 C1110 0.930 . S
H1099 C1112 0.930 . S
H1100 C1113 0.930 . S
H1101 C1117 0.959 . S
H1102 C1117 0.959 . S
H1103 C1117 0.961 . S
H1104 C1118 0.960 . S
H1105 C1118 0.961 . S
H1106 C1118 0.959 . S
H1107 C1121 0.929 . S
H1108 C1122 0.931 . S
H1109 C1124 0.930 . S
C1110 H1098 0.930 . S
C1110 C1111 1.399 . S
C1110 C1115 1.399 . S
C1111 C1110 1.399 . S
C1111 C1112 1.376 . S
C1112 H1099 0.930 . S
C1112 C1111 1.376 . S
C1112 C1113 1.388 . S
C1113 H1100 0.930 . S
C1113 C1112 1.388 . S
C1113 C1114 1.390 . S
C1114 C1113 1.390 . S
C1114 C1115 1.394 . S
C1114 C1120 1.465 . S
C1115 C1110 1.399 . S
C1115 C1114 1.394 . S
C1115 C1116 1.516 . S
C1116 C1115 1.516 . S
C1116 C1117 1.502 . S
C1116 C1118 1.561 . S
C1116 C1119 1.526 . S
C1117 H1101 0.959 . S
C1117 H1102 0.959 . S
C1117 H1103 0.961 . S
C1117 C1116 1.502 . S
C1118 H1104 0.960 . S
C1118 H1105 0.961 . S
C1118 H1106 0.959 . S
C1118 C1116 1.561 . S
C1119 C1116 1.526 . S
C1119 C1120 1.396 . S
C1119 C1124 1.390 . S
C1120 C1114 1.465 . S
C1120 C1119 1.396 . S
C1120 C1121 1.399 . S
C1121 H1107 0.929 . S
C1121 C1120 1.399 . S
C1121 C1122 1.385 . S
C1122 H1108 0.931 . S
C1122 C1121 1.385 . S
C1122 C1123 1.389 . S
C1123 C1122 1.389 . S
C1123 C1124 1.387 . S
C1124 H1109 0.930 . S
C1124 C1119 1.390 . S
C1124 C1123 1.387 . S
H1125 C1137 0.930 . S
H1126 C1139 0.930 . S
H1127 C1140 0.930 . S
H1128 C1144 0.959 1_556 S
H1129 C1144 0.959 . S
H1130 C1144 0.951 1_556 S
H1131 C1145 0.960 . S
H1132 C1145 0.961 . S
H1133 C1145 0.959 . S
H1134 C1148 0.929 . S
H1135 C1149 0.931 . S
H1136 C1151 0.930 . S
C1137 H1125 0.930 . S
C1137 C1138 1.399 . S
C1137 C1142 1.399 1_556 S
C1138 C1137 1.399 . S
C1138 C1139 1.376 . S
C1139 H1126 0.930 . S
C1139 C1138 1.376 . S
C1139 C1140 1.388 . S
C1140 H1127 0.930 . S
C1140 C1139 1.388 . S
C1140 C1141 1.390 1_556 S
C1141 C1140 1.390 1_554 S
C1141 C1142 1.394 . S
C1141 C1147 1.465 . S
C1142 C1137 1.399 1_554 S
C1142 C1141 1.394 . S
C1142 C1143 1.516 . S
C1143 C1142 1.516 . S
C1143 C1144 1.502 . S
C1143 C1145 1.561 . S
C1143 C1146 1.526 . S
C1144 H1128 0.959 1_554 S
C1144 H1129 0.959 . S
C1144 H1130 0.951 1_554 S
C1144 C1143 1.502 . S
C1145 H1131 0.960 . S
C1145 H1132 0.961 . S
C1145 H1133 0.959 . S
C1145 C1143 1.561 . S
C1146 C1143 1.526 . S
C1146 C1147 1.396 . S
C1146 C1151 1.390 . S
C1147 C1141 1.465 . S
C1147 C1146 1.396 . S
C1147 C1148 1.399 . S
C1148 H1134 0.929 . S
C1148 C1147 1.399 . S
C1148 C1149 1.385 . S
C1149 H1135 0.931 . S
C1149 C1148 1.385 . S
C1149 C1150 1.389 . S
C1150 C1149 1.389 . S
C1150 C1151 1.387 . S
C1151 H1136 0.930 . S
C1151 C1146 1.390 . S
C1151 C1150 1.387 . S
H1152 C1164 0.930 . S
H1153 C1166 0.930 . S
H1154 C1167 0.930 . S
H1155 C1171 0.959 . S
H1156 C1171 0.959 . S
H1157 C1171 0.961 . S
H1158 C1172 0.960 . S
H1159 C1172 0.961 . S
H1160 C1172 0.959 . S
H1161 C1175 0.948 . S
H1162 C1176 0.931 1_565 S
H1163 C1178 0.930 . S
C1164 H1152 0.930 . S
C1164 C1165 1.399 1_554 S
C1164 C1169 1.399 . S
C1165 C1164 1.399 1_556 S
C1165 C1166 1.376 . S
C1166 H1153 0.930 . S
C1166 C1165 1.376 . S
C1166 C1167 1.388 . S
C1167 H1154 0.930 . S
C1167 C1166 1.388 . S
C1167 C1168 1.390 . S
C1168 C1167 1.390 . S
C1168 C1169 1.394 1_556 S
C1168 C1174 1.465 1_556 S
C1169 C1164 1.399 . S
C1169 C1168 1.394 1_554 S
C1169 C1170 1.516 . S
C1170 C1169 1.516 . S
C1170 C1171 1.502 . S
C1170 C1172 1.561 . S
C1170 C1173 1.526 . S
C1171 H1155 0.959 . S
C1171 H1156 0.959 . S
C1171 H1157 0.961 . S
C1171 C1170 1.502 . S
C1172 H1158 0.960 . S
C1172 H1159 0.961 . S
C1172 H1160 0.959 . S
C1172 C1170 1.561 . S
C1173 C1170 1.526 . S
C1173 C1174 1.396 . S
C1173 C1178 1.390 . S
C1174 C1168 1.465 1_554 S
C1174 C1173 1.396 . S
C1174 C1175 1.392 1_554 S
C1175 H1161 0.948 . S
C1175 C1174 1.392 1_556 S
C1175 C1176 1.373 1_556 S
C1176 H1162 0.931 1_545 S
C1176 C1175 1.373 1_554 S
C1176 C1177 1.389 . S
C1177 C1176 1.389 . S
C1177 C1178 1.387 . S
C1178 H1163 0.930 . S
C1178 C1173 1.390 . S
C1178 C1177 1.387 . S
H1179 C1191 0.930 . S
H1180 C1193 0.930 . S
H1181 C1194 0.930 . S
H1182 C1198 0.959 . S
H1183 C1198 0.959 . S
H1184 C1198 0.961 . S
H1185 C1199 0.960 . S
H1186 C1199 0.961 . S
H1187 C1199 0.959 . S
H1188 C1202 0.929 . S
H1189 C1203 0.931 . S
H1190 C1205 0.930 1_455 S
C1191 H1179 0.930 . S
C1191 C1192 1.399 . S
C1191 C1196 1.399 . S
C1192 C1191 1.399 . S
C1192 C1193 1.376 1_556 S
C1193 H1180 0.930 . S
C1193 C1192 1.376 1_554 S
C1193 C1194 1.388 . S
C1194 H1181 0.930 . S
C1194 C1193 1.388 . S
C1194 C1195 1.390 . S
C1195 C1194 1.390 . S
C1195 C1196 1.394 1_554 S
C1195 C1201 1.465 . S
C1196 C1191 1.399 . S
C1196 C1195 1.394 1_556 S
C1196 C1197 1.516 . S
C1197 C1196 1.516 . S
C1197 C1198 1.502 . S
C1197 C1199 1.561 . S
C1197 C1200 1.526 1_556 S
C1198 H1182 0.959 . S
C1198 H1183 0.959 . S
C1198 H1184 0.961 . S
C1198 C1197 1.502 . S
C1199 H1185 0.960 . S
C1199 H1186 0.961 . S
C1199 H1187 0.959 . S
C1199 C1197 1.561 . S
C1200 C1197 1.526 1_554 S
C1200 C1201 1.396 . S
C1200 C1205 1.390 . S
C1201 C1195 1.465 . S
C1201 C1200 1.396 . S
C1201 C1202 1.399 . S
C1202 H1188 0.929 . S
C1202 C1201 1.399 . S
C1202 C1203 1.385 . S
C1203 H1189 0.931 . S
C1203 C1202 1.385 . S
C1203 C1204 1.389 1_655 S
C1204 C1203 1.389 1_455 S
C1204 C1205 1.387 1_455 S
C1205 H1190 0.930 1_655 S
C1205 C1200 1.390 . S
C1205 C1204 1.387 1_655 S
H1206 C1218 0.930 . S
H1207 C1220 0.930 . S
H1208 C1221 0.930 . S
H1209 C1225 0.959 . S
H1210 C1225 0.959 . S
H1211 C1225 0.961 . S
H1212 C1226 0.960 . S
H1213 C1226 0.961 . S
H1214 C1226 0.959 . S
H1215 C1229 0.929 . S
H1216 C1230 0.931 . S
H1217 C1232 0.930 . S
C1218 H1206 0.930 . S
C1218 C1219 1.399 . S
C1218 C1223 1.399 . S
C1219 C1218 1.399 . S
C1219 C1220 1.376 . S
C1220 H1207 0.930 . S
C1220 C1219 1.376 . S
C1220 C1221 1.388 . S
C1221 H1208 0.930 . S
C1221 C1220 1.388 . S
C1221 C1222 1.390 . S
C1222 C1221 1.390 . S
C1222 C1223 1.394 . S
C1222 C1228 1.465 . S
C1223 C1218 1.399 . S
C1223 C1222 1.394 . S
C1223 C1224 1.516 . S
C1224 C1223 1.516 . S
C1224 C1225 1.502 . S
C1224 C1226 1.561 . S
C1224 C1227 1.526 . S
C1225 H1209 0.959 . S
C1225 H1210 0.959 . S
C1225 H1211 0.961 . S
C1225 C1224 1.502 . S
C1226 H1212 0.960 . S
C1226 H1213 0.961 . S
C1226 H1214 0.959 . S
C1226 C1224 1.561 . S
C1227 C1224 1.526 . S
C1227 C1228 1.396 . S
C1227 C1232 1.390 . S
C1228 C1222 1.465 . S
C1228 C1227 1.396 . S
C1228 C1229 1.399 . S
C1229 H1215 0.929 . S
C1229 C1228 1.399 . S
C1229 C1230 1.385 . S
C1230 H1216 0.931 . S
C1230 C1229 1.385 . S
C1230 C1231 1.389 . S
C1231 C1230 1.389 . S
C1231 C1232 1.387 . S
C1232 H1217 0.930 . S
C1232 C1227 1.390 . S
C1232 C1231 1.387 . S
H1233 C1245 0.930 . S
H1234 C1247 0.930 . S
H1235 C1248 0.930 . S
H1236 C1252 0.959 . S
H1237 C1252 0.959 . S
H1238 C1252 0.961 . S
H1239 C1253 0.960 . S
H1240 C1253 0.961 . S
H1241 C1253 0.959 . S
H1242 C1256 0.929 . S
H1243 C1257 0.931 1_565 S
H1244 C1259 0.930 . S
C1245 H1233 0.930 . S
C1245 C1246 1.399 . S
C1245 C1250 1.399 . S
C1246 C1245 1.399 . S
C1246 C1247 1.376 . S
C1247 H1234 0.930 . S
C1247 C1246 1.376 . S
C1247 C1248 1.388 . S
C1248 H1235 0.930 . S
C1248 C1247 1.388 . S
C1248 C1249 1.390 . S
C1249 C1248 1.390 . S
C1249 C1250 1.394 . S
C1249 C1255 1.465 . S
C1250 C1245 1.399 . S
C1250 C1249 1.394 . S
C1250 C1251 1.516 . S
C1251 C1250 1.516 . S
C1251 C1252 1.502 . S
C1251 C1253 1.561 . S
C1251 C1254 1.526 . S
C1252 H1236 0.959 . S
C1252 H1237 0.959 . S
C1252 H1238 0.961 . S
C1252 C1251 1.502 . S
C1253 H1239 0.960 . S
C1253 H1240 0.961 . S
C1253 H1241 0.959 . S
C1253 C1251 1.561 . S
C1254 C1251 1.526 . S
C1254 C1255 1.396 . S
C1254 C1259 1.390 . S
C1255 C1249 1.465 . S
C1255 C1254 1.396 . S
C1255 C1256 1.399 . S
C1256 H1242 0.929 . S
C1256 C1255 1.399 . S
C1256 C1257 1.385 . S
C1257 H1243 0.931 1_545 S
C1257 C1256 1.385 . S
C1257 C1258 1.389 . S
C1258 C1257 1.389 . S
C1258 C1259 1.387 . S
C1259 H1244 0.930 . S
C1259 C1254 1.390 . S
C1259 C1258 1.387 . S
H1260 C1272 0.930 1_455 S
H1261 C1274 0.930 . S
H1262 C1275 0.930 . S
H1263 C1279 0.959 . S
H1264 C1279 0.959 . S
H1265 C1279 0.961 . S
H1266 C1280 0.960 . S
H1267 C1280 0.961 . S
H1268 C1280 0.959 . S
H1269 C1283 0.929 . S
H1270 C1284 0.931 . S
H1271 C1286 0.930 . S
C1272 H1260 0.930 1_655 S
C1272 C1273 1.399 1_655 S
C1272 C1277 1.399 . S
C1273 C1272 1.399 1_455 S
C1273 C1274 1.376 1_455 S
C1274 H1261 0.930 . S
C1274 C1273 1.376 1_655 S
C1274 C1275 1.388 . S
C1275 H1262 0.930 . S
C1275 C1274 1.388 . S
C1275 C1276 1.390 . S
C1276 C1275 1.390 . S
C1276 C1277 1.394 . S
C1276 C1282 1.465 . S
C1277 C1272 1.399 . S
C1277 C1276 1.394 . S
C1277 C1278 1.516 . S
C1278 C1277 1.516 . S
C1278 C1279 1.502 . S
C1278 C1280 1.561 . S
C1278 C1281 1.526 . S
C1279 H1263 0.959 . S
C1279 H1264 0.959 . S
C1279 H1265 0.961 . S
C1279 C1278 1.502 . S
C1280 H1266 0.960 . S
C1280 H1267 0.961 . S
C1280 H1268 0.959 . S
C1280 C1278 1.561 . S
C1281 C1278 1.526 . S
C1281 C1282 1.396 . S
C1281 C1286 1.390 . S
C1282 C1276 1.465 . S
C1282 C1281 1.396 . S
C1282 C1283 1.399 . S
C1283 H1269 0.929 . S
C1283 C1282 1.399 . S
C1283 C1284 1.385 . S
C1284 H1270 0.931 . S
C1284 C1283 1.385 . S
C1284 C1285 1.389 . S
C1285 C1284 1.389 . S
C1285 C1286 1.387 . S
C1286 H1271 0.930 . S
C1286 C1281 1.390 . S
C1286 C1285 1.387 . S
H1287 C1299 0.930 . S
H1288 C1301 0.930 . S
H1289 C1302 0.930 . S
H1290 C1306 0.959 . S
H1291 C1306 0.959 . S
H1292 C1306 0.961 . S
H1293 C1307 0.960 . S
H1294 C1307 0.961 . S
H1295 C1307 0.959 . S
H1296 C1310 0.929 . S
H1297 C1311 0.931 . S
H1298 C1313 0.930 . S
C1299 H1287 0.930 . S
C1299 C1300 1.399 . S
C1299 C1304 1.399 . S
C1300 C1299 1.399 . S
C1300 C1301 1.376 . S
C1301 H1288 0.930 . S
C1301 C1300 1.376 . S
C1301 C1302 1.388 . S
C1302 H1289 0.930 . S
C1302 C1301 1.388 . S
C1302 C1303 1.390 . S
C1303 C1302 1.390 . S
C1303 C1304 1.394 . S
C1303 C1309 1.465 . S
C1304 C1299 1.399 . S
C1304 C1303 1.394 . S
C1304 C1305 1.516 . S
C1305 C1304 1.516 . S
C1305 C1306 1.502 . S
C1305 C1307 1.561 . S
C1305 C1308 1.526 . S
C1306 H1290 0.959 . S
C1306 H1291 0.959 . S
C1306 H1292 0.961 . S
C1306 C1305 1.502 . S
C1307 H1293 0.960 . S
C1307 H1294 0.961 . S
C1307 H1295 0.959 . S
C1307 C1305 1.561 . S
C1308 C1305 1.526 . S
C1308 C1309 1.396 . S
C1308 C1313 1.390 . S
C1309 C1303 1.465 . S
C1309 C1308 1.396 . S
C1309 C1310 1.399 . S
C1310 H1296 0.929 . S
C1310 C1309 1.399 . S
C1310 C1311 1.385 . S
C1311 H1297 0.931 . S
C1311 C1310 1.385 . S
C1311 C1312 1.389 . S
C1312 C1311 1.389 . S
C1312 C1313 1.387 . S
C1313 H1298 0.930 . S
C1313 C1308 1.390 . S
C1313 C1312 1.387 . S
H1314 C1326 0.930 . S
H1315 C1328 0.930 . S
H1316 C1329 0.930 . S
H1317 C1333 0.959 . S
H1318 C1333 0.959 . S
H1319 C1333 0.961 . S
H1320 C1334 0.960 . S
H1321 C1334 0.961 . S
H1322 C1334 0.959 . S
H1323 C1337 0.929 . S
H1324 C1338 0.931 . S
H1325 C1340 0.930 . S
C1326 H1314 0.930 . S
C1326 C1327 1.399 . S
C1326 C1331 1.399 . S
C1327 C1326 1.399 . S
C1327 C1328 1.376 . S
C1328 H1315 0.930 . S
C1328 C1327 1.376 . S
C1328 C1329 1.388 . S
C1329 H1316 0.930 . S
C1329 C1328 1.388 . S
C1329 C1330 1.390 . S
C1330 C1329 1.390 . S
C1330 C1331 1.394 . S
C1330 C1336 1.465 . S
C1331 C1326 1.399 . S
C1331 C1330 1.394 . S
C1331 C1332 1.516 . S
C1332 C1331 1.516 . S
C1332 C1333 1.502 . S
C1332 C1334 1.561 . S
C1332 C1335 1.526 . S
C1333 H1317 0.959 . S
C1333 H1318 0.959 . S
C1333 H1319 0.961 . S
C1333 C1332 1.502 . S
C1334 H1320 0.960 . S
C1334 H1321 0.961 . S
C1334 H1322 0.959 . S
C1334 C1332 1.561 . S
C1335 C1332 1.526 . S
C1335 C1336 1.396 . S
C1335 C1340 1.390 . S
C1336 C1330 1.465 . S
C1336 C1335 1.396 . S
C1336 C1337 1.399 . S
C1337 H1323 0.929 . S
C1337 C1336 1.399 . S
C1337 C1338 1.385 . S
C1338 H1324 0.931 . S
C1338 C1337 1.385 . S
C1338 C1339 1.389 . S
C1339 C1338 1.389 . S
C1339 C1340 1.387 . S
C1340 H1325 0.930 . S
C1340 C1335 1.390 . S
C1340 C1339 1.387 . S
H1341 C1353 0.930 . S
H1342 C1355 0.930 . S
H1343 C1356 0.930 . S
H1344 C1360 0.959 . S
H1345 C1360 0.959 . S
H1346 C1360 0.961 . S
H1347 C1361 0.960 . S
H1348 C1361 0.961 . S
H1349 C1361 0.959 . S
H1350 C1364 0.929 . S
H1351 C1365 0.931 . S
H1352 C1367 0.930 . S
C1353 H1341 0.930 . S
C1353 C1354 1.399 . S
C1353 C1358 1.399 . S
C1354 C1353 1.399 . S
C1354 C1355 1.376 . S
C1355 H1342 0.930 . S
C1355 C1354 1.376 . S
C1355 C1356 1.388 . S
C1356 H1343 0.930 . S
C1356 C1355 1.388 . S
C1356 C1357 1.390 . S
C1357 C1356 1.390 . S
C1357 C1358 1.394 . S
C1357 C1363 1.465 . S
C1358 C1353 1.399 . S
C1358 C1357 1.394 . S
C1358 C1359 1.516 . S
C1359 C1358 1.516 . S
C1359 C1360 1.502 . S
C1359 C1361 1.561 . S
C1359 C1362 1.526 . S
C1360 H1344 0.959 . S
C1360 H1345 0.959 . S
C1360 H1346 0.961 . S
C1360 C1359 1.502 . S
C1361 H1347 0.960 . S
C1361 H1348 0.961 . S
C1361 H1349 0.959 . S
C1361 C1359 1.561 . S
C1362 C1359 1.526 . S
C1362 C1363 1.396 . S
C1362 C1367 1.390 . S
C1363 C1357 1.465 . S
C1363 C1362 1.396 . S
C1363 C1364 1.399 . S
C1364 H1350 0.929 . S
C1364 C1363 1.399 . S
C1364 C1365 1.385 . S
C1365 H1351 0.931 . S
C1365 C1364 1.385 . S
C1365 C1366 1.389 . S
C1366 C1365 1.389 . S
C1366 C1367 1.387 . S
C1367 H1352 0.930 . S
C1367 C1362 1.390 . S
C1367 C1366 1.387 . S
H1368 C1380 0.930 . S
H1369 C1382 0.930 . S
H1370 C1383 0.930 . S
H1371 C1387 0.959 . S
H1372 C1387 0.959 . S
H1373 C1387 0.961 . S
H1374 C1388 0.960 . S
H1375 C1388 0.961 . S
H1376 C1388 0.959 . S
H1377 C1391 0.929 . S
H1378 C1392 0.931 . S
H1379 C1394 0.930 . S
C1380 H1368 0.930 . S
C1380 C1381 1.399 . S
C1380 C1385 1.399 . S
C1381 C1380 1.399 . S
C1381 C1382 1.376 . S
C1382 H1369 0.930 . S
C1382 C1381 1.376 . S
C1382 C1383 1.388 . S
C1383 H1370 0.930 . S
C1383 C1382 1.388 . S
C1383 C1384 1.390 . S
C1384 C1383 1.390 . S
C1384 C1385 1.394 . S
C1384 C1390 1.465 . S
C1385 C1380 1.399 . S
C1385 C1384 1.394 . S
C1385 C1386 1.516 . S
C1386 C1385 1.516 . S
C1386 C1387 1.502 . S
C1386 C1388 1.561 . S
C1386 C1389 1.526 . S
C1387 H1371 0.959 . S
C1387 H1372 0.959 . S
C1387 H1373 0.961 . S
C1387 C1386 1.502 . S
C1388 H1374 0.960 . S
C1388 H1375 0.961 . S
C1388 H1376 0.959 . S
C1388 C1386 1.561 . S
C1389 C1386 1.526 . S
C1389 C1390 1.396 . S
C1389 C1394 1.390 . S
C1390 C1384 1.465 . S
C1390 C1389 1.396 . S
C1390 C1391 1.399 . S
C1391 H1377 0.929 . S
C1391 C1390 1.399 . S
C1391 C1392 1.385 . S
C1392 H1378 0.931 . S
C1392 C1391 1.385 . S
C1392 C1393 1.389 . S
C1393 C1392 1.389 . S
C1393 C1394 1.387 . S
C1394 H1379 0.930 . S
C1394 C1389 1.390 . S
C1394 C1393 1.387 . S
H1395 C1407 0.930 . S
H1396 C1409 0.930 . S
H1397 C1410 0.930 . S
H1398 C1414 0.959 . S
H1399 C1414 0.959 . S
H1400 C1414 0.961 . S
H1401 C1415 0.960 . S
H1402 C1415 0.961 . S
H1403 C1415 0.959 . S
H1404 C1418 0.929 . S
H1405 C1419 0.931 . S
H1406 C1421 0.930 . S
C1407 H1395 0.930 . S
C1407 C1408 1.399 . S
C1407 C1412 1.399 . S
C1408 C1407 1.399 . S
C1408 C1409 1.376 . S
C1409 H1396 0.930 . S
C1409 C1408 1.376 . S
C1409 C1410 1.388 . S
C1410 H1397 0.930 . S
C1410 C1409 1.388 . S
C1410 C1411 1.390 . S
C1411 C1410 1.390 . S
C1411 C1412 1.394 . S
C1411 C1417 1.465 . S
C1412 C1407 1.399 . S
C1412 C1411 1.394 . S
C1412 C1413 1.516 . S
C1413 C1412 1.516 . S
C1413 C1414 1.502 . S
C1413 C1415 1.561 . S
C1413 C1416 1.526 . S
C1414 H1398 0.959 . S
C1414 H1399 0.959 . S
C1414 H1400 0.961 . S
C1414 C1413 1.502 . S
C1415 H1401 0.960 . S
C1415 H1402 0.961 . S
C1415 H1403 0.959 . S
C1415 C1413 1.561 . S
C1416 C1413 1.526 . S
C1416 C1417 1.396 . S
C1416 C1421 1.390 . S
C1417 C1411 1.465 . S
C1417 C1416 1.396 . S
C1417 C1418 1.399 . S
C1418 H1404 0.929 . S
C1418 C1417 1.399 . S
C1418 C1419 1.385 . S
C1419 H1405 0.931 . S
C1419 C1418 1.385 . S
C1419 C1420 1.389 . S
C1420 C1419 1.389 . S
C1420 C1421 1.387 . S
C1421 H1406 0.930 . S
C1421 C1416 1.390 . S
C1421 C1420 1.387 . S
H1422 C1434 0.930 . S
H1423 C1436 0.933 . S
H1424 C1437 0.930 1_545 S
H1425 C1441 0.959 . S
H1426 C1441 0.959 . S
H1427 C1441 0.961 . S
H1428 C1442 0.960 . S
H1429 C1442 0.961 . S
H1430 C1442 0.959 . S
H1431 C1445 0.929 . S
H1432 C1446 0.931 . S
H1433 C1448 0.930 . S
C1434 H1422 0.930 . S
C1434 C1435 1.399 . S
C1434 C1439 1.399 . S
C1435 C1434 1.399 . S
C1435 C1436 1.376 . S
C1436 H1423 0.933 . S
C1436 C1435 1.376 . S
C1436 C1437 1.388 . S
C1437 H1424 0.930 1_565 S
C1437 C1436 1.388 . S
C1437 C1438 1.390 . S
C1438 C1437 1.390 . S
C1438 C1439 1.394 . S
C1438 C1444 1.465 . S
C1439 C1434 1.399 . S
C1439 C1438 1.394 . S
C1439 C1440 1.516 . S
C1440 C1439 1.516 . S
C1440 C1441 1.502 . S
C1440 C1442 1.561 . S
C1440 C1443 1.526 . S
C1441 H1425 0.959 . S
C1441 H1426 0.959 . S
C1441 H1427 0.961 . S
C1441 C1440 1.502 . S
C1442 H1428 0.960 . S
C1442 H1429 0.961 . S
C1442 H1430 0.959 . S
C1442 C1440 1.561 . S
C1443 C1440 1.526 . S
C1443 C1444 1.396 . S
C1443 C1448 1.390 . S
C1444 C1438 1.465 . S
C1444 C1443 1.396 . S
C1444 C1445 1.399 1_565 S
C1445 H1431 0.929 . S
C1445 C1444 1.399 1_545 S
C1445 C1446 1.385 . S
C1446 H1432 0.931 . S
C1446 C1445 1.385 . S
C1446 C1447 1.389 1_545 S
C1447 C1446 1.389 1_565 S
C1447 C1448 1.387 . S
C1448 H1433 0.930 . S
C1448 C1443 1.390 . S
C1448 C1447 1.387 . S
H1449 C1461 0.930 . S
H1450 C1463 0.930 . S
H1451 C1464 0.930 . S
H1452 C1468 0.959 . S
H1453 C1468 0.959 . S
H1454 C1468 0.961 . S
H1455 C1469 0.960 . S
H1456 C1469 0.961 . S
H1457 C1469 0.959 . S
H1458 C1472 0.929 . S
H1459 C1473 0.931 . S
H1460 C1475 0.930 . S
C1461 H1449 0.930 . S
C1461 C1462 1.399 . S
C1461 C1466 1.399 . S
C1462 C1461 1.399 . S
C1462 C1463 1.376 . S
C1463 H1450 0.930 . S
C1463 C1462 1.376 . S
C1463 C1464 1.388 . S
C1464 H1451 0.930 . S
C1464 C1463 1.388 . S
C1464 C1465 1.390 . S
C1465 C1464 1.390 . S
C1465 C1466 1.394 . S
C1465 C1471 1.465 . S
C1466 C1461 1.399 . S
C1466 C1465 1.394 . S
C1466 C1467 1.516 . S
C1467 C1466 1.516 . S
C1467 C1468 1.502 1_545 S
C1467 C1469 1.561 . S
C1467 C1470 1.526 . S
C1468 H1452 0.959 . S
C1468 H1453 0.959 . S
C1468 H1454 0.961 . S
C1468 C1467 1.502 1_565 S
C1469 H1455 0.960 . S
C1469 H1456 0.961 . S
C1469 H1457 0.959 . S
C1469 C1467 1.561 . S
C1470 C1467 1.526 . S
C1470 C1471 1.396 . S
C1470 C1475 1.390 . S
C1471 C1465 1.465 . S
C1471 C1470 1.396 . S
C1471 C1472 1.399 . S
C1472 H1458 0.929 . S
C1472 C1471 1.399 . S
C1472 C1473 1.385 . S
C1473 H1459 0.931 . S
C1473 C1472 1.385 . S
C1473 C1474 1.389 . S
C1474 C1473 1.389 . S
C1474 C1475 1.387 . S
C1475 H1460 0.930 . S
C1475 C1470 1.390 . S
C1475 C1474 1.387 . S
H1476 C1488 0.930 . S
H1477 C1490 0.930 . S
H1478 C1491 0.930 . S
H1479 C1495 0.959 1_455 S
H1480 C1495 0.959 . S
H1481 C1495 0.961 . S
H1482 C1496 0.960 . S
H1483 C1496 0.961 . S
H1484 C1496 0.959 . S
H1485 C1499 0.929 . S
H1486 C1500 0.931 . S
H1487 C1502 0.930 . S
C1488 H1476 0.930 . S
C1488 C1489 1.399 . S
C1488 C1493 1.399 . S
C1489 C1488 1.399 . S
C1489 C1490 1.376 . S
C1490 H1477 0.930 . S
C1490 C1489 1.376 . S
C1490 C1491 1.388 . S
C1491 H1478 0.930 . S
C1491 C1490 1.388 . S
C1491 C1492 1.390 . S
C1492 C1491 1.390 . S
C1492 C1493 1.394 . S
C1492 C1498 1.465 . S
C1493 C1488 1.399 . S
C1493 C1492 1.394 . S
C1493 C1494 1.516 . S
C1494 C1493 1.516 . S
C1494 C1495 1.502 . S
C1494 C1496 1.561 . S
C1494 C1497 1.526 . S
C1495 H1479 0.959 1_655 S
C1495 H1480 0.959 . S
C1495 H1481 0.961 . S
C1495 C1494 1.502 . S
C1496 H1482 0.960 . S
C1496 H1483 0.961 . S
C1496 H1484 0.959 . S
C1496 C1494 1.561 . S
C1497 C1494 1.526 . S
C1497 C1498 1.396 . S
C1497 C1502 1.390 . S
C1498 C1492 1.465 . S
C1498 C1497 1.396 . S
C1498 C1499 1.399 . S
C1499 H1485 0.929 . S
C1499 C1498 1.399 . S
C1499 C1500 1.385 . S
C1500 H1486 0.931 . S
C1500 C1499 1.385 . S
C1500 C1501 1.389 . S
C1501 C1500 1.389 . S
C1501 C1502 1.387 . S
C1502 H1487 0.930 . S
C1502 C1497 1.390 . S
C1502 C1501 1.387 . S
H1503 C1515 0.930 . S
H1504 C1517 0.930 . S
H1505 C1518 0.930 . S
H1506 C1522 0.959 . S
H1507 C1522 0.959 . S
H1508 C1522 0.961 . S
H1509 C1523 0.960 . S
H1510 C1523 0.961 . S
H1511 C1523 0.959 . S
H1512 C1526 0.929 . S
H1513 C1527 0.931 1_556 S
H1514 C1529 0.930 . S
C1515 H1503 0.930 . S
C1515 C1516 1.399 . S
C1515 C1520 1.399 . S
C1516 C1515 1.399 . S
C1516 C1517 1.376 . S
C1517 H1504 0.930 . S
C1517 C1516 1.376 . S
C1517 C1518 1.388 . S
C1518 H1505 0.930 . S
C1518 C1517 1.388 . S
C1518 C1519 1.390 . S
C1519 C1518 1.390 . S
C1519 C1520 1.394 . S
C1519 C1525 1.465 . S
C1520 C1515 1.399 . S
C1520 C1519 1.394 . S
C1520 C1521 1.516 . S
C1521 C1520 1.516 . S
C1521 C1522 1.502 . S
C1521 C1523 1.561 . S
C1521 C1524 1.526 . S
C1522 H1506 0.959 . S
C1522 H1507 0.959 . S
C1522 H1508 0.961 . S
C1522 C1521 1.502 . S
C1523 H1509 0.960 . S
C1523 H1510 0.961 . S
C1523 H1511 0.959 . S
C1523 C1521 1.561 . S
C1524 C1521 1.526 . S
C1524 C1525 1.396 . S
C1524 C1529 1.390 . S
C1525 C1519 1.465 . S
C1525 C1524 1.396 . S
C1525 C1526 1.399 . S
C1526 H1512 0.929 . S
C1526 C1525 1.399 . S
C1526 C1527 1.385 . S
C1527 H1513 0.931 1_554 S
C1527 C1526 1.385 . S
C1527 C1528 1.389 . S
C1528 C1527 1.389 . S
C1528 C1529 1.387 . S
C1529 H1514 0.930 . S
C1529 C1524 1.390 . S
C1529 C1528 1.387 . S
H1530 C1542 0.930 . S
H1531 C1544 0.930 . S
H1532 C1545 0.930 . S
H1533 C1549 0.959 . S
H1534 C1549 0.959 . S
H1535 C1549 0.961 . S
H1536 C1550 0.960 1_455 S
H1537 C1550 0.961 . S
H1538 C1550 0.959 1_455 S
H1539 C1553 0.929 . S
H1540 C1554 0.931 . S
H1541 C1556 0.930 . S
C1542 H1530 0.930 . S
C1542 C1543 1.399 . S
C1542 C1547 1.399 . S
C1543 C1542 1.399 . S
C1543 C1544 1.376 . S
C1544 H1531 0.930 . S
C1544 C1543 1.376 . S
C1544 C1545 1.388 . S
C1545 H1532 0.930 . S
C1545 C1544 1.388 . S
C1545 C1546 1.390 . S
C1546 C1545 1.390 . S
C1546 C1547 1.394 . S
C1546 C1552 1.465 . S
C1547 C1542 1.399 . S
C1547 C1546 1.394 . S
C1547 C1548 1.516 . S
C1548 C1547 1.516 . S
C1548 C1549 1.502 . S
C1548 C1550 1.561 . S
C1548 C1551 1.526 . S
C1549 H1533 0.959 . S
C1549 H1534 0.959 . S
C1549 H1535 0.961 . S
C1549 C1548 1.502 . S
C1550 H1536 0.960 1_655 S
C1550 H1537 0.961 . S
C1550 H1538 0.959 1_655 S
C1550 C1548 1.561 . S
C1551 C1548 1.526 . S
C1551 C1552 1.396 . S
C1551 C1556 1.390 . S
C1552 C1546 1.465 . S
C1552 C1551 1.396 . S
C1552 C1553 1.399 . S
C1553 H1539 0.929 . S
C1553 C1552 1.399 . S
C1553 C1554 1.385 . S
C1554 H1540 0.931 . S
C1554 C1553 1.385 . S
C1554 C1555 1.389 . S
C1555 C1554 1.389 . S
C1555 C1556 1.387 . S
C1556 H1541 0.930 . S
C1556 C1551 1.390 . S
C1556 C1555 1.387 . S
H1557 C1569 0.930 . S
H1558 C1571 0.930 . S
H1559 C1572 0.930 . S
H1560 C1576 0.959 . S
H1561 C1576 0.959 . S
H1562 C1576 0.961 . S
H1563 C1577 0.960 . S
H1564 C1577 0.961 . S
H1565 C1577 0.959 . S
H1566 C1580 0.929 . S
H1567 C1581 0.931 . S
H1568 C1583 0.930 . S
C1569 H1557 0.930 . S
C1569 C1570 1.399 . S
C1569 C1574 1.399 . S
C1570 C1569 1.399 . S
C1570 C1571 1.376 . S
C1571 H1558 0.930 . S
C1571 C1570 1.376 . S
C1571 C1572 1.388 . S
C1572 H1559 0.930 . S
C1572 C1571 1.388 . S
C1572 C1573 1.390 . S
C1573 C1572 1.390 . S
C1573 C1574 1.394 . S
C1573 C1579 1.465 . S
C1574 C1569 1.399 . S
C1574 C1573 1.394 . S
C1574 C1575 1.516 . S
C1575 C1574 1.516 . S
C1575 C1576 1.502 . S
C1575 C1577 1.561 . S
C1575 C1578 1.526 . S
C1576 H1560 0.959 . S
C1576 H1561 0.959 . S
C1576 H1562 0.961 . S
C1576 C1575 1.502 . S
C1577 H1563 0.960 . S
C1577 H1564 0.961 . S
C1577 H1565 0.959 . S
C1577 C1575 1.561 . S
C1578 C1575 1.526 . S
C1578 C1579 1.396 . S
C1578 C1583 1.390 . S
C1579 C1573 1.465 . S
C1579 C1578 1.396 . S
C1579 C1580 1.399 . S
C1580 H1566 0.929 . S
C1580 C1579 1.399 . S
C1580 C1581 1.385 . S
C1581 H1567 0.931 . S
C1581 C1580 1.385 . S
C1581 C1582 1.389 . S
C1582 C1581 1.389 . S
C1582 C1583 1.387 . S
C1583 H1568 0.930 . S
C1583 C1578 1.390 . S
C1583 C1582 1.387 . S
H1584 C1596 0.930 . S
H1585 C1598 0.930 . S
H1586 C1599 0.930 . S
H1587 C1603 0.959 . S
H1588 C1603 0.959 . S
H1589 C1603 0.961 . S
H1590 C1604 0.960 . S
H1591 C1604 0.961 . S
H1592 C1604 0.959 1_545 S
H1593 C1607 0.929 . S
H1594 C1608 0.931 . S
H1595 C1610 0.930 . S
C1596 H1584 0.930 . S
C1596 C1597 1.399 . S
C1596 C1601 1.399 . S
C1597 C1596 1.399 . S
C1597 C1598 1.376 . S
C1598 H1585 0.930 . S
C1598 C1597 1.376 . S
C1598 C1599 1.388 . S
C1599 H1586 0.930 . S
C1599 C1598 1.388 . S
C1599 C1600 1.390 . S
C1600 C1599 1.390 . S
C1600 C1601 1.394 . S
C1600 C1606 1.465 . S
C1601 C1596 1.399 . S
C1601 C1600 1.394 . S
C1601 C1602 1.516 . S
C1602 C1601 1.516 . S
C1602 C1603 1.502 . S
C1602 C1604 1.561 1_545 S
C1602 C1605 1.526 . S
C1603 H1587 0.959 . S
C1603 H1588 0.959 . S
C1603 H1589 0.961 . S
C1603 C1602 1.502 . S
C1604 H1590 0.960 . S
C1604 H1591 0.961 . S
C1604 H1592 0.959 1_565 S
C1604 C1602 1.561 1_565 S
C1605 C1602 1.526 . S
C1605 C1606 1.396 . S
C1605 C1610 1.390 . S
C1606 C1600 1.465 . S
C1606 C1605 1.396 . S
C1606 C1607 1.399 . S
C1607 H1593 0.929 . S
C1607 C1606 1.399 . S
C1607 C1608 1.385 . S
C1608 H1594 0.931 . S
C1608 C1607 1.385 . S
C1608 C1609 1.389 . S
C1609 C1608 1.389 . S
C1609 C1610 1.387 . S
C1610 H1595 0.930 . S
C1610 C1605 1.390 . S
C1610 C1609 1.387 . S
H1611 C1623 0.930 . S
H1612 C1625 0.930 1_545 S
H1613 C1626 0.950 . S
H1614 C1630 0.959 . S
H1615 C1630 0.959 . S
H1616 C1630 0.961 . S
H1617 C1631 0.960 . S
H1618 C1631 0.961 . S
H1619 C1631 0.959 . S
H1620 C1634 0.929 1_545 S
H1621 C1635 0.931 1_554 S
H1622 C1637 0.930 . S
C1623 H1611 0.930 . S
C1623 C1624 1.399 . S
C1623 C1628 1.399 . S
C1624 C1623 1.399 . S
C1624 C1625 1.376 . S
C1625 H1612 0.930 1_565 S
C1625 C1624 1.376 . S
C1625 C1626 1.384 1_565 S
C1626 H1613 0.950 . S
C1626 C1625 1.384 1_545 S
C1626 C1627 1.375 1_545 S
C1627 C1626 1.375 1_565 S
C1627 C1628 1.394 . S
C1627 C1633 1.465 . S
C1628 C1623 1.399 . S
C1628 C1627 1.394 . S
C1628 C1629 1.516 . S
C1629 C1628 1.516 . S
C1629 C1630 1.502 . S
C1629 C1631 1.561 . S
C1629 C1632 1.526 . S
C1630 H1614 0.959 . S
C1630 H1615 0.959 . S
C1630 H1616 0.961 . S
C1630 C1629 1.502 . S
C1631 H1617 0.960 . S
C1631 H1618 0.961 . S
C1631 H1619 0.959 . S
C1631 C1629 1.561 . S
C1632 C1629 1.526 . S
C1632 C1633 1.396 . S
C1632 C1637 1.390 . S
C1633 C1627 1.465 . S
C1633 C1632 1.396 . S
C1633 C1634 1.399 . S
C1634 H1620 0.929 1_565 S
C1634 C1633 1.399 . S
C1634 C1635 1.385 . S
C1635 H1621 0.931 1_556 S
C1635 C1634 1.385 . S
C1635 C1636 1.389 . S
C1636 C1635 1.389 . S
C1636 C1637 1.387 . S
C1637 H1622 0.930 . S
C1637 C1632 1.390 . S
C1637 C1636 1.387 . S
H1638 C1650 0.930 . S
H1639 C1652 0.930 . S
H1640 C1653 0.930 . S
H1641 C1657 0.959 . S
H1642 C1657 0.959 . S
H1643 C1657 0.961 . S
H1644 C1658 0.960 . S
H1645 C1658 0.961 . S
H1646 C1658 0.959 . S
H1647 C1661 0.929 . S
H1648 C1662 0.931 . S
H1649 C1664 0.930 . S
C1650 H1638 0.930 . S
C1650 C1651 1.399 . S
C1650 C1655 1.399 . S
C1651 C1650 1.399 . S
C1651 C1652 1.376 . S
C1652 H1639 0.930 . S
C1652 C1651 1.376 . S
C1652 C1653 1.388 . S
C1653 H1640 0.930 . S
C1653 C1652 1.388 . S
C1653 C1654 1.390 . S
C1654 C1653 1.390 . S
C1654 C1655 1.394 . S
C1654 C1660 1.465 . S
C1655 C1650 1.399 . S
C1655 C1654 1.394 . S
C1655 C1656 1.516 . S
C1656 C1655 1.516 . S
C1656 C1657 1.502 . S
C1656 C1658 1.561 . S
C1656 C1659 1.526 . S
C1657 H1641 0.959 . S
C1657 H1642 0.959 . S
C1657 H1643 0.961 . S
C1657 C1656 1.502 . S
C1658 H1644 0.960 . S
C1658 H1645 0.961 . S
C1658 H1646 0.959 . S
C1658 C1656 1.561 . S
C1659 C1656 1.526 . S
C1659 C1660 1.396 . S
C1659 C1664 1.390 . S
C1660 C1654 1.465 . S
C1660 C1659 1.396 . S
C1660 C1661 1.399 . S
C1661 H1647 0.929 . S
C1661 C1660 1.399 . S
C1661 C1662 1.385 . S
C1662 H1648 0.931 . S
C1662 C1661 1.385 . S
C1662 C1663 1.389 . S
C1663 C1662 1.389 . S
C1663 C1664 1.387 . S
C1664 H1649 0.930 . S
C1664 C1659 1.390 . S
C1664 C1663 1.387 . S
H1665 C1677 0.930 . S
H1666 C1679 0.930 . S
H1667 C1680 0.930 . S
H1668 C1684 0.959 . S
H1669 C1684 0.959 . S
H1670 C1684 0.961 . S
H1671 C1685 0.960 . S
H1672 C1685 0.961 . S
H1673 C1685 0.959 . S
H1674 C1688 0.929 . S
H1675 C1689 0.931 1_554 S
H1676 C1691 0.930 . S
C1677 H1665 0.930 . S
C1677 C1678 1.399 . S
C1677 C1682 1.399 . S
C1678 C1677 1.399 . S
C1678 C1679 1.376 . S
C1679 H1666 0.930 . S
C1679 C1678 1.376 . S
C1679 C1680 1.388 . S
C1680 H1667 0.930 . S
C1680 C1679 1.388 . S
C1680 C1681 1.390 . S
C1681 C1680 1.390 . S
C1681 C1682 1.394 . S
C1681 C1687 1.465 . S
C1682 C1677 1.399 . S
C1682 C1681 1.394 . S
C1682 C1683 1.516 . S
C1683 C1682 1.516 . S
C1683 C1684 1.502 . S
C1683 C1685 1.561 . S
C1683 C1686 1.526 . S
C1684 H1668 0.959 . S
C1684 H1669 0.959 . S
C1684 H1670 0.961 . S
C1684 C1683 1.502 . S
C1685 H1671 0.960 . S
C1685 H1672 0.961 . S
C1685 H1673 0.959 . S
C1685 C1683 1.561 . S
C1686 C1683 1.526 . S
C1686 C1687 1.396 . S
C1686 C1691 1.390 . S
C1687 C1681 1.465 . S
C1687 C1686 1.396 . S
C1687 C1688 1.399 . S
C1688 H1674 0.929 . S
C1688 C1687 1.399 . S
C1688 C1689 1.385 . S
C1689 H1675 0.931 1_556 S
C1689 C1688 1.385 . S
C1689 C1690 1.389 . S
C1690 C1689 1.389 . S
C1690 C1691 1.387 . S
C1691 H1676 0.930 . S
C1691 C1686 1.390 . S
C1691 C1690 1.387 . S
H1692 C1704 0.930 . S
H1693 C1706 0.930 . S
H1694 C1707 0.930 . S
H1695 C1711 0.959 . S
H1696 C1711 0.959 . S
H1697 C1711 0.961 . S
H1698 C1712 0.960 . S
H1699 C1712 0.961 . S
H1700 C1712 0.959 . S
H1701 C1715 0.929 . S
H1702 C1716 0.931 1_565 S
H1703 C1718 0.930 . S
C1704 H1692 0.930 . S
C1704 C1705 1.399 1_545 S
C1704 C1709 1.399 . S
C1705 C1704 1.399 1_565 S
C1705 C1706 1.376 . S
C1706 H1693 0.930 . S
C1706 C1705 1.376 . S
C1706 C1707 1.388 . S
C1707 H1694 0.930 . S
C1707 C1706 1.388 . S
C1707 C1708 1.390 . S
C1708 C1707 1.390 . S
C1708 C1709 1.394 1_565 S
C1708 C1714 1.465 1_565 S
C1709 C1704 1.399 . S
C1709 C1708 1.394 1_545 S
C1709 C1710 1.516 . S
C1710 C1709 1.516 . S
C1710 C1711 1.502 . S
C1710 C1712 1.561 . S
C1710 C1713 1.526 . S
C1711 H1695 0.959 . S
C1711 H1696 0.959 . S
C1711 H1697 0.961 . S
C1711 C1710 1.502 . S
C1712 H1698 0.960 . S
C1712 H1699 0.961 . S
C1712 H1700 0.959 . S
C1712 C1710 1.561 . S
C1713 C1710 1.526 . S
C1713 C1714 1.396 . S
C1713 C1718 1.390 . S
C1714 C1708 1.465 1_545 S
C1714 C1713 1.396 . S
C1714 C1715 1.399 1_545 S
C1715 H1701 0.929 . S
C1715 C1714 1.399 1_565 S
C1715 C1716 1.385 1_565 S
C1716 H1702 0.931 1_545 S
C1716 C1715 1.385 1_545 S
C1716 C1717 1.389 . S
C1717 C1716 1.389 . S
C1717 C1718 1.387 . S
C1718 H1703 0.930 . S
C1718 C1713 1.390 . S
C1718 C1717 1.387 . S
H1719 C1731 0.930 . S
H1720 C1733 0.930 1_655 S
H1721 C1734 0.930 . S
H1722 C1738 0.959 . S
H1723 C1738 0.959 . S
H1724 C1738 0.961 . S
H1725 C1739 0.960 . S
H1726 C1739 0.961 . S
H1727 C1739 0.959 . S
H1728 C1742 0.929 . S
H1729 C1743 0.931 . S
H1730 C1745 0.930 . S
C1731 H1719 0.930 . S
C1731 C1732 1.399 . S
C1731 C1736 1.399 . S
C1732 C1731 1.399 . S
C1732 C1733 1.376 . S
C1733 H1720 0.930 1_455 S
C1733 C1732 1.376 . S
C1733 C1734 1.388 1_455 S
C1734 H1721 0.930 . S
C1734 C1733 1.388 1_655 S
C1734 C1735 1.390 1_655 S
C1735 C1734 1.390 1_455 S
C1735 C1736 1.394 . S
C1735 C1741 1.465 1_455 S
C1736 C1731 1.399 . S
C1736 C1735 1.394 . S
C1736 C1737 1.516 . S
C1737 C1736 1.516 . S
C1737 C1738 1.502 . S
C1737 C1739 1.561 . S
C1737 C1740 1.526 . S
C1738 H1722 0.959 . S
C1738 H1723 0.959 . S
C1738 H1724 0.961 . S
C1738 C1737 1.502 . S
C1739 H1725 0.960 . S
C1739 H1726 0.961 . S
C1739 H1727 0.959 . S
C1739 C1737 1.561 . S
C1740 C1737 1.526 . S
C1740 C1741 1.396 1_455 S
C1740 C1745 1.390 . S
C1741 C1735 1.465 1_655 S
C1741 C1740 1.396 1_655 S
C1741 C1742 1.399 . S
C1742 H1728 0.929 . S
C1742 C1741 1.399 . S
C1742 C1743 1.385 . S
C1743 H1729 0.931 . S
C1743 C1742 1.385 . S
C1743 C1744 1.389 . S
C1744 C1743 1.389 . S
C1744 C1745 1.387 1_655 S
C1745 H1730 0.930 . S
C1745 C1740 1.390 . S
C1745 C1744 1.387 1_455 S
H1746 C1758 0.930 . S
H1747 C1760 0.930 . S
H1748 C1761 0.930 . S
H1749 C1765 0.959 . S
H1750 C1765 0.959 . S
H1751 C1765 0.961 . S
H1752 C1766 0.960 . S
H1753 C1766 0.961 . S
H1754 C1766 0.959 . S
H1755 C1769 0.929 . S
H1756 C1770 0.931 . S
H1757 C1772 0.930 . S
C1758 H1746 0.930 . S
C1758 C1759 1.399 . S
C1758 C1763 1.399 . S
C1759 C1758 1.399 . S
C1759 C1760 1.376 . S
C1760 H1747 0.930 . S
C1760 C1759 1.376 . S
C1760 C1761 1.388 . S
C1761 H1748 0.930 . S
C1761 C1760 1.388 . S
C1761 C1762 1.390 . S
C1762 C1761 1.390 . S
C1762 C1763 1.394 . S
C1762 C1768 1.465 . S
C1763 C1758 1.399 . S
C1763 C1762 1.394 . S
C1763 C1764 1.516 . S
C1764 C1763 1.516 . S
C1764 C1765 1.502 . S
C1764 C1766 1.561 . S
C1764 C1767 1.526 . S
C1765 H1749 0.959 . S
C1765 H1750 0.959 . S
C1765 H1751 0.961 . S
C1765 C1764 1.502 . S
C1766 H1752 0.960 . S
C1766 H1753 0.961 . S
C1766 H1754 0.959 . S
C1766 C1764 1.561 . S
C1767 C1764 1.526 . S
C1767 C1768 1.396 . S
C1767 C1772 1.390 . S
C1768 C1762 1.465 . S
C1768 C1767 1.396 . S
C1768 C1769 1.399 . S
C1769 H1755 0.929 . S
C1769 C1768 1.399 . S
C1769 C1770 1.385 . S
C1770 H1756 0.931 . S
C1770 C1769 1.385 . S
C1770 C1771 1.389 . S
C1771 C1770 1.389 . S
C1771 C1772 1.387 . S
C1772 H1757 0.930 . S
C1772 C1767 1.390 . S
C1772 C1771 1.387 . S
H1773 C1785 0.930 . S
H1774 C1787 0.930 1_655 S
H1775 C1788 0.930 . S
H1776 C1792 0.959 . S
H1777 C1792 0.959 . S
H1778 C1792 0.961 . S
H1779 C1793 0.960 . S
H1780 C1793 0.961 . S
H1781 C1793 0.959 . S
H1782 C1796 0.929 . S
H1783 C1797 0.931 . S
H1784 C1799 0.930 . S
C1785 H1773 0.930 . S
C1785 C1786 1.399 . S
C1785 C1790 1.399 . S
C1786 C1785 1.399 . S
C1786 C1787 1.376 . S
C1787 H1774 0.930 1_455 S
C1787 C1786 1.376 . S
C1787 C1788 1.388 1_455 S
C1788 H1775 0.930 . S
C1788 C1787 1.388 1_655 S
C1788 C1789 1.390 1_655 S
C1789 C1788 1.390 1_455 S
C1789 C1790 1.394 . S
C1789 C1795 1.465 1_455 S
C1790 C1785 1.399 . S
C1790 C1789 1.394 . S
C1790 C1791 1.516 . S
C1791 C1790 1.516 . S
C1791 C1792 1.502 . S
C1791 C1793 1.561 . S
C1791 C1794 1.526 . S
C1792 H1776 0.959 . S
C1792 H1777 0.959 . S
C1792 H1778 0.961 . S
C1792 C1791 1.502 . S
C1793 H1779 0.960 . S
C1793 H1780 0.961 . S
C1793 H1781 0.959 . S
C1793 C1791 1.561 . S
C1794 C1791 1.526 . S
C1794 C1795 1.396 1_455 S
C1794 C1799 1.390 . S
C1795 C1789 1.465 1_655 S
C1795 C1794 1.396 1_655 S
C1795 C1796 1.399 . S
C1796 H1782 0.929 . S
C1796 C1795 1.399 . S
C1796 C1797 1.385 . S
C1797 H1783 0.931 . S
C1797 C1796 1.385 . S
C1797 C1798 1.389 . S
C1798 C1797 1.389 . S
C1798 C1799 1.387 1_655 S
C1799 H1784 0.930 . S
C1799 C1794 1.390 . S
C1799 C1798 1.387 1_455 S
H1800 C1812 0.930 . S
H1801 C1814 0.930 . S
H1802 C1815 0.930 . S
H1803 C1819 0.959 . S
H1804 C1819 0.959 . S
H1805 C1819 0.961 . S
H1806 C1820 0.960 . S
H1807 C1820 0.961 . S
H1808 C1820 0.959 . S
H1809 C1823 0.929 . S
H1810 C1824 0.931 . S
H1811 C1826 0.930 . S
C1812 H1800 0.930 . S
C1812 C1813 1.399 . S
C1812 C1817 1.399 . S
C1813 C1812 1.399 . S
C1813 C1814 1.376 . S
C1814 H1801 0.930 . S
C1814 C1813 1.376 . S
C1814 C1815 1.388 . S
C1815 H1802 0.930 . S
C1815 C1814 1.388 . S
C1815 C1816 1.390 . S
C1816 C1815 1.390 . S
C1816 C1817 1.394 . S
C1816 C1822 1.465 . S
C1817 C1812 1.399 . S
C1817 C1816 1.394 . S
C1817 C1818 1.516 . S
C1818 C1817 1.516 . S
C1818 C1819 1.502 . S
C1818 C1820 1.561 . S
C1818 C1821 1.526 . S
C1819 H1803 0.959 . S
C1819 H1804 0.959 . S
C1819 H1805 0.961 . S
C1819 C1818 1.502 . S
C1820 H1806 0.960 . S
C1820 H1807 0.961 . S
C1820 H1808 0.959 . S
C1820 C1818 1.561 . S
C1821 C1818 1.526 . S
C1821 C1822 1.396 . S
C1821 C1826 1.390 . S
C1822 C1816 1.465 . S
C1822 C1821 1.396 . S
C1822 C1823 1.399 . S
C1823 H1809 0.929 . S
C1823 C1822 1.399 . S
C1823 C1824 1.385 . S
C1824 H1810 0.931 . S
C1824 C1823 1.385 . S
C1824 C1825 1.389 . S
C1825 C1824 1.389 . S
C1825 C1826 1.387 . S
C1826 H1811 0.930 . S
C1826 C1821 1.390 . S
C1826 C1825 1.387 . S
H1827 C1839 0.930 . S
H1828 C1841 0.930 1_565 S
H1829 C1842 0.930 . S
H1830 C1846 0.959 . S
H1831 C1846 0.959 . S
H1832 C1846 0.961 . S
H1833 C1847 0.960 . S
H1834 C1847 0.961 . S
H1835 C1847 0.959 . S
H1836 C1850 0.929 . S
H1837 C1851 0.931 . S
H1838 C1853 0.930 . S
C1839 H1827 0.930 . S
C1839 C1840 1.399 . S
C1839 C1844 1.399 . S
C1840 C1839 1.399 . S
C1840 C1841 1.376 . S
C1841 H1828 0.930 1_545 S
C1841 C1840 1.376 . S
C1841 C1842 1.388 1_545 S
C1842 H1829 0.930 . S
C1842 C1841 1.388 1_565 S
C1842 C1843 1.390 1_565 S
C1843 C1842 1.390 1_545 S
C1843 C1844 1.394 . S
C1843 C1849 1.465 1_545 S
C1844 C1839 1.399 . S
C1844 C1843 1.394 . S
C1844 C1845 1.516 . S
C1845 C1844 1.516 . S
C1845 C1846 1.502 . S
C1845 C1847 1.561 . S
C1845 C1848 1.526 . S
C1846 H1830 0.959 . S
C1846 H1831 0.959 . S
C1846 H1832 0.961 . S
C1846 C1845 1.502 . S
C1847 H1833 0.960 . S
C1847 H1834 0.961 . S
C1847 H1835 0.959 . S
C1847 C1845 1.561 . S
C1848 C1845 1.526 . S
C1848 C1849 1.396 1_545 S
C1848 C1853 1.390 . S
C1849 C1843 1.465 1_565 S
C1849 C1848 1.396 1_565 S
C1849 C1850 1.399 . S
C1850 H1836 0.929 . S
C1850 C1849 1.399 . S
C1850 C1851 1.385 . S
C1851 H1837 0.931 . S
C1851 C1850 1.385 . S
C1851 C1852 1.389 . S
C1852 C1851 1.389 . S
C1852 C1853 1.387 1_565 S
C1853 H1838 0.930 . S
C1853 C1848 1.390 . S
C1853 C1852 1.387 1_545 S
C409 C249 1.317 . S
C421 C8 1.335 . S
C436 C29 1.343 . S
C448 C213 1.280 . S
C463 C62 1.265 . S
C475 C241 1.233 . S
C490 C337 1.253 . S
C502 C51 1.321 . S
C517 C21 1.279 . S
C529 C370 1.301 . S
C544 C40 1.266 . S
C556 C381 1.258 . S
C571 C316 1.259 . S
C583 C84 1.238 . S
C598 C103 1.303 . S
C610 C282 1.270 . S
C625 C118 1.251 . S
C637 C307 1.266 . S
C652 C147 1.245 . S
C664 C131 1.316 . S
C679 C73 1.368 . S
C691 C175 1.320 . S
C706 C191 1.301 . S
C718 C98 1.279 . S
C733 C382 1.231 . S
C745 C140 1.300 . S
C760 C338 1.263 . S
C772 C172 1.261 . S
C787 C367 1.274 1_455 S
C799 C184 1.259 . S
C814 C87 1.272 . S
C826 C197 1.330 . S
C841 C96 1.271 . S
C853 C153 1.291 . S
C868 C161 1.371 . S
C880 C125 1.338 . S
C895 C54 1.343 . S
C907 C219 1.306 . S
C922 C18 1.306 . S
C934 C227 1.267 . S
C949 C257 1.283 . S
C961 C43 1.321 . S
C976 C252 1.245 . S
C988 C279 1.250 . S
C1003 C206 1.266 . S
C1015 C296 1.233 . S
C1030 C238 1.318 . S
C1042 C315 1.273 1_455 S
C1057 C272 1.269 . S
C1069 C128 1.258 . S
C1084 C293 1.333 . S
C1096 C76 1.289 . S
C1111 C318 1.322 . S
C1123 C95 1.252 . S
C1138 C323 1.283 . S
C1150 C216 1.296 . S
C1165 C285 1.298 . S
C1177 C230 1.319 1_545 S
C1192 C304 1.288 . S
C1204 C250 1.228 . S
C1219 C340 1.298 . S
C1231 C194 1.225 . S
C1246 C373 1.265 . S
C1258 C150 1.275 1_545 S
C1273 C164 1.184 . S
C1285 C384 1.257 . S
C1300 C15 1.353 . S
C1312 C389 1.335 . S
C1327 C32 1.271 . S
C1339 C345 1.339 . S
C1354 C360 1.313 . S
C1366 C65 1.326 . S
C1381 C162 1.102 . S
C1393 C7 1.138 . S
C1408 C186 1.095 . S
C1420 C30 1.102 . S
C1435 C142 1.142 . S
C1447 C59 1.125 . S
C1462 C294 1.095 1_554 S
C1474 C52 1.114 . S
C1489 C10 1.156 . S
C1501 C329 1.132 1_554 S
C1516 C37 1.168 . S
C1528 C271 1.181 1_554 S
C1543 C81 1.180 . S
C1555 C359 1.166 . S
C1570 C106 1.088 . S
C1582 C392 1.097 . S
C1597 C117 1.149 . S
C1609 C348 1.118 . S
C1624 C120 1.079 . S
C1636 C228 1.121 1_556 S
C1651 C260 1.075 1_556 S
C1663 C74 1.117 . S
C1678 C109 1.123 . S
C1690 C208 1.144 1_556 S
C1705 C139 1.168 . S
C1717 C301 1.182 . S
C1732 C169 1.162 . S
C1744 C326 1.126 . S
C1759 C183 1.146 . S
C1771 C274 1.156 . S
C1786 C263 1.160 . S
C1798 C362 1.130 . S
C1813 C395 1.167 . S
C1825 C205 1.183 . S
C1840 C351 1.181 . S
C1852 C235 1.165 . S
