# Generated by pormake.
# Topology pts-e, (5)-cn, num edge types: 1
# Building blocks:
#     Node 0, Type 0, BuildingBlock: XOMCOT_clean_sbu_0, # of connection points: 5
#     Node 1, Type 0, BuildingBlock: XOMCOT_clean_sbu_0, # of connection points: 5
#     Node 2, Type 0, BuildingBlock: XOMCOT_clean_sbu_0, # of connection points: 5
#     Node 3, Type 0, BuildingBlock: XOMCOT_clean_sbu_0, # of connection points: 5
#     Node 4, Type 0, BuildingBlock: XOMCOT_clean_sbu_0, # of connection points: 5
#     Node 5, Type 0, BuildingBlock: XOMCOT_clean_sbu_0, # of connection points: 5
#     Node 6, Type 0, BuildingBlock: XOMCOT_clean_sbu_0, # of connection points: 5
#     Node 7, Type 0, BuildingBlock: XOMCOT_clean_sbu_0, # of connection points: 5
#     Edge 8, Type (0, 0), BuildingBlock: XIVTED_clean_linker_0, # of connection points: 2
#     Edge 9, Type (0, 0), BuildingBlock: XIVTED_clean_linker_0, # of connection points: 2
#     Edge 10, Type (0, 0), BuildingBlock: XIVTED_clean_linker_0, # of connection points: 2
#     Edge 11, Type (0, 0), BuildingBlock: XIVTED_clean_linker_0, # of connection points: 2
#     Edge 12, Type (0, 0), BuildingBlock: XIVTED_clean_linker_0, # of connection points: 2
#     Edge 13, Type (0, 0), BuildingBlock: XIVTED_clean_linker_0, # of connection points: 2
#     Edge 14, Type (0, 0), BuildingBlock: XIVTED_clean_linker_0, # of connection points: 2
#     Edge 15, Type (0, 0), BuildingBlock: XIVTED_clean_linker_0, # of connection points: 2
#     Edge 16, Type (0, 0), BuildingBlock: XIVTED_clean_linker_0, # of connection points: 2
#     Edge 17, Type (0, 0), BuildingBlock: XIVTED_clean_linker_0, # of connection points: 2
#     Edge 18, Type (0, 0), BuildingBlock: XIVTED_clean_linker_0, # of connection points: 2
#     Edge 19, Type (0, 0), BuildingBlock: XIVTED_clean_linker_0, # of connection points: 2
#     Edge 20, Type (0, 0), BuildingBlock: XIVTED_clean_linker_0, # of connection points: 2
#     Edge 21, Type (0, 0), BuildingBlock: XIVTED_clean_linker_0, # of connection points: 2
#     Edge 22, Type (0, 0), BuildingBlock: XIVTED_clean_linker_0, # of connection points: 2
#     Edge 23, Type (0, 0), BuildingBlock: XIVTED_clean_linker_0, # of connection points: 2
#     Edge 24, Type (0, 0), BuildingBlock: XIVTED_clean_linker_0, # of connection points: 2
#     Edge 25, Type (0, 0), BuildingBlock: XIVTED_clean_linker_0, # of connection points: 2
#     Edge 26, Type (0, 0), BuildingBlock: XIVTED_clean_linker_0, # of connection points: 2
#     Edge 27, Type (0, 0), BuildingBlock: XIVTED_clean_linker_0, # of connection points: 2
# Relax obj value: 0.536
# Max RMSD: 0.259
# Mean RMSD: 0.259
data_MOF--net-pts-e--node1-XOMCOT_clean_sbu_0--edge1-XIVTED_clean_linker_0
_symmetry_space_group_name_H-M    P1
_symmetry_Int_Tables_number       1
_symmetry_cell_setting            triclinic
loop_
_symmetry_equiv_pos_as_xyz
'x, y, z'
_cell_length_a     34.550893
_cell_length_b     34.317068
_cell_length_c     48.39334
_cell_angle_alpha  90.095312
_cell_angle_beta   90.132671
_cell_angle_gamma 89.863493
loop_
_atom_site_label
_atom_site_type_symbol
_atom_site_fract_x
_atom_site_fract_y
_atom_site_fract_z
_atom_type_partial_charge
Co0 Co 0.26877 0.03009 0.1514 0.0
C1 C 0.35132 0.01503 0.1641 0.0
C2 C 0.32121 0.96312 0.15224 0.0
C3 C 0.35958 0.95387 0.15634 0.0
N4 N 0.31616 0.0015 0.15719 0.0
N5 N 0.37821 0.98665 0.1639 0.0
H6 H 0.35806 0.04519 0.16764 0.0
H7 H 0.29867 0.94345 0.14547 0.0
C8 C 0.25381 0.97562 0.19836 0.0
O9 O 0.2888 0.98274 0.20773 0.0
N10 N 0.22134 0.05762 0.14496 0.0
C11 C 0.21629 0.096 0.14035 0.0
C12 C 0.17781 0.10244 0.13434 0.0
C13 C 0.1865 0.04121 0.14157 0.0
N14 N 0.1593 0.06785 0.13499 0.0
C15 C 0.30526 0.09716 0.17448 0.0
C16 C 0.25879 0.10278 0.22058 0.0
C17 C 0.28243 0.13428 0.21345 0.0
C18 C 0.30685 0.13071 0.19067 0.0
C19 C 0.25766 0.06992 0.20361 0.0
N20 N 0.2805 0.06736 0.18065 0.0
H21 H 0.32196 0.09676 0.15569 0.0
H22 H 0.23551 0.0487 0.20768 0.0
H23 H 0.23905 0.11756 0.14065 0.0
H24 H 0.18139 0.01027 0.1437 0.0
O25 O 0.29178 0.05757 0.12092 0.0
O26 O 0.2608 0.00126 0.1175 0.0
O27 O 0.24085 0.99341 0.17706 0.0
C28 C 0.2791 0.02955 0.10534 0.0
H29 H 0.37291 0.92563 0.15323 0.0
H30 H 0.16476 0.13019 0.12916 0.0
H31 H 0.23841 0.10508 0.23749 0.0
H32 H 0.32495 0.15478 0.18425 0.0
Co33 Co 0.02483 0.27117 0.64836 0.0
C34 C 0.0454 0.35243 0.66331 0.0
C35 C 0.09389 0.3211 0.647 0.0
C36 C 0.10493 0.35918 0.65167 0.0
N37 N 0.05637 0.31705 0.65413 0.0
N38 N 0.07427 0.37858 0.66206 0.0
H39 H 0.01656 0.36009 0.66949 0.0
H40 H 0.11165 0.29828 0.63819 0.0
C41 C 0.07733 0.25094 0.69596 0.0
O42 O 0.07505 0.28703 0.7049 0.0
N43 N -0.00605 0.22547 0.64214 0.0
C44 C 0.95517 0.22335 0.63939 0.0
C45 C 0.94531 0.18527 0.6339 0.0
C46 C 0.00725 0.18914 0.63791 0.0
N47 N 0.97814 0.16401 0.63285 0.0
C48 C 0.96073 0.31343 0.67023 0.0
C49 C 0.95011 0.26707 0.71604 0.0
C50 C 0.92048 0.29264 0.70795 0.0
C51 C 0.92689 0.31734 0.68555 0.0
C52 C 0.98355 0.26398 0.70011 0.0
N53 N 0.98835 0.28645 0.67709 0.0
H54 H 0.96324 0.33037 0.65157 0.0
H55 H 0.00312 0.24046 0.70481 0.0
H56 H 0.93548 0.24778 0.64076 0.0
H57 H 0.03762 0.18136 0.63845 0.0
O58 O -0.00037 0.29562 0.61733 0.0
O59 O 0.053 0.25989 0.61475 0.0
O60 O 0.05847 0.24031 0.67451 0.0
C61 C 0.0261 0.2796 0.60205 0.0
H62 H 0.13282 0.37184 0.64702 0.0
H63 H 0.91641 0.17426 0.63024 0.0
H64 H 0.94582 0.24653 0.73273 0.0
H65 H 0.9046 0.33728 0.67854 0.0
Co66 Co 0.76616 0.03408 0.13893 0.0
C67 C 0.68143 0.03836 0.14577 0.0
C68 C 0.7068 0.09514 0.1441 0.0
C69 C 0.66724 0.09938 0.14662 0.0
N70 N 0.71557 0.05676 0.14416 0.0
N71 N 0.65169 0.06348 0.14741 0.0
H72 H 0.67769 0.00735 0.14548 0.0
H73 H 0.72772 0.11836 0.14215 0.0
C74 C 0.7736 0.08377 0.18923 0.0
O75 O 0.74041 0.06908 0.19732 0.0
N76 N 0.81645 0.01213 0.13293 0.0
C77 C 0.82461 0.97509 0.12586 0.0
C78 C 0.8638 0.97199 0.12164 0.0
C79 C 0.85033 0.03115 0.13286 0.0
N80 N 0.87995 0.0073 0.12605 0.0
C81 C 0.73538 0.96296 0.16023 0.0
C82 C 0.78243 0.95866 0.20621 0.0
C83 C 0.75993 0.92634 0.19889 0.0
C84 C 0.73536 0.92919 0.17608 0.0
C85 C 0.78167 0.99198 0.18971 0.0
N86 N 0.75794 0.99426 0.16709 0.0
H87 H 0.71968 0.96208 0.14101 0.0
H88 H 0.80296 0.01412 0.19384 0.0
H89 H 0.80345 0.95215 0.12343 0.0
H90 H 0.853 0.0618 0.13767 0.0
O91 O 0.74724 0.00513 0.10783 0.0
O92 O 0.77167 0.06462 0.10533 0.0
O93 O 0.78871 0.07246 0.16645 0.0
C94 C 0.75712 0.03445 0.09262 0.0
H95 H 0.65115 0.12647 0.14711 0.0
H96 H 0.87893 0.94588 0.11525 0.0
H97 H 0.80316 0.95695 0.22299 0.0
H98 H 0.71836 0.90443 0.16931 0.0
Co99 Co 0.00639 0.76722 0.63102 0.0
C100 C 0.01092 0.68388 0.64482 0.0
C101 C 0.95263 0.70472 0.64771 0.0
C102 C 0.95295 0.66532 0.65354 0.0
N103 N 0.98924 0.71633 0.64276 0.0
N104 N 0.98974 0.6525 0.65148 0.0
H105 H 0.0415 0.68262 0.64104 0.0
H106 H 0.92744 0.72346 0.64675 0.0
C107 C 0.96393 0.78278 0.68424 0.0
O108 O 0.98079 0.75221 0.69536 0.0
N109 N 0.02348 0.81754 0.61889 0.0
C110 C 0.05843 0.82623 0.60838 0.0
C111 C 0.05965 0.86557 0.60324 0.0
C112 C 0.00373 0.8513 0.61978 0.0
N113 N 0.02525 0.88132 0.61047 0.0
C114 C 0.08309 0.74447 0.64691 0.0
C115 C 0.08898 0.7918 0.69279 0.0
C116 C 0.12086 0.76938 0.68474 0.0
C117 C 0.11794 0.74579 0.6614 0.0
C118 C 0.05495 0.79033 0.67731 0.0
N119 N 0.05146 0.76541 0.65538 0.0
H120 H 0.08244 0.72776 0.62806 0.0
H121 H 0.0326 0.81109 0.68218 0.0
H122 H 0.08163 0.80554 0.60516 0.0
H123 H 0.97431 0.85373 0.62717 0.0
O124 O 0.02935 0.74402 0.59875 0.0
O125 O 0.96913 0.76642 0.60114 0.0
O126 O 0.97209 0.79296 0.65953 0.0
C127 C -0.00339 0.75076 0.58648 0.0
H128 H 0.92805 0.64735 0.65802 0.0
H129 H 0.08445 0.88142 0.59563 0.0
H130 H 0.09112 0.812 0.70996 0.0
H131 H 0.14265 0.72933 0.65402 0.0
Co132 Co 0.27263 0.02474 0.85399 0.0
C133 C 0.35555 0.02646 0.84615 0.0
C134 C 0.33076 0.08099 0.83349 0.0
C135 C 0.3701 0.08175 0.82832 0.0
N136 N 0.32203 0.04615 0.84456 0.0
N137 N 0.38543 0.04734 0.8364 0.0
H138 H 0.35766 -0.00326 0.85339 0.0
H139 H 0.31006 0.10384 0.82905 0.0
C140 C 0.21825 0.05024 0.80921 0.0
O141 O 0.20476 0.01446 0.80859 0.0
N142 N 0.22291 0.003 0.86407 0.0
C143 C 0.2137 0.96583 0.87017 0.0
C144 C 0.1748 0.96397 0.87591 0.0
C145 C 0.18984 0.02337 0.86736 0.0
N146 N 0.15975 0.00015 0.87388 0.0
C147 C 0.29385 0.94723 0.8385 0.0
C148 C 0.28665 0.95595 0.78213 0.0
C149 C 0.29199 0.91838 0.79307 0.0
C150 C 0.29875 0.91498 0.82149 0.0
C151 C 0.28369 0.98788 0.8 0.0
N152 N 0.28289 0.98247 0.82796 0.0
H153 H 0.29779 0.94318 0.86039 0.0
H154 H 0.28086 0.01658 0.7912 0.0
H155 H 0.23332 0.94143 0.87054 0.0
H156 H 0.18786 0.05456 0.86444 0.0
O157 O 0.29496 0.00125 0.88623 0.0
O158 O 0.26859 0.06009 0.88526 0.0
O159 O 0.24656 0.05886 0.82521 0.0
C160 C 0.28515 0.03251 0.89953 0.0
H161 H 0.38604 0.10562 0.81927 0.0
H162 H 0.15871 0.9377 0.8803 0.0
H163 H 0.28269 0.96069 0.76021 0.0
H164 H 0.30573 0.8872 0.83085 0.0
Co165 Co -0.00233 0.27036 0.34982 0.0
C166 C 0.9801 0.35314 0.3365 0.0
C167 C 0.94701 0.33331 0.37102 0.0
C168 C 0.94261 0.37301 0.36888 0.0
N169 N 0.97169 0.32085 0.35123 0.0
N170 N 0.96387 0.3854 0.34737 0.0
H171 H 0.00021 0.35408 0.31949 0.0
H172 H 0.93512 0.31561 0.38735 0.0
C173 C 0.92462 0.24604 0.32429 0.0
O174 O 0.90881 0.254 0.34829 0.0
N175 N 0.02294 0.22039 0.34851 0.0
C176 C 0.06124 0.21339 0.34997 0.0
C177 C 0.06705 0.17372 0.34962 0.0
C178 C 0.0059 0.1852 0.34748 0.0
N179 N 0.03222 0.15605 0.34811 0.0
C180 C 0.0619 0.31436 0.33106 0.0
C181 C 0.06981 0.27678 0.28089 0.0
C182 C 0.1002 0.30011 0.29076 0.0
C183 C 0.09506 0.32063 0.31545 0.0
C184 C 0.03692 0.27138 0.29713 0.0
N185 N 0.03399 0.28894 0.32236 0.0
H186 H 0.05951 0.32858 0.35091 0.0
H187 H 0.01576 0.25026 0.29046 0.0
H188 H 0.08336 0.23555 0.35145 0.0
H189 H 0.97486 0.18113 0.3471 0.0
O190 O 0.02766 0.28332 0.38195 0.0
O191 O 0.9708 0.25376 0.38317 0.0
O192 O 0.96053 0.25243 0.32062 0.0
C193 C 0.0006 0.26752 0.39655 0.0
H194 H 0.92748 0.39168 0.38335 0.0
H195 H 0.09482 0.15912 0.35037 0.0
H196 H 0.07294 0.25983 0.26213 0.0
H197 H 0.1177 0.33917 0.32363 0.0
Co198 Co 0.76836 0.00773 0.84088 0.0
C199 C 0.68578 0.99202 0.82704 0.0
C200 C 0.71589 0.94066 0.8401 0.0
C201 C 0.67757 0.93126 0.83575 0.0
N202 N 0.72095 0.9789 0.83473 0.0
N203 N 0.65895 0.9637 0.82738 0.0
H204 H 0.67878 0.02183 0.82259 0.0
H205 H 0.73834 0.92122 0.84744 0.0
C206 C 0.78493 0.95588 0.79274 0.0
O207 O 0.75098 0.96577 0.78264 0.0
N208 N 0.81566 0.03564 0.84753 0.0
C209 C 0.8198 0.07439 0.85086 0.0
C210 C 0.85813 0.08216 0.85627 0.0
C211 C 0.8511 0.02024 0.8513 0.0
N212 N 0.87765 0.04806 0.85662 0.0
C213 C 0.73022 0.0735 0.81724 0.0
C214 C 0.77828 0.08146 0.77223 0.0
C215 C 0.75204 0.11137 0.77852 0.0
C216 C 0.72697 0.10653 0.80079 0.0
C217 C 0.78067 0.0488 0.78931 0.0
N218 N 0.75665 0.04485 0.81154 0.0
H219 H 0.71303 0.07256 0.83579 0.0
H220 H 0.80436 0.02888 0.78601 0.0
H221 H 0.79654 0.09547 0.8498 0.0
H222 H 0.85725 0.98935 0.85009 0.0
O223 O 0.7448 0.03568 0.87094 0.0
O224 O 0.77612 0.97959 0.87519 0.0
O225 O 0.7968 0.97082 0.81543 0.0
C226 C 0.75772 0.00833 0.88696 0.0
H227 H 0.66426 0.90315 0.83913 0.0
H228 H 0.87051 0.11057 0.86026 0.0
H229 H 0.79933 0.0849 0.75586 0.0
H230 H 0.7069 0.12938 0.80665 0.0
Co231 Co 0.0323 0.75855 0.33724 0.0
C232 C 0.05074 0.67569 0.32504 0.0
C233 C 0.09786 0.70495 0.34492 0.0
C234 C 0.10659 0.66579 0.3433 0.0
N235 N 0.06249 0.71105 0.3338 0.0
N236 N 0.07685 0.64767 0.3307 0.0
H237 H 0.02267 0.6694 0.31658 0.0
H238 H 0.11515 0.72702 0.35503 0.0
C239 C 0.09182 0.77534 0.2935 0.0
O240 O 0.09294 0.7384 0.28647 0.0
N241 N 0.0029 0.80594 0.34126 0.0
C242 C 0.96422 0.81023 0.343 0.0
C243 C 0.95589 0.84942 0.34535 0.0
C244 C 0.0176 0.8421 0.34291 0.0
N245 N 0.98956 0.8693 0.34535 0.0
C246 C 0.96871 0.71888 0.31256 0.0
C247 C 0.96413 0.76531 0.26623 0.0
C248 C 0.93236 0.74208 0.27337 0.0
C249 C 0.93587 0.71699 0.29593 0.0
C250 C -0.00336 0.76621 0.28336 0.0
N251 N -0.0018 0.74412 0.30681 0.0
H252 H 0.96885 0.702 0.33134 0.0
H253 H 0.01814 0.78803 0.27914 0.0
H254 H 0.94354 0.78664 0.34259 0.0
H255 H 0.04825 0.84835 0.34193 0.0
O256 O 0.00357 0.73529 0.36697 0.0
O257 O 0.05737 0.76978 0.37215 0.0
O258 O 0.06917 0.78733 0.31251 0.0
C259 C 0.02928 0.75024 0.38339 0.0
H260 H 0.13169 0.65145 0.35209 0.0
H261 H 0.92735 0.8622 0.34725 0.0
H262 H 0.96233 0.78587 0.24931 0.0
H263 H 0.91203 0.69851 0.3021 0.0
H264 H 0.29452 0.09321 0.0737 0.0
H265 H 0.30715 0.97357 0.93337 0.0
H266 H 0.27341 0.96951 0.06854 0.0
H267 H 0.27246 0.09455 0.93455 0.0
H268 H 0.30853 0.97359 0.98365 0.0
H269 H 0.29922 0.09573 0.02318 0.0
C270 C 0.2912 0.06655 0.06192 0.0
C271 C 0.28357 0.03105 0.07518 0.0
C272 C 0.3008 0.00018 0.9729 0.0
C273 C 0.28922 0.03378 0.01779 0.0
C274 C 0.3002 0.00033 0.9442 0.0
C275 C 0.28946 0.03413 0.92978 0.0
C276 C 0.29107 0.03417 0.98736 0.0
C277 C 0.28074 0.06788 0.94493 0.0
C278 C 0.29367 0.0681 0.03319 0.0
C279 C 0.2792 -0.00256 0.05905 0.0
N280 N 0.28174 0.06708 0.97304 0.0
N281 N 0.28229 -0.00041 0.03114 0.0
H282 H 0.06682 0.26996 0.4264 0.0
H283 H 0.96345 0.30036 0.57108 0.0
H284 H 0.9428 0.26314 0.43531 0.0
H285 H 0.08089 0.25836 0.56413 0.0
H286 H 0.95641 0.29528 0.52089 0.0
H287 H 0.07342 0.27299 0.47656 0.0
C288 C 0.04095 0.26894 0.43899 0.0
C289 C 0.00417 0.26634 0.42681 0.0
C290 C 0.9837 0.28724 0.53039 0.0
C291 C 0.01155 0.27035 0.48413 0.0
C292 C 0.98791 0.29048 0.55895 0.0
C293 C 0.02291 0.2799 0.57171 0.0
C294 C 0.01489 0.27389 0.51447 0.0
C295 C 0.05347 0.26688 0.55508 0.0
C296 C 0.04478 0.27058 0.46759 0.0
C297 C 0.97164 0.26494 0.444 0.0
N298 N 0.04881 0.2644 0.52724 0.0
N299 N 0.97605 0.26738 0.4719 0.0
H300 H 0.7446 0.96893 0.0626 0.0
H301 H 0.73858 0.07322 0.9163 0.0
H302 H 0.76401 0.09251 0.05372 0.0
H303 H 0.77005 0.95225 0.9263 0.0
H304 H 0.73694 0.08052 0.96653 0.0
H305 H 0.74291 0.96237 0.01251 0.0
C306 C 0.74824 0.99481 0.05009 0.0
C307 C 0.75447 0.03141 0.06231 0.0
C308 C 0.74411 0.0524 0.9577 0.0
C309 C 0.75244 0.02391 0.00492 0.0
C310 C 0.74481 0.04808 0.92908 0.0
C311 C 0.75443 0.01199 0.91718 0.0
C312 C 0.75249 0.02028 0.97451 0.0
C313 C 0.76253 0.98053 0.93467 0.0
C314 C 0.74748 0.99092 0.0215 0.0
C315 C 0.75922 0.06381 0.04507 0.0
N316 N 0.76122 0.98536 0.96254 0.0
N317 N 0.75795 0.05934 0.01713 0.0
H318 H 0.00574 0.68719 0.41267 0.0
H319 H 0.96333 0.80079 0.55019 0.0
H320 H 0.04123 0.80694 0.42161 0.0
H321 H 0.02505 0.69163 0.55506 0.0
H322 H 0.97046 0.79938 0.49963 0.0
H323 H -0.00652 0.68444 0.46276 0.0
C324 C 0.01107 0.71275 0.42527 0.0
C325 C 0.02486 0.74721 0.41337 0.0
C326 C 0.98173 0.77548 0.51187 0.0
C327 C 0.00943 0.74472 0.46966 0.0
C328 C 0.97729 0.776 0.54049 0.0
C329 C -0.00651 0.74615 0.55649 0.0
C330 C 0.0015 0.74439 0.4994 0.0
C331 C 0.01212 0.71505 0.5432 0.0
C332 C 0.00402 0.71117 0.45361 0.0
C333 C 0.03113 0.77974 0.43028 0.0
N334 N 0.01554 0.71483 0.51525 0.0
N335 N 0.02284 0.77789 0.45766 0.0
H336 H 0.1209 0.30089 0.23596 0.0
H337 H 0.27956 0.15348 0.26831 0.0
H338 H 0.16814 0.28859 0.31811 0.0
H339 H 0.26628 0.20185 0.18666 0.0
H340 H 0.24799 0.21124 0.28752 0.0
H341 H 0.1812 0.27476 0.21709 0.0
C342 C 0.1444 0.29376 0.24994 0.0
C343 C 0.13926 0.29612 0.27861 0.0
C344 C 0.25307 0.20989 0.26547 0.0
C345 C 0.2078 0.26555 0.25736 0.0
C346 C 0.27107 0.1769 0.25457 0.0
C347 C 0.27492 0.1728 0.22593 0.0
C348 C 0.2378 0.23816 0.24745 0.0
C349 C 0.26365 0.20391 0.2089 0.0
C350 C 0.17887 0.27896 0.2392 0.0
C351 C 0.17075 0.28701 0.29585 0.0
N352 N 0.24455 0.23486 0.21985 0.0
N353 N 0.20331 0.2711 0.28501 0.0
H354 H 0.75855 0.12909 0.72359 0.0
H355 H 0.85378 0.28625 0.67809 0.0
H356 H 0.75809 0.18118 0.80476 0.0
H357 H 0.89724 0.28383 0.76176 0.0
H358 H 0.79438 0.25509 0.69369 0.0
H359 H 0.78436 0.18959 0.70483 0.0
C360 C 0.76262 0.15381 0.73724 0.0
C361 C 0.7567 0.15009 0.76572 0.0
C362 C 0.81659 0.26211 0.70871 0.0
C363 C 0.78627 0.2193 0.74464 0.0
C364 C 0.85031 0.28043 0.69994 0.0
C365 C 0.8809 0.28664 0.71862 0.0
C366 C 0.81381 0.2497 0.73622 0.0
C367 C 0.87472 0.27854 0.74662 0.0
C368 C 0.77701 0.18854 0.72654 0.0
C369 C 0.76232 0.18288 0.78264 0.0
N370 N 0.8421 0.2597 0.75452 0.0
N371 N 0.77794 0.21578 0.77196 0.0
H372 H 0.76626 0.90821 0.25379 0.0
H373 H 0.8642 0.75105 0.30105 0.0
H374 H 0.77401 0.85797 0.17222 0.0
H375 H 0.91288 0.75458 0.21901 0.0
H376 H 0.80657 0.78416 0.28389 0.0
H377 H 0.79526 0.84914 0.27284 0.0
C378 C 0.77295 0.88417 0.24005 0.0
C379 C 0.76806 0.888 0.21146 0.0
C380 C 0.82961 0.77717 0.26957 0.0
C381 C 0.80116 0.82036 0.23289 0.0
C382 C 0.86233 0.75767 0.27921 0.0
C383 C 0.89383 0.75087 0.2615 0.0
C384 C 0.82867 0.79022 0.24215 0.0
C385 C 0.88965 0.76021 0.23347 0.0
C386 C 0.78916 0.85024 0.25091 0.0
C387 C 0.77719 0.85611 0.19444 0.0
N388 N 0.85792 0.7801 0.22472 0.0
N389 N 0.79429 0.824 0.20535 0.0
H390 H 0.30512 0.90595 0.73715 0.0
H391 H 0.13754 0.75344 0.73832 0.0
H392 H 0.26035 0.84943 0.81018 0.0
H393 H 0.18768 0.79786 0.66333 0.0
H394 H 0.19438 0.77542 0.76393 0.0
H395 H 0.27508 0.85518 0.70894 0.0
C396 C 0.2897 0.88265 0.74736 0.0
C397 C 0.28429 0.883 0.77614 0.0
C398 C 0.19354 0.77971 0.74178 0.0
C399 C 0.25024 0.82466 0.744 0.0
C400 C 0.16109 0.76713 0.72726 0.0
C401 C 0.15806 0.77448 0.69896 0.0
C402 C 0.22238 0.80099 0.72796 0.0
C403 C 0.18916 0.79203 0.68529 0.0
C404 C 0.27281 0.85346 0.73122 0.0
C405 C 0.26531 0.85104 0.78817 0.0
N406 N 0.21976 0.80564 0.70007 0.0
N407 N 0.24838 0.82373 0.77202 0.0
H408 H 0.95439 0.78361 0.74056 0.0
H409 H 0.77899 0.93524 0.73825 0.0
H410 H 0.91304 0.83806 0.66573 0.0
H411 H 0.84961 0.91691 0.81078 0.0
H412 H 0.82237 0.89268 0.71201 0.0
H413 H 0.91069 0.82546 0.76736 0.0
C414 C 0.93604 0.80422 0.72975 0.0
C415 C 0.93737 0.80733 0.70085 0.0
C416 C 0.82835 0.89799 0.73367 0.0
C417 C 0.88719 0.85496 0.73136 0.0
C418 C 0.80352 0.92215 0.7487 0.0
C419 C 0.81069 0.92969 0.77676 0.0
C420 C 0.86028 0.8807 0.74686 0.0
C421 C 0.84307 0.912 0.78916 0.0
C422 C 0.91126 0.82818 0.74508 0.0
C423 C 0.91305 0.83472 0.68797 0.0
N424 N 0.86656 0.88816 0.77417 0.0
N425 N 0.88883 0.85729 0.70329 0.0
H426 H 0.17479 0.97313 0.20028 0.0
H427 H 0.16152 0.76359 0.26806 0.0
H428 H 0.27711 0.91223 0.22801 0.0
H429 H 0.07608 0.85231 0.28508 0.0
H430 H 0.20135 0.81276 0.24471 0.0
H431 H 0.13472 0.92382 0.22317 0.0
C432 C 0.18877 0.94937 0.21117 0.0
C433 C 0.22926 0.94676 0.21244 0.0
C434 C 0.17384 0.82129 0.25356 0.0
C435 C 0.18381 0.89017 0.23797 0.0
C436 C 0.15107 0.79332 0.2667 0.0
C437 C 0.11561 0.80402 0.27855 0.0
C438 C 0.16048 0.85986 0.25169 0.0
C439 C 0.10341 0.84296 0.27636 0.0
C440 C 0.16595 0.92141 0.22423 0.0
C441 C 0.24597 0.91543 0.22679 0.0
N442 N 0.12568 0.86946 0.26298 0.0
N443 N 0.22315 0.88808 0.2388 0.0
H444 H 0.07863 0.17192 0.68827 0.0
H445 H 0.23079 0.12933 0.80973 0.0
H446 H 0.12668 0.26256 0.73985 0.0
H447 H 0.16382 0.04019 0.76875 0.0
H448 H 0.19779 0.17873 0.78168 0.0
H449 H 0.11444 0.12352 0.71494 0.0
C450 C 0.0968 0.18172 0.70516 0.0
C451 C 0.09954 0.22146 0.71184 0.0
C452 C 0.19041 0.14834 0.77882 0.0
C453 C 0.14082 0.16593 0.74253 0.0
C454 C 0.20934 0.1201 0.79475 0.0
C455 C 0.20005 0.08051 0.79163 0.0
C456 C 0.16222 0.13689 0.75949 0.0
C457 C 0.1719 0.07032 0.77195 0.0
C458 C 0.1172 0.15399 0.72045 0.0
C459 C 0.12356 0.23227 0.73402 0.0
N460 N 0.15406 0.09828 0.75665 0.0
N461 N 0.14331 0.20467 0.74855 0.0
H462 H 0.74813 0.11619 0.23751 0.0
H463 H 0.94915 0.22051 0.27341 0.0
H464 H 0.84724 0.11306 0.18338 0.0
H465 H 0.84796 0.22585 0.32546 0.0
H466 H 0.91191 0.1836 0.23926 0.0
H467 H 0.78382 0.15847 0.26898 0.0
C468 C 0.77739 0.12447 0.23216 0.0
C469 C 0.79472 0.11087 0.20776 0.0
C470 C 0.8978 0.19306 0.25807 0.0
C471 C 0.83596 0.15945 0.24392 0.0
C472 C 0.91903 0.21423 0.27759 0.0
C473 C 0.90172 0.22627 0.30244 0.0
C474 C 0.85896 0.18374 0.26342 0.0
C475 C 0.86259 0.21715 0.30668 0.0
C476 C 0.79779 0.14871 0.25018 0.0
C477 C 0.83271 0.12281 0.20195 0.0
N478 N 0.84265 0.19633 0.28745 0.0
N479 N 0.85211 0.14626 0.21996 0.0
H480 H 0.12759 0.0002 0.11697 0.0
H481 H 0.91115 0.07996 0.12133 0.0
H482 H 0.09906 0.11832 0.14033 0.0
H483 H 0.94159 0.95786 0.12611 0.0
H484 H 0.97972 0.09615 0.12036 0.0
H485 H 0.05901 0.9862 0.11176 0.0
C486 C 0.10694 0.0232 0.12111 0.0
C487 C 0.11909 0.06032 0.12964 0.0
C488 C 0.9712 0.06584 0.12153 0.0
C489 C 0.04052 0.04457 0.12321 0.0
C490 C 0.93202 0.05648 0.12226 0.0
C491 C 0.92027 0.01737 0.12409 0.0
C492 C -0.00118 0.03591 0.12236 0.0
C493 C 0.94896 0.98834 0.12449 0.0
C494 C 0.06779 0.01521 0.11797 0.0
C495 C 0.09098 0.08932 0.13374 0.0
N496 N 0.98688 -0.00177 0.12369 0.0
N497 N 0.05287 0.08076 0.13065 0.0
H498 H 0.92761 0.10709 0.64644 0.0
H499 H 0.05788 0.93892 0.57994 0.0
H500 H 0.0366 0.128 0.60588 0.0
H501 H 0.96906 0.91722 0.64068 0.0
H502 H 0.04373 0.00839 0.58292 0.0
H503 H 0.93568 0.03713 0.63796 0.0
C504 C 0.95304 0.09692 0.63555 0.0
C505 C 0.98166 0.12315 0.62705 0.0
C506 C 0.02726 0.98832 0.59548 0.0
C507 C 0.99108 0.04362 0.6173 0.0
C508 C 0.03542 0.94863 0.5939 0.0
C509 C 0.01501 0.92202 0.61033 0.0
C510 C -0.00169 0.00156 0.61348 0.0
C511 C 0.98548 0.93642 0.62749 0.0
C512 C 0.95774 0.0571 0.63085 0.0
C513 C 0.01423 0.1086 0.61318 0.0
N514 N 0.97815 0.97525 0.62872 0.0
N515 N 0.01808 0.06975 0.60874 0.0
H516 H 0.91229 0.9853 0.88003 0.0
H517 H 0.12505 0.06291 0.84994 0.0
H518 H 0.93573 0.09825 0.84494 0.0
H519 H 0.1017 0.96128 0.89967 0.0
H520 H 0.056 0.07685 0.84839 0.0
H521 H 0.98168 0.97566 0.88715 0.0
C522 C 0.93207 0.00802 0.87377 0.0
C523 C 0.91829 0.04253 0.86172 0.0
C524 C 0.06602 0.05167 0.85985 0.0
C525 C -0.00236 0.03186 0.86995 0.0
C526 C 0.10558 0.0438 0.86092 0.0
C527 C 0.11938 0.01069 0.87488 0.0
C528 C 0.03995 0.02613 0.87262 0.0
C529 C 0.09243 0.98671 0.88826 0.0
C530 C 0.97164 0.00266 0.87804 0.0
C531 C 0.94513 0.07134 0.85446 0.0
N532 N 0.05399 0.99474 0.88662 0.0
N533 N 0.98356 0.06525 0.8585 0.0
H534 H 0.05171 0.90762 0.36602 0.0
H535 H 0.96899 0.11867 0.32758 0.0
H536 H 0.93959 0.92595 0.32874 0.0
H537 H 0.07824 0.09879 0.36874 0.0
H538 H 0.95713 0.04849 0.32795 0.0
H539 H 0.06159 0.97785 0.3671 0.0
C540 C 0.0292 0.92642 0.35796 0.0
C541 C -0.00513 0.91083 0.34711 0.0
C542 C 0.98367 0.05954 0.33692 0.0
C543 C 0.00584 0.99153 0.34847 0.0
C544 C 0.9904 0.09964 0.33683 0.0
C545 C 0.02473 0.11476 0.34811 0.0
C546 C 0.01147 0.03434 0.34836 0.0
C547 C 0.05166 0.08855 0.35944 0.0
C548 C 0.03476 0.96659 0.35872 0.0
C549 C 0.96636 0.93672 0.33747 0.0
N550 N 0.04445 0.04969 0.35926 0.0
N551 N 0.97255 0.97582 0.33826 0.0
H552 H 0.41436 0.03957 0.19616 0.0
H553 H 0.61734 0.00247 0.12251 0.0
H554 H 0.43495 0.94844 0.13644 0.0
H555 H 0.59574 0.09951 0.17709 0.0
H556 H 0.55156 0.97978 0.1299 0.0
H557 H 0.48236 0.05829 0.19316 0.0
C558 C 0.43339 0.02326 0.18264 0.0
C559 C 0.41906 0.99281 0.16621 0.0
C560 C 0.56105 0.00606 0.14028 0.0
C561 C 0.49649 0.01405 0.16257 0.0
C562 C 0.59857 0.019 0.13607 0.0
C563 C 0.61183 0.05271 0.14941 0.0
C564 C 0.53657 0.02703 0.15796 0.0
C565 C 0.58631 0.07354 0.16633 0.0
C566 C 0.47209 0.03398 0.1809 0.0
C567 C 0.44488 0.97203 0.14948 0.0
N568 N 0.54976 0.06023 0.17026 0.0
N569 N 0.48236 0.98334 0.14785 0.0
H570 H 0.05055 0.62016 0.62471 0.0
H571 H 0.02826 0.41443 0.69937 0.0
H572 H 0.96232 0.5958 0.68518 0.0
H573 H 0.1087 0.43661 0.63328 0.0
H574 H 0.00981 0.48318 0.69917 0.0
H575 H 0.07707 0.55521 0.63153 0.0
C576 C 0.03688 0.60119 0.63961 0.0
C577 C 0.00426 0.61346 0.65454 0.0
C578 C 0.03182 0.47314 0.68492 0.0
C579 C 0.03436 0.53871 0.66225 0.0
C580 C 0.0424 0.43398 0.68506 0.0
C581 C 0.06958 0.4198 0.66599 0.0
C582 C 0.04853 0.49828 0.66553 0.0
C583 C 0.08765 0.44636 0.6483 0.0
C584 C 0.052 0.56402 0.64342 0.0
C585 C 0.98727 0.58731 0.67309 0.0
N586 N 0.07642 0.48431 0.64825 0.0
N587 N 0.00255 0.55108 0.67645 0.0
H588 H 0.42105 0.99305 0.86811 0.0
H589 H 0.62406 0.01325 0.79188 0.0
H590 H 0.43971 0.07061 0.79932 0.0
H591 H 0.60094 0.9287 0.85548 0.0
H592 H 0.55581 0.03208 0.79214 0.0
H593 H 0.48622 0.96759 0.86242 0.0
C594 C 0.43878 0.00461 0.85167 0.0
C595 C 0.42476 0.03391 0.83405 0.0
C596 C 0.56552 0.00909 0.80582 0.0
C597 C 0.49985 0.00503 0.8276 0.0
C598 C 0.6044 -0.00164 0.80567 0.0
C599 C 0.6181 0.96973 0.82392 0.0
C600 C 0.54022 0.99124 0.82453 0.0
C601 C 0.59149 0.95082 0.84105 0.0
C602 C 0.47609 0.99006 0.84847 0.0
C603 C 0.44945 0.04833 0.81352 0.0
N604 N 0.55385 0.96228 0.84119 0.0
N605 N 0.48587 0.03375 0.81087 0.0
H606 H 0.97945 0.42007 0.29852 0.0
H607 H 0.09123 0.59555 0.37118 0.0
H608 H 0.98287 0.43781 0.38668 0.0
H609 H 0.04167 0.60754 0.28984 0.0
H610 H 0.06423 0.52975 0.37408 0.0
H611 H 0.01229 0.48304 0.29223 0.0
C612 C 0.98667 0.43754 0.31644 0.0
C613 C 0.978 0.42421 0.34309 0.0
C614 C 0.05973 0.54662 0.35544 0.0
C615 C 0.01648 0.49486 0.33622 0.0
C616 C 0.07558 0.58383 0.35364 0.0
C617 C 0.06853 0.60676 0.33025 0.0
C618 C 0.03711 0.53223 0.33356 0.0
C619 C 0.04747 0.59058 0.30823 0.0
C620 C 0.00549 0.47315 0.31289 0.0
C621 C 0.9883 0.44748 0.36578 0.0
N622 N 0.03229 0.55425 0.31044 0.0
N623 N 0.00732 0.48152 0.36184 0.0
loop_
_geom_bond_atom_site_label_1
_geom_bond_atom_site_label_2
_geom_bond_distance
_geom_bond_site_symmetry_2
_ccdc_geom_bond_type
Co0 N4 2.148 . S
Co0 N10 2.128 . S
Co0 N20 2.194 . S
Co0 O25 2.351 . S
Co0 O26 2.151 1_545 S
Co0 O27 2.096 1_545 S
C1 N4 1.301 . S
C1 N5 1.328 . S
C1 H6 0.930 . S
C2 C3 1.333 . S
C2 N4 1.317 1_565 S
C2 H7 0.930 . S
C3 C2 1.333 . S
C3 N5 1.350 1_565 S
C3 H29 0.931 . S
N4 Co0 2.148 . S
N4 C1 1.301 . S
N4 C2 1.317 1_545 S
N5 C1 1.328 . S
N5 C3 1.350 1_545 S
H6 C1 0.930 . S
H7 C2 0.930 . S
C8 O9 1.224 . S
C8 O27 1.247 . S
O9 C8 1.224 . S
N10 Co0 2.128 . S
N10 C11 1.355 . S
N10 C13 1.311 . S
C11 N10 1.355 . S
C11 C12 1.363 . S
C11 H23 0.929 . S
C12 C11 1.363 . S
C12 N14 1.375 . S
C12 H30 0.931 . S
C13 N10 1.311 . S
C13 N14 1.347 . S
C13 H24 0.929 1_545 S
N14 C12 1.375 . S
N14 C13 1.347 . S
C15 C18 1.365 . S
C15 N20 1.328 . S
C15 H21 0.929 . S
C16 C17 1.362 . S
C16 C19 1.378 . S
C16 H31 0.929 . S
C17 C16 1.362 . S
C17 C18 1.366 . S
C18 C15 1.365 . S
C18 C17 1.366 . S
C18 H32 0.930 . S
C19 C16 1.378 . S
C19 N20 1.315 . S
C19 H22 0.930 . S
N20 Co0 2.194 . S
N20 C15 1.328 . S
N20 C19 1.315 . S
H21 C15 0.929 . S
H22 C19 0.930 . S
H23 C11 0.929 . S
H24 C13 0.929 1_565 S
O25 Co0 2.351 . S
O25 C28 1.244 . S
O26 Co0 2.151 1_565 S
O26 C28 1.229 1_565 S
O27 Co0 2.096 1_565 S
O27 C8 1.247 . S
C28 O25 1.244 . S
C28 O26 1.229 1_545 S
H29 C3 0.931 . S
H30 C12 0.931 . S
H31 C16 0.929 . S
H32 C18 0.930 . S
Co33 N37 2.148 . S
Co33 N43 2.128 . S
Co33 N53 2.194 1_455 S
Co33 O58 2.351 1_455 S
Co33 O59 2.155 . S
Co33 O60 2.096 . S
C34 N37 1.301 . S
C34 N38 1.328 . S
C34 H39 0.930 1_455 S
C35 C36 1.333 . S
C35 N37 1.317 . S
C35 H40 0.930 . S
C36 C35 1.333 . S
C36 N38 1.350 . S
C36 H62 0.931 . S
N37 Co33 2.148 . S
N37 C34 1.301 . S
N37 C35 1.317 . S
N38 C34 1.328 . S
N38 C36 1.350 . S
H39 C34 0.930 1_655 S
H40 C35 0.930 . S
C41 O42 1.224 . S
C41 O60 1.247 . S
O42 C41 1.224 . S
N43 Co33 2.128 . S
N43 C44 1.355 1_455 S
N43 C46 1.311 . S
C44 N43 1.355 1_655 S
C44 C45 1.363 . S
C44 H56 0.929 . S
C45 C44 1.363 . S
C45 N47 1.375 1_655 S
C45 H63 0.931 . S
C46 N43 1.311 . S
C46 N47 1.347 . S
C46 H57 0.929 . S
N47 C45 1.375 1_455 S
N47 C46 1.347 . S
C48 C51 1.365 . S
C48 N53 1.328 . S
C48 H54 0.929 . S
C49 C50 1.362 . S
C49 C52 1.378 . S
C49 H64 0.929 . S
C50 C49 1.362 . S
C50 C51 1.366 . S
C51 C48 1.365 . S
C51 C50 1.366 . S
C51 H65 0.930 . S
C52 C49 1.378 . S
C52 N53 1.315 . S
C52 H55 0.930 . S
N53 Co33 2.194 1_655 S
N53 C48 1.328 . S
N53 C52 1.315 . S
H54 C48 0.929 . S
H55 C52 0.930 . S
H56 C44 0.929 . S
H57 C46 0.929 . S
O58 Co33 2.351 1_655 S
O58 C61 1.244 1_655 S
O59 Co33 2.155 . S
O59 C61 1.240 . S
O60 Co33 2.096 . S
O60 C41 1.247 . S
C61 O58 1.244 1_455 S
C61 O59 1.240 . S
H62 C36 0.931 . S
H63 C45 0.931 . S
H64 C49 0.929 . S
H65 C51 0.930 . S
Co66 N70 2.148 . S
Co66 N76 2.128 . S
Co66 N86 2.194 1_545 S
Co66 O91 2.351 1_545 S
Co66 O92 2.155 . S
Co66 O93 2.096 . S
C67 N70 1.301 . S
C67 N71 1.328 . S
C67 H72 0.930 1_545 S
C68 C69 1.333 . S
C68 N70 1.317 . S
C68 H73 0.930 . S
C69 C68 1.333 . S
C69 N71 1.350 . S
C69 H95 0.931 . S
N70 Co66 2.148 . S
N70 C67 1.301 . S
N70 C68 1.317 . S
N71 C67 1.328 . S
N71 C69 1.350 . S
H72 C67 0.930 1_565 S
H73 C68 0.930 . S
C74 O75 1.224 . S
C74 O93 1.247 . S
O75 C74 1.224 . S
N76 Co66 2.128 . S
N76 C77 1.355 1_545 S
N76 C79 1.311 . S
C77 N76 1.355 1_565 S
C77 C78 1.363 . S
C77 H89 0.929 . S
C78 C77 1.363 . S
C78 N80 1.375 1_565 S
C78 H96 0.931 . S
C79 N76 1.311 . S
C79 N80 1.347 . S
C79 H90 0.929 . S
N80 C78 1.375 1_545 S
N80 C79 1.347 . S
C81 C84 1.365 . S
C81 N86 1.328 . S
C81 H87 0.929 . S
C82 C83 1.362 . S
C82 C85 1.378 . S
C82 H97 0.929 . S
C83 C82 1.362 . S
C83 C84 1.366 . S
C84 C81 1.365 . S
C84 C83 1.366 . S
C84 H98 0.930 . S
C85 C82 1.378 . S
C85 N86 1.315 . S
C85 H88 0.930 . S
N86 Co66 2.194 1_565 S
N86 C81 1.328 . S
N86 C85 1.315 . S
H87 C81 0.929 . S
H88 C85 0.930 . S
H89 C77 0.929 . S
H90 C79 0.929 . S
O91 Co66 2.351 1_565 S
O91 C94 1.244 1_565 S
O92 Co66 2.155 . S
O92 C94 1.240 . S
O93 Co66 2.096 . S
O93 C74 1.247 . S
C94 O91 1.244 1_545 S
C94 O92 1.240 . S
H95 C69 0.931 . S
H96 C78 0.931 . S
H97 C82 0.929 . S
H98 C84 0.930 . S
Co99 N103 2.148 . S
Co99 N109 2.128 . S
Co99 N119 2.194 . S
Co99 O124 2.351 . S
Co99 O125 2.152 1_455 S
Co99 O126 2.096 1_455 S
C100 N103 1.301 . S
C100 N104 1.328 . S
C100 H105 0.930 . S
C101 C102 1.333 . S
C101 N103 1.317 1_655 S
C101 H106 0.930 . S
C102 C101 1.333 . S
C102 N104 1.350 1_655 S
C102 H128 0.931 . S
N103 Co99 2.148 . S
N103 C100 1.301 . S
N103 C101 1.317 1_455 S
N104 C100 1.328 . S
N104 C102 1.350 1_455 S
H105 C100 0.930 . S
H106 C101 0.930 . S
C107 O108 1.224 . S
C107 O126 1.247 . S
O108 C107 1.224 . S
N109 Co99 2.128 . S
N109 C110 1.355 . S
N109 C112 1.311 . S
C110 N109 1.355 . S
C110 C111 1.363 . S
C110 H122 0.929 . S
C111 C110 1.363 . S
C111 N113 1.375 . S
C111 H129 0.931 . S
C112 N109 1.311 . S
C112 N113 1.347 . S
C112 H123 0.929 1_455 S
N113 C111 1.375 . S
N113 C112 1.347 . S
C114 C117 1.365 . S
C114 N119 1.328 . S
C114 H120 0.929 . S
C115 C116 1.362 . S
C115 C118 1.378 . S
C115 H130 0.929 . S
C116 C115 1.362 . S
C116 C117 1.366 . S
C117 C114 1.365 . S
C117 C116 1.366 . S
C117 H131 0.930 . S
C118 C115 1.378 . S
C118 N119 1.315 . S
C118 H121 0.930 . S
N119 Co99 2.194 . S
N119 C114 1.328 . S
N119 C118 1.315 . S
H120 C114 0.929 . S
H121 C118 0.930 . S
H122 C110 0.929 . S
H123 C112 0.929 1_655 S
O124 Co99 2.351 . S
O124 C127 1.244 . S
O125 Co99 2.152 1_655 S
O125 C127 1.232 1_655 S
O126 Co99 2.096 1_655 S
O126 C107 1.247 . S
C127 O124 1.244 . S
C127 O125 1.232 1_455 S
H128 C102 0.931 . S
H129 C111 0.931 . S
H130 C115 0.929 . S
H131 C117 0.930 . S
Co132 N136 2.148 . S
Co132 N142 2.128 . S
Co132 N152 2.194 1_545 S
Co132 O157 2.351 1_545 S
Co132 O158 2.155 . S
Co132 O159 2.096 . S
C133 N136 1.301 . S
C133 N137 1.328 . S
C133 H138 0.930 1_545 S
C134 C135 1.333 . S
C134 N136 1.317 . S
C134 H139 0.930 . S
C135 C134 1.333 . S
C135 N137 1.350 . S
C135 H161 0.931 . S
N136 Co132 2.148 . S
N136 C133 1.301 . S
N136 C134 1.317 . S
N137 C133 1.328 . S
N137 C135 1.350 . S
H138 C133 0.930 1_565 S
H139 C134 0.930 . S
C140 O141 1.224 . S
C140 O159 1.247 . S
O141 C140 1.224 . S
N142 Co132 2.128 . S
N142 C143 1.355 1_545 S
N142 C145 1.311 . S
C143 N142 1.355 1_565 S
C143 C144 1.363 . S
C143 H155 0.929 . S
C144 C143 1.363 . S
C144 N146 1.375 1_565 S
C144 H162 0.931 . S
C145 N142 1.311 . S
C145 N146 1.347 . S
C145 H156 0.929 . S
N146 C144 1.375 1_545 S
N146 C145 1.347 . S
C147 C150 1.365 . S
C147 N152 1.328 . S
C147 H153 0.929 . S
C148 C149 1.362 . S
C148 C151 1.378 . S
C148 H163 0.929 . S
C149 C148 1.362 . S
C149 C150 1.366 . S
C150 C147 1.365 . S
C150 C149 1.366 . S
C150 H164 0.930 . S
C151 C148 1.378 . S
C151 N152 1.315 . S
C151 H154 0.930 . S
N152 Co132 2.194 1_565 S
N152 C147 1.328 . S
N152 C151 1.315 . S
H153 C147 0.929 . S
H154 C151 0.930 . S
H155 C143 0.929 . S
H156 C145 0.929 . S
O157 Co132 2.351 1_565 S
O157 C160 1.244 1_565 S
O158 Co132 2.155 . S
O158 C160 1.240 . S
O159 Co132 2.096 . S
O159 C140 1.247 . S
C160 O157 1.244 1_545 S
C160 O158 1.240 . S
H161 C135 0.931 . S
H162 C144 0.931 . S
H163 C148 0.929 . S
H164 C150 0.930 . S
Co165 N169 2.148 . S
Co165 N175 2.128 . S
Co165 N185 2.194 . S
Co165 O190 2.351 . S
Co165 O191 2.151 1_455 S
Co165 O192 2.096 1_455 S
C166 N169 1.301 . S
C166 N170 1.328 . S
C166 H171 0.930 . S
C167 C168 1.333 . S
C167 N169 1.317 1_655 S
C167 H172 0.930 . S
C168 C167 1.333 . S
C168 N170 1.350 1_655 S
C168 H194 0.931 . S
N169 Co165 2.148 . S
N169 C166 1.301 . S
N169 C167 1.317 1_455 S
N170 C166 1.328 . S
N170 C168 1.350 1_455 S
H171 C166 0.930 . S
H172 C167 0.930 . S
C173 O174 1.224 . S
C173 O192 1.247 . S
O174 C173 1.224 . S
N175 Co165 2.128 . S
N175 C176 1.355 . S
N175 C178 1.311 . S
C176 N175 1.355 . S
C176 C177 1.363 . S
C176 H188 0.929 . S
C177 C176 1.363 . S
C177 N179 1.375 . S
C177 H195 0.931 . S
C178 N175 1.311 . S
C178 N179 1.347 . S
C178 H189 0.929 1_455 S
N179 C177 1.375 . S
N179 C178 1.347 . S
C180 C183 1.365 . S
C180 N185 1.328 . S
C180 H186 0.929 . S
C181 C182 1.362 . S
C181 C184 1.378 . S
C181 H196 0.929 . S
C182 C181 1.362 . S
C182 C183 1.366 . S
C183 C180 1.365 . S
C183 C182 1.366 . S
C183 H197 0.930 . S
C184 C181 1.378 . S
C184 N185 1.315 . S
C184 H187 0.930 . S
N185 Co165 2.194 . S
N185 C180 1.328 . S
N185 C184 1.315 . S
H186 C180 0.929 . S
H187 C184 0.930 . S
H188 C176 0.929 . S
H189 C178 0.929 1_655 S
O190 Co165 2.351 . S
O190 C193 1.244 . S
O191 Co165 2.151 1_655 S
O191 C193 1.229 1_655 S
O192 Co165 2.096 1_655 S
O192 C173 1.247 . S
C193 O190 1.244 . S
C193 O191 1.229 1_455 S
H194 C168 0.931 . S
H195 C177 0.931 . S
H196 C181 0.929 . S
H197 C183 0.930 . S
Co198 N202 2.148 . S
Co198 N208 2.128 . S
Co198 N218 2.194 . S
Co198 O223 2.351 . S
Co198 O224 2.152 1_545 S
Co198 O225 2.096 1_545 S
C199 N202 1.301 . S
C199 N203 1.328 . S
C199 H204 0.930 . S
C200 C201 1.333 . S
C200 N202 1.317 1_565 S
C200 H205 0.930 . S
C201 C200 1.333 . S
C201 N203 1.350 1_565 S
C201 H227 0.931 . S
N202 Co198 2.148 . S
N202 C199 1.301 . S
N202 C200 1.317 1_545 S
N203 C199 1.328 . S
N203 C201 1.350 1_545 S
H204 C199 0.930 . S
H205 C200 0.930 . S
C206 O207 1.224 . S
C206 O225 1.247 . S
O207 C206 1.224 . S
N208 Co198 2.128 . S
N208 C209 1.355 . S
N208 C211 1.311 . S
C209 N208 1.355 . S
C209 C210 1.363 . S
C209 H221 0.929 . S
C210 C209 1.363 . S
C210 N212 1.375 . S
C210 H228 0.931 . S
C211 N208 1.311 . S
C211 N212 1.347 . S
C211 H222 0.929 1_545 S
N212 C210 1.375 . S
N212 C211 1.347 . S
C213 C216 1.365 . S
C213 N218 1.328 . S
C213 H219 0.929 . S
C214 C215 1.362 . S
C214 C217 1.378 . S
C214 H229 0.929 . S
C215 C214 1.362 . S
C215 C216 1.366 . S
C216 C213 1.365 . S
C216 C215 1.366 . S
C216 H230 0.930 . S
C217 C214 1.378 . S
C217 N218 1.315 . S
C217 H220 0.930 . S
N218 Co198 2.194 . S
N218 C213 1.328 . S
N218 C217 1.315 . S
H219 C213 0.929 . S
H220 C217 0.930 . S
H221 C209 0.929 . S
H222 C211 0.929 1_565 S
O223 Co198 2.351 . S
O223 C226 1.244 . S
O224 Co198 2.152 1_565 S
O224 C226 1.232 1_565 S
O225 Co198 2.096 1_565 S
O225 C206 1.247 . S
C226 O223 1.244 . S
C226 O224 1.232 1_545 S
H227 C201 0.931 . S
H228 C210 0.931 . S
H229 C214 0.929 . S
H230 C216 0.930 . S
Co231 N235 2.148 . S
Co231 N241 2.128 . S
Co231 N251 2.194 1_455 S
Co231 O256 2.351 1_455 S
Co231 O257 2.155 . S
Co231 O258 2.096 . S
C232 N235 1.301 . S
C232 N236 1.328 . S
C232 H237 0.930 1_455 S
C233 C234 1.333 . S
C233 N235 1.317 . S
C233 H238 0.930 . S
C234 C233 1.333 . S
C234 N236 1.350 . S
C234 H260 0.931 . S
N235 Co231 2.148 . S
N235 C232 1.301 . S
N235 C233 1.317 . S
N236 C232 1.328 . S
N236 C234 1.350 . S
H237 C232 0.930 1_655 S
H238 C233 0.930 . S
C239 O240 1.224 . S
C239 O258 1.247 . S
O240 C239 1.224 . S
N241 Co231 2.128 . S
N241 C242 1.355 1_455 S
N241 C244 1.311 . S
C242 N241 1.355 1_655 S
C242 C243 1.363 . S
C242 H254 0.929 . S
C243 C242 1.363 . S
C243 N245 1.375 1_655 S
C243 H261 0.931 . S
C244 N241 1.311 . S
C244 N245 1.347 . S
C244 H255 0.929 . S
N245 C243 1.375 1_455 S
N245 C244 1.347 . S
C246 C249 1.365 . S
C246 N251 1.328 . S
C246 H252 0.929 . S
C247 C248 1.362 . S
C247 C250 1.378 . S
C247 H262 0.929 . S
C248 C247 1.362 . S
C248 C249 1.366 . S
C249 C246 1.365 . S
C249 C248 1.366 . S
C249 H263 0.930 . S
C250 C247 1.378 . S
C250 N251 1.315 . S
C250 H253 0.930 . S
N251 Co231 2.194 1_655 S
N251 C246 1.328 . S
N251 C250 1.315 . S
H252 C246 0.929 . S
H253 C250 0.930 . S
H254 C242 0.929 . S
H255 C244 0.929 . S
O256 Co231 2.351 1_655 S
O256 C259 1.244 1_655 S
O257 Co231 2.155 . S
O257 C259 1.240 . S
O258 Co231 2.096 . S
O258 C239 1.247 . S
C259 O256 1.244 1_455 S
C259 O257 1.240 . S
H260 C234 0.931 . S
H261 C243 0.931 . S
H262 C247 0.929 . S
H263 C249 0.930 . S
H264 C270 0.930 . S
H265 C274 0.930 . S
H266 C279 0.929 1_565 S
H267 C277 0.929 . S
H268 C272 0.929 . S
H269 C278 0.929 . S
C270 H264 0.930 . S
C270 C271 1.367 . S
C270 C278 1.378 . S
C271 C270 1.367 . S
C271 C279 1.433 . S
C272 H268 0.929 . S
C272 C274 1.378 . S
C272 C276 1.350 1_565 S
C273 C276 1.463 1_554 S
C273 C278 1.350 . S
C273 N281 1.408 1_545 S
C274 H265 0.930 . S
C274 C272 1.378 . S
C274 C275 1.367 1_565 S
C275 C274 1.367 1_545 S
C275 C277 1.433 . S
C276 C272 1.350 1_545 S
C276 C273 1.463 1_556 S
C276 N280 1.427 . S
C277 H267 0.929 . S
C277 C275 1.433 . S
C277 N280 1.384 . S
C278 H269 0.929 . S
C278 C270 1.378 . S
C278 C273 1.350 . S
C279 H266 0.929 1_545 S
C279 C271 1.433 . S
C279 N281 1.382 1_545 S
N280 C276 1.427 . S
N280 C277 1.384 . S
N281 C273 1.408 1_565 S
N281 C279 1.382 1_565 S
H282 C288 0.930 . S
H283 C292 0.930 1_655 S
H284 C297 0.929 . S
H285 C295 0.929 . S
H286 C290 0.929 1_655 S
H287 C296 0.929 . S
C288 H282 0.930 . S
C288 C289 1.367 . S
C288 C296 1.378 . S
C289 C288 1.367 . S
C289 C297 1.433 . S
C290 H286 0.929 1_455 S
C290 C292 1.378 . S
C290 C294 1.350 . S
C291 C294 1.463 . S
C291 C296 1.350 . S
C291 N299 1.427 . S
C292 H283 0.930 1_455 S
C292 C290 1.378 . S
C292 C293 1.367 . S
C293 C292 1.367 . S
C293 C295 1.433 . S
C294 C290 1.350 . S
C294 C291 1.463 . S
C294 N298 1.427 . S
C295 H285 0.929 . S
C295 C293 1.433 . S
C295 N298 1.384 . S
C296 H287 0.929 . S
C296 C288 1.378 . S
C296 C291 1.350 . S
C297 H284 0.929 . S
C297 C289 1.433 . S
C297 N299 1.384 . S
N298 C294 1.427 . S
N298 C295 1.384 . S
N299 C291 1.427 . S
N299 C297 1.384 . S
H300 C306 0.930 . S
H301 C310 0.930 . S
H302 C315 0.929 . S
H303 C313 0.929 1_565 S
H304 C308 0.929 . S
H305 C314 0.934 . S
C306 H300 0.930 . S
C306 C307 1.367 1_565 S
C306 C314 1.379 . S
C307 C306 1.367 1_545 S
C307 C315 1.433 . S
C308 H304 0.929 . S
C308 C310 1.378 . S
C308 C312 1.350 . S
C309 C312 1.463 1_554 S
C309 C314 1.344 1_545 S
C309 N317 1.427 . S
C310 H301 0.930 . S
C310 C308 1.378 . S
C310 C311 1.367 . S
C311 C310 1.367 . S
C311 C313 1.433 . S
C312 C308 1.350 . S
C312 C309 1.463 1_556 S
C312 N316 1.427 . S
C313 H303 0.929 1_545 S
C313 C311 1.433 . S
C313 N316 1.384 . S
C314 H305 0.934 . S
C314 C306 1.379 . S
C314 C309 1.344 1_565 S
C315 H302 0.929 . S
C315 C307 1.433 . S
C315 N317 1.384 . S
N316 C312 1.427 . S
N316 C313 1.384 . S
N317 C309 1.427 . S
N317 C315 1.384 . S
H318 C324 0.930 . S
H319 C328 0.930 . S
H320 C333 0.929 1_655 S
H321 C331 0.929 . S
H322 C326 0.929 . S
H323 C332 0.929 . S
C324 H318 0.930 . S
C324 C325 1.367 . S
C324 C332 1.378 . S
C325 C324 1.367 . S
C325 C333 1.433 . S
C326 H322 0.929 . S
C326 C328 1.378 . S
C326 C330 1.350 . S
C327 C330 1.463 . S
C327 C332 1.350 . S
C327 N335 1.427 . S
C328 H319 0.930 . S
C328 C326 1.378 . S
C328 C329 1.367 . S
C329 C328 1.367 . S
C329 C331 1.433 . S
C330 C326 1.350 . S
C330 C327 1.463 . S
C330 N334 1.427 . S
C331 H321 0.929 . S
C331 C329 1.433 . S
C331 N334 1.384 . S
C332 H323 0.929 . S
C332 C324 1.378 . S
C332 C327 1.350 . S
C333 H320 0.929 1_455 S
C333 C325 1.433 . S
C333 N335 1.384 . S
N334 C330 1.427 . S
N334 C331 1.384 . S
N335 C327 1.427 . S
N335 C333 1.384 . S
H336 C342 0.930 . S
H337 C346 0.930 . S
H338 C351 0.929 . S
H339 C349 0.929 . S
H340 C344 0.929 . S
H341 C350 0.929 . S
C342 H336 0.930 . S
C342 C343 1.367 . S
C342 C350 1.378 . S
C343 C342 1.367 . S
C343 C351 1.433 . S
C344 H340 0.929 . S
C344 C346 1.378 . S
C344 C348 1.350 . S
C345 C348 1.463 . S
C345 C350 1.350 . S
C345 N353 1.427 . S
C346 H337 0.930 . S
C346 C344 1.378 . S
C346 C347 1.367 . S
C347 C346 1.367 . S
C347 C349 1.433 . S
C348 C344 1.350 . S
C348 C345 1.463 . S
C348 N352 1.427 . S
C349 H339 0.929 . S
C349 C347 1.433 . S
C349 N352 1.384 . S
C350 H341 0.929 . S
C350 C342 1.378 . S
C350 C345 1.350 . S
C351 H338 0.929 . S
C351 C343 1.433 . S
C351 N353 1.384 . S
N352 C348 1.427 . S
N352 C349 1.384 . S
N353 C345 1.427 . S
N353 C351 1.384 . S
H354 C360 0.930 . S
H355 C364 0.930 . S
H356 C369 0.929 . S
H357 C367 0.929 . S
H358 C362 0.929 . S
H359 C368 0.929 . S
C360 H354 0.930 . S
C360 C361 1.367 . S
C360 C368 1.378 . S
C361 C360 1.367 . S
C361 C369 1.433 . S
C362 H358 0.929 . S
C362 C364 1.378 . S
C362 C366 1.350 . S
C363 C366 1.463 . S
C363 C368 1.350 . S
C363 N371 1.427 . S
C364 H355 0.930 . S
C364 C362 1.378 . S
C364 C365 1.367 . S
C365 C364 1.367 . S
C365 C367 1.433 . S
C366 C362 1.350 . S
C366 C363 1.463 . S
C366 N370 1.427 . S
C367 H357 0.929 . S
C367 C365 1.433 . S
C367 N370 1.384 . S
C368 H359 0.929 . S
C368 C360 1.378 . S
C368 C363 1.350 . S
C369 H356 0.929 . S
C369 C361 1.433 . S
C369 N371 1.384 . S
N370 C366 1.427 . S
N370 C367 1.384 . S
N371 C363 1.427 . S
N371 C369 1.384 . S
H372 C378 0.930 . S
H373 C382 0.930 . S
H374 C387 0.929 . S
H375 C385 0.929 . S
H376 C380 0.929 . S
H377 C386 0.929 . S
C378 H372 0.930 . S
C378 C379 1.367 . S
C378 C386 1.378 . S
C379 C378 1.367 . S
C379 C387 1.433 . S
C380 H376 0.929 . S
C380 C382 1.378 . S
C380 C384 1.350 . S
C381 C384 1.463 . S
C381 C386 1.350 . S
C381 N389 1.427 . S
C382 H373 0.930 . S
C382 C380 1.378 . S
C382 C383 1.367 . S
C383 C382 1.367 . S
C383 C385 1.433 . S
C384 C380 1.350 . S
C384 C381 1.463 . S
C384 N388 1.427 . S
C385 H375 0.929 . S
C385 C383 1.433 . S
C385 N388 1.384 . S
C386 H377 0.929 . S
C386 C378 1.378 . S
C386 C381 1.350 . S
C387 H374 0.929 . S
C387 C379 1.433 . S
C387 N389 1.384 . S
N388 C384 1.427 . S
N388 C385 1.384 . S
N389 C381 1.427 . S
N389 C387 1.384 . S
H390 C396 0.930 . S
H391 C400 0.930 . S
H392 C405 0.929 . S
H393 C403 0.929 . S
H394 C398 0.929 . S
H395 C404 0.929 . S
C396 H390 0.930 . S
C396 C397 1.367 . S
C396 C404 1.378 . S
C397 C396 1.367 . S
C397 C405 1.433 . S
C398 H394 0.929 . S
C398 C400 1.378 . S
C398 C402 1.350 . S
C399 C402 1.463 . S
C399 C404 1.350 . S
C399 N407 1.427 . S
C400 H391 0.930 . S
C400 C398 1.378 . S
C400 C401 1.367 . S
C401 C400 1.367 . S
C401 C403 1.433 . S
C402 C398 1.350 . S
C402 C399 1.463 . S
C402 N406 1.427 . S
C403 H393 0.929 . S
C403 C401 1.433 . S
C403 N406 1.384 . S
C404 H395 0.929 . S
C404 C396 1.378 . S
C404 C399 1.350 . S
C405 H392 0.929 . S
C405 C397 1.433 . S
C405 N407 1.384 . S
N406 C402 1.427 . S
N406 C403 1.384 . S
N407 C399 1.427 . S
N407 C405 1.384 . S
H408 C414 0.930 . S
H409 C418 0.930 . S
H410 C423 0.929 . S
H411 C421 0.929 . S
H412 C416 0.929 . S
H413 C422 0.929 . S
C414 H408 0.930 . S
C414 C415 1.367 . S
C414 C422 1.378 . S
C415 C414 1.367 . S
C415 C423 1.433 . S
C416 H412 0.929 . S
C416 C418 1.378 . S
C416 C420 1.350 . S
C417 C420 1.463 . S
C417 C422 1.350 . S
C417 N425 1.427 . S
C418 H409 0.930 . S
C418 C416 1.378 . S
C418 C419 1.367 . S
C419 C418 1.367 . S
C419 C421 1.433 . S
C420 C416 1.350 . S
C420 C417 1.463 . S
C420 N424 1.427 . S
C421 H411 0.929 . S
C421 C419 1.433 . S
C421 N424 1.384 . S
C422 H413 0.929 . S
C422 C414 1.378 . S
C422 C417 1.350 . S
C423 H410 0.929 . S
C423 C415 1.433 . S
C423 N425 1.384 . S
N424 C420 1.427 . S
N424 C421 1.384 . S
N425 C417 1.427 . S
N425 C423 1.384 . S
H426 C432 0.930 . S
H427 C436 0.930 . S
H428 C441 0.929 . S
H429 C439 0.929 . S
H430 C434 0.929 . S
H431 C440 0.929 . S
C432 H426 0.930 . S
C432 C433 1.367 . S
C432 C440 1.378 . S
C433 C432 1.367 . S
C433 C441 1.433 . S
C434 H430 0.929 . S
C434 C436 1.378 . S
C434 C438 1.350 . S
C435 C438 1.463 . S
C435 C440 1.350 . S
C435 N443 1.427 . S
C436 H427 0.930 . S
C436 C434 1.378 . S
C436 C437 1.367 . S
C437 C436 1.367 . S
C437 C439 1.433 . S
C438 C434 1.350 . S
C438 C435 1.463 . S
C438 N442 1.427 . S
C439 H429 0.929 . S
C439 C437 1.433 . S
C439 N442 1.384 . S
C440 H431 0.929 . S
C440 C432 1.378 . S
C440 C435 1.350 . S
C441 H428 0.929 . S
C441 C433 1.433 . S
C441 N443 1.384 . S
N442 C438 1.427 . S
N442 C439 1.384 . S
N443 C435 1.427 . S
N443 C441 1.384 . S
H444 C450 0.930 . S
H445 C454 0.930 . S
H446 C459 0.929 . S
H447 C457 0.929 . S
H448 C452 0.929 . S
H449 C458 0.929 . S
C450 H444 0.930 . S
C450 C451 1.367 . S
C450 C458 1.378 . S
C451 C450 1.367 . S
C451 C459 1.433 . S
C452 H448 0.929 . S
C452 C454 1.378 . S
C452 C456 1.350 . S
C453 C456 1.463 . S
C453 C458 1.350 . S
C453 N461 1.427 . S
C454 H445 0.930 . S
C454 C452 1.378 . S
C454 C455 1.367 . S
C455 C454 1.367 . S
C455 C457 1.433 . S
C456 C452 1.350 . S
C456 C453 1.463 . S
C456 N460 1.427 . S
C457 H447 0.929 . S
C457 C455 1.433 . S
C457 N460 1.384 . S
C458 H449 0.929 . S
C458 C450 1.378 . S
C458 C453 1.350 . S
C459 H446 0.929 . S
C459 C451 1.433 . S
C459 N461 1.384 . S
N460 C456 1.427 . S
N460 C457 1.384 . S
N461 C453 1.427 . S
N461 C459 1.384 . S
H462 C468 0.930 . S
H463 C472 0.930 . S
H464 C477 0.929 . S
H465 C475 0.929 . S
H466 C470 0.929 . S
H467 C476 0.929 . S
C468 H462 0.930 . S
C468 C469 1.367 . S
C468 C476 1.378 . S
C469 C468 1.367 . S
C469 C477 1.433 . S
C470 H466 0.929 . S
C470 C472 1.378 . S
C470 C474 1.350 . S
C471 C474 1.463 . S
C471 C476 1.350 . S
C471 N479 1.427 . S
C472 H463 0.930 . S
C472 C470 1.378 . S
C472 C473 1.367 . S
C473 C472 1.367 . S
C473 C475 1.433 . S
C474 C470 1.350 . S
C474 C471 1.463 . S
C474 N478 1.427 . S
C475 H465 0.929 . S
C475 C473 1.433 . S
C475 N478 1.384 . S
C476 H467 0.929 . S
C476 C468 1.378 . S
C476 C471 1.350 . S
C477 H464 0.929 . S
C477 C469 1.433 . S
C477 N479 1.384 . S
N478 C474 1.427 . S
N478 C475 1.384 . S
N479 C471 1.427 . S
N479 C477 1.384 . S
H480 C486 0.930 . S
H481 C490 0.930 . S
H482 C495 0.929 . S
H483 C493 0.929 . S
H484 C488 0.929 . S
H485 C494 0.929 . S
C486 H480 0.930 . S
C486 C487 1.367 1_565 S
C486 C494 1.378 . S
C487 C486 1.367 1_545 S
C487 C495 1.433 . S
C488 H484 0.929 . S
C488 C490 1.378 . S
C488 C492 1.350 1_655 S
C489 C492 1.463 . S
C489 C494 1.350 1_545 S
C489 N497 1.427 . S
C490 H481 0.930 . S
C490 C488 1.378 . S
C490 C491 1.367 . S
C491 C490 1.367 . S
C491 C493 1.433 1_545 S
C492 C488 1.350 1_455 S
C492 C489 1.463 . S
C492 N496 1.427 1_445 S
C493 H483 0.929 . S
C493 C491 1.433 1_565 S
C493 N496 1.384 . S
C494 H485 0.929 . S
C494 C486 1.378 . S
C494 C489 1.350 1_565 S
C495 H482 0.929 . S
C495 C487 1.433 . S
C495 N497 1.384 . S
N496 C492 1.427 1_665 S
N496 C493 1.384 . S
N497 C489 1.427 . S
N497 C495 1.384 . S
H498 C504 0.930 1_655 S
H499 C508 0.930 . S
H500 C513 0.929 . S
H501 C511 0.930 . S
H502 C506 0.929 . S
H503 C512 0.929 1_655 S
C504 H498 0.930 1_455 S
C504 C505 1.367 . S
C504 C512 1.378 . S
C505 C504 1.367 . S
C505 C513 1.433 . S
C506 H502 0.929 . S
C506 C508 1.378 . S
C506 C510 1.350 1_565 S
C507 C510 1.463 . S
C507 C512 1.350 . S
C507 N515 1.427 . S
C508 H499 0.930 . S
C508 C506 1.378 . S
C508 C509 1.367 . S
C509 C508 1.367 . S
C509 C511 1.432 1_455 S
C510 C506 1.350 1_545 S
C510 C507 1.463 . S
C510 N514 1.427 1_545 S
C511 H501 0.930 . S
C511 C509 1.432 1_655 S
C511 N514 1.383 1_655 S
C512 H503 0.929 1_455 S
C512 C504 1.378 . S
C512 C507 1.350 . S
C513 H500 0.929 . S
C513 C505 1.433 . S
C513 N515 1.384 . S
N514 C510 1.427 1_565 S
N514 C511 1.383 1_455 S
N515 C507 1.427 . S
N515 C513 1.384 . S
H516 C522 0.941 . S
H517 C526 0.930 . S
H518 C531 0.929 . S
H519 C529 0.929 1_565 S
H520 C524 0.929 . S
H521 C530 0.917 1_565 S
C522 H516 0.941 . S
C522 C523 1.357 1_565 S
C522 C530 1.377 1_565 S
C523 C522 1.357 1_545 S
C523 C531 1.433 . S
C524 H520 0.929 . S
C524 C526 1.378 . S
C524 C528 1.350 . S
C525 C528 1.463 . S
C525 C530 1.363 1_455 S
C525 N533 1.427 1_455 S
C526 H517 0.930 . S
C526 C524 1.378 . S
C526 C527 1.367 . S
C527 C526 1.367 . S
C527 C529 1.433 . S
C528 C524 1.350 . S
C528 C525 1.463 . S
C528 N532 1.427 . S
C529 H519 0.929 1_545 S
C529 C527 1.433 . S
C529 N532 1.384 . S
C530 H521 0.917 1_545 S
C530 C522 1.377 1_545 S
C530 C525 1.363 1_655 S
C531 H518 0.929 . S
C531 C523 1.433 . S
C531 N533 1.384 . S
N532 C528 1.427 . S
N532 C529 1.384 . S
N533 C525 1.427 1_655 S
N533 C531 1.384 . S
H534 C540 0.930 . S
H535 C544 0.930 1_655 S
H536 C549 0.929 1_655 S
H537 C547 0.929 . S
H538 C542 0.929 1_655 S
H539 C548 0.929 . S
C540 H534 0.930 . S
C540 C541 1.367 . S
C540 C548 1.378 . S
C541 C540 1.367 . S
C541 C549 1.433 . S
C542 H538 0.929 1_455 S
C542 C544 1.378 . S
C542 C546 1.350 . S
C543 C546 1.463 . S
C543 C548 1.350 1_545 S
C543 N551 1.427 1_545 S
C544 H535 0.930 1_455 S
C544 C542 1.378 . S
C544 C545 1.367 . S
C545 C544 1.367 . S
C545 C547 1.433 . S
C546 C542 1.350 . S
C546 C543 1.463 . S
C546 N550 1.427 . S
C547 H537 0.929 . S
C547 C545 1.433 . S
C547 N550 1.384 . S
C548 H539 0.929 . S
C548 C540 1.378 . S
C548 C543 1.350 1_565 S
C549 H536 0.929 1_455 S
C549 C541 1.433 . S
C549 N551 1.384 . S
N550 C546 1.427 . S
N550 C547 1.384 . S
N551 C543 1.427 1_565 S
N551 C549 1.384 . S
H552 C558 0.930 . S
H553 C562 0.930 . S
H554 C567 0.929 . S
H555 C565 0.929 . S
H556 C560 0.929 . S
H557 C566 0.929 . S
C558 H552 0.930 . S
C558 C559 1.367 . S
C558 C566 1.378 . S
C559 C558 1.367 . S
C559 C567 1.433 1_545 S
C560 H556 0.929 . S
C560 C562 1.378 . S
C560 C564 1.350 1_565 S
C561 C564 1.463 . S
C561 C566 1.350 . S
C561 N569 1.427 1_545 S
C562 H553 0.930 . S
C562 C560 1.378 . S
C562 C563 1.367 1_565 S
C563 C562 1.367 1_545 S
C563 C565 1.433 . S
C564 C560 1.350 1_545 S
C564 C561 1.463 . S
C564 N568 1.427 . S
C565 H555 0.929 . S
C565 C563 1.433 . S
C565 N568 1.384 . S
C566 H557 0.929 . S
C566 C558 1.378 . S
C566 C561 1.350 . S
C567 H554 0.929 . S
C567 C559 1.433 1_565 S
C567 N569 1.384 . S
N568 C564 1.427 . S
N568 C565 1.384 . S
N569 C561 1.427 1_565 S
N569 C567 1.384 . S
H570 C576 0.930 . S
H571 C580 0.930 1_655 S
H572 C585 0.929 . S
H573 C583 0.929 . S
H574 C578 0.932 . S
H575 C584 0.929 . S
C576 H570 0.930 . S
C576 C577 1.367 . S
C576 C584 1.378 . S
C577 C576 1.367 . S
C577 C585 1.433 . S
C578 H574 0.932 . S
C578 C580 1.378 . S
C578 C582 1.350 . S
C579 C582 1.463 . S
C579 C584 1.350 . S
C579 N587 1.427 . S
C580 H571 0.930 1_455 S
C580 C578 1.378 . S
C580 C581 1.367 . S
C581 C580 1.367 . S
C581 C583 1.433 . S
C582 C578 1.350 . S
C582 C579 1.463 . S
C582 N586 1.427 . S
C583 H573 0.929 . S
C583 C581 1.433 . S
C583 N586 1.384 . S
C584 H575 0.929 . S
C584 C576 1.378 . S
C584 C579 1.350 . S
C585 H572 0.929 . S
C585 C577 1.433 . S
C585 N587 1.384 . S
N586 C582 1.427 . S
N586 C583 1.384 . S
N587 C579 1.427 . S
N587 C585 1.384 . S
H588 C594 0.930 . S
H589 C598 0.930 . S
H590 C603 0.929 . S
H591 C601 0.929 . S
H592 C596 0.929 . S
H593 C602 0.929 . S
C594 H588 0.930 . S
C594 C595 1.367 . S
C594 C602 1.378 . S
C595 C594 1.367 . S
C595 C603 1.433 . S
C596 H592 0.929 . S
C596 C598 1.378 . S
C596 C600 1.350 . S
C597 C600 1.463 . S
C597 C602 1.350 . S
C597 N605 1.427 . S
C598 H589 0.930 . S
C598 C596 1.378 . S
C598 C599 1.367 . S
C599 C598 1.367 . S
C599 C601 1.433 . S
C600 C596 1.350 . S
C600 C597 1.463 . S
C600 N604 1.427 . S
C601 H591 0.929 . S
C601 C599 1.433 . S
C601 N604 1.384 . S
C602 H593 0.929 . S
C602 C594 1.378 . S
C602 C597 1.350 . S
C603 H590 0.929 . S
C603 C595 1.433 . S
C603 N605 1.384 . S
N604 C600 1.427 . S
N604 C601 1.384 . S
N605 C597 1.427 . S
N605 C603 1.384 . S
H606 C612 0.930 . S
H607 C616 0.930 . S
H608 C621 0.929 . S
H609 C619 0.929 . S
H610 C614 0.929 . S
H611 C620 0.929 . S
C612 H606 0.930 . S
C612 C613 1.367 . S
C612 C620 1.378 . S
C613 C612 1.367 . S
C613 C621 1.433 . S
C614 H610 0.929 . S
C614 C616 1.378 . S
C614 C618 1.350 . S
C615 C618 1.463 . S
C615 C620 1.350 . S
C615 N623 1.427 . S
C616 H607 0.930 . S
C616 C614 1.378 . S
C616 C617 1.367 . S
C617 C616 1.367 . S
C617 C619 1.433 . S
C618 C614 1.350 . S
C618 C615 1.463 . S
C618 N622 1.427 . S
C619 H609 0.929 . S
C619 C617 1.433 . S
C619 N622 1.384 . S
C620 H611 0.929 . S
C620 C612 1.378 . S
C620 C615 1.350 . S
C621 H608 0.929 . S
C621 C613 1.433 . S
C621 N623 1.384 . S
N622 C618 1.427 . S
N622 C619 1.384 . S
N623 C615 1.427 . S
N623 C621 1.384 . S
C271 C28 1.671 . S
C275 C160 1.666 . S
C289 C193 1.665 . S
C293 C61 1.672 . S
C307 C94 1.672 . S
C311 C226 1.666 . S
C325 C259 1.671 . S
C329 C127 1.664 . S
C343 C182 0.422 . S
C347 C17 0.380 . S
C361 C215 0.426 . S
C365 C50 0.373 . S
C379 C83 0.426 . S
C383 C248 0.374 . S
C397 C149 0.383 . S
C401 C116 0.419 . S
C415 C107 1.312 . S
C419 C206 1.313 . S
C433 C8 1.306 . S
C437 C239 1.320 . S
C451 C41 1.312 . S
C455 C140 1.316 . S
C469 C74 1.320 . S
C473 C173 1.305 . S
C487 N14 0.717 . S
C491 N80 0.715 . S
C505 N47 0.699 . S
C509 N113 0.693 . S
C523 N212 0.708 . S
C527 N146 0.714 . S
C541 N245 0.707 . S
C545 N179 0.713 . S
C559 N5 1.053 . S
C563 N71 1.056 . S
C577 N104 1.054 . S
C581 N38 1.049 . S
C595 N137 1.050 . S
C599 N203 1.045 . S
C613 N170 1.047 . S
C617 N236 1.052 . S
