# Generated by pormake.
# Topology zfc, (5)-cn, num edge types: 1
# Building blocks:
#     Node 0, Type 0, BuildingBlock: XOMCOT_clean_sbu_1, # of connection points: 5
#     Node 1, Type 0, BuildingBlock: XOMCOT_clean_sbu_1, # of connection points: 5
#     Node 2, Type 0, BuildingBlock: XOMCOT_clean_sbu_1, # of connection points: 5
#     Node 3, Type 0, BuildingBlock: XOMCOT_clean_sbu_1, # of connection points: 5
#     Node 4, Type 0, BuildingBlock: XOMCOT_clean_sbu_1, # of connection points: 5
#     Node 5, Type 0, BuildingBlock: XOMCOT_clean_sbu_1, # of connection points: 5
#     Node 6, Type 0, BuildingBlock: XOMCOT_clean_sbu_1, # of connection points: 5
#     Node 7, Type 0, BuildingBlock: XOMCOT_clean_sbu_1, # of connection points: 5
#     Node 8, Type 0, BuildingBlock: XOMCOT_clean_sbu_1, # of connection points: 5
#     Node 9, Type 0, BuildingBlock: XOMCOT_clean_sbu_1, # of connection points: 5
#     Node 10, Type 0, BuildingBlock: XOMCOT_clean_sbu_1, # of connection points: 5
#     Node 11, Type 0, BuildingBlock: XOMCOT_clean_sbu_1, # of connection points: 5
#     Node 12, Type 0, BuildingBlock: XOMCOT_clean_sbu_1, # of connection points: 5
#     Node 13, Type 0, BuildingBlock: XOMCOT_clean_sbu_1, # of connection points: 5
#     Node 14, Type 0, BuildingBlock: XOMCOT_clean_sbu_1, # of connection points: 5
#     Node 15, Type 0, BuildingBlock: XOMCOT_clean_sbu_1, # of connection points: 5
#     Edge 16, Type (0, 0), BuildingBlock: XUDNAN_clean_linker_2, # of connection points: 2
#     Edge 17, Type (0, 0), BuildingBlock: XUDNAN_clean_linker_2, # of connection points: 2
#     Edge 18, Type (0, 0), BuildingBlock: XUDNAN_clean_linker_2, # of connection points: 2
#     Edge 19, Type (0, 0), BuildingBlock: XUDNAN_clean_linker_2, # of connection points: 2
#     Edge 20, Type (0, 0), BuildingBlock: XUDNAN_clean_linker_2, # of connection points: 2
#     Edge 21, Type (0, 0), BuildingBlock: XUDNAN_clean_linker_2, # of connection points: 2
#     Edge 22, Type (0, 0), BuildingBlock: XUDNAN_clean_linker_2, # of connection points: 2
#     Edge 23, Type (0, 0), BuildingBlock: XUDNAN_clean_linker_2, # of connection points: 2
#     Edge 24, Type (0, 0), BuildingBlock: XUDNAN_clean_linker_2, # of connection points: 2
#     Edge 25, Type (0, 0), BuildingBlock: XUDNAN_clean_linker_2, # of connection points: 2
#     Edge 26, Type (0, 0), BuildingBlock: XUDNAN_clean_linker_2, # of connection points: 2
#     Edge 27, Type (0, 0), BuildingBlock: XUDNAN_clean_linker_2, # of connection points: 2
#     Edge 28, Type (0, 0), BuildingBlock: XUDNAN_clean_linker_2, # of connection points: 2
#     Edge 29, Type (0, 0), BuildingBlock: XUDNAN_clean_linker_2, # of connection points: 2
#     Edge 30, Type (0, 0), BuildingBlock: XUDNAN_clean_linker_2, # of connection points: 2
#     Edge 31, Type (0, 0), BuildingBlock: XUDNAN_clean_linker_2, # of connection points: 2
#     Edge 32, Type (0, 0), BuildingBlock: XUDNAN_clean_linker_2, # of connection points: 2
#     Edge 33, Type (0, 0), BuildingBlock: XUDNAN_clean_linker_2, # of connection points: 2
#     Edge 34, Type (0, 0), BuildingBlock: XUDNAN_clean_linker_2, # of connection points: 2
#     Edge 35, Type (0, 0), BuildingBlock: XUDNAN_clean_linker_2, # of connection points: 2
#     Edge 36, Type (0, 0), BuildingBlock: XUDNAN_clean_linker_2, # of connection points: 2
#     Edge 37, Type (0, 0), BuildingBlock: XUDNAN_clean_linker_2, # of connection points: 2
#     Edge 38, Type (0, 0), BuildingBlock: XUDNAN_clean_linker_2, # of connection points: 2
#     Edge 39, Type (0, 0), BuildingBlock: XUDNAN_clean_linker_2, # of connection points: 2
#     Edge 40, Type (0, 0), BuildingBlock: XUDNAN_clean_linker_2, # of connection points: 2
#     Edge 41, Type (0, 0), BuildingBlock: XUDNAN_clean_linker_2, # of connection points: 2
#     Edge 42, Type (0, 0), BuildingBlock: XUDNAN_clean_linker_2, # of connection points: 2
#     Edge 43, Type (0, 0), BuildingBlock: XUDNAN_clean_linker_2, # of connection points: 2
#     Edge 44, Type (0, 0), BuildingBlock: XUDNAN_clean_linker_2, # of connection points: 2
#     Edge 45, Type (0, 0), BuildingBlock: XUDNAN_clean_linker_2, # of connection points: 2
#     Edge 46, Type (0, 0), BuildingBlock: XUDNAN_clean_linker_2, # of connection points: 2
#     Edge 47, Type (0, 0), BuildingBlock: XUDNAN_clean_linker_2, # of connection points: 2
#     Edge 48, Type (0, 0), BuildingBlock: XUDNAN_clean_linker_2, # of connection points: 2
#     Edge 49, Type (0, 0), BuildingBlock: XUDNAN_clean_linker_2, # of connection points: 2
#     Edge 50, Type (0, 0), BuildingBlock: XUDNAN_clean_linker_2, # of connection points: 2
#     Edge 51, Type (0, 0), BuildingBlock: XUDNAN_clean_linker_2, # of connection points: 2
#     Edge 52, Type (0, 0), BuildingBlock: XUDNAN_clean_linker_2, # of connection points: 2
#     Edge 53, Type (0, 0), BuildingBlock: XUDNAN_clean_linker_2, # of connection points: 2
#     Edge 54, Type (0, 0), BuildingBlock: XUDNAN_clean_linker_2, # of connection points: 2
#     Edge 55, Type (0, 0), BuildingBlock: XUDNAN_clean_linker_2, # of connection points: 2
# Relax obj value: 0.150
# Max RMSD: 0.157
# Mean RMSD: 0.157
data_MOF--net-zfc--node1-XOMCOT_clean_sbu_1--edge1-XUDNAN_clean_linker_2
_symmetry_space_group_name_H-M    P1
_symmetry_Int_Tables_number       1
_symmetry_cell_setting            triclinic
loop_
_symmetry_equiv_pos_as_xyz
'x, y, z'
_cell_length_a     75.209355
_cell_length_b     75.155022
_cell_length_c     17.401342
_cell_angle_alpha  90.096018
_cell_angle_beta   89.924876
_cell_angle_gamma 90.016081
loop_
_atom_site_label
_atom_site_type_symbol
_atom_site_fract_x
_atom_site_fract_y
_atom_site_fract_z
_atom_type_partial_charge
C0 C 0.25062 0.10512 0.18694 0.0
C1 C 0.24979 0.10389 0.2661 0.0
N2 N 0.26575 0.09838 0.29177 0.0
N3 N 0.26712 0.10062 0.16335 0.0
C4 C 0.27593 0.09653 0.22843 0.0
H5 H 0.23989 0.109 0.14921 0.0
Co6 Co 0.27699 0.09963 0.06512 0.0
C7 C 0.3093 0.12245 0.07898 0.0
O8 O 0.30727 0.12848 1.0087 0.0
N9 N 0.28744 0.09791 0.96627 0.0
C10 C 0.30767 0.08975 0.87947 0.0
C11 C 0.30431 0.09216 0.95612 0.0
C12 C 0.28068 0.09842 0.89398 0.0
N13 N 0.29277 0.09358 0.84022 0.0
O14 O 0.28657 0.07651 0.08729 0.0
H15 H 0.31352 0.08927 1.00212 0.0
H16 H 0.26695 0.10112 0.88056 0.0
O17 O 0.29831 0.11115 0.10644 0.0
C18 C 0.27537 0.06415 0.0744 0.0
O19 O 0.25915 0.06865 0.05414 0.0
N20 N 0.26622 0.12164 0.04173 0.0
C21 C 0.24594 0.15146 1.00324 0.0
C22 C 0.25989 0.15285 0.05635 0.0
C23 C 0.26979 0.1377 0.07557 0.0
C24 C 0.25185 0.11991 0.99477 0.0
C25 C 0.24183 0.13467 0.97315 0.0
H26 H 0.27984 0.13888 0.11943 0.0
H27 H 0.24785 0.10684 0.97547 0.0
H28 H 0.28971 0.09237 0.22925 0.0
H29 H 0.23825 0.10646 0.3017 0.0
H30 H 0.32004 0.08509 0.85479 0.0
H31 H 0.2631 0.1655 0.08283 0.0
H32 H 0.23063 0.13286 0.93484 0.0
C33 C 0.90786 0.2508 0.11882 0.0
C34 C 0.91058 0.24773 0.19585 0.0
N35 N 0.9109 0.26352 0.23256 0.0
N36 N 0.90649 0.26846 0.10677 0.0
C37 C 0.90847 0.27587 0.17722 0.0
H38 H 0.90707 0.24082 0.07412 0.0
Co39 Co 0.90365 0.27889 0.00992 0.0
C40 C 0.87779 0.30794 0.0522 0.0
O41 O 0.86669 0.30342 0.9972 0.0
N42 N 0.90171 0.28907 0.9103 0.0
C43 C 0.89904 0.30632 0.80654 0.0
C44 C 0.89687 0.30539 0.88518 0.0
C45 C 0.90775 0.28085 0.84605 0.0
N46 N 0.90588 0.29079 0.78183 0.0
O47 O 0.92664 0.28971 0.0193 0.0
H48 H 0.89285 0.31638 0.9211 0.0
H49 H 0.91378 0.26781 0.84672 0.0
O50 O 0.89249 0.29956 0.0597 0.0
C51 C 0.93883 0.27854 1.00309 0.0
O52 O 0.93412 0.26229 0.98393 0.0
N53 N 0.88164 0.26667 0.99928 0.0
C54 C 0.85431 0.24139 0.99171 0.0
C55 C 0.85444 0.25429 0.05006 0.0
C56 C 0.86844 0.26665 0.05364 0.0
C57 C 0.88141 0.25426 0.94207 0.0
C58 C 0.86777 0.24185 0.93624 0.0
H59 H 0.86925 0.27533 0.10304 0.0
H60 H 0.89254 0.25284 0.90397 0.0
H61 H 0.90877 0.29002 0.18755 0.0
H62 H 0.91213 0.23486 0.22286 0.0
H63 H 0.89641 0.31781 0.77091 0.0
H64 H 0.84457 0.25403 0.09541 0.0
H65 H 0.86836 0.23195 0.89094 0.0
C66 C 0.7478 0.90958 0.19469 0.0
C67 C 0.74756 0.91225 0.27317 0.0
N68 N 0.73051 0.91413 0.29645 0.0
N69 N 0.73098 0.90962 0.16828 0.0
C70 C 0.72086 0.91279 0.23099 0.0
H71 H 0.75942 0.90703 0.1597 0.0
Co72 Co 0.72259 0.90428 0.06937 0.0
C73 C 0.68645 0.89124 0.10829 0.0
O74 O 0.67907 0.90112 0.05495 0.0
N75 N 0.71413 0.89882 0.97055 0.0
C76 C 0.70245 0.88431 0.8712 0.0
C77 C 0.70594 0.88364 0.94862 0.0
C78 C 0.71601 0.90827 0.90483 0.0
N79 N 0.70888 0.89974 0.84383 0.0
O80 O 0.70918 0.92604 0.06957 0.0
H81 H 0.70298 0.87258 0.98623 0.0
H82 H 0.72258 0.92106 0.90159 0.0
O83 O 0.70327 0.89118 0.11696 0.0
C84 C 0.71999 0.93869 0.05539 0.0
O85 O 0.73675 0.93467 0.04276 0.0
N86 N 0.73697 0.88405 0.06616 0.0
C87 C 0.76353 0.85827 0.05482 0.0
C88 C 0.74985 0.85659 0.10957 0.0
C89 C 0.7366 0.86975 0.11447 0.0
C90 C 0.74989 0.88561 0.01186 0.0
C91 C 0.76305 0.87278 1.00428 0.0
H92 H 0.72656 0.86882 0.15879 0.0
H93 H 0.7502 0.8972 0.97511 0.0
H94 H 0.70656 0.91363 0.22813 0.0
H95 H 0.75911 0.91208 0.31002 0.0
H96 H 0.69614 0.87404 0.83706 0.0
H97 H 0.7498 0.84569 0.15017 0.0
H98 H 0.77306 0.87449 0.96009 0.0
C99 C 0.10104 0.74855 0.14342 0.0
C100 C 0.09911 0.7495 0.22229 0.0
N101 N 0.09376 0.73346 0.248 0.0
N102 N 0.09718 0.73189 0.11959 0.0
C103 C 0.09253 0.72318 0.18443 0.0
H104 H 0.10537 0.75923 0.10631 0.0
Co105 Co 0.09896 0.72144 0.02151 0.0
C106 C 0.12353 0.6906 0.05741 0.0
O107 O 0.13299 0.69225 0.99426 0.0
N108 N 0.10016 0.71054 0.92321 0.0
C109 C 0.09627 0.6895 0.83441 0.0
C110 C 0.09805 0.69289 0.91148 0.0
C111 C 0.09912 0.71762 0.8515 0.0
N112 N 0.09683 0.70507 0.79651 0.0
O113 O 0.07618 0.71054 0.03574 0.0
H114 H 0.09666 0.68308 0.95645 0.0
H115 H 0.09854 0.73168 0.83962 0.0
O116 O 0.11054 0.70114 0.07017 0.0
C117 C 0.06374 0.72154 0.02189 0.0
O118 O 0.06806 0.73789 1.00267 0.0
N119 N 0.12057 0.7336 1.00558 0.0
C120 C 0.14702 0.75962 0.99292 0.0
C121 C 0.14949 0.74476 0.04055 0.0
C122 C 0.13594 0.73198 0.04706 0.0
C123 C 0.11819 0.74784 0.95853 0.0
C124 C 0.13133 0.76071 0.94987 0.0
H125 H 0.13733 0.72176 0.09 0.0
H126 H 0.10538 0.75011 0.93257 0.0
H127 H 0.08869 0.70933 0.18498 0.0
H128 H 0.1015 0.76109 0.2578 0.0
H129 H 0.09395 0.67659 0.80861 0.0
H130 H 0.16116 0.74371 0.07665 0.0
H131 H 0.12873 0.77203 0.91309 0.0
C132 C 0.25203 0.90533 0.90716 0.0
C133 C 0.24898 0.90814 0.83019 0.0
N134 N 0.26466 0.90735 0.79285 0.0
N135 N 0.26956 0.90283 0.91861 0.0
C136 C 0.27694 0.90415 0.84777 0.0
H137 H 0.2421 0.90511 0.95219 0.0
Co138 Co 0.27976 0.89899 0.01526 0.0
C139 C 0.30901 0.87397 0.96727 0.0
O140 O 0.3042 0.86187 0.01769 0.0
N141 N 0.2897 0.89601 0.11475 0.0
C142 C 0.30669 0.89256 0.21887 0.0
C143 C 0.30582 0.89063 0.14008 0.0
C144 C 0.28149 0.90196 0.17915 0.0
N145 N 0.2913 0.89973 0.24348 0.0
O146 O 0.29016 0.92232 0.01189 0.0
H147 H 0.31676 0.88644 0.10428 0.0
H148 H 0.26852 0.90812 0.17847 0.0
O149 O 0.30074 0.88882 0.96441 0.0
C150 C 0.27877 0.93394 0.03277 0.0
O151 O 0.26272 0.92846 0.0512 0.0
N152 N 0.26787 0.87669 0.02008 0.0
C153 C 0.24209 0.84984 0.01707 0.0
C154 C 0.25504 0.85081 0.95928 0.0
C155 C 0.26769 0.86456 0.96118 0.0
C156 C 0.25559 0.87542 0.07752 0.0
C157 C 0.24286 0.862 0.07784 0.0
H158 H 0.27639 0.8662 0.91226 0.0
H159 H 0.25443 0.8857 0.12008 0.0
H160 H 0.29102 0.90319 0.83664 0.0
H161 H 0.23617 0.91041 0.80363 0.0
H162 H 0.31807 0.88963 0.25465 0.0
H163 H 0.25453 0.84196 0.91016 0.0
H164 H 0.23285 0.86191 0.12272 0.0
C165 C 0.09978 0.25141 0.85366 0.0
C166 C 0.0971 0.24798 0.7769 0.0
N167 N 0.09661 0.26361 0.73914 0.0
N168 N 0.10101 0.26911 0.86457 0.0
C169 C 0.09892 0.27622 0.79373 0.0
H170 H 0.10089 0.24162 0.89888 0.0
Co171 Co 0.10466 0.27939 0.96104 0.0
C172 C 0.12767 0.31061 0.91986 0.0
O173 O 0.13889 0.30688 0.97541 0.0
N174 N 0.10737 0.28912 0.06081 0.0
C175 C 0.1078 0.30642 0.16529 0.0
C176 C 0.10949 0.306 0.08633 0.0
C177 C 0.10345 0.27985 0.12525 0.0
N178 N 0.10392 0.2899 0.18972 0.0
O179 O 0.08101 0.28886 0.95904 0.0
H180 H 0.11087 0.3176 0.05035 0.0
H181 H 0.09941 0.26606 0.12437 0.0
O182 O 0.11372 0.30106 0.9111 0.0
C183 C 0.06922 0.27777 0.98056 0.0
O184 O 0.07434 0.2617 1.00026 0.0
N185 N 0.12769 0.26882 0.96319 0.0
C186 C 0.15837 0.24759 0.95518 0.0
C187 C 0.15506 0.26078 0.9 0.0
C188 C 0.13953 0.27094 0.90409 0.0
C189 C 0.13071 0.256 0.01708 0.0
C190 C 0.14601 0.24546 0.01484 0.0
H191 H 0.13664 0.27982 0.85707 0.0
H192 H 0.12074 0.25291 0.05925 0.0
H193 H 0.09871 0.29031 0.78243 0.0
H194 H 0.0959 0.23496 0.75075 0.0
H195 H 0.10828 0.31818 0.20122 0.0
H196 H 0.16409 0.26285 0.8523 0.0
H197 H 0.14754 0.23499 0.057 0.0
C198 C 0.74754 0.09657 0.89556 0.0
C199 C 0.75066 0.09379 0.81854 0.0
N200 N 0.73509 0.09513 0.7808 0.0
N201 N 0.73007 0.09962 0.90665 0.0
C202 C 0.72281 0.09863 0.83558 0.0
H203 H 0.75737 0.09637 0.94087 0.0
Co204 Co 0.71988 0.10362 1.0033 0.0
C205 C 0.69076 0.12908 0.95709 0.0
O206 O 0.69525 0.14098 1.00901 0.0
N207 N 0.71002 0.1068 0.10297 0.0
C208 C 0.69299 0.11015 0.20729 0.0
C209 C 0.6938 0.11192 0.1284 0.0
C210 C 0.71836 0.10116 0.16742 0.0
N211 N 0.70851 0.10332 0.23179 0.0
O212 O 0.70874 0.08068 0.99882 0.0
H213 H 0.68277 0.11572 0.09257 0.0
H214 H 0.73136 0.09507 0.1668 0.0
O215 O 0.69925 0.11436 0.95294 0.0
C216 C 0.71951 0.06873 0.02177 0.0
O217 O 0.73556 0.07372 0.04257 0.0
N218 N 0.73238 0.12552 1.0089 0.0
C219 C 0.75849 0.15203 1.00688 0.0
C220 C 0.74498 0.15188 0.95151 0.0
C221 C 0.7322 0.13826 0.95265 0.0
C222 C 0.74535 0.12585 0.06355 0.0
C223 C 0.7583 0.13907 0.0643 0.0
H224 H 0.72308 0.13725 0.90494 0.0
H225 H 0.74681 0.11498 0.10294 0.0
H226 H 0.7088 0.10001 0.82413 0.0
H227 H 0.76344 0.09115 0.79226 0.0
H228 H 0.68154 0.11287 0.24318 0.0
H229 H 0.74513 0.16132 0.90454 0.0
H230 H 0.76886 0.13844 0.10657 0.0
C231 C 0.90505 0.74819 0.90392 0.0
C232 C 0.90377 0.75125 0.82627 0.0
N233 N 0.89949 0.73581 0.79176 0.0
N234 N 0.90125 0.73098 0.91834 0.0
C235 C 0.89821 0.72368 0.84848 0.0
H236 H 0.90801 0.75804 0.94742 0.0
Co237 Co 0.89898 0.72137 0.01638 0.0
C238 C 0.87419 0.69047 0.99874 0.0
O239 O 0.86779 0.69246 0.06848 0.0
N240 N 0.89725 0.71181 0.11659 0.0
C241 C 0.90062 0.6938 0.21729 0.0
C242 C 0.90248 0.6954 0.13881 0.0
C243 C 0.89265 0.71997 0.18301 0.0
N244 N 0.89437 0.70932 0.24495 0.0
O245 O 0.92128 0.70939 1.0034 0.0
H246 H 0.9075 0.68525 0.10033 0.0
H247 H 0.88886 0.73373 0.18723 0.0
O248 O 0.8861 0.70106 0.97324 0.0
C249 C 0.93343 0.71994 0.0265 0.0
O250 O 0.92861 0.73556 0.05347 0.0
N251 N 0.87818 0.73493 0.02956 0.0
C252 C 0.85355 0.76277 0.03538 0.0
C253 C 0.84915 0.74655 0.99984 0.0
C254 C 0.86181 0.73278 0.99659 0.0
C255 C 0.88246 0.75058 0.06442 0.0
C256 C 0.87029 0.76439 0.06986 0.0
H257 H 0.85875 0.72105 0.96345 0.0
H258 H 0.8958 0.75257 0.08589 0.0
H259 H 0.89443 0.70996 0.83922 0.0
H260 H 0.90551 0.76388 0.79744 0.0
H261 H 0.90373 0.68214 0.25113 0.0
H262 H 0.83652 0.74491 0.97089 0.0
H263 H 0.8743 0.77658 0.09827 0.0
C264 C 0.75059 0.59369 0.67228 0.0
C265 C 0.74735 0.59091 0.74911 0.0
N266 N 0.763 0.59114 0.78669 0.0
N267 N 0.76821 0.59567 0.66112 0.0
C268 C 0.77545 0.59399 0.73196 0.0
H269 H 0.74073 0.59438 0.62719 0.0
Co270 Co 0.77834 0.59973 0.56456 0.0
C271 C 0.80845 0.62379 0.60844 0.0
O272 O 0.80406 0.63521 0.55457 0.0
N273 N 0.78805 0.60286 0.46496 0.0
C274 C 0.80524 0.60452 0.36049 0.0
C275 C 0.8047 0.60625 0.43942 0.0
C276 C 0.7791 0.59817 0.40058 0.0
N277 N 0.78907 0.59937 0.33609 0.0
O278 O 0.78818 0.57617 0.56514 0.0
H279 H 0.81614 0.60864 0.47529 0.0
H280 H 0.76559 0.59328 0.40155 0.0
O281 O 0.79977 0.60922 0.61502 0.0
C282 C 0.77685 0.5645 0.54451 0.0
O283 O 0.76065 0.56979 0.52786 0.0
N284 N 0.76728 0.62254 0.56315 0.0
C285 C 0.74534 0.65268 0.57014 0.0
C286 C 0.75783 0.64927 0.62806 0.0
C287 C 0.76844 0.63402 0.62412 0.0
C288 C 0.75511 0.62569 0.50667 0.0
C289 C 0.74426 0.64076 0.50834 0.0
H290 H 0.77697 0.63105 0.67231 0.0
H291 H 0.75279 0.61601 0.46236 0.0
H292 H 0.78954 0.59456 0.74323 0.0
H293 H 0.73443 0.58913 0.77545 0.0
H294 H 0.81691 0.60594 0.32453 0.0
H295 H 0.759 0.65798 0.67743 0.0
H296 H 0.73435 0.64243 0.46386 0.0
C297 C 0.40002 0.75255 0.65904 0.0
C298 C 0.39827 0.7497 0.7367 0.0
N299 N 0.39684 0.76563 0.77162 0.0
N300 N 0.39935 0.77018 0.64497 0.0
C301 C 0.39775 0.77783 0.71507 0.0
H302 H 0.40104 0.74238 0.61527 0.0
Co303 Co 0.39839 0.78012 0.54716 0.0
C304 C 0.37872 0.81469 0.56784 0.0
O305 O 0.37287 0.81482 0.4968 0.0
N306 N 0.39795 0.78989 0.44702 0.0
C307 C 0.40395 0.80717 0.34608 0.0
C308 C 0.40555 0.80534 0.42456 0.0
C309 C 0.39229 0.78243 0.38063 0.0
N310 N 0.39553 0.7927 0.31856 0.0
O311 O 0.42213 0.78895 0.55908 0.0
H312 H 0.41202 0.81466 0.46286 0.0
H313 H 0.38669 0.76931 0.37648 0.0
O314 O 0.38853 0.80195 0.59159 0.0
C315 C 0.43325 0.77726 0.53658 0.0
O316 O 0.42709 0.76175 0.51388 0.0
N317 N 0.37568 0.76985 0.53444 0.0
C318 C 0.34501 0.74993 0.50883 0.0
C319 C 0.34423 0.76565 0.552 0.0
C320 C 0.35983 0.77543 0.56478 0.0
C321 C 0.3767 0.75384 0.49776 0.0
C322 C 0.36149 0.7439 0.48246 0.0
H323 H 0.35904 0.78712 0.60037 0.0
H324 H 0.3895 0.74894 0.47878 0.0
H325 H 0.39649 0.792 0.72459 0.0
H326 H 0.39769 0.73692 0.76524 0.0
H327 H 0.40874 0.81824 0.31215 0.0
H328 H 0.3317 0.77037 0.57507 0.0
H329 H 0.3626 0.73154 0.45067 0.0
C330 C 0.25348 0.40651 0.63094 0.0
C331 C 0.25661 0.40889 0.70782 0.0
N332 N 0.2409 0.40879 0.74513 0.0
N333 N 0.23587 0.40471 0.61926 0.0
C334 C 0.22848 0.40616 0.69 0.0
H335 H 0.26342 0.40649 0.58605 0.0
Co336 Co 0.2259 0.40274 0.52177 0.0
C337 C 0.19551 0.37789 0.5417 0.0
O338 O 0.19912 0.37026 0.47551 0.0
N339 N 0.21613 0.40168 0.42161 0.0
C340 C 0.19778 0.40565 0.3221 0.0
C341 C 0.19893 0.40396 0.40084 0.0
C342 C 0.22513 0.40292 0.35447 0.0
N343 N 0.21435 0.40514 0.29337 0.0
O344 O 0.21481 0.42548 0.53449 0.0
H345 H 0.18797 0.40539 0.44066 0.0
H346 H 0.23938 0.40339 0.34989 0.0
O347 O 0.20516 0.39071 0.56623 0.0
C348 C 0.22587 0.43761 0.51624 0.0
O349 O 0.24193 0.43279 0.49475 0.0
N350 N 0.23845 0.38115 0.5082 0.0
C351 C 0.26468 0.35473 0.50227 0.0
C352 C 0.24914 0.35219 0.54568 0.0
C353 C 0.23628 0.36573 0.549 0.0
C354 C 0.25352 0.38367 0.46618 0.0
C355 C 0.26644 0.37053 0.46039 0.0
H356 H 0.22545 0.36424 0.5891 0.0
H357 H 0.25644 0.39663 0.44296 0.0
H358 H 0.21429 0.40596 0.70049 0.0
H359 H 0.26953 0.41068 0.7341 0.0
H360 H 0.18587 0.40836 0.28927 0.0
H361 H 0.24754 0.34045 0.58106 0.0
H362 H 0.2783 0.37326 0.42701 0.0
C363 C 0.60758 0.24899 0.65438 0.0
C364 C 0.60638 0.24977 0.7336 0.0
N365 N 0.60076 0.23381 0.75916 0.0
N366 N 0.60293 0.23253 0.63058 0.0
C367 C 0.59877 0.22371 0.69564 0.0
H368 H 0.61167 0.25968 0.61683 0.0
Co369 Co 0.60238 0.22245 0.53244 0.0
C370 C 0.62486 0.18979 0.55203 0.0
O371 O 0.6312 0.19057 0.48174 0.0
N372 N 0.60116 0.21176 0.4339 0.0
C373 C 0.59338 0.19137 0.34713 0.0
C374 C 0.59559 0.19481 0.42382 0.0
C375 C 0.60179 0.21846 0.3615 0.0
N376 N 0.59717 0.20628 0.30775 0.0
O377 O 0.57928 0.21281 0.55353 0.0
H378 H 0.59259 0.18564 0.46987 0.0
H379 H 0.60435 0.23223 0.34803 0.0
O380 O 0.61374 0.20139 0.57574 0.0
C381 C 0.567 0.22398 0.5393 0.0
O382 O 0.57159 0.24012 0.51813 0.0
N383 N 0.62438 0.23324 0.51006 0.0
C384 C 0.65399 0.25413 0.47485 0.0
C385 C 0.6554 0.24 0.52702 0.0
C386 C 0.64035 0.22975 0.54443 0.0
C387 C 0.62264 0.24766 0.46337 0.0
C388 C 0.63731 0.25799 0.44339 0.0
H389 H 0.64151 0.21956 0.58768 0.0
H390 H 0.60961 0.2515 0.44331 0.0
H391 H 0.5946 0.20993 0.6964 0.0
H392 H 0.60917 0.26123 0.76938 0.0
H393 H 0.58883 0.17895 0.32251 0.0
H394 H 0.66797 0.23697 0.55434 0.0
H395 H 0.63551 0.26928 0.40555 0.0
C396 C 0.7507 0.40462 0.34408 0.0
C397 C 0.74718 0.40732 0.26769 0.0
N398 N 0.76271 0.40729 0.22894 0.0
N399 N 0.76835 0.40281 0.3539 0.0
C400 C 0.7754 0.40448 0.28269 0.0
H401 H 0.74101 0.404 0.38999 0.0
Co402 Co 0.77811 0.39957 0.4507 0.0
C403 C 0.80963 0.37674 0.4237 0.0
O404 O 0.80522 0.36717 0.4839 0.0
N405 N 0.78737 0.39741 0.55111 0.0
C406 C 0.80483 0.40003 0.65427 0.0
C407 C 0.80444 0.39839 0.57549 0.0
C408 C 0.77776 0.39971 0.61613 0.0
N409 N 0.78798 0.40097 0.6796 0.0
O410 O 0.78748 0.42331 0.44826 0.0
H411 H 0.81594 0.39927 0.53846 0.0
H412 H 0.76358 0.40185 0.61665 0.0
O413 O 0.80015 0.39014 0.4042 0.0
C414 C 0.7763 0.43486 0.47154 0.0
O415 O 0.76033 0.42942 0.49132 0.0
N416 N 0.76761 0.37646 0.45306 0.0
C417 C 0.74698 0.34541 0.44277 0.0
C418 C 0.76102 0.34849 0.39144 0.0
C419 C 0.77086 0.36421 0.39643 0.0
C420 C 0.75379 0.37376 0.50259 0.0
C421 C 0.74355 0.35824 0.49944 0.0
H422 H 0.7804 0.36687 0.35159 0.0
H423 H 0.74965 0.38414 0.54111 0.0
H424 H 0.78952 0.40397 0.2707 0.0
H425 H 0.73413 0.40898 0.24256 0.0
H426 H 0.81657 0.40178 0.68944 0.0
H427 H 0.76402 0.33914 0.34581 0.0
H428 H 0.73233 0.35686 0.53808 0.0
C429 C 0.60047 0.74548 0.32208 0.0
C430 C 0.59711 0.74396 0.24473 0.0
N431 N 0.58821 0.75852 0.22203 0.0
N432 N 0.59421 0.76124 0.34807 0.0
C433 C 0.58625 0.76862 0.28577 0.0
H434 H 0.60784 0.73596 0.35572 0.0
Co435 Co 0.59756 0.77131 0.44719 0.0
C436 C 0.61688 0.79578 0.33842 0.0
O437 O 0.62006 0.78275 0.29001 0.0
N438 N 0.60045 0.78077 0.54587 0.0
C439 C 0.61243 0.79304 0.64996 0.0
C440 C 0.61372 0.79132 0.57139 0.0
C441 C 0.59123 0.77631 0.60985 0.0
N442 N 0.59829 0.78358 0.67411 0.0
O443 O 0.57467 0.78246 0.44071 0.0
H444 H 0.62422 0.79668 0.5359 0.0
H445 H 0.58018 0.76709 0.60985 0.0
O446 O 0.60891 0.79273 0.40229 0.0
C447 C 0.56227 0.77141 0.45533 0.0
O448 O 0.56661 0.75471 0.4675 0.0
N449 N 0.61932 0.75923 0.4597 0.0
C450 C 0.64809 0.73816 0.50402 0.0
C451 C 0.65081 0.75375 0.46145 0.0
C452 C 0.63624 0.76433 0.44098 0.0
C453 C 0.61653 0.74408 0.50088 0.0
C454 C 0.63068 0.73335 0.52365 0.0
H455 H 0.63887 0.77675 0.41287 0.0
H456 H 0.60311 0.74043 0.51688 0.0
H457 H 0.58062 0.78188 0.28552 0.0
H458 H 0.60164 0.73341 0.20709 0.0
H459 H 0.62147 0.80034 0.68675 0.0
H460 H 0.66412 0.75806 0.44669 0.0
H461 H 0.62803 0.72141 0.55649 0.0
C462 C 0.25161 0.6004 0.35232 0.0
C463 C 0.25531 0.59822 0.27577 0.0
N464 N 0.23983 0.59734 0.23699 0.0
N465 N 0.23388 0.60108 0.3623 0.0
C466 C 0.22697 0.59917 0.291 0.0
H467 H 0.26125 0.60134 0.39822 0.0
Co468 Co 0.22392 0.60319 0.45928 0.0
C469 C 0.19095 0.62417 0.43764 0.0
O470 O 0.19424 0.63282 0.50176 0.0
N471 N 0.21447 0.60432 0.5597 0.0
C472 C 0.1972 0.59901 0.66168 0.0
C473 C 0.1977 0.60047 0.58281 0.0
C474 C 0.22398 0.60414 0.62557 0.0
N475 N 0.21383 0.60118 0.68823 0.0
O476 O 0.21524 0.57931 0.4526 0.0
H477 H 0.18673 0.59766 0.54462 0.0
H478 H 0.23826 0.60477 0.62775 0.0
O479 O 0.20167 0.61209 0.41418 0.0
C480 C 0.22638 0.56774 0.47557 0.0
O481 O 0.24216 0.57319 0.49796 0.0
N482 N 0.2337 0.62651 0.46576 0.0
C483 C 0.25327 0.6583 0.46373 0.0
C484 C 0.23824 0.65613 0.41701 0.0
C485 C 0.22898 0.64003 0.4173 0.0
C486 C 0.24863 0.62822 0.50958 0.0
C487 C 0.25838 0.64406 0.5107 0.0
H488 H 0.21871 0.63826 0.37485 0.0
H489 H 0.25393 0.61684 0.53926 0.0
H490 H 0.21285 0.59869 0.27923 0.0
H491 H 0.26846 0.59747 0.25071 0.0
H492 H 0.18581 0.59523 0.6961 0.0
H493 H 0.234 0.66656 0.3783 0.0
H494 H 0.27043 0.64471 0.54456 0.0
C495 C 0.40191 0.24743 0.37704 0.0
C496 C 0.40399 0.24831 0.29821 0.0
N497 N 0.40851 0.23201 0.27222 0.0
N498 N 0.40485 0.23058 0.40052 0.0
C499 C 0.40914 0.22166 0.33559 0.0
H500 H 0.39803 0.25827 0.41438 0.0
Co501 Co 0.40226 0.22025 0.49829 0.0
C502 C 0.37676 0.19051 0.45923 0.0
O503 O 0.36678 0.19331 0.52012 0.0
N504 N 0.40029 0.20939 0.59672 0.0
C505 C 0.40269 0.18819 0.68564 0.0
C506 C 0.40105 0.19164 0.60859 0.0
C507 C 0.40213 0.21641 0.66839 0.0
N508 N 0.40345 0.20378 0.72341 0.0
O509 O 0.42511 0.20928 0.48745 0.0
H510 H 0.4017 0.18168 0.56383 0.0
H511 H 0.40408 0.23037 0.68018 0.0
O512 O 0.39063 0.20001 0.44815 0.0
C513 C 0.43683 0.22058 0.50783 0.0
O514 O 0.43146 0.23648 0.52926 0.0
N515 N 0.38069 0.23268 0.51124 0.0
C516 C 0.355 0.25952 0.52035 0.0
C517 C 0.35289 0.24524 0.469 0.0
C518 C 0.36606 0.23201 0.46455 0.0
C519 C 0.38268 0.24639 0.56166 0.0
C520 C 0.36982 0.25954 0.56895 0.0
H521 H 0.36516 0.22227 0.41911 0.0
H522 H 0.39511 0.24815 0.5913 0.0
H523 H 0.41221 0.20763 0.33482 0.0
H524 H 0.40221 0.26001 0.26293 0.0
H525 H 0.40404 0.17516 0.71147 0.0
H526 H 0.34192 0.245 0.42876 0.0
H527 H 0.37214 0.27035 0.60898 0.0
H528 H 0.27018 0.11205 0.74681 0.0
H529 H 0.3092 0.06951 0.74857 0.0
H530 H 0.30587 0.06594 0.60889 0.0
H531 H 0.24138 0.09246 0.6007 0.0
H532 H 0.23634 0.11349 0.55606 0.0
H533 H 0.2414 0.1126 0.65718 0.0
H534 H 0.26659 0.13569 0.63773 0.0
H535 H 0.26161 0.13664 0.53661 0.0
H536 H 0.2838 0.13132 0.56798 0.0
H537 H 0.29926 0.06734 0.46974 0.0
H538 H 0.28926 0.07338 0.33765 0.0
H539 H 0.25416 0.1148 0.42267 0.0
C540 C 0.27786 0.10187 0.7178 0.0
C541 C 0.29007 0.09116 0.75877 0.0
C542 C 0.30002 0.0781 0.71852 0.0
C543 C 0.29813 0.07587 0.63913 0.0
C544 C 0.28619 0.08676 0.6004 0.0
C545 C 0.27616 0.09947 0.63808 0.0
C546 C 0.26456 0.10962 0.5818 0.0
C547 C 0.24474 0.10687 0.60003 0.0
C548 C 0.26944 0.12949 0.581 0.0
C549 C 0.26971 0.10061 0.50684 0.0
C550 C 0.28223 0.08748 0.51922 0.0
C551 C 0.28943 0.07756 0.45921 0.0
C552 C 0.28375 0.08117 0.3843 0.0
C553 C 0.27097 0.09459 0.36973 0.0
C554 C 0.26378 0.10433 0.43213 0.0
H555 H 0.89177 0.30408 0.64869 0.0
H556 H 0.92998 0.26587 0.73635 0.0
H557 H 0.93608 0.25573 0.60451 0.0
H558 H 0.87402 0.27677 0.50136 0.0
H559 H 0.87161 0.2944 0.43204 0.0
H560 H 0.87068 0.29936 0.53322 0.0
H561 H 0.89607 0.32232 0.51694 0.0
H562 H 0.89703 0.31742 0.41561 0.0
H563 H 0.91677 0.31547 0.47367 0.0
H564 H 0.93681 0.24829 0.46471 0.0
H565 H 0.93284 0.2448 0.32466 0.0
H566 H 0.89518 0.28845 0.32436 0.0
C567 C 0.90165 0.29379 0.64021 0.0
C568 C 0.91029 0.28573 0.70369 0.0
C569 C 0.92292 0.2721 0.6895 0.0
C570 C 0.92659 0.26631 0.61449 0.0
C571 C 0.91767 0.27434 0.55364 0.0
C572 C 0.90555 0.28788 0.56538 0.0
C573 C 0.89749 0.29389 0.48964 0.0
C574 C 0.87725 0.29092 0.48907 0.0
C575 C 0.90212 0.31344 0.473 0.0
C576 C 0.90683 0.28145 0.43379 0.0
C577 C 0.91839 0.27028 0.47218 0.0
C578 C 0.92792 0.25706 0.43394 0.0
C579 C 0.92552 0.25511 0.35448 0.0
C580 C 0.91377 0.26637 0.31365 0.0
C581 C 0.90446 0.27985 0.35394 0.0
H582 H 0.74981 0.91676 0.43065 0.0
H583 H 0.69564 0.91362 0.34374 0.0
H584 H 0.68447 0.91224 0.47521 0.0
H585 H 0.74449 0.88626 0.58055 0.0
H586 H 0.75822 0.89807 0.64849 0.0
H587 H 0.7622 0.90046 0.54704 0.0
H588 H 0.75893 0.93465 0.55943 0.0
H589 H 0.75494 0.93237 0.66112 0.0
H590 H 0.73905 0.94385 0.6017 0.0
H591 H 0.67899 0.90763 0.61487 0.0
H592 H 0.6799 0.90162 0.75468 0.0
H593 H 0.73694 0.90913 0.75441 0.0
C594 C 0.73558 0.91597 0.43848 0.0
C595 C 0.7238 0.91509 0.37481 0.0
C596 C 0.70523 0.91419 0.38971 0.0
C597 C 0.69862 0.91345 0.46496 0.0
C598 C 0.71062 0.91389 0.52564 0.0
C599 C 0.7287 0.91534 0.5135 0.0
C600 C 0.73874 0.91481 0.58919 0.0
C601 C 0.75167 0.89896 0.59141 0.0
C602 C 0.74849 0.93247 0.6037 0.0
C603 C 0.72349 0.91233 0.64539 0.0
C604 C 0.70737 0.9119 0.60728 0.0
C605 C 0.69148 0.90832 0.64557 0.0
C606 C 0.69209 0.90491 0.72469 0.0
C607 C 0.7084 0.90529 0.7649 0.0
C608 C 0.72427 0.90931 0.72498 0.0
H609 H 0.10899 0.74719 0.37814 0.0
H610 H 0.07203 0.70698 0.29706 0.0
H611 H 0.06831 0.69611 0.42948 0.0
H612 H 0.1303 0.72032 0.51865 0.0
H613 H 0.13272 0.73786 0.58864 0.0
H614 H 0.13203 0.74314 0.48778 0.0
H615 H 0.10571 0.76465 0.51191 0.0
H616 H 0.10635 0.75947 0.61296 0.0
H617 H 0.08601 0.75659 0.55967 0.0
H618 H 0.06936 0.68871 0.56877 0.0
H619 H 0.07478 0.68544 0.70751 0.0
H620 H 0.11075 0.73055 0.70191 0.0
C621 C 0.09989 0.7363 0.38835 0.0
C622 C 0.09084 0.72792 0.32664 0.0
C623 C 0.0793 0.71348 0.34274 0.0
C624 C 0.07701 0.70727 0.41801 0.0
C625 C 0.08628 0.71565 0.47711 0.0
C626 C 0.09744 0.72989 0.46346 0.0
C627 C 0.10617 0.73613 0.53753 0.0
C628 C 0.12651 0.73424 0.53284 0.0
C629 C 0.10073 0.75535 0.55664 0.0
C630 C 0.09826 0.72307 0.59468 0.0
C631 C 0.08681 0.7114 0.5583 0.0
C632 C 0.07825 0.6978 0.59794 0.0
C633 C 0.08153 0.69597 0.67676 0.0
C634 C 0.09327 0.70766 0.7157 0.0
C635 C 0.10159 0.72152 0.67393 0.0
H636 H 0.30416 0.88545 0.37714 0.0
H637 H 0.26716 0.92467 0.28805 0.0
H638 H 0.25732 0.93144 0.41962 0.0
H639 H 0.27642 0.869 0.52593 0.0
H640 H 0.29401 0.86624 0.59519 0.0
H641 H 0.29886 0.86483 0.49401 0.0
H642 H 0.32261 0.88955 0.50857 0.0
H643 H 0.31783 0.89096 0.60989 0.0
H644 H 0.31647 0.91059 0.55079 0.0
H645 H 0.25012 0.93294 0.55922 0.0
H646 H 0.24666 0.92962 0.69951 0.0
H647 H 0.28888 0.89035 0.70154 0.0
C648 C 0.2942 0.89567 0.38527 0.0
C649 C 0.28636 0.90439 0.32146 0.0
C650 C 0.27317 0.91751 0.33516 0.0
C651 C 0.26757 0.92158 0.41001 0.0
C652 C 0.27535 0.91257 0.4712 0.0
C653 C 0.28848 0.89998 0.45996 0.0
C654 C 0.29428 0.89195 0.53611 0.0
C655 C 0.29067 0.87181 0.53788 0.0
C656 C 0.31397 0.89601 0.55228 0.0
C657 C 0.2822 0.90187 0.59154 0.0
C658 C 0.2714 0.91369 0.55262 0.0
C659 C 0.25859 0.92383 0.59043 0.0
C660 C 0.25665 0.92179 0.67004 0.0
C661 C 0.2675 0.90978 0.71147 0.0
C662 C 0.28058 0.89983 0.67155 0.0
H663 H 0.1111 0.28952 0.64851 0.0
H664 H 0.077 0.24298 0.6443 0.0
H665 H 0.07433 0.24553 0.50354 0.0
H666 H 0.08849 0.31397 0.49404 0.0
H667 H 0.10891 0.32264 0.4547 0.0
H668 H 0.10731 0.31787 0.55592 0.0
H669 H 0.13486 0.29743 0.54578 0.0
H670 H 0.13651 0.30202 0.4445 0.0
H671 H 0.13488 0.27935 0.47749 0.0
H672 H 0.07615 0.25222 0.36372 0.0
H673 H 0.08241 0.26254 0.23243 0.0
H674 H 0.11589 0.3046 0.32401 0.0
C675 C 0.10284 0.28008 0.61796 0.0
C676 C 0.09424 0.26602 0.65747 0.0
C677 C 0.08382 0.25372 0.61526 0.0
C678 C 0.08215 0.25513 0.53532 0.0
C679 C 0.091 0.26891 0.49798 0.0
C680 C 0.10112 0.28121 0.53767 0.0
C681 C 0.10985 0.29427 0.48269 0.0
C682 C 0.10324 0.31332 0.49774 0.0
C683 C 0.13023 0.29319 0.48794 0.0
C684 C 0.10315 0.28725 0.40601 0.0
C685 C 0.09223 0.27267 0.41649 0.0
C686 C 0.08469 0.26362 0.35471 0.0
C687 C 0.08847 0.26952 0.28009 0.0
C688 C 0.09977 0.28433 0.2673 0.0
C689 C 0.10707 0.29336 0.3316 0.0
H690 H 0.71116 0.11257 0.69002 0.0
H691 H 0.75291 0.07278 0.68649 0.0
H692 H 0.74949 0.06969 0.54615 0.0
H693 H 0.68341 0.09274 0.53946 0.0
H694 H 0.67744 0.1139 0.49821 0.0
H695 H 0.68234 0.11233 0.59928 0.0
H696 H 0.70632 0.13675 0.58509 0.0
H697 H 0.70155 0.13841 0.484 0.0
H698 H 0.72391 0.13392 0.51561 0.0
H699 H 0.74233 0.07135 0.40673 0.0
H700 H 0.73249 0.07822 0.27546 0.0
H701 H 0.69585 0.11774 0.36581 0.0
C702 C 0.71937 0.10304 0.65969 0.0
C703 C 0.73232 0.09289 0.69926 0.0
C704 C 0.74304 0.08078 0.65737 0.0
C705 C 0.74112 0.07886 0.57769 0.0
C706 C 0.72843 0.08918 0.54028 0.0
C707 C 0.71774 0.10108 0.57963 0.0
C708 C 0.70577 0.11116 0.52449 0.0
C709 C 0.68607 0.10729 0.54137 0.0
C710 C 0.70963 0.13125 0.52749 0.0
C711 C 0.7115 0.10313 0.44813 0.0
C712 C 0.72451 0.0904 0.45893 0.0
C713 C 0.73218 0.08132 0.39747 0.0
C714 C 0.72657 0.08544 0.32281 0.0
C715 C 0.71347 0.09866 0.30959 0.0
C716 C 0.70575 0.10746 0.37364 0.0
H717 H 0.91093 0.70937 0.69773 0.0
H718 H 0.87858 0.75699 0.70649 0.0
H719 H 0.87177 0.75375 0.56816 0.0
H720 H 0.93059 0.71915 0.51794 0.0
H721 H 0.9314 0.69646 0.48447 0.0
H722 H 0.93205 0.70113 0.58592 0.0
H723 H 0.90428 0.68091 0.60835 0.0
H724 H 0.90442 0.67587 0.50701 0.0
H725 H 0.88464 0.68465 0.5512 0.0
H726 H 0.8691 0.74593 0.42987 0.0
H727 H 0.87258 0.7356 0.29672 0.0
H728 H 0.90875 0.69426 0.37385 0.0
C729 C 0.90219 0.71887 0.67035 0.0
C730 C 0.89514 0.73337 0.71216 0.0
C731 C 0.88408 0.74585 0.67484 0.0
C732 C 0.88006 0.74404 0.59669 0.0
C733 C 0.88739 0.72976 0.55659 0.0
C734 C 0.89834 0.71745 0.59176 0.0
C735 C 0.90573 0.70431 0.53366 0.0
C736 C 0.92615 0.70533 0.53031 0.0
C737 C 0.89939 0.6853 0.55119 0.0
C738 C 0.89736 0.71128 0.46043 0.0
C739 C 0.88661 0.72578 0.47539 0.0
C740 C 0.87755 0.73464 0.4173 0.0
C741 C 0.87976 0.72873 0.34157 0.0
C742 C 0.89117 0.71425 0.32406 0.0
C743 C 0.89985 0.70528 0.38488 0.0
H744 H 0.80297 0.61234 0.20198 0.0
H745 H 0.76311 0.57624 0.29298 0.0
H746 H 0.75309 0.56956 0.16162 0.0
H747 H 0.7766 0.63 0.05032 0.0
H748 H 0.79454 0.63126 0.98174 0.0
H749 H 0.79916 0.63286 0.08301 0.0
H750 H 0.82129 0.60661 0.07167 0.0
H751 H 0.81668 0.60495 0.97032 0.0
H752 H 0.8139 0.58578 0.0313 0.0
H753 H 0.74638 0.56759 0.02188 0.0
H754 H 0.74357 0.57031 0.88122 0.0
H755 H 0.78805 0.60704 0.87745 0.0
C756 C 0.7923 0.60285 0.19425 0.0
C757 C 0.78377 0.59494 0.25843 0.0
C758 C 0.76968 0.58277 0.24544 0.0
C759 C 0.76397 0.57874 0.17076 0.0
C760 C 0.77251 0.5869 0.10912 0.0
C761 C 0.78642 0.59865 0.11975 0.0
C762 C 0.79294 0.60589 0.04316 0.0
C763 C 0.79067 0.62621 0.03936 0.0
C764 C 0.81236 0.60047 0.02825 0.0
C765 C 0.78038 0.59649 0.98812 0.0
C766 C 0.76874 0.58559 0.02766 0.0
C767 C 0.75547 0.57601 0.99023 0.0
C768 C 0.75392 0.5777 0.91035 0.0
C769 C 0.76557 0.58886 0.8683 0.0
C770 C 0.77912 0.59821 0.90788 0.0
H771 H 0.41184 0.80561 0.18933 0.0
H772 H 0.37023 0.76977 0.26713 0.0
H773 H 0.36522 0.76012 0.13397 0.0
H774 H 0.38928 0.81859 0.01176 0.0
H775 H 0.40935 0.81953 0.95511 0.0
H776 H 0.41003 0.82446 0.05651 0.0
H777 H 0.43379 0.8004 0.07931 0.0
H778 H 0.43397 0.79551 0.97802 0.0
H779 H 0.42986 0.77798 0.04638 0.0
H780 H 0.36662 0.75209 0.99551 0.0
H781 H 0.37297 0.74781 0.85728 0.0
H782 H 0.41193 0.79021 0.86554 0.0
C783 C 0.40144 0.79599 0.17844 0.0
C784 C 0.39163 0.7883 0.23947 0.0
C785 C 0.37826 0.77559 0.22212 0.0
C786 C 0.37517 0.77012 0.14638 0.0
C787 C 0.38534 0.77765 0.08807 0.0
C788 C 0.39804 0.79048 0.10283 0.0
C789 C 0.40737 0.79612 0.02941 0.0
C790 C 0.40379 0.81585 0.01212 0.0
C791 C 0.42743 0.79226 0.03356 0.0
C792 C 0.39823 0.7841 0.97156 0.0
C793 C 0.38558 0.77355 1.00687 0.0
C794 C 0.37628 0.76046 0.9669 0.0
C795 C 0.38004 0.75803 0.88876 0.0
C796 C 0.39285 0.76873 0.85127 0.0
C797 C 0.40188 0.78208 0.89297 0.0
H798 H 0.19847 0.39394 0.16135 0.0
H799 H 0.24266 0.42481 0.24992 0.0
H800 H 0.25305 0.43042 0.11778 0.0
H801 H 0.22232 0.3729 0.0121 0.0
H802 H 0.20497 0.37351 0.94118 0.0
H803 H 0.19934 0.37286 0.04173 0.0
H804 H 0.18073 0.4012 0.02955 0.0
H805 H 0.1858 0.40314 0.92866 0.0
H806 H 0.19066 0.42129 0.99259 0.0
H807 H 0.2593 0.43195 0.97847 0.0
H808 H 0.26186 0.4285 0.83849 0.0
H809 H 0.21413 0.39601 0.83641 0.0
C810 C 0.21019 0.40205 0.15251 0.0
C811 C 0.21983 0.40888 0.21575 0.0
C812 C 0.23524 0.41925 0.20234 0.0
C813 C 0.24116 0.42263 0.1275 0.0
C814 C 0.23153 0.41552 0.06648 0.0
C815 C 0.21641 0.40541 0.07784 0.0
C816 C 0.20906 0.39876 1.0018 0.0
C817 C 0.2089 0.3783 0.99907 0.0
C818 C 0.19046 0.40654 0.98732 0.0
C819 C 0.22263 0.40642 0.94625 0.0
C820 C 0.23532 0.41621 0.98511 0.0
C821 C 0.24946 0.4243 0.94731 0.0
C822 C 0.25087 0.42214 0.86771 0.0
C823 C 0.23832 0.41182 0.82632 0.0
C824 C 0.22384 0.40409 0.86625 0.0
H825 H 0.61561 0.2288 0.21355 0.0
H826 H 0.57301 0.18983 0.21691 0.0
H827 H 0.56925 0.19317 0.07738 0.0
H828 H 0.59601 0.2577 0.06901 0.0
H829 H 0.61693 0.26267 0.0231 0.0
H830 H 0.61629 0.25751 0.12416 0.0
H831 H 0.63914 0.23215 0.1027 0.0
H832 H 0.63985 0.23728 1.00166 0.0
H833 H 0.63448 0.21506 0.03273 0.0
H834 H 0.57031 0.19995 0.93824 0.0
H835 H 0.57591 0.21021 0.80609 0.0
H836 H 0.61765 0.24512 0.88932 0.0
C837 C 0.6054 0.22112 0.18489 0.0
C838 C 0.59471 0.20893 0.2263 0.0
C839 C 0.58159 0.19899 0.18651 0.0
C840 C 0.57925 0.20089 0.1072 0.0
C841 C 0.59011 0.21281 0.06803 0.0
C842 C 0.60291 0.22281 0.10521 0.0
C843 C 0.61296 0.23443 0.04849 0.0
C844 C 0.61039 0.25425 0.06733 0.0
C845 C 0.63278 0.22942 0.04629 0.0
C846 C 0.60373 0.2294 0.97396 0.0
C847 C 0.59063 0.21686 0.98687 0.0
C848 C 0.58051 0.20979 0.92731 0.0
C849 C 0.58386 0.21562 0.85235 0.0
C850 C 0.59723 0.22844 0.83724 0.0
C851 C 0.6072 0.23548 0.89919 0.0
H852 H 0.78882 0.39374 0.1365 0.0
H853 H 0.74136 0.42656 0.13567 0.0
H854 H 0.74324 0.42911 0.99492 0.0
H855 H 0.81183 0.41765 0.97639 0.0
H856 H 0.82141 0.39711 0.94241 0.0
H857 H 0.81648 0.40004 0.04301 0.0
H858 H 0.79685 0.37045 0.03454 0.0
H859 H 0.80229 0.36901 0.93393 0.0
H860 H 0.77938 0.36962 0.96425 0.0
H861 H 0.74915 0.42687 0.85423 0.0
H862 H 0.75946 0.4208 0.72218 0.0
H863 H 0.80334 0.38977 0.81224 0.0
C864 C 0.77903 0.40171 0.10678 0.0
C865 C 0.76486 0.40984 0.14726 0.0
C866 C 0.75215 0.41996 0.10599 0.0
C867 C 0.75317 0.42159 0.02598 0.0
C868 C 0.76704 0.41312 0.98771 0.0
C869 C 0.77985 0.4035 0.02654 0.0
C870 C 0.79308 0.39534 0.97087 0.0
C871 C 0.81181 0.40296 0.98395 0.0
C872 C 0.79291 0.3749 0.97624 0.0
C873 C 0.78552 0.40162 0.8949 0.0
C874 C 0.77053 0.41192 0.90607 0.0
C875 C 0.76092 0.41888 0.84472 0.0
C876 C 0.7668 0.41524 0.76987 0.0
C877 C 0.78216 0.40474 0.75688 0.0
C878 C 0.79166 0.39797 0.82049 0.0
H879 H 0.61401 0.76472 0.11846 0.0
H880 H 0.55697 0.76426 0.14936 0.0
H881 H 0.55293 0.77109 0.01044 0.0
H882 H 0.61504 0.80157 0.98214 0.0
H883 H 0.63313 0.79221 0.92735 0.0
H884 H 0.63125 0.78758 0.02856 0.0
H885 H 0.63155 0.75378 1.00045 0.0
H886 H 0.63343 0.75818 0.89912 0.0
H887 H 0.61551 0.74454 0.93461 0.0
H888 H 0.55562 0.77557 0.86464 0.0
H889 H 0.56464 0.7804 0.72894 0.0
H890 H 0.61999 0.77961 0.79721 0.0
C891 C 0.60071 0.76623 0.09567 0.0
C892 C 0.58575 0.76395 0.14363 0.0
C893 C 0.56851 0.76606 0.1129 0.0
C894 C 0.56615 0.76985 0.03431 0.0
C895 C 0.58122 0.77178 0.98795 0.0
C896 C 0.59817 0.77031 0.01799 0.0
C897 C 0.61221 0.7731 0.95673 0.0
C898 C 0.62357 0.7896 0.97476 0.0
C899 C 0.62386 0.7564 0.94718 0.0
C900 C 0.60058 0.77607 0.88698 0.0
C901 C 0.58274 0.77512 0.90577 0.0
C902 C 0.56956 0.77657 0.84966 0.0
C903 C 0.57477 0.7792 0.77276 0.0
C904 C 0.59298 0.78059 0.75279 0.0
C905 C 0.60597 0.77898 0.81098 0.0
H906 H 0.21215 0.60785 0.14558 0.0
H907 H 0.26314 0.58075 0.14211 0.0
H908 H 0.26147 0.57829 1.00157 0.0
H909 H 0.1922 0.58124 0.9854 0.0
H910 H 0.18007 0.60035 0.95148 0.0
H911 H 0.18528 0.59815 0.05206 0.0
H912 H 0.20088 0.62982 0.04461 0.0
H913 H 0.19542 0.63077 0.94401 0.0
H914 H 0.21819 0.63307 0.97464 0.0
H915 H 0.25546 0.58021 0.86177 0.0
H916 H 0.24454 0.58515 0.73005 0.0
H917 H 0.197 0.61019 0.82114 0.0
C918 C 0.22281 0.60114 0.11538 0.0
C919 C 0.2379 0.5947 0.1552 0.0
C920 C 0.25163 0.58615 0.11316 0.0
C921 C 0.25076 0.58455 0.03317 0.0
C922 C 0.23596 0.59138 0.99563 0.0
C923 C 0.22211 0.59931 0.03508 0.0
C924 C 0.20791 0.60579 0.9799 0.0
C925 C 0.19032 0.59581 0.99299 0.0
C926 C 0.20545 0.62606 0.98616 0.0
C927 C 0.21618 0.60061 0.90352 0.0
C928 C 0.23234 0.59226 0.91418 0.0
C929 C 0.24278 0.58666 0.85261 0.0
C930 C 0.23653 0.58966 0.778 0.0
C931 C 0.21998 0.59814 0.76543 0.0
C932 C 0.20963 0.60356 0.82922 0.0
H933 H 0.3943 0.24675 0.1421 0.0
H934 H 0.42852 0.2042 0.22272 0.0
H935 H 0.43151 0.1931 0.09019 0.0
H936 H 0.37128 0.22138 1.00129 0.0
H937 H 0.37005 0.23903 0.9315 0.0
H938 H 0.3711 0.24427 0.03241 0.0
H939 H 0.39882 0.26396 1.00851 0.0
H940 H 0.39783 0.25882 0.9074 0.0
H941 H 0.41792 0.25458 0.96065 0.0
H942 H 0.4299 0.18571 0.95076 0.0
H943 H 0.42417 0.18273 0.81201 0.0
H944 H 0.39143 0.23022 0.81819 0.0
C945 C 0.40267 0.23528 0.1318 0.0
C946 C 0.41112 0.22633 0.19345 0.0
C947 C 0.42169 0.21117 0.17713 0.0
C948 C 0.42358 0.20481 0.10178 0.0
C949 C 0.4149 0.21377 0.04276 0.0
C950 C 0.40471 0.22873 0.05658 0.0
C951 C 0.39642 0.23553 0.98259 0.0
C952 C 0.376 0.23501 0.98725 0.0
C953 C 0.40315 0.25434 0.96368 0.0
C954 C 0.40343 0.22196 0.92528 0.0
C955 C 0.41407 0.20956 0.96151 0.0
C956 C 0.42165 0.19537 0.9217 0.0
C957 C 0.41821 0.19373 0.84289 0.0
C958 C 0.40729 0.20619 0.80413 0.0
C959 C 0.39997 0.2206 0.84605 0.0
H960 H 0.30738 0.12903 0.23366 0.0
H961 H 0.34197 0.13421 0.03538 0.0
H962 H 0.36439 0.14943 0.11587 0.0
H963 H 0.31569 0.1719 0.30529 0.0
H964 H 0.31473 0.16582 0.40538 0.0
H965 H 0.30252 0.15311 0.33543 0.0
H966 H 0.31826 0.12434 0.38035 0.0
H967 H 0.33054 0.13696 0.45068 0.0
H968 H 0.34221 0.12342 0.38144 0.0
H969 H 0.38221 0.16538 0.2149 0.0
H970 H 0.39344 0.18317 0.32294 0.0
H971 H 0.34651 0.16966 0.45628 0.0
C972 C 0.31988 0.13299 0.20784 0.0
C973 C 0.32315 0.13024 0.12868 0.0
C974 C 0.33934 0.13611 0.09606 0.0
C975 C 0.35215 0.14469 0.14138 0.0
C976 C 0.34845 0.14746 0.219 0.0
C977 C 0.33267 0.14193 0.25198 0.0
C978 C 0.33126 0.14819 0.33473 0.0
C979 C 0.3151 0.16049 0.3458 0.0
C980 C 0.33053 0.13228 0.39006 0.0
C981 C 0.34861 0.15835 0.34267 0.0
C982 C 0.35843 0.15745 0.27558 0.0
C983 C 0.37467 0.16614 0.26782 0.0
C984 C 0.38092 0.1763 0.32967 0.0
C985 C 0.37085 0.178 0.39821 0.0
C986 C 0.35459 0.16861 0.40493 0.0
H987 H 0.80863 0.37095 0.26898 0.0
H988 H 0.84267 0.3668 0.46867 0.0
H989 H 0.86568 0.35185 0.38974 0.0
H990 H 0.81695 0.32831 0.20251 0.0
H991 H 0.8163 0.33367 0.10161 0.0
H992 H 0.80406 0.34701 0.16929 0.0
H993 H 0.82059 0.3756 0.12474 0.0
H994 H 0.83181 0.36221 0.05336 0.0
H995 H 0.84449 0.37565 0.11954 0.0
H996 H 0.88401 0.33566 0.29128 0.0
H997 H 0.89517 0.31702 0.18534 0.0
H998 H 0.84779 0.32892 0.0529 0.0
C999 C 0.82119 0.36742 0.29517 0.0
C1000 C 0.82419 0.37038 0.37417 0.0
C1001 C 0.84039 0.3649 0.40774 0.0
C1002 C 0.85349 0.35644 0.36338 0.0
C1003 C 0.85002 0.3533 0.28585 0.0
C1004 C 0.8342 0.35848 0.25215 0.0
C1005 C 0.83287 0.35162 0.17042 0.0
C1006 C 0.81659 0.33943 0.16044 0.0
C1007 C 0.83244 0.36719 0.11347 0.0
C1008 C 0.85013 0.34132 0.1641 0.0
C1009 C 0.86003 0.34287 0.23061 0.0
C1010 C 0.87636 0.33435 0.23896 0.0
C1011 C 0.88255 0.32367 0.17842 0.0
C1012 C 0.87225 0.32117 0.11109 0.0
C1013 C 0.85598 0.33046 0.10359 0.0
H1014 H 0.61953 0.81213 0.19972 0.0
H1015 H 0.6332 0.81828 0.44018 0.0
H1016 H 0.65116 0.84488 0.40838 0.0
H1017 H 0.66019 0.82358 0.12145 0.0
H1018 H 0.65152 0.83588 0.04093 0.0
H1019 H 0.63849 0.81844 0.08364 0.0
H1020 H 0.61252 0.84041 0.10603 0.0
H1021 H 0.62542 0.85798 0.06292 0.0
H1022 H 0.61645 0.86077 0.15829 0.0
H1023 H 0.67159 0.86731 0.34668 0.0
H1024 H 0.68926 0.8871 0.26285 0.0
H1025 H 0.65966 0.86882 0.06449 0.0
C1026 C 0.62597 0.81937 0.24583 0.0
C1027 C 0.62501 0.81325 0.32242 0.0
C1028 C 0.63363 0.8229 0.38136 0.0
C1029 C 0.64392 0.83796 0.3637 0.0
C1030 C 0.64501 0.84338 0.28716 0.0
C1031 C 0.63587 0.83467 0.22945 0.0
C1032 C 0.63952 0.84298 0.15168 0.0
C1033 C 0.64794 0.82941 0.09619 0.0
C1034 C 0.62246 0.85102 0.11775 0.0
C1035 C 0.65265 0.85734 0.17416 0.0
C1036 C 0.65577 0.85724 0.25253 0.0
C1037 C 0.66883 0.86792 0.28572 0.0
C1038 C 0.67883 0.87908 0.23774 0.0
C1039 C 0.67543 0.87981 0.15787 0.0
C1040 C 0.66209 0.8689 0.12584 0.0
H1041 H 0.19125 0.62753 0.28102 0.0
H1042 H 0.15867 0.63636 0.48317 0.0
H1043 H 0.13597 0.65117 0.40308 0.0
H1044 H 0.18455 0.669 0.20137 0.0
H1045 H 0.18401 0.66175 0.10257 0.0
H1046 H 0.19607 0.64902 0.17267 0.0
H1047 H 0.17759 0.62077 0.13942 0.0
H1048 H 0.16626 0.6335 0.06644 0.0
H1049 H 0.15369 0.62197 0.13926 0.0
H1050 H 0.11833 0.66729 0.30468 0.0
H1051 H 0.10749 0.68515 0.19654 0.0
H1052 H 0.15235 0.6678 0.05812 0.0
C1053 C 0.17905 0.63206 0.30774 0.0
C1054 C 0.17647 0.63055 0.38788 0.0
C1055 C 0.16072 0.63723 0.42164 0.0
C1056 C 0.14776 0.64561 0.37662 0.0
C1057 C 0.15088 0.64735 0.29803 0.0
C1058 C 0.16613 0.64081 0.26378 0.0
C1059 C 0.16709 0.64614 0.17984 0.0
C1060 C 0.18392 0.65714 0.16319 0.0
C1061 C 0.16608 0.62962 0.12803 0.0
C1062 C 0.15038 0.65731 0.17311 0.0
C1063 C 0.14102 0.65742 0.24153 0.0
C1064 C 0.12547 0.66721 0.25065 0.0
C1065 C 0.11946 0.67742 0.18873 0.0
C1066 C 0.1291 0.67807 0.11871 0.0
C1067 C 0.14462 0.66758 0.11063 0.0
H1068 H 0.36872 0.80828 0.71623 0.0
H1069 H 0.3708 0.84962 0.5431 0.0
H1070 H 0.35587 0.87044 0.63286 0.0
H1071 H 0.32561 0.81815 0.77759 0.0
H1072 H 0.32943 0.81299 0.87735 0.0
H1073 H 0.34246 0.80223 0.80401 0.0
H1074 H 0.37139 0.81321 0.86893 0.0
H1075 H 0.35846 0.82399 0.94279 0.0
H1076 H 0.37436 0.83662 0.88765 0.0
H1077 H 0.33961 0.88624 0.73945 0.0
H1078 H 0.32081 0.8951 0.84908 0.0
H1079 H 0.32742 0.8426 0.9489 0.0
C1080 C 0.36657 0.82189 0.69818 0.0
C1081 C 0.37131 0.82754 0.62354 0.0
C1082 C 0.36748 0.84517 0.60052 0.0
C1083 C 0.35907 0.85707 0.65116 0.0
C1084 C 0.35441 0.85103 0.72424 0.0
C1085 C 0.35789 0.8338 0.74747 0.0
C1086 C 0.34984 0.83004 0.82565 0.0
C1087 C 0.33601 0.81497 0.8208 0.0
C1088 C 0.36438 0.82571 0.88472 0.0
C1089 C 0.34111 0.8478 0.84255 0.0
C1090 C 0.34417 0.85981 0.78391 0.0
C1091 C 0.33712 0.87694 0.78565 0.0
C1092 C 0.32635 0.88182 0.84811 0.0
C1093 C 0.32236 0.86949 0.90726 0.0
C1094 C 0.33019 0.85238 0.90482 0.0
H1095 H 0.15659 0.33303 0.91888 0.0
H1096 H 0.11054 0.31777 0.78399 0.0
H1097 H 0.12196 0.33507 0.67466 0.0
H1098 H 0.15895 0.37902 0.83825 0.0
H1099 H 0.18287 0.37947 0.8389 0.0
H1100 H 0.17097 0.36704 0.91127 0.0
H1101 H 0.18799 0.33842 0.87549 0.0
H1102 H 0.2005 0.35066 0.8051 0.0
H1103 H 0.18836 0.33103 0.77684 0.0
H1104 H 0.14066 0.35004 0.57417 0.0
H1105 H 0.16358 0.3649 0.49469 0.0
H1106 H 0.19598 0.37317 0.69744 0.0
C1107 C 0.1487 0.33361 0.86696 0.0
C1108 C 0.13284 0.32361 0.85963 0.0
C1109 C 0.1229 0.32489 0.79071 0.0
C1110 C 0.12924 0.33481 0.72825 0.0
C1111 C 0.14527 0.3439 0.73634 0.0
C1112 C 0.15463 0.3438 0.8046 0.0
C1113 C 0.17166 0.35448 0.79762 0.0
C1114 C 0.17106 0.37098 0.84974 0.0
C1115 C 0.18809 0.34295 0.81474 0.0
C1116 C 0.17087 0.35977 0.71374 0.0
C1117 C 0.15549 0.35357 0.67946 0.0
C1118 C 0.15252 0.35539 0.6008 0.0
C1119 C 0.1656 0.36376 0.55611 0.0
C1120 C 0.18131 0.37042 0.59037 0.0
C1121 C 0.18384 0.36861 0.67033 0.0
H1122 H 0.67201 0.16032 0.93993 0.0
H1123 H 0.67985 0.10834 0.83606 0.0
H1124 H 0.66255 0.11774 0.72336 0.0
H1125 H 0.62548 0.16583 0.86845 0.0
H1126 H 0.6283 0.18943 0.85458 0.0
H1127 H 0.64035 0.17821 0.92971 0.0
H1128 H 0.66997 0.19022 0.87417 0.0
H1129 H 0.65803 0.20133 0.79865 0.0
H1130 H 0.67551 0.18583 0.77508 0.0
H1131 H 0.6485 0.13426 0.61397 0.0
H1132 H 0.63457 0.15546 0.52327 0.0
H1133 H 0.63268 0.19541 0.70309 0.0
C1134 C 0.6698 0.15077 0.89425 0.0
C1135 C 0.67779 0.13373 0.89608 0.0
C1136 C 0.67442 0.12164 0.83518 0.0
C1137 C 0.66445 0.12681 0.77101 0.0
C1138 C 0.65739 0.14393 0.76962 0.0
C1139 C 0.65948 0.15557 0.83053 0.0
C1140 C 0.65071 0.17332 0.81386 0.0
C1141 C 0.63529 0.1769 0.86998 0.0
C1142 C 0.66437 0.18857 0.81552 0.0
C1143 C 0.64393 0.16999 0.73312 0.0
C1144 C 0.64803 0.15299 0.70846 0.0
C1145 C 0.64473 0.14743 0.63327 0.0
C1146 C 0.63693 0.15954 0.58211 0.0
C1147 C 0.63228 0.17685 0.60684 0.0
C1148 C 0.63567 0.18205 0.68348 0.0
H1149 H 0.82738 0.65501 0.61834 0.0
H1150 H 0.81826 0.6051 0.73735 0.0
H1151 H 0.8353 0.61625 0.8483 0.0
H1152 H 0.87329 0.66179 0.69092 0.0
H1153 H 0.87036 0.68555 0.69751 0.0
H1154 H 0.85848 0.67301 0.62563 0.0
H1155 H 0.82879 0.68595 0.67635 0.0
H1156 H 0.84057 0.69827 0.74894 0.0
H1157 H 0.82305 0.68317 0.77626 0.0
H1158 H 0.84984 0.63436 0.95275 0.0
H1159 H 0.8641 0.65683 0.0369 0.0
H1160 H 0.86592 0.6939 0.84657 0.0
C1161 C 0.82925 0.64625 0.66701 0.0
C1162 C 0.82115 0.62925 0.66943 0.0
C1163 C 0.82399 0.61827 0.73443 0.0
C1164 C 0.83374 0.62447 0.79775 0.0
C1165 C 0.84098 0.64152 0.79454 0.0
C1166 C 0.8392 0.65211 0.73018 0.0
C1167 C 0.84793 0.6701 0.74212 0.0
C1168 C 0.86345 0.67276 0.68573 0.0
C1169 C 0.83427 0.68526 0.73555 0.0
C1170 C 0.85454 0.6681 0.82383 0.0
C1171 C 0.85029 0.65155 0.85326 0.0
C1172 C 0.85364 0.64718 0.92976 0.0
C1173 C 0.86164 0.66002 0.97716 0.0
C1174 C 0.86643 0.67688 0.94759 0.0
C1175 C 0.86291 0.68089 0.86986 0.0
H1176 H 0.253 0.03578 0.07567 0.0
H1177 H 0.30903 0.04939 0.07353 0.0
H1178 H 0.31663 0.01732 0.0625 0.0
H1179 H 0.25701 0.99544 0.18746 0.0
H1180 H 0.23975 0.98427 0.13418 0.0
H1181 H 0.23924 0.0081 0.14476 0.0
H1182 H 0.23793 0.01147 0.99656 0.0
H1183 H 0.23862 0.98767 0.98549 0.0
H1184 H 0.25497 0.00135 0.93812 0.0
H1185 H 0.31754 0.98302 0.04394 0.0
H1186 H 0.31165 0.95062 0.02977 0.0
H1187 H 0.25503 0.9609 0.04652 0.0
C1188 C 0.2669 0.03208 0.07358 0.0
C1189 C 0.28042 0.04509 0.07545 0.0
C1190 C 0.29845 0.03962 0.07272 0.0
C1191 C 0.30287 0.02145 0.06605 0.0
C1192 C 0.28912 0.00896 0.06283 0.0
C1193 C 0.2715 0.01414 0.06742 0.0
C1194 C 0.25906 0.99841 0.06232 0.0
C1195 C 0.24813 0.99644 0.13661 0.0
C1196 C 0.24694 0.99982 0.9914 0.0
C1197 C 0.27235 0.98348 0.05356 0.0
C1198 C 0.28964 0.98968 0.05357 0.0
C1199 C 0.30403 0.97808 0.04444 0.0
C1200 C 0.30058 0.95971 0.03608 0.0
C1201 C 0.2829 0.9532 0.03742 0.0
C1202 C 0.26872 0.96537 0.04588 0.0
H1203 H 0.04151 0.25497 0.99954 0.0
H1204 H 0.05355 0.31094 0.96803 0.0
H1205 H 0.02132 0.31794 0.97579 0.0
H1206 H 0.0025 0.25421 0.88453 0.0
H1207 H 0.99119 0.23844 0.94533 0.0
H1208 H 0.01508 0.23835 0.93986 0.0
H1209 H 0.01688 0.24194 0.08792 0.0
H1210 H 0.99298 0.24214 0.09381 0.0
H1211 H 0.00563 0.26031 0.13365 0.0
H1212 H 0.98693 0.31834 0.9885 0.0
H1213 H 0.95455 0.31179 0.99532 0.0
H1214 H 0.96641 0.25552 0.01442 0.0
C1215 C 0.03745 0.26875 0.99455 0.0
C1216 C 0.05007 0.28242 0.98355 0.0
C1217 C 0.0441 0.30024 0.9765 0.0
C1218 C 0.02584 0.30433 0.98112 0.0
C1219 C 0.01375 0.29045 0.99238 0.0
C1220 C 0.01941 0.27301 0.99841 0.0
C1221 C 0.00399 0.26032 1.00774 0.0
C1222 C 0.00314 0.24706 0.94034 0.0
C1223 C 0.00493 0.25061 0.0854 0.0
C1224 C 0.98865 0.27326 1.00568 0.0
C1225 C 0.9944 0.29062 0.99763 0.0
C1226 C 0.98234 0.30476 0.99466 0.0
C1227 C 0.964 0.30096 0.99887 0.0
C1228 C 0.95797 0.28316 1.005 0.0
C1229 C 0.97056 0.26927 1.00917 0.0
H1230 H 0.74136 0.96679 0.08242 0.0
H1231 H 0.68685 0.9534 0.02631 0.0
H1232 H 0.67983 0.98567 0.01411 0.0
H1233 H 0.73151 0.00639 0.19474 0.0
H1234 H 0.75115 0.0177 0.16104 0.0
H1235 H 0.75103 0.99381 0.16884 0.0
H1236 H 0.76011 0.99125 0.02537 0.0
H1237 H 0.76011 0.01509 0.01692 0.0
H1238 H 0.74662 0.00186 0.95317 0.0
H1239 H 0.68007 0.0203 0.99937 0.0
H1240 H 0.68701 0.05262 0.99165 0.0
H1241 H 0.74129 0.04147 0.06047 0.0
C1242 C 0.72787 0.97058 0.0681 0.0
C1243 C 0.71465 0.95764 0.05487 0.0
C1244 C 0.69714 0.96317 0.037 0.0
C1245 C 0.6931 0.98144 0.0297 0.0
C1246 C 0.70667 0.99389 0.0416 0.0
C1247 C 0.72364 0.98855 0.06146 0.0
C1248 C 0.73609 0.00415 0.0705 0.0
C1249 C 0.74283 0.00559 0.15372 0.0
C1250 C 0.75164 0.00301 0.01305 0.0
C1251 C 0.72367 0.01923 0.05108 0.0
C1252 C 0.70672 0.01324 0.0346 0.0
C1253 C 0.69328 0.02506 0.01292 0.0
C1254 C 0.69734 0.04338 1.00846 0.0
C1255 C 0.71468 0.04961 0.02563 0.0
C1256 C 0.72786 0.03726 0.04727 0.0
H1257 H 0.96088 0.74298 0.04031 0.0
H1258 H 0.94936 0.68703 1.00467 0.0
H1259 H 0.98182 0.68058 1.0041 0.0
H1260 H 0.99858 0.74517 0.91712 0.0
H1261 H 0.01015 0.76084 0.97763 0.0
H1262 H 0.98623 0.76045 0.97668 0.0
H1263 H 0.98595 0.75603 0.12449 0.0
H1264 H 0.00988 0.75628 0.12585 0.0
H1265 H 0.99797 0.73765 0.16582 0.0
H1266 H 0.0164 0.68083 0.01059 0.0
H1267 H 0.04868 0.68804 0.01284 0.0
H1268 H 0.03587 0.74393 0.04037 0.0
C1269 C 0.96508 0.72931 0.03259 0.0
C1270 C 0.95259 0.71547 0.023 0.0
C1271 C 0.95873 0.69783 0.01209 0.0
C1272 C 0.97712 0.69407 0.01204 0.0
C1273 C 0.98908 0.70812 0.02242 0.0
C1274 C 0.98318 0.7254 0.03178 0.0
C1275 C 0.9984 0.73836 0.03974 0.0
C1276 C 0.99833 0.752 0.97386 0.0
C1277 C 0.99802 0.74762 0.11867 0.0
C1278 C 0.01394 0.72576 0.03321 0.0
C1279 C 0.00846 0.70833 0.02405 0.0
C1280 C 0.02076 0.69447 0.0175 0.0
C1281 C 0.03904 0.69865 0.01917 0.0
C1282 C 0.04474 0.71654 0.02637 0.0
C1283 C 0.03195 0.73013 0.03417 0.0
H1284 H 0.75326 0.46232 0.49189 0.0
H1285 H 0.8095 0.45071 0.46852 0.0
H1286 H 0.81637 0.48274 0.48794 0.0
H1287 H 0.7539 0.50384 0.39106 0.0
H1288 H 0.73742 0.51383 0.45279 0.0
H1289 H 0.7374 0.49014 0.43741 0.0
H1290 H 0.73913 0.48509 0.58462 0.0
H1291 H 0.73928 0.50877 0.60043 0.0
H1292 H 0.75691 0.49519 0.63868 0.0
H1293 H 0.81661 0.51674 0.51436 0.0
H1294 H 0.81006 0.54881 0.53501 0.0
H1295 H 0.75364 0.53689 0.53711 0.0
C1296 C 0.76706 0.46644 0.49072 0.0
C1297 C 0.78086 0.45399 0.47892 0.0
C1298 C 0.7987 0.46003 0.47725 0.0
C1299 C 0.80272 0.47818 0.48856 0.0
C1300 C 0.78872 0.49008 0.50091 0.0
C1301 C 0.77124 0.48437 0.50125 0.0
C1302 C 0.75848 0.4996 0.51422 0.0
C1303 C 0.74608 0.50199 0.44473 0.0
C1304 C 0.74783 0.497 0.58893 0.0
C1305 C 0.77142 0.51488 0.52127 0.0
C1306 C 0.78884 0.50925 0.51413 0.0
C1307 C 0.803 0.52124 0.51969 0.0
C1308 C 0.79918 0.5394 0.53175 0.0
C1309 C 0.78135 0.54536 0.53734 0.0
C1310 C 0.76742 0.53282 0.53256 0.0
H1311 H 0.45944 0.75293 0.51528 0.0
H1312 H 0.45076 0.80962 0.54305 0.0
H1313 H 0.48305 0.81493 0.5225 0.0
H1314 H 0.50157 0.751 0.61234 0.0
H1315 H 0.51025 0.73427 0.54813 0.0
H1316 H 0.48672 0.73543 0.56653 0.0
H1317 H 0.48084 0.73801 0.42013 0.0
H1318 H 0.50436 0.73706 0.40134 0.0
H1319 H 0.49144 0.75552 0.36619 0.0
H1320 H 0.5169 0.81352 0.49356 0.0
H1321 H 0.54843 0.8054 0.46902 0.0
H1322 H 0.5335 0.74967 0.46201 0.0
C1323 C 0.46426 0.7665 0.51747 0.0
C1324 C 0.45258 0.78087 0.53067 0.0
C1325 C 0.45951 0.7984 0.53341 0.0
C1326 C 0.4778 0.80152 0.5214 0.0
C1327 C 0.48891 0.78697 0.50721 0.0
C1328 C 0.48232 0.7698 0.50602 0.0
C1329 C 0.49676 0.75632 0.49014 0.0
C1330 C 0.49895 0.74351 0.55836 0.0
C1331 C 0.49313 0.74614 0.41499 0.0
C1332 C 0.51261 0.76851 0.48218 0.0
C1333 C 0.50795 0.78616 0.49174 0.0
C1334 C 0.52063 0.79971 0.48626 0.0
C1335 C 0.53848 0.795 0.47193 0.0
C1336 C 0.54344 0.77691 0.46373 0.0
C1337 C 0.53021 0.76363 0.46826 0.0
H1338 H 0.24888 0.46525 0.5237 0.0
H1339 H 0.19262 0.4532 0.50818 0.0
H1340 H 0.18607 0.48551 0.49633 0.0
H1341 H 0.24432 0.50565 0.63625 0.0
H1342 H 0.26265 0.51636 0.58806 0.0
H1343 H 0.26235 0.49251 0.59804 0.0
H1344 H 0.26579 0.48917 0.45041 0.0
H1345 H 0.26592 0.51299 0.43987 0.0
H1346 H 0.24994 0.49978 0.38779 0.0
H1347 H 0.18642 0.51969 0.47763 0.0
H1348 H 0.19335 0.55186 0.46481 0.0
H1349 H 0.24935 0.54025 0.49627 0.0
C1350 C 0.23514 0.46936 0.51838 0.0
C1351 C 0.22125 0.45675 0.51658 0.0
C1352 C 0.20345 0.46269 0.51009 0.0
C1353 C 0.19964 0.48099 0.50297 0.0
C1354 C 0.21378 0.49308 0.5034 0.0
C1355 C 0.23114 0.48742 0.51203 0.0
C1356 C 0.24408 0.5028 0.51072 0.0
C1357 C 0.25392 0.50442 0.58786 0.0
C1358 C 0.2572 0.50107 0.44317 0.0
C1359 C 0.23137 0.51809 0.49891 0.0
C1360 C 0.21394 0.51235 0.4945 0.0
C1361 C 0.20003 0.52429 0.48166 0.0
C1362 C 0.20408 0.54251 0.47407 0.0
C1363 C 0.22188 0.54858 0.47981 0.0
C1364 C 0.23559 0.5361 0.49213 0.0
H1365 H 0.53874 0.24644 0.53798 0.0
H1366 H 0.55218 0.19034 0.54186 0.0
H1367 H 0.52011 0.18274 0.53243 0.0
H1368 H 0.49878 0.24322 0.65176 0.0
H1369 H 0.48752 0.26019 0.59729 0.0
H1370 H 0.51136 0.2607 0.60621 0.0
H1371 H 0.51429 0.26108 0.45768 0.0
H1372 H 0.49047 0.26037 0.4483 0.0
H1373 H 0.50397 0.24369 0.40189 0.0
H1374 H 0.48583 0.1818 0.51596 0.0
H1375 H 0.45339 0.18767 0.50493 0.0
H1376 H 0.46383 0.24439 0.51436 0.0
C1377 C 0.535 0.23252 0.53737 0.0
C1378 C 0.54795 0.21897 0.54056 0.0
C1379 C 0.54244 0.20094 0.53992 0.0
C1380 C 0.52428 0.19652 0.53415 0.0
C1381 C 0.51185 0.21029 0.52969 0.0
C1382 C 0.51707 0.22793 0.53214 0.0
C1383 C 0.50137 0.24038 0.5267 0.0
C1384 C 0.49966 0.25178 0.59985 0.0
C1385 C 0.50261 0.25206 0.45434 0.0
C1386 C 0.48641 0.22707 0.52046 0.0
C1387 C 0.49257 0.20975 0.52174 0.0
C1388 C 0.48091 0.19533 0.51537 0.0
C1389 C 0.46254 0.19876 0.50874 0.0
C1390 C 0.45609 0.21647 0.50916 0.0
C1391 C 0.46829 0.23068 0.51448 0.0
H1392 H 0.23044 0.17655 0.09718 0.0
H1393 H 0.23684 0.16143 0.8581 0.0
H1394 H 0.21699 0.186 0.81932 0.0
H1395 H 0.18485 0.18627 0.08596 0.0
H1396 H 0.18541 0.20494 0.15101 0.0
H1397 H 0.2016 0.18744 0.15983 0.0
H1398 H 0.22708 0.21047 0.14758 0.0
H1399 H 0.21094 0.22809 0.13907 0.0
H1400 H 0.22766 0.22517 0.06582 0.0
H1401 H 0.19485 0.21054 0.80704 0.0
H1402 H 0.17141 0.23312 0.8217 0.0
H1403 H 0.1793 0.23282 0.06896 0.0
C1404 C 0.22796 0.1787 0.03661 0.0
C1405 C 0.23524 0.16718 0.98049 0.0
C1406 C 0.23136 0.1701 0.9019 0.0
C1407 C 0.22018 0.18406 0.87935 0.0
C1408 C 0.21295 0.19499 0.93608 0.0
C1409 C 0.21668 0.19252 0.0131 0.0
C1410 C 0.2062 0.20542 0.06268 0.0
C1411 C 0.19378 0.19541 0.11812 0.0
C1412 C 0.21872 0.21804 0.10636 0.0
C1413 C 0.19576 0.21527 1.00158 0.0
C1414 C 0.20002 0.20916 0.92895 0.0
C1415 C 0.1916 0.21564 0.86352 0.0
C1416 C 0.17835 0.2286 0.87249 0.0
C1417 C 0.17356 0.23498 0.94644 0.0
C1418 C 0.18259 0.22827 0.01162 0.0
H1419 H 0.81757 0.24137 1.00799 0.0
H1420 H 0.86321 0.20658 0.98041 0.0
H1421 H 0.84343 0.18054 0.97765 0.0
H1422 H 0.79226 0.21175 0.13173 0.0
H1423 H 0.77108 0.21719 0.08954 0.0
H1424 H 0.78875 0.23339 0.08983 0.0
H1425 H 0.78617 0.23631 0.94199 0.0
H1426 H 0.76857 0.22004 0.94119 0.0
H1427 H 0.7881 0.2167 0.88272 0.0
H1428 H 0.81951 0.15834 0.97838 0.0
H1429 H 0.79201 0.14056 0.9852 0.0
H1430 H 0.76092 0.18884 0.01009 0.0
C1431 C 0.82332 0.22824 1.00176 0.0
C1432 C 0.84192 0.22601 0.99349 0.0
C1433 C 0.849 0.20863 0.98543 0.0
C1434 C 0.83789 0.19374 0.98407 0.0
C1435 C 0.81966 0.19636 0.99087 0.0
C1436 C 0.81233 0.2131 0.99975 0.0
C1437 C 0.79218 0.21193 1.00572 0.0
C1438 C 0.78569 0.21898 0.08386 0.0
C1439 C 0.78323 0.22184 0.93891 0.0
C1440 C 0.78945 0.19195 0.99904 0.0
C1441 C 0.80557 0.18332 0.9906 0.0
C1442 C 0.80679 0.1649 0.98485 0.0
C1443 C 0.79114 0.15493 0.98882 0.0
C1444 C 0.77445 0.16336 0.99814 0.0
C1445 C 0.77354 0.18213 1.00234 0.0
H1446 H 0.81695 0.76514 0.05718 0.0
H1447 H 0.86373 0.79652 1.00142 0.0
H1448 H 0.84578 0.82375 1.00417 0.0
H1449 H 0.78617 0.79164 0.93975 0.0
H1450 H 0.76801 0.78966 1.0069 0.0
H1451 H 0.78442 0.77225 1.00017 0.0
H1452 H 0.79052 0.77518 0.14607 0.0
H1453 H 0.77427 0.79273 0.15309 0.0
H1454 H 0.79673 0.79652 0.18527 0.0
H1455 H 0.82402 0.8476 0.0202 0.0
H1456 H 0.79826 0.86729 0.03462 0.0
H1457 H 0.76414 0.82141 0.0718 0.0
C1458 C 0.82332 0.77774 0.0448 0.0
C1459 C 0.84186 0.7787 0.03082 0.0
C1460 C 0.84969 0.79545 0.01453 0.0
C1461 C 0.83959 0.81102 0.01552 0.0
C1462 C 0.82155 0.80972 0.0318 0.0
C1463 C 0.81333 0.79357 0.04499 0.0
C1464 C 0.79357 0.79621 0.06002 0.0
C1465 C 0.78238 0.78689 0.998 0.0
C1466 C 0.78848 0.78978 0.14093 0.0
C1467 C 0.79215 0.81635 0.05379 0.0
C1468 C 0.80855 0.82374 0.03794 0.0
C1469 C 0.81101 0.84199 0.03123 0.0
C1470 C 0.79622 0.85307 0.03912 0.0
C1471 C 0.77904 0.84594 0.0525 0.0
C1472 C 0.77706 0.82728 0.06125 0.0
H1473 H 0.18399 0.76001 0.98876 0.0
H1474 H 0.13773 0.7944 1.00527 0.0
H1475 H 0.15714 0.82065 1.00776 0.0
H1476 H 0.21182 0.78578 0.1167 0.0
H1477 H 0.23196 0.78227 0.06249 0.0
H1478 H 0.21451 0.76584 0.0601 0.0
H1479 H 0.21363 0.7679 0.91162 0.0
H1480 H 0.23103 0.7844 0.91358 0.0
H1481 H 0.21024 0.78922 0.86663 0.0
H1482 H 0.18074 0.84308 0.01086 0.0
H1483 H 0.20806 0.86107 0.01707 0.0
H1484 H 0.24002 0.81318 0.99852 0.0
C1485 C 0.17801 0.77308 0.9929 0.0
C1486 C 0.15929 0.77514 0.99543 0.0
C1487 C 0.15197 0.79247 1.00124 0.0
C1488 C 0.16289 0.80749 1.00316 0.0
C1489 C 0.18119 0.80507 0.99945 0.0
C1490 C 0.1888 0.78838 0.99462 0.0
C1491 C 0.20898 0.78977 0.99251 0.0
C1492 C 0.2173 0.78036 0.0621 0.0
C1493 C 0.2164 0.78238 0.91655 0.0
C1494 C 0.2114 0.80983 0.99748 0.0
C1495 C 0.1951 0.81828 1.00132 0.0
C1496 C 0.1936 0.83666 1.00787 0.0
C1497 C 0.20918 0.84675 0.01157 0.0
C1498 C 0.22608 0.83849 1.00871 0.0
C1499 C 0.22723 0.81979 1.00045 0.0
H1500 H 0.67561 0.72475 0.41779 0.0
H1501 H 0.65446 0.72657 0.64959 0.0
H1502 H 0.6787 0.7069 0.69374 0.0
H1503 H 0.68674 0.6792 0.4203 0.0
H1504 H 0.70679 0.68147 0.36433 0.0
H1505 H 0.68893 0.69715 0.35233 0.0
H1506 H 0.71048 0.72316 0.38208 0.0
H1507 H 0.72845 0.70754 0.3941 0.0
H1508 H 0.72309 0.72296 0.47012 0.0
H1509 H 0.70401 0.68577 0.7113 0.0
H1510 H 0.72783 0.66341 0.70028 0.0
H1511 H 0.73263 0.67486 0.45664 0.0
C1512 C 0.67633 0.72124 0.47805 0.0
C1513 C 0.66327 0.72721 0.5305 0.0
C1514 C 0.66435 0.72207 0.6086 0.0
C1515 C 0.6781 0.711 0.63422 0.0
C1516 C 0.69065 0.70513 0.58096 0.0
C1517 C 0.68989 0.71001 0.50446 0.0
C1518 C 0.7043 0.7008 0.45817 0.0
C1519 C 0.6962 0.68895 0.39508 0.0
C1520 C 0.71736 0.71443 0.42412 0.0
C1521 C 0.71307 0.68976 0.52034 0.0
C1522 C 0.70513 0.69266 0.5909 0.0
C1523 C 0.71048 0.68354 0.65654 0.0
C1524 C 0.72412 0.67093 0.64977 0.0
C1525 C 0.73224 0.66744 0.57773 0.0
C1526 C 0.72671 0.6772 0.5125 0.0
H1527 H 0.32419 0.73049 0.60681 0.0
H1528 H 0.33041 0.74553 0.36811 0.0
H1529 H 0.30554 0.72562 0.33226 0.0
H1530 H 0.31686 0.68529 0.57124 0.0
H1531 H 0.30077 0.68202 0.64676 0.0
H1532 H 0.31728 0.69924 0.65562 0.0
H1533 H 0.29251 0.72277 0.67532 0.0
H1534 H 0.27589 0.70558 0.66706 0.0
H1535 H 0.27503 0.72475 0.60507 0.0
H1536 H 0.28214 0.70233 0.32078 0.0
H1537 H 0.26194 0.67673 0.33319 0.0
H1538 H 0.27081 0.67619 0.57977 0.0
C1539 C 0.31991 0.72989 0.54747 0.0
C1540 C 0.32886 0.73968 0.49011 0.0
C1541 C 0.32344 0.73825 0.41261 0.0
C1542 C 0.30937 0.72701 0.39189 0.0
C1543 C 0.30096 0.71723 0.44943 0.0
C1544 C 0.30598 0.71855 0.52568 0.0
C1545 C 0.29576 0.70543 0.57503 0.0
C1546 C 0.30842 0.69222 0.61445 0.0
C1547 C 0.2841 0.71522 0.63411 0.0
C1548 C 0.28452 0.6963 0.51437 0.0
C1549 C 0.28758 0.70348 0.44255 0.0
C1550 C 0.27939 0.69678 0.3769 0.0
C1551 C 0.26783 0.68227 0.38468 0.0
C1552 C 0.26457 0.67452 0.4576 0.0
C1553 C 0.27298 0.6818 0.52325 0.0
H1554 H 0.31813 0.26167 0.50833 0.0
H1555 H 0.36599 0.29393 0.52158 0.0
H1556 H 0.34789 0.32103 0.52169 0.0
H1557 H 0.29433 0.29156 0.37941 0.0
H1558 H 0.27299 0.28795 0.42397 0.0
H1559 H 0.28957 0.27065 0.42574 0.0
H1560 H 0.28732 0.26942 0.57415 0.0
H1561 H 0.27081 0.28679 0.57286 0.0
H1562 H 0.2907 0.28946 0.62938 0.0
H1563 H 0.32549 0.34449 0.52444 0.0
H1564 H 0.29934 0.36393 0.52073 0.0
H1565 H 0.26498 0.3177 0.49932 0.0
C1566 C 0.32474 0.27446 0.51094 0.0
C1567 C 0.3435 0.27561 0.51681 0.0
C1568 C 0.35166 0.29262 0.51951 0.0
C1569 C 0.3415 0.30814 0.51907 0.0
C1570 C 0.32313 0.30657 0.51502 0.0
C1571 C 0.31472 0.29027 0.51026 0.0
C1572 C 0.29467 0.29268 0.50532 0.0
C1573 C 0.28747 0.28527 0.42906 0.0
C1574 C 0.28533 0.28407 0.57456 0.0
C1575 C 0.29326 0.31286 0.50824 0.0
C1576 C 0.30992 0.32047 0.51415 0.0
C1577 C 0.31236 0.33876 0.51878 0.0
C1578 C 0.29739 0.34969 0.51607 0.0
C1579 C 0.2801 0.3424 0.50793 0.0
C1580 C 0.27801 0.32367 0.50514 0.0
H1581 H 0.73138 0.3245 0.55451 0.0
H1582 H 0.73456 0.33163 0.30726 0.0
H1583 H 0.71306 0.3073 0.28898 0.0
H1584 H 0.72596 0.27585 0.55207 0.0
H1585 H 0.71037 0.27597 0.63083 0.0
H1586 H 0.72727 0.29292 0.62477 0.0
H1587 H 0.70301 0.31735 0.63071 0.0
H1588 H 0.68606 0.3005 0.63683 0.0
H1589 H 0.68511 0.317 0.56188 0.0
H1590 H 0.68933 0.28421 0.29707 0.0
H1591 H 0.66522 0.26334 0.33159 0.0
H1592 H 0.67724 0.27078 0.57317 0.0
C1593 C 0.72767 0.32084 0.4965 0.0
C1594 C 0.73487 0.3299 0.43232 0.0
C1595 C 0.72961 0.32468 0.35736 0.0
C1596 C 0.7173 0.31092 0.34632 0.0
C1597 C 0.71036 0.3024 0.41072 0.0
C1598 C 0.7154 0.30708 0.48437 0.0
C1599 C 0.70527 0.29632 0.54376 0.0
C1600 C 0.71798 0.28456 0.59062 0.0
C1601 C 0.69421 0.30852 0.59637 0.0
C1602 C 0.69349 0.28518 0.49196 0.0
C1603 C 0.69672 0.28886 0.4154 0.0
C1604 C 0.68683 0.28103 0.35675 0.0
C1605 C 0.67315 0.26926 0.37684 0.0
C1606 C 0.66951 0.26536 0.45487 0.0
C1607 C 0.68 0.27326 0.51303 0.0
loop_
_geom_bond_atom_site_label_1
_geom_bond_atom_site_label_2
_geom_bond_distance
_geom_bond_site_symmetry_2
_ccdc_geom_bond_type
C0 C1 1.351 . S
C0 N3 1.368 . S
C0 H5 0.931 . S
C1 C0 1.351 . S
C1 N2 1.373 . S
C1 H29 0.930 . S
N2 C1 1.373 . S
N2 C4 1.340 . S
N3 C0 1.368 . S
N3 C4 1.321 . S
N3 Co6 2.135 . S
C4 N2 1.340 . S
C4 N3 1.321 . S
C4 H28 0.930 . S
H5 C0 0.931 . S
Co6 N3 2.135 . S
Co6 N9 2.121 1_554 S
Co6 O14 2.055 . S
Co6 O17 2.039 . S
Co6 N20 2.140 . S
C7 O8 1.227 . S
C7 O17 1.265 . S
O8 C7 1.227 . S
N9 Co6 2.121 1_556 S
N9 C11 1.375 . S
N9 C12 1.313 . S
C10 C11 1.338 . S
C10 N13 1.377 . S
C10 H30 0.930 . S
C11 N9 1.375 . S
C11 C10 1.338 . S
C11 H15 0.931 . S
C12 N9 1.313 . S
C12 N13 1.344 . S
C12 H16 0.930 . S
N13 C10 1.377 . S
N13 C12 1.344 . S
O14 Co6 2.055 . S
O14 C18 1.253 . S
H15 C11 0.931 . S
H16 C12 0.930 . S
O17 Co6 2.039 . S
O17 C7 1.265 . S
C18 O14 1.253 . S
C18 O19 1.227 . S
O19 C18 1.227 . S
N20 Co6 2.140 . S
N20 C23 1.346 . S
N20 C24 1.345 . S
C21 C22 1.387 . S
C21 C25 1.391 . S
C22 C21 1.387 . S
C22 C23 1.369 . S
C22 H31 0.929 . S
C23 N20 1.346 . S
C23 C22 1.369 . S
C23 H26 0.928 . S
C24 N20 1.345 . S
C24 C25 1.371 . S
C24 H27 0.931 1_554 S
C25 C21 1.391 . S
C25 C24 1.371 . S
C25 H32 0.930 1_554 S
H26 C23 0.928 . S
H27 C24 0.931 1_556 S
H28 C4 0.930 . S
H29 C1 0.930 . S
H30 C10 0.930 . S
H31 C22 0.929 . S
H32 C25 0.930 1_556 S
C33 C34 1.351 . S
C33 N36 1.368 . S
C33 H38 0.931 . S
C34 C33 1.351 . S
C34 N35 1.373 . S
C34 H62 0.930 . S
N35 C34 1.373 . S
N35 C37 1.340 . S
N36 C33 1.368 . S
N36 C37 1.321 . S
N36 Co39 2.135 . S
C37 N35 1.340 . S
C37 N36 1.321 . S
C37 H61 0.930 . S
H38 C33 0.931 . S
Co39 N36 2.135 . S
Co39 N42 2.121 1_554 S
Co39 O47 2.055 . S
Co39 O50 2.039 . S
Co39 N53 2.140 . S
C40 O41 1.227 . S
C40 O50 1.265 . S
O41 C40 1.227 . S
N42 Co39 2.121 1_556 S
N42 C44 1.375 . S
N42 C45 1.313 . S
C43 C44 1.338 . S
C43 N46 1.377 . S
C43 H63 0.930 . S
C44 N42 1.375 . S
C44 C43 1.338 . S
C44 H48 0.931 . S
C45 N42 1.313 . S
C45 N46 1.344 . S
C45 H49 0.930 . S
N46 C43 1.377 . S
N46 C45 1.344 . S
O47 Co39 2.055 . S
O47 C51 1.253 . S
H48 C44 0.931 . S
H49 C45 0.930 . S
O50 Co39 2.039 . S
O50 C40 1.265 . S
C51 O47 1.253 . S
C51 O52 1.227 . S
O52 C51 1.227 . S
N53 Co39 2.140 . S
N53 C56 1.346 . S
N53 C57 1.345 . S
C54 C55 1.387 . S
C54 C58 1.391 . S
C55 C54 1.387 . S
C55 C56 1.369 . S
C55 H64 0.929 . S
C56 N53 1.346 . S
C56 C55 1.369 . S
C56 H59 0.928 . S
C57 N53 1.345 . S
C57 C58 1.371 . S
C57 H60 0.931 1_554 S
C58 C54 1.391 . S
C58 C57 1.371 . S
C58 H65 0.930 1_554 S
H59 C56 0.928 . S
H60 C57 0.931 1_556 S
H61 C37 0.930 . S
H62 C34 0.930 . S
H63 C43 0.930 . S
H64 C55 0.929 . S
H65 C58 0.930 1_556 S
C66 C67 1.351 . S
C66 N69 1.368 . S
C66 H71 0.931 . S
C67 C66 1.351 . S
C67 N68 1.373 . S
C67 H95 0.930 . S
N68 C67 1.373 . S
N68 C70 1.340 . S
N69 C66 1.368 . S
N69 C70 1.321 . S
N69 Co72 2.135 . S
C70 N68 1.340 . S
C70 N69 1.321 . S
C70 H94 0.930 . S
H71 C66 0.931 . S
Co72 N69 2.135 . S
Co72 N75 2.121 1_554 S
Co72 O80 2.055 . S
Co72 O83 2.039 . S
Co72 N86 2.140 . S
C73 O74 1.227 . S
C73 O83 1.265 . S
O74 C73 1.227 . S
N75 Co72 2.121 1_556 S
N75 C77 1.375 . S
N75 C78 1.313 . S
C76 C77 1.338 . S
C76 N79 1.377 . S
C76 H96 0.930 . S
C77 N75 1.375 . S
C77 C76 1.338 . S
C77 H81 0.931 . S
C78 N75 1.313 . S
C78 N79 1.344 . S
C78 H82 0.930 . S
N79 C76 1.377 . S
N79 C78 1.344 . S
O80 Co72 2.055 . S
O80 C84 1.253 . S
H81 C77 0.931 . S
H82 C78 0.930 . S
O83 Co72 2.039 . S
O83 C73 1.265 . S
C84 O80 1.253 . S
C84 O85 1.227 . S
O85 C84 1.227 . S
N86 Co72 2.140 . S
N86 C89 1.346 . S
N86 C90 1.345 . S
C87 C88 1.387 . S
C87 C91 1.391 . S
C88 C87 1.387 . S
C88 C89 1.369 . S
C88 H97 0.929 . S
C89 N86 1.346 . S
C89 C88 1.369 . S
C89 H92 0.928 . S
C90 N86 1.345 . S
C90 C91 1.371 . S
C90 H93 0.931 1_554 S
C91 C87 1.391 . S
C91 C90 1.371 . S
C91 H98 0.930 1_554 S
H92 C89 0.928 . S
H93 C90 0.931 1_556 S
H94 C70 0.930 . S
H95 C67 0.930 . S
H96 C76 0.930 . S
H97 C88 0.929 . S
H98 C91 0.930 1_556 S
C99 C100 1.351 . S
C99 N102 1.368 . S
C99 H104 0.931 . S
C100 C99 1.351 . S
C100 N101 1.373 . S
C100 H128 0.930 . S
N101 C100 1.373 . S
N101 C103 1.340 . S
N102 C99 1.368 . S
N102 C103 1.321 . S
N102 Co105 2.135 . S
C103 N101 1.340 . S
C103 N102 1.321 . S
C103 H127 0.930 . S
H104 C99 0.931 . S
Co105 N102 2.135 . S
Co105 N108 2.121 1_554 S
Co105 O113 2.055 . S
Co105 O116 2.039 . S
Co105 N119 2.140 . S
C106 O107 1.227 . S
C106 O116 1.265 . S
O107 C106 1.227 . S
N108 Co105 2.121 1_556 S
N108 C110 1.375 . S
N108 C111 1.313 . S
C109 C110 1.338 . S
C109 N112 1.377 . S
C109 H129 0.930 . S
C110 N108 1.375 . S
C110 C109 1.338 . S
C110 H114 0.931 . S
C111 N108 1.313 . S
C111 N112 1.344 . S
C111 H115 0.930 . S
N112 C109 1.377 . S
N112 C111 1.344 . S
O113 Co105 2.055 . S
O113 C117 1.253 . S
H114 C110 0.931 . S
H115 C111 0.930 . S
O116 Co105 2.039 . S
O116 C106 1.265 . S
C117 O113 1.253 . S
C117 O118 1.227 . S
O118 C117 1.227 . S
N119 Co105 2.140 . S
N119 C122 1.346 . S
N119 C123 1.345 . S
C120 C121 1.387 . S
C120 C124 1.391 . S
C121 C120 1.387 . S
C121 C122 1.369 . S
C121 H130 0.929 . S
C122 N119 1.346 . S
C122 C121 1.369 . S
C122 H125 0.928 . S
C123 N119 1.345 . S
C123 C124 1.371 . S
C123 H126 0.931 1_554 S
C124 C120 1.391 . S
C124 C123 1.371 . S
C124 H131 0.930 1_554 S
H125 C122 0.928 . S
H126 C123 0.931 1_556 S
H127 C103 0.930 . S
H128 C100 0.930 . S
H129 C109 0.930 . S
H130 C121 0.929 . S
H131 C124 0.930 1_556 S
C132 C133 1.351 . S
C132 N135 1.368 . S
C132 H137 0.931 . S
C133 C132 1.351 . S
C133 N134 1.373 . S
C133 H161 0.930 . S
N134 C133 1.373 . S
N134 C136 1.340 . S
N135 C132 1.368 . S
N135 C136 1.321 . S
N135 Co138 2.135 . S
C136 N134 1.340 . S
C136 N135 1.321 . S
C136 H160 0.930 . S
H137 C132 0.931 . S
Co138 N135 2.135 . S
Co138 N141 2.121 1_556 S
Co138 O146 2.055 . S
Co138 O149 2.039 . S
Co138 N152 2.140 . S
C139 O140 1.227 . S
C139 O149 1.265 . S
O140 C139 1.227 . S
N141 Co138 2.121 1_554 S
N141 C143 1.375 . S
N141 C144 1.313 . S
C142 C143 1.338 . S
C142 N145 1.377 . S
C142 H162 0.930 . S
C143 N141 1.375 . S
C143 C142 1.338 . S
C143 H147 0.931 . S
C144 N141 1.313 . S
C144 N145 1.344 . S
C144 H148 0.930 . S
N145 C142 1.377 . S
N145 C144 1.344 . S
O146 Co138 2.055 . S
O146 C150 1.253 . S
H147 C143 0.931 . S
H148 C144 0.930 . S
O149 Co138 2.039 . S
O149 C139 1.265 . S
C150 O146 1.253 . S
C150 O151 1.227 . S
O151 C150 1.227 . S
N152 Co138 2.140 . S
N152 C155 1.346 . S
N152 C156 1.345 . S
C153 C154 1.387 . S
C153 C157 1.391 . S
C154 C153 1.387 . S
C154 C155 1.369 . S
C154 H163 0.929 . S
C155 N152 1.346 . S
C155 C154 1.369 . S
C155 H158 0.928 . S
C156 N152 1.345 . S
C156 C157 1.371 . S
C156 H159 0.931 1_556 S
C157 C153 1.391 . S
C157 C156 1.371 . S
C157 H164 0.930 1_556 S
H158 C155 0.928 . S
H159 C156 0.931 1_554 S
H160 C136 0.930 . S
H161 C133 0.930 . S
H162 C142 0.930 . S
H163 C154 0.929 . S
H164 C157 0.930 1_554 S
C165 C166 1.351 . S
C165 N168 1.368 . S
C165 H170 0.931 . S
C166 C165 1.351 . S
C166 N167 1.373 . S
C166 H194 0.930 . S
N167 C166 1.373 . S
N167 C169 1.340 . S
N168 C165 1.368 . S
N168 C169 1.321 . S
N168 Co171 2.135 . S
C169 N167 1.340 . S
C169 N168 1.321 . S
C169 H193 0.930 . S
H170 C165 0.931 . S
Co171 N168 2.135 . S
Co171 N174 2.121 1_556 S
Co171 O179 2.055 . S
Co171 O182 2.039 . S
Co171 N185 2.140 . S
C172 O173 1.227 . S
C172 O182 1.265 . S
O173 C172 1.227 . S
N174 Co171 2.121 1_554 S
N174 C176 1.375 . S
N174 C177 1.313 . S
C175 C176 1.338 . S
C175 N178 1.377 . S
C175 H195 0.930 . S
C176 N174 1.375 . S
C176 C175 1.338 . S
C176 H180 0.931 . S
C177 N174 1.313 . S
C177 N178 1.344 . S
C177 H181 0.930 . S
N178 C175 1.377 . S
N178 C177 1.344 . S
O179 Co171 2.055 . S
O179 C183 1.253 . S
H180 C176 0.931 . S
H181 C177 0.930 . S
O182 Co171 2.039 . S
O182 C172 1.265 . S
C183 O179 1.253 . S
C183 O184 1.227 . S
O184 C183 1.227 . S
N185 Co171 2.140 . S
N185 C188 1.346 . S
N185 C189 1.345 . S
C186 C187 1.387 . S
C186 C190 1.391 . S
C187 C186 1.387 . S
C187 C188 1.369 . S
C187 H196 0.929 . S
C188 N185 1.346 . S
C188 C187 1.369 . S
C188 H191 0.928 . S
C189 N185 1.345 . S
C189 C190 1.371 . S
C189 H192 0.931 1_556 S
C190 C186 1.391 . S
C190 C189 1.371 . S
C190 H197 0.930 1_556 S
H191 C188 0.928 . S
H192 C189 0.931 1_554 S
H193 C169 0.930 . S
H194 C166 0.930 . S
H195 C175 0.930 . S
H196 C187 0.929 . S
H197 C190 0.930 1_554 S
C198 C199 1.351 . S
C198 N201 1.368 . S
C198 H203 0.931 . S
C199 C198 1.351 . S
C199 N200 1.373 . S
C199 H227 0.930 . S
N200 C199 1.373 . S
N200 C202 1.340 . S
N201 C198 1.368 . S
N201 C202 1.321 . S
N201 Co204 2.135 . S
C202 N200 1.340 . S
C202 N201 1.321 . S
C202 H226 0.930 . S
H203 C198 0.931 . S
Co204 N201 2.135 . S
Co204 N207 2.121 1_556 S
Co204 O212 2.055 . S
Co204 O215 2.039 . S
Co204 N218 2.140 . S
C205 O206 1.227 . S
C205 O215 1.265 . S
O206 C205 1.227 . S
N207 Co204 2.121 1_554 S
N207 C209 1.375 . S
N207 C210 1.313 . S
C208 C209 1.338 . S
C208 N211 1.377 . S
C208 H228 0.930 . S
C209 N207 1.375 . S
C209 C208 1.338 . S
C209 H213 0.931 . S
C210 N207 1.313 . S
C210 N211 1.344 . S
C210 H214 0.930 . S
N211 C208 1.377 . S
N211 C210 1.344 . S
O212 Co204 2.055 . S
O212 C216 1.253 . S
H213 C209 0.931 . S
H214 C210 0.930 . S
O215 Co204 2.039 . S
O215 C205 1.265 . S
C216 O212 1.253 . S
C216 O217 1.227 . S
O217 C216 1.227 . S
N218 Co204 2.140 . S
N218 C221 1.346 . S
N218 C222 1.345 . S
C219 C220 1.387 . S
C219 C223 1.391 . S
C220 C219 1.387 . S
C220 C221 1.369 . S
C220 H229 0.929 . S
C221 N218 1.346 . S
C221 C220 1.369 . S
C221 H224 0.928 . S
C222 N218 1.345 . S
C222 C223 1.371 . S
C222 H225 0.931 1_556 S
C223 C219 1.391 . S
C223 C222 1.371 . S
C223 H230 0.930 1_556 S
H224 C221 0.928 . S
H225 C222 0.931 1_554 S
H226 C202 0.930 . S
H227 C199 0.930 . S
H228 C208 0.930 . S
H229 C220 0.929 . S
H230 C223 0.930 1_554 S
C231 C232 1.351 . S
C231 N234 1.368 . S
C231 H236 0.931 . S
C232 C231 1.351 . S
C232 N233 1.373 . S
C232 H260 0.930 . S
N233 C232 1.373 . S
N233 C235 1.340 . S
N234 C231 1.368 . S
N234 C235 1.321 . S
N234 Co237 2.135 . S
C235 N233 1.340 . S
C235 N234 1.321 . S
C235 H259 0.930 . S
H236 C231 0.931 . S
Co237 N234 2.135 . S
Co237 N240 2.121 1_556 S
Co237 O245 2.055 . S
Co237 O248 2.039 . S
Co237 N251 2.140 . S
C238 O239 1.227 . S
C238 O248 1.265 . S
O239 C238 1.227 . S
N240 Co237 2.121 1_554 S
N240 C242 1.375 . S
N240 C243 1.313 . S
C241 C242 1.338 . S
C241 N244 1.377 . S
C241 H261 0.930 . S
C242 N240 1.375 . S
C242 C241 1.338 . S
C242 H246 0.931 . S
C243 N240 1.313 . S
C243 N244 1.344 . S
C243 H247 0.930 . S
N244 C241 1.377 . S
N244 C243 1.344 . S
O245 Co237 2.055 . S
O245 C249 1.253 . S
H246 C242 0.931 . S
H247 C243 0.930 . S
O248 Co237 2.039 . S
O248 C238 1.265 . S
C249 O245 1.253 . S
C249 O250 1.227 . S
O250 C249 1.227 . S
N251 Co237 2.140 . S
N251 C254 1.346 . S
N251 C255 1.345 . S
C252 C253 1.387 . S
C252 C256 1.391 . S
C253 C252 1.387 . S
C253 C254 1.369 . S
C253 H262 0.929 . S
C254 N251 1.346 . S
C254 C253 1.369 . S
C254 H257 0.928 . S
C255 N251 1.345 . S
C255 C256 1.371 . S
C255 H258 0.931 1_556 S
C256 C252 1.391 . S
C256 C255 1.371 . S
C256 H263 0.930 1_556 S
H257 C254 0.928 . S
H258 C255 0.931 1_554 S
H259 C235 0.930 . S
H260 C232 0.930 . S
H261 C241 0.930 . S
H262 C253 0.929 . S
H263 C256 0.930 1_554 S
C264 C265 1.351 . S
C264 N267 1.368 . S
C264 H269 0.931 . S
C265 C264 1.351 . S
C265 N266 1.373 . S
C265 H293 0.930 . S
N266 C265 1.373 . S
N266 C268 1.340 . S
N267 C264 1.368 . S
N267 C268 1.321 . S
N267 Co270 2.135 . S
C268 N266 1.340 . S
C268 N267 1.321 . S
C268 H292 0.930 . S
H269 C264 0.931 . S
Co270 N267 2.135 . S
Co270 N273 2.121 . S
Co270 O278 2.055 . S
Co270 O281 2.039 . S
Co270 N284 2.140 . S
C271 O272 1.227 . S
C271 O281 1.265 . S
O272 C271 1.227 . S
N273 Co270 2.121 . S
N273 C275 1.375 . S
N273 C276 1.313 . S
C274 C275 1.338 . S
C274 N277 1.377 . S
C274 H294 0.930 . S
C275 N273 1.375 . S
C275 C274 1.338 . S
C275 H279 0.931 . S
C276 N273 1.313 . S
C276 N277 1.344 . S
C276 H280 0.930 . S
N277 C274 1.377 . S
N277 C276 1.344 . S
O278 Co270 2.055 . S
O278 C282 1.253 . S
H279 C275 0.931 . S
H280 C276 0.930 . S
O281 Co270 2.039 . S
O281 C271 1.265 . S
C282 O278 1.253 . S
C282 O283 1.227 . S
O283 C282 1.227 . S
N284 Co270 2.140 . S
N284 C287 1.346 . S
N284 C288 1.345 . S
C285 C286 1.387 . S
C285 C289 1.391 . S
C286 C285 1.387 . S
C286 C287 1.369 . S
C286 H295 0.929 . S
C287 N284 1.346 . S
C287 C286 1.369 . S
C287 H290 0.928 . S
C288 N284 1.345 . S
C288 C289 1.371 . S
C288 H291 0.931 . S
C289 C285 1.391 . S
C289 C288 1.371 . S
C289 H296 0.930 . S
H290 C287 0.928 . S
H291 C288 0.931 . S
H292 C268 0.930 . S
H293 C265 0.930 . S
H294 C274 0.930 . S
H295 C286 0.929 . S
H296 C289 0.930 . S
C297 C298 1.351 . S
C297 N300 1.368 . S
C297 H302 0.931 . S
C298 C297 1.351 . S
C298 N299 1.373 . S
C298 H326 0.930 . S
N299 C298 1.373 . S
N299 C301 1.340 . S
N300 C297 1.368 . S
N300 C301 1.321 . S
N300 Co303 2.135 . S
C301 N299 1.340 . S
C301 N300 1.321 . S
C301 H325 0.930 . S
H302 C297 0.931 . S
Co303 N300 2.135 . S
Co303 N306 2.121 . S
Co303 O311 2.055 . S
Co303 O314 2.039 . S
Co303 N317 2.140 . S
C304 O305 1.227 . S
C304 O314 1.265 . S
O305 C304 1.227 . S
N306 Co303 2.121 . S
N306 C308 1.375 . S
N306 C309 1.313 . S
C307 C308 1.338 . S
C307 N310 1.377 . S
C307 H327 0.930 . S
C308 N306 1.375 . S
C308 C307 1.338 . S
C308 H312 0.931 . S
C309 N306 1.313 . S
C309 N310 1.344 . S
C309 H313 0.930 . S
N310 C307 1.377 . S
N310 C309 1.344 . S
O311 Co303 2.055 . S
O311 C315 1.253 . S
H312 C308 0.931 . S
H313 C309 0.930 . S
O314 Co303 2.039 . S
O314 C304 1.265 . S
C315 O311 1.253 . S
C315 O316 1.227 . S
O316 C315 1.227 . S
N317 Co303 2.140 . S
N317 C320 1.346 . S
N317 C321 1.345 . S
C318 C319 1.387 . S
C318 C322 1.391 . S
C319 C318 1.387 . S
C319 C320 1.369 . S
C319 H328 0.929 . S
C320 N317 1.346 . S
C320 C319 1.369 . S
C320 H323 0.928 . S
C321 N317 1.345 . S
C321 C322 1.371 . S
C321 H324 0.931 . S
C322 C318 1.391 . S
C322 C321 1.371 . S
C322 H329 0.930 . S
H323 C320 0.928 . S
H324 C321 0.931 . S
H325 C301 0.930 . S
H326 C298 0.930 . S
H327 C307 0.930 . S
H328 C319 0.929 . S
H329 C322 0.930 . S
C330 C331 1.351 . S
C330 N333 1.368 . S
C330 H335 0.931 . S
C331 C330 1.351 . S
C331 N332 1.373 . S
C331 H359 0.930 . S
N332 C331 1.373 . S
N332 C334 1.340 . S
N333 C330 1.368 . S
N333 C334 1.321 . S
N333 Co336 2.135 . S
C334 N332 1.340 . S
C334 N333 1.321 . S
C334 H358 0.930 . S
H335 C330 0.931 . S
Co336 N333 2.135 . S
Co336 N339 2.121 . S
Co336 O344 2.055 . S
Co336 O347 2.039 . S
Co336 N350 2.140 . S
C337 O338 1.227 . S
C337 O347 1.265 . S
O338 C337 1.227 . S
N339 Co336 2.121 . S
N339 C341 1.375 . S
N339 C342 1.313 . S
C340 C341 1.338 . S
C340 N343 1.377 . S
C340 H360 0.930 . S
C341 N339 1.375 . S
C341 C340 1.338 . S
C341 H345 0.931 . S
C342 N339 1.313 . S
C342 N343 1.344 . S
C342 H346 0.930 . S
N343 C340 1.377 . S
N343 C342 1.344 . S
O344 Co336 2.055 . S
O344 C348 1.253 . S
H345 C341 0.931 . S
H346 C342 0.930 . S
O347 Co336 2.039 . S
O347 C337 1.265 . S
C348 O344 1.253 . S
C348 O349 1.227 . S
O349 C348 1.227 . S
N350 Co336 2.140 . S
N350 C353 1.346 . S
N350 C354 1.345 . S
C351 C352 1.387 . S
C351 C355 1.391 . S
C352 C351 1.387 . S
C352 C353 1.369 . S
C352 H361 0.929 . S
C353 N350 1.346 . S
C353 C352 1.369 . S
C353 H356 0.928 . S
C354 N350 1.345 . S
C354 C355 1.371 . S
C354 H357 0.931 . S
C355 C351 1.391 . S
C355 C354 1.371 . S
C355 H362 0.930 . S
H356 C353 0.928 . S
H357 C354 0.931 . S
H358 C334 0.930 . S
H359 C331 0.930 . S
H360 C340 0.930 . S
H361 C352 0.929 . S
H362 C355 0.930 . S
C363 C364 1.351 . S
C363 N366 1.368 . S
C363 H368 0.931 . S
C364 C363 1.351 . S
C364 N365 1.373 . S
C364 H392 0.930 . S
N365 C364 1.373 . S
N365 C367 1.340 . S
N366 C363 1.368 . S
N366 C367 1.321 . S
N366 Co369 2.135 . S
C367 N365 1.340 . S
C367 N366 1.321 . S
C367 H391 0.930 . S
H368 C363 0.931 . S
Co369 N366 2.135 . S
Co369 N372 2.121 . S
Co369 O377 2.055 . S
Co369 O380 2.039 . S
Co369 N383 2.140 . S
C370 O371 1.227 . S
C370 O380 1.265 . S
O371 C370 1.227 . S
N372 Co369 2.121 . S
N372 C374 1.375 . S
N372 C375 1.313 . S
C373 C374 1.338 . S
C373 N376 1.377 . S
C373 H393 0.930 . S
C374 N372 1.375 . S
C374 C373 1.338 . S
C374 H378 0.931 . S
C375 N372 1.313 . S
C375 N376 1.344 . S
C375 H379 0.930 . S
N376 C373 1.377 . S
N376 C375 1.344 . S
O377 Co369 2.055 . S
O377 C381 1.253 . S
H378 C374 0.931 . S
H379 C375 0.930 . S
O380 Co369 2.039 . S
O380 C370 1.265 . S
C381 O377 1.253 . S
C381 O382 1.227 . S
O382 C381 1.227 . S
N383 Co369 2.140 . S
N383 C386 1.346 . S
N383 C387 1.345 . S
C384 C385 1.387 . S
C384 C388 1.391 . S
C385 C384 1.387 . S
C385 C386 1.369 . S
C385 H394 0.929 . S
C386 N383 1.346 . S
C386 C385 1.369 . S
C386 H389 0.928 . S
C387 N383 1.345 . S
C387 C388 1.371 . S
C387 H390 0.931 . S
C388 C384 1.391 . S
C388 C387 1.371 . S
C388 H395 0.930 . S
H389 C386 0.928 . S
H390 C387 0.931 . S
H391 C367 0.930 . S
H392 C364 0.930 . S
H393 C373 0.930 . S
H394 C385 0.929 . S
H395 C388 0.930 . S
C396 C397 1.351 . S
C396 N399 1.368 . S
C396 H401 0.931 . S
C397 C396 1.351 . S
C397 N398 1.373 . S
C397 H425 0.930 . S
N398 C397 1.373 . S
N398 C400 1.340 . S
N399 C396 1.368 . S
N399 C400 1.321 . S
N399 Co402 2.135 . S
C400 N398 1.340 . S
C400 N399 1.321 . S
C400 H424 0.930 . S
H401 C396 0.931 . S
Co402 N399 2.135 . S
Co402 N405 2.121 . S
Co402 O410 2.055 . S
Co402 O413 2.039 . S
Co402 N416 2.140 . S
C403 O404 1.227 . S
C403 O413 1.265 . S
O404 C403 1.227 . S
N405 Co402 2.121 . S
N405 C407 1.375 . S
N405 C408 1.313 . S
C406 C407 1.338 . S
C406 N409 1.377 . S
C406 H426 0.930 . S
C407 N405 1.375 . S
C407 C406 1.338 . S
C407 H411 0.931 . S
C408 N405 1.313 . S
C408 N409 1.344 . S
C408 H412 0.930 . S
N409 C406 1.377 . S
N409 C408 1.344 . S
O410 Co402 2.055 . S
O410 C414 1.253 . S
H411 C407 0.931 . S
H412 C408 0.930 . S
O413 Co402 2.039 . S
O413 C403 1.265 . S
C414 O410 1.253 . S
C414 O415 1.227 . S
O415 C414 1.227 . S
N416 Co402 2.140 . S
N416 C419 1.346 . S
N416 C420 1.345 . S
C417 C418 1.387 . S
C417 C421 1.391 . S
C418 C417 1.387 . S
C418 C419 1.369 . S
C418 H427 0.929 . S
C419 N416 1.346 . S
C419 C418 1.369 . S
C419 H422 0.928 . S
C420 N416 1.345 . S
C420 C421 1.371 . S
C420 H423 0.931 . S
C421 C417 1.391 . S
C421 C420 1.371 . S
C421 H428 0.930 . S
H422 C419 0.928 . S
H423 C420 0.931 . S
H424 C400 0.930 . S
H425 C397 0.930 . S
H426 C406 0.930 . S
H427 C418 0.929 . S
H428 C421 0.930 . S
C429 C430 1.351 . S
C429 N432 1.368 . S
C429 H434 0.931 . S
C430 C429 1.351 . S
C430 N431 1.373 . S
C430 H458 0.930 . S
N431 C430 1.373 . S
N431 C433 1.340 . S
N432 C429 1.368 . S
N432 C433 1.321 . S
N432 Co435 2.135 . S
C433 N431 1.340 . S
C433 N432 1.321 . S
C433 H457 0.930 . S
H434 C429 0.931 . S
Co435 N432 2.135 . S
Co435 N438 2.121 . S
Co435 O443 2.055 . S
Co435 O446 2.039 . S
Co435 N449 2.140 . S
C436 O437 1.227 . S
C436 O446 1.265 . S
O437 C436 1.227 . S
N438 Co435 2.121 . S
N438 C440 1.375 . S
N438 C441 1.313 . S
C439 C440 1.338 . S
C439 N442 1.377 . S
C439 H459 0.930 . S
C440 N438 1.375 . S
C440 C439 1.338 . S
C440 H444 0.931 . S
C441 N438 1.313 . S
C441 N442 1.344 . S
C441 H445 0.930 . S
N442 C439 1.377 . S
N442 C441 1.344 . S
O443 Co435 2.055 . S
O443 C447 1.253 . S
H444 C440 0.931 . S
H445 C441 0.930 . S
O446 Co435 2.039 . S
O446 C436 1.265 . S
C447 O443 1.253 . S
C447 O448 1.227 . S
O448 C447 1.227 . S
N449 Co435 2.140 . S
N449 C452 1.346 . S
N449 C453 1.345 . S
C450 C451 1.387 . S
C450 C454 1.391 . S
C451 C450 1.387 . S
C451 C452 1.369 . S
C451 H460 0.929 . S
C452 N449 1.346 . S
C452 C451 1.369 . S
C452 H455 0.928 . S
C453 N449 1.345 . S
C453 C454 1.371 . S
C453 H456 0.931 . S
C454 C450 1.391 . S
C454 C453 1.371 . S
C454 H461 0.930 . S
H455 C452 0.928 . S
H456 C453 0.931 . S
H457 C433 0.930 . S
H458 C430 0.930 . S
H459 C439 0.930 . S
H460 C451 0.929 . S
H461 C454 0.930 . S
C462 C463 1.351 . S
C462 N465 1.368 . S
C462 H467 0.931 . S
C463 C462 1.351 . S
C463 N464 1.373 . S
C463 H491 0.930 . S
N464 C463 1.373 . S
N464 C466 1.340 . S
N465 C462 1.368 . S
N465 C466 1.321 . S
N465 Co468 2.135 . S
C466 N464 1.340 . S
C466 N465 1.321 . S
C466 H490 0.930 . S
H467 C462 0.931 . S
Co468 N465 2.135 . S
Co468 N471 2.121 . S
Co468 O476 2.055 . S
Co468 O479 2.039 . S
Co468 N482 2.140 . S
C469 O470 1.227 . S
C469 O479 1.265 . S
O470 C469 1.227 . S
N471 Co468 2.121 . S
N471 C473 1.375 . S
N471 C474 1.313 . S
C472 C473 1.338 . S
C472 N475 1.377 . S
C472 H492 0.930 . S
C473 N471 1.375 . S
C473 C472 1.338 . S
C473 H477 0.931 . S
C474 N471 1.313 . S
C474 N475 1.344 . S
C474 H478 0.930 . S
N475 C472 1.377 . S
N475 C474 1.344 . S
O476 Co468 2.055 . S
O476 C480 1.253 . S
H477 C473 0.931 . S
H478 C474 0.930 . S
O479 Co468 2.039 . S
O479 C469 1.265 . S
C480 O476 1.253 . S
C480 O481 1.227 . S
O481 C480 1.227 . S
N482 Co468 2.140 . S
N482 C485 1.346 . S
N482 C486 1.345 . S
C483 C484 1.387 . S
C483 C487 1.391 . S
C484 C483 1.387 . S
C484 C485 1.369 . S
C484 H493 0.929 . S
C485 N482 1.346 . S
C485 C484 1.369 . S
C485 H488 0.928 . S
C486 N482 1.345 . S
C486 C487 1.371 . S
C486 H489 0.931 . S
C487 C483 1.391 . S
C487 C486 1.371 . S
C487 H494 0.930 . S
H488 C485 0.928 . S
H489 C486 0.931 . S
H490 C466 0.930 . S
H491 C463 0.930 . S
H492 C472 0.930 . S
H493 C484 0.929 . S
H494 C487 0.930 . S
C495 C496 1.351 . S
C495 N498 1.368 . S
C495 H500 0.931 . S
C496 C495 1.351 . S
C496 N497 1.373 . S
C496 H524 0.930 . S
N497 C496 1.373 . S
N497 C499 1.340 . S
N498 C495 1.368 . S
N498 C499 1.321 . S
N498 Co501 2.135 . S
C499 N497 1.340 . S
C499 N498 1.321 . S
C499 H523 0.930 . S
H500 C495 0.931 . S
Co501 N498 2.135 . S
Co501 N504 2.121 . S
Co501 O509 2.055 . S
Co501 O512 2.039 . S
Co501 N515 2.140 . S
C502 O503 1.227 . S
C502 O512 1.265 . S
O503 C502 1.227 . S
N504 Co501 2.121 . S
N504 C506 1.375 . S
N504 C507 1.313 . S
C505 C506 1.338 . S
C505 N508 1.377 . S
C505 H525 0.930 . S
C506 N504 1.375 . S
C506 C505 1.338 . S
C506 H510 0.931 . S
C507 N504 1.313 . S
C507 N508 1.344 . S
C507 H511 0.930 . S
N508 C505 1.377 . S
N508 C507 1.344 . S
O509 Co501 2.055 . S
O509 C513 1.253 . S
H510 C506 0.931 . S
H511 C507 0.930 . S
O512 Co501 2.039 . S
O512 C502 1.265 . S
C513 O509 1.253 . S
C513 O514 1.227 . S
O514 C513 1.227 . S
N515 Co501 2.140 . S
N515 C518 1.346 . S
N515 C519 1.345 . S
C516 C517 1.387 . S
C516 C520 1.391 . S
C517 C516 1.387 . S
C517 C518 1.369 . S
C517 H526 0.929 . S
C518 N515 1.346 . S
C518 C517 1.369 . S
C518 H521 0.928 . S
C519 N515 1.345 . S
C519 C520 1.371 . S
C519 H522 0.931 . S
C520 C516 1.391 . S
C520 C519 1.371 . S
C520 H527 0.930 . S
H521 C518 0.928 . S
H522 C519 0.931 . S
H523 C499 0.930 . S
H524 C496 0.930 . S
H525 C505 0.930 . S
H526 C517 0.929 . S
H527 C520 0.930 . S
H528 C540 0.930 . S
H529 C542 0.930 . S
H530 C543 0.930 . S
H531 C547 0.959 . S
H532 C547 0.959 . S
H533 C547 0.961 . S
H534 C548 0.960 . S
H535 C548 0.961 . S
H536 C548 0.959 . S
H537 C551 0.929 . S
H538 C552 0.931 . S
H539 C554 0.930 . S
C540 H528 0.930 . S
C540 C541 1.399 . S
C540 C545 1.399 . S
C541 C540 1.399 . S
C541 C542 1.376 . S
C542 H529 0.930 . S
C542 C541 1.376 . S
C542 C543 1.388 . S
C543 H530 0.930 . S
C543 C542 1.388 . S
C543 C544 1.390 . S
C544 C543 1.390 . S
C544 C545 1.394 . S
C544 C550 1.465 . S
C545 C540 1.399 . S
C545 C544 1.394 . S
C545 C546 1.516 . S
C546 C545 1.516 . S
C546 C547 1.502 . S
C546 C548 1.561 . S
C546 C549 1.526 . S
C547 H531 0.959 . S
C547 H532 0.959 . S
C547 H533 0.961 . S
C547 C546 1.502 . S
C548 H534 0.960 . S
C548 H535 0.961 . S
C548 H536 0.959 . S
C548 C546 1.561 . S
C549 C546 1.526 . S
C549 C550 1.396 . S
C549 C554 1.390 . S
C550 C544 1.465 . S
C550 C549 1.396 . S
C550 C551 1.399 . S
C551 H537 0.929 . S
C551 C550 1.399 . S
C551 C552 1.385 . S
C552 H538 0.931 . S
C552 C551 1.385 . S
C552 C553 1.389 . S
C553 C552 1.389 . S
C553 C554 1.387 . S
C554 H539 0.930 . S
C554 C549 1.390 . S
C554 C553 1.387 . S
H555 C567 0.930 . S
H556 C569 0.930 . S
H557 C570 0.930 . S
H558 C574 0.959 . S
H559 C574 0.959 . S
H560 C574 0.961 . S
H561 C575 0.960 . S
H562 C575 0.961 . S
H563 C575 0.959 . S
H564 C578 0.929 . S
H565 C579 0.931 . S
H566 C581 0.930 . S
C567 H555 0.930 . S
C567 C568 1.399 . S
C567 C572 1.399 . S
C568 C567 1.399 . S
C568 C569 1.376 . S
C569 H556 0.930 . S
C569 C568 1.376 . S
C569 C570 1.388 . S
C570 H557 0.930 . S
C570 C569 1.388 . S
C570 C571 1.390 . S
C571 C570 1.390 . S
C571 C572 1.394 . S
C571 C577 1.465 . S
C572 C567 1.399 . S
C572 C571 1.394 . S
C572 C573 1.516 . S
C573 C572 1.516 . S
C573 C574 1.502 . S
C573 C575 1.561 . S
C573 C576 1.526 . S
C574 H558 0.959 . S
C574 H559 0.959 . S
C574 H560 0.961 . S
C574 C573 1.502 . S
C575 H561 0.960 . S
C575 H562 0.961 . S
C575 H563 0.959 . S
C575 C573 1.561 . S
C576 C573 1.526 . S
C576 C577 1.396 . S
C576 C581 1.390 . S
C577 C571 1.465 . S
C577 C576 1.396 . S
C577 C578 1.399 . S
C578 H564 0.929 . S
C578 C577 1.399 . S
C578 C579 1.385 . S
C579 H565 0.931 . S
C579 C578 1.385 . S
C579 C580 1.389 . S
C580 C579 1.389 . S
C580 C581 1.387 . S
C581 H566 0.930 . S
C581 C576 1.390 . S
C581 C580 1.387 . S
H582 C594 0.930 . S
H583 C596 0.930 . S
H584 C597 0.930 . S
H585 C601 0.959 . S
H586 C601 0.959 . S
H587 C601 0.961 . S
H588 C602 0.960 . S
H589 C602 0.961 . S
H590 C602 0.959 . S
H591 C605 0.929 . S
H592 C606 0.931 . S
H593 C608 0.930 . S
C594 H582 0.930 . S
C594 C595 1.399 . S
C594 C599 1.399 . S
C595 C594 1.399 . S
C595 C596 1.376 . S
C596 H583 0.930 . S
C596 C595 1.376 . S
C596 C597 1.388 . S
C597 H584 0.930 . S
C597 C596 1.388 . S
C597 C598 1.390 . S
C598 C597 1.390 . S
C598 C599 1.394 . S
C598 C604 1.465 . S
C599 C594 1.399 . S
C599 C598 1.394 . S
C599 C600 1.516 . S
C600 C599 1.516 . S
C600 C601 1.502 . S
C600 C602 1.561 . S
C600 C603 1.526 . S
C601 H585 0.959 . S
C601 H586 0.959 . S
C601 H587 0.961 . S
C601 C600 1.502 . S
C602 H588 0.960 . S
C602 H589 0.961 . S
C602 H590 0.959 . S
C602 C600 1.561 . S
C603 C600 1.526 . S
C603 C604 1.396 . S
C603 C608 1.390 . S
C604 C598 1.465 . S
C604 C603 1.396 . S
C604 C605 1.399 . S
C605 H591 0.929 . S
C605 C604 1.399 . S
C605 C606 1.385 . S
C606 H592 0.931 . S
C606 C605 1.385 . S
C606 C607 1.389 . S
C607 C606 1.389 . S
C607 C608 1.387 . S
C608 H593 0.930 . S
C608 C603 1.390 . S
C608 C607 1.387 . S
H609 C621 0.930 . S
H610 C623 0.930 . S
H611 C624 0.930 . S
H612 C628 0.959 . S
H613 C628 0.959 . S
H614 C628 0.961 . S
H615 C629 0.960 . S
H616 C629 0.961 . S
H617 C629 0.959 . S
H618 C632 0.929 . S
H619 C633 0.931 . S
H620 C635 0.930 . S
C621 H609 0.930 . S
C621 C622 1.399 . S
C621 C626 1.399 . S
C622 C621 1.399 . S
C622 C623 1.376 . S
C623 H610 0.930 . S
C623 C622 1.376 . S
C623 C624 1.388 . S
C624 H611 0.930 . S
C624 C623 1.388 . S
C624 C625 1.390 . S
C625 C624 1.390 . S
C625 C626 1.394 . S
C625 C631 1.465 . S
C626 C621 1.399 . S
C626 C625 1.394 . S
C626 C627 1.516 . S
C627 C626 1.516 . S
C627 C628 1.502 . S
C627 C629 1.561 . S
C627 C630 1.526 . S
C628 H612 0.959 . S
C628 H613 0.959 . S
C628 H614 0.961 . S
C628 C627 1.502 . S
C629 H615 0.960 . S
C629 H616 0.961 . S
C629 H617 0.959 . S
C629 C627 1.561 . S
C630 C627 1.526 . S
C630 C631 1.396 . S
C630 C635 1.390 . S
C631 C625 1.465 . S
C631 C630 1.396 . S
C631 C632 1.399 . S
C632 H618 0.929 . S
C632 C631 1.399 . S
C632 C633 1.385 . S
C633 H619 0.931 . S
C633 C632 1.385 . S
C633 C634 1.389 . S
C634 C633 1.389 . S
C634 C635 1.387 . S
C635 H620 0.930 . S
C635 C630 1.390 . S
C635 C634 1.387 . S
H636 C648 0.930 . S
H637 C650 0.930 . S
H638 C651 0.930 . S
H639 C655 0.959 . S
H640 C655 0.959 . S
H641 C655 0.961 . S
H642 C656 0.960 . S
H643 C656 0.961 . S
H644 C656 0.959 . S
H645 C659 0.929 . S
H646 C660 0.931 . S
H647 C662 0.930 . S
C648 H636 0.930 . S
C648 C649 1.399 . S
C648 C653 1.399 . S
C649 C648 1.399 . S
C649 C650 1.376 . S
C650 H637 0.930 . S
C650 C649 1.376 . S
C650 C651 1.388 . S
C651 H638 0.930 . S
C651 C650 1.388 . S
C651 C652 1.390 . S
C652 C651 1.390 . S
C652 C653 1.394 . S
C652 C658 1.465 . S
C653 C648 1.399 . S
C653 C652 1.394 . S
C653 C654 1.516 . S
C654 C653 1.516 . S
C654 C655 1.502 . S
C654 C656 1.561 . S
C654 C657 1.526 . S
C655 H639 0.959 . S
C655 H640 0.959 . S
C655 H641 0.961 . S
C655 C654 1.502 . S
C656 H642 0.960 . S
C656 H643 0.961 . S
C656 H644 0.959 . S
C656 C654 1.561 . S
C657 C654 1.526 . S
C657 C658 1.396 . S
C657 C662 1.390 . S
C658 C652 1.465 . S
C658 C657 1.396 . S
C658 C659 1.399 . S
C659 H645 0.929 . S
C659 C658 1.399 . S
C659 C660 1.385 . S
C660 H646 0.931 . S
C660 C659 1.385 . S
C660 C661 1.389 . S
C661 C660 1.389 . S
C661 C662 1.387 . S
C662 H647 0.930 . S
C662 C657 1.390 . S
C662 C661 1.387 . S
H663 C675 0.930 . S
H664 C677 0.930 . S
H665 C678 0.930 . S
H666 C682 0.959 . S
H667 C682 0.959 . S
H668 C682 0.961 . S
H669 C683 0.960 . S
H670 C683 0.961 . S
H671 C683 0.959 . S
H672 C686 0.929 . S
H673 C687 0.931 . S
H674 C689 0.930 . S
C675 H663 0.930 . S
C675 C676 1.399 . S
C675 C680 1.399 . S
C676 C675 1.399 . S
C676 C677 1.376 . S
C677 H664 0.930 . S
C677 C676 1.376 . S
C677 C678 1.388 . S
C678 H665 0.930 . S
C678 C677 1.388 . S
C678 C679 1.390 . S
C679 C678 1.390 . S
C679 C680 1.394 . S
C679 C685 1.465 . S
C680 C675 1.399 . S
C680 C679 1.394 . S
C680 C681 1.516 . S
C681 C680 1.516 . S
C681 C682 1.502 . S
C681 C683 1.561 . S
C681 C684 1.526 . S
C682 H666 0.959 . S
C682 H667 0.959 . S
C682 H668 0.961 . S
C682 C681 1.502 . S
C683 H669 0.960 . S
C683 H670 0.961 . S
C683 H671 0.959 . S
C683 C681 1.561 . S
C684 C681 1.526 . S
C684 C685 1.396 . S
C684 C689 1.390 . S
C685 C679 1.465 . S
C685 C684 1.396 . S
C685 C686 1.399 . S
C686 H672 0.929 . S
C686 C685 1.399 . S
C686 C687 1.385 . S
C687 H673 0.931 . S
C687 C686 1.385 . S
C687 C688 1.389 . S
C688 C687 1.389 . S
C688 C689 1.387 . S
C689 H674 0.930 . S
C689 C684 1.390 . S
C689 C688 1.387 . S
H690 C702 0.930 . S
H691 C704 0.930 . S
H692 C705 0.930 . S
H693 C709 0.959 . S
H694 C709 0.959 . S
H695 C709 0.961 . S
H696 C710 0.960 . S
H697 C710 0.961 . S
H698 C710 0.959 . S
H699 C713 0.929 . S
H700 C714 0.931 . S
H701 C716 0.930 . S
C702 H690 0.930 . S
C702 C703 1.399 . S
C702 C707 1.399 . S
C703 C702 1.399 . S
C703 C704 1.376 . S
C704 H691 0.930 . S
C704 C703 1.376 . S
C704 C705 1.388 . S
C705 H692 0.930 . S
C705 C704 1.388 . S
C705 C706 1.390 . S
C706 C705 1.390 . S
C706 C707 1.394 . S
C706 C712 1.465 . S
C707 C702 1.399 . S
C707 C706 1.394 . S
C707 C708 1.516 . S
C708 C707 1.516 . S
C708 C709 1.502 . S
C708 C710 1.561 . S
C708 C711 1.526 . S
C709 H693 0.959 . S
C709 H694 0.959 . S
C709 H695 0.961 . S
C709 C708 1.502 . S
C710 H696 0.960 . S
C710 H697 0.961 . S
C710 H698 0.959 . S
C710 C708 1.561 . S
C711 C708 1.526 . S
C711 C712 1.396 . S
C711 C716 1.390 . S
C712 C706 1.465 . S
C712 C711 1.396 . S
C712 C713 1.399 . S
C713 H699 0.929 . S
C713 C712 1.399 . S
C713 C714 1.385 . S
C714 H700 0.931 . S
C714 C713 1.385 . S
C714 C715 1.389 . S
C715 C714 1.389 . S
C715 C716 1.387 . S
C716 H701 0.930 . S
C716 C711 1.390 . S
C716 C715 1.387 . S
H717 C729 0.930 . S
H718 C731 0.930 . S
H719 C732 0.930 . S
H720 C736 0.959 . S
H721 C736 0.959 . S
H722 C736 0.961 . S
H723 C737 0.960 . S
H724 C737 0.961 . S
H725 C737 0.959 . S
H726 C740 0.929 . S
H727 C741 0.931 . S
H728 C743 0.930 . S
C729 H717 0.930 . S
C729 C730 1.399 . S
C729 C734 1.399 . S
C730 C729 1.399 . S
C730 C731 1.376 . S
C731 H718 0.930 . S
C731 C730 1.376 . S
C731 C732 1.388 . S
C732 H719 0.930 . S
C732 C731 1.388 . S
C732 C733 1.390 . S
C733 C732 1.390 . S
C733 C734 1.394 . S
C733 C739 1.465 . S
C734 C729 1.399 . S
C734 C733 1.394 . S
C734 C735 1.516 . S
C735 C734 1.516 . S
C735 C736 1.502 . S
C735 C737 1.561 . S
C735 C738 1.526 . S
C736 H720 0.959 . S
C736 H721 0.959 . S
C736 H722 0.961 . S
C736 C735 1.502 . S
C737 H723 0.960 . S
C737 H724 0.961 . S
C737 H725 0.959 . S
C737 C735 1.561 . S
C738 C735 1.526 . S
C738 C739 1.396 . S
C738 C743 1.390 . S
C739 C733 1.465 . S
C739 C738 1.396 . S
C739 C740 1.399 . S
C740 H726 0.929 . S
C740 C739 1.399 . S
C740 C741 1.385 . S
C741 H727 0.931 . S
C741 C740 1.385 . S
C741 C742 1.389 . S
C742 C741 1.389 . S
C742 C743 1.387 . S
C743 H728 0.930 . S
C743 C738 1.390 . S
C743 C742 1.387 . S
H744 C756 0.930 . S
H745 C758 0.930 . S
H746 C759 0.930 . S
H747 C763 0.959 . S
H748 C763 0.959 . S
H749 C763 0.961 . S
H750 C764 0.960 . S
H751 C764 0.961 . S
H752 C764 0.959 . S
H753 C767 0.929 1_554 S
H754 C768 0.931 . S
H755 C770 0.930 . S
C756 H744 0.930 . S
C756 C757 1.399 . S
C756 C761 1.399 . S
C757 C756 1.399 . S
C757 C758 1.376 . S
C758 H745 0.930 . S
C758 C757 1.376 . S
C758 C759 1.388 . S
C759 H746 0.930 . S
C759 C758 1.388 . S
C759 C760 1.390 . S
C760 C759 1.390 . S
C760 C761 1.394 . S
C760 C766 1.465 . S
C761 C756 1.399 . S
C761 C760 1.394 . S
C761 C762 1.516 . S
C762 C761 1.516 . S
C762 C763 1.502 . S
C762 C764 1.561 . S
C762 C765 1.526 . S
C763 H747 0.959 . S
C763 H748 0.959 . S
C763 H749 0.961 . S
C763 C762 1.502 . S
C764 H750 0.960 . S
C764 H751 0.961 . S
C764 H752 0.959 . S
C764 C762 1.561 . S
C765 C762 1.526 . S
C765 C766 1.396 . S
C765 C770 1.390 1_554 S
C766 C760 1.465 . S
C766 C765 1.396 . S
C766 C767 1.399 1_554 S
C767 H753 0.929 1_556 S
C767 C766 1.399 1_556 S
C767 C768 1.385 . S
C768 H754 0.931 . S
C768 C767 1.385 . S
C768 C769 1.389 . S
C769 C768 1.389 . S
C769 C770 1.387 . S
C770 H755 0.930 . S
C770 C765 1.390 1_556 S
C770 C769 1.387 . S
H771 C783 0.930 . S
H772 C785 0.930 . S
H773 C786 0.930 . S
H774 C790 0.959 . S
H775 C790 0.959 . S
H776 C790 0.961 . S
H777 C791 0.960 . S
H778 C791 0.961 . S
H779 C791 0.959 . S
H780 C794 0.929 . S
H781 C795 0.931 . S
H782 C797 0.930 . S
C783 H771 0.930 . S
C783 C784 1.399 . S
C783 C788 1.399 . S
C784 C783 1.399 . S
C784 C785 1.376 . S
C785 H772 0.930 . S
C785 C784 1.376 . S
C785 C786 1.388 . S
C786 H773 0.930 . S
C786 C785 1.388 . S
C786 C787 1.390 . S
C787 C786 1.390 . S
C787 C788 1.394 . S
C787 C793 1.465 . S
C788 C783 1.399 . S
C788 C787 1.394 . S
C788 C789 1.516 . S
C789 C788 1.516 . S
C789 C790 1.502 . S
C789 C791 1.561 . S
C789 C792 1.526 . S
C790 H774 0.959 . S
C790 H775 0.959 . S
C790 H776 0.961 . S
C790 C789 1.502 . S
C791 H777 0.960 . S
C791 H778 0.961 . S
C791 H779 0.959 . S
C791 C789 1.561 . S
C792 C789 1.526 . S
C792 C793 1.396 . S
C792 C797 1.390 1_554 S
C793 C787 1.465 . S
C793 C792 1.396 . S
C793 C794 1.399 . S
C794 H780 0.929 . S
C794 C793 1.399 . S
C794 C795 1.385 1_554 S
C795 H781 0.931 . S
C795 C794 1.385 1_556 S
C795 C796 1.389 . S
C796 C795 1.389 . S
C796 C797 1.387 . S
C797 H782 0.930 . S
C797 C792 1.390 1_556 S
C797 C796 1.387 . S
H798 C810 0.930 . S
H799 C812 0.930 . S
H800 C813 0.930 . S
H801 C817 0.959 . S
H802 C817 0.959 . S
H803 C817 0.961 . S
H804 C818 0.960 . S
H805 C818 0.961 . S
H806 C818 0.959 . S
H807 C821 0.929 1_554 S
H808 C822 0.931 . S
H809 C824 0.930 . S
C810 H798 0.930 . S
C810 C811 1.399 . S
C810 C815 1.399 . S
C811 C810 1.399 . S
C811 C812 1.376 . S
C812 H799 0.930 . S
C812 C811 1.376 . S
C812 C813 1.388 . S
C813 H800 0.930 . S
C813 C812 1.388 . S
C813 C814 1.390 . S
C814 C813 1.390 . S
C814 C815 1.394 . S
C814 C820 1.465 . S
C815 C810 1.399 . S
C815 C814 1.394 . S
C815 C816 1.516 . S
C816 C815 1.516 . S
C816 C817 1.502 . S
C816 C818 1.561 . S
C816 C819 1.526 . S
C817 H801 0.959 . S
C817 H802 0.959 . S
C817 H803 0.961 . S
C817 C816 1.502 . S
C818 H804 0.960 . S
C818 H805 0.961 . S
C818 H806 0.959 . S
C818 C816 1.561 . S
C819 C816 1.526 . S
C819 C820 1.396 . S
C819 C824 1.390 1_554 S
C820 C814 1.465 . S
C820 C819 1.396 . S
C820 C821 1.399 1_554 S
C821 H807 0.929 1_556 S
C821 C820 1.399 1_556 S
C821 C822 1.385 . S
C822 H808 0.931 . S
C822 C821 1.385 . S
C822 C823 1.389 . S
C823 C822 1.389 . S
C823 C824 1.387 . S
C824 H809 0.930 . S
C824 C819 1.390 1_556 S
C824 C823 1.387 . S
H825 C837 0.930 . S
H826 C839 0.930 . S
H827 C840 0.930 . S
H828 C844 0.959 . S
H829 C844 0.959 . S
H830 C844 0.961 . S
H831 C845 0.960 . S
H832 C845 0.961 . S
H833 C845 0.959 . S
H834 C848 0.929 . S
H835 C849 0.931 . S
H836 C851 0.930 . S
C837 H825 0.930 . S
C837 C838 1.399 . S
C837 C842 1.399 . S
C838 C837 1.399 . S
C838 C839 1.376 . S
C839 H826 0.930 . S
C839 C838 1.376 . S
C839 C840 1.388 . S
C840 H827 0.930 . S
C840 C839 1.388 . S
C840 C841 1.390 . S
C841 C840 1.390 . S
C841 C842 1.394 . S
C841 C847 1.465 . S
C842 C837 1.399 . S
C842 C841 1.394 . S
C842 C843 1.516 . S
C843 C842 1.516 . S
C843 C844 1.502 . S
C843 C845 1.561 . S
C843 C846 1.526 . S
C844 H828 0.959 . S
C844 H829 0.959 . S
C844 H830 0.961 . S
C844 C843 1.502 . S
C845 H831 0.960 . S
C845 H832 0.961 . S
C845 H833 0.959 . S
C845 C843 1.561 . S
C846 C843 1.526 . S
C846 C847 1.396 . S
C846 C851 1.390 1_554 S
C847 C841 1.465 . S
C847 C846 1.396 . S
C847 C848 1.399 1_554 S
C848 H834 0.929 . S
C848 C847 1.399 1_556 S
C848 C849 1.385 . S
C849 H835 0.931 . S
C849 C848 1.385 . S
C849 C850 1.389 . S
C850 C849 1.389 . S
C850 C851 1.387 . S
C851 H836 0.930 . S
C851 C846 1.390 1_556 S
C851 C850 1.387 . S
H852 C864 0.930 . S
H853 C866 0.930 . S
H854 C867 0.930 . S
H855 C871 0.959 . S
H856 C871 0.959 . S
H857 C871 0.961 . S
H858 C872 0.960 . S
H859 C872 0.961 . S
H860 C872 0.959 . S
H861 C875 0.929 . S
H862 C876 0.931 . S
H863 C878 0.930 . S
C864 H852 0.930 . S
C864 C865 1.399 . S
C864 C869 1.399 1_554 S
C865 C864 1.399 . S
C865 C866 1.376 . S
C866 H853 0.930 . S
C866 C865 1.376 . S
C866 C867 1.388 1_554 S
C867 H854 0.930 . S
C867 C866 1.388 1_556 S
C867 C868 1.390 . S
C868 C867 1.390 . S
C868 C869 1.394 . S
C868 C874 1.465 . S
C869 C864 1.399 1_556 S
C869 C868 1.394 . S
C869 C870 1.516 . S
C870 C869 1.516 . S
C870 C871 1.502 . S
C870 C872 1.561 . S
C870 C873 1.526 . S
C871 H855 0.959 . S
C871 H856 0.959 . S
C871 H857 0.961 . S
C871 C870 1.502 . S
C872 H858 0.960 . S
C872 H859 0.961 . S
C872 H860 0.959 . S
C872 C870 1.561 . S
C873 C870 1.526 . S
C873 C874 1.396 . S
C873 C878 1.390 . S
C874 C868 1.465 . S
C874 C873 1.396 . S
C874 C875 1.399 . S
C875 H861 0.929 . S
C875 C874 1.399 . S
C875 C876 1.385 . S
C876 H862 0.931 . S
C876 C875 1.385 . S
C876 C877 1.389 . S
C877 C876 1.389 . S
C877 C878 1.387 . S
C878 H863 0.930 . S
C878 C873 1.390 . S
C878 C877 1.387 . S
H879 C891 0.930 . S
H880 C893 0.930 . S
H881 C894 0.927 1_556 S
H882 C898 0.959 . S
H883 C898 0.959 . S
H884 C898 0.961 . S
H885 C899 0.960 . S
H886 C899 0.961 . S
H887 C899 0.959 . S
H888 C902 0.929 . S
H889 C903 0.931 . S
H890 C905 0.930 . S
C891 H879 0.930 . S
C891 C892 1.399 . S
C891 C896 1.399 1_554 S
C892 C891 1.399 . S
C892 C893 1.376 . S
C893 H880 0.930 . S
C893 C892 1.376 . S
C893 C894 1.397 . S
C894 H881 0.927 1_554 S
C894 C893 1.397 . S
C894 C895 1.384 1_554 S
C895 C894 1.384 1_556 S
C895 C896 1.394 . S
C895 C901 1.465 . S
C896 C891 1.399 1_556 S
C896 C895 1.394 . S
C896 C897 1.516 . S
C897 C896 1.516 . S
C897 C898 1.502 . S
C897 C899 1.561 . S
C897 C900 1.526 . S
C898 H882 0.959 . S
C898 H883 0.959 . S
C898 H884 0.961 . S
C898 C897 1.502 . S
C899 H885 0.960 . S
C899 H886 0.961 . S
C899 H887 0.959 . S
C899 C897 1.561 . S
C900 C897 1.526 . S
C900 C901 1.396 . S
C900 C905 1.390 . S
C901 C895 1.465 . S
C901 C900 1.396 . S
C901 C902 1.399 . S
C902 H888 0.929 . S
C902 C901 1.399 . S
C902 C903 1.385 . S
C903 H889 0.931 . S
C903 C902 1.385 . S
C903 C904 1.389 . S
C904 C903 1.389 . S
C904 C905 1.387 . S
C905 H890 0.930 . S
C905 C900 1.390 . S
C905 C904 1.387 . S
H906 C918 0.930 . S
H907 C920 0.930 . S
H908 C921 0.930 . S
H909 C925 0.959 . S
H910 C925 0.959 . S
H911 C925 0.961 . S
H912 C926 0.960 . S
H913 C926 0.961 . S
H914 C926 0.959 . S
H915 C929 0.929 . S
H916 C930 0.931 . S
H917 C932 0.930 . S
C918 H906 0.930 . S
C918 C919 1.399 . S
C918 C923 1.399 1_554 S
C919 C918 1.399 . S
C919 C920 1.376 . S
C920 H907 0.930 . S
C920 C919 1.376 . S
C920 C921 1.388 1_554 S
C921 H908 0.930 . S
C921 C920 1.388 1_556 S
C921 C922 1.390 . S
C922 C921 1.390 . S
C922 C923 1.394 . S
C922 C928 1.465 . S
C923 C918 1.399 1_556 S
C923 C922 1.394 . S
C923 C924 1.516 . S
C924 C923 1.516 . S
C924 C925 1.502 . S
C924 C926 1.561 . S
C924 C927 1.526 . S
C925 H909 0.959 . S
C925 H910 0.959 . S
C925 H911 0.961 . S
C925 C924 1.502 . S
C926 H912 0.960 . S
C926 H913 0.961 . S
C926 H914 0.959 . S
C926 C924 1.561 . S
C927 C924 1.526 . S
C927 C928 1.396 . S
C927 C932 1.390 . S
C928 C922 1.465 . S
C928 C927 1.396 . S
C928 C929 1.399 . S
C929 H915 0.929 . S
C929 C928 1.399 . S
C929 C930 1.385 . S
C930 H916 0.931 . S
C930 C929 1.385 . S
C930 C931 1.389 . S
C931 C930 1.389 . S
C931 C932 1.387 . S
C932 H917 0.930 . S
C932 C927 1.390 . S
C932 C931 1.387 . S
H933 C945 0.930 . S
H934 C947 0.930 . S
H935 C948 0.930 . S
H936 C952 0.959 . S
H937 C952 0.959 . S
H938 C952 0.961 . S
H939 C953 0.960 . S
H940 C953 0.961 . S
H941 C953 0.959 . S
H942 C956 0.929 . S
H943 C957 0.931 . S
H944 C959 0.930 . S
C945 H933 0.930 . S
C945 C946 1.399 . S
C945 C950 1.399 1_554 S
C946 C945 1.399 . S
C946 C947 1.376 . S
C947 H934 0.930 . S
C947 C946 1.376 . S
C947 C948 1.388 . S
C948 H935 0.930 . S
C948 C947 1.388 . S
C948 C949 1.390 1_554 S
C949 C948 1.390 1_556 S
C949 C950 1.394 . S
C949 C955 1.465 . S
C950 C945 1.399 1_556 S
C950 C949 1.394 . S
C950 C951 1.516 . S
C951 C950 1.516 . S
C951 C952 1.502 . S
C951 C953 1.561 . S
C951 C954 1.526 . S
C952 H936 0.959 . S
C952 H937 0.959 . S
C952 H938 0.961 . S
C952 C951 1.502 . S
C953 H939 0.960 . S
C953 H940 0.961 . S
C953 H941 0.959 . S
C953 C951 1.561 . S
C954 C951 1.526 . S
C954 C955 1.396 . S
C954 C959 1.390 . S
C955 C949 1.465 . S
C955 C954 1.396 . S
C955 C956 1.399 . S
C956 H942 0.929 . S
C956 C955 1.399 . S
C956 C957 1.385 . S
C957 H943 0.931 . S
C957 C956 1.385 . S
C957 C958 1.389 . S
C958 C957 1.389 . S
C958 C959 1.387 . S
C959 H944 0.930 . S
C959 C954 1.390 . S
C959 C958 1.387 . S
H960 C972 0.930 . S
H961 C974 0.930 . S
H962 C975 0.930 . S
H963 C979 0.959 . S
H964 C979 0.959 . S
H965 C979 0.961 . S
H966 C980 0.960 . S
H967 C980 0.961 . S
H968 C980 0.959 . S
H969 C983 0.929 . S
H970 C984 0.931 . S
H971 C986 0.930 . S
C972 H960 0.930 . S
C972 C973 1.399 . S
C972 C977 1.399 . S
C973 C972 1.399 . S
C973 C974 1.376 . S
C974 H961 0.930 . S
C974 C973 1.376 . S
C974 C975 1.388 . S
C975 H962 0.930 . S
C975 C974 1.388 . S
C975 C976 1.390 . S
C976 C975 1.390 . S
C976 C977 1.394 . S
C976 C982 1.465 . S
C977 C972 1.399 . S
C977 C976 1.394 . S
C977 C978 1.516 . S
C978 C977 1.516 . S
C978 C979 1.502 . S
C978 C980 1.561 . S
C978 C981 1.526 . S
C979 H963 0.959 . S
C979 H964 0.959 . S
C979 H965 0.961 . S
C979 C978 1.502 . S
C980 H966 0.960 . S
C980 H967 0.961 . S
C980 H968 0.959 . S
C980 C978 1.561 . S
C981 C978 1.526 . S
C981 C982 1.396 . S
C981 C986 1.390 . S
C982 C976 1.465 . S
C982 C981 1.396 . S
C982 C983 1.399 . S
C983 H969 0.929 . S
C983 C982 1.399 . S
C983 C984 1.385 . S
C984 H970 0.931 . S
C984 C983 1.385 . S
C984 C985 1.389 . S
C985 C984 1.389 . S
C985 C986 1.387 . S
C986 H971 0.930 . S
C986 C981 1.390 . S
C986 C985 1.387 . S
H987 C999 0.930 . S
H988 C1001 0.930 . S
H989 C1002 0.930 . S
H990 C1006 0.959 . S
H991 C1006 0.959 . S
H992 C1006 0.961 . S
H993 C1007 0.960 . S
H994 C1007 0.961 . S
H995 C1007 0.959 . S
H996 C1010 0.929 . S
H997 C1011 0.931 . S
H998 C1013 0.930 . S
C999 H987 0.930 . S
C999 C1000 1.399 . S
C999 C1004 1.399 . S
C1000 C999 1.399 . S
C1000 C1001 1.376 . S
C1001 H988 0.930 . S
C1001 C1000 1.376 . S
C1001 C1002 1.388 . S
C1002 H989 0.930 . S
C1002 C1001 1.388 . S
C1002 C1003 1.390 . S
C1003 C1002 1.390 . S
C1003 C1004 1.394 . S
C1003 C1009 1.465 . S
C1004 C999 1.399 . S
C1004 C1003 1.394 . S
C1004 C1005 1.516 . S
C1005 C1004 1.516 . S
C1005 C1006 1.502 . S
C1005 C1007 1.561 . S
C1005 C1008 1.526 . S
C1006 H990 0.959 . S
C1006 H991 0.959 . S
C1006 H992 0.961 . S
C1006 C1005 1.502 . S
C1007 H993 0.960 . S
C1007 H994 0.961 . S
C1007 H995 0.959 . S
C1007 C1005 1.561 . S
C1008 C1005 1.526 . S
C1008 C1009 1.396 . S
C1008 C1013 1.390 . S
C1009 C1003 1.465 . S
C1009 C1008 1.396 . S
C1009 C1010 1.399 . S
C1010 H996 0.929 . S
C1010 C1009 1.399 . S
C1010 C1011 1.385 . S
C1011 H997 0.931 . S
C1011 C1010 1.385 . S
C1011 C1012 1.389 . S
C1012 C1011 1.389 . S
C1012 C1013 1.387 . S
C1013 H998 0.930 . S
C1013 C1008 1.390 . S
C1013 C1012 1.387 . S
H1014 C1026 0.930 . S
H1015 C1028 0.930 . S
H1016 C1029 0.930 . S
H1017 C1033 0.959 . S
H1018 C1033 0.959 . S
H1019 C1033 0.961 . S
H1020 C1034 0.960 . S
H1021 C1034 0.961 . S
H1022 C1034 0.959 . S
H1023 C1037 0.929 . S
H1024 C1038 0.931 . S
H1025 C1040 0.930 . S
C1026 H1014 0.930 . S
C1026 C1027 1.399 . S
C1026 C1031 1.399 . S
C1027 C1026 1.399 . S
C1027 C1028 1.376 . S
C1028 H1015 0.930 . S
C1028 C1027 1.376 . S
C1028 C1029 1.388 . S
C1029 H1016 0.930 . S
C1029 C1028 1.388 . S
C1029 C1030 1.390 . S
C1030 C1029 1.390 . S
C1030 C1031 1.394 . S
C1030 C1036 1.465 . S
C1031 C1026 1.399 . S
C1031 C1030 1.394 . S
C1031 C1032 1.516 . S
C1032 C1031 1.516 . S
C1032 C1033 1.502 . S
C1032 C1034 1.561 . S
C1032 C1035 1.526 . S
C1033 H1017 0.959 . S
C1033 H1018 0.959 . S
C1033 H1019 0.961 . S
C1033 C1032 1.502 . S
C1034 H1020 0.960 . S
C1034 H1021 0.961 . S
C1034 H1022 0.959 . S
C1034 C1032 1.561 . S
C1035 C1032 1.526 . S
C1035 C1036 1.396 . S
C1035 C1040 1.390 . S
C1036 C1030 1.465 . S
C1036 C1035 1.396 . S
C1036 C1037 1.399 . S
C1037 H1023 0.929 . S
C1037 C1036 1.399 . S
C1037 C1038 1.385 . S
C1038 H1024 0.931 . S
C1038 C1037 1.385 . S
C1038 C1039 1.389 . S
C1039 C1038 1.389 . S
C1039 C1040 1.387 . S
C1040 H1025 0.930 . S
C1040 C1035 1.390 . S
C1040 C1039 1.387 . S
H1041 C1053 0.930 . S
H1042 C1055 0.930 . S
H1043 C1056 0.930 . S
H1044 C1060 0.959 . S
H1045 C1060 0.959 . S
H1046 C1060 0.961 . S
H1047 C1061 0.960 . S
H1048 C1061 0.961 . S
H1049 C1061 0.959 . S
H1050 C1064 0.929 . S
H1051 C1065 0.931 . S
H1052 C1067 0.930 . S
C1053 H1041 0.930 . S
C1053 C1054 1.399 . S
C1053 C1058 1.399 . S
C1054 C1053 1.399 . S
C1054 C1055 1.376 . S
C1055 H1042 0.930 . S
C1055 C1054 1.376 . S
C1055 C1056 1.388 . S
C1056 H1043 0.930 . S
C1056 C1055 1.388 . S
C1056 C1057 1.390 . S
C1057 C1056 1.390 . S
C1057 C1058 1.394 . S
C1057 C1063 1.465 . S
C1058 C1053 1.399 . S
C1058 C1057 1.394 . S
C1058 C1059 1.516 . S
C1059 C1058 1.516 . S
C1059 C1060 1.502 . S
C1059 C1061 1.561 . S
C1059 C1062 1.526 . S
C1060 H1044 0.959 . S
C1060 H1045 0.959 . S
C1060 H1046 0.961 . S
C1060 C1059 1.502 . S
C1061 H1047 0.960 . S
C1061 H1048 0.961 . S
C1061 H1049 0.959 . S
C1061 C1059 1.561 . S
C1062 C1059 1.526 . S
C1062 C1063 1.396 . S
C1062 C1067 1.390 . S
C1063 C1057 1.465 . S
C1063 C1062 1.396 . S
C1063 C1064 1.399 . S
C1064 H1050 0.929 . S
C1064 C1063 1.399 . S
C1064 C1065 1.385 . S
C1065 H1051 0.931 . S
C1065 C1064 1.385 . S
C1065 C1066 1.389 . S
C1066 C1065 1.389 . S
C1066 C1067 1.387 . S
C1067 H1052 0.930 . S
C1067 C1062 1.390 . S
C1067 C1066 1.387 . S
H1068 C1080 0.930 . S
H1069 C1082 0.930 . S
H1070 C1083 0.930 . S
H1071 C1087 0.959 . S
H1072 C1087 0.959 . S
H1073 C1087 0.961 . S
H1074 C1088 0.960 . S
H1075 C1088 0.961 . S
H1076 C1088 0.959 . S
H1077 C1091 0.929 . S
H1078 C1092 0.931 . S
H1079 C1094 0.930 . S
C1080 H1068 0.930 . S
C1080 C1081 1.399 . S
C1080 C1085 1.399 . S
C1081 C1080 1.399 . S
C1081 C1082 1.376 . S
C1082 H1069 0.930 . S
C1082 C1081 1.376 . S
C1082 C1083 1.388 . S
C1083 H1070 0.930 . S
C1083 C1082 1.388 . S
C1083 C1084 1.390 . S
C1084 C1083 1.390 . S
C1084 C1085 1.394 . S
C1084 C1090 1.465 . S
C1085 C1080 1.399 . S
C1085 C1084 1.394 . S
C1085 C1086 1.516 . S
C1086 C1085 1.516 . S
C1086 C1087 1.502 . S
C1086 C1088 1.561 . S
C1086 C1089 1.526 . S
C1087 H1071 0.959 . S
C1087 H1072 0.959 . S
C1087 H1073 0.961 . S
C1087 C1086 1.502 . S
C1088 H1074 0.960 . S
C1088 H1075 0.961 . S
C1088 H1076 0.959 . S
C1088 C1086 1.561 . S
C1089 C1086 1.526 . S
C1089 C1090 1.396 . S
C1089 C1094 1.390 . S
C1090 C1084 1.465 . S
C1090 C1089 1.396 . S
C1090 C1091 1.399 . S
C1091 H1077 0.929 . S
C1091 C1090 1.399 . S
C1091 C1092 1.385 . S
C1092 H1078 0.931 . S
C1092 C1091 1.385 . S
C1092 C1093 1.389 . S
C1093 C1092 1.389 . S
C1093 C1094 1.387 . S
C1094 H1079 0.930 . S
C1094 C1089 1.390 . S
C1094 C1093 1.387 . S
H1095 C1107 0.930 . S
H1096 C1109 0.930 . S
H1097 C1110 0.930 . S
H1098 C1114 0.959 . S
H1099 C1114 0.959 . S
H1100 C1114 0.961 . S
H1101 C1115 0.960 . S
H1102 C1115 0.961 . S
H1103 C1115 0.959 . S
H1104 C1118 0.929 . S
H1105 C1119 0.931 . S
H1106 C1121 0.930 . S
C1107 H1095 0.930 . S
C1107 C1108 1.399 . S
C1107 C1112 1.399 . S
C1108 C1107 1.399 . S
C1108 C1109 1.376 . S
C1109 H1096 0.930 . S
C1109 C1108 1.376 . S
C1109 C1110 1.388 . S
C1110 H1097 0.930 . S
C1110 C1109 1.388 . S
C1110 C1111 1.390 . S
C1111 C1110 1.390 . S
C1111 C1112 1.394 . S
C1111 C1117 1.465 . S
C1112 C1107 1.399 . S
C1112 C1111 1.394 . S
C1112 C1113 1.516 . S
C1113 C1112 1.516 . S
C1113 C1114 1.502 . S
C1113 C1115 1.561 . S
C1113 C1116 1.526 . S
C1114 H1098 0.959 . S
C1114 H1099 0.959 . S
C1114 H1100 0.961 . S
C1114 C1113 1.502 . S
C1115 H1101 0.960 . S
C1115 H1102 0.961 . S
C1115 H1103 0.959 . S
C1115 C1113 1.561 . S
C1116 C1113 1.526 . S
C1116 C1117 1.396 . S
C1116 C1121 1.390 . S
C1117 C1111 1.465 . S
C1117 C1116 1.396 . S
C1117 C1118 1.399 . S
C1118 H1104 0.929 . S
C1118 C1117 1.399 . S
C1118 C1119 1.385 . S
C1119 H1105 0.931 . S
C1119 C1118 1.385 . S
C1119 C1120 1.389 . S
C1120 C1119 1.389 . S
C1120 C1121 1.387 . S
C1121 H1106 0.930 . S
C1121 C1116 1.390 . S
C1121 C1120 1.387 . S
H1122 C1134 0.930 . S
H1123 C1136 0.930 . S
H1124 C1137 0.930 . S
H1125 C1141 0.959 . S
H1126 C1141 0.959 . S
H1127 C1141 0.961 . S
H1128 C1142 0.960 . S
H1129 C1142 0.961 . S
H1130 C1142 0.959 . S
H1131 C1145 0.929 . S
H1132 C1146 0.931 . S
H1133 C1148 0.930 . S
C1134 H1122 0.930 . S
C1134 C1135 1.399 . S
C1134 C1139 1.399 . S
C1135 C1134 1.399 . S
C1135 C1136 1.376 . S
C1136 H1123 0.930 . S
C1136 C1135 1.376 . S
C1136 C1137 1.388 . S
C1137 H1124 0.930 . S
C1137 C1136 1.388 . S
C1137 C1138 1.390 . S
C1138 C1137 1.390 . S
C1138 C1139 1.394 . S
C1138 C1144 1.465 . S
C1139 C1134 1.399 . S
C1139 C1138 1.394 . S
C1139 C1140 1.516 . S
C1140 C1139 1.516 . S
C1140 C1141 1.502 . S
C1140 C1142 1.561 . S
C1140 C1143 1.526 . S
C1141 H1125 0.959 . S
C1141 H1126 0.959 . S
C1141 H1127 0.961 . S
C1141 C1140 1.502 . S
C1142 H1128 0.960 . S
C1142 H1129 0.961 . S
C1142 H1130 0.959 . S
C1142 C1140 1.561 . S
C1143 C1140 1.526 . S
C1143 C1144 1.396 . S
C1143 C1148 1.390 . S
C1144 C1138 1.465 . S
C1144 C1143 1.396 . S
C1144 C1145 1.399 . S
C1145 H1131 0.929 . S
C1145 C1144 1.399 . S
C1145 C1146 1.385 . S
C1146 H1132 0.931 . S
C1146 C1145 1.385 . S
C1146 C1147 1.389 . S
C1147 C1146 1.389 . S
C1147 C1148 1.387 . S
C1148 H1133 0.930 . S
C1148 C1143 1.390 . S
C1148 C1147 1.387 . S
H1149 C1161 0.930 . S
H1150 C1163 0.930 . S
H1151 C1164 0.930 . S
H1152 C1168 0.959 . S
H1153 C1168 0.959 . S
H1154 C1168 0.961 . S
H1155 C1169 0.960 . S
H1156 C1169 0.961 . S
H1157 C1169 0.959 . S
H1158 C1172 0.929 . S
H1159 C1173 0.931 . S
H1160 C1175 0.930 . S
C1161 H1149 0.930 . S
C1161 C1162 1.399 . S
C1161 C1166 1.399 . S
C1162 C1161 1.399 . S
C1162 C1163 1.376 . S
C1163 H1150 0.930 . S
C1163 C1162 1.376 . S
C1163 C1164 1.388 . S
C1164 H1151 0.930 . S
C1164 C1163 1.388 . S
C1164 C1165 1.390 . S
C1165 C1164 1.390 . S
C1165 C1166 1.394 . S
C1165 C1171 1.465 . S
C1166 C1161 1.399 . S
C1166 C1165 1.394 . S
C1166 C1167 1.516 . S
C1167 C1166 1.516 . S
C1167 C1168 1.502 . S
C1167 C1169 1.561 . S
C1167 C1170 1.526 . S
C1168 H1152 0.959 . S
C1168 H1153 0.959 . S
C1168 H1154 0.961 . S
C1168 C1167 1.502 . S
C1169 H1155 0.960 . S
C1169 H1156 0.961 . S
C1169 H1157 0.959 . S
C1169 C1167 1.561 . S
C1170 C1167 1.526 . S
C1170 C1171 1.396 . S
C1170 C1175 1.390 . S
C1171 C1165 1.465 . S
C1171 C1170 1.396 . S
C1171 C1172 1.399 . S
C1172 H1158 0.929 . S
C1172 C1171 1.399 . S
C1172 C1173 1.385 . S
C1173 H1159 0.931 . S
C1173 C1172 1.385 . S
C1173 C1174 1.389 . S
C1174 C1173 1.389 . S
C1174 C1175 1.387 . S
C1175 H1160 0.930 . S
C1175 C1170 1.390 . S
C1175 C1174 1.387 . S
H1176 C1188 0.930 . S
H1177 C1190 0.930 . S
H1178 C1191 0.930 . S
H1179 C1195 0.959 . S
H1180 C1195 0.959 1_565 S
H1181 C1195 0.961 . S
H1182 C1196 0.960 1_545 S
H1183 C1196 0.961 . S
H1184 C1196 0.959 . S
H1185 C1199 0.929 . S
H1186 C1200 0.931 . S
H1187 C1202 0.930 . S
C1188 H1176 0.930 . S
C1188 C1189 1.399 . S
C1188 C1193 1.399 . S
C1189 C1188 1.399 . S
C1189 C1190 1.376 . S
C1190 H1177 0.930 . S
C1190 C1189 1.376 . S
C1190 C1191 1.388 . S
C1191 H1178 0.930 . S
C1191 C1190 1.388 . S
C1191 C1192 1.390 . S
C1192 C1191 1.390 . S
C1192 C1193 1.394 . S
C1192 C1198 1.462 1_544 S
C1193 C1188 1.399 . S
C1193 C1192 1.394 . S
C1193 C1194 1.501 1_545 S
C1194 C1193 1.501 1_565 S
C1194 C1195 1.499 1_564 S
C1194 C1196 1.566 . S
C1194 C1197 1.541 1_554 S
C1195 H1179 0.959 . S
C1195 H1180 0.959 1_545 S
C1195 H1181 0.961 . S
C1195 C1194 1.499 1_546 S
C1196 H1182 0.960 1_565 S
C1196 H1183 0.961 . S
C1196 H1184 0.959 . S
C1196 C1194 1.566 . S
C1197 C1194 1.541 1_556 S
C1197 C1198 1.398 . S
C1197 C1202 1.390 . S
C1198 C1192 1.462 1_566 S
C1198 C1197 1.398 . S
C1198 C1199 1.401 . S
C1199 H1185 0.929 . S
C1199 C1198 1.401 . S
C1199 C1200 1.385 . S
C1200 H1186 0.931 . S
C1200 C1199 1.385 . S
C1200 C1201 1.389 . S
C1201 C1200 1.389 . S
C1201 C1202 1.387 . S
C1202 H1187 0.930 . S
C1202 C1197 1.390 . S
C1202 C1201 1.387 . S
H1203 C1215 0.930 . S
H1204 C1217 0.930 . S
H1205 C1218 0.930 . S
H1206 C1222 0.959 . S
H1207 C1222 0.959 1_655 S
H1208 C1222 0.961 . S
H1209 C1223 0.960 1_455 S
H1210 C1223 0.961 . S
H1211 C1223 0.959 . S
H1212 C1226 0.929 . S
H1213 C1227 0.931 . S
H1214 C1229 0.930 . S
C1215 H1203 0.930 . S
C1215 C1216 1.399 . S
C1215 C1220 1.399 . S
C1216 C1215 1.399 . S
C1216 C1217 1.376 . S
C1217 H1204 0.930 . S
C1217 C1216 1.376 . S
C1217 C1218 1.388 . S
C1218 H1205 0.930 . S
C1218 C1217 1.388 . S
C1218 C1219 1.390 . S
C1219 C1218 1.390 . S
C1219 C1220 1.394 . S
C1219 C1225 1.465 1_455 S
C1220 C1215 1.399 . S
C1220 C1219 1.394 . S
C1220 C1221 1.560 1_556 S
C1221 C1220 1.560 1_554 S
C1221 C1222 1.514 . S
C1221 C1223 1.552 1_454 S
C1221 C1224 1.479 1_455 S
C1222 H1206 0.959 . S
C1222 H1207 0.959 1_455 S
C1222 H1208 0.961 . S
C1222 C1221 1.514 . S
C1223 H1209 0.960 1_655 S
C1223 H1210 0.961 . S
C1223 H1211 0.959 . S
C1223 C1221 1.552 1_656 S
C1224 C1221 1.479 1_655 S
C1224 C1225 1.396 1_554 S
C1224 C1229 1.390 . S
C1225 C1219 1.465 1_655 S
C1225 C1224 1.396 1_556 S
C1225 C1226 1.399 . S
C1226 H1212 0.929 . S
C1226 C1225 1.399 . S
C1226 C1227 1.385 1_556 S
C1227 H1213 0.931 . S
C1227 C1226 1.385 1_554 S
C1227 C1228 1.389 . S
C1228 C1227 1.389 . S
C1228 C1229 1.387 . S
C1229 H1214 0.930 . S
C1229 C1224 1.390 . S
C1229 C1228 1.387 . S
H1230 C1242 0.930 . S
H1231 C1244 0.930 . S
H1232 C1245 0.930 . S
H1233 C1249 0.959 . S
H1234 C1249 0.959 . S
H1235 C1249 0.961 1_565 S
H1236 C1250 0.941 1_565 S
H1237 C1250 0.961 . S
H1238 C1250 0.959 . S
H1239 C1253 0.929 . S
H1240 C1254 0.931 . S
H1241 C1256 0.930 . S
C1242 H1230 0.930 . S
C1242 C1243 1.399 . S
C1242 C1247 1.399 . S
C1243 C1242 1.399 . S
C1243 C1244 1.376 1_554 S
C1244 H1231 0.930 . S
C1244 C1243 1.376 1_556 S
C1244 C1245 1.388 . S
C1245 H1232 0.930 . S
C1245 C1244 1.388 . S
C1245 C1246 1.390 . S
C1246 C1245 1.390 . S
C1246 C1247 1.394 1_556 S
C1246 C1252 1.465 1_565 S
C1247 C1242 1.399 . S
C1247 C1246 1.394 1_554 S
C1247 C1248 1.516 1_565 S
C1248 C1247 1.516 1_545 S
C1248 C1249 1.502 . S
C1248 C1250 1.561 . S
C1248 C1251 1.526 . S
C1249 H1233 0.959 . S
C1249 H1234 0.959 . S
C1249 H1235 0.961 1_545 S
C1249 C1248 1.502 . S
C1250 H1236 0.941 1_545 S
C1250 H1237 0.961 . S
C1250 H1238 0.959 . S
C1250 C1248 1.561 . S
C1251 C1248 1.526 . S
C1251 C1252 1.396 1_554 S
C1251 C1256 1.390 . S
C1252 C1246 1.465 1_545 S
C1252 C1251 1.396 1_556 S
C1252 C1253 1.399 . S
C1253 H1239 0.929 . S
C1253 C1252 1.399 . S
C1253 C1254 1.385 . S
C1254 H1240 0.931 . S
C1254 C1253 1.385 . S
C1254 C1255 1.389 . S
C1255 C1254 1.389 . S
C1255 C1256 1.387 1_556 S
C1256 H1241 0.930 . S
C1256 C1251 1.390 . S
C1256 C1255 1.387 1_554 S
H1257 C1269 0.930 . S
H1258 C1271 0.930 . S
H1259 C1272 0.930 . S
H1260 C1276 0.959 . S
H1261 C1276 0.940 1_455 S
H1262 C1276 0.961 . S
H1263 C1277 0.960 . S
H1264 C1277 0.964 . S
H1265 C1277 0.959 . S
H1266 C1280 0.929 . S
H1267 C1281 0.931 . S
H1268 C1283 0.930 . S
C1269 H1257 0.930 . S
C1269 C1270 1.399 1_554 S
C1269 C1274 1.399 . S
C1270 C1269 1.399 1_556 S
C1270 C1271 1.376 . S
C1271 H1258 0.930 . S
C1271 C1270 1.376 . S
C1271 C1272 1.388 . S
C1272 H1259 0.930 . S
C1272 C1271 1.388 . S
C1272 C1273 1.390 . S
C1273 C1272 1.390 . S
C1273 C1274 1.394 1_556 S
C1273 C1279 1.465 1_655 S
C1274 C1269 1.399 . S
C1274 C1273 1.394 1_554 S
C1274 C1275 1.516 . S
C1275 C1274 1.516 . S
C1275 C1276 1.502 . S
C1275 C1277 1.561 . S
C1275 C1278 1.526 1_655 S
C1276 H1260 0.959 . S
C1276 H1261 0.940 1_655 S
C1276 H1262 0.961 . S
C1276 C1275 1.502 . S
C1277 H1263 0.960 . S
C1277 H1264 0.964 . S
C1277 H1265 0.959 . S
C1277 C1275 1.561 . S
C1278 C1275 1.526 1_455 S
C1278 C1279 1.396 1_554 S
C1278 C1283 1.390 . S
C1279 C1273 1.465 1_455 S
C1279 C1278 1.396 1_556 S
C1279 C1280 1.399 . S
C1280 H1266 0.929 . S
C1280 C1279 1.399 . S
C1280 C1281 1.385 . S
C1281 H1267 0.931 . S
C1281 C1280 1.385 . S
C1281 C1282 1.389 1_556 S
C1282 C1281 1.389 1_554 S
C1282 C1283 1.387 . S
C1283 H1268 0.930 . S
C1283 C1278 1.390 . S
C1283 C1282 1.387 . S
H1284 C1296 0.930 . S
H1285 C1298 0.930 . S
H1286 C1299 0.930 . S
H1287 C1303 0.959 . S
H1288 C1303 0.959 . S
H1289 C1303 0.961 . S
H1290 C1304 0.960 . S
H1291 C1304 0.961 . S
H1292 C1304 0.959 . S
H1293 C1307 0.929 . S
H1294 C1308 0.931 . S
H1295 C1310 0.930 . S
C1296 H1284 0.930 . S
C1296 C1297 1.399 . S
C1296 C1301 1.399 . S
C1297 C1296 1.399 . S
C1297 C1298 1.376 . S
C1298 H1285 0.930 . S
C1298 C1297 1.376 . S
C1298 C1299 1.388 . S
C1299 H1286 0.930 . S
C1299 C1298 1.388 . S
C1299 C1300 1.390 . S
C1300 C1299 1.390 . S
C1300 C1301 1.394 . S
C1300 C1306 1.465 . S
C1301 C1296 1.399 . S
C1301 C1300 1.394 . S
C1301 C1302 1.516 . S
C1302 C1301 1.516 . S
C1302 C1303 1.502 . S
C1302 C1304 1.561 . S
C1302 C1305 1.526 . S
C1303 H1287 0.959 . S
C1303 H1288 0.959 . S
C1303 H1289 0.961 . S
C1303 C1302 1.502 . S
C1304 H1290 0.960 . S
C1304 H1291 0.961 . S
C1304 H1292 0.959 . S
C1304 C1302 1.561 . S
C1305 C1302 1.526 . S
C1305 C1306 1.396 . S
C1305 C1310 1.390 . S
C1306 C1300 1.465 . S
C1306 C1305 1.396 . S
C1306 C1307 1.399 . S
C1307 H1293 0.929 . S
C1307 C1306 1.399 . S
C1307 C1308 1.385 . S
C1308 H1294 0.931 . S
C1308 C1307 1.385 . S
C1308 C1309 1.389 . S
C1309 C1308 1.389 . S
C1309 C1310 1.387 . S
C1310 H1295 0.930 . S
C1310 C1305 1.390 . S
C1310 C1309 1.387 . S
H1311 C1323 0.930 . S
H1312 C1325 0.930 . S
H1313 C1326 0.930 . S
H1314 C1330 0.959 . S
H1315 C1330 0.959 . S
H1316 C1330 0.961 . S
H1317 C1331 0.960 . S
H1318 C1331 0.961 . S
H1319 C1331 0.959 . S
H1320 C1334 0.929 . S
H1321 C1335 0.931 . S
H1322 C1337 0.930 . S
C1323 H1311 0.930 . S
C1323 C1324 1.399 . S
C1323 C1328 1.399 . S
C1324 C1323 1.399 . S
C1324 C1325 1.376 . S
C1325 H1312 0.930 . S
C1325 C1324 1.376 . S
C1325 C1326 1.388 . S
C1326 H1313 0.930 . S
C1326 C1325 1.388 . S
C1326 C1327 1.390 . S
C1327 C1326 1.390 . S
C1327 C1328 1.394 . S
C1327 C1333 1.465 . S
C1328 C1323 1.399 . S
C1328 C1327 1.394 . S
C1328 C1329 1.516 . S
C1329 C1328 1.516 . S
C1329 C1330 1.502 . S
C1329 C1331 1.561 . S
C1329 C1332 1.526 . S
C1330 H1314 0.959 . S
C1330 H1315 0.959 . S
C1330 H1316 0.961 . S
C1330 C1329 1.502 . S
C1331 H1317 0.960 . S
C1331 H1318 0.961 . S
C1331 H1319 0.959 . S
C1331 C1329 1.561 . S
C1332 C1329 1.526 . S
C1332 C1333 1.396 . S
C1332 C1337 1.390 . S
C1333 C1327 1.465 . S
C1333 C1332 1.396 . S
C1333 C1334 1.399 . S
C1334 H1320 0.929 . S
C1334 C1333 1.399 . S
C1334 C1335 1.385 . S
C1335 H1321 0.931 . S
C1335 C1334 1.385 . S
C1335 C1336 1.389 . S
C1336 C1335 1.389 . S
C1336 C1337 1.387 . S
C1337 H1322 0.930 . S
C1337 C1332 1.390 . S
C1337 C1336 1.387 . S
H1338 C1350 0.930 . S
H1339 C1352 0.930 . S
H1340 C1353 0.930 . S
H1341 C1357 0.959 . S
H1342 C1357 0.959 . S
H1343 C1357 0.961 . S
H1344 C1358 0.960 . S
H1345 C1358 0.961 . S
H1346 C1358 0.959 . S
H1347 C1361 0.929 . S
H1348 C1362 0.931 . S
H1349 C1364 0.930 . S
C1350 H1338 0.930 . S
C1350 C1351 1.399 . S
C1350 C1355 1.399 . S
C1351 C1350 1.399 . S
C1351 C1352 1.376 . S
C1352 H1339 0.930 . S
C1352 C1351 1.376 . S
C1352 C1353 1.388 . S
C1353 H1340 0.930 . S
C1353 C1352 1.388 . S
C1353 C1354 1.390 . S
C1354 C1353 1.390 . S
C1354 C1355 1.394 . S
C1354 C1360 1.465 . S
C1355 C1350 1.399 . S
C1355 C1354 1.394 . S
C1355 C1356 1.516 . S
C1356 C1355 1.516 . S
C1356 C1357 1.502 . S
C1356 C1358 1.561 . S
C1356 C1359 1.526 . S
C1357 H1341 0.959 . S
C1357 H1342 0.959 . S
C1357 H1343 0.961 . S
C1357 C1356 1.502 . S
C1358 H1344 0.960 . S
C1358 H1345 0.961 . S
C1358 H1346 0.959 . S
C1358 C1356 1.561 . S
C1359 C1356 1.526 . S
C1359 C1360 1.396 . S
C1359 C1364 1.390 . S
C1360 C1354 1.465 . S
C1360 C1359 1.396 . S
C1360 C1361 1.399 . S
C1361 H1347 0.929 . S
C1361 C1360 1.399 . S
C1361 C1362 1.385 . S
C1362 H1348 0.931 . S
C1362 C1361 1.385 . S
C1362 C1363 1.389 . S
C1363 C1362 1.389 . S
C1363 C1364 1.387 . S
C1364 H1349 0.930 . S
C1364 C1359 1.390 . S
C1364 C1363 1.387 . S
H1365 C1377 0.930 . S
H1366 C1379 0.930 . S
H1367 C1380 0.930 . S
H1368 C1384 0.959 . S
H1369 C1384 0.959 . S
H1370 C1384 0.961 . S
H1371 C1385 0.960 . S
H1372 C1385 0.961 . S
H1373 C1385 0.959 . S
H1374 C1388 0.929 . S
H1375 C1389 0.931 . S
H1376 C1391 0.930 . S
C1377 H1365 0.930 . S
C1377 C1378 1.399 . S
C1377 C1382 1.399 . S
C1378 C1377 1.399 . S
C1378 C1379 1.376 . S
C1379 H1366 0.930 . S
C1379 C1378 1.376 . S
C1379 C1380 1.388 . S
C1380 H1367 0.930 . S
C1380 C1379 1.388 . S
C1380 C1381 1.390 . S
C1381 C1380 1.390 . S
C1381 C1382 1.394 . S
C1381 C1387 1.465 . S
C1382 C1377 1.399 . S
C1382 C1381 1.394 . S
C1382 C1383 1.516 . S
C1383 C1382 1.516 . S
C1383 C1384 1.502 . S
C1383 C1385 1.561 . S
C1383 C1386 1.526 . S
C1384 H1368 0.959 . S
C1384 H1369 0.959 . S
C1384 H1370 0.961 . S
C1384 C1383 1.502 . S
C1385 H1371 0.960 . S
C1385 H1372 0.961 . S
C1385 H1373 0.959 . S
C1385 C1383 1.561 . S
C1386 C1383 1.526 . S
C1386 C1387 1.396 . S
C1386 C1391 1.390 . S
C1387 C1381 1.465 . S
C1387 C1386 1.396 . S
C1387 C1388 1.399 . S
C1388 H1374 0.929 . S
C1388 C1387 1.399 . S
C1388 C1389 1.385 . S
C1389 H1375 0.931 . S
C1389 C1388 1.385 . S
C1389 C1390 1.389 . S
C1390 C1389 1.389 . S
C1390 C1391 1.387 . S
C1391 H1376 0.930 . S
C1391 C1386 1.390 . S
C1391 C1390 1.387 . S
H1392 C1404 0.930 . S
H1393 C1406 0.930 . S
H1394 C1407 0.930 . S
H1395 C1411 0.959 . S
H1396 C1411 0.959 . S
H1397 C1411 0.961 . S
H1398 C1412 0.960 . S
H1399 C1412 0.961 . S
H1400 C1412 0.959 . S
H1401 C1415 0.929 . S
H1402 C1416 0.931 . S
H1403 C1418 0.930 . S
C1404 H1392 0.930 . S
C1404 C1405 1.399 . S
C1404 C1409 1.399 . S
C1405 C1404 1.399 . S
C1405 C1406 1.376 1_554 S
C1406 H1393 0.930 . S
C1406 C1405 1.376 1_556 S
C1406 C1407 1.388 . S
C1407 H1394 0.930 . S
C1407 C1406 1.388 . S
C1407 C1408 1.390 . S
C1408 C1407 1.390 . S
C1408 C1409 1.394 1_556 S
C1408 C1414 1.465 . S
C1409 C1404 1.399 . S
C1409 C1408 1.394 1_554 S
C1409 C1410 1.516 . S
C1410 C1409 1.516 . S
C1410 C1411 1.502 . S
C1410 C1412 1.561 . S
C1410 C1413 1.526 . S
C1411 H1395 0.959 . S
C1411 H1396 0.959 . S
C1411 H1397 0.961 . S
C1411 C1410 1.502 . S
C1412 H1398 0.960 . S
C1412 H1399 0.961 . S
C1412 H1400 0.959 . S
C1412 C1410 1.561 . S
C1413 C1410 1.526 . S
C1413 C1414 1.396 1_554 S
C1413 C1418 1.390 . S
C1414 C1408 1.465 . S
C1414 C1413 1.396 1_556 S
C1414 C1415 1.399 . S
C1415 H1401 0.929 . S
C1415 C1414 1.399 . S
C1415 C1416 1.385 . S
C1416 H1402 0.931 . S
C1416 C1415 1.385 . S
C1416 C1417 1.389 . S
C1417 C1416 1.389 . S
C1417 C1418 1.387 1_556 S
C1418 H1403 0.930 . S
C1418 C1413 1.390 . S
C1418 C1417 1.387 1_554 S
H1419 C1431 0.933 . S
H1420 C1433 0.930 . S
H1421 C1434 0.930 . S
H1422 C1438 0.959 . S
H1423 C1438 0.959 . S
H1424 C1438 0.961 . S
H1425 C1439 0.960 . S
H1426 C1439 0.961 . S
H1427 C1439 0.959 . S
H1428 C1442 0.929 . S
H1429 C1443 0.931 . S
H1430 C1445 0.930 . S
C1431 H1419 0.933 . S
C1431 C1432 1.395 1_556 S
C1431 C1436 1.400 . S
C1432 C1431 1.395 1_554 S
C1432 C1433 1.376 . S
C1433 H1420 0.930 . S
C1433 C1432 1.376 . S
C1433 C1434 1.388 . S
C1434 H1421 0.930 . S
C1434 C1433 1.388 . S
C1434 C1435 1.390 . S
C1435 C1434 1.390 . S
C1435 C1436 1.394 1_554 S
C1435 C1441 1.465 . S
C1436 C1431 1.400 . S
C1436 C1435 1.394 1_556 S
C1436 C1437 1.516 . S
C1437 C1436 1.516 . S
C1437 C1438 1.502 . S
C1437 C1439 1.561 . S
C1437 C1440 1.526 . S
C1438 H1422 0.959 . S
C1438 H1423 0.959 . S
C1438 H1424 0.961 . S
C1438 C1437 1.502 . S
C1439 H1425 0.960 . S
C1439 H1426 0.961 . S
C1439 H1427 0.959 . S
C1439 C1437 1.561 . S
C1440 C1437 1.526 . S
C1440 C1441 1.396 1_556 S
C1440 C1445 1.390 . S
C1441 C1435 1.465 . S
C1441 C1440 1.396 1_554 S
C1441 C1442 1.399 . S
C1442 H1428 0.929 . S
C1442 C1441 1.399 . S
C1442 C1443 1.385 . S
C1443 H1429 0.931 . S
C1443 C1442 1.385 . S
C1443 C1444 1.389 1_554 S
C1444 C1443 1.389 1_556 S
C1444 C1445 1.387 . S
C1445 H1430 0.930 . S
C1445 C1440 1.390 . S
C1445 C1444 1.387 . S
H1446 C1458 0.930 . S
H1447 C1460 0.930 . S
H1448 C1461 0.930 . S
H1449 C1465 0.959 . S
H1450 C1465 0.959 . S
H1451 C1465 0.961 . S
H1452 C1466 0.960 . S
H1453 C1466 0.961 . S
H1454 C1466 0.959 1_554 S
H1455 C1469 0.929 . S
H1456 C1470 0.931 . S
H1457 C1472 0.930 1_556 S
C1458 H1446 0.930 . S
C1458 C1459 1.399 . S
C1458 C1463 1.399 . S
C1459 C1458 1.399 . S
C1459 C1460 1.376 1_556 S
C1460 H1447 0.930 . S
C1460 C1459 1.376 1_554 S
C1460 C1461 1.388 . S
C1461 H1448 0.930 . S
C1461 C1460 1.388 . S
C1461 C1462 1.390 . S
C1462 C1461 1.390 . S
C1462 C1463 1.394 1_554 S
C1462 C1468 1.465 . S
C1463 C1458 1.399 . S
C1463 C1462 1.394 1_556 S
C1463 C1464 1.516 . S
C1464 C1463 1.516 . S
C1464 C1465 1.502 . S
C1464 C1466 1.561 . S
C1464 C1467 1.526 . S
C1465 H1449 0.959 . S
C1465 H1450 0.959 . S
C1465 H1451 0.961 . S
C1465 C1464 1.502 . S
C1466 H1452 0.960 . S
C1466 H1453 0.961 . S
C1466 H1454 0.959 1_556 S
C1466 C1464 1.561 . S
C1467 C1464 1.526 . S
C1467 C1468 1.396 1_556 S
C1467 C1472 1.390 1_556 S
C1468 C1462 1.465 . S
C1468 C1467 1.396 1_554 S
C1468 C1469 1.399 . S
C1469 H1455 0.929 . S
C1469 C1468 1.399 . S
C1469 C1470 1.385 . S
C1470 H1456 0.931 . S
C1470 C1469 1.385 . S
C1470 C1471 1.389 . S
C1471 C1470 1.389 . S
C1471 C1472 1.387 . S
C1472 H1457 0.930 1_554 S
C1472 C1467 1.390 1_554 S
C1472 C1471 1.387 . S
H1473 C1485 0.929 1_556 S
H1474 C1487 0.930 . S
H1475 C1488 0.930 . S
H1476 C1492 0.959 . S
H1477 C1492 0.959 . S
H1478 C1492 0.961 . S
H1479 C1493 0.960 . S
H1480 C1493 0.961 . S
H1481 C1493 0.959 . S
H1482 C1496 0.929 . S
H1483 C1497 0.931 . S
H1484 C1499 0.930 . S
C1485 H1473 0.929 1_554 S
C1485 C1486 1.400 . S
C1485 C1490 1.399 1_554 S
C1486 C1485 1.400 . S
C1486 C1487 1.376 . S
C1487 H1474 0.930 . S
C1487 C1486 1.376 . S
C1487 C1488 1.388 . S
C1488 H1475 0.930 . S
C1488 C1487 1.388 . S
C1488 C1489 1.390 . S
C1489 C1488 1.390 . S
C1489 C1490 1.394 1_554 S
C1489 C1495 1.465 . S
C1490 C1485 1.399 1_556 S
C1490 C1489 1.394 1_556 S
C1490 C1491 1.516 . S
C1491 C1490 1.516 . S
C1491 C1492 1.502 . S
C1491 C1493 1.561 . S
C1491 C1494 1.526 . S
C1492 H1476 0.959 . S
C1492 H1477 0.959 . S
C1492 H1478 0.961 . S
C1492 C1491 1.502 . S
C1493 H1479 0.960 . S
C1493 H1480 0.961 . S
C1493 H1481 0.959 . S
C1493 C1491 1.561 . S
C1494 C1491 1.526 . S
C1494 C1495 1.396 1_556 S
C1494 C1499 1.390 . S
C1495 C1489 1.465 . S
C1495 C1494 1.396 1_554 S
C1495 C1496 1.399 . S
C1496 H1482 0.929 . S
C1496 C1495 1.399 . S
C1496 C1497 1.385 . S
C1497 H1483 0.931 . S
C1497 C1496 1.385 . S
C1497 C1498 1.389 1_554 S
C1498 C1497 1.389 1_556 S
C1498 C1499 1.387 . S
C1499 H1484 0.930 . S
C1499 C1494 1.390 . S
C1499 C1498 1.387 . S
H1500 C1512 0.930 . S
H1501 C1514 0.930 . S
H1502 C1515 0.930 . S
H1503 C1519 0.959 . S
H1504 C1519 0.959 . S
H1505 C1519 0.961 . S
H1506 C1520 0.960 . S
H1507 C1520 0.961 . S
H1508 C1520 0.959 . S
H1509 C1523 0.929 . S
H1510 C1524 0.931 . S
H1511 C1526 0.930 . S
C1512 H1500 0.930 . S
C1512 C1513 1.399 . S
C1512 C1517 1.399 . S
C1513 C1512 1.399 . S
C1513 C1514 1.376 . S
C1514 H1501 0.930 . S
C1514 C1513 1.376 . S
C1514 C1515 1.388 . S
C1515 H1502 0.930 . S
C1515 C1514 1.388 . S
C1515 C1516 1.390 . S
C1516 C1515 1.390 . S
C1516 C1517 1.394 . S
C1516 C1522 1.465 . S
C1517 C1512 1.399 . S
C1517 C1516 1.394 . S
C1517 C1518 1.516 . S
C1518 C1517 1.516 . S
C1518 C1519 1.502 . S
C1518 C1520 1.561 . S
C1518 C1521 1.526 . S
C1519 H1503 0.959 . S
C1519 H1504 0.959 . S
C1519 H1505 0.961 . S
C1519 C1518 1.502 . S
C1520 H1506 0.960 . S
C1520 H1507 0.961 . S
C1520 H1508 0.959 . S
C1520 C1518 1.561 . S
C1521 C1518 1.526 . S
C1521 C1522 1.396 . S
C1521 C1526 1.390 . S
C1522 C1516 1.465 . S
C1522 C1521 1.396 . S
C1522 C1523 1.399 . S
C1523 H1509 0.929 . S
C1523 C1522 1.399 . S
C1523 C1524 1.385 . S
C1524 H1510 0.931 . S
C1524 C1523 1.385 . S
C1524 C1525 1.389 . S
C1525 C1524 1.389 . S
C1525 C1526 1.387 . S
C1526 H1511 0.930 . S
C1526 C1521 1.390 . S
C1526 C1525 1.387 . S
H1527 C1539 0.930 . S
H1528 C1541 0.930 . S
H1529 C1542 0.930 . S
H1530 C1546 0.959 . S
H1531 C1546 0.959 . S
H1532 C1546 0.961 . S
H1533 C1547 0.960 . S
H1534 C1547 0.961 . S
H1535 C1547 0.959 . S
H1536 C1550 0.929 . S
H1537 C1551 0.931 . S
H1538 C1553 0.930 . S
C1539 H1527 0.930 . S
C1539 C1540 1.399 . S
C1539 C1544 1.399 . S
C1540 C1539 1.399 . S
C1540 C1541 1.376 . S
C1541 H1528 0.930 . S
C1541 C1540 1.376 . S
C1541 C1542 1.388 . S
C1542 H1529 0.930 . S
C1542 C1541 1.388 . S
C1542 C1543 1.390 . S
C1543 C1542 1.390 . S
C1543 C1544 1.394 . S
C1543 C1549 1.465 . S
C1544 C1539 1.399 . S
C1544 C1543 1.394 . S
C1544 C1545 1.516 . S
C1545 C1544 1.516 . S
C1545 C1546 1.502 . S
C1545 C1547 1.561 . S
C1545 C1548 1.526 . S
C1546 H1530 0.959 . S
C1546 H1531 0.959 . S
C1546 H1532 0.961 . S
C1546 C1545 1.502 . S
C1547 H1533 0.960 . S
C1547 H1534 0.961 . S
C1547 H1535 0.959 . S
C1547 C1545 1.561 . S
C1548 C1545 1.526 . S
C1548 C1549 1.396 . S
C1548 C1553 1.390 . S
C1549 C1543 1.465 . S
C1549 C1548 1.396 . S
C1549 C1550 1.399 . S
C1550 H1536 0.929 . S
C1550 C1549 1.399 . S
C1550 C1551 1.385 . S
C1551 H1537 0.931 . S
C1551 C1550 1.385 . S
C1551 C1552 1.389 . S
C1552 C1551 1.389 . S
C1552 C1553 1.387 . S
C1553 H1538 0.930 . S
C1553 C1548 1.390 . S
C1553 C1552 1.387 . S
H1554 C1566 0.930 . S
H1555 C1568 0.930 . S
H1556 C1569 0.930 . S
H1557 C1573 0.959 . S
H1558 C1573 0.959 . S
H1559 C1573 0.961 . S
H1560 C1574 0.960 . S
H1561 C1574 0.961 . S
H1562 C1574 0.959 . S
H1563 C1577 0.929 . S
H1564 C1578 0.931 . S
H1565 C1580 0.930 . S
C1566 H1554 0.930 . S
C1566 C1567 1.399 . S
C1566 C1571 1.399 . S
C1567 C1566 1.399 . S
C1567 C1568 1.376 . S
C1568 H1555 0.930 . S
C1568 C1567 1.376 . S
C1568 C1569 1.388 . S
C1569 H1556 0.930 . S
C1569 C1568 1.388 . S
C1569 C1570 1.390 . S
C1570 C1569 1.390 . S
C1570 C1571 1.394 . S
C1570 C1576 1.465 . S
C1571 C1566 1.399 . S
C1571 C1570 1.394 . S
C1571 C1572 1.516 . S
C1572 C1571 1.516 . S
C1572 C1573 1.502 . S
C1572 C1574 1.561 . S
C1572 C1575 1.526 . S
C1573 H1557 0.959 . S
C1573 H1558 0.959 . S
C1573 H1559 0.961 . S
C1573 C1572 1.502 . S
C1574 H1560 0.960 . S
C1574 H1561 0.961 . S
C1574 H1562 0.959 . S
C1574 C1572 1.561 . S
C1575 C1572 1.526 . S
C1575 C1576 1.396 . S
C1575 C1580 1.390 . S
C1576 C1570 1.465 . S
C1576 C1575 1.396 . S
C1576 C1577 1.399 . S
C1577 H1563 0.929 . S
C1577 C1576 1.399 . S
C1577 C1578 1.385 . S
C1578 H1564 0.931 . S
C1578 C1577 1.385 . S
C1578 C1579 1.389 . S
C1579 C1578 1.389 . S
C1579 C1580 1.387 . S
C1580 H1565 0.930 . S
C1580 C1575 1.390 . S
C1580 C1579 1.387 . S
H1581 C1593 0.930 . S
H1582 C1595 0.930 . S
H1583 C1596 0.930 . S
H1584 C1600 0.959 . S
H1585 C1600 0.959 . S
H1586 C1600 0.961 . S
H1587 C1601 0.960 . S
H1588 C1601 0.961 . S
H1589 C1601 0.959 . S
H1590 C1604 0.929 . S
H1591 C1605 0.931 . S
H1592 C1607 0.930 . S
C1593 H1581 0.930 . S
C1593 C1594 1.399 . S
C1593 C1598 1.399 . S
C1594 C1593 1.399 . S
C1594 C1595 1.376 . S
C1595 H1582 0.930 . S
C1595 C1594 1.376 . S
C1595 C1596 1.388 . S
C1596 H1583 0.930 . S
C1596 C1595 1.388 . S
C1596 C1597 1.390 . S
C1597 C1596 1.390 . S
C1597 C1598 1.394 . S
C1597 C1603 1.465 . S
C1598 C1593 1.399 . S
C1598 C1597 1.394 . S
C1598 C1599 1.516 . S
C1599 C1598 1.516 . S
C1599 C1600 1.502 . S
C1599 C1601 1.561 . S
C1599 C1602 1.526 . S
C1600 H1584 0.959 . S
C1600 H1585 0.959 . S
C1600 H1586 0.961 . S
C1600 C1599 1.502 . S
C1601 H1587 0.960 . S
C1601 H1588 0.961 . S
C1601 H1589 0.959 . S
C1601 C1599 1.561 . S
C1602 C1599 1.526 . S
C1602 C1603 1.396 . S
C1602 C1607 1.390 . S
C1603 C1597 1.465 . S
C1603 C1602 1.396 . S
C1603 C1604 1.399 . S
C1604 H1590 0.929 . S
C1604 C1603 1.399 . S
C1604 C1605 1.385 . S
C1605 H1591 0.931 . S
C1605 C1604 1.385 . S
C1605 C1606 1.389 . S
C1606 C1605 1.389 . S
C1606 C1607 1.387 . S
C1607 H1592 0.930 . S
C1607 C1602 1.390 . S
C1607 C1606 1.387 . S
C541 N13 1.306 . S
C553 N2 1.248 . S
C568 N46 1.299 . S
C580 N35 1.269 . S
C595 N68 1.295 . S
C607 N79 1.258 . S
C622 N101 1.247 . S
C634 N112 1.305 . S
C649 N145 1.311 . S
C661 N134 1.245 . S
C676 N167 1.248 . S
C688 N178 1.312 . S
C703 N200 1.262 . S
C715 N211 1.304 . S
C730 N233 1.312 . S
C742 N244 1.253 . S
C757 N277 1.307 . S
C769 N266 1.247 . S
C784 N310 1.282 . S
C796 N299 1.287 . S
C811 N343 1.308 . S
C823 N332 1.246 . S
C838 N376 1.270 . S
C850 N365 1.280 . S
C865 N398 1.263 . S
C877 N409 1.303 . S
C892 N431 1.250 . S
C904 N442 1.311 . S
C919 N464 1.263 . S
C931 N475 1.303 . S
C946 N497 1.248 . S
C958 N508 1.305 . S
C973 C7 1.423 . S
C985 C502 1.369 . S
C1000 C403 1.422 . S
C1012 C40 1.431 . S
C1027 C436 1.400 . S
C1039 C73 1.376 . S
C1054 C469 1.423 . S
C1066 C106 1.369 . S
C1081 C304 1.441 . S
C1093 C139 1.404 . S
C1108 C172 1.376 . S
C1120 C337 1.438 . S
C1135 C205 1.368 . S
C1147 C370 1.425 . S
C1162 C271 1.371 . S
C1174 C238 1.432 . S
C1189 C18 1.158 . S
C1201 C150 1.151 . S
C1216 C183 1.160 . S
C1228 C51 1.149 . S
C1243 C84 1.145 . S
C1255 C216 1.162 . S
C1270 C249 1.160 . S
C1282 C117 1.142 . S
C1297 C414 1.160 . S
C1309 C282 1.142 . S
C1324 C315 1.146 . S
C1336 C447 1.153 . S
C1351 C348 1.145 . S
C1363 C480 1.162 . S
C1378 C381 1.160 . S
C1390 C513 1.149 . S
C1405 C21 1.504 . S
C1417 C186 1.536 . S
C1432 C54 1.544 . S
C1444 C219 1.524 . S
C1459 C252 1.515 . S
C1471 C87 1.545 . S
C1486 C120 1.544 . S
C1498 C153 1.525 . S
C1513 C450 1.504 . S
C1525 C285 1.532 . S
C1540 C318 1.504 . S
C1552 C483 1.530 . S
C1567 C516 1.544 . S
C1579 C351 1.524 . S
C1594 C417 1.545 . S
C1606 C384 1.518 . S
