# Generated by pormake.
# Topology wga, (5)-cn, num edge types: 1
# Building blocks:
#     Node 0, Type 0, BuildingBlock: XOMCOT_clean_sbu_0, # of connection points: 5
#     Node 1, Type 0, BuildingBlock: XOMCOT_clean_sbu_0, # of connection points: 5
#     Node 2, Type 0, BuildingBlock: XOMCOT_clean_sbu_0, # of connection points: 5
#     Node 3, Type 0, BuildingBlock: XOMCOT_clean_sbu_0, # of connection points: 5
#     Node 4, Type 0, BuildingBlock: XOMCOT_clean_sbu_0, # of connection points: 5
#     Node 5, Type 0, BuildingBlock: XOMCOT_clean_sbu_0, # of connection points: 5
#     Node 6, Type 0, BuildingBlock: XOMCOT_clean_sbu_0, # of connection points: 5
#     Node 7, Type 0, BuildingBlock: XOMCOT_clean_sbu_0, # of connection points: 5
#     Node 8, Type 0, BuildingBlock: XOMCOT_clean_sbu_0, # of connection points: 5
#     Node 9, Type 0, BuildingBlock: XOMCOT_clean_sbu_0, # of connection points: 5
#     Node 10, Type 0, BuildingBlock: XOMCOT_clean_sbu_0, # of connection points: 5
#     Node 11, Type 0, BuildingBlock: XOMCOT_clean_sbu_0, # of connection points: 5
#     Node 12, Type 0, BuildingBlock: XOMCOT_clean_sbu_0, # of connection points: 5
#     Node 13, Type 0, BuildingBlock: XOMCOT_clean_sbu_0, # of connection points: 5
#     Node 14, Type 0, BuildingBlock: XOMCOT_clean_sbu_0, # of connection points: 5
#     Node 15, Type 0, BuildingBlock: XOMCOT_clean_sbu_0, # of connection points: 5
#     Node 16, Type 0, BuildingBlock: XOMCOT_clean_sbu_0, # of connection points: 5
#     Node 17, Type 0, BuildingBlock: XOMCOT_clean_sbu_0, # of connection points: 5
#     Node 18, Type 0, BuildingBlock: XOMCOT_clean_sbu_0, # of connection points: 5
#     Node 19, Type 0, BuildingBlock: XOMCOT_clean_sbu_0, # of connection points: 5
#     Node 20, Type 0, BuildingBlock: XOMCOT_clean_sbu_0, # of connection points: 5
#     Node 21, Type 0, BuildingBlock: XOMCOT_clean_sbu_0, # of connection points: 5
#     Node 22, Type 0, BuildingBlock: XOMCOT_clean_sbu_0, # of connection points: 5
#     Node 23, Type 0, BuildingBlock: XOMCOT_clean_sbu_0, # of connection points: 5
#     Node 24, Type 0, BuildingBlock: XOMCOT_clean_sbu_0, # of connection points: 5
#     Node 25, Type 0, BuildingBlock: XOMCOT_clean_sbu_0, # of connection points: 5
#     Node 26, Type 0, BuildingBlock: XOMCOT_clean_sbu_0, # of connection points: 5
#     Node 27, Type 0, BuildingBlock: XOMCOT_clean_sbu_0, # of connection points: 5
#     Node 28, Type 0, BuildingBlock: XOMCOT_clean_sbu_0, # of connection points: 5
#     Node 29, Type 0, BuildingBlock: XOMCOT_clean_sbu_0, # of connection points: 5
#     Node 30, Type 0, BuildingBlock: XOMCOT_clean_sbu_0, # of connection points: 5
#     Node 31, Type 0, BuildingBlock: XOMCOT_clean_sbu_0, # of connection points: 5
#     Edge 32, Type (0, 0), BuildingBlock: AJUNOK_clean_linker_0, # of connection points: 2
#     Edge 33, Type (0, 0), BuildingBlock: AJUNOK_clean_linker_0, # of connection points: 2
#     Edge 34, Type (0, 0), BuildingBlock: AJUNOK_clean_linker_0, # of connection points: 2
#     Edge 35, Type (0, 0), BuildingBlock: AJUNOK_clean_linker_0, # of connection points: 2
#     Edge 36, Type (0, 0), BuildingBlock: AJUNOK_clean_linker_0, # of connection points: 2
#     Edge 37, Type (0, 0), BuildingBlock: AJUNOK_clean_linker_0, # of connection points: 2
#     Edge 38, Type (0, 0), BuildingBlock: AJUNOK_clean_linker_0, # of connection points: 2
#     Edge 39, Type (0, 0), BuildingBlock: AJUNOK_clean_linker_0, # of connection points: 2
#     Edge 40, Type (0, 0), BuildingBlock: AJUNOK_clean_linker_0, # of connection points: 2
#     Edge 41, Type (0, 0), BuildingBlock: AJUNOK_clean_linker_0, # of connection points: 2
#     Edge 42, Type (0, 0), BuildingBlock: AJUNOK_clean_linker_0, # of connection points: 2
#     Edge 43, Type (0, 0), BuildingBlock: AJUNOK_clean_linker_0, # of connection points: 2
#     Edge 44, Type (0, 0), BuildingBlock: AJUNOK_clean_linker_0, # of connection points: 2
#     Edge 45, Type (0, 0), BuildingBlock: AJUNOK_clean_linker_0, # of connection points: 2
#     Edge 46, Type (0, 0), BuildingBlock: AJUNOK_clean_linker_0, # of connection points: 2
#     Edge 47, Type (0, 0), BuildingBlock: AJUNOK_clean_linker_0, # of connection points: 2
#     Edge 48, Type (0, 0), BuildingBlock: AJUNOK_clean_linker_0, # of connection points: 2
#     Edge 49, Type (0, 0), BuildingBlock: AJUNOK_clean_linker_0, # of connection points: 2
#     Edge 50, Type (0, 0), BuildingBlock: AJUNOK_clean_linker_0, # of connection points: 2
#     Edge 51, Type (0, 0), BuildingBlock: AJUNOK_clean_linker_0, # of connection points: 2
#     Edge 52, Type (0, 0), BuildingBlock: AJUNOK_clean_linker_0, # of connection points: 2
#     Edge 53, Type (0, 0), BuildingBlock: AJUNOK_clean_linker_0, # of connection points: 2
#     Edge 54, Type (0, 0), BuildingBlock: AJUNOK_clean_linker_0, # of connection points: 2
#     Edge 55, Type (0, 0), BuildingBlock: AJUNOK_clean_linker_0, # of connection points: 2
#     Edge 56, Type (0, 0), BuildingBlock: AJUNOK_clean_linker_0, # of connection points: 2
#     Edge 57, Type (0, 0), BuildingBlock: AJUNOK_clean_linker_0, # of connection points: 2
#     Edge 58, Type (0, 0), BuildingBlock: AJUNOK_clean_linker_0, # of connection points: 2
#     Edge 59, Type (0, 0), BuildingBlock: AJUNOK_clean_linker_0, # of connection points: 2
#     Edge 60, Type (0, 0), BuildingBlock: AJUNOK_clean_linker_0, # of connection points: 2
#     Edge 61, Type (0, 0), BuildingBlock: AJUNOK_clean_linker_0, # of connection points: 2
#     Edge 62, Type (0, 0), BuildingBlock: AJUNOK_clean_linker_0, # of connection points: 2
#     Edge 63, Type (0, 0), BuildingBlock: AJUNOK_clean_linker_0, # of connection points: 2
#     Edge 64, Type (0, 0), BuildingBlock: AJUNOK_clean_linker_0, # of connection points: 2
#     Edge 65, Type (0, 0), BuildingBlock: AJUNOK_clean_linker_0, # of connection points: 2
#     Edge 66, Type (0, 0), BuildingBlock: AJUNOK_clean_linker_0, # of connection points: 2
#     Edge 67, Type (0, 0), BuildingBlock: AJUNOK_clean_linker_0, # of connection points: 2
#     Edge 68, Type (0, 0), BuildingBlock: AJUNOK_clean_linker_0, # of connection points: 2
#     Edge 69, Type (0, 0), BuildingBlock: AJUNOK_clean_linker_0, # of connection points: 2
#     Edge 70, Type (0, 0), BuildingBlock: AJUNOK_clean_linker_0, # of connection points: 2
#     Edge 71, Type (0, 0), BuildingBlock: AJUNOK_clean_linker_0, # of connection points: 2
#     Edge 72, Type (0, 0), BuildingBlock: AJUNOK_clean_linker_0, # of connection points: 2
#     Edge 73, Type (0, 0), BuildingBlock: AJUNOK_clean_linker_0, # of connection points: 2
#     Edge 74, Type (0, 0), BuildingBlock: AJUNOK_clean_linker_0, # of connection points: 2
#     Edge 75, Type (0, 0), BuildingBlock: AJUNOK_clean_linker_0, # of connection points: 2
#     Edge 76, Type (0, 0), BuildingBlock: AJUNOK_clean_linker_0, # of connection points: 2
#     Edge 77, Type (0, 0), BuildingBlock: AJUNOK_clean_linker_0, # of connection points: 2
#     Edge 78, Type (0, 0), BuildingBlock: AJUNOK_clean_linker_0, # of connection points: 2
#     Edge 79, Type (0, 0), BuildingBlock: AJUNOK_clean_linker_0, # of connection points: 2
#     Edge 80, Type (0, 0), BuildingBlock: AJUNOK_clean_linker_0, # of connection points: 2
#     Edge 81, Type (0, 0), BuildingBlock: AJUNOK_clean_linker_0, # of connection points: 2
#     Edge 82, Type (0, 0), BuildingBlock: AJUNOK_clean_linker_0, # of connection points: 2
#     Edge 83, Type (0, 0), BuildingBlock: AJUNOK_clean_linker_0, # of connection points: 2
#     Edge 84, Type (0, 0), BuildingBlock: AJUNOK_clean_linker_0, # of connection points: 2
#     Edge 85, Type (0, 0), BuildingBlock: AJUNOK_clean_linker_0, # of connection points: 2
#     Edge 86, Type (0, 0), BuildingBlock: AJUNOK_clean_linker_0, # of connection points: 2
#     Edge 87, Type (0, 0), BuildingBlock: AJUNOK_clean_linker_0, # of connection points: 2
#     Edge 88, Type (0, 0), BuildingBlock: AJUNOK_clean_linker_0, # of connection points: 2
#     Edge 89, Type (0, 0), BuildingBlock: AJUNOK_clean_linker_0, # of connection points: 2
#     Edge 90, Type (0, 0), BuildingBlock: AJUNOK_clean_linker_0, # of connection points: 2
#     Edge 91, Type (0, 0), BuildingBlock: AJUNOK_clean_linker_0, # of connection points: 2
#     Edge 92, Type (0, 0), BuildingBlock: AJUNOK_clean_linker_0, # of connection points: 2
#     Edge 93, Type (0, 0), BuildingBlock: AJUNOK_clean_linker_0, # of connection points: 2
#     Edge 94, Type (0, 0), BuildingBlock: AJUNOK_clean_linker_0, # of connection points: 2
#     Edge 95, Type (0, 0), BuildingBlock: AJUNOK_clean_linker_0, # of connection points: 2
#     Edge 96, Type (0, 0), BuildingBlock: AJUNOK_clean_linker_0, # of connection points: 2
#     Edge 97, Type (0, 0), BuildingBlock: AJUNOK_clean_linker_0, # of connection points: 2
#     Edge 98, Type (0, 0), BuildingBlock: AJUNOK_clean_linker_0, # of connection points: 2
#     Edge 99, Type (0, 0), BuildingBlock: AJUNOK_clean_linker_0, # of connection points: 2
#     Edge 100, Type (0, 0), BuildingBlock: AJUNOK_clean_linker_0, # of connection points: 2
#     Edge 101, Type (0, 0), BuildingBlock: AJUNOK_clean_linker_0, # of connection points: 2
#     Edge 102, Type (0, 0), BuildingBlock: AJUNOK_clean_linker_0, # of connection points: 2
#     Edge 103, Type (0, 0), BuildingBlock: AJUNOK_clean_linker_0, # of connection points: 2
#     Edge 104, Type (0, 0), BuildingBlock: AJUNOK_clean_linker_0, # of connection points: 2
#     Edge 105, Type (0, 0), BuildingBlock: AJUNOK_clean_linker_0, # of connection points: 2
#     Edge 106, Type (0, 0), BuildingBlock: AJUNOK_clean_linker_0, # of connection points: 2
#     Edge 107, Type (0, 0), BuildingBlock: AJUNOK_clean_linker_0, # of connection points: 2
#     Edge 108, Type (0, 0), BuildingBlock: AJUNOK_clean_linker_0, # of connection points: 2
#     Edge 109, Type (0, 0), BuildingBlock: AJUNOK_clean_linker_0, # of connection points: 2
#     Edge 110, Type (0, 0), BuildingBlock: AJUNOK_clean_linker_0, # of connection points: 2
#     Edge 111, Type (0, 0), BuildingBlock: AJUNOK_clean_linker_0, # of connection points: 2
# Relax obj value: 0.120
# Max RMSD: 0.127
# Mean RMSD: 0.127
data_MOF--net-wga--node1-XOMCOT_clean_sbu_0--edge1-AJUNOK_clean_linker_0
_symmetry_space_group_name_H-M    P1
_symmetry_Int_Tables_number       1
_symmetry_cell_setting            triclinic
loop_
_symmetry_equiv_pos_as_xyz
'x, y, z'
_cell_length_a     81.979767
_cell_length_b     81.964015
_cell_length_c     13.757316
_cell_angle_alpha  90.004832
_cell_angle_beta   90.039381
_cell_angle_gamma 90.131286
loop_
_atom_site_label
_atom_site_type_symbol
_atom_site_fract_x
_atom_site_fract_y
_atom_site_fract_z
_atom_type_partial_charge
Co0 Co 0.09542 0.5674 0.12791 0.0
C1 C 0.09539 0.56827 0.34811 0.0
C2 C 0.11028 0.54929 0.28907 0.0
C3 C 0.11151 0.54878 0.38879 0.0
N4 N 0.09978 0.56119 0.26295 0.0
N5 N 0.10221 0.56076 0.42583 0.0
H6 H 0.08773 0.57884 0.35433 0.0
H7 H 0.11684 0.5416 0.23863 0.0
C8 C 0.08751 0.53204 0.13735 0.0
O9 O 0.07926 0.53589 0.21597 0.0
N10 N 0.09181 0.57373 0.99381 0.0
C11 C 0.08291 0.58665 0.96512 0.0
C12 C 0.08334 0.58762 0.86541 0.0
C13 C 0.09762 0.56699 0.91103 0.0
N14 N 0.0927 0.57537 0.83123 0.0
C15 C 0.06439 0.57861 0.20637 0.0
C16 C 0.0451 0.55879 0.09105 0.0
C17 C 0.03752 0.56929 0.15708 0.0
C18 C 0.04735 0.57933 0.21524 0.0
C19 C 0.06209 0.55832 0.08547 0.0
N20 N 0.07165 0.56757 0.14589 0.0
H21 H 0.07163 0.58754 0.2443 0.0
H22 H 0.06753 0.55078 0.02996 0.0
H23 H 0.07646 0.59477 1.0136 0.0
H24 H 0.10542 0.55636 0.90927 0.0
O25 O 0.10043 0.58999 0.15898 0.0
O26 O 0.11857 0.57166 0.11261 0.0
O27 O 0.09493 0.54333 0.09 0.0
C28 C 0.11557 0.58662 0.13887 0.0
H29 H 0.11904 0.54055 0.43083 0.0
H30 H 0.07693 0.59648 0.82142 0.0
H31 H 0.03792 0.55118 0.0428 0.0
H32 H 0.04189 0.58815 0.26394 0.0
Co33 Co 0.68341 0.84584 0.38519 0.0
C34 C 0.68275 0.8462 0.60263 0.0
C35 C 0.70453 0.85696 0.5443 0.0
C36 C 0.70526 0.85779 0.64398 0.0
N37 N 0.69049 0.84962 0.51811 0.0
N38 N 0.69149 0.85123 0.68101 0.0
H39 H 0.67091 0.84039 0.60654 0.0
H40 H 0.71369 0.86147 0.49454 0.0
C41 C 0.71482 0.83519 0.28898 0.0
O42 O 0.70703 0.82339 0.24391 0.0
N43 N 0.67628 0.84268 0.25 0.0
C44 C 0.66134 0.8379 0.21933 0.0
C45 C 0.6608 0.8382 0.1195 0.0
C46 C 0.68421 0.84684 0.167 0.0
N47 N 0.67519 0.84379 0.08642 0.0
C48 C 0.66875 0.81381 0.39947 0.0
C49 C 0.6966 0.79733 0.45498 0.0
C50 C 0.68255 0.78834 0.43236 0.0
C51 C 0.66839 0.7968 0.40682 0.0
C52 C 0.69648 0.81436 0.44495 0.0
N53 N 0.68297 0.82231 0.41089 0.0
H54 H 0.65752 0.82007 0.38531 0.0
H55 H 0.70739 0.82111 0.4631 0.0
H56 H 0.65102 0.83527 0.26528 0.0
H57 H 0.69629 0.85213 0.16529 0.0
O58 O 0.66121 0.85137 0.42105 0.0
O59 O 0.67972 0.86907 0.36999 0.0
O60 O 0.70723 0.845 0.34518 0.0
C61 C 0.66486 0.86641 0.39955 0.0
H62 H 0.71538 0.8626 0.68569 0.0
H63 H 0.65037 0.83515 0.07462 0.0
H64 H 0.70769 0.79124 0.47751 0.0
H65 H 0.6571 0.79031 0.39283 0.0
Co66 Co 0.40851 0.43419 0.62585 0.0
C67 C 0.40841 0.43365 0.8466 0.0
C68 C 0.39261 0.45164 0.78495 0.0
C69 C 0.39124 0.45236 0.88442 0.0
N70 N 0.40369 0.4402 0.76053 0.0
N71 N 0.40109 0.44097 0.92337 0.0
H72 H 0.41645 0.42338 0.85427 0.0
H73 H 0.38592 0.45902 0.73346 0.0
C74 C 0.41586 0.4696 0.63846 0.0
O75 O 0.42389 0.46575 0.71795 0.0
N76 N 0.41254 0.42818 0.49179 0.0
C77 C 0.42183 0.41562 0.4619 0.0
C78 C 0.42192 0.41532 0.36188 0.0
C79 C 0.40692 0.43528 0.40968 0.0
N80 N 0.41251 0.42762 0.32901 0.0
C81 C 0.43948 0.42332 0.7073 0.0
C82 C 0.45878 0.44364 0.59533 0.0
C83 C 0.46631 0.43339 0.66291 0.0
C84 C 0.45649 0.42301 0.71897 0.0
C85 C 0.44181 0.44376 0.58735 0.0
N86 N 0.43222 0.43428 0.64629 0.0
H87 H 0.43227 0.4142 0.74388 0.0
H88 H 0.43641 0.45124 0.53135 0.0
H89 H 0.42818 0.40729 0.50971 0.0
H90 H 0.39916 0.44594 0.40909 0.0
O91 O 0.40361 0.41151 0.65529 0.0
O92 O 0.38548 0.4298 0.60784 0.0
O93 O 0.40883 0.45828 0.58935 0.0
C94 C 0.38849 0.41484 0.63407 0.0
H95 H 0.38371 0.46082 0.92465 0.0
H96 H 0.42827 0.40659 0.31663 0.0
H97 H 0.46598 0.45141 0.54818 0.0
H98 H 0.46195 0.41431 0.76839 0.0
Co99 Co 0.82009 0.15985 0.87167 0.0
C100 C 0.82027 0.16054 0.0886 0.0
C101 C 0.79936 0.14803 0.03076 0.0
C102 C 0.79835 0.14789 0.13066 0.0
N103 N 0.81301 0.15606 1.00432 0.0
N104 N 0.81144 0.1558 0.16698 0.0
H105 H 0.83166 0.1672 0.09247 0.0
H106 H 0.79079 0.14247 0.9809 0.0
C107 C 0.78877 0.17183 0.78117 0.0
O108 O 0.79682 0.18425 0.74426 0.0
N109 N 0.82721 0.16305 0.73662 0.0
C110 C 0.84243 0.16672 0.70594 0.0
C111 C 0.84285 0.16659 0.60616 0.0
C112 C 0.81886 0.15981 0.65353 0.0
N113 N 0.828 0.16234 0.57267 0.0
C114 C 0.83519 0.19164 0.88339 0.0
C115 C 0.80809 0.20847 0.94725 0.0
C116 C 0.82204 0.2173 0.92026 0.0
C117 C 0.8359 0.20861 0.89157 0.0
C118 C 0.80789 0.19143 0.93716 0.0
N119 N 0.82097 0.18334 0.89845 0.0
H120 H 0.84619 0.18524 0.86536 0.0
H121 H 0.79701 0.1848 0.95755 0.0
H122 H 0.85294 0.1685 0.75193 0.0
H123 H 0.80664 0.15487 0.65225 0.0
O124 O 0.84219 0.15405 0.9079 0.0
O125 O 0.82353 0.13658 0.85573 0.0
O126 O 0.79627 0.16099 0.83092 0.0
C127 C 0.83841 0.13907 0.88579 0.0
H128 H 0.78892 0.14205 0.1734 0.0
H129 H 0.85343 0.1692 0.56175 0.0
H130 H 0.79727 0.21471 0.9727 0.0
H131 H 0.84719 0.21492 0.87498 0.0
Co132 Co 0.0951 0.43259 0.92209 0.0
C133 C 0.09514 0.43223 0.70481 0.0
C134 C 0.108 0.45281 0.76365 0.0
C135 C 0.10894 0.45346 0.66388 0.0
N136 N 0.09926 0.4396 0.78949 0.0
N137 N 0.10104 0.44041 0.62649 0.0
H138 H 0.08828 0.42096 0.70079 0.0
H139 H 0.11355 0.4613 0.81384 0.0
C140 C 0.08433 0.46341 1.01992 0.0
O141 O 0.07216 0.45483 0.05571 0.0
N142 N 0.09161 0.42541 0.0572 0.0
C143 C 0.08626 0.41066 0.08786 0.0
C144 C 0.08651 0.41013 0.1878 0.0
C145 C 0.0961 0.43317 0.14038 0.0
N146 N 0.09268 0.42429 0.22094 0.0
C147 C 0.06277 0.41881 0.90563 0.0
C148 C 0.04714 0.44691 0.84608 0.0
C149 C 0.03775 0.43311 0.86886 0.0
C150 C 0.04581 0.41881 0.89624 0.0
C151 C 0.06414 0.44641 0.858 0.0
N152 N 0.07162 0.43281 0.89447 0.0
H153 H 0.06871 0.40745 0.92093 0.0
H154 H 0.07122 0.45715 0.84038 0.0
H155 H 0.08328 0.40043 0.04196 0.0
H156 H 0.10186 0.44504 0.14229 0.0
O157 O 0.09977 0.41036 0.88508 0.0
O158 O 0.11822 0.42798 0.93811 0.0
O159 O 0.09482 0.45641 0.96506 0.0
C160 C 0.11489 0.41327 0.90776 0.0
H161 H 0.11484 0.463 0.62242 0.0
H162 H 0.08305 0.39985 0.23271 0.0
H163 H 0.04138 0.45809 0.82224 0.0
H164 H 0.03902 0.4077 0.91014 0.0
Co165 Co 0.81757 0.84553 0.16932 0.0
C166 C 0.81779 0.84518 0.95214 0.0
C167 C 0.79943 0.86099 1.01103 0.0
C168 C 0.79854 0.8616 0.91119 0.0
N169 N 0.81139 0.85063 0.03676 0.0
N170 N 0.81 0.85161 0.87407 0.0
H171 H 0.82782 0.83664 0.94777 0.0
H172 H 0.79198 0.8678 0.06153 0.0
C173 C 0.78561 0.83604 0.26268 0.0
O174 O 0.79325 0.82445 0.31027 0.0
N175 N 0.82382 0.84097 0.30434 0.0
C176 C 0.83727 0.8331 0.33595 0.0
C177 C 0.83775 0.83352 0.43576 0.0
C178 C 0.81677 0.84677 0.38663 0.0
N179 N 0.82479 0.84199 0.46813 0.0
C180 C 0.83129 0.81365 0.13578 0.0
C181 C 0.80243 0.79757 0.09554 0.0
C182 C 0.81672 0.78837 0.10656 0.0
C183 C 0.83137 0.79673 0.12354 0.0
C184 C 0.80294 0.81454 0.10852 0.0
N185 N 0.81702 0.82221 0.1367 0.0
H186 H 0.8428 0.81984 0.14418 0.0
H187 H 0.7919 0.82139 0.09662 0.0
H188 H 0.84666 0.82796 0.29094 0.0
H189 H 0.8062 0.85464 0.38652 0.0
O190 O 0.84014 0.85018 0.13884 0.0
O191 O 0.82252 0.8685 0.19174 0.0
O192 O 0.7935 0.84551 0.20538 0.0
C193 C 0.83737 0.86519 0.16433 0.0
H194 H 0.79033 0.86915 0.86915 0.0
H195 H 0.84703 0.82802 0.48107 0.0
H196 H 0.79089 0.79171 0.07963 0.0
H197 H 0.84284 0.79022 0.12756 0.0
Co198 Co 0.40805 0.56895 0.42489 0.0
C199 C 0.40767 0.56945 0.20785 0.0
C200 C 0.39362 0.54965 0.26653 0.0
C201 C 0.39257 0.54914 0.16662 0.0
N202 N 0.40313 0.56233 0.29247 0.0
N203 N 0.40127 0.56168 0.12942 0.0
H204 H 0.41528 0.58024 0.2039 0.0
H205 H 0.38773 0.5414 0.31682 0.0
C206 C 0.41851 0.53827 0.52415 0.0
O207 O 0.43052 0.54689 0.56151 0.0
N208 N 0.41241 0.57574 0.55969 0.0
C209 C 0.42036 0.58921 0.59089 0.0
C210 C 0.42004 0.58972 0.69085 0.0
C211 C 0.40661 0.56875 0.64243 0.0
N212 N 0.41144 0.57685 0.72357 0.0
C213 C 0.43987 0.58297 0.39049 0.0
C214 C 0.45579 0.55424 0.34656 0.0
C215 C 0.46503 0.56857 0.35673 0.0
C216 C 0.45674 0.58316 0.3757 0.0
C217 C 0.43889 0.55465 0.36186 0.0
N218 N 0.43134 0.56865 0.39194 0.0
H219 H 0.4337 0.59443 0.3998 0.0
H220 H 0.43196 0.54358 0.35105 0.0
H221 H 0.42552 0.59858 0.54558 0.0
H222 H 0.39921 0.55782 0.64321 0.0
O223 O 0.40317 0.59132 0.39142 0.0
O224 O 0.38507 0.57353 0.44638 0.0
O225 O 0.40836 0.5451 0.46626 0.0
C226 C 0.3882 0.58833 0.41711 0.0
H227 H 0.3861 0.54001 0.12481 0.0
H228 H 0.42537 0.59914 0.73609 0.0
H229 H 0.46157 0.54273 0.32954 0.0
H230 H 0.46325 0.59466 0.37909 0.0
Co231 Co 0.68629 0.16075 0.66108 0.0
C232 C 0.68533 0.16036 0.44447 0.0
C233 C 0.70703 0.14913 0.50038 0.0
C234 C 0.70757 0.14864 0.40027 0.0
N235 N 0.69315 0.15658 0.52815 0.0
N236 N 0.6939 0.1556 0.36515 0.0
H237 H 0.67374 0.16665 0.44174 0.0
H238 H 0.71614 0.1443 0.54931 0.0
C239 C 0.7177 0.17161 0.75447 0.0
O240 O 0.70974 0.18396 0.79258 0.0
N241 N 0.67925 0.16442 0.796 0.0
C242 C 0.66432 0.16935 0.82529 0.0
C243 C 0.66339 0.16868 0.92484 0.0
C244 C 0.68689 0.16004 0.87977 0.0
N245 N 0.67753 0.16271 0.95952 0.0
C246 C 0.67241 0.19294 0.64072 0.0
C247 C 0.70056 0.2087 0.58246 0.0
C248 C 0.68652 0.21801 0.59951 0.0
C249 C 0.67222 0.20983 0.62684 0.0
C250 C 0.70016 0.19176 0.59676 0.0
N251 N 0.6865 0.18422 0.63254 0.0
H252 H 0.66108 0.18693 0.65662 0.0
H253 H 0.71096 0.18476 0.5804 0.0
H254 H 0.65423 0.17234 0.77845 0.0
H255 H 0.6988 0.15441 0.88249 0.0
O256 O 0.664 0.15588 0.62515 0.0
O257 O 0.68169 0.13761 0.67818 0.0
O258 O 0.71011 0.16108 0.70258 0.0
C259 C 0.66692 0.1408 0.64867 0.0
H260 H 0.71715 0.14331 0.35652 0.0
H261 H 0.65297 0.17224 0.96809 0.0
H262 H 0.71174 0.21444 0.558 0.0
H263 H 0.66098 0.21644 0.63904 0.0
Co264 Co 0.90895 0.43665 0.91602 0.0
C265 C 0.90957 0.43665 0.69525 0.0
C266 C 0.89306 0.45404 0.75656 0.0
C267 C 0.89212 0.45512 0.65694 0.0
N268 N 0.90429 0.44275 0.7813 0.0
N269 N 0.90257 0.44424 0.61848 0.0
H270 H 0.91806 0.42677 0.68729 0.0
H271 H 0.88588 0.46095 0.80795 0.0
C272 C 0.91658 0.47203 0.90386 0.0
O273 O 0.92456 0.46817 0.82428 0.0
N274 N 0.91285 0.43059 0.05009 0.0
C275 C 0.9217 0.41773 0.08004 0.0
C276 C 0.92173 0.4174 0.18001 0.0
C277 C 0.9075 0.4379 0.13213 0.0
N278 N 0.91285 0.4301 0.213 0.0
C279 C 0.93976 0.42522 0.83662 0.0
C280 C 0.95933 0.44559 0.94673 0.0
C281 C 0.96671 0.43506 0.88013 0.0
C282 C 0.95675 0.42464 0.82513 0.0
C283 C 0.94236 0.44596 0.95457 0.0
N284 N 0.93265 0.43648 0.89627 0.0
H285 H 0.93241 0.4161 0.80084 0.0
H286 H 0.93707 0.45362 1.00998 0.0
H287 H 0.9278 0.40922 0.03229 0.0
H288 H 0.89963 0.44847 0.13228 0.0
O289 O 0.9039 0.41403 0.88621 0.0
O290 O 0.88584 0.43239 0.93331 0.0
O291 O 0.90945 0.46075 0.95271 0.0
C292 C 0.88879 0.41741 0.90717 0.0
H293 H 0.88402 0.46294 0.61597 0.0
H294 H 0.92801 0.40859 0.22507 0.0
H295 H 0.96664 0.45337 0.99325 0.0
H296 H 0.96208 0.41571 0.77669 0.0
Co297 Co 0.32059 0.15757 0.65894 0.0
C298 C 0.32103 0.15845 0.44255 0.0
C299 C 0.30077 0.14473 0.4984 0.0
C300 C 0.30011 0.14441 0.39843 0.0
N301 N 0.31382 0.15358 0.52604 0.0
N302 N 0.31282 0.15306 0.36304 0.0
H303 H 0.33224 0.16542 0.44052 0.0
H304 H 0.29234 0.13879 0.5475 0.0
C305 C 0.28882 0.16743 0.75429 0.0
O306 O 0.29639 0.1793 0.80006 0.0
N307 N 0.32756 0.16108 0.79412 0.0
C308 C 0.34231 0.16655 0.82383 0.0
C309 C 0.34285 0.16683 0.92356 0.0
C310 C 0.31976 0.15707 0.87791 0.0
N311 N 0.3286 0.16107 0.95769 0.0
C312 C 0.33497 0.18953 0.64001 0.0
C313 C 0.30681 0.20614 0.5925 0.0
C314 C 0.32102 0.21506 0.61255 0.0
C315 C 0.33535 0.20652 0.63304 0.0
C316 C 0.30694 0.18908 0.6016 0.0
N317 N 0.32064 0.18109 0.63258 0.0
H318 H 0.34628 0.18322 0.65101 0.0
H319 H 0.29593 0.18237 0.58524 0.0
H320 H 0.35251 0.16936 0.77741 0.0
H321 H 0.3079 0.15129 0.88101 0.0
O322 O 0.3429 0.15263 0.62394 0.0
O323 O 0.32495 0.13438 0.67494 0.0
O324 O 0.29664 0.15786 0.69761 0.0
C325 C 0.33978 0.13753 0.64624 0.0
H326 H 0.2909 0.13833 0.35508 0.0
H327 H 0.35319 0.17041 0.96771 0.0
H328 H 0.2956 0.2123 0.57297 0.0
H329 H 0.34677 0.21294 0.64412 0.0
Co330 Co 0.59365 0.56957 0.41008 0.0
C331 C 0.59302 0.57002 0.19372 0.0
C332 C 0.60786 0.55064 0.24991 0.0
C333 C 0.60829 0.55005 0.14985 0.0
N334 N 0.59825 0.56311 0.27735 0.0
N335 N 0.59892 0.56218 0.1143 0.0
H336 H 0.58536 0.58074 0.19147 0.0
H337 H 0.61419 0.54256 0.29925 0.0
C338 C 0.58426 0.53779 0.50664 0.0
O339 O 0.57249 0.54535 0.55295 0.0
N340 N 0.58948 0.57624 0.54497 0.0
C341 C 0.58238 0.59024 0.57461 0.0
C342 C 0.58215 0.59076 0.67439 0.0
C343 C 0.59438 0.56894 0.62872 0.0
N344 N 0.58947 0.57726 0.70864 0.0
C345 C 0.56168 0.58334 0.37994 0.0
C346 C 0.5456 0.55449 0.33932 0.0
C347 C 0.53639 0.56877 0.35076 0.0
C348 C 0.54475 0.58341 0.36806 0.0
C349 C 0.56257 0.55501 0.35174 0.0
N350 N 0.57026 0.56908 0.37983 0.0
H351 H 0.56785 0.59484 0.38841 0.0
H352 H 0.56943 0.54399 0.3395 0.0
H353 H 0.5783 0.59997 0.52817 0.0
H354 H 0.60127 0.55771 0.63148 0.0
O355 O 0.59838 0.59205 0.37698 0.0
O356 O 0.61669 0.57439 0.42965 0.0
O357 O 0.5936 0.54558 0.44814 0.0
C358 C 0.61345 0.58919 0.40098 0.0
H359 H 0.6149 0.54124 0.10653 0.0
H360 H 0.57743 0.60062 0.71846 0.0
H361 H 0.53975 0.54294 0.32345 0.0
H362 H 0.53823 0.59487 0.3725 0.0
Co363 Co 0.18427 0.84445 0.17107 0.0
C364 C 0.18357 0.84458 0.95468 0.0
C365 C 0.20528 0.85588 1.01052 0.0
C366 C 0.20564 0.85663 0.91034 0.0
N367 N 0.19148 0.84826 0.03833 0.0
N368 N 0.19194 0.84964 0.87513 0.0
H369 H 0.17198 0.83825 0.95231 0.0
H370 H 0.21437 0.86078 0.05952 0.0
C371 C 0.21421 0.83387 0.27688 0.0
O372 O 0.20523 0.82192 0.31161 0.0
N373 N 0.17679 0.84119 0.30582 0.0
C374 C 0.16242 0.83481 0.33533 0.0
C375 C 0.16137 0.83568 0.43498 0.0
C376 C 0.18386 0.84664 0.38926 0.0
N377 N 0.17484 0.84315 0.46932 0.0
C378 C 0.1699 0.81246 0.14487 0.0
C379 C 0.19841 0.79616 0.10109 0.0
C380 C 0.18402 0.78705 0.11231 0.0
C381 C 0.16955 0.79553 0.13174 0.0
C382 C 0.19816 0.81312 0.11434 0.0
N383 N 0.18426 0.82092 0.14371 0.0
H384 H 0.1585 0.81873 0.15404 0.0
H385 H 0.20929 0.81991 0.10268 0.0
H386 H 0.15284 0.83038 0.28873 0.0
H387 H 0.19528 0.85327 0.39156 0.0
O388 O 0.16216 0.84952 0.13281 0.0
O389 O 0.18006 0.86764 0.18625 0.0
O390 O 0.20792 0.84399 0.21671 0.0
C391 C 0.16533 0.86461 0.15535 0.0
H392 H 0.2151 0.86225 0.86673 0.0
H393 H 0.15144 0.831 0.47863 0.0
H394 H 0.20987 0.79026 0.08445 0.0
H395 H 0.15799 0.78914 0.13613 0.0
Co396 Co 0.90895 0.57144 0.11773 0.0
C397 C 0.90999 0.57159 0.33394 0.0
C398 C 0.89603 0.5515 0.27797 0.0
C399 C 0.8957 0.55087 0.37802 0.0
N400 N 0.90508 0.5644 0.25037 0.0
N401 N 0.9045 0.56348 0.41355 0.0
H402 H 0.917 0.58278 0.33589 0.0
H403 H 0.88984 0.54327 0.22883 0.0
C404 C 0.92006 0.54064 1.02078 0.0
O405 O 0.93221 0.54921 0.98488 0.0
N406 N 0.91224 0.57872 0.98269 0.0
C407 C 0.91701 0.59373 0.95311 0.0
C408 C 0.91726 0.5943 0.85327 0.0
C409 C 0.90854 0.57079 0.89868 0.0
N410 N 0.91211 0.57982 0.81898 0.0
C411 C 0.94112 0.58568 0.13225 0.0
C412 C 0.95724 0.55781 0.19105 0.0
C413 C 0.96641 0.57166 0.16649 0.0
C414 C 0.9581 0.58589 0.14038 0.0
C415 C 0.9402 0.55811 0.18085 0.0
N416 N 0.93247 0.57158 0.14438 0.0
H417 H 0.93501 0.59694 0.11679 0.0
H418 H 0.93329 0.54731 0.19942 0.0
H419 H 0.91933 0.60404 0.99976 0.0
H420 H 0.90323 0.55872 0.89526 0.0
O421 O 0.90392 0.59358 0.15507 0.0
O422 O 0.88574 0.57565 0.10244 0.0
O423 O 0.90948 0.54763 0.07509 0.0
C424 C 0.88883 0.59041 0.13276 0.0
H425 H 0.88942 0.54179 0.42127 0.0
H426 H 0.92039 0.60478 0.80916 0.0
H427 H 0.96319 0.54672 0.21467 0.0
H428 H 0.9647 0.59709 0.12587 0.0
Co429 Co 0.18618 0.15732 0.8812 0.0
C430 C 0.18518 0.15721 0.09805 0.0
C431 C 0.20559 0.14385 0.04181 0.0
C432 C 0.20604 0.14313 0.14181 0.0
N433 N 0.19261 0.15277 1.01432 0.0
N434 N 0.19317 0.15143 0.17725 0.0
H435 H 0.17427 0.16461 0.10082 0.0
H436 H 0.21407 0.13807 0.99256 0.0
C437 C 0.21802 0.16634 0.78267 0.0
O438 O 0.21038 0.17751 0.73168 0.0
N439 N 0.17956 0.16139 0.74618 0.0
C440 C 0.16603 0.16927 0.71588 0.0
C441 C 0.16501 0.16845 0.61637 0.0
C442 C 0.18618 0.15527 0.66334 0.0
N443 N 0.17763 0.15962 0.58297 0.0
C444 C 0.17207 0.18908 0.91554 0.0
C445 C 0.20089 0.20562 0.94917 0.0
C446 C 0.18639 0.21461 0.94293 0.0
C447 C 0.17178 0.20602 0.92835 0.0
C448 C 0.20059 0.18868 0.93561 0.0
N449 N 0.18646 0.18075 0.91136 0.0
H450 H 0.16061 0.18271 0.90928 0.0
H451 H 0.21178 0.18204 0.94535 0.0
H452 H 0.15699 0.17479 0.76174 0.0
H453 H 0.19693 0.14762 0.66184 0.0
O454 O 0.16366 0.15228 0.91343 0.0
O455 O 0.18168 0.13426 0.86179 0.0
O456 O 0.2102 0.15748 0.84362 0.0
C457 C 0.16683 0.13722 0.89032 0.0
H458 H 0.21495 0.13667 0.18523 0.0
H459 H 0.15568 0.17408 0.57201 0.0
H460 H 0.21238 0.21162 0.96476 0.0
H461 H 0.1602 0.21232 0.92478 0.0
Co462 Co 0.59476 0.43503 0.6205 0.0
C463 C 0.59398 0.43461 0.83726 0.0
C464 C 0.60775 0.45478 0.78017 0.0
C465 C 0.60802 0.45566 0.87999 0.0
N466 N 0.59881 0.44171 0.75334 0.0
N467 N 0.59935 0.44303 0.91576 0.0
H468 H 0.58666 0.42362 0.84083 0.0
H469 H 0.61384 0.463 0.73053 0.0
C470 C 0.58399 0.46695 0.52961 0.0
O471 O 0.57231 0.45931 0.4824 0.0
N472 N 0.5913 0.42822 0.48511 0.0
C473 C 0.58675 0.41322 0.45449 0.0
C474 C 0.58698 0.4127 0.3548 0.0
C475 C 0.59517 0.43628 0.40203 0.0
N476 N 0.59217 0.42724 0.32131 0.0
C477 C 0.56296 0.4201 0.63694 0.0
C478 C 0.54625 0.44767 0.69436 0.0
C479 C 0.5374 0.43348 0.67277 0.0
C480 C 0.546 0.41946 0.64622 0.0
C481 C 0.56325 0.44782 0.68259 0.0
N482 N 0.57129 0.43443 0.64767 0.0
H483 H 0.56934 0.40895 0.62202 0.0
H484 H 0.56989 0.4588 0.70058 0.0
H485 H 0.58432 0.40284 0.50037 0.0
H486 H 0.60075 0.44824 0.40067 0.0
O487 O 0.60036 0.41278 0.6543 0.0
O488 O 0.61797 0.4314 0.60353 0.0
O489 O 0.59388 0.45903 0.58378 0.0
C490 C 0.61536 0.41649 0.6325 0.0
H491 H 0.61443 0.46468 0.92311 0.0
H492 H 0.5838 0.40226 0.31041 0.0
H493 H 0.54007 0.45867 0.71756 0.0
H494 H 0.53966 0.40806 0.63298 0.0
Co495 Co 0.31777 0.84491 0.37794 0.0
C496 C 0.31851 0.8451 0.59895 0.0
C497 C 0.30238 0.86275 0.53674 0.0
C498 C 0.3017 0.86418 0.63619 0.0
N499 N 0.31267 0.85058 0.5127 0.0
N500 N 0.31193 0.85316 0.67545 0.0
H501 H 0.32762 0.83579 0.60709 0.0
H502 H 0.29564 0.87003 0.48493 0.0
C503 C 0.28243 0.83864 0.40053 0.0
O504 O 0.28691 0.83123 0.48082 0.0
N505 N 0.32296 0.84007 0.24367 0.0
C506 C 0.33476 0.82985 0.21341 0.0
C507 C 0.33496 0.82971 0.11343 0.0
C508 C 0.31626 0.84623 0.16178 0.0
N509 N 0.32341 0.84005 0.08097 0.0
C510 C 0.32858 0.81404 0.45971 0.0
C511 C 0.30704 0.79477 0.35569 0.0
C512 C 0.31801 0.78725 0.41904 0.0
C513 C 0.32893 0.79704 0.47151 0.0
C514 C 0.30696 0.81173 0.34719 0.0
N515 N 0.31712 0.82131 0.40211 0.0
H516 H 0.33809 0.82123 0.493 0.0
H517 H 0.29907 0.81709 0.29309 0.0
H518 H 0.34272 0.82299 0.26093 0.0
H519 H 0.30633 0.8549 0.16144 0.0
O520 O 0.34067 0.84903 0.40256 0.0
O521 O 0.32299 0.86777 0.35555 0.0
O522 O 0.29342 0.84512 0.34633 0.0
C523 C 0.33794 0.86417 0.37934 0.0
H524 H 0.29399 0.8725 0.67623 0.0
H525 H 0.34318 0.82277 0.06791 0.0
H526 H 0.29883 0.78755 0.31125 0.0
H527 H 0.33812 0.79155 0.51766 0.0
Co528 Co 0.59584 0.07153 0.61643 0.0
C529 C 0.59549 0.07243 0.83324 0.0
C530 C 0.6064 0.05053 0.77799 0.0
C531 C 0.60677 0.04996 0.87794 0.0
N532 N 0.59919 0.06453 0.74982 0.0
N533 N 0.60003 0.06376 0.9126 0.0
H534 H 0.58957 0.08421 0.83577 0.0
H535 H 0.6113 0.0414 0.72948 0.0
C536 C 0.58589 0.03959 0.52089 0.0
O537 O 0.57421 0.04704 0.47308 0.0
N538 N 0.59307 0.07873 0.48105 0.0
C539 C 0.58902 0.09395 0.45195 0.0
C540 C 0.58975 0.09491 0.35257 0.0
C541 C 0.59715 0.07095 0.39731 0.0
N542 N 0.59496 0.0805 0.31781 0.0
C543 C 0.56347 0.0856 0.62376 0.0
C544 C 0.54734 0.05769 0.68263 0.0
C545 C 0.53815 0.07139 0.65649 0.0
C546 C 0.54644 0.08564 0.62972 0.0
C547 C 0.56437 0.05817 0.67426 0.0
N548 N 0.57219 0.07164 0.63861 0.0
H549 H 0.56954 0.09691 0.60841 0.0
H550 H 0.57127 0.04765 0.69575 0.0
H551 H 0.58652 0.10416 0.49894 0.0
H552 H 0.60219 0.05879 0.39426 0.0
O553 O 0.60082 0.09376 0.65342 0.0
O554 O 0.61912 0.07577 0.60451 0.0
O555 O 0.59546 0.0476 0.57685 0.0
C556 C 0.61599 0.09059 0.63316 0.0
H557 H 0.612 0.04035 0.92192 0.0
H558 H 0.58669 0.10551 0.30949 0.0
H559 H 0.54141 0.0466 0.70698 0.0
H560 H 0.53981 0.09674 0.6138 0.0
Co561 Co 0.18441 0.34299 0.86819 0.0
C562 C 0.18418 0.34229 0.08422 0.0
C563 C 0.20377 0.35697 0.02859 0.0
C564 C 0.20428 0.35739 0.12878 0.0
N565 N 0.19123 0.34743 1.00075 0.0
N566 N 0.19199 0.34812 0.16404 0.0
H567 H 0.1733 0.33481 0.08596 0.0
H568 H 0.21187 0.36335 0.97953 0.0
C569 C 0.21515 0.33267 0.76894 0.0
O570 O 0.2067 0.32042 0.73304 0.0
N571 N 0.17729 0.33903 0.73346 0.0
C572 C 0.16292 0.33258 0.7041 0.0
C573 C 0.16231 0.33239 0.6042 0.0
C574 C 0.18472 0.34365 0.64941 0.0
N575 N 0.1761 0.33915 0.56961 0.0
C576 C 0.17087 0.31065 0.89526 0.0
C577 C 0.19963 0.29548 0.94738 0.0
C578 C 0.18558 0.28592 0.93524 0.0
C579 C 0.17096 0.2938 0.91138 0.0
C580 C 0.19893 0.31235 0.93139 0.0
N581 N 0.18494 0.31958 0.89827 0.0
H582 H 0.15936 0.31649 0.88204 0.0
H583 H 0.20975 0.31955 0.94463 0.0
H584 H 0.15302 0.32899 0.75085 0.0
H585 H 0.19621 0.35012 0.64626 0.0
O586 O 0.16211 0.34764 0.90436 0.0
O587 O 0.17969 0.36601 0.85006 0.0
O588 O 0.20818 0.34294 0.8254 0.0
C589 C 0.165 0.36274 0.88071 0.0
H590 H 0.21309 0.364 0.17234 0.0
H591 H 0.1522 0.32813 0.56032 0.0
H592 H 0.21104 0.28998 0.96944 0.0
H593 H 0.15971 0.28698 0.90366 0.0
Co594 Co 0.90954 0.93354 0.14131 0.0
C595 C 0.90908 0.932 0.35937 0.0
C596 C 0.90025 0.95485 0.30568 0.0
C597 C 0.89958 0.95513 0.40545 0.0
N598 N 0.90642 0.94044 0.27606 0.0
N599 N 0.90511 0.94077 0.43954 0.0
H600 H 0.91379 0.91973 0.36162 0.0
H601 H 0.89617 0.96457 0.25896 0.0
C602 C 0.90056 0.96709 0.07043 0.0
O603 O 0.88557 0.962 0.05526 0.0
N604 N 0.91262 0.92654 1.00761 0.0
C605 C 0.92039 0.91279 0.98085 0.0
C606 C 0.92016 0.91158 0.88108 0.0
C607 C 0.90778 0.93358 0.92345 0.0
N608 N 0.91217 0.92461 0.84502 0.0
C609 C 0.94028 0.92161 0.21716 0.0
C610 C 0.9598 0.94245 0.10997 0.0
C611 C 0.96728 0.9312 0.17214 0.0
C612 C 0.9573 0.92063 0.22607 0.0
C613 C 0.94285 0.94301 0.1031 0.0
N614 N 0.93321 0.933 0.15826 0.0
H615 H 0.93286 0.91281 0.25508 0.0
H616 H 0.93764 0.95118 0.05023 0.0
H617 H 0.92598 0.90425 0.03067 0.0
H618 H 0.9011 0.94489 0.91905 0.0
O619 O 0.90413 0.91129 0.17578 0.0
O620 O 0.88614 0.92973 0.12955 0.0
O621 O 0.91127 0.95719 0.10234 0.0
C622 C 0.88902 0.91476 0.15622 0.0
H623 H 0.89506 0.96508 0.44958 0.0
H624 H 0.92581 0.90207 0.83829 0.0
H625 H 0.96702 0.95068 0.06575 0.0
H626 H 0.96259 0.91134 0.27226 0.0
Co627 Co 0.31866 0.65872 0.38832 0.0
C628 C 0.31964 0.65884 0.60494 0.0
C629 C 0.2979 0.64752 0.54965 0.0
C630 C 0.29746 0.64696 0.64966 0.0
N631 N 0.31174 0.65505 0.52152 0.0
N632 N 0.31116 0.65397 0.68443 0.0
H633 H 0.33128 0.66509 0.60732 0.0
H634 H 0.2888 0.64253 0.50101 0.0
C635 C 0.28717 0.66813 0.28834 0.0
O636 O 0.29493 0.67961 0.24024 0.0
N637 N 0.32584 0.66189 0.25316 0.0
C638 C 0.34052 0.66759 0.22397 0.0
C639 C 0.34159 0.66678 0.12453 0.0
C640 C 0.31855 0.65686 0.16956 0.0
N641 N 0.3278 0.65999 0.08993 0.0
C642 C 0.33301 0.69068 0.40835 0.0
C643 C 0.30462 0.70736 0.44946 0.0
C644 C 0.31895 0.71625 0.4323 0.0
C645 C 0.33338 0.70767 0.41494 0.0
C646 C 0.30478 0.69031 0.44081 0.0
N647 N 0.31863 0.68228 0.41295 0.0
H648 H 0.34438 0.68434 0.4003 0.0
H649 H 0.29369 0.68365 0.45554 0.0
H650 H 0.35034 0.67139 0.27078 0.0
H651 H 0.30689 0.65068 0.16679 0.0
O652 O 0.34091 0.6539 0.42471 0.0
O653 O 0.32303 0.63552 0.37436 0.0
O654 O 0.29482 0.65891 0.34791 0.0
C655 C 0.33784 0.63876 0.4033 0.0
H656 H 0.28797 0.64147 0.69356 0.0
H657 H 0.35178 0.67096 0.08117 0.0
H658 H 0.29333 0.71356 0.4667 0.0
H659 H 0.34487 0.71408 0.40633 0.0
Co660 Co 0.59474 0.93652 0.41095 0.0
C661 C 0.59479 0.93666 0.19313 0.0
C662 C 0.61328 0.95202 0.25537 0.0
C663 C 0.61473 0.95254 0.15584 0.0
N664 N 0.6008 0.94211 0.27889 0.0
N665 N 0.603 0.94304 0.11626 0.0
H666 H 0.58467 0.92821 0.18709 0.0
H667 H 0.62108 0.95813 0.30738 0.0
C668 C 0.58556 0.96855 0.50364 0.0
O669 O 0.57435 0.96083 0.55413 0.0
N670 N 0.58933 0.93094 0.54577 0.0
C671 C 0.57815 0.92022 0.57923 0.0
C672 C 0.57879 0.91983 0.67898 0.0
C673 C 0.597 0.93647 0.62685 0.0
N674 N 0.59059 0.9301 0.70964 0.0
C675 C 0.56366 0.92196 0.36375 0.0
C676 C 0.5466 0.95051 0.33334 0.0
C677 C 0.53792 0.93575 0.3368 0.0
C678 C 0.54679 0.9213 0.34874 0.0
C679 C 0.5635 0.95059 0.34901 0.0
N680 N 0.57162 0.93655 0.37244 0.0
H681 H 0.5702 0.91065 0.37232 0.0
H682 H 0.5699 0.96204 0.34271 0.0
H683 H 0.57012 0.91279 0.53609 0.0
H684 H 0.60718 0.94487 0.62444 0.0
O685 O 0.59997 0.91382 0.38586 0.0
O686 O 0.61753 0.93219 0.43974 0.0
O687 O 0.59442 0.96075 0.44284 0.0
C688 C 0.61481 0.9172 0.41297 0.0
H689 H 0.62414 0.95899 0.11625 0.0
H690 H 0.57096 0.91259 0.72543 0.0
H691 H 0.54035 0.96197 0.32158 0.0
H692 H 0.5407 0.90956 0.34792 0.0
Co693 Co 0.31886 0.34398 0.6619 0.0
C694 C 0.31892 0.34299 0.44178 0.0
C695 C 0.30191 0.36008 0.50093 0.0
C696 C 0.301 0.36081 0.40113 0.0
N697 N 0.31289 0.34864 0.52703 0.0
N698 N 0.31161 0.34997 0.36385 0.0
H699 H 0.3289 0.33459 0.43555 0.0
H700 H 0.29501 0.36744 0.55147 0.0
C701 C 0.28343 0.33675 0.64843 0.0
O702 O 0.28723 0.32886 0.56841 0.0
N703 N 0.32488 0.33998 0.79595 0.0
C704 C 0.33778 0.33106 0.82494 0.0
C705 C 0.3379 0.33037 0.9248 0.0
C706 C 0.31739 0.34479 0.87863 0.0
N707 N 0.32505 0.33891 0.95853 0.0
C708 C 0.33026 0.31298 0.58384 0.0
C709 C 0.30939 0.29368 0.69213 0.0
C710 C 0.32014 0.28613 0.62753 0.0
C711 C 0.33075 0.29595 0.57305 0.0
C712 C 0.30915 0.31066 0.69946 0.0
N713 N 0.31889 0.32024 0.64207 0.0
H714 H 0.33955 0.32021 0.54886 0.0
H715 H 0.3014 0.31604 0.7541 0.0
H716 H 0.34644 0.32534 0.77654 0.0
H717 H 0.30647 0.35219 0.88038 0.0
O718 O 0.34151 0.349 0.63249 0.0
O719 O 0.32313 0.36705 0.67951 0.0
O720 O 0.29477 0.34363 0.69805 0.0
C721 C 0.3381 0.36411 0.65339 0.0
H722 H 0.29307 0.36868 0.35924 0.0
H723 H 0.34689 0.32424 0.96932 0.0
H724 H 0.3014 0.28648 0.73798 0.0
H725 H 0.33978 0.29049 0.52583 0.0
Co726 Co 0.9079 0.06858 0.92013 0.0
C727 C 0.90778 0.06927 0.70285 0.0
C728 C 0.89431 0.04902 0.761 0.0
C729 C 0.89331 0.0485 0.66125 0.0
N730 N 0.90342 0.06198 0.78726 0.0
N731 N 0.90161 0.06132 0.6244 0.0
H732 H 0.91505 0.08029 0.69906 0.0
H733 H 0.88865 0.04055 0.81089 0.0
C734 C 0.91624 0.03636 1.01694 0.0
O735 O 0.92862 0.04334 0.06134 0.0
N736 N 0.91193 0.07524 0.05505 0.0
C737 C 0.91943 0.08901 0.08574 0.0
C738 C 0.91921 0.08955 0.18559 0.0
C739 C 0.90652 0.06805 0.13791 0.0
N740 N 0.91113 0.07637 0.21865 0.0
C741 C 0.93982 0.08255 0.89078 0.0
C742 C 0.95656 0.05381 0.86087 0.0
C743 C 0.96551 0.06828 0.87329 0.0
C744 C 0.95683 0.08287 0.88395 0.0
C745 C 0.93946 0.05407 0.86849 0.0
N746 N 0.93141 0.06816 0.89184 0.0
H747 H 0.93344 0.09399 0.89554 0.0
H748 H 0.9328 0.04287 0.85703 0.0
H749 H 0.92418 0.09853 0.03993 0.0
H750 H 0.89945 0.0569 0.13922 0.0
O751 O 0.90311 0.0911 0.88655 0.0
O752 O 0.88492 0.07316 0.93826 0.0
O753 O 0.90731 0.04471 0.95936 0.0
C754 C 0.888 0.08795 0.90907 0.0
H755 H 0.88713 0.03919 0.61928 0.0
H756 H 0.92421 0.09918 0.23054 0.0
H757 H 0.96271 0.04233 0.84811 0.0
H758 H 0.96316 0.09447 0.88753 0.0
Co759 Co 0.18456 0.65821 0.16452 0.0
C760 C 0.18357 0.65813 0.94766 0.0
C761 C 0.20404 0.64487 1.00407 0.0
C762 C 0.2045 0.64415 0.90407 0.0
N763 N 0.19101 0.65372 0.03145 0.0
N764 N 0.19159 0.65238 0.86852 0.0
H765 H 0.17262 0.66546 0.94481 0.0
H766 H 0.21255 0.63913 0.0534 0.0
C767 C 0.21633 0.66753 0.26319 0.0
O768 O 0.20866 0.67855 0.31509 0.0
N769 N 0.17793 0.66224 0.29948 0.0
C770 C 0.16438 0.67008 0.32967 0.0
C771 C 0.16337 0.66928 0.42917 0.0
C772 C 0.18458 0.65615 0.38236 0.0
N773 N 0.17602 0.66048 0.46267 0.0
C774 C 0.16999 0.68981 0.12997 0.0
C775 C 0.19865 0.70678 0.09887 0.0
C776 C 0.18406 0.71557 0.10597 0.0
C777 C 0.16953 0.70679 0.1188 0.0
C778 C 0.19853 0.6898 0.11089 0.0
N779 N 0.18448 0.68165 0.13422 0.0
H780 H 0.15861 0.68327 0.13501 0.0
H781 H 0.20983 0.68333 0.10139 0.0
H782 H 0.15532 0.67558 0.28373 0.0
H783 H 0.19535 0.64854 0.38392 0.0
O784 O 0.1621 0.6527 0.13261 0.0
O785 O 0.18055 0.63511 0.18443 0.0
O786 O 0.20855 0.65872 0.20184 0.0
C787 C 0.16563 0.63773 0.15601 0.0
H788 H 0.21345 0.63775 0.86074 0.0
H789 H 0.15403 0.6749 0.47345 0.0
H790 H 0.21015 0.71296 0.08641 0.0
H791 H 0.15788 0.71299 0.12003 0.0
Co792 Co 0.40926 0.93332 0.4032 0.0
C793 C 0.40887 0.93286 0.18621 0.0
C794 C 0.39648 0.95371 0.24453 0.0
C795 C 0.39553 0.95429 0.14458 0.0
N796 N 0.40485 0.94031 0.27075 0.0
N797 N 0.40318 0.94109 0.10763 0.0
H798 H 0.41559 0.92152 0.1824 0.0
H799 H 0.39135 0.96249 0.29455 0.0
C800 C 0.41929 0.96363 0.50801 0.0
O801 O 0.43143 0.95512 0.54426 0.0
N802 N 0.41312 0.92617 0.5379 0.0
C803 C 0.42083 0.91258 0.56877 0.0
C804 C 0.42046 0.912 0.66875 0.0
C805 C 0.40738 0.93314 0.62076 0.0
N806 N 0.41207 0.92496 0.70182 0.0
C807 C 0.44129 0.91957 0.37153 0.0
C808 C 0.45717 0.94854 0.33127 0.0
C809 C 0.46648 0.93426 0.34012 0.0
C810 C 0.45819 0.91956 0.35753 0.0
C811 C 0.44025 0.94794 0.34526 0.0
N812 N 0.43267 0.9338 0.37321 0.0
H813 H 0.43514 0.90803 0.37974 0.0
H814 H 0.43331 0.95899 0.33513 0.0
H815 H 0.42592 0.90324 0.5231 0.0
H816 H 0.40019 0.94417 0.6217 0.0
O817 O 0.40435 0.91099 0.36698 0.0
O818 O 0.38621 0.92868 0.42139 0.0
O819 O 0.40943 0.95703 0.44742 0.0
C820 C 0.3893 0.91395 0.39109 0.0
H821 H 0.38988 0.96389 0.10252 0.0
H822 H 0.42567 0.90251 0.71373 0.0
H823 H 0.46291 0.96017 0.31611 0.0
H824 H 0.46473 0.9081 0.36008 0.0
Co825 Co 0.81829 0.65971 0.17011 0.0
C826 C 0.8182 0.66035 0.95324 0.0
C827 C 0.7988 0.64567 1.01146 0.0
C828 C 0.79797 0.64514 0.91147 0.0
N829 N 0.81138 0.65529 0.0377 0.0
N830 N 0.81011 0.65442 0.87477 0.0
H831 H 0.82882 0.66818 0.94933 0.0
H832 H 0.79098 0.63918 0.06157 0.0
C833 C 0.78762 0.6699 0.27054 0.0
O834 O 0.79618 0.68204 0.30693 0.0
N835 N 0.82535 0.66353 0.30497 0.0
C836 C 0.83945 0.6703 0.33614 0.0
C837 C 0.83995 0.6699 0.43611 0.0
C838 C 0.81797 0.65826 0.38763 0.0
N839 N 0.82634 0.66249 0.46897 0.0
C840 C 0.83183 0.69198 0.14408 0.0
C841 C 0.80306 0.70747 0.09581 0.0
C842 C 0.81713 0.71697 0.10978 0.0
C843 C 0.83176 0.70889 0.1311 0.0
C844 C 0.80373 0.69053 0.10908 0.0
N845 N 0.81771 0.68314 0.14084 0.0
H846 H 0.84334 0.68603 0.15528 0.0
H847 H 0.79285 0.68341 0.09577 0.0
H848 H 0.84922 0.67462 0.29065 0.0
H849 H 0.80688 0.6511 0.38806 0.0
O850 O 0.84059 0.65523 0.13379 0.0
O851 O 0.82316 0.63668 0.18761 0.0
O852 O 0.79451 0.6597 0.21325 0.0
C853 C 0.83784 0.64011 0.1573 0.0
H854 H 0.78938 0.63804 0.86907 0.0
H855 H 0.84967 0.6747 0.48115 0.0
H856 H 0.79152 0.71308 0.07735 0.0
H857 H 0.8431 0.7156 0.13757 0.0
Co858 Co 0.09475 0.06905 0.93174 0.0
C859 C 0.09482 0.0698 0.71529 0.0
C860 C 0.10552 0.04781 0.7709 0.0
C861 C 0.10622 0.04743 0.67074 0.0
N862 N 0.0983 0.06179 0.79886 0.0
N863 N 0.09961 0.0613 0.63571 0.0
H864 H 0.08884 0.08155 0.71297 0.0
H865 H 0.1102 0.03861 0.81977 0.0
C866 C 0.08381 0.03902 0.03671 0.0
O867 O 0.07196 0.04799 0.07218 0.0
N868 N 0.09176 0.07658 0.06656 0.0
C869 C 0.0861 0.09124 0.09585 0.0
C870 C 0.08697 0.09228 0.19549 0.0
C871 C 0.09684 0.06931 0.15013 0.0
N872 N 0.09376 0.0785 0.23003 0.0
C873 C 0.06265 0.08352 0.91037 0.0
C874 C 0.04622 0.05504 0.86524 0.0
C875 C 0.03709 0.06921 0.8821 0.0
C876 C 0.04564 0.08373 0.90078 0.0
C877 C 0.06325 0.05541 0.87521 0.0
N878 N 0.07115 0.06924 0.90562 0.0
H879 H 0.06894 0.09492 0.92011 0.0
H880 H 0.07002 0.04439 0.86079 0.0
H881 H 0.08222 0.101 0.04898 0.0
H882 H 0.10298 0.05765 0.15269 0.0
O883 O 0.10035 0.0912 0.89354 0.0
O884 O 0.11799 0.07284 0.94605 0.0
O885 O 0.09398 0.04538 0.97698 0.0
C886 C 0.1154 0.08761 0.91502 0.0
H887 H 0.11156 0.03785 0.627 0.0
H888 H 0.08279 0.10244 0.23897 0.0
H889 H 0.04025 0.04364 0.84691 0.0
H890 H 0.03924 0.09522 0.90761 0.0
Co891 Co 0.68508 0.34641 0.66968 0.0
C892 C 0.6851 0.34589 0.45282 0.0
C893 C 0.70474 0.36024 0.51116 0.0
C894 C 0.70561 0.36071 0.41116 0.0
N895 N 0.69199 0.35084 0.53732 0.0
N896 N 0.69331 0.35163 0.37442 0.0
H897 H 0.67435 0.33821 0.44882 0.0
H898 H 0.71268 0.36658 0.56132 0.0
C899 C 0.71565 0.33542 0.7684 0.0
O900 O 0.70695 0.32334 0.80413 0.0
N901 N 0.67802 0.3426 0.80447 0.0
C902 C 0.6636 0.33652 0.83541 0.0
C903 C 0.66313 0.33687 0.93537 0.0
C904 C 0.68563 0.34748 0.88732 0.0
N905 N 0.67706 0.34361 0.96851 0.0
C906 C 0.6712 0.31411 0.64514 0.0
C907 C 0.69968 0.29886 0.58873 0.0
C908 C 0.68571 0.2893 0.60363 0.0
C909 C 0.67123 0.29722 0.62998 0.0
C910 C 0.69908 0.31573 0.60455 0.0
N911 N 0.68526 0.32301 0.63942 0.0
H912 H 0.65977 0.31998 0.65997 0.0
H913 H 0.70988 0.3229 0.58993 0.0
H914 H 0.65359 0.33283 0.78971 0.0
H915 H 0.69699 0.3542 0.88798 0.0
O916 O 0.6628 0.35155 0.63383 0.0
O917 O 0.68087 0.36946 0.68827 0.0
O918 O 0.70886 0.34588 0.71235 0.0
C919 C 0.66611 0.36659 0.65737 0.0
H920 H 0.71435 0.3676 0.36875 0.0
H921 H 0.65315 0.33258 0.98016 0.0
H922 H 0.71099 0.29335 0.56483 0.0
H923 H 0.66002 0.29043 0.64041 0.0
Co924 Co 0.40921 0.06677 0.62124 0.0
C925 C 0.40948 0.06751 0.84147 0.0
C926 C 0.39293 0.04987 0.78224 0.0
C927 C 0.39178 0.04936 0.882 0.0
N928 N 0.40434 0.06096 0.75624 0.0
N929 N 0.4021 0.06051 0.91911 0.0
H930 H 0.41815 0.0773 0.84795 0.0
H931 H 0.38577 0.04272 0.73166 0.0
C932 C 0.4155 0.03127 0.63595 0.0
O933 O 0.42374 0.03515 0.7146 0.0
N934 N 0.41338 0.07274 0.48715 0.0
C935 C 0.42304 0.08516 0.45873 0.0
C936 C 0.4228 0.0861 0.35904 0.0
C937 C 0.40726 0.06631 0.40419 0.0
N938 N 0.41276 0.07438 0.32452 0.0
C939 C 0.44032 0.07777 0.69898 0.0
C940 C 0.45939 0.05706 0.58874 0.0
C941 C 0.46708 0.06808 0.6515 0.0
C942 C 0.45736 0.07852 0.70733 0.0
C943 C 0.44238 0.05656 0.58372 0.0
N944 N 0.43293 0.06634 0.6414 0.0
H945 H 0.43319 0.08703 0.73457 0.0
H946 H 0.43686 0.04868 0.53001 0.0
H947 H 0.42987 0.09297 0.50738 0.0
H948 H 0.39882 0.05614 0.40222 0.0
O949 O 0.40499 0.08947 0.65056 0.0
O950 O 0.38621 0.07174 0.60366 0.0
O951 O 0.40894 0.04263 0.58512 0.0
C952 C 0.38978 0.08664 0.62925 0.0
H953 H 0.38363 0.0417 0.92402 0.0
H954 H 0.42977 0.09458 0.31534 0.0
H955 H 0.46649 0.04913 0.5422 0.0
H956 H 0.46291 0.08771 0.75339 0.0
Co957 Co 0.68379 0.65945 0.37787 0.0
C958 C 0.68378 0.66037 0.59809 0.0
C959 C 0.70041 0.64295 0.53867 0.0
C960 C 0.70137 0.64222 0.63848 0.0
N961 N 0.68963 0.65459 0.51273 0.0
N962 N 0.69099 0.65328 0.6759 0.0
H963 H 0.67399 0.66899 0.60457 0.0
H964 H 0.70717 0.63547 0.48802 0.0
C965 C 0.71931 0.66614 0.39157 0.0
O966 O 0.71559 0.67401 0.4718 0.0
N967 N 0.67791 0.66366 0.24377 0.0
C968 C 0.66522 0.67286 0.21461 0.0
C969 C 0.66517 0.67357 0.11473 0.0
C970 C 0.68535 0.65871 0.16117 0.0
N971 N 0.67786 0.66477 0.08116 0.0
C972 C 0.6728 0.69045 0.45681 0.0
C973 C 0.69393 0.70974 0.35031 0.0
C974 C 0.68332 0.71726 0.41593 0.0
C975 C 0.67253 0.70744 0.4691 0.0
C976 C 0.694 0.69275 0.34179 0.0
N977 N 0.68415 0.68317 0.3985 0.0
H978 H 0.66339 0.68327 0.49092 0.0
H979 H 0.70172 0.68738 0.28699 0.0
H980 H 0.65664 0.67873 0.26288 0.0
H981 H 0.6961 0.65108 0.15958 0.0
O982 O 0.66109 0.65501 0.40695 0.0
O983 O 0.6789 0.63642 0.35978 0.0
O984 O 0.7079 0.65939 0.34189 0.0
C985 C 0.66399 0.63983 0.38536 0.0
H986 H 0.70918 0.63422 0.68027 0.0
H987 H 0.65633 0.67989 0.07008 0.0
H988 H 0.702 0.71695 0.30507 0.0
H989 H 0.66354 0.71289 0.51666 0.0
Co990 Co 0.0961 0.93546 0.13746 0.0
C991 C 0.09614 0.93444 0.35785 0.0
C992 C 0.11288 0.95185 0.29822 0.0
C993 C 0.11409 0.9524 0.39796 0.0
N994 N 0.10135 0.94088 0.27252 0.0
N995 N 0.10364 0.94138 0.43528 0.0
H996 H 0.08722 0.92488 0.36463 0.0
H997 H 0.11999 0.95899 0.24744 0.0
C998 C 0.08885 0.97066 0.15813 0.0
O999 O 0.08132 0.96602 0.23775 0.0
N1000 N 0.09159 0.92987 1.00312 0.0
C1001 C 0.08186 0.91752 0.97432 0.0
C1002 C 0.08217 0.91657 0.87468 0.0
C1003 C 0.09784 0.93623 0.92038 0.0
N1004 N 0.09235 0.92819 0.84055 0.0
C1005 C 0.06558 0.92329 0.21598 0.0
C1006 C 0.04568 0.94419 0.11259 0.0
C1007 C 0.03842 0.93257 0.17341 0.0
C1008 C 0.04859 0.92196 0.2253 0.0
C1009 C 0.06262 0.94512 0.10564 0.0
N1010 N 0.07249 0.93527 0.16041 0.0
H1011 H 0.07308 0.91405 0.24916 0.0
H1012 H 0.06775 0.95338 0.05273 0.0
H1013 H 0.07503 0.90967 0.0227 0.0
H1014 H 0.10646 0.94626 0.91873 0.0
O1015 O 0.10067 0.91277 0.16332 0.0
O1016 O 0.11914 0.93085 0.11676 0.0
O1017 O 0.09572 0.9598 0.1048 0.0
C1018 C 0.11576 0.91583 0.14061 0.0
H1019 H 0.12229 0.96002 0.43987 0.0
H1020 H 0.07523 0.90809 0.83073 0.0
H1021 H 0.03829 0.95232 0.0689 0.0
H1022 H 0.04348 0.91224 0.26912 0.0
Co1023 Co 0.81937 0.34634 0.8788 0.0
C1024 C 0.81986 0.34634 0.09943 0.0
C1025 C 0.80152 0.36176 0.03805 0.0
C1026 C 0.80079 0.36309 0.13753 0.0
N1027 N 0.81318 0.35093 1.01346 0.0
N1028 N 0.81241 0.35349 0.17632 0.0
H1029 H 0.83033 0.33854 0.10686 0.0
H1030 H 0.794 0.36832 0.98667 0.0
C1031 C 0.78401 0.33857 0.88917 0.0
O1032 O 0.78778 0.33048 0.96856 0.0
N1033 N 0.82554 0.34252 0.74479 0.0
C1034 C 0.83827 0.33345 0.71504 0.0
C1035 C 0.83859 0.33335 0.61503 0.0
C1036 C 0.81835 0.34798 0.66258 0.0
N1037 N 0.82613 0.34253 0.582 0.0
C1038 C 0.83052 0.31534 0.95882 0.0
C1039 C 0.81052 0.29603 0.84463 0.0
C1040 C 0.82101 0.28846 0.91071 0.0
C1041 C 0.83114 0.29829 0.96838 0.0
C1042 C 0.81016 0.31301 0.83829 0.0
N1043 N 0.8195 0.32259 0.89808 0.0
H1044 H 0.83947 0.32259 0.99656 0.0
H1045 H 0.80262 0.31842 0.78262 0.0
H1046 H 0.84668 0.32724 0.76296 0.0
H1047 H 0.80753 0.35552 0.66185 0.0
O1048 O 0.84196 0.35146 0.90925 0.0
O1049 O 0.82352 0.36945 0.86196 0.0
O1050 O 0.79533 0.34581 0.84129 0.0
C1051 C 0.83849 0.36657 0.88847 0.0
H1052 H 0.7922 0.37044 0.17787 0.0
H1053 H 0.84743 0.32714 0.56989 0.0
H1054 H 0.80283 0.28885 0.79683 0.0
H1055 H 0.83994 0.29283 1.01722 0.0
C1056 C 0.09656 0.55566 0.69644 0.0
C1057 C 0.09606 0.57187 0.7301 0.0
C1058 C 0.09866 0.55214 0.59712 0.0
C1059 C 0.10028 0.56467 0.52764 0.0
H1060 H 0.0949 0.54565 0.74687 0.0
H1061 H 0.09868 0.53951 0.5741 0.0
S1062 S 0.10218 0.60901 0.57965 0.0
N1063 N 0.09905 0.60049 0.68683 0.0
N1064 N 0.10281 0.59383 0.50083 0.0
C1065 C 0.10035 0.58088 0.56072 0.0
C1066 C 0.0983 0.58448 0.6617 0.0
C1067 C 0.67824 0.83627 0.81642 0.0
C1068 C 0.68729 0.84975 0.783 0.0
C1069 C 0.67446 0.83439 0.91546 0.0
C1070 C 0.67961 0.84587 0.98539 0.0
H1071 H 0.67428 0.82694 0.76587 0.0
H1072 H 0.66759 0.82373 0.9378 0.0
S1073 S 0.70222 0.88416 0.93546 0.0
N1074 N 0.70027 0.87544 0.8279 0.0
N1075 N 0.69339 0.87166 1.01352 0.0
C1076 C 0.68847 0.85951 0.95307 0.0
C1077 C 0.69223 0.86151 0.85214 0.0
C1078 C 0.41909 0.43285 0.0596 0.0
C1079 C 0.40362 0.4376 0.02565 0.0
C1080 C 0.42192 0.42982 0.15869 0.0
C1081 C 0.40941 0.43149 0.22816 0.0
H1082 H 0.42917 0.43166 1.00932 0.0
H1083 H 0.43405 0.42628 0.18136 0.0
S1084 S 0.36637 0.44224 0.17688 0.0
N1085 N 0.37535 0.44283 0.06951 0.0
N1086 N 0.38079 0.43736 0.25546 0.0
C1087 C 0.39386 0.4361 0.19538 0.0
C1088 C 0.39093 0.43909 0.09432 0.0
C1089 C 0.83136 0.15508 0.30194 0.0
C1090 C 0.81541 0.15786 0.26859 0.0
C1091 C 0.83526 0.15628 0.40117 0.0
C1092 C 0.82342 0.16051 0.47131 0.0
H1093 H 0.8408 0.15161 0.25107 0.0
H1094 H 0.84766 0.15369 0.42305 0.0
S1095 S 0.7801 0.17041 0.41943 0.0
N1096 N 0.78783 0.16574 0.31219 0.0
N1097 N 0.79519 0.16841 0.49803 0.0
C1098 C 0.80745 0.16359 0.4383 0.0
C1099 C 0.80346 0.16219 0.33726 0.0
C1100 C 0.08513 0.42833 0.4906 0.0
C1101 C 0.0993 0.43625 0.52442 0.0
C1102 C 0.08305 0.42456 0.39157 0.0
C1103 C 0.09499 0.42864 0.32197 0.0
H1104 H 0.07545 0.42524 0.54084 0.0
H1105 H 0.0719 0.41857 0.3689 0.0
S1106 S 0.13505 0.44783 0.37281 0.0
N1107 N 0.12608 0.44682 0.48006 0.0
N1108 N 0.12189 0.44006 0.2945 0.0
C1109 C 0.10929 0.43633 0.35463 0.0
C1110 C 0.11152 0.44003 0.45556 0.0
C1111 C 0.82966 0.84817 0.739 0.0
C1112 C 0.81347 0.84901 0.77214 0.0
C1113 C 0.83322 0.84625 0.63968 0.0
C1114 C 0.82074 0.84497 0.56923 0.0
H1115 H 0.83964 0.84929 0.79012 0.0
H1116 H 0.84589 0.84587 0.61787 0.0
S1117 S 0.77628 0.84507 0.61992 0.0
N1118 N 0.78483 0.84761 0.72757 0.0
N1119 N 0.79148 0.84383 0.54159 0.0
C1120 C 0.80449 0.8456 0.60183 0.0
C1121 C 0.80087 0.84764 0.70296 0.0
C1122 C 0.42087 0.57557 0.89479 0.0
C1123 C 0.4086 0.57276 0.82473 0.0
C1124 C 0.41836 0.57207 0.99384 0.0
C1125 C 0.40346 0.56563 0.02736 0.0
H1126 H 0.43261 0.58034 0.8726 0.0
H1127 H 0.42827 0.57418 0.04435 0.0
S1128 S 0.36681 0.55762 0.8752 0.0
N1129 N 0.38066 0.5641 0.79708 0.0
N1130 N 0.37583 0.5577 0.98257 0.0
C1131 C 0.39097 0.56306 0.95823 0.0
C1132 C 0.39357 0.56655 0.85727 0.0
C1133 C 0.69754 0.16312 0.09504 0.0
C1134 C 0.68162 0.16007 0.06088 0.0
C1135 C 0.70143 0.16168 0.19438 0.0
C1136 C 0.68956 0.15726 0.26367 0.0
H1137 H 0.70695 0.16699 0.04489 0.0
H1138 H 0.71379 0.16432 0.21755 0.0
S1139 S 0.6467 0.14582 0.21105 0.0
N1140 N 0.65433 0.1508 0.10401 0.0
N1141 N 0.66164 0.14849 0.29004 0.0
C1142 C 0.67374 0.15377 0.23032 0.0
C1143 C 0.66979 0.15506 0.12923 0.0
C1144 C 0.90874 0.42143 0.38376 0.0
C1145 C 0.90984 0.43401 0.31406 0.0
C1146 C 0.90649 0.42484 0.48289 0.0
C1147 C 0.90512 0.44097 0.51644 0.0
H1148 H 0.9095 0.40879 0.36142 0.0
H1149 H 0.90557 0.41477 0.53356 0.0
S1150 S 0.90848 0.47841 0.36623 0.0
N1151 N 0.91031 0.46333 0.2874 0.0
N1152 N 0.90584 0.46969 0.47331 0.0
C1153 C 0.90629 0.45368 0.44801 0.0
C1154 C 0.90869 0.45022 0.34702 0.0
C1155 C 0.31634 0.14531 0.09289 0.0
C1156 C 0.32413 0.15947 0.05882 0.0
C1157 C 0.31278 0.14329 0.19218 0.0
C1158 C 0.31673 0.15542 0.26128 0.0
H1159 H 0.31335 0.13556 0.04276 0.0
H1160 H 0.30712 0.13199 0.21515 0.0
S1161 S 0.33537 0.19568 0.20653 0.0
N1162 N 0.33456 0.18635 0.10027 0.0
N1163 N 0.32763 0.18271 0.28598 0.0
C1164 C 0.32409 0.16985 0.22731 0.0
C1165 C 0.32781 0.17184 0.12642 0.0
C1166 C 0.60626 0.56641 0.84394 0.0
C1167 C 0.59149 0.57295 0.8099 0.0
C1168 C 0.60861 0.56301 0.94326 0.0
C1169 C 0.59623 0.5659 1.01249 0.0
H1170 H 0.6162 0.56429 0.79375 0.0
H1171 H 0.62032 0.55832 0.96621 0.0
S1172 S 0.55453 0.58088 0.95825 0.0
N1173 N 0.56385 0.58091 0.85185 0.0
N1174 N 0.56816 0.57434 0.03752 0.0
C1175 C 0.58123 0.57196 0.97865 0.0
C1176 C 0.57889 0.5755 0.87774 0.0
C1177 C 0.19934 0.84534 0.70197 0.0
C1178 C 0.18739 0.84828 0.77352 0.0
C1179 C 0.19525 0.84413 0.60278 0.0
C1180 C 0.17902 0.84577 0.57074 0.0
H1181 H 0.21196 0.8437 0.72304 0.0
H1182 H 0.20481 0.84152 0.55101 0.0
S1183 S 0.14349 0.8559 0.72691 0.0
N1184 N 0.15887 0.85433 0.80387 0.0
N1185 N 0.15118 0.85212 0.61832 0.0
C1186 C 0.16704 0.84927 0.64123 0.0
C1187 C 0.17121 0.85048 0.74221 0.0
C1188 C 0.89656 0.56725 0.68365 0.0
C1189 C 0.91059 0.57529 0.71781 0.0
C1190 C 0.89465 0.56353 0.58443 0.0
C1191 C 0.90677 0.56753 0.51539 0.0
H1192 H 0.88684 0.56418 0.73369 0.0
H1193 H 0.88344 0.55769 0.5615 0.0
S1194 S 0.94669 0.58691 0.57066 0.0
N1195 N 0.93728 0.58613 0.67664 0.0
N1196 N 0.93392 0.57882 0.49118 0.0
C1197 C 0.92107 0.57516 0.54955 0.0
C1198 C 0.92292 0.57909 0.65036 0.0
C1199 C 0.19763 0.15723 0.44853 0.0
C1200 C 0.18142 0.15649 0.48183 0.0
C1201 C 0.20135 0.15563 0.34909 0.0
C1202 C 0.18901 0.15328 0.27891 0.0
H1203 H 0.20746 0.1595 0.49941 0.0
H1204 H 0.21397 0.15652 0.3266 0.0
S1205 S 0.14487 0.14829 0.32955 0.0
N1206 N 0.1531 0.15171 0.43729 0.0
N1207 N 0.1601 0.14888 0.25111 0.0
C1208 C 0.17282 0.15205 0.31158 0.0
C1209 C 0.16904 0.15359 0.41273 0.0
C1210 C 0.59953 0.42323 0.05121 0.0
C1211 C 0.59708 0.43918 1.01714 0.0
C1212 C 0.59823 0.41953 0.15065 0.0
C1213 C 0.59425 0.4316 0.21994 0.0
H1214 H 0.60282 0.41364 1.0008 0.0
H1215 H 0.60052 0.40711 0.17343 0.0
S1216 S 0.58512 0.47497 0.16508 0.0
N1217 N 0.58971 0.46695 0.05852 0.0
N1218 N 0.58685 0.46 0.24482 0.0
C1219 C 0.59148 0.44755 0.18599 0.0
C1220 C 0.59297 0.45133 0.08485 0.0
C1221 C 0.32024 0.83102 0.91057 0.0
C1222 C 0.3199 0.8436 0.98027 0.0
C1223 C 0.31769 0.83424 0.81145 0.0
C1224 C 0.31478 0.85018 0.7778 0.0
H1225 H 0.3224 0.81856 0.93311 0.0
H1226 H 0.3178 0.82411 0.7609 0.0
S1227 S 0.31422 0.88764 0.92993 0.0
N1228 N 0.31729 0.8727 1.00831 0.0
N1229 N 0.31274 0.87885 0.82224 0.0
C1230 C 0.31464 0.86292 0.84677 0.0
C1231 C 0.31713 0.8596 0.94784 0.0
C1232 C 0.59397 0.05658 0.08354 0.0
C1233 C 0.59876 0.06823 1.01381 0.0
C1234 C 0.5931 0.06053 0.18291 0.0
C1235 C 0.59711 0.07626 0.21644 0.0
H1236 H 0.59064 0.04437 0.06072 0.0
H1237 H 0.5889 0.05133 0.23356 0.0
S1238 S 0.61262 0.11043 0.06443 0.0
N1239 N 0.60887 0.09565 0.98591 0.0
N1240 N 0.60765 0.10305 0.17213 0.0
C1241 C 0.60249 0.08784 0.14753 0.0
C1242 C 0.60319 0.08384 0.04642 0.0
C1243 C 0.19128 0.35783 0.33534 0.0
C1244 C 0.18803 0.34556 0.26579 0.0
C1245 C 0.18763 0.35561 0.43452 0.0
C1246 C 0.18046 0.34108 0.46824 0.0
H1247 H 0.19646 0.36938 0.31282 0.0
H1248 H 0.19011 0.36546 0.48488 0.0
S1249 S 0.17117 0.30445 0.31918 0.0
N1250 N 0.17843 0.3178 0.24037 0.0
N1251 N 0.17136 0.31378 0.42559 0.0
C1252 C 0.17746 0.32859 0.4001 0.0
C1253 C 0.18127 0.3308 0.29935 0.0
C1254 C 0.91046 0.94838 0.61097 0.0
C1255 C 0.90672 0.93634 0.54104 0.0
C1256 C 0.91191 0.94454 0.71011 0.0
C1257 C 0.90979 0.92848 0.74351 0.0
H1258 H 0.91254 0.96088 0.58872 0.0
H1259 H 0.91508 0.95415 0.7608 0.0
S1260 S 0.89827 0.8927 0.59284 0.0
N1261 N 0.89978 0.90785 0.51418 0.0
N1262 N 0.90273 0.90061 0.70004 0.0
C1263 C 0.90578 0.91636 0.67495 0.0
C1264 C 0.90421 0.92028 0.57396 0.0
C1265 C 0.30373 0.65926 0.85606 0.0
C1266 C 0.31562 0.65541 0.7858 0.0
C1267 C 0.3077 0.66038 0.95533 0.0
C1268 C 0.32368 0.65757 0.98852 0.0
H1269 H 0.2913 0.6617 0.83379 0.0
H1270 H 0.2983 0.66387 1.00624 0.0
S1271 S 0.35882 0.64506 0.8354 0.0
N1272 N 0.34373 0.64756 0.75727 0.0
N1273 N 0.35117 0.64938 0.94339 0.0
C1274 C 0.33557 0.65322 0.9192 0.0
C1275 C 0.33155 0.65222 0.81809 0.0
C1276 C 0.59445 0.92474 0.98182 0.0
C1277 C 0.60027 0.93998 1.01363 0.0
C1278 C 0.59179 0.92152 0.8827 0.0
C1279 C 0.59473 0.93342 0.81048 0.0
H1280 H 0.5921 0.91512 0.03388 0.0
H1281 H 0.58743 0.90952 0.86264 0.0
S1282 S 0.6098 0.97551 0.8556 0.0
N1283 N 0.60867 0.96725 0.9647 0.0
N1284 N 0.60378 0.96119 0.77917 0.0
C1285 C 0.6007 0.94869 0.8413 0.0
C1286 C 0.6034 0.95198 0.94243 0.0
C1287 C 0.31328 0.35954 0.19291 0.0
C1288 C 0.31464 0.34686 0.26181 0.0
C1289 C 0.31626 0.35681 0.09356 0.0
C1290 C 0.32082 0.34131 0.05938 0.0
H1291 H 0.31019 0.37177 0.21617 0.0
H1292 H 0.31544 0.36696 0.04348 0.0
S1293 S 0.32407 0.30356 0.2068 0.0
N1294 N 0.31937 0.31788 0.28636 0.0
N1295 N 0.32521 0.31285 0.10051 0.0
C1296 C 0.32176 0.32845 0.12678 0.0
C1297 C 0.31863 0.33119 0.22768 0.0
C1298 C 0.91833 0.07209 0.48857 0.0
C1299 C 0.90361 0.06533 0.52246 0.0
C1300 C 0.9207 0.07552 0.38941 0.0
C1301 C 0.90847 0.0723 0.31981 0.0
H1302 H 0.92822 0.07449 0.53885 0.0
H1303 H 0.93231 0.08055 0.36674 0.0
S1304 S 0.86707 0.05626 0.37149 0.0
N1305 N 0.87614 0.0567 0.47868 0.0
N1306 N 0.88074 0.06296 0.29284 0.0
C1307 C 0.89361 0.0658 0.35275 0.0
C1308 C 0.89114 0.06238 0.4538 0.0
C1309 C 0.19603 0.65815 0.59723 0.0
C1310 C 0.17982 0.65738 0.56383 0.0
C1311 C 0.19976 0.65657 0.69671 0.0
C1312 C 0.18743 0.65422 0.76682 0.0
H1313 H 0.20586 0.66043 0.5464 0.0
H1314 H 0.21238 0.65749 0.71926 0.0
S1315 S 0.14329 0.64915 0.71591 0.0
N1316 N 0.15151 0.65257 0.60822 0.0
N1317 N 0.15852 0.64977 0.79444 0.0
C1318 C 0.17124 0.65296 0.73405 0.0
C1319 C 0.16745 0.65448 0.63287 0.0
C1320 C 0.41942 0.92949 0.97208 0.0
C1321 C 0.40504 0.93694 1.00564 0.0
C1322 C 0.42162 0.92574 0.8731 0.0
C1323 C 0.40953 0.92923 0.8031 0.0
H1324 H 0.42919 0.92678 0.02251 0.0
H1325 H 0.43301 0.92022 0.85099 0.0
S1326 S 0.36898 0.9473 0.85404 0.0
N1327 N 0.37806 0.94673 0.96114 0.0
N1328 N 0.38224 0.93975 0.77591 0.0
C1329 C 0.395 0.93648 0.8358 0.0
C1330 C 0.39274 0.94029 0.93667 0.0
C1331 C 0.83024 0.65652 0.74088 0.0
C1332 C 0.81396 0.65669 0.77292 0.0
C1333 C 0.83414 0.6581 0.64169 0.0
C1334 C 0.82193 0.66004 0.57018 0.0
H1335 H 0.84004 0.65486 0.79277 0.0
H1336 H 0.84686 0.65767 0.62084 0.0
S1337 S 0.77743 0.66278 0.61774 0.0
N1338 N 0.78557 0.65981 0.72608 0.0
N1339 N 0.79284 0.663 0.54055 0.0
C1340 C 0.80559 0.66047 0.60174 0.0
C1341 C 0.80163 0.65877 0.70269 0.0
C1342 C 0.09482 0.05403 0.46283 0.0
C1343 C 0.09837 0.06587 0.53418 0.0
C1344 C 0.09375 0.05814 0.36364 0.0
C1345 C 0.09618 0.07426 0.33146 0.0
H1346 H 0.09259 0.0415 0.48409 0.0
H1347 H 0.09063 0.04868 0.31199 0.0
S1348 S 0.10808 0.10938 0.48722 0.0
N1349 N 0.10579 0.09411 0.56433 0.0
N1350 N 0.1039 0.10182 0.37871 0.0
C1351 C 0.10029 0.08611 0.40179 0.0
C1352 C 0.10132 0.08193 0.50277 0.0
C1353 C 0.66932 0.34841 0.14088 0.0
C1354 C 0.6815 0.34599 0.0698 0.0
C1355 C 0.67321 0.34998 0.2401 0.0
C1356 C 0.68945 0.34935 0.27259 0.0
H1357 H 0.65663 0.34923 0.11971 0.0
H1358 H 0.66345 0.35202 0.29166 0.0
S1359 S 0.72587 0.34193 0.11882 0.0
N1360 N 0.7105 0.34206 0.04118 0.0
N1361 N 0.71776 0.34531 0.22677 0.0
C1362 C 0.70175 0.34681 0.20284 0.0
C1363 C 0.6978 0.34508 0.10186 0.0
C1364 C 0.40748 0.05499 0.1896 0.0
C1365 C 0.4092 0.07111 0.22329 0.0
C1366 C 0.40509 0.05162 0.09028 0.0
C1367 C 0.40441 0.06424 1.02086 0.0
H1368 H 0.4084 0.04489 0.24001 0.0
H1369 H 0.40411 0.03903 0.0672 0.0
S1370 S 0.40592 0.10859 0.07267 0.0
N1371 N 0.40838 0.09988 0.1799 0.0
N1372 N 0.40413 0.09349 0.99392 0.0
C1373 C 0.40559 0.08041 0.05389 0.0
C1374 C 0.40791 0.08385 0.15485 0.0
C1375 C 0.68625 0.64664 0.94631 0.0
C1376 C 0.68206 0.66225 0.98035 0.0
C1377 C 0.68917 0.6438 0.84697 0.0
C1378 C 0.6881 0.65649 0.77795 0.0
H1379 H 0.68682 0.63648 0.99647 0.0
H1380 H 0.69196 0.6315 0.82381 0.0
S1381 S 0.67974 0.70003 0.83252 0.0
N1382 N 0.67836 0.6908 0.93891 0.0
N1383 N 0.68408 0.68558 0.75312 0.0
C1384 C 0.68449 0.67227 0.81194 0.0
C1385 C 0.68143 0.67512 0.91281 0.0
C1386 C 0.10047 0.95057 0.60573 0.0
C1387 C 0.10122 0.93783 0.53709 0.0
C1388 C 0.09793 0.94737 0.70508 0.0
C1389 C 0.09613 0.93129 0.7395 0.0
H1390 H 0.10151 0.96312 0.58199 0.0
H1391 H 0.09695 0.95754 0.75491 0.0
S1392 S 0.09961 0.89358 0.5912 0.0
N1393 N 0.1015 0.90855 0.5117 0.0
N1394 N 0.09701 0.90246 0.6978 0.0
C1395 C 0.09751 0.91844 0.67188 0.0
C1396 C 0.09997 0.92173 0.5709 0.0
C1397 C 0.82411 0.333 0.41174 0.0
C1398 C 0.82219 0.3455 0.4811 0.0
C1399 C 0.82099 0.33573 0.31263 0.0
C1400 C 0.81589 0.35108 0.27857 0.0
H1401 H 0.82791 0.32095 0.43451 0.0
H1402 H 0.82237 0.32565 0.26242 0.0
S1403 S 0.81053 0.38829 0.42946 0.0
N1404 N 0.81573 0.37401 0.50815 0.0
N1405 N 0.81009 0.37926 0.32219 0.0
C1406 C 0.81417 0.36376 0.34712 0.0
C1407 C 0.81725 0.36094 0.44818 0.0
C1408 C 0.13646 0.62827 0.14758 0.0
C1409 C 0.15318 0.62443 0.15166 0.0
C1410 C 0.12444 0.616 0.14461 0.0
C1411 C 0.12861 0.59933 0.14392 0.0
H1412 H 0.13257 0.64089 0.14762 0.0
H1413 H 0.11175 0.61964 0.14174 0.0
S1414 S 0.17067 0.58266 0.15279 0.0
N1415 N 0.17326 0.60264 0.15498 0.0
N1416 N 0.15076 0.57967 0.14771 0.0
C1417 C 0.14529 0.59531 0.14739 0.0
C1418 C 0.15753 0.60781 0.15177 0.0
C1419 C 0.6237 0.88791 0.40898 0.0
C1420 C 0.62788 0.90458 0.41202 0.0
C1421 C 0.63573 0.87571 0.40659 0.0
C1422 C 0.65246 0.87965 0.4054 0.0
H1423 H 0.61101 0.8842 0.40883 0.0
H1424 H 0.63184 0.86308 0.40406 0.0
S1425 S 0.66995 0.92145 0.41254 0.0
N1426 N 0.65003 0.92435 0.41467 0.0
N1427 N 0.67256 0.90149 0.40836 0.0
C1428 C 0.65682 0.89627 0.4084 0.0
C1429 C 0.64457 0.9087 0.41229 0.0
C1430 C 0.36738 0.37331 0.64596 0.0
C1431 C 0.35067 0.37728 0.64816 0.0
C1432 C 0.37948 0.3855 0.64231 0.0
C1433 C 0.37541 0.40218 0.63908 0.0
H1434 H 0.37118 0.36067 0.64807 0.0
H1435 H 0.39215 0.38179 0.64108 0.0
S1436 S 0.33343 0.41913 0.64194 0.0
N1437 N 0.33071 0.39919 0.6466 0.0
N1438 N 0.35336 0.42199 0.63827 0.0
C1439 C 0.35874 0.40632 0.64055 0.0
C1440 C 0.34642 0.39392 0.64553 0.0
C1441 C 0.87937 0.11728 0.90012 0.0
C1442 C 0.87506 0.10065 0.90285 0.0
C1443 C 0.86744 0.12955 0.89564 0.0
C1444 C 0.85068 0.12573 0.89201 0.0
H1445 H 0.89208 0.12089 0.90251 0.0
H1446 H 0.87142 0.14216 0.89396 0.0
S1447 S 0.83289 0.08405 0.89566 0.0
N1448 N 0.85277 0.08101 0.90129 0.0
N1449 N 0.83043 0.10402 0.89109 0.0
C1450 C 0.8462 0.10914 0.89386 0.0
C1451 C 0.85835 0.09664 0.89983 0.0
C1452 C 0.15627 0.39215 0.88975 0.0
C1453 C 0.15211 0.37547 0.88744 0.0
C1454 C 0.14423 0.40432 0.89734 0.0
C1455 C 0.12753 0.40028 0.90106 0.0
H1456 H 0.16895 0.39586 0.88671 0.0
H1457 H 0.14803 0.41698 0.89925 0.0
S1458 S 0.11013 0.3584 0.89647 0.0
N1459 N 0.13003 0.35561 0.88946 0.0
N1460 N 0.10751 0.37833 0.90217 0.0
C1461 C 0.12322 0.38365 0.89819 0.0
C1462 C 0.13546 0.37129 0.89184 0.0
C1463 C 0.85935 0.90641 0.15996 0.0
C1464 C 0.87596 0.90204 0.16031 0.0
C1465 C 0.84692 0.89449 0.16255 0.0
C1466 C 0.85061 0.87771 0.16376 0.0
H1467 H 0.85589 0.91915 0.15808 0.0
H1468 H 0.83433 0.89847 0.16219 0.0
S1469 S 0.89216 0.85973 0.16596 0.0
N1470 N 0.89536 0.87961 0.16315 0.0
N1471 N 0.87217 0.85739 0.16654 0.0
C1472 C 0.86717 0.87319 0.16416 0.0
C1473 C 0.87979 0.88529 0.16287 0.0
C1474 C 0.34668 0.60934 0.40889 0.0
C1475 C 0.35077 0.62604 0.40831 0.0
C1476 C 0.3588 0.5972 0.41295 0.0
C1477 C 0.3755 0.60129 0.41469 0.0
H1478 H 0.33401 0.60559 0.40681 0.0
H1479 H 0.35505 0.58452 0.41339 0.0
S1480 S 0.39274 0.64323 0.41447 0.0
N1481 N 0.37281 0.64597 0.41057 0.0
N1482 N 0.39544 0.62329 0.41667 0.0
C1483 C 0.37974 0.61794 0.41398 0.0
C1484 C 0.36743 0.63027 0.41124 0.0
C1485 C 0.6455 0.09932 0.6403 0.0
C1486 C 0.62884 0.10348 0.6384 0.0
C1487 C 0.65776 0.11139 0.64449 0.0
C1488 C 0.65385 0.12812 0.64504 0.0
H1489 H 0.64913 0.08662 0.63924 0.0
H1490 H 0.6704 0.10758 0.64621 0.0
S1491 S 0.61206 0.14555 0.64037 0.0
N1492 N 0.60914 0.12563 0.63766 0.0
N1493 N 0.63201 0.14816 0.64392 0.0
C1494 C 0.63723 0.13243 0.64274 0.0
C1495 C 0.62478 0.12017 0.63989 0.0
C1496 C 0.86773 0.37586 0.89635 0.0
C1497 C 0.85101 0.37978 0.89378 0.0
C1498 C 0.87981 0.38807 0.89979 0.0
C1499 C 0.8757 0.40475 0.90241 0.0
H1500 H 0.87156 0.36322 0.89465 0.0
H1501 H 0.89248 0.38438 0.90131 0.0
S1502 S 0.8337 0.42161 0.89842 0.0
N1503 N 0.83102 0.40165 0.89434 0.0
N1504 N 0.85362 0.42451 0.90233 0.0
C1505 C 0.85903 0.40885 0.90063 0.0
C1506 C 0.84673 0.39642 0.89585 0.0
C1507 C 0.36047 0.09582 0.63503 0.0
C1508 C 0.37722 0.09976 0.63333 0.0
C1509 C 0.34845 0.10805 0.6399 0.0
C1510 C 0.35266 0.12472 0.64155 0.0
H1511 H 0.3566 0.08318 0.63356 0.0
H1512 H 0.33574 0.10439 0.64151 0.0
S1513 S 0.39476 0.14158 0.63785 0.0
N1514 N 0.39732 0.12162 0.63385 0.0
N1515 N 0.37485 0.14446 0.64152 0.0
C1516 C 0.36935 0.12881 0.63931 0.0
C1517 C 0.38158 0.11638 0.63565 0.0
C1518 C 0.64286 0.59825 0.39687 0.0
C1519 C 0.62616 0.60225 0.39707 0.0
C1520 C 0.655 0.61042 0.39218 0.0
C1521 C 0.65095 0.62712 0.38924 0.0
H1522 H 0.64661 0.58559 0.39938 0.0
H1523 H 0.66767 0.6067 0.39183 0.0
S1524 S 0.609 0.64415 0.38944 0.0
N1525 N 0.60625 0.62421 0.39415 0.0
N1526 N 0.62894 0.64695 0.38688 0.0
C1527 C 0.63429 0.63127 0.3901 0.0
C1528 C 0.62195 0.6189 0.39355 0.0
C1529 C 0.15691 0.89418 0.15394 0.0
C1530 C 0.15261 0.87754 0.14891 0.0
C1531 C 0.145 0.90652 0.14948 0.0
C1532 C 0.1283 0.90271 0.14154 0.0
H1533 H 0.16959 0.89772 0.16119 0.0
H1534 H 0.1489 0.91914 0.15401 0.0
S1535 S 0.11055 0.86108 0.12395 0.0
N1536 N 0.13037 0.858 0.13359 0.0
N1537 N 0.10813 0.88105 0.12663 0.0
C1538 C 0.12385 0.88613 0.13597 0.0
C1539 C 0.13595 0.8736 0.13923 0.0
C1540 C 0.85932 0.59886 0.14208 0.0
C1541 C 0.87596 0.60318 0.13933 0.0
C1542 C 0.84706 0.61082 0.14893 0.0
C1543 C 0.85094 0.62757 0.15143 0.0
H1544 H 0.85573 0.58614 0.13985 0.0
H1545 H 0.83443 0.6069 0.15117 0.0
S1546 S 0.89264 0.64535 0.14526 0.0
N1547 N 0.89561 0.62546 0.13964 0.0
N1548 N 0.87269 0.64779 0.15098 0.0
C1549 C 0.86752 0.63203 0.14817 0.0
C1550 C 0.87999 0.61988 0.14257 0.0
C1551 C 0.13743 0.12858 0.89878 0.0
C1552 C 0.15404 0.12426 0.89546 0.0
C1553 C 0.12507 0.11667 0.90356 0.0
C1554 C 0.12878 0.09991 0.90699 0.0
H1555 H 0.13389 0.14131 0.89696 0.0
H1556 H 0.11249 0.12068 0.906 0.0
S1557 S 0.17035 0.08205 0.90043 0.0
N1558 N 0.17351 0.10193 0.8952 0.0
N1559 N 0.15037 0.07963 0.90604 0.0
C1560 C 0.14534 0.09541 0.90396 0.0
C1561 C 0.15793 0.10754 0.89763 0.0
C1562 C 0.62471 0.38741 0.64081 0.0
C1563 C 0.62863 0.40414 0.63876 0.0
C1564 C 0.6369 0.37542 0.64586 0.0
C1565 C 0.65354 0.37964 0.65075 0.0
H1566 H 0.61209 0.38349 0.63752 0.0
H1567 H 0.63321 0.36272 0.64699 0.0
S1568 S 0.67036 0.42173 0.64871 0.0
N1569 N 0.65042 0.4243 0.64192 0.0
N1570 N 0.67329 0.40182 0.65317 0.0
C1571 C 0.65765 0.39633 0.6494 0.0
C1572 C 0.64522 0.40855 0.64283 0.0
C1573 C 0.35978 0.90536 0.38814 0.0
C1574 C 0.37642 0.90109 0.38634 0.0
C1575 C 0.34743 0.8934 0.38442 0.0
C1576 C 0.35121 0.87665 0.38053 0.0
H1577 H 0.35624 0.91807 0.39192 0.0
H1578 H 0.33483 0.89732 0.38604 0.0
S1579 S 0.39285 0.85894 0.37431 0.0
N1580 N 0.39595 0.87883 0.3796 0.0
N1581 N 0.37287 0.85646 0.37421 0.0
C1582 C 0.36779 0.87222 0.37882 0.0
C1583 C 0.38035 0.88439 0.38125 0.0
C1584 C 0.07634 0.48707 0.12382 0.0
C1585 C 0.08582 0.48099 0.04673 0.0
C1586 C 0.0771 0.50347 0.15179 0.0
C1587 C 0.08731 0.51473 0.1038 0.0
H1588 H 0.06824 0.47907 0.16387 0.0
H1589 H 0.06947 0.5073 0.2118 0.0
S1590 S 0.11456 0.50529 0.89595 0.0
N1591 N 0.10578 0.48767 0.92199 0.0
N1592 N 0.10712 0.51861 0.97429 0.0
C1593 C 0.09687 0.50891 0.02617 0.0
C1594 C 0.09617 0.49206 0.99789 0.0
C1595 C 0.7425 0.83304 0.36293 0.0
C1596 C 0.73274 0.8363 0.28126 0.0
C1597 C 0.75959 0.83306 0.3562 0.0
C1598 C 0.76755 0.83694 0.2685 0.0
H1599 H 0.73688 0.83001 0.43189 0.0
H1600 H 0.76664 0.82998 0.42013 0.0
S1601 S 0.74731 0.84678 0.03425 0.0
N1602 N 0.73206 0.84345 0.11025 0.0
N1603 N 0.76418 0.84429 0.09825 0.0
C1604 C 0.75785 0.84062 0.18684 0.0
C1605 C 0.74044 0.84009 0.19309 0.0
C1606 C 0.42522 0.515 0.63359 0.0
C1607 C 0.41703 0.52072 0.55052 0.0
C1608 C 0.42458 0.49857 0.66088 0.0
C1609 C 0.4158 0.48697 0.60619 0.0
H1610 H 0.4322 0.5233 0.67874 0.0
H1611 H 0.43117 0.495 0.72568 0.0
S1612 S 0.39229 0.49551 0.38109 0.0
N1613 N 0.39983 0.51343 0.41297 0.0
N1614 N 0.39868 0.48243 0.46409 0.0
C1615 C 0.40748 0.49247 0.52278 0.0
C1616 C 0.40806 0.50935 0.49512 0.0
C1617 C 0.76177 0.18589 0.77123 0.0
C1618 C 0.77071 0.17126 0.77265 0.0
C1619 C 0.74466 0.18582 0.76716 0.0
C1620 C 0.73578 0.17112 0.76192 0.0
H1621 H 0.76804 0.19753 0.77512 0.0
H1622 H 0.73835 0.19742 0.76656 0.0
S1623 S 0.75336 0.12946 0.76077 0.0
N1624 N 0.7694 0.14164 0.76821 0.0
N1625 N 0.73725 0.14153 0.75713 0.0
C1626 C 0.74456 0.1564 0.76176 0.0
C1627 C 0.76201 0.15646 0.76819 0.0
C1628 C 0.92717 0.50053 0.8893 0.0
C1629 C 0.91691 0.48934 0.93737 0.0
C1630 C 0.92802 0.51693 0.91724 0.0
C1631 C 0.91856 0.52305 0.9943 0.0
H1632 H 0.93477 0.49665 0.82927 0.0
H1633 H 0.93615 0.52489 0.87712 0.0
S1634 S 0.88964 0.49895 0.14486 0.0
N1635 N 0.89704 0.48558 0.06676 0.0
N1636 N 0.89855 0.51651 0.11898 0.0
C1637 C 0.90817 0.51205 0.04324 0.0
C1638 C 0.90739 0.4952 1.01503 0.0
C1639 C 0.24392 0.16646 0.68604 0.0
C1640 C 0.23607 0.16532 0.77676 0.0
C1641 C 0.26105 0.16647 0.67902 0.0
C1642 C 0.27089 0.16595 0.76274 0.0
H1643 H 0.23677 0.16736 0.61999 0.0
H1644 H 0.26662 0.16745 0.60784 0.0
S1645 S 0.25647 0.1628 1.01721 0.0
N1646 N 0.23956 0.16313 0.95185 0.0
N1647 N 0.27166 0.16403 0.93864 0.0
C1648 C 0.26323 0.16477 0.85367 0.0
C1649 C 0.24584 0.16421 0.8607 0.0
C1650 C 0.58339 0.49309 0.43536 0.0
C1651 C 0.58501 0.485 0.52497 0.0
C1652 C 0.58389 0.5102 0.42943 0.0
C1653 C 0.58537 0.51984 0.51355 0.0
H1654 H 0.58173 0.48613 0.3694 0.0
H1655 H 0.58257 0.51593 0.35891 0.0
S1656 S 0.58961 0.50476 0.76614 0.0
N1657 N 0.58837 0.48801 0.69966 0.0
N1658 N 0.58837 0.52016 0.68901 0.0
C1659 C 0.58687 0.51195 0.60365 0.0
C1660 C 0.58694 0.49453 0.60929 0.0
C1661 C 0.25954 0.84507 0.28295 0.0
C1662 C 0.26489 0.83806 0.37097 0.0
C1663 C 0.24309 0.84397 0.25331 0.0
C1664 C 0.23143 0.83562 0.30989 0.0
H1665 H 0.26812 0.85134 0.23611 0.0
H1666 H 0.23958 0.8494 0.18467 0.0
S1667 S 0.23874 0.81599 0.54928 0.0
N1668 N 0.25672 0.8232 0.51672 0.0
N1669 N 0.22626 0.82087 0.46001 0.0
C1670 C 0.23656 0.8288 0.39854 0.0
C1671 C 0.25315 0.83009 0.42931 0.0
C1672 C 0.5895 0.99608 0.42601 0.0
C1673 C 0.5866 0.98662 0.50982 0.0
C1674 C 0.58928 0.01327 0.42982 0.0
C1675 C 0.58683 0.02154 0.51818 0.0
H1676 H 0.5914 0.99019 0.35647 0.0
H1677 H 0.59108 0.02013 0.36334 0.0
S1678 S 0.57908 0.00248 0.75824 0.0
N1679 N 0.58095 0.98689 0.68307 0.0
N1680 N 0.58185 0.01896 0.6914 0.0
C1681 C 0.58444 0.01221 0.60267 0.0
C1682 C 0.58398 0.9948 0.59817 0.0
C1683 C 0.23829 0.3263 0.65788 0.0
C1684 C 0.23259 0.3345 0.7409 0.0
C1685 C 0.25462 0.32731 0.62897 0.0
C1686 C 0.26614 0.33648 0.682 0.0
H1687 H 0.23006 0.31902 0.61401 0.0
H1688 H 0.25819 0.32067 0.56436 0.0
S1689 S 0.25759 0.36024 0.90609 0.0
N1690 N 0.23979 0.35217 0.87643 0.0
N1691 N 0.2706 0.35401 0.82239 0.0
C1692 C 0.26064 0.34483 0.76532 0.0
C1693 C 0.24387 0.34387 0.79456 0.0
C1694 C 0.89433 0.99521 1.00698 0.0
C1695 C 0.90495 0.98464 0.0568 0.0
C1696 C 0.89813 0.01181 0.99427 0.0
C1697 C 0.91266 0.01865 0.03144 0.0
H1698 H 0.88298 0.99064 0.97708 0.0
H1699 H 0.88948 0.01935 0.95538 0.0
S1700 S 0.94462 0.99631 0.16877 0.0
N1701 N 0.93068 0.98235 0.14449 0.0
N1702 N 0.93775 0.01339 0.12048 0.0
C1703 C 0.92339 0.00822 0.08163 0.0
C1704 C 0.91956 0.9913 0.09424 0.0
C1705 C 0.2595 0.66737 0.36488 0.0
C1706 C 0.26921 0.66693 0.28061 0.0
C1707 C 0.24237 0.66751 0.35872 0.0
C1708 C 0.23438 0.66661 0.2683 0.0
H1709 H 0.26518 0.66813 0.43587 0.0
H1710 H 0.23533 0.6683 0.42517 0.0
S1711 S 0.25435 0.66443 0.02664 0.0
N1712 N 0.26966 0.6654 0.10459 0.0
N1713 N 0.23756 0.66476 0.0929 0.0
C1714 C 0.24399 0.66562 0.18381 0.0
C1715 C 0.26139 0.66603 0.19001 0.0
C1716 C 0.41127 0.00946 0.50838 0.0
C1717 C 0.4149 0.01385 0.60514 0.0
C1718 C 0.41215 0.99308 0.47736 0.0
C1719 C 0.41684 0.98061 0.54188 0.0
H1720 H 0.40819 0.01876 0.45559 0.0
H1721 H 0.40972 0.99025 0.4018 0.0
S1722 S 0.42507 0.98514 0.80555 0.0
N1723 N 0.42149 0.00388 0.76739 0.0
N1724 N 0.42339 0.97343 0.70849 0.0
C1725 C 0.41973 0.98472 0.63941 0.0
C1726 C 0.4187 1.00125 0.67119 0.0
C1727 C 0.74786 0.67651 0.40594 0.0
C1728 C 0.73656 0.66642 0.35741 0.0
C1729 C 0.76417 0.67748 0.3767 0.0
C1730 C 0.77012 0.66826 0.29817 0.0
H1731 H 0.74413 0.68392 0.46716 0.0
H1732 H 0.7722 0.68554 0.41699 0.0
S1733 S 0.74566 0.63997 0.14527 0.0
N1734 N 0.73248 0.64706 0.22553 0.0
N1735 N 0.7633 0.64873 0.17123 0.0
C1736 C 0.75902 0.65804 0.24875 0.0
C1737 C 0.74224 0.65717 0.27811 0.0
C1738 C 0.09517 0.99373 0.04133 0.0
C1739 C 0.08809 0.98821 0.12878 0.0
C1740 C 0.09399 0.0102 1.01226 0.0
C1741 C 0.08551 0.02174 0.06887 0.0
H1742 H 0.10158 0.98527 0.99455 0.0
H1743 H 0.09952 0.01384 0.94411 0.0
S1744 S 0.06559 0.01395 0.30686 0.0
N1745 N 0.07295 0.99608 0.27394 0.0
N1746 N 0.07052 0.02658 0.21839 0.0
C1747 C 0.07859 0.01642 0.15689 0.0
C1748 C 0.07994 0.99981 0.18705 0.0
C1749 C 0.73908 0.32747 0.874 0.0
C1750 C 0.73318 0.33681 0.79581 0.0
C1751 C 0.75541 0.32829 0.90311 0.0
C1752 C 0.76676 0.33834 0.85486 0.0
H1753 H 0.73099 0.31947 0.91415 0.0
H1754 H 0.75912 0.32081 0.96414 0.0
S1755 S 0.7578 0.36503 0.64343 0.0
N1756 N 0.7401 0.35638 0.66929 0.0
N1757 N 0.77094 0.35777 0.72346 0.0
C1758 C 0.76112 0.3477 0.77584 0.0
C1759 C 0.74433 0.34698 0.74657 0.0
C1760 C 0.01078 0.56681 0.2457 0.0
C1761 C 0.01943 0.57043 0.15996 0.0
C1762 C 0.9936 0.56704 0.24757 0.0
C1763 C 0.98455 0.57124 0.16429 0.0
H1764 H 0.01734 0.56349 0.31114 0.0
H1765 H 0.98736 0.56406 0.31467 0.0
S1766 S 1.00143 0.58199 0.9225 0.0
N1767 N 0.01767 0.57843 0.99033 0.0
N1768 N 0.98553 0.57911 0.99413 0.0
C1769 C 0.9931 0.57507 0.07867 0.0
C1770 C 0.01049 0.5746 0.07642 0.0
C1771 C 0.67956 0.74475 0.33996 0.0
C1772 C 0.68283 0.73534 0.42322 0.0
C1773 C 0.67932 0.76186 0.34418 0.0
C1774 C 0.68269 0.77021 0.4313 0.0
H1775 H 0.67707 0.73882 0.27114 0.0
H1776 H 0.6767 0.76864 0.27839 0.0
S1777 S 0.69204 0.75126 0.66945 0.0
N1778 N 0.68936 0.7356 0.59543 0.0
N1779 N 0.68932 0.76781 0.60276 0.0
C1780 C 0.68605 0.76097 0.51495 0.0
C1781 C 0.68598 0.74352 0.51109 0.0
C1782 C 0.49361 0.42904 0.58613 0.0
C1783 C 0.48439 0.43289 0.6692 0.0
C1784 C 0.51072 0.42907 0.58865 0.0
C1785 C 0.51927 0.43329 0.67376 0.0
H1786 H 0.48752 0.42594 0.51865 0.0
H1787 H 0.51733 0.42603 0.52295 0.0
S1788 S 0.50087 0.44433 0.91079 0.0
N1789 N 0.48504 0.44084 0.83921 0.0
N1790 N 0.51726 0.44126 0.84338 0.0
C1791 C 0.51022 0.43719 0.75732 0.0
C1792 C 0.49277 0.43686 0.75522 0.0
C1793 C 0.81831 0.26177 0.99986 0.0
C1794 C 0.82201 0.27036 0.914 0.0
C1795 C 0.81818 0.24459 1.00168 0.0
C1796 C 0.82209 0.23545 0.91822 0.0
H1797 H 0.81515 0.26839 0.06535 0.0
H1798 H 0.81513 0.23841 0.06887 0.0
S1799 S 0.8329 0.25216 0.67605 0.0
N1800 N 0.82979 0.26845 0.74411 0.0
N1801 N 0.82976 0.2363 0.74773 0.0
C1802 C 0.82601 0.24394 0.83251 0.0
C1803 C 0.82592 0.26134 0.83035 0.0
C1804 C 0.99396 0.43058 0.95748 0.0
C1805 C 0.98479 0.43425 0.87391 0.0
C1806 C 0.01106 0.43012 0.95459 0.0
C1807 C 0.01964 0.43363 0.86853 0.0
H1808 H 0.98786 0.42797 0.02556 0.0
H1809 H 0.01765 0.4272 1.02061 0.0
S1810 S 1.00135 0.444 0.63005 0.0
N1811 N 0.98549 0.44132 0.70253 0.0
N1812 N 0.01771 0.44082 0.69766 0.0
C1813 C 0.01063 0.43739 0.78455 0.0
C1814 C 0.99319 0.43756 0.78706 0.0
C1815 C 0.82434 0.76139 0.17854 0.0
C1816 C 0.81648 0.77017 0.10424 0.0
C1817 C 0.82443 0.74428 0.17936 0.0
C1818 C 0.81668 0.73517 0.10578 0.0
H1819 H 0.83035 0.7678 0.23747 0.0
H1820 H 0.83048 0.73814 0.239 0.0
S1821 S 0.79521 0.75226 0.8912 0.0
N1822 N 0.80123 0.76847 0.953 0.0
N1823 N 0.80147 0.73629 0.95413 0.0
C1824 C 0.80884 0.74378 0.03056 0.0
C1825 C 0.80872 0.76126 0.02988 0.0
C1826 C 0.49233 0.57641 0.42408 0.0
C1827 C 0.48321 0.5684 0.35158 0.0
C1828 C 0.50943 0.57646 0.42267 0.0
C1829 C 0.5182 0.5685 0.34868 0.0
H1830 H 0.48619 0.58253 0.48347 0.0
H1831 H 0.51585 0.58261 0.48101 0.0
S1832 S 0.5002 0.54669 0.1378 0.0
N1833 N 0.48426 0.5529 0.20106 0.0
N1834 N 0.51644 0.55299 0.19841 0.0
C1835 C 0.50927 0.56055 0.27511 0.0
C1836 C 0.49179 0.5605 0.27655 0.0
C1837 C 0.69907 0.24518 0.63959 0.0
C1838 C 0.68682 0.23617 0.59182 0.0
C1839 C 0.69884 0.26233 0.64087 0.0
C1840 C 0.68634 0.27116 0.59439 0.0
H1841 H 0.70863 0.23893 0.67912 0.0
H1842 H 0.70824 0.2687 0.68129 0.0
S1843 S 0.65265 0.25342 0.44801 0.0
N1844 N 0.66271 0.23742 0.48921 0.0
N1845 N 0.66228 0.26957 0.49145 0.0
C1846 C 0.6744 0.26231 0.54301 0.0
C1847 C 0.67464 0.24486 0.54174 0.0
C1848 C 0.31703 0.25967 0.53673 0.0
C1849 C 0.32096 0.26805 0.62298 0.0
C1850 C 0.31685 0.24248 0.53362 0.0
C1851 C 0.32092 0.23318 0.61611 0.0
H1852 H 0.31379 0.26643 0.47194 0.0
H1853 H 0.31365 0.23644 0.4662 0.0
S1854 S 0.33234 0.24933 0.85867 0.0
N1855 N 0.32905 0.26578 0.79223 0.0
N1856 N 0.32903 0.23363 0.78593 0.0
C1857 C 0.32506 0.24146 0.70216 0.0
C1858 C 0.32499 0.25886 0.70572 0.0
C1859 C 0.17555 0.74253 0.17557 0.0
C1860 C 0.18395 0.73379 0.10324 0.0
C1861 C 0.17559 0.75966 0.17728 0.0
C1862 C 0.184 0.76883 0.10654 0.0
H1863 H 0.16913 0.73607 0.23267 0.0
H1864 H 0.16921 0.76577 0.23575 0.0
S1865 S 0.20667 0.75184 0.89618 0.0
N1866 N 0.20014 0.73559 0.95576 0.0
N1867 N 0.20012 0.76777 0.95834 0.0
C1868 C 0.1922 0.76024 0.0326 0.0
C1869 C 0.19219 0.74275 0.03109 0.0
C1870 C 0.19796 0.25889 0.89237 0.0
C1871 C 0.18623 0.26782 0.94466 0.0
C1872 C 0.19812 0.24176 0.8941 0.0
C1873 C 0.1866 0.23282 0.94849 0.0
H1874 H 0.20678 0.2652 0.8473 0.0
H1875 H 0.20707 0.23545 0.85008 0.0
S1876 S 0.15469 0.25047 0.10816 0.0
N1877 N 0.16369 0.26651 0.05887 0.0
N1878 N 0.16408 0.23435 0.06314 0.0
C1879 C 0.17521 0.24164 1.00412 0.0
C1880 C 0.175 0.25909 1.00197 0.0
C1881 C 0.3142 0.74357 0.51086 0.0
C1882 C 0.3189 0.73436 0.42925 0.0
C1883 C 0.31433 0.76075 0.50827 0.0
C1884 C 0.31885 0.7692 0.42339 0.0
H1885 H 0.31053 0.73746 0.57718 0.0
H1886 H 0.3106 0.76746 0.57231 0.0
S1887 S 0.33189 0.75074 0.19023 0.0
N1888 N 0.32818 0.73496 0.26163 0.0
N1889 N 0.32809 0.76713 0.25627 0.0
C1890 C 0.3235 0.76011 0.3415 0.0
C1891 C 0.32361 0.74271 0.34457 0.0
C1892 C 0.51116 0.06666 0.73932 0.0
C1893 C 0.52001 0.07082 0.65519 0.0
C1894 C 0.49399 0.06614 0.73847 0.0
C1895 C 0.48515 0.06939 0.65293 0.0
H1896 H 0.51754 0.06393 0.80631 0.0
H1897 H 0.48759 0.06289 0.80459 0.0
S1898 S 0.50256 0.08068 0.41352 0.0
N1899 N 0.51864 0.07826 0.48448 0.0
N1900 N 0.48649 0.07698 0.48252 0.0
C1901 C 0.49388 0.0735 0.56852 0.0
C1902 C 0.51127 0.07429 0.56976 0.0
C1903 C 0.01146 0.93055 0.08881 0.0
C1904 C 0.02034 0.93096 0.17634 0.0
C1905 C 0.99438 0.93016 0.08854 0.0
C1906 C 0.98542 0.9302 0.17579 0.0
H1907 H 0.01778 0.93064 1.01967 0.0
H1908 H 0.98812 0.92997 1.01916 0.0
S1909 S 0.0028 0.93116 0.42478 0.0
N1910 N 0.01892 0.9312 0.35276 0.0
N1911 N 0.98673 0.93054 0.35231 0.0
C1912 C 0.99412 0.93021 0.26399 0.0
C1913 C 0.01159 0.93058 0.26424 0.0
C1914 C 0.51104 0.92643 0.40368 0.0
C1915 C 0.51972 0.93536 0.33316 0.0
C1916 C 0.49392 0.9261 0.40457 0.0
C1917 C 0.4847 0.93463 0.3348 0.0
H1918 H 0.51753 0.91988 0.46005 0.0
H1919 H 0.48786 0.91931 0.46173 0.0
S1920 S 0.50153 0.95872 0.12933 0.0
N1921 N 0.51782 0.95225 0.18853 0.0
N1922 N 0.48564 0.95151 0.18951 0.0
C1923 C 0.49323 0.94338 0.26271 0.0
C1924 C 0.5107 0.94377 0.26206 0.0
C1925 C 0.0102 0.06076 0.80632 0.0
C1926 C 0.01882 0.06889 0.88083 0.0
C1927 C 0.99301 0.06044 0.80439 0.0
C1928 C 0.98375 0.0683 0.87673 0.0
H1929 H 0.01679 0.05478 0.74821 0.0
H1930 H 0.98693 0.05425 0.74498 0.0
S1931 S 1.00026 0.08964 0.0936 0.0
N1932 N 0.01662 0.08383 0.03292 0.0
N1933 N 0.9845 0.08335 0.02879 0.0
C1934 C 0.99221 0.07612 0.95272 0.0
C1935 C 0.00965 0.07639 0.95487 0.0
loop_
_geom_bond_atom_site_label_1
_geom_bond_atom_site_label_2
_geom_bond_distance
_geom_bond_site_symmetry_2
_ccdc_geom_bond_type
Co0 N4 2.148 . S
Co0 N10 2.128 1_554 S
Co0 N20 2.194 . S
Co0 O25 2.351 . S
Co0 O26 2.155 . S
Co0 O27 2.096 . S
C1 N4 1.301 . S
C1 N5 1.328 . S
C1 H6 0.930 . S
C2 C3 1.333 . S
C2 N4 1.317 . S
C2 H7 0.930 . S
C3 C2 1.333 . S
C3 N5 1.350 . S
C3 H29 0.931 . S
N4 Co0 2.148 . S
N4 C1 1.301 . S
N4 C2 1.317 . S
N5 C1 1.328 . S
N5 C3 1.350 . S
H6 C1 0.930 . S
H7 C2 0.930 . S
C8 O9 1.224 . S
C8 O27 1.247 . S
O9 C8 1.224 . S
N10 Co0 2.128 1_556 S
N10 C11 1.355 . S
N10 C13 1.311 . S
C11 N10 1.355 . S
C11 C12 1.363 . S
C11 H23 0.929 . S
C12 C11 1.363 . S
C12 N14 1.375 . S
C12 H30 0.931 . S
C13 N10 1.311 . S
C13 N14 1.347 . S
C13 H24 0.929 . S
N14 C12 1.375 . S
N14 C13 1.347 . S
C15 C18 1.365 . S
C15 N20 1.328 . S
C15 H21 0.929 . S
C16 C17 1.362 . S
C16 C19 1.378 . S
C16 H31 0.929 . S
C17 C16 1.362 . S
C17 C18 1.366 . S
C18 C15 1.365 . S
C18 C17 1.366 . S
C18 H32 0.930 . S
C19 C16 1.378 . S
C19 N20 1.315 . S
C19 H22 0.930 . S
N20 Co0 2.194 . S
N20 C15 1.328 . S
N20 C19 1.315 . S
H21 C15 0.929 . S
H22 C19 0.930 . S
H23 C11 0.929 . S
H24 C13 0.929 . S
O25 Co0 2.351 . S
O25 C28 1.244 . S
O26 Co0 2.155 . S
O26 C28 1.240 . S
O27 Co0 2.096 . S
O27 C8 1.247 . S
C28 O25 1.244 . S
C28 O26 1.240 . S
H29 C3 0.931 . S
H30 C12 0.931 . S
H31 C16 0.929 . S
H32 C18 0.930 . S
Co33 N37 2.148 . S
Co33 N43 2.128 . S
Co33 N53 2.194 . S
Co33 O58 2.351 . S
Co33 O59 2.155 . S
Co33 O60 2.096 . S
C34 N37 1.301 . S
C34 N38 1.328 . S
C34 H39 0.930 . S
C35 C36 1.333 . S
C35 N37 1.317 . S
C35 H40 0.930 . S
C36 C35 1.333 . S
C36 N38 1.350 . S
C36 H62 0.931 . S
N37 Co33 2.148 . S
N37 C34 1.301 . S
N37 C35 1.317 . S
N38 C34 1.328 . S
N38 C36 1.350 . S
H39 C34 0.930 . S
H40 C35 0.930 . S
C41 O42 1.224 . S
C41 O60 1.247 . S
O42 C41 1.224 . S
N43 Co33 2.128 . S
N43 C44 1.355 . S
N43 C46 1.311 . S
C44 N43 1.355 . S
C44 C45 1.363 . S
C44 H56 0.929 . S
C45 C44 1.363 . S
C45 N47 1.375 . S
C45 H63 0.931 . S
C46 N43 1.311 . S
C46 N47 1.347 . S
C46 H57 0.929 . S
N47 C45 1.375 . S
N47 C46 1.347 . S
C48 C51 1.365 . S
C48 N53 1.328 . S
C48 H54 0.929 . S
C49 C50 1.362 . S
C49 C52 1.378 . S
C49 H64 0.929 . S
C50 C49 1.362 . S
C50 C51 1.366 . S
C51 C48 1.365 . S
C51 C50 1.366 . S
C51 H65 0.930 . S
C52 C49 1.378 . S
C52 N53 1.315 . S
C52 H55 0.930 . S
N53 Co33 2.194 . S
N53 C48 1.328 . S
N53 C52 1.315 . S
H54 C48 0.929 . S
H55 C52 0.930 . S
H56 C44 0.929 . S
H57 C46 0.929 . S
O58 Co33 2.351 . S
O58 C61 1.244 . S
O59 Co33 2.155 . S
O59 C61 1.240 . S
O60 Co33 2.096 . S
O60 C41 1.247 . S
C61 O58 1.244 . S
C61 O59 1.240 . S
H62 C36 0.931 . S
H63 C45 0.931 . S
H64 C49 0.929 . S
H65 C51 0.930 . S
Co66 N70 2.148 . S
Co66 N76 2.128 . S
Co66 N86 2.194 . S
Co66 O91 2.351 . S
Co66 O92 2.155 . S
Co66 O93 2.096 . S
C67 N70 1.301 . S
C67 N71 1.328 . S
C67 H72 0.930 . S
C68 C69 1.333 . S
C68 N70 1.317 . S
C68 H73 0.930 . S
C69 C68 1.333 . S
C69 N71 1.350 . S
C69 H95 0.931 . S
N70 Co66 2.148 . S
N70 C67 1.301 . S
N70 C68 1.317 . S
N71 C67 1.328 . S
N71 C69 1.350 . S
H72 C67 0.930 . S
H73 C68 0.930 . S
C74 O75 1.224 . S
C74 O93 1.247 . S
O75 C74 1.224 . S
N76 Co66 2.128 . S
N76 C77 1.355 . S
N76 C79 1.311 . S
C77 N76 1.355 . S
C77 C78 1.363 . S
C77 H89 0.929 . S
C78 C77 1.363 . S
C78 N80 1.375 . S
C78 H96 0.931 . S
C79 N76 1.311 . S
C79 N80 1.347 . S
C79 H90 0.929 . S
N80 C78 1.375 . S
N80 C79 1.347 . S
C81 C84 1.365 . S
C81 N86 1.328 . S
C81 H87 0.929 . S
C82 C83 1.362 . S
C82 C85 1.378 . S
C82 H97 0.929 . S
C83 C82 1.362 . S
C83 C84 1.366 . S
C84 C81 1.365 . S
C84 C83 1.366 . S
C84 H98 0.930 . S
C85 C82 1.378 . S
C85 N86 1.315 . S
C85 H88 0.930 . S
N86 Co66 2.194 . S
N86 C81 1.328 . S
N86 C85 1.315 . S
H87 C81 0.929 . S
H88 C85 0.930 . S
H89 C77 0.929 . S
H90 C79 0.929 . S
O91 Co66 2.351 . S
O91 C94 1.244 . S
O92 Co66 2.155 . S
O92 C94 1.240 . S
O93 Co66 2.096 . S
O93 C74 1.247 . S
C94 O91 1.244 . S
C94 O92 1.240 . S
H95 C69 0.931 . S
H96 C78 0.931 . S
H97 C82 0.929 . S
H98 C84 0.930 . S
Co99 N103 2.148 . S
Co99 N109 2.128 . S
Co99 N119 2.194 . S
Co99 O124 2.351 . S
Co99 O125 2.155 . S
Co99 O126 2.096 . S
C100 N103 1.301 1_554 S
C100 N104 1.328 . S
C100 H105 0.930 . S
C101 C102 1.333 . S
C101 N103 1.317 1_554 S
C101 H106 0.930 1_554 S
C102 C101 1.333 . S
C102 N104 1.350 . S
C102 H128 0.931 . S
N103 Co99 2.148 . S
N103 C100 1.301 1_556 S
N103 C101 1.317 1_556 S
N104 C100 1.328 . S
N104 C102 1.350 . S
H105 C100 0.930 . S
H106 C101 0.930 1_556 S
C107 O108 1.224 . S
C107 O126 1.247 . S
O108 C107 1.224 . S
N109 Co99 2.128 . S
N109 C110 1.355 . S
N109 C112 1.311 . S
C110 N109 1.355 . S
C110 C111 1.363 . S
C110 H122 0.929 . S
C111 C110 1.363 . S
C111 N113 1.375 . S
C111 H129 0.931 . S
C112 N109 1.311 . S
C112 N113 1.347 . S
C112 H123 0.929 . S
N113 C111 1.375 . S
N113 C112 1.347 . S
C114 C117 1.365 . S
C114 N119 1.328 . S
C114 H120 0.929 . S
C115 C116 1.362 . S
C115 C118 1.378 . S
C115 H130 0.929 . S
C116 C115 1.362 . S
C116 C117 1.366 . S
C117 C114 1.365 . S
C117 C116 1.366 . S
C117 H131 0.930 . S
C118 C115 1.378 . S
C118 N119 1.315 . S
C118 H121 0.930 . S
N119 Co99 2.194 . S
N119 C114 1.328 . S
N119 C118 1.315 . S
H120 C114 0.929 . S
H121 C118 0.930 . S
H122 C110 0.929 . S
H123 C112 0.929 . S
O124 Co99 2.351 . S
O124 C127 1.244 . S
O125 Co99 2.155 . S
O125 C127 1.240 . S
O126 Co99 2.096 . S
O126 C107 1.247 . S
C127 O124 1.244 . S
C127 O125 1.240 . S
H128 C102 0.931 . S
H129 C111 0.931 . S
H130 C115 0.929 . S
H131 C117 0.930 . S
Co132 N136 2.148 . S
Co132 N142 2.128 1_556 S
Co132 N152 2.194 . S
Co132 O157 2.351 . S
Co132 O158 2.155 . S
Co132 O159 2.096 . S
C133 N136 1.301 . S
C133 N137 1.328 . S
C133 H138 0.930 . S
C134 C135 1.333 . S
C134 N136 1.317 . S
C134 H139 0.930 . S
C135 C134 1.333 . S
C135 N137 1.350 . S
C135 H161 0.931 . S
N136 Co132 2.148 . S
N136 C133 1.301 . S
N136 C134 1.317 . S
N137 C133 1.328 . S
N137 C135 1.350 . S
H138 C133 0.930 . S
H139 C134 0.930 . S
C140 O141 1.224 . S
C140 O159 1.247 . S
O141 C140 1.224 . S
N142 Co132 2.128 1_554 S
N142 C143 1.355 . S
N142 C145 1.311 . S
C143 N142 1.355 . S
C143 C144 1.363 . S
C143 H155 0.929 . S
C144 C143 1.363 . S
C144 N146 1.375 . S
C144 H162 0.931 . S
C145 N142 1.311 . S
C145 N146 1.347 . S
C145 H156 0.929 . S
N146 C144 1.375 . S
N146 C145 1.347 . S
C147 C150 1.365 . S
C147 N152 1.328 . S
C147 H153 0.929 . S
C148 C149 1.362 . S
C148 C151 1.378 . S
C148 H163 0.929 . S
C149 C148 1.362 . S
C149 C150 1.366 . S
C150 C147 1.365 . S
C150 C149 1.366 . S
C150 H164 0.930 . S
C151 C148 1.378 . S
C151 N152 1.315 . S
C151 H154 0.930 . S
N152 Co132 2.194 . S
N152 C147 1.328 . S
N152 C151 1.315 . S
H153 C147 0.929 . S
H154 C151 0.930 . S
H155 C143 0.929 . S
H156 C145 0.929 . S
O157 Co132 2.351 . S
O157 C160 1.244 . S
O158 Co132 2.155 . S
O158 C160 1.240 . S
O159 Co132 2.096 . S
O159 C140 1.247 . S
C160 O157 1.244 . S
C160 O158 1.240 . S
H161 C135 0.931 . S
H162 C144 0.931 . S
H163 C148 0.929 . S
H164 C150 0.930 . S
Co165 N169 2.148 . S
Co165 N175 2.128 . S
Co165 N185 2.194 . S
Co165 O190 2.351 . S
Co165 O191 2.155 . S
Co165 O192 2.096 . S
C166 N169 1.301 1_556 S
C166 N170 1.328 . S
C166 H171 0.930 . S
C167 C168 1.333 . S
C167 N169 1.317 1_556 S
C167 H172 0.930 1_556 S
C168 C167 1.333 . S
C168 N170 1.350 . S
C168 H194 0.931 . S
N169 Co165 2.148 . S
N169 C166 1.301 1_554 S
N169 C167 1.317 1_554 S
N170 C166 1.328 . S
N170 C168 1.350 . S
H171 C166 0.930 . S
H172 C167 0.930 1_554 S
C173 O174 1.224 . S
C173 O192 1.247 . S
O174 C173 1.224 . S
N175 Co165 2.128 . S
N175 C176 1.355 . S
N175 C178 1.311 . S
C176 N175 1.355 . S
C176 C177 1.363 . S
C176 H188 0.929 . S
C177 C176 1.363 . S
C177 N179 1.375 . S
C177 H195 0.931 . S
C178 N175 1.311 . S
C178 N179 1.347 . S
C178 H189 0.929 . S
N179 C177 1.375 . S
N179 C178 1.347 . S
C180 C183 1.365 . S
C180 N185 1.328 . S
C180 H186 0.929 . S
C181 C182 1.362 . S
C181 C184 1.378 . S
C181 H196 0.929 . S
C182 C181 1.362 . S
C182 C183 1.366 . S
C183 C180 1.365 . S
C183 C182 1.366 . S
C183 H197 0.930 . S
C184 C181 1.378 . S
C184 N185 1.315 . S
C184 H187 0.930 . S
N185 Co165 2.194 . S
N185 C180 1.328 . S
N185 C184 1.315 . S
H186 C180 0.929 . S
H187 C184 0.930 . S
H188 C176 0.929 . S
H189 C178 0.929 . S
O190 Co165 2.351 . S
O190 C193 1.244 . S
O191 Co165 2.155 . S
O191 C193 1.240 . S
O192 Co165 2.096 . S
O192 C173 1.247 . S
C193 O190 1.244 . S
C193 O191 1.240 . S
H194 C168 0.931 . S
H195 C177 0.931 . S
H196 C181 0.929 . S
H197 C183 0.930 . S
Co198 N202 2.148 . S
Co198 N208 2.128 . S
Co198 N218 2.194 . S
Co198 O223 2.351 . S
Co198 O224 2.155 . S
Co198 O225 2.096 . S
C199 N202 1.301 . S
C199 N203 1.328 . S
C199 H204 0.930 . S
C200 C201 1.333 . S
C200 N202 1.317 . S
C200 H205 0.930 . S
C201 C200 1.333 . S
C201 N203 1.350 . S
C201 H227 0.931 . S
N202 Co198 2.148 . S
N202 C199 1.301 . S
N202 C200 1.317 . S
N203 C199 1.328 . S
N203 C201 1.350 . S
H204 C199 0.930 . S
H205 C200 0.930 . S
C206 O207 1.224 . S
C206 O225 1.247 . S
O207 C206 1.224 . S
N208 Co198 2.128 . S
N208 C209 1.355 . S
N208 C211 1.311 . S
C209 N208 1.355 . S
C209 C210 1.363 . S
C209 H221 0.929 . S
C210 C209 1.363 . S
C210 N212 1.375 . S
C210 H228 0.931 . S
C211 N208 1.311 . S
C211 N212 1.347 . S
C211 H222 0.929 . S
N212 C210 1.375 . S
N212 C211 1.347 . S
C213 C216 1.365 . S
C213 N218 1.328 . S
C213 H219 0.929 . S
C214 C215 1.362 . S
C214 C217 1.378 . S
C214 H229 0.929 . S
C215 C214 1.362 . S
C215 C216 1.366 . S
C216 C213 1.365 . S
C216 C215 1.366 . S
C216 H230 0.930 . S
C217 C214 1.378 . S
C217 N218 1.315 . S
C217 H220 0.930 . S
N218 Co198 2.194 . S
N218 C213 1.328 . S
N218 C217 1.315 . S
H219 C213 0.929 . S
H220 C217 0.930 . S
H221 C209 0.929 . S
H222 C211 0.929 . S
O223 Co198 2.351 . S
O223 C226 1.244 . S
O224 Co198 2.155 . S
O224 C226 1.240 . S
O225 Co198 2.096 . S
O225 C206 1.247 . S
C226 O223 1.244 . S
C226 O224 1.240 . S
H227 C201 0.931 . S
H228 C210 0.931 . S
H229 C214 0.929 . S
H230 C216 0.930 . S
Co231 N235 2.148 . S
Co231 N241 2.128 . S
Co231 N251 2.194 . S
Co231 O256 2.351 . S
Co231 O257 2.155 . S
Co231 O258 2.096 . S
C232 N235 1.301 . S
C232 N236 1.328 . S
C232 H237 0.930 . S
C233 C234 1.333 . S
C233 N235 1.317 . S
C233 H238 0.930 . S
C234 C233 1.333 . S
C234 N236 1.350 . S
C234 H260 0.931 . S
N235 Co231 2.148 . S
N235 C232 1.301 . S
N235 C233 1.317 . S
N236 C232 1.328 . S
N236 C234 1.350 . S
H237 C232 0.930 . S
H238 C233 0.930 . S
C239 O240 1.224 . S
C239 O258 1.247 . S
O240 C239 1.224 . S
N241 Co231 2.128 . S
N241 C242 1.355 . S
N241 C244 1.311 . S
C242 N241 1.355 . S
C242 C243 1.363 . S
C242 H254 0.929 . S
C243 C242 1.363 . S
C243 N245 1.375 . S
C243 H261 0.931 . S
C244 N241 1.311 . S
C244 N245 1.347 . S
C244 H255 0.929 . S
N245 C243 1.375 . S
N245 C244 1.347 . S
C246 C249 1.365 . S
C246 N251 1.328 . S
C246 H252 0.929 . S
C247 C248 1.362 . S
C247 C250 1.378 . S
C247 H262 0.929 . S
C248 C247 1.362 . S
C248 C249 1.366 . S
C249 C246 1.365 . S
C249 C248 1.366 . S
C249 H263 0.930 . S
C250 C247 1.378 . S
C250 N251 1.315 . S
C250 H253 0.930 . S
N251 Co231 2.194 . S
N251 C246 1.328 . S
N251 C250 1.315 . S
H252 C246 0.929 . S
H253 C250 0.930 . S
H254 C242 0.929 . S
H255 C244 0.929 . S
O256 Co231 2.351 . S
O256 C259 1.244 . S
O257 Co231 2.155 . S
O257 C259 1.240 . S
O258 Co231 2.096 . S
O258 C239 1.247 . S
C259 O256 1.244 . S
C259 O257 1.240 . S
H260 C234 0.931 . S
H261 C243 0.931 . S
H262 C247 0.929 . S
H263 C249 0.930 . S
Co264 N268 2.148 . S
Co264 N274 2.128 1_556 S
Co264 N284 2.194 . S
Co264 O289 2.351 . S
Co264 O290 2.155 . S
Co264 O291 2.096 . S
C265 N268 1.301 . S
C265 N269 1.328 . S
C265 H270 0.930 . S
C266 C267 1.333 . S
C266 N268 1.317 . S
C266 H271 0.930 . S
C267 C266 1.333 . S
C267 N269 1.350 . S
C267 H293 0.931 . S
N268 Co264 2.148 . S
N268 C265 1.301 . S
N268 C266 1.317 . S
N269 C265 1.328 . S
N269 C267 1.350 . S
H270 C265 0.930 . S
H271 C266 0.930 . S
C272 O273 1.224 . S
C272 O291 1.247 . S
O273 C272 1.224 . S
N274 Co264 2.128 1_554 S
N274 C275 1.355 . S
N274 C277 1.311 . S
C275 N274 1.355 . S
C275 C276 1.363 . S
C275 H287 0.929 . S
C276 C275 1.363 . S
C276 N278 1.375 . S
C276 H294 0.931 . S
C277 N274 1.311 . S
C277 N278 1.347 . S
C277 H288 0.929 . S
N278 C276 1.375 . S
N278 C277 1.347 . S
C279 C282 1.365 . S
C279 N284 1.328 . S
C279 H285 0.929 . S
C280 C281 1.362 . S
C280 C283 1.378 . S
C280 H295 0.929 . S
C281 C280 1.362 . S
C281 C282 1.366 . S
C282 C279 1.365 . S
C282 C281 1.366 . S
C282 H296 0.930 . S
C283 C280 1.378 . S
C283 N284 1.315 . S
C283 H286 0.930 . S
N284 Co264 2.194 . S
N284 C279 1.328 . S
N284 C283 1.315 . S
H285 C279 0.929 . S
H286 C283 0.930 . S
H287 C275 0.929 . S
H288 C277 0.929 . S
O289 Co264 2.351 . S
O289 C292 1.244 . S
O290 Co264 2.155 . S
O290 C292 1.240 . S
O291 Co264 2.096 . S
O291 C272 1.247 . S
C292 O289 1.244 . S
C292 O290 1.240 . S
H293 C267 0.931 . S
H294 C276 0.931 . S
H295 C280 0.929 . S
H296 C282 0.930 . S
Co297 N301 2.148 . S
Co297 N307 2.128 . S
Co297 N317 2.194 . S
Co297 O322 2.351 . S
Co297 O323 2.155 . S
Co297 O324 2.096 . S
C298 N301 1.301 . S
C298 N302 1.328 . S
C298 H303 0.930 . S
C299 C300 1.333 . S
C299 N301 1.317 . S
C299 H304 0.930 . S
C300 C299 1.333 . S
C300 N302 1.350 . S
C300 H326 0.931 . S
N301 Co297 2.148 . S
N301 C298 1.301 . S
N301 C299 1.317 . S
N302 C298 1.328 . S
N302 C300 1.350 . S
H303 C298 0.930 . S
H304 C299 0.930 . S
C305 O306 1.224 . S
C305 O324 1.247 . S
O306 C305 1.224 . S
N307 Co297 2.128 . S
N307 C308 1.355 . S
N307 C310 1.311 . S
C308 N307 1.355 . S
C308 C309 1.363 . S
C308 H320 0.929 . S
C309 C308 1.363 . S
C309 N311 1.375 . S
C309 H327 0.931 . S
C310 N307 1.311 . S
C310 N311 1.347 . S
C310 H321 0.929 . S
N311 C309 1.375 . S
N311 C310 1.347 . S
C312 C315 1.365 . S
C312 N317 1.328 . S
C312 H318 0.929 . S
C313 C314 1.362 . S
C313 C316 1.378 . S
C313 H328 0.929 . S
C314 C313 1.362 . S
C314 C315 1.366 . S
C315 C312 1.365 . S
C315 C314 1.366 . S
C315 H329 0.930 . S
C316 C313 1.378 . S
C316 N317 1.315 . S
C316 H319 0.930 . S
N317 Co297 2.194 . S
N317 C312 1.328 . S
N317 C316 1.315 . S
H318 C312 0.929 . S
H319 C316 0.930 . S
H320 C308 0.929 . S
H321 C310 0.929 . S
O322 Co297 2.351 . S
O322 C325 1.244 . S
O323 Co297 2.155 . S
O323 C325 1.240 . S
O324 Co297 2.096 . S
O324 C305 1.247 . S
C325 O322 1.244 . S
C325 O323 1.240 . S
H326 C300 0.931 . S
H327 C309 0.931 . S
H328 C313 0.929 . S
H329 C315 0.930 . S
Co330 N334 2.148 . S
Co330 N340 2.128 . S
Co330 N350 2.194 . S
Co330 O355 2.351 . S
Co330 O356 2.155 . S
Co330 O357 2.096 . S
C331 N334 1.301 . S
C331 N335 1.328 . S
C331 H336 0.930 . S
C332 C333 1.333 . S
C332 N334 1.317 . S
C332 H337 0.930 . S
C333 C332 1.333 . S
C333 N335 1.350 . S
C333 H359 0.931 . S
N334 Co330 2.148 . S
N334 C331 1.301 . S
N334 C332 1.317 . S
N335 C331 1.328 . S
N335 C333 1.350 . S
H336 C331 0.930 . S
H337 C332 0.930 . S
C338 O339 1.224 . S
C338 O357 1.247 . S
O339 C338 1.224 . S
N340 Co330 2.128 . S
N340 C341 1.355 . S
N340 C343 1.311 . S
C341 N340 1.355 . S
C341 C342 1.363 . S
C341 H353 0.929 . S
C342 C341 1.363 . S
C342 N344 1.375 . S
C342 H360 0.931 . S
C343 N340 1.311 . S
C343 N344 1.347 . S
C343 H354 0.929 . S
N344 C342 1.375 . S
N344 C343 1.347 . S
C345 C348 1.365 . S
C345 N350 1.328 . S
C345 H351 0.929 . S
C346 C347 1.362 . S
C346 C349 1.378 . S
C346 H361 0.929 . S
C347 C346 1.362 . S
C347 C348 1.366 . S
C348 C345 1.365 . S
C348 C347 1.366 . S
C348 H362 0.930 . S
C349 C346 1.378 . S
C349 N350 1.315 . S
C349 H352 0.930 . S
N350 Co330 2.194 . S
N350 C345 1.328 . S
N350 C349 1.315 . S
H351 C345 0.929 . S
H352 C349 0.930 . S
H353 C341 0.929 . S
H354 C343 0.929 . S
O355 Co330 2.351 . S
O355 C358 1.244 . S
O356 Co330 2.155 . S
O356 C358 1.240 . S
O357 Co330 2.096 . S
O357 C338 1.247 . S
C358 O355 1.244 . S
C358 O356 1.240 . S
H359 C333 0.931 . S
H360 C342 0.931 . S
H361 C346 0.929 . S
H362 C348 0.930 . S
Co363 N367 2.148 . S
Co363 N373 2.128 . S
Co363 N383 2.194 . S
Co363 O388 2.351 . S
Co363 O389 2.155 . S
Co363 O390 2.096 . S
C364 N367 1.301 1_556 S
C364 N368 1.328 . S
C364 H369 0.930 . S
C365 C366 1.333 . S
C365 N367 1.317 1_556 S
C365 H370 0.930 1_556 S
C366 C365 1.333 . S
C366 N368 1.350 . S
C366 H392 0.931 . S
N367 Co363 2.148 . S
N367 C364 1.301 1_554 S
N367 C365 1.317 1_554 S
N368 C364 1.328 . S
N368 C366 1.350 . S
H369 C364 0.930 . S
H370 C365 0.930 1_554 S
C371 O372 1.224 . S
C371 O390 1.247 . S
O372 C371 1.224 . S
N373 Co363 2.128 . S
N373 C374 1.355 . S
N373 C376 1.311 . S
C374 N373 1.355 . S
C374 C375 1.363 . S
C374 H386 0.929 . S
C375 C374 1.363 . S
C375 N377 1.375 . S
C375 H393 0.931 . S
C376 N373 1.311 . S
C376 N377 1.347 . S
C376 H387 0.929 . S
N377 C375 1.375 . S
N377 C376 1.347 . S
C378 C381 1.365 . S
C378 N383 1.328 . S
C378 H384 0.929 . S
C379 C380 1.362 . S
C379 C382 1.378 . S
C379 H394 0.929 . S
C380 C379 1.362 . S
C380 C381 1.366 . S
C381 C378 1.365 . S
C381 C380 1.366 . S
C381 H395 0.930 . S
C382 C379 1.378 . S
C382 N383 1.315 . S
C382 H385 0.930 . S
N383 Co363 2.194 . S
N383 C378 1.328 . S
N383 C382 1.315 . S
H384 C378 0.929 . S
H385 C382 0.930 . S
H386 C374 0.929 . S
H387 C376 0.929 . S
O388 Co363 2.351 . S
O388 C391 1.244 . S
O389 Co363 2.155 . S
O389 C391 1.240 . S
O390 Co363 2.096 . S
O390 C371 1.247 . S
C391 O388 1.244 . S
C391 O389 1.240 . S
H392 C366 0.931 . S
H393 C375 0.931 . S
H394 C379 0.929 . S
H395 C381 0.930 . S
Co396 N400 2.148 . S
Co396 N406 2.128 1_554 S
Co396 N416 2.194 . S
Co396 O421 2.351 . S
Co396 O422 2.155 . S
Co396 O423 2.096 . S
C397 N400 1.301 . S
C397 N401 1.328 . S
C397 H402 0.930 . S
C398 C399 1.333 . S
C398 N400 1.317 . S
C398 H403 0.930 . S
C399 C398 1.333 . S
C399 N401 1.350 . S
C399 H425 0.931 . S
N400 Co396 2.148 . S
N400 C397 1.301 . S
N400 C398 1.317 . S
N401 C397 1.328 . S
N401 C399 1.350 . S
H402 C397 0.930 . S
H403 C398 0.930 . S
C404 O405 1.224 . S
C404 O423 1.247 . S
O405 C404 1.224 . S
N406 Co396 2.128 1_556 S
N406 C407 1.355 . S
N406 C409 1.311 . S
C407 N406 1.355 . S
C407 C408 1.363 . S
C407 H419 0.929 . S
C408 C407 1.363 . S
C408 N410 1.375 . S
C408 H426 0.931 . S
C409 N406 1.311 . S
C409 N410 1.347 . S
C409 H420 0.929 . S
N410 C408 1.375 . S
N410 C409 1.347 . S
C411 C414 1.365 . S
C411 N416 1.328 . S
C411 H417 0.929 . S
C412 C413 1.362 . S
C412 C415 1.378 . S
C412 H427 0.929 . S
C413 C412 1.362 . S
C413 C414 1.366 . S
C414 C411 1.365 . S
C414 C413 1.366 . S
C414 H428 0.930 . S
C415 C412 1.378 . S
C415 N416 1.315 . S
C415 H418 0.930 . S
N416 Co396 2.194 . S
N416 C411 1.328 . S
N416 C415 1.315 . S
H417 C411 0.929 . S
H418 C415 0.930 . S
H419 C407 0.929 . S
H420 C409 0.929 . S
O421 Co396 2.351 . S
O421 C424 1.244 . S
O422 Co396 2.155 . S
O422 C424 1.240 . S
O423 Co396 2.096 . S
O423 C404 1.247 . S
C424 O421 1.244 . S
C424 O422 1.240 . S
H425 C399 0.931 . S
H426 C408 0.931 . S
H427 C412 0.929 . S
H428 C414 0.930 . S
Co429 N433 2.148 . S
Co429 N439 2.128 . S
Co429 N449 2.194 . S
Co429 O454 2.351 . S
Co429 O455 2.155 . S
Co429 O456 2.096 . S
C430 N433 1.301 1_554 S
C430 N434 1.328 . S
C430 H435 0.930 . S
C431 C432 1.333 . S
C431 N433 1.317 1_554 S
C431 H436 0.930 1_554 S
C432 C431 1.333 . S
C432 N434 1.350 . S
C432 H458 0.931 . S
N433 Co429 2.148 . S
N433 C430 1.301 1_556 S
N433 C431 1.317 1_556 S
N434 C430 1.328 . S
N434 C432 1.350 . S
H435 C430 0.930 . S
H436 C431 0.930 1_556 S
C437 O438 1.224 . S
C437 O456 1.247 . S
O438 C437 1.224 . S
N439 Co429 2.128 . S
N439 C440 1.355 . S
N439 C442 1.311 . S
C440 N439 1.355 . S
C440 C441 1.363 . S
C440 H452 0.929 . S
C441 C440 1.363 . S
C441 N443 1.375 . S
C441 H459 0.931 . S
C442 N439 1.311 . S
C442 N443 1.347 . S
C442 H453 0.929 . S
N443 C441 1.375 . S
N443 C442 1.347 . S
C444 C447 1.365 . S
C444 N449 1.328 . S
C444 H450 0.929 . S
C445 C446 1.362 . S
C445 C448 1.378 . S
C445 H460 0.929 . S
C446 C445 1.362 . S
C446 C447 1.366 . S
C447 C444 1.365 . S
C447 C446 1.366 . S
C447 H461 0.930 . S
C448 C445 1.378 . S
C448 N449 1.315 . S
C448 H451 0.930 . S
N449 Co429 2.194 . S
N449 C444 1.328 . S
N449 C448 1.315 . S
H450 C444 0.929 . S
H451 C448 0.930 . S
H452 C440 0.929 . S
H453 C442 0.929 . S
O454 Co429 2.351 . S
O454 C457 1.244 . S
O455 Co429 2.155 . S
O455 C457 1.240 . S
O456 Co429 2.096 . S
O456 C437 1.247 . S
C457 O454 1.244 . S
C457 O455 1.240 . S
H458 C432 0.931 . S
H459 C441 0.931 . S
H460 C445 0.929 . S
H461 C447 0.930 . S
Co462 N466 2.148 . S
Co462 N472 2.128 . S
Co462 N482 2.194 . S
Co462 O487 2.351 . S
Co462 O488 2.155 . S
Co462 O489 2.096 . S
C463 N466 1.301 . S
C463 N467 1.328 . S
C463 H468 0.930 . S
C464 C465 1.333 . S
C464 N466 1.317 . S
C464 H469 0.930 . S
C465 C464 1.333 . S
C465 N467 1.350 . S
C465 H491 0.931 . S
N466 Co462 2.148 . S
N466 C463 1.301 . S
N466 C464 1.317 . S
N467 C463 1.328 . S
N467 C465 1.350 . S
H468 C463 0.930 . S
H469 C464 0.930 . S
C470 O471 1.224 . S
C470 O489 1.247 . S
O471 C470 1.224 . S
N472 Co462 2.128 . S
N472 C473 1.355 . S
N472 C475 1.311 . S
C473 N472 1.355 . S
C473 C474 1.363 . S
C473 H485 0.929 . S
C474 C473 1.363 . S
C474 N476 1.375 . S
C474 H492 0.931 . S
C475 N472 1.311 . S
C475 N476 1.347 . S
C475 H486 0.929 . S
N476 C474 1.375 . S
N476 C475 1.347 . S
C477 C480 1.365 . S
C477 N482 1.328 . S
C477 H483 0.929 . S
C478 C479 1.362 . S
C478 C481 1.378 . S
C478 H493 0.929 . S
C479 C478 1.362 . S
C479 C480 1.366 . S
C480 C477 1.365 . S
C480 C479 1.366 . S
C480 H494 0.930 . S
C481 C478 1.378 . S
C481 N482 1.315 . S
C481 H484 0.930 . S
N482 Co462 2.194 . S
N482 C477 1.328 . S
N482 C481 1.315 . S
H483 C477 0.929 . S
H484 C481 0.930 . S
H485 C473 0.929 . S
H486 C475 0.929 . S
O487 Co462 2.351 . S
O487 C490 1.244 . S
O488 Co462 2.155 . S
O488 C490 1.240 . S
O489 Co462 2.096 . S
O489 C470 1.247 . S
C490 O487 1.244 . S
C490 O488 1.240 . S
H491 C465 0.931 . S
H492 C474 0.931 . S
H493 C478 0.929 . S
H494 C480 0.930 . S
Co495 N499 2.148 . S
Co495 N505 2.128 . S
Co495 N515 2.194 . S
Co495 O520 2.351 . S
Co495 O521 2.155 . S
Co495 O522 2.096 . S
C496 N499 1.301 . S
C496 N500 1.328 . S
C496 H501 0.930 . S
C497 C498 1.333 . S
C497 N499 1.317 . S
C497 H502 0.930 . S
C498 C497 1.333 . S
C498 N500 1.350 . S
C498 H524 0.931 . S
N499 Co495 2.148 . S
N499 C496 1.301 . S
N499 C497 1.317 . S
N500 C496 1.328 . S
N500 C498 1.350 . S
H501 C496 0.930 . S
H502 C497 0.930 . S
C503 O504 1.224 . S
C503 O522 1.247 . S
O504 C503 1.224 . S
N505 Co495 2.128 . S
N505 C506 1.355 . S
N505 C508 1.311 . S
C506 N505 1.355 . S
C506 C507 1.363 . S
C506 H518 0.929 . S
C507 C506 1.363 . S
C507 N509 1.375 . S
C507 H525 0.931 . S
C508 N505 1.311 . S
C508 N509 1.347 . S
C508 H519 0.929 . S
N509 C507 1.375 . S
N509 C508 1.347 . S
C510 C513 1.365 . S
C510 N515 1.328 . S
C510 H516 0.929 . S
C511 C512 1.362 . S
C511 C514 1.378 . S
C511 H526 0.929 . S
C512 C511 1.362 . S
C512 C513 1.366 . S
C513 C510 1.365 . S
C513 C512 1.366 . S
C513 H527 0.930 . S
C514 C511 1.378 . S
C514 N515 1.315 . S
C514 H517 0.930 . S
N515 Co495 2.194 . S
N515 C510 1.328 . S
N515 C514 1.315 . S
H516 C510 0.929 . S
H517 C514 0.930 . S
H518 C506 0.929 . S
H519 C508 0.929 . S
O520 Co495 2.351 . S
O520 C523 1.244 . S
O521 Co495 2.155 . S
O521 C523 1.240 . S
O522 Co495 2.096 . S
O522 C503 1.247 . S
C523 O520 1.244 . S
C523 O521 1.240 . S
H524 C498 0.931 . S
H525 C507 0.931 . S
H526 C511 0.929 . S
H527 C513 0.930 . S
Co528 N532 2.148 . S
Co528 N538 2.128 . S
Co528 N548 2.194 . S
Co528 O553 2.351 . S
Co528 O554 2.155 . S
Co528 O555 2.096 . S
C529 N532 1.301 . S
C529 N533 1.328 . S
C529 H534 0.930 . S
C530 C531 1.333 . S
C530 N532 1.317 . S
C530 H535 0.930 . S
C531 C530 1.333 . S
C531 N533 1.350 . S
C531 H557 0.931 . S
N532 Co528 2.148 . S
N532 C529 1.301 . S
N532 C530 1.317 . S
N533 C529 1.328 . S
N533 C531 1.350 . S
H534 C529 0.930 . S
H535 C530 0.930 . S
C536 O537 1.224 . S
C536 O555 1.247 . S
O537 C536 1.224 . S
N538 Co528 2.128 . S
N538 C539 1.355 . S
N538 C541 1.311 . S
C539 N538 1.355 . S
C539 C540 1.363 . S
C539 H551 0.929 . S
C540 C539 1.363 . S
C540 N542 1.375 . S
C540 H558 0.931 . S
C541 N538 1.311 . S
C541 N542 1.347 . S
C541 H552 0.929 . S
N542 C540 1.375 . S
N542 C541 1.347 . S
C543 C546 1.365 . S
C543 N548 1.328 . S
C543 H549 0.929 . S
C544 C545 1.362 . S
C544 C547 1.378 . S
C544 H559 0.929 . S
C545 C544 1.362 . S
C545 C546 1.366 . S
C546 C543 1.365 . S
C546 C545 1.366 . S
C546 H560 0.930 . S
C547 C544 1.378 . S
C547 N548 1.315 . S
C547 H550 0.930 . S
N548 Co528 2.194 . S
N548 C543 1.328 . S
N548 C547 1.315 . S
H549 C543 0.929 . S
H550 C547 0.930 . S
H551 C539 0.929 . S
H552 C541 0.929 . S
O553 Co528 2.351 . S
O553 C556 1.244 . S
O554 Co528 2.155 . S
O554 C556 1.240 . S
O555 Co528 2.096 . S
O555 C536 1.247 . S
C556 O553 1.244 . S
C556 O554 1.240 . S
H557 C531 0.931 . S
H558 C540 0.931 . S
H559 C544 0.929 . S
H560 C546 0.930 . S
Co561 N565 2.148 . S
Co561 N571 2.128 . S
Co561 N581 2.194 . S
Co561 O586 2.351 . S
Co561 O587 2.155 . S
Co561 O588 2.096 . S
C562 N565 1.301 1_554 S
C562 N566 1.328 . S
C562 H567 0.930 . S
C563 C564 1.333 . S
C563 N565 1.317 1_554 S
C563 H568 0.930 1_554 S
C564 C563 1.333 . S
C564 N566 1.350 . S
C564 H590 0.931 . S
N565 Co561 2.148 . S
N565 C562 1.301 1_556 S
N565 C563 1.317 1_556 S
N566 C562 1.328 . S
N566 C564 1.350 . S
H567 C562 0.930 . S
H568 C563 0.930 1_556 S
C569 O570 1.224 . S
C569 O588 1.247 . S
O570 C569 1.224 . S
N571 Co561 2.128 . S
N571 C572 1.355 . S
N571 C574 1.311 . S
C572 N571 1.355 . S
C572 C573 1.363 . S
C572 H584 0.929 . S
C573 C572 1.363 . S
C573 N575 1.375 . S
C573 H591 0.931 . S
C574 N571 1.311 . S
C574 N575 1.347 . S
C574 H585 0.929 . S
N575 C573 1.375 . S
N575 C574 1.347 . S
C576 C579 1.365 . S
C576 N581 1.328 . S
C576 H582 0.929 . S
C577 C578 1.362 . S
C577 C580 1.378 . S
C577 H592 0.929 . S
C578 C577 1.362 . S
C578 C579 1.366 . S
C579 C576 1.365 . S
C579 C578 1.366 . S
C579 H593 0.930 . S
C580 C577 1.378 . S
C580 N581 1.315 . S
C580 H583 0.930 . S
N581 Co561 2.194 . S
N581 C576 1.328 . S
N581 C580 1.315 . S
H582 C576 0.929 . S
H583 C580 0.930 . S
H584 C572 0.929 . S
H585 C574 0.929 . S
O586 Co561 2.351 . S
O586 C589 1.244 . S
O587 Co561 2.155 . S
O587 C589 1.240 . S
O588 Co561 2.096 . S
O588 C569 1.247 . S
C589 O586 1.244 . S
C589 O587 1.240 . S
H590 C564 0.931 . S
H591 C573 0.931 . S
H592 C577 0.929 . S
H593 C579 0.930 . S
Co594 N598 2.148 . S
Co594 N604 2.128 1_554 S
Co594 N614 2.194 . S
Co594 O619 2.351 . S
Co594 O620 2.155 . S
Co594 O621 2.096 . S
C595 N598 1.301 . S
C595 N599 1.328 . S
C595 H600 0.930 . S
C596 C597 1.333 . S
C596 N598 1.317 . S
C596 H601 0.930 . S
C597 C596 1.333 . S
C597 N599 1.350 . S
C597 H623 0.931 . S
N598 Co594 2.148 . S
N598 C595 1.301 . S
N598 C596 1.317 . S
N599 C595 1.328 . S
N599 C597 1.350 . S
H600 C595 0.930 . S
H601 C596 0.930 . S
C602 O603 1.224 . S
C602 O621 1.247 . S
O603 C602 1.224 . S
N604 Co594 2.128 1_556 S
N604 C605 1.355 . S
N604 C607 1.311 . S
C605 N604 1.355 . S
C605 C606 1.363 . S
C605 H617 0.929 . S
C606 C605 1.363 . S
C606 N608 1.375 . S
C606 H624 0.931 . S
C607 N604 1.311 . S
C607 N608 1.347 . S
C607 H618 0.929 . S
N608 C606 1.375 . S
N608 C607 1.347 . S
C609 C612 1.365 . S
C609 N614 1.328 . S
C609 H615 0.929 . S
C610 C611 1.362 . S
C610 C613 1.378 . S
C610 H625 0.929 . S
C611 C610 1.362 . S
C611 C612 1.366 . S
C612 C609 1.365 . S
C612 C611 1.366 . S
C612 H626 0.930 . S
C613 C610 1.378 . S
C613 N614 1.315 . S
C613 H616 0.930 . S
N614 Co594 2.194 . S
N614 C609 1.328 . S
N614 C613 1.315 . S
H615 C609 0.929 . S
H616 C613 0.930 . S
H617 C605 0.929 . S
H618 C607 0.929 . S
O619 Co594 2.351 . S
O619 C622 1.244 . S
O620 Co594 2.155 . S
O620 C622 1.240 . S
O621 Co594 2.096 . S
O621 C602 1.247 . S
C622 O619 1.244 . S
C622 O620 1.240 . S
H623 C597 0.931 . S
H624 C606 0.931 . S
H625 C610 0.929 . S
H626 C612 0.930 . S
Co627 N631 2.148 . S
Co627 N637 2.128 . S
Co627 N647 2.194 . S
Co627 O652 2.351 . S
Co627 O653 2.155 . S
Co627 O654 2.096 . S
C628 N631 1.301 . S
C628 N632 1.328 . S
C628 H633 0.930 . S
C629 C630 1.333 . S
C629 N631 1.317 . S
C629 H634 0.930 . S
C630 C629 1.333 . S
C630 N632 1.350 . S
C630 H656 0.931 . S
N631 Co627 2.148 . S
N631 C628 1.301 . S
N631 C629 1.317 . S
N632 C628 1.328 . S
N632 C630 1.350 . S
H633 C628 0.930 . S
H634 C629 0.930 . S
C635 O636 1.224 . S
C635 O654 1.247 . S
O636 C635 1.224 . S
N637 Co627 2.128 . S
N637 C638 1.355 . S
N637 C640 1.311 . S
C638 N637 1.355 . S
C638 C639 1.363 . S
C638 H650 0.929 . S
C639 C638 1.363 . S
C639 N641 1.375 . S
C639 H657 0.931 . S
C640 N637 1.311 . S
C640 N641 1.347 . S
C640 H651 0.929 . S
N641 C639 1.375 . S
N641 C640 1.347 . S
C642 C645 1.365 . S
C642 N647 1.328 . S
C642 H648 0.929 . S
C643 C644 1.362 . S
C643 C646 1.378 . S
C643 H658 0.929 . S
C644 C643 1.362 . S
C644 C645 1.366 . S
C645 C642 1.365 . S
C645 C644 1.366 . S
C645 H659 0.930 . S
C646 C643 1.378 . S
C646 N647 1.315 . S
C646 H649 0.930 . S
N647 Co627 2.194 . S
N647 C642 1.328 . S
N647 C646 1.315 . S
H648 C642 0.929 . S
H649 C646 0.930 . S
H650 C638 0.929 . S
H651 C640 0.929 . S
O652 Co627 2.351 . S
O652 C655 1.244 . S
O653 Co627 2.155 . S
O653 C655 1.240 . S
O654 Co627 2.096 . S
O654 C635 1.247 . S
C655 O652 1.244 . S
C655 O653 1.240 . S
H656 C630 0.931 . S
H657 C639 0.931 . S
H658 C643 0.929 . S
H659 C645 0.930 . S
Co660 N664 2.148 . S
Co660 N670 2.128 . S
Co660 N680 2.194 . S
Co660 O685 2.351 . S
Co660 O686 2.155 . S
Co660 O687 2.096 . S
C661 N664 1.301 . S
C661 N665 1.328 . S
C661 H666 0.930 . S
C662 C663 1.333 . S
C662 N664 1.317 . S
C662 H667 0.930 . S
C663 C662 1.333 . S
C663 N665 1.350 . S
C663 H689 0.931 . S
N664 Co660 2.148 . S
N664 C661 1.301 . S
N664 C662 1.317 . S
N665 C661 1.328 . S
N665 C663 1.350 . S
H666 C661 0.930 . S
H667 C662 0.930 . S
C668 O669 1.224 . S
C668 O687 1.247 . S
O669 C668 1.224 . S
N670 Co660 2.128 . S
N670 C671 1.355 . S
N670 C673 1.311 . S
C671 N670 1.355 . S
C671 C672 1.363 . S
C671 H683 0.929 . S
C672 C671 1.363 . S
C672 N674 1.375 . S
C672 H690 0.931 . S
C673 N670 1.311 . S
C673 N674 1.347 . S
C673 H684 0.929 . S
N674 C672 1.375 . S
N674 C673 1.347 . S
C675 C678 1.365 . S
C675 N680 1.328 . S
C675 H681 0.929 . S
C676 C677 1.362 . S
C676 C679 1.378 . S
C676 H691 0.929 . S
C677 C676 1.362 . S
C677 C678 1.366 . S
C678 C675 1.365 . S
C678 C677 1.366 . S
C678 H692 0.930 . S
C679 C676 1.378 . S
C679 N680 1.315 . S
C679 H682 0.930 . S
N680 Co660 2.194 . S
N680 C675 1.328 . S
N680 C679 1.315 . S
H681 C675 0.929 . S
H682 C679 0.930 . S
H683 C671 0.929 . S
H684 C673 0.929 . S
O685 Co660 2.351 . S
O685 C688 1.244 . S
O686 Co660 2.155 . S
O686 C688 1.240 . S
O687 Co660 2.096 . S
O687 C668 1.247 . S
C688 O685 1.244 . S
C688 O686 1.240 . S
H689 C663 0.931 . S
H690 C672 0.931 . S
H691 C676 0.929 . S
H692 C678 0.930 . S
Co693 N697 2.148 . S
Co693 N703 2.128 . S
Co693 N713 2.194 . S
Co693 O718 2.351 . S
Co693 O719 2.155 . S
Co693 O720 2.096 . S
C694 N697 1.301 . S
C694 N698 1.328 . S
C694 H699 0.930 . S
C695 C696 1.333 . S
C695 N697 1.317 . S
C695 H700 0.930 . S
C696 C695 1.333 . S
C696 N698 1.350 . S
C696 H722 0.931 . S
N697 Co693 2.148 . S
N697 C694 1.301 . S
N697 C695 1.317 . S
N698 C694 1.328 . S
N698 C696 1.350 . S
H699 C694 0.930 . S
H700 C695 0.930 . S
C701 O702 1.224 . S
C701 O720 1.247 . S
O702 C701 1.224 . S
N703 Co693 2.128 . S
N703 C704 1.355 . S
N703 C706 1.311 . S
C704 N703 1.355 . S
C704 C705 1.363 . S
C704 H716 0.929 . S
C705 C704 1.363 . S
C705 N707 1.375 . S
C705 H723 0.931 . S
C706 N703 1.311 . S
C706 N707 1.347 . S
C706 H717 0.929 . S
N707 C705 1.375 . S
N707 C706 1.347 . S
C708 C711 1.365 . S
C708 N713 1.328 . S
C708 H714 0.929 . S
C709 C710 1.362 . S
C709 C712 1.378 . S
C709 H724 0.929 . S
C710 C709 1.362 . S
C710 C711 1.366 . S
C711 C708 1.365 . S
C711 C710 1.366 . S
C711 H725 0.930 . S
C712 C709 1.378 . S
C712 N713 1.315 . S
C712 H715 0.930 . S
N713 Co693 2.194 . S
N713 C708 1.328 . S
N713 C712 1.315 . S
H714 C708 0.929 . S
H715 C712 0.930 . S
H716 C704 0.929 . S
H717 C706 0.929 . S
O718 Co693 2.351 . S
O718 C721 1.244 . S
O719 Co693 2.155 . S
O719 C721 1.240 . S
O720 Co693 2.096 . S
O720 C701 1.247 . S
C721 O718 1.244 . S
C721 O719 1.240 . S
H722 C696 0.931 . S
H723 C705 0.931 . S
H724 C709 0.929 . S
H725 C711 0.930 . S
Co726 N730 2.148 . S
Co726 N736 2.128 1_556 S
Co726 N746 2.194 . S
Co726 O751 2.351 . S
Co726 O752 2.155 . S
Co726 O753 2.096 . S
C727 N730 1.301 . S
C727 N731 1.328 . S
C727 H732 0.930 . S
C728 C729 1.333 . S
C728 N730 1.317 . S
C728 H733 0.930 . S
C729 C728 1.333 . S
C729 N731 1.350 . S
C729 H755 0.931 . S
N730 Co726 2.148 . S
N730 C727 1.301 . S
N730 C728 1.317 . S
N731 C727 1.328 . S
N731 C729 1.350 . S
H732 C727 0.930 . S
H733 C728 0.930 . S
C734 O735 1.224 . S
C734 O753 1.247 . S
O735 C734 1.224 . S
N736 Co726 2.128 1_554 S
N736 C737 1.355 . S
N736 C739 1.311 . S
C737 N736 1.355 . S
C737 C738 1.363 . S
C737 H749 0.929 . S
C738 C737 1.363 . S
C738 N740 1.375 . S
C738 H756 0.931 . S
C739 N736 1.311 . S
C739 N740 1.347 . S
C739 H750 0.929 . S
N740 C738 1.375 . S
N740 C739 1.347 . S
C741 C744 1.365 . S
C741 N746 1.328 . S
C741 H747 0.929 . S
C742 C743 1.362 . S
C742 C745 1.378 . S
C742 H757 0.929 . S
C743 C742 1.362 . S
C743 C744 1.366 . S
C744 C741 1.365 . S
C744 C743 1.366 . S
C744 H758 0.930 . S
C745 C742 1.378 . S
C745 N746 1.315 . S
C745 H748 0.930 . S
N746 Co726 2.194 . S
N746 C741 1.328 . S
N746 C745 1.315 . S
H747 C741 0.929 . S
H748 C745 0.930 . S
H749 C737 0.929 . S
H750 C739 0.929 . S
O751 Co726 2.351 . S
O751 C754 1.244 . S
O752 Co726 2.155 . S
O752 C754 1.240 . S
O753 Co726 2.096 . S
O753 C734 1.247 . S
C754 O751 1.244 . S
C754 O752 1.240 . S
H755 C729 0.931 . S
H756 C738 0.931 . S
H757 C742 0.929 . S
H758 C744 0.930 . S
Co759 N763 2.148 . S
Co759 N769 2.128 . S
Co759 N779 2.194 . S
Co759 O784 2.351 . S
Co759 O785 2.155 . S
Co759 O786 2.096 . S
C760 N763 1.301 1_556 S
C760 N764 1.328 . S
C760 H765 0.930 . S
C761 C762 1.333 . S
C761 N763 1.317 1_556 S
C761 H766 0.930 1_556 S
C762 C761 1.333 . S
C762 N764 1.350 . S
C762 H788 0.931 . S
N763 Co759 2.148 . S
N763 C760 1.301 1_554 S
N763 C761 1.317 1_554 S
N764 C760 1.328 . S
N764 C762 1.350 . S
H765 C760 0.930 . S
H766 C761 0.930 1_554 S
C767 O768 1.224 . S
C767 O786 1.247 . S
O768 C767 1.224 . S
N769 Co759 2.128 . S
N769 C770 1.355 . S
N769 C772 1.311 . S
C770 N769 1.355 . S
C770 C771 1.363 . S
C770 H782 0.929 . S
C771 C770 1.363 . S
C771 N773 1.375 . S
C771 H789 0.931 . S
C772 N769 1.311 . S
C772 N773 1.347 . S
C772 H783 0.929 . S
N773 C771 1.375 . S
N773 C772 1.347 . S
C774 C777 1.365 . S
C774 N779 1.328 . S
C774 H780 0.929 . S
C775 C776 1.362 . S
C775 C778 1.378 . S
C775 H790 0.929 . S
C776 C775 1.362 . S
C776 C777 1.366 . S
C777 C774 1.365 . S
C777 C776 1.366 . S
C777 H791 0.930 . S
C778 C775 1.378 . S
C778 N779 1.315 . S
C778 H781 0.930 . S
N779 Co759 2.194 . S
N779 C774 1.328 . S
N779 C778 1.315 . S
H780 C774 0.929 . S
H781 C778 0.930 . S
H782 C770 0.929 . S
H783 C772 0.929 . S
O784 Co759 2.351 . S
O784 C787 1.244 . S
O785 Co759 2.155 . S
O785 C787 1.240 . S
O786 Co759 2.096 . S
O786 C767 1.247 . S
C787 O784 1.244 . S
C787 O785 1.240 . S
H788 C762 0.931 . S
H789 C771 0.931 . S
H790 C775 0.929 . S
H791 C777 0.930 . S
Co792 N796 2.148 . S
Co792 N802 2.128 . S
Co792 N812 2.194 . S
Co792 O817 2.351 . S
Co792 O818 2.155 . S
Co792 O819 2.096 . S
C793 N796 1.301 . S
C793 N797 1.328 . S
C793 H798 0.930 . S
C794 C795 1.333 . S
C794 N796 1.317 . S
C794 H799 0.930 . S
C795 C794 1.333 . S
C795 N797 1.350 . S
C795 H821 0.931 . S
N796 Co792 2.148 . S
N796 C793 1.301 . S
N796 C794 1.317 . S
N797 C793 1.328 . S
N797 C795 1.350 . S
H798 C793 0.930 . S
H799 C794 0.930 . S
C800 O801 1.224 . S
C800 O819 1.247 . S
O801 C800 1.224 . S
N802 Co792 2.128 . S
N802 C803 1.355 . S
N802 C805 1.311 . S
C803 N802 1.355 . S
C803 C804 1.363 . S
C803 H815 0.929 . S
C804 C803 1.363 . S
C804 N806 1.375 . S
C804 H822 0.931 . S
C805 N802 1.311 . S
C805 N806 1.347 . S
C805 H816 0.929 . S
N806 C804 1.375 . S
N806 C805 1.347 . S
C807 C810 1.365 . S
C807 N812 1.328 . S
C807 H813 0.929 . S
C808 C809 1.362 . S
C808 C811 1.378 . S
C808 H823 0.929 . S
C809 C808 1.362 . S
C809 C810 1.366 . S
C810 C807 1.365 . S
C810 C809 1.366 . S
C810 H824 0.930 . S
C811 C808 1.378 . S
C811 N812 1.315 . S
C811 H814 0.930 . S
N812 Co792 2.194 . S
N812 C807 1.328 . S
N812 C811 1.315 . S
H813 C807 0.929 . S
H814 C811 0.930 . S
H815 C803 0.929 . S
H816 C805 0.929 . S
O817 Co792 2.351 . S
O817 C820 1.244 . S
O818 Co792 2.155 . S
O818 C820 1.240 . S
O819 Co792 2.096 . S
O819 C800 1.247 . S
C820 O817 1.244 . S
C820 O818 1.240 . S
H821 C795 0.931 . S
H822 C804 0.931 . S
H823 C808 0.929 . S
H824 C810 0.930 . S
Co825 N829 2.148 . S
Co825 N835 2.128 . S
Co825 N845 2.194 . S
Co825 O850 2.351 . S
Co825 O851 2.155 . S
Co825 O852 2.096 . S
C826 N829 1.301 1_556 S
C826 N830 1.328 . S
C826 H831 0.930 . S
C827 C828 1.333 . S
C827 N829 1.317 1_556 S
C827 H832 0.930 1_556 S
C828 C827 1.333 . S
C828 N830 1.350 . S
C828 H854 0.931 . S
N829 Co825 2.148 . S
N829 C826 1.301 1_554 S
N829 C827 1.317 1_554 S
N830 C826 1.328 . S
N830 C828 1.350 . S
H831 C826 0.930 . S
H832 C827 0.930 1_554 S
C833 O834 1.224 . S
C833 O852 1.247 . S
O834 C833 1.224 . S
N835 Co825 2.128 . S
N835 C836 1.355 . S
N835 C838 1.311 . S
C836 N835 1.355 . S
C836 C837 1.363 . S
C836 H848 0.929 . S
C837 C836 1.363 . S
C837 N839 1.375 . S
C837 H855 0.931 . S
C838 N835 1.311 . S
C838 N839 1.347 . S
C838 H849 0.929 . S
N839 C837 1.375 . S
N839 C838 1.347 . S
C840 C843 1.365 . S
C840 N845 1.328 . S
C840 H846 0.929 . S
C841 C842 1.362 . S
C841 C844 1.378 . S
C841 H856 0.929 . S
C842 C841 1.362 . S
C842 C843 1.366 . S
C843 C840 1.365 . S
C843 C842 1.366 . S
C843 H857 0.930 . S
C844 C841 1.378 . S
C844 N845 1.315 . S
C844 H847 0.930 . S
N845 Co825 2.194 . S
N845 C840 1.328 . S
N845 C844 1.315 . S
H846 C840 0.929 . S
H847 C844 0.930 . S
H848 C836 0.929 . S
H849 C838 0.929 . S
O850 Co825 2.351 . S
O850 C853 1.244 . S
O851 Co825 2.155 . S
O851 C853 1.240 . S
O852 Co825 2.096 . S
O852 C833 1.247 . S
C853 O850 1.244 . S
C853 O851 1.240 . S
H854 C828 0.931 . S
H855 C837 0.931 . S
H856 C841 0.929 . S
H857 C843 0.930 . S
Co858 N862 2.148 . S
Co858 N868 2.128 1_556 S
Co858 N878 2.194 . S
Co858 O883 2.351 . S
Co858 O884 2.155 . S
Co858 O885 2.096 . S
C859 N862 1.301 . S
C859 N863 1.328 . S
C859 H864 0.930 . S
C860 C861 1.333 . S
C860 N862 1.317 . S
C860 H865 0.930 . S
C861 C860 1.333 . S
C861 N863 1.350 . S
C861 H887 0.931 . S
N862 Co858 2.148 . S
N862 C859 1.301 . S
N862 C860 1.317 . S
N863 C859 1.328 . S
N863 C861 1.350 . S
H864 C859 0.930 . S
H865 C860 0.930 . S
C866 O867 1.224 . S
C866 O885 1.247 . S
O867 C866 1.224 . S
N868 Co858 2.128 1_554 S
N868 C869 1.355 . S
N868 C871 1.311 . S
C869 N868 1.355 . S
C869 C870 1.363 . S
C869 H881 0.929 . S
C870 C869 1.363 . S
C870 N872 1.375 . S
C870 H888 0.931 . S
C871 N868 1.311 . S
C871 N872 1.347 . S
C871 H882 0.929 . S
N872 C870 1.375 . S
N872 C871 1.347 . S
C873 C876 1.365 . S
C873 N878 1.328 . S
C873 H879 0.929 . S
C874 C875 1.362 . S
C874 C877 1.378 . S
C874 H889 0.929 . S
C875 C874 1.362 . S
C875 C876 1.366 . S
C876 C873 1.365 . S
C876 C875 1.366 . S
C876 H890 0.930 . S
C877 C874 1.378 . S
C877 N878 1.315 . S
C877 H880 0.930 . S
N878 Co858 2.194 . S
N878 C873 1.328 . S
N878 C877 1.315 . S
H879 C873 0.929 . S
H880 C877 0.930 . S
H881 C869 0.929 . S
H882 C871 0.929 . S
O883 Co858 2.351 . S
O883 C886 1.244 . S
O884 Co858 2.155 . S
O884 C886 1.240 . S
O885 Co858 2.096 . S
O885 C866 1.247 . S
C886 O883 1.244 . S
C886 O884 1.240 . S
H887 C861 0.931 . S
H888 C870 0.931 . S
H889 C874 0.929 . S
H890 C876 0.930 . S
Co891 N895 2.148 . S
Co891 N901 2.128 . S
Co891 N911 2.194 . S
Co891 O916 2.351 . S
Co891 O917 2.155 . S
Co891 O918 2.096 . S
C892 N895 1.301 . S
C892 N896 1.328 . S
C892 H897 0.930 . S
C893 C894 1.333 . S
C893 N895 1.317 . S
C893 H898 0.930 . S
C894 C893 1.333 . S
C894 N896 1.350 . S
C894 H920 0.931 . S
N895 Co891 2.148 . S
N895 C892 1.301 . S
N895 C893 1.317 . S
N896 C892 1.328 . S
N896 C894 1.350 . S
H897 C892 0.930 . S
H898 C893 0.930 . S
C899 O900 1.224 . S
C899 O918 1.247 . S
O900 C899 1.224 . S
N901 Co891 2.128 . S
N901 C902 1.355 . S
N901 C904 1.311 . S
C902 N901 1.355 . S
C902 C903 1.363 . S
C902 H914 0.929 . S
C903 C902 1.363 . S
C903 N905 1.375 . S
C903 H921 0.931 . S
C904 N901 1.311 . S
C904 N905 1.347 . S
C904 H915 0.929 . S
N905 C903 1.375 . S
N905 C904 1.347 . S
C906 C909 1.365 . S
C906 N911 1.328 . S
C906 H912 0.929 . S
C907 C908 1.362 . S
C907 C910 1.378 . S
C907 H922 0.929 . S
C908 C907 1.362 . S
C908 C909 1.366 . S
C909 C906 1.365 . S
C909 C908 1.366 . S
C909 H923 0.930 . S
C910 C907 1.378 . S
C910 N911 1.315 . S
C910 H913 0.930 . S
N911 Co891 2.194 . S
N911 C906 1.328 . S
N911 C910 1.315 . S
H912 C906 0.929 . S
H913 C910 0.930 . S
H914 C902 0.929 . S
H915 C904 0.929 . S
O916 Co891 2.351 . S
O916 C919 1.244 . S
O917 Co891 2.155 . S
O917 C919 1.240 . S
O918 Co891 2.096 . S
O918 C899 1.247 . S
C919 O916 1.244 . S
C919 O917 1.240 . S
H920 C894 0.931 . S
H921 C903 0.931 . S
H922 C907 0.929 . S
H923 C909 0.930 . S
Co924 N928 2.148 . S
Co924 N934 2.128 . S
Co924 N944 2.194 . S
Co924 O949 2.351 . S
Co924 O950 2.155 . S
Co924 O951 2.096 . S
C925 N928 1.301 . S
C925 N929 1.328 . S
C925 H930 0.930 . S
C926 C927 1.333 . S
C926 N928 1.317 . S
C926 H931 0.930 . S
C927 C926 1.333 . S
C927 N929 1.350 . S
C927 H953 0.931 . S
N928 Co924 2.148 . S
N928 C925 1.301 . S
N928 C926 1.317 . S
N929 C925 1.328 . S
N929 C927 1.350 . S
H930 C925 0.930 . S
H931 C926 0.930 . S
C932 O933 1.224 . S
C932 O951 1.247 . S
O933 C932 1.224 . S
N934 Co924 2.128 . S
N934 C935 1.355 . S
N934 C937 1.311 . S
C935 N934 1.355 . S
C935 C936 1.363 . S
C935 H947 0.929 . S
C936 C935 1.363 . S
C936 N938 1.375 . S
C936 H954 0.931 . S
C937 N934 1.311 . S
C937 N938 1.347 . S
C937 H948 0.929 . S
N938 C936 1.375 . S
N938 C937 1.347 . S
C939 C942 1.365 . S
C939 N944 1.328 . S
C939 H945 0.929 . S
C940 C941 1.362 . S
C940 C943 1.378 . S
C940 H955 0.929 . S
C941 C940 1.362 . S
C941 C942 1.366 . S
C942 C939 1.365 . S
C942 C941 1.366 . S
C942 H956 0.930 . S
C943 C940 1.378 . S
C943 N944 1.315 . S
C943 H946 0.930 . S
N944 Co924 2.194 . S
N944 C939 1.328 . S
N944 C943 1.315 . S
H945 C939 0.929 . S
H946 C943 0.930 . S
H947 C935 0.929 . S
H948 C937 0.929 . S
O949 Co924 2.351 . S
O949 C952 1.244 . S
O950 Co924 2.155 . S
O950 C952 1.240 . S
O951 Co924 2.096 . S
O951 C932 1.247 . S
C952 O949 1.244 . S
C952 O950 1.240 . S
H953 C927 0.931 . S
H954 C936 0.931 . S
H955 C940 0.929 . S
H956 C942 0.930 . S
Co957 N961 2.148 . S
Co957 N967 2.128 . S
Co957 N977 2.194 . S
Co957 O982 2.351 . S
Co957 O983 2.155 . S
Co957 O984 2.096 . S
C958 N961 1.301 . S
C958 N962 1.328 . S
C958 H963 0.930 . S
C959 C960 1.333 . S
C959 N961 1.317 . S
C959 H964 0.930 . S
C960 C959 1.333 . S
C960 N962 1.350 . S
C960 H986 0.931 . S
N961 Co957 2.148 . S
N961 C958 1.301 . S
N961 C959 1.317 . S
N962 C958 1.328 . S
N962 C960 1.350 . S
H963 C958 0.930 . S
H964 C959 0.930 . S
C965 O966 1.224 . S
C965 O984 1.247 . S
O966 C965 1.224 . S
N967 Co957 2.128 . S
N967 C968 1.355 . S
N967 C970 1.311 . S
C968 N967 1.355 . S
C968 C969 1.363 . S
C968 H980 0.929 . S
C969 C968 1.363 . S
C969 N971 1.375 . S
C969 H987 0.931 . S
C970 N967 1.311 . S
C970 N971 1.347 . S
C970 H981 0.929 . S
N971 C969 1.375 . S
N971 C970 1.347 . S
C972 C975 1.365 . S
C972 N977 1.328 . S
C972 H978 0.929 . S
C973 C974 1.362 . S
C973 C976 1.378 . S
C973 H988 0.929 . S
C974 C973 1.362 . S
C974 C975 1.366 . S
C975 C972 1.365 . S
C975 C974 1.366 . S
C975 H989 0.930 . S
C976 C973 1.378 . S
C976 N977 1.315 . S
C976 H979 0.930 . S
N977 Co957 2.194 . S
N977 C972 1.328 . S
N977 C976 1.315 . S
H978 C972 0.929 . S
H979 C976 0.930 . S
H980 C968 0.929 . S
H981 C970 0.929 . S
O982 Co957 2.351 . S
O982 C985 1.244 . S
O983 Co957 2.155 . S
O983 C985 1.240 . S
O984 Co957 2.096 . S
O984 C965 1.247 . S
C985 O982 1.244 . S
C985 O983 1.240 . S
H986 C960 0.931 . S
H987 C969 0.931 . S
H988 C973 0.929 . S
H989 C975 0.930 . S
Co990 N994 2.148 . S
Co990 N1000 2.128 1_554 S
Co990 N1010 2.194 . S
Co990 O1015 2.351 . S
Co990 O1016 2.155 . S
Co990 O1017 2.096 . S
C991 N994 1.301 . S
C991 N995 1.328 . S
C991 H996 0.930 . S
C992 C993 1.333 . S
C992 N994 1.317 . S
C992 H997 0.930 . S
C993 C992 1.333 . S
C993 N995 1.350 . S
C993 H1019 0.931 . S
N994 Co990 2.148 . S
N994 C991 1.301 . S
N994 C992 1.317 . S
N995 C991 1.328 . S
N995 C993 1.350 . S
H996 C991 0.930 . S
H997 C992 0.930 . S
C998 O999 1.224 . S
C998 O1017 1.247 . S
O999 C998 1.224 . S
N1000 Co990 2.128 1_556 S
N1000 C1001 1.355 . S
N1000 C1003 1.311 . S
C1001 N1000 1.355 . S
C1001 C1002 1.363 . S
C1001 H1013 0.929 . S
C1002 C1001 1.363 . S
C1002 N1004 1.375 . S
C1002 H1020 0.931 . S
C1003 N1000 1.311 . S
C1003 N1004 1.347 . S
C1003 H1014 0.929 . S
N1004 C1002 1.375 . S
N1004 C1003 1.347 . S
C1005 C1008 1.365 . S
C1005 N1010 1.328 . S
C1005 H1011 0.929 . S
C1006 C1007 1.362 . S
C1006 C1009 1.378 . S
C1006 H1021 0.929 . S
C1007 C1006 1.362 . S
C1007 C1008 1.366 . S
C1008 C1005 1.365 . S
C1008 C1007 1.366 . S
C1008 H1022 0.930 . S
C1009 C1006 1.378 . S
C1009 N1010 1.315 . S
C1009 H1012 0.930 . S
N1010 Co990 2.194 . S
N1010 C1005 1.328 . S
N1010 C1009 1.315 . S
H1011 C1005 0.929 . S
H1012 C1009 0.930 . S
H1013 C1001 0.929 . S
H1014 C1003 0.929 . S
O1015 Co990 2.351 . S
O1015 C1018 1.244 . S
O1016 Co990 2.155 . S
O1016 C1018 1.240 . S
O1017 Co990 2.096 . S
O1017 C998 1.247 . S
C1018 O1015 1.244 . S
C1018 O1016 1.240 . S
H1019 C993 0.931 . S
H1020 C1002 0.931 . S
H1021 C1006 0.929 . S
H1022 C1008 0.930 . S
Co1023 N1027 2.148 . S
Co1023 N1033 2.128 . S
Co1023 N1043 2.194 . S
Co1023 O1048 2.351 . S
Co1023 O1049 2.155 . S
Co1023 O1050 2.096 . S
C1024 N1027 1.301 1_554 S
C1024 N1028 1.328 . S
C1024 H1029 0.930 . S
C1025 C1026 1.333 . S
C1025 N1027 1.317 1_554 S
C1025 H1030 0.930 1_554 S
C1026 C1025 1.333 . S
C1026 N1028 1.350 . S
C1026 H1052 0.931 . S
N1027 Co1023 2.148 . S
N1027 C1024 1.301 1_556 S
N1027 C1025 1.317 1_556 S
N1028 C1024 1.328 . S
N1028 C1026 1.350 . S
H1029 C1024 0.930 . S
H1030 C1025 0.930 1_556 S
C1031 O1032 1.224 . S
C1031 O1050 1.247 . S
O1032 C1031 1.224 . S
N1033 Co1023 2.128 . S
N1033 C1034 1.355 . S
N1033 C1036 1.311 . S
C1034 N1033 1.355 . S
C1034 C1035 1.363 . S
C1034 H1046 0.929 . S
C1035 C1034 1.363 . S
C1035 N1037 1.375 . S
C1035 H1053 0.931 . S
C1036 N1033 1.311 . S
C1036 N1037 1.347 . S
C1036 H1047 0.929 . S
N1037 C1035 1.375 . S
N1037 C1036 1.347 . S
C1038 C1041 1.365 . S
C1038 N1043 1.328 . S
C1038 H1044 0.929 . S
C1039 C1040 1.362 . S
C1039 C1042 1.378 . S
C1039 H1054 0.929 . S
C1040 C1039 1.362 . S
C1040 C1041 1.366 . S
C1041 C1038 1.365 . S
C1041 C1040 1.366 . S
C1041 H1055 0.930 . S
C1042 C1039 1.378 . S
C1042 N1043 1.315 . S
C1042 H1045 0.930 . S
N1043 Co1023 2.194 . S
N1043 C1038 1.328 . S
N1043 C1042 1.315 . S
H1044 C1038 0.929 . S
H1045 C1042 0.930 . S
H1046 C1034 0.929 . S
H1047 C1036 0.929 . S
O1048 Co1023 2.351 . S
O1048 C1051 1.244 . S
O1049 Co1023 2.155 . S
O1049 C1051 1.240 . S
O1050 Co1023 2.096 . S
O1050 C1031 1.247 . S
C1051 O1048 1.244 . S
C1051 O1049 1.240 . S
H1052 C1026 0.931 . S
H1053 C1035 0.931 . S
H1054 C1039 0.929 . S
H1055 C1041 0.930 . S
C1056 C1057 1.369 . S
C1056 C1058 1.419 . S
C1056 H1060 0.930 . S
C1057 C1056 1.369 . S
C1057 C1066 1.429 . S
C1058 C1056 1.419 . S
C1058 C1059 1.363 . S
C1058 H1061 0.929 . S
C1059 C1058 1.363 . S
C1059 C1065 1.428 . S
H1060 C1056 0.930 . S
H1061 C1058 0.929 . S
S1062 N1063 1.613 . S
S1062 N1064 1.610 . S
N1063 S1062 1.613 . S
N1063 C1066 1.350 . S
N1064 S1062 1.610 . S
N1064 C1065 1.351 . S
C1065 C1059 1.428 . S
C1065 N1064 1.351 . S
C1065 C1066 1.434 . S
C1066 C1057 1.429 . S
C1066 N1063 1.350 . S
C1066 C1065 1.434 . S
C1067 C1068 1.369 . S
C1067 C1069 1.419 . S
C1067 H1071 0.930 . S
C1068 C1067 1.369 . S
C1068 C1077 1.429 . S
C1069 C1067 1.419 . S
C1069 C1070 1.363 . S
C1069 H1072 0.929 . S
C1070 C1069 1.363 . S
C1070 C1076 1.428 . S
H1071 C1067 0.930 . S
H1072 C1069 0.929 . S
S1073 N1074 1.613 . S
S1073 N1075 1.610 . S
N1074 S1073 1.613 . S
N1074 C1077 1.350 . S
N1075 S1073 1.610 . S
N1075 C1076 1.351 . S
C1076 C1070 1.428 . S
C1076 N1075 1.351 . S
C1076 C1077 1.434 . S
C1077 C1068 1.429 . S
C1077 N1074 1.350 . S
C1077 C1076 1.434 . S
C1078 C1079 1.369 1_554 S
C1078 C1080 1.419 . S
C1078 H1082 0.930 1_554 S
C1079 C1078 1.369 1_556 S
C1079 C1088 1.429 1_556 S
C1080 C1078 1.419 . S
C1080 C1081 1.363 . S
C1080 H1083 0.929 . S
C1081 C1080 1.363 . S
C1081 C1087 1.428 . S
H1082 C1078 0.930 1_556 S
H1083 C1080 0.929 . S
S1084 N1085 1.613 1_554 S
S1084 N1086 1.610 . S
N1085 S1084 1.613 1_556 S
N1085 C1088 1.350 1_556 S
N1086 S1084 1.610 . S
N1086 C1087 1.351 . S
C1087 C1081 1.428 . S
C1087 N1086 1.351 . S
C1087 C1088 1.434 . S
C1088 C1079 1.429 1_554 S
C1088 N1085 1.350 1_554 S
C1088 C1087 1.434 . S
C1089 C1090 1.369 . S
C1089 C1091 1.419 . S
C1089 H1093 0.930 . S
C1090 C1089 1.369 . S
C1090 C1099 1.429 . S
C1091 C1089 1.419 . S
C1091 C1092 1.363 . S
C1091 H1094 0.929 . S
C1092 C1091 1.363 . S
C1092 C1098 1.428 . S
H1093 C1089 0.930 . S
H1094 C1091 0.929 . S
S1095 N1096 1.613 . S
S1095 N1097 1.610 . S
N1096 S1095 1.613 . S
N1096 C1099 1.350 . S
N1097 S1095 1.610 . S
N1097 C1098 1.351 . S
C1098 C1092 1.428 . S
C1098 N1097 1.351 . S
C1098 C1099 1.434 . S
C1099 C1090 1.429 . S
C1099 N1096 1.350 . S
C1099 C1098 1.434 . S
C1100 C1101 1.369 . S
C1100 C1102 1.419 . S
C1100 H1104 0.930 . S
C1101 C1100 1.369 . S
C1101 C1110 1.429 . S
C1102 C1100 1.419 . S
C1102 C1103 1.363 . S
C1102 H1105 0.929 . S
C1103 C1102 1.363 . S
C1103 C1109 1.428 . S
H1104 C1100 0.930 . S
H1105 C1102 0.929 . S
S1106 N1107 1.613 . S
S1106 N1108 1.610 . S
N1107 S1106 1.613 . S
N1107 C1110 1.350 . S
N1108 S1106 1.610 . S
N1108 C1109 1.351 . S
C1109 C1103 1.428 . S
C1109 N1108 1.351 . S
C1109 C1110 1.434 . S
C1110 C1101 1.429 . S
C1110 N1107 1.350 . S
C1110 C1109 1.434 . S
C1111 C1112 1.369 . S
C1111 C1113 1.419 . S
C1111 H1115 0.930 . S
C1112 C1111 1.369 . S
C1112 C1121 1.429 . S
C1113 C1111 1.419 . S
C1113 C1114 1.363 . S
C1113 H1116 0.929 . S
C1114 C1113 1.363 . S
C1114 C1120 1.428 . S
H1115 C1111 0.930 . S
H1116 C1113 0.929 . S
S1117 N1118 1.613 . S
S1117 N1119 1.610 . S
N1118 S1117 1.613 . S
N1118 C1121 1.350 . S
N1119 S1117 1.610 . S
N1119 C1120 1.351 . S
C1120 C1114 1.428 . S
C1120 N1119 1.351 . S
C1120 C1121 1.434 . S
C1121 C1112 1.429 . S
C1121 N1118 1.350 . S
C1121 C1120 1.434 . S
C1122 C1123 1.369 . S
C1122 C1124 1.419 . S
C1122 H1126 0.930 . S
C1123 C1122 1.369 . S
C1123 C1132 1.429 . S
C1124 C1122 1.419 . S
C1124 C1125 1.363 1_556 S
C1124 H1127 0.929 1_556 S
C1125 C1124 1.363 1_554 S
C1125 C1131 1.428 1_554 S
H1126 C1122 0.930 . S
H1127 C1124 0.929 1_554 S
S1128 N1129 1.613 . S
S1128 N1130 1.610 1_556 S
N1129 S1128 1.613 . S
N1129 C1132 1.350 . S
N1130 S1128 1.610 1_554 S
N1130 C1131 1.351 1_554 S
C1131 C1125 1.428 1_556 S
C1131 N1130 1.351 1_556 S
C1131 C1132 1.434 . S
C1132 C1123 1.429 . S
C1132 N1129 1.350 . S
C1132 C1131 1.434 . S
C1133 C1134 1.369 . S
C1133 C1135 1.419 . S
C1133 H1137 0.930 . S
C1134 C1133 1.369 . S
C1134 C1143 1.429 . S
C1135 C1133 1.419 . S
C1135 C1136 1.363 . S
C1135 H1138 0.929 . S
C1136 C1135 1.363 . S
C1136 C1142 1.428 . S
H1137 C1133 0.930 . S
H1138 C1135 0.929 . S
S1139 N1140 1.613 . S
S1139 N1141 1.610 . S
N1140 S1139 1.613 . S
N1140 C1143 1.350 . S
N1141 S1139 1.610 . S
N1141 C1142 1.351 . S
C1142 C1136 1.428 . S
C1142 N1141 1.351 . S
C1142 C1143 1.434 . S
C1143 C1134 1.429 . S
C1143 N1140 1.350 . S
C1143 C1142 1.434 . S
C1144 C1145 1.369 . S
C1144 C1146 1.419 . S
C1144 H1148 0.930 . S
C1145 C1144 1.369 . S
C1145 C1154 1.429 . S
C1146 C1144 1.419 . S
C1146 C1147 1.363 . S
C1146 H1149 0.929 . S
C1147 C1146 1.363 . S
C1147 C1153 1.428 . S
H1148 C1144 0.930 . S
H1149 C1146 0.929 . S
S1150 N1151 1.613 . S
S1150 N1152 1.610 . S
N1151 S1150 1.613 . S
N1151 C1154 1.350 . S
N1152 S1150 1.610 . S
N1152 C1153 1.351 . S
C1153 C1147 1.428 . S
C1153 N1152 1.351 . S
C1153 C1154 1.434 . S
C1154 C1145 1.429 . S
C1154 N1151 1.350 . S
C1154 C1153 1.434 . S
C1155 C1156 1.369 . S
C1155 C1157 1.419 . S
C1155 H1159 0.930 . S
C1156 C1155 1.369 . S
C1156 C1165 1.429 . S
C1157 C1155 1.419 . S
C1157 C1158 1.363 . S
C1157 H1160 0.929 . S
C1158 C1157 1.363 . S
C1158 C1164 1.428 . S
H1159 C1155 0.930 . S
H1160 C1157 0.929 . S
S1161 N1162 1.613 . S
S1161 N1163 1.610 . S
N1162 S1161 1.613 . S
N1162 C1165 1.350 . S
N1163 S1161 1.610 . S
N1163 C1164 1.351 . S
C1164 C1158 1.428 . S
C1164 N1163 1.351 . S
C1164 C1165 1.434 . S
C1165 C1156 1.429 . S
C1165 N1162 1.350 . S
C1165 C1164 1.434 . S
C1166 C1167 1.369 . S
C1166 C1168 1.419 . S
C1166 H1170 0.930 . S
C1167 C1166 1.369 . S
C1167 C1176 1.429 . S
C1168 C1166 1.419 . S
C1168 C1169 1.363 1_556 S
C1168 H1171 0.929 1_556 S
C1169 C1168 1.363 1_554 S
C1169 C1175 1.428 1_554 S
H1170 C1166 0.930 . S
H1171 C1168 0.929 1_554 S
S1172 N1173 1.613 . S
S1172 N1174 1.610 1_556 S
N1173 S1172 1.613 . S
N1173 C1176 1.350 . S
N1174 S1172 1.610 1_554 S
N1174 C1175 1.351 1_554 S
C1175 C1169 1.428 1_556 S
C1175 N1174 1.351 1_556 S
C1175 C1176 1.434 . S
C1176 C1167 1.429 . S
C1176 N1173 1.350 . S
C1176 C1175 1.434 . S
C1177 C1178 1.369 . S
C1177 C1179 1.419 . S
C1177 H1181 0.930 . S
C1178 C1177 1.369 . S
C1178 C1187 1.429 . S
C1179 C1177 1.419 . S
C1179 C1180 1.363 . S
C1179 H1182 0.929 . S
C1180 C1179 1.363 . S
C1180 C1186 1.428 . S
H1181 C1177 0.930 . S
H1182 C1179 0.929 . S
S1183 N1184 1.613 . S
S1183 N1185 1.610 . S
N1184 S1183 1.613 . S
N1184 C1187 1.350 . S
N1185 S1183 1.610 . S
N1185 C1186 1.351 . S
C1186 C1180 1.428 . S
C1186 N1185 1.351 . S
C1186 C1187 1.434 . S
C1187 C1178 1.429 . S
C1187 N1184 1.350 . S
C1187 C1186 1.434 . S
C1188 C1189 1.369 . S
C1188 C1190 1.419 . S
C1188 H1192 0.930 . S
C1189 C1188 1.369 . S
C1189 C1198 1.429 . S
C1190 C1188 1.419 . S
C1190 C1191 1.363 . S
C1190 H1193 0.929 . S
C1191 C1190 1.363 . S
C1191 C1197 1.428 . S
H1192 C1188 0.930 . S
H1193 C1190 0.929 . S
S1194 N1195 1.613 . S
S1194 N1196 1.610 . S
N1195 S1194 1.613 . S
N1195 C1198 1.350 . S
N1196 S1194 1.610 . S
N1196 C1197 1.351 . S
C1197 C1191 1.428 . S
C1197 N1196 1.351 . S
C1197 C1198 1.434 . S
C1198 C1189 1.429 . S
C1198 N1195 1.350 . S
C1198 C1197 1.434 . S
C1199 C1200 1.369 . S
C1199 C1201 1.419 . S
C1199 H1203 0.930 . S
C1200 C1199 1.369 . S
C1200 C1209 1.429 . S
C1201 C1199 1.419 . S
C1201 C1202 1.363 . S
C1201 H1204 0.929 . S
C1202 C1201 1.363 . S
C1202 C1208 1.428 . S
H1203 C1199 0.930 . S
H1204 C1201 0.929 . S
S1205 N1206 1.613 . S
S1205 N1207 1.610 . S
N1206 S1205 1.613 . S
N1206 C1209 1.350 . S
N1207 S1205 1.610 . S
N1207 C1208 1.351 . S
C1208 C1202 1.428 . S
C1208 N1207 1.351 . S
C1208 C1209 1.434 . S
C1209 C1200 1.429 . S
C1209 N1206 1.350 . S
C1209 C1208 1.434 . S
C1210 C1211 1.369 1_554 S
C1210 C1212 1.419 . S
C1210 H1214 0.929 1_554 S
C1211 C1210 1.369 1_556 S
C1211 C1220 1.429 1_556 S
C1212 C1210 1.419 . S
C1212 C1213 1.363 . S
C1212 H1215 0.929 . S
C1213 C1212 1.363 . S
C1213 C1219 1.428 . S
H1214 C1210 0.929 1_556 S
H1215 C1212 0.929 . S
S1216 N1217 1.613 1_554 S
S1216 N1218 1.610 . S
N1217 S1216 1.613 1_556 S
N1217 C1220 1.350 1_556 S
N1218 S1216 1.610 . S
N1218 C1219 1.351 . S
C1219 C1213 1.428 . S
C1219 N1218 1.351 . S
C1219 C1220 1.434 . S
C1220 C1211 1.429 1_554 S
C1220 N1217 1.350 1_554 S
C1220 C1219 1.434 . S
C1221 C1222 1.369 . S
C1221 C1223 1.419 . S
C1221 H1225 0.930 . S
C1222 C1221 1.369 . S
C1222 C1231 1.429 . S
C1223 C1221 1.419 . S
C1223 C1224 1.363 . S
C1223 H1226 0.929 . S
C1224 C1223 1.363 . S
C1224 C1230 1.428 . S
H1225 C1221 0.930 . S
H1226 C1223 0.929 . S
S1227 N1228 1.613 . S
S1227 N1229 1.610 . S
N1228 S1227 1.613 . S
N1228 C1231 1.350 . S
N1229 S1227 1.610 . S
N1229 C1230 1.351 . S
C1230 C1224 1.428 . S
C1230 N1229 1.351 . S
C1230 C1231 1.434 . S
C1231 C1222 1.429 . S
C1231 N1228 1.350 . S
C1231 C1230 1.434 . S
C1232 C1233 1.369 1_554 S
C1232 C1234 1.419 . S
C1232 H1236 0.930 1_554 S
C1233 C1232 1.369 1_556 S
C1233 C1242 1.429 1_556 S
C1234 C1232 1.419 . S
C1234 C1235 1.363 . S
C1234 H1237 0.929 . S
C1235 C1234 1.363 . S
C1235 C1241 1.428 . S
H1236 C1232 0.930 1_556 S
H1237 C1234 0.929 . S
S1238 N1239 1.613 1_554 S
S1238 N1240 1.610 . S
N1239 S1238 1.613 1_556 S
N1239 C1242 1.350 1_556 S
N1240 S1238 1.610 . S
N1240 C1241 1.351 . S
C1241 C1235 1.428 . S
C1241 N1240 1.351 . S
C1241 C1242 1.434 . S
C1242 C1233 1.429 1_554 S
C1242 N1239 1.350 1_554 S
C1242 C1241 1.434 . S
C1243 C1244 1.369 . S
C1243 C1245 1.419 . S
C1243 H1247 0.930 . S
C1244 C1243 1.369 . S
C1244 C1253 1.429 . S
C1245 C1243 1.419 . S
C1245 C1246 1.363 . S
C1245 H1248 0.929 . S
C1246 C1245 1.363 . S
C1246 C1252 1.428 . S
H1247 C1243 0.930 . S
H1248 C1245 0.929 . S
S1249 N1250 1.613 . S
S1249 N1251 1.610 . S
N1250 S1249 1.613 . S
N1250 C1253 1.350 . S
N1251 S1249 1.610 . S
N1251 C1252 1.351 . S
C1252 C1246 1.428 . S
C1252 N1251 1.351 . S
C1252 C1253 1.434 . S
C1253 C1244 1.429 . S
C1253 N1250 1.350 . S
C1253 C1252 1.434 . S
C1254 C1255 1.369 . S
C1254 C1256 1.419 . S
C1254 H1258 0.930 . S
C1255 C1254 1.369 . S
C1255 C1264 1.429 . S
C1256 C1254 1.419 . S
C1256 C1257 1.363 . S
C1256 H1259 0.929 . S
C1257 C1256 1.363 . S
C1257 C1263 1.428 . S
H1258 C1254 0.930 . S
H1259 C1256 0.929 . S
S1260 N1261 1.613 . S
S1260 N1262 1.610 . S
N1261 S1260 1.613 . S
N1261 C1264 1.350 . S
N1262 S1260 1.610 . S
N1262 C1263 1.351 . S
C1263 C1257 1.428 . S
C1263 N1262 1.351 . S
C1263 C1264 1.434 . S
C1264 C1255 1.429 . S
C1264 N1261 1.350 . S
C1264 C1263 1.434 . S
C1265 C1266 1.369 . S
C1265 C1267 1.419 . S
C1265 H1269 0.930 . S
C1266 C1265 1.369 . S
C1266 C1275 1.429 . S
C1267 C1265 1.419 . S
C1267 C1268 1.363 . S
C1267 H1270 0.929 . S
C1268 C1267 1.363 . S
C1268 C1274 1.428 . S
H1269 C1265 0.930 . S
H1270 C1267 0.929 . S
S1271 N1272 1.613 . S
S1271 N1273 1.610 . S
N1272 S1271 1.613 . S
N1272 C1275 1.350 . S
N1273 S1271 1.610 . S
N1273 C1274 1.351 . S
C1274 C1268 1.428 . S
C1274 N1273 1.351 . S
C1274 C1275 1.434 . S
C1275 C1266 1.429 . S
C1275 N1272 1.350 . S
C1275 C1274 1.434 . S
C1276 C1277 1.369 1_556 S
C1276 C1278 1.419 . S
C1276 H1280 0.930 1_556 S
C1277 C1276 1.369 1_554 S
C1277 C1286 1.429 1_554 S
C1278 C1276 1.419 . S
C1278 C1279 1.363 . S
C1278 H1281 0.929 . S
C1279 C1278 1.363 . S
C1279 C1285 1.428 . S
H1280 C1276 0.930 1_554 S
H1281 C1278 0.929 . S
S1282 N1283 1.613 1_556 S
S1282 N1284 1.610 . S
N1283 S1282 1.613 1_554 S
N1283 C1286 1.350 1_554 S
N1284 S1282 1.610 . S
N1284 C1285 1.351 . S
C1285 C1279 1.428 . S
C1285 N1284 1.351 . S
C1285 C1286 1.434 . S
C1286 C1277 1.429 1_556 S
C1286 N1283 1.350 1_556 S
C1286 C1285 1.434 . S
C1287 C1288 1.369 . S
C1287 C1289 1.419 . S
C1287 H1291 0.930 . S
C1288 C1287 1.369 . S
C1288 C1297 1.429 . S
C1289 C1287 1.419 . S
C1289 C1290 1.363 . S
C1289 H1292 0.929 . S
C1290 C1289 1.363 . S
C1290 C1296 1.428 . S
H1291 C1287 0.930 . S
H1292 C1289 0.929 . S
S1293 N1294 1.613 . S
S1293 N1295 1.610 . S
N1294 S1293 1.613 . S
N1294 C1297 1.350 . S
N1295 S1293 1.610 . S
N1295 C1296 1.351 . S
C1296 C1290 1.428 . S
C1296 N1295 1.351 . S
C1296 C1297 1.434 . S
C1297 C1288 1.429 . S
C1297 N1294 1.350 . S
C1297 C1296 1.434 . S
C1298 C1299 1.369 . S
C1298 C1300 1.419 . S
C1298 H1302 0.930 . S
C1299 C1298 1.369 . S
C1299 C1308 1.429 . S
C1300 C1298 1.419 . S
C1300 C1301 1.363 . S
C1300 H1303 0.929 . S
C1301 C1300 1.363 . S
C1301 C1307 1.428 . S
H1302 C1298 0.930 . S
H1303 C1300 0.929 . S
S1304 N1305 1.613 . S
S1304 N1306 1.610 . S
N1305 S1304 1.613 . S
N1305 C1308 1.350 . S
N1306 S1304 1.610 . S
N1306 C1307 1.351 . S
C1307 C1301 1.428 . S
C1307 N1306 1.351 . S
C1307 C1308 1.434 . S
C1308 C1299 1.429 . S
C1308 N1305 1.350 . S
C1308 C1307 1.434 . S
C1309 C1310 1.369 . S
C1309 C1311 1.419 . S
C1309 H1313 0.930 . S
C1310 C1309 1.369 . S
C1310 C1319 1.429 . S
C1311 C1309 1.419 . S
C1311 C1312 1.363 . S
C1311 H1314 0.929 . S
C1312 C1311 1.363 . S
C1312 C1318 1.428 . S
H1313 C1309 0.930 . S
H1314 C1311 0.929 . S
S1315 N1316 1.613 . S
S1315 N1317 1.610 . S
N1316 S1315 1.613 . S
N1316 C1319 1.350 . S
N1317 S1315 1.610 . S
N1317 C1318 1.351 . S
C1318 C1312 1.428 . S
C1318 N1317 1.351 . S
C1318 C1319 1.434 . S
C1319 C1310 1.429 . S
C1319 N1316 1.350 . S
C1319 C1318 1.434 . S
C1320 C1321 1.369 1_556 S
C1320 C1322 1.419 . S
C1320 H1324 0.930 1_556 S
C1321 C1320 1.369 1_554 S
C1321 C1330 1.429 1_554 S
C1322 C1320 1.419 . S
C1322 C1323 1.363 . S
C1322 H1325 0.929 . S
C1323 C1322 1.363 . S
C1323 C1329 1.428 . S
H1324 C1320 0.930 1_554 S
H1325 C1322 0.929 . S
S1326 N1327 1.613 1_556 S
S1326 N1328 1.610 . S
N1327 S1326 1.613 1_554 S
N1327 C1330 1.350 1_554 S
N1328 S1326 1.610 . S
N1328 C1329 1.351 . S
C1329 C1323 1.428 . S
C1329 N1328 1.351 . S
C1329 C1330 1.434 . S
C1330 C1321 1.429 1_556 S
C1330 N1327 1.350 1_556 S
C1330 C1329 1.434 . S
C1331 C1332 1.369 . S
C1331 C1333 1.419 . S
C1331 H1335 0.930 . S
C1332 C1331 1.369 . S
C1332 C1341 1.429 . S
C1333 C1331 1.419 . S
C1333 C1334 1.363 . S
C1333 H1336 0.929 . S
C1334 C1333 1.363 . S
C1334 C1340 1.428 . S
H1335 C1331 0.930 . S
H1336 C1333 0.929 . S
S1337 N1338 1.613 . S
S1337 N1339 1.610 . S
N1338 S1337 1.613 . S
N1338 C1341 1.350 . S
N1339 S1337 1.610 . S
N1339 C1340 1.351 . S
C1340 C1334 1.428 . S
C1340 N1339 1.351 . S
C1340 C1341 1.434 . S
C1341 C1332 1.429 . S
C1341 N1338 1.350 . S
C1341 C1340 1.434 . S
C1342 C1343 1.369 . S
C1342 C1344 1.419 . S
C1342 H1346 0.930 . S
C1343 C1342 1.369 . S
C1343 C1352 1.429 . S
C1344 C1342 1.419 . S
C1344 C1345 1.363 . S
C1344 H1347 0.929 . S
C1345 C1344 1.363 . S
C1345 C1351 1.428 . S
H1346 C1342 0.930 . S
H1347 C1344 0.929 . S
S1348 N1349 1.613 . S
S1348 N1350 1.610 . S
N1349 S1348 1.613 . S
N1349 C1352 1.350 . S
N1350 S1348 1.610 . S
N1350 C1351 1.351 . S
C1351 C1345 1.428 . S
C1351 N1350 1.351 . S
C1351 C1352 1.434 . S
C1352 C1343 1.429 . S
C1352 N1349 1.350 . S
C1352 C1351 1.434 . S
C1353 C1354 1.369 . S
C1353 C1355 1.419 . S
C1353 H1357 0.930 . S
C1354 C1353 1.369 . S
C1354 C1363 1.429 . S
C1355 C1353 1.419 . S
C1355 C1356 1.363 . S
C1355 H1358 0.929 . S
C1356 C1355 1.363 . S
C1356 C1362 1.428 . S
H1357 C1353 0.930 . S
H1358 C1355 0.929 . S
S1359 N1360 1.613 . S
S1359 N1361 1.610 . S
N1360 S1359 1.613 . S
N1360 C1363 1.350 . S
N1361 S1359 1.610 . S
N1361 C1362 1.351 . S
C1362 C1356 1.428 . S
C1362 N1361 1.351 . S
C1362 C1363 1.434 . S
C1363 C1354 1.429 . S
C1363 N1360 1.350 . S
C1363 C1362 1.434 . S
C1364 C1365 1.369 . S
C1364 C1366 1.419 . S
C1364 H1368 0.930 . S
C1365 C1364 1.369 . S
C1365 C1374 1.429 . S
C1366 C1364 1.419 . S
C1366 C1367 1.363 1_554 S
C1366 H1369 0.929 1_554 S
C1367 C1366 1.363 1_556 S
C1367 C1373 1.428 1_556 S
H1368 C1364 0.930 . S
H1369 C1366 0.929 1_556 S
S1370 N1371 1.613 . S
S1370 N1372 1.610 1_554 S
N1371 S1370 1.613 . S
N1371 C1374 1.350 . S
N1372 S1370 1.610 1_556 S
N1372 C1373 1.351 1_556 S
C1373 C1367 1.428 1_554 S
C1373 N1372 1.351 1_554 S
C1373 C1374 1.434 . S
C1374 C1365 1.429 . S
C1374 N1371 1.350 . S
C1374 C1373 1.434 . S
C1375 C1376 1.369 . S
C1375 C1377 1.419 . S
C1375 H1379 0.930 . S
C1376 C1375 1.369 . S
C1376 C1385 1.429 . S
C1377 C1375 1.419 . S
C1377 C1378 1.363 . S
C1377 H1380 0.929 . S
C1378 C1377 1.363 . S
C1378 C1384 1.428 . S
H1379 C1375 0.930 . S
H1380 C1377 0.929 . S
S1381 N1382 1.613 . S
S1381 N1383 1.610 . S
N1382 S1381 1.613 . S
N1382 C1385 1.350 . S
N1383 S1381 1.610 . S
N1383 C1384 1.351 . S
C1384 C1378 1.428 . S
C1384 N1383 1.351 . S
C1384 C1385 1.434 . S
C1385 C1376 1.429 . S
C1385 N1382 1.350 . S
C1385 C1384 1.434 . S
C1386 C1387 1.369 . S
C1386 C1388 1.419 . S
C1386 H1390 0.930 . S
C1387 C1386 1.369 . S
C1387 C1396 1.429 . S
C1388 C1386 1.419 . S
C1388 C1389 1.363 . S
C1388 H1391 0.929 . S
C1389 C1388 1.363 . S
C1389 C1395 1.428 . S
H1390 C1386 0.930 . S
H1391 C1388 0.929 . S
S1392 N1393 1.613 . S
S1392 N1394 1.610 . S
N1393 S1392 1.613 . S
N1393 C1396 1.350 . S
N1394 S1392 1.610 . S
N1394 C1395 1.351 . S
C1395 C1389 1.428 . S
C1395 N1394 1.351 . S
C1395 C1396 1.434 . S
C1396 C1387 1.429 . S
C1396 N1393 1.350 . S
C1396 C1395 1.434 . S
C1397 C1398 1.369 . S
C1397 C1399 1.419 . S
C1397 H1401 0.930 . S
C1398 C1397 1.369 . S
C1398 C1407 1.429 . S
C1399 C1397 1.419 . S
C1399 C1400 1.363 . S
C1399 H1402 0.929 . S
C1400 C1399 1.363 . S
C1400 C1406 1.428 . S
H1401 C1397 0.930 . S
H1402 C1399 0.929 . S
S1403 N1404 1.613 . S
S1403 N1405 1.610 . S
N1404 S1403 1.613 . S
N1404 C1407 1.350 . S
N1405 S1403 1.610 . S
N1405 C1406 1.351 . S
C1406 C1400 1.428 . S
C1406 N1405 1.351 . S
C1406 C1407 1.434 . S
C1407 C1398 1.429 . S
C1407 N1404 1.350 . S
C1407 C1406 1.434 . S
C1408 C1409 1.369 . S
C1408 C1410 1.419 . S
C1408 H1412 0.921 1_554 S
C1409 C1408 1.369 . S
C1409 C1418 1.429 . S
C1410 C1408 1.419 . S
C1410 C1411 1.363 . S
C1410 H1413 0.929 1_554 S
C1411 C1410 1.363 . S
C1411 C1417 1.428 . S
H1412 C1408 0.921 1_556 S
H1413 C1410 0.929 1_556 S
S1414 N1415 1.613 . S
S1414 N1416 1.610 . S
N1415 S1414 1.613 . S
N1415 C1418 1.350 . S
N1416 S1414 1.610 . S
N1416 C1417 1.351 . S
C1417 C1411 1.428 . S
C1417 N1416 1.351 . S
C1417 C1418 1.434 . S
C1418 C1409 1.429 . S
C1418 N1415 1.350 . S
C1418 C1417 1.434 . S
C1419 C1420 1.369 . S
C1419 C1421 1.419 . S
C1419 H1423 0.930 . S
C1420 C1419 1.369 . S
C1420 C1429 1.429 . S
C1421 C1419 1.419 . S
C1421 C1422 1.363 . S
C1421 H1424 0.929 . S
C1422 C1421 1.363 . S
C1422 C1428 1.428 . S
H1423 C1419 0.930 . S
H1424 C1421 0.929 . S
S1425 N1426 1.613 . S
S1425 N1427 1.610 . S
N1426 S1425 1.613 . S
N1426 C1429 1.350 . S
N1427 S1425 1.610 . S
N1427 C1428 1.351 . S
C1428 C1422 1.428 . S
C1428 N1427 1.351 . S
C1428 C1429 1.434 . S
C1429 C1420 1.429 . S
C1429 N1426 1.350 . S
C1429 C1428 1.434 . S
C1430 C1431 1.369 . S
C1430 C1432 1.419 . S
C1430 H1434 0.930 . S
C1431 C1430 1.369 . S
C1431 C1440 1.429 . S
C1432 C1430 1.419 . S
C1432 C1433 1.363 . S
C1432 H1435 0.929 . S
C1433 C1432 1.363 . S
C1433 C1439 1.428 . S
H1434 C1430 0.930 . S
H1435 C1432 0.929 . S
S1436 N1437 1.613 . S
S1436 N1438 1.610 . S
N1437 S1436 1.613 . S
N1437 C1440 1.350 . S
N1438 S1436 1.610 . S
N1438 C1439 1.351 . S
C1439 C1433 1.428 . S
C1439 N1438 1.351 . S
C1439 C1440 1.434 . S
C1440 C1431 1.429 . S
C1440 N1437 1.350 . S
C1440 C1439 1.434 . S
C1441 C1442 1.369 . S
C1441 C1443 1.419 . S
C1441 H1445 0.930 . S
C1442 C1441 1.369 . S
C1442 C1451 1.429 . S
C1443 C1441 1.419 . S
C1443 C1444 1.363 . S
C1443 H1446 0.929 . S
C1444 C1443 1.363 . S
C1444 C1450 1.428 . S
H1445 C1441 0.930 . S
H1446 C1443 0.929 . S
S1447 N1448 1.613 . S
S1447 N1449 1.610 . S
N1448 S1447 1.613 . S
N1448 C1451 1.350 . S
N1449 S1447 1.610 . S
N1449 C1450 1.351 . S
C1450 C1444 1.428 . S
C1450 N1449 1.351 . S
C1450 C1451 1.434 . S
C1451 C1442 1.429 . S
C1451 N1448 1.350 . S
C1451 C1450 1.434 . S
C1452 C1453 1.369 . S
C1452 C1454 1.419 . S
C1452 H1456 0.930 . S
C1453 C1452 1.369 . S
C1453 C1462 1.429 . S
C1454 C1452 1.419 . S
C1454 C1455 1.363 . S
C1454 H1457 0.929 1_556 S
C1455 C1454 1.363 . S
C1455 C1461 1.428 . S
H1456 C1452 0.930 . S
H1457 C1454 0.929 1_554 S
S1458 N1459 1.613 . S
S1458 N1460 1.610 . S
N1459 S1458 1.613 . S
N1459 C1462 1.350 . S
N1460 S1458 1.610 . S
N1460 C1461 1.351 . S
C1461 C1455 1.428 . S
C1461 N1460 1.351 . S
C1461 C1462 1.434 . S
C1462 C1453 1.429 . S
C1462 N1459 1.350 . S
C1462 C1461 1.434 . S
C1463 C1464 1.369 . S
C1463 C1465 1.419 . S
C1463 H1467 0.930 1_554 S
C1464 C1463 1.369 . S
C1464 C1473 1.429 . S
C1465 C1463 1.419 . S
C1465 C1466 1.363 . S
C1465 H1468 0.929 . S
C1466 C1465 1.363 . S
C1466 C1472 1.428 . S
H1467 C1463 0.930 1_556 S
H1468 C1465 0.929 . S
S1469 N1470 1.613 . S
S1469 N1471 1.610 . S
N1470 S1469 1.613 . S
N1470 C1473 1.350 . S
N1471 S1469 1.610 . S
N1471 C1472 1.351 . S
C1472 C1466 1.428 . S
C1472 N1471 1.351 . S
C1472 C1473 1.434 . S
C1473 C1464 1.429 . S
C1473 N1470 1.350 . S
C1473 C1472 1.434 . S
C1474 C1475 1.369 . S
C1474 C1476 1.419 . S
C1474 H1478 0.930 . S
C1475 C1474 1.369 . S
C1475 C1484 1.429 . S
C1476 C1474 1.419 . S
C1476 C1477 1.363 . S
C1476 H1479 0.929 . S
C1477 C1476 1.363 . S
C1477 C1483 1.428 . S
H1478 C1474 0.930 . S
H1479 C1476 0.929 . S
S1480 N1481 1.613 . S
S1480 N1482 1.610 . S
N1481 S1480 1.613 . S
N1481 C1484 1.350 . S
N1482 S1480 1.610 . S
N1482 C1483 1.351 . S
C1483 C1477 1.428 . S
C1483 N1482 1.351 . S
C1483 C1484 1.434 . S
C1484 C1475 1.429 . S
C1484 N1481 1.350 . S
C1484 C1483 1.434 . S
C1485 C1486 1.369 . S
C1485 C1487 1.419 . S
C1485 H1489 0.930 . S
C1486 C1485 1.369 . S
C1486 C1495 1.429 . S
C1487 C1485 1.419 . S
C1487 C1488 1.363 . S
C1487 H1490 0.929 . S
C1488 C1487 1.363 . S
C1488 C1494 1.428 . S
H1489 C1485 0.930 . S
H1490 C1487 0.929 . S
S1491 N1492 1.613 . S
S1491 N1493 1.610 . S
N1492 S1491 1.613 . S
N1492 C1495 1.350 . S
N1493 S1491 1.610 . S
N1493 C1494 1.351 . S
C1494 C1488 1.428 . S
C1494 N1493 1.351 . S
C1494 C1495 1.434 . S
C1495 C1486 1.429 . S
C1495 N1492 1.350 . S
C1495 C1494 1.434 . S
C1496 C1497 1.369 . S
C1496 C1498 1.419 . S
C1496 H1500 0.930 . S
C1497 C1496 1.369 . S
C1497 C1506 1.429 . S
C1498 C1496 1.419 . S
C1498 C1499 1.363 . S
C1498 H1501 0.932 . S
C1499 C1498 1.363 . S
C1499 C1505 1.428 . S
H1500 C1496 0.930 . S
H1501 C1498 0.932 . S
S1502 N1503 1.613 . S
S1502 N1504 1.610 . S
N1503 S1502 1.613 . S
N1503 C1506 1.350 . S
N1504 S1502 1.610 . S
N1504 C1505 1.351 . S
C1505 C1499 1.428 . S
C1505 N1504 1.351 . S
C1505 C1506 1.434 . S
C1506 C1497 1.429 . S
C1506 N1503 1.350 . S
C1506 C1505 1.434 . S
C1507 C1508 1.369 . S
C1507 C1509 1.419 . S
C1507 H1511 0.930 . S
C1508 C1507 1.369 . S
C1508 C1517 1.429 . S
C1509 C1507 1.419 . S
C1509 C1510 1.363 . S
C1509 H1512 0.929 . S
C1510 C1509 1.363 . S
C1510 C1516 1.428 . S
H1511 C1507 0.930 . S
H1512 C1509 0.929 . S
S1513 N1514 1.613 . S
S1513 N1515 1.610 . S
N1514 S1513 1.613 . S
N1514 C1517 1.350 . S
N1515 S1513 1.610 . S
N1515 C1516 1.351 . S
C1516 C1510 1.428 . S
C1516 N1515 1.351 . S
C1516 C1517 1.434 . S
C1517 C1508 1.429 . S
C1517 N1514 1.350 . S
C1517 C1516 1.434 . S
C1518 C1519 1.369 . S
C1518 C1520 1.419 . S
C1518 H1522 0.930 . S
C1519 C1518 1.369 . S
C1519 C1528 1.429 . S
C1520 C1518 1.419 . S
C1520 C1521 1.363 . S
C1520 H1523 0.929 . S
C1521 C1520 1.363 . S
C1521 C1527 1.428 . S
H1522 C1518 0.930 . S
H1523 C1520 0.929 . S
S1524 N1525 1.613 . S
S1524 N1526 1.610 . S
N1525 S1524 1.613 . S
N1525 C1528 1.350 . S
N1526 S1524 1.610 . S
N1526 C1527 1.351 . S
C1527 C1521 1.428 . S
C1527 N1526 1.351 . S
C1527 C1528 1.434 . S
C1528 C1519 1.429 . S
C1528 N1525 1.350 . S
C1528 C1527 1.434 . S
C1529 C1530 1.369 . S
C1529 C1531 1.419 . S
C1529 H1533 0.930 . S
C1530 C1529 1.369 . S
C1530 C1539 1.429 . S
C1531 C1529 1.419 . S
C1531 C1532 1.363 . S
C1531 H1534 0.929 . S
C1532 C1531 1.363 . S
C1532 C1538 1.428 . S
H1533 C1529 0.930 . S
H1534 C1531 0.929 . S
S1535 N1536 1.613 . S
S1535 N1537 1.610 . S
N1536 S1535 1.613 . S
N1536 C1539 1.350 . S
N1537 S1535 1.610 . S
N1537 C1538 1.351 . S
C1538 C1532 1.428 . S
C1538 N1537 1.351 . S
C1538 C1539 1.434 . S
C1539 C1530 1.429 . S
C1539 N1536 1.350 . S
C1539 C1538 1.434 . S
C1540 C1541 1.369 . S
C1540 C1542 1.419 . S
C1540 H1544 0.930 . S
C1541 C1540 1.369 . S
C1541 C1550 1.429 . S
C1542 C1540 1.419 . S
C1542 C1543 1.363 . S
C1542 H1545 0.929 . S
C1543 C1542 1.363 . S
C1543 C1549 1.428 . S
H1544 C1540 0.930 . S
H1545 C1542 0.929 . S
S1546 N1547 1.613 . S
S1546 N1548 1.610 . S
N1547 S1546 1.613 . S
N1547 C1550 1.350 . S
N1548 S1546 1.610 . S
N1548 C1549 1.351 . S
C1549 C1543 1.428 . S
C1549 N1548 1.351 . S
C1549 C1550 1.434 . S
C1550 C1541 1.429 . S
C1550 N1547 1.350 . S
C1550 C1549 1.434 . S
C1551 C1552 1.369 . S
C1551 C1553 1.419 . S
C1551 H1555 0.930 . S
C1552 C1551 1.369 . S
C1552 C1561 1.429 . S
C1553 C1551 1.419 . S
C1553 C1554 1.363 . S
C1553 H1556 0.929 1_556 S
C1554 C1553 1.363 . S
C1554 C1560 1.428 . S
H1555 C1551 0.930 . S
H1556 C1553 0.929 1_554 S
S1557 N1558 1.613 . S
S1557 N1559 1.610 . S
N1558 S1557 1.613 . S
N1558 C1561 1.350 . S
N1559 S1557 1.610 . S
N1559 C1560 1.351 . S
C1560 C1554 1.428 . S
C1560 N1559 1.351 . S
C1560 C1561 1.434 . S
C1561 C1552 1.429 . S
C1561 N1558 1.350 . S
C1561 C1560 1.434 . S
C1562 C1563 1.369 . S
C1562 C1564 1.419 . S
C1562 H1566 0.930 . S
C1563 C1562 1.369 . S
C1563 C1572 1.429 . S
C1564 C1562 1.419 . S
C1564 C1565 1.363 . S
C1564 H1567 0.929 . S
C1565 C1564 1.363 . S
C1565 C1571 1.428 . S
H1566 C1562 0.930 . S
H1567 C1564 0.929 . S
S1568 N1569 1.613 . S
S1568 N1570 1.610 . S
N1569 S1568 1.613 . S
N1569 C1572 1.350 . S
N1570 S1568 1.610 . S
N1570 C1571 1.351 . S
C1571 C1565 1.428 . S
C1571 N1570 1.351 . S
C1571 C1572 1.434 . S
C1572 C1563 1.429 . S
C1572 N1569 1.350 . S
C1572 C1571 1.434 . S
C1573 C1574 1.369 . S
C1573 C1575 1.419 . S
C1573 H1577 0.930 . S
C1574 C1573 1.369 . S
C1574 C1583 1.429 . S
C1575 C1573 1.419 . S
C1575 C1576 1.363 . S
C1575 H1578 0.929 . S
C1576 C1575 1.363 . S
C1576 C1582 1.428 . S
H1577 C1573 0.930 . S
H1578 C1575 0.929 . S
S1579 N1580 1.613 . S
S1579 N1581 1.610 . S
N1580 S1579 1.613 . S
N1580 C1583 1.350 . S
N1581 S1579 1.610 . S
N1581 C1582 1.351 . S
C1582 C1576 1.428 . S
C1582 N1581 1.351 . S
C1582 C1583 1.434 . S
C1583 C1574 1.429 . S
C1583 N1580 1.350 . S
C1583 C1582 1.434 . S
C1584 C1585 1.369 . S
C1584 C1586 1.419 . S
C1584 H1588 0.930 . S
C1585 C1584 1.369 . S
C1585 C1594 1.429 1_556 S
C1586 C1584 1.419 . S
C1586 C1587 1.363 1_556 S
C1586 H1589 0.929 . S
C1587 C1586 1.363 1_554 S
C1587 C1593 1.428 . S
H1588 C1584 0.930 . S
H1589 C1586 0.929 . S
S1590 N1591 1.613 . S
S1590 N1592 1.610 . S
N1591 S1590 1.613 . S
N1591 C1594 1.350 . S
N1592 S1590 1.610 . S
N1592 C1593 1.351 . S
C1593 C1587 1.428 . S
C1593 N1592 1.351 . S
C1593 C1594 1.434 . S
C1594 C1585 1.429 1_554 S
C1594 N1591 1.350 . S
C1594 C1593 1.434 . S
C1595 C1596 1.369 . S
C1595 C1597 1.419 . S
C1595 H1599 0.930 . S
C1596 C1595 1.369 . S
C1596 C1605 1.429 . S
C1597 C1595 1.419 . S
C1597 C1598 1.363 . S
C1597 H1600 0.929 . S
C1598 C1597 1.363 . S
C1598 C1604 1.428 . S
H1599 C1595 0.930 . S
H1600 C1597 0.929 . S
S1601 N1602 1.613 . S
S1601 N1603 1.610 . S
N1602 S1601 1.613 . S
N1602 C1605 1.350 . S
N1603 S1601 1.610 . S
N1603 C1604 1.351 . S
C1604 C1598 1.428 . S
C1604 N1603 1.351 . S
C1604 C1605 1.434 . S
C1605 C1596 1.429 . S
C1605 N1602 1.350 . S
C1605 C1604 1.434 . S
C1606 C1607 1.369 . S
C1606 C1608 1.419 . S
C1606 H1610 0.930 . S
C1607 C1606 1.369 . S
C1607 C1616 1.429 . S
C1608 C1606 1.419 . S
C1608 C1609 1.363 . S
C1608 H1611 0.929 . S
C1609 C1608 1.363 . S
C1609 C1615 1.428 . S
H1610 C1606 0.930 . S
H1611 C1608 0.929 . S
S1612 N1613 1.613 . S
S1612 N1614 1.610 . S
N1613 S1612 1.613 . S
N1613 C1616 1.350 . S
N1614 S1612 1.610 . S
N1614 C1615 1.351 . S
C1615 C1609 1.428 . S
C1615 N1614 1.351 . S
C1615 C1616 1.434 . S
C1616 C1607 1.429 . S
C1616 N1613 1.350 . S
C1616 C1615 1.434 . S
C1617 C1618 1.369 . S
C1617 C1619 1.419 . S
C1617 H1621 0.930 . S
C1618 C1617 1.369 . S
C1618 C1627 1.429 . S
C1619 C1617 1.419 . S
C1619 C1620 1.363 . S
C1619 H1622 0.929 . S
C1620 C1619 1.363 . S
C1620 C1626 1.428 . S
H1621 C1617 0.930 . S
H1622 C1619 0.929 . S
S1623 N1624 1.613 . S
S1623 N1625 1.610 . S
N1624 S1623 1.613 . S
N1624 C1627 1.350 . S
N1625 S1623 1.610 . S
N1625 C1626 1.351 . S
C1626 C1620 1.428 . S
C1626 N1625 1.351 . S
C1626 C1627 1.434 . S
C1627 C1618 1.429 . S
C1627 N1624 1.350 . S
C1627 C1626 1.434 . S
C1628 C1629 1.369 . S
C1628 C1630 1.419 . S
C1628 H1632 0.930 . S
C1629 C1628 1.369 . S
C1629 C1638 1.429 1_556 S
C1630 C1628 1.419 . S
C1630 C1631 1.363 1_556 S
C1630 H1633 0.929 . S
C1631 C1630 1.363 1_554 S
C1631 C1637 1.428 . S
H1632 C1628 0.930 . S
H1633 C1630 0.929 . S
S1634 N1635 1.613 . S
S1634 N1636 1.610 . S
N1635 S1634 1.613 . S
N1635 C1638 1.350 . S
N1636 S1634 1.610 . S
N1636 C1637 1.351 . S
C1637 C1631 1.428 . S
C1637 N1636 1.351 . S
C1637 C1638 1.434 . S
C1638 C1629 1.429 1_554 S
C1638 N1635 1.350 . S
C1638 C1637 1.434 . S
C1639 C1640 1.369 . S
C1639 C1641 1.419 . S
C1639 H1643 0.930 . S
C1640 C1639 1.369 . S
C1640 C1649 1.429 . S
C1641 C1639 1.419 . S
C1641 C1642 1.363 . S
C1641 H1644 0.929 . S
C1642 C1641 1.363 . S
C1642 C1648 1.428 . S
H1643 C1639 0.930 . S
H1644 C1641 0.929 . S
S1645 N1646 1.613 . S
S1645 N1647 1.610 . S
N1646 S1645 1.613 . S
N1646 C1649 1.350 . S
N1647 S1645 1.610 . S
N1647 C1648 1.351 . S
C1648 C1642 1.428 . S
C1648 N1647 1.351 . S
C1648 C1649 1.434 . S
C1649 C1640 1.429 . S
C1649 N1646 1.350 . S
C1649 C1648 1.434 . S
C1650 C1651 1.369 . S
C1650 C1652 1.419 . S
C1650 H1654 0.930 . S
C1651 C1650 1.369 . S
C1651 C1660 1.429 . S
C1652 C1650 1.419 . S
C1652 C1653 1.363 . S
C1652 H1655 0.929 . S
C1653 C1652 1.363 . S
C1653 C1659 1.428 . S
H1654 C1650 0.930 . S
H1655 C1652 0.929 . S
S1656 N1657 1.613 . S
S1656 N1658 1.610 . S
N1657 S1656 1.613 . S
N1657 C1660 1.350 . S
N1658 S1656 1.610 . S
N1658 C1659 1.351 . S
C1659 C1653 1.428 . S
C1659 N1658 1.351 . S
C1659 C1660 1.434 . S
C1660 C1651 1.429 . S
C1660 N1657 1.350 . S
C1660 C1659 1.434 . S
C1661 C1662 1.369 . S
C1661 C1663 1.419 . S
C1661 H1665 0.930 . S
C1662 C1661 1.369 . S
C1662 C1671 1.429 . S
C1663 C1661 1.419 . S
C1663 C1664 1.363 . S
C1663 H1666 0.929 . S
C1664 C1663 1.363 . S
C1664 C1670 1.428 . S
H1665 C1661 0.930 . S
H1666 C1663 0.929 . S
S1667 N1668 1.613 . S
S1667 N1669 1.610 . S
N1668 S1667 1.613 . S
N1668 C1671 1.350 . S
N1669 S1667 1.610 . S
N1669 C1670 1.351 . S
C1670 C1664 1.428 . S
C1670 N1669 1.351 . S
C1670 C1671 1.434 . S
C1671 C1662 1.429 . S
C1671 N1668 1.350 . S
C1671 C1670 1.434 . S
C1672 C1673 1.369 . S
C1672 C1674 1.419 1_565 S
C1672 H1676 0.930 . S
C1673 C1672 1.369 . S
C1673 C1682 1.429 . S
C1674 C1672 1.419 1_545 S
C1674 C1675 1.363 . S
C1674 H1677 0.929 . S
C1675 C1674 1.363 . S
C1675 C1681 1.428 . S
H1676 C1672 0.930 . S
H1677 C1674 0.929 . S
S1678 N1679 1.613 . S
S1678 N1680 1.610 1_565 S
N1679 S1678 1.613 . S
N1679 C1682 1.350 . S
N1680 S1678 1.610 1_545 S
N1680 C1681 1.351 . S
C1681 C1675 1.428 . S
C1681 N1680 1.351 . S
C1681 C1682 1.434 1_545 S
C1682 C1673 1.429 . S
C1682 N1679 1.350 . S
C1682 C1681 1.434 1_565 S
C1683 C1684 1.369 . S
C1683 C1685 1.419 . S
C1683 H1687 0.930 . S
C1684 C1683 1.369 . S
C1684 C1693 1.429 . S
C1685 C1683 1.419 . S
C1685 C1686 1.363 . S
C1685 H1688 0.929 . S
C1686 C1685 1.363 . S
C1686 C1692 1.428 . S
H1687 C1683 0.930 . S
H1688 C1685 0.929 . S
S1689 N1690 1.613 . S
S1689 N1691 1.610 . S
N1690 S1689 1.613 . S
N1690 C1693 1.350 . S
N1691 S1689 1.610 . S
N1691 C1692 1.351 . S
C1692 C1686 1.428 . S
C1692 N1691 1.351 . S
C1692 C1693 1.434 . S
C1693 C1684 1.429 . S
C1693 N1690 1.350 . S
C1693 C1692 1.434 . S
C1694 C1695 1.369 1_556 S
C1694 C1696 1.419 1_565 S
C1694 H1698 0.930 . S
C1695 C1694 1.369 1_554 S
C1695 C1704 1.429 . S
C1696 C1694 1.419 1_545 S
C1696 C1697 1.363 . S
C1696 H1699 0.929 . S
C1697 C1696 1.363 . S
C1697 C1703 1.428 1_556 S
H1698 C1694 0.930 . S
H1699 C1696 0.929 . S
S1700 N1701 1.613 1_545 S
S1700 N1702 1.610 . S
N1701 S1700 1.613 1_565 S
N1701 C1704 1.350 . S
N1702 S1700 1.610 . S
N1702 C1703 1.351 . S
C1703 C1697 1.428 1_554 S
C1703 N1702 1.351 . S
C1703 C1704 1.434 1_545 S
C1704 C1695 1.429 . S
C1704 N1701 1.350 . S
C1704 C1703 1.434 1_565 S
C1705 C1706 1.369 . S
C1705 C1707 1.419 . S
C1705 H1709 0.930 . S
C1706 C1705 1.369 . S
C1706 C1715 1.429 . S
C1707 C1705 1.419 . S
C1707 C1708 1.363 . S
C1707 H1710 0.929 . S
C1708 C1707 1.363 . S
C1708 C1714 1.428 . S
H1709 C1705 0.930 . S
H1710 C1707 0.929 . S
S1711 N1712 1.613 . S
S1711 N1713 1.610 . S
N1712 S1711 1.613 . S
N1712 C1715 1.350 . S
N1713 S1711 1.610 . S
N1713 C1714 1.351 . S
C1714 C1708 1.428 . S
C1714 N1713 1.351 . S
C1714 C1715 1.434 . S
C1715 C1706 1.429 . S
C1715 N1712 1.350 . S
C1715 C1714 1.434 . S
C1716 C1717 1.369 . S
C1716 C1718 1.419 1_545 S
C1716 H1720 0.930 . S
C1717 C1716 1.369 . S
C1717 C1726 1.429 . S
C1718 C1716 1.419 1_565 S
C1718 C1719 1.363 . S
C1718 H1721 0.929 . S
C1719 C1718 1.363 . S
C1719 C1725 1.428 . S
H1720 C1716 0.930 . S
H1721 C1718 0.929 . S
S1722 N1723 1.613 1_565 S
S1722 N1724 1.610 . S
N1723 S1722 1.613 1_545 S
N1723 C1726 1.350 . S
N1724 S1722 1.610 . S
N1724 C1725 1.351 . S
C1725 C1719 1.428 . S
C1725 N1724 1.351 . S
C1725 C1726 1.434 1_565 S
C1726 C1717 1.429 . S
C1726 N1723 1.350 . S
C1726 C1725 1.434 1_545 S
C1727 C1728 1.369 . S
C1727 C1729 1.419 . S
C1727 H1731 0.930 . S
C1728 C1727 1.369 . S
C1728 C1737 1.429 . S
C1729 C1727 1.419 . S
C1729 C1730 1.363 . S
C1729 H1732 0.929 . S
C1730 C1729 1.363 . S
C1730 C1736 1.428 . S
H1731 C1727 0.930 . S
H1732 C1729 0.929 . S
S1733 N1734 1.613 . S
S1733 N1735 1.610 . S
N1734 S1733 1.613 . S
N1734 C1737 1.350 . S
N1735 S1733 1.610 . S
N1735 C1736 1.351 . S
C1736 C1730 1.428 . S
C1736 N1735 1.351 . S
C1736 C1737 1.434 . S
C1737 C1728 1.429 . S
C1737 N1734 1.350 . S
C1737 C1736 1.434 . S
C1738 C1739 1.369 1_556 S
C1738 C1740 1.419 1_565 S
C1738 H1742 0.930 . S
C1739 C1738 1.369 1_554 S
C1739 C1748 1.429 . S
C1740 C1738 1.419 1_545 S
C1740 C1741 1.363 . S
C1740 H1743 0.929 . S
C1741 C1740 1.363 . S
C1741 C1747 1.428 1_556 S
H1742 C1738 0.930 . S
H1743 C1740 0.929 . S
S1744 N1745 1.613 1_545 S
S1744 N1746 1.610 . S
N1745 S1744 1.613 1_565 S
N1745 C1748 1.350 . S
N1746 S1744 1.610 . S
N1746 C1747 1.351 . S
C1747 C1741 1.428 1_554 S
C1747 N1746 1.351 . S
C1747 C1748 1.434 1_545 S
C1748 C1739 1.429 . S
C1748 N1745 1.350 . S
C1748 C1747 1.434 1_565 S
C1749 C1750 1.369 . S
C1749 C1751 1.419 . S
C1749 H1753 0.930 . S
C1750 C1749 1.369 . S
C1750 C1759 1.429 . S
C1751 C1749 1.419 . S
C1751 C1752 1.363 . S
C1751 H1754 0.929 . S
C1752 C1751 1.363 . S
C1752 C1758 1.428 . S
H1753 C1749 0.930 . S
H1754 C1751 0.929 . S
S1755 N1756 1.613 . S
S1755 N1757 1.610 . S
N1756 S1755 1.613 . S
N1756 C1759 1.350 . S
N1757 S1755 1.610 . S
N1757 C1758 1.351 . S
C1758 C1752 1.428 . S
C1758 N1757 1.351 . S
C1758 C1759 1.434 . S
C1759 C1750 1.429 . S
C1759 N1756 1.350 . S
C1759 C1758 1.434 . S
C1760 C1761 1.369 . S
C1760 C1762 1.419 1_455 S
C1760 H1764 0.930 . S
C1761 C1760 1.369 . S
C1761 C1770 1.429 . S
C1762 C1760 1.419 1_655 S
C1762 C1763 1.363 . S
C1762 H1765 0.929 . S
C1763 C1762 1.363 . S
C1763 C1769 1.428 . S
H1764 C1760 0.930 . S
H1765 C1762 0.929 . S
S1766 N1767 1.619 1_656 S
S1766 N1768 1.605 1_556 S
N1767 S1766 1.619 1_454 S
N1767 C1770 1.350 . S
N1768 S1766 1.605 1_554 S
N1768 C1769 1.351 . S
C1769 C1763 1.428 . S
C1769 N1768 1.351 . S
C1769 C1770 1.434 1_655 S
C1770 C1761 1.429 . S
C1770 N1767 1.350 . S
C1770 C1769 1.434 1_455 S
C1771 C1772 1.369 . S
C1771 C1773 1.419 . S
C1771 H1775 0.930 . S
C1772 C1771 1.369 . S
C1772 C1781 1.429 . S
C1773 C1771 1.419 . S
C1773 C1774 1.363 . S
C1773 H1776 0.929 . S
C1774 C1773 1.363 . S
C1774 C1780 1.428 . S
H1775 C1771 0.930 . S
H1776 C1773 0.929 . S
S1777 N1778 1.613 . S
S1777 N1779 1.610 . S
N1778 S1777 1.613 . S
N1778 C1781 1.350 . S
N1779 S1777 1.610 . S
N1779 C1780 1.351 . S
C1780 C1774 1.428 . S
C1780 N1779 1.351 . S
C1780 C1781 1.434 . S
C1781 C1772 1.429 . S
C1781 N1778 1.350 . S
C1781 C1780 1.434 . S
C1782 C1783 1.369 . S
C1782 C1784 1.419 . S
C1782 H1786 0.930 . S
C1783 C1782 1.369 . S
C1783 C1792 1.429 . S
C1784 C1782 1.419 . S
C1784 C1785 1.363 . S
C1784 H1787 0.929 . S
C1785 C1784 1.363 . S
C1785 C1791 1.428 . S
H1786 C1782 0.930 . S
H1787 C1784 0.929 . S
S1788 N1789 1.613 . S
S1788 N1790 1.610 . S
N1789 S1788 1.613 . S
N1789 C1792 1.350 . S
N1790 S1788 1.610 . S
N1790 C1791 1.351 . S
C1791 C1785 1.428 . S
C1791 N1790 1.351 . S
C1791 C1792 1.434 . S
C1792 C1783 1.429 . S
C1792 N1789 1.350 . S
C1792 C1791 1.434 . S
C1793 C1794 1.369 . S
C1793 C1795 1.419 . S
C1793 H1797 0.930 . S
C1794 C1793 1.369 . S
C1794 C1803 1.429 . S
C1795 C1793 1.419 . S
C1795 C1796 1.363 . S
C1795 H1798 0.929 . S
C1796 C1795 1.363 . S
C1796 C1802 1.428 . S
H1797 C1793 0.930 . S
H1798 C1795 0.929 . S
S1799 N1800 1.613 . S
S1799 N1801 1.610 . S
N1800 S1799 1.613 . S
N1800 C1803 1.350 . S
N1801 S1799 1.610 . S
N1801 C1802 1.351 . S
C1802 C1796 1.428 . S
C1802 N1801 1.351 . S
C1802 C1803 1.434 . S
C1803 C1794 1.429 . S
C1803 N1800 1.350 . S
C1803 C1802 1.434 . S
C1804 C1805 1.369 . S
C1804 C1806 1.419 1_655 S
C1804 H1808 0.930 . S
C1805 C1804 1.369 . S
C1805 C1814 1.429 . S
C1806 C1804 1.419 1_455 S
C1806 C1807 1.363 . S
C1806 H1809 0.929 . S
C1807 C1806 1.363 . S
C1807 C1813 1.428 . S
H1808 C1804 0.930 . S
H1809 C1806 0.929 . S
S1810 N1811 1.619 1_455 S
S1810 N1812 1.605 . S
N1811 S1810 1.619 1_655 S
N1811 C1814 1.350 . S
N1812 S1810 1.605 . S
N1812 C1813 1.351 . S
C1813 C1807 1.428 . S
C1813 N1812 1.351 . S
C1813 C1814 1.434 1_455 S
C1814 C1805 1.429 . S
C1814 N1811 1.350 . S
C1814 C1813 1.434 1_655 S
C1815 C1816 1.369 . S
C1815 C1817 1.419 . S
C1815 H1819 0.930 . S
C1816 C1815 1.369 . S
C1816 C1825 1.429 . S
C1817 C1815 1.419 . S
C1817 C1818 1.363 . S
C1817 H1820 0.929 . S
C1818 C1817 1.363 . S
C1818 C1824 1.428 . S
H1819 C1815 0.930 . S
H1820 C1817 0.929 . S
S1821 N1822 1.613 . S
S1821 N1823 1.610 . S
N1822 S1821 1.613 . S
N1822 C1825 1.350 . S
N1823 S1821 1.610 . S
N1823 C1824 1.351 . S
C1824 C1818 1.428 . S
C1824 N1823 1.351 . S
C1824 C1825 1.434 . S
C1825 C1816 1.429 . S
C1825 N1822 1.350 . S
C1825 C1824 1.434 . S
C1826 C1827 1.369 . S
C1826 C1828 1.419 . S
C1826 H1830 0.930 . S
C1827 C1826 1.369 . S
C1827 C1836 1.429 . S
C1828 C1826 1.419 . S
C1828 C1829 1.363 . S
C1828 H1831 0.929 . S
C1829 C1828 1.363 . S
C1829 C1835 1.428 . S
H1830 C1826 0.930 . S
H1831 C1828 0.929 . S
S1832 N1833 1.613 . S
S1832 N1834 1.610 . S
N1833 S1832 1.613 . S
N1833 C1836 1.350 . S
N1834 S1832 1.610 . S
N1834 C1835 1.351 . S
C1835 C1829 1.428 . S
C1835 N1834 1.351 . S
C1835 C1836 1.434 . S
C1836 C1827 1.429 . S
C1836 N1833 1.350 . S
C1836 C1835 1.434 . S
C1837 C1838 1.369 . S
C1837 C1839 1.419 . S
C1837 H1841 0.930 . S
C1838 C1837 1.369 . S
C1838 C1847 1.429 . S
C1839 C1837 1.419 . S
C1839 C1840 1.363 . S
C1839 H1842 0.929 . S
C1840 C1839 1.363 . S
C1840 C1846 1.428 . S
H1841 C1837 0.930 . S
H1842 C1839 0.929 . S
S1843 N1844 1.613 . S
S1843 N1845 1.610 . S
N1844 S1843 1.613 . S
N1844 C1847 1.350 . S
N1845 S1843 1.610 . S
N1845 C1846 1.351 . S
C1846 C1840 1.428 . S
C1846 N1845 1.351 . S
C1846 C1847 1.434 . S
C1847 C1838 1.429 . S
C1847 N1844 1.350 . S
C1847 C1846 1.434 . S
C1848 C1849 1.369 . S
C1848 C1850 1.419 . S
C1848 H1852 0.930 . S
C1849 C1848 1.369 . S
C1849 C1858 1.429 . S
C1850 C1848 1.419 . S
C1850 C1851 1.363 . S
C1850 H1853 0.929 . S
C1851 C1850 1.363 . S
C1851 C1857 1.428 . S
H1852 C1848 0.930 . S
H1853 C1850 0.929 . S
S1854 N1855 1.613 . S
S1854 N1856 1.610 . S
N1855 S1854 1.613 . S
N1855 C1858 1.350 . S
N1856 S1854 1.610 . S
N1856 C1857 1.351 . S
C1857 C1851 1.428 . S
C1857 N1856 1.351 . S
C1857 C1858 1.434 . S
C1858 C1849 1.429 . S
C1858 N1855 1.350 . S
C1858 C1857 1.434 . S
C1859 C1860 1.369 . S
C1859 C1861 1.419 . S
C1859 H1863 0.930 . S
C1860 C1859 1.369 . S
C1860 C1869 1.429 . S
C1861 C1859 1.419 . S
C1861 C1862 1.363 . S
C1861 H1864 0.929 . S
C1862 C1861 1.363 . S
C1862 C1868 1.428 . S
H1863 C1859 0.930 . S
H1864 C1861 0.929 . S
S1865 N1866 1.613 . S
S1865 N1867 1.610 . S
N1866 S1865 1.613 . S
N1866 C1869 1.350 . S
N1867 S1865 1.610 . S
N1867 C1868 1.351 . S
C1868 C1862 1.428 . S
C1868 N1867 1.351 . S
C1868 C1869 1.434 . S
C1869 C1860 1.429 . S
C1869 N1866 1.350 . S
C1869 C1868 1.434 . S
C1870 C1871 1.369 . S
C1870 C1872 1.419 . S
C1870 H1874 0.930 . S
C1871 C1870 1.369 . S
C1871 C1880 1.429 . S
C1872 C1870 1.419 . S
C1872 C1873 1.363 . S
C1872 H1875 0.929 . S
C1873 C1872 1.363 . S
C1873 C1879 1.428 . S
H1874 C1870 0.930 . S
H1875 C1872 0.929 . S
S1876 N1877 1.613 1_554 S
S1876 N1878 1.610 1_554 S
N1877 S1876 1.613 1_556 S
N1877 C1880 1.350 . S
N1878 S1876 1.610 1_556 S
N1878 C1879 1.351 . S
C1879 C1873 1.428 . S
C1879 N1878 1.351 . S
C1879 C1880 1.434 . S
C1880 C1871 1.429 . S
C1880 N1877 1.350 . S
C1880 C1879 1.434 . S
C1881 C1882 1.369 . S
C1881 C1883 1.419 . S
C1881 H1885 0.930 . S
C1882 C1881 1.369 . S
C1882 C1891 1.429 . S
C1883 C1881 1.419 . S
C1883 C1884 1.363 . S
C1883 H1886 0.929 . S
C1884 C1883 1.363 . S
C1884 C1890 1.428 . S
H1885 C1881 0.930 . S
H1886 C1883 0.929 . S
S1887 N1888 1.613 . S
S1887 N1889 1.610 . S
N1888 S1887 1.613 . S
N1888 C1891 1.350 . S
N1889 S1887 1.610 . S
N1889 C1890 1.351 . S
C1890 C1884 1.428 . S
C1890 N1889 1.351 . S
C1890 C1891 1.434 . S
C1891 C1882 1.429 . S
C1891 N1888 1.350 . S
C1891 C1890 1.434 . S
C1892 C1893 1.369 . S
C1892 C1894 1.419 . S
C1892 H1896 0.930 . S
C1893 C1892 1.369 . S
C1893 C1902 1.429 . S
C1894 C1892 1.419 . S
C1894 C1895 1.363 . S
C1894 H1897 0.929 . S
C1895 C1894 1.363 . S
C1895 C1901 1.428 . S
H1896 C1892 0.930 . S
H1897 C1894 0.929 . S
S1898 N1899 1.613 . S
S1898 N1900 1.610 . S
N1899 S1898 1.613 . S
N1899 C1902 1.350 . S
N1900 S1898 1.610 . S
N1900 C1901 1.351 . S
C1901 C1895 1.428 . S
C1901 N1900 1.351 . S
C1901 C1902 1.434 . S
C1902 C1893 1.429 . S
C1902 N1899 1.350 . S
C1902 C1901 1.434 . S
C1903 C1904 1.369 . S
C1903 C1905 1.419 1_455 S
C1903 H1907 0.930 1_554 S
C1904 C1903 1.369 . S
C1904 C1913 1.429 . S
C1905 C1903 1.419 1_655 S
C1905 C1906 1.363 . S
C1905 H1908 0.929 1_554 S
C1906 C1905 1.363 . S
C1906 C1912 1.428 . S
H1907 C1903 0.930 1_556 S
H1908 C1905 0.929 1_556 S
S1909 N1910 1.619 1_655 S
S1909 N1911 1.605 . S
N1910 S1909 1.619 1_455 S
N1910 C1913 1.350 . S
N1911 S1909 1.605 . S
N1911 C1912 1.351 . S
C1912 C1906 1.428 . S
C1912 N1911 1.351 . S
C1912 C1913 1.434 1_655 S
C1913 C1904 1.429 . S
C1913 N1910 1.350 . S
C1913 C1912 1.434 1_455 S
C1914 C1915 1.369 . S
C1914 C1916 1.419 . S
C1914 H1918 0.930 . S
C1915 C1914 1.369 . S
C1915 C1924 1.429 . S
C1916 C1914 1.419 . S
C1916 C1917 1.363 . S
C1916 H1919 0.929 . S
C1917 C1916 1.363 . S
C1917 C1923 1.428 . S
H1918 C1914 0.930 . S
H1919 C1916 0.929 . S
S1920 N1921 1.613 . S
S1920 N1922 1.610 . S
N1921 S1920 1.613 . S
N1921 C1924 1.350 . S
N1922 S1920 1.610 . S
N1922 C1923 1.351 . S
C1923 C1917 1.428 . S
C1923 N1922 1.351 . S
C1923 C1924 1.434 . S
C1924 C1915 1.429 . S
C1924 N1921 1.350 . S
C1924 C1923 1.434 . S
C1925 C1926 1.369 . S
C1925 C1927 1.419 1_455 S
C1925 H1929 0.930 . S
C1926 C1925 1.369 . S
C1926 C1935 1.429 . S
C1927 C1925 1.419 1_655 S
C1927 C1928 1.363 . S
C1927 H1930 0.929 . S
C1928 C1927 1.363 . S
C1928 C1934 1.428 . S
H1929 C1925 0.930 . S
H1930 C1927 0.929 . S
S1931 N1932 1.619 1_655 S
S1931 N1933 1.605 . S
N1932 S1931 1.619 1_455 S
N1932 C1935 1.350 1_554 S
N1933 S1931 1.605 . S
N1933 C1934 1.351 1_554 S
C1934 C1928 1.428 . S
C1934 N1933 1.351 1_556 S
C1934 C1935 1.434 1_655 S
C1935 C1926 1.429 . S
C1935 N1932 1.350 1_556 S
C1935 C1934 1.434 1_455 S
C1057 N14 1.478 . S
C1059 N5 1.491 . S
C1068 N38 1.487 . S
C1070 N47 1.483 1_556 S
C1079 N71 1.484 . S
C1081 N80 1.485 . S
C1090 N104 1.488 . S
C1092 N113 1.482 . S
C1101 N137 1.484 . S
C1103 N146 1.485 . S
C1112 N170 1.486 . S
C1114 N179 1.484 . S
C1123 N212 1.481 . S
C1125 N203 1.489 . S
C1134 N245 1.479 1_554 S
C1136 N236 1.490 . S
C1145 N278 1.485 . S
C1147 N269 1.486 . S
C1156 N311 1.480 1_554 S
C1158 N302 1.489 . S
C1167 N344 1.480 . S
C1169 N335 1.489 . S
C1178 N368 1.491 . S
C1180 N377 1.480 . S
C1189 N410 1.478 . S
C1191 N401 1.490 . S
C1200 N443 1.482 . S
C1202 N434 1.488 . S
C1211 N467 1.484 . S
C1213 N476 1.485 . S
C1222 N509 1.484 1_556 S
C1224 N500 1.487 . S
C1233 N533 1.492 . S
C1235 N542 1.479 . S
C1244 N566 1.492 . S
C1246 N575 1.479 . S
C1255 N599 1.491 . S
C1257 N608 1.480 . S
C1266 N632 1.492 . S
C1268 N641 1.479 1_556 S
C1277 N665 1.484 . S
C1279 N674 1.485 . S
C1288 N698 1.488 . S
C1290 N707 1.482 1_554 S
C1299 N731 1.484 . S
C1301 N740 1.485 . S
C1310 N773 1.478 . S
C1312 N764 1.491 . S
C1321 N797 1.491 . S
C1323 N806 1.480 . S
C1332 N830 1.485 . S
C1334 N839 1.485 . S
C1343 N863 1.491 . S
C1345 N872 1.480 . S
C1354 N905 1.482 1_554 S
C1356 N896 1.487 . S
C1365 N938 1.480 . S
C1367 N929 1.490 . S
C1376 N971 1.479 1_556 S
C1378 N962 1.490 . S
C1387 N995 1.491 . S
C1389 N1004 1.480 . S
C1398 N1037 1.486 . S
C1400 N1028 1.486 . S
C1409 C787 1.099 . S
C1411 C28 1.101 . S
C1420 C688 1.099 . S
C1422 C61 1.100 . S
C1431 C721 1.101 . S
C1433 C94 1.099 . S
C1442 C754 1.100 . S
C1444 C127 1.099 . S
C1453 C589 1.099 . S
C1455 C160 1.101 . S
C1464 C622 1.102 . S
C1466 C193 1.100 . S
C1475 C655 1.099 . S
C1477 C226 1.101 . S
C1486 C556 1.100 . S
C1488 C259 1.101 . S
C1497 C1051 1.099 . S
C1499 C292 1.101 . S
C1508 C952 1.101 . S
C1510 C325 1.099 . S
C1519 C358 1.101 . S
C1521 C985 1.101 . S
C1530 C391 1.101 . S
C1532 C1018 1.101 . S
C1541 C424 1.101 . S
C1543 C853 1.101 . S
C1552 C457 1.099 . S
C1554 C886 1.101 . S
C1563 C490 1.099 . S
C1565 C919 1.100 . S
C1574 C820 1.101 . S
C1576 C523 1.099 . S
C1585 C140 1.453 . S
C1587 C8 1.452 . S
C1596 C41 1.450 . S
C1598 C173 1.450 . S
C1607 C206 1.449 . S
C1609 C74 1.450 . S
C1618 C107 1.454 . S
C1620 C239 1.453 . S
C1629 C272 1.450 . S
C1631 C404 1.450 . S
C1640 C437 1.449 . S
C1642 C305 1.450 . S
C1651 C470 1.449 . S
C1653 C338 1.450 . S
C1662 C503 1.451 . S
C1664 C371 1.452 . S
C1673 C668 1.453 . S
C1675 C536 1.453 . S
C1684 C569 1.453 . S
C1686 C701 1.452 . S
C1695 C602 1.450 . S
C1697 C734 1.451 . S
C1706 C635 1.449 . S
C1708 C767 1.449 . S
C1717 C932 1.451 . S
C1719 C800 1.452 . S
C1728 C965 1.452 . S
C1730 C833 1.452 . S
C1739 C998 1.452 . S
C1741 C866 1.452 . S
C1750 C899 1.448 . S
C1752 C1031 1.450 . S
C1761 C17 1.539 . S
C1763 C413 1.539 . S
C1772 C974 1.536 . S
C1774 C50 1.536 . S
C1783 C83 1.537 . S
C1785 C479 1.537 . S
C1794 C1040 1.537 . S
C1796 C116 1.538 . S
C1805 C281 1.535 . S
C1807 C149 1.536 . S
C1816 C182 1.536 . S
C1818 C842 1.536 . S
C1827 C215 1.535 . S
C1829 C347 1.536 . S
C1838 C248 1.538 . S
C1840 C908 1.538 . S
C1849 C710 1.537 . S
C1851 C314 1.537 . S
C1860 C776 1.535 . S
C1862 C380 1.536 . S
C1871 C578 1.537 . S
C1873 C446 1.538 . S
C1882 C644 1.539 . S
C1884 C512 1.539 . S
C1893 C545 1.538 . S
C1895 C941 1.538 . S
C1904 C1007 1.538 . S
C1906 C611 1.538 . S
C1915 C677 1.536 . S
C1917 C809 1.536 . S
C1926 C875 1.538 . S
C1928 C743 1.538 . S
