# Generated by pormake.
# Topology wll, (5)-cn, num edge types: 1
# Building blocks:
#     Node 0, Type 0, BuildingBlock: BEQFEK_clean_sbu_0, # of connection points: 5
#     Node 1, Type 0, BuildingBlock: BEQFEK_clean_sbu_0, # of connection points: 5
#     Node 2, Type 0, BuildingBlock: BEQFEK_clean_sbu_0, # of connection points: 5
#     Node 3, Type 0, BuildingBlock: BEQFEK_clean_sbu_0, # of connection points: 5
#     Node 4, Type 0, BuildingBlock: BEQFEK_clean_sbu_0, # of connection points: 5
#     Node 5, Type 0, BuildingBlock: BEQFEK_clean_sbu_0, # of connection points: 5
#     Node 6, Type 0, BuildingBlock: BEQFEK_clean_sbu_0, # of connection points: 5
#     Node 7, Type 0, BuildingBlock: BEQFEK_clean_sbu_0, # of connection points: 5
#     Node 8, Type 0, BuildingBlock: BEQFEK_clean_sbu_0, # of connection points: 5
#     Node 9, Type 0, BuildingBlock: BEQFEK_clean_sbu_0, # of connection points: 5
#     Node 10, Type 0, BuildingBlock: BEQFEK_clean_sbu_0, # of connection points: 5
#     Node 11, Type 0, BuildingBlock: BEQFEK_clean_sbu_0, # of connection points: 5
#     Node 12, Type 0, BuildingBlock: BEQFEK_clean_sbu_0, # of connection points: 5
#     Node 13, Type 0, BuildingBlock: BEQFEK_clean_sbu_0, # of connection points: 5
#     Node 14, Type 0, BuildingBlock: BEQFEK_clean_sbu_0, # of connection points: 5
#     Node 15, Type 0, BuildingBlock: BEQFEK_clean_sbu_0, # of connection points: 5
#     Node 16, Type 0, BuildingBlock: BEQFEK_clean_sbu_0, # of connection points: 5
#     Node 17, Type 0, BuildingBlock: BEQFEK_clean_sbu_0, # of connection points: 5
#     Edge 18, Type (0, 0), BuildingBlock: AJUNOK_clean_linker_0, # of connection points: 2
#     Edge 19, Type (0, 0), BuildingBlock: AJUNOK_clean_linker_0, # of connection points: 2
#     Edge 20, Type (0, 0), BuildingBlock: AJUNOK_clean_linker_0, # of connection points: 2
#     Edge 21, Type (0, 0), BuildingBlock: AJUNOK_clean_linker_0, # of connection points: 2
#     Edge 22, Type (0, 0), BuildingBlock: AJUNOK_clean_linker_0, # of connection points: 2
#     Edge 23, Type (0, 0), BuildingBlock: AJUNOK_clean_linker_0, # of connection points: 2
#     Edge 24, Type (0, 0), BuildingBlock: AJUNOK_clean_linker_0, # of connection points: 2
#     Edge 25, Type (0, 0), BuildingBlock: AJUNOK_clean_linker_0, # of connection points: 2
#     Edge 26, Type (0, 0), BuildingBlock: AJUNOK_clean_linker_0, # of connection points: 2
#     Edge 27, Type (0, 0), BuildingBlock: AJUNOK_clean_linker_0, # of connection points: 2
#     Edge 28, Type (0, 0), BuildingBlock: AJUNOK_clean_linker_0, # of connection points: 2
#     Edge 29, Type (0, 0), BuildingBlock: AJUNOK_clean_linker_0, # of connection points: 2
#     Edge 30, Type (0, 0), BuildingBlock: AJUNOK_clean_linker_0, # of connection points: 2
#     Edge 31, Type (0, 0), BuildingBlock: AJUNOK_clean_linker_0, # of connection points: 2
#     Edge 32, Type (0, 0), BuildingBlock: AJUNOK_clean_linker_0, # of connection points: 2
#     Edge 33, Type (0, 0), BuildingBlock: AJUNOK_clean_linker_0, # of connection points: 2
#     Edge 34, Type (0, 0), BuildingBlock: AJUNOK_clean_linker_0, # of connection points: 2
#     Edge 35, Type (0, 0), BuildingBlock: AJUNOK_clean_linker_0, # of connection points: 2
#     Edge 36, Type (0, 0), BuildingBlock: AJUNOK_clean_linker_0, # of connection points: 2
#     Edge 37, Type (0, 0), BuildingBlock: AJUNOK_clean_linker_0, # of connection points: 2
#     Edge 38, Type (0, 0), BuildingBlock: AJUNOK_clean_linker_0, # of connection points: 2
#     Edge 39, Type (0, 0), BuildingBlock: AJUNOK_clean_linker_0, # of connection points: 2
#     Edge 40, Type (0, 0), BuildingBlock: AJUNOK_clean_linker_0, # of connection points: 2
#     Edge 41, Type (0, 0), BuildingBlock: AJUNOK_clean_linker_0, # of connection points: 2
#     Edge 42, Type (0, 0), BuildingBlock: AJUNOK_clean_linker_0, # of connection points: 2
#     Edge 43, Type (0, 0), BuildingBlock: AJUNOK_clean_linker_0, # of connection points: 2
#     Edge 44, Type (0, 0), BuildingBlock: AJUNOK_clean_linker_0, # of connection points: 2
#     Edge 45, Type (0, 0), BuildingBlock: AJUNOK_clean_linker_0, # of connection points: 2
#     Edge 46, Type (0, 0), BuildingBlock: AJUNOK_clean_linker_0, # of connection points: 2
#     Edge 47, Type (0, 0), BuildingBlock: AJUNOK_clean_linker_0, # of connection points: 2
#     Edge 48, Type (0, 0), BuildingBlock: AJUNOK_clean_linker_0, # of connection points: 2
#     Edge 49, Type (0, 0), BuildingBlock: AJUNOK_clean_linker_0, # of connection points: 2
#     Edge 50, Type (0, 0), BuildingBlock: AJUNOK_clean_linker_0, # of connection points: 2
#     Edge 51, Type (0, 0), BuildingBlock: AJUNOK_clean_linker_0, # of connection points: 2
#     Edge 52, Type (0, 0), BuildingBlock: AJUNOK_clean_linker_0, # of connection points: 2
#     Edge 53, Type (0, 0), BuildingBlock: AJUNOK_clean_linker_0, # of connection points: 2
#     Edge 54, Type (0, 0), BuildingBlock: AJUNOK_clean_linker_0, # of connection points: 2
#     Edge 55, Type (0, 0), BuildingBlock: AJUNOK_clean_linker_0, # of connection points: 2
#     Edge 56, Type (0, 0), BuildingBlock: AJUNOK_clean_linker_0, # of connection points: 2
#     Edge 57, Type (0, 0), BuildingBlock: AJUNOK_clean_linker_0, # of connection points: 2
#     Edge 58, Type (0, 0), BuildingBlock: AJUNOK_clean_linker_0, # of connection points: 2
#     Edge 59, Type (0, 0), BuildingBlock: AJUNOK_clean_linker_0, # of connection points: 2
#     Edge 60, Type (0, 0), BuildingBlock: AJUNOK_clean_linker_0, # of connection points: 2
#     Edge 61, Type (0, 0), BuildingBlock: AJUNOK_clean_linker_0, # of connection points: 2
#     Edge 62, Type (0, 0), BuildingBlock: AJUNOK_clean_linker_0, # of connection points: 2
# Relax obj value: 0.210
# Max RMSD: 0.164
# Mean RMSD: 0.162
data_MOF--net-wll--node1-BEQFEK_clean_sbu_0--edge1-AJUNOK_clean_linker_0
_symmetry_space_group_name_H-M    P1
_symmetry_Int_Tables_number       1
_symmetry_cell_setting            triclinic
loop_
_symmetry_equiv_pos_as_xyz
'x, y, z'
_cell_length_a     30.51766
_cell_length_b     30.570067
_cell_length_c     51.331543
_cell_angle_alpha  90.000353
_cell_angle_beta   89.998845
_cell_angle_gamma 120.01668
loop_
_atom_site_label
_atom_site_type_symbol
_atom_site_fract_x
_atom_site_fract_y
_atom_site_fract_z
_atom_type_partial_charge
Co0 Co 0.3014 0.32473 0.13866 0.0
Co1 Co 0.35922 0.30343 0.09406 0.0
C2 C 0.3284 0.24378 0.14428 0.0
O3 O 0.30732 0.26773 0.15286 0.0
O4 O 0.3488 0.25341 0.12181 0.0
C5 C 0.22768 0.30492 0.17867 0.0
O6 O 0.22753 0.26206 0.18071 0.0
C7 C 0.35523 0.23895 0.05129 0.0
C8 C 0.42565 0.28693 0.02948 0.0
C9 C 0.38206 0.23985 0.02926 0.0
N10 N 0.38124 0.28353 0.06366 0.0
N11 N 0.42351 0.31201 0.05062 0.0
C12 C 0.30609 0.19607 0.06091 0.0
H13 H 0.30196 0.19937 0.08214 0.0
H14 H 0.27426 0.19704 0.05106 0.0
H15 H 0.30354 0.15932 0.05648 0.0
C16 C 0.23823 0.32021 0.094 0.0
N17 N 0.27458 0.31283 0.10444 0.0
N18 N 0.30001 0.30642 0.08557 0.0
C19 C 0.2814 0.31094 0.06248 0.0
C20 C 0.24124 0.31905 0.06709 0.0
C21 C 0.20608 0.33509 0.10935 0.0
H22 H 0.18565 0.30654 0.12474 0.0
H23 H 0.17826 0.33835 0.09677 0.0
H24 H 0.2307 0.37191 0.11901 0.0
O25 O 0.37053 0.38477 0.13851 0.0
O26 O 0.41223 0.3707 0.10704 0.0
H27 H 0.34767 0.33782 0.03857 0.0
H28 H 0.29309 0.33213 0.02166 0.0
C29 C 0.30596 0.31488 0.03664 0.0
H30 H 0.29591 0.27661 0.02984 0.0
H31 H 0.45053 0.34874 0.05594 0.0
O32 O 0.25699 0.33753 0.16216 0.0
C33 C 0.41088 0.39829 0.12537 0.0
Co34 Co 0.68151 0.97712 0.13857 0.0
Co35 Co 0.70094 0.05612 0.0943 0.0
C36 C 0.76137 0.08517 0.14441 0.0
O37 O 0.73828 0.04005 0.15286 0.0
O38 O 0.75098 0.09582 0.12211 0.0
C39 C 0.70053 0.92336 0.17898 0.0
O40 O 0.7426 0.96661 0.18198 0.0
C41 C 0.76564 0.11674 0.0517 0.0
C42 C 0.71845 0.14052 0.0302 0.0
C43 C 0.76529 0.14339 0.02989 0.0
N44 N 0.721 0.09839 0.06406 0.0
N45 N 0.69298 0.11296 0.0512 0.0
C46 C 0.8081 0.10962 0.06114 0.0
H47 H 0.80448 0.10143 0.0823 0.0
H48 H 0.80681 0.07703 0.05094 0.0
H49 H 0.84518 0.14372 0.05698 0.0
C50 C 0.68641 0.91941 0.09371 0.0
N51 N 0.69335 0.96281 0.10429 0.0
N52 N 0.69863 0.99439 0.08552 0.0
C53 C 0.69373 0.97138 0.06237 0.0
C54 C 0.68656 0.92347 0.06681 0.0
C55 C 0.67262 0.87259 0.10898 0.0
H56 H 0.70123 0.88139 0.12445 0.0
H57 H 0.67038 0.84205 0.09636 0.0
H58 H 0.63544 0.85929 0.11853 0.0
O59 O 0.62102 0.98527 0.13864 0.0
O60 O 0.63328 0.04093 0.10742 0.0
H61 H 0.66578 0.01044 0.03901 0.0
H62 H 0.67085 0.96153 0.0218 0.0
C63 C 0.68868 0.99175 0.03669 0.0
H64 H 0.72673 0.01999 0.02951 0.0
H65 H 0.65632 0.10361 0.05656 0.0
O66 O 0.66886 0.91982 0.16181 0.0
C67 C 0.60635 0.01131 0.12573 0.0
Co68 Co 0.02812 0.70298 0.13841 0.0
Co69 Co 0.94922 0.64486 0.09377 0.0
C70 C 0.92026 0.67637 0.14378 0.0
O71 O 0.96526 0.69727 0.15241 0.0
O72 O 0.90954 0.65579 0.12137 0.0
C73 C 0.08175 0.77906 0.17699 0.0
O74 O 0.04017 0.78178 0.17679 0.0
C75 C 0.88931 0.64984 0.05098 0.0
C76 C 0.86639 0.57969 0.02889 0.0
C77 C 0.86376 0.62367 0.02879 0.0
N78 N 0.90736 0.6233 0.0633 0.0
N79 N 0.89322 0.58116 0.05011 0.0
C80 C 0.89547 0.69871 0.06089 0.0
H81 H 0.93444 0.72971 0.05678 0.0
H82 H 0.86801 0.7076 0.05159 0.0
H83 H 0.8902 0.69681 0.0823 0.0
C84 C 0.08704 0.766 0.09386 0.0
N85 N 0.0433 0.72953 0.10421 0.0
N86 N 0.01185 0.70363 0.0853 0.0
C87 C 0.03536 0.72182 0.06225 0.0
C88 C 0.08344 0.76231 0.06693 0.0
C89 C 0.13362 0.79886 0.10942 0.0
H90 H 0.14558 0.77479 0.11985 0.0
H91 H 0.12488 0.81987 0.12419 0.0
H92 H 0.16518 0.82611 0.09691 0.0
O93 O 0.01904 0.63396 0.13837 0.0
O94 O 0.96326 0.5918 0.10695 0.0
H95 H 0.9957 0.65585 0.03826 0.0
H96 H 0.04436 0.71045 0.02128 0.0
C97 C 0.01452 0.69751 0.03641 0.0
H98 H 0.98621 0.70762 0.02983 0.0
H99 H 0.90243 0.55377 0.05539 0.0
O100 O 0.08479 0.74734 0.16214 0.0
C101 C 0.99234 0.59351 0.12533 0.0
Co102 Co 0.70591 0.68175 0.87994 0.0
Co103 Co 0.64669 0.69958 0.92502 0.0
C104 C 0.68091 0.76356 0.87585 0.0
O105 O 0.70297 0.74108 0.86651 0.0
O106 O 0.65868 0.75067 0.89781 0.0
C107 C 0.76795 0.69031 0.83503 0.0
O108 O 0.75404 0.72166 0.82592 0.0
C109 C 0.65154 0.76419 0.96786 0.0
C110 C 0.5802 0.71762 0.98922 0.0
C111 C 0.62451 0.76412 0.98961 0.0
N112 N 0.62495 0.71971 0.95545 0.0
N113 N 0.58215 0.69206 0.96824 0.0
C114 C 0.70137 0.80637 0.9585 0.0
H115 H 0.70658 0.80224 0.93747 0.0
H116 H 0.7325 0.80548 0.96916 0.0
H117 H 0.70409 0.84343 0.96218 0.0
C118 C 0.76812 0.68386 0.92475 0.0
N119 N 0.7315 0.691 0.91445 0.0
N120 N 0.70516 0.69559 0.93345 0.0
C121 C 0.7232 0.68989 0.95644 0.0
C122 C 0.76402 0.68287 0.95169 0.0
C123 C 0.8019 0.67158 0.90908 0.0
H124 H 0.77858 0.63465 0.89925 0.0
H125 H 0.82118 0.70074 0.8938 0.0
H126 H 0.83065 0.66955 0.92145 0.0
O127 O 0.63604 0.62231 0.87907 0.0
O128 O 0.59362 0.63314 0.91137 0.0
H129 H 0.65696 0.66346 0.98032 0.0
H130 H 0.71127 0.66846 0.99725 0.0
C131 C 0.6987 0.68597 0.98229 0.0
H132 H 0.70911 0.7243 0.98917 0.0
H133 H 0.55453 0.65565 0.96279 0.0
O134 O 0.7505 0.6688 0.85684 0.0
C135 C 0.59544 0.60733 0.89224 0.0
Co136 Co 0.32099 0.02469 0.87987 0.0
Co137 Co 0.30491 0.94793 0.9247 0.0
C138 C 0.2398 0.91768 0.87586 0.0
O139 O 0.26174 0.96219 0.86649 0.0
O140 O 0.25329 0.90863 0.89771 0.0
C141 C 0.30956 0.07985 0.83668 0.0
O142 O 0.2722 0.0357 0.8293 0.0
C143 C 0.24156 0.8893 0.96805 0.0
C144 C 0.28799 0.86356 0.98877 0.0
C145 C 0.24215 0.86267 0.98977 0.0
N146 N 0.28544 0.90625 0.95514 0.0
N147 N 0.31301 0.89052 0.96752 0.0
C148 C 0.19931 0.8972 0.95908 0.0
H149 H 0.19708 0.8961 0.93753 0.0
H150 H 0.20686 0.93506 0.96536 0.0
H151 H 0.16252 0.86815 0.96735 0.0
C152 C 0.31924 0.08437 0.92485 0.0
N153 N 0.31211 0.04077 0.91442 0.0
N154 N 0.30858 0.01011 0.93332 0.0
C155 C 0.31495 0.0339 0.95634 0.0
C156 C 0.3211 0.08134 0.95173 0.0
C157 C 0.331 0.1304 0.90935 0.0
H158 H 0.36876 0.14546 0.90019 0.0
H159 H 0.30258 0.12015 0.89361 0.0
H160 H 0.3312 0.16019 0.9218 0.0
O161 O 0.3806 0.01489 0.87869 0.0
O162 O 0.37119 0.96148 0.91062 0.0
H163 H 0.34361 0.99474 0.97912 0.0
H164 H 0.34181 0.04555 0.99623 0.0
C165 C 0.3219 0.01457 0.98192 0.0
H166 H 0.28436 0.98754 0.99012 0.0
H167 H 0.34899 0.89852 0.96162 0.0
O168 O 0.33476 0.08247 0.85692 0.0
C169 C 0.39636 0.98968 0.89151 0.0
Co170 Co 0.97815 0.29712 0.88003 0.0
Co171 Co 0.05764 0.35635 0.92414 0.0
C172 C 0.08512 0.32146 0.87462 0.0
O173 O 0.03996 0.29993 0.86606 0.0
O174 O 0.09612 0.34367 0.89662 0.0
C175 C 0.92316 0.24068 0.83397 0.0
O176 O 0.9674 0.26295 0.82236 0.0
C177 C 0.11786 0.35257 0.96712 0.0
C178 C 0.14268 0.42432 0.98797 0.0
C179 C 0.14474 0.38 0.9888 0.0
N180 N 0.10014 0.37895 0.95435 0.0
N181 N 0.11534 0.422 0.96682 0.0
C182 C 0.11001 0.30251 0.95816 0.0
H183 H 0.10172 0.29736 0.93702 0.0
H184 H 0.07719 0.27175 0.96855 0.0
H185 H 0.14389 0.29923 0.9625 0.0
C186 C 0.91951 0.23632 0.9253 0.0
N187 N 0.96318 0.27223 0.91459 0.0
N188 N 0.99514 0.29836 0.93327 0.0
C189 C 0.97214 0.28078 0.95649 0.0
C190 C 0.92384 0.24047 0.95217 0.0
C191 C 0.87245 0.2032 0.91015 0.0
H192 H 0.88096 0.18301 0.89478 0.0
H193 H 0.84184 0.17525 0.92289 0.0
H194 H 0.85928 0.22702 0.90046 0.0
O195 O 0.98855 0.36673 0.87884 0.0
O196 O 0.0442 0.40927 0.91024 0.0
H197 H 0.96283 0.29473 0.99696 0.0
H198 H 0.02048 0.2954 0.9894 0.0
C199 C 0.99304 0.30619 0.98211 0.0
H200 H 0.01284 0.34779 0.97969 0.0
H201 H 0.10655 0.44947 0.9611 0.0
O202 O 0.92006 0.25165 0.85754 0.0
C203 C 0.01566 0.4075 0.89157 0.0
Co204 Co 0.96814 0.65655 0.47213 0.0
Co205 Co 0.02687 0.63899 0.42665 0.0
C206 C 0.99358 0.57487 0.47565 0.0
O207 O 0.97182 0.59748 0.48517 0.0
O208 O 0.01522 0.58753 0.45354 0.0
C209 C 0.90228 0.64286 0.5159 0.0
O210 O 0.91148 0.60686 0.52275 0.0
C211 C 0.0217 0.57519 0.38338 0.0
C212 C 0.0927 0.62228 0.36179 0.0
C213 C 0.0483 0.57596 0.36134 0.0
N214 N 0.04842 0.61944 0.39596 0.0
N215 N 0.09104 0.64737 0.38306 0.0
C216 C 0.97235 0.53251 0.39294 0.0
H217 H 0.9731 0.52948 0.41441 0.0
H218 H 0.94141 0.54013 0.38803 0.0
H219 H 0.96405 0.49611 0.38399 0.0
C220 C 0.90535 0.65465 0.4277 0.0
N221 N 0.94216 0.64753 0.43776 0.0
N222 N 0.96838 0.64325 0.41859 0.0
C223 C 0.95013 0.64926 0.39574 0.0
C224 C 0.90924 0.65601 0.40075 0.0
C225 C 0.87155 0.66649 0.44364 0.0
H226 H 0.89484 0.70319 0.45368 0.0
H227 H 0.85235 0.63697 0.45876 0.0
H228 H 0.84274 0.66875 0.43143 0.0
O229 O 0.03791 0.71604 0.47296 0.0
O230 O 0.08001 0.70504 0.44055 0.0
H231 H 0.01627 0.6761 0.37172 0.0
H232 H 0.96196 0.67162 0.35505 0.0
C233 C 0.97452 0.65373 0.36979 0.0
H234 H 0.96397 0.61555 0.36264 0.0
H235 H 0.11874 0.68368 0.38863 0.0
O236 O 0.92374 0.66899 0.4957 0.0
C237 C 0.07842 0.7308 0.45975 0.0
Co238 Co 0.35182 0.31266 0.47226 0.0
Co239 Co 0.36915 0.38889 0.42689 0.0
C240 C 0.43416 0.41959 0.47565 0.0
O241 O 0.41155 0.37526 0.48523 0.0
O242 O 0.42119 0.42851 0.45361 0.0
C243 C 0.36209 0.25972 0.51685 0.0
O244 O 0.39517 0.30498 0.52529 0.0
C245 C 0.43191 0.44749 0.38332 0.0
C246 C 0.38372 0.47038 0.36203 0.0
C247 C 0.43027 0.47275 0.36125 0.0
N248 N 0.38792 0.42983 0.39621 0.0
N249 N 0.35933 0.44392 0.3835 0.0
C250 C 0.47512 0.44138 0.39257 0.0
H251 H 0.4787 0.44544 0.41402 0.0
H252 H 0.46759 0.40289 0.38771 0.0
H253 H 0.51127 0.46956 0.38336 0.0
C254 C 0.35248 0.2516 0.42766 0.0
N255 N 0.36009 0.2956 0.43778 0.0
N256 N 0.36429 0.3261 0.41866 0.0
C257 C 0.35776 0.30181 0.39578 0.0
C258 C 0.35071 0.2541 0.40072 0.0
C259 C 0.34046 0.20591 0.44355 0.0
H260 H 0.30382 0.19267 0.45367 0.0
H261 H 0.37014 0.21607 0.45858 0.0
H262 H 0.33782 0.17478 0.4313 0.0
O263 O 0.29266 0.32342 0.47355 0.0
O264 O 0.3036 0.37645 0.44116 0.0
H265 H 0.33068 0.34098 0.37191 0.0
H266 H 0.33544 0.29156 0.35507 0.0
C267 C 0.35322 0.32184 0.3699 0.0
H268 H 0.39144 0.34968 0.3628 0.0
H269 H 0.32302 0.43501 0.38932 0.0
O270 O 0.33902 0.25548 0.49554 0.0
C271 C 0.27804 0.34937 0.46047 0.0
Co272 Co 0.69353 0.03936 0.47198 0.0
Co273 Co 0.61412 0.97926 0.42796 0.0
C274 C 0.58582 0.01249 0.47774 0.0
O275 O 0.63105 0.03434 0.48613 0.0
O276 O 0.57479 0.99085 0.45558 0.0
C277 C 0.74923 0.11315 0.51185 0.0
O278 O 0.70707 0.11437 0.51454 0.0
C279 C 0.55353 0.98212 0.38488 0.0
C280 C 0.53031 0.91083 0.36388 0.0
C281 C 0.52731 0.95463 0.36308 0.0
N282 N 0.57183 0.95629 0.39769 0.0
N283 N 0.55756 0.9135 0.38512 0.0
C284 C 0.56033 0.03176 0.39387 0.0
H285 H 0.59307 0.06294 0.38365 0.0
H286 H 0.52616 0.03441 0.38934 0.0
H287 H 0.56817 0.0368 0.41505 0.0
C288 C 0.75163 0.10089 0.42689 0.0
N289 N 0.70809 0.06475 0.43757 0.0
N290 N 0.67634 0.03814 0.41889 0.0
C291 C 0.69941 0.05573 0.39569 0.0
C292 C 0.74754 0.09642 0.40001 0.0
C293 C 0.79858 0.13409 0.4421 0.0
H294 H 0.812 0.11036 0.45164 0.0
H295 H 0.78982 0.15388 0.45758 0.0
H296 H 0.82911 0.16236 0.42944 0.0
O297 O 0.68475 0.9707 0.47257 0.0
O298 O 0.6286 0.9267 0.44162 0.0
H299 H 0.65983 0.98863 0.37246 0.0
H300 H 0.70866 0.04244 0.35507 0.0
C301 C 0.67863 0.03019 0.37007 0.0
H302 H 0.65034 0.03998 0.36299 0.0
H303 H 0.56699 0.88648 0.39084 0.0
O304 O 0.75107 0.08343 0.49512 0.0
C305 C 0.65835 0.92974 0.45995 0.0
Co306 Co 0.37293 0.01551 0.21303 0.0
Co307 Co 0.31396 0.03319 0.25828 0.0
C308 C 0.34868 0.09802 0.20952 0.0
O309 O 0.37026 0.07521 0.19999 0.0
O310 O 0.32663 0.08516 0.23152 0.0
C311 C 0.44063 0.02868 0.17011 0.0
O312 O 0.43577 0.06773 0.16392 0.0
C313 C 0.31895 0.09626 0.30186 0.0
C314 C 0.2471 0.04941 0.32282 0.0
C315 C 0.29192 0.09532 0.32375 0.0
N316 N 0.29207 0.05247 0.28891 0.0
N317 N 0.24895 0.02468 0.30144 0.0
C318 C 0.36886 0.13872 0.29275 0.0
H319 H 0.39945 0.13114 0.29851 0.0
H320 H 0.37671 0.17525 0.30135 0.0
H321 H 0.36939 0.14142 0.27123 0.0
C322 C 0.43445 0.01583 0.25777 0.0
N323 N 0.39831 0.0238 0.24753 0.0
N324 N 0.37203 0.02837 0.26658 0.0
C325 C 0.38969 0.02192 0.28951 0.0
C326 C 0.43023 0.01455 0.28469 0.0
C327 C 0.46781 0.00304 0.24208 0.0
H328 H 0.44422 0.96583 0.23257 0.0
H329 H 0.48683 0.03174 0.22657 0.0
H330 H 0.49676 1.00132 0.25444 0.0
O331 O 0.30294 0.95664 0.21185 0.0
O332 O 0.26054 0.96758 0.24411 0.0
H333 H 0.32263 0.99456 0.31286 0.0
H334 H 0.37578 0.99689 0.32974 0.0
C335 C 0.36431 0.01623 0.31528 0.0
H336 H 0.3752 0.05409 0.32307 0.0
H337 H 0.22104 0.98872 0.29554 0.0
O338 O 0.41652 1.00175 0.18963 0.0
C339 C 0.26225 0.94203 0.22484 0.0
Co340 Co 0.98906 0.35844 0.21315 0.0
Co341 Co 0.97149 0.28197 0.25844 0.0
C342 C 0.90678 0.25165 0.20958 0.0
O343 O 0.92942 0.29602 0.20007 0.0
O344 O 0.91976 0.24255 0.23156 0.0
C345 C 0.97937 0.4111 0.16826 0.0
O346 O 0.94715 0.36575 0.15958 0.0
C347 C 0.90739 0.2227 0.30154 0.0
C348 C 0.95349 0.19659 0.32223 0.0
C349 C 0.90727 0.19502 0.32298 0.0
N350 N 0.95172 0.24038 0.28895 0.0
N351 N 0.97911 0.22448 0.30135 0.0
C352 C 0.86531 0.23082 0.29253 0.0
H353 H 0.87025 0.24227 0.27178 0.0
H354 H 0.86536 0.26144 0.30412 0.0
H355 H 0.82821 0.19593 0.29537 0.0
C356 C 0.98785 0.41917 0.25779 0.0
N357 N 0.98045 0.37528 0.24763 0.0
N358 N 0.97597 0.34461 0.26672 0.0
C359 C 0.982 0.36865 0.28964 0.0
C360 C 0.98914 0.41642 0.28474 0.0
C361 C 1.00008 0.46497 0.24195 0.0
H362 H 0.97053 0.45493 0.22685 0.0
H363 H 1.00263 0.49604 0.25423 0.0
H364 H 0.03678 0.47823 0.2319 0.0
O365 O 0.04835 0.34789 0.21201 0.0
O366 O 0.0375 0.2948 0.24436 0.0
H367 H 0.00386 0.37854 0.33039 0.0
H368 H 0.94752 0.32071 0.32254 0.0
C369 C 0.98595 0.3483 0.31555 0.0
H370 H 0.00813 0.32876 0.31361 0.0
H371 H 0.0153 0.23281 0.29563 0.0
O372 O 1.00176 0.41553 0.18983 0.0
C373 C 0.06315 0.32211 0.22511 0.0
Co374 Co 0.647 0.63122 0.21256 0.0
Co375 Co 0.72336 0.69007 0.25803 0.0
C376 C 0.75419 0.65629 0.20917 0.0
O377 O 0.70978 0.63456 0.19962 0.0
O378 O 0.76316 0.67807 0.23123 0.0
C379 C 0.59439 0.56664 0.16837 0.0
O380 O 0.63969 0.57711 0.16077 0.0
C381 C 0.78235 0.68596 0.30153 0.0
C382 C 0.80508 0.75678 0.32295 0.0
C383 C 0.80771 0.71282 0.32361 0.0
N384 N 0.7644 0.71212 0.28875 0.0
N385 N 0.77839 0.75463 0.30155 0.0
C386 C 0.77648 0.6369 0.29213 0.0
H387 H 0.78082 0.63772 0.27069 0.0
H388 H 0.73789 0.60577 0.29683 0.0
H389 H 0.80466 0.62897 0.30136 0.0
C390 C 0.58603 0.56898 0.25705 0.0
N391 N 0.63003 0.60559 0.24698 0.0
N392 N 0.66057 0.63181 0.26613 0.0
C393 C 0.63629 0.61374 0.28899 0.0
C394 C 0.58856 0.57301 0.28399 0.0
C395 C 0.5403 0.53527 0.24113 0.0
H396 H 0.55057 0.51598 0.22604 0.0
H397 H 0.50918 0.50659 0.25336 0.0
H398 H 0.52692 0.55855 0.23107 0.0
O399 O 0.65738 0.70089 0.21155 0.0
O400 O 0.71046 0.743 0.24396 0.0
H401 H 0.62589 0.62535 0.32974 0.0
H402 H 0.68425 0.62791 0.32196 0.0
C403 C 0.65627 0.63813 0.31492 0.0
H404 H 0.6753 0.67979 0.313 0.0
H405 H 0.7693 0.7819 0.29583 0.0
O406 O 0.58994 0.58689 0.1891 0.0
C407 C 0.68313 0.74137 0.22472 0.0
Co408 Co 0.63431 0.99027 0.805 0.0
Co409 Co 0.69401 0.97119 0.76062 0.0
C410 C 0.66172 0.91012 0.81069 0.0
O411 O 0.63974 0.93324 0.81918 0.0
O412 O 0.68312 0.9208 0.78845 0.0
C413 C 0.55962 0.97144 0.84452 0.0
O414 O 0.55793 0.92783 0.84677 0.0
C415 C 0.68906 0.90667 0.71766 0.0
C416 C 0.76037 0.95334 0.69624 0.0
C417 C 0.7158 0.90717 0.69571 0.0
N418 N 0.7159 0.95091 0.73025 0.0
N419 N 0.7587 0.97857 0.71745 0.0
C420 C 0.63943 0.86432 0.72711 0.0
H421 H 0.63955 0.86201 0.74865 0.0
H422 H 0.60865 0.87176 0.72155 0.0
H423 H 0.6314 0.82768 0.71857 0.0
C424 C 0.57142 0.98552 0.76026 0.0
N425 N 0.60813 0.97876 0.77073 0.0
N426 N 0.63486 0.97428 0.7519 0.0
C427 C 0.61706 0.97995 0.72881 0.0
C428 C 0.57587 0.9865 0.73336 0.0
C429 C 0.53779 0.99832 0.77573 0.0
H430 H 0.56128 0.03539 0.78538 0.0
H431 H 0.51833 0.96944 0.7911 0.0
H432 H 0.50916 1.00037 0.76327 0.0
O433 O 0.70317 0.05044 0.80501 0.0
O434 O 0.74672 0.03881 0.77363 0.0
H435 H 0.68413 0.00735 0.70547 0.0
H436 H 0.63042 0.0031 0.68825 0.0
C437 C 0.64246 0.98497 0.70312 0.0
H438 H 0.63222 0.94696 0.69586 0.0
H439 H 0.78647 0.01486 0.723 0.0
O440 O 0.59021 0.00365 0.82827 0.0
C441 C 0.74399 0.06543 0.79208 0.0
Co442 Co 0.0129 0.64307 0.80546 0.0
Co443 Co 0.03306 0.72188 0.76087 0.0
C444 C 0.09379 0.75104 0.81085 0.0
O445 O 0.07009 0.70606 0.81949 0.0
O446 O 0.08361 0.76161 0.78847 0.0
C447 C 0.03352 0.58922 0.8451 0.0
O448 O 0.0768 0.63171 0.84673 0.0
C449 C 0.09728 0.78162 0.71786 0.0
C450 C 0.04957 0.80454 0.69614 0.0
C451 C 0.09623 0.80712 0.69573 0.0
N452 N 0.05288 0.76367 0.73041 0.0
N453 N 0.02459 0.7778 0.71744 0.0
C454 C 0.14023 0.77548 0.72749 0.0
H455 H 0.14308 0.77926 0.74897 0.0
H456 H 0.1329 0.73706 0.7226 0.0
H457 H 0.17663 0.8038 0.71856 0.0
C458 C 0.01703 0.58456 0.7607 0.0
N459 N 0.02437 0.62819 0.77118 0.0
N460 N 0.02992 0.65973 0.75233 0.0
C461 C 0.02466 0.63643 0.72923 0.0
C462 C 0.01715 0.58844 0.73379 0.0
C463 C 1.00304 0.53782 0.77607 0.0
H464 H 0.96622 0.52511 0.7859 0.0
H465 H 0.03199 0.54647 0.79133 0.0
H466 H 1.00002 0.50691 0.76347 0.0
O467 O 0.95261 0.65182 0.80551 0.0
O468 O 0.9657 0.70729 0.77406 0.0
H469 H 0.99679 0.67547 0.7058 0.0
H470 H 1.00158 0.62634 0.68868 0.0
C471 C 0.01956 0.65663 0.70352 0.0
H472 H 0.05759 0.68466 0.69629 0.0
H473 H 0.98804 0.76863 0.72293 0.0
O474 O 1.00039 0.586 0.82896 0.0
C475 C 0.93849 0.67822 0.79247 0.0
Co476 Co 0.36002 0.37276 0.80483 0.0
Co477 Co 0.28349 0.31175 0.75982 0.0
C478 C 0.25223 0.34442 0.80905 0.0
O479 O 0.29687 0.36808 0.81829 0.0
O480 O 0.24365 0.32227 0.78712 0.0
C481 C 0.41314 0.43688 0.84919 0.0
O482 O 0.36773 0.42394 0.8578 0.0
C483 C 0.22395 0.31709 0.7172 0.0
C484 C 0.19898 0.24622 0.69542 0.0
C485 C 0.19743 0.29079 0.69526 0.0
N486 N 0.24148 0.29006 0.72946 0.0
N487 N 0.22616 0.2475 0.71646 0.0
C488 C 0.23146 0.36659 0.72695 0.0
H489 H 0.22804 0.36577 0.74844 0.0
H490 H 0.27016 0.39711 0.72191 0.0
H491 H 0.20352 0.37544 0.71822 0.0
C492 C 0.4193 0.43503 0.75996 0.0
N493 N 0.37581 0.39809 0.77033 0.0
N494 N 0.34535 0.37082 0.75139 0.0
C495 C 0.36919 0.3885 0.72839 0.0
C496 C 0.41651 0.43012 0.73306 0.0
C497 C 0.46505 0.46975 0.7756 0.0
H498 H 0.47972 0.44734 0.78543 0.0
H499 H 0.45438 0.48843 0.79086 0.0
H500 H 0.49538 0.49892 0.7632 0.0
O501 O 0.3511 0.30357 0.80566 0.0
O502 O 0.29824 0.25972 0.77342 0.0
H503 H 0.33047 0.3213 0.70516 0.0
H504 H 0.37979 0.3751 0.68796 0.0
C505 C 0.34935 0.36286 0.70271 0.0
H506 H 0.32124 0.37255 0.69525 0.0
H507 H 0.23467 0.21963 0.72177 0.0
O508 O 0.41746 0.41813 0.82787 0.0
C509 C 0.32642 0.26278 0.79257 0.0
Co510 Co 0.0412 0.34909 0.54694 0.0
Co511 Co 0.98108 0.36833 0.59102 0.0
C512 C 0.01412 0.42971 0.54125 0.0
O513 O 0.03587 0.40631 0.53283 0.0
O514 O 0.99262 0.41918 0.56345 0.0
C515 C 0.11586 0.36935 0.50759 0.0
O516 O 0.11695 0.41273 0.50597 0.0
C517 C 0.98429 0.43202 0.63394 0.0
C518 C 0.9127 0.38445 0.65492 0.0
C519 C 0.95675 0.43113 0.65564 0.0
N520 N 0.95825 0.3878 0.62126 0.0
N521 N 0.91529 0.35956 0.63381 0.0
C522 C 0.03414 0.47466 0.62491 0.0
H523 H 0.03951 0.47129 0.60382 0.0
H524 H 0.06525 0.47353 0.63547 0.0
H525 H 0.03668 0.51152 0.62902 0.0
C526 C 0.1029 0.35275 0.59196 0.0
N527 N 0.06659 0.35994 0.58134 0.0
N528 N 0.03987 0.36481 0.60005 0.0
C529 C 0.05744 0.35919 0.62323 0.0
C530 C 0.0983 0.35201 0.61885 0.0
C531 C 0.13641 0.33961 0.57661 0.0
H532 H 0.15704 0.36912 0.56166 0.0
H533 H 0.16406 0.3362 0.58923 0.0
H534 H 0.11275 0.30321 0.56639 0.0
O535 O 0.97234 0.28921 0.54634 0.0
O536 O 0.92843 0.3015 0.57731 0.0
H537 H 0.9906 0.33244 0.64667 0.0
H538 H 0.04462 0.33773 0.66403 0.0
C539 C 0.03228 0.35513 0.64889 0.0
H540 H 0.04235 0.39339 0.65572 0.0
H541 H 0.88805 0.32314 0.62815 0.0
O542 O 0.08582 0.33638 0.52373 0.0
C543 C 0.93132 0.27479 0.55895 0.0
Co544 Co 0.66063 0.69385 0.54637 0.0
Co545 Co 0.63955 0.61515 0.59101 0.0
C546 C 0.57905 0.58639 0.54094 0.0
O547 O 0.60303 0.63133 0.53228 0.0
O548 O 0.58901 0.57576 0.56336 0.0
C549 C 0.64097 0.74914 0.50708 0.0
O550 O 0.59672 0.70761 0.50575 0.0
C551 C 0.57457 0.555 0.63367 0.0
C552 C 0.62245 0.53316 0.65604 0.0
C553 C 0.5755 0.52994 0.65599 0.0
N554 N 0.61933 0.57336 0.62144 0.0
N555 N 0.64771 0.55984 0.63478 0.0
C556 C 0.53152 0.5605 0.62357 0.0
H557 H 0.53943 0.59957 0.62716 0.0
H558 H 0.4953 0.53342 0.63311 0.0
H559 H 0.52784 0.55423 0.60223 0.0
C560 C 0.6571 0.75311 0.59104 0.0
N561 N 0.64955 0.70934 0.58063 0.0
N562 N 0.64365 0.67778 0.59953 0.0
C563 C 0.64891 0.70118 0.6226 0.0
C564 C 0.65692 0.74936 0.61797 0.0
C565 C 0.67128 0.79979 0.57554 0.0
H566 H 0.70794 0.81209 0.56564 0.0
H567 H 0.64224 0.7912 0.56034 0.0
H568 H 0.67477 0.83101 0.58804 0.0
O569 O 0.72032 0.68416 0.54634 0.0
O570 O 0.70651 0.62868 0.57788 0.0
H571 H 0.67501 0.66153 0.64673 0.0
H572 H 0.66825 0.70966 0.6637 0.0
C573 C 0.65187 0.68008 0.64845 0.0
H574 H 0.6133 0.65155 0.65474 0.0
H575 H 0.68453 0.56947 0.62961 0.0
O576 O 0.67406 0.75088 0.52278 0.0
C577 C 0.73389 0.65738 0.55942 0.0
Co578 Co 0.31266 0.96696 0.5471 0.0
Co579 Co 0.38932 0.02544 0.5925 0.0
C580 C 0.42013 0.99284 0.54328 0.0
O581 O 0.37567 0.97121 0.53383 0.0
O582 O 0.42921 0.01425 0.56543 0.0
C583 C 0.26045 0.89805 0.50463 0.0
O584 O 0.30527 0.90401 0.49953 0.0
C585 C 0.44835 0.01971 0.63538 0.0
C586 C 0.4731 0.09062 0.65709 0.0
C587 C 0.47477 0.04612 0.65733 0.0
N588 N 0.43077 0.04664 0.62306 0.0
N589 N 0.44594 0.0892 0.63603 0.0
C590 C 0.4412 0.97033 0.62566 0.0
H591 H 0.44358 0.97068 0.60413 0.0
H592 H 0.40298 0.93947 0.63117 0.0
H593 H 0.46995 0.96225 0.63402 0.0
C594 C 0.25214 0.90401 0.59157 0.0
N595 N 0.29604 0.94074 0.58145 0.0
N596 N 0.3267 0.96687 0.60058 0.0
C597 C 0.3026 0.94865 0.62347 0.0
C598 C 0.25487 0.90785 0.61853 0.0
C599 C 0.20629 0.87038 0.57572 0.0
H600 H 0.19294 0.89374 0.5657 0.0
H601 H 0.21643 0.85106 0.56058 0.0
H602 H 0.17522 0.84175 0.58798 0.0
O603 O 0.32257 0.03657 0.54662 0.0
O604 O 0.37593 0.07848 0.57898 0.0
H605 H 0.34201 0.01476 0.64742 0.0
H606 H 0.29221 0.96062 0.66416 0.0
C607 C 0.32264 0.97308 0.64939 0.0
H608 H 0.35034 0.96256 0.65652 0.0
H609 H 0.43745 0.11705 0.63064 0.0
O610 O 0.25578 0.92248 0.52347 0.0
C611 C 0.34824 0.07692 0.55993 0.0
C612 C 0.31721 0.17338 0.99978 0.0
C613 C 0.36739 0.20024 1.00902 0.0
C614 C 0.30256 0.13531 0.98092 0.0
C615 C 0.33763 0.12304 0.97064 0.0
H616 H 0.28911 0.18215 1.00687 0.0
H617 H 0.26353 0.11512 0.97446 0.0
S618 S 0.4737 0.18314 0.98712 0.0
N619 N 0.45238 0.21271 1.00562 0.0
N620 N 0.42461 0.14125 0.97009 0.0
C621 C 0.38799 0.15019 0.97915 0.0
C622 C 0.40298 0.18894 0.9983 0.0
C623 C 0.83121 0.14459 1.00012 0.0
C624 C 0.80518 0.16843 0.00977 0.0
C625 C 0.86937 0.16794 0.98127 0.0
C626 C 0.88262 0.21578 0.97143 0.0
H627 H 0.82162 0.10731 1.00685 0.0
H628 H 0.88875 0.14859 0.97442 0.0
S629 S 0.82516 0.29342 0.98918 0.0
N630 N 0.79469 0.24209 1.00729 0.0
N631 N 0.86638 0.28574 0.9718 0.0
C632 C 0.85644 0.23963 0.98041 0.0
C633 C 0.81756 0.21591 0.99954 0.0
C634 C 0.78913 0.60596 1.00128 0.0
C635 C 0.83958 0.63908 1.00858 0.0
C636 C 0.76489 0.62032 0.98273 0.0
C637 C 0.79058 0.66797 0.97068 0.0
H638 H 0.768 0.56911 0.01032 0.0
H639 H 0.72575 0.59413 0.97784 0.0
S640 S 0.92422 0.76642 0.98106 0.0
N641 N 0.91534 0.72022 1.00096 0.0
N642 N 0.86956 0.74703 0.96614 0.0
C643 C 0.84135 0.70072 0.97716 0.0
C644 C 0.86594 0.68633 0.99614 0.0
C645 C 0.70424 0.8681 0.03818 0.0
C646 C 0.66987 0.88201 0.04771 0.0
C647 C 0.68928 0.82973 0.01947 0.0
C648 C 0.63948 0.80413 0.00965 0.0
H649 H 0.74292 0.88714 0.04517 0.0
H650 H 0.7168 0.81966 0.01298 0.0
S651 S 0.53494 0.82574 0.02946 0.0
N652 N 0.58388 0.86673 0.0469 0.0
N653 N 0.55557 0.79469 0.01166 0.0
C654 C 0.60457 0.81713 0.01959 0.0
C655 C 0.61987 0.85621 0.03857 0.0
C656 C 0.1845 0.78745 0.01663 0.0
C657 C 0.20281 0.83834 0.01008 0.0
C658 C 0.14585 0.76302 0.03514 0.0
C659 C 0.12476 0.78891 0.04786 0.0
H660 H 0.19946 0.76614 1.00701 0.0
H661 H 0.13219 0.72358 0.03949 0.0
S662 S 0.16286 0.9236 0.03964 0.0
N663 N 0.19948 0.91469 0.01919 0.0
N664 N 0.12667 0.8685 0.05388 0.0
C665 C 0.1438 0.84008 0.04214 0.0
C666 C 0.18289 0.8649 0.02323 0.0
C667 C 0.16832 0.30109 0.03821 0.0
C668 C 0.21639 0.3356 0.04794 0.0
C669 C 0.14514 0.31575 0.01919 0.0
C670 C 0.16944 0.36537 1.00922 0.0
H671 H 0.14869 0.26251 0.04525 0.0
H672 H 0.1077 0.28812 0.01254 0.0
S673 S 0.29518 0.47011 0.02939 0.0
N674 N 0.28702 0.42149 0.04712 0.0
N675 N 0.24376 0.44924 0.0113 0.0
C676 C 0.21713 0.40042 0.01936 0.0
C677 C 0.24064 0.38542 0.03868 0.0
C678 C 0.06604 0.51874 0.33421 0.0
C679 C 0.03308 0.53645 0.34113 0.0
C680 C 0.05163 0.47991 0.31582 0.0
C681 C 0.00409 0.45807 0.30359 0.0
H682 H 0.10276 0.5343 0.34345 0.0
H683 H 0.07769 0.46668 0.31121 0.0
S684 S 0.90616 0.49426 0.31296 0.0
N685 N 0.9523 0.53162 0.33293 0.0
N686 N 0.92535 0.45853 0.29845 0.0
C687 C 0.97153 0.47648 0.30968 0.0
C688 C 0.98598 0.51573 0.32848 0.0
C689 C 0.52478 0.57163 0.31499 0.0
C690 C 0.54682 0.54615 0.30278 0.0
C691 C 0.4863 0.54725 0.33358 0.0
C692 C 0.46917 0.49686 0.34073 0.0
H693 H 0.5377 0.61077 0.31025 0.0
H694 H 0.47065 0.56827 0.34284 0.0
S695 S 0.51186 0.41266 0.31263 0.0
N696 N 0.54703 0.46738 0.29785 0.0
N697 N 0.47452 0.42127 0.3327 0.0
C698 C 0.48996 0.47063 0.32805 0.0
C699 C 0.52887 0.49539 0.30905 0.0
C700 C 0.52668 0.01847 0.33251 0.0
C701 C 0.50259 0.9689 0.34252 0.0
C702 C 0.50344 0.03283 0.31338 0.0
C703 C 0.4555 0.99806 0.30361 0.0
H704 H 0.56397 0.04632 0.33926 0.0
H705 H 0.52283 0.07144 0.30638 0.0
S706 S 0.37731 0.86353 0.32224 0.0
N707 N 0.42867 0.88476 0.34041 0.0
N708 N 0.38525 0.91196 0.30442 0.0
C709 C 0.4315 0.94826 0.31289 0.0
C710 C 0.4551 0.93356 0.3323 0.0
C711 C 0.2883 0.19081 0.36954 0.0
C712 C 0.33569 0.21239 0.38191 0.0
C713 C 0.27402 0.15221 0.35103 0.0
C714 C 0.30694 0.13444 0.34415 0.0
H715 H 0.2623 0.20415 0.37409 0.0
H716 H 0.23745 0.13693 0.34165 0.0
S717 S 0.43333 0.17574 0.37279 0.0
N718 N 0.41418 0.21151 0.38727 0.0
N719 N 0.38739 0.13871 0.35264 0.0
C720 C 0.35382 0.15478 0.357 0.0
C721 C 0.36817 0.19384 0.37589 0.0
C722 C 0.84281 0.19428 0.35364 0.0
C723 C 0.86712 0.16955 0.34292 0.0
C724 C 0.80436 0.17053 0.37232 0.0
C725 C 0.78894 0.12132 0.38083 0.0
H726 H 0.85403 0.23252 0.3479 0.0
H727 H 0.78641 0.19065 0.38007 0.0
S728 S 0.84144 0.04091 0.35985 0.0
N729 N 0.87375 0.09355 0.34292 0.0
N730 N 0.80148 0.04912 0.37806 0.0
C731 C 0.81341 0.09653 0.37073 0.0
C732 C 0.85264 0.12068 0.35182 0.0
C733 C 0.9073 0.71802 0.36973 0.0
C734 C 0.88209 0.67052 0.38195 0.0
C735 C 0.88262 0.7318 0.35116 0.0
C736 C 0.83219 0.69824 0.34403 0.0
H737 H 0.94646 0.74449 0.37445 0.0
H738 H 0.90345 0.76849 0.34192 0.0
S739 S 0.74859 0.57119 0.37213 0.0
N740 N 0.8035 0.59119 0.38688 0.0
N741 N 0.75685 0.61697 0.35207 0.0
C742 C 0.80623 0.65121 0.3567 0.0
C743 C 0.83128 0.63738 0.37568 0.0
C744 C 0.71897 0.81156 0.64973 0.0
C745 C 0.67179 0.79052 0.63716 0.0
C746 C 0.73324 0.84986 0.66843 0.0
C747 C 0.70047 0.8678 0.67538 0.0
H748 H 0.74486 0.79812 0.64512 0.0
H749 H 0.76972 0.86487 0.67787 0.0
S750 S 0.57453 0.82763 0.64646 0.0
N751 N 0.59364 0.79202 0.63176 0.0
N752 N 0.62025 0.86399 0.66688 0.0
C753 C 0.65371 0.84782 0.66244 0.0
C754 C 0.63944 0.80916 0.64329 0.0
C755 C 0.19079 0.90617 0.64947 0.0
C756 C 0.21323 0.88093 0.6374 0.0
C757 C 0.15231 0.88169 0.66806 0.0
C758 C 0.13558 0.83146 0.6754 0.0
H759 H 0.20335 0.94517 0.64459 0.0
H760 H 0.13628 0.90251 0.67715 0.0
S761 S 0.17951 0.7479 0.64775 0.0
N762 N 0.21429 0.80254 0.63282 0.0
N763 N 0.14187 0.75629 0.6677 0.0
C764 C 0.15686 0.8055 0.6629 0.0
C765 C 0.19574 0.83034 0.64388 0.0
C766 C 0.09814 0.28941 0.65026 0.0
C767 C 0.12436 0.33683 0.63801 0.0
C768 C 0.12232 0.27443 0.66853 0.0
C769 C 0.17326 0.30665 0.67529 0.0
H770 H 0.05871 0.26381 0.64567 0.0
H771 H 0.1008 0.23779 0.67775 0.0
S772 S 0.25926 0.43297 0.64704 0.0
N773 N 0.20427 0.41468 0.63273 0.0
N774 N 0.24994 0.38665 0.66697 0.0
C775 C 0.2001 0.35366 0.66266 0.0
C776 C 0.17555 0.36871 0.644 0.0
C777 C 0.0207 0.49554 0.68622 0.0
C778 C 0.97119 0.47042 0.67601 0.0
C779 C 0.03521 0.5333 0.70524 0.0
C780 C 1.00067 0.54705 0.71468 0.0
H781 H 0.04834 0.4856 0.67974 0.0
H782 H 0.07372 0.5521 0.71247 0.0
S783 S 0.8664 0.49194 0.69536 0.0
N784 N 0.88737 0.46124 0.67752 0.0
N785 N 0.91484 0.5322 0.71332 0.0
C786 C 0.95094 0.52169 0.70516 0.0
C787 C 0.93609 0.48322 0.68586 0.0
C788 C 0.48094 0.43156 0.70248 0.0
C789 C 0.45805 0.45675 0.71411 0.0
C790 C 0.51952 0.45582 0.68392 0.0
C791 C 0.53593 0.50579 0.67622 0.0
H792 H 0.46869 0.39277 0.70769 0.0
H793 H 0.53593 0.43505 0.67518 0.0
S794 S 0.49078 0.58921 0.70269 0.0
N795 N 0.45618 0.53485 0.71789 0.0
N796 N 0.52888 0.58075 0.68312 0.0
C797 C 0.5142 0.53173 0.68829 0.0
C798 C 0.47518 0.5071 0.70725 0.0
C799 C 0.57486 0.04887 0.70221 0.0
C800 C 0.54927 1.0013 0.71434 0.0
C801 C 0.55021 0.06344 0.68403 0.0
C802 C 0.49939 0.03065 0.67724 0.0
H803 H 0.61419 0.0749 0.70681 0.0
H804 H 0.57127 0.10019 0.67487 0.0
S805 S 0.41485 0.90378 0.70529 0.0
N806 N 0.47003 0.92272 0.71954 0.0
N807 N 0.42341 0.95002 0.6855 0.0
C808 C 0.47314 0.98351 0.68978 0.0
C809 C 0.49818 0.96887 0.70835 0.0
C810 C 0.45612 0.47425 0.15409 0.0
C811 C 0.45796 0.44492 0.1334 0.0
C812 C 0.50023 0.51458 0.16451 0.0
C813 C 0.54833 0.52755 0.15475 0.0
H814 H 0.42036 0.4652 0.16296 0.0
H815 H 0.49645 0.53476 0.1809 0.0
S816 S 0.57416 0.46638 0.0989 0.0
N817 N 0.51203 0.43436 0.10216 0.0
N818 N 0.59497 0.51023 0.12175 0.0
C819 C 0.55076 0.50028 0.1332 0.0
C820 C 0.50565 0.45904 0.12253 0.0
C821 C 0.55166 0.05095 0.1274 0.0
C822 C 0.55948 0.01074 0.13415 0.0
C823 C 0.51189 0.05532 0.13831 0.0
C824 C 0.47822 0.01961 0.15637 0.0
H825 H 0.57774 0.0806 0.11448 0.0
H826 H 0.50879 0.08805 0.13323 0.0
S827 S 0.4776 0.90308 0.17755 0.0
N828 N 0.52681 0.93152 0.15789 0.0
N829 N 0.45216 0.93965 0.17828 0.0
C830 C 0.48371 0.97753 0.16203 0.0
C831 C 0.52427 0.97312 0.15096 0.0
C832 C 0.01911 0.50496 0.16525 0.0
C833 C 0.98589 0.45702 0.15475 0.0
C834 C 0.02233 0.54878 0.15487 0.0
C835 C 0.99244 0.54682 0.13349 0.0
H836 H 0.04202 0.50881 0.18215 0.0
H837 H 0.04757 0.58437 0.16431 0.0
S838 S 0.90306 0.43113 0.09698 0.0
N839 N 0.92523 0.4105 0.12037 0.0
N840 N 0.93123 0.49295 0.10085 0.0
C841 C 0.96082 0.49937 0.12193 0.0
C842 C 0.95756 0.45454 0.13255 0.0
C843 C 0.50711 0.49299 0.85148 0.0
C844 C 0.45916 0.47688 0.86247 0.0
C845 C 0.55086 0.5339 0.86184 0.0
C846 C 0.54882 0.56069 0.8837 0.0
H847 H 0.51099 0.47475 0.83426 0.0
H848 H 0.58645 0.54528 0.85208 0.0
S849 S 0.43317 0.53078 0.92143 0.0
N850 N 0.41265 0.48873 0.89769 0.0
N851 N 0.4949 0.56564 0.91718 0.0
C852 C 0.50139 0.5436 0.89565 0.0
C853 C 0.45665 0.50177 0.88504 0.0
C854 C 0.48855 0.94403 0.87644 0.0
C855 C 0.5225 0.9805 0.85875 0.0
C856 C 0.44946 0.94862 0.88803 0.0
C857 C 0.44244 0.98969 0.88226 0.0
H858 H 0.49116 0.91076 0.88085 0.0
H859 H 0.42325 0.91855 0.90072 0.0
S860 S 0.52456 0.09885 0.83981 0.0
N861 N 0.54927 0.0617 0.83802 0.0
N862 N 0.47563 0.07004 0.85961 0.0
C863 C 0.47768 0.02782 0.8657 0.0
C864 C 0.51772 0.02333 0.85402 0.0
C865 C 0.98819 0.49554 0.8515 0.0
C866 C 0.02585 0.54388 0.85958 0.0
C867 C 0.98391 0.45183 0.86275 0.0
C868 C 0.0169 0.45448 0.8827 0.0
H869 H 0.9629 0.49123 0.83565 0.0
H870 H 0.9553 0.41564 0.85512 0.0
S871 S 0.11802 0.57223 0.91318 0.0
N872 N 0.09384 0.59203 0.8904 0.0
N873 N 0.08579 0.50996 0.91164 0.0
C874 C 0.05293 0.50268 0.892 0.0
C875 C 0.05744 0.54728 0.88041 0.0
C876 C 0.1664 0.84672 0.49958 0.0
C877 C 0.21486 0.85911 0.49066 0.0
C878 C 0.12265 0.80652 0.48876 0.0
C879 C 0.12529 0.77693 0.46844 0.0
H880 H 0.16203 0.86719 0.51565 0.0
H881 H 0.08647 0.79788 0.49694 0.0
S882 S 0.24291 0.79682 0.43619 0.0
N883 N 0.26282 0.84088 0.4589 0.0
N884 N 0.18063 0.76535 0.43853 0.0
C885 C 0.17344 0.79044 0.45843 0.0
C886 C 0.21813 0.83142 0.46955 0.0
C887 C 0.16372 0.32355 0.5012 0.0
C888 C 0.15313 0.36121 0.49304 0.0
C889 C 0.20276 0.31874 0.48979 0.0
C890 C 0.23269 0.35113 0.46958 0.0
H891 H 0.14299 0.29869 0.51722 0.0
H892 H 0.21035 0.29017 0.49746 0.0
S893 S 0.2161 0.45204 0.4389 0.0
N894 N 0.17261 0.42859 0.46195 0.0
N895 N 0.24588 0.41952 0.44038 0.0
C896 C 0.22059 0.38715 0.46022 0.0
C897 C 0.18094 0.39224 0.472 0.0
C898 C 0.61669 0.83566 0.46384 0.0
C899 C 0.65863 0.88367 0.46882 0.0
C900 C 0.6123 0.79219 0.47553 0.0
C901 C 0.64982 0.79488 0.49253 0.0
H902 H 0.58579 0.83175 0.45179 0.0
H903 H 0.57834 0.7564 0.47179 0.0
S904 S 0.77063 0.91085 0.50908 0.0
N905 N 0.74091 0.93079 0.48983 0.0
N906 N 0.73285 0.84922 0.51164 0.0
C907 C 0.69348 0.8423 0.49637 0.0
C908 C 0.69781 0.88661 0.48458 0.0
C909 C 0.17508 0.82594 0.18498 0.0
C910 C 0.12654 0.81652 0.19189 0.0
C911 C 0.21854 0.86524 0.19655 0.0
C912 C 0.21533 0.89656 0.2157 0.0
H913 H 0.17982 0.8041 0.16976 0.0
H914 H 0.25503 0.87189 0.18985 0.0
S915 S 0.0966 0.88367 0.24293 0.0
N916 N 0.07741 0.83879 0.2207 0.0
N917 N 0.15901 0.91254 0.24256 0.0
C918 C 0.16682 0.8857 0.22385 0.0
C919 C 0.1225 0.84581 0.21189 0.0
C920 C 0.13852 0.35329 0.19576 0.0
C921 C 0.10902 0.32109 0.21614 0.0
C922 C 0.17818 0.34923 0.18454 0.0
C923 C 0.18989 0.31257 0.19309 0.0
H924 H 0.13013 0.3811 0.18779 0.0
H925 H 0.1985 0.37387 0.16838 0.0
S926 S 0.12851 0.22283 0.24784 0.0
N927 N 0.0975 0.25409 0.24592 0.0
N928 N 0.17191 0.24643 0.22475 0.0
C929 C 0.16252 0.2818 0.21431 0.0
C930 C 0.12222 0.28611 0.22587 0.0
C931 C 0.65259 0.78574 0.19521 0.0
C932 C 0.68414 0.78822 0.21588 0.0
C933 C 0.65673 0.82952 0.18416 0.0
C934 C 0.69283 0.87777 0.19318 0.0
H935 H 0.62524 0.74969 0.18689 0.0
H936 H 0.63259 0.82538 0.16777 0.0
S937 S 0.78065 0.90543 0.24884 0.0
N938 N 0.74984 0.84325 0.24645 0.0
N939 N 0.75765 0.92549 0.22558 0.0
C940 C 0.7229 0.88091 0.21468 0.0
C941 C 0.71852 0.83622 0.22607 0.0
C942 C 0.78708 0.13866 0.82261 0.0
C943 C 0.7897 0.11319 0.8003 0.0
C944 C 0.83007 0.18069 0.83271 0.0
C945 C 0.87776 0.19954 0.82093 0.0
H946 H 0.75171 0.12533 0.83296 0.0
H947 H 0.82588 0.19786 0.8503 0.0
S948 S 0.90499 0.14962 0.76083 0.0
N949 N 0.84378 0.11206 0.76574 0.0
N950 N 0.9247 0.19136 0.78472 0.0
C951 C 0.88079 0.17599 0.79794 0.0
C952 C 0.83682 0.1328 0.78765 0.0
C953 C 0.82342 0.65188 0.83269 0.0
C954 C 0.80764 0.6839 0.82169 0.0
C955 C 0.86428 0.64888 0.82241 0.0
C956 C 0.89145 0.6778 0.80063 0.0
H957 H 0.80497 0.62978 0.8499 0.0
H958 H 0.87546 0.62463 0.83223 0.0
S959 S 0.86225 0.7637 0.76276 0.0
N960 N 0.81997 0.74227 0.78643 0.0
N961 N 0.8969 0.73668 0.7671 0.0
C962 C 0.87458 0.70817 0.7886 0.0
C963 C 0.83273 0.7112 0.79911 0.0
C964 C 0.28825 0.16869 0.79368 0.0
C965 C 0.32706 0.21682 0.80141 0.0
C966 C 0.28404 0.12458 0.80445 0.0
C967 C 0.31855 0.12676 0.82333 0.0
H968 H 0.25955 0.1649 0.77998 0.0
H969 H 0.25237 0.0886 0.79852 0.0
S970 S 0.43138 0.24325 0.84749 0.0
N971 N 0.40375 0.26383 0.82719 0.0
N972 N 0.39603 0.18111 0.84725 0.0
C973 C 0.35928 0.17457 0.8301 0.0
C974 C 0.36348 0.21949 0.8192 0.0
C975 C 0.83701 0.22267 0.55546 0.0
C976 C 0.88493 0.22877 0.55 0.0
C977 C 0.79317 0.18402 0.54377 0.0
C978 C 0.7954 0.1497 0.52627 0.0
H979 H 0.83344 0.24932 0.56792 0.0
H980 H 0.75747 0.18216 0.54791 0.0
S981 S 0.9109 0.14493 0.50833 0.0
N982 N 0.93144 0.19402 0.528 0.0
N983 N 0.84917 0.12133 0.50617 0.0
C984 C 0.84273 0.15344 0.52191 0.0
C985 C 0.88741 0.19295 0.53373 0.0
C986 C 0.81019 0.68872 0.53082 0.0
C987 C 0.78044 0.65688 0.55124 0.0
C988 C 0.85056 0.68513 0.52029 0.0
C989 C 0.86312 0.64953 0.52964 0.0
H990 H 0.80147 0.71587 0.52227 0.0
H991 H 0.87109 0.70963 0.50411 0.0
S992 S 0.8007 0.5606 0.58466 0.0
N993 N 0.76899 0.59102 0.58178 0.0
N994 N 0.84495 0.58432 0.56198 0.0
C995 C 0.8354 0.6191 0.55092 0.0
C996 C 0.79413 0.62278 0.56171 0.0
C997 C 0.31915 0.12187 0.52994 0.0
C998 C 0.34848 0.12368 0.55154 0.0
C999 C 0.32253 0.16578 0.51956 0.0
C1000 C 0.35541 0.21365 0.53026 0.0
H1001 H 0.29418 0.08634 0.52038 0.0
H1002 H 0.3 0.16207 0.50252 0.0
S1003 S 0.43691 0.2391 0.58855 0.0
N1004 N 0.40891 0.17734 0.58454 0.0
N1005 N 0.41523 0.25988 0.565 0.0
C1006 C 0.38326 0.21595 0.55263 0.0
C1007 C 0.3798 0.17105 0.56326 0.0
C1008 C 0.35902 0.14355 0.16725 0.0
C1009 C 0.34523 0.13711 0.19376 0.0
C1010 C 0.35276 0.17743 0.15142 0.0
C1011 C 0.33247 0.20651 0.16136 0.0
H1012 H 0.37415 0.12168 0.15843 0.0
H1013 H 0.3639 0.18067 0.13115 0.0
S1014 S 0.29239 0.20571 0.22988 0.0
N1015 N 0.31163 0.16399 0.22947 0.0
N1016 N 0.30008 0.22762 0.19986 0.0
C1017 C 0.31904 0.2009 0.18795 0.0
C1018 C 0.32542 0.16636 0.20408 0.0
C1019 C 0.82776 0.17591 0.15143 0.0
C1020 C 0.79851 0.12666 0.16147 0.0
C1021 C 0.86159 0.21617 0.16725 0.0
C1022 C 0.86775 0.20904 0.19382 0.0
H1023 H 0.82473 0.18359 0.13111 0.0
H1024 H 0.88363 0.25305 0.15836 0.0
S1025 S 0.79836 0.08805 0.23021 0.0
N1026 N 0.77678 0.07356 0.20013 0.0
N1027 N 0.84028 0.14896 0.22971 0.0
C1028 C 0.83827 0.16012 0.20424 0.0
C1029 C 0.8038 0.11908 0.18813 0.0
C1030 C 0.82906 0.65022 0.15129 0.0
C1031 C 0.87896 0.67265 0.16082 0.0
C1032 C 0.78897 0.64405 0.1672 0.0
C1033 C 0.79691 0.66008 0.19337 0.0
H1034 H 0.82065 0.63717 0.13132 0.0
H1035 H 0.75152 0.62707 0.1587 0.0
S1036 S 0.92019 0.71992 0.22828 0.0
N1037 N 0.93379 0.7101 0.19852 0.0
N1038 N 0.85872 0.69864 0.22827 0.0
C1039 C 0.84658 0.68225 0.20327 0.0
C1040 C 0.88745 0.68856 0.18705 0.0
C1041 C 0.69181 0.80942 0.83358 0.0
C1042 C 0.67753 0.80265 0.86003 0.0
C1043 C 0.68593 0.84359 0.81777 0.0
C1044 C 0.66552 0.87258 0.82767 0.0
H1045 H 0.70708 0.78765 0.82481 0.0
H1046 H 0.69745 0.84714 0.79756 0.0
S1047 S 0.62431 0.871 0.89605 0.0
N1048 N 0.64346 0.82921 0.89565 0.0
N1049 N 0.63248 0.89323 0.86608 0.0
C1050 C 0.65157 0.8666 0.8542 0.0
C1051 C 0.65762 0.83182 0.87031 0.0
C1052 C 0.15963 0.84202 0.81794 0.0
C1053 C 0.13131 0.79252 0.82781 0.0
C1054 C 0.19357 0.88228 0.83373 0.0
C1055 C 0.20084 0.87492 0.86012 0.0
H1056 H 0.15569 0.84994 0.79778 0.0
H1057 H 0.21479 0.91939 0.82497 0.0
S1058 S 0.13462 0.75307 0.89601 0.0
N1059 N 0.11198 0.73883 0.86611 0.0
N1060 N 0.17566 0.81422 0.89562 0.0
C1061 C 0.17243 0.8257 0.87036 0.0
C1062 C 0.13783 0.78466 0.85428 0.0
C1063 C 0.17723 0.3528 0.86626 0.0
C1064 C 0.12657 0.32482 0.8578 0.0
C1065 C 0.21744 0.35972 0.85023 0.0
C1066 C 0.20895 0.33901 0.82498 0.0
H1067 H 0.18618 0.37002 0.8854 0.0
H1068 H 0.25553 0.38135 0.85787 0.0
S1069 S 0.08335 0.26201 0.79338 0.0
N1070 N 0.07028 0.27565 0.82241 0.0
N1071 N 0.14556 0.28901 0.79228 0.0
C1072 C 0.15845 0.31084 0.81624 0.0
C1073 C 0.11745 0.30359 0.83263 0.0
C1074 C 0.98222 0.52875 0.51782 0.0
C1075 C 0.99752 0.53619 0.49152 0.0
C1076 C 0.98851 0.49503 0.53377 0.0
C1077 C 0.01036 0.46713 0.52417 0.0
H1078 H 0.96574 0.54959 0.52638 0.0
H1079 H 0.97605 0.49089 0.55384 0.0
S1080 S 0.05531 0.47121 0.45635 0.0
N1081 N 0.0346 0.51176 0.45642 0.0
N1082 N 0.04623 0.44846 0.48624 0.0
C1083 C 0.02549 0.47387 0.49781 0.0
C1084 C 0.01906 0.50824 0.48155 0.0
C1085 C 0.51341 0.49539 0.53376 0.0
C1086 C 0.5417 0.54492 0.52392 0.0
C1087 C 0.47985 0.45508 0.51789 0.0
C1088 C 0.47296 0.46239 0.49143 0.0
H1089 H 0.5171 0.48748 0.55396 0.0
H1090 H 0.45864 0.41796 0.52663 0.0
S1091 S 0.53922 0.58433 0.45562 0.0
N1092 N 0.56136 0.59863 0.48561 0.0
N1093 N 0.49843 0.52312 0.45592 0.0
C1094 C 0.50135 0.51165 0.48123 0.0
C1095 C 0.53554 0.55276 0.4974 0.0
C1096 C 0.49516 0.98875 0.48495 0.0
C1097 C 0.54462 0.00891 0.4948 0.0
C1098 C 0.45512 0.98274 0.50086 0.0
C1099 C 0.4627 0.99662 0.52736 0.0
H1100 H 0.4871 0.97747 0.46471 0.0
H1101 H 0.41802 0.96761 0.49212 0.0
S1102 S 0.5845 0.04927 0.56324 0.0
N1103 N 0.59849 0.04139 0.53319 0.0
N1104 N 0.52351 0.03027 0.56293 0.0
C1105 C 0.51188 0.01641 0.53757 0.0
C1106 C 0.55269 0.02256 0.52137 0.0
loop_
_geom_bond_atom_site_label_1
_geom_bond_atom_site_label_2
_geom_bond_distance
_geom_bond_site_symmetry_2
_ccdc_geom_bond_type
Co0 O3 1.970 . S
Co0 N17 1.989 . S
Co0 O25 1.967 . S
Co0 O32 1.920 . S
Co1 O4 1.966 . S
Co1 N10 2.022 . S
Co1 N18 1.993 . S
Co1 O26 1.941 . S
C2 O3 1.258 . S
C2 O4 1.263 . S
O3 Co0 1.970 . S
O3 C2 1.258 . S
O4 Co1 1.966 . S
O4 C2 1.263 . S
C5 O6 1.235 . S
C5 O32 1.289 . S
O6 C5 1.235 . S
C7 C9 1.400 . S
C7 N10 1.351 . S
C7 C12 1.501 . S
C8 C9 1.387 . S
C8 N11 1.341 . S
C9 C7 1.400 . S
C9 C8 1.387 . S
N10 Co1 2.022 . S
N10 C7 1.351 . S
N10 N11 1.365 . S
N11 C8 1.341 . S
N11 N10 1.365 . S
N11 H31 0.862 . S
C12 C7 1.501 . S
C12 H13 0.961 . S
C12 H14 0.961 . S
C12 H15 0.960 . S
H13 C12 0.961 . S
H14 C12 0.961 . S
H15 C12 0.960 . S
C16 N17 1.342 . S
C16 C20 1.401 . S
C16 C21 1.499 . S
N17 Co0 1.989 . S
N17 C16 1.342 . S
N17 N18 1.388 . S
N18 Co1 1.993 . S
N18 N17 1.388 . S
N18 C19 1.346 . S
C19 N18 1.346 . S
C19 C20 1.396 . S
C19 C29 1.510 . S
C20 C16 1.401 . S
C20 C19 1.396 . S
C21 C16 1.499 . S
C21 H22 0.959 . S
C21 H23 0.960 . S
C21 H24 0.961 . S
H22 C21 0.959 . S
H23 C21 0.960 . S
H24 C21 0.961 . S
O25 Co0 1.967 . S
O25 C33 1.258 . S
O26 Co1 1.941 . S
O26 C33 1.266 . S
H27 C29 0.959 . S
H28 C29 0.961 . S
C29 C19 1.510 . S
C29 H27 0.959 . S
C29 H28 0.961 . S
C29 H30 0.960 . S
H30 C29 0.960 . S
H31 N11 0.862 . S
O32 Co0 1.920 . S
O32 C5 1.289 . S
C33 O25 1.258 . S
C33 O26 1.266 . S
Co34 O37 1.970 1_565 S
Co34 N51 1.989 . S
Co34 O59 1.967 . S
Co34 O66 1.920 . S
Co35 O38 1.966 . S
Co35 N44 2.022 . S
Co35 N52 1.993 1_545 S
Co35 O60 1.941 . S
C36 O37 1.258 . S
C36 O38 1.263 . S
O37 Co34 1.970 1_545 S
O37 C36 1.258 . S
O38 Co35 1.966 . S
O38 C36 1.263 . S
C39 O40 1.235 . S
C39 O66 1.289 . S
O40 C39 1.235 . S
C41 C43 1.400 . S
C41 N44 1.351 . S
C41 C46 1.501 . S
C42 C43 1.387 . S
C42 N45 1.341 . S
C43 C41 1.400 . S
C43 C42 1.387 . S
N44 Co35 2.022 . S
N44 C41 1.351 . S
N44 N45 1.365 . S
N45 C42 1.341 . S
N45 N44 1.365 . S
N45 H65 0.862 . S
C46 C41 1.501 . S
C46 H47 0.961 . S
C46 H48 0.961 . S
C46 H49 0.960 . S
H47 C46 0.961 . S
H48 C46 0.961 . S
H49 C46 0.960 . S
C50 N51 1.342 . S
C50 C54 1.401 . S
C50 C55 1.499 . S
N51 Co34 1.989 . S
N51 C50 1.342 . S
N51 N52 1.388 . S
N52 Co35 1.993 1_565 S
N52 N51 1.388 . S
N52 C53 1.346 . S
C53 N52 1.346 . S
C53 C54 1.396 . S
C53 C63 1.510 . S
C54 C50 1.401 . S
C54 C53 1.396 . S
C55 C50 1.499 . S
C55 H56 0.959 . S
C55 H57 0.960 . S
C55 H58 0.961 . S
H56 C55 0.959 . S
H57 C55 0.960 . S
H58 C55 0.961 . S
O59 Co34 1.967 . S
O59 C67 1.258 1_565 S
O60 Co35 1.941 . S
O60 C67 1.266 . S
H61 C63 0.959 . S
H62 C63 0.961 . S
C63 C53 1.510 . S
C63 H61 0.959 . S
C63 H62 0.961 . S
C63 H64 0.960 1_565 S
H64 C63 0.960 1_545 S
H65 N45 0.862 . S
O66 Co34 1.920 . S
O66 C39 1.289 . S
C67 O59 1.258 1_545 S
C67 O60 1.266 . S
Co68 O71 1.970 1_455 S
Co68 N85 1.989 . S
Co68 O93 1.967 . S
Co68 O100 1.920 . S
Co69 O72 1.966 . S
Co69 N78 2.022 . S
Co69 N86 1.993 1_655 S
Co69 O94 1.941 . S
C70 O71 1.258 . S
C70 O72 1.263 . S
O71 Co68 1.970 1_655 S
O71 C70 1.258 . S
O72 Co69 1.966 . S
O72 C70 1.263 . S
C73 O74 1.235 . S
C73 O100 1.289 . S
O74 C73 1.235 . S
C75 C77 1.400 . S
C75 N78 1.351 . S
C75 C80 1.501 . S
C76 C77 1.387 . S
C76 N79 1.341 . S
C77 C75 1.400 . S
C77 C76 1.387 . S
N78 Co69 2.022 . S
N78 C75 1.351 . S
N78 N79 1.365 . S
N79 C76 1.341 . S
N79 N78 1.365 . S
N79 H99 0.862 . S
C80 C75 1.501 . S
C80 H81 0.961 . S
C80 H82 0.961 . S
C80 H83 0.960 . S
H81 C80 0.961 . S
H82 C80 0.961 . S
H83 C80 0.960 . S
C84 N85 1.342 . S
C84 C88 1.401 . S
C84 C89 1.499 . S
N85 Co68 1.989 . S
N85 C84 1.342 . S
N85 N86 1.388 . S
N86 Co69 1.993 1_455 S
N86 N85 1.388 . S
N86 C87 1.346 . S
C87 N86 1.346 . S
C87 C88 1.396 . S
C87 C97 1.510 . S
C88 C84 1.401 . S
C88 C87 1.396 . S
C89 C84 1.499 . S
C89 H90 0.959 . S
C89 H91 0.960 . S
C89 H92 0.961 . S
H90 C89 0.959 . S
H91 C89 0.960 . S
H92 C89 0.961 . S
O93 Co68 1.967 . S
O93 C101 1.258 1_455 S
O94 Co69 1.941 . S
O94 C101 1.266 . S
H95 C97 0.959 . S
H96 C97 0.961 . S
C97 C87 1.510 . S
C97 H95 0.959 . S
C97 H96 0.961 . S
C97 H98 0.960 1_455 S
H98 C97 0.960 1_655 S
H99 N79 0.862 . S
O100 Co68 1.920 . S
O100 C73 1.289 . S
C101 O93 1.258 1_655 S
C101 O94 1.266 . S
Co102 O105 1.970 . S
Co102 N119 1.989 . S
Co102 O127 1.967 . S
Co102 O134 1.920 . S
Co103 O106 1.966 . S
Co103 N112 2.022 . S
Co103 N120 1.993 . S
Co103 O128 1.941 . S
C104 O105 1.258 . S
C104 O106 1.263 . S
O105 Co102 1.970 . S
O105 C104 1.258 . S
O106 Co103 1.966 . S
O106 C104 1.263 . S
C107 O108 1.235 . S
C107 O134 1.289 . S
O108 C107 1.235 . S
C109 C111 1.400 . S
C109 N112 1.351 . S
C109 C114 1.501 . S
C110 C111 1.387 . S
C110 N113 1.341 . S
C111 C109 1.400 . S
C111 C110 1.387 . S
N112 Co103 2.022 . S
N112 C109 1.351 . S
N112 N113 1.365 . S
N113 C110 1.341 . S
N113 N112 1.365 . S
N113 H133 0.862 . S
C114 C109 1.501 . S
C114 H115 0.961 . S
C114 H116 0.961 . S
C114 H117 0.960 . S
H115 C114 0.961 . S
H116 C114 0.961 . S
H117 C114 0.960 . S
C118 N119 1.342 . S
C118 C122 1.401 . S
C118 C123 1.499 . S
N119 Co102 1.989 . S
N119 C118 1.342 . S
N119 N120 1.388 . S
N120 Co103 1.993 . S
N120 N119 1.388 . S
N120 C121 1.346 . S
C121 N120 1.346 . S
C121 C122 1.396 . S
C121 C131 1.510 . S
C122 C118 1.401 . S
C122 C121 1.396 . S
C123 C118 1.499 . S
C123 H124 0.959 . S
C123 H125 0.960 . S
C123 H126 0.961 . S
H124 C123 0.959 . S
H125 C123 0.960 . S
H126 C123 0.961 . S
O127 Co102 1.967 . S
O127 C135 1.258 . S
O128 Co103 1.941 . S
O128 C135 1.266 . S
H129 C131 0.959 . S
H130 C131 0.961 . S
C131 C121 1.510 . S
C131 H129 0.959 . S
C131 H130 0.961 . S
C131 H132 0.960 . S
H132 C131 0.960 . S
H133 N113 0.862 . S
O134 Co102 1.920 . S
O134 C107 1.289 . S
C135 O127 1.258 . S
C135 O128 1.266 . S
Co136 O139 1.970 1_545 S
Co136 N153 1.989 . S
Co136 O161 1.967 . S
Co136 O168 1.920 . S
Co137 O140 1.966 . S
Co137 N146 2.022 . S
Co137 N154 1.993 1_565 S
Co137 O162 1.941 . S
C138 O139 1.258 . S
C138 O140 1.263 . S
O139 Co136 1.970 1_565 S
O139 C138 1.258 . S
O140 Co137 1.966 . S
O140 C138 1.263 . S
C141 O142 1.235 . S
C141 O168 1.289 . S
O142 C141 1.235 . S
C143 C145 1.400 . S
C143 N146 1.351 . S
C143 C148 1.501 . S
C144 C145 1.387 . S
C144 N147 1.341 . S
C145 C143 1.400 . S
C145 C144 1.387 . S
N146 Co137 2.022 . S
N146 C143 1.351 . S
N146 N147 1.365 . S
N147 C144 1.341 . S
N147 N146 1.365 . S
N147 H167 0.862 . S
C148 C143 1.501 . S
C148 H149 0.961 . S
C148 H150 0.961 . S
C148 H151 0.960 . S
H149 C148 0.961 . S
H150 C148 0.961 . S
H151 C148 0.960 . S
C152 N153 1.342 . S
C152 C156 1.401 . S
C152 C157 1.499 . S
N153 Co136 1.989 . S
N153 C152 1.342 . S
N153 N154 1.388 . S
N154 Co137 1.993 1_545 S
N154 N153 1.388 . S
N154 C155 1.346 . S
C155 N154 1.346 . S
C155 C156 1.396 . S
C155 C165 1.510 . S
C156 C152 1.401 . S
C156 C155 1.396 . S
C157 C152 1.499 . S
C157 H158 0.959 . S
C157 H159 0.960 . S
C157 H160 0.961 . S
H158 C157 0.959 . S
H159 C157 0.960 . S
H160 C157 0.961 . S
O161 Co136 1.967 . S
O161 C169 1.258 1_545 S
O162 Co137 1.941 . S
O162 C169 1.266 . S
H163 C165 0.959 . S
H164 C165 0.961 . S
C165 C155 1.510 . S
C165 H163 0.959 . S
C165 H164 0.961 . S
C165 H166 0.960 1_545 S
H166 C165 0.960 1_565 S
H167 N147 0.862 . S
O168 Co136 1.920 . S
O168 C141 1.289 . S
C169 O161 1.258 1_565 S
C169 O162 1.266 . S
Co170 O173 1.970 1_655 S
Co170 N187 1.989 . S
Co170 O195 1.967 . S
Co170 O202 1.920 . S
Co171 O174 1.966 . S
Co171 N180 2.022 . S
Co171 N188 1.993 1_455 S
Co171 O196 1.941 . S
C172 O173 1.258 . S
C172 O174 1.263 . S
O173 Co170 1.970 1_455 S
O173 C172 1.258 . S
O174 Co171 1.966 . S
O174 C172 1.263 . S
C175 O176 1.235 . S
C175 O202 1.289 . S
O176 C175 1.235 . S
C177 C179 1.400 . S
C177 N180 1.351 . S
C177 C182 1.501 . S
C178 C179 1.387 . S
C178 N181 1.341 . S
C179 C177 1.400 . S
C179 C178 1.387 . S
N180 Co171 2.022 . S
N180 C177 1.351 . S
N180 N181 1.365 . S
N181 C178 1.341 . S
N181 N180 1.365 . S
N181 H201 0.862 . S
C182 C177 1.501 . S
C182 H183 0.961 . S
C182 H184 0.961 . S
C182 H185 0.960 . S
H183 C182 0.961 . S
H184 C182 0.961 . S
H185 C182 0.960 . S
C186 N187 1.342 . S
C186 C190 1.401 . S
C186 C191 1.499 . S
N187 Co170 1.989 . S
N187 C186 1.342 . S
N187 N188 1.388 . S
N188 Co171 1.993 1_655 S
N188 N187 1.388 . S
N188 C189 1.346 . S
C189 N188 1.346 . S
C189 C190 1.396 . S
C189 C199 1.510 . S
C190 C186 1.401 . S
C190 C189 1.396 . S
C191 C186 1.499 . S
C191 H192 0.959 . S
C191 H193 0.960 . S
C191 H194 0.961 . S
H192 C191 0.959 . S
H193 C191 0.960 . S
H194 C191 0.961 . S
O195 Co170 1.967 . S
O195 C203 1.258 1_655 S
O196 Co171 1.941 . S
O196 C203 1.266 . S
H197 C199 0.959 . S
H198 C199 0.961 . S
C199 C189 1.510 . S
C199 H197 0.959 . S
C199 H198 0.961 . S
C199 H200 0.960 1_655 S
H200 C199 0.960 1_455 S
H201 N181 0.862 . S
O202 Co170 1.920 . S
O202 C175 1.289 . S
C203 O195 1.258 1_455 S
C203 O196 1.266 . S
Co204 O207 1.970 . S
Co204 N221 1.989 . S
Co204 O229 1.967 1_655 S
Co204 O236 1.920 . S
Co205 O208 1.966 . S
Co205 N214 2.022 . S
Co205 N222 1.993 1_455 S
Co205 O230 1.941 . S
C206 O207 1.258 . S
C206 O208 1.263 1_655 S
O207 Co204 1.970 . S
O207 C206 1.258 . S
O208 Co205 1.966 . S
O208 C206 1.263 1_455 S
C209 O210 1.235 . S
C209 O236 1.289 . S
O210 C209 1.235 . S
C211 C213 1.400 . S
C211 N214 1.351 . S
C211 C216 1.501 . S
C212 C213 1.387 . S
C212 N215 1.341 . S
C213 C211 1.400 . S
C213 C212 1.387 . S
N214 Co205 2.022 . S
N214 C211 1.351 . S
N214 N215 1.365 . S
N215 C212 1.341 . S
N215 N214 1.365 . S
N215 H235 0.862 . S
C216 C211 1.501 . S
C216 H217 0.961 . S
C216 H218 0.953 1_455 S
C216 H219 0.960 . S
H217 C216 0.961 . S
H218 C216 0.953 1_655 S
H219 C216 0.960 . S
C220 N221 1.342 . S
C220 C224 1.401 . S
C220 C225 1.499 . S
N221 Co204 1.989 . S
N221 C220 1.342 . S
N221 N222 1.388 . S
N222 Co205 1.993 1_655 S
N222 N221 1.388 . S
N222 C223 1.346 . S
C223 N222 1.346 . S
C223 C224 1.396 . S
C223 C233 1.510 . S
C224 C220 1.401 . S
C224 C223 1.396 . S
C225 C220 1.499 . S
C225 H226 0.959 . S
C225 H227 0.960 . S
C225 H228 0.961 . S
H226 C225 0.959 . S
H227 C225 0.960 . S
H228 C225 0.961 . S
O229 Co204 1.967 1_455 S
O229 C237 1.258 . S
O230 Co205 1.941 . S
O230 C237 1.266 . S
H231 C233 0.959 . S
H232 C233 0.961 . S
C233 C223 1.510 . S
C233 H231 0.959 . S
C233 H232 0.961 . S
C233 H234 0.960 . S
H234 C233 0.960 . S
H235 N215 0.862 . S
O236 Co204 1.920 . S
O236 C209 1.289 . S
C237 O229 1.258 . S
C237 O230 1.266 . S
Co238 O241 1.970 . S
Co238 N255 1.989 . S
Co238 O263 1.967 . S
Co238 O270 1.920 . S
Co239 O242 1.966 . S
Co239 N248 2.022 . S
Co239 N256 1.993 . S
Co239 O264 1.941 . S
C240 O241 1.258 . S
C240 O242 1.263 . S
O241 Co238 1.970 . S
O241 C240 1.258 . S
O242 Co239 1.966 . S
O242 C240 1.263 . S
C243 O244 1.235 . S
C243 O270 1.289 . S
O244 C243 1.235 . S
C245 C247 1.400 . S
C245 N248 1.351 . S
C245 C250 1.501 . S
C246 C247 1.387 . S
C246 N249 1.341 . S
C247 C245 1.400 . S
C247 C246 1.387 . S
N248 Co239 2.022 . S
N248 C245 1.351 . S
N248 N249 1.365 . S
N249 C246 1.341 . S
N249 N248 1.365 . S
N249 H269 0.862 . S
C250 C245 1.501 . S
C250 H251 0.961 . S
C250 H252 0.961 . S
C250 H253 0.960 . S
H251 C250 0.961 . S
H252 C250 0.961 . S
H253 C250 0.960 . S
C254 N255 1.342 . S
C254 C258 1.401 . S
C254 C259 1.499 . S
N255 Co238 1.989 . S
N255 C254 1.342 . S
N255 N256 1.388 . S
N256 Co239 1.993 . S
N256 N255 1.388 . S
N256 C257 1.346 . S
C257 N256 1.346 . S
C257 C258 1.396 . S
C257 C267 1.510 . S
C258 C254 1.401 . S
C258 C257 1.396 . S
C259 C254 1.499 . S
C259 H260 0.959 . S
C259 H261 0.960 . S
C259 H262 0.961 . S
H260 C259 0.959 . S
H261 C259 0.960 . S
H262 C259 0.961 . S
O263 Co238 1.967 . S
O263 C271 1.258 . S
O264 Co239 1.941 . S
O264 C271 1.266 . S
H265 C267 0.959 . S
H266 C267 0.961 . S
C267 C257 1.510 . S
C267 H265 0.959 . S
C267 H266 0.961 . S
C267 H268 0.960 . S
H268 C267 0.960 . S
H269 N249 0.862 . S
O270 Co238 1.920 . S
O270 C243 1.289 . S
C271 O263 1.258 . S
C271 O264 1.266 . S
Co272 O275 1.970 . S
Co272 N289 1.989 . S
Co272 O297 1.967 1_545 S
Co272 O304 1.920 . S
Co273 O276 1.966 . S
Co273 N282 2.022 . S
Co273 N290 1.993 1_565 S
Co273 O298 1.941 . S
C274 O275 1.258 . S
C274 O276 1.263 1_545 S
O275 Co272 1.970 . S
O275 C274 1.258 . S
O276 Co273 1.966 . S
O276 C274 1.263 1_565 S
C277 O278 1.235 . S
C277 O304 1.289 . S
O278 C277 1.235 . S
C279 C281 1.400 . S
C279 N282 1.351 . S
C279 C284 1.501 . S
C280 C281 1.387 . S
C280 N283 1.341 . S
C281 C279 1.400 . S
C281 C280 1.387 . S
N282 Co273 2.022 . S
N282 C279 1.351 . S
N282 N283 1.365 . S
N283 C280 1.341 . S
N283 N282 1.365 . S
N283 H303 0.862 . S
C284 C279 1.501 . S
C284 H285 0.961 . S
C284 H286 0.942 1_565 S
C284 H287 0.960 . S
H285 C284 0.961 . S
H286 C284 0.942 1_545 S
H287 C284 0.960 . S
C288 N289 1.342 . S
C288 C292 1.401 . S
C288 C293 1.499 . S
N289 Co272 1.989 . S
N289 C288 1.342 . S
N289 N290 1.388 . S
N290 Co273 1.993 1_545 S
N290 N289 1.388 . S
N290 C291 1.346 . S
C291 N290 1.346 . S
C291 C292 1.396 . S
C291 C301 1.510 . S
C292 C288 1.401 . S
C292 C291 1.396 . S
C293 C288 1.499 . S
C293 H294 0.959 . S
C293 H295 0.960 . S
C293 H296 0.961 . S
H294 C293 0.959 . S
H295 C293 0.960 . S
H296 C293 0.961 . S
O297 Co272 1.967 1_565 S
O297 C305 1.258 . S
O298 Co273 1.941 . S
O298 C305 1.266 . S
H299 C301 0.959 . S
H300 C301 0.961 . S
C301 C291 1.510 . S
C301 H299 0.959 . S
C301 H300 0.961 . S
C301 H302 0.960 . S
H302 C301 0.960 . S
H303 N283 0.862 . S
O304 Co272 1.920 . S
O304 C277 1.289 . S
C305 O297 1.258 . S
C305 O298 1.266 . S
Co306 O309 1.970 1_565 S
Co306 N323 1.989 . S
Co306 O331 1.967 . S
Co306 O338 1.920 . S
Co307 O310 1.966 . S
Co307 N316 2.022 . S
Co307 N324 1.993 . S
Co307 O332 1.941 1_545 S
C308 O309 1.258 . S
C308 O310 1.263 . S
O309 Co306 1.970 1_545 S
O309 C308 1.258 . S
O310 Co307 1.966 . S
O310 C308 1.263 . S
C311 O312 1.235 1_565 S
C311 O338 1.289 . S
O312 C311 1.235 1_545 S
C313 C315 1.400 . S
C313 N316 1.351 . S
C313 C318 1.501 . S
C314 C315 1.387 . S
C314 N317 1.341 . S
C315 C313 1.400 . S
C315 C314 1.387 . S
N316 Co307 2.022 . S
N316 C313 1.351 . S
N316 N317 1.365 . S
N317 C314 1.341 . S
N317 N316 1.365 . S
N317 H337 0.862 1_545 S
C318 C313 1.501 . S
C318 H319 0.961 . S
C318 H320 0.961 . S
C318 H321 0.960 . S
H319 C318 0.961 . S
H320 C318 0.961 . S
H321 C318 0.960 . S
C322 N323 1.342 . S
C322 C326 1.401 . S
C322 C327 1.499 . S
N323 Co306 1.989 . S
N323 C322 1.342 . S
N323 N324 1.388 1_565 S
N324 Co307 1.993 . S
N324 N323 1.388 1_545 S
N324 C325 1.346 . S
C325 N324 1.346 . S
C325 C326 1.396 1_545 S
C325 C335 1.510 . S
C326 C322 1.401 . S
C326 C325 1.396 1_565 S
C327 C322 1.499 . S
C327 H328 0.959 . S
C327 H329 0.960 . S
C327 H330 0.961 . S
H328 C327 0.959 . S
H329 C327 0.960 . S
H330 C327 0.961 . S
O331 Co306 1.967 . S
O331 C339 1.258 . S
O332 Co307 1.941 1_565 S
O332 C339 1.266 . S
H333 C335 0.959 . S
H334 C335 0.961 . S
C335 C325 1.510 . S
C335 H333 0.959 . S
C335 H334 0.961 . S
C335 H336 0.960 . S
H336 C335 0.960 . S
H337 N317 0.862 1_565 S
O338 Co306 1.920 . S
O338 C311 1.289 . S
C339 O331 1.258 . S
C339 O332 1.266 . S
Co340 O343 1.970 1_455 S
Co340 N357 1.993 . S
Co340 O365 1.967 . S
Co340 O372 1.920 . S
Co341 O344 1.966 . S
Co341 N350 2.022 . S
Co341 N358 1.993 . S
Co341 O366 1.941 1_655 S
C342 O343 1.258 . S
C342 O344 1.263 . S
O343 Co340 1.970 1_655 S
O343 C342 1.258 . S
O344 Co341 1.966 . S
O344 C342 1.263 . S
C345 O346 1.235 1_455 S
C345 O372 1.289 . S
O346 C345 1.235 1_655 S
C347 C349 1.400 . S
C347 N350 1.351 . S
C347 C352 1.501 . S
C348 C349 1.387 . S
C348 N351 1.341 . S
C349 C347 1.400 . S
C349 C348 1.387 . S
N350 Co341 2.022 . S
N350 C347 1.351 . S
N350 N351 1.365 . S
N351 C348 1.341 . S
N351 N350 1.365 . S
N351 H371 0.862 1_655 S
C352 C347 1.501 . S
C352 H353 0.961 . S
C352 H354 0.961 . S
C352 H355 0.960 . S
H353 C352 0.961 . S
H354 C352 0.961 . S
H355 C352 0.960 . S
C356 N357 1.336 . S
C356 C360 1.401 . S
C356 C361 1.499 . S
N357 Co340 1.993 . S
N357 C356 1.336 . S
N357 N358 1.390 1_455 S
N358 Co341 1.993 . S
N358 N357 1.390 1_655 S
N358 C359 1.346 . S
C359 N358 1.346 . S
C359 C360 1.396 1_655 S
C359 C369 1.510 . S
C360 C356 1.401 . S
C360 C359 1.396 1_455 S
C361 C356 1.499 . S
C361 H362 0.959 . S
C361 H363 0.960 . S
C361 H364 0.961 . S
H362 C361 0.959 . S
H363 C361 0.960 . S
H364 C361 0.961 . S
O365 Co340 1.967 . S
O365 C373 1.258 . S
O366 Co341 1.941 1_455 S
O366 C373 1.266 . S
H367 C369 0.959 . S
H368 C369 0.961 . S
C369 C359 1.510 . S
C369 H367 0.959 . S
C369 H368 0.961 . S
C369 H370 0.960 . S
H370 C369 0.960 . S
H371 N351 0.862 1_455 S
O372 Co340 1.920 . S
O372 C345 1.289 . S
C373 O365 1.258 . S
C373 O366 1.266 . S
Co374 O377 1.970 . S
Co374 N391 1.989 . S
Co374 O399 1.967 . S
Co374 O406 1.920 . S
Co375 O378 1.966 . S
Co375 N384 2.022 . S
Co375 N392 1.993 . S
Co375 O400 1.941 . S
C376 O377 1.258 . S
C376 O378 1.263 . S
O377 Co374 1.970 . S
O377 C376 1.258 . S
O378 Co375 1.966 . S
O378 C376 1.263 . S
C379 O380 1.235 . S
C379 O406 1.289 . S
O380 C379 1.235 . S
C381 C383 1.400 . S
C381 N384 1.351 . S
C381 C386 1.501 . S
C382 C383 1.387 . S
C382 N385 1.341 . S
C383 C381 1.400 . S
C383 C382 1.387 . S
N384 Co375 2.022 . S
N384 C381 1.351 . S
N384 N385 1.365 . S
N385 C382 1.341 . S
N385 N384 1.365 . S
N385 H405 0.862 . S
C386 C381 1.501 . S
C386 H387 0.961 . S
C386 H388 0.961 . S
C386 H389 0.960 . S
H387 C386 0.961 . S
H388 C386 0.961 . S
H389 C386 0.960 . S
C390 N391 1.342 . S
C390 C394 1.401 . S
C390 C395 1.499 . S
N391 Co374 1.989 . S
N391 C390 1.342 . S
N391 N392 1.388 . S
N392 Co375 1.993 . S
N392 N391 1.388 . S
N392 C393 1.346 . S
C393 N392 1.346 . S
C393 C394 1.396 . S
C393 C403 1.510 . S
C394 C390 1.401 . S
C394 C393 1.396 . S
C395 C390 1.499 . S
C395 H396 0.959 . S
C395 H397 0.960 . S
C395 H398 0.961 . S
H396 C395 0.959 . S
H397 C395 0.960 . S
H398 C395 0.961 . S
O399 Co374 1.967 . S
O399 C407 1.258 . S
O400 Co375 1.941 . S
O400 C407 1.266 . S
H401 C403 0.959 . S
H402 C403 0.961 . S
C403 C393 1.510 . S
C403 H401 0.959 . S
C403 H402 0.961 . S
C403 H404 0.960 . S
H404 C403 0.960 . S
H405 N385 0.862 . S
O406 Co374 1.920 . S
O406 C379 1.289 . S
C407 O399 1.258 . S
C407 O400 1.266 . S
Co408 O411 1.970 1_545 S
Co408 N425 1.989 . S
Co408 O433 1.967 . S
Co408 O440 1.920 . S
Co409 O412 1.966 . S
Co409 N418 2.022 . S
Co409 N426 1.993 . S
Co409 O434 1.941 1_565 S
C410 O411 1.258 . S
C410 O412 1.263 . S
O411 Co408 1.970 1_565 S
O411 C410 1.258 . S
O412 Co409 1.966 . S
O412 C410 1.263 . S
C413 O414 1.235 1_545 S
C413 O440 1.289 . S
O414 C413 1.235 1_565 S
C415 C417 1.400 . S
C415 N418 1.351 . S
C415 C420 1.501 . S
C416 C417 1.387 . S
C416 N419 1.341 . S
C417 C415 1.400 . S
C417 C416 1.387 . S
N418 Co409 2.022 . S
N418 C415 1.351 . S
N418 N419 1.365 . S
N419 C416 1.341 . S
N419 N418 1.365 . S
N419 H439 0.862 1_565 S
C420 C415 1.501 . S
C420 H421 0.961 . S
C420 H422 0.961 . S
C420 H423 0.960 . S
H421 C420 0.961 . S
H422 C420 0.961 . S
H423 C420 0.960 . S
C424 N425 1.342 . S
C424 C428 1.401 . S
C424 C429 1.499 . S
N425 Co408 1.989 . S
N425 C424 1.342 . S
N425 N426 1.388 1_545 S
N426 Co409 1.993 . S
N426 N425 1.388 1_565 S
N426 C427 1.346 . S
C427 N426 1.346 . S
C427 C428 1.396 1_565 S
C427 C437 1.510 . S
C428 C424 1.401 . S
C428 C427 1.396 1_545 S
C429 C424 1.499 . S
C429 H430 0.959 . S
C429 H431 0.960 . S
C429 H432 0.961 . S
H430 C429 0.959 . S
H431 C429 0.960 . S
H432 C429 0.961 . S
O433 Co408 1.967 . S
O433 C441 1.258 . S
O434 Co409 1.941 1_545 S
O434 C441 1.266 . S
H435 C437 0.959 . S
H436 C437 0.961 . S
C437 C427 1.510 . S
C437 H435 0.959 . S
C437 H436 0.961 . S
C437 H438 0.960 . S
H438 C437 0.960 . S
H439 N419 0.862 1_545 S
O440 Co408 1.920 . S
O440 C413 1.289 . S
C441 O433 1.258 . S
C441 O434 1.266 . S
Co442 O445 1.970 1_655 S
Co442 N459 1.993 . S
Co442 O467 1.967 . S
Co442 O474 1.920 . S
Co443 O446 1.966 . S
Co443 N452 2.022 . S
Co443 N460 1.993 . S
Co443 O468 1.941 1_455 S
C444 O445 1.258 . S
C444 O446 1.263 . S
O445 Co442 1.970 1_455 S
O445 C444 1.258 . S
O446 Co443 1.966 . S
O446 C444 1.263 . S
C447 O448 1.235 1_655 S
C447 O474 1.289 . S
O448 C447 1.235 1_455 S
C449 C451 1.400 . S
C449 N452 1.351 . S
C449 C454 1.501 . S
C450 C451 1.387 . S
C450 N453 1.341 . S
C451 C449 1.400 . S
C451 C450 1.387 . S
N452 Co443 2.022 . S
N452 C449 1.351 . S
N452 N453 1.365 . S
N453 C450 1.341 . S
N453 N452 1.365 . S
N453 H473 0.862 1_455 S
C454 C449 1.501 . S
C454 H455 0.961 . S
C454 H456 0.961 . S
C454 H457 0.960 . S
H455 C454 0.961 . S
H456 C454 0.961 . S
H457 C454 0.960 . S
C458 N459 1.336 . S
C458 C462 1.401 . S
C458 C463 1.499 . S
N459 Co442 1.993 . S
N459 C458 1.336 . S
N459 N460 1.390 1_655 S
N460 Co443 1.993 . S
N460 N459 1.390 1_455 S
N460 C461 1.346 . S
C461 N460 1.346 . S
C461 C462 1.396 1_455 S
C461 C471 1.510 . S
C462 C458 1.401 . S
C462 C461 1.396 1_655 S
C463 C458 1.499 . S
C463 H464 0.959 . S
C463 H465 0.960 . S
C463 H466 0.961 . S
H464 C463 0.959 . S
H465 C463 0.960 . S
H466 C463 0.961 . S
O467 Co442 1.967 . S
O467 C475 1.258 . S
O468 Co443 1.941 1_655 S
O468 C475 1.266 . S
H469 C471 0.959 . S
H470 C471 0.961 . S
C471 C461 1.510 . S
C471 H469 0.959 . S
C471 H470 0.961 . S
C471 H472 0.960 . S
H472 C471 0.960 . S
H473 N453 0.862 1_655 S
O474 Co442 1.920 . S
O474 C447 1.289 . S
C475 O467 1.258 . S
C475 O468 1.266 . S
Co476 O479 1.970 . S
Co476 N493 1.989 . S
Co476 O501 1.967 . S
Co476 O508 1.920 . S
Co477 O480 1.966 . S
Co477 N486 2.022 . S
Co477 N494 1.993 . S
Co477 O502 1.941 . S
C478 O479 1.258 . S
C478 O480 1.263 . S
O479 Co476 1.970 . S
O479 C478 1.258 . S
O480 Co477 1.966 . S
O480 C478 1.263 . S
C481 O482 1.235 . S
C481 O508 1.289 . S
O482 C481 1.235 . S
C483 C485 1.400 . S
C483 N486 1.351 . S
C483 C488 1.501 . S
C484 C485 1.387 . S
C484 N487 1.341 . S
C485 C483 1.400 . S
C485 C484 1.387 . S
N486 Co477 2.022 . S
N486 C483 1.351 . S
N486 N487 1.365 . S
N487 C484 1.341 . S
N487 N486 1.365 . S
N487 H507 0.862 . S
C488 C483 1.501 . S
C488 H489 0.961 . S
C488 H490 0.961 . S
C488 H491 0.960 . S
H489 C488 0.961 . S
H490 C488 0.961 . S
H491 C488 0.960 . S
C492 N493 1.342 . S
C492 C496 1.401 . S
C492 C497 1.499 . S
N493 Co476 1.989 . S
N493 C492 1.342 . S
N493 N494 1.388 . S
N494 Co477 1.993 . S
N494 N493 1.388 . S
N494 C495 1.346 . S
C495 N494 1.346 . S
C495 C496 1.396 . S
C495 C505 1.510 . S
C496 C492 1.401 . S
C496 C495 1.396 . S
C497 C492 1.499 . S
C497 H498 0.959 . S
C497 H499 0.960 . S
C497 H500 0.961 . S
H498 C497 0.959 . S
H499 C497 0.960 . S
H500 C497 0.961 . S
O501 Co476 1.967 . S
O501 C509 1.258 . S
O502 Co477 1.941 . S
O502 C509 1.266 . S
H503 C505 0.959 . S
H504 C505 0.961 . S
C505 C495 1.510 . S
C505 H503 0.959 . S
C505 H504 0.961 . S
C505 H506 0.960 . S
H506 C505 0.960 . S
H507 N487 0.862 . S
O508 Co476 1.920 . S
O508 C481 1.289 . S
C509 O501 1.258 . S
C509 O502 1.266 . S
Co510 O513 1.970 . S
Co510 N527 1.989 . S
Co510 O535 1.967 1_455 S
Co510 O542 1.920 . S
Co511 O514 1.966 . S
Co511 N520 2.022 . S
Co511 N528 1.993 1_655 S
Co511 O536 1.941 . S
C512 O513 1.258 . S
C512 O514 1.263 1_455 S
O513 Co510 1.970 . S
O513 C512 1.258 . S
O514 Co511 1.966 . S
O514 C512 1.263 1_655 S
C515 O516 1.235 . S
C515 O542 1.289 . S
O516 C515 1.235 . S
C517 C519 1.400 . S
C517 N520 1.351 . S
C517 C522 1.501 . S
C518 C519 1.387 . S
C518 N521 1.341 . S
C519 C517 1.400 . S
C519 C518 1.387 . S
N520 Co511 2.022 . S
N520 C517 1.351 . S
N520 N521 1.365 . S
N521 C518 1.341 . S
N521 N520 1.365 . S
N521 H541 0.862 . S
C522 C517 1.501 . S
C522 H523 0.961 . S
C522 H524 0.953 1_655 S
C522 H525 0.960 . S
H523 C522 0.961 . S
H524 C522 0.953 1_455 S
H525 C522 0.960 . S
C526 N527 1.342 . S
C526 C530 1.401 . S
C526 C531 1.499 . S
N527 Co510 1.989 . S
N527 C526 1.342 . S
N527 N528 1.388 . S
N528 Co511 1.993 1_455 S
N528 N527 1.388 . S
N528 C529 1.346 . S
C529 N528 1.346 . S
C529 C530 1.396 . S
C529 C539 1.510 . S
C530 C526 1.401 . S
C530 C529 1.396 . S
C531 C526 1.499 . S
C531 H532 0.959 . S
C531 H533 0.960 . S
C531 H534 0.961 . S
H532 C531 0.959 . S
H533 C531 0.960 . S
H534 C531 0.961 . S
O535 Co510 1.967 1_655 S
O535 C543 1.258 . S
O536 Co511 1.941 . S
O536 C543 1.266 . S
H537 C539 0.959 . S
H538 C539 0.961 . S
C539 C529 1.510 . S
C539 H537 0.959 . S
C539 H538 0.961 . S
C539 H540 0.960 . S
H540 C539 0.960 . S
H541 N521 0.862 . S
O542 Co510 1.920 . S
O542 C515 1.289 . S
C543 O535 1.258 . S
C543 O536 1.266 . S
Co544 O547 1.970 . S
Co544 N561 1.989 . S
Co544 O569 1.967 . S
Co544 O576 1.920 . S
Co545 O548 1.966 . S
Co545 N554 2.022 . S
Co545 N562 1.993 . S
Co545 O570 1.941 . S
C546 O547 1.258 . S
C546 O548 1.263 . S
O547 Co544 1.970 . S
O547 C546 1.258 . S
O548 Co545 1.966 . S
O548 C546 1.263 . S
C549 O550 1.235 . S
C549 O576 1.289 . S
O550 C549 1.235 . S
C551 C553 1.400 . S
C551 N554 1.351 . S
C551 C556 1.501 . S
C552 C553 1.387 . S
C552 N555 1.341 . S
C553 C551 1.400 . S
C553 C552 1.387 . S
N554 Co545 2.022 . S
N554 C551 1.351 . S
N554 N555 1.365 . S
N555 C552 1.341 . S
N555 N554 1.365 . S
N555 H575 0.862 . S
C556 C551 1.501 . S
C556 H557 0.961 . S
C556 H558 0.961 . S
C556 H559 0.960 . S
H557 C556 0.961 . S
H558 C556 0.961 . S
H559 C556 0.960 . S
C560 N561 1.342 . S
C560 C564 1.401 . S
C560 C565 1.499 . S
N561 Co544 1.989 . S
N561 C560 1.342 . S
N561 N562 1.388 . S
N562 Co545 1.993 . S
N562 N561 1.388 . S
N562 C563 1.346 . S
C563 N562 1.346 . S
C563 C564 1.396 . S
C563 C573 1.510 . S
C564 C560 1.401 . S
C564 C563 1.396 . S
C565 C560 1.499 . S
C565 H566 0.959 . S
C565 H567 0.960 . S
C565 H568 0.961 . S
H566 C565 0.959 . S
H567 C565 0.960 . S
H568 C565 0.961 . S
O569 Co544 1.967 . S
O569 C577 1.258 . S
O570 Co545 1.941 . S
O570 C577 1.266 . S
H571 C573 0.959 . S
H572 C573 0.961 . S
C573 C563 1.510 . S
C573 H571 0.959 . S
C573 H572 0.961 . S
C573 H574 0.960 . S
H574 C573 0.960 . S
H575 N555 0.862 . S
O576 Co544 1.920 . S
O576 C549 1.289 . S
C577 O569 1.258 . S
C577 O570 1.266 . S
Co578 O581 1.970 . S
Co578 N595 1.989 . S
Co578 O603 1.967 1_565 S
Co578 O610 1.920 . S
Co579 O582 1.966 . S
Co579 N588 2.022 . S
Co579 N596 1.993 1_545 S
Co579 O604 1.941 . S
C580 O581 1.258 . S
C580 O582 1.263 1_565 S
O581 Co578 1.970 . S
O581 C580 1.258 . S
O582 Co579 1.966 . S
O582 C580 1.263 1_545 S
C583 O584 1.235 . S
C583 O610 1.289 . S
O584 C583 1.235 . S
C585 C587 1.400 . S
C585 N588 1.351 . S
C585 C590 1.501 . S
C586 C587 1.387 . S
C586 N589 1.341 . S
C587 C585 1.400 . S
C587 C586 1.387 . S
N588 Co579 2.022 . S
N588 C585 1.351 . S
N588 N589 1.365 . S
N589 C586 1.341 . S
N589 N588 1.365 . S
N589 H609 0.862 . S
C590 C585 1.501 . S
C590 H591 0.961 . S
C590 H592 0.942 1_545 S
C590 H593 0.960 . S
H591 C590 0.961 . S
H592 C590 0.942 1_565 S
H593 C590 0.960 . S
C594 N595 1.342 . S
C594 C598 1.401 . S
C594 C599 1.499 . S
N595 Co578 1.989 . S
N595 C594 1.342 . S
N595 N596 1.388 . S
N596 Co579 1.993 1_565 S
N596 N595 1.388 . S
N596 C597 1.346 . S
C597 N596 1.346 . S
C597 C598 1.396 . S
C597 C607 1.510 . S
C598 C594 1.401 . S
C598 C597 1.396 . S
C599 C594 1.499 . S
C599 H600 0.959 . S
C599 H601 0.960 . S
C599 H602 0.961 . S
H600 C599 0.959 . S
H601 C599 0.960 . S
H602 C599 0.961 . S
O603 Co578 1.967 1_545 S
O603 C611 1.258 . S
O604 Co579 1.941 . S
O604 C611 1.266 . S
H605 C607 0.959 . S
H606 C607 0.961 . S
C607 C597 1.510 . S
C607 H605 0.959 . S
C607 H606 0.961 . S
C607 H608 0.960 . S
H608 C607 0.960 . S
H609 N589 0.862 . S
O610 Co578 1.920 . S
O610 C583 1.289 . S
C611 O603 1.258 . S
C611 O604 1.266 . S
C612 C613 1.369 . S
C612 C614 1.419 1_554 S
C612 H616 0.930 . S
C613 C612 1.369 . S
C613 C622 1.429 1_554 S
C614 C612 1.419 1_556 S
C614 C615 1.363 . S
C614 H617 0.929 . S
C615 C614 1.363 . S
C615 C621 1.428 . S
H616 C612 0.930 . S
H617 C614 0.929 . S
S618 N619 1.613 . S
S618 N620 1.610 . S
N619 S618 1.613 . S
N619 C622 1.350 . S
N620 S618 1.610 . S
N620 C621 1.351 . S
C621 C615 1.428 . S
C621 N620 1.351 . S
C621 C622 1.434 . S
C622 C613 1.429 1_556 S
C622 N619 1.350 . S
C622 C621 1.434 . S
C623 C624 1.369 . S
C623 C625 1.419 1_554 S
C623 H627 0.930 . S
C624 C623 1.369 . S
C624 C633 1.429 1_554 S
C625 C623 1.419 1_556 S
C625 C626 1.363 . S
C625 H628 0.930 1_556 S
C626 C625 1.363 . S
C626 C632 1.428 . S
H627 C623 0.930 . S
H628 C625 0.930 1_554 S
S629 N630 1.613 . S
S629 N631 1.610 . S
N630 S629 1.613 . S
N630 C633 1.350 . S
N631 S629 1.610 . S
N631 C632 1.351 . S
C632 C626 1.428 . S
C632 N631 1.351 . S
C632 C633 1.434 . S
C633 C624 1.429 1_556 S
C633 N630 1.350 . S
C633 C632 1.434 . S
C634 C635 1.369 1_556 S
C634 C636 1.419 . S
C634 H638 0.930 . S
C635 C634 1.369 1_554 S
C635 C644 1.429 1_554 S
C636 C634 1.419 . S
C636 C637 1.363 . S
C636 H639 0.929 . S
C637 C636 1.363 . S
C637 C643 1.428 . S
H638 C634 0.930 . S
H639 C636 0.929 . S
S640 N641 1.613 1_556 S
S640 N642 1.610 . S
N641 S640 1.613 1_554 S
N641 C644 1.350 1_554 S
N642 S640 1.610 . S
N642 C643 1.351 . S
C643 C637 1.428 . S
C643 N642 1.351 . S
C643 C644 1.434 . S
C644 C635 1.429 1_556 S
C644 N641 1.350 1_556 S
C644 C643 1.434 . S
C645 C646 1.369 . S
C645 C647 1.419 1_554 S
C645 H649 0.930 . S
C646 C645 1.369 . S
C646 C655 1.429 . S
C647 C645 1.419 1_556 S
C647 C648 1.363 . S
C647 H650 0.929 . S
C648 C647 1.363 . S
C648 C654 1.428 1_556 S
H649 C645 0.930 . S
H650 C647 0.929 . S
S651 N652 1.613 . S
S651 N653 1.610 . S
N652 S651 1.613 . S
N652 C655 1.350 . S
N653 S651 1.610 . S
N653 C654 1.351 . S
C654 C648 1.428 1_554 S
C654 N653 1.351 . S
C654 C655 1.434 . S
C655 C646 1.429 . S
C655 N652 1.350 . S
C655 C654 1.434 . S
C656 C657 1.369 1_554 S
C656 C658 1.419 . S
C656 H660 0.930 . S
C657 C656 1.369 1_556 S
C657 C666 1.429 . S
C658 C656 1.419 . S
C658 C659 1.363 . S
C658 H661 0.929 . S
C659 C658 1.363 . S
C659 C665 1.428 . S
H660 C656 0.930 . S
H661 C658 0.929 . S
S662 N663 1.613 . S
S662 N664 1.610 1_556 S
N663 S662 1.613 . S
N663 C666 1.350 . S
N664 S662 1.610 1_554 S
N664 C665 1.351 . S
C665 C659 1.428 . S
C665 N664 1.351 . S
C665 C666 1.434 1_554 S
C666 C657 1.429 . S
C666 N663 1.350 . S
C666 C665 1.434 1_556 S
C667 C668 1.369 . S
C667 C669 1.419 1_554 S
C667 H671 0.930 . S
C668 C667 1.369 . S
C668 C677 1.429 . S
C669 C667 1.419 1_556 S
C669 C670 1.363 . S
C669 H672 0.929 . S
C670 C669 1.363 . S
C670 C676 1.428 1_556 S
H671 C667 0.930 . S
H672 C669 0.929 . S
S673 N674 1.613 . S
S673 N675 1.610 . S
N674 S673 1.613 . S
N674 C677 1.350 . S
N675 S673 1.610 . S
N675 C676 1.351 . S
C676 C670 1.428 1_554 S
C676 N675 1.351 . S
C676 C677 1.434 . S
C677 C668 1.429 . S
C677 N674 1.350 . S
C677 C676 1.434 . S
C678 C679 1.369 . S
C678 C680 1.419 . S
C678 H682 0.930 . S
C679 C678 1.369 . S
C679 C688 1.429 . S
C680 C678 1.419 . S
C680 C681 1.363 . S
C680 H683 0.929 . S
C681 C680 1.363 . S
C681 C687 1.428 1_455 S
H682 C678 0.930 . S
H683 C680 0.929 . S
S684 N685 1.613 . S
S684 N686 1.610 . S
N685 S684 1.613 . S
N685 C688 1.350 1_655 S
N686 S684 1.610 . S
N686 C687 1.351 . S
C687 C681 1.428 1_655 S
C687 N686 1.351 . S
C687 C688 1.434 1_655 S
C688 C679 1.429 . S
C688 N685 1.350 1_455 S
C688 C687 1.434 1_455 S
C689 C690 1.369 . S
C689 C691 1.419 . S
C689 H693 0.930 . S
C690 C689 1.369 . S
C690 C699 1.429 . S
C691 C689 1.419 . S
C691 C692 1.363 . S
C691 H694 0.929 . S
C692 C691 1.363 . S
C692 C698 1.428 . S
H693 C689 0.930 . S
H694 C691 0.929 . S
S695 N696 1.613 . S
S695 N697 1.610 . S
N696 S695 1.613 . S
N696 C699 1.350 . S
N697 S695 1.610 . S
N697 C698 1.351 . S
C698 C692 1.428 . S
C698 N697 1.351 . S
C698 C699 1.434 . S
C699 C690 1.429 . S
C699 N696 1.350 . S
C699 C698 1.434 . S
C700 C701 1.369 . S
C700 C702 1.419 1_565 S
C700 H704 0.930 1_565 S
C701 C700 1.369 . S
C701 C710 1.429 . S
C702 C700 1.419 1_545 S
C702 C703 1.363 1_545 S
C702 H705 0.929 . S
C703 C702 1.363 1_565 S
C703 C709 1.428 . S
H704 C700 0.930 1_545 S
H705 C702 0.929 . S
S706 N707 1.613 . S
S706 N708 1.610 . S
N707 S706 1.613 . S
N707 C710 1.350 . S
N708 S706 1.610 . S
N708 C709 1.351 . S
C709 C703 1.428 . S
C709 N708 1.351 . S
C709 C710 1.434 . S
C710 C701 1.429 . S
C710 N707 1.350 . S
C710 C709 1.434 . S
C711 C712 1.369 . S
C711 C713 1.419 . S
C711 H715 0.930 . S
C712 C711 1.369 . S
C712 C721 1.429 . S
C713 C711 1.419 . S
C713 C714 1.363 . S
C713 H716 0.929 . S
C714 C713 1.363 . S
C714 C720 1.428 . S
H715 C711 0.930 . S
H716 C713 0.929 . S
S717 N718 1.613 . S
S717 N719 1.610 . S
N718 S717 1.613 . S
N718 C721 1.350 . S
N719 S717 1.610 . S
N719 C720 1.351 . S
C720 C714 1.428 . S
C720 N719 1.351 . S
C720 C721 1.434 . S
C721 C712 1.429 . S
C721 N718 1.350 . S
C721 C720 1.434 . S
C722 C723 1.369 . S
C722 C724 1.419 . S
C722 H726 0.930 . S
C723 C722 1.369 . S
C723 C732 1.429 . S
C724 C722 1.419 . S
C724 C725 1.363 . S
C724 H727 0.929 . S
C725 C724 1.363 . S
C725 C731 1.428 . S
H726 C722 0.930 . S
H727 C724 0.929 . S
S728 N729 1.613 . S
S728 N730 1.610 . S
N729 S728 1.613 . S
N729 C732 1.350 . S
N730 S728 1.610 . S
N730 C731 1.351 . S
C731 C725 1.428 . S
C731 N730 1.351 . S
C731 C732 1.434 . S
C732 C723 1.429 . S
C732 N729 1.350 . S
C732 C731 1.434 . S
C733 C734 1.369 . S
C733 C735 1.419 . S
C733 H737 0.930 . S
C734 C733 1.369 . S
C734 C743 1.429 . S
C735 C733 1.419 . S
C735 C736 1.363 . S
C735 H738 0.929 . S
C736 C735 1.363 . S
C736 C742 1.428 . S
H737 C733 0.930 . S
H738 C735 0.929 . S
S739 N740 1.613 . S
S739 N741 1.610 . S
N740 S739 1.613 . S
N740 C743 1.350 . S
N741 S739 1.610 . S
N741 C742 1.351 . S
C742 C736 1.428 . S
C742 N741 1.351 . S
C742 C743 1.434 . S
C743 C734 1.429 . S
C743 N740 1.350 . S
C743 C742 1.434 . S
C744 C745 1.369 . S
C744 C746 1.419 . S
C744 H748 0.930 . S
C745 C744 1.369 . S
C745 C754 1.429 . S
C746 C744 1.419 . S
C746 C747 1.363 . S
C746 H749 0.929 . S
C747 C746 1.363 . S
C747 C753 1.428 . S
H748 C744 0.930 . S
H749 C746 0.929 . S
S750 N751 1.613 . S
S750 N752 1.610 . S
N751 S750 1.613 . S
N751 C754 1.350 . S
N752 S750 1.610 . S
N752 C753 1.351 . S
C753 C747 1.428 . S
C753 N752 1.351 . S
C753 C754 1.434 . S
C754 C745 1.429 . S
C754 N751 1.350 . S
C754 C753 1.434 . S
C755 C756 1.369 . S
C755 C757 1.419 . S
C755 H759 0.930 . S
C756 C755 1.369 . S
C756 C765 1.429 . S
C757 C755 1.419 . S
C757 C758 1.363 . S
C757 H760 0.929 . S
C758 C757 1.363 . S
C758 C764 1.428 . S
H759 C755 0.930 . S
H760 C757 0.929 . S
S761 N762 1.613 . S
S761 N763 1.610 . S
N762 S761 1.613 . S
N762 C765 1.350 . S
N763 S761 1.610 . S
N763 C764 1.351 . S
C764 C758 1.428 . S
C764 N763 1.351 . S
C764 C765 1.434 . S
C765 C756 1.429 . S
C765 N762 1.350 . S
C765 C764 1.434 . S
C766 C767 1.369 . S
C766 C768 1.419 . S
C766 H770 0.930 . S
C767 C766 1.369 . S
C767 C776 1.429 . S
C768 C766 1.419 . S
C768 C769 1.363 . S
C768 H771 0.929 . S
C769 C768 1.363 . S
C769 C775 1.428 . S
H770 C766 0.930 . S
H771 C768 0.929 . S
S772 N773 1.613 . S
S772 N774 1.610 . S
N773 S772 1.613 . S
N773 C776 1.350 . S
N774 S772 1.610 . S
N774 C775 1.351 . S
C775 C769 1.428 . S
C775 N774 1.351 . S
C775 C776 1.434 . S
C776 C767 1.429 . S
C776 N773 1.350 . S
C776 C775 1.434 . S
C777 C778 1.369 . S
C777 C779 1.419 . S
C777 H781 0.930 . S
C778 C777 1.369 . S
C778 C787 1.429 . S
C779 C777 1.419 . S
C779 C780 1.363 . S
C779 H782 0.929 1_655 S
C780 C779 1.363 . S
C780 C786 1.428 . S
H781 C777 0.930 . S
H782 C779 0.929 1_455 S
S783 N784 1.613 . S
S783 N785 1.610 . S
N784 S783 1.613 . S
N784 C787 1.350 . S
N785 S783 1.610 . S
N785 C786 1.351 . S
C786 C780 1.428 . S
C786 N785 1.351 . S
C786 C787 1.434 . S
C787 C778 1.429 . S
C787 N784 1.350 . S
C787 C786 1.434 . S
C788 C789 1.369 . S
C788 C790 1.419 . S
C788 H792 0.930 . S
C789 C788 1.369 . S
C789 C798 1.429 . S
C790 C788 1.419 . S
C790 C791 1.363 . S
C790 H793 0.929 . S
C791 C790 1.363 . S
C791 C797 1.428 . S
H792 C788 0.930 . S
H793 C790 0.929 . S
S794 N795 1.613 . S
S794 N796 1.610 . S
N795 S794 1.613 . S
N795 C798 1.350 . S
N796 S794 1.610 . S
N796 C797 1.351 . S
C797 C791 1.428 . S
C797 N796 1.351 . S
C797 C798 1.434 . S
C798 C789 1.429 . S
C798 N795 1.350 . S
C798 C797 1.434 . S
C799 C800 1.369 . S
C799 C801 1.419 . S
C799 H803 0.930 . S
C800 C799 1.369 . S
C800 C809 1.429 . S
C801 C799 1.419 . S
C801 C802 1.363 . S
C801 H804 0.929 . S
C802 C801 1.363 . S
C802 C808 1.428 . S
H803 C799 0.930 . S
H804 C801 0.929 . S
S805 N806 1.613 . S
S805 N807 1.610 1_565 S
N806 S805 1.613 . S
N806 C809 1.350 1_565 S
N807 S805 1.610 1_545 S
N807 C808 1.351 . S
C808 C802 1.428 . S
C808 N807 1.351 . S
C808 C809 1.434 . S
C809 C800 1.429 . S
C809 N806 1.350 1_545 S
C809 C808 1.434 . S
C810 C811 1.369 . S
C810 C812 1.419 . S
C810 H814 0.930 . S
C811 C810 1.369 . S
C811 C820 1.429 . S
C812 C810 1.419 . S
C812 C813 1.363 . S
C812 H815 0.929 . S
C813 C812 1.363 . S
C813 C819 1.428 . S
H814 C810 0.930 . S
H815 C812 0.929 . S
S816 N817 1.613 . S
S816 N818 1.610 . S
N817 S816 1.613 . S
N817 C820 1.350 . S
N818 S816 1.610 . S
N818 C819 1.351 . S
C819 C813 1.428 . S
C819 N818 1.351 . S
C819 C820 1.434 . S
C820 C811 1.429 . S
C820 N817 1.350 . S
C820 C819 1.434 . S
C821 C822 1.385 . S
C821 C823 1.419 . S
C821 H825 0.930 . S
C822 C821 1.385 . S
C822 C831 1.420 1_545 S
C823 C821 1.419 . S
C823 C824 1.363 1_545 S
C823 H826 0.929 . S
C824 C823 1.363 1_565 S
C824 C830 1.428 . S
H825 C821 0.930 . S
H826 C823 0.929 . S
S827 N828 1.613 . S
S827 N829 1.610 . S
N828 S827 1.613 . S
N828 C831 1.350 . S
N829 S827 1.610 . S
N829 C830 1.351 . S
C830 C824 1.428 . S
C830 N829 1.351 . S
C830 C831 1.434 . S
C831 C822 1.420 1_565 S
C831 N828 1.350 . S
C831 C830 1.434 . S
C832 C833 1.369 . S
C832 C834 1.419 . S
C832 H836 0.930 . S
C833 C832 1.369 . S
C833 C842 1.429 1_455 S
C834 C832 1.419 . S
C834 C835 1.363 1_455 S
C834 H837 0.929 . S
C835 C834 1.363 1_655 S
C835 C841 1.428 . S
H836 C832 0.930 . S
H837 C834 0.929 . S
S838 N839 1.613 . S
S838 N840 1.610 . S
N839 S838 1.613 . S
N839 C842 1.350 . S
N840 S838 1.610 . S
N840 C841 1.351 . S
C841 C835 1.428 . S
C841 N840 1.351 . S
C841 C842 1.434 . S
C842 C833 1.429 1_655 S
C842 N839 1.350 . S
C842 C841 1.434 . S
C843 C844 1.369 . S
C843 C845 1.419 . S
C843 H847 0.930 . S
C844 C843 1.369 . S
C844 C853 1.429 . S
C845 C843 1.419 . S
C845 C846 1.363 . S
C845 H848 0.929 . S
C846 C845 1.363 . S
C846 C852 1.428 . S
H847 C843 0.930 . S
H848 C845 0.929 . S
S849 N850 1.613 . S
S849 N851 1.610 . S
N850 S849 1.613 . S
N850 C853 1.350 . S
N851 S849 1.610 . S
N851 C852 1.351 . S
C852 C846 1.428 . S
C852 N851 1.351 . S
C852 C853 1.434 . S
C853 C844 1.429 . S
C853 N850 1.350 . S
C853 C852 1.434 . S
C854 C855 1.369 1_565 S
C854 C856 1.419 . S
C854 H858 0.930 . S
C855 C854 1.369 1_545 S
C855 C864 1.429 . S
C856 C854 1.419 . S
C856 C857 1.363 . S
C856 H859 0.929 . S
C857 C856 1.363 . S
C857 C863 1.428 1_565 S
H858 C854 0.930 . S
H859 C856 0.929 . S
S860 N861 1.613 . S
S860 N862 1.610 . S
N861 S860 1.613 . S
N861 C864 1.350 . S
N862 S860 1.610 . S
N862 C863 1.351 . S
C863 C857 1.428 1_545 S
C863 N862 1.351 . S
C863 C864 1.434 . S
C864 C855 1.429 . S
C864 N861 1.350 . S
C864 C863 1.434 . S
C865 C866 1.369 . S
C865 C867 1.419 . S
C865 H869 0.930 . S
C866 C865 1.369 . S
C866 C875 1.429 1_655 S
C867 C865 1.419 . S
C867 C868 1.363 1_655 S
C867 H870 0.929 . S
C868 C867 1.363 1_455 S
C868 C874 1.428 . S
H869 C865 0.930 . S
H870 C867 0.929 . S
S871 N872 1.613 . S
S871 N873 1.610 . S
N872 S871 1.613 . S
N872 C875 1.350 . S
N873 S871 1.610 . S
N873 C874 1.351 . S
C874 C868 1.428 . S
C874 N873 1.351 . S
C874 C875 1.434 . S
C875 C866 1.429 1_455 S
C875 N872 1.350 . S
C875 C874 1.434 . S
C876 C877 1.369 . S
C876 C878 1.419 . S
C876 H880 0.930 . S
C877 C876 1.369 . S
C877 C886 1.429 . S
C878 C876 1.419 . S
C878 C879 1.363 . S
C878 H881 0.929 . S
C879 C878 1.363 . S
C879 C885 1.428 . S
H880 C876 0.930 . S
H881 C878 0.929 . S
S882 N883 1.613 . S
S882 N884 1.610 . S
N883 S882 1.613 . S
N883 C886 1.350 . S
N884 S882 1.610 . S
N884 C885 1.351 . S
C885 C879 1.428 . S
C885 N884 1.351 . S
C885 C886 1.434 . S
C886 C877 1.429 . S
C886 N883 1.350 . S
C886 C885 1.434 . S
C887 C888 1.369 . S
C887 C889 1.419 . S
C887 H891 0.930 . S
C888 C887 1.369 . S
C888 C897 1.429 . S
C889 C887 1.419 . S
C889 C890 1.363 . S
C889 H892 0.929 . S
C890 C889 1.363 . S
C890 C896 1.428 . S
H891 C887 0.930 . S
H892 C889 0.929 . S
S893 N894 1.613 . S
S893 N895 1.610 . S
N894 S893 1.613 . S
N894 C897 1.350 . S
N895 S893 1.610 . S
N895 C896 1.351 . S
C896 C890 1.428 . S
C896 N895 1.351 . S
C896 C897 1.434 . S
C897 C888 1.429 . S
C897 N894 1.350 . S
C897 C896 1.434 . S
C898 C899 1.369 . S
C898 C900 1.419 . S
C898 H902 0.930 . S
C899 C898 1.369 . S
C899 C908 1.429 . S
C900 C898 1.419 . S
C900 C901 1.363 . S
C900 H903 0.929 . S
C901 C900 1.363 . S
C901 C907 1.428 . S
H902 C898 0.930 . S
H903 C900 0.929 . S
S904 N905 1.613 . S
S904 N906 1.610 . S
N905 S904 1.613 . S
N905 C908 1.350 . S
N906 S904 1.610 . S
N906 C907 1.351 . S
C907 C901 1.428 . S
C907 N906 1.351 . S
C907 C908 1.434 . S
C908 C899 1.429 . S
C908 N905 1.350 . S
C908 C907 1.434 . S
C909 C910 1.369 . S
C909 C911 1.419 . S
C909 H913 0.930 . S
C910 C909 1.369 . S
C910 C919 1.429 . S
C911 C909 1.419 . S
C911 C912 1.363 . S
C911 H914 0.929 . S
C912 C911 1.363 . S
C912 C918 1.428 . S
H913 C909 0.930 . S
H914 C911 0.929 . S
S915 N916 1.613 . S
S915 N917 1.610 . S
N916 S915 1.613 . S
N916 C919 1.350 . S
N917 S915 1.610 . S
N917 C918 1.351 . S
C918 C912 1.428 . S
C918 N917 1.351 . S
C918 C919 1.434 . S
C919 C910 1.429 . S
C919 N916 1.350 . S
C919 C918 1.434 . S
C920 C921 1.369 . S
C920 C922 1.419 . S
C920 H924 0.930 . S
C921 C920 1.369 . S
C921 C930 1.429 . S
C922 C920 1.419 . S
C922 C923 1.363 . S
C922 H925 0.929 . S
C923 C922 1.363 . S
C923 C929 1.428 . S
H924 C920 0.930 . S
H925 C922 0.929 . S
S926 N927 1.613 . S
S926 N928 1.610 . S
N927 S926 1.613 . S
N927 C930 1.350 . S
N928 S926 1.610 . S
N928 C929 1.351 . S
C929 C923 1.428 . S
C929 N928 1.351 . S
C929 C930 1.434 . S
C930 C921 1.429 . S
C930 N927 1.350 . S
C930 C929 1.434 . S
C931 C932 1.369 . S
C931 C933 1.419 . S
C931 H935 0.930 . S
C932 C931 1.369 . S
C932 C941 1.429 . S
C933 C931 1.419 . S
C933 C934 1.363 . S
C933 H936 0.929 . S
C934 C933 1.363 . S
C934 C940 1.428 . S
H935 C931 0.930 . S
H936 C933 0.929 . S
S937 N938 1.613 . S
S937 N939 1.610 . S
N938 S937 1.613 . S
N938 C941 1.350 . S
N939 S937 1.610 . S
N939 C940 1.351 . S
C940 C934 1.428 . S
C940 N939 1.351 . S
C940 C941 1.434 . S
C941 C932 1.429 . S
C941 N938 1.350 . S
C941 C940 1.434 . S
C942 C943 1.369 . S
C942 C944 1.419 . S
C942 H946 0.930 . S
C943 C942 1.369 . S
C943 C952 1.429 . S
C944 C942 1.419 . S
C944 C945 1.363 . S
C944 H947 0.929 . S
C945 C944 1.363 . S
C945 C951 1.428 . S
H946 C942 0.930 . S
H947 C944 0.929 . S
S948 N949 1.613 . S
S948 N950 1.610 . S
N949 S948 1.613 . S
N949 C952 1.350 . S
N950 S948 1.610 . S
N950 C951 1.351 . S
C951 C945 1.428 . S
C951 N950 1.351 . S
C951 C952 1.434 . S
C952 C943 1.429 . S
C952 N949 1.350 . S
C952 C951 1.434 . S
C953 C954 1.369 . S
C953 C955 1.419 . S
C953 H957 0.930 . S
C954 C953 1.369 . S
C954 C963 1.429 . S
C955 C953 1.419 . S
C955 C956 1.363 . S
C955 H958 0.929 . S
C956 C955 1.363 . S
C956 C962 1.428 . S
H957 C953 0.930 . S
H958 C955 0.929 . S
S959 N960 1.613 . S
S959 N961 1.610 . S
N960 S959 1.613 . S
N960 C963 1.350 . S
N961 S959 1.610 . S
N961 C962 1.351 . S
C962 C956 1.428 . S
C962 N961 1.351 . S
C962 C963 1.434 . S
C963 C954 1.429 . S
C963 N960 1.350 . S
C963 C962 1.434 . S
C964 C965 1.369 . S
C964 C966 1.419 . S
C964 H968 0.930 . S
C965 C964 1.369 . S
C965 C974 1.429 . S
C966 C964 1.419 . S
C966 C967 1.363 . S
C966 H969 0.929 . S
C967 C966 1.363 . S
C967 C973 1.428 . S
H968 C964 0.930 . S
H969 C966 0.929 . S
S970 N971 1.613 . S
S970 N972 1.610 . S
N971 S970 1.613 . S
N971 C974 1.350 . S
N972 S970 1.610 . S
N972 C973 1.351 . S
C973 C967 1.428 . S
C973 N972 1.351 . S
C973 C974 1.434 . S
C974 C965 1.429 . S
C974 N971 1.350 . S
C974 C973 1.434 . S
C975 C976 1.369 . S
C975 C977 1.419 . S
C975 H979 0.930 . S
C976 C975 1.369 . S
C976 C985 1.429 . S
C977 C975 1.419 . S
C977 C978 1.363 . S
C977 H980 0.929 . S
C978 C977 1.363 . S
C978 C984 1.428 . S
H979 C975 0.930 . S
H980 C977 0.929 . S
S981 N982 1.613 . S
S981 N983 1.610 . S
N982 S981 1.613 . S
N982 C985 1.350 . S
N983 S981 1.610 . S
N983 C984 1.351 . S
C984 C978 1.428 . S
C984 N983 1.351 . S
C984 C985 1.434 . S
C985 C976 1.429 . S
C985 N982 1.350 . S
C985 C984 1.434 . S
C986 C987 1.369 . S
C986 C988 1.419 . S
C986 H990 0.930 . S
C987 C986 1.369 . S
C987 C996 1.429 . S
C988 C986 1.419 . S
C988 C989 1.363 . S
C988 H991 0.929 . S
C989 C988 1.363 . S
C989 C995 1.428 . S
H990 C986 0.930 . S
H991 C988 0.929 . S
S992 N993 1.613 . S
S992 N994 1.610 . S
N993 S992 1.613 . S
N993 C996 1.350 . S
N994 S992 1.610 . S
N994 C995 1.351 . S
C995 C989 1.428 . S
C995 N994 1.351 . S
C995 C996 1.434 . S
C996 C987 1.429 . S
C996 N993 1.350 . S
C996 C995 1.434 . S
C997 C998 1.369 . S
C997 C999 1.419 . S
C997 H1001 0.930 . S
C998 C997 1.369 . S
C998 C1007 1.429 . S
C999 C997 1.419 . S
C999 C1000 1.363 . S
C999 H1002 0.929 . S
C1000 C999 1.363 . S
C1000 C1006 1.428 . S
H1001 C997 0.930 . S
H1002 C999 0.929 . S
S1003 N1004 1.613 . S
S1003 N1005 1.610 . S
N1004 S1003 1.613 . S
N1004 C1007 1.350 . S
N1005 S1003 1.610 . S
N1005 C1006 1.351 . S
C1006 C1000 1.428 . S
C1006 N1005 1.351 . S
C1006 C1007 1.434 . S
C1007 C998 1.429 . S
C1007 N1004 1.350 . S
C1007 C1006 1.434 . S
C1008 C1009 1.369 . S
C1008 C1010 1.419 . S
C1008 H1012 0.930 . S
C1009 C1008 1.369 . S
C1009 C1018 1.429 . S
C1010 C1008 1.419 . S
C1010 C1011 1.363 . S
C1010 H1013 0.929 . S
C1011 C1010 1.363 . S
C1011 C1017 1.428 . S
H1012 C1008 0.930 . S
H1013 C1010 0.929 . S
S1014 N1015 1.613 . S
S1014 N1016 1.610 . S
N1015 S1014 1.613 . S
N1015 C1018 1.350 . S
N1016 S1014 1.610 . S
N1016 C1017 1.351 . S
C1017 C1011 1.428 . S
C1017 N1016 1.351 . S
C1017 C1018 1.434 . S
C1018 C1009 1.429 . S
C1018 N1015 1.350 . S
C1018 C1017 1.434 . S
C1019 C1020 1.369 . S
C1019 C1021 1.419 . S
C1019 H1023 0.930 . S
C1020 C1019 1.369 . S
C1020 C1029 1.429 . S
C1021 C1019 1.419 . S
C1021 C1022 1.363 . S
C1021 H1024 0.929 . S
C1022 C1021 1.363 . S
C1022 C1028 1.428 . S
H1023 C1019 0.930 . S
H1024 C1021 0.929 . S
S1025 N1026 1.613 . S
S1025 N1027 1.610 . S
N1026 S1025 1.613 . S
N1026 C1029 1.350 . S
N1027 S1025 1.610 . S
N1027 C1028 1.351 . S
C1028 C1022 1.428 . S
C1028 N1027 1.351 . S
C1028 C1029 1.434 . S
C1029 C1020 1.429 . S
C1029 N1026 1.350 . S
C1029 C1028 1.434 . S
C1030 C1031 1.369 . S
C1030 C1032 1.419 . S
C1030 H1034 0.930 . S
C1031 C1030 1.369 . S
C1031 C1040 1.429 . S
C1032 C1030 1.419 . S
C1032 C1033 1.363 . S
C1032 H1035 0.929 . S
C1033 C1032 1.363 . S
C1033 C1039 1.428 . S
H1034 C1030 0.930 . S
H1035 C1032 0.929 . S
S1036 N1037 1.613 . S
S1036 N1038 1.610 . S
N1037 S1036 1.613 . S
N1037 C1040 1.350 . S
N1038 S1036 1.610 . S
N1038 C1039 1.351 . S
C1039 C1033 1.428 . S
C1039 N1038 1.351 . S
C1039 C1040 1.434 . S
C1040 C1031 1.429 . S
C1040 N1037 1.350 . S
C1040 C1039 1.434 . S
C1041 C1042 1.369 . S
C1041 C1043 1.419 . S
C1041 H1045 0.930 . S
C1042 C1041 1.369 . S
C1042 C1051 1.429 . S
C1043 C1041 1.419 . S
C1043 C1044 1.363 . S
C1043 H1046 0.929 . S
C1044 C1043 1.363 . S
C1044 C1050 1.428 . S
H1045 C1041 0.930 . S
H1046 C1043 0.929 . S
S1047 N1048 1.613 . S
S1047 N1049 1.610 . S
N1048 S1047 1.613 . S
N1048 C1051 1.350 . S
N1049 S1047 1.610 . S
N1049 C1050 1.351 . S
C1050 C1044 1.428 . S
C1050 N1049 1.351 . S
C1050 C1051 1.434 . S
C1051 C1042 1.429 . S
C1051 N1048 1.350 . S
C1051 C1050 1.434 . S
C1052 C1053 1.369 . S
C1052 C1054 1.419 . S
C1052 H1056 0.930 . S
C1053 C1052 1.369 . S
C1053 C1062 1.429 . S
C1054 C1052 1.419 . S
C1054 C1055 1.363 . S
C1054 H1057 0.929 . S
C1055 C1054 1.363 . S
C1055 C1061 1.428 . S
H1056 C1052 0.930 . S
H1057 C1054 0.929 . S
S1058 N1059 1.613 . S
S1058 N1060 1.610 . S
N1059 S1058 1.613 . S
N1059 C1062 1.350 . S
N1060 S1058 1.610 . S
N1060 C1061 1.351 . S
C1061 C1055 1.428 . S
C1061 N1060 1.351 . S
C1061 C1062 1.434 . S
C1062 C1053 1.429 . S
C1062 N1059 1.350 . S
C1062 C1061 1.434 . S
C1063 C1064 1.369 . S
C1063 C1065 1.419 . S
C1063 H1067 0.930 . S
C1064 C1063 1.369 . S
C1064 C1073 1.429 . S
C1065 C1063 1.419 . S
C1065 C1066 1.363 . S
C1065 H1068 0.929 . S
C1066 C1065 1.363 . S
C1066 C1072 1.428 . S
H1067 C1063 0.930 . S
H1068 C1065 0.929 . S
S1069 N1070 1.613 . S
S1069 N1071 1.610 . S
N1070 S1069 1.613 . S
N1070 C1073 1.350 . S
N1071 S1069 1.610 . S
N1071 C1072 1.351 . S
C1072 C1066 1.428 . S
C1072 N1071 1.351 . S
C1072 C1073 1.434 . S
C1073 C1064 1.429 . S
C1073 N1070 1.350 . S
C1073 C1072 1.434 . S
C1074 C1075 1.369 . S
C1074 C1076 1.419 . S
C1074 H1078 0.930 . S
C1075 C1074 1.369 . S
C1075 C1084 1.429 1_655 S
C1076 C1074 1.419 . S
C1076 C1077 1.363 1_655 S
C1076 H1079 0.929 . S
C1077 C1076 1.363 1_455 S
C1077 C1083 1.428 . S
H1078 C1074 0.930 . S
H1079 C1076 0.929 . S
S1080 N1081 1.613 . S
S1080 N1082 1.610 . S
N1081 S1080 1.613 . S
N1081 C1084 1.350 . S
N1082 S1080 1.610 . S
N1082 C1083 1.351 . S
C1083 C1077 1.428 . S
C1083 N1082 1.351 . S
C1083 C1084 1.434 . S
C1084 C1075 1.429 1_455 S
C1084 N1081 1.350 . S
C1084 C1083 1.434 . S
C1085 C1086 1.369 . S
C1085 C1087 1.419 . S
C1085 H1089 0.930 . S
C1086 C1085 1.369 . S
C1086 C1095 1.429 . S
C1087 C1085 1.419 . S
C1087 C1088 1.363 . S
C1087 H1090 0.929 . S
C1088 C1087 1.363 . S
C1088 C1094 1.428 . S
H1089 C1085 0.930 . S
H1090 C1087 0.929 . S
S1091 N1092 1.613 . S
S1091 N1093 1.610 . S
N1092 S1091 1.613 . S
N1092 C1095 1.350 . S
N1093 S1091 1.610 . S
N1093 C1094 1.351 . S
C1094 C1088 1.428 . S
C1094 N1093 1.351 . S
C1094 C1095 1.434 . S
C1095 C1086 1.429 . S
C1095 N1092 1.350 . S
C1095 C1094 1.434 . S
C1096 C1097 1.369 . S
C1096 C1098 1.419 . S
C1096 H1100 0.930 . S
C1097 C1096 1.369 . S
C1097 C1106 1.429 1_545 S
C1098 C1096 1.419 . S
C1098 C1099 1.363 1_545 S
C1098 H1101 0.929 . S
C1099 C1098 1.363 1_565 S
C1099 C1105 1.428 . S
H1100 C1096 0.930 . S
H1101 C1098 0.929 . S
S1102 N1103 1.613 . S
S1102 N1104 1.610 . S
N1103 S1102 1.613 . S
N1103 C1106 1.350 . S
N1104 S1102 1.610 . S
N1104 C1105 1.351 . S
C1105 C1099 1.428 . S
C1105 N1104 1.351 . S
C1105 C1106 1.434 . S
C1106 C1097 1.429 1_565 S
C1106 N1103 1.350 . S
C1106 C1105 1.434 . S
C613 C9 1.407 . S
C615 C156 1.409 . S
C624 C43 1.449 . S
C626 C190 1.451 . S
C635 C77 1.497 . S
C637 C122 1.503 . S
C646 C54 1.411 . S
C648 C111 1.404 . S
C657 C145 1.448 . S
C659 C88 1.453 . S
C668 C20 1.498 . S
C670 C179 1.501 . S
C679 C213 1.478 . S
C681 C360 1.485 . S
C690 C394 1.478 . S
C692 C247 1.470 . S
C701 C281 1.460 . S
C703 C326 1.461 . S
C712 C258 1.472 . S
C714 C315 1.465 . S
C723 C349 1.456 . S
C725 C292 1.461 . S
C734 C224 1.459 . S
C736 C383 1.451 . S
C745 C564 1.469 . S
C747 C417 1.465 . S
C756 C598 1.461 . S
C758 C451 1.453 . S
C767 C530 1.460 . S
C769 C485 1.451 . S
C778 C519 1.480 . S
C780 C462 1.484 . S
C789 C496 1.475 . S
C791 C553 1.469 . S
C800 C428 1.462 . S
C802 C587 1.457 . S
C811 C33 1.437 . S
C813 C379 1.394 . S
C822 C67 1.403 . S
C824 C311 1.377 . S
C833 C345 1.417 . S
C835 C101 1.459 . S
C844 C481 1.391 . S
C846 C135 1.441 . S
C855 C413 1.376 . S
C857 C169 1.417 . S
C866 C447 1.415 . S
C868 C203 1.455 . S
C877 C583 1.395 . S
C879 C237 1.446 . S
C888 C515 1.398 . S
C890 C271 1.448 . S
C899 C305 1.446 . S
C901 C549 1.399 . S
C910 C73 1.346 . S
C912 C339 1.387 . S
C921 C373 1.423 . S
C923 C5 1.372 . S
C932 C407 1.402 . S
C934 C39 1.345 . S
C943 C441 1.393 . S
C945 C175 1.342 . S
C954 C107 1.376 . S
C956 C475 1.422 . S
C965 C509 1.398 . S
C967 C141 1.353 . S
C976 C543 1.445 . S
C978 C277 1.402 . S
C987 C577 1.449 . S
C989 C209 1.399 . S
C998 C611 1.447 . S
C1000 C243 1.394 . S
C1009 C308 2.051 . S
C1011 C2 2.051 . S
C1020 C36 2.094 . S
C1022 C342 2.095 . S
C1031 C70 2.077 . S
C1033 C376 2.079 . S
C1042 C104 2.051 . S
C1044 C410 2.051 . S
C1053 C444 2.094 . S
C1055 C138 2.095 . S
C1064 C172 2.077 . S
C1066 C478 2.079 . S
C1075 C206 2.013 . S
C1077 C512 2.013 . S
C1086 C546 2.023 . S
C1088 C240 2.022 . S
C1097 C274 2.017 . S
C1099 C580 2.017 . S
