# Generated by pormake.
# Topology wjd, (6)-cn, num edge types: 1
# Building blocks:
#     Node 0, Type 0, BuildingBlock: HISSIN_clean_sbu_0, # of connection points: 6
#     Node 1, Type 0, BuildingBlock: HISSIN_clean_sbu_0, # of connection points: 6
#     Node 2, Type 0, BuildingBlock: HISSIN_clean_sbu_0, # of connection points: 6
#     Node 3, Type 0, BuildingBlock: HISSIN_clean_sbu_0, # of connection points: 6
#     Node 4, Type 0, BuildingBlock: HISSIN_clean_sbu_0, # of connection points: 6
#     Node 5, Type 0, BuildingBlock: HISSIN_clean_sbu_0, # of connection points: 6
#     Node 6, Type 0, BuildingBlock: HISSIN_clean_sbu_0, # of connection points: 6
#     Node 7, Type 0, BuildingBlock: HISSIN_clean_sbu_0, # of connection points: 6
#     Node 8, Type 0, BuildingBlock: HISSIN_clean_sbu_0, # of connection points: 6
#     Node 9, Type 0, BuildingBlock: HISSIN_clean_sbu_0, # of connection points: 6
#     Node 10, Type 0, BuildingBlock: HISSIN_clean_sbu_0, # of connection points: 6
#     Node 11, Type 0, BuildingBlock: HISSIN_clean_sbu_0, # of connection points: 6
#     Edge 12, Type (0, 0), BuildingBlock: MIFKUJ_clean_linker_0, # of connection points: 2
#     Edge 13, Type (0, 0), BuildingBlock: MIFKUJ_clean_linker_0, # of connection points: 2
#     Edge 14, Type (0, 0), BuildingBlock: MIFKUJ_clean_linker_0, # of connection points: 2
#     Edge 15, Type (0, 0), BuildingBlock: MIFKUJ_clean_linker_0, # of connection points: 2
#     Edge 16, Type (0, 0), BuildingBlock: MIFKUJ_clean_linker_0, # of connection points: 2
#     Edge 17, Type (0, 0), BuildingBlock: MIFKUJ_clean_linker_0, # of connection points: 2
#     Edge 18, Type (0, 0), BuildingBlock: MIFKUJ_clean_linker_0, # of connection points: 2
#     Edge 19, Type (0, 0), BuildingBlock: MIFKUJ_clean_linker_0, # of connection points: 2
#     Edge 20, Type (0, 0), BuildingBlock: MIFKUJ_clean_linker_0, # of connection points: 2
#     Edge 21, Type (0, 0), BuildingBlock: MIFKUJ_clean_linker_0, # of connection points: 2
#     Edge 22, Type (0, 0), BuildingBlock: MIFKUJ_clean_linker_0, # of connection points: 2
#     Edge 23, Type (0, 0), BuildingBlock: MIFKUJ_clean_linker_0, # of connection points: 2
#     Edge 24, Type (0, 0), BuildingBlock: MIFKUJ_clean_linker_0, # of connection points: 2
#     Edge 25, Type (0, 0), BuildingBlock: MIFKUJ_clean_linker_0, # of connection points: 2
#     Edge 26, Type (0, 0), BuildingBlock: MIFKUJ_clean_linker_0, # of connection points: 2
#     Edge 27, Type (0, 0), BuildingBlock: MIFKUJ_clean_linker_0, # of connection points: 2
#     Edge 28, Type (0, 0), BuildingBlock: MIFKUJ_clean_linker_0, # of connection points: 2
#     Edge 29, Type (0, 0), BuildingBlock: MIFKUJ_clean_linker_0, # of connection points: 2
#     Edge 30, Type (0, 0), BuildingBlock: MIFKUJ_clean_linker_0, # of connection points: 2
#     Edge 31, Type (0, 0), BuildingBlock: MIFKUJ_clean_linker_0, # of connection points: 2
#     Edge 32, Type (0, 0), BuildingBlock: MIFKUJ_clean_linker_0, # of connection points: 2
#     Edge 33, Type (0, 0), BuildingBlock: MIFKUJ_clean_linker_0, # of connection points: 2
#     Edge 34, Type (0, 0), BuildingBlock: MIFKUJ_clean_linker_0, # of connection points: 2
#     Edge 35, Type (0, 0), BuildingBlock: MIFKUJ_clean_linker_0, # of connection points: 2
#     Edge 36, Type (0, 0), BuildingBlock: MIFKUJ_clean_linker_0, # of connection points: 2
#     Edge 37, Type (0, 0), BuildingBlock: MIFKUJ_clean_linker_0, # of connection points: 2
#     Edge 38, Type (0, 0), BuildingBlock: MIFKUJ_clean_linker_0, # of connection points: 2
#     Edge 39, Type (0, 0), BuildingBlock: MIFKUJ_clean_linker_0, # of connection points: 2
#     Edge 40, Type (0, 0), BuildingBlock: MIFKUJ_clean_linker_0, # of connection points: 2
#     Edge 41, Type (0, 0), BuildingBlock: MIFKUJ_clean_linker_0, # of connection points: 2
#     Edge 42, Type (0, 0), BuildingBlock: MIFKUJ_clean_linker_0, # of connection points: 2
#     Edge 43, Type (0, 0), BuildingBlock: MIFKUJ_clean_linker_0, # of connection points: 2
#     Edge 44, Type (0, 0), BuildingBlock: MIFKUJ_clean_linker_0, # of connection points: 2
#     Edge 45, Type (0, 0), BuildingBlock: MIFKUJ_clean_linker_0, # of connection points: 2
#     Edge 46, Type (0, 0), BuildingBlock: MIFKUJ_clean_linker_0, # of connection points: 2
#     Edge 47, Type (0, 0), BuildingBlock: MIFKUJ_clean_linker_0, # of connection points: 2
# Relax obj value: 0.086
# Max RMSD: 0.193
# Mean RMSD: 0.193
data_MOF--net-wjd--node1-HISSIN_clean_sbu_0--edge1-MIFKUJ_clean_linker_0
_symmetry_space_group_name_H-M    P1
_symmetry_Int_Tables_number       1
_symmetry_cell_setting            triclinic
loop_
_symmetry_equiv_pos_as_xyz
'x, y, z'
_cell_length_a     49.425438
_cell_length_b     49.472119
_cell_length_c     71.467878
_cell_angle_alpha  89.725586
_cell_angle_beta   90.181248
_cell_angle_gamma 120.10029
loop_
_atom_site_label
_atom_site_type_symbol
_atom_site_fract_x
_atom_site_fract_y
_atom_site_fract_z
_atom_type_partial_charge
Eu0 Eu 0.36927 0.17326 0.11456 0.0
Eu1 Eu 0.32686 0.09962 0.12918 0.0
C2 C 0.36067 0.15629 0.15834 0.0
C3 C 0.43046 0.26171 0.10836 0.0
C4 C 0.43192 0.27806 0.12475 0.0
C5 C 0.48128 0.30521 0.09918 0.0
C6 C 0.45759 0.30778 0.12819 0.0
C7 C 0.45553 0.27556 0.09569 0.0
C8 C 0.48246 0.32189 0.11536 0.0
C9 C 0.40204 0.23168 0.10351 0.0
O10 O 0.29252 0.11346 0.11806 0.0
O11 O 0.32242 0.16597 0.12316 0.0
C12 C 0.29514 0.14103 0.12022 0.0
O13 O 0.34265 0.14361 0.08929 0.0
O14 O 0.29696 0.06575 0.15032 0.0
O15 O 0.30522 0.04946 0.12421 0.0
O16 O 0.33976 0.09835 0.0994 0.0
C17 C 0.33783 0.11535 0.08602 0.0
O18 O 0.4023 0.15452 0.1152 0.0
O19 O 0.37697 0.11137 0.13453 0.0
O20 O 0.33487 0.13055 0.15391 0.0
O21 O 0.40574 0.20931 0.09671 0.0
O22 O 0.37837 0.22111 0.11495 0.0
O23 O 0.38065 0.17421 0.14543 0.0
C24 C 0.25496 0.0204 0.13736 0.0
C25 C 0.23698 0.029 0.12626 0.0
C26 C 0.20816 0.971 0.14436 0.0
C27 C 0.20479 1.00875 0.12424 0.0
C28 C 0.24035 0.99134 0.14642 0.0
C29 C 0.18997 0.97943 0.13321 0.0
C30 C 0.28883 0.04172 0.13955 0.0
C31 C 0.40228 0.13262 0.12573 0.0
H32 H 0.41301 0.26818 0.13482 0.0
H33 H 0.49985 0.31548 0.0889 0.0
H34 H 0.45792 0.31977 0.1409 0.0
H35 H 0.45489 0.26372 0.08284 0.0
H36 H 0.24789 0.05132 0.11908 0.0
H37 H 0.19745 0.94878 0.15165 0.0
H38 H 0.19162 0.01584 0.11536 0.0
H39 H 0.25385 0.98437 0.1551 0.0
Eu40 Eu 0.79849 0.70187 0.38998 0.0
Eu41 Eu 0.83199 0.66075 0.40165 0.0
C42 C 0.80222 0.68525 0.43138 0.0
C43 C 0.78901 0.77329 0.38404 0.0
C44 C 0.81889 0.7934 0.39136 0.0
C45 C 0.78243 0.81811 0.37829 0.0
C46 C 0.83036 0.82563 0.39233 0.0
C47 C 0.77097 0.78589 0.37741 0.0
C48 C 0.81217 0.83843 0.38594 0.0
C49 C 0.77588 0.73914 0.38426 0.0
O50 O 0.78053 0.62591 0.40031 0.0
O51 O 0.76074 0.65207 0.38339 0.0
C52 C 0.75777 0.62623 0.39087 0.0
O53 O 0.82144 0.69769 0.36393 0.0
O54 O 0.83407 0.6259 0.41973 0.0
O55 O 0.87022 0.65099 0.39909 0.0
O56 O 0.82124 0.65215 0.37062 0.0
C57 C 0.82269 0.67299 0.35848 0.0
O58 O 0.84772 0.73673 0.39954 0.0
O59 O 0.87075 0.7078 0.39285 0.0
O60 O 0.82868 0.68636 0.42732 0.0
O61 O 0.78429 0.72723 0.37077 0.0
O62 O 0.77622 0.72718 0.40048 0.0
O63 O 0.78205 0.67948 0.41803 0.0
C64 C 0.86064 0.60072 0.40768 0.0
C65 C 0.84419 0.58123 0.39259 0.0
C66 C 0.88335 0.56804 0.41435 0.0
C67 C 0.84746 0.55531 0.38836 0.0
C68 C 0.88 0.59378 0.41857 0.0
C69 C 0.86738 0.54858 0.39909 0.0
C70 C 0.85938 0.62923 0.41188 0.0
C71 C 0.87279 0.73479 0.39606 0.0
H72 H 0.83308 0.78409 0.39672 0.0
H73 H 0.76795 0.82709 0.37292 0.0
H74 H 0.85315 0.84037 0.39851 0.0
H75 H 0.74783 0.77075 0.37173 0.0
H76 H 0.82922 0.58631 0.38395 0.0
H77 H 0.89839 0.5633 0.42314 0.0
H78 H 0.83493 0.54096 0.37646 0.0
H79 H 0.89288 0.60853 0.43028 0.0
Eu80 Eu 0.85722 0.2032 0.11268 0.0
Eu81 Eu 0.93086 0.23517 0.12638 0.0
C82 C 0.87506 0.20939 0.1564 0.0
C83 C 0.76867 0.17563 0.10697 0.0
C84 C 0.75203 0.15942 0.12309 0.0
C85 C 0.72561 0.18421 0.09873 0.0
C86 C 0.72241 0.15538 0.12686 0.0
C87 C 0.75516 0.18811 0.09491 0.0
C88 C 0.70866 0.16746 0.11464 0.0
C89 C 0.79869 0.17749 0.10178 0.0
O90 O 0.91675 0.18688 0.11539 0.0
O91 O 0.86456 0.16387 0.12161 0.0
C92 C 0.88951 0.16175 0.11847 0.0
O93 O 0.88778 0.20827 0.08739 0.0
O94 O 0.96839 0.2454 0.14649 0.0
O95 O 0.97962 0.25967 0.11762 0.0
O96 O 0.92775 0.25342 0.09831 0.0
C97 C 0.91426 0.23438 0.08437 0.0
O98 O 0.87439 0.25456 0.11501 0.0
O99 O 0.91902 0.27295 0.13308 0.0
O100 O 0.9015 0.21098 0.15167 0.0
O101 O 0.82104 0.20389 0.0951 0.0
O102 O 0.80939 0.16404 0.11291 0.0
O103 O 0.85688 0.21193 0.14383 0.0
C104 C 1.01105 0.24335 0.133 0.0
C105 C 1.00203 0.21533 0.12345 0.0
C106 C 0.0614 0.2479 0.13969 0.0
C107 C 0.02262 0.20378 0.12192 0.0
C108 C 0.04078 0.25943 0.14118 0.0
C109 C 0.0527 0.22003 0.12991 0.0
C110 C 0.99016 0.25656 0.13373 0.0
C111 C 0.89679 0.27655 0.12519 0.0
H112 H 0.7616 0.14936 0.13269 0.0
H113 H 0.71563 0.19353 0.08889 0.0
H114 H 0.71023 0.14271 0.13936 0.0
H115 H 0.7672 0.20035 0.08227 0.0
H116 H 0.97924 0.20267 0.11689 0.0
H117 H 0.08417 0.2608 0.14625 0.0
H118 H 1.01523 0.18252 0.11409 0.0
H119 H 0.04817 0.28109 0.1486 0.0
Eu120 Eu 0.32981 0.09997 0.38762 0.0
Eu121 Eu 0.36992 0.17377 0.40042 0.0
C122 C 0.34376 0.11799 0.42961 0.0
C123 C 0.25845 0.02016 0.38051 0.0
C124 C 0.23968 0.02725 0.39185 0.0
C125 C 0.2119 0.97299 0.37025 0.0
C126 C 0.20731 1.00711 0.3926 0.0
C127 C 0.24432 0.99305 0.36963 0.0
C128 C 0.19296 0.97956 0.3819 0.0
C129 C 0.29269 0.04075 0.38019 0.0
O130 O 0.40461 0.15698 0.40001 0.0
O131 O 0.37995 0.1127 0.38174 0.0
C132 C 0.40514 0.13485 0.39014 0.0
O133 O 0.33576 0.12849 0.36181 0.0
O134 O 0.4044 0.21006 0.41894 0.0
O135 O 0.37949 0.2217 0.39841 0.0
O136 O 0.38069 0.17363 0.36958 0.0
C137 C 0.36089 0.15466 0.35695 0.0
O138 O 0.29434 0.113 0.39762 0.0
O139 O 0.32283 0.16531 0.39147 0.0
O140 O 0.34329 0.14375 0.4257 0.0
O141 O 0.30387 0.0625 0.36738 0.0
O142 O 0.30592 0.05118 0.39639 0.0
O143 O 0.34962 0.10373 0.4163 0.0
C144 C 0.43101 0.26176 0.40631 0.0
C145 C 0.43798 0.27357 0.38793 0.0
C146 C 0.47789 0.30833 0.41716 0.0
C147 C 0.46441 0.30272 0.38426 0.0
C148 C 0.45137 0.27931 0.42083 0.0
C149 C 0.48456 0.32059 0.39886 0.0
C150 C 0.4018 0.23237 0.41086 0.0
C151 C 0.29596 0.14 0.39464 0.0
H152 H 0.25012 0.04811 0.40038 0.0
H153 H 0.20169 0.95237 0.36152 0.0
H154 H 0.19367 1.01283 0.40191 0.0
H155 H 0.25838 0.98731 0.36069 0.0
H156 H 0.42279 0.26054 0.37641 0.0
H157 H 0.49271 0.32159 0.42875 0.0
H158 H 0.46908 0.31129 0.36999 0.0
H159 H 0.44641 0.27083 0.43513 0.0
Eu160 Eu 0.82912 0.66286 0.11522 0.0
Eu161 Eu 0.7957 0.70373 0.12719 0.0
C162 C 0.82058 0.67457 0.15842 0.0
C163 C 0.85692 0.60215 0.10986 0.0
C164 C 0.86717 0.5978 0.12742 0.0
C165 C 0.85328 0.55369 0.09927 0.0
C166 C 0.87082 0.57187 0.13077 0.0
C167 C 0.8498 0.57969 0.09589 0.0
C168 C 0.8642 0.54963 0.11667 0.0
C169 C 0.85604 0.63101 0.10529 0.0
O170 O 0.84415 0.73868 0.11656 0.0
O171 O 0.86803 0.71036 0.12309 0.0
C172 C 0.86958 0.73705 0.1194 0.0
O173 O 0.82529 0.68842 0.08951 0.0
O174 O 0.78476 0.73051 0.14711 0.0
O175 O 0.77088 0.7275 0.11814 0.0
O176 O 0.77915 0.68304 0.09879 0.0
C177 C 0.79916 0.68811 0.08549 0.0
O178 O 0.77772 0.62789 0.11679 0.0
O179 O 0.75796 0.65385 0.13371 0.0
O180 O 0.81943 0.69935 0.15295 0.0
O181 O 0.83097 0.62803 0.0972 0.0
O182 O 0.86757 0.65346 0.11758 0.0
O183 O 0.819 0.65387 0.14629 0.0
C184 C 0.78785 0.77569 0.13335 0.0
C185 C 0.80892 0.7936 0.11912 0.0
C186 C 0.79187 0.82311 0.14601 0.0
C187 C 0.82091 0.82589 0.11815 0.0
C188 C 0.77966 0.79075 0.14686 0.0
C189 C 0.81242 0.84113 0.13151 0.0
C190 C 0.7742 0.74141 0.13412 0.0
C191 C 0.75507 0.62808 0.12633 0.0
H192 H 0.87291 0.61468 0.13851 0.0
H193 H 0.84834 0.53727 0.08801 0.0
H194 H 0.87892 0.56927 0.1444 0.0
H195 H 0.84223 0.58262 0.08217 0.0
H196 H 0.81586 0.7826 0.10858 0.0
H197 H 0.78526 0.834 0.15678 0.0
H198 H 0.83632 0.83875 0.10666 0.0
H199 H 0.76369 0.77744 0.15805 0.0
Eu200 Eu 0.93188 0.23334 0.38447 0.0
Eu201 Eu 0.85887 0.20302 0.39906 0.0
C202 C 0.91734 0.23593 0.42642 0.0
C203 C 1.00992 0.23781 0.37671 0.0
C204 C 1.0028 0.21276 0.38892 0.0
C205 C 0.05638 0.23693 0.36666 0.0
C206 C 0.02259 0.20021 0.3902 0.0
C207 C 0.03661 0.24953 0.36544 0.0
C208 C 0.04987 0.21239 0.37925 0.0
C209 C 0.99034 0.25256 0.37626 0.0
O210 O 0.87492 0.25371 0.39393 0.0
O211 O 0.92117 0.27186 0.37739 0.0
C212 C 0.89816 0.27534 0.384 0.0
O213 O 0.90132 0.20831 0.35979 0.0
O214 O 0.82452 0.20476 0.41766 0.0
O215 O 0.81061 0.16489 0.39955 0.0
O216 O 0.85701 0.20963 0.36773 0.0
C217 C 0.87481 0.2067 0.35516 0.0
O218 O 0.91767 0.18541 0.39638 0.0
O219 O 0.86497 0.16247 0.39169 0.0
O220 O 0.89073 0.20976 0.42401 0.0
O221 O 0.96814 0.24234 0.36374 0.0
O222 O 0.98094 0.25652 0.39249 0.0
O223 O 0.93075 0.25396 0.41201 0.0
C224 C 0.7717 0.17791 0.40692 0.0
C225 C 0.76035 0.17428 0.38849 0.0
C226 C 0.72422 0.1759 0.41803 0.0
C227 C 0.73095 0.17101 0.38492 0.0
C228 C 0.75349 0.17896 0.4216 0.0
C229 C 0.71241 0.17153 0.39967 0.0
C230 C 0.80134 0.17866 0.41131 0.0
C231 C 0.88999 0.16031 0.39456 0.0
H232 H 0.98229 0.20333 0.39779 0.0
H233 H 0.07687 0.24655 0.35778 0.0
H234 H 1.01697 0.18162 0.4002 0.0
H235 H 0.04243 0.26875 0.35588 0.0
H236 H 0.77397 0.17351 0.37687 0.0
H237 H 0.71046 0.17609 0.42974 0.0
H238 H 0.72274 0.1681 0.3706 0.0
H239 H 0.76167 0.18155 0.43592 0.0
Eu240 Eu 0.11421 0.3216 0.6316 0.0
Eu241 Eu 0.18411 0.36485 0.61147 0.0
C242 C 0.12117 0.3231 0.58634 0.0
C243 C 0.0349 0.25341 0.64537 0.0
C244 C 0.03225 0.2374 0.62868 0.0
C245 C 0.9907 0.20636 0.65807 0.0
C246 C 1.00892 0.20606 0.62669 0.0
C247 C 1.01393 0.23773 0.66001 0.0
C248 C 0.98798 0.19007 0.64142 0.0
C249 C 0.06044 0.2858 0.64803 0.0
O250 O 0.16026 0.39312 0.60959 0.0
O251 O 0.1258 0.37214 0.63412 0.0
C252 C 0.14151 0.39475 0.62191 0.0
O253 O 0.1518 0.33328 0.65301 0.0
O254 O 0.2172 0.40112 0.59226 0.0
O255 O 0.23264 0.37584 0.60988 0.0
O256 O 0.18866 0.38078 0.64169 0.0
C257 C 0.17594 0.36115 0.65573 0.0
O258 O 0.12614 0.28675 0.61981 0.0
O259 O 0.17937 0.31854 0.61961 0.0
O260 O 0.152 0.33703 0.5873 0.0
O261 O 0.08685 0.28885 0.65381 0.0
O262 O 0.06447 0.30575 0.63479 0.0
O263 O 0.10345 0.31872 0.60099 0.0
C264 C 0.27135 0.42668 0.6004 0.0
C265 C 0.27905 0.4435 0.61723 0.0
C266 C 0.32409 0.46161 0.58903 0.0
C267 C 0.30924 0.46913 0.61997 0.0
C268 C 0.294 0.43616 0.5863 0.0
C269 C 0.33231 0.47825 0.60598 0.0
C270 C 0.24079 0.39805 0.59755 0.0
C271 C 0.15438 0.29059 0.61926 0.0
H272 H 0.0485 0.24901 0.61729 0.0
H273 H 0.97476 0.19489 0.6696 0.0
H274 H 1.00775 0.19414 0.61378 0.0
H275 H 1.01575 0.24966 0.67303 0.0
H276 H 0.26195 0.43646 0.62834 0.0
H277 H 0.34098 0.46823 0.57782 0.0
H278 H 0.31476 0.48126 0.63323 0.0
H279 H 0.28855 0.42349 0.57321 0.0
Eu280 Eu 0.21162 0.85468 0.89865 0.0
Eu281 Eu 0.24425 0.92899 0.88544 0.0
C282 C 0.21844 0.87418 0.85518 0.0
C283 C 0.18453 0.76586 0.90462 0.0
C284 C 0.16636 0.74689 0.88969 0.0
C285 C 0.19561 0.72478 0.91378 0.0
C286 C 0.16264 0.71716 0.88696 0.0
C287 C 0.19929 0.75449 0.91653 0.0
C288 C 0.17684 0.70546 0.89913 0.0
C289 C 0.18554 0.7958 0.90897 0.0
O290 O 0.19563 0.91526 0.89578 0.0
O291 O 0.17213 0.86256 0.89088 0.0
C292 C 0.17036 0.88783 0.89343 0.0
O293 O 0.21643 0.88461 0.92417 0.0
O294 O 0.25808 0.96699 0.86501 0.0
O295 O 0.26657 0.97738 0.89452 0.0
O296 O 0.26177 0.92527 0.91362 0.0
C297 C 0.24259 0.91093 0.92743 0.0
O298 O 0.26322 0.87223 0.8975 0.0
O299 O 0.28205 0.91681 0.87933 0.0
O300 O 0.21925 0.9 0.86036 0.0
O301 O 0.21074 0.81823 0.91672 0.0
O302 O 0.17346 0.80645 0.89679 0.0
O303 O 0.22114 0.85573 0.86748 0.0
C304 C 0.25476 1.01022 0.87663 0.0
C305 C 0.22717 1.00387 0.88593 0.0
C306 C 0.26222 0.06081 0.86719 0.0
C307 C 0.21747 0.02606 0.88612 0.0
C308 C 0.27196 0.03865 0.86707 0.0
C309 C 0.23512 0.05505 0.87697 0.0
C310 C 0.26691 0.98841 0.87788 0.0
C311 C 0.28566 0.89492 0.88768 0.0
H312 H 0.15427 0.75462 0.88035 0.0
H313 H 0.20734 0.71687 0.92328 0.0
H314 H 0.14769 0.70293 0.87567 0.0
H315 H 0.21318 0.76832 0.92826 0.0
H316 H 0.21356 0.98207 0.89345 0.0
H317 H 0.27609 0.08255 0.85967 0.0
H318 H 0.19667 0.02083 0.89395 0.0
H319 H 0.29327 0.04398 0.85979 0.0
Eu320 Eu 0.71428 0.7935 0.62974 0.0
Eu321 Eu 0.67244 0.82344 0.61394 0.0
C322 C 0.71322 0.80622 0.58687 0.0
C323 C 0.78484 0.78335 0.63598 0.0
C324 C 0.79965 0.79922 0.61941 0.0
C325 C 0.83422 0.78955 0.64695 0.0
C326 C 0.8315 0.81004 0.6166 0.0
C327 C 0.80237 0.77864 0.64971 0.0
C328 C 0.84924 0.80538 0.63035 0.0
C329 C 0.75151 0.77261 0.6394 0.0
O330 O 0.6375 0.77591 0.6246 0.0
O331 O 0.66699 0.75244 0.62087 0.0
C332 C 0.63958 0.75066 0.62283 0.0
O333 O 0.68383 0.78917 0.65398 0.0
O334 O 0.63419 0.81991 0.59658 0.0
O335 O 0.66387 0.86249 0.61188 0.0
O336 O 0.67415 0.82852 0.64575 0.0
C337 C 0.67501 0.80932 0.65835 0.0
O338 O 0.74189 0.84558 0.63551 0.0
O339 O 0.72268 0.86156 0.61142 0.0
O340 O 0.68526 0.80284 0.58918 0.0
O341 O 0.74575 0.79043 0.65011 0.0
O342 O 0.73301 0.76254 0.62486 0.0
O343 O 0.73187 0.81269 0.60119 0.0
C344 C 0.61104 0.84977 0.60644 0.0
C345 C 0.61029 0.86559 0.62257 0.0
C346 C 0.55983 0.84173 0.59768 0.0
C347 C 0.58468 0.86968 0.6261 0.0
C348 C 0.58548 0.83779 0.59411 0.0
C349 C 0.55921 0.85797 0.61363 0.0
C350 C 0.63887 0.84729 0.60156 0.0
C351 C 0.74413 0.86762 0.62416 0.0
H352 H 0.78662 0.80326 0.60862 0.0
H353 H 0.84718 0.78595 0.65797 0.0
H354 H 0.84211 0.82169 0.60354 0.0
H355 H 0.79145 0.76674 0.66266 0.0
H356 H 0.62961 0.87517 0.63238 0.0
H357 H 0.54083 0.83273 0.58765 0.0
H358 H 0.58481 0.88198 0.63863 0.0
H359 H 0.58557 0.82582 0.58148 0.0
Eu360 Eu 0.17691 0.37061 0.89782 0.0
Eu361 Eu 0.10807 0.32253 0.87874 0.0
C362 C 0.16788 0.36249 0.85301 0.0
C363 C 0.26479 0.43299 0.90466 0.0
C364 C 0.2718 0.45388 0.8896 0.0
C365 C 0.32061 0.45677 0.91104 0.0
C366 C 0.30283 0.47646 0.88561 0.0
C367 C 0.28954 0.43433 0.91511 0.0
C368 C 0.3276 0.47858 0.8965 0.0
C369 C 0.2321 0.41189 0.91079 0.0
O370 O 0.12658 0.29217 0.88991 0.0
O371 O 0.17884 0.32818 0.88817 0.0
C372 C 0.15591 0.29903 0.8891 0.0
O373 O 0.14734 0.34308 0.92299 0.0
O374 O 0.08033 0.28727 0.8579 0.0
O375 O 0.05765 0.30396 0.87664 0.0
O376 O 0.09817 0.31767 0.90945 0.0
C377 C 0.11659 0.32519 0.9241 0.0
O378 O 0.14388 0.38843 0.90307 0.0
O379 O 0.1177 0.37247 0.87554 0.0
O380 O 0.1434 0.33496 0.85604 0.0
O381 O 0.21106 0.41854 0.905 0.0
O382 O 0.22161 0.38185 0.91101 0.0
O383 O 0.18104 0.38277 0.86669 0.0
C384 C 0.03029 0.25046 0.86858 0.0
C385 C 0.03326 0.23585 0.88471 0.0
C386 C 0.9843 0.2017 0.85967 0.0
C387 C 1.0119 0.20431 0.88829 0.0
C388 C 1.00567 0.23324 0.85612 0.0
C389 C 0.9872 0.18677 0.87576 0.0
C390 C 0.05377 0.28307 0.8642 0.0
C391 C 0.12865 0.39257 0.88941 0.0
H392 H 0.25327 0.45338 0.88121 0.0
H393 H 0.33906 0.45789 0.9198 0.0
H394 H 0.30742 0.49262 0.87416 0.0
H395 H 0.28478 0.41864 0.92686 0.0
H396 H 0.05229 0.24878 0.89445 0.0
H397 H 0.96587 0.18885 0.84958 0.0
H398 H 1.01463 0.19374 0.90093 0.0
H399 H 1.00323 0.24406 0.8435 0.0
Eu400 Eu 0.24456 0.92357 0.62284 0.0
Eu401 Eu 0.21024 0.84876 0.61263 0.0
C402 C 0.23828 0.90208 0.58198 0.0
C403 C 0.25356 1.00391 0.62902 0.0
C404 C 0.22437 0.99498 0.62087 0.0
C405 C 0.25862 0.0537 0.6375 0.0
C406 C 0.21261 0.01549 0.62076 0.0
C407 C 0.2704 0.03322 0.63752 0.0
C408 C 0.22981 0.04533 0.62884 0.0
C409 C 0.26718 0.98343 0.62798 0.0
O410 O 0.26156 0.8645 0.61385 0.0
O411 O 0.28274 0.91207 0.62895 0.0
C412 C 0.28494 0.88833 0.6224 0.0
O413 O 0.22253 0.89755 0.64949 0.0
O414 O 0.20646 0.81205 0.59387 0.0
O415 O 0.17291 0.80058 0.61629 0.0
O416 O 0.22138 0.8514 0.6436 0.0
C417 C 0.22082 0.87152 0.65538 0.0
O418 O 0.19495 0.90896 0.6138 0.0
O419 O 0.17193 0.85734 0.62175 0.0
O420 O 0.2119 0.87742 0.58705 0.0
O421 O 0.26074 0.96361 0.64169 0.0
O422 O 0.26525 0.97081 0.61171 0.0
O423 O 0.25968 0.91689 0.59461 0.0
C424 C 0.18264 0.76042 0.60641 0.0
C425 C 0.18668 0.75166 0.62449 0.0
C426 C 0.17377 0.71058 0.59464 0.0
C427 C 0.18388 0.72234 0.62763 0.0
C428 C 0.17647 0.73976 0.59154 0.0
C429 C 0.17713 0.70132 0.61274 0.0
C430 C 0.18262 0.78985 0.60282 0.0
C431 C 0.16991 0.88216 0.61791 0.0
H432 H 0.21098 0.97242 0.6142 0.0
H433 H 0.27222 0.0762 0.64419 0.0
H434 H 0.19054 1.00832 0.61382 0.0
H435 H 0.29289 0.04046 0.64395 0.0
H436 H 0.19153 0.76724 0.63621 0.0
H437 H 0.16812 0.69489 0.58288 0.0
H438 H 0.18697 0.71613 0.6417 0.0
H439 H 0.17303 0.74594 0.57751 0.0
Eu440 Eu 0.67005 0.82591 0.90037 0.0
Eu441 Eu 0.71101 0.79265 0.88804 0.0
C442 C 0.67777 0.81429 0.85672 0.0
C443 C 0.61029 0.85424 0.90814 0.0
C444 C 0.59932 0.85312 0.88982 0.0
C445 C 0.56895 0.86269 0.91983 0.0
C446 C 0.57355 0.85715 0.88654 0.0
C447 C 0.59471 0.85878 0.92308 0.0
C448 C 0.55816 0.86222 0.90152 0.0
C449 C 0.63891 0.85272 0.91199 0.0
O450 O 0.74542 0.84209 0.8974 0.0
O451 O 0.71606 0.86434 0.88993 0.0
C452 C 0.74323 0.86686 0.8934 0.0
O453 O 0.69722 0.82269 0.92542 0.0
O454 O 0.73788 0.78198 0.86806 0.0
O455 O 0.73655 0.76963 0.89721 0.0
O456 O 0.69083 0.77609 0.91659 0.0
C457 C 0.69635 0.79641 0.9297 0.0
O458 O 0.63439 0.77479 0.89755 0.0
O459 O 0.66131 0.7534 0.88321 0.0
O460 O 0.70128 0.81015 0.86119 0.0
O461 O 0.63555 0.82691 0.91918 0.0
O462 O 0.66101 0.86469 0.89945 0.0
O463 O 0.65994 0.81693 0.86941 0.0
C464 C 0.78409 0.78667 0.88114 0.0
C465 C 0.80279 0.81187 0.89299 0.0
C466 C 0.83089 0.78761 0.86987 0.0
C467 C 0.83526 0.8245 0.8935 0.0
C468 C 0.79841 0.77489 0.86946 0.0
C469 C 0.84975 0.81233 0.88208 0.0
C470 C 0.74972 0.77236 0.88101 0.0
C471 C 0.63517 0.75137 0.88936 0.0
H472 H 0.61091 0.84957 0.87804 0.0
H473 H 0.558 0.86694 0.93169 0.0
H474 H 0.56565 0.85625 0.87229 0.0
H475 H 0.60289 0.85995 0.9373 0.0
H476 H 0.79225 0.82151 0.90207 0.0
H477 H 0.84119 0.77804 0.86057 0.0
H478 H 0.84887 0.8433 0.90319 0.0
H479 H 0.78445 0.75567 0.86008 0.0
H480 H 0.04046 0.15934 0.13156 0.0
H481 H 0.07742 0.1405 0.12789 0.0
H482 H 0.15264 0.23528 0.12031 0.0
H483 H 0.11571 0.25415 0.12321 0.0
H484 H 0.15746 0.19805 0.09566 0.0
H485 H 0.14005 0.19482 0.16238 0.0
H486 H 0.10811 0.17881 0.1911 0.0
H487 H 0.0749 0.08238 0.1785 0.0
H488 H 0.10637 0.09783 0.14956 0.0
H489 H 0.29389 0.19538 0.11842 0.0
H490 H 0.24859 0.2024 0.11803 0.0
H491 H 0.18723 0.10254 0.1201 0.0
H492 H 0.23287 0.09516 0.12053 0.0
H493 H 0.17028 0.13478 0.14524 0.0
H494 H 0.19275 0.13877 0.08027 0.0
H495 H 0.2258 0.1553 0.05202 0.0
H496 H 0.25001 0.25049 0.06147 0.0
H497 H 0.21746 0.2346 0.08994 0.0
C498 C 0.06482 0.17617 0.12894 0.0
C499 C 0.07509 0.20833 0.1278 0.0
C500 C 0.086 0.16537 0.12701 0.0
C501 C 0.11795 0.18648 0.12404 0.0
C502 C 0.12816 0.21851 0.12265 0.0
C503 C 0.10703 0.22931 0.12452 0.0
C504 C 0.14093 0.17547 0.12239 0.0
C505 C 0.16038 0.18441 0.10658 0.0
C506 C 0.14413 0.15674 0.13631 0.0
C507 C 0.12527 0.14746 0.15371 0.0
C508 C 0.12574 0.17019 0.16566 0.0
C509 C 0.10776 0.16122 0.18199 0.0
C510 C 0.08941 0.1296 0.18659 0.0
C511 C 0.08908 0.10687 0.1749 0.0
C512 C 0.10699 0.11572 0.15854 0.0
C513 C 0.27083 0.17478 0.11875 0.0
C514 C 0.26708 0.14466 0.11949 0.0
C515 C 0.24489 0.17888 0.11844 0.0
C516 C 0.21449 0.15302 0.11885 0.0
C517 C 0.2105 0.12284 0.11971 0.0
C518 C 0.23659 0.11866 0.11987 0.0
C519 C 0.18725 0.15807 0.11876 0.0
C520 C 0.16702 0.14803 0.13421 0.0
C521 C 0.18333 0.17583 0.10452 0.0
C522 C 0.2028 0.1855 0.08732 0.0
C523 C 0.20529 0.16326 0.0764 0.0
C524 C 0.22391 0.17251 0.06034 0.0
C525 C 0.24003 0.20393 0.05497 0.0
C526 C 0.23751 0.22616 0.06565 0.0
C527 C 0.21894 0.21703 0.08174 0.0
H528 H 0.25445 0.21105 0.04253 0.0
H529 H 0.07551 0.1227 0.19924 0.0
H530 H 0.16213 0.91553 0.38138 0.0
H531 H 0.10598 0.87926 0.38301 0.0
H532 H 0.08925 0.95647 0.38786 0.0
H533 H 0.14557 0.99324 0.38558 0.0
H534 H 0.05423 0.90668 0.41368 0.0
H535 H 0.07356 0.92211 0.34808 0.0
H536 H 0.10083 0.92586 0.31852 0.0
H537 H 0.0773 0.83005 0.32413 0.0
H538 H 0.05029 0.82585 0.35389 0.0
H539 H 0.88879 0.79648 0.40091 0.0
H540 H 0.9411 0.84284 0.39813 0.0
H541 H 0.97991 0.78363 0.3866 0.0
H542 H 0.9283 0.7377 0.38912 0.0
H543 H 1.00133 0.83101 0.36225 0.0
H544 H 0.98786 0.81754 0.42941 0.0
H545 H 0.96135 0.8134 0.45935 0.0
H546 H 0.97395 0.90503 0.45095 0.0
H547 H 1.0002 0.90953 0.42081 0.0
C548 C 0.14662 0.92497 0.3825 0.0
C549 C 0.15855 0.95744 0.38317 0.0
C550 C 0.11447 0.90413 0.38358 0.0
C551 C 0.09343 0.91517 0.38543 0.0
C552 C 0.10511 0.94747 0.38647 0.0
C553 C 0.13735 0.96843 0.38523 0.0
C554 C 0.05927 0.89267 0.38603 0.0
C555 C 0.04244 0.89051 0.4023 0.0
C556 C 0.04402 0.8714 0.37126 0.0
C557 C 0.06009 0.87374 0.3533 0.0
C558 C 0.07441 0.90191 0.34309 0.0
C559 C 0.08979 0.9041 0.32628 0.0
C560 C 0.09085 0.87823 0.31947 0.0
C561 C 0.07647 0.85008 0.32943 0.0
C562 C 0.06109 0.84777 0.34626 0.0
C563 C 0.90849 0.79338 0.39783 0.0
C564 C 0.90422 0.76329 0.3952 0.0
C565 C 0.93839 0.81989 0.39629 0.0
C566 C 0.96447 0.81672 0.39216 0.0
C567 C 0.96017 0.78673 0.38968 0.0
C568 C 0.93052 0.76039 0.39121 0.0
C569 C 0.99643 0.84428 0.39015 0.0
C570 C 1.0129 0.84747 0.37354 0.0
C571 C 1.01128 0.86636 0.40464 0.0
C572 C 0.99562 0.86371 0.42276 0.0
C573 C 0.98474 0.83669 0.43387 0.0
C574 C 0.96981 0.8343 0.45089 0.0
C575 C 0.96587 0.85889 0.45702 0.0
C576 C 0.97695 0.88597 0.44616 0.0
C577 C 0.99187 0.88846 0.42912 0.0
H578 H 0.95431 0.857 0.4702 0.0
H579 H 0.10276 0.87998 0.30645 0.0
H580 H 0.83854 0.10716 0.12925 0.0
H581 H 0.83269 0.05544 0.1311 0.0
H582 H 0.92688 0.09223 0.11091 0.0
H583 H 0.93315 0.14478 0.10904 0.0
H584 H 0.88166 0.03435 0.09382 0.0
H585 H 0.91597 0.07659 0.15447 0.0
H586 H 0.91712 0.10365 0.18357 0.0
H587 H 0.82333 0.03156 0.1962 0.0
H588 H 0.82126 1.0045 0.16691 0.0
H589 H 0.87058 0.88777 0.11998 0.0
H590 H 0.88924 0.9437 0.117 0.0
H591 H 0.80069 0.9286 0.13734 0.0
H592 H 0.78137 0.87265 0.13972 0.0
H593 H 0.85189 0.97839 0.15475 0.0
H594 H 0.81601 0.94015 0.09219 0.0
H595 H 0.81457 0.9134 0.06285 0.0
H596 H 0.91231 0.97791 0.05422 0.0
H597 H 0.91441 1.0048 0.08365 0.0
C598 C 0.85812 0.10447 0.12512 0.0
C599 C 0.8864 0.13028 0.11904 0.0
C600 C 0.8547 0.07478 0.12625 0.0
C601 C 0.8794 0.06999 0.1213 0.0
C602 C 0.90754 0.09546 0.11483 0.0
C603 C 0.91111 0.12545 0.11384 0.0
C604 C 0.87536 0.03825 0.12328 0.0
C605 C 0.87583 0.02231 0.1072 0.0
C606 C 0.86731 0.0224 0.14071 0.0
C607 C 0.86838 0.03863 0.15837 0.0
C608 C 0.89544 0.06667 0.16333 0.0
C609 C 0.89626 0.08203 0.17987 0.0
C610 C 0.87027 0.06942 0.19169 0.0
C611 C 0.8434 0.04141 0.187 0.0
C612 C 0.8424 0.02604 0.17042 0.0
C613 C 0.85487 0.8962 0.12362 0.0
C614 C 0.82437 0.87546 0.13011 0.0
C615 C 0.86568 0.92826 0.12198 0.0
C616 C 0.84633 0.94031 0.1269 0.0
C617 C 0.81609 0.91983 0.13356 0.0
C618 C 0.80515 0.88779 0.13503 0.0
C619 C 0.85741 0.97425 0.12524 0.0
C620 C 0.85822 0.99058 0.14142 0.0
C621 C 0.86671 0.99041 0.10793 0.0
C622 C 0.86546 0.97424 0.09024 0.0
C623 C 0.83726 0.94844 0.08413 0.0
C624 C 0.83631 0.9333 0.06746 0.0
C625 C 0.86336 0.94388 0.05672 0.0
C626 C 0.89139 0.9697 0.06258 0.0
C627 C 0.89247 0.98491 0.07925 0.0
H628 H 0.86258 0.93215 0.04382 0.0
H629 H 0.87102 0.08132 0.20451 0.0
H630 H 0.23448 0.09323 0.39906 0.0
H631 H 0.18784 0.09888 0.39892 0.0
H632 H 0.24621 0.19818 0.39025 0.0
H633 H 0.29248 0.19292 0.3906 0.0
H634 H 0.20291 0.18595 0.41661 0.0
H635 H 0.20497 0.14752 0.354 0.0
H636 H 0.20458 0.10865 0.33232 0.0
H637 H 0.11679 0.0381 0.35503 0.0
H638 H 0.11683 0.07654 0.37696 0.0
H639 H 0.11385 0.24621 0.37928 0.0
H640 H 0.15045 0.22736 0.38376 0.0
H641 H 0.07348 0.1331 0.38975 0.0
H642 H 0.03647 0.15169 0.38454 0.0
H643 H 0.11952 0.13425 0.36882 0.0
H644 H 0.1129 0.17334 0.42803 0.0
H645 H 0.11249 0.21082 0.45046 0.0
H646 H 0.20737 0.27773 0.43606 0.0
H647 H 0.20821 0.24083 0.4133 0.0
C648 C 0.23734 0.11626 0.39718 0.0
C649 C 0.26729 0.1426 0.39481 0.0
C650 C 0.21065 0.11943 0.39704 0.0
C651 C 0.2135 0.14897 0.39448 0.0
C652 C 0.24338 0.17518 0.39232 0.0
C653 C 0.26989 0.17206 0.39244 0.0
C654 C 0.18573 0.15319 0.39383 0.0
C655 C 0.18475 0.17475 0.40611 0.0
C656 C 0.16134 0.13767 0.38062 0.0
C657 C 0.16105 0.11479 0.36722 0.0
C658 C 0.18567 0.12368 0.35441 0.0
C659 C 0.1855 0.10174 0.34208 0.0
C660 C 0.16072 0.07091 0.34233 0.0
C661 C 0.13598 0.06198 0.35487 0.0
C662 C 0.13605 0.08384 0.36723 0.0
C663 C 0.10458 0.22139 0.38126 0.0
C664 C 0.07212 0.20051 0.38153 0.0
C665 C 0.1256 0.21067 0.38405 0.0
C666 C 0.11475 0.17885 0.38741 0.0
C667 C 0.0824 0.15777 0.38731 0.0
C668 C 0.06128 0.1685 0.38447 0.0
C669 C 0.13746 0.16802 0.39111 0.0
C670 C 0.1374 0.14515 0.3795 0.0
C671 C 0.16081 0.18211 0.40507 0.0
C672 C 0.16054 0.20436 0.41886 0.0
C673 C 0.13362 0.19612 0.42955 0.0
C674 C 0.13331 0.21726 0.44234 0.0
C675 C 0.15987 0.24666 0.44466 0.0
C676 C 0.18681 0.25495 0.43423 0.0
C677 C 0.18723 0.23391 0.4214 0.0
H678 H 0.15959 0.26299 0.45457 0.0
H679 H 0.16065 0.05395 0.3328 0.0
H680 H 0.16016 0.91619 0.12789 0.0
H681 H 0.10432 0.88016 0.12359 0.0
H682 H 0.08642 0.95672 0.12799 0.0
H683 H 0.14239 0.99294 0.13283 0.0
H684 H 0.04383 0.90623 0.14778 0.0
H685 H 0.08392 0.92589 0.08577 0.0
H686 H 0.1196 0.93126 0.06015 0.0
H687 H 0.09225 0.83441 0.06579 0.0
H688 H 0.05674 0.82855 0.09165 0.0
H689 H 0.88473 0.79889 0.1191 0.0
H690 H 0.93748 0.84517 0.11913 0.0
H691 H 0.97774 0.78544 0.11786 0.0
H692 H 0.92574 0.73957 0.11777 0.0
H693 H 1.00701 0.83417 0.09355 0.0
H694 H 0.97266 0.81751 0.15843 0.0
H695 H 0.93698 0.81239 0.18401 0.0
H696 H 0.9532 0.90454 0.17218 0.0
H697 H 0.98871 0.91003 0.14636 0.0
C698 C 0.14437 0.92539 0.12813 0.0
C699 C 0.15582 0.9575 0.13069 0.0
C700 C 0.11244 0.90478 0.12547 0.0
C701 C 0.09118 0.91578 0.1252 0.0
C702 C 0.10239 0.94773 0.12804 0.0
C703 C 0.13442 0.96842 0.13066 0.0
C704 C 0.0573 0.89366 0.12205 0.0
C705 C 0.03569 0.89091 0.13572 0.0
C706 C 0.04661 0.87352 0.10638 0.0
C707 C 0.06781 0.87685 0.09075 0.0
C708 C 0.08567 0.90578 0.08164 0.0
C709 C 0.10584 0.90891 0.06706 0.0
C710 C 0.10823 0.8832 0.06137 0.0
C711 C 0.09039 0.8543 0.07022 0.0
C712 C 0.0702 0.85106 0.08483 0.0
C713 C 0.90486 0.7957 0.1187 0.0
C714 C 0.90098 0.7655 0.11854 0.0
C715 C 0.93496 0.82213 0.11878 0.0
C716 C 0.96157 0.81874 0.1186 0.0
C717 C 0.95761 0.78866 0.11798 0.0
C718 C 0.92775 0.7624 0.11803 0.0
C719 C 0.99378 0.84612 0.11955 0.0
C720 C 1.01509 0.84989 0.10543 0.0
C721 C 1.00412 0.86723 0.13475 0.0
C722 C 0.98302 0.86403 0.15035 0.0
C723 C 0.96843 0.83658 0.1612 0.0
C724 C 0.94828 0.83363 0.17576 0.0
C725 C 0.94275 0.85808 0.17968 0.0
C726 C 0.95745 0.88559 0.1691 0.0
C727 C 0.9776 0.88864 0.15452 0.0
H728 H 0.92713 0.85575 0.19095 0.0
H729 H 0.12386 0.88567 0.05008 0.0
H730 H 0.77878 0.8671 0.39506 0.0
H731 H 0.79717 0.92293 0.39653 0.0
H732 H 0.89045 0.94362 0.38259 0.0
H733 H 0.87211 0.88759 0.38067 0.0
H734 H 0.88971 0.98219 0.41111 0.0
H735 H 0.84832 0.95047 0.34945 0.0
H736 H 0.80925 0.91761 0.32583 0.0
H737 H 0.74335 0.94066 0.34904 0.0
H738 H 0.78189 0.97331 0.37299 0.0
H739 H 0.93545 0.14369 0.3918 0.0
H740 H 0.92746 0.09055 0.39049 0.0
H741 H 0.82824 0.05249 0.3979 0.0
H742 H 0.8359 0.10497 0.39878 0.0
H743 H 0.83789 0.02412 0.37026 0.0
H744 H 0.87809 0.05308 0.43329 0.0
H745 H 0.9172 0.08613 0.45687 0.0
H746 H 0.98546 0.06894 0.43108 0.0
H747 H 0.94686 0.03612 0.40718 0.0
C748 C 0.80316 0.88341 0.3921 0.0
C749 C 0.82382 0.87267 0.3875 0.0
C750 C 0.8137 0.9154 0.39309 0.0
C751 C 0.84514 0.9375 0.38949 0.0
C752 C 0.8661 0.927 0.38544 0.0
C753 C 0.85554 0.89492 0.38438 0.0
C754 C 0.85556 0.97145 0.38935 0.0
C755 C 0.87874 0.99152 0.402 0.0
C756 C 0.84112 0.9836 0.37757 0.0
C757 C 0.81792 0.96414 0.36311 0.0
C758 C 0.82542 0.94835 0.34961 0.0
C759 C 0.80338 0.92979 0.33614 0.0
C760 C 0.77382 0.927 0.33596 0.0
C761 C 0.76626 0.94283 0.34921 0.0
C762 C 0.7882 0.96139 0.36272 0.0
C763 C 0.912 0.12396 0.39332 0.0
C764 C 0.88631 0.12863 0.39529 0.0
C765 C 0.90745 0.09357 0.3926 0.0
C766 C 0.8772 0.06739 0.3941 0.0
C767 C 0.85177 0.0722 0.39655 0.0
C768 C 0.85623 0.10234 0.39709 0.0
C769 C 0.87131 0.03482 0.39248 0.0
C770 C 0.84905 0.01496 0.37935 0.0
C771 C 0.8866 0.02299 0.40384 0.0
C772 C 0.90968 0.0424 0.41833 0.0
C773 C 0.9015 0.05652 0.43257 0.0
C774 C 0.92356 0.07518 0.44601 0.0
C775 C 0.9538 0.07967 0.44545 0.0
C776 C 0.96203 0.06546 0.43148 0.0
C777 C 0.94007 0.04681 0.41799 0.0
H778 H 0.97083 0.09409 0.45588 0.0
H779 H 0.75678 0.91262 0.32552 0.0
H780 H 0.26429 0.10829 0.62246 0.0
H781 H 0.24629 0.14599 0.6214 0.0
H782 H 0.15149 0.07201 0.63074 0.0
H783 H 0.16943 0.03396 0.63226 0.0
H784 H 0.15618 0.11441 0.60287 0.0
H785 H 0.18864 0.11721 0.666 0.0
H786 H 0.22377 0.12032 0.6915 0.0
H787 H 0.2935 0.2116 0.6727 0.0
H788 H 0.25896 0.20885 0.64689 0.0
H789 H 0.1092 0.22844 0.62158 0.0
H790 H 0.11715 0.18341 0.62334 0.0
H791 H 0.2168 0.24504 0.6186 0.0
H792 H 0.20919 0.28996 0.61708 0.0
H793 H 0.20348 0.20433 0.64648 0.0
H794 H 0.17207 0.19913 0.58174 0.0
H795 H 0.13656 0.19573 0.55636 0.0
H796 H 0.06391 0.10877 0.57878 0.0
H797 H 0.09894 0.11183 0.6044 0.0
C798 C 0.23965 0.09996 0.62455 0.0
C799 C 0.21842 0.06807 0.62773 0.0
C800 C 0.22936 0.12157 0.6238 0.0
C801 C 0.1976 0.11188 0.6262 0.0
C802 C 0.17611 0.07999 0.62886 0.0
C803 C 0.18643 0.05829 0.6297 0.0
C804 C 0.18732 0.13542 0.62627 0.0
C805 C 0.16608 0.13381 0.6126 0.0
C806 C 0.20045 0.16086 0.63885 0.0
C807 C 0.22129 0.16271 0.65441 0.0
C808 C 0.21156 0.13785 0.66721 0.0
C809 C 0.23135 0.13956 0.68174 0.0
C810 C 0.26087 0.16611 0.6837 0.0
C811 C 0.27063 0.19104 0.67116 0.0
C812 C 0.25094 0.18943 0.65658 0.0
C813 C 0.13279 0.23238 0.62079 0.0
C814 C 0.15856 0.26288 0.61924 0.0
C815 C 0.13728 0.20659 0.62174 0.0
C816 C 0.16759 0.21081 0.62104 0.0
C817 C 0.19322 0.24118 0.61925 0.0
C818 C 0.18878 0.26688 0.61833 0.0
C819 C 0.17306 0.18393 0.62272 0.0
C820 C 0.19334 0.18484 0.63682 0.0
C821 C 0.15895 0.15787 0.61057 0.0
C822 C 0.138 0.15588 0.59509 0.0
C823 C 0.14845 0.17939 0.58132 0.0
C824 C 0.12843 0.1775 0.56688 0.0
C825 C 0.09797 0.15209 0.56599 0.0
C826 C 0.08751 0.12845 0.5795 0.0
C827 C 0.10744 0.13024 0.59397 0.0
H828 H 0.08251 0.15068 0.5548 0.0
H829 H 0.27616 0.1674 0.69496 0.0
H830 H 0.15441 0.93339 0.89898 0.0
H831 H 0.10192 0.92722 0.89704 0.0
H832 H 0.06293 0.82934 0.88481 0.0
H833 H 0.11464 0.83515 0.88666 0.0
H834 H 0.04122 0.85652 0.8609 0.0
H835 H 0.05544 0.85313 0.92767 0.0
H836 H 0.08211 0.87379 0.95784 0.0
H837 H 0.06922 0.95304 0.95203 0.0
H838 H 0.04283 0.93303 0.92168 0.0
H839 H 0.88058 0.77932 0.88007 0.0
H840 H 0.9367 0.79914 0.8815 0.0
H841 H 0.95357 0.89275 0.88901 0.0
H842 H 0.89722 0.87326 0.88699 0.0
H843 H 0.98889 0.87668 0.91371 0.0
H844 H 0.96901 0.87617 0.84833 0.0
H845 H 0.94144 0.85416 0.81859 0.0
H846 H 0.9648 0.78156 0.82189 0.0
H847 H 0.99211 0.80285 0.85183 0.0
C848 C 0.13462 0.91056 0.89595 0.0
C849 C 0.13886 0.8848 0.89298 0.0
C850 C 0.10463 0.90706 0.89488 0.0
C851 C 0.07845 0.87778 0.89077 0.0
C852 C 0.08273 0.85217 0.88789 0.0
C853 C 0.11245 0.85558 0.88904 0.0
C854 C 0.04642 0.87332 0.88917 0.0
C855 C 0.02978 0.86084 0.87248 0.0
C856 C 0.03172 0.87978 0.90407 0.0
C857 C 0.04755 0.89181 0.9223 0.0
C858 C 0.05856 0.87511 0.93274 0.0
C859 C 0.07356 0.88667 0.94989 0.0
C860 C 0.07746 0.91477 0.95681 0.0
C861 C 0.06626 0.93132 0.94663 0.0
C862 C 0.05127 0.91988 0.92945 0.0
C863 C 0.89611 0.8042 0.88175 0.0
C864 C 0.88419 0.82466 0.88323 0.0
C865 C 0.92826 0.81547 0.8827 0.0
C866 C 0.94936 0.84745 0.88523 0.0
C867 C 0.93769 0.86797 0.88709 0.0
C868 C 0.90543 0.85673 0.88599 0.0
C869 C 0.98354 0.85908 0.88563 0.0
C870 C 1.00055 0.87289 0.90203 0.0
C871 C 0.99865 0.85379 0.87048 0.0
C872 C 0.98243 0.84099 0.8524 0.0
C873 C 0.96808 0.85537 0.8428 0.0
C874 C 0.95252 0.84304 0.82589 0.0
C875 C 0.95132 0.81644 0.81837 0.0
C876 C 0.96574 0.80215 0.82774 0.0
C877 C 0.98129 0.81437 0.84467 0.0
H878 H 0.93927 0.80693 0.80528 0.0
H879 H 0.08907 0.92367 0.9701 0.0
H880 H 0.78647 0.89317 0.65291 0.0
H881 H 0.82915 0.94736 0.65589 0.0
H882 H 0.8052 0.96935 0.60208 0.0
H883 H 0.76252 0.91545 0.59902 0.0
H884 H 0.86901 0.99464 0.60642 0.0
H885 H 0.78269 0.98866 0.64033 0.0
H886 H 0.74082 0.96877 0.66398 0.0
H887 H 0.80892 0.99457 0.70781 0.0
H888 H 0.85118 0.01382 0.68438 0.0
H889 H 0.95051 0.16052 0.61119 0.0
H890 H 0.91071 0.10533 0.60828 0.0
H891 H 0.93085 0.08828 0.66446 0.0
H892 H 0.97052 0.14347 0.66749 0.0
H893 H 0.86981 0.05979 0.65921 0.0
H894 H 0.95634 0.06588 0.62536 0.0
H895 H 0.99827 0.08653 0.60169 0.0
H896 H 0.93013 0.06147 0.55794 0.0
H897 H 0.88781 0.04104 0.58137 0.0
C898 C 0.7904 0.90949 0.64166 0.0
C899 C 0.77097 0.89997 0.62576 0.0
C900 C 0.81474 0.94048 0.64341 0.0
C901 C 0.82024 0.96248 0.62926 0.0
C902 C 0.8014 0.95281 0.61318 0.0
C903 C 0.7769 0.92198 0.6115 0.0
C904 C 0.84515 0.99573 0.63131 0.0
C905 C 0.86905 1.00899 0.61787 0.0
C906 C 0.84553 0.01429 0.64645 0.0
C907 C 0.82009 1.0023 0.66056 0.0
C908 C 0.78873 0.9897 0.65499 0.0
C909 C 0.76491 0.97857 0.66836 0.0
C910 C 0.77219 0.98029 0.68738 0.0
C911 C 0.80331 0.99316 0.69306 0.0
C912 C 0.8272 1.00411 0.67974 0.0
C913 C 0.94665 0.14497 0.62287 0.0
C914 C 0.96374 0.15644 0.63957 0.0
C915 C 0.92388 0.11338 0.62119 0.0
C916 C 0.91798 0.09246 0.63607 0.0
C917 C 0.93491 0.1039 0.65278 0.0
C918 C 0.95754 0.13551 0.65451 0.0
C919 C 0.89382 0.05877 0.63436 0.0
C920 C 0.86996 0.04543 0.64784 0.0
C921 C 0.89352 0.04013 0.61928 0.0
C922 C 0.91892 0.05218 0.60514 0.0
C923 C 0.95031 0.06496 0.6107 0.0
C924 C 0.97415 0.0766 0.59732 0.0
C925 C 0.96688 0.07538 0.57833 0.0
C926 C 0.93574 0.06243 0.57266 0.0
C927 C 0.91181 0.05079 0.58598 0.0
H928 H 0.98537 0.08441 0.56799 0.0
H929 H 0.75372 0.97175 0.69771 0.0
H930 H 0.11486 0.2358 0.88838 0.0
H931 H 0.12715 0.1938 0.88652 0.0
H932 H 0.22571 0.26175 0.88702 0.0
H933 H 0.21364 0.30391 0.88853 0.0
H934 H 0.21366 0.21928 0.86107 0.0
H935 H 0.18754 0.21646 0.92594 0.0
H936 H 0.15464 0.21335 0.95267 0.0
H937 H 0.08215 0.12332 0.9342 0.0
H938 H 0.11447 0.12607 0.90721 0.0
H939 H 0.27337 0.11843 0.88066 0.0
H940 H 0.2585 0.1585 0.88255 0.0
H941 H 0.16121 0.08769 0.87843 0.0
H942 H 0.1759 0.04734 0.87617 0.0
H943 H 0.17107 0.13033 0.90576 0.0
H944 H 0.19805 0.13301 0.84118 0.0
H945 H 0.23136 0.13631 0.81466 0.0
H946 H 0.30278 0.22704 0.83287 0.0
H947 H 0.27005 0.2241 0.85967 0.0
C948 C 0.13918 0.24186 0.88818 0.0
C949 C 0.16325 0.27332 0.88864 0.0
C950 C 0.14617 0.21775 0.88719 0.0
C951 C 0.17739 0.2245 0.88681 0.0
C952 C 0.20144 0.25588 0.88728 0.0
C953 C 0.19448 0.28 0.88821 0.0
C954 C 0.18507 0.19899 0.88554 0.0
C955 C 0.20466 0.20007 0.87101 0.0
C956 C 0.17272 0.1734 0.89819 0.0
C957 C 0.1533 0.17162 0.91445 0.0
C958 C 0.16449 0.1961 0.9275 0.0
C959 C 0.14596 0.19439 0.94271 0.0
C960 C 0.11629 0.1682 0.9451 0.0
C961 C 0.10512 0.14362 0.93231 0.0
C962 C 0.12354 0.14523 0.91707 0.0
C963 C 0.2488 0.1113 0.87987 0.0
C964 C 0.22589 0.07954 0.87809 0.0
C965 C 0.24033 0.1343 0.88105 0.0
C966 C 0.20874 0.12619 0.88045 0.0
C967 C 0.18574 0.09453 0.87894 0.0
C968 C 0.1942 0.07146 0.8777 0.0
C969 C 0.19984 0.15082 0.88139 0.0
C970 C 0.18001 0.14954 0.89582 0.0
C971 C 0.21203 0.17629 0.86869 0.0
C972 C 0.23171 0.1782 0.85254 0.0
C973 C 0.22096 0.15356 0.83962 0.0
C974 C 0.23972 0.15538 0.82452 0.0
C975 C 0.2692 0.18183 0.8221 0.0
C976 C 0.27995 0.20655 0.83477 0.0
C977 C 0.26129 0.20483 0.84991 0.0
H978 H 0.28369 0.1832 0.8104 0.0
H979 H 0.10199 0.16691 0.95688 0.0
H980 H 0.15216 0.92353 0.60465 0.0
H981 H 0.09898 0.91575 0.60376 0.0
H982 H 0.06376 0.8261 0.63076 0.0
H983 H 0.11609 0.83332 0.63135 0.0
H984 H 0.02803 0.82122 0.60187 0.0
H985 H 0.0749 0.89339 0.65429 0.0
H986 H 0.11488 0.94339 0.66799 0.0
H987 H 0.08951 0.99361 0.62927 0.0
H988 H 0.04954 0.94387 0.61524 0.0
H989 H 0.88187 0.77608 0.63997 0.0
H990 H 0.93733 0.79465 0.63552 0.0
H991 H 0.94917 0.8784 0.60902 0.0
H992 H 0.89368 0.86051 0.61414 0.0
H993 H 0.99761 0.89195 0.63233 0.0
H994 H 0.94622 0.82054 0.58276 0.0
H995 H 0.90669 0.77129 0.56816 0.0
H996 H 0.94143 0.72076 0.5995 0.0
H997 H 0.98081 0.76964 0.61455 0.0
C998 C 0.13305 0.90225 0.61046 0.0
C999 C 0.13841 0.879 0.61798 0.0
C1000 C 0.10268 0.89785 0.60997 0.0
C1001 C 0.07729 0.87031 0.61722 0.0
C1002 C 0.08283 0.84742 0.62494 0.0
C1003 C 0.11291 0.85166 0.62531 0.0
C1004 C 0.04467 0.86452 0.61673 0.0
C1005 C 0.02138 0.83662 0.60864 0.0
C1006 C 0.03606 0.88517 0.62485 0.0
C1007 C 0.05946 0.91496 0.63362 0.0
C1008 C 0.07793 0.91511 0.64867 0.0
C1009 C 0.10057 0.94339 0.65649 0.0
C1010 C 0.10478 0.97166 0.64947 0.0
C1011 C 0.08624 0.9717 0.63468 0.0
C1012 C 0.06356 0.94347 0.62681 0.0
C1013 C 0.89625 0.79863 0.63339 0.0
C1014 C 0.88317 0.81674 0.6274 0.0
C1015 C 0.92797 0.8091 0.63068 0.0
C1016 C 0.94741 0.83775 0.62169 0.0
C1017 C 0.93463 0.85616 0.61591 0.0
C1018 C 0.90281 0.84573 0.61868 0.0
C1019 C 0.9809 0.84796 0.61822 0.0
C1020 C 1.00429 0.87672 0.62539 0.0
C1021 C 0.98973 0.82821 0.60911 0.0
C1022 C 0.96637 0.79877 0.59988 0.0
C1023 C 0.94532 0.79891 0.58663 0.0
C1024 C 0.92294 0.77105 0.57826 0.0
C1025 C 0.92153 0.74291 0.58292 0.0
C1026 C 0.94255 0.74258 0.59591 0.0
C1027 C 0.96493 0.77036 0.60435 0.0
H1028 H 0.90419 0.72137 0.57643 0.0
H1029 H 0.12237 0.99353 0.65551 0.0
H1030 H 0.92382 0.15519 0.87016 0.0
H1031 H 0.88683 0.09996 0.87564 0.0
H1032 H 0.96178 0.08662 0.89559 0.0
H1033 H 0.99928 0.14184 0.88947 0.0
H1034 H 0.92301 0.03899 0.87331 0.0
H1035 H 0.91148 0.08957 0.92638 0.0
H1036 H 0.90453 0.12867 0.94368 0.0
H1037 H 0.81489 0.09544 0.91776 0.0
H1038 H 0.82151 0.05646 0.90006 0.0
H1039 H 0.80381 0.88449 0.90354 0.0
H1040 H 0.8493 0.93763 0.90362 0.0
H1041 H 0.79162 0.9735 0.88233 0.0
H1042 H 0.74641 0.92117 0.88256 0.0
H1043 H 0.82704 1.00874 0.9102 0.0
H1044 H 0.84372 0.96264 0.85407 0.0
H1045 H 0.85103 0.92268 0.83805 0.0
H1046 H 0.93174 0.94651 0.87202 0.0
H1047 H 0.92474 0.98649 0.88832 0.0
C1048 C 0.93257 0.14052 0.87555 0.0
C1049 C 0.96458 0.15307 0.8794 0.0
C1050 C 0.91131 0.10895 0.87886 0.0
C1051 C 0.92142 0.08916 0.88629 0.0
C1052 C 0.95339 0.10144 0.88995 0.0
C1053 C 0.97475 0.1331 0.8866 0.0
C1054 C 0.89838 0.05572 0.89017 0.0
C1055 C 0.90228 0.03235 0.88164 0.0
C1056 C 0.87133 0.04694 0.90108 0.0
C1057 C 0.8671 0.07021 0.91179 0.0
C1058 C 0.89038 0.09074 0.92427 0.0
C1059 C 0.88649 0.11286 0.93415 0.0
C1060 C 0.85931 0.11457 0.93179 0.0
C1061 C 0.83594 0.0941 0.91956 0.0
C1062 C 0.83973 0.07196 0.90962 0.0
C1063 C 0.8009 0.90373 0.89886 0.0
C1064 C 0.7714 0.89852 0.89309 0.0
C1065 C 0.82693 0.93408 0.89886 0.0
C1066 C 0.82394 0.95962 0.89291 0.0
C1067 C 0.79455 0.95428 0.88709 0.0
C1068 C 0.76865 0.9242 0.88718 0.0
C1069 C 0.85098 0.99213 0.89268 0.0
C1070 C 0.84793 0.01537 0.90203 0.0
C1071 C 0.87886 1.00068 0.88269 0.0
C1072 C 0.88355 0.97732 0.87251 0.0
C1073 C 0.86297 0.95928 0.85815 0.0
C1074 C 0.86706 0.93665 0.84902 0.0
C1075 C 0.89179 0.93201 0.85405 0.0
C1076 C 0.91259 0.95013 0.86814 0.0
C1077 C 0.9086 0.97281 0.87731 0.0
H1078 H 0.89486 0.91441 0.84701 0.0
H1079 H 0.85634 0.13172 0.93946 0.0
H1080 H 0.40647 0.20863 0.33983 0.0
H1081 H 0.41643 0.21822 0.30604 0.0
H1082 H 0.33951 0.12587 0.29459 0.0
H1083 H 0.32936 0.1162 0.32788 0.0
H1084 H 0.39272 0.13898 0.27497 0.0
H1085 H 0.33096 0.18813 0.28897 0.0
H1086 H 0.3208 0.22614 0.30506 0.0
H1087 H 0.4059 0.30177 0.28272 0.0
H1088 H 0.41676 0.26413 0.26669 0.0
H1089 H 0.32643 0.12072 0.18781 0.0
H1090 H 0.33739 0.13046 0.22096 0.0
H1091 H 0.42008 0.21848 0.20867 0.0
H1092 H 0.40939 0.2088 0.17489 0.0
H1093 H 0.37892 0.21805 0.23987 0.0
H1094 H 0.43532 0.16807 0.22115 0.0
H1095 H 0.44336 0.12924 0.20438 0.0
H1096 H 0.36843 0.05514 0.23543 0.0
H1097 H 0.35955 0.09348 0.25218 0.0
C1098 C 0.39165 0.19045 0.33008 0.0
C1099 C 0.36707 0.16167 0.33663 0.0
C1100 C 0.39736 0.19597 0.31079 0.0
C1101 C 0.37874 0.17271 0.29778 0.0
C1102 C 0.35429 0.1441 0.30434 0.0
C1103 C 0.34843 0.1387 0.32346 0.0
C1104 C 0.38419 0.17747 0.27725 0.0
C1105 C 0.38987 0.15639 0.26732 0.0
C1106 C 0.38145 0.20078 0.26726 0.0
C1107 C 0.37489 0.22333 0.27686 0.0
C1108 C 0.34765 0.21285 0.28764 0.0
C1109 C 0.34173 0.23433 0.29672 0.0
C1110 C 0.36275 0.26635 0.29497 0.0
C1111 C 0.38969 0.27696 0.2841 0.0
C1112 C 0.39573 0.25557 0.27502 0.0
C1113 C 0.34693 0.14234 0.19197 0.0
C1114 C 0.36712 0.16393 0.17856 0.0
C1115 C 0.35315 0.14781 0.21102 0.0
C1116 C 0.37964 0.17504 0.21728 0.0
C1117 C 0.3995 0.19728 0.20409 0.0
C1118 C 0.3934 0.19167 0.18483 0.0
C1119 C 0.38641 0.1789 0.23767 0.0
C1120 C 0.38286 0.20137 0.24756 0.0
C1121 C 0.39118 0.1569 0.2477 0.0
C1122 C 0.39669 0.13369 0.23788 0.0
C1123 C 0.42042 0.14349 0.22433 0.0
C1124 C 0.42514 0.12156 0.21483 0.0
C1125 C 0.40641 0.08975 0.21883 0.0
C1126 C 0.38294 0.0798 0.23236 0.0
C1127 C 0.37808 0.10163 0.24188 0.0
H1128 H 0.41009 0.0728 0.21145 0.0
H1129 H 0.35812 0.28294 0.302 0.0
H1130 H 0.83013 0.7137 0.33048 0.0
H1131 H 0.82926 0.70585 0.29692 0.0
H1132 H 0.8186 0.61479 0.30597 0.0
H1133 H 0.81955 0.62249 0.34002 0.0
H1134 H 0.86091 0.6496 0.27617 0.0
H1135 H 0.75624 0.6163 0.29442 0.0
H1136 H 0.71435 0.6198 0.31088 0.0
H1137 H 0.73651 0.7032 0.28016 0.0
H1138 H 0.77889 0.70049 0.26372 0.0
H1139 H 0.82013 0.62504 0.17683 0.0
H1140 H 0.82015 0.61719 0.21084 0.0
H1141 H 0.82545 0.7058 0.22005 0.0
H1142 H 0.82535 0.71376 0.18651 0.0
H1143 H 0.77992 0.66002 0.24094 0.0
H1144 H 0.88882 0.69665 0.22604 0.0
H1145 H 0.93141 0.69382 0.20996 0.0
H1146 H 0.90065 0.60342 0.23422 0.0
H1147 H 0.8576 0.60556 0.25026 0.0
C1148 C 0.82777 0.69198 0.32548 0.0
C1149 C 0.8246 0.66859 0.33805 0.0
C1150 C 0.82725 0.68755 0.3062 0.0
C1151 C 0.8234 0.65956 0.29891 0.0
C1152 C 0.82148 0.63653 0.31131 0.0
C1153 C 0.82197 0.64096 0.33075 0.0
C1154 C 0.82014 0.6545 0.27832 0.0
C1155 C 0.84282 0.65117 0.26845 0.0
C1156 C 0.79663 0.65673 0.26823 0.0
C1157 C 0.77088 0.65827 0.27791 0.0
C1158 C 0.75232 0.6355 0.29125 0.0
C1159 C 0.72847 0.63733 0.30058 0.0
C1160 C 0.7228 0.66173 0.29659 0.0
C1161 C 0.74093 0.68431 0.28323 0.0
C1162 C 0.76485 0.68261 0.27389 0.0
C1163 C 0.82154 0.64293 0.18612 0.0
C1164 C 0.82262 0.66997 0.17886 0.0
C1165 C 0.82158 0.63842 0.20555 0.0
C1166 C 0.82272 0.66089 0.21802 0.0
C1167 C 0.82433 0.68803 0.21075 0.0
C1168 C 0.82437 0.69257 0.19147 0.0
C1169 C 0.8214 0.65635 0.23869 0.0
C1170 C 0.79769 0.65781 0.24861 0.0
C1171 C 0.84388 0.6523 0.24874 0.0
C1172 C 0.86978 0.65109 0.23915 0.0
C1173 C 0.89098 0.67605 0.22781 0.0
C1174 C 0.91523 0.6746 0.21874 0.0
C1175 C 0.91867 0.64841 0.22102 0.0
C1176 C 0.89792 0.62366 0.23243 0.0
C1177 C 0.8736 0.62499 0.24153 0.0
H1178 H 0.93746 0.64733 0.21398 0.0
H1179 H 0.70433 0.66312 0.30382 0.0
H1180 H 0.8984 0.18886 0.18404 0.0
H1181 H 0.8871 0.18453 0.21739 0.0
H1182 H 0.82125 0.21629 0.20821 0.0
H1183 H 0.83249 0.22068 0.17446 0.0
H1184 H 0.86124 0.24655 0.23796 0.0
H1185 H 0.79367 0.1426 0.21926 0.0
H1186 H 0.77645 0.0924 0.20345 0.0
H1187 H 0.84199 0.07867 0.23575 0.0
H1188 H 0.86019 0.12917 0.25146 0.0
H1189 H 0.83147 0.2173 0.33722 0.0
H1190 H 0.82066 0.21407 0.30344 0.0
H1191 H 0.88739 0.18364 0.29408 0.0
H1192 H 0.89818 0.18669 0.32748 0.0
H1193 H 0.83413 0.14983 0.2735 0.0
H1194 H 0.90677 0.25951 0.28782 0.0
H1195 H 0.92189 0.30913 0.30392 0.0
H1196 H 0.84281 0.31046 0.27992 0.0
H1197 H 0.82697 0.2606 0.2639 0.0
C1198 C 0.88134 0.19479 0.18901 0.0
C1199 C 0.86635 0.20513 0.17653 0.0
C1200 C 0.8748 0.19215 0.20813 0.0
C1201 C 0.85314 0.19984 0.21534 0.0
C1202 C 0.83798 0.21013 0.20296 0.0
C1203 C 0.84431 0.21247 0.18368 0.0
C1204 C 0.84749 0.19789 0.23589 0.0
C1205 C 0.85459 0.22521 0.24571 0.0
C1206 C 0.83893 0.1701 0.24606 0.0
C1207 C 0.82844 0.13984 0.23647 0.0
C1208 C 0.80468 0.12907 0.22286 0.0
C1209 C 0.79472 0.10054 0.21392 0.0
C1210 C 0.80815 0.08239 0.21857 0.0
C1211 C 0.83163 0.09278 0.23214 0.0
C1212 C 0.84179 0.12137 0.24107 0.0
C1213 C 0.84354 0.20959 0.32796 0.0
C1214 C 0.86582 0.20242 0.33507 0.0
C1215 C 0.83746 0.2079 0.30866 0.0
C1216 C 0.8534 0.19884 0.29618 0.0
C1217 C 0.87478 0.19068 0.30338 0.0
C1218 C 0.88103 0.19258 0.32254 0.0
C1219 C 0.84907 0.19872 0.27554 0.0
C1220 C 0.84011 0.17098 0.26571 0.0
C1221 C 0.85568 0.22603 0.2654 0.0
C1222 C 0.86547 0.25615 0.27486 0.0
C1223 C 0.89248 0.27027 0.2861 0.0
C1224 C 0.9012 0.29845 0.29519 0.0
C1225 C 0.88325 0.31286 0.293 0.0
C1226 C 0.85664 0.29921 0.28164 0.0
C1227 C 0.84778 0.27101 0.27255 0.0
H1228 H 0.88997 0.33463 0.30006 0.0
H1229 H 0.80026 0.06023 0.2117 0.0
H1230 H 0.1713 0.32243 0.68393 0.0
H1231 H 0.1795 0.3341 0.7172 0.0
H1232 H 0.21259 0.43134 0.70556 0.0
H1233 H 0.20466 0.41975 0.6718 0.0
H1234 H 0.24455 0.41773 0.73736 0.0
H1235 H 0.14285 0.39461 0.71675 0.0
H1236 H 0.0939 0.36497 0.69885 0.0
H1237 H 0.07185 0.28194 0.72995 0.0
H1238 H 0.12096 0.31096 0.74781 0.0
H1239 H 0.20178 0.42063 0.83613 0.0
H1240 H 0.21198 0.43119 0.80234 0.0
H1241 H 0.1687 0.33224 0.79205 0.0
H1242 H 0.15847 0.32167 0.82526 0.0
H1243 H 0.14317 0.35903 0.77069 0.0
H1244 H 0.24725 0.38055 0.78846 0.0
H1245 H 0.2972 0.40906 0.80556 0.0
H1246 H 0.3147 0.49512 0.78006 0.0
H1247 H 0.26462 0.46714 0.76299 0.0
C1248 C 0.18094 0.34646 0.68834 0.0
C1249 C 0.18699 0.37011 0.67525 0.0
C1250 C 0.1857 0.3531 0.70739 0.0
C1251 C 0.19624 0.38349 0.7139 0.0
C1252 C 0.20446 0.40773 0.70083 0.0
C1253 C 0.19991 0.40108 0.68157 0.0
C1254 C 0.19472 0.38832 0.73431 0.0
C1255 C 0.22237 0.40552 0.74468 0.0
C1256 C 0.16578 0.3723 0.74385 0.0
C1257 C 0.13569 0.35495 0.73356 0.0
C1258 C 0.12763 0.37 0.71972 0.0
C1259 C 0.09986 0.3533 0.70957 0.0
C1260 C 0.0798 0.32158 0.71324 0.0
C1261 C 0.08741 0.30652 0.72712 0.0
C1262 C 0.1152 0.32309 0.73728 0.0
C1263 C 0.19504 0.40126 0.82665 0.0
C1264 C 0.179 0.3703 0.83337 0.0
C1265 C 0.2008 0.40729 0.80736 0.0
C1266 C 0.19078 0.38245 0.79461 0.0
C1267 C 0.1763 0.35178 0.80153 0.0
C1268 C 0.1705 0.34578 0.8206 0.0
C1269 C 0.19312 0.38738 0.77395 0.0
C1270 C 0.16539 0.37194 0.76346 0.0
C1271 C 0.22194 0.4051 0.76443 0.0
C1272 C 0.25202 0.42183 0.77464 0.0
C1273 C 0.26161 0.40559 0.78664 0.0
C1274 C 0.28998 0.42164 0.79629 0.0
C1275 C 0.30906 0.4539 0.79395 0.0
C1276 C 0.29986 0.47015 0.78189 0.0
C1277 C 0.2715 0.45421 0.77222 0.0
H1278 H 0.33101 0.46628 0.80144 0.0
H1279 H 0.05834 0.30867 0.70534 0.0
H1280 H 0.21397 0.82247 0.83745 0.0
H1281 H 0.20967 0.81212 0.80364 0.0
H1282 H 0.21208 0.8993 0.79334 0.0
H1283 H 0.21565 0.90939 0.82667 0.0
H1284 H 0.16857 0.85545 0.77264 0.0
H1285 H 0.27714 0.88921 0.78759 0.0
H1286 H 0.31894 0.88497 0.8039 0.0
H1287 H 0.285 0.79359 0.78073 0.0
H1288 H 0.24275 0.79715 0.76447 0.0
H1289 H 0.22216 0.90976 0.68312 0.0
H1290 H 0.21758 0.90044 0.71664 0.0
H1291 H 0.2088 0.81013 0.70824 0.0
H1292 H 0.21384 0.81948 0.67425 0.0
H1293 H 0.24804 0.84224 0.73806 0.0
H1294 H 0.14462 0.81371 0.71872 0.0
H1295 H 0.1047 0.82031 0.70185 0.0
H1296 H 0.12983 0.90347 0.73321 0.0
H1297 H 0.17022 0.89764 0.75008 0.0
C1298 C 0.21344 0.83933 0.82796 0.0
C1299 C 0.21515 0.86676 0.83486 0.0
C1300 C 0.21111 0.83345 0.80862 0.0
C1301 C 0.21072 0.85502 0.79587 0.0
C1302 C 0.21216 0.88218 0.80282 0.0
C1303 C 0.21431 0.88796 0.82199 0.0
C1304 C 0.20908 0.85011 0.77522 0.0
C1305 C 0.18599 0.85259 0.76511 0.0
C1306 C 0.23112 0.84531 0.76533 0.0
C1307 C 0.25658 0.84328 0.77502 0.0
C1308 C 0.27846 0.86812 0.78609 0.0
C1309 C 0.30225 0.86586 0.79531 0.0
C1310 C 0.30456 0.83899 0.7934 0.0
C1311 C 0.28314 0.81436 0.78223 0.0
C1312 C 0.25928 0.81649 0.77301 0.0
C1313 C 0.21919 0.8878 0.68825 0.0
C1314 C 0.2181 0.86524 0.67587 0.0
C1315 C 0.21649 0.88249 0.70752 0.0
C1316 C 0.2123 0.85436 0.71498 0.0
C1317 C 0.21183 0.83194 0.70277 0.0
C1318 C 0.21462 0.83728 0.68336 0.0
C1319 C 0.20835 0.84894 0.73556 0.0
C1320 C 0.23023 0.84441 0.74563 0.0
C1321 C 0.18529 0.85203 0.74547 0.0
C1322 C 0.16055 0.85528 0.73562 0.0
C1323 C 0.14173 0.83348 0.72197 0.0
C1324 C 0.11901 0.83709 0.7124 0.0
C1325 C 0.11475 0.86231 0.71644 0.0
C1326 C 0.13314 0.88393 0.7301 0.0
C1327 C 0.15591 0.88045 0.73969 0.0
H1328 H 0.09718 0.86509 0.709 0.0
H1329 H 0.32299 0.83728 0.80055 0.0
H1330 H 0.67017 0.85597 0.67629 0.0
H1331 H 0.66276 0.85985 0.70995 0.0
H1332 H 0.6555 0.77016 0.71894 0.0
H1333 H 0.66247 0.76599 0.68561 0.0
H1334 H 0.6148 0.77485 0.74058 0.0
H1335 H 0.72371 0.83725 0.72593 0.0
H1336 H 0.77026 0.87861 0.70982 0.0
H1337 H 0.75132 0.9481 0.73174 0.0
H1338 H 0.70425 0.90701 0.74772 0.0
H1339 H 0.6918 0.78746 0.82816 0.0
H1340 H 0.68305 0.78997 0.79471 0.0
H1341 H 0.64153 0.84684 0.80573 0.0
H1342 H 0.64943 0.84371 0.83958 0.0
H1343 H 0.70063 0.86386 0.77467 0.0
H1344 H 0.59176 0.79534 0.79271 0.0
H1345 H 0.55028 0.75037 0.80993 0.0
H1346 H 0.57507 0.68891 0.78237 0.0
H1347 H 0.61704 0.73365 0.76517 0.0
C1348 C 0.66652 0.8369 0.68542 0.0
C1349 C 0.66723 0.81082 0.67825 0.0
C1350 C 0.66242 0.83919 0.70467 0.0
C1351 C 0.65888 0.81542 0.71705 0.0
C1352 C 0.65814 0.7888 0.70974 0.0
C1353 C 0.66236 0.78657 0.69062 0.0
C1354 C 0.6579 0.81871 0.73773 0.0
C1355 C 0.63344 0.79451 0.74798 0.0
C1356 C 0.68218 0.84429 0.74751 0.0
C1357 C 0.71022 0.86904 0.73778 0.0
C1358 C 0.72926 0.86132 0.72714 0.0
C1359 C 0.75576 0.8847 0.71806 0.0
C1360 C 0.76367 0.91594 0.71971 0.0
C1361 C 0.74509 0.92387 0.73043 0.0
C1362 C 0.71848 0.90054 0.73949 0.0
C1363 C 0.68072 0.80047 0.82354 0.0
C1364 C 0.67138 0.81547 0.83653 0.0
C1365 C 0.6757 0.80181 0.80441 0.0
C1366 C 0.66168 0.81856 0.79779 0.0
C1367 C 0.65234 0.83372 0.81062 0.0
C1368 C 0.65677 0.83184 0.82991 0.0
C1369 C 0.65752 0.82019 0.77734 0.0
C1370 C 0.68136 0.84496 0.76717 0.0
C1371 C 0.63307 0.79486 0.76764 0.0
C1372 C 0.6077 0.76788 0.77779 0.0
C1373 C 0.58856 0.77228 0.79046 0.0
C1374 C 0.56491 0.74683 0.80018 0.0
C1375 C 0.56007 0.71681 0.79727 0.0
C1376 C 0.57885 0.71218 0.7846 0.0
C1377 C 0.60254 0.73757 0.77485 0.0
H1378 H 0.54172 0.69714 0.80479 0.0
H1379 H 0.78429 0.93397 0.71274 0.0
H1380 H 0.29933 0.95719 0.93884 0.0
H1381 H 0.31208 0.98994 0.9663 0.0
H1382 H 0.21682 0.93533 0.98554 0.0
H1383 H 0.20347 0.90249 0.95735 0.0
H1384 H 0.23715 0.99679 0.98862 0.0
H1385 H 0.2774 0.93141 0.0078 0.0
H1386 H 0.30682 0.90359 1.00444 0.0
H1387 H 0.39213 0.99101 0.99748 0.0
H1388 H 0.36317 0.01938 1.0006 0.0
H1389 H 0.27851 0.07125 0.07848 0.0
H1390 H 0.25977 0.0357 0.05172 0.0
H1391 H 0.35157 0.08604 0.02687 0.0
H1392 H 0.37033 0.12162 0.05386 0.0
H1393 H 0.33011 0.0239 0.02803 0.0
H1394 H 0.28879 0.08884 0.00786 0.0
H1395 H 0.25885 0.11613 0.01123 0.0
H1396 H 0.17478 0.02846 0.02059 0.0
H1397 H 0.20431 1.00066 0.01753 0.0
C1398 C 0.281 0.95172 0.94896 0.0
C1399 C 0.2503 0.92708 0.94584 0.0
C1400 C 0.28845 0.97051 0.9648 0.0
C1401 C 0.26559 0.96506 0.97821 0.0
C1402 C 0.23494 0.93999 0.97544 0.0
C1403 C 0.22738 0.92104 0.95942 0.0
C1404 C 0.27391 0.98664 0.99452 0.0
C1405 C 0.2571 1.00223 0.99748 0.0
C1406 C 0.30041 0.99444 1.00587 0.0
C1407 C 0.31805 0.97751 1.00432 0.0
C1408 C 0.30241 0.94471 1.00547 0.0
C1409 C 0.31901 0.92884 1.00362 0.0
C1410 C 0.35132 0.94552 1.00073 0.0
C1411 C 0.36711 0.97813 0.99974 0.0
C1412 C 0.35062 0.99412 1.00158 0.0
C1413 C 0.29434 0.07534 0.06696 0.0
C1414 C 0.32561 0.0996 0.06793 0.0
C1415 C 0.28368 0.05492 0.05171 0.0
C1416 C 0.30415 0.05819 0.03714 0.0
C1417 C 0.33527 0.08308 0.03787 0.0
C1418 C 0.34591 0.10365 0.05314 0.0
C1419 C 0.29364 0.03437 0.02194 0.0
C1420 C 0.31005 0.01832 0.01924 0.0
C1421 C 0.26668 0.02606 0.01094 0.0
C1422 C 0.24883 0.0427 0.01265 0.0
C1423 C 0.26396 0.07539 0.01078 0.0
C1424 C 0.24706 0.09095 0.01261 0.0
C1425 C 0.21495 0.07405 0.01618 0.0
C1426 C 0.19966 0.04153 0.01786 0.0
C1427 C 0.21646 0.02586 0.01606 0.0
H1428 H 0.20191 0.08614 0.0176 0.0
H1429 H 0.36412 0.93319 0.99927 0.0
H1430 H 0.74561 0.6691 0.44592 0.0
H1431 H 0.73414 0.69205 0.47261 0.0
H1432 H 0.83259 0.74715 0.48505 0.0
H1433 H 0.84436 0.72385 0.45809 0.0
H1434 H 0.79559 0.72571 0.51744 0.0
H1435 H 0.80068 0.78144 0.46224 0.0
H1436 H 0.79008 0.78803 0.42932 0.0
H1437 H 0.69197 0.74499 0.4413 0.0
H1438 H 0.70194 0.73777 0.4743 0.0
H1439 H 0.77293 0.82726 0.57557 0.0
H1440 H 0.79069 0.80954 0.54902 0.0
H1441 H 0.69515 0.75116 0.5311 0.0
H1442 H 0.67712 0.76944 0.55767 0.0
H1443 H 0.73505 0.77794 0.50127 0.0
H1444 H 0.73317 0.72217 0.55776 0.0
H1445 H 0.74743 0.71954 0.59056 0.0
H1446 H 0.84472 0.76786 0.57574 0.0
H1447 H 0.83106 0.77125 0.54289 0.0
C1448 C 0.76489 0.6857 0.45449 0.0
C1449 C 0.79594 0.69483 0.44978 0.0
C1450 C 0.75826 0.69891 0.46973 0.0
C1451 C 0.7825 0.72186 0.48061 0.0
C1452 C 0.8135 0.72961 0.47677 0.0
C1453 C 0.8202 0.71619 0.46143 0.0
C1454 C 0.77506 0.73876 0.49511 0.0
C1455 C 0.78279 0.73754 0.51388 0.0
C1456 C 0.75821 0.75413 0.4905 0.0
C1457 C 0.75204 0.75882 0.47073 0.0
C1458 C 0.77681 0.77319 0.45784 0.0
C1459 C 0.77092 0.77706 0.43916 0.0
C1460 C 0.74036 0.76685 0.4332 0.0
C1461 C 0.71564 0.75286 0.44594 0.0
C1462 C 0.72139 0.74891 0.46464 0.0
C1463 C 0.75564 0.81103 0.56582 0.0
C1464 C 0.72353 0.79955 0.56883 0.0
C1465 C 0.76587 0.80078 0.55067 0.0
C1466 C 0.74426 0.77837 0.5383 0.0
C1467 C 0.71228 0.76829 0.54055 0.0
C1468 C 0.70198 0.77882 0.55569 0.0
C1469 C 0.75499 0.76437 0.52369 0.0
C1470 C 0.74792 0.76619 0.50485 0.0
C1471 C 0.77295 0.75007 0.52823 0.0
C1472 C 0.78109 0.74716 0.54788 0.0
C1473 C 0.75761 0.73233 0.5615 0.0
C1474 C 0.76559 0.73071 0.5801 0.0
C1475 C 0.79695 0.74351 0.58522 0.0
C1476 C 0.82042 0.75793 0.57174 0.0
C1477 C 0.81258 0.75969 0.55313 0.0
H1478 H 0.80308 0.74225 0.59962 0.0
H1479 H 0.73586 0.76984 0.41872 0.0
H1480 H 0.06762 0.26742 0.93051 0.0
H1481 H 0.03443 0.24849 0.95819 0.0
H1482 H 0.09468 0.3355 0.98624 0.0
H1483 H 0.12882 0.35427 0.95849 0.0
H1484 H 0.07155 0.2866 0.01088 0.0
H1485 H 0.02768 0.32294 0.96339 0.0
H1486 H 1.00966 0.325 0.93147 0.0
H1487 H 0.94137 0.22727 0.93455 0.0
H1488 H 0.95927 0.22456 0.96642 0.0
H1489 H 0.96569 0.2891 0.07457 0.0
H1490 H 0.99958 0.30006 0.04767 0.0
H1491 H 0.93795 0.20766 0.02631 0.0
H1492 H 0.90349 0.19617 0.05366 0.0
H1493 H 0.96077 0.25546 0.99844 0.0
H1494 H 1.00172 0.21969 0.04679 0.0
H1495 H 1.01902 0.21756 0.07887 0.0
H1496 H 0.09216 0.31334 0.07446 0.0
H1497 H 0.07495 0.31623 0.04244 0.0
C1498 C 0.0742 0.28233 0.94271 0.0
C1499 C 0.10072 0.31244 0.94228 0.0
C1500 C 0.05506 0.27153 0.95852 0.0
C1501 C 0.06143 0.29084 0.97418 0.0
C1502 C 0.08908 0.32021 0.97429 0.0
C1503 C 0.10866 0.33092 0.95847 0.0
C1504 C 0.03808 0.28106 0.9897 0.0
C1505 C 0.04745 0.28013 0.00817 0.0
C1506 C 1.00627 0.27174 0.98621 0.0
C1507 C 0.99498 0.2735 0.96722 0.0
C1508 C 1.0089 0.30187 0.95723 0.0
C1509 C 0.99871 0.30315 0.93915 0.0
C1510 C 0.97443 0.27627 0.93097 0.0
C1511 C 0.96019 0.24807 0.9409 0.0
C1512 C 0.97032 0.24665 0.95898 0.0
C1513 C 0.95899 0.27101 0.06415 0.0
C1514 C 0.93184 0.24157 0.06642 0.0
C1515 C 0.97859 0.27737 0.04876 0.0
C1516 C 0.97172 0.25455 0.03513 0.0
C1517 C 0.94384 0.22558 0.03675 0.0
C1518 C 0.92411 0.21907 0.05233 0.0
C1519 C 0.9943 0.26122 0.01957 0.0
C1520 C 0.98482 0.26168 1.00112 0.0
C1521 C 0.02594 0.27003 0.0231 0.0
C1522 C 0.03687 0.26825 0.04223 0.0
C1523 C 0.02137 0.24038 0.05269 0.0
C1524 C 0.03117 0.23902 0.07088 0.0
C1525 C 0.05663 0.26532 0.07873 0.0
C1526 C 0.07241 0.29299 0.06837 0.0
C1527 C 0.06267 0.2945 0.05018 0.0
H1528 H 0.06415 0.26423 0.09282 0.0
H1529 H 0.96661 0.2773 0.91696 0.0
H1530 H 0.36486 0.08277 0.44597 0.0
H1531 H 0.34169 0.04656 0.4721 0.0
H1532 H 0.27561 0.07816 0.48035 0.0
H1533 H 0.29943 0.11529 0.45413 0.0
H1534 H 0.29368 0.064 0.51407 0.0
H1535 H 0.25203 1.01253 0.45665 0.0
H1536 H 0.25297 0.99788 0.42385 0.0
H1537 H 0.3064 0.95474 0.43973 0.0
H1538 H 0.30607 0.96941 0.47264 0.0
H1539 H 0.19911 0.91947 0.56594 0.0
H1540 H 0.21185 0.95672 0.53987 0.0
H1541 H 0.29947 0.95919 0.53188 0.0
H1542 H 0.28739 0.92309 0.5583 0.0
H1543 H 0.26122 0.95459 0.4972 0.0
H1544 H 0.30573 1.01297 0.55501 0.0
H1545 H 0.30256 0.02835 0.58734 0.0
H1546 H 0.2378 0.05729 0.56977 0.0
H1547 H 0.2402 0.0416 0.53734 0.0
C1548 C 0.34585 0.08258 0.4536 0.0
C1549 C 0.33389 0.1018 0.44795 0.0
C1550 C 0.33246 0.06168 0.46848 0.0
C1551 C 0.30633 0.05896 0.47791 0.0
C1552 C 0.2956 0.07965 0.47319 0.0
C1553 C 0.30932 0.10098 0.4583 0.0
C1554 C 0.2895 0.03307 0.49172 0.0
C1555 C 0.28602 0.04002 0.51028 0.0
C1556 C 0.27927 1.00162 0.48684 0.0
C1557 C 0.2792 0.99226 0.46711 0.0
C1558 C 0.26414 1.00007 0.45314 0.0
C1559 C 0.26455 0.99176 0.43452 0.0
C1560 C 0.27982 0.97549 0.42969 0.0
C1561 C 0.2946 0.96737 0.44349 0.0
C1562 C 0.29425 0.97562 0.46214 0.0
C1563 C 0.22062 0.92729 0.55821 0.0
C1564 C 0.24206 0.91804 0.56385 0.0
C1565 C 0.22801 0.94877 0.54349 0.0
C1566 C 0.25665 0.96078 0.53399 0.0
C1567 C 0.27723 0.95015 0.53898 0.0
C1568 C 0.27025 0.92942 0.55398 0.0
C1569 C 0.2663 0.98572 0.51957 0.0
C1570 C 0.26839 0.97851 0.50088 0.0
C1571 C 0.27459 0.01672 0.52428 0.0
C1572 C 0.27284 0.02574 0.5438 0.0
C1573 C 0.2905 0.02222 0.55807 0.0
C1574 C 0.28892 0.03109 0.57641 0.0
C1575 C 0.26998 0.04376 0.58059 0.0
C1576 C 0.25245 0.04745 0.56649 0.0
C1577 C 0.25391 0.03858 0.54814 0.0
H1578 H 0.26906 0.05093 0.59473 0.0
H1579 H 0.28015 0.96913 0.41525 0.0
H1580 H 0.74318 0.66555 0.06825 0.0
H1581 H 0.73074 0.68688 0.04077 0.0
H1582 H 0.8284 0.75524 0.03409 0.0
H1583 H 0.8411 0.73338 0.0616 0.0
H1584 H 0.7858 0.7801 0.03444 0.0
H1585 H 0.79895 0.70239 1.0027 0.0
H1586 H 0.7909 0.64962 0.9975 0.0
H1587 H 0.69218 0.61326 0.99124 0.0
H1588 H 0.69956 0.66575 0.99667 0.0
H1589 H 0.75055 0.83444 0.94856 0.0
H1590 H 0.77255 0.81916 0.97464 0.0
H1591 H 0.68709 0.73005 0.97796 0.0
H1592 H 0.66616 0.7447 0.95125 0.0
H1593 H 0.73092 0.71892 0.97806 0.0
H1594 H 0.71522 0.79354 0.01241 0.0
H1595 H 0.72079 0.84472 0.01984 0.0
H1596 H 0.82048 0.8855 0.02326 0.0
H1597 H 0.81555 0.83465 0.01558 0.0
C1598 C 0.76212 0.68465 0.06067 0.0
C1599 C 0.79315 0.69758 0.06694 0.0
C1600 C 0.75497 0.6969 0.045 0.0
C1601 C 0.7786 0.72271 0.03537 0.0
C1602 C 0.80979 0.7353 0.04131 0.0
C1603 C 0.81707 0.72259 0.05686 0.0
C1604 C 0.77005 0.73696 0.01968 0.0
C1605 C 0.77432 0.76705 0.0219 0.0
C1606 C 0.75431 0.71957 1.00361 0.0
C1607 C 0.7498 0.68799 1.00023 0.0
C1608 C 0.77549 0.6831 1.00036 0.0
C1609 C 0.77105 0.65324 0.99734 0.0
C1610 C 0.74104 0.62809 0.99408 0.0
C1611 C 0.71541 0.63276 0.99378 0.0
C1612 C 0.71972 0.66257 0.9968 0.0
C1613 C 0.73622 0.812 0.95529 0.0
C1614 C 0.7065 0.79089 0.94811 0.0
C1615 C 0.74882 0.80318 0.97019 0.0
C1616 C 0.73158 0.77334 0.97847 0.0
C1617 C 0.70114 0.75306 0.97184 0.0
C1618 C 0.68896 0.76156 0.9567 0.0
C1619 C 0.74565 0.76197 0.99294 0.0
C1620 C 0.74254 0.73231 0.99048 0.0
C1621 C 0.76202 0.77965 0.00892 0.0
C1622 C 0.76503 0.81036 0.01317 0.0
C1623 C 0.73835 0.81349 0.01454 0.0
C1624 C 0.7414 0.84243 0.01884 0.0
C1625 C 0.77098 0.86837 0.02196 0.0
C1626 C 0.79759 0.86542 0.0208 0.0
C1627 C 0.79468 0.83654 0.01647 0.0
H1628 H 0.77328 0.89074 0.02534 0.0
H1629 H 0.73766 0.60499 0.99175 0.0
H1630 H 0.13514 0.35229 0.552 0.0
H1631 H 0.1013 0.33558 0.52406 0.0
H1632 H 0.03575 0.25048 0.55234 0.0
H1633 H 0.06887 0.26742 0.5803 0.0
H1634 H 0.04679 0.24385 0.51206 0.0
H1635 H 1.0193 0.30299 0.55442 0.0
H1636 H 0.0316 0.34921 0.57348 0.0
H1637 H 0.06362 0.40734 0.52442 0.0
H1638 H 0.05197 0.36149 0.50512 0.0
H1639 H 0.91017 0.1976 0.45651 0.0
H1640 H 0.94517 0.2106 0.48368 0.0
H1641 H 1.00054 0.30512 0.46328 0.0
H1642 H 0.9657 0.29253 0.43655 0.0
H1643 H 0.99545 0.30637 0.49956 0.0
H1644 H 0.02365 0.25109 0.45669 0.0
H1645 H 1.01455 0.20746 0.43609 0.0
H1646 H 0.98556 0.14527 0.48335 0.0
H1647 H 0.99413 0.18851 0.50423 0.0
C1648 C 0.11391 0.32972 0.55204 0.0
C1649 C 0.1046 0.31116 0.56829 0.0
C1650 C 0.09453 0.32023 0.53613 0.0
C1651 C 0.06592 0.29178 0.53614 0.0
C1652 C 0.0577 0.27241 0.55197 0.0
C1653 C 0.07662 0.28217 0.56795 0.0
C1654 C 0.04305 0.28355 0.52054 0.0
C1655 C 0.03533 0.25731 0.50941 0.0
C1656 C 0.02851 0.30142 0.51684 0.0
C1657 C 0.0351 0.3289 0.52837 0.0
C1658 C 0.02921 0.32568 0.54773 0.0
C1659 C 0.03603 0.35179 0.55857 0.0
C1660 C 0.04848 0.38121 0.55018 0.0
C1661 C 0.05403 0.38455 0.53091 0.0
C1662 C 0.04732 0.35851 0.52001 0.0
C1663 C 0.92946 0.22127 0.45804 0.0
C1664 C 0.93514 0.24396 0.44431 0.0
C1665 C 0.94967 0.22862 0.47347 0.0
C1666 C 0.97591 0.25878 0.47543 0.0
C1667 C 0.98064 0.2817 0.46214 0.0
C1668 C 0.96062 0.27439 0.44679 0.0
C1669 C 0.99904 0.26659 0.49093 0.0
C1670 C 1.00682 0.29279 0.50212 0.0
C1671 C 1.01402 0.24898 0.49442 0.0
C1672 C 1.0092 0.22297 0.482 0.0
C1673 C 1.01513 0.22806 0.46268 0.0
C1674 C 1.01011 0.20342 0.45095 0.0
C1675 C 0.9994 0.1736 0.4584 0.0
C1676 C 0.99382 0.16839 0.47761 0.0
C1677 C 0.99878 0.19297 0.4894 0.0
H1678 H 0.99551 0.15456 0.44929 0.0
H1679 H 0.05374 0.4014 0.55859 0.0
H1680 H 0.65702 0.11356 0.12676 0.0
H1681 H 0.60405 0.1042 0.13185 0.0
H1682 H 0.63409 0.19904 0.11528 0.0
H1683 H 0.68727 0.20878 0.11054 0.0
H1684 H 0.59661 0.18218 0.14594 0.0
H1685 H 0.59394 0.13874 0.08528 0.0
H1686 H 0.60068 0.10479 0.0629 0.0
H1687 H 0.5347 0.02362 0.09373 0.0
H1688 H 0.5279 0.05716 0.11646 0.0
H1689 H 0.46033 0.18072 0.11748 0.0
H1690 H 0.51009 0.18211 0.11921 0.0
H1691 H 0.46355 0.08727 0.13972 0.0
H1692 H 0.41292 0.08561 0.13806 0.0
H1693 H 0.50717 0.09883 0.11071 0.0
H1694 H 0.50548 0.14266 0.16946 0.0
H1695 H 0.49796 0.17713 0.19098 0.0
H1696 H 0.57164 0.2578 0.16351 0.0
H1697 H 0.57929 0.22382 0.14161 0.0
C1698 C 0.65247 0.13256 0.1244 0.0
C1699 C 0.67648 0.16194 0.11819 0.0
C1700 C 0.62206 0.12707 0.12717 0.0
C1701 C 0.61492 0.15081 0.12379 0.0
C1702 C 0.63896 0.18032 0.11796 0.0
C1703 C 0.66933 0.18579 0.1151 0.0
C1704 C 0.58238 0.14489 0.12605 0.0
C1705 C 0.57712 0.16408 0.13814 0.0
C1706 C 0.55665 0.12066 0.11633 0.0
C1707 C 0.56071 0.10047 0.10269 0.0
C1708 C 0.58108 0.11367 0.08738 0.0
C1709 C 0.58487 0.0945 0.07462 0.0
C1710 C 0.56821 0.06207 0.07693 0.0
C1711 C 0.54765 0.04875 0.09199 0.0
C1712 C 0.54381 0.06782 0.10481 0.0
C1713 C 0.46044 0.16003 0.12241 0.0
C1714 C 0.43246 0.13297 0.12759 0.0
C1715 C 0.48908 0.16098 0.12347 0.0
C1716 C 0.49067 0.13491 0.12972 0.0
C1717 C 0.46287 0.10771 0.1349 0.0
C1718 C 0.434 0.10683 0.13402 0.0
C1719 C 0.52156 0.13647 0.13034 0.0
C1720 C 0.52656 0.11656 0.11876 0.0
C1721 C 0.54707 0.16007 0.14052 0.0
C1722 C 0.54282 0.18065 0.1538 0.0
C1723 C 0.51995 0.16775 0.16791 0.0
C1724 C 0.51568 0.1872 0.18019 0.0
C1725 C 0.53428 0.21963 0.17859 0.0
C1726 C 0.55725 0.23267 0.16473 0.0
C1727 C 0.56159 0.21332 0.15239 0.0
H1728 H 0.53093 0.23466 0.18811 0.0
H1729 H 0.57116 0.04726 0.06703 0.0
H1730 H 0.74321 0.57077 0.40727 0.0
H1731 H 0.69544 0.52082 0.40468 0.0
H1732 H 0.65614 0.56178 0.36806 0.0
H1733 H 0.70441 0.61281 0.37081 0.0
H1734 H 0.61353 0.52249 0.39419 0.0
H1735 H 0.6814 0.51548 0.3499 0.0
H1736 H 0.73088 0.52085 0.33847 0.0
H1737 H 0.72488 0.45454 0.37961 0.0
H1738 H 0.67558 0.4491 0.39149 0.0
H1739 H 0.48738 0.36708 0.37639 0.0
H1740 H 0.53203 0.41965 0.37133 0.0
H1741 H 0.58821 0.39844 0.40818 0.0
H1742 H 0.54389 0.34573 0.41303 0.0
H1743 H 0.62034 0.42906 0.37682 0.0
H1744 H 0.55627 0.44119 0.4232 0.0
H1745 H 0.50764 0.43686 0.43543 0.0
H1746 H 0.50683 0.49389 0.39019 0.0
H1747 H 0.55527 0.49821 0.37755 0.0
C1748 C 0.72459 0.56945 0.39859 0.0
C1749 C 0.72791 0.596 0.38913 0.0
C1750 C 0.69719 0.54065 0.39708 0.0
C1751 C 0.67235 0.5373 0.3859 0.0
C1752 C 0.67511 0.56377 0.37668 0.0
C1753 C 0.70272 0.59289 0.37823 0.0
C1754 C 0.6437 0.50598 0.3842 0.0
C1755 C 0.61486 0.50215 0.38997 0.0
C1756 C 0.64547 0.4793 0.37898 0.0
C1757 C 0.67484 0.48201 0.37165 0.0
C1758 C 0.6907 0.50215 0.35657 0.0
C1759 C 0.71872 0.5052 0.35001 0.0
C1760 C 0.73104 0.48808 0.35833 0.0
C1761 C 0.71531 0.46779 0.37318 0.0
C1762 C 0.68729 0.46467 0.37982 0.0
C1763 C 0.50935 0.37349 0.38325 0.0
C1764 C 0.51202 0.3522 0.39517 0.0
C1765 C 0.53479 0.40365 0.38046 0.0
C1766 C 0.56343 0.41315 0.38951 0.0
C1767 C 0.56635 0.3917 0.40107 0.0
C1768 C 0.54091 0.36164 0.40394 0.0
C1769 C 0.59035 0.44549 0.38724 0.0
C1770 C 0.61888 0.44946 0.38071 0.0
C1771 C 0.58824 0.47226 0.39172 0.0
C1772 C 0.55916 0.4697 0.39931 0.0
C1773 C 0.54557 0.45258 0.41577 0.0
C1774 C 0.51807 0.45017 0.42279 0.0
C1775 C 0.50409 0.465 0.41356 0.0
C1776 C 0.51764 0.48235 0.39731 0.0
C1777 C 0.54512 0.4848 0.39021 0.0
H1778 H 0.48281 0.46312 0.41902 0.0
H1779 H 0.75276 0.49052 0.35324 0.0
H1780 H 0.94172 0.33274 0.14064 0.0
H1781 H 0.94109 0.38219 0.14133 0.0
H1782 H 0.85071 0.33697 0.11453 0.0
H1783 H 0.85109 0.28822 0.11372 0.0
H1784 H 0.8902 0.39091 0.09725 0.0
H1785 H 0.85909 0.35472 0.16102 0.0
H1786 H 0.86631 0.33824 0.19238 0.0
H1787 H 0.95011 0.42673 0.2 0.0
H1788 H 0.94361 0.44358 0.16856 0.0
H1789 H 0.82671 0.48867 0.10612 0.0
H1790 H 0.83683 0.44538 0.10957 0.0
H1791 H 0.92374 0.50622 0.13773 0.0
H1792 H 0.91366 0.54972 0.1344 0.0
H1793 H 0.89447 0.44952 0.15436 0.0
H1794 H 0.92366 0.48757 0.09195 0.0
H1795 H 0.91715 0.50454 0.06059 0.0
H1796 H 0.83878 0.41323 0.05009 0.0
H1797 H 0.84453 0.39583 0.0815 0.0
C1798 C 0.92166 0.33334 0.13504 0.0
C1799 C 0.89661 0.30645 0.127 0.0
C1800 C 0.9213 0.3616 0.13545 0.0
C1801 C 0.89586 0.36334 0.12791 0.0
C1802 C 0.87071 0.33636 0.12029 0.0
C1803 C 0.87101 0.30836 0.11987 0.0
C1804 C 0.8952 0.39312 0.12724 0.0
C1805 C 0.89094 0.4036 0.10977 0.0
C1806 C 0.89723 0.41035 0.14347 0.0
C1807 C 0.90108 0.40025 0.16236 0.0
C1808 C 0.87921 0.37055 0.16932 0.0
C1809 C 0.88314 0.36117 0.18712 0.0
C1810 C 0.90871 0.38139 0.19815 0.0
C1811 C 0.93035 0.41107 0.19142 0.0
C1812 C 0.92655 0.42055 0.17362 0.0
C1813 C 0.84802 0.4929 0.11301 0.0
C1814 C 0.86949 0.52278 0.11982 0.0
C1815 C 0.85379 0.4681 0.115 0.0
C1816 C 0.88135 0.47261 0.12362 0.0
C1817 C 0.90236 0.50214 0.13099 0.0
C1818 C 0.89652 0.52698 0.1291 0.0
C1819 C 0.8884 0.44663 0.12442 0.0
C1820 C 0.89404 0.43702 0.14184 0.0
C1821 C 0.8878 0.43017 0.10812 0.0
C1822 C 0.8844 0.44047 0.08915 0.0
C1823 C 0.90491 0.47116 0.08301 0.0
C1824 C 0.90137 0.48085 0.06521 0.0
C1825 C 0.87753 0.45999 0.05337 0.0
C1826 C 0.85723 0.42937 0.05928 0.0
C1827 C 0.86064 0.41957 0.07707 0.0
H1828 H 0.87483 0.46754 0.0396 0.0
H1829 H 0.91171 0.37408 0.21193 0.0
H1830 H 0.45916 0.17401 0.40848 0.0
H1831 H 0.50956 0.17708 0.40638 0.0
H1832 H 0.47177 0.10101 0.367 0.0
H1833 H 0.42034 0.09737 0.3692 0.0
H1834 H 0.50985 0.09554 0.39322 0.0
H1835 H 0.51818 0.17446 0.35135 0.0
H1836 H 0.51285 0.2193 0.34127 0.0
H1837 H 0.57655 0.27587 0.38441 0.0
H1838 H 0.58192 0.23124 0.39494 0.0
H1839 H 0.66698 0.12929 0.37614 0.0
H1840 H 0.61419 0.12074 0.37108 0.0
H1841 H 0.63289 0.19422 0.4102 0.0
H1842 H 0.6858 0.20328 0.41505 0.0
H1843 H 0.6034 0.19825 0.37911 0.0
H1844 H 0.59016 0.11776 0.4229 0.0
H1845 H 0.59452 0.07265 0.43365 0.0
H1846 H 0.53978 0.01902 0.38671 0.0
H1847 H 0.53545 0.06399 0.37554 0.0
C1848 C 0.46128 0.15781 0.39931 0.0
C1849 C 0.43554 0.13555 0.38887 0.0
C1850 C 0.49033 0.15973 0.39809 0.0
C1851 C 0.4947 0.13972 0.38626 0.0
C1852 C 0.46899 0.11687 0.37612 0.0
C1853 C 0.43964 0.11485 0.37737 0.0
C1854 C 0.52632 0.14311 0.38476 0.0
C1855 C 0.53024 0.1178 0.38972 0.0
C1856 C 0.55305 0.1723 0.38048 0.0
C1857 C 0.55031 0.19941 0.374 0.0
C1858 C 0.53093 0.19641 0.35876 0.0
C1859 C 0.52791 0.2218 0.35296 0.0
C1860 C 0.54432 0.25041 0.36221 0.0
C1861 C 0.56386 0.2537 0.37725 0.0
C1862 C 0.56694 0.22837 0.38313 0.0
C1863 C 0.65997 0.14386 0.38351 0.0
C1864 C 0.68063 0.16693 0.39605 0.0
C1865 C 0.62968 0.13876 0.38072 0.0
C1866 C 0.61942 0.15662 0.39039 0.0
C1867 C 0.64021 0.18008 0.40261 0.0
C1868 C 0.6704 0.18509 0.40547 0.0
C1869 C 0.58701 0.1509 0.388 0.0
C1870 C 0.58297 0.17584 0.3823 0.0
C1871 C 0.56023 0.12138 0.39156 0.0
C1872 C 0.56281 0.09435 0.39826 0.0
C1873 C 0.57929 0.09644 0.41478 0.0
C1874 C 0.58171 0.07088 0.42097 0.0
C1875 C 0.56753 0.04302 0.41084 0.0
C1876 C 0.55081 0.04064 0.39452 0.0
C1877 C 0.54836 0.06615 0.38826 0.0
H1878 H 0.56941 0.02326 0.41565 0.0
H1879 H 0.54192 0.27002 0.35771 0.0
H1880 H 0.54498 0.34379 0.10983 0.0
H1881 H 0.58859 0.39685 0.1146 0.0
H1882 H 0.5243 0.42605 0.13317 0.0
H1883 H 0.48044 0.37309 0.12808 0.0
H1884 H 0.56757 0.46833 0.10886 0.0
H1885 H 0.56872 0.41552 0.16469 0.0
H1886 H 0.56864 0.37346 0.18337 0.0
H1887 H 0.65563 0.39326 0.15841 0.0
H1888 H 0.65601 0.43516 0.13936 0.0
H1889 H 0.69685 0.61699 0.13762 0.0
H1890 H 0.648 0.56629 0.13893 0.0
H1891 H 0.69769 0.5202 0.12067 0.0
H1892 H 0.74607 0.57008 0.11949 0.0
H1893 H 0.65827 0.48791 0.1484 0.0
H1894 H 0.65421 0.53626 0.09031 0.0
H1895 H 0.65441 0.57775 0.07094 0.0
H1896 H 0.57313 0.56601 0.09984 0.0
H1897 H 0.57272 0.52471 0.11957 0.0
C1898 C 0.54007 0.36151 0.11485 0.0
C1899 C 0.50917 0.3541 0.11863 0.0
C1900 C 0.56507 0.39181 0.11772 0.0
C1901 C 0.5598 0.41543 0.12444 0.0
C1902 C 0.52898 0.40823 0.12805 0.0
C1903 C 0.50395 0.37786 0.12528 0.0
C1904 C 0.58652 0.44765 0.12751 0.0
C1905 C 0.58714 0.47271 0.11779 0.0
C1906 C 0.61229 0.45339 0.13896 0.0
C1907 C 0.61226 0.42834 0.15048 0.0
C1908 C 0.58772 0.41077 0.16308 0.0
C1909 C 0.58764 0.38697 0.17375 0.0
C1910 C 0.61208 0.38065 0.17205 0.0
C1911 C 0.6367 0.39817 0.1597 0.0
C1912 C 0.63688 0.42197 0.14898 0.0
C1913 C 0.69735 0.596 0.13403 0.0
C1914 C 0.72541 0.59774 0.12832 0.0
C1915 C 0.6694 0.56705 0.1347 0.0
C1916 C 0.66909 0.53938 0.12975 0.0
C1917 C 0.69725 0.54111 0.12457 0.0
C1918 C 0.72496 0.56984 0.1238 0.0
C1919 C 0.63965 0.50849 0.12944 0.0
C1920 C 0.6385 0.48363 0.13969 0.0
C1921 C 0.61348 0.50294 0.11843 0.0
C1922 C 0.61367 0.5277 0.10657 0.0
C1923 C 0.63654 0.54272 0.09264 0.0
C1924 C 0.63667 0.56616 0.08158 0.0
C1925 C 0.61386 0.57459 0.0842 0.0
C1926 C 0.59082 0.55951 0.09786 0.0
C1927 C 0.59063 0.53608 0.10898 0.0
H1928 H 0.61398 0.59273 0.07562 0.0
H1929 H 0.61196 0.36221 0.18032 0.0
H1930 H 0.82296 0.48943 0.38811 0.0
H1931 H 0.83002 0.44461 0.38231 0.0
H1932 H 0.92848 0.50136 0.39431 0.0
H1933 H 0.92179 0.54646 0.39961 0.0
H1934 H 0.91873 0.4629 0.36485 0.0
H1935 H 0.87857 0.45262 0.42733 0.0
H1936 H 0.84145 0.44983 0.4513 0.0
H1937 H 0.7671 0.36916 0.42442 0.0
H1938 H 0.80372 0.37174 0.40014 0.0
H1939 H 0.9476 0.33579 0.38307 0.0
H1940 H 0.94444 0.38383 0.38279 0.0
H1941 H 0.84411 0.32863 0.37701 0.0
H1942 H 0.84716 0.281 0.37808 0.0
H1943 H 0.85627 0.36768 0.40322 0.0
H1944 H 0.89659 0.37693 0.34083 0.0
H1945 H 0.93388 0.37981 0.31695 0.0
H1946 H 1.00756 0.46175 0.34316 0.0
H1947 H 0.97086 0.45911 0.36739 0.0
C1948 C 0.84621 0.49252 0.38926 0.0
C1949 C 0.87174 0.52155 0.39453 0.0
C1950 C 0.85018 0.46679 0.38607 0.0
C1951 C 0.87973 0.46944 0.38812 0.0
C1952 C 0.90543 0.49864 0.39271 0.0
C1953 C 0.90149 0.52435 0.39592 0.0
C1954 C 0.88362 0.44154 0.38629 0.0
C1955 C 0.90527 0.44213 0.37334 0.0
C1956 C 0.86583 0.41426 0.39717 0.0
C1957 C 0.84382 0.41256 0.41182 0.0
C1958 C 0.85426 0.43443 0.42646 0.0
C1959 C 0.83332 0.43286 0.44011 0.0
C1960 C 0.80192 0.40938 0.43935 0.0
C1961 C 0.79142 0.38736 0.42497 0.0
C1962 C 0.81226 0.38885 0.41127 0.0
C1963 C 0.92501 0.33408 0.38138 0.0
C1964 C 0.89764 0.30468 0.38068 0.0
C1965 C 0.92317 0.36153 0.3812 0.0
C1966 C 0.89397 0.36003 0.37987 0.0
C1967 C 0.86688 0.3306 0.37824 0.0
C1968 C 0.86867 0.30332 0.37877 0.0
C1969 C 0.89099 0.38857 0.38147 0.0
C1970 C 0.86962 0.38824 0.39456 0.0
C1971 C 0.90899 0.41596 0.37066 0.0
C1972 C 0.93103 0.41765 0.35603 0.0
C1973 C 0.92079 0.39543 0.34159 0.0
C1974 C 0.94181 0.39704 0.32798 0.0
C1975 C 0.97306 0.42089 0.32856 0.0
C1976 C 0.98335 0.44325 0.34274 0.0
C1977 C 0.96245 0.44173 0.35641 0.0
H1978 H 0.98929 0.42209 0.31801 0.0
H1979 H 0.78574 0.40821 0.44993 0.0
H1980 H 0.19779 0.66978 0.59108 0.0
H1981 H 0.18713 0.61627 0.59499 0.0
H1982 H 0.13601 0.60704 0.64566 0.0
H1983 H 0.14644 0.6607 0.64178 0.0
H1984 H 0.17269 0.58018 0.64931 0.0
H1985 H 0.09657 0.57522 0.60593 0.0
H1986 H 0.07774 0.59025 0.57798 0.0
H1987 H 0.13105 0.56421 0.54269 0.0
H1988 H 0.15058 0.54945 0.57046 0.0
H1989 H 0.1142 0.41415 0.64834 0.0
H1990 H 0.11495 0.46419 0.64907 0.0
H1991 H 0.16603 0.49115 0.59706 0.0
H1992 H 0.16495 0.44159 0.59605 0.0
H1993 H 0.12195 0.50663 0.59664 0.0
H1994 H 0.20226 0.51703 0.64002 0.0
H1995 H 0.22138 0.50183 0.66779 0.0
H1996 H 0.16014 0.51731 0.70291 0.0
H1997 H 0.14032 0.53216 0.67529 0.0
C1998 C 0.18419 0.6564 0.60304 0.0
C1999 C 0.1727 0.66951 0.616 0.0
C2000 C 0.17816 0.62578 0.60528 0.0
C2001 C 0.16029 0.60739 0.62045 0.0
C2002 C 0.14976 0.62073 0.63382 0.0
C2003 C 0.15584 0.65146 0.6316 0.0
C2004 C 0.15206 0.57407 0.62194 0.0
C2005 C 0.16111 0.56393 0.63794 0.0
C2006 C 0.13714 0.55285 0.60706 0.0
C2007 C 0.12521 0.56144 0.5903 0.0
C2008 C 0.10444 0.57289 0.59222 0.0
C2009 C 0.09362 0.58134 0.57641 0.0
C2010 C 0.10324 0.57824 0.55857 0.0
C2011 C 0.12363 0.56661 0.55652 0.0
C2012 C 0.13456 0.55817 0.57229 0.0
C2013 C 0.12531 0.43064 0.63699 0.0
C2014 C 0.13965 0.42383 0.6222 0.0
C2015 C 0.12588 0.45932 0.63747 0.0
C2016 C 0.14085 0.48164 0.6232 0.0
C2017 C 0.15434 0.4744 0.60823 0.0
C2018 C 0.1538 0.44596 0.60774 0.0
C2019 C 0.1434 0.51295 0.62375 0.0
C2020 C 0.13318 0.52273 0.60813 0.0
C2021 C 0.15728 0.53377 0.63895 0.0
C2022 C 0.16955 0.52535 0.65557 0.0
C2023 C 0.19273 0.51699 0.65365 0.0
C2024 C 0.20371 0.50846 0.66936 0.0
C2025 C 0.19191 0.50851 0.6871 0.0
C2026 C 0.16921 0.51722 0.68916 0.0
C2027 C 0.1581 0.5257 0.67349 0.0
H2028 H 0.20042 0.50187 0.69924 0.0
H2029 H 0.09484 0.5848 0.54635 0.0
H2030 H 0.30342 0.86057 0.90879 0.0
H2031 H 0.35286 0.86135 0.90866 0.0
H2032 H 0.38738 0.93154 0.86526 0.0
H2033 H 0.33726 0.93107 0.86528 0.0
H2034 H 0.39993 0.88101 0.85941 0.0
H2035 H 0.41486 0.95505 0.90658 0.0
H2036 H 0.40058 0.97488 0.9342 0.0
H2037 H 0.3968 0.90087 0.96778 0.0
H2038 H 0.41058 0.88028 0.94029 0.0
H2039 H 0.55177 0.89742 0.87383 0.0
H2040 H 0.50876 0.90793 0.86928 0.0
H2041 H 0.46113 0.85011 0.91709 0.0
H2042 H 0.50393 0.83952 0.9217 0.0
H2043 H 0.45989 0.90296 0.91866 0.0
H2044 H 0.43844 0.82547 0.87136 0.0
H2045 H 0.4503 0.8034 0.84381 0.0
H2046 H 0.46485 0.88223 0.81069 0.0
H2047 H 0.45348 0.90499 0.83813 0.0
C2048 C 0.32133 0.87625 0.89912 0.0
C2049 C 0.31622 0.89585 0.88704 0.0
C2050 C 0.34974 0.8767 0.89915 0.0
C2051 C 0.37395 0.89669 0.88711 0.0
C2052 C 0.369 0.91599 0.87473 0.0
C2053 C 0.34042 0.91578 0.8748 0.0
C2054 C 0.40418 0.89696 0.8878 0.0
C2055 C 0.41352 0.88652 0.87221 0.0
C2056 C 0.42149 0.90349 0.90464 0.0
C2057 C 0.41358 0.916 0.92131 0.0
C2058 C 0.41078 0.94287 0.91982 0.0
C2059 C 0.4028 0.95426 0.93546 0.0
C2060 C 0.39774 0.93912 0.95273 0.0
C2061 C 0.40073 0.91258 0.95439 0.0
C2062 C 0.40867 0.90106 0.93879 0.0
C2063 C 0.53195 0.88662 0.88324 0.0
C2064 C 0.53138 0.86762 0.89815 0.0
C2065 C 0.50738 0.89272 0.88064 0.0
C2066 C 0.48154 0.87973 0.89279 0.0
C2067 C 0.48085 0.86059 0.90759 0.0
C2068 C 0.5054 0.85458 0.91022 0.0
C2069 C 0.45533 0.88625 0.89039 0.0
C2070 C 0.44671 0.89796 0.90572 0.0
C2071 C 0.43864 0.88075 0.87333 0.0
C2072 C 0.4455 0.86712 0.85685 0.0
C2073 C 0.44444 0.83823 0.85824 0.0
C2074 C 0.45102 0.82557 0.84264 0.0
C2075 C 0.45843 0.84146 0.82553 0.0
C2076 C 0.45918 0.86999 0.82397 0.0
C2077 C 0.45266 0.88278 0.83953 0.0
H2078 H 0.4635 0.83161 0.81346 0.0
H2079 H 0.39157 0.94798 0.96481 0.0
H2080 H 0.58199 0.739 0.63381 0.0
H2081 H 0.53241 0.6902 0.63227 0.0
H2082 H 0.57931 0.64356 0.61028 0.0
H2083 H 0.6296 0.69289 0.61171 0.0
H2084 H 0.52582 0.6298 0.5903 0.0
H2085 H 0.55255 0.62912 0.65448 0.0
H2086 H 0.56968 0.65087 0.68609 0.0
H2087 H 0.48939 0.66212 0.69153 0.0
H2088 H 0.472 0.64087 0.65982 0.0
H2089 H 0.38733 0.48117 0.5962 0.0
H2090 H 0.44064 0.52461 0.60021 0.0
H2091 H 0.40496 0.57852 0.62672 0.0
H2092 H 0.35145 0.53498 0.62281 0.0
H2093 H 0.45503 0.58594 0.645 0.0
H2094 H 0.43053 0.59117 0.58047 0.0
H2095 H 0.41341 0.57117 0.54852 0.0
H2096 H 0.48934 0.55292 0.54349 0.0
H2097 H 0.50667 0.57243 0.57554 0.0
C2098 C 0.58199 0.71841 0.62873 0.0
C2099 C 0.60993 0.71998 0.62287 0.0
C2100 C 0.5535 0.69038 0.62795 0.0
C2101 C 0.55203 0.66304 0.62132 0.0
C2102 C 0.57985 0.66433 0.61551 0.0
C2103 C 0.6086 0.6925 0.61642 0.0
C2104 C 0.52115 0.63362 0.61995 0.0
C2105 C 0.5106 0.61981 0.60234 0.0
C2106 C 0.50085 0.62103 0.63554 0.0
C2107 C 0.51109 0.6336 0.6547 0.0
C2108 C 0.53865 0.63644 0.66235 0.0
C2109 C 0.5484 0.64865 0.68031 0.0
C2110 C 0.53067 0.65793 0.6908 0.0
C2111 C 0.50311 0.65494 0.68338 0.0
C2112 C 0.49328 0.64277 0.66542 0.0
C2113 C 0.39075 0.50234 0.60276 0.0
C2114 C 0.36495 0.5046 0.60901 0.0
C2115 C 0.42134 0.52721 0.60507 0.0
C2116 C 0.42698 0.55517 0.61351 0.0
C2117 C 0.40133 0.55727 0.62014 0.0
C2118 C 0.37069 0.5323 0.61793 0.0
C2119 C 0.45952 0.58226 0.61529 0.0
C2120 C 0.47036 0.59569 0.63299 0.0
C2121 C 0.48002 0.59462 0.59975 0.0
C2122 C 0.46968 0.58293 0.58048 0.0
C2123 C 0.44342 0.58265 0.57261 0.0
C2124 C 0.43371 0.57145 0.55447 0.0
C2125 C 0.45022 0.56069 0.544 0.0
C2126 C 0.47654 0.5612 0.55163 0.0
C2127 C 0.48633 0.57235 0.56977 0.0
H2128 H 0.44266 0.55203 0.52996 0.0
H2129 H 0.53826 0.66739 0.70469 0.0
H2130 H 0.16831 0.66309 0.92675 0.0
H2131 H 0.15871 0.60994 0.92333 0.0
H2132 H 0.16185 0.61997 0.8633 0.0
H2133 H 0.17192 0.6735 0.86658 0.0
H2134 H 0.11332 0.56331 0.87417 0.0
H2135 H 0.22324 0.62347 0.88668 0.0
H2136 H 0.27061 0.66103 0.90385 0.0
H2137 H 0.23778 0.60312 0.95296 0.0
H2138 H 0.18999 0.5654 0.93616 0.0
H2139 H 0.12324 0.42414 0.85908 0.0
H2140 H 0.12948 0.47661 0.85895 0.0
H2141 H 0.1374 0.47967 0.91915 0.0
H2142 H 0.13224 0.42803 0.91924 0.0
H2143 H 0.18201 0.53094 0.90586 0.0
H2144 H 0.07109 0.47178 0.89405 0.0
H2145 H 0.02333 0.43427 0.87716 0.0
H2146 H 0.0574 0.48979 0.82718 0.0
H2147 H 0.10556 0.52744 0.84373 0.0
C2148 C 0.16742 0.65427 0.91279 0.0
C2149 C 0.1712 0.6729 0.89695 0.0
C2150 C 0.16176 0.6237 0.91086 0.0
C2151 C 0.15984 0.61092 0.89305 0.0
C2152 C 0.16317 0.62923 0.87719 0.0
C2153 C 0.16889 0.65988 0.87911 0.0
C2154 C 0.15455 0.57856 0.8911 0.0
C2155 C 0.12858 0.55631 0.88089 0.0
C2156 C 0.17411 0.56917 0.90008 0.0
C2157 C 0.2029 0.59175 0.9102 0.0
C2158 C 0.22601 0.61886 0.90118 0.0
C2159 C 0.25295 0.64016 0.91084 0.0
C2160 C 0.25717 0.6345 0.9295 0.0
C2161 C 0.23448 0.60748 0.93852 0.0
C2162 C 0.20747 0.58612 0.92892 0.0
C2163 C 0.1257 0.4358 0.87229 0.0
C2164 C 0.12727 0.42191 0.88916 0.0
C2165 C 0.12929 0.46586 0.87222 0.0
C2166 C 0.13391 0.48233 0.88907 0.0
C2167 C 0.13416 0.46777 0.90594 0.0
C2168 C 0.13103 0.43808 0.90598 0.0
C2169 C 0.14028 0.51529 0.8893 0.0
C2170 C 0.16666 0.5378 0.89912 0.0
C2171 C 0.12101 0.52481 0.88002 0.0
C2172 C 0.09206 0.50224 0.87007 0.0
C2173 C 0.0685 0.47585 0.87942 0.0
C2174 C 0.04134 0.4546 0.86992 0.0
C2175 C 0.03737 0.45959 0.8511 0.0
C2176 C 0.06052 0.48592 0.84175 0.0
C2177 C 0.08774 0.50723 0.85119 0.0
H2178 H 1.01633 0.44311 0.84376 0.0
H2179 H 0.27805 0.65102 0.93695 0.0
H2180 H 0.34313 0.93606 0.63323 0.0
H2181 H 0.3921 0.93468 0.63486 0.0
H2182 H 0.34294 0.83841 0.61728 0.0
H2183 H 0.29434 0.83944 0.61577 0.0
H2184 H 0.3823 0.84672 0.64553 0.0
H2185 H 0.38661 0.8974 0.58665 0.0
H2186 H 0.38632 0.93804 0.56667 0.0
H2187 H 0.46698 1.00883 0.59557 0.0
H2188 H 0.46748 0.96861 0.61591 0.0
H2189 H 0.49672 0.81631 0.60901 0.0
H2190 H 0.45282 0.82524 0.61348 0.0
H2191 H 0.51663 0.91995 0.63055 0.0
H2192 H 0.56082 0.91137 0.6257 0.0
H2193 H 0.47327 0.91751 0.60611 0.0
H2194 H 0.47216 0.86586 0.66281 0.0
H2195 H 0.47251 0.82497 0.68249 0.0
H2196 H 0.38592 0.75594 0.65781 0.0
H2197 H 0.38528 0.79636 0.63778 0.0
C2198 C 0.34275 0.91457 0.62982 0.0
C2199 C 0.31475 0.88795 0.62426 0.0
C2200 C 0.37079 0.91385 0.63068 0.0
C2201 C 0.37128 0.88648 0.62605 0.0
C2202 C 0.34322 0.85978 0.62093 0.0
C2203 C 0.31539 0.86051 0.61998 0.0
C2204 C 0.40083 0.88532 0.62612 0.0
C2205 C 0.40212 0.8621 0.63683 0.0
C2206 C 0.42709 0.9059 0.61518 0.0
C2207 C 0.42685 0.93006 0.60295 0.0
C2208 C 0.40412 0.92167 0.58885 0.0
C2209 C 0.40395 0.94461 0.57744 0.0
C2210 C 0.42656 0.97601 0.57989 0.0
C2211 C 0.44944 0.98451 0.59372 0.0
C2212 C 0.44969 0.96165 0.60519 0.0
C2213 C 0.50147 0.83909 0.61365 0.0
C2214 C 0.53234 0.8631 0.61701 0.0
C2215 C 0.4763 0.84409 0.61636 0.0
C2216 C 0.48134 0.87319 0.62255 0.0
C2217 C 0.51212 0.89727 0.62584 0.0
C2218 C 0.53734 0.89224 0.62321 0.0
C2219 C 0.45443 0.87844 0.62519 0.0
C2220 C 0.45364 0.9024 0.61501 0.0
C2221 C 0.42859 0.85852 0.63662 0.0
C2222 C 0.42881 0.83413 0.64869 0.0
C2223 C 0.45331 0.84193 0.66148 0.0
C2224 C 0.45354 0.81883 0.67271 0.0
C2225 C 0.42929 0.78787 0.67137 0.0
C2226 C 0.40471 0.77994 0.65882 0.0
C2227 C 0.40438 0.80294 0.64754 0.0
H2228 H 0.42951 0.77002 0.68009 0.0
H2229 H 0.42639 0.99374 0.57104 0.0
H2230 H 0.62488 0.69161 0.88433 0.0
H2231 H 0.57426 0.64275 0.88407 0.0
H2232 H 0.52671 0.69541 0.88953 0.0
H2233 H 0.57676 0.74376 0.89031 0.0
H2234 H 0.50311 0.64998 0.91321 0.0
H2235 H 0.52922 0.65873 0.84776 0.0
H2236 H 0.56198 0.66356 0.82057 0.0
H2237 H 0.5565 0.57669 0.8352 0.0
H2238 H 0.52418 0.5716 0.8627 0.0
H2239 H 0.34736 0.54029 0.89037 0.0
H2240 H 0.40101 0.58373 0.88753 0.0
H2241 H 0.43582 0.51979 0.89337 0.0
H2242 H 0.38195 0.47597 0.89615 0.0
H2243 H 0.46729 0.56727 0.86496 0.0
H2244 H 0.43907 0.5585 0.92989 0.0
H2245 H 0.40549 0.55418 0.95651 0.0
H2246 H 0.41429 0.64248 0.94176 0.0
H2247 H 0.44755 0.64711 0.91487 0.0
C2248 C 0.60359 0.69271 0.88529 0.0
C2249 C 0.60494 0.72161 0.88748 0.0
C2250 C 0.57462 0.66476 0.8851 0.0
C2251 C 0.54648 0.66525 0.88676 0.0
C2252 C 0.54795 0.69422 0.8884 0.0
C2253 C 0.57671 0.72196 0.88881 0.0
C2254 C 0.5154 0.63589 0.88761 0.0
C2255 C 0.49528 0.63214 0.9025 0.0
C2256 C 0.50526 0.61198 0.87398 0.0
C2257 C 0.52457 0.61496 0.85741 0.0
C2258 C 0.53521 0.64078 0.84527 0.0
C2259 C 0.55366 0.64355 0.82979 0.0
C2260 C 0.56135 0.62049 0.82618 0.0
C2261 C 0.55056 0.59457 0.83803 0.0
C2262 C 0.53218 0.59173 0.85357 0.0
C2263 C 0.36635 0.53533 0.89075 0.0
C2264 C 0.36031 0.50461 0.89351 0.0
C2265 C 0.39705 0.56024 0.88923 0.0
C2266 C 0.42246 0.55506 0.89035 0.0
C2267 C 0.41657 0.52433 0.89247 0.0
C2268 C 0.3858 0.49937 0.89419 0.0
C2269 C 0.45505 0.58202 0.89026 0.0
C2270 C 0.47536 0.58518 0.87563 0.0
C2271 C 0.4654 0.60562 0.90402 0.0
C2272 C 0.44558 0.60301 0.92027 0.0
C2273 C 0.43365 0.57688 0.93223 0.0
C2274 C 0.4147 0.57439 0.94738 0.0
C2275 C 0.4077 0.598 0.9508 0.0
C2276 C 0.4197 0.62419 0.93909 0.0
C2277 C 0.43863 0.62677 0.9239 0.0
H2278 H 0.39303 0.59604 0.96254 0.0
H2279 H 0.57563 0.62267 0.81418 0.0
loop_
_geom_bond_atom_site_label_1
_geom_bond_atom_site_label_2
_geom_bond_distance
_geom_bond_site_symmetry_2
_ccdc_geom_bond_type
Eu0 C9 2.828 . S
Eu0 O11 2.392 . S
Eu0 O13 2.418 . S
Eu0 O18 2.373 . S
Eu0 O21 2.488 . S
Eu0 O22 2.471 . S
Eu0 O23 2.349 . S
Eu1 O10 2.373 . S
Eu1 O14 2.488 . S
Eu1 O15 2.471 . S
Eu1 O16 2.349 . S
Eu1 O19 2.392 . S
Eu1 O20 2.418 . S
Eu1 C30 2.828 . S
C2 O20 1.244 . S
C2 O23 1.265 . S
C3 C4 1.379 . S
C3 C7 1.373 . S
C3 C9 1.505 . S
C4 C3 1.379 . S
C4 C6 1.369 . S
C4 H32 0.930 . S
C5 C7 1.383 . S
C5 C8 1.382 . S
C5 H33 0.930 . S
C6 C4 1.369 . S
C6 C8 1.392 . S
C6 H34 0.930 . S
C7 C3 1.373 . S
C7 C5 1.383 . S
C7 H35 0.931 . S
C8 C5 1.382 . S
C8 C6 1.392 . S
C9 Eu0 2.828 . S
C9 C3 1.505 . S
C9 O21 1.249 . S
C9 O22 1.244 . S
O10 Eu1 2.373 . S
O10 C12 1.258 . S
O11 Eu0 2.392 . S
O11 C12 1.242 . S
C12 O10 1.258 . S
C12 O11 1.242 . S
O13 Eu0 2.418 . S
O13 C17 1.244 . S
O14 Eu1 2.488 . S
O14 C30 1.249 . S
O15 Eu1 2.471 . S
O15 C30 1.244 . S
O16 Eu1 2.349 . S
O16 C17 1.265 . S
C17 O13 1.244 . S
C17 O16 1.265 . S
O18 Eu0 2.373 . S
O18 C31 1.258 . S
O19 Eu1 2.392 . S
O19 C31 1.242 . S
O20 Eu1 2.418 . S
O20 C2 1.244 . S
O21 Eu0 2.488 . S
O21 C9 1.249 . S
O22 Eu0 2.471 . S
O22 C9 1.244 . S
O23 Eu0 2.349 . S
O23 C2 1.265 . S
C24 C25 1.379 . S
C24 C28 1.373 . S
C24 C30 1.505 . S
C25 C24 1.379 . S
C25 C27 1.369 1_545 S
C25 H36 0.930 . S
C26 C28 1.383 1_565 S
C26 C29 1.382 . S
C26 H37 0.930 . S
C27 C25 1.369 1_565 S
C27 C29 1.392 . S
C27 H38 0.930 . S
C28 C24 1.373 . S
C28 C26 1.383 1_545 S
C28 H39 0.931 . S
C29 C26 1.382 . S
C29 C27 1.392 . S
C30 Eu1 2.828 . S
C30 O14 1.249 . S
C30 O15 1.244 . S
C30 C24 1.505 . S
C31 O18 1.258 . S
C31 O19 1.242 . S
H32 C4 0.930 . S
H33 C5 0.930 . S
H34 C6 0.930 . S
H35 C7 0.931 . S
H36 C25 0.930 . S
H37 C26 0.930 . S
H38 C27 0.930 . S
H39 C28 0.931 . S
Eu40 C49 2.828 . S
Eu40 O51 2.392 . S
Eu40 O53 2.418 . S
Eu40 O58 2.373 . S
Eu40 O61 2.488 . S
Eu40 O62 2.471 . S
Eu40 O63 2.349 . S
Eu41 O50 2.373 . S
Eu41 O54 2.488 . S
Eu41 O55 2.471 . S
Eu41 O56 2.349 . S
Eu41 O59 2.392 . S
Eu41 O60 2.418 . S
Eu41 C70 2.828 . S
C42 O60 1.244 . S
C42 O63 1.265 . S
C43 C44 1.379 . S
C43 C47 1.373 . S
C43 C49 1.505 . S
C44 C43 1.379 . S
C44 C46 1.369 . S
C44 H72 0.930 . S
C45 C47 1.383 . S
C45 C48 1.382 . S
C45 H73 0.930 . S
C46 C44 1.369 . S
C46 C48 1.392 . S
C46 H74 0.930 . S
C47 C43 1.373 . S
C47 C45 1.383 . S
C47 H75 0.931 . S
C48 C45 1.382 . S
C48 C46 1.392 . S
C49 Eu40 2.828 . S
C49 C43 1.505 . S
C49 O61 1.249 . S
C49 O62 1.244 . S
O50 Eu41 2.373 . S
O50 C52 1.258 . S
O51 Eu40 2.392 . S
O51 C52 1.242 . S
C52 O50 1.258 . S
C52 O51 1.242 . S
O53 Eu40 2.418 . S
O53 C57 1.244 . S
O54 Eu41 2.488 . S
O54 C70 1.249 . S
O55 Eu41 2.471 . S
O55 C70 1.244 . S
O56 Eu41 2.349 . S
O56 C57 1.265 . S
C57 O53 1.244 . S
C57 O56 1.265 . S
O58 Eu40 2.373 . S
O58 C71 1.258 . S
O59 Eu41 2.392 . S
O59 C71 1.242 . S
O60 Eu41 2.418 . S
O60 C42 1.244 . S
O61 Eu40 2.488 . S
O61 C49 1.249 . S
O62 Eu40 2.471 . S
O62 C49 1.244 . S
O63 Eu40 2.349 . S
O63 C42 1.265 . S
C64 C65 1.379 . S
C64 C68 1.373 . S
C64 C70 1.505 . S
C65 C64 1.379 . S
C65 C67 1.369 . S
C65 H76 0.930 . S
C66 C68 1.383 . S
C66 C69 1.382 . S
C66 H77 0.930 . S
C67 C65 1.369 . S
C67 C69 1.392 . S
C67 H78 0.930 . S
C68 C64 1.373 . S
C68 C66 1.383 . S
C68 H79 0.931 . S
C69 C66 1.382 . S
C69 C67 1.392 . S
C70 Eu41 2.828 . S
C70 O54 1.249 . S
C70 O55 1.244 . S
C70 C64 1.505 . S
C71 O58 1.258 . S
C71 O59 1.242 . S
H72 C44 0.930 . S
H73 C45 0.930 . S
H74 C46 0.930 . S
H75 C47 0.931 . S
H76 C65 0.930 . S
H77 C66 0.930 . S
H78 C67 0.930 . S
H79 C68 0.931 . S
Eu80 C89 2.828 . S
Eu80 O91 2.392 . S
Eu80 O93 2.418 . S
Eu80 O98 2.373 . S
Eu80 O101 2.488 . S
Eu80 O102 2.471 . S
Eu80 O103 2.349 . S
Eu81 O90 2.373 . S
Eu81 O94 2.488 . S
Eu81 O95 2.471 . S
Eu81 O96 2.349 . S
Eu81 O99 2.392 . S
Eu81 O100 2.418 . S
Eu81 C110 2.828 . S
C82 O100 1.244 . S
C82 O103 1.265 . S
C83 C84 1.379 . S
C83 C87 1.373 . S
C83 C89 1.505 . S
C84 C83 1.379 . S
C84 C86 1.369 . S
C84 H112 0.930 . S
C85 C87 1.383 . S
C85 C88 1.382 . S
C85 H113 0.930 . S
C86 C84 1.369 . S
C86 C88 1.392 . S
C86 H114 0.930 . S
C87 C83 1.373 . S
C87 C85 1.383 . S
C87 H115 0.931 . S
C88 C85 1.382 . S
C88 C86 1.392 . S
C89 Eu80 2.828 . S
C89 C83 1.505 . S
C89 O101 1.249 . S
C89 O102 1.244 . S
O90 Eu81 2.373 . S
O90 C92 1.258 . S
O91 Eu80 2.392 . S
O91 C92 1.242 . S
C92 O90 1.258 . S
C92 O91 1.242 . S
O93 Eu80 2.418 . S
O93 C97 1.244 . S
O94 Eu81 2.488 . S
O94 C110 1.249 . S
O95 Eu81 2.471 . S
O95 C110 1.244 . S
O96 Eu81 2.349 . S
O96 C97 1.265 . S
C97 O93 1.244 . S
C97 O96 1.265 . S
O98 Eu80 2.373 . S
O98 C111 1.258 . S
O99 Eu81 2.392 . S
O99 C111 1.242 . S
O100 Eu81 2.418 . S
O100 C82 1.244 . S
O101 Eu80 2.488 . S
O101 C89 1.249 . S
O102 Eu80 2.471 . S
O102 C89 1.244 . S
O103 Eu80 2.349 . S
O103 C82 1.265 . S
C104 C105 1.379 . S
C104 C108 1.373 . S
C104 C110 1.505 . S
C105 C104 1.379 . S
C105 C107 1.369 1_655 S
C105 H116 0.930 . S
C106 C108 1.383 1_455 S
C106 C109 1.382 . S
C106 H117 0.930 . S
C107 C105 1.369 1_455 S
C107 C109 1.392 . S
C107 H118 0.930 . S
C108 C104 1.373 . S
C108 C106 1.383 1_655 S
C108 H119 0.931 . S
C109 C106 1.382 . S
C109 C107 1.392 . S
C110 Eu81 2.828 . S
C110 O94 1.249 . S
C110 O95 1.244 . S
C110 C104 1.505 . S
C111 O98 1.258 . S
C111 O99 1.242 . S
H112 C84 0.930 . S
H113 C85 0.930 . S
H114 C86 0.930 . S
H115 C87 0.931 . S
H116 C105 0.930 . S
H117 C106 0.930 . S
H118 C107 0.930 . S
H119 C108 0.931 . S
Eu120 C129 2.828 . S
Eu120 O131 2.392 . S
Eu120 O133 2.418 . S
Eu120 O138 2.373 . S
Eu120 O141 2.488 . S
Eu120 O142 2.471 . S
Eu120 O143 2.349 . S
Eu121 O130 2.373 . S
Eu121 O134 2.488 . S
Eu121 O135 2.471 . S
Eu121 O136 2.349 . S
Eu121 O139 2.392 . S
Eu121 O140 2.418 . S
Eu121 C150 2.828 . S
C122 O140 1.244 . S
C122 O143 1.265 . S
C123 C124 1.379 . S
C123 C127 1.373 . S
C123 C129 1.505 . S
C124 C123 1.379 . S
C124 C126 1.369 1_545 S
C124 H152 0.930 . S
C125 C127 1.383 1_565 S
C125 C128 1.382 . S
C125 H153 0.930 . S
C126 C124 1.369 1_565 S
C126 C128 1.392 . S
C126 H154 0.930 . S
C127 C123 1.373 . S
C127 C125 1.383 1_545 S
C127 H155 0.931 . S
C128 C125 1.382 . S
C128 C126 1.392 . S
C129 Eu120 2.828 . S
C129 C123 1.505 . S
C129 O141 1.249 . S
C129 O142 1.244 . S
O130 Eu121 2.373 . S
O130 C132 1.258 . S
O131 Eu120 2.392 . S
O131 C132 1.242 . S
C132 O130 1.258 . S
C132 O131 1.242 . S
O133 Eu120 2.418 . S
O133 C137 1.244 . S
O134 Eu121 2.488 . S
O134 C150 1.249 . S
O135 Eu121 2.471 . S
O135 C150 1.244 . S
O136 Eu121 2.349 . S
O136 C137 1.265 . S
C137 O133 1.244 . S
C137 O136 1.265 . S
O138 Eu120 2.373 . S
O138 C151 1.258 . S
O139 Eu121 2.392 . S
O139 C151 1.242 . S
O140 Eu121 2.418 . S
O140 C122 1.244 . S
O141 Eu120 2.488 . S
O141 C129 1.249 . S
O142 Eu120 2.471 . S
O142 C129 1.244 . S
O143 Eu120 2.349 . S
O143 C122 1.265 . S
C144 C145 1.379 . S
C144 C148 1.373 . S
C144 C150 1.505 . S
C145 C144 1.379 . S
C145 C147 1.369 . S
C145 H156 0.930 . S
C146 C148 1.383 . S
C146 C149 1.382 . S
C146 H157 0.930 . S
C147 C145 1.369 . S
C147 C149 1.392 . S
C147 H158 0.930 . S
C148 C144 1.373 . S
C148 C146 1.383 . S
C148 H159 0.931 . S
C149 C146 1.382 . S
C149 C147 1.392 . S
C150 Eu121 2.828 . S
C150 O134 1.249 . S
C150 O135 1.244 . S
C150 C144 1.505 . S
C151 O138 1.258 . S
C151 O139 1.242 . S
H152 C124 0.930 . S
H153 C125 0.930 . S
H154 C126 0.930 . S
H155 C127 0.931 . S
H156 C145 0.930 . S
H157 C146 0.930 . S
H158 C147 0.930 . S
H159 C148 0.931 . S
Eu160 C169 2.828 . S
Eu160 O171 2.392 . S
Eu160 O173 2.418 . S
Eu160 O178 2.373 . S
Eu160 O181 2.488 . S
Eu160 O182 2.471 . S
Eu160 O183 2.349 . S
Eu161 O170 2.373 . S
Eu161 O174 2.488 . S
Eu161 O175 2.471 . S
Eu161 O176 2.349 . S
Eu161 O179 2.392 . S
Eu161 O180 2.418 . S
Eu161 C190 2.828 . S
C162 O180 1.244 . S
C162 O183 1.265 . S
C163 C164 1.379 . S
C163 C167 1.373 . S
C163 C169 1.505 . S
C164 C163 1.379 . S
C164 C166 1.369 . S
C164 H192 0.930 . S
C165 C167 1.383 . S
C165 C168 1.382 . S
C165 H193 0.930 . S
C166 C164 1.369 . S
C166 C168 1.392 . S
C166 H194 0.930 . S
C167 C163 1.373 . S
C167 C165 1.383 . S
C167 H195 0.931 . S
C168 C165 1.382 . S
C168 C166 1.392 . S
C169 Eu160 2.828 . S
C169 C163 1.505 . S
C169 O181 1.249 . S
C169 O182 1.244 . S
O170 Eu161 2.373 . S
O170 C172 1.258 . S
O171 Eu160 2.392 . S
O171 C172 1.242 . S
C172 O170 1.258 . S
C172 O171 1.242 . S
O173 Eu160 2.418 . S
O173 C177 1.244 . S
O174 Eu161 2.488 . S
O174 C190 1.249 . S
O175 Eu161 2.471 . S
O175 C190 1.244 . S
O176 Eu161 2.349 . S
O176 C177 1.265 . S
C177 O173 1.244 . S
C177 O176 1.265 . S
O178 Eu160 2.373 . S
O178 C191 1.258 . S
O179 Eu161 2.392 . S
O179 C191 1.242 . S
O180 Eu161 2.418 . S
O180 C162 1.244 . S
O181 Eu160 2.488 . S
O181 C169 1.249 . S
O182 Eu160 2.471 . S
O182 C169 1.244 . S
O183 Eu160 2.349 . S
O183 C162 1.265 . S
C184 C185 1.379 . S
C184 C188 1.373 . S
C184 C190 1.505 . S
C185 C184 1.379 . S
C185 C187 1.369 . S
C185 H196 0.930 . S
C186 C188 1.383 . S
C186 C189 1.382 . S
C186 H197 0.930 . S
C187 C185 1.369 . S
C187 C189 1.392 . S
C187 H198 0.930 . S
C188 C184 1.373 . S
C188 C186 1.383 . S
C188 H199 0.931 . S
C189 C186 1.382 . S
C189 C187 1.392 . S
C190 Eu161 2.828 . S
C190 O174 1.249 . S
C190 O175 1.244 . S
C190 C184 1.505 . S
C191 O178 1.258 . S
C191 O179 1.242 . S
H192 C164 0.930 . S
H193 C165 0.930 . S
H194 C166 0.930 . S
H195 C167 0.931 . S
H196 C185 0.930 . S
H197 C186 0.930 . S
H198 C187 0.930 . S
H199 C188 0.931 . S
Eu200 C209 2.828 . S
Eu200 O211 2.392 . S
Eu200 O213 2.418 . S
Eu200 O218 2.373 . S
Eu200 O221 2.488 . S
Eu200 O222 2.471 . S
Eu200 O223 2.349 . S
Eu201 O210 2.373 . S
Eu201 O214 2.488 . S
Eu201 O215 2.471 . S
Eu201 O216 2.349 . S
Eu201 O219 2.392 . S
Eu201 O220 2.418 . S
Eu201 C230 2.828 . S
C202 O220 1.244 . S
C202 O223 1.265 . S
C203 C204 1.379 . S
C203 C207 1.373 . S
C203 C209 1.505 . S
C204 C203 1.379 . S
C204 C206 1.369 1_655 S
C204 H232 0.930 . S
C205 C207 1.383 1_455 S
C205 C208 1.382 . S
C205 H233 0.930 . S
C206 C204 1.369 1_455 S
C206 C208 1.392 . S
C206 H234 0.930 . S
C207 C203 1.373 . S
C207 C205 1.383 1_655 S
C207 H235 0.931 . S
C208 C205 1.382 . S
C208 C206 1.392 . S
C209 Eu200 2.828 . S
C209 C203 1.505 . S
C209 O221 1.249 . S
C209 O222 1.244 . S
O210 Eu201 2.373 . S
O210 C212 1.258 . S
O211 Eu200 2.392 . S
O211 C212 1.242 . S
C212 O210 1.258 . S
C212 O211 1.242 . S
O213 Eu200 2.418 . S
O213 C217 1.244 . S
O214 Eu201 2.488 . S
O214 C230 1.249 . S
O215 Eu201 2.471 . S
O215 C230 1.244 . S
O216 Eu201 2.349 . S
O216 C217 1.265 . S
C217 O213 1.244 . S
C217 O216 1.265 . S
O218 Eu200 2.373 . S
O218 C231 1.258 . S
O219 Eu201 2.392 . S
O219 C231 1.242 . S
O220 Eu201 2.418 . S
O220 C202 1.244 . S
O221 Eu200 2.488 . S
O221 C209 1.249 . S
O222 Eu200 2.471 . S
O222 C209 1.244 . S
O223 Eu200 2.349 . S
O223 C202 1.265 . S
C224 C225 1.379 . S
C224 C228 1.373 . S
C224 C230 1.505 . S
C225 C224 1.379 . S
C225 C227 1.369 . S
C225 H236 0.930 . S
C226 C228 1.383 . S
C226 C229 1.382 . S
C226 H237 0.930 . S
C227 C225 1.369 . S
C227 C229 1.392 . S
C227 H238 0.930 . S
C228 C224 1.373 . S
C228 C226 1.383 . S
C228 H239 0.931 . S
C229 C226 1.382 . S
C229 C227 1.392 . S
C230 Eu201 2.828 . S
C230 O214 1.249 . S
C230 O215 1.244 . S
C230 C224 1.505 . S
C231 O218 1.258 . S
C231 O219 1.242 . S
H232 C204 0.930 . S
H233 C205 0.930 . S
H234 C206 0.930 . S
H235 C207 0.931 . S
H236 C225 0.930 . S
H237 C226 0.930 . S
H238 C227 0.930 . S
H239 C228 0.931 . S
Eu240 C249 2.828 . S
Eu240 O251 2.392 . S
Eu240 O253 2.418 . S
Eu240 O258 2.373 . S
Eu240 O261 2.488 . S
Eu240 O262 2.471 . S
Eu240 O263 2.349 . S
Eu241 O250 2.373 . S
Eu241 O254 2.488 . S
Eu241 O255 2.471 . S
Eu241 O256 2.349 . S
Eu241 O259 2.392 . S
Eu241 O260 2.418 . S
Eu241 C270 2.828 . S
C242 O260 1.244 . S
C242 O263 1.265 . S
C243 C244 1.379 . S
C243 C247 1.373 . S
C243 C249 1.505 . S
C244 C243 1.379 . S
C244 C246 1.369 1_455 S
C244 H272 0.930 . S
C245 C247 1.383 1_655 S
C245 C248 1.382 . S
C245 H273 0.930 . S
C246 C244 1.369 1_655 S
C246 C248 1.392 . S
C246 H274 0.930 . S
C247 C243 1.373 . S
C247 C245 1.383 1_455 S
C247 H275 0.931 . S
C248 C245 1.382 . S
C248 C246 1.392 . S
C249 Eu240 2.828 . S
C249 C243 1.505 . S
C249 O261 1.249 . S
C249 O262 1.244 . S
O250 Eu241 2.373 . S
O250 C252 1.258 . S
O251 Eu240 2.392 . S
O251 C252 1.242 . S
C252 O250 1.258 . S
C252 O251 1.242 . S
O253 Eu240 2.418 . S
O253 C257 1.244 . S
O254 Eu241 2.488 . S
O254 C270 1.249 . S
O255 Eu241 2.471 . S
O255 C270 1.244 . S
O256 Eu241 2.349 . S
O256 C257 1.265 . S
C257 O253 1.244 . S
C257 O256 1.265 . S
O258 Eu240 2.373 . S
O258 C271 1.258 . S
O259 Eu241 2.392 . S
O259 C271 1.242 . S
O260 Eu241 2.418 . S
O260 C242 1.244 . S
O261 Eu240 2.488 . S
O261 C249 1.249 . S
O262 Eu240 2.471 . S
O262 C249 1.244 . S
O263 Eu240 2.349 . S
O263 C242 1.265 . S
C264 C265 1.379 . S
C264 C268 1.373 . S
C264 C270 1.505 . S
C265 C264 1.379 . S
C265 C267 1.369 . S
C265 H276 0.930 . S
C266 C268 1.383 . S
C266 C269 1.382 . S
C266 H277 0.930 . S
C267 C265 1.369 . S
C267 C269 1.392 . S
C267 H278 0.930 . S
C268 C264 1.373 . S
C268 C266 1.383 . S
C268 H279 0.931 . S
C269 C266 1.382 . S
C269 C267 1.392 . S
C270 Eu241 2.828 . S
C270 O254 1.249 . S
C270 O255 1.244 . S
C270 C264 1.505 . S
C271 O258 1.258 . S
C271 O259 1.242 . S
H272 C244 0.930 . S
H273 C245 0.930 . S
H274 C246 0.930 . S
H275 C247 0.931 . S
H276 C265 0.930 . S
H277 C266 0.930 . S
H278 C267 0.930 . S
H279 C268 0.931 . S
Eu280 C289 2.828 . S
Eu280 O291 2.392 . S
Eu280 O293 2.418 . S
Eu280 O298 2.373 . S
Eu280 O301 2.488 . S
Eu280 O302 2.471 . S
Eu280 O303 2.349 . S
Eu281 O290 2.373 . S
Eu281 O294 2.488 . S
Eu281 O295 2.471 . S
Eu281 O296 2.349 . S
Eu281 O299 2.392 . S
Eu281 O300 2.418 . S
Eu281 C310 2.828 . S
C282 O300 1.244 . S
C282 O303 1.265 . S
C283 C284 1.379 . S
C283 C287 1.373 . S
C283 C289 1.505 . S
C284 C283 1.379 . S
C284 C286 1.369 . S
C284 H312 0.930 . S
C285 C287 1.383 . S
C285 C288 1.382 . S
C285 H313 0.930 . S
C286 C284 1.369 . S
C286 C288 1.392 . S
C286 H314 0.930 . S
C287 C283 1.373 . S
C287 C285 1.383 . S
C287 H315 0.931 . S
C288 C285 1.382 . S
C288 C286 1.392 . S
C289 Eu280 2.828 . S
C289 C283 1.505 . S
C289 O301 1.249 . S
C289 O302 1.244 . S
O290 Eu281 2.373 . S
O290 C292 1.258 . S
O291 Eu280 2.392 . S
O291 C292 1.242 . S
C292 O290 1.258 . S
C292 O291 1.242 . S
O293 Eu280 2.418 . S
O293 C297 1.244 . S
O294 Eu281 2.488 . S
O294 C310 1.249 . S
O295 Eu281 2.471 . S
O295 C310 1.244 . S
O296 Eu281 2.349 . S
O296 C297 1.265 . S
C297 O293 1.244 . S
C297 O296 1.265 . S
O298 Eu280 2.373 . S
O298 C311 1.258 . S
O299 Eu281 2.392 . S
O299 C311 1.242 . S
O300 Eu281 2.418 . S
O300 C282 1.244 . S
O301 Eu280 2.488 . S
O301 C289 1.249 . S
O302 Eu280 2.471 . S
O302 C289 1.244 . S
O303 Eu280 2.349 . S
O303 C282 1.265 . S
C304 C305 1.379 . S
C304 C308 1.373 . S
C304 C310 1.505 . S
C305 C304 1.379 . S
C305 C307 1.369 1_565 S
C305 H316 0.930 . S
C306 C308 1.383 1_545 S
C306 C309 1.382 . S
C306 H317 0.930 . S
C307 C305 1.369 1_545 S
C307 C309 1.392 . S
C307 H318 0.930 . S
C308 C304 1.373 . S
C308 C306 1.383 1_565 S
C308 H319 0.931 . S
C309 C306 1.382 . S
C309 C307 1.392 . S
C310 Eu281 2.828 . S
C310 O294 1.249 . S
C310 O295 1.244 . S
C310 C304 1.505 . S
C311 O298 1.258 . S
C311 O299 1.242 . S
H312 C284 0.930 . S
H313 C285 0.930 . S
H314 C286 0.930 . S
H315 C287 0.931 . S
H316 C305 0.930 . S
H317 C306 0.930 . S
H318 C307 0.930 . S
H319 C308 0.931 . S
Eu320 C329 2.828 . S
Eu320 O331 2.392 . S
Eu320 O333 2.418 . S
Eu320 O338 2.373 . S
Eu320 O341 2.488 . S
Eu320 O342 2.471 . S
Eu320 O343 2.349 . S
Eu321 O330 2.373 . S
Eu321 O334 2.488 . S
Eu321 O335 2.471 . S
Eu321 O336 2.349 . S
Eu321 O339 2.392 . S
Eu321 O340 2.418 . S
Eu321 C350 2.828 . S
C322 O340 1.244 . S
C322 O343 1.265 . S
C323 C324 1.379 . S
C323 C327 1.373 . S
C323 C329 1.505 . S
C324 C323 1.379 . S
C324 C326 1.369 . S
C324 H352 0.930 . S
C325 C327 1.383 . S
C325 C328 1.382 . S
C325 H353 0.930 . S
C326 C324 1.369 . S
C326 C328 1.392 . S
C326 H354 0.930 . S
C327 C323 1.373 . S
C327 C325 1.383 . S
C327 H355 0.931 . S
C328 C325 1.382 . S
C328 C326 1.392 . S
C329 Eu320 2.828 . S
C329 C323 1.505 . S
C329 O341 1.249 . S
C329 O342 1.244 . S
O330 Eu321 2.373 . S
O330 C332 1.258 . S
O331 Eu320 2.392 . S
O331 C332 1.242 . S
C332 O330 1.258 . S
C332 O331 1.242 . S
O333 Eu320 2.418 . S
O333 C337 1.244 . S
O334 Eu321 2.488 . S
O334 C350 1.249 . S
O335 Eu321 2.471 . S
O335 C350 1.244 . S
O336 Eu321 2.349 . S
O336 C337 1.265 . S
C337 O333 1.244 . S
C337 O336 1.265 . S
O338 Eu320 2.373 . S
O338 C351 1.258 . S
O339 Eu321 2.392 . S
O339 C351 1.242 . S
O340 Eu321 2.418 . S
O340 C322 1.244 . S
O341 Eu320 2.488 . S
O341 C329 1.249 . S
O342 Eu320 2.471 . S
O342 C329 1.244 . S
O343 Eu320 2.349 . S
O343 C322 1.265 . S
C344 C345 1.379 . S
C344 C348 1.373 . S
C344 C350 1.505 . S
C345 C344 1.379 . S
C345 C347 1.369 . S
C345 H356 0.930 . S
C346 C348 1.383 . S
C346 C349 1.382 . S
C346 H357 0.930 . S
C347 C345 1.369 . S
C347 C349 1.392 . S
C347 H358 0.930 . S
C348 C344 1.373 . S
C348 C346 1.383 . S
C348 H359 0.931 . S
C349 C346 1.382 . S
C349 C347 1.392 . S
C350 Eu321 2.828 . S
C350 O334 1.249 . S
C350 O335 1.244 . S
C350 C344 1.505 . S
C351 O338 1.258 . S
C351 O339 1.242 . S
H352 C324 0.930 . S
H353 C325 0.930 . S
H354 C326 0.930 . S
H355 C327 0.931 . S
H356 C345 0.930 . S
H357 C346 0.930 . S
H358 C347 0.930 . S
H359 C348 0.931 . S
Eu360 C369 2.828 . S
Eu360 O371 2.392 . S
Eu360 O373 2.418 . S
Eu360 O378 2.373 . S
Eu360 O381 2.488 . S
Eu360 O382 2.471 . S
Eu360 O383 2.349 . S
Eu361 O370 2.373 . S
Eu361 O374 2.488 . S
Eu361 O375 2.471 . S
Eu361 O376 2.349 . S
Eu361 O379 2.392 . S
Eu361 O380 2.418 . S
Eu361 C390 2.828 . S
C362 O380 1.244 . S
C362 O383 1.265 . S
C363 C364 1.379 . S
C363 C367 1.373 . S
C363 C369 1.505 . S
C364 C363 1.379 . S
C364 C366 1.369 . S
C364 H392 0.930 . S
C365 C367 1.383 . S
C365 C368 1.382 . S
C365 H393 0.930 . S
C366 C364 1.369 . S
C366 C368 1.392 . S
C366 H394 0.930 . S
C367 C363 1.373 . S
C367 C365 1.383 . S
C367 H395 0.931 . S
C368 C365 1.382 . S
C368 C366 1.392 . S
C369 Eu360 2.828 . S
C369 C363 1.505 . S
C369 O381 1.249 . S
C369 O382 1.244 . S
O370 Eu361 2.373 . S
O370 C372 1.258 . S
O371 Eu360 2.392 . S
O371 C372 1.242 . S
C372 O370 1.258 . S
C372 O371 1.242 . S
O373 Eu360 2.418 . S
O373 C377 1.244 . S
O374 Eu361 2.488 . S
O374 C390 1.249 . S
O375 Eu361 2.471 . S
O375 C390 1.244 . S
O376 Eu361 2.349 . S
O376 C377 1.265 . S
C377 O373 1.244 . S
C377 O376 1.265 . S
O378 Eu360 2.373 . S
O378 C391 1.258 . S
O379 Eu361 2.392 . S
O379 C391 1.242 . S
O380 Eu361 2.418 . S
O380 C362 1.244 . S
O381 Eu360 2.488 . S
O381 C369 1.249 . S
O382 Eu360 2.471 . S
O382 C369 1.244 . S
O383 Eu360 2.349 . S
O383 C362 1.265 . S
C384 C385 1.379 . S
C384 C388 1.373 . S
C384 C390 1.505 . S
C385 C384 1.379 . S
C385 C387 1.369 1_455 S
C385 H396 0.930 . S
C386 C388 1.383 1_655 S
C386 C389 1.382 . S
C386 H397 0.930 . S
C387 C385 1.369 1_655 S
C387 C389 1.392 . S
C387 H398 0.930 . S
C388 C384 1.373 . S
C388 C386 1.383 1_455 S
C388 H399 0.931 . S
C389 C386 1.382 . S
C389 C387 1.392 . S
C390 Eu361 2.828 . S
C390 O374 1.249 . S
C390 O375 1.244 . S
C390 C384 1.505 . S
C391 O378 1.258 . S
C391 O379 1.242 . S
H392 C364 0.930 . S
H393 C365 0.930 . S
H394 C366 0.930 . S
H395 C367 0.931 . S
H396 C385 0.930 . S
H397 C386 0.930 . S
H398 C387 0.930 . S
H399 C388 0.931 . S
Eu400 C409 2.828 . S
Eu400 O411 2.392 . S
Eu400 O413 2.418 . S
Eu400 O418 2.373 . S
Eu400 O421 2.488 . S
Eu400 O422 2.471 . S
Eu400 O423 2.349 . S
Eu401 O410 2.373 . S
Eu401 O414 2.488 . S
Eu401 O415 2.471 . S
Eu401 O416 2.349 . S
Eu401 O419 2.392 . S
Eu401 O420 2.418 . S
Eu401 C430 2.828 . S
C402 O420 1.244 . S
C402 O423 1.265 . S
C403 C404 1.379 . S
C403 C407 1.373 . S
C403 C409 1.505 . S
C404 C403 1.379 . S
C404 C406 1.369 1_565 S
C404 H432 0.930 . S
C405 C407 1.383 1_545 S
C405 C408 1.382 . S
C405 H433 0.930 . S
C406 C404 1.369 1_545 S
C406 C408 1.392 . S
C406 H434 0.930 . S
C407 C403 1.373 . S
C407 C405 1.383 1_565 S
C407 H435 0.931 . S
C408 C405 1.382 . S
C408 C406 1.392 . S
C409 Eu400 2.828 . S
C409 C403 1.505 . S
C409 O421 1.249 . S
C409 O422 1.244 . S
O410 Eu401 2.373 . S
O410 C412 1.258 . S
O411 Eu400 2.392 . S
O411 C412 1.242 . S
C412 O410 1.258 . S
C412 O411 1.242 . S
O413 Eu400 2.418 . S
O413 C417 1.244 . S
O414 Eu401 2.488 . S
O414 C430 1.249 . S
O415 Eu401 2.471 . S
O415 C430 1.244 . S
O416 Eu401 2.349 . S
O416 C417 1.265 . S
C417 O413 1.244 . S
C417 O416 1.265 . S
O418 Eu400 2.373 . S
O418 C431 1.258 . S
O419 Eu401 2.392 . S
O419 C431 1.242 . S
O420 Eu401 2.418 . S
O420 C402 1.244 . S
O421 Eu400 2.488 . S
O421 C409 1.249 . S
O422 Eu400 2.471 . S
O422 C409 1.244 . S
O423 Eu400 2.349 . S
O423 C402 1.265 . S
C424 C425 1.379 . S
C424 C428 1.373 . S
C424 C430 1.505 . S
C425 C424 1.379 . S
C425 C427 1.369 . S
C425 H436 0.930 . S
C426 C428 1.383 . S
C426 C429 1.382 . S
C426 H437 0.930 . S
C427 C425 1.369 . S
C427 C429 1.392 . S
C427 H438 0.930 . S
C428 C424 1.373 . S
C428 C426 1.383 . S
C428 H439 0.931 . S
C429 C426 1.382 . S
C429 C427 1.392 . S
C430 Eu401 2.828 . S
C430 O414 1.249 . S
C430 O415 1.244 . S
C430 C424 1.505 . S
C431 O418 1.258 . S
C431 O419 1.242 . S
H432 C404 0.930 . S
H433 C405 0.930 . S
H434 C406 0.930 . S
H435 C407 0.931 . S
H436 C425 0.930 . S
H437 C426 0.930 . S
H438 C427 0.930 . S
H439 C428 0.931 . S
Eu440 C449 2.828 . S
Eu440 O451 2.392 . S
Eu440 O453 2.418 . S
Eu440 O458 2.373 . S
Eu440 O461 2.488 . S
Eu440 O462 2.471 . S
Eu440 O463 2.349 . S
Eu441 O450 2.373 . S
Eu441 O454 2.488 . S
Eu441 O455 2.471 . S
Eu441 O456 2.349 . S
Eu441 O459 2.392 . S
Eu441 O460 2.418 . S
Eu441 C470 2.828 . S
C442 O460 1.244 . S
C442 O463 1.265 . S
C443 C444 1.379 . S
C443 C447 1.373 . S
C443 C449 1.505 . S
C444 C443 1.379 . S
C444 C446 1.369 . S
C444 H472 0.930 . S
C445 C447 1.383 . S
C445 C448 1.382 . S
C445 H473 0.930 . S
C446 C444 1.369 . S
C446 C448 1.392 . S
C446 H474 0.930 . S
C447 C443 1.373 . S
C447 C445 1.383 . S
C447 H475 0.931 . S
C448 C445 1.382 . S
C448 C446 1.392 . S
C449 Eu440 2.828 . S
C449 C443 1.505 . S
C449 O461 1.249 . S
C449 O462 1.244 . S
O450 Eu441 2.373 . S
O450 C452 1.258 . S
O451 Eu440 2.392 . S
O451 C452 1.242 . S
C452 O450 1.258 . S
C452 O451 1.242 . S
O453 Eu440 2.418 . S
O453 C457 1.244 . S
O454 Eu441 2.488 . S
O454 C470 1.249 . S
O455 Eu441 2.471 . S
O455 C470 1.244 . S
O456 Eu441 2.349 . S
O456 C457 1.265 . S
C457 O453 1.244 . S
C457 O456 1.265 . S
O458 Eu440 2.373 . S
O458 C471 1.258 . S
O459 Eu441 2.392 . S
O459 C471 1.242 . S
O460 Eu441 2.418 . S
O460 C442 1.244 . S
O461 Eu440 2.488 . S
O461 C449 1.249 . S
O462 Eu440 2.471 . S
O462 C449 1.244 . S
O463 Eu440 2.349 . S
O463 C442 1.265 . S
C464 C465 1.379 . S
C464 C468 1.373 . S
C464 C470 1.505 . S
C465 C464 1.379 . S
C465 C467 1.369 . S
C465 H476 0.930 . S
C466 C468 1.383 . S
C466 C469 1.382 . S
C466 H477 0.930 . S
C467 C465 1.369 . S
C467 C469 1.392 . S
C467 H478 0.930 . S
C468 C464 1.373 . S
C468 C466 1.383 . S
C468 H479 0.931 . S
C469 C466 1.382 . S
C469 C467 1.392 . S
C470 Eu441 2.828 . S
C470 O454 1.249 . S
C470 O455 1.244 . S
C470 C464 1.505 . S
C471 O458 1.258 . S
C471 O459 1.242 . S
H472 C444 0.930 . S
H473 C445 0.930 . S
H474 C446 0.930 . S
H475 C447 0.931 . S
H476 C465 0.930 . S
H477 C466 0.930 . S
H478 C467 0.930 . S
H479 C468 0.931 . S
H480 C498 0.951 . S
H481 C500 0.951 . S
H482 C502 0.950 . S
H483 C503 0.950 . S
H484 C505 0.950 . S
H485 C508 0.950 . S
H486 C509 0.950 . S
H487 C511 0.950 . S
H488 C512 0.950 . S
H489 C513 0.951 . S
H490 C515 0.951 . S
H491 C517 0.950 . S
H492 C518 0.950 . S
H493 C520 0.950 . S
H494 C523 0.950 . S
H495 C524 0.950 . S
H496 C526 0.950 . S
H497 C527 0.950 . S
C498 H480 0.951 . S
C498 C499 1.366 . S
C498 C500 1.388 . S
C499 C498 1.366 . S
C499 C503 1.385 . S
C500 H481 0.951 . S
C500 C498 1.388 . S
C500 C501 1.366 . S
C501 C500 1.366 . S
C501 C502 1.414 . S
C501 C504 1.499 . S
C502 H482 0.950 . S
C502 C501 1.414 . S
C502 C503 1.374 . S
C503 H483 0.950 . S
C503 C499 1.385 . S
C503 C502 1.374 . S
C504 C501 1.499 . S
C504 C505 1.373 . S
C504 C506 1.389 . S
C505 H484 0.950 . S
C505 C504 1.373 . S
C505 C521 1.377 . S
C506 C504 1.389 . S
C506 C507 1.524 . S
C506 C520 1.377 . S
C507 C506 1.524 . S
C507 C508 1.397 . S
C507 C512 1.363 . S
C508 H485 0.950 . S
C508 C507 1.397 . S
C508 C509 1.334 . S
C509 H486 0.950 . S
C509 C508 1.334 . S
C509 C510 1.287 . S
C510 C509 1.287 . S
C510 C511 1.524 . S
C510 H529 0.913 . S
C511 H487 0.950 . S
C511 C510 1.524 . S
C511 C512 1.415 . S
C512 H488 0.950 . S
C512 C507 1.363 . S
C512 C511 1.415 . S
C513 H489 0.951 . S
C513 C514 1.366 . S
C513 C515 1.388 . S
C514 C513 1.366 . S
C514 C518 1.385 . S
C515 H490 0.951 . S
C515 C513 1.388 . S
C515 C516 1.366 . S
C516 C515 1.366 . S
C516 C517 1.414 . S
C516 C519 1.499 . S
C517 H491 0.950 . S
C517 C516 1.414 . S
C517 C518 1.374 . S
C518 H492 0.950 . S
C518 C514 1.385 . S
C518 C517 1.374 . S
C519 C516 1.499 . S
C519 C520 1.373 . S
C519 C521 1.389 . S
C520 H493 0.950 . S
C520 C506 1.377 . S
C520 C519 1.373 . S
C521 C505 1.377 . S
C521 C519 1.389 . S
C521 C522 1.524 . S
C522 C521 1.524 . S
C522 C523 1.397 . S
C522 C527 1.363 . S
C523 H494 0.950 . S
C523 C522 1.397 . S
C523 C524 1.334 . S
C524 H495 0.950 . S
C524 C523 1.334 . S
C524 C525 1.287 . S
C525 C524 1.287 . S
C525 C526 1.524 . S
C525 H528 0.999 . S
C526 H496 0.950 . S
C526 C525 1.524 . S
C526 C527 1.415 . S
C527 H497 0.950 . S
C527 C522 1.363 . S
C527 C526 1.415 . S
H528 C525 0.999 . S
H529 C510 0.913 . S
H530 C548 0.951 . S
H531 C550 0.951 . S
H532 C552 0.950 . S
H533 C553 0.950 . S
H534 C555 0.950 . S
H535 C558 0.950 . S
H536 C559 0.950 . S
H537 C561 0.950 . S
H538 C562 0.950 . S
H539 C563 0.951 . S
H540 C565 0.951 . S
H541 C567 0.950 . S
H542 C568 0.950 . S
H543 C570 0.950 . S
H544 C573 0.950 . S
H545 C574 0.950 . S
H546 C576 0.950 . S
H547 C577 0.950 1_455 S
C548 H530 0.951 . S
C548 C549 1.366 . S
C548 C550 1.388 . S
C549 C548 1.366 . S
C549 C553 1.385 . S
C550 H531 0.951 . S
C550 C548 1.388 . S
C550 C551 1.366 . S
C551 C550 1.366 . S
C551 C552 1.414 . S
C551 C554 1.499 . S
C552 H532 0.950 . S
C552 C551 1.414 . S
C552 C553 1.374 . S
C553 H533 0.950 . S
C553 C549 1.385 . S
C553 C552 1.374 . S
C554 C551 1.499 . S
C554 C555 1.373 . S
C554 C556 1.389 . S
C555 H534 0.950 . S
C555 C554 1.373 . S
C555 C571 1.367 1_455 S
C556 C554 1.389 . S
C556 C557 1.524 . S
C556 C570 1.377 1_455 S
C557 C556 1.524 . S
C557 C558 1.397 . S
C557 C562 1.363 . S
C558 H535 0.950 . S
C558 C557 1.397 . S
C558 C559 1.334 . S
C559 H536 0.950 . S
C559 C558 1.334 . S
C559 C560 1.287 . S
C560 C559 1.287 . S
C560 C561 1.524 . S
C560 H579 0.913 . S
C561 H537 0.950 . S
C561 C560 1.524 . S
C561 C562 1.415 . S
C562 H538 0.950 . S
C562 C557 1.363 . S
C562 C561 1.415 . S
C563 H539 0.951 . S
C563 C564 1.366 . S
C563 C565 1.388 . S
C564 C563 1.366 . S
C564 C568 1.385 . S
C565 H540 0.951 . S
C565 C563 1.388 . S
C565 C566 1.366 . S
C566 C565 1.366 . S
C566 C567 1.414 . S
C566 C569 1.499 . S
C567 H541 0.950 . S
C567 C566 1.414 . S
C567 C568 1.374 . S
C568 H542 0.950 . S
C568 C564 1.385 . S
C568 C567 1.374 . S
C569 C566 1.499 . S
C569 C570 1.373 . S
C569 C571 1.399 . S
C570 H543 0.950 . S
C570 C556 1.377 1_655 S
C570 C569 1.373 . S
C571 C555 1.367 1_655 S
C571 C569 1.399 . S
C571 C572 1.523 . S
C572 C571 1.523 . S
C572 C573 1.397 . S
C572 C577 1.363 . S
C573 H544 0.950 . S
C573 C572 1.397 . S
C573 C574 1.334 . S
C574 H545 0.950 . S
C574 C573 1.334 . S
C574 C575 1.287 . S
C575 C574 1.287 . S
C575 C576 1.524 . S
C575 H578 0.999 . S
C576 H546 0.950 . S
C576 C575 1.524 . S
C576 C577 1.415 . S
C577 H547 0.950 1_655 S
C577 C572 1.363 . S
C577 C576 1.415 . S
H578 C575 0.999 . S
H579 C560 0.913 . S
H580 C598 0.951 . S
H581 C600 0.951 . S
H582 C602 0.950 . S
H583 C603 0.950 . S
H584 C605 0.950 . S
H585 C608 0.950 . S
H586 C609 0.950 . S
H587 C611 0.950 . S
H588 C612 0.950 1_565 S
H589 C613 0.951 . S
H590 C615 0.951 . S
H591 C617 0.950 . S
H592 C618 0.950 . S
H593 C620 0.950 . S
H594 C623 0.950 . S
H595 C624 0.950 . S
H596 C626 0.950 . S
H597 C627 0.950 . S
C598 H580 0.951 . S
C598 C599 1.366 . S
C598 C600 1.388 . S
C599 C598 1.366 . S
C599 C603 1.385 . S
C600 H581 0.951 . S
C600 C598 1.388 . S
C600 C601 1.366 . S
C601 C600 1.366 . S
C601 C602 1.414 . S
C601 C604 1.499 . S
C602 H582 0.950 . S
C602 C601 1.414 . S
C602 C603 1.374 . S
C603 H583 0.950 . S
C603 C599 1.385 . S
C603 C602 1.374 . S
C604 C601 1.499 . S
C604 C605 1.373 . S
C604 C606 1.389 . S
C605 H584 0.950 . S
C605 C604 1.373 . S
C605 C621 1.377 1_545 S
C606 C604 1.389 . S
C606 C607 1.524 . S
C606 C620 1.377 1_545 S
C607 C606 1.524 . S
C607 C608 1.397 . S
C607 C612 1.363 . S
C608 H585 0.950 . S
C608 C607 1.397 . S
C608 C609 1.334 . S
C609 H586 0.950 . S
C609 C608 1.334 . S
C609 C610 1.287 . S
C610 C609 1.287 . S
C610 C611 1.524 . S
C610 H629 0.913 . S
C611 H587 0.950 . S
C611 C610 1.524 . S
C611 C612 1.415 . S
C612 H588 0.950 1_545 S
C612 C607 1.363 . S
C612 C611 1.415 . S
C613 H589 0.951 . S
C613 C614 1.366 . S
C613 C615 1.388 . S
C614 C613 1.366 . S
C614 C618 1.385 . S
C615 H590 0.951 . S
C615 C613 1.388 . S
C615 C616 1.366 . S
C616 C615 1.366 . S
C616 C617 1.414 . S
C616 C619 1.499 . S
C617 H591 0.950 . S
C617 C616 1.414 . S
C617 C618 1.374 . S
C618 H592 0.950 . S
C618 C614 1.385 . S
C618 C617 1.374 . S
C619 C616 1.499 . S
C619 C620 1.373 . S
C619 C621 1.389 . S
C620 H593 0.950 . S
C620 C606 1.377 1_565 S
C620 C619 1.373 . S
C621 C605 1.377 1_565 S
C621 C619 1.389 . S
C621 C622 1.524 . S
C622 C621 1.524 . S
C622 C623 1.397 . S
C622 C627 1.363 . S
C623 H594 0.950 . S
C623 C622 1.397 . S
C623 C624 1.334 . S
C624 H595 0.950 . S
C624 C623 1.334 . S
C624 C625 1.287 . S
C625 C624 1.287 . S
C625 C626 1.524 . S
C625 H628 0.999 . S
C626 H596 0.950 . S
C626 C625 1.524 . S
C626 C627 1.415 . S
C627 H597 0.950 . S
C627 C622 1.363 . S
C627 C626 1.415 . S
H628 C625 0.999 . S
H629 C610 0.913 . S
H630 C648 0.951 . S
H631 C650 0.951 . S
H632 C652 0.950 . S
H633 C653 0.950 . S
H634 C655 0.950 . S
H635 C658 0.950 . S
H636 C659 0.950 . S
H637 C661 0.950 . S
H638 C662 0.950 . S
H639 C663 0.951 . S
H640 C665 0.951 . S
H641 C667 0.950 . S
H642 C668 0.950 . S
H643 C670 0.950 . S
H644 C673 0.950 . S
H645 C674 0.950 . S
H646 C676 0.950 . S
H647 C677 0.950 . S
C648 H630 0.951 . S
C648 C649 1.366 . S
C648 C650 1.388 . S
C649 C648 1.366 . S
C649 C653 1.385 . S
C650 H631 0.951 . S
C650 C648 1.388 . S
C650 C651 1.366 . S
C651 C650 1.366 . S
C651 C652 1.414 . S
C651 C654 1.499 . S
C652 H632 0.950 . S
C652 C651 1.414 . S
C652 C653 1.374 . S
C653 H633 0.950 . S
C653 C649 1.385 . S
C653 C652 1.374 . S
C654 C651 1.499 . S
C654 C655 1.373 . S
C654 C656 1.389 . S
C655 H634 0.950 . S
C655 C654 1.373 . S
C655 C671 1.377 . S
C656 C654 1.389 . S
C656 C657 1.524 . S
C656 C670 1.377 . S
C657 C656 1.524 . S
C657 C658 1.397 . S
C657 C662 1.363 . S
C658 H635 0.950 . S
C658 C657 1.397 . S
C658 C659 1.334 . S
C659 H636 0.950 . S
C659 C658 1.334 . S
C659 C660 1.287 . S
C660 C659 1.287 . S
C660 C661 1.524 . S
C660 H679 0.913 . S
C661 H637 0.950 . S
C661 C660 1.524 . S
C661 C662 1.415 . S
C662 H638 0.950 . S
C662 C657 1.363 . S
C662 C661 1.415 . S
C663 H639 0.951 . S
C663 C664 1.366 . S
C663 C665 1.388 . S
C664 C663 1.366 . S
C664 C668 1.385 . S
C665 H640 0.951 . S
C665 C663 1.388 . S
C665 C666 1.366 . S
C666 C665 1.366 . S
C666 C667 1.414 . S
C666 C669 1.499 . S
C667 H641 0.950 . S
C667 C666 1.414 . S
C667 C668 1.374 . S
C668 H642 0.950 . S
C668 C664 1.385 . S
C668 C667 1.374 . S
C669 C666 1.499 . S
C669 C670 1.373 . S
C669 C671 1.389 . S
C670 H643 0.950 . S
C670 C656 1.377 . S
C670 C669 1.373 . S
C671 C655 1.377 . S
C671 C669 1.389 . S
C671 C672 1.524 . S
C672 C671 1.524 . S
C672 C673 1.397 . S
C672 C677 1.363 . S
C673 H644 0.950 . S
C673 C672 1.397 . S
C673 C674 1.334 . S
C674 H645 0.950 . S
C674 C673 1.334 . S
C674 C675 1.287 . S
C675 C674 1.287 . S
C675 C676 1.524 . S
C675 H678 0.999 . S
C676 H646 0.950 . S
C676 C675 1.524 . S
C676 C677 1.415 . S
C677 H647 0.950 . S
C677 C672 1.363 . S
C677 C676 1.415 . S
H678 C675 0.999 . S
H679 C660 0.913 . S
H680 C698 0.951 . S
H681 C700 0.951 . S
H682 C702 0.950 . S
H683 C703 0.950 . S
H684 C705 0.950 . S
H685 C708 0.950 . S
H686 C709 0.950 . S
H687 C711 0.950 . S
H688 C712 0.950 . S
H689 C713 0.951 . S
H690 C715 0.951 . S
H691 C717 0.950 . S
H692 C718 0.950 . S
H693 C720 0.950 . S
H694 C723 0.950 . S
H695 C724 0.950 . S
H696 C726 0.950 . S
H697 C727 0.950 . S
C698 H680 0.951 . S
C698 C699 1.366 . S
C698 C700 1.388 . S
C699 C698 1.366 . S
C699 C703 1.385 . S
C700 H681 0.951 . S
C700 C698 1.388 . S
C700 C701 1.366 . S
C701 C700 1.366 . S
C701 C702 1.414 . S
C701 C704 1.499 . S
C702 H682 0.950 . S
C702 C701 1.414 . S
C702 C703 1.374 . S
C703 H683 0.950 . S
C703 C699 1.385 . S
C703 C702 1.374 . S
C704 C701 1.499 . S
C704 C705 1.373 . S
C704 C706 1.389 . S
C705 H684 0.950 . S
C705 C704 1.373 . S
C705 C721 1.377 1_455 S
C706 C704 1.389 . S
C706 C707 1.524 . S
C706 C720 1.377 1_455 S
C707 C706 1.524 . S
C707 C708 1.397 . S
C707 C712 1.363 . S
C708 H685 0.950 . S
C708 C707 1.397 . S
C708 C709 1.334 . S
C709 H686 0.950 . S
C709 C708 1.334 . S
C709 C710 1.287 . S
C710 C709 1.287 . S
C710 C711 1.524 . S
C710 H729 0.913 . S
C711 H687 0.950 . S
C711 C710 1.524 . S
C711 C712 1.415 . S
C712 H688 0.950 . S
C712 C707 1.363 . S
C712 C711 1.415 . S
C713 H689 0.951 . S
C713 C714 1.366 . S
C713 C715 1.388 . S
C714 C713 1.366 . S
C714 C718 1.385 . S
C715 H690 0.951 . S
C715 C713 1.388 . S
C715 C716 1.366 . S
C716 C715 1.366 . S
C716 C717 1.414 . S
C716 C719 1.499 . S
C717 H691 0.950 . S
C717 C716 1.414 . S
C717 C718 1.374 . S
C718 H692 0.950 . S
C718 C714 1.385 . S
C718 C717 1.374 . S
C719 C716 1.499 . S
C719 C720 1.373 . S
C719 C721 1.389 . S
C720 H693 0.950 . S
C720 C706 1.377 1_655 S
C720 C719 1.373 . S
C721 C705 1.377 1_655 S
C721 C719 1.389 . S
C721 C722 1.524 . S
C722 C721 1.524 . S
C722 C723 1.397 . S
C722 C727 1.363 . S
C723 H694 0.950 . S
C723 C722 1.397 . S
C723 C724 1.334 . S
C724 H695 0.950 . S
C724 C723 1.334 . S
C724 C725 1.287 . S
C725 C724 1.287 . S
C725 C726 1.524 . S
C725 H728 0.999 . S
C726 H696 0.950 . S
C726 C725 1.524 . S
C726 C727 1.415 . S
C727 H697 0.950 . S
C727 C722 1.363 . S
C727 C726 1.415 . S
H728 C725 0.999 . S
H729 C710 0.913 . S
H730 C748 0.951 . S
H731 C750 0.951 . S
H732 C752 0.950 . S
H733 C753 0.950 . S
H734 C755 0.950 . S
H735 C758 0.950 . S
H736 C759 0.950 . S
H737 C761 0.950 . S
H738 C762 0.950 . S
H739 C763 0.951 . S
H740 C765 0.951 . S
H741 C767 0.950 . S
H742 C768 0.950 . S
H743 C770 0.950 . S
H744 C773 0.950 . S
H745 C774 0.950 . S
H746 C776 0.950 . S
H747 C777 0.950 . S
C748 H730 0.951 . S
C748 C749 1.366 . S
C748 C750 1.388 . S
C749 C748 1.366 . S
C749 C753 1.385 . S
C750 H731 0.951 . S
C750 C748 1.388 . S
C750 C751 1.366 . S
C751 C750 1.366 . S
C751 C752 1.414 . S
C751 C754 1.499 . S
C752 H732 0.950 . S
C752 C751 1.414 . S
C752 C753 1.374 . S
C753 H733 0.950 . S
C753 C749 1.385 . S
C753 C752 1.374 . S
C754 C751 1.499 . S
C754 C755 1.373 . S
C754 C756 1.389 . S
C755 H734 0.950 . S
C755 C754 1.373 . S
C755 C771 1.377 1_565 S
C756 C754 1.389 . S
C756 C757 1.524 . S
C756 C770 1.377 1_565 S
C757 C756 1.524 . S
C757 C758 1.397 . S
C757 C762 1.363 . S
C758 H735 0.950 . S
C758 C757 1.397 . S
C758 C759 1.334 . S
C759 H736 0.950 . S
C759 C758 1.334 . S
C759 C760 1.287 . S
C760 C759 1.287 . S
C760 C761 1.524 . S
C760 H779 0.913 . S
C761 H737 0.950 . S
C761 C760 1.524 . S
C761 C762 1.415 . S
C762 H738 0.950 . S
C762 C757 1.363 . S
C762 C761 1.415 . S
C763 H739 0.951 . S
C763 C764 1.366 . S
C763 C765 1.388 . S
C764 C763 1.366 . S
C764 C768 1.385 . S
C765 H740 0.951 . S
C765 C763 1.388 . S
C765 C766 1.366 . S
C766 C765 1.366 . S
C766 C767 1.414 . S
C766 C769 1.499 . S
C767 H741 0.950 . S
C767 C766 1.414 . S
C767 C768 1.374 . S
C768 H742 0.950 . S
C768 C764 1.385 . S
C768 C767 1.374 . S
C769 C766 1.499 . S
C769 C770 1.373 . S
C769 C771 1.389 . S
C770 H743 0.950 . S
C770 C756 1.377 1_545 S
C770 C769 1.373 . S
C771 C755 1.377 1_545 S
C771 C769 1.389 . S
C771 C772 1.524 . S
C772 C771 1.524 . S
C772 C773 1.397 . S
C772 C777 1.363 . S
C773 H744 0.950 . S
C773 C772 1.397 . S
C773 C774 1.334 . S
C774 H745 0.950 . S
C774 C773 1.334 . S
C774 C775 1.287 . S
C775 C774 1.287 . S
C775 C776 1.524 . S
C775 H778 0.999 . S
C776 H746 0.950 . S
C776 C775 1.524 . S
C776 C777 1.415 . S
C777 H747 0.950 . S
C777 C772 1.363 . S
C777 C776 1.415 . S
H778 C775 0.999 . S
H779 C760 0.913 . S
H780 C798 0.951 . S
H781 C800 0.951 . S
H782 C802 0.950 . S
H783 C803 0.950 . S
H784 C805 0.950 . S
H785 C808 0.950 . S
H786 C809 0.950 . S
H787 C811 0.950 . S
H788 C812 0.950 . S
H789 C813 0.951 . S
H790 C815 0.951 . S
H791 C817 0.950 . S
H792 C818 0.950 . S
H793 C820 0.950 . S
H794 C823 0.950 . S
H795 C824 0.950 . S
H796 C826 0.950 . S
H797 C827 0.950 . S
C798 H780 0.951 . S
C798 C799 1.366 . S
C798 C800 1.388 . S
C799 C798 1.366 . S
C799 C803 1.385 . S
C800 H781 0.951 . S
C800 C798 1.388 . S
C800 C801 1.366 . S
C801 C800 1.366 . S
C801 C802 1.414 . S
C801 C804 1.499 . S
C802 H782 0.950 . S
C802 C801 1.414 . S
C802 C803 1.374 . S
C803 H783 0.950 . S
C803 C799 1.385 . S
C803 C802 1.374 . S
C804 C801 1.499 . S
C804 C805 1.373 . S
C804 C806 1.389 . S
C805 H784 0.950 . S
C805 C804 1.373 . S
C805 C821 1.377 . S
C806 C804 1.389 . S
C806 C807 1.524 . S
C806 C820 1.377 . S
C807 C806 1.524 . S
C807 C808 1.397 . S
C807 C812 1.363 . S
C808 H785 0.950 . S
C808 C807 1.397 . S
C808 C809 1.334 . S
C809 H786 0.950 . S
C809 C808 1.334 . S
C809 C810 1.287 . S
C810 C809 1.287 . S
C810 C811 1.524 . S
C810 H829 0.913 . S
C811 H787 0.950 . S
C811 C810 1.524 . S
C811 C812 1.415 . S
C812 H788 0.950 . S
C812 C807 1.363 . S
C812 C811 1.415 . S
C813 H789 0.951 . S
C813 C814 1.366 . S
C813 C815 1.388 . S
C814 C813 1.366 . S
C814 C818 1.385 . S
C815 H790 0.951 . S
C815 C813 1.388 . S
C815 C816 1.366 . S
C816 C815 1.366 . S
C816 C817 1.414 . S
C816 C819 1.499 . S
C817 H791 0.950 . S
C817 C816 1.414 . S
C817 C818 1.374 . S
C818 H792 0.950 . S
C818 C814 1.385 . S
C818 C817 1.374 . S
C819 C816 1.499 . S
C819 C820 1.373 . S
C819 C821 1.389 . S
C820 H793 0.950 . S
C820 C806 1.377 . S
C820 C819 1.373 . S
C821 C805 1.377 . S
C821 C819 1.389 . S
C821 C822 1.524 . S
C822 C821 1.524 . S
C822 C823 1.397 . S
C822 C827 1.363 . S
C823 H794 0.950 . S
C823 C822 1.397 . S
C823 C824 1.334 . S
C824 H795 0.950 . S
C824 C823 1.334 . S
C824 C825 1.287 . S
C825 C824 1.287 . S
C825 C826 1.524 . S
C825 H828 0.999 . S
C826 H796 0.950 . S
C826 C825 1.524 . S
C826 C827 1.415 . S
C827 H797 0.950 . S
C827 C822 1.363 . S
C827 C826 1.415 . S
H828 C825 0.999 . S
H829 C810 0.913 . S
H830 C848 0.951 . S
H831 C850 0.951 . S
H832 C852 0.950 . S
H833 C853 0.950 . S
H834 C855 0.950 . S
H835 C858 0.950 . S
H836 C859 0.950 . S
H837 C861 0.950 . S
H838 C862 0.950 . S
H839 C863 0.951 . S
H840 C865 0.951 . S
H841 C867 0.950 . S
H842 C868 0.950 . S
H843 C870 0.950 . S
H844 C873 0.950 . S
H845 C874 0.950 . S
H846 C876 0.950 . S
H847 C877 0.950 . S
C848 H830 0.951 . S
C848 C849 1.366 . S
C848 C850 1.388 . S
C849 C848 1.366 . S
C849 C853 1.385 . S
C850 H831 0.951 . S
C850 C848 1.388 . S
C850 C851 1.366 . S
C851 C850 1.366 . S
C851 C852 1.414 . S
C851 C854 1.499 . S
C852 H832 0.950 . S
C852 C851 1.414 . S
C852 C853 1.374 . S
C853 H833 0.950 . S
C853 C849 1.385 . S
C853 C852 1.374 . S
C854 C851 1.499 . S
C854 C855 1.373 . S
C854 C856 1.389 . S
C855 H834 0.950 . S
C855 C854 1.373 . S
C855 C871 1.377 1_455 S
C856 C854 1.389 . S
C856 C857 1.524 . S
C856 C870 1.377 1_455 S
C857 C856 1.524 . S
C857 C858 1.397 . S
C857 C862 1.363 . S
C858 H835 0.950 . S
C858 C857 1.397 . S
C858 C859 1.334 . S
C859 H836 0.950 . S
C859 C858 1.334 . S
C859 C860 1.287 . S
C860 C859 1.287 . S
C860 C861 1.524 . S
C860 H879 0.913 . S
C861 H837 0.950 . S
C861 C860 1.524 . S
C861 C862 1.415 . S
C862 H838 0.950 . S
C862 C857 1.363 . S
C862 C861 1.415 . S
C863 H839 0.951 . S
C863 C864 1.366 . S
C863 C865 1.388 . S
C864 C863 1.366 . S
C864 C868 1.385 . S
C865 H840 0.951 . S
C865 C863 1.388 . S
C865 C866 1.366 . S
C866 C865 1.366 . S
C866 C867 1.414 . S
C866 C869 1.499 . S
C867 H841 0.950 . S
C867 C866 1.414 . S
C867 C868 1.374 . S
C868 H842 0.950 . S
C868 C864 1.385 . S
C868 C867 1.374 . S
C869 C866 1.499 . S
C869 C870 1.373 . S
C869 C871 1.389 . S
C870 H843 0.950 . S
C870 C856 1.377 1_655 S
C870 C869 1.373 . S
C871 C855 1.377 1_655 S
C871 C869 1.389 . S
C871 C872 1.524 . S
C872 C871 1.524 . S
C872 C873 1.397 . S
C872 C877 1.363 . S
C873 H844 0.950 . S
C873 C872 1.397 . S
C873 C874 1.334 . S
C874 H845 0.950 . S
C874 C873 1.334 . S
C874 C875 1.287 . S
C875 C874 1.287 . S
C875 C876 1.524 . S
C875 H878 0.999 . S
C876 H846 0.950 . S
C876 C875 1.524 . S
C876 C877 1.415 . S
C877 H847 0.950 . S
C877 C872 1.363 . S
C877 C876 1.415 . S
H878 C875 0.999 . S
H879 C860 0.913 . S
H880 C898 0.951 . S
H881 C900 0.951 . S
H882 C902 0.950 . S
H883 C903 0.950 . S
H884 C905 0.950 . S
H885 C908 0.950 . S
H886 C909 0.950 . S
H887 C911 0.950 . S
H888 C912 0.950 . S
H889 C913 0.951 . S
H890 C915 0.951 . S
H891 C917 0.950 . S
H892 C918 0.950 . S
H893 C920 0.950 . S
H894 C923 0.950 . S
H895 C924 0.950 . S
H896 C926 0.950 . S
H897 C927 0.950 . S
C898 H880 0.951 . S
C898 C899 1.366 . S
C898 C900 1.388 . S
C899 C898 1.366 . S
C899 C903 1.385 . S
C900 H881 0.951 . S
C900 C898 1.388 . S
C900 C901 1.366 . S
C901 C900 1.366 . S
C901 C902 1.414 . S
C901 C904 1.499 . S
C902 H882 0.950 . S
C902 C901 1.414 . S
C902 C903 1.374 . S
C903 H883 0.950 . S
C903 C899 1.385 . S
C903 C902 1.374 . S
C904 C901 1.499 . S
C904 C905 1.373 . S
C904 C906 1.389 . S
C905 H884 0.950 . S
C905 C904 1.373 . S
C905 C921 1.377 1_565 S
C906 C904 1.389 . S
C906 C907 1.524 . S
C906 C920 1.377 1_565 S
C907 C906 1.524 . S
C907 C908 1.397 . S
C907 C912 1.363 . S
C908 H885 0.950 . S
C908 C907 1.397 . S
C908 C909 1.334 . S
C909 H886 0.950 . S
C909 C908 1.334 . S
C909 C910 1.287 . S
C910 C909 1.287 . S
C910 C911 1.524 . S
C910 H929 0.913 . S
C911 H887 0.950 . S
C911 C910 1.524 . S
C911 C912 1.415 . S
C912 H888 0.950 . S
C912 C907 1.363 . S
C912 C911 1.415 . S
C913 H889 0.951 . S
C913 C914 1.366 . S
C913 C915 1.388 . S
C914 C913 1.366 . S
C914 C918 1.385 . S
C915 H890 0.951 . S
C915 C913 1.388 . S
C915 C916 1.366 . S
C916 C915 1.366 . S
C916 C917 1.414 . S
C916 C919 1.499 . S
C917 H891 0.950 . S
C917 C916 1.414 . S
C917 C918 1.374 . S
C918 H892 0.950 . S
C918 C914 1.385 . S
C918 C917 1.374 . S
C919 C916 1.499 . S
C919 C920 1.373 . S
C919 C921 1.389 . S
C920 H893 0.950 . S
C920 C906 1.377 1_545 S
C920 C919 1.373 . S
C921 C905 1.377 1_545 S
C921 C919 1.389 . S
C921 C922 1.524 . S
C922 C921 1.524 . S
C922 C923 1.397 . S
C922 C927 1.363 . S
C923 H894 0.950 . S
C923 C922 1.397 . S
C923 C924 1.334 . S
C924 H895 0.950 . S
C924 C923 1.334 . S
C924 C925 1.287 . S
C925 C924 1.287 . S
C925 C926 1.524 . S
C925 H928 0.999 . S
C926 H896 0.950 . S
C926 C925 1.524 . S
C926 C927 1.415 . S
C927 H897 0.950 . S
C927 C922 1.363 . S
C927 C926 1.415 . S
H928 C925 0.999 . S
H929 C910 0.913 . S
H930 C948 0.951 . S
H931 C950 0.951 . S
H932 C952 0.950 . S
H933 C953 0.950 . S
H934 C955 0.950 . S
H935 C958 0.950 . S
H936 C959 0.950 . S
H937 C961 0.950 . S
H938 C962 0.950 . S
H939 C963 0.951 . S
H940 C965 0.951 . S
H941 C967 0.950 . S
H942 C968 0.950 . S
H943 C970 0.950 . S
H944 C973 0.950 . S
H945 C974 0.950 . S
H946 C976 0.950 . S
H947 C977 0.950 . S
C948 H930 0.951 . S
C948 C949 1.366 . S
C948 C950 1.388 . S
C949 C948 1.366 . S
C949 C953 1.385 . S
C950 H931 0.951 . S
C950 C948 1.388 . S
C950 C951 1.366 . S
C951 C950 1.366 . S
C951 C952 1.414 . S
C951 C954 1.499 . S
C952 H932 0.950 . S
C952 C951 1.414 . S
C952 C953 1.374 . S
C953 H933 0.950 . S
C953 C949 1.385 . S
C953 C952 1.374 . S
C954 C951 1.499 . S
C954 C955 1.373 . S
C954 C956 1.389 . S
C955 H934 0.950 . S
C955 C954 1.373 . S
C955 C971 1.377 . S
C956 C954 1.389 . S
C956 C957 1.524 . S
C956 C970 1.377 . S
C957 C956 1.524 . S
C957 C958 1.397 . S
C957 C962 1.363 . S
C958 H935 0.950 . S
C958 C957 1.397 . S
C958 C959 1.334 . S
C959 H936 0.950 . S
C959 C958 1.334 . S
C959 C960 1.287 . S
C960 C959 1.287 . S
C960 C961 1.524 . S
C960 H979 0.913 . S
C961 H937 0.950 . S
C961 C960 1.524 . S
C961 C962 1.415 . S
C962 H938 0.950 . S
C962 C957 1.363 . S
C962 C961 1.415 . S
C963 H939 0.951 . S
C963 C964 1.366 . S
C963 C965 1.388 . S
C964 C963 1.366 . S
C964 C968 1.385 . S
C965 H940 0.951 . S
C965 C963 1.388 . S
C965 C966 1.366 . S
C966 C965 1.366 . S
C966 C967 1.414 . S
C966 C969 1.499 . S
C967 H941 0.950 . S
C967 C966 1.414 . S
C967 C968 1.374 . S
C968 H942 0.950 . S
C968 C964 1.385 . S
C968 C967 1.374 . S
C969 C966 1.499 . S
C969 C970 1.373 . S
C969 C971 1.389 . S
C970 H943 0.950 . S
C970 C956 1.377 . S
C970 C969 1.373 . S
C971 C955 1.377 . S
C971 C969 1.389 . S
C971 C972 1.524 . S
C972 C971 1.524 . S
C972 C973 1.397 . S
C972 C977 1.363 . S
C973 H944 0.950 . S
C973 C972 1.397 . S
C973 C974 1.334 . S
C974 H945 0.950 . S
C974 C973 1.334 . S
C974 C975 1.287 . S
C975 C974 1.287 . S
C975 C976 1.524 . S
C975 H978 0.999 . S
C976 H946 0.950 . S
C976 C975 1.524 . S
C976 C977 1.415 . S
C977 H947 0.950 . S
C977 C972 1.363 . S
C977 C976 1.415 . S
H978 C975 0.999 . S
H979 C960 0.913 . S
H980 C998 0.951 . S
H981 C1000 0.951 . S
H982 C1002 0.950 . S
H983 C1003 0.950 . S
H984 C1005 0.950 1_455 S
H985 C1008 0.950 . S
H986 C1009 0.950 . S
H987 C1011 0.950 . S
H988 C1012 0.950 . S
H989 C1013 0.951 . S
H990 C1015 0.951 . S
H991 C1017 0.950 . S
H992 C1018 0.950 . S
H993 C1020 0.950 . S
H994 C1023 0.950 . S
H995 C1024 0.950 . S
H996 C1026 0.950 . S
H997 C1027 0.950 . S
C998 H980 0.951 . S
C998 C999 1.366 . S
C998 C1000 1.388 . S
C999 C998 1.366 . S
C999 C1003 1.385 . S
C1000 H981 0.951 . S
C1000 C998 1.388 . S
C1000 C1001 1.366 . S
C1001 C1000 1.366 . S
C1001 C1002 1.414 . S
C1001 C1004 1.499 . S
C1002 H982 0.950 . S
C1002 C1001 1.414 . S
C1002 C1003 1.374 . S
C1003 H983 0.950 . S
C1003 C999 1.385 . S
C1003 C1002 1.374 . S
C1004 C1001 1.499 . S
C1004 C1005 1.373 1_455 S
C1004 C1006 1.389 . S
C1005 H984 0.950 1_655 S
C1005 C1004 1.373 1_655 S
C1005 C1021 1.377 . S
C1006 C1004 1.389 . S
C1006 C1007 1.524 . S
C1006 C1020 1.377 1_455 S
C1007 C1006 1.524 . S
C1007 C1008 1.397 . S
C1007 C1012 1.363 . S
C1008 H985 0.950 . S
C1008 C1007 1.397 . S
C1008 C1009 1.334 . S
C1009 H986 0.950 . S
C1009 C1008 1.334 . S
C1009 C1010 1.287 . S
C1010 C1009 1.287 . S
C1010 C1011 1.524 . S
C1010 H1029 0.913 . S
C1011 H987 0.950 . S
C1011 C1010 1.524 . S
C1011 C1012 1.415 . S
C1012 H988 0.950 . S
C1012 C1007 1.363 . S
C1012 C1011 1.415 . S
C1013 H989 0.951 . S
C1013 C1014 1.366 . S
C1013 C1015 1.388 . S
C1014 C1013 1.366 . S
C1014 C1018 1.385 . S
C1015 H990 0.951 . S
C1015 C1013 1.388 . S
C1015 C1016 1.366 . S
C1016 C1015 1.366 . S
C1016 C1017 1.414 . S
C1016 C1019 1.499 . S
C1017 H991 0.950 . S
C1017 C1016 1.414 . S
C1017 C1018 1.374 . S
C1018 H992 0.950 . S
C1018 C1014 1.385 . S
C1018 C1017 1.374 . S
C1019 C1016 1.499 . S
C1019 C1020 1.373 . S
C1019 C1021 1.389 . S
C1020 H993 0.950 . S
C1020 C1006 1.377 1_655 S
C1020 C1019 1.373 . S
C1021 C1005 1.377 . S
C1021 C1019 1.389 . S
C1021 C1022 1.524 . S
C1022 C1021 1.524 . S
C1022 C1023 1.397 . S
C1022 C1027 1.363 . S
C1023 H994 0.950 . S
C1023 C1022 1.397 . S
C1023 C1024 1.334 . S
C1024 H995 0.950 . S
C1024 C1023 1.334 . S
C1024 C1025 1.287 . S
C1025 C1024 1.287 . S
C1025 C1026 1.524 . S
C1025 H1028 0.999 . S
C1026 H996 0.950 . S
C1026 C1025 1.524 . S
C1026 C1027 1.415 . S
C1027 H997 0.950 . S
C1027 C1022 1.363 . S
C1027 C1026 1.415 . S
H1028 C1025 0.999 . S
H1029 C1010 0.913 . S
H1030 C1048 0.951 . S
H1031 C1050 0.951 . S
H1032 C1052 0.950 . S
H1033 C1053 0.950 . S
H1034 C1055 0.950 . S
H1035 C1058 0.950 . S
H1036 C1059 0.950 . S
H1037 C1061 0.950 . S
H1038 C1062 0.950 . S
H1039 C1063 0.951 . S
H1040 C1065 0.951 . S
H1041 C1067 0.950 . S
H1042 C1068 0.950 . S
H1043 C1070 0.950 1_565 S
H1044 C1073 0.950 . S
H1045 C1074 0.950 . S
H1046 C1076 0.950 . S
H1047 C1077 0.950 . S
C1048 H1030 0.951 . S
C1048 C1049 1.366 . S
C1048 C1050 1.388 . S
C1049 C1048 1.366 . S
C1049 C1053 1.385 . S
C1050 H1031 0.951 . S
C1050 C1048 1.388 . S
C1050 C1051 1.366 . S
C1051 C1050 1.366 . S
C1051 C1052 1.414 . S
C1051 C1054 1.499 . S
C1052 H1032 0.950 . S
C1052 C1051 1.414 . S
C1052 C1053 1.374 . S
C1053 H1033 0.950 . S
C1053 C1049 1.385 . S
C1053 C1052 1.374 . S
C1054 C1051 1.499 . S
C1054 C1055 1.373 . S
C1054 C1056 1.389 . S
C1055 H1034 0.950 . S
C1055 C1054 1.373 . S
C1055 C1071 1.377 1_545 S
C1056 C1054 1.389 . S
C1056 C1057 1.524 . S
C1056 C1070 1.377 . S
C1057 C1056 1.524 . S
C1057 C1058 1.397 . S
C1057 C1062 1.363 . S
C1058 H1035 0.950 . S
C1058 C1057 1.397 . S
C1058 C1059 1.334 . S
C1059 H1036 0.950 . S
C1059 C1058 1.334 . S
C1059 C1060 1.287 . S
C1060 C1059 1.287 . S
C1060 C1061 1.524 . S
C1060 H1079 0.913 . S
C1061 H1037 0.950 . S
C1061 C1060 1.524 . S
C1061 C1062 1.415 . S
C1062 H1038 0.950 . S
C1062 C1057 1.363 . S
C1062 C1061 1.415 . S
C1063 H1039 0.951 . S
C1063 C1064 1.366 . S
C1063 C1065 1.388 . S
C1064 C1063 1.366 . S
C1064 C1068 1.385 . S
C1065 H1040 0.951 . S
C1065 C1063 1.388 . S
C1065 C1066 1.366 . S
C1066 C1065 1.366 . S
C1066 C1067 1.414 . S
C1066 C1069 1.499 . S
C1067 H1041 0.950 . S
C1067 C1066 1.414 . S
C1067 C1068 1.374 . S
C1068 H1042 0.950 . S
C1068 C1064 1.385 . S
C1068 C1067 1.374 . S
C1069 C1066 1.499 . S
C1069 C1070 1.373 1_565 S
C1069 C1071 1.389 . S
C1070 H1043 0.950 1_545 S
C1070 C1056 1.377 . S
C1070 C1069 1.373 1_545 S
C1071 C1055 1.377 1_565 S
C1071 C1069 1.389 . S
C1071 C1072 1.524 . S
C1072 C1071 1.524 . S
C1072 C1073 1.397 . S
C1072 C1077 1.363 . S
C1073 H1044 0.950 . S
C1073 C1072 1.397 . S
C1073 C1074 1.334 . S
C1074 H1045 0.950 . S
C1074 C1073 1.334 . S
C1074 C1075 1.287 . S
C1075 C1074 1.287 . S
C1075 C1076 1.524 . S
C1075 H1078 0.999 . S
C1076 H1046 0.950 . S
C1076 C1075 1.524 . S
C1076 C1077 1.415 . S
C1077 H1047 0.950 . S
C1077 C1072 1.363 . S
C1077 C1076 1.415 . S
H1078 C1075 0.999 . S
H1079 C1060 0.913 . S
H1080 C1098 0.951 . S
H1081 C1100 0.951 . S
H1082 C1102 0.950 . S
H1083 C1103 0.950 . S
H1084 C1105 0.950 . S
H1085 C1108 0.950 . S
H1086 C1109 0.950 . S
H1087 C1111 0.950 . S
H1088 C1112 0.950 . S
H1089 C1113 0.951 . S
H1090 C1115 0.951 . S
H1091 C1117 0.950 . S
H1092 C1118 0.950 . S
H1093 C1120 0.950 . S
H1094 C1123 0.950 . S
H1095 C1124 0.950 . S
H1096 C1126 0.950 . S
H1097 C1127 0.950 . S
C1098 H1080 0.951 . S
C1098 C1099 1.366 . S
C1098 C1100 1.388 . S
C1099 C1098 1.366 . S
C1099 C1103 1.385 . S
C1100 H1081 0.951 . S
C1100 C1098 1.388 . S
C1100 C1101 1.366 . S
C1101 C1100 1.366 . S
C1101 C1102 1.414 . S
C1101 C1104 1.499 . S
C1102 H1082 0.950 . S
C1102 C1101 1.414 . S
C1102 C1103 1.374 . S
C1103 H1083 0.950 . S
C1103 C1099 1.385 . S
C1103 C1102 1.374 . S
C1104 C1101 1.499 . S
C1104 C1105 1.373 . S
C1104 C1106 1.389 . S
C1105 H1084 0.950 . S
C1105 C1104 1.373 . S
C1105 C1121 1.377 . S
C1106 C1104 1.389 . S
C1106 C1107 1.524 . S
C1106 C1120 1.377 . S
C1107 C1106 1.524 . S
C1107 C1108 1.397 . S
C1107 C1112 1.363 . S
C1108 H1085 0.950 . S
C1108 C1107 1.397 . S
C1108 C1109 1.334 . S
C1109 H1086 0.950 . S
C1109 C1108 1.334 . S
C1109 C1110 1.287 . S
C1110 C1109 1.287 . S
C1110 C1111 1.524 . S
C1110 H1129 0.913 . S
C1111 H1087 0.950 . S
C1111 C1110 1.524 . S
C1111 C1112 1.415 . S
C1112 H1088 0.950 . S
C1112 C1107 1.363 . S
C1112 C1111 1.415 . S
C1113 H1089 0.951 . S
C1113 C1114 1.366 . S
C1113 C1115 1.388 . S
C1114 C1113 1.366 . S
C1114 C1118 1.385 . S
C1115 H1090 0.951 . S
C1115 C1113 1.388 . S
C1115 C1116 1.366 . S
C1116 C1115 1.366 . S
C1116 C1117 1.414 . S
C1116 C1119 1.499 . S
C1117 H1091 0.950 . S
C1117 C1116 1.414 . S
C1117 C1118 1.374 . S
C1118 H1092 0.950 . S
C1118 C1114 1.385 . S
C1118 C1117 1.374 . S
C1119 C1116 1.499 . S
C1119 C1120 1.373 . S
C1119 C1121 1.389 . S
C1120 H1093 0.950 . S
C1120 C1106 1.377 . S
C1120 C1119 1.373 . S
C1121 C1105 1.377 . S
C1121 C1119 1.389 . S
C1121 C1122 1.524 . S
C1122 C1121 1.524 . S
C1122 C1123 1.397 . S
C1122 C1127 1.363 . S
C1123 H1094 0.950 . S
C1123 C1122 1.397 . S
C1123 C1124 1.334 . S
C1124 H1095 0.950 . S
C1124 C1123 1.334 . S
C1124 C1125 1.287 . S
C1125 C1124 1.287 . S
C1125 C1126 1.524 . S
C1125 H1128 0.999 . S
C1126 H1096 0.950 . S
C1126 C1125 1.524 . S
C1126 C1127 1.415 . S
C1127 H1097 0.950 . S
C1127 C1122 1.363 . S
C1127 C1126 1.415 . S
H1128 C1125 0.999 . S
H1129 C1110 0.913 . S
H1130 C1148 0.951 . S
H1131 C1150 0.951 . S
H1132 C1152 0.950 . S
H1133 C1153 0.950 . S
H1134 C1155 0.950 . S
H1135 C1158 0.950 . S
H1136 C1159 0.950 . S
H1137 C1161 0.950 . S
H1138 C1162 0.950 . S
H1139 C1163 0.951 . S
H1140 C1165 0.951 . S
H1141 C1167 0.950 . S
H1142 C1168 0.950 . S
H1143 C1170 0.950 . S
H1144 C1173 0.950 . S
H1145 C1174 0.950 . S
H1146 C1176 0.950 . S
H1147 C1177 0.950 . S
C1148 H1130 0.951 . S
C1148 C1149 1.366 . S
C1148 C1150 1.388 . S
C1149 C1148 1.366 . S
C1149 C1153 1.385 . S
C1150 H1131 0.951 . S
C1150 C1148 1.388 . S
C1150 C1151 1.366 . S
C1151 C1150 1.366 . S
C1151 C1152 1.414 . S
C1151 C1154 1.499 . S
C1152 H1132 0.950 . S
C1152 C1151 1.414 . S
C1152 C1153 1.374 . S
C1153 H1133 0.950 . S
C1153 C1149 1.385 . S
C1153 C1152 1.374 . S
C1154 C1151 1.499 . S
C1154 C1155 1.373 . S
C1154 C1156 1.389 . S
C1155 H1134 0.950 . S
C1155 C1154 1.373 . S
C1155 C1171 1.377 . S
C1156 C1154 1.389 . S
C1156 C1157 1.524 . S
C1156 C1170 1.377 . S
C1157 C1156 1.524 . S
C1157 C1158 1.397 . S
C1157 C1162 1.363 . S
C1158 H1135 0.950 . S
C1158 C1157 1.397 . S
C1158 C1159 1.334 . S
C1159 H1136 0.950 . S
C1159 C1158 1.334 . S
C1159 C1160 1.287 . S
C1160 C1159 1.287 . S
C1160 C1161 1.524 . S
C1160 H1179 0.913 . S
C1161 H1137 0.950 . S
C1161 C1160 1.524 . S
C1161 C1162 1.415 . S
C1162 H1138 0.950 . S
C1162 C1157 1.363 . S
C1162 C1161 1.415 . S
C1163 H1139 0.951 . S
C1163 C1164 1.366 . S
C1163 C1165 1.388 . S
C1164 C1163 1.366 . S
C1164 C1168 1.385 . S
C1165 H1140 0.951 . S
C1165 C1163 1.388 . S
C1165 C1166 1.366 . S
C1166 C1165 1.366 . S
C1166 C1167 1.414 . S
C1166 C1169 1.499 . S
C1167 H1141 0.950 . S
C1167 C1166 1.414 . S
C1167 C1168 1.374 . S
C1168 H1142 0.950 . S
C1168 C1164 1.385 . S
C1168 C1167 1.374 . S
C1169 C1166 1.499 . S
C1169 C1170 1.373 . S
C1169 C1171 1.389 . S
C1170 H1143 0.950 . S
C1170 C1156 1.377 . S
C1170 C1169 1.373 . S
C1171 C1155 1.377 . S
C1171 C1169 1.389 . S
C1171 C1172 1.524 . S
C1172 C1171 1.524 . S
C1172 C1173 1.397 . S
C1172 C1177 1.363 . S
C1173 H1144 0.950 . S
C1173 C1172 1.397 . S
C1173 C1174 1.334 . S
C1174 H1145 0.950 . S
C1174 C1173 1.334 . S
C1174 C1175 1.287 . S
C1175 C1174 1.287 . S
C1175 C1176 1.524 . S
C1175 H1178 0.999 . S
C1176 H1146 0.950 . S
C1176 C1175 1.524 . S
C1176 C1177 1.415 . S
C1177 H1147 0.950 . S
C1177 C1172 1.363 . S
C1177 C1176 1.415 . S
H1178 C1175 0.999 . S
H1179 C1160 0.913 . S
H1180 C1198 0.951 . S
H1181 C1200 0.951 . S
H1182 C1202 0.950 . S
H1183 C1203 0.950 . S
H1184 C1205 0.950 . S
H1185 C1208 0.950 . S
H1186 C1209 0.950 . S
H1187 C1211 0.950 . S
H1188 C1212 0.950 . S
H1189 C1213 0.951 . S
H1190 C1215 0.951 . S
H1191 C1217 0.950 . S
H1192 C1218 0.950 . S
H1193 C1220 0.950 . S
H1194 C1223 0.950 . S
H1195 C1224 0.950 . S
H1196 C1226 0.950 . S
H1197 C1227 0.950 . S
C1198 H1180 0.951 . S
C1198 C1199 1.366 . S
C1198 C1200 1.388 . S
C1199 C1198 1.366 . S
C1199 C1203 1.385 . S
C1200 H1181 0.951 . S
C1200 C1198 1.388 . S
C1200 C1201 1.366 . S
C1201 C1200 1.366 . S
C1201 C1202 1.414 . S
C1201 C1204 1.499 . S
C1202 H1182 0.950 . S
C1202 C1201 1.414 . S
C1202 C1203 1.374 . S
C1203 H1183 0.950 . S
C1203 C1199 1.385 . S
C1203 C1202 1.374 . S
C1204 C1201 1.499 . S
C1204 C1205 1.373 . S
C1204 C1206 1.389 . S
C1205 H1184 0.950 . S
C1205 C1204 1.373 . S
C1205 C1221 1.377 . S
C1206 C1204 1.389 . S
C1206 C1207 1.524 . S
C1206 C1220 1.377 . S
C1207 C1206 1.524 . S
C1207 C1208 1.397 . S
C1207 C1212 1.363 . S
C1208 H1185 0.950 . S
C1208 C1207 1.397 . S
C1208 C1209 1.334 . S
C1209 H1186 0.950 . S
C1209 C1208 1.334 . S
C1209 C1210 1.287 . S
C1210 C1209 1.287 . S
C1210 C1211 1.524 . S
C1210 H1229 0.913 . S
C1211 H1187 0.950 . S
C1211 C1210 1.524 . S
C1211 C1212 1.415 . S
C1212 H1188 0.950 . S
C1212 C1207 1.363 . S
C1212 C1211 1.415 . S
C1213 H1189 0.951 . S
C1213 C1214 1.366 . S
C1213 C1215 1.388 . S
C1214 C1213 1.366 . S
C1214 C1218 1.385 . S
C1215 H1190 0.951 . S
C1215 C1213 1.388 . S
C1215 C1216 1.366 . S
C1216 C1215 1.366 . S
C1216 C1217 1.414 . S
C1216 C1219 1.499 . S
C1217 H1191 0.950 . S
C1217 C1216 1.414 . S
C1217 C1218 1.374 . S
C1218 H1192 0.950 . S
C1218 C1214 1.385 . S
C1218 C1217 1.374 . S
C1219 C1216 1.499 . S
C1219 C1220 1.373 . S
C1219 C1221 1.389 . S
C1220 H1193 0.950 . S
C1220 C1206 1.377 . S
C1220 C1219 1.373 . S
C1221 C1205 1.377 . S
C1221 C1219 1.389 . S
C1221 C1222 1.524 . S
C1222 C1221 1.524 . S
C1222 C1223 1.397 . S
C1222 C1227 1.363 . S
C1223 H1194 0.950 . S
C1223 C1222 1.397 . S
C1223 C1224 1.334 . S
C1224 H1195 0.950 . S
C1224 C1223 1.334 . S
C1224 C1225 1.287 . S
C1225 C1224 1.287 . S
C1225 C1226 1.524 . S
C1225 H1228 0.999 . S
C1226 H1196 0.950 . S
C1226 C1225 1.524 . S
C1226 C1227 1.415 . S
C1227 H1197 0.950 . S
C1227 C1222 1.363 . S
C1227 C1226 1.415 . S
H1228 C1225 0.999 . S
H1229 C1210 0.913 . S
H1230 C1248 0.951 . S
H1231 C1250 0.951 . S
H1232 C1252 0.950 . S
H1233 C1253 0.950 . S
H1234 C1255 0.950 . S
H1235 C1258 0.950 . S
H1236 C1259 0.950 . S
H1237 C1261 0.950 . S
H1238 C1262 0.950 . S
H1239 C1263 0.951 . S
H1240 C1265 0.951 . S
H1241 C1267 0.950 . S
H1242 C1268 0.950 . S
H1243 C1270 0.950 . S
H1244 C1273 0.950 . S
H1245 C1274 0.950 . S
H1246 C1276 0.950 . S
H1247 C1277 0.950 . S
C1248 H1230 0.951 . S
C1248 C1249 1.366 . S
C1248 C1250 1.388 . S
C1249 C1248 1.366 . S
C1249 C1253 1.385 . S
C1250 H1231 0.951 . S
C1250 C1248 1.388 . S
C1250 C1251 1.366 . S
C1251 C1250 1.366 . S
C1251 C1252 1.414 . S
C1251 C1254 1.499 . S
C1252 H1232 0.950 . S
C1252 C1251 1.414 . S
C1252 C1253 1.374 . S
C1253 H1233 0.950 . S
C1253 C1249 1.385 . S
C1253 C1252 1.374 . S
C1254 C1251 1.499 . S
C1254 C1255 1.373 . S
C1254 C1256 1.389 . S
C1255 H1234 0.950 . S
C1255 C1254 1.373 . S
C1255 C1271 1.377 . S
C1256 C1254 1.389 . S
C1256 C1257 1.524 . S
C1256 C1270 1.377 . S
C1257 C1256 1.524 . S
C1257 C1258 1.397 . S
C1257 C1262 1.363 . S
C1258 H1235 0.950 . S
C1258 C1257 1.397 . S
C1258 C1259 1.334 . S
C1259 H1236 0.950 . S
C1259 C1258 1.334 . S
C1259 C1260 1.287 . S
C1260 C1259 1.287 . S
C1260 C1261 1.524 . S
C1260 H1279 0.913 . S
C1261 H1237 0.950 . S
C1261 C1260 1.524 . S
C1261 C1262 1.415 . S
C1262 H1238 0.950 . S
C1262 C1257 1.363 . S
C1262 C1261 1.415 . S
C1263 H1239 0.951 . S
C1263 C1264 1.366 . S
C1263 C1265 1.388 . S
C1264 C1263 1.366 . S
C1264 C1268 1.385 . S
C1265 H1240 0.951 . S
C1265 C1263 1.388 . S
C1265 C1266 1.366 . S
C1266 C1265 1.366 . S
C1266 C1267 1.414 . S
C1266 C1269 1.499 . S
C1267 H1241 0.950 . S
C1267 C1266 1.414 . S
C1267 C1268 1.374 . S
C1268 H1242 0.950 . S
C1268 C1264 1.385 . S
C1268 C1267 1.374 . S
C1269 C1266 1.499 . S
C1269 C1270 1.373 . S
C1269 C1271 1.389 . S
C1270 H1243 0.950 . S
C1270 C1256 1.377 . S
C1270 C1269 1.373 . S
C1271 C1255 1.377 . S
C1271 C1269 1.389 . S
C1271 C1272 1.524 . S
C1272 C1271 1.524 . S
C1272 C1273 1.397 . S
C1272 C1277 1.363 . S
C1273 H1244 0.950 . S
C1273 C1272 1.397 . S
C1273 C1274 1.334 . S
C1274 H1245 0.950 . S
C1274 C1273 1.334 . S
C1274 C1275 1.287 . S
C1275 C1274 1.287 . S
C1275 C1276 1.524 . S
C1275 H1278 0.999 . S
C1276 H1246 0.950 . S
C1276 C1275 1.524 . S
C1276 C1277 1.415 . S
C1277 H1247 0.950 . S
C1277 C1272 1.363 . S
C1277 C1276 1.415 . S
H1278 C1275 0.999 . S
H1279 C1260 0.913 . S
H1280 C1298 0.951 . S
H1281 C1300 0.951 . S
H1282 C1302 0.950 . S
H1283 C1303 0.950 . S
H1284 C1305 0.950 . S
H1285 C1308 0.950 . S
H1286 C1309 0.950 . S
H1287 C1311 0.950 . S
H1288 C1312 0.950 . S
H1289 C1313 0.951 . S
H1290 C1315 0.951 . S
H1291 C1317 0.950 . S
H1292 C1318 0.950 . S
H1293 C1320 0.950 . S
H1294 C1323 0.950 . S
H1295 C1324 0.950 . S
H1296 C1326 0.950 . S
H1297 C1327 0.950 . S
C1298 H1280 0.951 . S
C1298 C1299 1.366 . S
C1298 C1300 1.388 . S
C1299 C1298 1.366 . S
C1299 C1303 1.385 . S
C1300 H1281 0.951 . S
C1300 C1298 1.388 . S
C1300 C1301 1.366 . S
C1301 C1300 1.366 . S
C1301 C1302 1.414 . S
C1301 C1304 1.499 . S
C1302 H1282 0.950 . S
C1302 C1301 1.414 . S
C1302 C1303 1.374 . S
C1303 H1283 0.950 . S
C1303 C1299 1.385 . S
C1303 C1302 1.374 . S
C1304 C1301 1.499 . S
C1304 C1305 1.373 . S
C1304 C1306 1.389 . S
C1305 H1284 0.950 . S
C1305 C1304 1.373 . S
C1305 C1321 1.377 . S
C1306 C1304 1.389 . S
C1306 C1307 1.524 . S
C1306 C1320 1.377 . S
C1307 C1306 1.524 . S
C1307 C1308 1.397 . S
C1307 C1312 1.363 . S
C1308 H1285 0.950 . S
C1308 C1307 1.397 . S
C1308 C1309 1.334 . S
C1309 H1286 0.950 . S
C1309 C1308 1.334 . S
C1309 C1310 1.287 . S
C1310 C1309 1.287 . S
C1310 C1311 1.524 . S
C1310 H1329 0.913 . S
C1311 H1287 0.950 . S
C1311 C1310 1.524 . S
C1311 C1312 1.415 . S
C1312 H1288 0.950 . S
C1312 C1307 1.363 . S
C1312 C1311 1.415 . S
C1313 H1289 0.951 . S
C1313 C1314 1.366 . S
C1313 C1315 1.388 . S
C1314 C1313 1.366 . S
C1314 C1318 1.385 . S
C1315 H1290 0.951 . S
C1315 C1313 1.388 . S
C1315 C1316 1.366 . S
C1316 C1315 1.366 . S
C1316 C1317 1.414 . S
C1316 C1319 1.499 . S
C1317 H1291 0.950 . S
C1317 C1316 1.414 . S
C1317 C1318 1.374 . S
C1318 H1292 0.950 . S
C1318 C1314 1.385 . S
C1318 C1317 1.374 . S
C1319 C1316 1.499 . S
C1319 C1320 1.373 . S
C1319 C1321 1.389 . S
C1320 H1293 0.950 . S
C1320 C1306 1.377 . S
C1320 C1319 1.373 . S
C1321 C1305 1.377 . S
C1321 C1319 1.389 . S
C1321 C1322 1.524 . S
C1322 C1321 1.524 . S
C1322 C1323 1.397 . S
C1322 C1327 1.363 . S
C1323 H1294 0.950 . S
C1323 C1322 1.397 . S
C1323 C1324 1.334 . S
C1324 H1295 0.950 . S
C1324 C1323 1.334 . S
C1324 C1325 1.287 . S
C1325 C1324 1.287 . S
C1325 C1326 1.524 . S
C1325 H1328 0.999 . S
C1326 H1296 0.950 . S
C1326 C1325 1.524 . S
C1326 C1327 1.415 . S
C1327 H1297 0.950 . S
C1327 C1322 1.363 . S
C1327 C1326 1.415 . S
H1328 C1325 0.999 . S
H1329 C1310 0.913 . S
H1330 C1348 0.951 . S
H1331 C1350 0.951 . S
H1332 C1352 0.950 . S
H1333 C1353 0.950 . S
H1334 C1355 0.950 . S
H1335 C1358 0.950 . S
H1336 C1359 0.950 . S
H1337 C1361 0.950 . S
H1338 C1362 0.950 . S
H1339 C1363 0.951 . S
H1340 C1365 0.951 . S
H1341 C1367 0.950 . S
H1342 C1368 0.950 . S
H1343 C1370 0.950 . S
H1344 C1373 0.950 . S
H1345 C1374 0.950 . S
H1346 C1376 0.950 . S
H1347 C1377 0.950 . S
C1348 H1330 0.951 . S
C1348 C1349 1.366 . S
C1348 C1350 1.388 . S
C1349 C1348 1.366 . S
C1349 C1353 1.385 . S
C1350 H1331 0.951 . S
C1350 C1348 1.388 . S
C1350 C1351 1.366 . S
C1351 C1350 1.366 . S
C1351 C1352 1.414 . S
C1351 C1354 1.499 . S
C1352 H1332 0.950 . S
C1352 C1351 1.414 . S
C1352 C1353 1.374 . S
C1353 H1333 0.950 . S
C1353 C1349 1.385 . S
C1353 C1352 1.374 . S
C1354 C1351 1.499 . S
C1354 C1355 1.373 . S
C1354 C1356 1.389 . S
C1355 H1334 0.950 . S
C1355 C1354 1.373 . S
C1355 C1371 1.377 . S
C1356 C1354 1.389 . S
C1356 C1357 1.524 . S
C1356 C1370 1.377 . S
C1357 C1356 1.524 . S
C1357 C1358 1.397 . S
C1357 C1362 1.363 . S
C1358 H1335 0.950 . S
C1358 C1357 1.397 . S
C1358 C1359 1.334 . S
C1359 H1336 0.950 . S
C1359 C1358 1.334 . S
C1359 C1360 1.287 . S
C1360 C1359 1.287 . S
C1360 C1361 1.524 . S
C1360 H1379 0.913 . S
C1361 H1337 0.950 . S
C1361 C1360 1.524 . S
C1361 C1362 1.415 . S
C1362 H1338 0.950 . S
C1362 C1357 1.363 . S
C1362 C1361 1.415 . S
C1363 H1339 0.951 . S
C1363 C1364 1.366 . S
C1363 C1365 1.388 . S
C1364 C1363 1.366 . S
C1364 C1368 1.385 . S
C1365 H1340 0.951 . S
C1365 C1363 1.388 . S
C1365 C1366 1.366 . S
C1366 C1365 1.366 . S
C1366 C1367 1.414 . S
C1366 C1369 1.499 . S
C1367 H1341 0.950 . S
C1367 C1366 1.414 . S
C1367 C1368 1.374 . S
C1368 H1342 0.950 . S
C1368 C1364 1.385 . S
C1368 C1367 1.374 . S
C1369 C1366 1.499 . S
C1369 C1370 1.373 . S
C1369 C1371 1.389 . S
C1370 H1343 0.950 . S
C1370 C1356 1.377 . S
C1370 C1369 1.373 . S
C1371 C1355 1.377 . S
C1371 C1369 1.389 . S
C1371 C1372 1.524 . S
C1372 C1371 1.524 . S
C1372 C1373 1.397 . S
C1372 C1377 1.363 . S
C1373 H1344 0.950 . S
C1373 C1372 1.397 . S
C1373 C1374 1.334 . S
C1374 H1345 0.950 . S
C1374 C1373 1.334 . S
C1374 C1375 1.287 . S
C1375 C1374 1.287 . S
C1375 C1376 1.524 . S
C1375 H1378 0.999 . S
C1376 H1346 0.950 . S
C1376 C1375 1.524 . S
C1376 C1377 1.415 . S
C1377 H1347 0.950 . S
C1377 C1372 1.363 . S
C1377 C1376 1.415 . S
H1378 C1375 0.999 . S
H1379 C1360 0.913 . S
H1380 C1398 0.951 . S
H1381 C1400 0.951 . S
H1382 C1402 0.950 . S
H1383 C1403 0.950 . S
H1384 C1405 0.950 . S
H1385 C1408 0.950 . S
H1386 C1409 0.950 . S
H1387 C1411 0.950 1_545 S
H1388 C1412 0.925 1_545 S
H1389 C1413 0.951 . S
H1390 C1415 0.951 . S
H1391 C1417 0.950 . S
H1392 C1418 0.950 . S
H1393 C1420 0.950 . S
H1394 C1423 0.950 . S
H1395 C1424 0.950 . S
H1396 C1426 0.950 1_565 S
H1397 C1427 0.925 1_565 S
C1398 H1380 0.951 . S
C1398 C1399 1.366 . S
C1398 C1400 1.388 . S
C1399 C1398 1.366 . S
C1399 C1403 1.385 . S
C1400 H1381 0.951 . S
C1400 C1398 1.388 . S
C1400 C1401 1.366 . S
C1401 C1400 1.366 . S
C1401 C1402 1.414 . S
C1401 C1404 1.499 . S
C1402 H1382 0.950 . S
C1402 C1401 1.414 . S
C1402 C1403 1.374 . S
C1403 H1383 0.950 . S
C1403 C1399 1.385 . S
C1403 C1402 1.374 . S
C1404 C1401 1.499 . S
C1404 C1405 1.373 . S
C1404 C1406 1.389 . S
C1405 H1384 0.950 . S
C1405 C1404 1.373 . S
C1405 C1421 1.377 1_566 S
C1406 C1404 1.389 . S
C1406 C1407 1.524 . S
C1406 C1420 1.377 1_566 S
C1407 C1406 1.524 . S
C1407 C1408 1.397 . S
C1407 C1412 1.369 . S
C1408 H1385 0.950 . S
C1408 C1407 1.397 . S
C1408 C1409 1.334 . S
C1409 H1386 0.950 . S
C1409 C1408 1.334 . S
C1409 C1410 1.287 . S
C1410 C1409 1.287 . S
C1410 C1411 1.524 . S
C1410 H1429 0.913 . S
C1411 H1387 0.950 1_565 S
C1411 C1410 1.524 . S
C1411 C1412 1.435 . S
C1412 H1388 0.925 1_565 S
C1412 C1407 1.369 . S
C1412 C1411 1.435 . S
C1413 H1389 0.951 . S
C1413 C1414 1.366 . S
C1413 C1415 1.388 . S
C1414 C1413 1.366 . S
C1414 C1418 1.385 . S
C1415 H1390 0.951 . S
C1415 C1413 1.388 . S
C1415 C1416 1.366 . S
C1416 C1415 1.366 . S
C1416 C1417 1.414 . S
C1416 C1419 1.499 . S
C1417 H1391 0.950 . S
C1417 C1416 1.414 . S
C1417 C1418 1.374 . S
C1418 H1392 0.950 . S
C1418 C1414 1.385 . S
C1418 C1417 1.374 . S
C1419 C1416 1.499 . S
C1419 C1420 1.373 . S
C1419 C1421 1.389 . S
C1420 H1393 0.950 . S
C1420 C1406 1.377 1_544 S
C1420 C1419 1.373 . S
C1421 C1405 1.377 1_544 S
C1421 C1419 1.389 . S
C1421 C1422 1.524 . S
C1422 C1421 1.524 . S
C1422 C1423 1.397 . S
C1422 C1427 1.369 . S
C1423 H1394 0.950 . S
C1423 C1422 1.397 . S
C1423 C1424 1.334 . S
C1424 H1395 0.950 . S
C1424 C1423 1.334 . S
C1424 C1425 1.287 . S
C1425 C1424 1.287 . S
C1425 C1426 1.524 . S
C1425 H1428 0.999 . S
C1426 H1396 0.950 1_545 S
C1426 C1425 1.524 . S
C1426 C1427 1.435 . S
C1427 H1397 0.925 1_545 S
C1427 C1422 1.369 . S
C1427 C1426 1.435 . S
H1428 C1425 0.999 . S
H1429 C1410 0.913 . S
H1430 C1448 0.951 . S
H1431 C1450 0.951 . S
H1432 C1452 0.950 . S
H1433 C1453 0.950 . S
H1434 C1455 0.950 . S
H1435 C1458 0.950 . S
H1436 C1459 0.950 . S
H1437 C1461 0.950 . S
H1438 C1462 0.950 . S
H1439 C1463 0.951 . S
H1440 C1465 0.951 . S
H1441 C1467 0.950 . S
H1442 C1468 0.950 . S
H1443 C1470 0.950 . S
H1444 C1473 0.950 . S
H1445 C1474 0.950 . S
H1446 C1476 0.950 . S
H1447 C1477 0.950 . S
C1448 H1430 0.951 . S
C1448 C1449 1.366 . S
C1448 C1450 1.388 . S
C1449 C1448 1.366 . S
C1449 C1453 1.385 . S
C1450 H1431 0.951 . S
C1450 C1448 1.388 . S
C1450 C1451 1.366 . S
C1451 C1450 1.366 . S
C1451 C1452 1.414 . S
C1451 C1454 1.499 . S
C1452 H1432 0.950 . S
C1452 C1451 1.414 . S
C1452 C1453 1.374 . S
C1453 H1433 0.950 . S
C1453 C1449 1.385 . S
C1453 C1452 1.374 . S
C1454 C1451 1.499 . S
C1454 C1455 1.373 . S
C1454 C1456 1.389 . S
C1455 H1434 0.950 . S
C1455 C1454 1.373 . S
C1455 C1471 1.377 . S
C1456 C1454 1.389 . S
C1456 C1457 1.524 . S
C1456 C1470 1.377 . S
C1457 C1456 1.524 . S
C1457 C1458 1.397 . S
C1457 C1462 1.363 . S
C1458 H1435 0.950 . S
C1458 C1457 1.397 . S
C1458 C1459 1.334 . S
C1459 H1436 0.950 . S
C1459 C1458 1.334 . S
C1459 C1460 1.287 . S
C1460 C1459 1.287 . S
C1460 C1461 1.524 . S
C1460 H1479 0.913 . S
C1461 H1437 0.950 . S
C1461 C1460 1.524 . S
C1461 C1462 1.415 . S
C1462 H1438 0.950 . S
C1462 C1457 1.363 . S
C1462 C1461 1.415 . S
C1463 H1439 0.951 . S
C1463 C1464 1.366 . S
C1463 C1465 1.388 . S
C1464 C1463 1.366 . S
C1464 C1468 1.385 . S
C1465 H1440 0.951 . S
C1465 C1463 1.388 . S
C1465 C1466 1.366 . S
C1466 C1465 1.366 . S
C1466 C1467 1.414 . S
C1466 C1469 1.499 . S
C1467 H1441 0.950 . S
C1467 C1466 1.414 . S
C1467 C1468 1.374 . S
C1468 H1442 0.950 . S
C1468 C1464 1.385 . S
C1468 C1467 1.374 . S
C1469 C1466 1.499 . S
C1469 C1470 1.373 . S
C1469 C1471 1.389 . S
C1470 H1443 0.950 . S
C1470 C1456 1.377 . S
C1470 C1469 1.373 . S
C1471 C1455 1.377 . S
C1471 C1469 1.389 . S
C1471 C1472 1.524 . S
C1472 C1471 1.524 . S
C1472 C1473 1.397 . S
C1472 C1477 1.363 . S
C1473 H1444 0.950 . S
C1473 C1472 1.397 . S
C1473 C1474 1.334 . S
C1474 H1445 0.950 . S
C1474 C1473 1.334 . S
C1474 C1475 1.287 . S
C1475 C1474 1.287 . S
C1475 C1476 1.524 . S
C1475 H1478 0.999 . S
C1476 H1446 0.950 . S
C1476 C1475 1.524 . S
C1476 C1477 1.415 . S
C1477 H1447 0.950 . S
C1477 C1472 1.363 . S
C1477 C1476 1.415 . S
H1478 C1475 0.999 . S
H1479 C1460 0.913 . S
H1480 C1498 0.951 . S
H1481 C1500 0.951 . S
H1482 C1502 0.950 . S
H1483 C1503 0.950 . S
H1484 C1505 0.950 . S
H1485 C1508 0.950 . S
H1486 C1509 0.950 . S
H1487 C1511 0.950 . S
H1488 C1512 0.950 . S
H1489 C1513 0.951 . S
H1490 C1515 0.951 . S
H1491 C1517 0.950 . S
H1492 C1518 0.950 . S
H1493 C1520 0.950 . S
H1494 C1523 0.950 . S
H1495 C1524 0.950 . S
H1496 C1526 0.950 . S
H1497 C1527 0.950 . S
C1498 H1480 0.951 . S
C1498 C1499 1.366 . S
C1498 C1500 1.388 . S
C1499 C1498 1.366 . S
C1499 C1503 1.385 . S
C1500 H1481 0.951 . S
C1500 C1498 1.388 . S
C1500 C1501 1.366 . S
C1501 C1500 1.366 . S
C1501 C1502 1.414 . S
C1501 C1504 1.499 . S
C1502 H1482 0.950 . S
C1502 C1501 1.414 . S
C1502 C1503 1.374 . S
C1503 H1483 0.950 . S
C1503 C1499 1.385 . S
C1503 C1502 1.374 . S
C1504 C1501 1.499 . S
C1504 C1505 1.365 1_556 S
C1504 C1506 1.406 . S
C1505 H1484 0.950 . S
C1505 C1504 1.365 1_554 S
C1505 C1521 1.374 1_455 S
C1506 C1504 1.406 . S
C1506 C1507 1.520 . S
C1506 C1520 1.374 1_455 S
C1507 C1506 1.520 . S
C1507 C1508 1.399 . S
C1507 C1512 1.358 1_455 S
C1508 H1485 0.950 . S
C1508 C1507 1.399 . S
C1508 C1509 1.334 . S
C1509 H1486 0.950 . S
C1509 C1508 1.334 . S
C1509 C1510 1.287 . S
C1510 C1509 1.287 . S
C1510 C1511 1.524 1_455 S
C1510 H1529 0.913 . S
C1511 H1487 0.950 . S
C1511 C1510 1.524 1_655 S
C1511 C1512 1.415 . S
C1512 H1488 0.950 . S
C1512 C1507 1.358 1_655 S
C1512 C1511 1.415 . S
C1513 H1489 0.951 . S
C1513 C1514 1.366 . S
C1513 C1515 1.388 . S
C1514 C1513 1.366 . S
C1514 C1518 1.385 . S
C1515 H1490 0.951 . S
C1515 C1513 1.388 . S
C1515 C1516 1.366 . S
C1516 C1515 1.366 . S
C1516 C1517 1.414 . S
C1516 C1519 1.499 . S
C1517 H1491 0.950 . S
C1517 C1516 1.414 . S
C1517 C1518 1.374 . S
C1518 H1492 0.950 . S
C1518 C1514 1.385 . S
C1518 C1517 1.374 . S
C1519 C1516 1.499 . S
C1519 C1520 1.365 1_554 S
C1519 C1521 1.406 . S
C1520 H1493 0.950 . S
C1520 C1506 1.374 1_655 S
C1520 C1519 1.365 1_556 S
C1521 C1505 1.374 1_655 S
C1521 C1519 1.406 . S
C1521 C1522 1.520 . S
C1522 C1521 1.520 . S
C1522 C1523 1.399 . S
C1522 C1527 1.358 1_655 S
C1523 H1494 0.950 . S
C1523 C1522 1.399 . S
C1523 C1524 1.334 . S
C1524 H1495 0.950 . S
C1524 C1523 1.334 . S
C1524 C1525 1.287 . S
C1525 C1524 1.287 . S
C1525 C1526 1.524 1_655 S
C1525 H1528 0.999 . S
C1526 H1496 0.950 . S
C1526 C1525 1.524 1_455 S
C1526 C1527 1.415 . S
C1527 H1497 0.950 . S
C1527 C1522 1.358 1_455 S
C1527 C1526 1.415 . S
H1528 C1525 0.999 . S
H1529 C1510 0.913 . S
H1530 C1548 0.951 . S
H1531 C1550 0.951 . S
H1532 C1552 0.950 . S
H1533 C1553 0.950 . S
H1534 C1555 0.950 . S
H1535 C1558 0.950 1_545 S
H1536 C1559 0.950 . S
H1537 C1561 0.950 . S
H1538 C1562 0.950 . S
H1539 C1563 0.951 . S
H1540 C1565 0.951 . S
H1541 C1567 0.950 . S
H1542 C1568 0.950 . S
H1543 C1570 0.950 . S
H1544 C1573 0.950 1_565 S
H1545 C1574 0.950 . S
H1546 C1576 0.950 . S
H1547 C1577 0.950 . S
C1548 H1530 0.951 . S
C1548 C1549 1.366 . S
C1548 C1550 1.388 . S
C1549 C1548 1.366 . S
C1549 C1553 1.385 . S
C1550 H1531 0.951 . S
C1550 C1548 1.388 . S
C1550 C1551 1.366 . S
C1551 C1550 1.366 . S
C1551 C1552 1.414 . S
C1551 C1554 1.499 . S
C1552 H1532 0.950 . S
C1552 C1551 1.414 . S
C1552 C1553 1.374 . S
C1553 H1533 0.950 . S
C1553 C1549 1.385 . S
C1553 C1552 1.374 . S
C1554 C1551 1.499 . S
C1554 C1555 1.373 . S
C1554 C1556 1.389 1_545 S
C1555 H1534 0.950 . S
C1555 C1554 1.373 . S
C1555 C1571 1.377 . S
C1556 C1554 1.389 1_565 S
C1556 C1557 1.524 . S
C1556 C1570 1.377 . S
C1557 C1556 1.524 . S
C1557 C1558 1.397 . S
C1557 C1562 1.363 . S
C1558 H1535 0.950 1_565 S
C1558 C1557 1.397 . S
C1558 C1559 1.334 . S
C1559 H1536 0.950 . S
C1559 C1558 1.334 . S
C1559 C1560 1.287 . S
C1560 C1559 1.287 . S
C1560 C1561 1.524 . S
C1560 H1579 0.913 . S
C1561 H1537 0.950 . S
C1561 C1560 1.524 . S
C1561 C1562 1.415 . S
C1562 H1538 0.950 . S
C1562 C1557 1.363 . S
C1562 C1561 1.415 . S
C1563 H1539 0.951 . S
C1563 C1564 1.366 . S
C1563 C1565 1.388 . S
C1564 C1563 1.366 . S
C1564 C1568 1.385 . S
C1565 H1540 0.951 . S
C1565 C1563 1.388 . S
C1565 C1566 1.366 . S
C1566 C1565 1.366 . S
C1566 C1567 1.414 . S
C1566 C1569 1.499 . S
C1567 H1541 0.950 . S
C1567 C1566 1.414 . S
C1567 C1568 1.374 . S
C1568 H1542 0.950 . S
C1568 C1564 1.385 . S
C1568 C1567 1.374 . S
C1569 C1566 1.499 . S
C1569 C1570 1.373 . S
C1569 C1571 1.389 1_565 S
C1570 H1543 0.950 . S
C1570 C1556 1.377 . S
C1570 C1569 1.373 . S
C1571 C1555 1.377 . S
C1571 C1569 1.389 1_545 S
C1571 C1572 1.524 . S
C1572 C1571 1.524 . S
C1572 C1573 1.397 . S
C1572 C1577 1.363 . S
C1573 H1544 0.950 1_545 S
C1573 C1572 1.397 . S
C1573 C1574 1.334 . S
C1574 H1545 0.950 . S
C1574 C1573 1.334 . S
C1574 C1575 1.287 . S
C1575 C1574 1.287 . S
C1575 C1576 1.524 . S
C1575 H1578 0.999 . S
C1576 H1546 0.950 . S
C1576 C1575 1.524 . S
C1576 C1577 1.415 . S
C1577 H1547 0.950 . S
C1577 C1572 1.363 . S
C1577 C1576 1.415 . S
H1578 C1575 0.999 . S
H1579 C1560 0.913 . S
H1580 C1598 0.951 . S
H1581 C1600 0.951 . S
H1582 C1602 0.950 . S
H1583 C1603 0.950 . S
H1584 C1605 0.950 . S
H1585 C1608 0.950 . S
H1586 C1609 0.950 . S
H1587 C1611 0.950 . S
H1588 C1612 0.950 . S
H1589 C1613 0.951 . S
H1590 C1615 0.951 . S
H1591 C1617 0.950 . S
H1592 C1618 0.950 . S
H1593 C1620 0.950 . S
H1594 C1623 0.950 . S
H1595 C1624 0.950 . S
H1596 C1626 0.950 . S
H1597 C1627 0.950 . S
C1598 H1580 0.951 . S
C1598 C1599 1.366 . S
C1598 C1600 1.388 . S
C1599 C1598 1.366 . S
C1599 C1603 1.385 . S
C1600 H1581 0.951 . S
C1600 C1598 1.388 . S
C1600 C1601 1.366 . S
C1601 C1600 1.366 . S
C1601 C1602 1.414 . S
C1601 C1604 1.499 . S
C1602 H1582 0.950 . S
C1602 C1601 1.414 . S
C1602 C1603 1.374 . S
C1603 H1583 0.950 . S
C1603 C1599 1.385 . S
C1603 C1602 1.374 . S
C1604 C1601 1.499 . S
C1604 C1605 1.373 . S
C1604 C1606 1.389 . S
C1605 H1584 0.950 . S
C1605 C1604 1.373 . S
C1605 C1621 1.377 1_554 S
C1606 C1604 1.389 . S
C1606 C1607 1.524 . S
C1606 C1620 1.377 1_554 S
C1607 C1606 1.524 . S
C1607 C1608 1.397 1_554 S
C1607 C1612 1.363 . S
C1608 H1585 0.950 . S
C1608 C1607 1.397 1_556 S
C1608 C1609 1.334 . S
C1609 H1586 0.950 . S
C1609 C1608 1.334 . S
C1609 C1610 1.287 . S
C1610 C1609 1.287 . S
C1610 C1611 1.524 1_556 S
C1610 H1629 0.913 . S
C1611 H1587 0.950 . S
C1611 C1610 1.524 1_554 S
C1611 C1612 1.415 . S
C1612 H1588 0.950 . S
C1612 C1607 1.363 . S
C1612 C1611 1.415 . S
C1613 H1589 0.951 . S
C1613 C1614 1.366 . S
C1613 C1615 1.388 . S
C1614 C1613 1.366 . S
C1614 C1618 1.385 . S
C1615 H1590 0.951 . S
C1615 C1613 1.388 . S
C1615 C1616 1.366 . S
C1616 C1615 1.366 . S
C1616 C1617 1.414 . S
C1616 C1619 1.499 . S
C1617 H1591 0.950 . S
C1617 C1616 1.414 . S
C1617 C1618 1.374 . S
C1618 H1592 0.950 . S
C1618 C1614 1.385 . S
C1618 C1617 1.374 . S
C1619 C1616 1.499 . S
C1619 C1620 1.373 . S
C1619 C1621 1.389 . S
C1620 H1593 0.950 . S
C1620 C1606 1.377 1_556 S
C1620 C1619 1.373 . S
C1621 C1605 1.377 1_556 S
C1621 C1619 1.389 . S
C1621 C1622 1.524 . S
C1622 C1621 1.524 . S
C1622 C1623 1.397 1_556 S
C1622 C1627 1.363 . S
C1623 H1594 0.950 . S
C1623 C1622 1.397 1_554 S
C1623 C1624 1.334 . S
C1624 H1595 0.950 . S
C1624 C1623 1.334 . S
C1624 C1625 1.287 . S
C1625 C1624 1.287 . S
C1625 C1626 1.524 1_554 S
C1625 H1628 0.999 . S
C1626 H1596 0.950 . S
C1626 C1625 1.524 1_556 S
C1626 C1627 1.415 . S
C1627 H1597 0.950 . S
C1627 C1622 1.363 . S
C1627 C1626 1.415 . S
H1628 C1625 0.999 . S
H1629 C1610 0.913 . S
H1630 C1648 0.951 . S
H1631 C1650 0.951 . S
H1632 C1652 0.950 . S
H1633 C1653 0.950 . S
H1634 C1655 0.950 . S
H1635 C1658 0.950 . S
H1636 C1659 0.950 . S
H1637 C1661 0.950 . S
H1638 C1662 0.950 . S
H1639 C1663 0.951 . S
H1640 C1665 0.951 . S
H1641 C1667 0.950 . S
H1642 C1668 0.950 . S
H1643 C1670 0.950 . S
H1644 C1673 0.950 . S
H1645 C1674 0.950 . S
H1646 C1676 0.950 . S
H1647 C1677 0.950 . S
C1648 H1630 0.951 . S
C1648 C1649 1.366 . S
C1648 C1650 1.388 . S
C1649 C1648 1.366 . S
C1649 C1653 1.385 . S
C1650 H1631 0.951 . S
C1650 C1648 1.388 . S
C1650 C1651 1.366 . S
C1651 C1650 1.366 . S
C1651 C1652 1.414 . S
C1651 C1654 1.499 . S
C1652 H1632 0.950 . S
C1652 C1651 1.414 . S
C1652 C1653 1.374 . S
C1653 H1633 0.950 . S
C1653 C1649 1.385 . S
C1653 C1652 1.374 . S
C1654 C1651 1.499 . S
C1654 C1655 1.373 . S
C1654 C1656 1.389 . S
C1655 H1634 0.950 . S
C1655 C1654 1.373 . S
C1655 C1671 1.377 1_455 S
C1656 C1654 1.389 . S
C1656 C1657 1.524 . S
C1656 C1670 1.377 1_455 S
C1657 C1656 1.524 . S
C1657 C1658 1.397 . S
C1657 C1662 1.363 . S
C1658 H1635 0.950 . S
C1658 C1657 1.397 . S
C1658 C1659 1.334 . S
C1659 H1636 0.950 . S
C1659 C1658 1.334 . S
C1659 C1660 1.287 . S
C1660 C1659 1.287 . S
C1660 C1661 1.524 . S
C1660 H1679 0.913 . S
C1661 H1637 0.950 . S
C1661 C1660 1.524 . S
C1661 C1662 1.415 . S
C1662 H1638 0.950 . S
C1662 C1657 1.363 . S
C1662 C1661 1.415 . S
C1663 H1639 0.951 . S
C1663 C1664 1.366 . S
C1663 C1665 1.388 . S
C1664 C1663 1.366 . S
C1664 C1668 1.385 . S
C1665 H1640 0.951 . S
C1665 C1663 1.388 . S
C1665 C1666 1.366 . S
C1666 C1665 1.366 . S
C1666 C1667 1.414 . S
C1666 C1669 1.499 . S
C1667 H1641 0.950 . S
C1667 C1666 1.414 . S
C1667 C1668 1.374 . S
C1668 H1642 0.950 . S
C1668 C1664 1.385 . S
C1668 C1667 1.374 . S
C1669 C1666 1.499 . S
C1669 C1670 1.373 . S
C1669 C1671 1.389 . S
C1670 H1643 0.950 . S
C1670 C1656 1.377 1_655 S
C1670 C1669 1.373 . S
C1671 C1655 1.377 1_655 S
C1671 C1669 1.389 . S
C1671 C1672 1.524 . S
C1672 C1671 1.524 . S
C1672 C1673 1.397 . S
C1672 C1677 1.363 . S
C1673 H1644 0.950 . S
C1673 C1672 1.397 . S
C1673 C1674 1.334 . S
C1674 H1645 0.950 . S
C1674 C1673 1.334 . S
C1674 C1675 1.287 . S
C1675 C1674 1.287 . S
C1675 C1676 1.524 . S
C1675 H1678 0.999 . S
C1676 H1646 0.950 . S
C1676 C1675 1.524 . S
C1676 C1677 1.415 . S
C1677 H1647 0.950 . S
C1677 C1672 1.363 . S
C1677 C1676 1.415 . S
H1678 C1675 0.999 . S
H1679 C1660 0.913 . S
H1680 C1698 0.951 . S
H1681 C1700 0.951 . S
H1682 C1702 0.950 . S
H1683 C1703 0.950 . S
H1684 C1705 0.950 . S
H1685 C1708 0.950 . S
H1686 C1709 0.950 . S
H1687 C1711 0.950 . S
H1688 C1712 0.950 . S
H1689 C1713 0.951 . S
H1690 C1715 0.951 . S
H1691 C1717 0.950 . S
H1692 C1718 0.950 . S
H1693 C1720 0.950 . S
H1694 C1723 0.950 . S
H1695 C1724 0.950 . S
H1696 C1726 0.950 . S
H1697 C1727 0.950 . S
C1698 H1680 0.951 . S
C1698 C1699 1.366 . S
C1698 C1700 1.388 . S
C1699 C1698 1.366 . S
C1699 C1703 1.385 . S
C1700 H1681 0.951 . S
C1700 C1698 1.388 . S
C1700 C1701 1.366 . S
C1701 C1700 1.366 . S
C1701 C1702 1.414 . S
C1701 C1704 1.499 . S
C1702 H1682 0.950 . S
C1702 C1701 1.414 . S
C1702 C1703 1.374 . S
C1703 H1683 0.950 . S
C1703 C1699 1.385 . S
C1703 C1702 1.374 . S
C1704 C1701 1.499 . S
C1704 C1705 1.373 . S
C1704 C1706 1.389 . S
C1705 H1684 0.950 . S
C1705 C1704 1.373 . S
C1705 C1721 1.377 . S
C1706 C1704 1.389 . S
C1706 C1707 1.524 . S
C1706 C1720 1.377 . S
C1707 C1706 1.524 . S
C1707 C1708 1.397 . S
C1707 C1712 1.363 . S
C1708 H1685 0.950 . S
C1708 C1707 1.397 . S
C1708 C1709 1.334 . S
C1709 H1686 0.950 . S
C1709 C1708 1.334 . S
C1709 C1710 1.287 . S
C1710 C1709 1.287 . S
C1710 C1711 1.524 . S
C1710 H1729 0.913 . S
C1711 H1687 0.950 . S
C1711 C1710 1.524 . S
C1711 C1712 1.415 . S
C1712 H1688 0.950 . S
C1712 C1707 1.363 . S
C1712 C1711 1.415 . S
C1713 H1689 0.951 . S
C1713 C1714 1.366 . S
C1713 C1715 1.388 . S
C1714 C1713 1.366 . S
C1714 C1718 1.385 . S
C1715 H1690 0.951 . S
C1715 C1713 1.388 . S
C1715 C1716 1.366 . S
C1716 C1715 1.366 . S
C1716 C1717 1.414 . S
C1716 C1719 1.499 . S
C1717 H1691 0.950 . S
C1717 C1716 1.414 . S
C1717 C1718 1.374 . S
C1718 H1692 0.950 . S
C1718 C1714 1.385 . S
C1718 C1717 1.374 . S
C1719 C1716 1.499 . S
C1719 C1720 1.373 . S
C1719 C1721 1.389 . S
C1720 H1693 0.950 . S
C1720 C1706 1.377 . S
C1720 C1719 1.373 . S
C1721 C1705 1.377 . S
C1721 C1719 1.389 . S
C1721 C1722 1.524 . S
C1722 C1721 1.524 . S
C1722 C1723 1.397 . S
C1722 C1727 1.363 . S
C1723 H1694 0.950 . S
C1723 C1722 1.397 . S
C1723 C1724 1.334 . S
C1724 H1695 0.950 . S
C1724 C1723 1.334 . S
C1724 C1725 1.287 . S
C1725 C1724 1.287 . S
C1725 C1726 1.524 . S
C1725 H1728 0.999 . S
C1726 H1696 0.950 . S
C1726 C1725 1.524 . S
C1726 C1727 1.415 . S
C1727 H1697 0.950 . S
C1727 C1722 1.363 . S
C1727 C1726 1.415 . S
H1728 C1725 0.999 . S
H1729 C1710 0.913 . S
H1730 C1748 0.951 . S
H1731 C1750 0.951 . S
H1732 C1752 0.950 . S
H1733 C1753 0.950 . S
H1734 C1755 0.950 . S
H1735 C1758 0.950 . S
H1736 C1759 0.950 . S
H1737 C1761 0.950 . S
H1738 C1762 0.950 . S
H1739 C1763 0.951 . S
H1740 C1765 0.951 . S
H1741 C1767 0.950 . S
H1742 C1768 0.950 . S
H1743 C1770 0.950 . S
H1744 C1773 0.950 . S
H1745 C1774 0.950 . S
H1746 C1776 0.950 . S
H1747 C1777 0.950 . S
C1748 H1730 0.951 . S
C1748 C1749 1.366 . S
C1748 C1750 1.388 . S
C1749 C1748 1.366 . S
C1749 C1753 1.385 . S
C1750 H1731 0.951 . S
C1750 C1748 1.388 . S
C1750 C1751 1.366 . S
C1751 C1750 1.366 . S
C1751 C1752 1.414 . S
C1751 C1754 1.499 . S
C1752 H1732 0.950 . S
C1752 C1751 1.414 . S
C1752 C1753 1.374 . S
C1753 H1733 0.950 . S
C1753 C1749 1.385 . S
C1753 C1752 1.374 . S
C1754 C1751 1.499 . S
C1754 C1755 1.373 . S
C1754 C1756 1.389 . S
C1755 H1734 0.950 . S
C1755 C1754 1.373 . S
C1755 C1771 1.377 . S
C1756 C1754 1.389 . S
C1756 C1757 1.524 . S
C1756 C1770 1.377 . S
C1757 C1756 1.524 . S
C1757 C1758 1.397 . S
C1757 C1762 1.363 . S
C1758 H1735 0.950 . S
C1758 C1757 1.397 . S
C1758 C1759 1.334 . S
C1759 H1736 0.950 . S
C1759 C1758 1.334 . S
C1759 C1760 1.287 . S
C1760 C1759 1.287 . S
C1760 C1761 1.524 . S
C1760 H1779 0.913 . S
C1761 H1737 0.950 . S
C1761 C1760 1.524 . S
C1761 C1762 1.415 . S
C1762 H1738 0.950 . S
C1762 C1757 1.363 . S
C1762 C1761 1.415 . S
C1763 H1739 0.951 . S
C1763 C1764 1.366 . S
C1763 C1765 1.388 . S
C1764 C1763 1.366 . S
C1764 C1768 1.385 . S
C1765 H1740 0.951 . S
C1765 C1763 1.388 . S
C1765 C1766 1.366 . S
C1766 C1765 1.366 . S
C1766 C1767 1.414 . S
C1766 C1769 1.499 . S
C1767 H1741 0.950 . S
C1767 C1766 1.414 . S
C1767 C1768 1.374 . S
C1768 H1742 0.950 . S
C1768 C1764 1.385 . S
C1768 C1767 1.374 . S
C1769 C1766 1.499 . S
C1769 C1770 1.373 . S
C1769 C1771 1.389 . S
C1770 H1743 0.950 . S
C1770 C1756 1.377 . S
C1770 C1769 1.373 . S
C1771 C1755 1.377 . S
C1771 C1769 1.389 . S
C1771 C1772 1.524 . S
C1772 C1771 1.524 . S
C1772 C1773 1.397 . S
C1772 C1777 1.363 . S
C1773 H1744 0.950 . S
C1773 C1772 1.397 . S
C1773 C1774 1.334 . S
C1774 H1745 0.950 . S
C1774 C1773 1.334 . S
C1774 C1775 1.287 . S
C1775 C1774 1.287 . S
C1775 C1776 1.524 . S
C1775 H1778 0.999 . S
C1776 H1746 0.950 . S
C1776 C1775 1.524 . S
C1776 C1777 1.415 . S
C1777 H1747 0.950 . S
C1777 C1772 1.363 . S
C1777 C1776 1.415 . S
H1778 C1775 0.999 . S
H1779 C1760 0.913 . S
H1780 C1798 0.951 . S
H1781 C1800 0.951 . S
H1782 C1802 0.950 . S
H1783 C1803 0.950 . S
H1784 C1805 0.950 . S
H1785 C1808 0.950 . S
H1786 C1809 0.950 . S
H1787 C1811 0.950 . S
H1788 C1812 0.950 . S
H1789 C1813 0.951 . S
H1790 C1815 0.951 . S
H1791 C1817 0.950 . S
H1792 C1818 0.950 . S
H1793 C1820 0.950 . S
H1794 C1823 0.950 . S
H1795 C1824 0.950 . S
H1796 C1826 0.950 . S
H1797 C1827 0.950 . S
C1798 H1780 0.951 . S
C1798 C1799 1.366 . S
C1798 C1800 1.388 . S
C1799 C1798 1.366 . S
C1799 C1803 1.385 . S
C1800 H1781 0.951 . S
C1800 C1798 1.388 . S
C1800 C1801 1.366 . S
C1801 C1800 1.366 . S
C1801 C1802 1.414 . S
C1801 C1804 1.499 . S
C1802 H1782 0.950 . S
C1802 C1801 1.414 . S
C1802 C1803 1.374 . S
C1803 H1783 0.950 . S
C1803 C1799 1.385 . S
C1803 C1802 1.374 . S
C1804 C1801 1.499 . S
C1804 C1805 1.373 . S
C1804 C1806 1.389 . S
C1805 H1784 0.950 . S
C1805 C1804 1.373 . S
C1805 C1821 1.377 . S
C1806 C1804 1.389 . S
C1806 C1807 1.524 . S
C1806 C1820 1.377 . S
C1807 C1806 1.524 . S
C1807 C1808 1.397 . S
C1807 C1812 1.363 . S
C1808 H1785 0.950 . S
C1808 C1807 1.397 . S
C1808 C1809 1.334 . S
C1809 H1786 0.950 . S
C1809 C1808 1.334 . S
C1809 C1810 1.287 . S
C1810 C1809 1.287 . S
C1810 C1811 1.524 . S
C1810 H1829 0.913 . S
C1811 H1787 0.950 . S
C1811 C1810 1.524 . S
C1811 C1812 1.415 . S
C1812 H1788 0.950 . S
C1812 C1807 1.363 . S
C1812 C1811 1.415 . S
C1813 H1789 0.951 . S
C1813 C1814 1.366 . S
C1813 C1815 1.388 . S
C1814 C1813 1.366 . S
C1814 C1818 1.385 . S
C1815 H1790 0.951 . S
C1815 C1813 1.388 . S
C1815 C1816 1.366 . S
C1816 C1815 1.366 . S
C1816 C1817 1.414 . S
C1816 C1819 1.499 . S
C1817 H1791 0.950 . S
C1817 C1816 1.414 . S
C1817 C1818 1.374 . S
C1818 H1792 0.950 . S
C1818 C1814 1.385 . S
C1818 C1817 1.374 . S
C1819 C1816 1.499 . S
C1819 C1820 1.373 . S
C1819 C1821 1.389 . S
C1820 H1793 0.950 . S
C1820 C1806 1.377 . S
C1820 C1819 1.373 . S
C1821 C1805 1.377 . S
C1821 C1819 1.389 . S
C1821 C1822 1.524 . S
C1822 C1821 1.524 . S
C1822 C1823 1.397 . S
C1822 C1827 1.363 . S
C1823 H1794 0.950 . S
C1823 C1822 1.397 . S
C1823 C1824 1.334 . S
C1824 H1795 0.950 . S
C1824 C1823 1.334 . S
C1824 C1825 1.287 . S
C1825 C1824 1.287 . S
C1825 C1826 1.524 . S
C1825 H1828 0.999 . S
C1826 H1796 0.950 . S
C1826 C1825 1.524 . S
C1826 C1827 1.415 . S
C1827 H1797 0.950 . S
C1827 C1822 1.363 . S
C1827 C1826 1.415 . S
H1828 C1825 0.999 . S
H1829 C1810 0.913 . S
H1830 C1848 0.951 . S
H1831 C1850 0.951 . S
H1832 C1852 0.950 . S
H1833 C1853 0.950 . S
H1834 C1855 0.950 . S
H1835 C1858 0.950 . S
H1836 C1859 0.950 . S
H1837 C1861 0.950 . S
H1838 C1862 0.950 . S
H1839 C1863 0.951 . S
H1840 C1865 0.951 . S
H1841 C1867 0.950 . S
H1842 C1868 0.950 . S
H1843 C1870 0.950 . S
H1844 C1873 0.950 . S
H1845 C1874 0.950 . S
H1846 C1876 0.950 . S
H1847 C1877 0.950 . S
C1848 H1830 0.951 . S
C1848 C1849 1.366 . S
C1848 C1850 1.388 . S
C1849 C1848 1.366 . S
C1849 C1853 1.385 . S
C1850 H1831 0.951 . S
C1850 C1848 1.388 . S
C1850 C1851 1.366 . S
C1851 C1850 1.366 . S
C1851 C1852 1.414 . S
C1851 C1854 1.499 . S
C1852 H1832 0.950 . S
C1852 C1851 1.414 . S
C1852 C1853 1.374 . S
C1853 H1833 0.950 . S
C1853 C1849 1.385 . S
C1853 C1852 1.374 . S
C1854 C1851 1.499 . S
C1854 C1855 1.373 . S
C1854 C1856 1.389 . S
C1855 H1834 0.950 . S
C1855 C1854 1.373 . S
C1855 C1871 1.377 . S
C1856 C1854 1.389 . S
C1856 C1857 1.524 . S
C1856 C1870 1.377 . S
C1857 C1856 1.524 . S
C1857 C1858 1.397 . S
C1857 C1862 1.363 . S
C1858 H1835 0.950 . S
C1858 C1857 1.397 . S
C1858 C1859 1.334 . S
C1859 H1836 0.950 . S
C1859 C1858 1.334 . S
C1859 C1860 1.287 . S
C1860 C1859 1.287 . S
C1860 C1861 1.524 . S
C1860 H1879 0.913 . S
C1861 H1837 0.950 . S
C1861 C1860 1.524 . S
C1861 C1862 1.415 . S
C1862 H1838 0.950 . S
C1862 C1857 1.363 . S
C1862 C1861 1.415 . S
C1863 H1839 0.951 . S
C1863 C1864 1.366 . S
C1863 C1865 1.388 . S
C1864 C1863 1.366 . S
C1864 C1868 1.385 . S
C1865 H1840 0.951 . S
C1865 C1863 1.388 . S
C1865 C1866 1.366 . S
C1866 C1865 1.366 . S
C1866 C1867 1.414 . S
C1866 C1869 1.499 . S
C1867 H1841 0.950 . S
C1867 C1866 1.414 . S
C1867 C1868 1.374 . S
C1868 H1842 0.950 . S
C1868 C1864 1.385 . S
C1868 C1867 1.374 . S
C1869 C1866 1.499 . S
C1869 C1870 1.373 . S
C1869 C1871 1.389 . S
C1870 H1843 0.950 . S
C1870 C1856 1.377 . S
C1870 C1869 1.373 . S
C1871 C1855 1.377 . S
C1871 C1869 1.389 . S
C1871 C1872 1.524 . S
C1872 C1871 1.524 . S
C1872 C1873 1.397 . S
C1872 C1877 1.363 . S
C1873 H1844 0.950 . S
C1873 C1872 1.397 . S
C1873 C1874 1.334 . S
C1874 H1845 0.950 . S
C1874 C1873 1.334 . S
C1874 C1875 1.287 . S
C1875 C1874 1.287 . S
C1875 C1876 1.524 . S
C1875 H1878 0.999 . S
C1876 H1846 0.950 . S
C1876 C1875 1.524 . S
C1876 C1877 1.415 . S
C1877 H1847 0.950 . S
C1877 C1872 1.363 . S
C1877 C1876 1.415 . S
H1878 C1875 0.999 . S
H1879 C1860 0.913 . S
H1880 C1898 0.951 . S
H1881 C1900 0.951 . S
H1882 C1902 0.950 . S
H1883 C1903 0.950 . S
H1884 C1905 0.950 . S
H1885 C1908 0.950 . S
H1886 C1909 0.950 . S
H1887 C1911 0.950 . S
H1888 C1912 0.950 . S
H1889 C1913 0.951 . S
H1890 C1915 0.951 . S
H1891 C1917 0.950 . S
H1892 C1918 0.950 . S
H1893 C1920 0.950 . S
H1894 C1923 0.950 . S
H1895 C1924 0.950 . S
H1896 C1926 0.950 . S
H1897 C1927 0.950 . S
C1898 H1880 0.951 . S
C1898 C1899 1.366 . S
C1898 C1900 1.388 . S
C1899 C1898 1.366 . S
C1899 C1903 1.385 . S
C1900 H1881 0.951 . S
C1900 C1898 1.388 . S
C1900 C1901 1.366 . S
C1901 C1900 1.366 . S
C1901 C1902 1.414 . S
C1901 C1904 1.499 . S
C1902 H1882 0.950 . S
C1902 C1901 1.414 . S
C1902 C1903 1.374 . S
C1903 H1883 0.950 . S
C1903 C1899 1.385 . S
C1903 C1902 1.374 . S
C1904 C1901 1.499 . S
C1904 C1905 1.373 . S
C1904 C1906 1.389 . S
C1905 H1884 0.950 . S
C1905 C1904 1.373 . S
C1905 C1921 1.377 . S
C1906 C1904 1.389 . S
C1906 C1907 1.524 . S
C1906 C1920 1.377 . S
C1907 C1906 1.524 . S
C1907 C1908 1.397 . S
C1907 C1912 1.363 . S
C1908 H1885 0.950 . S
C1908 C1907 1.397 . S
C1908 C1909 1.334 . S
C1909 H1886 0.950 . S
C1909 C1908 1.334 . S
C1909 C1910 1.287 . S
C1910 C1909 1.287 . S
C1910 C1911 1.524 . S
C1910 H1929 0.913 . S
C1911 H1887 0.950 . S
C1911 C1910 1.524 . S
C1911 C1912 1.415 . S
C1912 H1888 0.950 . S
C1912 C1907 1.363 . S
C1912 C1911 1.415 . S
C1913 H1889 0.951 . S
C1913 C1914 1.366 . S
C1913 C1915 1.388 . S
C1914 C1913 1.366 . S
C1914 C1918 1.385 . S
C1915 H1890 0.951 . S
C1915 C1913 1.388 . S
C1915 C1916 1.366 . S
C1916 C1915 1.366 . S
C1916 C1917 1.414 . S
C1916 C1919 1.499 . S
C1917 H1891 0.950 . S
C1917 C1916 1.414 . S
C1917 C1918 1.374 . S
C1918 H1892 0.950 . S
C1918 C1914 1.385 . S
C1918 C1917 1.374 . S
C1919 C1916 1.499 . S
C1919 C1920 1.373 . S
C1919 C1921 1.389 . S
C1920 H1893 0.950 . S
C1920 C1906 1.377 . S
C1920 C1919 1.373 . S
C1921 C1905 1.377 . S
C1921 C1919 1.389 . S
C1921 C1922 1.524 . S
C1922 C1921 1.524 . S
C1922 C1923 1.397 . S
C1922 C1927 1.363 . S
C1923 H1894 0.950 . S
C1923 C1922 1.397 . S
C1923 C1924 1.334 . S
C1924 H1895 0.950 . S
C1924 C1923 1.334 . S
C1924 C1925 1.287 . S
C1925 C1924 1.287 . S
C1925 C1926 1.524 . S
C1925 H1928 0.999 . S
C1926 H1896 0.950 . S
C1926 C1925 1.524 . S
C1926 C1927 1.415 . S
C1927 H1897 0.950 . S
C1927 C1922 1.363 . S
C1927 C1926 1.415 . S
H1928 C1925 0.999 . S
H1929 C1910 0.913 . S
H1930 C1948 0.951 . S
H1931 C1950 0.951 . S
H1932 C1952 0.950 . S
H1933 C1953 0.950 . S
H1934 C1955 0.950 . S
H1935 C1958 0.950 . S
H1936 C1959 0.950 . S
H1937 C1961 0.950 . S
H1938 C1962 0.950 . S
H1939 C1963 0.951 . S
H1940 C1965 0.951 . S
H1941 C1967 0.950 . S
H1942 C1968 0.950 . S
H1943 C1970 0.950 . S
H1944 C1973 0.950 . S
H1945 C1974 0.950 . S
H1946 C1976 0.950 . S
H1947 C1977 0.950 . S
C1948 H1930 0.951 . S
C1948 C1949 1.366 . S
C1948 C1950 1.388 . S
C1949 C1948 1.366 . S
C1949 C1953 1.385 . S
C1950 H1931 0.951 . S
C1950 C1948 1.388 . S
C1950 C1951 1.366 . S
C1951 C1950 1.366 . S
C1951 C1952 1.414 . S
C1951 C1954 1.499 . S
C1952 H1932 0.950 . S
C1952 C1951 1.414 . S
C1952 C1953 1.374 . S
C1953 H1933 0.950 . S
C1953 C1949 1.385 . S
C1953 C1952 1.374 . S
C1954 C1951 1.499 . S
C1954 C1955 1.373 . S
C1954 C1956 1.389 . S
C1955 H1934 0.950 . S
C1955 C1954 1.373 . S
C1955 C1971 1.377 . S
C1956 C1954 1.389 . S
C1956 C1957 1.524 . S
C1956 C1970 1.377 . S
C1957 C1956 1.524 . S
C1957 C1958 1.397 . S
C1957 C1962 1.363 . S
C1958 H1935 0.950 . S
C1958 C1957 1.397 . S
C1958 C1959 1.334 . S
C1959 H1936 0.950 . S
C1959 C1958 1.334 . S
C1959 C1960 1.287 . S
C1960 C1959 1.287 . S
C1960 C1961 1.524 . S
C1960 H1979 0.913 . S
C1961 H1937 0.950 . S
C1961 C1960 1.524 . S
C1961 C1962 1.415 . S
C1962 H1938 0.950 . S
C1962 C1957 1.363 . S
C1962 C1961 1.415 . S
C1963 H1939 0.951 . S
C1963 C1964 1.366 . S
C1963 C1965 1.388 . S
C1964 C1963 1.366 . S
C1964 C1968 1.385 . S
C1965 H1940 0.951 . S
C1965 C1963 1.388 . S
C1965 C1966 1.366 . S
C1966 C1965 1.366 . S
C1966 C1967 1.414 . S
C1966 C1969 1.499 . S
C1967 H1941 0.950 . S
C1967 C1966 1.414 . S
C1967 C1968 1.374 . S
C1968 H1942 0.950 . S
C1968 C1964 1.385 . S
C1968 C1967 1.374 . S
C1969 C1966 1.499 . S
C1969 C1970 1.373 . S
C1969 C1971 1.389 . S
C1970 H1943 0.950 . S
C1970 C1956 1.377 . S
C1970 C1969 1.373 . S
C1971 C1955 1.377 . S
C1971 C1969 1.389 . S
C1971 C1972 1.524 . S
C1972 C1971 1.524 . S
C1972 C1973 1.397 . S
C1972 C1977 1.363 . S
C1973 H1944 0.950 . S
C1973 C1972 1.397 . S
C1973 C1974 1.334 . S
C1974 H1945 0.950 . S
C1974 C1973 1.334 . S
C1974 C1975 1.287 . S
C1975 C1974 1.287 . S
C1975 C1976 1.524 . S
C1975 H1978 0.999 . S
C1976 H1946 0.950 . S
C1976 C1975 1.524 . S
C1976 C1977 1.415 . S
C1977 H1947 0.950 . S
C1977 C1972 1.363 . S
C1977 C1976 1.415 . S
H1978 C1975 0.999 . S
H1979 C1960 0.913 . S
H1980 C1998 0.951 . S
H1981 C2000 0.951 . S
H1982 C2002 0.950 . S
H1983 C2003 0.950 . S
H1984 C2005 0.950 . S
H1985 C2008 0.950 . S
H1986 C2009 0.950 . S
H1987 C2011 0.950 . S
H1988 C2012 0.950 . S
H1989 C2013 0.951 . S
H1990 C2015 0.951 . S
H1991 C2017 0.950 . S
H1992 C2018 0.950 . S
H1993 C2020 0.950 . S
H1994 C2023 0.950 . S
H1995 C2024 0.950 . S
H1996 C2026 0.950 . S
H1997 C2027 0.950 . S
C1998 H1980 0.951 . S
C1998 C1999 1.366 . S
C1998 C2000 1.388 . S
C1999 C1998 1.366 . S
C1999 C2003 1.385 . S
C2000 H1981 0.951 . S
C2000 C1998 1.388 . S
C2000 C2001 1.366 . S
C2001 C2000 1.366 . S
C2001 C2002 1.414 . S
C2001 C2004 1.499 . S
C2002 H1982 0.950 . S
C2002 C2001 1.414 . S
C2002 C2003 1.374 . S
C2003 H1983 0.950 . S
C2003 C1999 1.385 . S
C2003 C2002 1.374 . S
C2004 C2001 1.499 . S
C2004 C2005 1.373 . S
C2004 C2006 1.389 . S
C2005 H1984 0.950 . S
C2005 C2004 1.373 . S
C2005 C2021 1.377 . S
C2006 C2004 1.389 . S
C2006 C2007 1.524 . S
C2006 C2020 1.377 . S
C2007 C2006 1.524 . S
C2007 C2008 1.397 . S
C2007 C2012 1.363 . S
C2008 H1985 0.950 . S
C2008 C2007 1.397 . S
C2008 C2009 1.334 . S
C2009 H1986 0.950 . S
C2009 C2008 1.334 . S
C2009 C2010 1.287 . S
C2010 C2009 1.287 . S
C2010 C2011 1.524 . S
C2010 H2029 0.913 . S
C2011 H1987 0.950 . S
C2011 C2010 1.524 . S
C2011 C2012 1.415 . S
C2012 H1988 0.950 . S
C2012 C2007 1.363 . S
C2012 C2011 1.415 . S
C2013 H1989 0.951 . S
C2013 C2014 1.366 . S
C2013 C2015 1.388 . S
C2014 C2013 1.366 . S
C2014 C2018 1.385 . S
C2015 H1990 0.951 . S
C2015 C2013 1.388 . S
C2015 C2016 1.366 . S
C2016 C2015 1.366 . S
C2016 C2017 1.414 . S
C2016 C2019 1.499 . S
C2017 H1991 0.950 . S
C2017 C2016 1.414 . S
C2017 C2018 1.374 . S
C2018 H1992 0.950 . S
C2018 C2014 1.385 . S
C2018 C2017 1.374 . S
C2019 C2016 1.499 . S
C2019 C2020 1.373 . S
C2019 C2021 1.389 . S
C2020 H1993 0.950 . S
C2020 C2006 1.377 . S
C2020 C2019 1.373 . S
C2021 C2005 1.377 . S
C2021 C2019 1.389 . S
C2021 C2022 1.524 . S
C2022 C2021 1.524 . S
C2022 C2023 1.397 . S
C2022 C2027 1.363 . S
C2023 H1994 0.950 . S
C2023 C2022 1.397 . S
C2023 C2024 1.334 . S
C2024 H1995 0.950 . S
C2024 C2023 1.334 . S
C2024 C2025 1.287 . S
C2025 C2024 1.287 . S
C2025 C2026 1.524 . S
C2025 H2028 0.999 . S
C2026 H1996 0.950 . S
C2026 C2025 1.524 . S
C2026 C2027 1.415 . S
C2027 H1997 0.950 . S
C2027 C2022 1.363 . S
C2027 C2026 1.415 . S
H2028 C2025 0.999 . S
H2029 C2010 0.913 . S
H2030 C2048 0.951 . S
H2031 C2050 0.951 . S
H2032 C2052 0.950 . S
H2033 C2053 0.950 . S
H2034 C2055 0.950 . S
H2035 C2058 0.950 . S
H2036 C2059 0.950 . S
H2037 C2061 0.950 . S
H2038 C2062 0.950 . S
H2039 C2063 0.951 . S
H2040 C2065 0.951 . S
H2041 C2067 0.950 . S
H2042 C2068 0.950 . S
H2043 C2070 0.950 . S
H2044 C2073 0.950 . S
H2045 C2074 0.950 . S
H2046 C2076 0.950 . S
H2047 C2077 0.950 . S
C2048 H2030 0.951 . S
C2048 C2049 1.366 . S
C2048 C2050 1.388 . S
C2049 C2048 1.366 . S
C2049 C2053 1.385 . S
C2050 H2031 0.951 . S
C2050 C2048 1.388 . S
C2050 C2051 1.366 . S
C2051 C2050 1.366 . S
C2051 C2052 1.414 . S
C2051 C2054 1.499 . S
C2052 H2032 0.950 . S
C2052 C2051 1.414 . S
C2052 C2053 1.374 . S
C2053 H2033 0.950 . S
C2053 C2049 1.385 . S
C2053 C2052 1.374 . S
C2054 C2051 1.499 . S
C2054 C2055 1.373 . S
C2054 C2056 1.389 . S
C2055 H2034 0.950 . S
C2055 C2054 1.373 . S
C2055 C2071 1.377 . S
C2056 C2054 1.389 . S
C2056 C2057 1.524 . S
C2056 C2070 1.377 . S
C2057 C2056 1.524 . S
C2057 C2058 1.397 . S
C2057 C2062 1.363 . S
C2058 H2035 0.950 . S
C2058 C2057 1.397 . S
C2058 C2059 1.334 . S
C2059 H2036 0.950 . S
C2059 C2058 1.334 . S
C2059 C2060 1.287 . S
C2060 C2059 1.287 . S
C2060 C2061 1.524 . S
C2060 H2079 0.913 . S
C2061 H2037 0.950 . S
C2061 C2060 1.524 . S
C2061 C2062 1.415 . S
C2062 H2038 0.950 . S
C2062 C2057 1.363 . S
C2062 C2061 1.415 . S
C2063 H2039 0.951 . S
C2063 C2064 1.366 . S
C2063 C2065 1.388 . S
C2064 C2063 1.366 . S
C2064 C2068 1.385 . S
C2065 H2040 0.951 . S
C2065 C2063 1.388 . S
C2065 C2066 1.366 . S
C2066 C2065 1.366 . S
C2066 C2067 1.414 . S
C2066 C2069 1.499 . S
C2067 H2041 0.950 . S
C2067 C2066 1.414 . S
C2067 C2068 1.374 . S
C2068 H2042 0.950 . S
C2068 C2064 1.385 . S
C2068 C2067 1.374 . S
C2069 C2066 1.499 . S
C2069 C2070 1.373 . S
C2069 C2071 1.389 . S
C2070 H2043 0.950 . S
C2070 C2056 1.377 . S
C2070 C2069 1.373 . S
C2071 C2055 1.377 . S
C2071 C2069 1.389 . S
C2071 C2072 1.524 . S
C2072 C2071 1.524 . S
C2072 C2073 1.397 . S
C2072 C2077 1.363 . S
C2073 H2044 0.950 . S
C2073 C2072 1.397 . S
C2073 C2074 1.334 . S
C2074 H2045 0.950 . S
C2074 C2073 1.334 . S
C2074 C2075 1.287 . S
C2075 C2074 1.287 . S
C2075 C2076 1.524 . S
C2075 H2078 0.999 . S
C2076 H2046 0.950 . S
C2076 C2075 1.524 . S
C2076 C2077 1.415 . S
C2077 H2047 0.950 . S
C2077 C2072 1.363 . S
C2077 C2076 1.415 . S
H2078 C2075 0.999 . S
H2079 C2060 0.913 . S
H2080 C2098 0.951 . S
H2081 C2100 0.951 . S
H2082 C2102 0.950 . S
H2083 C2103 0.950 . S
H2084 C2105 0.950 . S
H2085 C2108 0.950 . S
H2086 C2109 0.950 . S
H2087 C2111 0.950 . S
H2088 C2112 0.950 . S
H2089 C2113 0.951 . S
H2090 C2115 0.951 . S
H2091 C2117 0.950 . S
H2092 C2118 0.950 . S
H2093 C2120 0.950 . S
H2094 C2123 0.950 . S
H2095 C2124 0.950 . S
H2096 C2126 0.950 . S
H2097 C2127 0.950 . S
C2098 H2080 0.951 . S
C2098 C2099 1.366 . S
C2098 C2100 1.388 . S
C2099 C2098 1.366 . S
C2099 C2103 1.385 . S
C2100 H2081 0.951 . S
C2100 C2098 1.388 . S
C2100 C2101 1.366 . S
C2101 C2100 1.366 . S
C2101 C2102 1.414 . S
C2101 C2104 1.499 . S
C2102 H2082 0.950 . S
C2102 C2101 1.414 . S
C2102 C2103 1.374 . S
C2103 H2083 0.950 . S
C2103 C2099 1.385 . S
C2103 C2102 1.374 . S
C2104 C2101 1.499 . S
C2104 C2105 1.373 . S
C2104 C2106 1.389 . S
C2105 H2084 0.950 . S
C2105 C2104 1.373 . S
C2105 C2121 1.377 . S
C2106 C2104 1.389 . S
C2106 C2107 1.524 . S
C2106 C2120 1.377 . S
C2107 C2106 1.524 . S
C2107 C2108 1.397 . S
C2107 C2112 1.363 . S
C2108 H2085 0.950 . S
C2108 C2107 1.397 . S
C2108 C2109 1.334 . S
C2109 H2086 0.950 . S
C2109 C2108 1.334 . S
C2109 C2110 1.287 . S
C2110 C2109 1.287 . S
C2110 C2111 1.524 . S
C2110 H2129 0.913 . S
C2111 H2087 0.950 . S
C2111 C2110 1.524 . S
C2111 C2112 1.415 . S
C2112 H2088 0.950 . S
C2112 C2107 1.363 . S
C2112 C2111 1.415 . S
C2113 H2089 0.951 . S
C2113 C2114 1.366 . S
C2113 C2115 1.388 . S
C2114 C2113 1.366 . S
C2114 C2118 1.385 . S
C2115 H2090 0.951 . S
C2115 C2113 1.388 . S
C2115 C2116 1.366 . S
C2116 C2115 1.366 . S
C2116 C2117 1.414 . S
C2116 C2119 1.499 . S
C2117 H2091 0.950 . S
C2117 C2116 1.414 . S
C2117 C2118 1.374 . S
C2118 H2092 0.950 . S
C2118 C2114 1.385 . S
C2118 C2117 1.374 . S
C2119 C2116 1.499 . S
C2119 C2120 1.373 . S
C2119 C2121 1.389 . S
C2120 H2093 0.950 . S
C2120 C2106 1.377 . S
C2120 C2119 1.373 . S
C2121 C2105 1.377 . S
C2121 C2119 1.389 . S
C2121 C2122 1.524 . S
C2122 C2121 1.524 . S
C2122 C2123 1.397 . S
C2122 C2127 1.363 . S
C2123 H2094 0.950 . S
C2123 C2122 1.397 . S
C2123 C2124 1.334 . S
C2124 H2095 0.950 . S
C2124 C2123 1.334 . S
C2124 C2125 1.287 . S
C2125 C2124 1.287 . S
C2125 C2126 1.524 . S
C2125 H2128 0.999 . S
C2126 H2096 0.950 . S
C2126 C2125 1.524 . S
C2126 C2127 1.415 . S
C2127 H2097 0.950 . S
C2127 C2122 1.363 . S
C2127 C2126 1.415 . S
H2128 C2125 0.999 . S
H2129 C2110 0.913 . S
H2130 C2148 0.951 . S
H2131 C2150 0.951 . S
H2132 C2152 0.950 . S
H2133 C2153 0.950 . S
H2134 C2155 0.950 . S
H2135 C2158 0.950 . S
H2136 C2159 0.950 . S
H2137 C2161 0.950 . S
H2138 C2162 0.950 . S
H2139 C2163 0.951 . S
H2140 C2165 0.951 . S
H2141 C2167 0.950 . S
H2142 C2168 0.950 . S
H2143 C2170 0.950 . S
H2144 C2173 0.950 . S
H2145 C2174 0.950 . S
H2146 C2176 0.950 . S
H2147 C2177 0.950 . S
C2148 H2130 0.951 . S
C2148 C2149 1.366 . S
C2148 C2150 1.388 . S
C2149 C2148 1.366 . S
C2149 C2153 1.385 . S
C2150 H2131 0.951 . S
C2150 C2148 1.388 . S
C2150 C2151 1.366 . S
C2151 C2150 1.366 . S
C2151 C2152 1.414 . S
C2151 C2154 1.499 . S
C2152 H2132 0.950 . S
C2152 C2151 1.414 . S
C2152 C2153 1.374 . S
C2153 H2133 0.950 . S
C2153 C2149 1.385 . S
C2153 C2152 1.374 . S
C2154 C2151 1.499 . S
C2154 C2155 1.373 . S
C2154 C2156 1.389 . S
C2155 H2134 0.950 . S
C2155 C2154 1.373 . S
C2155 C2171 1.377 . S
C2156 C2154 1.389 . S
C2156 C2157 1.524 . S
C2156 C2170 1.377 . S
C2157 C2156 1.524 . S
C2157 C2158 1.397 . S
C2157 C2162 1.363 . S
C2158 H2135 0.950 . S
C2158 C2157 1.397 . S
C2158 C2159 1.334 . S
C2159 H2136 0.950 . S
C2159 C2158 1.334 . S
C2159 C2160 1.287 . S
C2160 C2159 1.287 . S
C2160 C2161 1.524 . S
C2160 H2179 0.913 . S
C2161 H2137 0.950 . S
C2161 C2160 1.524 . S
C2161 C2162 1.415 . S
C2162 H2138 0.950 . S
C2162 C2157 1.363 . S
C2162 C2161 1.415 . S
C2163 H2139 0.951 . S
C2163 C2164 1.366 . S
C2163 C2165 1.388 . S
C2164 C2163 1.366 . S
C2164 C2168 1.385 . S
C2165 H2140 0.951 . S
C2165 C2163 1.388 . S
C2165 C2166 1.366 . S
C2166 C2165 1.366 . S
C2166 C2167 1.414 . S
C2166 C2169 1.499 . S
C2167 H2141 0.950 . S
C2167 C2166 1.414 . S
C2167 C2168 1.374 . S
C2168 H2142 0.950 . S
C2168 C2164 1.385 . S
C2168 C2167 1.374 . S
C2169 C2166 1.499 . S
C2169 C2170 1.373 . S
C2169 C2171 1.389 . S
C2170 H2143 0.950 . S
C2170 C2156 1.377 . S
C2170 C2169 1.373 . S
C2171 C2155 1.377 . S
C2171 C2169 1.389 . S
C2171 C2172 1.524 . S
C2172 C2171 1.524 . S
C2172 C2173 1.397 . S
C2172 C2177 1.363 . S
C2173 H2144 0.950 . S
C2173 C2172 1.397 . S
C2173 C2174 1.334 . S
C2174 H2145 0.950 . S
C2174 C2173 1.334 . S
C2174 C2175 1.287 . S
C2175 C2174 1.287 . S
C2175 C2176 1.524 . S
C2175 H2178 0.999 . S
C2176 H2146 0.950 . S
C2176 C2175 1.524 . S
C2176 C2177 1.415 . S
C2177 H2147 0.950 . S
C2177 C2172 1.363 . S
C2177 C2176 1.415 . S
H2178 C2175 0.999 . S
H2179 C2160 0.913 . S
H2180 C2198 0.951 . S
H2181 C2200 0.951 . S
H2182 C2202 0.950 . S
H2183 C2203 0.950 . S
H2184 C2205 0.950 . S
H2185 C2208 0.950 . S
H2186 C2209 0.950 . S
H2187 C2211 0.950 . S
H2188 C2212 0.950 . S
H2189 C2213 0.951 . S
H2190 C2215 0.951 . S
H2191 C2217 0.950 . S
H2192 C2218 0.950 . S
H2193 C2220 0.950 . S
H2194 C2223 0.950 . S
H2195 C2224 0.950 . S
H2196 C2226 0.950 . S
H2197 C2227 0.950 . S
C2198 H2180 0.951 . S
C2198 C2199 1.366 . S
C2198 C2200 1.388 . S
C2199 C2198 1.366 . S
C2199 C2203 1.385 . S
C2200 H2181 0.951 . S
C2200 C2198 1.388 . S
C2200 C2201 1.366 . S
C2201 C2200 1.366 . S
C2201 C2202 1.414 . S
C2201 C2204 1.499 . S
C2202 H2182 0.950 . S
C2202 C2201 1.414 . S
C2202 C2203 1.374 . S
C2203 H2183 0.950 . S
C2203 C2199 1.385 . S
C2203 C2202 1.374 . S
C2204 C2201 1.499 . S
C2204 C2205 1.373 . S
C2204 C2206 1.389 . S
C2205 H2184 0.950 . S
C2205 C2204 1.373 . S
C2205 C2221 1.377 . S
C2206 C2204 1.389 . S
C2206 C2207 1.524 . S
C2206 C2220 1.377 . S
C2207 C2206 1.524 . S
C2207 C2208 1.397 . S
C2207 C2212 1.363 . S
C2208 H2185 0.950 . S
C2208 C2207 1.397 . S
C2208 C2209 1.334 . S
C2209 H2186 0.950 . S
C2209 C2208 1.334 . S
C2209 C2210 1.287 . S
C2210 C2209 1.287 . S
C2210 C2211 1.524 . S
C2210 H2229 0.913 . S
C2211 H2187 0.950 . S
C2211 C2210 1.524 . S
C2211 C2212 1.415 . S
C2212 H2188 0.950 . S
C2212 C2207 1.363 . S
C2212 C2211 1.415 . S
C2213 H2189 0.951 . S
C2213 C2214 1.366 . S
C2213 C2215 1.388 . S
C2214 C2213 1.366 . S
C2214 C2218 1.385 . S
C2215 H2190 0.951 . S
C2215 C2213 1.388 . S
C2215 C2216 1.366 . S
C2216 C2215 1.366 . S
C2216 C2217 1.414 . S
C2216 C2219 1.499 . S
C2217 H2191 0.950 . S
C2217 C2216 1.414 . S
C2217 C2218 1.374 . S
C2218 H2192 0.950 . S
C2218 C2214 1.385 . S
C2218 C2217 1.374 . S
C2219 C2216 1.499 . S
C2219 C2220 1.373 . S
C2219 C2221 1.389 . S
C2220 H2193 0.950 . S
C2220 C2206 1.377 . S
C2220 C2219 1.373 . S
C2221 C2205 1.377 . S
C2221 C2219 1.389 . S
C2221 C2222 1.524 . S
C2222 C2221 1.524 . S
C2222 C2223 1.397 . S
C2222 C2227 1.363 . S
C2223 H2194 0.950 . S
C2223 C2222 1.397 . S
C2223 C2224 1.334 . S
C2224 H2195 0.950 . S
C2224 C2223 1.334 . S
C2224 C2225 1.287 . S
C2225 C2224 1.287 . S
C2225 C2226 1.524 . S
C2225 H2228 0.999 . S
C2226 H2196 0.950 . S
C2226 C2225 1.524 . S
C2226 C2227 1.415 . S
C2227 H2197 0.950 . S
C2227 C2222 1.363 . S
C2227 C2226 1.415 . S
H2228 C2225 0.999 . S
H2229 C2210 0.913 . S
H2230 C2248 0.951 . S
H2231 C2250 0.951 . S
H2232 C2252 0.950 . S
H2233 C2253 0.950 . S
H2234 C2255 0.950 . S
H2235 C2258 0.950 . S
H2236 C2259 0.950 . S
H2237 C2261 0.950 . S
H2238 C2262 0.950 . S
H2239 C2263 0.951 . S
H2240 C2265 0.951 . S
H2241 C2267 0.950 . S
H2242 C2268 0.950 . S
H2243 C2270 0.950 . S
H2244 C2273 0.950 . S
H2245 C2274 0.950 . S
H2246 C2276 0.950 . S
H2247 C2277 0.950 . S
C2248 H2230 0.951 . S
C2248 C2249 1.366 . S
C2248 C2250 1.388 . S
C2249 C2248 1.366 . S
C2249 C2253 1.385 . S
C2250 H2231 0.951 . S
C2250 C2248 1.388 . S
C2250 C2251 1.366 . S
C2251 C2250 1.366 . S
C2251 C2252 1.414 . S
C2251 C2254 1.499 . S
C2252 H2232 0.950 . S
C2252 C2251 1.414 . S
C2252 C2253 1.374 . S
C2253 H2233 0.950 . S
C2253 C2249 1.385 . S
C2253 C2252 1.374 . S
C2254 C2251 1.499 . S
C2254 C2255 1.373 . S
C2254 C2256 1.389 . S
C2255 H2234 0.950 . S
C2255 C2254 1.373 . S
C2255 C2271 1.377 . S
C2256 C2254 1.389 . S
C2256 C2257 1.524 . S
C2256 C2270 1.377 . S
C2257 C2256 1.524 . S
C2257 C2258 1.397 . S
C2257 C2262 1.363 . S
C2258 H2235 0.950 . S
C2258 C2257 1.397 . S
C2258 C2259 1.334 . S
C2259 H2236 0.950 . S
C2259 C2258 1.334 . S
C2259 C2260 1.287 . S
C2260 C2259 1.287 . S
C2260 C2261 1.524 . S
C2260 H2279 0.913 . S
C2261 H2237 0.950 . S
C2261 C2260 1.524 . S
C2261 C2262 1.415 . S
C2262 H2238 0.950 . S
C2262 C2257 1.363 . S
C2262 C2261 1.415 . S
C2263 H2239 0.951 . S
C2263 C2264 1.366 . S
C2263 C2265 1.388 . S
C2264 C2263 1.366 . S
C2264 C2268 1.385 . S
C2265 H2240 0.951 . S
C2265 C2263 1.388 . S
C2265 C2266 1.366 . S
C2266 C2265 1.366 . S
C2266 C2267 1.414 . S
C2266 C2269 1.499 . S
C2267 H2241 0.950 . S
C2267 C2266 1.414 . S
C2267 C2268 1.374 . S
C2268 H2242 0.950 . S
C2268 C2264 1.385 . S
C2268 C2267 1.374 . S
C2269 C2266 1.499 . S
C2269 C2270 1.373 . S
C2269 C2271 1.389 . S
C2270 H2243 0.950 . S
C2270 C2256 1.377 . S
C2270 C2269 1.373 . S
C2271 C2255 1.377 . S
C2271 C2269 1.389 . S
C2271 C2272 1.524 . S
C2272 C2271 1.524 . S
C2272 C2273 1.397 . S
C2272 C2277 1.363 . S
C2273 H2244 0.950 . S
C2273 C2272 1.397 . S
C2273 C2274 1.334 . S
C2274 H2245 0.950 . S
C2274 C2273 1.334 . S
C2274 C2275 1.287 . S
C2275 C2274 1.287 . S
C2275 C2276 1.524 . S
C2275 H2278 0.999 . S
C2276 H2246 0.950 . S
C2276 C2275 1.524 . S
C2276 C2277 1.415 . S
C2277 H2247 0.950 . S
C2277 C2272 1.363 . S
C2277 C2276 1.415 . S
H2278 C2275 0.999 . S
H2279 C2260 0.913 . S
C499 C109 1.200 . S
C514 C12 1.193 . S
C549 C128 1.199 . S
C564 C71 1.193 . S
C599 C92 1.193 . S
C614 C189 1.200 . S
C649 C151 1.193 . S
C664 C208 1.200 . S
C699 C29 1.200 . S
C714 C172 1.193 . S
C749 C48 1.200 . S
C764 C231 1.193 . S
C799 C408 1.200 . S
C814 C271 1.193 . S
C849 C292 1.193 . S
C864 C469 1.200 . S
C899 C351 1.193 . S
C914 C248 1.199 . S
C949 C372 1.193 . S
C964 C309 1.200 . S
C999 C431 1.193 . S
C1014 C328 1.200 . S
C1049 C389 1.200 . S
C1064 C452 1.192 . S
C1099 C137 1.781 . S
C1114 C2 1.782 . S
C1149 C57 1.782 . S
C1164 C162 1.781 . S
C1199 C82 1.781 . S
C1214 C217 1.782 . S
C1249 C257 1.782 . S
C1264 C362 1.781 . S
C1299 C282 1.781 . S
C1314 C417 1.782 . S
C1349 C337 1.781 . S
C1364 C442 1.781 . S
C1399 C297 2.253 . S
C1414 C17 2.253 . S
C1449 C42 2.254 . S
C1464 C322 2.254 . S
C1499 C377 2.253 . S
C1514 C97 2.253 . S
C1549 C122 2.254 . S
C1564 C402 2.254 . S
C1599 C177 2.253 . S
C1614 C457 2.253 . S
C1649 C242 2.254 . S
C1664 C202 2.254 . S
C1699 C88 1.669 . S
C1714 C31 1.703 . S
C1749 C52 1.703 . S
C1764 C149 1.669 . S
C1799 C111 1.703 . S
C1814 C168 1.669 . S
C1849 C132 1.703 . S
C1864 C229 1.669 . S
C1899 C8 1.669 . S
C1914 C191 1.703 . S
C1949 C69 1.669 . S
C1964 C212 1.703 . S
C1999 C429 1.669 . S
C2014 C252 1.703 . S
C2049 C311 1.703 . S
C2064 C448 1.669 . S
C2099 C332 1.703 . S
C2114 C269 1.669 . S
C2149 C288 1.669 . S
C2164 C391 1.703 . S
C2199 C412 1.703 . S
C2214 C349 1.669 . S
C2249 C471 1.703 . S
C2264 C368 1.669 . S
