# Generated by pormake.
# Topology tzs, (4)-cn, num edge types: 1
# Building blocks:
#     Node 0, Type 0, BuildingBlock: NAHDIM_clean_sbu_0, # of connection points: 4
#     Node 1, Type 0, BuildingBlock: NAHDIM_clean_sbu_0, # of connection points: 4
#     Node 2, Type 0, BuildingBlock: NAHDIM_clean_sbu_0, # of connection points: 4
#     Node 3, Type 0, BuildingBlock: NAHDIM_clean_sbu_0, # of connection points: 4
#     Node 4, Type 0, BuildingBlock: NAHDIM_clean_sbu_0, # of connection points: 4
#     Node 5, Type 0, BuildingBlock: NAHDIM_clean_sbu_0, # of connection points: 4
#     Node 6, Type 0, BuildingBlock: NAHDIM_clean_sbu_0, # of connection points: 4
#     Node 7, Type 0, BuildingBlock: NAHDIM_clean_sbu_0, # of connection points: 4
#     Node 8, Type 0, BuildingBlock: NAHDIM_clean_sbu_0, # of connection points: 4
#     Node 9, Type 0, BuildingBlock: NAHDIM_clean_sbu_0, # of connection points: 4
#     Node 10, Type 0, BuildingBlock: NAHDIM_clean_sbu_0, # of connection points: 4
#     Node 11, Type 0, BuildingBlock: NAHDIM_clean_sbu_0, # of connection points: 4
#     Node 12, Type 0, BuildingBlock: NAHDIM_clean_sbu_0, # of connection points: 4
#     Node 13, Type 0, BuildingBlock: NAHDIM_clean_sbu_0, # of connection points: 4
#     Node 14, Type 0, BuildingBlock: NAHDIM_clean_sbu_0, # of connection points: 4
#     Node 15, Type 0, BuildingBlock: NAHDIM_clean_sbu_0, # of connection points: 4
#     Edge 16, Type (0, 0), BuildingBlock: XUDNAN_clean_linker_2, # of connection points: 2
#     Edge 17, Type (0, 0), BuildingBlock: XUDNAN_clean_linker_2, # of connection points: 2
#     Edge 18, Type (0, 0), BuildingBlock: XUDNAN_clean_linker_2, # of connection points: 2
#     Edge 19, Type (0, 0), BuildingBlock: XUDNAN_clean_linker_2, # of connection points: 2
#     Edge 20, Type (0, 0), BuildingBlock: XUDNAN_clean_linker_2, # of connection points: 2
#     Edge 21, Type (0, 0), BuildingBlock: XUDNAN_clean_linker_2, # of connection points: 2
#     Edge 22, Type (0, 0), BuildingBlock: XUDNAN_clean_linker_2, # of connection points: 2
#     Edge 23, Type (0, 0), BuildingBlock: XUDNAN_clean_linker_2, # of connection points: 2
#     Edge 24, Type (0, 0), BuildingBlock: XUDNAN_clean_linker_2, # of connection points: 2
#     Edge 25, Type (0, 0), BuildingBlock: XUDNAN_clean_linker_2, # of connection points: 2
#     Edge 26, Type (0, 0), BuildingBlock: XUDNAN_clean_linker_2, # of connection points: 2
#     Edge 27, Type (0, 0), BuildingBlock: XUDNAN_clean_linker_2, # of connection points: 2
#     Edge 28, Type (0, 0), BuildingBlock: XUDNAN_clean_linker_2, # of connection points: 2
#     Edge 29, Type (0, 0), BuildingBlock: XUDNAN_clean_linker_2, # of connection points: 2
#     Edge 30, Type (0, 0), BuildingBlock: XUDNAN_clean_linker_2, # of connection points: 2
#     Edge 31, Type (0, 0), BuildingBlock: XUDNAN_clean_linker_2, # of connection points: 2
#     Edge 32, Type (0, 0), BuildingBlock: XUDNAN_clean_linker_2, # of connection points: 2
#     Edge 33, Type (0, 0), BuildingBlock: XUDNAN_clean_linker_2, # of connection points: 2
#     Edge 34, Type (0, 0), BuildingBlock: XUDNAN_clean_linker_2, # of connection points: 2
#     Edge 35, Type (0, 0), BuildingBlock: XUDNAN_clean_linker_2, # of connection points: 2
#     Edge 36, Type (0, 0), BuildingBlock: XUDNAN_clean_linker_2, # of connection points: 2
#     Edge 37, Type (0, 0), BuildingBlock: XUDNAN_clean_linker_2, # of connection points: 2
#     Edge 38, Type (0, 0), BuildingBlock: XUDNAN_clean_linker_2, # of connection points: 2
#     Edge 39, Type (0, 0), BuildingBlock: XUDNAN_clean_linker_2, # of connection points: 2
#     Edge 40, Type (0, 0), BuildingBlock: XUDNAN_clean_linker_2, # of connection points: 2
#     Edge 41, Type (0, 0), BuildingBlock: XUDNAN_clean_linker_2, # of connection points: 2
#     Edge 42, Type (0, 0), BuildingBlock: XUDNAN_clean_linker_2, # of connection points: 2
#     Edge 43, Type (0, 0), BuildingBlock: XUDNAN_clean_linker_2, # of connection points: 2
#     Edge 44, Type (0, 0), BuildingBlock: XUDNAN_clean_linker_2, # of connection points: 2
#     Edge 45, Type (0, 0), BuildingBlock: XUDNAN_clean_linker_2, # of connection points: 2
#     Edge 46, Type (0, 0), BuildingBlock: XUDNAN_clean_linker_2, # of connection points: 2
#     Edge 47, Type (0, 0), BuildingBlock: XUDNAN_clean_linker_2, # of connection points: 2
# Relax obj value: 0.068
# Max RMSD: 0.082
# Mean RMSD: 0.082
data_MOF--net-tzs--node1-NAHDIM_clean_sbu_0--edge1-XUDNAN_clean_linker_2
_symmetry_space_group_name_H-M    P1
_symmetry_Int_Tables_number       1
_symmetry_cell_setting            triclinic
loop_
_symmetry_equiv_pos_as_xyz
'x, y, z'
_cell_length_a     49.137795
_cell_length_b     49.209364
_cell_length_c     39.379497
_cell_angle_alpha  89.98654
_cell_angle_beta   90.002223
_cell_angle_gamma 89.992751
loop_
_atom_site_label
_atom_site_type_symbol
_atom_site_fract_x
_atom_site_fract_y
_atom_site_fract_z
_atom_type_partial_charge
C0 C 0.21078 0.33653 0.20216 0.0
O1 O 0.21603 0.35378 0.17755 0.0
O2 O 0.16149 0.39944 0.22572 0.0
Zn3 Zn 0.1597 0.36417 0.20029 0.0
O4 O 0.16571 0.37211 0.15088 0.0
C5 C 0.10289 0.36639 0.20099 0.0
O6 O 0.10915 0.39094 0.19043 0.0
O7 O 0.18769 0.33734 0.21667 0.0
C8 C 0.15633 0.35652 0.12803 0.0
O9 O 0.14229 0.33496 0.137 0.0
C10 C 0.18299 0.41244 0.23316 0.0
O11 O 0.20682 0.40212 0.22526 0.0
O12 O 0.12194 0.34957 0.20678 0.0
C13 C 0.68272 0.19579 0.2043 0.0
O14 O 0.67388 0.20225 0.17386 0.0
O15 O 0.61462 0.14989 0.19991 0.0
Zn16 Zn 0.65474 0.14567 0.19033 0.0
O17 O 0.66114 0.15053 0.14018 0.0
C18 C 0.65599 0.09743 0.23069 0.0
O19 O 0.6391 0.11174 0.24938 0.0
O20 O 0.67657 0.17279 0.21675 0.0
C21 C 0.66093 0.13027 0.12017 0.0
O22 O 0.65744 0.10574 0.13255 0.0
C23 C 0.59897 0.1315 0.18838 0.0
O24 O 0.60957 0.11145 0.17081 0.0
O25 O 0.66616 0.10809 0.2042 0.0
C26 C 0.79844 0.66763 0.19591 0.0
O27 O 0.79503 0.64381 0.18145 0.0
O28 O 0.84229 0.61244 0.22357 0.0
Zn29 Zn 0.85006 0.64548 0.19519 0.0
O30 O 0.84402 0.63553 0.14621 0.0
C31 C 0.90707 0.64783 0.18171 0.0
O32 O 0.89927 0.63138 0.15736 0.0
O33 O 0.82211 0.67421 0.20614 0.0
C34 C 0.84842 0.65243 0.12247 0.0
O35 O 0.85769 0.67674 0.12996 0.0
C36 C 0.84886 0.58918 0.21224 0.0
O37 O 0.86115 0.58745 0.1827 0.0
O38 O 0.88936 0.65723 0.20219 0.0
C39 C 0.3273 0.79616 0.205 0.0
O40 O 0.35234 0.79171 0.19471 0.0
O41 O 0.38169 0.84041 0.21691 0.0
Zn42 Zn 0.34535 0.85031 0.19655 0.0
O43 O 0.34881 0.8536 0.14577 0.0
C44 C 0.3394 0.89534 0.24371 0.0
O45 O 0.35619 0.8811 0.26262 0.0
O46 O 0.31893 0.8205 0.20757 0.0
C47 C 0.35278 0.87664 0.13202 0.0
O48 O 0.35504 0.89826 0.15138 0.0
C49 C 0.40329 0.85412 0.21231 0.0
O50 O 0.40229 0.87628 0.19375 0.0
O51 O 0.33172 0.88583 0.2153 0.0
C52 C 0.18815 0.67131 0.29178 0.0
O53 O 0.19205 0.64893 0.3093 0.0
O54 O 0.14607 0.61814 0.30307 0.0
Zn55 Zn 0.13445 0.6571 0.30871 0.0
O56 O 0.13252 0.66545 0.35841 0.0
C57 C 0.09694 0.66162 0.25387 0.0
O58 O 0.11934 0.65681 0.23665 0.0
O59 O 0.16402 0.68014 0.28787 0.0
C60 C 0.11945 0.65018 0.37867 0.0
O61 O 0.10598 0.62929 0.36649 0.0
C62 C 0.13111 0.59767 0.29703 0.0
O63 O 0.10467 0.60088 0.29414 0.0
O64 O 0.09826 0.66323 0.28602 0.0
C65 C 0.31753 0.18264 0.28873 0.0
O66 O 0.30521 0.17123 0.31468 0.0
O67 O 0.39437 0.13571 0.27702 0.0
Zn68 Zn 0.35838 0.14109 0.30012 0.0
O69 O 0.36296 0.14765 0.35037 0.0
C70 C 0.34638 0.08555 0.30786 0.0
O71 O 0.36724 0.08821 0.32846 0.0
O72 O 0.33995 0.17291 0.27831 0.0
C73 C 0.3851 0.14259 0.36585 0.0
O74 O 0.40598 0.13322 0.34865 0.0
C75 C 0.41306 0.15347 0.27517 0.0
O76 O 0.40956 0.17724 0.28973 0.0
O77 O 0.33735 0.1065 0.2927 0.0
C78 C 0.8196 0.32745 0.27933 0.0
O79 O 0.82318 0.34617 0.25595 0.0
O80 O 0.85111 0.39166 0.29432 0.0
Zn81 Zn 0.86387 0.35551 0.31163 0.0
O82 O 0.87317 0.35984 0.36092 0.0
C83 C 0.914 0.3638 0.27764 0.0
O84 O 0.90712 0.38915 0.28365 0.0
O85 O 0.83487 0.32736 0.30534 0.0
C86 C 0.86168 0.34657 0.38457 0.0
O87 O 0.84282 0.32867 0.37697 0.0
C88 C 0.83685 0.40755 0.31247 0.0
O89 O 0.82874 0.39945 0.34261 0.0
O90 O 0.89808 0.34488 0.28699 0.0
C91 C 0.65996 0.80494 0.2501 0.0
O92 O 0.63615 0.81004 0.23633 0.0
O93 O 0.60495 0.84375 0.28362 0.0
Zn94 Zn 0.64432 0.84755 0.2972 0.0
O95 O 0.64819 0.84485 0.34797 0.0
C96 C 0.64334 0.90488 0.2903 0.0
O97 O 0.62096 0.90132 0.30796 0.0
O98 O 0.66752 0.81851 0.27586 0.0
C99 C 0.62959 0.85197 0.36856 0.0
O100 O 0.6064 0.8612 0.35665 0.0
C101 C 0.59013 0.82401 0.29315 0.0
O102 O 0.60082 0.80482 0.31213 0.0
O103 O 0.65746 0.88427 0.28212 0.0
C104 C 0.82242 0.69619 0.79322 0.0
O105 O 0.84614 0.70782 0.79828 0.0
O106 O 0.88667 0.66394 0.7917 0.0
Zn107 Zn 0.85211 0.64781 0.80997 0.0
O108 O 0.8528 0.64581 0.86079 0.0
C109 C 0.86104 0.59041 0.80166 0.0
O110 O 0.87854 0.59434 0.82638 0.0
O111 O 0.82028 0.67062 0.79644 0.0
C112 C 0.83593 0.63021 0.87554 0.0
O113 O 0.81893 0.61583 0.85711 0.0
C114 C 0.90943 0.65896 0.80561 0.0
O115 O 0.91018 0.64376 0.83302 0.0
O116 O 0.84738 0.61041 0.79046 0.0
C117 C 0.30689 0.82813 0.77849 0.0
O118 O 0.31128 0.84483 0.75303 0.0
O119 O 0.32844 0.89599 0.78356 0.0
Zn120 Zn 0.34286 0.86497 0.8117 0.0
O121 O 0.34564 0.87565 0.86077 0.0
C122 C 0.39741 0.87442 0.79074 0.0
O123 O 0.39051 0.89944 0.79859 0.0
O124 O 0.3184 0.83263 0.80679 0.0
C125 C 0.34745 0.85779 0.88393 0.0
O126 O 0.34731 0.83195 0.87551 0.0
C127 C 0.32455 0.91959 0.79568 0.0
O128 O 0.32931 0.924 0.82804 0.0
O129 O 0.38007 0.85551 0.79451 0.0
C130 C 0.1747 0.29845 0.78436 0.0
O131 O 0.15031 0.28846 0.77885 0.0
O132 O 0.10961 0.32913 0.80724 0.0
Zn133 Zn 0.14671 0.34455 0.81652 0.0
O134 O 0.15069 0.34918 0.86685 0.0
C135 C 0.13533 0.4008 0.80318 0.0
O136 O 0.11782 0.39738 0.82803 0.0
O137 O 0.17718 0.32104 0.79962 0.0
C138 C 0.1674 0.36607 0.87949 0.0
O139 O 0.18257 0.38083 0.85914 0.0
C140 C 0.09938 0.32921 0.77763 0.0
O141 O 0.11404 0.3382 0.75208 0.0
O142 O 0.14988 0.38085 0.79376 0.0
C143 C 0.67616 0.17309 0.75209 0.0
O144 O 0.68111 0.1499 0.73677 0.0
O145 O 0.6661 0.10689 0.77936 0.0
Zn146 Zn 0.64659 0.13922 0.79957 0.0
O147 O 0.65383 0.14264 0.84971 0.0
C148 C 0.5959 0.11163 0.79056 0.0
O149 O 0.6117 0.09062 0.79634 0.0
O150 O 0.66101 0.17335 0.77824 0.0
C151 C 0.64169 0.12914 0.87265 0.0
O152 O 0.62323 0.11112 0.86405 0.0
C153 C 0.67321 0.0858 0.79571 0.0
O154 O 0.66894 0.08457 0.82858 0.0
O155 O 0.60622 0.13534 0.79072 0.0
C156 C 0.81803 0.30398 0.69521 0.0
O157 O 0.83417 0.29446 0.67142 0.0
O158 O 0.89093 0.33328 0.7195 0.0
Zn159 Zn 0.85698 0.34759 0.69671 0.0
O160 O 0.86095 0.34698 0.64607 0.0
C161 C 0.86409 0.39881 0.7327 0.0
O162 O 0.88324 0.38579 0.74934 0.0
O163 O 0.82416 0.32606 0.71002 0.0
C164 C 0.87638 0.36428 0.63185 0.0
O165 O 0.88974 0.38177 0.65077 0.0
C166 C 0.91074 0.32332 0.70288 0.0
O167 O 0.90877 0.32074 0.66979 0.0
O168 O 0.85054 0.38642 0.71002 0.0
C169 C 0.68801 0.82978 0.71607 0.0
O170 O 0.70053 0.85177 0.70541 0.0
O171 O 0.6543 0.89368 0.70492 0.0
Zn172 Zn 0.64106 0.85704 0.68934 0.0
O173 O 0.64616 0.85273 0.63912 0.0
C174 C 0.58611 0.87176 0.70886 0.0
O175 O 0.59582 0.89662 0.70812 0.0
O176 O 0.66243 0.82779 0.71226 0.0
C177 C 0.62951 0.86226 0.61753 0.0
O178 O 0.608 0.87564 0.62817 0.0
C179 C 0.66915 0.90894 0.68662 0.0
O180 O 0.67654 0.90065 0.65628 0.0
O181 O 0.60165 0.85198 0.70148 0.0
C182 C 0.17554 0.6889 0.70878 0.0
O183 O 0.16325 0.69708 0.68097 0.0
O184 O 0.10422 0.6533 0.71572 0.0
Zn185 Zn 0.14108 0.64332 0.69787 0.0
O186 O 0.14231 0.65068 0.64783 0.0
C187 C 0.13643 0.59184 0.73136 0.0
O188 O 0.12082 0.60606 0.75179 0.0
O189 O 0.16938 0.66593 0.72133 0.0
C190 C 0.12699 0.63828 0.62701 0.0
O191 O 0.11027 0.61951 0.63832 0.0
C192 C 0.09 0.67255 0.70361 0.0
O193 O 0.09964 0.68708 0.67834 0.0
O194 O 0.14781 0.60362 0.7064 0.0
C195 C 0.31418 0.17355 0.69814 0.0
O196 O 0.30222 0.1519 0.68556 0.0
O197 O 0.33968 0.10761 0.6957 0.0
Zn198 Zn 0.3612 0.14136 0.68502 0.0
O199 O 0.37099 0.14331 0.63559 0.0
C200 C 0.40676 0.11452 0.71238 0.0
O201 O 0.39389 0.09425 0.6978 0.0
O202 O 0.34 0.17413 0.70005 0.0
C203 C 0.35574 0.15173 0.61177 0.0
O204 O 0.33094 0.15997 0.61876 0.0
C205 C 0.33071 0.09042 0.6744 0.0
O206 O 0.33379 0.09498 0.64176 0.0
O207 O 0.39657 0.13824 0.71074 0.0
H208 H 0.26846 0.20738 0.30179 0.0
H209 H 0.34025 0.21276 0.23775 0.0
H210 H 0.32116 0.25331 0.20979 0.0
H211 H 0.22033 0.22689 0.23786 0.0
H212 H 0.19927 0.24616 0.26658 0.0
H213 H 0.21882 0.21783 0.28218 0.0
H214 H 0.24163 0.24916 0.32678 0.0
H215 H 0.22219 0.2776 0.31126 0.0
H216 H 0.25879 0.27959 0.31294 0.0
H217 H 0.29441 0.29294 0.18849 0.0
H218 H 0.26105 0.32857 0.17417 0.0
H219 H 0.20643 0.29737 0.25166 0.0
C220 C 0.2802 0.21711 0.28194 0.0
C221 C 0.30586 0.20689 0.272 0.0
C222 C 0.32053 0.22018 0.24581 0.0
C223 C 0.3099 0.24327 0.2298 0.0
C224 C 0.28458 0.25281 0.24022 0.0
C225 C 0.26986 0.24016 0.2656 0.0
C226 C 0.24291 0.25433 0.27153 0.0
C227 C 0.21892 0.23516 0.26408 0.0
C228 C 0.2413 0.26585 0.30778 0.0
C229 C 0.24477 0.27684 0.24541 0.0
C230 C 0.26902 0.27564 0.22774 0.0
C231 C 0.27534 0.29413 0.20216 0.0
C232 C 0.25626 0.31431 0.19424 0.0
C233 C 0.23112 0.31578 0.21178 0.0
C234 C 0.22546 0.29683 0.23782 0.0
H235 H 0.78529 0.31998 0.22519 0.0
H236 H 0.80585 0.28747 0.32449 0.0
H237 H 0.77109 0.25177 0.31738 0.0
H238 H 0.71231 0.30696 0.23 0.0
H239 H 0.70978 0.29781 0.1858 0.0
H240 H 0.73527 0.32175 0.19945 0.0
H241 H 0.77291 0.29187 0.17237 0.0
H242 H 0.74756 0.26788 0.15863 0.0
H243 H 0.77568 0.25664 0.18446 0.0
H244 H 0.73576 0.21843 0.29849 0.0
H245 H 0.70258 0.1893 0.26873 0.0
H246 H 0.70496 0.24364 0.18184 0.0
C247 C 0.78234 0.3055 0.24557 0.0
C248 C 0.79827 0.30653 0.2754 0.0
C249 C 0.79389 0.28709 0.30139 0.0
C250 C 0.77414 0.26677 0.29765 0.0
C251 C 0.75892 0.26624 0.26784 0.0
C252 C 0.76274 0.28509 0.24226 0.0
C253 C 0.74437 0.27938 0.21223 0.0
C254 C 0.72424 0.30287 0.20655 0.0
C255 C 0.76114 0.27359 0.18003 0.0
C256 C 0.72995 0.25412 0.22472 0.0
C257 C 0.7385 0.24699 0.25693 0.0
C258 C 0.72875 0.22389 0.27334 0.0
C259 C 0.70993 0.20747 0.25621 0.0
C260 C 0.70114 0.21422 0.22298 0.0
C261 C 0.71112 0.23803 0.2073 0.0
H262 H 0.79416 0.71374 0.23535 0.0
H263 H 0.74976 0.66369 0.16339 0.0
H264 H 0.71019 0.69416 0.16815 0.0
H265 H 0.73729 0.72735 0.28964 0.0
H266 H 0.74728 0.76182 0.29884 0.0
H267 H 0.77274 0.73677 0.28874 0.0
H268 H 0.79061 0.76731 0.23998 0.0
H269 H 0.76518 0.79246 0.24993 0.0
H270 H 0.76738 0.77878 0.20756 0.0
H271 H 0.67536 0.72963 0.18063 0.0
H272 H 0.64666 0.76701 0.20213 0.0
H273 H 0.71289 0.79342 0.26731 0.0
C274 C 0.77617 0.70932 0.22046 0.0
C275 C 0.77507 0.68638 0.19894 0.0
C276 C 0.75106 0.68111 0.18011 0.0
C277 C 0.72848 0.69834 0.18253 0.0
C278 C 0.73014 0.72069 0.20404 0.0
C279 C 0.75327 0.7262 0.22282 0.0
C280 C 0.74928 0.75109 0.24491 0.0
C281 C 0.75179 0.74381 0.28278 0.0
C282 C 0.7693 0.77375 0.23499 0.0
C283 C 0.72029 0.75858 0.23566 0.0
C284 C 0.70974 0.7409 0.21183 0.0
C285 C 0.68336 0.74363 0.19931 0.0
C286 C 0.66724 0.76495 0.21164 0.0
C287 C 0.67748 0.7831 0.23644 0.0
C288 C 0.70442 0.77984 0.24843 0.0
H289 H 0.2727 0.79741 0.22003 0.0
H290 H 0.34213 0.74307 0.21295 0.0
H291 H 0.31348 0.70501 0.23244 0.0
H292 H 0.24428 0.76944 0.29493 0.0
H293 H 0.2094 0.77314 0.28151 0.0
H294 H 0.23499 0.796 0.26559 0.0
H295 H 0.22188 0.78341 0.20382 0.0
H296 H 0.19617 0.76054 0.21956 0.0
H297 H 0.22204 0.74824 0.19098 0.0
H298 H 0.2785 0.67373 0.25618 0.0
H299 H 0.2385 0.65032 0.28005 0.0
H300 H 0.19104 0.7243 0.26981 0.0
C301 C 0.28183 0.77747 0.22235 0.0
C302 C 0.30967 0.77321 0.21503 0.0
C303 C 0.32084 0.74681 0.21833 0.0
C304 C 0.30475 0.72506 0.22941 0.0
C305 C 0.27747 0.73 0.23673 0.0
C306 C 0.26599 0.75545 0.23307 0.0
C307 C 0.23621 0.75528 0.24307 0.0
C308 C 0.23092 0.77461 0.27306 0.0
C309 C 0.218 0.76228 0.21253 0.0
C310 C 0.2329 0.72584 0.2535 0.0
C311 C 0.25699 0.71167 0.24966 0.0
C312 C 0.25943 0.6845 0.25898 0.0
C313 C 0.23662 0.67143 0.27263 0.0
C314 C 0.21166 0.68547 0.27662 0.0
C315 C 0.20978 0.71299 0.26667 0.0
H316 H 0.74269 0.82786 0.7299 0.0
H317 H 0.66853 0.77997 0.73504 0.0
H318 H 0.69479 0.74101 0.75684 0.0
H319 H 0.78603 0.77494 0.7017 0.0
H320 H 0.81492 0.78562 0.72656 0.0
H321 H 0.79017 0.81025 0.71278 0.0
H322 H 0.78271 0.82542 0.77512 0.0
H323 H 0.80753 0.8009 0.78909 0.0
H324 H 0.77367 0.80047 0.80669 0.0
H325 H 0.72918 0.70663 0.7751 0.0
H326 H 0.76943 0.67944 0.79078 0.0
H327 H 0.82108 0.74992 0.77481 0.0
C328 C 0.73192 0.80926 0.73585 0.0
C329 C 0.70357 0.80695 0.73073 0.0
C330 C 0.69025 0.78223 0.73879 0.0
C331 C 0.70497 0.75997 0.75118 0.0
C332 C 0.73293 0.76284 0.75556 0.0
C333 C 0.74627 0.78688 0.74838 0.0
C334 C 0.77654 0.78443 0.75484 0.0
C335 C 0.79287 0.78908 0.72201 0.0
C336 C 0.78564 0.80396 0.78312 0.0
C337 C 0.77815 0.75512 0.76632 0.0
C338 C 0.75276 0.74306 0.76656 0.0
C339 C 0.74916 0.71588 0.77527 0.0
C340 C 0.77215 0.7006 0.78403 0.0
C341 C 0.79837 0.71259 0.7841 0.0
C342 C 0.80129 0.74024 0.77523 0.0
H343 H 0.19763 0.73583 0.68391 0.0
H344 H 0.20021 0.68126 0.77053 0.0
H345 H 0.23441 0.71087 0.7979 0.0
H346 H 0.26919 0.75134 0.68277 0.0
H347 H 0.26405 0.78627 0.67059 0.0
H348 H 0.23981 0.76075 0.658 0.0
H349 H 0.20102 0.78842 0.68624 0.0
H350 H 0.22515 0.81402 0.69893 0.0
H351 H 0.20389 0.79788 0.73032 0.0
H352 H 0.26758 0.74709 0.81622 0.0
H353 H 0.2982 0.78649 0.82343 0.0
H354 H 0.27429 0.81648 0.72409 0.0
C355 C 0.20535 0.73006 0.70865 0.0
C356 C 0.19622 0.70628 0.72515 0.0
C357 C 0.20695 0.6994 0.75742 0.0
C358 C 0.22634 0.71608 0.77317 0.0
C359 C 0.23485 0.73944 0.7562 0.0
C360 C 0.22479 0.74635 0.72459 0.0
C361 C 0.23735 0.77241 0.71162 0.0
C362 C 0.25357 0.76738 0.67881 0.0
C363 C 0.21555 0.79448 0.70649 0.0
C364 C 0.25596 0.77921 0.74098 0.0
C365 C 0.2542 0.76 0.76649 0.0
C366 C 0.26921 0.76221 0.79637 0.0
C367 C 0.2865 0.78467 0.80024 0.0
C368 C 0.28868 0.8045 0.77428 0.0
C369 C 0.2732 0.8016 0.74431 0.0
H370 H 0.17728 0.2502 0.7494 0.0
H371 H 0.22779 0.31355 0.79331 0.0
H372 H 0.26893 0.28922 0.77441 0.0
H373 H 0.21994 0.19442 0.77207 0.0
H374 H 0.21386 0.17585 0.73335 0.0
H375 H 0.1883 0.19865 0.74949 0.0
H376 H 0.18801 0.22449 0.69212 0.0
H377 H 0.21362 0.20178 0.67581 0.0
H378 H 0.21943 0.23794 0.6755 0.0
H379 H 0.30462 0.25768 0.75183 0.0
H380 H 0.3324 0.22058 0.72771 0.0
H381 H 0.25862 0.17795 0.69852 0.0
C382 C 0.19697 0.25901 0.75498 0.0
C383 C 0.19928 0.28379 0.77283 0.0
C384 C 0.22547 0.2946 0.77964 0.0
C385 C 0.24899 0.28096 0.76898 0.0
C386 C 0.24599 0.25659 0.75147 0.0
C387 C 0.22067 0.24569 0.74449 0.0
C388 C 0.22313 0.21897 0.72572 0.0
C389 C 0.21057 0.1956 0.7464 0.0
C390 C 0.21029 0.22093 0.69018 0.0
C391 C 0.25377 0.21641 0.72361 0.0
C392 C 0.26659 0.23839 0.73845 0.0
C393 C 0.29484 0.24039 0.74002 0.0
C394 C 0.31043 0.21923 0.72626 0.0
C395 C 0.2977 0.19637 0.71123 0.0
C396 C 0.26899 0.19516 0.70976 0.0
H397 H 0.71765 0.17746 0.70595 0.0
H398 H 0.66926 0.22453 0.77704 0.0
H399 H 0.69847 0.26441 0.76662 0.0
H400 H 0.78028 0.20216 0.7311 0.0
H401 H 0.79531 0.20306 0.68936 0.0
H402 H 0.76851 0.17927 0.69852 0.0
H403 H 0.74008 0.19821 0.6484 0.0
H404 H 0.76696 0.22191 0.63878 0.0
H405 H 0.73289 0.2341 0.64629 0.0
H406 H 0.73573 0.29727 0.75377 0.0
H407 H 0.77745 0.32175 0.73723 0.0
H408 H 0.80163 0.25336 0.67438 0.0
C409 C 0.71274 0.19634 0.71868 0.0
C410 C 0.69113 0.1979 0.74225 0.0
C411 C 0.68568 0.22287 0.75881 0.0
C412 C 0.70213 0.24565 0.75304 0.0
C413 C 0.72381 0.24316 0.73048 0.0
C414 C 0.72899 0.21925 0.71327 0.0
C415 C 0.7547 0.22137 0.69222 0.0
C416 C 0.77595 0.20021 0.7035 0.0
C417 C 0.74826 0.21875 0.65416 0.0
C418 C 0.76359 0.24993 0.70112 0.0
C419 C 0.74537 0.26222 0.72299 0.0
C420 C 0.74995 0.28804 0.73625 0.0
C421 C 0.77379 0.3017 0.72684 0.0
C422 C 0.79277 0.28949 0.70444 0.0
C423 C 0.78741 0.26334 0.6913 0.0
H424 H 0.14186 0.33569 0.92825 0.0
H425 H 0.19764 0.4033 0.91493 0.0
H426 H 0.20076 0.40843 0.97723 0.0
H427 H 0.1058 0.36282 -0.0002 0.0
H428 H 0.10222 0.33034 0.02049 0.0
H429 H 0.10437 0.33212 0.97489 0.0
H430 H 0.14532 0.2989 0.97572 0.0
H431 H 0.1433 0.29701 0.02131 0.0
H432 H 0.17473 0.3069 0.00121 0.0
H433 H 0.19742 0.40633 0.04098 0.0
H434 H 0.18865 0.3966 0.10151 0.0
H435 H 0.13553 0.32995 0.07267 0.0
C436 C 0.15473 0.35161 0.93837 0.0
C437 C 0.1695 0.36913 0.91672 0.0
C438 C 0.18617 0.38963 0.93103 0.0
C439 C 0.18805 0.39272 0.96637 0.0
C440 C 0.17319 0.3751 0.98695 0.0
C441 C 0.15692 0.3549 0.97348 0.0
C442 C 0.1432 0.33848 0.0011 0.0
C443 C 0.11205 0.34111 -0.00107 0.0
C444 C 0.15219 0.30855 -0.00025 0.0
C445 C 0.15429 0.3526 0.03226 0.0
C446 C 0.17148 0.37372 0.02359 0.0
C447 C 0.18402 0.38982 0.04809 0.0
C448 C 0.17889 0.38415 0.08238 0.0
C449 C 0.16143 0.36249 0.09182 0.0
C450 C 0.14903 0.34659 0.06631 0.0
H451 H 0.63055 0.09581 0.92651 0.0
H452 H 0.66804 0.17285 0.90012 0.0
H453 H 0.67838 0.18106 0.96065 0.0
H454 H 0.59972 0.11705 0.00374 0.0
H455 H 0.60628 0.0856 0.02574 0.0
H456 H 0.60224 0.08568 0.98031 0.0
H457 H 0.64929 0.06244 0.97361 0.0
H458 H 0.65348 0.06232 0.01906 0.0
H459 H 0.67891 0.07792 0.99245 0.0
H460 H 0.68217 0.18203 0.02436 0.0
H461 H 0.6813 0.17447 0.08646 0.0
H462 H 0.64358 0.09575 0.07049 0.0
C463 C 0.64096 0.11439 0.93346 0.0
C464 C 0.6484 0.13375 0.9087 0.0
C465 C 0.66221 0.15772 0.91873 0.0
C466 C 0.66814 0.16258 0.95301 0.0
C467 C 0.66044 0.14311 0.97681 0.0
C468 C 0.64738 0.11939 0.96745 0.0
C469 C 0.64139 0.10169 -0.00204 0.0
C470 C 0.61058 0.09726 0.00218 0.0
C471 C 0.65669 0.07449 0.99562 0.0
C472 C 0.65275 0.11936 0.026 0.0
C473 C 0.66355 0.14322 0.01333 0.0
C474 C 0.67406 0.16329 0.03457 0.0
C475 C 0.67343 0.15885 0.06975 0.0
C476 C 0.66262 0.13444 0.08317 0.0
C477 C 0.65238 0.11442 0.06091 0.0
H478 H 0.86024 0.66447 0.92117 0.0
H479 H 0.80967 0.59233 0.91429 0.0
H480 H 0.80783 0.58985 0.97689 0.0
H481 H 0.89895 0.6441 0.99472 0.0
H482 H 0.89981 0.6778 0.0126 0.0
H483 H 0.89778 0.6734 0.96727 0.0
H484 H 0.85423 0.70309 0.96568 0.0
H485 H 0.85608 0.70755 0.01101 0.0
H486 H 0.82559 0.69404 0.99197 0.0
H487 H 0.81178 0.59505 0.04001 0.0
H488 H 0.81983 0.60851 0.09955 0.0
H489 H 0.86643 0.67821 0.06505 0.0
C490 C 0.84891 0.64806 0.93282 0.0
C491 C 0.83517 0.62852 0.91292 0.0
C492 C 0.82032 0.60752 0.92909 0.0
C493 C 0.81921 0.60591 0.96459 0.0
C494 C 0.83288 0.62556 0.98346 0.0
C495 C 0.84735 0.6463 0.96817 0.0
C496 C 0.85965 0.66525 0.99426 0.0
C497 C 0.8909 0.66511 0.99208 0.0
C498 C 0.84819 0.69419 0.9905 0.0
C499 C 0.8498 0.65194 0.02663 0.0
C500 C 0.83457 0.62896 0.01984 0.0
C501 C 0.82361 0.61303 0.04566 0.0
C502 C 0.82832 0.62083 0.07937 0.0
C503 C 0.84365 0.64446 0.08687 0.0
C504 C 0.85446 0.66017 0.06009 0.0
H505 H 0.35013 0.83585 0.0846 0.0
H506 H 0.3578 0.92339 0.0949 0.0
H507 H 0.35813 0.928 0.03251 0.0
H508 H 0.3939 0.82915 0.01094 0.0
H509 H 0.37336 0.8029 0.99191 0.0
H510 H 0.37442 0.80645 0.03741 0.0
H511 H 0.32186 0.81072 0.03887 0.0
H512 H 0.32064 0.80725 0.99338 0.0
H513 H 0.30541 0.83643 0.0135 0.0
H514 H 0.35602 0.92327 0.96913 0.0
H515 H 0.35272 0.90939 0.90905 0.0
H516 H 0.34698 0.82491 0.9402 0.0
C517 C 0.35202 0.85599 0.07377 0.0
C518 C 0.35392 0.87926 0.09465 0.0
C519 C 0.35634 0.90525 0.07944 0.0
C520 C 0.35654 0.9081 0.04402 0.0
C521 C 0.35442 0.88476 0.0242 0.0
C522 C 0.35234 0.8592 0.03849 0.0
C523 C 0.35003 0.83742 0.01149 0.0
C524 C 0.37438 0.81783 0.01304 0.0
C525 C 0.32287 0.82206 0.0145 0.0
C526 C 0.35089 0.85477 0.97977 0.0
C527 C 0.35345 0.88201 0.98766 0.0
C528 C 0.35415 0.90199 0.96262 0.0
C529 C 0.35221 0.8939 0.92858 0.0
C530 C 0.34965 0.86606 0.91991 0.0
C531 C 0.34905 0.84632 0.94596 0.0
H532 H 0.10125 0.61236 0.57427 0.0
H533 H 0.15461 0.68025 0.59736 0.0
H534 H 0.15633 0.69212 0.53657 0.0
H535 H 0.13433 0.59268 0.49785 0.0
H536 H 0.10339 0.58354 0.47608 0.0
H537 H 0.10516 0.58122 0.52164 0.0
H538 H 0.06294 0.61253 0.52677 0.0
H539 H 0.06109 0.61502 0.48118 0.0
H540 H 0.06327 0.64541 0.50657 0.0
H541 H 0.1534 0.69592 0.47344 0.0
H542 H 0.14736 0.6904 0.41167 0.0
H543 H 0.09627 0.61978 0.42946 0.0
C544 C 0.11315 0.62983 0.56659 0.0
C545 C 0.12775 0.6454 0.59058 0.0
C546 C 0.14327 0.66799 0.57944 0.0
C547 C 0.1443 0.67497 0.54498 0.0
C548 C 0.12973 0.65916 0.522 0.0
C549 C 0.1145 0.63703 0.53226 0.0
C550 C 0.10159 0.62281 0.5022 0.0
C551 C 0.11173 0.59332 0.49928 0.0
C552 C 0.07037 0.62403 0.50431 0.0
C553 C 0.11224 0.64023 0.47343 0.0
C554 C 0.12823 0.66122 0.48544 0.0
C555 C 0.14082 0.67964 0.46369 0.0
C556 C 0.13725 0.67633 0.42865 0.0
C557 C 0.12133 0.65466 0.41571 0.0
C558 C 0.10845 0.63661 0.43853 0.0
H559 H 0.32704 0.16236 0.55334 0.0
H560 H 0.40729 0.14003 0.59027 0.0
H561 H 0.42407 0.13781 0.53137 0.0
H562 H 0.32691 0.11829 0.4823 0.0
H563 H 0.30927 0.14154 0.45461 0.0
H564 H 0.3039 0.14318 0.49978 0.0
H565 H 0.3177 0.19402 0.49962 0.0
H566 H 0.3231 0.19254 0.4544 0.0
H567 H 0.35007 0.2039 0.48198 0.0
H568 H 0.43172 0.13594 0.46876 0.0
H569 H 0.42953 0.1339 0.40624 0.0
H570 H 0.34432 0.15725 0.40987 0.0
C571 C 0.34821 0.15728 0.54907 0.0
C572 C 0.36586 0.15143 0.57643 0.0
C573 C 0.39337 0.14461 0.56973 0.0
C574 C 0.40313 0.14336 0.53636 0.0
C575 C 0.38517 0.14902 0.50998 0.0
C576 C 0.3583 0.15586 0.51589 0.0
C577 C 0.34299 0.15989 0.48289 0.0
C578 C 0.31938 0.13951 0.47972 0.0
C579 C 0.33287 0.18934 0.47953 0.0
C580 C 0.36536 0.15384 0.45756 0.0
C581 C 0.38957 0.14782 0.47373 0.0
C582 C 0.41294 0.14079 0.45576 0.0
C583 C 0.41147 0.13966 0.42025 0.0
C584 C 0.38678 0.14544 0.40314 0.0
C585 C 0.36354 0.15287 0.42216 0.0
H586 H 0.84044 0.32264 0.44161 0.0
H587 H 0.89924 0.38295 0.40839 0.0
H588 H 0.91039 0.39311 0.46812 0.0
H589 H 0.81545 0.35965 0.51249 0.0
H590 H 0.81149 0.33019 0.53924 0.0
H591 H 0.80892 0.32683 0.49384 0.0
H592 H 0.84682 0.29018 0.49453 0.0
H593 H 0.84948 0.29339 0.53998 0.0
H594 H 0.8792 0.2979 0.51377 0.0
H595 H 0.91398 0.39788 0.53135 0.0
H596 H 0.90999 0.39659 0.59384 0.0
H597 H 0.84906 0.333 0.58552 0.0
C598 C 0.85579 0.33785 0.44685 0.0
C599 C 0.86898 0.35198 0.42032 0.0
C600 C 0.88888 0.37183 0.42829 0.0
C601 C 0.89538 0.37774 0.46213 0.0
C602 C 0.88186 0.36358 0.48766 0.0
C603 C 0.86255 0.34399 0.48045 0.0
C604 C 0.85059 0.33212 0.5126 0.0
C605 C 0.81979 0.33753 0.51465 0.0
C606 C 0.85691 0.30159 0.51537 0.0
C607 C 0.86601 0.34829 0.53899 0.0
C608 C 0.884 0.36628 0.52411 0.0
C609 C 0.90006 0.38379 0.54334 0.0
C610 C 0.89762 0.38293 0.57879 0.0
C611 C 0.87925 0.36469 0.59454 0.0
C612 C 0.86338 0.3471 0.57426 0.0
H613 H 0.5968 0.87765 0.56436 0.0
H614 H 0.67329 0.83753 0.58776 0.0
H615 H 0.68147 0.83034 0.52664 0.0
H616 H 0.57779 0.83415 0.49509 0.0
H617 H 0.56315 0.86121 0.47022 0.0
H618 H 0.56335 0.86344 0.51586 0.0
H619 H 0.58839 0.90972 0.51234 0.0
H620 H 0.58823 0.90766 0.46668 0.0
H621 H 0.61991 0.91207 0.48909 0.0
H622 H 0.68153 0.8277 0.46315 0.0
H623 H 0.67333 0.82963 0.40137 0.0
H624 H 0.59658 0.87099 0.41942 0.0
C625 C 0.61529 0.86737 0.55666 0.0
C626 C 0.6344 0.85815 0.58086 0.0
C627 C 0.65832 0.84476 0.5697 0.0
C628 C 0.66317 0.84057 0.53504 0.0
C629 C 0.64389 0.84986 0.51188 0.0
C630 C 0.62043 0.86296 0.52218 0.0
C631 C 0.60297 0.87088 0.49208 0.0
C632 C 0.57517 0.85656 0.4934 0.0
C633 C 0.5997 0.90192 0.48993 0.0
C634 C 0.6203 0.86014 0.46327 0.0
C635 C 0.64383 0.84814 0.47524 0.0
C636 C 0.66315 0.837 0.45344 0.0
C637 C 0.65831 0.83821 0.4184 0.0
C638 C 0.63429 0.85041 0.40556 0.0
C639 C 0.61507 0.86142 0.42842 0.0
H640 H 0.10594 0.54929 0.28181 0.0
H641 H 0.18526 0.58515 0.30083 0.0
H642 H 0.207 0.54086 0.29017 0.0
H643 H 0.12069 0.483 0.32016 0.0
H644 H 0.10136 0.4647 0.28869 0.0
H645 H 0.09181 0.49886 0.30005 0.0
H646 H 0.09502 0.51329 0.23686 0.0
H647 H 0.10457 0.47921 0.22537 0.0
H648 H 0.12616 0.50734 0.21381 0.0
H649 H 0.22048 0.49342 0.27393 0.0
H650 H 0.22446 0.44615 0.25328 0.0
H651 H 0.13642 0.44128 0.24558 0.0
C652 C 0.12784 0.54778 0.28411 0.0
C653 C 0.14385 0.57071 0.29219 0.0
C654 C 0.17251 0.56788 0.29472 0.0
C655 C 0.18509 0.54278 0.28878 0.0
C656 C 0.16875 0.52065 0.28053 0.0
C657 C 0.14075 0.52285 0.27832 0.0
C658 C 0.12799 0.49618 0.26772 0.0
C659 C 0.10936 0.48503 0.29584 0.0
C660 C 0.11254 0.4992 0.23393 0.0
C661 C 0.15323 0.47885 0.26363 0.0
C662 C 0.17653 0.49326 0.27136 0.0
C663 C 0.20236 0.48182 0.26812 0.0
C664 C 0.20442 0.45498 0.25635 0.0
C665 C 0.18078 0.43997 0.24793 0.0
C666 C 0.1549 0.45209 0.25206 0.0
H667 H 0.5701 0.16884 0.22602 0.0
H668 H 0.56128 0.09418 0.16818 0.0
H669 H 0.51255 0.09279 0.18258 0.0
H670 H 0.52561 0.15051 0.29335 0.0
H671 H 0.51141 0.18403 0.29852 0.0
H672 H 0.54547 0.18005 0.28244 0.0
H673 H 0.53274 0.20802 0.22899 0.0
H674 H 0.49862 0.21214 0.24495 0.0
H675 H 0.5041 0.19769 0.20345 0.0
H676 H 0.46567 0.09793 0.20528 0.0
H677 H 0.42279 0.11001 0.23396 0.0
H678 H 0.46134 0.18178 0.2765 0.0
C679 C 0.55787 0.15233 0.21614 0.0
C680 C 0.56952 0.13163 0.19595 0.0
C681 C 0.55284 0.1103 0.18366 0.0
C682 C 0.52511 0.10931 0.19168 0.0
C683 C 0.51433 0.12986 0.21186 0.0
C684 C 0.53008 0.15105 0.22383 0.0
C685 C 0.51344 0.17019 0.24571 0.0
C686 C 0.52465 0.17124 0.28217 0.0
C687 C 0.51215 0.1987 0.22981 0.0
C688 C 0.48598 0.15622 0.24445 0.0
C689 C 0.487 0.13302 0.22474 0.0
C690 C 0.46452 0.11617 0.22057 0.0
C691 C 0.44028 0.12318 0.23705 0.0
C692 C 0.43869 0.14689 0.25737 0.0
C693 C 0.46185 0.16367 0.2609 0.0
H694 H 0.86222 0.53684 0.19598 0.0
H695 H 0.82119 0.5853 0.27259 0.0
H696 H 0.81091 0.54355 0.30506 0.0
H697 H 0.81664 0.47887 0.19915 0.0
H698 H 0.8437 0.45457 0.19342 0.0
H699 H 0.84666 0.48814 0.17552 0.0
H700 H 0.89231 0.49518 0.20736 0.0
H701 H 0.88954 0.46163 0.22523 0.0
H702 H 0.89348 0.49061 0.25277 0.0
H703 H 0.80664 0.4965 0.33011 0.0
H704 H 0.81015 0.44817 0.34668 0.0
H705 H 0.85394 0.43111 0.2533 0.0
C706 C 0.85092 0.53872 0.21947 0.0
C707 C 0.84247 0.56432 0.23173 0.0
C708 C 0.82787 0.56588 0.26271 0.0
C709 C 0.82185 0.54228 0.28126 0.0
C710 C 0.83053 0.51736 0.26843 0.0
C711 C 0.84478 0.51546 0.23827 0.0
C712 C 0.85271 0.48641 0.2306 0.0
C713 C 0.83911 0.47642 0.19773 0.0
C714 C 0.88386 0.48329 0.22891 0.0
C715 C 0.84103 0.47227 0.26141 0.0
C716 C 0.82812 0.49039 0.28283 0.0
C717 C 0.81655 0.48209 0.31343 0.0
C718 C 0.81862 0.45461 0.3226 0.0
C719 C 0.83226 0.43585 0.30128 0.0
C720 C 0.84322 0.44487 0.27009 0.0
H721 H 0.56195 0.86099 0.2547 0.0
H722 H 0.55228 0.78552 0.31061 0.0
H723 H 0.50339 0.78498 0.29597 0.0
H724 H 0.49835 0.89064 0.2788 0.0
H725 H 0.49246 0.90621 0.23802 0.0
H726 H 0.52674 0.90043 0.2525 0.0
H727 H 0.53713 0.87307 0.19779 0.0
H728 H 0.5029 0.87881 0.18309 0.0
H729 H 0.5158 0.84464 0.18662 0.0
H730 H 0.45546 0.793 0.27574 0.0
H731 H 0.4121 0.8086 0.25083 0.0
H732 H 0.4533 0.87882 0.20812 0.0
C733 C 0.54961 0.84427 0.26381 0.0
C734 C 0.56097 0.82327 0.2838 0.0
C735 C 0.54406 0.80182 0.29524 0.0
C736 C 0.51627 0.80134 0.28707 0.0
C737 C 0.50573 0.82244 0.26745 0.0
C738 C 0.52189 0.84347 0.25591 0.0
C739 C 0.50556 0.86372 0.23532 0.0
C740 C 0.50579 0.89192 0.25218 0.0
C741 C 0.51597 0.86513 0.19852 0.0
C742 C 0.47764 0.85083 0.23713 0.0
C743 C 0.47817 0.82704 0.25578 0.0
C744 C 0.45481 0.81158 0.26105 0.0
C745 C 0.43027 0.82064 0.24681 0.0
C746 C 0.42927 0.84494 0.2275 0.0
C747 C 0.45335 0.86016 0.22272 0.0
H748 H 0.888 0.54357 0.8187 0.0
H749 H 0.82502 0.57521 0.75213 0.0
H750 H 0.81837 0.52939 0.7281 0.0
H751 H 0.91715 0.49731 0.75881 0.0
H752 H 0.92405 0.47135 0.78995 0.0
H753 H 0.92348 0.50655 0.8024 0.0
H754 H 0.88715 0.4957 0.84817 0.0
H755 H 0.88758 0.46046 0.83583 0.0
H756 H 0.85599 0.47907 0.83586 0.0
H757 H 0.81884 0.48041 0.71097 0.0
H758 H 0.82681 0.43157 0.70122 0.0
H759 H 0.88961 0.43192 0.77889 0.0
C760 C 0.87275 0.54089 0.79913 0.0
C761 C 0.85701 0.56297 0.78731 0.0
C762 C 0.83733 0.55859 0.76158 0.0
C763 C 0.83337 0.53264 0.7478 0.0
C764 C 0.84924 0.51134 0.76003 0.0
C765 C 0.86855 0.51516 0.78507 0.0
C766 C 0.88317 0.4889 0.7934 0.0
C767 C 0.91377 0.49118 0.78567 0.0
C768 C 0.87816 0.48055 0.83052 0.0
C769 C 0.86912 0.46974 0.76899 0.0
C770 C 0.84957 0.48308 0.75007 0.0
C771 C 0.83406 0.46972 0.72566 0.0
C772 C 0.83875 0.44196 0.72034 0.0
C773 C 0.85883 0.4279 0.73931 0.0
C774 C 0.87409 0.44206 0.76402 0.0
H775 H 0.54821 0.90913 0.72973 0.0
H776 H 0.55956 0.82286 0.71121 0.0
H777 H 0.51234 0.8142 0.72955 0.0
H778 H 0.50798 0.90212 0.80468 0.0
H779 H 0.48609 0.93048 0.79498 0.0
H780 H 0.52056 0.93001 0.77949 0.0
H781 H 0.50305 0.93627 0.71789 0.0
H782 H 0.46852 0.93681 0.7332 0.0
H783 H 0.47842 0.91272 0.70102 0.0
H784 H 0.46417 0.81482 0.75078 0.0
H785 H 0.41831 0.82473 0.77319 0.0
H786 H 0.43862 0.91055 0.77804 0.0
C787 C 0.54076 0.88842 0.72936 0.0
C788 C 0.55759 0.86668 0.71901 0.0
C789 C 0.54705 0.83986 0.71903 0.0
C790 C 0.52025 0.83473 0.72939 0.0
C791 C 0.50427 0.85661 0.73964 0.0
C792 C 0.51409 0.88292 0.73966 0.0
C793 C 0.49283 0.90276 0.75227 0.0
C794 C 0.50245 0.91718 0.78479 0.0
C795 C 0.48526 0.92335 0.72443 0.0
C796 C 0.46957 0.88346 0.7595 0.0
C797 C 0.47655 0.85695 0.75198 0.0
C798 C 0.45844 0.83551 0.75672 0.0
C799 C 0.43245 0.84135 0.76948 0.0
C800 C 0.42487 0.86841 0.77738 0.0
C801 C 0.44377 0.88965 0.77227 0.0
H802 H 0.1104 0.44869 0.82052 0.0
H803 H 0.16815 0.41373 0.74937 0.0
H804 H 0.17462 0.45879 0.72308 0.0
H805 H 0.0794 0.4958 0.7619 0.0
H806 H 0.07557 0.52222 0.79323 0.0
H807 H 0.07517 0.48709 0.80606 0.0
H808 H 0.1145 0.49646 0.84835 0.0
H809 H 0.11507 0.5316 0.83558 0.0
H810 H 0.14565 0.51146 0.83306 0.0
H811 H 0.17505 0.50769 0.70477 0.0
H812 H 0.16937 0.55703 0.6958 0.0
H813 H 0.11173 0.55994 0.77934 0.0
C814 C 0.12433 0.45045 0.79932 0.0
C815 C 0.13875 0.42768 0.78699 0.0
C816 C 0.15687 0.4309 0.75928 0.0
C817 C 0.16069 0.4564 0.74415 0.0
C818 C 0.14627 0.47845 0.75706 0.0
C819 C 0.12844 0.47575 0.78399 0.0
C820 C 0.11565 0.50273 0.79326 0.0
C821 C 0.08461 0.5019 0.7883 0.0
C822 C 0.12318 0.51105 0.82972 0.0
C823 C 0.12914 0.52104 0.76738 0.0
C824 C 0.14667 0.50665 0.74668 0.0
C825 C 0.16138 0.51919 0.72082 0.0
C826 C 0.15802 0.54722 0.71594 0.0
C827 C 0.14015 0.56237 0.7369 0.0
C828 C 0.12561 0.54899 0.76295 0.0
H829 H 0.44632 0.15184 0.72879 0.0
H830 H 0.42704 0.06579 0.73294 0.0
H831 H 0.47235 0.05636 0.75701 0.0
H832 H 0.5141 0.1437 0.70197 0.0
H833 H 0.5276 0.17153 0.72651 0.0
H834 H 0.49266 0.17214 0.71283 0.0
H835 H 0.47685 0.17829 0.77513 0.0
H836 H 0.51179 0.17782 0.78902 0.0
H837 H 0.48767 0.15424 0.80692 0.0
H838 H 0.52023 0.05563 0.77684 0.0
H839 H 0.56836 0.06354 0.79108 0.0
H840 H 0.55742 0.15002 0.77349 0.0
C841 C 0.45148 0.1311 0.73537 0.0
C842 C 0.43316 0.10955 0.72913 0.0
C843 C 0.44079 0.08261 0.73748 0.0
C844 C 0.46644 0.07705 0.75127 0.0
C845 C 0.48422 0.09864 0.75654 0.0
C846 C 0.47715 0.12514 0.74893 0.0
C847 C 0.50077 0.14432 0.75514 0.0
C848 C 0.50928 0.15876 0.72215 0.0
C849 C 0.49385 0.16488 0.78323 0.0
C850 C 0.52232 0.12435 0.7668 0.0
C851 C 0.5122 0.09817 0.76771 0.0
C852 C 0.52837 0.07606 0.77652 0.0
C853 C 0.55572 0.08078 0.78448 0.0
C854 C 0.56668 0.1074 0.78343 0.0
C855 C 0.54962 0.12947 0.77472 0.0
H856 H 0.66639 0.03306 0.81507 0.0
H857 H 0.69666 0.08335 0.73289 0.0
H858 H 0.70397 0.04228 0.6979 0.0
H859 H 0.71008 0.97235 0.79927 0.0
H860 H 0.68268 0.94934 0.80924 0.0
H861 H 0.68449 0.98204 0.82976 0.0
H862 H 0.63557 0.99289 0.80918 0.0
H863 H 0.63369 0.96044 0.78836 0.0
H864 H 0.62787 0.99114 0.76447 0.0
H865 H 0.70334 0.99648 0.66991 0.0
H866 H 0.69365 0.94975 0.65048 0.0
H867 H 0.66177 0.92995 0.75029 0.0
C868 C 0.67543 0.03533 0.79015 0.0
C869 C 0.68135 0.06127 0.77679 0.0
C870 C 0.69223 0.06357 0.74363 0.0
C871 C 0.69651 0.04038 0.72364 0.0
C872 C 0.68967 0.01512 0.73718 0.0
C873 C 0.67939 0.01246 0.76971 0.0
C874 C 0.67075 0.98351 0.7769 0.0
C875 C 0.68804 0.97108 0.80549 0.0
C876 C 0.64016 0.98192 0.7852 0.0
C877 C 0.67707 0.97045 0.74304 0.0
C878 C 0.68842 0.98888 0.72067 0.0
C879 C 0.69477 0.98178 0.68734 0.0
C880 C 0.68915 0.95521 0.67652 0.0
C881 C 0.67695 0.93622 0.69886 0.0
C882 C 0.67119 0.94397 0.73264 0.0
H883 H 0.96102 0.64099 0.8185 0.0
H884 H 0.91523 0.69701 0.75535 0.0
H885 H 0.95748 0.70948 0.72507 0.0
H886 H 0.02409 0.68107 0.82366 0.0
H887 H 0.04534 0.65127 0.82122 0.0
H888 H 0.01207 0.64911 0.84029 0.0
H889 H -0.00069 0.6103 0.79871 0.0
H890 H 0.03243 0.61242 0.77946 0.0
H891 H 0.00235 0.61586 0.75362 0.0
H892 H 0.00418 0.7134 0.69914 0.0
H893 H 0.05143 0.70765 0.67878 0.0
H894 H 0.06591 0.64822 0.75828 0.0
C895 C 0.95994 0.65629 0.79878 0.0
C896 C 0.9349 0.66817 0.78941 0.0
C897 C 0.93425 0.68771 0.76299 0.0
C898 C 0.95813 0.69498 0.74573 0.0
C899 C 0.98242 0.68249 0.75519 0.0
C900 C 0.98349 0.66358 0.78113 0.0
C901 C 0.0117 0.65165 0.78476 0.0
C902 C 0.02403 0.65871 0.81955 0.0
C903 C 0.01141 0.62074 0.77876 0.0
C904 C 0.02623 0.66642 0.7564 0.0
C905 C 0.00913 0.68436 0.73988 0.0
C906 C 0.01783 0.69958 0.71206 0.0
C907 C 0.04468 0.69617 0.70067 0.0
C908 C 0.06234 0.6775 0.71692 0.0
C909 C 0.05295 0.66271 0.74534 0.0
H910 H 0.32633 0.07369 0.74024 0.0
H911 H 0.31434 0.04649 0.63646 0.0
H912 H 0.30523 2e-05 0.65737 0.0
H913 H 0.36331 0.01905 0.76636 0.0
H914 H 0.34959 0.01739 0.80876 0.0
H915 H 0.35009 0.04922 0.78642 0.0
H916 H 0.298 0.05424 0.79477 0.0
H917 H 0.29734 0.02243 0.81749 0.0
H918 H 0.27565 0.02733 0.78108 0.0
H919 H 0.30429 0.95557 0.68887 0.0
H920 H 0.31079 0.91706 0.72826 0.0
H921 H 0.32351 0.97372 0.81122 0.0
C922 C 0.32101 0.05818 0.7219 0.0
C923 C 0.32097 0.06375 0.68671 0.0
C924 C 0.31434 0.04274 0.66356 0.0
C925 C 0.3091 0.01629 0.67521 0.0
C926 C 0.3103 0.01131 0.71005 0.0
C927 C 0.31583 0.03177 0.73307 0.0
C928 C 0.31869 0.02078 0.76876 0.0
C929 C 0.3471 0.02697 0.7834 0.0
C930 C 0.29607 0.03185 0.79189 0.0
C931 C 0.31501 0.99076 0.76211 0.0
C932 C 0.30979 0.9857 0.72819 0.0
C933 C 0.30784 0.95932 0.71558 0.0
C934 C 0.31166 0.93758 0.73814 0.0
C935 C 0.31754 0.94239 0.77286 0.0
C936 C 0.31866 0.96935 0.78496 0.0
H937 H 0.07152 0.32525 0.71751 0.0
H938 H 0.06168 0.31732 0.82663 0.0
H939 H 0.0124 0.31018 0.81885 0.0
H940 H 0.01323 0.36281 0.7027 0.0
H941 H 0.00463 0.34688 0.6629 0.0
H942 H 0.03951 0.34804 0.67662 0.0
H943 H 0.04281 0.29562 0.67152 0.0
H944 H 0.00788 0.29431 0.65762 0.0
H945 H 0.01865 0.27458 0.69378 0.0
H946 H 0.96369 0.31011 0.79992 0.0
H947 H 0.91938 0.31476 0.77072 0.0
H948 H 0.96114 0.32075 0.67392 0.0
C949 C 0.05911 0.32146 0.73973 0.0
C950 C 0.07047 0.32185 0.77267 0.0
C951 C 0.05347 0.31702 0.80111 0.0
C952 C 0.02544 0.31291 0.79697 0.0
C953 C 0.01478 0.3133 0.7642 0.0
C954 C 0.03113 0.3171 0.73603 0.0
C955 C 0.01442 0.31822 0.70377 0.0
C956 C 0.01817 0.34562 0.68544 0.0
C957 C 0.02135 0.29425 0.68029 0.0
C958 C 0.98606 0.31545 0.71832 0.0
C959 C 0.98668 0.31247 0.7532 0.0
C960 C 0.96292 0.31185 0.77254 0.0
C961 C 0.93788 0.3146 0.75578 0.0
C962 C 0.93685 0.31777 0.72007 0.0
C963 C 0.96126 0.31773 0.70117 0.0
H964 H 0.36409 0.03705 0.33329 0.0
H965 H 0.30638 0.072 0.26214 0.0
H966 H 0.29409 0.02589 0.24261 0.0
H967 H 0.38956 0.98849 0.27964 0.0
H968 H 0.39377 0.96237 0.31131 0.0
H969 H 0.39478 0.99754 0.32353 0.0
H970 H 0.35604 0.98931 0.367 0.0
H971 H 0.35501 0.95397 0.35505 0.0
H972 H 0.32452 0.97428 0.353 0.0
H973 H 0.29277 0.97673 0.22558 0.0
H974 H 0.30188 0.92843 0.21308 0.0
H975 H 0.3603 0.92579 0.2957 0.0
C976 C 0.34835 0.03504 0.3142 0.0
C977 C 0.33615 0.05814 0.29929 0.0
C978 C 0.31592 0.0546 0.27405 0.0
C979 C 0.30876 0.02848 0.26285 0.0
C980 C 0.32183 0.00617 0.27738 0.0
C981 C 0.34101 0.0092 0.30276 0.0
C982 C 0.35382 0.98225 0.31217 0.0
C983 C 0.3848 0.98271 0.30629 0.0
C984 C 0.34692 0.9745 0.34899 0.0
C985 C 0.33963 0.96371 0.28719 0.0
C986 C 0.32099 0.9778 0.26765 0.0
C987 C 0.30693 0.96539 0.24114 0.0
C988 C 0.31232 0.93796 0.23417 0.0
C989 C 0.33169 0.92329 0.25355 0.0
C990 C 0.34508 0.9363 0.28077 0.0
H991 H 0.95009 0.39975 0.25016 0.0
H992 H 0.93852 0.31391 0.27113 0.0
H993 H 0.9849 0.30447 0.24979 0.0
H994 H 0.99059 0.39114 0.17255 0.0
H995 H 0.01199 0.41984 0.1823 0.0
H996 H 0.97716 0.41929 0.19657 0.0
H997 H 0.99333 0.42689 0.25852 0.0
H998 H 0.02816 0.42735 0.24449 0.0
H999 H 0.01765 0.40374 0.27693 0.0
H1000 H 0.03417 0.30525 0.23121 0.0
H1001 H 0.0816 0.31601 0.21494 0.0
H1002 H 0.05979 0.40112 0.20503 0.0
C1003 C 0.95711 0.37889 0.24986 0.0
C1004 C 0.94071 0.35756 0.26232 0.0
C1005 C 0.95072 0.33057 0.26157 0.0
C1006 C 0.97702 0.325 0.24951 0.0
C1007 C 0.99285 0.34663 0.23797 0.0
C1008 C 0.98315 0.37299 0.23776 0.0
C1009 C 0.0045 0.39279 0.22544 0.0
C1010 C 0.99552 0.40657 0.19224 0.0
C1011 C 0.01131 0.41392 0.25299 0.0
C1012 C 0.02799 0.37355 0.21951 0.0
C1013 C 0.02091 0.34699 0.22674 0.0
C1014 C 0.03983 0.32591 0.22501 0.0
C1015 C 0.06671 0.33222 0.21585 0.0
C1016 C 0.07431 0.35936 0.2085 0.0
C1017 C 0.05454 0.38012 0.21001 0.0
H1018 H 0.61935 0.95295 0.30786 0.0
H1019 H 0.68566 0.91917 0.24844 0.0
H1020 H 0.69797 0.96537 0.22913 0.0
H1021 H 0.59912 0.0027 0.2485 0.0
H1022 H 0.5911 0.02803 0.28001 0.0
H1023 H 0.58856 0.99252 0.29047 0.0
H1024 H 0.62139 -0.00037 0.34125 0.0
H1025 H 0.62405 0.0352 0.33092 0.0
H1026 H 0.65434 0.01468 0.33401 0.0
H1027 H 0.70102 0.01497 0.21346 0.0
H1028 H 0.69507 0.06421 0.20348 0.0
H1029 H 0.62753 0.06515 0.27453 0.0
C1030 C 0.63661 0.95522 0.29099 0.0
C1031 C 0.65154 0.93246 0.27962 0.0
C1032 C 0.67395 0.93634 0.25751 0.0
C1033 C 0.68112 0.96249 0.24644 0.0
C1034 C 0.6658 0.98447 0.25796 0.0
C1035 C 0.6441 0.9811 0.27988 0.0
C1036 C 0.63041 0.00789 0.28775 0.0
C1037 C 0.60054 0.00777 0.27597 0.0
C1038 C 0.6327 0.01475 0.32574 0.0
C1039 C 0.64753 0.02686 0.26642 0.0
C1040 C 0.66787 0.01301 0.24946 0.0
C1041 C 0.68537 0.02608 0.22692 0.0
C1042 C 0.68181 0.05402 0.22138 0.0
C1043 C 0.66099 0.06852 0.23844 0.0
C1044 C 0.6439 0.05472 0.26151 0.0
H1045 H 0.04624 0.66879 0.28218 0.0
H1046 H 0.08753 0.65759 0.18567 0.0
H1047 H 0.04321 0.65693 0.15637 0.0
H1048 H 0.99204 0.62446 0.26606 0.0
H1049 H 0.9665 0.64469 0.28705 0.0
H1050 H 0.00149 0.64692 0.30024 0.0
H1051 H 0.00074 0.69897 0.29034 0.0
H1052 H 0.96567 0.69691 0.27714 0.0
H1053 H 0.99064 0.71212 0.2495 0.0
H1054 H 0.99493 0.65295 0.13823 0.0
H1055 H 0.94537 0.64689 0.13209 0.0
H1056 H 0.93478 0.66194 0.23985 0.0
C1057 C 0.046 0.66664 0.25482 0.0
C1058 C 0.0704 0.66329 0.23621 0.0
C1059 C 0.06915 0.66025 0.20048 0.0
C1060 C 0.04407 0.65991 0.18357 0.0
C1061 C 0.02041 0.66286 0.2027 0.0
C1062 C 0.02111 0.66635 0.23749 0.0
C1063 C 0.9926 0.66764 0.25219 0.0
C1064 C 0.98789 0.64455 0.27789 0.0
C1065 C 0.98709 0.69558 0.26824 0.0
C1066 C 0.9758 0.6636 0.22031 0.0
C1067 C 0.99231 0.66104 0.19205 0.0
C1068 C 0.98175 0.65534 0.16005 0.0
C1069 C 0.9536 0.65184 0.15684 0.0
C1070 C 0.93628 0.65418 0.18543 0.0
C1071 C 0.94751 0.66058 0.21747 0.0
loop_
_geom_bond_atom_site_label_1
_geom_bond_atom_site_label_2
_geom_bond_distance
_geom_bond_site_symmetry_2
_ccdc_geom_bond_type
C0 O1 1.160 . S
C0 O7 1.185 . S
O1 C0 1.160 . S
O2 Zn3 1.899 . S
O2 C10 1.284 . S
Zn3 O2 1.899 . S
Zn3 O4 2.032 . S
Zn3 O7 2.086 . S
Zn3 O12 1.977 . S
O4 Zn3 2.032 . S
O4 C8 1.278 . S
C5 O6 1.203 . S
C5 O12 1.267 . S
O6 C5 1.203 . S
O7 C0 1.185 . S
O7 Zn3 2.086 . S
C8 O4 1.278 . S
C8 O9 1.211 . S
O9 C8 1.211 . S
C10 O2 1.284 . S
C10 O11 1.273 . S
O11 C10 1.273 . S
O12 Zn3 1.977 . S
O12 C5 1.267 . S
C13 O14 1.160 . S
C13 O20 1.185 . S
O14 C13 1.160 . S
O15 Zn16 1.899 . S
O15 C23 1.284 . S
Zn16 O15 1.899 . S
Zn16 O17 2.032 . S
Zn16 O20 2.086 . S
Zn16 O25 1.977 . S
O17 Zn16 2.032 . S
O17 C21 1.278 . S
C18 O19 1.203 . S
C18 O25 1.267 . S
O19 C18 1.203 . S
O20 C13 1.185 . S
O20 Zn16 2.086 . S
C21 O17 1.278 . S
C21 O22 1.211 . S
O22 C21 1.211 . S
C23 O15 1.284 . S
C23 O24 1.273 . S
O24 C23 1.273 . S
O25 Zn16 1.977 . S
O25 C18 1.267 . S
C26 O27 1.160 . S
C26 O33 1.185 . S
O27 C26 1.160 . S
O28 Zn29 1.899 . S
O28 C36 1.284 . S
Zn29 O28 1.899 . S
Zn29 O30 2.032 . S
Zn29 O33 2.086 . S
Zn29 O38 1.977 . S
O30 Zn29 2.032 . S
O30 C34 1.278 . S
C31 O32 1.203 . S
C31 O38 1.267 . S
O32 C31 1.203 . S
O33 C26 1.185 . S
O33 Zn29 2.086 . S
C34 O30 1.278 . S
C34 O35 1.211 . S
O35 C34 1.211 . S
C36 O28 1.284 . S
C36 O37 1.273 . S
O37 C36 1.273 . S
O38 Zn29 1.977 . S
O38 C31 1.267 . S
C39 O40 1.160 . S
C39 O46 1.185 . S
O40 C39 1.160 . S
O41 Zn42 1.899 . S
O41 C49 1.284 . S
Zn42 O41 1.899 . S
Zn42 O43 2.032 . S
Zn42 O46 2.086 . S
Zn42 O51 1.977 . S
O43 Zn42 2.032 . S
O43 C47 1.278 . S
C44 O45 1.203 . S
C44 O51 1.267 . S
O45 C44 1.203 . S
O46 C39 1.185 . S
O46 Zn42 2.086 . S
C47 O43 1.278 . S
C47 O48 1.211 . S
O48 C47 1.211 . S
C49 O41 1.284 . S
C49 O50 1.273 . S
O50 C49 1.273 . S
O51 Zn42 1.977 . S
O51 C44 1.267 . S
C52 O53 1.160 . S
C52 O59 1.185 . S
O53 C52 1.160 . S
O54 Zn55 1.899 . S
O54 C62 1.284 . S
Zn55 O54 1.899 . S
Zn55 O56 2.032 . S
Zn55 O59 2.086 . S
Zn55 O64 1.977 . S
O56 Zn55 2.032 . S
O56 C60 1.278 . S
C57 O58 1.203 . S
C57 O64 1.267 . S
O58 C57 1.203 . S
O59 C52 1.185 . S
O59 Zn55 2.086 . S
C60 O56 1.278 . S
C60 O61 1.211 . S
O61 C60 1.211 . S
C62 O54 1.284 . S
C62 O63 1.273 . S
O63 C62 1.273 . S
O64 Zn55 1.977 . S
O64 C57 1.267 . S
C65 O66 1.160 . S
C65 O72 1.185 . S
O66 C65 1.160 . S
O67 Zn68 1.899 . S
O67 C75 1.284 . S
Zn68 O67 1.899 . S
Zn68 O69 2.032 . S
Zn68 O72 2.086 . S
Zn68 O77 1.977 . S
O69 Zn68 2.032 . S
O69 C73 1.278 . S
C70 O71 1.203 . S
C70 O77 1.267 . S
O71 C70 1.203 . S
O72 C65 1.185 . S
O72 Zn68 2.086 . S
C73 O69 1.278 . S
C73 O74 1.211 . S
O74 C73 1.211 . S
C75 O67 1.284 . S
C75 O76 1.273 . S
O76 C75 1.273 . S
O77 Zn68 1.977 . S
O77 C70 1.267 . S
C78 O79 1.160 . S
C78 O85 1.185 . S
O79 C78 1.160 . S
O80 Zn81 1.899 . S
O80 C88 1.284 . S
Zn81 O80 1.899 . S
Zn81 O82 2.032 . S
Zn81 O85 2.086 . S
Zn81 O90 1.977 . S
O82 Zn81 2.032 . S
O82 C86 1.278 . S
C83 O84 1.203 . S
C83 O90 1.267 . S
O84 C83 1.203 . S
O85 C78 1.185 . S
O85 Zn81 2.086 . S
C86 O82 1.278 . S
C86 O87 1.211 . S
O87 C86 1.211 . S
C88 O80 1.284 . S
C88 O89 1.273 . S
O89 C88 1.273 . S
O90 Zn81 1.977 . S
O90 C83 1.267 . S
C91 O92 1.160 . S
C91 O98 1.185 . S
O92 C91 1.160 . S
O93 Zn94 1.899 . S
O93 C101 1.284 . S
Zn94 O93 1.899 . S
Zn94 O95 2.032 . S
Zn94 O98 2.086 . S
Zn94 O103 1.977 . S
O95 Zn94 2.032 . S
O95 C99 1.278 . S
C96 O97 1.203 . S
C96 O103 1.267 . S
O97 C96 1.203 . S
O98 C91 1.185 . S
O98 Zn94 2.086 . S
C99 O95 1.278 . S
C99 O100 1.211 . S
O100 C99 1.211 . S
C101 O93 1.284 . S
C101 O102 1.273 . S
O102 C101 1.273 . S
O103 Zn94 1.977 . S
O103 C96 1.267 . S
C104 O105 1.160 . S
C104 O111 1.185 . S
O105 C104 1.160 . S
O106 Zn107 1.899 . S
O106 C114 1.284 . S
Zn107 O106 1.899 . S
Zn107 O108 2.032 . S
Zn107 O111 2.086 . S
Zn107 O116 1.977 . S
O108 Zn107 2.032 . S
O108 C112 1.278 . S
C109 O110 1.203 . S
C109 O116 1.267 . S
O110 C109 1.203 . S
O111 C104 1.185 . S
O111 Zn107 2.086 . S
C112 O108 1.278 . S
C112 O113 1.211 . S
O113 C112 1.211 . S
C114 O106 1.284 . S
C114 O115 1.273 . S
O115 C114 1.273 . S
O116 Zn107 1.977 . S
O116 C109 1.267 . S
C117 O118 1.160 . S
C117 O124 1.185 . S
O118 C117 1.160 . S
O119 Zn120 1.899 . S
O119 C127 1.284 . S
Zn120 O119 1.899 . S
Zn120 O121 2.032 . S
Zn120 O124 2.086 . S
Zn120 O129 1.977 . S
O121 Zn120 2.032 . S
O121 C125 1.278 . S
C122 O123 1.203 . S
C122 O129 1.267 . S
O123 C122 1.203 . S
O124 C117 1.185 . S
O124 Zn120 2.086 . S
C125 O121 1.278 . S
C125 O126 1.211 . S
O126 C125 1.211 . S
C127 O119 1.284 . S
C127 O128 1.273 . S
O128 C127 1.273 . S
O129 Zn120 1.977 . S
O129 C122 1.267 . S
C130 O131 1.160 . S
C130 O137 1.185 . S
O131 C130 1.160 . S
O132 Zn133 1.899 . S
O132 C140 1.284 . S
Zn133 O132 1.899 . S
Zn133 O134 2.032 . S
Zn133 O137 2.086 . S
Zn133 O142 1.977 . S
O134 Zn133 2.032 . S
O134 C138 1.278 . S
C135 O136 1.203 . S
C135 O142 1.267 . S
O136 C135 1.203 . S
O137 C130 1.185 . S
O137 Zn133 2.086 . S
C138 O134 1.278 . S
C138 O139 1.211 . S
O139 C138 1.211 . S
C140 O132 1.284 . S
C140 O141 1.273 . S
O141 C140 1.273 . S
O142 Zn133 1.977 . S
O142 C135 1.267 . S
C143 O144 1.160 . S
C143 O150 1.185 . S
O144 C143 1.160 . S
O145 Zn146 1.899 . S
O145 C153 1.284 . S
Zn146 O145 1.899 . S
Zn146 O147 2.032 . S
Zn146 O150 2.086 . S
Zn146 O155 1.977 . S
O147 Zn146 2.032 . S
O147 C151 1.278 . S
C148 O149 1.203 . S
C148 O155 1.267 . S
O149 C148 1.203 . S
O150 C143 1.185 . S
O150 Zn146 2.086 . S
C151 O147 1.278 . S
C151 O152 1.211 . S
O152 C151 1.211 . S
C153 O145 1.284 . S
C153 O154 1.273 . S
O154 C153 1.273 . S
O155 Zn146 1.977 . S
O155 C148 1.267 . S
C156 O157 1.160 . S
C156 O163 1.185 . S
O157 C156 1.160 . S
O158 Zn159 1.899 . S
O158 C166 1.284 . S
Zn159 O158 1.899 . S
Zn159 O160 2.032 . S
Zn159 O163 2.086 . S
Zn159 O168 1.977 . S
O160 Zn159 2.032 . S
O160 C164 1.278 . S
C161 O162 1.203 . S
C161 O168 1.267 . S
O162 C161 1.203 . S
O163 C156 1.185 . S
O163 Zn159 2.086 . S
C164 O160 1.278 . S
C164 O165 1.211 . S
O165 C164 1.211 . S
C166 O158 1.284 . S
C166 O167 1.273 . S
O167 C166 1.273 . S
O168 Zn159 1.977 . S
O168 C161 1.267 . S
C169 O170 1.160 . S
C169 O176 1.185 . S
O170 C169 1.160 . S
O171 Zn172 1.899 . S
O171 C179 1.284 . S
Zn172 O171 1.899 . S
Zn172 O173 2.032 . S
Zn172 O176 2.086 . S
Zn172 O181 1.977 . S
O173 Zn172 2.032 . S
O173 C177 1.278 . S
C174 O175 1.203 . S
C174 O181 1.267 . S
O175 C174 1.203 . S
O176 C169 1.185 . S
O176 Zn172 2.086 . S
C177 O173 1.278 . S
C177 O178 1.211 . S
O178 C177 1.211 . S
C179 O171 1.284 . S
C179 O180 1.273 . S
O180 C179 1.273 . S
O181 Zn172 1.977 . S
O181 C174 1.267 . S
C182 O183 1.160 . S
C182 O189 1.185 . S
O183 C182 1.160 . S
O184 Zn185 1.899 . S
O184 C192 1.284 . S
Zn185 O184 1.899 . S
Zn185 O186 2.032 . S
Zn185 O189 2.086 . S
Zn185 O194 1.977 . S
O186 Zn185 2.032 . S
O186 C190 1.278 . S
C187 O188 1.203 . S
C187 O194 1.267 . S
O188 C187 1.203 . S
O189 C182 1.185 . S
O189 Zn185 2.086 . S
C190 O186 1.278 . S
C190 O191 1.211 . S
O191 C190 1.211 . S
C192 O184 1.284 . S
C192 O193 1.273 . S
O193 C192 1.273 . S
O194 Zn185 1.977 . S
O194 C187 1.267 . S
C195 O196 1.160 . S
C195 O202 1.185 . S
O196 C195 1.160 . S
O197 Zn198 1.899 . S
O197 C205 1.284 . S
Zn198 O197 1.899 . S
Zn198 O199 2.032 . S
Zn198 O202 2.086 . S
Zn198 O207 1.977 . S
O199 Zn198 2.032 . S
O199 C203 1.278 . S
C200 O201 1.203 . S
C200 O207 1.267 . S
O201 C200 1.203 . S
O202 C195 1.185 . S
O202 Zn198 2.086 . S
C203 O199 1.278 . S
C203 O204 1.211 . S
O204 C203 1.211 . S
C205 O197 1.284 . S
C205 O206 1.273 . S
O206 C205 1.273 . S
O207 Zn198 1.977 . S
O207 C200 1.267 . S
H208 C220 0.930 . S
H209 C222 0.930 . S
H210 C223 0.930 . S
H211 C227 0.959 . S
H212 C227 0.959 . S
H213 C227 0.961 . S
H214 C228 0.960 . S
H215 C228 0.961 . S
H216 C228 0.959 . S
H217 C231 0.929 . S
H218 C232 0.931 . S
H219 C234 0.930 . S
C220 H208 0.930 . S
C220 C221 1.399 . S
C220 C225 1.399 . S
C221 C220 1.399 . S
C221 C222 1.376 . S
C222 H209 0.930 . S
C222 C221 1.376 . S
C222 C223 1.388 . S
C223 H210 0.930 . S
C223 C222 1.388 . S
C223 C224 1.390 . S
C224 C223 1.390 . S
C224 C225 1.394 . S
C224 C230 1.465 . S
C225 C220 1.399 . S
C225 C224 1.394 . S
C225 C226 1.516 . S
C226 C225 1.516 . S
C226 C227 1.502 . S
C226 C228 1.561 . S
C226 C229 1.526 . S
C227 H211 0.959 . S
C227 H212 0.959 . S
C227 H213 0.961 . S
C227 C226 1.502 . S
C228 H214 0.960 . S
C228 H215 0.961 . S
C228 H216 0.959 . S
C228 C226 1.561 . S
C229 C226 1.526 . S
C229 C230 1.396 . S
C229 C234 1.390 . S
C230 C224 1.465 . S
C230 C229 1.396 . S
C230 C231 1.399 . S
C231 H217 0.929 . S
C231 C230 1.399 . S
C231 C232 1.385 . S
C232 H218 0.931 . S
C232 C231 1.385 . S
C232 C233 1.389 . S
C233 C232 1.389 . S
C233 C234 1.387 . S
C234 H219 0.930 . S
C234 C229 1.390 . S
C234 C233 1.387 . S
H235 C247 0.930 . S
H236 C249 0.930 . S
H237 C250 0.930 . S
H238 C254 0.959 . S
H239 C254 0.959 . S
H240 C254 0.961 . S
H241 C255 0.960 . S
H242 C255 0.961 . S
H243 C255 0.959 . S
H244 C258 0.929 . S
H245 C259 0.931 . S
H246 C261 0.930 . S
C247 H235 0.930 . S
C247 C248 1.399 . S
C247 C252 1.399 . S
C248 C247 1.399 . S
C248 C249 1.376 . S
C249 H236 0.930 . S
C249 C248 1.376 . S
C249 C250 1.388 . S
C250 H237 0.930 . S
C250 C249 1.388 . S
C250 C251 1.390 . S
C251 C250 1.390 . S
C251 C252 1.394 . S
C251 C257 1.465 . S
C252 C247 1.399 . S
C252 C251 1.394 . S
C252 C253 1.516 . S
C253 C252 1.516 . S
C253 C254 1.502 . S
C253 C255 1.561 . S
C253 C256 1.526 . S
C254 H238 0.959 . S
C254 H239 0.959 . S
C254 H240 0.961 . S
C254 C253 1.502 . S
C255 H241 0.960 . S
C255 H242 0.961 . S
C255 H243 0.959 . S
C255 C253 1.561 . S
C256 C253 1.526 . S
C256 C257 1.396 . S
C256 C261 1.390 . S
C257 C251 1.465 . S
C257 C256 1.396 . S
C257 C258 1.399 . S
C258 H244 0.929 . S
C258 C257 1.399 . S
C258 C259 1.385 . S
C259 H245 0.931 . S
C259 C258 1.385 . S
C259 C260 1.389 . S
C260 C259 1.389 . S
C260 C261 1.387 . S
C261 H246 0.930 . S
C261 C256 1.390 . S
C261 C260 1.387 . S
H262 C274 0.930 . S
H263 C276 0.930 . S
H264 C277 0.930 . S
H265 C281 0.959 . S
H266 C281 0.959 . S
H267 C281 0.961 . S
H268 C282 0.960 . S
H269 C282 0.961 . S
H270 C282 0.959 . S
H271 C285 0.929 . S
H272 C286 0.931 . S
H273 C288 0.930 . S
C274 H262 0.930 . S
C274 C275 1.399 . S
C274 C279 1.399 . S
C275 C274 1.399 . S
C275 C276 1.376 . S
C276 H263 0.930 . S
C276 C275 1.376 . S
C276 C277 1.388 . S
C277 H264 0.930 . S
C277 C276 1.388 . S
C277 C278 1.390 . S
C278 C277 1.390 . S
C278 C279 1.394 . S
C278 C284 1.465 . S
C279 C274 1.399 . S
C279 C278 1.394 . S
C279 C280 1.516 . S
C280 C279 1.516 . S
C280 C281 1.502 . S
C280 C282 1.561 . S
C280 C283 1.526 . S
C281 H265 0.959 . S
C281 H266 0.959 . S
C281 H267 0.961 . S
C281 C280 1.502 . S
C282 H268 0.960 . S
C282 H269 0.961 . S
C282 H270 0.959 . S
C282 C280 1.561 . S
C283 C280 1.526 . S
C283 C284 1.396 . S
C283 C288 1.390 . S
C284 C278 1.465 . S
C284 C283 1.396 . S
C284 C285 1.399 . S
C285 H271 0.929 . S
C285 C284 1.399 . S
C285 C286 1.385 . S
C286 H272 0.931 . S
C286 C285 1.385 . S
C286 C287 1.389 . S
C287 C286 1.389 . S
C287 C288 1.387 . S
C288 H273 0.930 . S
C288 C283 1.390 . S
C288 C287 1.387 . S
H289 C301 0.930 . S
H290 C303 0.930 . S
H291 C304 0.930 . S
H292 C308 0.959 . S
H293 C308 0.959 . S
H294 C308 0.961 . S
H295 C309 0.960 . S
H296 C309 0.961 . S
H297 C309 0.959 . S
H298 C312 0.929 . S
H299 C313 0.931 . S
H300 C315 0.930 . S
C301 H289 0.930 . S
C301 C302 1.399 . S
C301 C306 1.399 . S
C302 C301 1.399 . S
C302 C303 1.376 . S
C303 H290 0.930 . S
C303 C302 1.376 . S
C303 C304 1.388 . S
C304 H291 0.930 . S
C304 C303 1.388 . S
C304 C305 1.390 . S
C305 C304 1.390 . S
C305 C306 1.394 . S
C305 C311 1.465 . S
C306 C301 1.399 . S
C306 C305 1.394 . S
C306 C307 1.516 . S
C307 C306 1.516 . S
C307 C308 1.502 . S
C307 C309 1.561 . S
C307 C310 1.526 . S
C308 H292 0.959 . S
C308 H293 0.959 . S
C308 H294 0.961 . S
C308 C307 1.502 . S
C309 H295 0.960 . S
C309 H296 0.961 . S
C309 H297 0.959 . S
C309 C307 1.561 . S
C310 C307 1.526 . S
C310 C311 1.396 . S
C310 C315 1.390 . S
C311 C305 1.465 . S
C311 C310 1.396 . S
C311 C312 1.399 . S
C312 H298 0.929 . S
C312 C311 1.399 . S
C312 C313 1.385 . S
C313 H299 0.931 . S
C313 C312 1.385 . S
C313 C314 1.389 . S
C314 C313 1.389 . S
C314 C315 1.387 . S
C315 H300 0.930 . S
C315 C310 1.390 . S
C315 C314 1.387 . S
H316 C328 0.930 . S
H317 C330 0.930 . S
H318 C331 0.930 . S
H319 C335 0.959 . S
H320 C335 0.959 . S
H321 C335 0.961 . S
H322 C336 0.960 . S
H323 C336 0.961 . S
H324 C336 0.959 . S
H325 C339 0.929 . S
H326 C340 0.931 . S
H327 C342 0.930 . S
C328 H316 0.930 . S
C328 C329 1.399 . S
C328 C333 1.399 . S
C329 C328 1.399 . S
C329 C330 1.376 . S
C330 H317 0.930 . S
C330 C329 1.376 . S
C330 C331 1.388 . S
C331 H318 0.930 . S
C331 C330 1.388 . S
C331 C332 1.390 . S
C332 C331 1.390 . S
C332 C333 1.394 . S
C332 C338 1.465 . S
C333 C328 1.399 . S
C333 C332 1.394 . S
C333 C334 1.516 . S
C334 C333 1.516 . S
C334 C335 1.502 . S
C334 C336 1.561 . S
C334 C337 1.526 . S
C335 H319 0.959 . S
C335 H320 0.959 . S
C335 H321 0.961 . S
C335 C334 1.502 . S
C336 H322 0.960 . S
C336 H323 0.961 . S
C336 H324 0.959 . S
C336 C334 1.561 . S
C337 C334 1.526 . S
C337 C338 1.396 . S
C337 C342 1.390 . S
C338 C332 1.465 . S
C338 C337 1.396 . S
C338 C339 1.399 . S
C339 H325 0.929 . S
C339 C338 1.399 . S
C339 C340 1.385 . S
C340 H326 0.931 . S
C340 C339 1.385 . S
C340 C341 1.389 . S
C341 C340 1.389 . S
C341 C342 1.387 . S
C342 H327 0.930 . S
C342 C337 1.390 . S
C342 C341 1.387 . S
H343 C355 0.930 . S
H344 C357 0.930 . S
H345 C358 0.930 . S
H346 C362 0.959 . S
H347 C362 0.959 . S
H348 C362 0.961 . S
H349 C363 0.960 . S
H350 C363 0.961 . S
H351 C363 0.959 . S
H352 C366 0.929 . S
H353 C367 0.931 . S
H354 C369 0.930 . S
C355 H343 0.930 . S
C355 C356 1.399 . S
C355 C360 1.399 . S
C356 C355 1.399 . S
C356 C357 1.376 . S
C357 H344 0.930 . S
C357 C356 1.376 . S
C357 C358 1.388 . S
C358 H345 0.930 . S
C358 C357 1.388 . S
C358 C359 1.390 . S
C359 C358 1.390 . S
C359 C360 1.394 . S
C359 C365 1.465 . S
C360 C355 1.399 . S
C360 C359 1.394 . S
C360 C361 1.516 . S
C361 C360 1.516 . S
C361 C362 1.502 . S
C361 C363 1.561 . S
C361 C364 1.526 . S
C362 H346 0.959 . S
C362 H347 0.959 . S
C362 H348 0.961 . S
C362 C361 1.502 . S
C363 H349 0.960 . S
C363 H350 0.961 . S
C363 H351 0.959 . S
C363 C361 1.561 . S
C364 C361 1.526 . S
C364 C365 1.396 . S
C364 C369 1.390 . S
C365 C359 1.465 . S
C365 C364 1.396 . S
C365 C366 1.399 . S
C366 H352 0.929 . S
C366 C365 1.399 . S
C366 C367 1.385 . S
C367 H353 0.931 . S
C367 C366 1.385 . S
C367 C368 1.389 . S
C368 C367 1.389 . S
C368 C369 1.387 . S
C369 H354 0.930 . S
C369 C364 1.390 . S
C369 C368 1.387 . S
H370 C382 0.930 . S
H371 C384 0.930 . S
H372 C385 0.930 . S
H373 C389 0.959 . S
H374 C389 0.959 . S
H375 C389 0.961 . S
H376 C390 0.960 . S
H377 C390 0.961 . S
H378 C390 0.959 . S
H379 C393 0.929 . S
H380 C394 0.931 . S
H381 C396 0.930 . S
C382 H370 0.930 . S
C382 C383 1.399 . S
C382 C387 1.399 . S
C383 C382 1.399 . S
C383 C384 1.376 . S
C384 H371 0.930 . S
C384 C383 1.376 . S
C384 C385 1.388 . S
C385 H372 0.930 . S
C385 C384 1.388 . S
C385 C386 1.390 . S
C386 C385 1.390 . S
C386 C387 1.394 . S
C386 C392 1.465 . S
C387 C382 1.399 . S
C387 C386 1.394 . S
C387 C388 1.516 . S
C388 C387 1.516 . S
C388 C389 1.502 . S
C388 C390 1.561 . S
C388 C391 1.526 . S
C389 H373 0.959 . S
C389 H374 0.959 . S
C389 H375 0.961 . S
C389 C388 1.502 . S
C390 H376 0.960 . S
C390 H377 0.961 . S
C390 H378 0.959 . S
C390 C388 1.561 . S
C391 C388 1.526 . S
C391 C392 1.396 . S
C391 C396 1.390 . S
C392 C386 1.465 . S
C392 C391 1.396 . S
C392 C393 1.399 . S
C393 H379 0.929 . S
C393 C392 1.399 . S
C393 C394 1.385 . S
C394 H380 0.931 . S
C394 C393 1.385 . S
C394 C395 1.389 . S
C395 C394 1.389 . S
C395 C396 1.387 . S
C396 H381 0.930 . S
C396 C391 1.390 . S
C396 C395 1.387 . S
H397 C409 0.930 . S
H398 C411 0.930 . S
H399 C412 0.930 . S
H400 C416 0.959 . S
H401 C416 0.959 . S
H402 C416 0.961 . S
H403 C417 0.960 . S
H404 C417 0.961 . S
H405 C417 0.959 . S
H406 C420 0.929 . S
H407 C421 0.931 . S
H408 C423 0.930 . S
C409 H397 0.930 . S
C409 C410 1.399 . S
C409 C414 1.399 . S
C410 C409 1.399 . S
C410 C411 1.376 . S
C411 H398 0.930 . S
C411 C410 1.376 . S
C411 C412 1.388 . S
C412 H399 0.930 . S
C412 C411 1.388 . S
C412 C413 1.390 . S
C413 C412 1.390 . S
C413 C414 1.394 . S
C413 C419 1.465 . S
C414 C409 1.399 . S
C414 C413 1.394 . S
C414 C415 1.516 . S
C415 C414 1.516 . S
C415 C416 1.502 . S
C415 C417 1.561 . S
C415 C418 1.526 . S
C416 H400 0.959 . S
C416 H401 0.959 . S
C416 H402 0.961 . S
C416 C415 1.502 . S
C417 H403 0.960 . S
C417 H404 0.961 . S
C417 H405 0.959 . S
C417 C415 1.561 . S
C418 C415 1.526 . S
C418 C419 1.396 . S
C418 C423 1.390 . S
C419 C413 1.465 . S
C419 C418 1.396 . S
C419 C420 1.399 . S
C420 H406 0.929 . S
C420 C419 1.399 . S
C420 C421 1.385 . S
C421 H407 0.931 . S
C421 C420 1.385 . S
C421 C422 1.389 . S
C422 C421 1.389 . S
C422 C423 1.387 . S
C423 H408 0.930 . S
C423 C418 1.390 . S
C423 C422 1.387 . S
H424 C436 0.930 . S
H425 C438 0.930 . S
H426 C439 0.930 . S
H427 C443 0.959 . S
H428 C443 0.959 . S
H429 C443 0.961 1_556 S
H430 C444 0.960 1_556 S
H431 C444 0.961 . S
H432 C444 0.959 . S
H433 C447 0.929 . S
H434 C448 0.931 . S
H435 C450 0.930 . S
C436 H424 0.930 . S
C436 C437 1.399 . S
C436 C441 1.399 . S
C437 C436 1.399 . S
C437 C438 1.376 . S
C438 H425 0.930 . S
C438 C437 1.376 . S
C438 C439 1.388 . S
C439 H426 0.930 . S
C439 C438 1.388 . S
C439 C440 1.390 . S
C440 C439 1.390 . S
C440 C441 1.394 . S
C440 C446 1.465 1_556 S
C441 C436 1.399 . S
C441 C440 1.394 . S
C441 C442 1.516 1_556 S
C442 C441 1.516 1_554 S
C442 C443 1.502 . S
C442 C444 1.561 . S
C442 C445 1.526 . S
C443 H427 0.959 . S
C443 H428 0.959 . S
C443 H429 0.961 1_554 S
C443 C442 1.502 . S
C444 H430 0.960 1_554 S
C444 H431 0.961 . S
C444 H432 0.959 . S
C444 C442 1.561 . S
C445 C442 1.526 . S
C445 C446 1.396 . S
C445 C450 1.390 . S
C446 C440 1.465 1_554 S
C446 C445 1.396 . S
C446 C447 1.399 . S
C447 H433 0.929 . S
C447 C446 1.399 . S
C447 C448 1.385 . S
C448 H434 0.931 . S
C448 C447 1.385 . S
C448 C449 1.389 . S
C449 C448 1.389 . S
C449 C450 1.387 . S
C450 H435 0.930 . S
C450 C445 1.390 . S
C450 C449 1.387 . S
H451 C463 0.930 . S
H452 C465 0.930 . S
H453 C466 0.930 . S
H454 C470 0.961 . S
H455 C470 0.981 . S
H456 C470 0.938 1_556 S
H457 C471 0.960 1_556 S
H458 C471 0.961 . S
H459 C471 0.959 . S
H460 C474 0.929 . S
H461 C475 0.931 . S
H462 C477 0.930 . S
C463 H451 0.930 . S
C463 C464 1.399 . S
C463 C468 1.399 . S
C464 C463 1.399 . S
C464 C465 1.376 . S
C465 H452 0.930 . S
C465 C464 1.376 . S
C465 C466 1.388 . S
C466 H453 0.930 . S
C466 C465 1.388 . S
C466 C467 1.390 . S
C467 C466 1.390 . S
C467 C468 1.394 . S
C467 C473 1.465 1_556 S
C468 C463 1.399 . S
C468 C467 1.394 . S
C468 C469 1.516 1_556 S
C469 C468 1.516 1_554 S
C469 C470 1.502 . S
C469 C471 1.561 . S
C469 C472 1.526 . S
C470 H454 0.961 . S
C470 H455 0.981 . S
C470 H456 0.938 1_554 S
C470 C469 1.502 . S
C471 H457 0.960 1_554 S
C471 H458 0.961 . S
C471 H459 0.959 . S
C471 C469 1.561 . S
C472 C469 1.526 . S
C472 C473 1.396 . S
C472 C477 1.390 . S
C473 C467 1.465 1_554 S
C473 C472 1.396 . S
C473 C474 1.399 . S
C474 H460 0.929 . S
C474 C473 1.399 . S
C474 C475 1.385 . S
C475 H461 0.931 . S
C475 C474 1.385 . S
C475 C476 1.389 . S
C476 C475 1.389 . S
C476 C477 1.387 . S
C477 H462 0.930 . S
C477 C472 1.390 . S
C477 C476 1.387 . S
H478 C490 0.930 . S
H479 C492 0.930 . S
H480 C493 0.930 . S
H481 C497 0.959 . S
H482 C497 0.959 . S
H483 C497 0.961 1_556 S
H484 C498 0.960 1_556 S
H485 C498 0.961 . S
H486 C498 0.959 . S
H487 C501 0.929 . S
H488 C502 0.931 . S
H489 C504 0.930 . S
C490 H478 0.930 . S
C490 C491 1.399 . S
C490 C495 1.399 . S
C491 C490 1.399 . S
C491 C492 1.376 . S
C492 H479 0.930 . S
C492 C491 1.376 . S
C492 C493 1.388 . S
C493 H480 0.930 . S
C493 C492 1.388 . S
C493 C494 1.390 . S
C494 C493 1.390 . S
C494 C495 1.394 . S
C494 C500 1.465 1_556 S
C495 C490 1.399 . S
C495 C494 1.394 . S
C495 C496 1.516 1_556 S
C496 C495 1.516 1_554 S
C496 C497 1.502 . S
C496 C498 1.561 . S
C496 C499 1.526 . S
C497 H481 0.959 . S
C497 H482 0.959 . S
C497 H483 0.961 1_554 S
C497 C496 1.502 . S
C498 H484 0.960 1_554 S
C498 H485 0.961 . S
C498 H486 0.959 . S
C498 C496 1.561 . S
C499 C496 1.526 . S
C499 C500 1.396 . S
C499 C504 1.390 . S
C500 C494 1.465 1_554 S
C500 C499 1.396 . S
C500 C501 1.399 . S
C501 H487 0.929 . S
C501 C500 1.399 . S
C501 C502 1.385 . S
C502 H488 0.931 . S
C502 C501 1.385 . S
C502 C503 1.389 . S
C503 C502 1.389 . S
C503 C504 1.387 . S
C504 H489 0.930 . S
C504 C499 1.390 . S
C504 C503 1.387 . S
H505 C517 0.930 . S
H506 C519 0.930 . S
H507 C520 0.930 . S
H508 C524 0.959 . S
H509 C524 0.959 . S
H510 C524 0.961 1_554 S
H511 C525 0.960 1_554 S
H512 C525 0.961 . S
H513 C525 0.959 . S
H514 C528 0.929 . S
H515 C529 0.931 . S
H516 C531 0.930 . S
C517 H505 0.930 . S
C517 C518 1.399 . S
C517 C522 1.399 . S
C518 C517 1.399 . S
C518 C519 1.376 . S
C519 H506 0.930 . S
C519 C518 1.376 . S
C519 C520 1.388 . S
C520 H507 0.930 . S
C520 C519 1.388 . S
C520 C521 1.390 . S
C521 C520 1.390 . S
C521 C522 1.394 . S
C521 C527 1.465 1_554 S
C522 C517 1.399 . S
C522 C521 1.394 . S
C522 C523 1.516 1_554 S
C523 C522 1.516 1_556 S
C523 C524 1.502 . S
C523 C525 1.561 . S
C523 C526 1.526 . S
C524 H508 0.959 . S
C524 H509 0.959 . S
C524 H510 0.961 1_556 S
C524 C523 1.502 . S
C525 H511 0.960 1_556 S
C525 H512 0.961 . S
C525 H513 0.959 . S
C525 C523 1.561 . S
C526 C523 1.526 . S
C526 C527 1.396 . S
C526 C531 1.390 . S
C527 C521 1.465 1_556 S
C527 C526 1.396 . S
C527 C528 1.399 . S
C528 H514 0.929 . S
C528 C527 1.399 . S
C528 C529 1.385 . S
C529 H515 0.931 . S
C529 C528 1.385 . S
C529 C530 1.389 . S
C530 C529 1.389 . S
C530 C531 1.387 . S
C531 H516 0.930 . S
C531 C526 1.390 . S
C531 C530 1.387 . S
H532 C544 0.930 . S
H533 C546 0.930 . S
H534 C547 0.930 . S
H535 C551 0.959 . S
H536 C551 0.959 . S
H537 C551 0.961 . S
H538 C552 0.960 . S
H539 C552 0.961 . S
H540 C552 0.959 . S
H541 C555 0.929 . S
H542 C556 0.931 . S
H543 C558 0.930 . S
C544 H532 0.930 . S
C544 C545 1.399 . S
C544 C549 1.399 . S
C545 C544 1.399 . S
C545 C546 1.376 . S
C546 H533 0.930 . S
C546 C545 1.376 . S
C546 C547 1.388 . S
C547 H534 0.930 . S
C547 C546 1.388 . S
C547 C548 1.390 . S
C548 C547 1.390 . S
C548 C549 1.394 . S
C548 C554 1.465 . S
C549 C544 1.399 . S
C549 C548 1.394 . S
C549 C550 1.516 . S
C550 C549 1.516 . S
C550 C551 1.502 . S
C550 C552 1.561 . S
C550 C553 1.526 . S
C551 H535 0.959 . S
C551 H536 0.959 . S
C551 H537 0.961 . S
C551 C550 1.502 . S
C552 H538 0.960 . S
C552 H539 0.961 . S
C552 H540 0.959 . S
C552 C550 1.561 . S
C553 C550 1.526 . S
C553 C554 1.396 . S
C553 C558 1.390 . S
C554 C548 1.465 . S
C554 C553 1.396 . S
C554 C555 1.399 . S
C555 H541 0.929 . S
C555 C554 1.399 . S
C555 C556 1.385 . S
C556 H542 0.931 . S
C556 C555 1.385 . S
C556 C557 1.389 . S
C557 C556 1.389 . S
C557 C558 1.387 . S
C558 H543 0.930 . S
C558 C553 1.390 . S
C558 C557 1.387 . S
H559 C571 0.930 . S
H560 C573 0.930 . S
H561 C574 0.930 . S
H562 C578 0.959 . S
H563 C578 0.959 . S
H564 C578 0.961 . S
H565 C579 0.960 . S
H566 C579 0.961 . S
H567 C579 0.959 . S
H568 C582 0.929 . S
H569 C583 0.931 . S
H570 C585 0.930 . S
C571 H559 0.930 . S
C571 C572 1.399 . S
C571 C576 1.399 . S
C572 C571 1.399 . S
C572 C573 1.376 . S
C573 H560 0.930 . S
C573 C572 1.376 . S
C573 C574 1.388 . S
C574 H561 0.930 . S
C574 C573 1.388 . S
C574 C575 1.390 . S
C575 C574 1.390 . S
C575 C576 1.394 . S
C575 C581 1.465 . S
C576 C571 1.399 . S
C576 C575 1.394 . S
C576 C577 1.516 . S
C577 C576 1.516 . S
C577 C578 1.502 . S
C577 C579 1.561 . S
C577 C580 1.526 . S
C578 H562 0.959 . S
C578 H563 0.959 . S
C578 H564 0.961 . S
C578 C577 1.502 . S
C579 H565 0.960 . S
C579 H566 0.961 . S
C579 H567 0.959 . S
C579 C577 1.561 . S
C580 C577 1.526 . S
C580 C581 1.396 . S
C580 C585 1.390 . S
C581 C575 1.465 . S
C581 C580 1.396 . S
C581 C582 1.399 . S
C582 H568 0.929 . S
C582 C581 1.399 . S
C582 C583 1.385 . S
C583 H569 0.931 . S
C583 C582 1.385 . S
C583 C584 1.389 . S
C584 C583 1.389 . S
C584 C585 1.387 . S
C585 H570 0.930 . S
C585 C580 1.390 . S
C585 C584 1.387 . S
H586 C598 0.930 . S
H587 C600 0.930 . S
H588 C601 0.930 . S
H589 C605 0.959 . S
H590 C605 0.959 . S
H591 C605 0.961 . S
H592 C606 0.960 . S
H593 C606 0.961 . S
H594 C606 0.959 . S
H595 C609 0.929 . S
H596 C610 0.931 . S
H597 C612 0.930 . S
C598 H586 0.930 . S
C598 C599 1.399 . S
C598 C603 1.399 . S
C599 C598 1.399 . S
C599 C600 1.376 . S
C600 H587 0.930 . S
C600 C599 1.376 . S
C600 C601 1.388 . S
C601 H588 0.930 . S
C601 C600 1.388 . S
C601 C602 1.390 . S
C602 C601 1.390 . S
C602 C603 1.394 . S
C602 C608 1.465 . S
C603 C598 1.399 . S
C603 C602 1.394 . S
C603 C604 1.516 . S
C604 C603 1.516 . S
C604 C605 1.502 . S
C604 C606 1.561 . S
C604 C607 1.526 . S
C605 H589 0.959 . S
C605 H590 0.959 . S
C605 H591 0.961 . S
C605 C604 1.502 . S
C606 H592 0.960 . S
C606 H593 0.961 . S
C606 H594 0.959 . S
C606 C604 1.561 . S
C607 C604 1.526 . S
C607 C608 1.396 . S
C607 C612 1.390 . S
C608 C602 1.465 . S
C608 C607 1.396 . S
C608 C609 1.399 . S
C609 H595 0.929 . S
C609 C608 1.399 . S
C609 C610 1.385 . S
C610 H596 0.931 . S
C610 C609 1.385 . S
C610 C611 1.389 . S
C611 C610 1.389 . S
C611 C612 1.387 . S
C612 H597 0.930 . S
C612 C607 1.390 . S
C612 C611 1.387 . S
H613 C625 0.930 . S
H614 C627 0.930 . S
H615 C628 0.930 . S
H616 C632 0.959 . S
H617 C632 0.959 . S
H618 C632 0.961 . S
H619 C633 0.960 . S
H620 C633 0.961 . S
H621 C633 0.959 . S
H622 C636 0.929 . S
H623 C637 0.931 . S
H624 C639 0.930 . S
C625 H613 0.930 . S
C625 C626 1.399 . S
C625 C630 1.399 . S
C626 C625 1.399 . S
C626 C627 1.376 . S
C627 H614 0.930 . S
C627 C626 1.376 . S
C627 C628 1.388 . S
C628 H615 0.930 . S
C628 C627 1.388 . S
C628 C629 1.390 . S
C629 C628 1.390 . S
C629 C630 1.394 . S
C629 C635 1.465 . S
C630 C625 1.399 . S
C630 C629 1.394 . S
C630 C631 1.516 . S
C631 C630 1.516 . S
C631 C632 1.502 . S
C631 C633 1.561 . S
C631 C634 1.526 . S
C632 H616 0.959 . S
C632 H617 0.959 . S
C632 H618 0.961 . S
C632 C631 1.502 . S
C633 H619 0.960 . S
C633 H620 0.961 . S
C633 H621 0.959 . S
C633 C631 1.561 . S
C634 C631 1.526 . S
C634 C635 1.396 . S
C634 C639 1.390 . S
C635 C629 1.465 . S
C635 C634 1.396 . S
C635 C636 1.399 . S
C636 H622 0.929 . S
C636 C635 1.399 . S
C636 C637 1.385 . S
C637 H623 0.931 . S
C637 C636 1.385 . S
C637 C638 1.389 . S
C638 C637 1.389 . S
C638 C639 1.387 . S
C639 H624 0.930 . S
C639 C634 1.390 . S
C639 C638 1.387 . S
H640 C652 0.930 . S
H641 C654 0.930 . S
H642 C655 0.930 . S
H643 C659 0.959 . S
H644 C659 0.959 . S
H645 C659 0.961 . S
H646 C660 0.960 . S
H647 C660 0.961 . S
H648 C660 0.959 . S
H649 C663 0.929 . S
H650 C664 0.931 . S
H651 C666 0.930 . S
C652 H640 0.930 . S
C652 C653 1.399 . S
C652 C657 1.399 . S
C653 C652 1.399 . S
C653 C654 1.376 . S
C654 H641 0.930 . S
C654 C653 1.376 . S
C654 C655 1.388 . S
C655 H642 0.930 . S
C655 C654 1.388 . S
C655 C656 1.390 . S
C656 C655 1.390 . S
C656 C657 1.394 . S
C656 C662 1.465 . S
C657 C652 1.399 . S
C657 C656 1.394 . S
C657 C658 1.516 . S
C658 C657 1.516 . S
C658 C659 1.502 . S
C658 C660 1.561 . S
C658 C661 1.526 . S
C659 H643 0.959 . S
C659 H644 0.959 . S
C659 H645 0.961 . S
C659 C658 1.502 . S
C660 H646 0.960 . S
C660 H647 0.961 . S
C660 H648 0.959 . S
C660 C658 1.561 . S
C661 C658 1.526 . S
C661 C662 1.396 . S
C661 C666 1.390 . S
C662 C656 1.465 . S
C662 C661 1.396 . S
C662 C663 1.399 . S
C663 H649 0.929 . S
C663 C662 1.399 . S
C663 C664 1.385 . S
C664 H650 0.931 . S
C664 C663 1.385 . S
C664 C665 1.389 . S
C665 C664 1.389 . S
C665 C666 1.387 . S
C666 H651 0.930 . S
C666 C661 1.390 . S
C666 C665 1.387 . S
H667 C679 0.930 . S
H668 C681 0.930 . S
H669 C682 0.930 . S
H670 C686 0.959 . S
H671 C686 0.959 . S
H672 C686 0.961 . S
H673 C687 0.960 . S
H674 C687 0.961 . S
H675 C687 0.959 . S
H676 C690 0.929 . S
H677 C691 0.931 . S
H678 C693 0.930 . S
C679 H667 0.930 . S
C679 C680 1.399 . S
C679 C684 1.399 . S
C680 C679 1.399 . S
C680 C681 1.376 . S
C681 H668 0.930 . S
C681 C680 1.376 . S
C681 C682 1.388 . S
C682 H669 0.930 . S
C682 C681 1.388 . S
C682 C683 1.390 . S
C683 C682 1.390 . S
C683 C684 1.394 . S
C683 C689 1.465 . S
C684 C679 1.399 . S
C684 C683 1.394 . S
C684 C685 1.516 . S
C685 C684 1.516 . S
C685 C686 1.502 . S
C685 C687 1.561 . S
C685 C688 1.526 . S
C686 H670 0.959 . S
C686 H671 0.959 . S
C686 H672 0.961 . S
C686 C685 1.502 . S
C687 H673 0.960 . S
C687 H674 0.961 . S
C687 H675 0.959 . S
C687 C685 1.561 . S
C688 C685 1.526 . S
C688 C689 1.396 . S
C688 C693 1.390 . S
C689 C683 1.465 . S
C689 C688 1.396 . S
C689 C690 1.399 . S
C690 H676 0.929 . S
C690 C689 1.399 . S
C690 C691 1.385 . S
C691 H677 0.931 . S
C691 C690 1.385 . S
C691 C692 1.389 . S
C692 C691 1.389 . S
C692 C693 1.387 . S
C693 H678 0.930 . S
C693 C688 1.390 . S
C693 C692 1.387 . S
H694 C706 0.930 . S
H695 C708 0.930 . S
H696 C709 0.930 . S
H697 C713 0.959 . S
H698 C713 0.959 . S
H699 C713 0.961 . S
H700 C714 0.960 . S
H701 C714 0.961 . S
H702 C714 0.959 . S
H703 C717 0.929 . S
H704 C718 0.931 . S
H705 C720 0.930 . S
C706 H694 0.930 . S
C706 C707 1.399 . S
C706 C711 1.399 . S
C707 C706 1.399 . S
C707 C708 1.376 . S
C708 H695 0.930 . S
C708 C707 1.376 . S
C708 C709 1.388 . S
C709 H696 0.930 . S
C709 C708 1.388 . S
C709 C710 1.390 . S
C710 C709 1.390 . S
C710 C711 1.394 . S
C710 C716 1.465 . S
C711 C706 1.399 . S
C711 C710 1.394 . S
C711 C712 1.516 . S
C712 C711 1.516 . S
C712 C713 1.502 . S
C712 C714 1.561 . S
C712 C715 1.526 . S
C713 H697 0.959 . S
C713 H698 0.959 . S
C713 H699 0.961 . S
C713 C712 1.502 . S
C714 H700 0.960 . S
C714 H701 0.961 . S
C714 H702 0.959 . S
C714 C712 1.561 . S
C715 C712 1.526 . S
C715 C716 1.396 . S
C715 C720 1.390 . S
C716 C710 1.465 . S
C716 C715 1.396 . S
C716 C717 1.399 . S
C717 H703 0.929 . S
C717 C716 1.399 . S
C717 C718 1.385 . S
C718 H704 0.931 . S
C718 C717 1.385 . S
C718 C719 1.389 . S
C719 C718 1.389 . S
C719 C720 1.387 . S
C720 H705 0.930 . S
C720 C715 1.390 . S
C720 C719 1.387 . S
H721 C733 0.930 . S
H722 C735 0.930 . S
H723 C736 0.930 . S
H724 C740 0.959 . S
H725 C740 0.959 . S
H726 C740 0.961 . S
H727 C741 0.960 . S
H728 C741 0.961 . S
H729 C741 0.959 . S
H730 C744 0.929 . S
H731 C745 0.931 . S
H732 C747 0.930 . S
C733 H721 0.930 . S
C733 C734 1.399 . S
C733 C738 1.399 . S
C734 C733 1.399 . S
C734 C735 1.376 . S
C735 H722 0.930 . S
C735 C734 1.376 . S
C735 C736 1.388 . S
C736 H723 0.930 . S
C736 C735 1.388 . S
C736 C737 1.390 . S
C737 C736 1.390 . S
C737 C738 1.394 . S
C737 C743 1.465 . S
C738 C733 1.399 . S
C738 C737 1.394 . S
C738 C739 1.516 . S
C739 C738 1.516 . S
C739 C740 1.502 . S
C739 C741 1.561 . S
C739 C742 1.526 . S
C740 H724 0.959 . S
C740 H725 0.959 . S
C740 H726 0.961 . S
C740 C739 1.502 . S
C741 H727 0.960 . S
C741 H728 0.961 . S
C741 H729 0.959 . S
C741 C739 1.561 . S
C742 C739 1.526 . S
C742 C743 1.396 . S
C742 C747 1.390 . S
C743 C737 1.465 . S
C743 C742 1.396 . S
C743 C744 1.399 . S
C744 H730 0.929 . S
C744 C743 1.399 . S
C744 C745 1.385 . S
C745 H731 0.931 . S
C745 C744 1.385 . S
C745 C746 1.389 . S
C746 C745 1.389 . S
C746 C747 1.387 . S
C747 H732 0.930 . S
C747 C742 1.390 . S
C747 C746 1.387 . S
H748 C760 0.930 . S
H749 C762 0.930 . S
H750 C763 0.930 . S
H751 C767 0.959 . S
H752 C767 0.959 . S
H753 C767 0.961 . S
H754 C768 0.960 . S
H755 C768 0.961 . S
H756 C768 0.959 . S
H757 C771 0.929 . S
H758 C772 0.931 . S
H759 C774 0.930 . S
C760 H748 0.930 . S
C760 C761 1.399 . S
C760 C765 1.399 . S
C761 C760 1.399 . S
C761 C762 1.376 . S
C762 H749 0.930 . S
C762 C761 1.376 . S
C762 C763 1.388 . S
C763 H750 0.930 . S
C763 C762 1.388 . S
C763 C764 1.390 . S
C764 C763 1.390 . S
C764 C765 1.394 . S
C764 C770 1.465 . S
C765 C760 1.399 . S
C765 C764 1.394 . S
C765 C766 1.516 . S
C766 C765 1.516 . S
C766 C767 1.502 . S
C766 C768 1.561 . S
C766 C769 1.526 . S
C767 H751 0.959 . S
C767 H752 0.959 . S
C767 H753 0.961 . S
C767 C766 1.502 . S
C768 H754 0.960 . S
C768 H755 0.961 . S
C768 H756 0.959 . S
C768 C766 1.561 . S
C769 C766 1.526 . S
C769 C770 1.396 . S
C769 C774 1.390 . S
C770 C764 1.465 . S
C770 C769 1.396 . S
C770 C771 1.399 . S
C771 H757 0.929 . S
C771 C770 1.399 . S
C771 C772 1.385 . S
C772 H758 0.931 . S
C772 C771 1.385 . S
C772 C773 1.389 . S
C773 C772 1.389 . S
C773 C774 1.387 . S
C774 H759 0.930 . S
C774 C769 1.390 . S
C774 C773 1.387 . S
H775 C787 0.930 . S
H776 C789 0.930 . S
H777 C790 0.930 . S
H778 C794 0.959 . S
H779 C794 0.959 . S
H780 C794 0.961 . S
H781 C795 0.960 . S
H782 C795 0.961 . S
H783 C795 0.959 . S
H784 C798 0.929 . S
H785 C799 0.931 . S
H786 C801 0.930 . S
C787 H775 0.930 . S
C787 C788 1.399 . S
C787 C792 1.399 . S
C788 C787 1.399 . S
C788 C789 1.376 . S
C789 H776 0.930 . S
C789 C788 1.376 . S
C789 C790 1.388 . S
C790 H777 0.930 . S
C790 C789 1.388 . S
C790 C791 1.390 . S
C791 C790 1.390 . S
C791 C792 1.394 . S
C791 C797 1.465 . S
C792 C787 1.399 . S
C792 C791 1.394 . S
C792 C793 1.516 . S
C793 C792 1.516 . S
C793 C794 1.502 . S
C793 C795 1.561 . S
C793 C796 1.526 . S
C794 H778 0.959 . S
C794 H779 0.959 . S
C794 H780 0.961 . S
C794 C793 1.502 . S
C795 H781 0.960 . S
C795 H782 0.961 . S
C795 H783 0.959 . S
C795 C793 1.561 . S
C796 C793 1.526 . S
C796 C797 1.396 . S
C796 C801 1.390 . S
C797 C791 1.465 . S
C797 C796 1.396 . S
C797 C798 1.399 . S
C798 H784 0.929 . S
C798 C797 1.399 . S
C798 C799 1.385 . S
C799 H785 0.931 . S
C799 C798 1.385 . S
C799 C800 1.389 . S
C800 C799 1.389 . S
C800 C801 1.387 . S
C801 H786 0.930 . S
C801 C796 1.390 . S
C801 C800 1.387 . S
H802 C814 0.930 . S
H803 C816 0.930 . S
H804 C817 0.930 . S
H805 C821 0.959 . S
H806 C821 0.959 . S
H807 C821 0.961 . S
H808 C822 0.960 . S
H809 C822 0.961 . S
H810 C822 0.959 . S
H811 C825 0.929 . S
H812 C826 0.931 . S
H813 C828 0.930 . S
C814 H802 0.930 . S
C814 C815 1.399 . S
C814 C819 1.399 . S
C815 C814 1.399 . S
C815 C816 1.376 . S
C816 H803 0.930 . S
C816 C815 1.376 . S
C816 C817 1.388 . S
C817 H804 0.930 . S
C817 C816 1.388 . S
C817 C818 1.390 . S
C818 C817 1.390 . S
C818 C819 1.394 . S
C818 C824 1.465 . S
C819 C814 1.399 . S
C819 C818 1.394 . S
C819 C820 1.516 . S
C820 C819 1.516 . S
C820 C821 1.502 . S
C820 C822 1.561 . S
C820 C823 1.526 . S
C821 H805 0.959 . S
C821 H806 0.959 . S
C821 H807 0.961 . S
C821 C820 1.502 . S
C822 H808 0.960 . S
C822 H809 0.961 . S
C822 H810 0.959 . S
C822 C820 1.561 . S
C823 C820 1.526 . S
C823 C824 1.396 . S
C823 C828 1.390 . S
C824 C818 1.465 . S
C824 C823 1.396 . S
C824 C825 1.399 . S
C825 H811 0.929 . S
C825 C824 1.399 . S
C825 C826 1.385 . S
C826 H812 0.931 . S
C826 C825 1.385 . S
C826 C827 1.389 . S
C827 C826 1.389 . S
C827 C828 1.387 . S
C828 H813 0.930 . S
C828 C823 1.390 . S
C828 C827 1.387 . S
H829 C841 0.930 . S
H830 C843 0.930 . S
H831 C844 0.930 . S
H832 C848 0.959 . S
H833 C848 0.959 . S
H834 C848 0.961 . S
H835 C849 0.960 . S
H836 C849 0.961 . S
H837 C849 0.959 . S
H838 C852 0.929 . S
H839 C853 0.931 . S
H840 C855 0.930 . S
C841 H829 0.930 . S
C841 C842 1.399 . S
C841 C846 1.399 . S
C842 C841 1.399 . S
C842 C843 1.376 . S
C843 H830 0.930 . S
C843 C842 1.376 . S
C843 C844 1.388 . S
C844 H831 0.930 . S
C844 C843 1.388 . S
C844 C845 1.390 . S
C845 C844 1.390 . S
C845 C846 1.394 . S
C845 C851 1.465 . S
C846 C841 1.399 . S
C846 C845 1.394 . S
C846 C847 1.516 . S
C847 C846 1.516 . S
C847 C848 1.502 . S
C847 C849 1.561 . S
C847 C850 1.526 . S
C848 H832 0.959 . S
C848 H833 0.959 . S
C848 H834 0.961 . S
C848 C847 1.502 . S
C849 H835 0.960 . S
C849 H836 0.961 . S
C849 H837 0.959 . S
C849 C847 1.561 . S
C850 C847 1.526 . S
C850 C851 1.396 . S
C850 C855 1.390 . S
C851 C845 1.465 . S
C851 C850 1.396 . S
C851 C852 1.399 . S
C852 H838 0.929 . S
C852 C851 1.399 . S
C852 C853 1.385 . S
C853 H839 0.931 . S
C853 C852 1.385 . S
C853 C854 1.389 . S
C854 C853 1.389 . S
C854 C855 1.387 . S
C855 H840 0.930 . S
C855 C850 1.390 . S
C855 C854 1.387 . S
H856 C868 0.930 . S
H857 C870 0.930 . S
H858 C871 0.930 . S
H859 C875 0.959 . S
H860 C875 0.959 . S
H861 C875 0.961 1_545 S
H862 C876 0.960 . S
H863 C876 0.961 . S
H864 C876 0.959 . S
H865 C879 0.929 . S
H866 C880 0.931 . S
H867 C882 0.930 . S
C868 H856 0.930 . S
C868 C869 1.399 . S
C868 C873 1.399 . S
C869 C868 1.399 . S
C869 C870 1.376 . S
C870 H857 0.930 . S
C870 C869 1.376 . S
C870 C871 1.388 . S
C871 H858 0.930 . S
C871 C870 1.388 . S
C871 C872 1.390 . S
C872 C871 1.390 . S
C872 C873 1.394 . S
C872 C878 1.465 1_545 S
C873 C868 1.399 . S
C873 C872 1.394 . S
C873 C874 1.516 1_545 S
C874 C873 1.516 1_565 S
C874 C875 1.502 . S
C874 C876 1.561 . S
C874 C877 1.526 . S
C875 H859 0.959 . S
C875 H860 0.959 . S
C875 H861 0.961 1_565 S
C875 C874 1.502 . S
C876 H862 0.960 . S
C876 H863 0.961 . S
C876 H864 0.959 . S
C876 C874 1.561 . S
C877 C874 1.526 . S
C877 C878 1.396 . S
C877 C882 1.390 . S
C878 C872 1.465 1_565 S
C878 C877 1.396 . S
C878 C879 1.399 . S
C879 H865 0.929 . S
C879 C878 1.399 . S
C879 C880 1.385 . S
C880 H866 0.931 . S
C880 C879 1.385 . S
C880 C881 1.389 . S
C881 C880 1.389 . S
C881 C882 1.387 . S
C882 H867 0.930 . S
C882 C877 1.390 . S
C882 C881 1.387 . S
H883 C895 0.930 . S
H884 C897 0.930 . S
H885 C898 0.930 . S
H886 C902 0.959 . S
H887 C902 0.959 . S
H888 C902 0.961 1_655 S
H889 C903 0.960 . S
H890 C903 0.961 . S
H891 C903 0.959 . S
H892 C906 0.929 . S
H893 C907 0.931 . S
H894 C909 0.930 . S
C895 H883 0.930 . S
C895 C896 1.399 . S
C895 C900 1.399 . S
C896 C895 1.399 . S
C896 C897 1.376 . S
C897 H884 0.930 . S
C897 C896 1.376 . S
C897 C898 1.388 . S
C898 H885 0.930 . S
C898 C897 1.388 . S
C898 C899 1.390 . S
C899 C898 1.390 . S
C899 C900 1.394 . S
C899 C905 1.465 1_655 S
C900 C895 1.399 . S
C900 C899 1.394 . S
C900 C901 1.516 1_655 S
C901 C900 1.516 1_455 S
C901 C902 1.502 . S
C901 C903 1.561 . S
C901 C904 1.526 . S
C902 H886 0.959 . S
C902 H887 0.959 . S
C902 H888 0.961 1_455 S
C902 C901 1.502 . S
C903 H889 0.960 . S
C903 H890 0.961 . S
C903 H891 0.959 . S
C903 C901 1.561 . S
C904 C901 1.526 . S
C904 C905 1.396 . S
C904 C909 1.390 . S
C905 C899 1.465 1_455 S
C905 C904 1.396 . S
C905 C906 1.399 . S
C906 H892 0.929 . S
C906 C905 1.399 . S
C906 C907 1.385 . S
C907 H893 0.931 . S
C907 C906 1.385 . S
C907 C908 1.389 . S
C908 C907 1.389 . S
C908 C909 1.387 . S
C909 H894 0.930 . S
C909 C904 1.390 . S
C909 C908 1.387 . S
H910 C922 0.930 . S
H911 C924 0.930 . S
H912 C925 0.930 . S
H913 C929 0.959 . S
H914 C929 0.959 . S
H915 C929 0.961 . S
H916 C930 0.960 . S
H917 C930 0.961 . S
H918 C930 0.959 . S
H919 C933 0.929 . S
H920 C934 0.931 . S
H921 C936 0.930 . S
C922 H910 0.930 . S
C922 C923 1.399 . S
C922 C927 1.399 . S
C923 C922 1.399 . S
C923 C924 1.376 . S
C924 H911 0.930 . S
C924 C923 1.376 . S
C924 C925 1.388 . S
C925 H912 0.930 . S
C925 C924 1.388 . S
C925 C926 1.390 . S
C926 C925 1.390 . S
C926 C927 1.394 . S
C926 C932 1.465 1_545 S
C927 C922 1.399 . S
C927 C926 1.394 . S
C927 C928 1.516 . S
C928 C927 1.516 . S
C928 C929 1.502 . S
C928 C930 1.561 . S
C928 C931 1.526 1_545 S
C929 H913 0.959 . S
C929 H914 0.959 . S
C929 H915 0.961 . S
C929 C928 1.502 . S
C930 H916 0.960 . S
C930 H917 0.961 . S
C930 H918 0.959 . S
C930 C928 1.561 . S
C931 C928 1.526 1_565 S
C931 C932 1.396 . S
C931 C936 1.390 . S
C932 C926 1.465 1_565 S
C932 C931 1.396 . S
C932 C933 1.399 . S
C933 H919 0.929 . S
C933 C932 1.399 . S
C933 C934 1.385 . S
C934 H920 0.931 . S
C934 C933 1.385 . S
C934 C935 1.389 . S
C935 C934 1.389 . S
C935 C936 1.387 . S
C936 H921 0.930 . S
C936 C931 1.390 . S
C936 C935 1.387 . S
H937 C949 0.930 . S
H938 C951 0.930 . S
H939 C952 0.930 . S
H940 C956 0.959 . S
H941 C956 0.959 1_655 S
H942 C956 0.961 . S
H943 C957 0.960 1_455 S
H944 C957 0.961 . S
H945 C957 0.959 . S
H946 C960 0.929 . S
H947 C961 0.931 . S
H948 C963 0.930 . S
C949 H937 0.930 . S
C949 C950 1.399 . S
C949 C954 1.399 . S
C950 C949 1.399 . S
C950 C951 1.376 . S
C951 H938 0.930 . S
C951 C950 1.376 . S
C951 C952 1.388 . S
C952 H939 0.930 . S
C952 C951 1.388 . S
C952 C953 1.390 . S
C953 C952 1.390 . S
C953 C954 1.394 . S
C953 C959 1.465 1_455 S
C954 C949 1.399 . S
C954 C953 1.394 . S
C954 C955 1.516 . S
C955 C954 1.516 . S
C955 C956 1.502 . S
C955 C957 1.561 1_455 S
C955 C958 1.526 1_455 S
C956 H940 0.959 . S
C956 H941 0.959 1_455 S
C956 H942 0.961 . S
C956 C955 1.502 . S
C957 H943 0.960 1_655 S
C957 H944 0.961 . S
C957 H945 0.959 . S
C957 C955 1.561 1_655 S
C958 C955 1.526 1_655 S
C958 C959 1.396 . S
C958 C963 1.390 . S
C959 C953 1.465 1_655 S
C959 C958 1.396 . S
C959 C960 1.399 . S
C960 H946 0.929 . S
C960 C959 1.399 . S
C960 C961 1.385 . S
C961 H947 0.931 . S
C961 C960 1.385 . S
C961 C962 1.389 . S
C962 C961 1.389 . S
C962 C963 1.387 . S
C963 H948 0.930 . S
C963 C958 1.390 . S
C963 C962 1.387 . S
H964 C976 0.930 . S
H965 C978 0.930 . S
H966 C979 0.930 . S
H967 C983 0.959 . S
H968 C983 0.959 . S
H969 C983 0.961 . S
H970 C984 0.960 . S
H971 C984 0.961 . S
H972 C984 0.959 . S
H973 C987 0.929 . S
H974 C988 0.931 . S
H975 C990 0.930 . S
C976 H964 0.930 . S
C976 C977 1.399 . S
C976 C981 1.399 . S
C977 C976 1.399 . S
C977 C978 1.376 . S
C978 H965 0.930 . S
C978 C977 1.376 . S
C978 C979 1.388 . S
C979 H966 0.930 . S
C979 C978 1.388 . S
C979 C980 1.390 . S
C980 C979 1.390 . S
C980 C981 1.394 . S
C980 C986 1.465 1_545 S
C981 C976 1.399 . S
C981 C980 1.394 . S
C981 C982 1.516 1_545 S
C982 C981 1.516 1_565 S
C982 C983 1.502 . S
C982 C984 1.561 . S
C982 C985 1.526 . S
C983 H967 0.959 . S
C983 H968 0.959 . S
C983 H969 0.961 . S
C983 C982 1.502 . S
C984 H970 0.960 . S
C984 H971 0.961 . S
C984 H972 0.959 . S
C984 C982 1.561 . S
C985 C982 1.526 . S
C985 C986 1.396 . S
C985 C990 1.390 . S
C986 C980 1.465 1_565 S
C986 C985 1.396 . S
C986 C987 1.399 . S
C987 H973 0.929 . S
C987 C986 1.399 . S
C987 C988 1.385 . S
C988 H974 0.931 . S
C988 C987 1.385 . S
C988 C989 1.389 . S
C989 C988 1.389 . S
C989 C990 1.387 . S
C990 H975 0.930 . S
C990 C985 1.390 . S
C990 C989 1.387 . S
H991 C1003 0.930 . S
H992 C1005 0.930 . S
H993 C1006 0.930 . S
H994 C1010 0.959 . S
H995 C1010 0.949 1_455 S
H996 C1010 0.961 . S
H997 C1011 0.960 1_655 S
H998 C1011 0.961 . S
H999 C1011 0.959 . S
H1000 C1014 0.929 . S
H1001 C1015 0.931 . S
H1002 C1017 0.930 . S
C1003 H991 0.930 . S
C1003 C1004 1.399 . S
C1003 C1008 1.399 . S
C1004 C1003 1.399 . S
C1004 C1005 1.376 . S
C1005 H992 0.930 . S
C1005 C1004 1.376 . S
C1005 C1006 1.388 . S
C1006 H993 0.930 . S
C1006 C1005 1.388 . S
C1006 C1007 1.390 . S
C1007 C1006 1.390 . S
C1007 C1008 1.394 . S
C1007 C1013 1.465 1_655 S
C1008 C1003 1.399 . S
C1008 C1007 1.394 . S
C1008 C1009 1.516 . S
C1009 C1008 1.516 . S
C1009 C1010 1.502 . S
C1009 C1011 1.561 1_655 S
C1009 C1012 1.526 1_655 S
C1010 H994 0.959 . S
C1010 H995 0.949 1_655 S
C1010 H996 0.961 . S
C1010 C1009 1.502 . S
C1011 H997 0.960 1_455 S
C1011 H998 0.961 . S
C1011 H999 0.959 . S
C1011 C1009 1.561 1_455 S
C1012 C1009 1.526 1_455 S
C1012 C1013 1.396 . S
C1012 C1017 1.390 . S
C1013 C1007 1.465 1_455 S
C1013 C1012 1.396 . S
C1013 C1014 1.399 . S
C1014 H1000 0.929 . S
C1014 C1013 1.399 . S
C1014 C1015 1.385 . S
C1015 H1001 0.931 . S
C1015 C1014 1.385 . S
C1015 C1016 1.389 . S
C1016 C1015 1.389 . S
C1016 C1017 1.387 . S
C1017 H1002 0.930 . S
C1017 C1012 1.390 . S
C1017 C1016 1.387 . S
H1018 C1030 0.930 . S
H1019 C1032 0.930 . S
H1020 C1033 0.930 . S
H1021 C1037 0.959 . S
H1022 C1037 0.959 . S
H1023 C1037 0.961 . S
H1024 C1038 0.960 . S
H1025 C1038 0.961 . S
H1026 C1038 0.959 . S
H1027 C1041 0.929 . S
H1028 C1042 0.931 . S
H1029 C1044 0.930 . S
C1030 H1018 0.930 . S
C1030 C1031 1.399 . S
C1030 C1035 1.399 . S
C1031 C1030 1.399 . S
C1031 C1032 1.376 . S
C1032 H1019 0.930 . S
C1032 C1031 1.376 . S
C1032 C1033 1.388 . S
C1033 H1020 0.930 . S
C1033 C1032 1.388 . S
C1033 C1034 1.390 . S
C1034 C1033 1.390 . S
C1034 C1035 1.394 . S
C1034 C1040 1.465 1_565 S
C1035 C1030 1.399 . S
C1035 C1034 1.394 . S
C1035 C1036 1.516 1_565 S
C1036 C1035 1.516 1_545 S
C1036 C1037 1.502 . S
C1036 C1038 1.561 . S
C1036 C1039 1.526 . S
C1037 H1021 0.959 . S
C1037 H1022 0.959 . S
C1037 H1023 0.961 . S
C1037 C1036 1.502 . S
C1038 H1024 0.960 . S
C1038 H1025 0.961 . S
C1038 H1026 0.959 . S
C1038 C1036 1.561 . S
C1039 C1036 1.526 . S
C1039 C1040 1.396 . S
C1039 C1044 1.390 . S
C1040 C1034 1.465 1_545 S
C1040 C1039 1.396 . S
C1040 C1041 1.399 . S
C1041 H1027 0.929 . S
C1041 C1040 1.399 . S
C1041 C1042 1.385 . S
C1042 H1028 0.931 . S
C1042 C1041 1.385 . S
C1042 C1043 1.389 . S
C1043 C1042 1.389 . S
C1043 C1044 1.387 . S
C1044 H1029 0.930 . S
C1044 C1039 1.390 . S
C1044 C1043 1.387 . S
H1045 C1057 0.930 . S
H1046 C1059 0.930 . S
H1047 C1060 0.930 . S
H1048 C1064 0.959 . S
H1049 C1064 0.959 . S
H1050 C1064 0.961 1_455 S
H1051 C1065 0.960 . S
H1052 C1065 0.961 1_655 S
H1053 C1065 0.959 . S
H1054 C1068 0.929 . S
H1055 C1069 0.931 . S
H1056 C1071 0.930 . S
C1057 H1045 0.930 . S
C1057 C1058 1.399 . S
C1057 C1062 1.399 . S
C1058 C1057 1.399 . S
C1058 C1059 1.376 . S
C1059 H1046 0.930 . S
C1059 C1058 1.376 . S
C1059 C1060 1.388 . S
C1060 H1047 0.930 . S
C1060 C1059 1.388 . S
C1060 C1061 1.390 . S
C1061 C1060 1.390 . S
C1061 C1062 1.394 . S
C1061 C1067 1.465 1_455 S
C1062 C1057 1.399 . S
C1062 C1061 1.394 . S
C1062 C1063 1.516 1_455 S
C1063 C1062 1.516 1_655 S
C1063 C1064 1.502 . S
C1063 C1065 1.561 1_655 S
C1063 C1066 1.526 . S
C1064 H1048 0.959 . S
C1064 H1049 0.959 . S
C1064 H1050 0.961 1_655 S
C1064 C1063 1.502 . S
C1065 H1051 0.960 . S
C1065 H1052 0.961 1_455 S
C1065 H1053 0.959 . S
C1065 C1063 1.561 1_455 S
C1066 C1063 1.526 . S
C1066 C1067 1.396 . S
C1066 C1071 1.390 . S
C1067 C1061 1.465 1_655 S
C1067 C1066 1.396 . S
C1067 C1068 1.399 . S
C1068 H1054 0.929 . S
C1068 C1067 1.399 . S
C1068 C1069 1.385 . S
C1069 H1055 0.931 . S
C1069 C1068 1.385 . S
C1069 C1070 1.389 . S
C1070 C1069 1.389 . S
C1070 C1071 1.387 . S
C1071 H1056 0.930 . S
C1071 C1066 1.390 . S
C1071 C1070 1.387 . S
C221 C65 1.214 . S
C233 C0 1.249 . S
C248 C78 1.262 . S
C260 C13 1.266 . S
C275 C26 1.229 . S
C287 C91 1.214 . S
C302 C39 1.212 . S
C314 C52 1.239 . S
C329 C169 1.264 . S
C341 C104 1.264 . S
C356 C182 1.221 . S
C368 C117 1.259 . S
C383 C130 1.271 . S
C395 C195 1.246 . S
C410 C143 1.271 . S
C422 C156 1.247 . S
C437 C138 1.435 . S
C449 C8 1.469 . S
C464 C151 1.487 . S
C476 C21 1.489 . S
C491 C112 1.438 . S
C503 C34 1.473 . S
C518 C47 1.438 . S
C530 C125 1.475 . S
C545 C190 1.468 . S
C557 C60 1.493 . S
C572 C203 1.433 . S
C584 C73 1.435 . S
C599 C86 1.439 . S
C611 C164 1.431 . S
C626 C177 1.483 . S
C638 C99 1.491 . S
C653 C62 1.323 . S
C665 C10 1.311 . S
C680 C23 1.308 . S
C692 C75 1.335 . S
C707 C36 1.345 . S
C719 C88 1.312 . S
C734 C101 1.354 . S
C746 C49 1.347 . S
C761 C109 1.449 . S
C773 C161 1.439 . S
C788 C174 1.453 . S
C800 C122 1.445 . S
C815 C135 1.455 . S
C827 C187 1.450 . S
C842 C200 1.380 . S
C854 C148 1.380 . S
C869 C153 1.325 . S
C881 C179 1.310 . S
C896 C114 1.325 . S
C908 C192 1.310 . S
C923 C205 1.331 . S
C935 C127 1.358 . S
C950 C140 1.309 . S
C962 C166 1.327 . S
C977 C70 1.439 . S
C989 C44 1.426 . S
C1004 C83 1.439 . S
C1016 C5 1.449 . S
C1031 C96 1.441 . S
C1043 C18 1.428 . S
C1058 C57 1.394 . S
C1070 C31 1.385 . S
