# Generated by pormake.
# Topology uoc, (4)-cn, num edge types: 1
# Building blocks:
#     Node 0, Type 0, BuildingBlock: ICAMEG_clean_sbu_1, # of connection points: 4
#     Node 1, Type 0, BuildingBlock: ICAMEG_clean_sbu_1, # of connection points: 4
#     Node 2, Type 0, BuildingBlock: ICAMEG_clean_sbu_1, # of connection points: 4
#     Node 3, Type 0, BuildingBlock: ICAMEG_clean_sbu_1, # of connection points: 4
#     Node 4, Type 0, BuildingBlock: ICAMEG_clean_sbu_1, # of connection points: 4
#     Node 5, Type 0, BuildingBlock: ICAMEG_clean_sbu_1, # of connection points: 4
#     Node 6, Type 0, BuildingBlock: ICAMEG_clean_sbu_1, # of connection points: 4
#     Node 7, Type 0, BuildingBlock: ICAMEG_clean_sbu_1, # of connection points: 4
#     Edge 8, Type (0, 0), None
#     Edge 9, Type (0, 0), None
#     Edge 10, Type (0, 0), None
#     Edge 11, Type (0, 0), None
#     Edge 12, Type (0, 0), None
#     Edge 13, Type (0, 0), None
#     Edge 14, Type (0, 0), None
#     Edge 15, Type (0, 0), None
#     Edge 16, Type (0, 0), None
#     Edge 17, Type (0, 0), None
#     Edge 18, Type (0, 0), None
#     Edge 19, Type (0, 0), None
#     Edge 20, Type (0, 0), None
#     Edge 21, Type (0, 0), None
#     Edge 22, Type (0, 0), None
#     Edge 23, Type (0, 0), None
# Relax obj value: 0.100
# Max RMSD: 0.091
# Mean RMSD: 0.091
data_MOF--net-uoc--node1-ICAMEG_clean_sbu_1--edge1-none
_symmetry_space_group_name_H-M    P1
_symmetry_Int_Tables_number       1
_symmetry_cell_setting            triclinic
loop_
_symmetry_equiv_pos_as_xyz
'x, y, z'
_cell_length_a     14.128308
_cell_length_b     14.131808
_cell_length_c     28.169321
_cell_angle_alpha  90.000121
_cell_angle_beta   90.001226
_cell_angle_gamma 98.029331
loop_
_atom_site_label
_atom_site_type_symbol
_atom_site_fract_x
_atom_site_fract_y
_atom_site_fract_z
_atom_type_partial_charge
Co0 Co 0.15556 0.15984 0.13716 0.0
Co1 Co 0.95307 0.21443 0.07852 0.0
O2 O 0.06644 0.24525 0.11996 0.0
C3 C 0.17923 0.27801 0.22861 0.0
O4 O 0.21672 0.35402 0.20492 0.0
C5 C 0.00218 0.42772 0.10657 0.0
O6 O 0.03883 0.40488 0.14713 0.0
O7 O 0.04807 0.19797 0.02554 0.0
O8 O 0.15925 0.12383 0.06658 0.0
H9 H 0.71738 0.02935 0.04295 0.0
H10 H 0.34661 0.2133 0.18386 0.0
O11 O 0.14851 0.19975 0.20693 0.0
H12 H 0.3523 0.40909 0.03903 0.0
H13 H 0.26941 0.92053 0.24725 0.0
H14 H 0.31904 0.08011 0.09188 0.0
H15 H 0.20156 0.31865 0.06719 0.0
H16 H 0.16907 0.03911 0.22241 0.0
O17 O -0.02065 0.36324 0.07471 0.0
H18 H 0.81206 0.03175 0.08427 0.0
H19 H 0.73715 0.32676 0.96603 0.0
H20 H 0.406 0.94476 0.11153 0.0
H21 H 0.49916 0.30049 0.15605 0.0
H22 H 0.38721 0.86893 0.19055 0.0
H23 H 0.50417 0.39156 0.08086 0.0
O24 O 0.04865 0.05802 0.14819 0.0
H25 H 0.84559 0.39693 0.21405 0.0
H26 H 0.86264 0.07357 0.1576 0.0
H27 H 0.88228 0.10723 0.24214 0.0
H28 H 0.89068 0.27574 0.26994 0.0
H29 H 0.83671 0.36086 0.12997 0.0
H30 H 0.56499 0.2216 0.94886 0.0
H31 H 0.51314 0.04627 0.98641 0.0
O32 O 0.96023 0.07452 0.08445 0.0
C33 C 0.12189 0.15086 0.02748 0.0
C34 C 0.6565 0.01201 0.0283 0.0
C35 C 0.61772 0.18809 0.96813 0.0
N36 N 0.82073 0.17845 0.03528 0.0
C37 C 0.77568 0.06458 0.0519 0.0
C38 C 0.72623 0.25531 0.98233 0.0
C39 C 0.58701 0.07468 0.99115 0.0
C40 C 0.34717 0.25591 0.15198 0.0
N41 N 0.26545 0.25673 0.12586 0.0
C42 C 0.43404 0.30515 0.13646 0.0
C43 C 0.43656 0.35737 0.09456 0.0
C44 C 0.3517 0.36562 0.07066 0.0
C45 C 0.26618 0.31481 0.08706 0.0
C46 C 0.28021 0.95386 0.21277 0.0
C47 C 0.30656 0.04341 0.1254 0.0
C48 C 0.22476 0.02317 0.19873 0.0
N49 N 0.23857 0.06747 0.15552 0.0
C50 C 0.35868 0.96964 0.13708 0.0
C51 C 0.34644 0.92556 0.18121 0.0
C52 C -0.00432 0.02286 0.11472 0.0
C53 C 0.85395 0.32606 0.20165 0.0
C54 C 0.86823 0.14625 0.16863 0.0
C55 C 0.87555 0.16439 0.21731 0.0
C56 C 0.87646 0.25745 0.23323 0.0
N57 N 0.87268 0.21961 0.13658 0.0
C58 C 0.84922 0.30444 0.15327 0.0
Co59 Co 0.66157 0.65526 0.37358 0.0
Co60 Co 0.72781 0.45381 0.42999 0.0
O61 O 0.74847 0.56339 0.38578 0.0
C62 C 0.77314 0.66545 0.28098 0.0
O63 O 0.85211 0.6937 0.30458 0.0
C64 C 0.92633 0.47967 0.38626 0.0
O65 O 0.885 0.48517 0.34476 0.0
O66 O 0.71658 0.55411 0.48171 0.0
O67 O 0.63265 0.65885 0.4438 0.0
H68 H 0.5763 0.20853 0.46855 0.0
H69 H 0.71619 0.83909 0.32166 0.0
O70 O 0.69311 0.64514 0.3029 0.0
H71 H 0.91564 0.8579 0.46552 0.0
H72 H 0.44478 0.81278 0.26646 0.0
H73 H 0.5685 0.80075 0.42931 0.0
H74 H 0.8251 0.70433 0.44062 0.0
H75 H 0.55104 0.69815 0.28683 0.0
O76 O 0.87545 0.47463 0.42435 0.0
H77 H 0.57724 0.29631 0.4229 0.0
H78 H 0.84727 0.29413 0.56546 0.0
H79 H 0.44119 0.89734 0.41199 0.0
H80 H 0.80456 -0.00646 0.34543 0.0
H81 H 0.38181 0.90827 0.32995 0.0
H82 H 0.89673 0.00576 0.42034 0.0
O83 O 0.55518 0.55185 0.36861 0.0
H84 H 0.80925 0.1688 0.33395 0.0
H85 H 0.63154 0.44048 0.33379 0.0
H86 H 0.60438 0.32484 0.27037 0.0
H87 H 0.68843 0.18248 0.27153 0.0
H88 H 0.84706 0.30146 0.38829 0.0
H89 H 0.76074 0.1186 0.59025 0.0
H90 H 0.60756 0.02709 0.54121 0.0
O91 O 0.58411 0.45226 0.42791 0.0
C92 C 0.66074 0.62032 0.48174 0.0
C93 C 0.56355 0.15044 0.487 0.0
C94 C 0.72628 0.15723 0.56367 0.0
N95 N 0.70865 0.33127 0.47928 0.0
C96 C 0.60705 0.26698 0.45821 0.0
C97 C 0.78268 0.26747 0.54508 0.0
C98 C 0.62538 0.10269 0.5344 0.0
C99 C 0.75996 0.8424 0.35319 0.0
N100 N 0.76153 0.76328 0.3811 0.0
C101 C 0.80968 0.93046 0.36651 0.0
C102 C 0.86255 0.93689 0.40826 0.0
C103 C 0.87152 0.8543 0.43402 0.0
C104 C 0.82072 0.76728 0.41954 0.0
C105 C 0.47012 0.80902 0.30254 0.0
C106 C 0.53942 0.79947 0.39391 0.0
C107 C 0.53301 0.7452 0.31439 0.0
N108 N 0.56942 0.74247 0.35943 0.0
C109 C 0.469 0.85687 0.38413 0.0
C110 C 0.43518 0.86264 0.33806 0.0
C111 C 0.52753 0.49138 0.40087 0.0
C112 C 0.7645 0.22491 0.33573 0.0
C113 C 0.66448 0.37803 0.33713 0.0
C114 C 0.65106 0.31318 0.29965 0.0
C115 C 0.69835 0.23362 0.30021 0.0
N116 N 0.72324 0.36552 0.37462 0.0
C117 C 0.78075 0.29589 0.37027 0.0
Co118 Co 0.30198 0.28513 0.63726 0.0
Co119 Co 0.50436 0.23028 0.5786 0.0
O120 O 0.39086 0.1995 0.61998 0.0
C121 C 0.27868 0.16683 0.72862 0.0
O122 O 0.24149 0.0908 0.70486 0.0
C123 C 0.45536 0.01707 0.60666 0.0
O124 O 0.41872 0.03996 0.64721 0.0
O125 O 0.40936 0.24679 0.52561 0.0
O126 O 0.2982 0.32102 0.56666 0.0
H127 H 0.74 0.41538 0.54315 0.0
H128 H 0.11138 0.23199 0.68432 0.0
O129 O 0.30915 0.24523 0.70701 0.0
H130 H 0.10394 0.03615 0.53945 0.0
H131 H 0.18909 0.52473 0.74744 0.0
H132 H 0.13856 0.36523 0.59209 0.0
H133 H 0.25507 0.12652 0.56722 0.0
H134 H 0.28904 0.40595 0.7225 0.0
O135 O 0.47817 0.0815 0.57478 0.0
H136 H 0.64549 0.41267 0.58458 0.0
H137 H 0.72048 0.11808 0.46613 0.0
H138 H 0.05209 0.50095 0.61182 0.0
H139 H 0.95851 0.14476 0.65696 0.0
H140 H 0.07134 0.57674 0.69082 0.0
H141 H 0.95259 0.05356 0.58179 0.0
O142 O 0.40906 0.38682 0.64818 0.0
H143 H 0.61215 0.04756 0.71401 0.0
H144 H 0.59415 0.37095 0.6579 0.0
H145 H 0.57443 0.33687 0.74239 0.0
H146 H 0.56654 0.16829 0.77001 0.0
H147 H 0.6209 0.08392 0.62998 0.0
H148 H 0.89265 0.2234 0.44904 0.0
H149 H 0.94431 0.39878 0.48665 0.0
O150 O 0.49726 0.3702 0.58442 0.0
C151 C 0.33554 0.29393 0.52757 0.0
C152 C 0.80087 0.43281 0.5285 0.0
C153 C 0.83986 0.25686 0.46829 0.0
N154 N 0.63678 0.26625 0.53542 0.0
C155 C 0.68175 0.3801 0.55209 0.0
C156 C 0.73136 0.18952 0.48246 0.0
C157 C 0.87045 0.37027 0.49134 0.0
C158 C 0.11043 0.18935 0.65243 0.0
N159 N 0.19186 0.18845 0.62609 0.0
C160 C 0.02339 0.14009 0.63717 0.0
C161 C 0.02036 0.08783 0.59527 0.0
C162 C 0.10493 0.07962 0.57109 0.0
C163 C 0.19066 0.13041 0.58727 0.0
C164 C 0.1781 0.49146 0.71296 0.0
C165 C 0.15124 0.40193 0.6256 0.0
C166 C 0.23332 0.422 0.69887 0.0
N167 N 0.21926 0.37771 0.65566 0.0
C168 C 0.0994 0.4759 0.63732 0.0
C169 C 0.1119 0.51997 0.68145 0.0
C170 C 0.46179 0.42194 0.61463 0.0
C171 C 0.60359 0.11843 0.70168 0.0
C172 C 0.58877 0.29824 0.66883 0.0
C173 C 0.5814 0.27987 0.7175 0.0
C174 C 0.58077 0.18678 0.73332 0.0
N175 N 0.58464 0.22507 0.63671 0.0
C176 C 0.60833 0.14026 0.65332 0.0
Co177 Co 0.79598 0.78928 0.87362 0.0
Co178 Co 0.72976 -0.00912 0.92991 0.0
O179 O 0.70911 0.88121 0.88575 0.0
C180 C 0.68432 0.77892 0.78105 0.0
O181 O 0.60537 0.75078 0.80469 0.0
C182 C 0.53125 0.96497 0.88619 0.0
O183 O 0.57256 0.95943 0.8447 0.0
O184 O 0.74106 0.89071 0.98169 0.0
O185 O 0.82494 0.78588 0.94383 0.0
H186 H 0.88126 0.2362 0.96843 0.0
H187 H 0.74137 0.60521 0.8219 0.0
O188 O 0.7644 0.79919 0.80294 0.0
H189 H 0.54159 0.5872 0.96562 0.0
H190 H 0.01292 0.63158 0.76669 0.0
H191 H 0.88887 0.64381 0.92946 0.0
H192 H 0.63235 0.7406 0.94063 0.0
H193 H 0.90659 0.74621 0.78695 0.0
O194 O 0.58213 0.97 0.92428 0.0
H195 H 0.88027 0.14843 0.92277 0.0
H196 H 0.61025 0.15067 0.06531 0.0
H197 H 0.01614 0.54713 0.91226 0.0
H198 H 0.65292 0.4509 0.84582 0.0
H199 H 0.07578 0.53619 0.83026 0.0
H200 H 0.5606 0.4391 0.92069 0.0
O201 O 0.90239 0.89266 0.86858 0.0
H202 H 0.6485 0.27577 0.83374 0.0
H203 H 0.82586 0.00383 0.83368 0.0
H204 H 0.85306 0.11931 0.77019 0.0
H205 H 0.76915 0.26176 0.77128 0.0
H206 H 0.61062 0.14326 0.88816 0.0
H207 H 0.69687 0.32614 0.09015 0.0
H208 H 0.85004 0.41763 0.0411 0.0
O209 O 0.87349 -0.00755 0.92781 0.0
C210 C 0.79691 0.8245 0.98175 0.0
C211 C 0.89404 0.29428 0.98689 0.0
C212 C 0.7313 0.28752 0.06355 0.0
N213 N 0.74885 0.11353 0.97912 0.0
C214 C 0.85048 0.17777 0.95807 0.0
C215 C 0.67484 0.17732 0.04493 0.0
C216 C 0.83222 0.34203 0.03429 0.0
C217 C 0.69756 0.60207 0.85341 0.0
N218 N 0.69599 0.68132 0.88123 0.0
C219 C 0.64779 0.51409 0.86682 0.0
C220 C 0.59483 0.50789 0.90854 0.0
C221 C 0.58582 0.59062 0.93417 0.0
C222 C 0.63672 0.67754 0.91963 0.0
C223 C -0.01248 0.6354 0.80275 0.0
C224 C 0.91802 0.64505 0.89408 0.0
C225 C 0.92459 0.69922 0.81454 0.0
N226 N 0.8881 0.70201 0.85956 0.0
C227 C -0.01156 0.58762 0.88437 0.0
C228 C 0.02239 0.58182 0.83832 0.0
C229 C 0.93005 0.95323 0.9008 0.0
C230 C 0.69317 0.2196 0.83553 0.0
C231 C 0.793 0.06634 0.83699 0.0
C232 C 0.80644 0.1311 0.79947 0.0
C233 C 0.75924 0.21072 0.79999 0.0
N234 N 0.73432 0.07902 0.87449 0.0
C235 C 0.67689 0.14872 0.87012 0.0
Co236 Co 0.65636 0.65988 0.6368 0.0
Co237 Co 0.45263 0.71466 0.57919 0.0
O238 O 0.56702 0.74568 0.62006 0.0
C239 C 0.68216 0.77736 0.72844 0.0
O240 O 0.72006 0.85334 0.70485 0.0
C241 C 0.50107 0.92793 0.60661 0.0
O242 O 0.53843 0.90531 0.64703 0.0
O243 O 0.54654 0.69813 0.52571 0.0
O244 O 0.6586 0.62417 0.56625 0.0
H245 H 0.21816 0.52823 0.54505 0.0
H246 H 0.84868 0.71228 0.68238 0.0
O247 O 0.65052 0.69949 0.70665 0.0
H248 H 0.85117 0.91008 0.53837 0.0
H249 H 0.77275 0.42049 0.74608 0.0
H250 H 0.81748 0.57847 0.5901 0.0
H251 H 0.70102 0.81928 0.56706 0.0
H252 H 0.67227 0.53948 0.72205 0.0
O253 O 0.47766 0.86329 0.57491 0.0
H254 H 0.31251 0.53288 0.58661 0.0
H255 H 0.2322 0.82481 0.46797 0.0
H256 H 0.90461 0.44296 0.60916 0.0
H257 H 0.0007 0.79932 0.65382 0.0
H258 H 0.88826 0.36789 0.68848 0.0
H259 H 0.00397 0.89151 0.579 0.0
O260 O 0.54968 0.55803 0.64817 0.0
H261 H 0.34364 0.89768 0.71465 0.0
H262 H 0.36691 0.57466 0.6595 0.0
H263 H 0.38515 0.60974 0.74386 0.0
H264 H 0.38971 0.77809 0.77117 0.0
H265 H 0.3362 0.86069 0.63076 0.0
H266 H 0.06021 0.7168 0.45192 0.0
H267 H 0.01221 0.54088 0.48998 0.0
O268 O 0.46052 0.57485 0.58485 0.0
C269 C 0.62044 0.65104 0.52736 0.0
C270 C 0.15722 0.50976 0.53077 0.0
C271 C 0.11424 0.68433 0.47075 0.0
N272 N 0.31934 0.67807 0.53679 0.0
C273 C 0.27608 0.56405 0.5537 0.0
C274 C 0.22254 0.75341 0.48433 0.0
C275 C 0.08586 0.5707 0.49404 0.0
C276 C 0.84855 0.7552 0.65063 0.0
N277 N 0.76618 0.75661 0.6251 0.0
C278 C 0.93512 0.80439 0.6347 0.0
C279 C 0.93669 0.85718 0.59301 0.0
C280 C 0.85127 0.86603 0.56975 0.0
C281 C 0.76608 0.81512 0.58651 0.0
C282 C 0.7825 0.45355 0.71149 0.0
C283 C 0.8061 0.54225 0.6238 0.0
C284 C 0.72701 0.52315 0.69789 0.0
N285 N 0.73953 0.56714 0.65455 0.0
C286 C 0.8582 0.46822 0.63508 0.0
C287 C 0.8474 0.42462 0.67939 0.0
C288 C 0.49672 0.52297 0.61469 0.0
C289 C 0.35325 0.82695 0.70252 0.0
C290 C 0.37093 0.64738 0.67017 0.0
C291 C 0.37755 0.66629 0.71881 0.0
C292 C 0.3765 0.75926 0.73443 0.0
N293 N 0.37371 0.72003 0.6378 0.0
C294 C 0.34921 0.80469 0.65421 0.0
Co295 Co 0.16426 0.15445 0.87365 0.0
Co296 Co 0.22985 0.95342 0.93072 0.0
O297 O 0.251 0.06235 0.88608 0.0
C298 C 0.27646 0.16472 0.78122 0.0
O299 O 0.35531 0.19289 0.80494 0.0
C300 C 0.42758 -0.02482 0.8863 0.0
O301 O 0.38579 -0.01976 0.8449 0.0
O302 O 0.21951 0.05495 0.98195 0.0
O303 O 0.13465 0.15845 0.94384 0.0
H304 H 0.08007 0.7083 0.96974 0.0
H305 H 0.21918 0.3382 0.82176 0.0
O306 O 0.19632 0.14425 0.80304 0.0
H307 H 0.41757 0.35714 0.96599 0.0
H308 H 0.9467 0.30966 0.76594 0.0
H309 H 0.07201 0.3014 0.92869 0.0
H310 H 0.32759 0.20346 0.94085 0.0
H311 H 0.05325 0.19548 0.78685 0.0
O312 O 0.37736 0.97202 0.92457 0.0
H313 H 0.08014 0.79618 0.9242 0.0
H314 H 0.34842 0.79749 0.0679 0.0
H315 H 0.94448 0.39764 0.91099 0.0
H316 H 0.30733 0.49265 0.84564 0.0
H317 H 0.8844 0.40669 0.82899 0.0
H318 H 0.39879 0.50496 0.92078 0.0
O319 O 0.05786 0.05108 0.86863 0.0
H320 H 0.30652 0.6652 0.83509 0.0
H321 H 0.13676 0.94222 0.83394 0.0
H322 H 0.10769 0.82692 0.77051 0.0
H323 H 0.18849 0.68256 0.77184 0.0
H324 H 0.34504 0.79606 0.89008 0.0
H325 H 0.26315 0.62155 0.09271 0.0
H326 H 0.11196 0.52805 0.04305 0.0
O327 O 0.08608 0.95247 0.92857 0.0
C328 C 0.16298 0.12051 0.9819 0.0
C329 C 0.06769 0.65021 0.98819 0.0
C330 C 0.22885 0.6595 0.06579 0.0
N331 N 0.21072 0.83256 0.98093 0.0
C332 C 0.11022 0.76699 0.95947 0.0
C333 C 0.28433 0.77015 0.0473 0.0
C334 C 0.12918 0.60362 0.03605 0.0
C335 C 0.26279 0.34153 0.85335 0.0
N336 N 0.26423 0.26241 0.88127 0.0
C337 C 0.31233 0.4296 0.86675 0.0
C338 C 0.36481 0.43608 0.90863 0.0
C339 C 0.37372 0.3535 0.93439 0.0
C340 C 0.3232 0.26643 0.91979 0.0
C341 C 0.97241 0.30676 0.802 0.0
C342 C 0.04261 0.29941 0.89334 0.0
C343 C 0.03547 0.24326 0.81414 0.0
N344 N 0.07226 0.24158 0.85915 0.0
C345 C 0.97211 0.35659 0.88332 0.0
C346 C 0.93782 0.36124 0.83728 0.0
C347 C 0.02987 -0.00917 0.90094 0.0
C348 C 0.26295 0.72228 0.83678 0.0
C349 C 0.16712 0.87833 0.8377 0.0
C350 C 0.153 0.8138 0.8001 0.0
C351 C 0.19841 0.73304 0.80079 0.0
N352 N 0.2241 0.86402 0.87565 0.0
C353 C 0.27943 0.79241 0.87174 0.0
Co354 Co 0.80134 0.78479 0.13679 0.0
Co355 Co 0.0051 0.73027 0.07918 0.0
O356 O 0.89074 0.69912 0.12002 0.0
C357 C 0.77516 0.66709 0.22837 0.0
O358 O 0.73682 0.59129 0.20477 0.0
C359 C 0.95645 0.51685 0.1065 0.0
O360 O 0.9189 0.53936 0.14689 0.0
O361 O 0.9112 0.74679 0.0257 0.0
O362 O 0.79916 0.82072 0.06626 0.0
H363 H 0.23952 0.917 0.04489 0.0
H364 H 0.60855 0.73237 0.18198 0.0
O365 O 0.8071 0.74489 0.2066 0.0
H366 H 0.60743 0.53464 0.03801 0.0
H367 H 0.68441 0.02347 0.24632 0.0
H368 H 0.64058 0.8667 0.09002 0.0
H369 H 0.7573 0.62529 0.06707 0.0
H370 H 0.78493 0.90457 0.22224 0.0
O371 O -0.02 0.58158 0.07485 0.0
H372 H 0.14491 0.9128 0.08627 0.0
H373 H 0.22586 0.62 0.96828 0.0
H374 H 0.55358 0.00224 0.10915 0.0
H375 H 0.45674 0.64564 0.15297 0.0
H376 H 0.56942 0.07667 0.18863 0.0
H377 H 0.45419 0.55353 0.07815 0.0
O378 O 0.90797 0.88665 0.14827 0.0
H379 H 0.11272 0.54753 0.21498 0.0
H380 H 0.09172 0.87059 0.15915 0.0
H381 H 0.07299 0.83621 0.24358 0.0
H382 H 0.06714 0.66792 0.27121 0.0
H383 H 0.12111 0.5841 0.13099 0.0
H384 H 0.39775 0.72806 0.95214 0.0
H385 H 0.44558 0.90414 0.98998 0.0
O386 O -0.00293 0.86999 0.08491 0.0
C387 C 0.83729 0.79386 0.02736 0.0
C388 C 0.30049 0.93542 0.03064 0.0
C389 C 0.34368 0.76056 0.97092 0.0
N390 N 0.13842 0.76703 0.03681 0.0
C391 C 0.18156 0.88121 0.05357 0.0
C392 C 0.23541 0.6915 0.98453 0.0
C393 C 0.37195 0.8743 0.99406 0.0
C394 C 0.60897 0.68951 0.15023 0.0
N395 N 0.6916 0.68805 0.12492 0.0
C396 C 0.52253 0.64048 0.13405 0.0
C397 C 0.52135 0.58772 0.09236 0.0
C398 C 0.60702 0.57871 0.06938 0.0
C399 C 0.69205 0.62951 0.08636 0.0
C400 C 0.67487 -0.00933 0.21166 0.0
C401 C 0.6518 0.90267 0.12379 0.0
C402 C 0.73037 0.92111 0.19803 0.0
N403 N 0.71809 0.87744 0.1546 0.0
C404 C 0.59976 -0.02328 0.13511 0.0
C405 C 0.61027 0.01995 0.17951 0.0
C406 C 0.9609 0.9218 0.1148 0.0
C407 C 0.10358 0.61829 0.2027 0.0
C408 C 0.08723 0.79791 0.16999 0.0
C409 C 0.0803 0.77938 0.21865 0.0
C410 C 0.08063 0.68642 0.23445 0.0
N411 N 0.08402 0.72495 0.13777 0.0
C412 C 0.10801 0.64022 0.15436 0.0
Co413 Co 0.29322 0.29022 0.37374 0.0
Co414 Co 0.2278 0.49137 0.43076 0.0
O415 O 0.20657 0.38242 0.38613 0.0
C416 C 0.18126 0.27996 0.28122 0.0
O417 O 0.10233 0.25171 0.30485 0.0
C418 C 0.03 0.46947 0.38636 0.0
O419 O 0.07176 0.46433 0.34496 0.0
O420 O 0.23801 0.38992 0.48204 0.0
O421 O 0.32272 0.28625 0.44395 0.0
H422 H 0.37788 0.73638 0.46969 0.0
H423 H 0.23821 0.10645 0.32187 0.0
O424 O 0.26132 0.30044 0.30311 0.0
H425 H 0.03976 0.08777 0.46608 0.0
H426 H 0.51088 0.13472 0.26619 0.0
H427 H 0.3852 0.14319 0.42887 0.0
H428 H 0.12979 0.2414 0.44089 0.0
H429 H 0.40431 0.24896 0.287 0.0
O430 O 0.08026 0.4728 0.42462 0.0
H431 H 0.37775 0.64836 0.42422 0.0
H432 H 0.10924 0.648 0.56775 0.0
H433 H 0.51267 0.04683 0.41128 0.0
H434 H 0.15005 0.95204 0.34581 0.0
H435 H 0.57302 0.03776 0.32932 0.0
H436 H 0.05857 0.93987 0.42094 0.0
O437 O 0.39972 0.39348 0.36873 0.0
H438 H 0.15089 0.77929 0.33496 0.0
H439 H 0.3212 0.50264 0.33404 0.0
H440 H 0.35002 0.61775 0.27052 0.0
H441 H 0.26898 0.76199 0.27175 0.0
H442 H 0.1124 0.64842 0.38994 0.0
H443 H 0.19458 0.82404 0.59233 0.0
H444 H 0.34613 0.91708 0.54272 0.0
O445 O 0.37153 0.49215 0.42864 0.0
C446 C 0.29444 0.32427 0.48199 0.0
C447 C 0.39028 0.79457 0.48806 0.0
C448 C 0.22896 0.78588 0.56553 0.0
N449 N 0.24711 0.61228 0.48095 0.0
C450 C 0.3477 0.67766 0.45947 0.0
C451 C 0.17342 0.67515 0.54718 0.0
C452 C 0.32876 0.8415 0.53579 0.0
C453 C 0.19458 0.10318 0.35345 0.0
N454 N 0.19315 0.18234 0.38135 0.0
C455 C 0.14504 0.01513 0.36689 0.0
C456 C 0.09255 0.00873 0.40876 0.0
C457 C 0.08362 0.09136 0.43449 0.0
C458 C 0.13416 0.1784 0.41986 0.0
C459 C 0.48508 0.13767 0.30225 0.0
C460 C 0.41468 0.14514 0.39353 0.0
C461 C 0.42202 0.20121 0.31432 0.0
N462 N 0.38515 0.20297 0.35931 0.0
C463 C 0.48515 0.0879 0.38357 0.0
C464 C 0.51958 0.08323 0.33756 0.0
C465 C 0.42773 0.45374 0.40103 0.0
C466 C 0.19453 0.72227 0.33668 0.0
C467 C 0.29066 0.56644 0.33774 0.0
C468 C 0.30466 0.63087 0.30009 0.0
C469 C 0.2591 0.71153 0.30071 0.0
N470 N 0.23359 0.58071 0.37566 0.0
C471 C 0.1781 0.65218 0.37166 0.0
loop_
_geom_bond_atom_site_label_1
_geom_bond_atom_site_label_2
_geom_bond_distance
_geom_bond_site_symmetry_2
_ccdc_geom_bond_type
Co0 O2 2.143 . S
Co0 O8 2.074 . S
Co0 O11 2.093 . S
Co0 O24 2.097 . S
Co0 N41 2.151 . S
Co0 N49 2.214 . S
Co1 O2 2.160 . S
Co1 O7 2.058 . S
Co1 O17 2.057 . S
Co1 O32 2.037 . S
Co1 N36 2.145 1_455 S
Co1 N57 2.257 1_455 S
O2 Co0 2.143 . S
O2 Co1 2.160 . S
C3 O4 1.278 . S
C3 O11 1.224 . S
O4 C3 1.278 . S
C5 O6 1.245 . S
C5 O17 1.232 . S
O6 C5 1.245 . S
O7 Co1 2.058 . S
O7 C33 1.269 . S
O8 Co0 2.074 . S
O8 C33 1.257 . S
H9 C34 0.930 . S
H10 C40 0.930 . S
O11 Co0 2.093 . S
O11 C3 1.224 . S
H12 C44 0.929 . S
H13 C46 0.930 . S
H14 C47 0.930 . S
H15 C45 0.929 . S
H16 C48 0.928 . S
O17 Co1 2.057 . S
O17 C5 1.232 . S
H18 C37 0.929 . S
H19 C38 0.929 . S
H20 C50 0.931 . S
H21 C42 0.929 . S
H22 C51 0.930 . S
H23 C43 0.931 . S
O24 Co0 2.097 . S
O24 C52 1.214 . S
H25 C53 0.929 . S
H26 C54 0.929 . S
H27 C55 0.930 . S
H28 C56 0.929 . S
H29 C58 0.930 . S
H30 C35 0.930 . S
H31 C39 0.930 . S
O32 Co1 2.037 . S
O32 C52 1.234 . S
C33 O7 1.269 . S
C33 O8 1.257 . S
C34 H9 0.930 . S
C34 C37 1.388 1_556 S
C34 C39 1.418 . S
C35 H30 0.930 . S
C35 C38 1.404 1_556 S
C35 C39 1.353 . S
N36 Co1 2.145 1_655 S
N36 C37 1.397 . S
N36 C38 1.334 . S
C37 H18 0.929 . S
C37 C34 1.388 1_554 S
C37 N36 1.397 . S
C38 H19 0.929 . S
C38 C35 1.404 1_554 S
C38 N36 1.334 . S
C39 H31 0.930 . S
C39 C34 1.418 . S
C39 C35 1.353 . S
C40 H10 0.930 . S
C40 N41 1.330 . S
C40 C42 1.446 . S
N41 Co0 2.151 . S
N41 C40 1.330 . S
N41 C45 1.418 . S
C42 H21 0.929 . S
C42 C40 1.446 . S
C42 C43 1.332 . S
C43 H23 0.931 . S
C43 C42 1.332 . S
C43 C44 1.267 . S
C44 H12 0.929 . S
C44 C43 1.267 . S
C44 C45 1.251 . S
C45 H15 0.929 . S
C45 N41 1.418 . S
C45 C44 1.251 . S
C46 H13 0.930 . S
C46 C48 1.406 . S
C46 C51 1.261 1_545 S
C47 H14 0.930 . S
C47 N49 1.325 . S
C47 C50 1.357 1_545 S
C48 H16 0.928 . S
C48 C46 1.406 . S
C48 N49 1.261 . S
N49 Co0 2.214 . S
N49 C47 1.325 . S
N49 C48 1.261 . S
C50 H20 0.931 . S
C50 C47 1.357 1_565 S
C50 C51 1.312 . S
C51 H22 0.930 . S
C51 C46 1.261 1_565 S
C51 C50 1.312 . S
C52 O24 1.214 . S
C52 O32 1.234 . S
C53 H25 0.929 . S
C53 C56 1.391 . S
C53 C58 1.391 . S
C54 H26 0.929 . S
C54 C55 1.390 . S
C54 N57 1.391 . S
C55 H27 0.930 . S
C55 C54 1.390 . S
C55 C56 1.392 . S
C56 H28 0.929 . S
C56 C53 1.391 . S
C56 C55 1.392 . S
N57 Co1 2.257 1_655 S
N57 C54 1.391 . S
N57 C58 1.388 . S
C58 H29 0.930 . S
C58 C53 1.391 . S
C58 N57 1.388 . S
Co59 O61 2.143 . S
Co59 O67 2.074 . S
Co59 O70 2.093 . S
Co59 O83 2.097 . S
Co59 N100 2.151 . S
Co59 N108 2.214 . S
Co60 O61 2.160 . S
Co60 O66 2.058 . S
Co60 O76 2.057 . S
Co60 O91 2.037 . S
Co60 N95 2.145 . S
Co60 N116 2.257 . S
O61 Co59 2.143 . S
O61 Co60 2.160 . S
C62 O63 1.278 . S
C62 O70 1.224 . S
O63 C62 1.278 . S
C64 O65 1.245 . S
C64 O76 1.232 . S
O65 C64 1.245 . S
O66 Co60 2.058 . S
O66 C92 1.269 . S
O67 Co59 2.074 . S
O67 C92 1.257 . S
H68 C93 0.930 . S
H69 C99 0.930 . S
O70 Co59 2.093 . S
O70 C62 1.224 . S
H71 C103 0.929 . S
H72 C105 0.930 . S
H73 C106 0.930 . S
H74 C104 0.929 . S
H75 C107 0.928 . S
O76 Co60 2.057 . S
O76 C64 1.232 . S
H77 C96 0.929 . S
H78 C97 0.929 . S
H79 C109 0.931 . S
H80 C101 0.929 1_455 S
H81 C110 0.930 1_545 S
H82 C102 0.931 1_455 S
O83 Co59 2.097 . S
O83 C111 1.214 . S
H84 C112 0.929 . S
H85 C113 0.929 . S
H86 C114 0.930 . S
H87 C115 0.929 . S
H88 C117 0.930 . S
H89 C94 0.930 . S
H90 C98 0.930 . S
O91 Co60 2.037 . S
O91 C111 1.234 . S
C92 O66 1.269 . S
C92 O67 1.257 . S
C93 H68 0.930 . S
C93 C96 1.388 . S
C93 C98 1.418 . S
C94 H89 0.930 . S
C94 C97 1.404 . S
C94 C98 1.353 . S
N95 Co60 2.145 . S
N95 C96 1.397 . S
N95 C97 1.334 . S
C96 H77 0.929 . S
C96 C93 1.388 . S
C96 N95 1.397 . S
C97 H78 0.929 . S
C97 C94 1.404 . S
C97 N95 1.334 . S
C98 H90 0.930 . S
C98 C93 1.418 . S
C98 C94 1.353 . S
C99 H69 0.930 . S
C99 N100 1.330 . S
C99 C101 1.446 . S
N100 Co59 2.151 . S
N100 C99 1.330 . S
N100 C104 1.418 . S
C101 H80 0.929 1_655 S
C101 C99 1.446 . S
C101 C102 1.332 1_565 S
C102 H82 0.931 1_655 S
C102 C101 1.332 1_545 S
C102 C103 1.267 . S
C103 H71 0.929 . S
C103 C102 1.267 . S
C103 C104 1.251 1_545 S
C104 H74 0.929 . S
C104 N100 1.418 . S
C104 C103 1.251 1_565 S
C105 H72 0.930 . S
C105 C107 1.406 1_545 S
C105 C110 1.261 1_545 S
C106 H73 0.930 . S
C106 N108 1.325 . S
C106 C109 1.357 . S
C107 H75 0.928 . S
C107 C105 1.406 1_565 S
C107 N108 1.261 . S
N108 Co59 2.214 . S
N108 C106 1.325 . S
N108 C107 1.261 . S
C109 H79 0.931 . S
C109 C106 1.357 . S
C109 C110 1.312 . S
C110 H81 0.930 1_565 S
C110 C105 1.261 1_565 S
C110 C109 1.312 . S
C111 O83 1.214 . S
C111 O91 1.234 . S
C112 H84 0.929 . S
C112 C115 1.391 . S
C112 C117 1.391 . S
C113 H85 0.929 . S
C113 C114 1.390 . S
C113 N116 1.391 . S
C114 H86 0.930 . S
C114 C113 1.390 . S
C114 C115 1.392 . S
C115 H87 0.929 . S
C115 C112 1.391 . S
C115 C114 1.392 . S
N116 Co60 2.257 . S
N116 C113 1.391 . S
N116 C117 1.388 . S
C117 H88 0.930 . S
C117 C112 1.391 . S
C117 N116 1.388 . S
Co118 O120 2.143 . S
Co118 O126 2.074 . S
Co118 O129 2.093 . S
Co118 O142 2.097 . S
Co118 N159 2.151 . S
Co118 N167 2.214 . S
Co119 O120 2.160 . S
Co119 O125 2.058 . S
Co119 O135 2.057 . S
Co119 O150 2.037 . S
Co119 N154 2.145 . S
Co119 N175 2.257 . S
O120 Co118 2.143 . S
O120 Co119 2.160 . S
C121 O122 1.278 . S
C121 O129 1.224 . S
O122 C121 1.278 . S
C123 O124 1.245 . S
C123 O135 1.232 . S
O124 C123 1.245 . S
O125 Co119 2.058 . S
O125 C151 1.269 . S
O126 Co118 2.074 . S
O126 C151 1.257 . S
H127 C152 0.930 . S
H128 C158 0.930 . S
O129 Co118 2.093 . S
O129 C121 1.224 . S
H130 C162 0.929 . S
H131 C164 0.930 . S
H132 C165 0.930 . S
H133 C163 0.929 . S
H134 C166 0.928 . S
O135 Co119 2.057 . S
O135 C123 1.232 . S
H136 C155 0.929 . S
H137 C156 0.929 . S
H138 C168 0.931 . S
H139 C160 0.929 1_565 S
H140 C169 0.930 1_655 S
H141 C161 0.931 1_565 S
O142 Co118 2.097 . S
O142 C170 1.214 . S
H143 C171 0.929 . S
H144 C172 0.929 . S
H145 C173 0.930 . S
H146 C174 0.929 . S
H147 C176 0.930 . S
H148 C153 0.930 . S
H149 C157 0.930 . S
O150 Co119 2.037 . S
O150 C170 1.234 . S
C151 O125 1.269 . S
C151 O126 1.257 . S
C152 H127 0.930 . S
C152 C155 1.388 . S
C152 C157 1.418 . S
C153 H148 0.930 . S
C153 C156 1.404 . S
C153 C157 1.353 . S
N154 Co119 2.145 . S
N154 C155 1.397 . S
N154 C156 1.334 . S
C155 H136 0.929 . S
C155 C152 1.388 . S
C155 N154 1.397 . S
C156 H137 0.929 . S
C156 C153 1.404 . S
C156 N154 1.334 . S
C157 H149 0.930 . S
C157 C152 1.418 . S
C157 C153 1.353 . S
C158 H128 0.930 . S
C158 N159 1.330 . S
C158 C160 1.446 . S
N159 Co118 2.151 . S
N159 C158 1.330 . S
N159 C163 1.418 . S
C160 H139 0.929 1_545 S
C160 C158 1.446 . S
C160 C161 1.332 1_455 S
C161 H141 0.931 1_545 S
C161 C160 1.332 1_655 S
C161 C162 1.267 . S
C162 H130 0.929 . S
C162 C161 1.267 . S
C162 C163 1.251 1_655 S
C163 H133 0.929 . S
C163 N159 1.418 . S
C163 C162 1.251 1_455 S
C164 H131 0.930 . S
C164 C166 1.406 1_655 S
C164 C169 1.261 1_655 S
C165 H132 0.930 . S
C165 N167 1.325 . S
C165 C168 1.357 . S
C166 H134 0.928 . S
C166 C164 1.406 1_455 S
C166 N167 1.261 . S
N167 Co118 2.214 . S
N167 C165 1.325 . S
N167 C166 1.261 . S
C168 H138 0.931 . S
C168 C165 1.357 . S
C168 C169 1.312 . S
C169 H140 0.930 1_455 S
C169 C164 1.261 1_455 S
C169 C168 1.312 . S
C170 O142 1.214 . S
C170 O150 1.234 . S
C171 H143 0.929 . S
C171 C174 1.391 . S
C171 C176 1.391 . S
C172 H144 0.929 . S
C172 C173 1.390 . S
C172 N175 1.391 . S
C173 H145 0.930 . S
C173 C172 1.390 . S
C173 C174 1.392 . S
C174 H146 0.929 . S
C174 C171 1.391 . S
C174 C173 1.392 . S
N175 Co119 2.257 . S
N175 C172 1.391 . S
N175 C176 1.388 . S
C176 H147 0.930 . S
C176 C171 1.391 . S
C176 N175 1.388 . S
Co177 O179 2.143 . S
Co177 O185 2.074 . S
Co177 O188 2.093 . S
Co177 O201 2.097 . S
Co177 N218 2.151 . S
Co177 N226 2.214 . S
Co178 O179 2.160 . S
Co178 O184 2.058 . S
Co178 O194 2.057 . S
Co178 O209 2.037 . S
Co178 N213 2.145 1_565 S
Co178 N234 2.257 1_565 S
O179 Co177 2.143 . S
O179 Co178 2.160 . S
C180 O181 1.278 . S
C180 O188 1.224 . S
O181 C180 1.278 . S
C182 O183 1.245 . S
C182 O194 1.232 . S
O183 C182 1.245 . S
O184 Co178 2.058 . S
O184 C210 1.269 . S
O185 Co177 2.074 . S
O185 C210 1.257 . S
H186 C211 0.930 . S
H187 C217 0.930 . S
O188 Co177 2.093 . S
O188 C180 1.224 . S
H189 C221 0.929 . S
H190 C223 0.930 . S
H191 C224 0.930 . S
H192 C222 0.929 . S
H193 C225 0.928 . S
O194 Co178 2.057 . S
O194 C182 1.232 . S
H195 C214 0.929 . S
H196 C215 0.929 . S
H197 C227 0.931 . S
H198 C219 0.929 . S
H199 C228 0.930 . S
H200 C220 0.931 . S
O201 Co177 2.097 . S
O201 C229 1.214 . S
H202 C230 0.929 . S
H203 C231 0.929 . S
H204 C232 0.930 . S
H205 C233 0.929 . S
H206 C235 0.930 . S
H207 C212 0.930 . S
H208 C216 0.930 . S
O209 Co178 2.037 . S
O209 C229 1.234 . S
C210 O184 1.269 . S
C210 O185 1.257 . S
C211 H186 0.930 . S
C211 C214 1.388 1_554 S
C211 C216 1.418 . S
C212 H207 0.930 . S
C212 C215 1.404 1_554 S
C212 C216 1.353 . S
N213 Co178 2.145 1_545 S
N213 C214 1.397 . S
N213 C215 1.334 . S
C214 H195 0.929 . S
C214 C211 1.388 1_556 S
C214 N213 1.397 . S
C215 H196 0.929 . S
C215 C212 1.404 1_556 S
C215 N213 1.334 . S
C216 H208 0.930 . S
C216 C211 1.418 . S
C216 C212 1.353 . S
C217 H187 0.930 . S
C217 N218 1.330 . S
C217 C219 1.446 . S
N218 Co177 2.151 . S
N218 C217 1.330 . S
N218 C222 1.418 . S
C219 H198 0.929 . S
C219 C217 1.446 . S
C219 C220 1.332 . S
C220 H200 0.931 . S
C220 C219 1.332 . S
C220 C221 1.267 . S
C221 H189 0.929 . S
C221 C220 1.267 . S
C221 C222 1.251 . S
C222 H192 0.929 . S
C222 N218 1.418 . S
C222 C221 1.251 . S
C223 H190 0.930 . S
C223 C225 1.406 . S
C223 C228 1.261 1_655 S
C224 H191 0.930 . S
C224 N226 1.325 . S
C224 C227 1.357 1_655 S
C225 H193 0.928 . S
C225 C223 1.406 . S
C225 N226 1.261 . S
N226 Co177 2.214 . S
N226 C224 1.325 . S
N226 C225 1.261 . S
C227 H197 0.931 . S
C227 C224 1.357 1_455 S
C227 C228 1.312 . S
C228 H199 0.930 . S
C228 C223 1.261 1_455 S
C228 C227 1.312 . S
C229 O201 1.214 . S
C229 O209 1.234 . S
C230 H202 0.929 . S
C230 C233 1.391 . S
C230 C235 1.391 . S
C231 H203 0.929 . S
C231 C232 1.390 . S
C231 N234 1.391 . S
C232 H204 0.930 . S
C232 C231 1.390 . S
C232 C233 1.392 . S
C233 H205 0.929 . S
C233 C230 1.391 . S
C233 C232 1.392 . S
N234 Co178 2.257 1_545 S
N234 C231 1.391 . S
N234 C235 1.388 . S
C235 H206 0.930 . S
C235 C230 1.391 . S
C235 N234 1.388 . S
Co236 O238 2.143 . S
Co236 O244 2.074 . S
Co236 O247 2.093 . S
Co236 O260 2.097 . S
Co236 N277 2.151 . S
Co236 N285 2.214 . S
Co237 O238 2.160 . S
Co237 O243 2.058 . S
Co237 O253 2.057 . S
Co237 O268 2.037 . S
Co237 N272 2.145 . S
Co237 N293 2.257 . S
O238 Co236 2.143 . S
O238 Co237 2.160 . S
C239 O240 1.278 . S
C239 O247 1.224 . S
O240 C239 1.278 . S
C241 O242 1.245 . S
C241 O253 1.232 . S
O242 C241 1.245 . S
O243 Co237 2.058 . S
O243 C269 1.269 . S
O244 Co236 2.074 . S
O244 C269 1.257 . S
H245 C270 0.930 . S
H246 C276 0.930 . S
O247 Co236 2.093 . S
O247 C239 1.224 . S
H248 C280 0.929 . S
H249 C282 0.930 . S
H250 C283 0.930 . S
H251 C281 0.929 . S
H252 C284 0.928 . S
O253 Co237 2.057 . S
O253 C241 1.232 . S
H254 C273 0.929 . S
H255 C274 0.929 . S
H256 C286 0.931 . S
H257 C278 0.929 1_545 S
H258 C287 0.930 1_455 S
H259 C279 0.931 1_545 S
O260 Co236 2.097 . S
O260 C288 1.214 . S
H261 C289 0.929 . S
H262 C290 0.929 . S
H263 C291 0.930 . S
H264 C292 0.929 . S
H265 C294 0.930 . S
H266 C271 0.930 . S
H267 C275 0.930 . S
O268 Co237 2.037 . S
O268 C288 1.234 . S
C269 O243 1.269 . S
C269 O244 1.257 . S
C270 H245 0.930 . S
C270 C273 1.388 . S
C270 C275 1.418 . S
C271 H266 0.930 . S
C271 C274 1.404 . S
C271 C275 1.353 . S
N272 Co237 2.145 . S
N272 C273 1.397 . S
N272 C274 1.334 . S
C273 H254 0.929 . S
C273 C270 1.388 . S
C273 N272 1.397 . S
C274 H255 0.929 . S
C274 C271 1.404 . S
C274 N272 1.334 . S
C275 H267 0.930 . S
C275 C270 1.418 . S
C275 C271 1.353 . S
C276 H246 0.930 . S
C276 N277 1.330 . S
C276 C278 1.446 . S
N277 Co236 2.151 . S
N277 C276 1.330 . S
N277 C281 1.418 . S
C278 H257 0.929 1_565 S
C278 C276 1.446 . S
C278 C279 1.332 1_655 S
C279 H259 0.931 1_565 S
C279 C278 1.332 1_455 S
C279 C280 1.267 . S
C280 H248 0.929 . S
C280 C279 1.267 . S
C280 C281 1.251 1_455 S
C281 H251 0.929 . S
C281 N277 1.418 . S
C281 C280 1.251 1_655 S
C282 H249 0.930 . S
C282 C284 1.406 1_455 S
C282 C287 1.261 1_455 S
C283 H250 0.930 . S
C283 N285 1.325 . S
C283 C286 1.357 . S
C284 H252 0.928 . S
C284 C282 1.406 1_655 S
C284 N285 1.261 . S
N285 Co236 2.214 . S
N285 C283 1.325 . S
N285 C284 1.261 . S
C286 H256 0.931 . S
C286 C283 1.357 . S
C286 C287 1.312 . S
C287 H258 0.930 1_655 S
C287 C282 1.261 1_655 S
C287 C286 1.312 . S
C288 O260 1.214 . S
C288 O268 1.234 . S
C289 H261 0.929 . S
C289 C292 1.391 . S
C289 C294 1.391 . S
C290 H262 0.929 . S
C290 C291 1.390 . S
C290 N293 1.391 . S
C291 H263 0.930 . S
C291 C290 1.390 . S
C291 C292 1.392 . S
C292 H264 0.929 . S
C292 C289 1.391 . S
C292 C291 1.392 . S
N293 Co237 2.257 . S
N293 C290 1.391 . S
N293 C294 1.388 . S
C294 H265 0.930 . S
C294 C289 1.391 . S
C294 N293 1.388 . S
Co295 O297 2.143 . S
Co295 O303 2.074 . S
Co295 O306 2.093 . S
Co295 O319 2.097 . S
Co295 N336 2.151 . S
Co295 N344 2.214 . S
Co296 O297 2.160 . S
Co296 O302 2.058 . S
Co296 O312 2.057 . S
Co296 O327 2.037 . S
Co296 N331 2.145 1_545 S
Co296 N352 2.257 1_545 S
O297 Co295 2.143 . S
O297 Co296 2.160 . S
C298 O299 1.278 . S
C298 O306 1.224 . S
O299 C298 1.278 . S
C300 O301 1.245 . S
C300 O312 1.232 . S
O301 C300 1.245 . S
O302 Co296 2.058 . S
O302 C328 1.269 . S
O303 Co295 2.074 . S
O303 C328 1.257 . S
H304 C329 0.930 . S
H305 C335 0.930 . S
O306 Co295 2.093 . S
O306 C298 1.224 . S
H307 C339 0.929 . S
H308 C341 0.930 . S
H309 C342 0.930 . S
H310 C340 0.929 . S
H311 C343 0.928 . S
O312 Co296 2.057 . S
O312 C300 1.232 . S
H313 C332 0.929 . S
H314 C333 0.929 . S
H315 C345 0.931 . S
H316 C337 0.929 . S
H317 C346 0.930 . S
H318 C338 0.931 . S
O319 Co295 2.097 . S
O319 C347 1.214 . S
H320 C348 0.929 . S
H321 C349 0.929 . S
H322 C350 0.930 . S
H323 C351 0.929 . S
H324 C353 0.930 . S
H325 C330 0.930 . S
H326 C334 0.930 . S
O327 Co296 2.037 . S
O327 C347 1.234 . S
C328 O302 1.269 . S
C328 O303 1.257 . S
C329 H304 0.930 . S
C329 C332 1.388 1_554 S
C329 C334 1.418 . S
C330 H325 0.930 . S
C330 C333 1.404 1_554 S
C330 C334 1.353 . S
N331 Co296 2.145 1_565 S
N331 C332 1.397 . S
N331 C333 1.334 . S
C332 H313 0.929 . S
C332 C329 1.388 1_556 S
C332 N331 1.397 . S
C333 H314 0.929 . S
C333 C330 1.404 1_556 S
C333 N331 1.334 . S
C334 H326 0.930 . S
C334 C329 1.418 . S
C334 C330 1.353 . S
C335 H305 0.930 . S
C335 N336 1.330 . S
C335 C337 1.446 . S
N336 Co295 2.151 . S
N336 C335 1.330 . S
N336 C340 1.418 . S
C337 H316 0.929 . S
C337 C335 1.446 . S
C337 C338 1.332 . S
C338 H318 0.931 . S
C338 C337 1.332 . S
C338 C339 1.267 . S
C339 H307 0.929 . S
C339 C338 1.267 . S
C339 C340 1.251 . S
C340 H310 0.929 . S
C340 N336 1.418 . S
C340 C339 1.251 . S
C341 H308 0.930 . S
C341 C343 1.406 . S
C341 C346 1.261 1_455 S
C342 H309 0.930 . S
C342 N344 1.325 . S
C342 C345 1.357 1_455 S
C343 H311 0.928 . S
C343 C341 1.406 . S
C343 N344 1.261 . S
N344 Co295 2.214 . S
N344 C342 1.325 . S
N344 C343 1.261 . S
C345 H315 0.931 . S
C345 C342 1.357 1_655 S
C345 C346 1.312 . S
C346 H317 0.930 . S
C346 C341 1.261 1_655 S
C346 C345 1.312 . S
C347 O319 1.214 . S
C347 O327 1.234 . S
C348 H320 0.929 . S
C348 C351 1.391 . S
C348 C353 1.391 . S
C349 H321 0.929 . S
C349 C350 1.390 . S
C349 N352 1.391 . S
C350 H322 0.930 . S
C350 C349 1.390 . S
C350 C351 1.392 . S
C351 H323 0.929 . S
C351 C348 1.391 . S
C351 C350 1.392 . S
N352 Co296 2.257 1_565 S
N352 C349 1.391 . S
N352 C353 1.388 . S
C353 H324 0.930 . S
C353 C348 1.391 . S
C353 N352 1.388 . S
Co354 O356 2.143 . S
Co354 O362 2.074 . S
Co354 O365 2.093 . S
Co354 O378 2.097 . S
Co354 N395 2.151 . S
Co354 N403 2.214 . S
Co355 O356 2.160 . S
Co355 O361 2.058 . S
Co355 O371 2.057 . S
Co355 O386 2.037 . S
Co355 N390 2.145 1_655 S
Co355 N411 2.257 1_655 S
O356 Co354 2.143 . S
O356 Co355 2.160 . S
C357 O358 1.278 . S
C357 O365 1.224 . S
O358 C357 1.278 . S
C359 O360 1.245 . S
C359 O371 1.232 . S
O360 C359 1.245 . S
O361 Co355 2.058 . S
O361 C387 1.269 . S
O362 Co354 2.074 . S
O362 C387 1.257 . S
H363 C388 0.930 . S
H364 C394 0.930 . S
O365 Co354 2.093 . S
O365 C357 1.224 . S
H366 C398 0.929 . S
H367 C400 0.930 . S
H368 C401 0.930 . S
H369 C399 0.929 . S
H370 C402 0.928 . S
O371 Co355 2.057 . S
O371 C359 1.232 . S
H372 C391 0.929 . S
H373 C392 0.929 . S
H374 C404 0.931 . S
H375 C396 0.929 . S
H376 C405 0.930 . S
H377 C397 0.931 . S
O378 Co354 2.097 . S
O378 C406 1.214 . S
H379 C407 0.929 . S
H380 C408 0.929 . S
H381 C409 0.930 . S
H382 C410 0.929 . S
H383 C412 0.930 . S
H384 C389 0.930 . S
H385 C393 0.930 . S
O386 Co355 2.037 . S
O386 C406 1.234 . S
C387 O361 1.269 . S
C387 O362 1.257 . S
C388 H363 0.930 . S
C388 C391 1.388 1_556 S
C388 C393 1.418 . S
C389 H384 0.930 . S
C389 C392 1.404 1_556 S
C389 C393 1.353 . S
N390 Co355 2.145 1_455 S
N390 C391 1.397 . S
N390 C392 1.334 . S
C391 H372 0.929 . S
C391 C388 1.388 1_554 S
C391 N390 1.397 . S
C392 H373 0.929 . S
C392 C389 1.404 1_554 S
C392 N390 1.334 . S
C393 H385 0.930 . S
C393 C388 1.418 . S
C393 C389 1.353 . S
C394 H364 0.930 . S
C394 N395 1.330 . S
C394 C396 1.446 . S
N395 Co354 2.151 . S
N395 C394 1.330 . S
N395 C399 1.418 . S
C396 H375 0.929 . S
C396 C394 1.446 . S
C396 C397 1.332 . S
C397 H377 0.931 . S
C397 C396 1.332 . S
C397 C398 1.267 . S
C398 H366 0.929 . S
C398 C397 1.267 . S
C398 C399 1.251 . S
C399 H369 0.929 . S
C399 N395 1.418 . S
C399 C398 1.251 . S
C400 H367 0.930 . S
C400 C402 1.406 . S
C400 C405 1.261 1_565 S
C401 H368 0.930 . S
C401 N403 1.325 . S
C401 C404 1.357 1_565 S
C402 H370 0.928 . S
C402 C400 1.406 . S
C402 N403 1.261 . S
N403 Co354 2.214 . S
N403 C401 1.325 . S
N403 C402 1.261 . S
C404 H374 0.931 . S
C404 C401 1.357 1_545 S
C404 C405 1.312 . S
C405 H376 0.930 . S
C405 C400 1.261 1_545 S
C405 C404 1.312 . S
C406 O378 1.214 . S
C406 O386 1.234 . S
C407 H379 0.929 . S
C407 C410 1.391 . S
C407 C412 1.391 . S
C408 H380 0.929 . S
C408 C409 1.390 . S
C408 N411 1.391 . S
C409 H381 0.930 . S
C409 C408 1.390 . S
C409 C410 1.392 . S
C410 H382 0.929 . S
C410 C407 1.391 . S
C410 C409 1.392 . S
N411 Co355 2.257 1_455 S
N411 C408 1.391 . S
N411 C412 1.388 . S
C412 H383 0.930 . S
C412 C407 1.391 . S
C412 N411 1.388 . S
Co413 O415 2.143 . S
Co413 O421 2.074 . S
Co413 O424 2.093 . S
Co413 O437 2.097 . S
Co413 N454 2.151 . S
Co413 N462 2.214 . S
Co414 O415 2.160 . S
Co414 O420 2.058 . S
Co414 O430 2.057 . S
Co414 O445 2.037 . S
Co414 N449 2.145 . S
Co414 N470 2.257 . S
O415 Co413 2.143 . S
O415 Co414 2.160 . S
C416 O417 1.278 . S
C416 O424 1.224 . S
O417 C416 1.278 . S
C418 O419 1.245 . S
C418 O430 1.232 . S
O419 C418 1.245 . S
O420 Co414 2.058 . S
O420 C446 1.269 . S
O421 Co413 2.074 . S
O421 C446 1.257 . S
H422 C447 0.930 . S
H423 C453 0.930 . S
O424 Co413 2.093 . S
O424 C416 1.224 . S
H425 C457 0.929 . S
H426 C459 0.930 . S
H427 C460 0.930 . S
H428 C458 0.929 . S
H429 C461 0.928 . S
O430 Co414 2.057 . S
O430 C418 1.232 . S
H431 C450 0.929 . S
H432 C451 0.929 . S
H433 C463 0.931 . S
H434 C455 0.929 1_655 S
H435 C464 0.930 1_565 S
H436 C456 0.931 1_655 S
O437 Co413 2.097 . S
O437 C465 1.214 . S
H438 C466 0.929 . S
H439 C467 0.929 . S
H440 C468 0.930 . S
H441 C469 0.929 . S
H442 C471 0.930 . S
H443 C448 0.930 . S
H444 C452 0.930 . S
O445 Co414 2.037 . S
O445 C465 1.234 . S
C446 O420 1.269 . S
C446 O421 1.257 . S
C447 H422 0.930 . S
C447 C450 1.388 . S
C447 C452 1.418 . S
C448 H443 0.930 . S
C448 C451 1.404 . S
C448 C452 1.353 . S
N449 Co414 2.145 . S
N449 C450 1.397 . S
N449 C451 1.334 . S
C450 H431 0.929 . S
C450 C447 1.388 . S
C450 N449 1.397 . S
C451 H432 0.929 . S
C451 C448 1.404 . S
C451 N449 1.334 . S
C452 H444 0.930 . S
C452 C447 1.418 . S
C452 C448 1.353 . S
C453 H423 0.930 . S
C453 N454 1.330 . S
C453 C455 1.446 . S
N454 Co413 2.151 . S
N454 C453 1.330 . S
N454 C458 1.418 . S
C455 H434 0.929 1_455 S
C455 C453 1.446 . S
C455 C456 1.332 1_545 S
C456 H436 0.931 1_455 S
C456 C455 1.332 1_565 S
C456 C457 1.267 . S
C457 H425 0.929 . S
C457 C456 1.267 . S
C457 C458 1.251 1_565 S
C458 H428 0.929 . S
C458 N454 1.418 . S
C458 C457 1.251 1_545 S
C459 H426 0.930 . S
C459 C461 1.406 1_565 S
C459 C464 1.261 1_565 S
C460 H427 0.930 . S
C460 N462 1.325 . S
C460 C463 1.357 . S
C461 H429 0.928 . S
C461 C459 1.406 1_545 S
C461 N462 1.261 . S
N462 Co413 2.214 . S
N462 C460 1.325 . S
N462 C461 1.261 . S
C463 H433 0.931 . S
C463 C460 1.357 . S
C463 C464 1.312 . S
C464 H435 0.930 1_545 S
C464 C459 1.261 1_545 S
C464 C463 1.312 . S
C465 O437 1.214 . S
C465 O445 1.234 . S
C466 H438 0.929 . S
C466 C469 1.391 . S
C466 C471 1.391 . S
C467 H439 0.929 . S
C467 C468 1.390 . S
C467 N470 1.391 . S
C468 H440 0.930 . S
C468 C467 1.390 . S
C468 C469 1.392 . S
C469 H441 0.929 . S
C469 C466 1.391 . S
C469 C468 1.392 . S
N470 Co414 2.257 . S
N470 C467 1.391 . S
N470 C471 1.388 . S
C471 H442 0.930 . S
C471 C466 1.391 . S
C471 N470 1.388 . S
C33 C328 1.287 1_554 S
C62 C357 1.475 . S
C151 C446 1.287 . S
C180 C239 1.475 . S
C416 C3 1.475 . S
C269 C92 1.287 . S
C121 C298 1.475 . S
C387 C210 1.287 1_554 S
C52 C406 1.941 1_445 S
C418 C64 1.972 1_455 S
C170 C288 1.941 . S
C182 C300 1.972 1_565 S
C359 C5 1.972 1_655 S
C465 C111 1.941 . S
C123 C241 1.972 1_545 S
C229 C347 1.941 1_665 S
