# Generated by pormake.
# Topology wju, (5)-cn, num edge types: 1
# Building blocks:
#     Node 0, Type 0, BuildingBlock: XOMCOT_clean_sbu_0, # of connection points: 5
#     Node 1, Type 0, BuildingBlock: XOMCOT_clean_sbu_0, # of connection points: 5
#     Node 2, Type 0, BuildingBlock: XOMCOT_clean_sbu_0, # of connection points: 5
#     Node 3, Type 0, BuildingBlock: XOMCOT_clean_sbu_0, # of connection points: 5
#     Node 4, Type 0, BuildingBlock: XOMCOT_clean_sbu_0, # of connection points: 5
#     Node 5, Type 0, BuildingBlock: XOMCOT_clean_sbu_0, # of connection points: 5
#     Node 6, Type 0, BuildingBlock: XOMCOT_clean_sbu_0, # of connection points: 5
#     Node 7, Type 0, BuildingBlock: XOMCOT_clean_sbu_0, # of connection points: 5
#     Node 8, Type 0, BuildingBlock: XOMCOT_clean_sbu_0, # of connection points: 5
#     Node 9, Type 0, BuildingBlock: XOMCOT_clean_sbu_0, # of connection points: 5
#     Node 10, Type 0, BuildingBlock: XOMCOT_clean_sbu_0, # of connection points: 5
#     Node 11, Type 0, BuildingBlock: XOMCOT_clean_sbu_0, # of connection points: 5
#     Edge 12, Type (0, 0), BuildingBlock: AJUNOK_clean_linker_0, # of connection points: 2
#     Edge 13, Type (0, 0), BuildingBlock: AJUNOK_clean_linker_0, # of connection points: 2
#     Edge 14, Type (0, 0), BuildingBlock: AJUNOK_clean_linker_0, # of connection points: 2
#     Edge 15, Type (0, 0), BuildingBlock: AJUNOK_clean_linker_0, # of connection points: 2
#     Edge 16, Type (0, 0), BuildingBlock: AJUNOK_clean_linker_0, # of connection points: 2
#     Edge 17, Type (0, 0), BuildingBlock: AJUNOK_clean_linker_0, # of connection points: 2
#     Edge 18, Type (0, 0), BuildingBlock: AJUNOK_clean_linker_0, # of connection points: 2
#     Edge 19, Type (0, 0), BuildingBlock: AJUNOK_clean_linker_0, # of connection points: 2
#     Edge 20, Type (0, 0), BuildingBlock: AJUNOK_clean_linker_0, # of connection points: 2
#     Edge 21, Type (0, 0), BuildingBlock: AJUNOK_clean_linker_0, # of connection points: 2
#     Edge 22, Type (0, 0), BuildingBlock: AJUNOK_clean_linker_0, # of connection points: 2
#     Edge 23, Type (0, 0), BuildingBlock: AJUNOK_clean_linker_0, # of connection points: 2
#     Edge 24, Type (0, 0), BuildingBlock: AJUNOK_clean_linker_0, # of connection points: 2
#     Edge 25, Type (0, 0), BuildingBlock: AJUNOK_clean_linker_0, # of connection points: 2
#     Edge 26, Type (0, 0), BuildingBlock: AJUNOK_clean_linker_0, # of connection points: 2
#     Edge 27, Type (0, 0), BuildingBlock: AJUNOK_clean_linker_0, # of connection points: 2
#     Edge 28, Type (0, 0), BuildingBlock: AJUNOK_clean_linker_0, # of connection points: 2
#     Edge 29, Type (0, 0), BuildingBlock: AJUNOK_clean_linker_0, # of connection points: 2
#     Edge 30, Type (0, 0), BuildingBlock: AJUNOK_clean_linker_0, # of connection points: 2
#     Edge 31, Type (0, 0), BuildingBlock: AJUNOK_clean_linker_0, # of connection points: 2
#     Edge 32, Type (0, 0), BuildingBlock: AJUNOK_clean_linker_0, # of connection points: 2
#     Edge 33, Type (0, 0), BuildingBlock: AJUNOK_clean_linker_0, # of connection points: 2
#     Edge 34, Type (0, 0), BuildingBlock: AJUNOK_clean_linker_0, # of connection points: 2
#     Edge 35, Type (0, 0), BuildingBlock: AJUNOK_clean_linker_0, # of connection points: 2
#     Edge 36, Type (0, 0), BuildingBlock: AJUNOK_clean_linker_0, # of connection points: 2
#     Edge 37, Type (0, 0), BuildingBlock: AJUNOK_clean_linker_0, # of connection points: 2
#     Edge 38, Type (0, 0), BuildingBlock: AJUNOK_clean_linker_0, # of connection points: 2
#     Edge 39, Type (0, 0), BuildingBlock: AJUNOK_clean_linker_0, # of connection points: 2
#     Edge 40, Type (0, 0), BuildingBlock: AJUNOK_clean_linker_0, # of connection points: 2
#     Edge 41, Type (0, 0), BuildingBlock: AJUNOK_clean_linker_0, # of connection points: 2
# Relax obj value: 0.110
# Max RMSD: 0.149
# Mean RMSD: 0.149
data_MOF--net-wju--node1-XOMCOT_clean_sbu_0--edge1-AJUNOK_clean_linker_0
_symmetry_space_group_name_H-M    P1
_symmetry_Int_Tables_number       1
_symmetry_cell_setting            triclinic
loop_
_symmetry_equiv_pos_as_xyz
'x, y, z'
_cell_length_a     20.964996
_cell_length_b     21.010689
_cell_length_c     79.402454
_cell_angle_alpha  90.398956
_cell_angle_beta   90.11375
_cell_angle_gamma 120.00829
loop_
_atom_site_label
_atom_site_type_symbol
_atom_site_fract_x
_atom_site_fract_y
_atom_site_fract_z
_atom_type_partial_charge
Co0 Co 0.3529 0.10421 0.11245 0.0
C1 C 0.31235 0.10816 0.14778 0.0
C2 C 0.36231 0.04102 0.14548 0.0
C3 C 0.34807 0.04572 0.16227 0.0
N4 N 0.34094 0.08135 0.1364 0.0
N5 N 0.31765 0.08878 0.16366 0.0
H6 H 0.29113 0.14415 0.14461 0.0
H7 H 0.38888 1.01225 0.14051 0.0
C8 C 0.19999 0.07315 0.10081 0.0
O9 O 0.22829 0.1123 0.08722 0.0
N10 N 0.3629 0.12395 0.08845 0.0
C11 C 0.40652 0.18738 0.08036 0.0
C12 C 0.3991 0.17363 0.06321 0.0
C13 C 0.33217 0.07225 0.07617 0.0
N14 N 0.35234 0.10124 0.06068 0.0
C15 C 0.43739 0.23873 0.12901 0.0
C16 C 0.38605 0.3215 0.1136 0.0
C17 C 0.44974 0.35652 0.12373 0.0
C18 C 0.47332 0.31375 0.13197 0.0
C19 C 0.35079 0.24504 0.11103 0.0
N20 N 0.37854 0.20494 0.1182 0.0
H21 H 0.45939 0.20784 0.13503 0.0
H22 H 0.30494 0.22022 0.10251 0.0
H23 H 0.44264 0.2396 0.08642 0.0
H24 H 0.29496 1.01452 0.07854 0.0
O25 O 0.45328 0.12583 0.11273 0.0
O26 O 0.35924 1.01512 0.10775 0.0
O27 O 0.24125 0.06469 0.11152 0.0
C28 C 0.43081 0.05824 0.10892 0.0
H29 H 0.36293 0.02291 0.17275 0.0
H30 H 0.42743 0.21327 0.05338 0.0
H31 H 0.36642 0.35328 0.10695 0.0
H32 H 0.52147 0.33861 0.14011 0.0
Co33 Co 0.24058 0.32245 0.44455 0.0
C34 C 0.20244 0.29607 0.48134 0.0
C35 C 0.30825 0.3086 0.47613 0.0
C36 C 0.29558 0.29796 0.49312 0.0
N37 N 0.2506 0.30913 0.46864 0.0
N38 N 0.22969 0.2916 0.49648 0.0
H39 H 0.14905 0.29136 0.47969 0.0
H40 H 0.35686 0.31531 0.46987 0.0
C41 C 0.12443 0.17096 0.43109 0.0
O42 O 0.11968 0.20165 0.41719 0.0
N43 N 0.23426 0.3348 0.42048 0.0
C44 C 0.21419 0.37744 0.41199 0.0
C45 C 0.22336 0.3706 0.39494 0.0
C46 C 0.2587 0.30598 0.40859 0.0
N47 N 0.25042 0.32469 0.39286 0.0
C48 C 0.18548 0.40596 0.45936 0.0
C49 C 0.05382 0.34956 0.44209 0.0
C50 C 0.07988 0.41493 0.45143 0.0
C51 C 0.1449 0.44117 0.46066 0.0
C52 C 0.09611 0.31485 0.44133 0.0
N53 N 0.16291 0.34516 0.44933 0.0
H54 H 0.23748 0.42991 0.466 0.0
H55 H 0.0768 0.26707 0.43348 0.0
H56 H 0.19521 0.41183 0.41769 0.0
H57 H 0.28185 0.27149 0.41154 0.0
O58 O 0.31795 0.42303 0.44565 0.0
O59 O 0.33762 0.33137 0.44036 0.0
O60 O 0.16884 0.21051 0.44298 0.0
C61 C 0.36461 0.40243 0.44202 0.0
H62 H 0.33219 0.29467 0.50224 0.0
H63 H 0.21058 0.39697 0.38488 0.0
H64 H 1.00277 0.32707 0.43501 0.0
H65 H 0.16676 0.49132 0.46809 0.0
Co66 Co 0.93931 0.24195 0.7775 0.0
C67 C 0.92544 0.19269 0.81305 0.0
C68 C 1.00681 0.3066 0.81092 0.0
C69 C 0.99975 0.28774 0.82767 0.0
N70 N 0.9591 0.24728 0.8017 0.0
N71 N 0.94784 0.21645 0.829 0.0
H72 H 0.88353 0.13711 0.8098 0.0
H73 H 0.04307 0.36085 0.80608 0.0
C74 C 0.96725 0.12105 0.76397 0.0
O75 O 0.93864 0.12359 0.74949 0.0
N76 N 0.92296 0.23963 0.75331 0.0
C77 C 0.86116 0.22413 0.74475 0.0
C78 C 0.87785 0.23679 0.72785 0.0
C79 C 0.97668 0.26486 0.7416 0.0
N80 N 0.95053 0.26175 0.72587 0.0
C81 C 0.80112 0.18962 0.79206 0.0
C82 C 0.72149 0.06198 0.77356 0.0
C83 C 0.68423 0.08825 0.78356 0.0
C84 C 0.72524 0.15123 0.79334 0.0
C85 C 0.79864 0.10221 0.77275 0.0
N86 N 0.83729 0.16698 0.78146 0.0
H87 H 0.83094 0.24025 0.79917 0.0
H88 H 0.82561 0.08338 0.7643 0.0
H89 H 0.80803 0.20672 0.75035 0.0
H90 H 0.03407 0.28589 0.74469 0.0
O91 O 0.91991 0.32168 0.77889 0.0
O92 O 0.03038 0.33737 0.77436 0.0
O93 O 0.97448 0.16613 0.77589 0.0
C94 C 0.98823 0.36675 0.77592 0.0
H95 H 0.02774 0.32461 0.83816 0.0
H96 H 0.83935 0.22842 0.71781 0.0
H97 H 0.6913 1.01241 0.76604 0.0
H98 H 0.69877 0.17333 0.80127 0.0
Co99 Co 0.73151 0.92213 0.10875 0.0
C100 C 0.70119 0.88702 0.14556 0.0
C101 C 0.7963 0.99197 0.14075 0.0
C102 C 0.79295 0.97904 0.15771 0.0
N103 N 0.73979 0.93392 0.13305 0.0
N104 N 0.73369 0.91263 0.16086 0.0
H105 H 0.65195 0.83471 0.14332 0.0
H106 H 0.83933 0.03908 0.13432 0.0
C107 C 0.87914 0.932 0.10293 0.0
O108 O 0.84455 0.86519 0.09661 0.0
N109 N 0.72811 0.91565 0.08402 0.0
C110 C 0.72964 0.86412 0.07399 0.0
C111 C 0.73693 0.88592 0.05751 0.0
C112 C 0.73675 0.96922 0.07323 0.0
N113 N 0.74163 0.95216 0.05699 0.0
C114 C 0.63961 0.77143 0.1035 0.0
C115 C 0.70254 0.71959 0.12613 0.0
C116 C 0.63328 0.67107 0.11904 0.0
C117 C 0.60335 0.69747 0.10722 0.0
C118 C 0.73776 0.79454 0.12198 0.0
N119 N 0.7057 0.81964 0.1108 0.0
H120 H 0.61264 0.79063 0.09502 0.0
H121 H 0.78823 0.83278 0.12844 0.0
H122 H 0.72893 0.81499 0.07813 0.0
H123 H 0.74397 0.02173 0.07718 0.0
O124 O 0.63101 0.90019 0.10962 0.0
O125 O 0.72525 1.0125 0.10757 0.0
O126 O 0.84292 0.96305 0.10783 0.0
C127 C 0.65374 0.9693 0.10842 0.0
H128 H 0.83393 1.01438 0.16687 0.0
H129 H 0.74063 0.85603 0.04675 0.0
H130 H 0.72724 0.70049 0.13533 0.0
H131 H 0.55078 0.66134 0.1012 0.0
Co132 Co 0.80044 0.70463 0.44413 0.0
C133 C 0.84111 0.73386 0.48094 0.0
C134 C 0.73712 0.72568 0.47564 0.0
C135 C 0.75068 0.73726 0.49264 0.0
N136 N 0.79297 0.72175 0.46819 0.0
N137 N 0.81541 0.74096 0.49605 0.0
H138 H 0.89335 0.736 0.47936 0.0
H139 H 0.68907 0.72054 0.46933 0.0
C140 C 0.91806 0.8532 0.43035 0.0
O141 O 0.91901 0.82026 0.41635 0.0
N142 N 0.80429 0.68817 0.42007 0.0
C143 C 0.82367 0.64369 0.41199 0.0
C144 C 0.81222 0.6459 0.3949 0.0
C145 C 0.77792 0.71362 0.40785 0.0
N146 N 0.78362 0.69007 0.39239 0.0
C147 C 0.85374 0.62001 0.45899 0.0
C148 C 0.98486 0.67364 0.44194 0.0
C149 C 0.95817 0.60874 0.45124 0.0
C150 C 0.89344 0.58391 0.46035 0.0
C151 C 0.94343 0.70924 0.4411 0.0
N152 N 0.87687 0.68025 0.44899 0.0
H153 H 0.8021 0.59735 0.46561 0.0
H154 H 0.96307 0.75653 0.43325 0.0
H155 H 0.84305 0.61049 0.41802 0.0
H156 H 0.75668 0.75038 0.41021 0.0
O157 O 0.72128 0.60512 0.44558 0.0
O158 O 0.70446 0.69807 0.43994 0.0
O159 O 0.87428 0.8157 0.44231 0.0
C160 C 0.67563 0.62709 0.44202 0.0
H161 H 0.71547 0.74291 0.50175 0.0
H162 H 0.82236 0.61594 0.38512 0.0
H163 H 0.03572 0.6951 0.43496 0.0
H164 H 0.87117 0.53425 0.46776 0.0
Co165 Co 0.11597 0.80076 0.77802 0.0
C166 C 0.12801 0.84759 0.81389 0.0
C167 C 0.05272 0.73205 0.81119 0.0
C168 C 0.05947 0.7503 0.82806 0.0
N169 N 0.09686 0.79291 0.80225 0.0
N170 N 0.10759 0.8227 0.82973 0.0
H171 H 0.16699 0.90423 0.81093 0.0
H172 H 1.01931 0.67731 0.80605 0.0
C173 C 0.07401 0.91286 0.76559 0.0
O174 O 0.10542 0.91704 0.75108 0.0
N175 N 0.1322 0.80601 0.75381 0.0
C176 C 0.19561 0.82733 0.74543 0.0
C177 C 0.18032 0.81658 0.72839 0.0
C178 C 0.07895 0.77891 0.74179 0.0
N179 N 0.10703 0.78633 0.72619 0.0
C180 C 0.25562 0.86089 0.79256 0.0
C181 C 0.32707 0.99057 0.77496 0.0
C182 C 0.3683 0.96747 0.78445 0.0
C183 C 0.33131 0.9035 0.79386 0.0
C184 C 0.25013 0.94624 0.7742 0.0
N185 N 0.21579 0.88044 0.78236 0.0
H186 H 0.22904 0.80952 0.79926 0.0
H187 H 0.21996 0.96265 0.76614 0.0
H188 H 0.24908 0.84743 0.75122 0.0
H189 H 1.02086 0.75573 0.7444 0.0
O190 O 0.14195 0.72532 0.7786 0.0
O191 O 0.02869 0.7029 0.77434 0.0
O192 O 0.07297 0.86991 0.77718 0.0
C193 C 0.0743 0.67742 0.77544 0.0
H194 H 0.03412 0.71255 0.83838 0.0
H195 H 0.21971 0.82831 0.71841 0.0
H196 H 0.35414 0.04066 0.76772 0.0
H197 H 0.36097 0.88377 0.80138 0.0
Co198 Co 0.93666 0.71018 0.61163 0.0
C199 C 0.92313 0.7458 0.576 0.0
C200 C 1.00394 0.7124 0.5784 0.0
C201 C 0.99685 0.72403 0.56162 0.0
N202 N 0.95655 0.7246 0.58747 0.0
N203 N 0.94525 0.74392 0.56011 0.0
H204 H 0.88155 0.76002 0.57912 0.0
H205 H 0.03992 0.69401 0.58336 0.0
C206 C 0.97018 0.86033 0.62558 0.0
O207 O 0.93714 0.82876 0.63963 0.0
N208 N 0.92013 0.69622 0.63578 0.0
C209 C 0.85789 0.65116 0.64416 0.0
C210 C 0.87415 0.65593 0.66116 0.0
C211 C 0.97363 0.72465 0.6477 0.0
N212 N 0.94693 0.70294 0.66338 0.0
C213 C 0.79786 0.62655 0.59681 0.0
C214 C 0.72083 0.6779 0.61502 0.0
C215 C 0.68222 0.61391 0.60514 0.0
C216 C 0.72194 0.59035 0.59545 0.0
C217 C 0.79795 0.71351 0.61588 0.0
N218 N 0.83527 0.68556 0.60739 0.0
H219 H 0.82668 0.60454 0.5898 0.0
H220 H 0.82594 0.75989 0.62418 0.0
H221 H 0.80465 0.61618 0.63839 0.0
H222 H 0.03116 0.76053 0.64482 0.0
O223 O 0.91541 0.61031 0.61011 0.0
O224 O 0.02655 0.70377 0.61502 0.0
O225 O 0.97485 0.82165 0.61351 0.0
C226 C 0.9836 0.63248 0.61328 0.0
H227 H 0.02453 0.71461 0.55122 0.0
H228 H 0.83525 0.62714 0.67111 0.0
H229 H 0.69166 0.69858 0.62243 0.0
H230 H 0.6944 0.54144 0.5876 0.0
Co231 Co 0.24767 0.93739 0.94578 0.0
C232 C 0.20918 0.924 0.90886 0.0
C233 C 0.31393 0.01869 0.91426 0.0
C234 C 0.30119 1.01559 0.89721 0.0
N235 N 0.25702 0.96027 0.92168 0.0
N236 N 0.23599 0.95512 0.89373 0.0
H237 H 0.15626 0.8749 0.91042 0.0
H238 H 0.36209 0.06141 0.92062 0.0
C239 C 0.13238 0.97391 0.95902 0.0
O240 O 0.12886 0.9398 0.97305 0.0
N241 N 0.24178 0.91852 0.96985 0.0
C242 C 0.22188 0.8553 0.97802 0.0
C243 C 0.23373 0.87039 0.99508 0.0
C244 C 0.26831 0.97121 0.98198 0.0
N245 N 0.2623 0.94336 0.99756 0.0
C246 C 0.19231 0.79858 0.93099 0.0
C247 C 0.05769 0.725 0.94674 0.0
C248 C 0.08238 0.68538 0.93712 0.0
C249 C 0.14969 0.72336 0.92891 0.0
C250 C 0.1022 0.80161 0.94831 0.0
N251 N 0.16985 0.8372 0.94086 0.0
H252 H 0.24507 0.8259 0.92481 0.0
H253 H 0.08359 0.83044 0.95624 0.0
H254 H 0.20199 0.80222 0.97205 0.0
H255 H 0.29249 0.0291 0.97931 0.0
O256 O 0.32521 0.91423 0.94482 0.0
O257 O 0.34474 0.02551 0.95009 0.0
O258 O 0.17599 0.97772 0.94718 0.0
C259 C 0.37189 0.98156 0.94844 0.0
H260 H 0.33729 0.05547 0.88814 0.0
H261 H 0.22245 0.83065 1.00488 0.0
H262 H 1.00572 0.69686 0.95334 0.0
H263 H 0.17128 0.69472 0.92158 0.0
Co264 Co 0.31458 0.21926 0.27898 0.0
C265 C 0.29494 0.18315 0.24199 0.0
C266 C 0.30226 0.28663 0.24724 0.0
C267 C 0.29579 0.27486 0.23011 0.0
N268 N 0.30352 0.2299 0.2548 0.0
N269 N 0.29296 0.21049 0.22675 0.0
H270 H 0.29212 0.1308 0.24366 0.0
H271 H 0.30608 0.33411 0.25356 0.0
C272 C 0.16337 0.0972 0.29044 0.0
O273 O 0.19191 0.09517 0.30499 0.0
N274 N 0.32516 0.21177 0.3031 0.0
C275 C 0.36992 0.1936 0.31143 0.0
C276 C 0.36606 0.20498 0.32847 0.0
C277 C 0.29757 0.23706 0.31512 0.0
N278 N 0.32063 0.23236 0.33067 0.0
C279 C 0.40439 0.17072 0.26474 0.0
C280 C 0.34864 0.03673 0.28035 0.0
C281 C 0.41444 0.06505 0.27125 0.0
C282 C 0.44107 0.13185 0.26308 0.0
C283 C 0.31238 0.07748 0.2815 0.0
N284 N 0.34187 0.14499 0.27416 0.0
H285 H 0.42794 0.22343 0.25865 0.0
H286 H 0.26405 0.05644 0.28913 0.0
H287 H 0.40526 0.17617 0.3056 0.0
H288 H 0.26104 0.25834 0.31253 0.0
O289 O 0.41395 0.29859 0.27895 0.0
O290 O 0.31904 0.31412 0.28345 0.0
O291 O 0.20339 0.14437 0.27928 0.0
C292 C 0.39069 0.34314 0.28248 0.0
H293 H 0.29311 0.31118 0.22091 0.0
H294 H 0.39639 0.19649 0.3384 0.0
H295 H 0.32681 0.98491 0.28687 0.0
H296 H 0.49216 0.15593 0.2561 0.0
Co297 Co 0.11331 0.32732 0.61183 0.0
C298 C 0.12282 0.28771 0.57623 0.0
C299 C 0.04397 0.32364 0.57871 0.0
C300 C 0.04981 0.31067 0.5619 0.0
N301 N 0.09097 0.31069 0.58774 0.0
N302 N 0.10021 0.28921 0.56037 0.0
H303 H 0.16407 0.27296 0.57928 0.0
H304 H 1.00945 0.34378 0.58371 0.0
C305 C 0.07851 0.17793 0.62589 0.0
O306 O 0.11197 0.21068 0.63997 0.0
N307 N 0.13267 0.3439 0.63591 0.0
C308 C 0.19681 0.38774 0.64404 0.0
C309 C 0.18314 0.38583 0.6611 0.0
C310 C 0.08063 0.31943 0.64803 0.0
N311 N 0.11013 0.34276 0.6635 0.0
C312 C 0.25121 0.40751 0.59682 0.0
C313 C 0.32736 0.3546 0.61472 0.0
C314 C 0.36631 0.41802 0.60496 0.0
C315 C 0.32697 0.44226 0.5954 0.0
C316 C 0.25037 0.32041 0.61564 0.0
N317 N 0.21363 0.34935 0.60735 0.0
H318 H 0.22275 0.43003 0.5899 0.0
H319 H 0.22217 0.27456 0.62389 0.0
H320 H 0.24968 0.42015 0.63808 0.0
H321 H 1.02243 0.2833 0.64563 0.0
O322 O 0.13651 0.42759 0.61028 0.0
O323 O 0.02489 0.33633 0.61541 0.0
O324 O 0.07357 0.21574 0.61379 0.0
C325 C 0.06916 0.40729 0.61373 0.0
H326 H 1.0225 0.32063 0.55152 0.0
H327 H 0.22343 0.41485 0.67094 0.0
H328 H 0.35622 0.33344 0.62205 0.0
H329 H 0.35479 0.49072 0.58762 0.0
Co330 Co 0.80797 0.11711 0.94456 0.0
C331 C 0.84645 0.12426 0.90789 0.0
C332 C 0.74145 0.03061 0.91326 0.0
C333 C 0.75417 0.03111 0.89628 0.0
N334 N 0.79853 0.09001 0.92063 0.0
N335 N 0.81953 0.09086 0.89282 0.0
H336 H 0.89924 0.17378 0.90945 0.0
H337 H 0.69308 0.98911 0.9196 0.0
C338 C 0.92952 0.09032 0.95833 0.0
O339 O 0.93368 0.12775 0.97197 0.0
N340 N 0.81384 0.13979 0.96846 0.0
C341 C 0.82454 0.20159 0.97631 0.0
C342 C 0.81404 0.18832 0.99343 0.0
C343 C 0.79398 0.0894 0.98076 0.0
N344 N 0.79519 0.11772 0.99612 0.0
C345 C 0.85731 0.2521 0.9288 0.0
C346 C 0.98747 0.33505 0.94621 0.0
C347 C 0.95948 0.37029 0.93618 0.0
C348 C 0.89472 0.32766 0.92707 0.0
C349 C 0.94814 0.25824 0.94749 0.0
N350 N 0.88232 0.21781 0.93928 0.0
H351 H 0.80558 0.22103 0.92215 0.0
H352 H 0.96888 0.23307 0.95585 0.0
H353 H 0.8376 0.25223 0.97007 0.0
H354 H 0.77942 0.03283 0.97848 0.0
O355 O 0.72767 0.13591 0.94304 0.0
O356 O 0.71306 0.02752 0.94921 0.0
O357 O 0.88326 0.08129 0.94656 0.0
C358 C 0.68315 0.06877 0.94701 0.0
H359 H 0.71785 0.99024 0.88721 0.0
H360 H 0.8206 0.22767 1.00312 0.0
H361 H 0.03778 0.36668 0.95342 0.0
H362 H 0.87054 0.35265 0.9194 0.0
Co363 Co 0.69248 0.77573 0.27831 0.0
C364 C 0.70339 0.80672 0.2411 0.0
C365 C 0.69292 0.70215 0.24619 0.0
C366 C 0.69622 0.71183 0.22904 0.0
N367 N 0.69595 0.76107 0.25391 0.0
N368 N 0.70108 0.777 0.22574 0.0
H369 H 0.70988 0.86064 0.24293 0.0
H370 H 0.68939 0.65498 0.25241 0.0
C371 C 0.84938 0.89294 0.28846 0.0
O372 O 0.82623 0.9013 0.30317 0.0
N373 N 0.68937 0.78709 0.3026 0.0
C374 C 0.64883 0.80858 0.31158 0.0
C375 C 0.65734 0.79953 0.32849 0.0
C376 C 0.7195 0.76271 0.31417 0.0
N377 N 0.70221 0.771 0.33013 0.0
C378 C 0.60434 0.82845 0.26533 0.0
C379 C 0.67135 0.9663 0.28001 0.0
C380 C 0.6043 0.94012 0.27136 0.0
C381 C 0.57181 0.87115 0.26371 0.0
C382 C 0.70344 0.92167 0.28107 0.0
N383 N 0.66867 0.85264 0.27411 0.0
H384 H 0.57657 0.77448 0.25958 0.0
H385 H 0.75331 0.94143 0.28822 0.0
H386 H 0.61352 0.8272 0.30629 0.0
H387 H 0.75187 0.73754 0.31082 0.0
O388 O 0.59172 0.69878 0.27921 0.0
O389 O 0.68541 0.6801 0.28242 0.0
O390 O 0.80449 0.8463 0.27757 0.0
C391 C 0.61388 0.65271 0.28192 0.0
H392 H 0.69723 0.67414 0.21986 0.0
H393 H 0.63165 0.81224 0.33878 0.0
H394 H 0.69749 0.01964 0.28617 0.0
H395 H 0.51954 0.84874 0.25711 0.0
C396 C 0.33151 0.99704 0.0423 0.0
C397 C 0.32951 0.06232 0.04481 0.0
C398 C 0.30956 0.95854 1.02687 0.0
C399 C 0.28382 0.98335 1.01343 0.0
H400 H 0.35138 0.97637 0.05226 0.0
H401 H 0.31376 0.90952 1.0254 0.0
S402 S 0.25928 0.14672 1.01463 0.0
N403 N 0.29549 0.14759 0.03318 0.0
N404 N 0.25155 0.07436 1.00445 0.0
C405 C 0.27952 0.04759 1.01606 0.0
C406 C 0.303 0.08723 0.03167 0.0
C407 C 0.29109 0.34658 0.36309 0.0
C408 C 0.2666 0.30013 0.37719 0.0
C409 C 0.30826 0.32402 0.34787 0.0
C410 C 0.30243 0.25461 0.34628 0.0
H411 H 0.29807 0.40115 0.36388 0.0
H412 H 0.32746 0.3615 0.33736 0.0
S413 S 0.2327 0.10879 0.37846 0.0
N414 N 0.23065 0.17821 0.38779 0.0
N415 N 0.26583 0.13775 0.35944 0.0
C416 C 0.27687 0.20719 0.36007 0.0
C417 C 0.25823 0.22944 0.37546 0.0
C418 C 0.96934 0.30969 0.69673 0.0
C419 C 0.99157 0.28201 0.71027 0.0
C420 C 1.00824 0.32945 0.68148 0.0
C421 C 0.07145 0.32335 0.67927 0.0
H422 H 0.92191 0.31686 0.69796 0.0
H423 H 0.98942 0.35053 0.67139 0.0
S424 S 0.14885 0.24719 0.7098 0.0
N425 N 0.07796 0.24381 0.71966 0.0
N426 N 0.15213 0.28382 0.69126 0.0
C427 C 0.09396 0.29518 0.69252 0.0
C428 C 0.05383 0.27385 0.70795 0.0
C429 C 0.81256 0.03311 1.0143 0.0
C430 C 0.78382 0.08018 1.01193 0.0
C431 C 0.79965 0.99287 0.02912 0.0
C432 C 0.75688 0.99742 0.04223 0.0
H433 H 0.84563 0.02751 1.00457 0.0
H434 H 0.82364 0.95793 0.03032 0.0
S435 S 0.66704 0.11132 0.04206 0.0
N436 N 0.71019 0.12895 1.02381 0.0
N437 N 0.68474 0.05233 0.05168 0.0
C438 C 0.72827 0.04494 0.04011 0.0
C439 C 0.74198 0.0865 1.02497 0.0
C440 C 0.67672 0.72821 0.35972 0.0
C441 C 0.7237 0.75041 0.34563 0.0
C442 C 0.6965 0.70844 0.37491 0.0
C443 C 0.76356 0.70904 0.37658 0.0
H444 H 0.62381 0.72536 0.35899 0.0
H445 H 0.6587 0.69171 0.3854 0.0
S446 S 0.90938 0.76875 0.34435 0.0
N447 N 0.8433 0.77672 0.33501 0.0
N448 N 0.8787 0.73715 0.36336 0.0
C449 C 0.81128 0.73145 0.36275 0.0
C450 C 0.79181 0.75266 0.34734 0.0
C451 C 1.00421 0.69674 0.70823 0.0
C452 C 0.06705 0.7664 0.71045 0.0
C453 C 0.96537 0.67632 0.69284 0.0
C454 C 0.98741 0.72516 0.67916 0.0
H455 H 0.98586 0.65743 0.71838 0.0
H456 H 0.91832 0.6215 0.69158 0.0
S457 S 0.14295 0.91782 0.6796 0.0
N458 N 0.14659 0.886 0.69832 0.0
N459 N 0.07262 0.84927 0.66967 0.0
C460 C 0.04898 0.796 0.68151 0.0
C461 C 0.08898 0.81618 0.69708 0.0
C462 C 0.52358 0.9426 0.11123 0.0
C463 C 0.59831 0.99387 0.1078 0.0
C464 C 0.46867 0.96233 0.11082 0.0
C465 C 0.48621 0.03426 0.10702 0.0
H466 H 0.50712 0.88655 0.11453 0.0
H467 H 0.41273 0.92166 0.11406 0.0
S468 S 0.67142 0.18746 0.09528 0.0
N469 N 0.68527 0.11825 0.09924 0.0
N470 N 0.58278 0.15586 0.09845 0.0
C471 C 0.56019 0.08548 0.10298 0.0
C472 C 0.61604 0.06527 0.1034 0.0
C473 C 0.49898 0.44114 0.44228 0.0
C474 C 0.44357 0.45916 0.44027 0.0
C475 C 0.57352 0.49612 0.44253 0.0
C476 C 0.59591 0.57145 0.44069 0.0
H477 H 0.48474 0.38456 0.44423 0.0
H478 H 0.61392 0.47907 0.44447 0.0
S479 S 0.47224 0.64689 0.4333 0.0
N480 N 0.41621 0.55749 0.43509 0.0
N481 N 0.55627 0.66006 0.43564 0.0
C482 C 0.54118 0.58989 0.43798 0.0
C483 C 0.46514 0.53398 0.43776 0.0
C484 C 0.97918 0.54332 0.77588 0.0
C485 C 0.05273 0.5985 0.77403 0.0
C486 C 0.9597 0.469 0.77625 0.0
C487 C 1.01281 0.44643 0.77472 0.0
H488 H 0.93656 0.55759 0.77753 0.0
H489 H 0.90206 0.42892 0.77799 0.0
S490 S 0.21256 0.56929 0.76806 0.0
N491 N 0.17897 0.62537 0.7695 0.0
N492 N 0.14155 0.48561 0.77027 0.0
C493 C 0.08622 0.50086 0.77228 0.0
C494 C 0.1063 0.57678 0.77192 0.0
C495 C 0.97368 0.44626 0.61288 0.0
C496 C 0.04706 0.46427 0.61519 0.0
C497 C 0.95437 0.50135 0.61248 0.0
C498 C 1.00753 0.57679 0.61447 0.0
H499 H 0.93119 0.38958 0.61085 0.0
H500 H 0.89695 0.48427 0.61035 0.0
S501 S 0.20661 0.65238 0.62254 0.0
N502 N 0.17292 0.56284 0.62072 0.0
N503 N 0.13594 0.66553 0.61989 0.0
C504 C 0.08067 0.59526 0.61739 0.0
C505 C 0.10052 0.53926 0.61778 0.0
C506 C 0.5805 0.09704 0.94697 0.0
C507 C 0.60353 0.04448 0.94876 0.0
C508 C 0.50595 0.07735 0.94761 0.0
C509 C 0.45113 1.00417 0.94997 0.0
H510 H 0.62034 0.15426 0.94476 0.0
H511 H 0.49115 0.11933 0.94565 0.0
S512 S 0.48178 0.8463 0.957 0.0
N513 N 0.56527 0.91697 0.95417 0.0
N514 N 0.42517 0.87926 0.95545 0.0
C515 C 0.47342 0.95138 0.95246 0.0
C516 C 0.5495 0.97164 0.95184 0.0
C517 C 0.42776 0.4765 0.2812 0.0
C518 C 0.44577 0.42216 0.28466 0.0
C519 C 0.48278 0.55082 0.28069 0.0
C520 C 0.55795 0.57374 0.28361 0.0
H521 H 0.37148 0.46141 0.2782 0.0
H522 H 0.46607 0.59043 0.27752 0.0
S523 S 0.63243 0.45328 0.29533 0.0
N524 N 0.54323 0.3967 0.2927 0.0
N525 N 0.64597 0.53624 0.29149 0.0
C526 C 0.57611 0.52024 0.28785 0.0
C527 C 0.52017 0.44457 0.28846 0.0
C528 C 0.26441 0.10398 0.20812 0.0
C529 C 0.29545 0.18051 0.21043 0.0
C530 C 0.27082 0.07411 0.19274 0.0
C531 C 0.30744 0.11946 0.17901 0.0
H532 H 0.23528 0.06682 0.21831 0.0
H533 H 0.24713 1.01516 0.19155 0.0
S534 S 0.4032 0.32298 0.17852 0.0
N535 N 0.36837 0.30094 0.19762 0.0
N536 N 0.37775 0.24423 0.16875 0.0
C537 C 0.33834 0.19571 0.18103 0.0
C538 C 0.33293 0.22636 0.19671 0.0
C539 C 0.12101 0.2494 0.51502 0.0
C540 C 0.19801 0.28759 0.51289 0.0
C541 C 0.08932 0.24837 0.53069 0.0
C542 C 0.13339 0.28478 0.54484 0.0
H543 H 0.08499 0.22043 0.50448 0.0
H544 H 0.02989 0.2194 0.53175 0.0
S545 S 0.33715 0.39769 0.54582 0.0
N546 N 0.31711 0.36654 0.52626 0.0
N547 N 0.25741 0.36281 0.55559 0.0
C548 C 0.21023 0.32285 0.54293 0.0
C549 C 0.24255 0.32468 0.527 0.0
C550 C 0.95915 0.18736 0.85859 0.0
C551 C 0.91485 0.17885 0.84446 0.0
C552 C 0.92776 0.15703 0.87423 0.0
C553 C 0.85082 0.1176 0.87638 0.0
H554 H 1.01856 0.21832 0.85753 0.0
H555 H 0.96399 0.16494 0.88475 0.0
S556 S 0.7109 0.08555 0.84353 0.0
N557 N 0.79051 0.13102 0.83375 0.0
N558 N 0.73134 0.07539 0.86305 0.0
C559 C 0.80597 0.10898 0.86229 0.0
C560 C 0.83801 0.13927 0.84637 0.0
C561 C 0.74298 0.91815 0.192 0.0
C562 C 0.71737 0.876 0.17704 0.0
C563 C 0.73702 0.88559 0.2077 0.0
C564 C 0.70391 0.80889 0.20937 0.0
H565 H 0.76925 0.97743 0.19161 0.0
H566 H 0.76036 0.92145 0.21855 0.0
S567 S 0.61938 0.67194 0.17446 0.0
N568 N 0.65385 0.75228 0.16513 0.0
N569 N 0.63777 0.69082 0.19469 0.0
C570 C 0.67429 0.76547 0.19464 0.0
C571 C 0.68184 0.79894 0.17852 0.0
C572 C 0.92424 0.78188 0.51474 0.0
C573 C 0.84724 0.74504 0.5125 0.0
C574 C 0.95598 0.78315 0.53045 0.0
C575 C 0.912 0.74819 0.54455 0.0
H576 H 0.96021 0.80965 0.50425 0.0
H577 H 1.01542 0.81119 0.53159 0.0
S578 S 0.70799 0.63902 0.54519 0.0
N579 N 0.72804 0.66898 0.52568 0.0
N580 N 0.78783 0.67281 0.55509 0.0
C581 C 0.83511 0.7114 0.54252 0.0
C582 C 0.80272 0.70947 0.52654 0.0
C583 C 0.12745 0.88433 0.87504 0.0
C584 C 0.20446 0.92605 0.87727 0.0
C585 C 0.096 0.85209 0.85938 0.0
C586 C 0.14025 0.86113 0.8453 0.0
H587 H 0.09119 0.87619 0.8855 0.0
H588 H 0.03662 0.81949 0.85825 0.0
S589 S 0.34428 0.95961 0.84452 0.0
N590 N 0.32396 0.9703 0.86403 0.0
N591 N 0.2645 0.91157 0.83468 0.0
C592 C 0.21704 0.90275 0.84728 0.0
C593 C 0.24921 0.93477 0.86322 0.0
C594 C 0.61823 0.5459 0.11994 0.0
C595 C 0.59018 0.59262 0.12349 0.0
C596 C 0.57236 0.46946 0.12039 0.0
C597 C 0.49701 0.43739 0.12438 0.0
H598 H 0.67474 0.56842 0.11588 0.0
H599 H 0.59539 0.43512 0.11696 0.0
S600 S 0.39992 0.53651 0.13692 0.0
N601 N 0.48478 0.60218 0.1328 0.0
N602 N 0.39851 0.45813 0.13355 0.0
C603 C 0.46938 0.48358 0.12882 0.0
C604 C 0.51612 0.56134 0.12846 0.0
C605 C 0.03098 0.48655 0.46607 0.0
C606 C 0.04401 0.46006 0.45092 0.0
C607 C 1.00593 0.5369 0.46603 0.0
C608 C 0.99327 0.56287 0.45084 0.0
H609 H 0.04085 0.4686 0.47806 0.0
H610 H 0.99599 0.55545 0.47799 0.0
S611 S 1.01898 0.51055 0.40776 0.0
N612 N 0.04339 0.46395 0.42033 0.0
N613 N 0.99435 0.55765 0.42025 0.0
C614 C 1.00597 0.53685 0.43558 0.0
C615 C 0.03146 0.48536 0.43563 0.0
C616 C 0.48991 0.01827 0.79881 0.0
C617 C 0.44947 1.00452 0.78375 0.0
C618 C 0.56527 0.0427 0.79858 0.0
C619 C 0.60319 0.05453 0.78329 0.0
H620 H 0.46272 1.00893 0.81087 0.0
H621 H 0.5942 0.05252 0.81049 0.0
S622 S 0.52287 0.02774 0.7404 0.0
N623 N 0.45246 1.00398 0.75315 0.0
N624 N 0.59531 0.05267 0.75271 0.0
C625 C 0.56368 0.04171 0.76813 0.0
C626 C 0.48662 0.01648 0.76837 0.0
C627 C 0.56174 0.54047 0.59037 0.0
C628 C 0.60115 0.56741 0.60556 0.0
C629 C 0.48639 0.48952 0.59032 0.0
C630 C 0.44747 0.46363 0.60547 0.0
H631 H 0.58957 0.55867 0.57839 0.0
H632 H 0.45811 0.4707 0.57832 0.0
S633 S 0.52503 0.51678 0.64864 0.0
N634 N 0.59622 0.5635 0.63615 0.0
N635 N 0.45344 0.4693 0.63606 0.0
C636 C 0.48607 0.49 0.62076 0.0
C637 C 0.56309 0.54184 0.62081 0.0
C638 C 0.02987 0.56512 0.95172 0.0
C639 C 0.04332 0.60436 0.93664 0.0
C640 C 1.00501 0.48956 0.95148 0.0
C641 C 0.99277 0.45102 0.93616 0.0
H642 H 0.04087 0.59345 0.96375 0.0
H643 H 0.99447 0.46094 0.96335 0.0
S644 S 1.01875 0.52871 0.89327 0.0
N645 N 0.04101 0.59921 0.90604 0.0
N646 N 0.99576 0.45753 0.90559 0.0
C647 C 1.00538 0.48963 0.92102 0.0
C648 C 0.03019 0.5662 0.92126 0.0
C649 C 0.53733 0.99308 0.28638 0.0
C650 C 0.56312 0.97981 0.27119 0.0
C651 C 0.48632 0.01769 0.28634 0.0
C652 C 0.45989 0.02972 0.2711 0.0
H653 H 0.55492 0.98217 0.29832 0.0
H654 H 0.46835 0.02851 0.29826 0.0
S655 S 0.51122 1.00357 0.22802 0.0
N656 N 0.55964 0.9813 0.24061 0.0
N657 N 0.46316 0.02679 0.24052 0.0
C658 C 0.48575 0.01707 0.25586 0.0
C659 C 0.53767 0.99244 0.25591 0.0
C660 C 0.0818 0.0754 0.09758 0.0
C661 C 0.11888 0.03905 0.10337 0.0
C662 C 1.00449 0.04219 0.09829 0.0
C663 C 0.96096 0.9704 0.10434 0.0
H664 H 0.1128 0.12981 0.09225 0.0
H665 H 0.97849 0.07169 0.09337 0.0
S666 S 0.03016 0.85251 0.12173 0.0
N667 N 0.10558 0.92861 0.11624 0.0
N668 N 0.96058 0.86516 0.11694 0.0
C669 C 0.99725 0.93408 0.11052 0.0
C670 C 0.07605 0.96865 0.11022 0.0
C671 C 0.05517 0.04833 0.4172 0.0
C672 C 0.07608 0.08954 0.43228 0.0
C673 C 1.0043 0.973 0.41696 0.0
C674 C 0.9708 0.93421 0.43178 0.0
H675 H 0.07802 0.07468 0.40529 0.0
H676 H 0.9907 0.9452 0.40484 0.0
S677 S 1.00723 1.01554 0.47485 0.0
N678 N 0.06024 0.08575 0.46265 0.0
N679 N 0.96386 0.94318 0.46223 0.0
C680 C 0.9916 0.97428 0.44709 0.0
C681 C 0.04451 0.05188 0.44735 0.0
C682 C 0.03934 0.06851 0.77846 0.0
C683 C 0.98763 0.06252 0.76621 0.0
C684 C 0.06395 0.01685 0.77916 0.0
C685 C 0.03733 0.95733 0.76769 0.0
H686 H 0.0633 0.11501 0.78708 0.0
H687 H 0.10673 0.02568 0.78811 0.0
S688 S 0.89458 0.91019 0.73485 0.0
N689 N 0.90508 0.98631 0.74362 0.0
N690 N 0.9525 0.89184 0.74484 0.0
C691 C 0.98308 0.94862 0.75609 0.0
C692 C 0.95784 1.00037 0.75539 0.0
C693 C 1.01586 0.98233 0.63949 0.0
C694 C 1.00051 0.94156 0.62439 0.0
C695 C 0.03959 0.05751 0.63958 0.0
C696 C 0.04921 0.0967 0.62458 0.0
H697 H 1.00954 0.95596 0.65154 0.0
H698 H 0.05024 0.08501 0.65171 0.0
S699 S 1.01726 0.01681 0.58142 0.0
N700 N 0.99703 0.94638 0.59383 0.0
N701 N 0.04196 0.0886 0.59399 0.0
C702 C 0.03429 0.05707 0.60928 0.0
C703 C 1.01028 0.97961 0.60918 0.0
C704 C 1.01116 0.05172 0.97237 0.0
C705 C 0.98017 0.05938 0.95729 0.0
C706 C 0.06106 0.02591 0.9725 0.0
C707 C 0.08351 1.0066 0.95756 0.0
H708 H 0.99642 0.06534 0.98439 0.0
H709 H 0.08225 0.02102 0.98459 0.0
S710 S 1.02028 0.01676 0.91447 0.0
N711 N 0.97637 0.04581 0.92679 0.0
N712 N 0.071 0.99724 0.92705 0.0
C713 C 0.0539 1.01446 0.94226 0.0
C714 C 1.00192 0.04044 0.94213 0.0
C715 C 0.03666 0.05717 0.27829 0.0
C716 C 0.08491 0.04041 0.28704 0.0
C717 C 0.96008 1.00665 0.27758 0.0
C718 C 0.92962 0.93725 0.28526 0.0
H719 H 0.05745 0.11108 0.27285 0.0
H720 H 0.9241 0.02345 0.27177 0.0
S721 S 0.03285 0.86288 0.30767 0.0
N722 N 0.09673 0.94624 0.30207 0.0
N723 N 0.95401 0.85251 0.30063 0.0
C724 C 0.97776 0.91841 0.29308 0.0
C725 C 0.05507 0.96955 0.29395 0.0
loop_
_geom_bond_atom_site_label_1
_geom_bond_atom_site_label_2
_geom_bond_distance
_geom_bond_site_symmetry_2
_ccdc_geom_bond_type
Co0 N4 2.148 . S
Co0 N10 2.128 . S
Co0 N20 2.194 . S
Co0 O25 2.351 . S
Co0 O26 2.155 . S
Co0 O27 2.096 . S
C1 N4 1.301 . S
C1 N5 1.328 . S
C1 H6 0.930 . S
C2 C3 1.333 . S
C2 N4 1.317 . S
C2 H7 0.930 . S
C3 C2 1.333 . S
C3 N5 1.350 . S
C3 H29 0.931 . S
N4 Co0 2.148 . S
N4 C1 1.301 . S
N4 C2 1.317 . S
N5 C1 1.328 . S
N5 C3 1.350 . S
H6 C1 0.930 . S
H7 C2 0.930 . S
C8 O9 1.224 . S
C8 O27 1.247 . S
O9 C8 1.224 . S
N10 Co0 2.128 . S
N10 C11 1.355 . S
N10 C13 1.311 . S
C11 N10 1.355 . S
C11 C12 1.363 . S
C11 H23 0.929 . S
C12 C11 1.363 . S
C12 N14 1.375 . S
C12 H30 0.931 . S
C13 N10 1.311 . S
C13 N14 1.347 . S
C13 H24 0.929 . S
N14 C12 1.375 . S
N14 C13 1.347 . S
C15 C18 1.365 . S
C15 N20 1.328 . S
C15 H21 0.929 . S
C16 C17 1.362 . S
C16 C19 1.378 . S
C16 H31 0.929 . S
C17 C16 1.362 . S
C17 C18 1.366 . S
C18 C15 1.365 . S
C18 C17 1.366 . S
C18 H32 0.930 . S
C19 C16 1.378 . S
C19 N20 1.315 . S
C19 H22 0.930 . S
N20 Co0 2.194 . S
N20 C15 1.328 . S
N20 C19 1.315 . S
H21 C15 0.929 . S
H22 C19 0.930 . S
H23 C11 0.929 . S
H24 C13 0.929 . S
O25 Co0 2.351 . S
O25 C28 1.244 . S
O26 Co0 2.155 . S
O26 C28 1.240 . S
O27 Co0 2.096 . S
O27 C8 1.247 . S
C28 O25 1.244 . S
C28 O26 1.240 . S
H29 C3 0.931 . S
H30 C12 0.931 . S
H31 C16 0.929 . S
H32 C18 0.930 . S
Co33 N37 2.148 . S
Co33 N43 2.128 . S
Co33 N53 2.194 . S
Co33 O58 2.351 . S
Co33 O59 2.155 . S
Co33 O60 2.096 . S
C34 N37 1.301 . S
C34 N38 1.328 . S
C34 H39 0.930 . S
C35 C36 1.333 . S
C35 N37 1.317 . S
C35 H40 0.930 . S
C36 C35 1.333 . S
C36 N38 1.350 . S
C36 H62 0.931 . S
N37 Co33 2.148 . S
N37 C34 1.301 . S
N37 C35 1.317 . S
N38 C34 1.328 . S
N38 C36 1.350 . S
H39 C34 0.930 . S
H40 C35 0.930 . S
C41 O42 1.224 . S
C41 O60 1.247 . S
O42 C41 1.224 . S
N43 Co33 2.128 . S
N43 C44 1.355 . S
N43 C46 1.311 . S
C44 N43 1.355 . S
C44 C45 1.363 . S
C44 H56 0.929 . S
C45 C44 1.363 . S
C45 N47 1.375 . S
C45 H63 0.931 . S
C46 N43 1.311 . S
C46 N47 1.347 . S
C46 H57 0.929 . S
N47 C45 1.375 . S
N47 C46 1.347 . S
C48 C51 1.365 . S
C48 N53 1.328 . S
C48 H54 0.929 . S
C49 C50 1.362 . S
C49 C52 1.378 . S
C49 H64 0.929 1_455 S
C50 C49 1.362 . S
C50 C51 1.366 . S
C51 C48 1.365 . S
C51 C50 1.366 . S
C51 H65 0.930 . S
C52 C49 1.378 . S
C52 N53 1.315 . S
C52 H55 0.930 . S
N53 Co33 2.194 . S
N53 C48 1.328 . S
N53 C52 1.315 . S
H54 C48 0.929 . S
H55 C52 0.930 . S
H56 C44 0.929 . S
H57 C46 0.929 . S
O58 Co33 2.351 . S
O58 C61 1.244 . S
O59 Co33 2.155 . S
O59 C61 1.240 . S
O60 Co33 2.096 . S
O60 C41 1.247 . S
C61 O58 1.244 . S
C61 O59 1.240 . S
H62 C36 0.931 . S
H63 C45 0.931 . S
H64 C49 0.929 1_655 S
H65 C51 0.930 . S
Co66 N70 2.148 . S
Co66 N76 2.128 . S
Co66 N86 2.194 . S
Co66 O91 2.351 . S
Co66 O92 2.155 . S
Co66 O93 2.096 . S
C67 N70 1.301 . S
C67 N71 1.328 . S
C67 H72 0.930 . S
C68 C69 1.333 . S
C68 N70 1.317 . S
C68 H73 0.930 . S
C69 C68 1.333 . S
C69 N71 1.350 . S
C69 H95 0.931 . S
N70 Co66 2.148 . S
N70 C67 1.301 . S
N70 C68 1.317 . S
N71 C67 1.328 . S
N71 C69 1.350 . S
H72 C67 0.930 . S
H73 C68 0.930 . S
C74 O75 1.224 . S
C74 O93 1.247 . S
O75 C74 1.224 . S
N76 Co66 2.128 . S
N76 C77 1.355 . S
N76 C79 1.311 . S
C77 N76 1.355 . S
C77 C78 1.363 . S
C77 H89 0.929 . S
C78 C77 1.363 . S
C78 N80 1.375 . S
C78 H96 0.931 . S
C79 N76 1.311 . S
C79 N80 1.347 . S
C79 H90 0.929 . S
N80 C78 1.375 . S
N80 C79 1.347 . S
C81 C84 1.365 . S
C81 N86 1.328 . S
C81 H87 0.929 . S
C82 C83 1.362 . S
C82 C85 1.378 . S
C82 H97 0.929 1_545 S
C83 C82 1.362 . S
C83 C84 1.366 . S
C84 C81 1.365 . S
C84 C83 1.366 . S
C84 H98 0.930 . S
C85 C82 1.378 . S
C85 N86 1.315 . S
C85 H88 0.930 . S
N86 Co66 2.194 . S
N86 C81 1.328 . S
N86 C85 1.315 . S
H87 C81 0.929 . S
H88 C85 0.930 . S
H89 C77 0.929 . S
H90 C79 0.929 . S
O91 Co66 2.351 . S
O91 C94 1.244 . S
O92 Co66 2.155 . S
O92 C94 1.240 . S
O93 Co66 2.096 . S
O93 C74 1.247 . S
C94 O91 1.244 . S
C94 O92 1.240 . S
H95 C69 0.931 . S
H96 C78 0.931 . S
H97 C82 0.929 1_565 S
H98 C84 0.930 . S
Co99 N103 2.148 . S
Co99 N109 2.128 . S
Co99 N119 2.194 . S
Co99 O124 2.351 . S
Co99 O125 2.155 . S
Co99 O126 2.096 . S
C100 N103 1.301 . S
C100 N104 1.328 . S
C100 H105 0.930 . S
C101 C102 1.333 . S
C101 N103 1.317 . S
C101 H106 0.930 . S
C102 C101 1.333 . S
C102 N104 1.350 . S
C102 H128 0.931 . S
N103 Co99 2.148 . S
N103 C100 1.301 . S
N103 C101 1.317 . S
N104 C100 1.328 . S
N104 C102 1.350 . S
H105 C100 0.930 . S
H106 C101 0.930 . S
C107 O108 1.224 . S
C107 O126 1.247 . S
O108 C107 1.224 . S
N109 Co99 2.128 . S
N109 C110 1.355 . S
N109 C112 1.311 . S
C110 N109 1.355 . S
C110 C111 1.363 . S
C110 H122 0.929 . S
C111 C110 1.363 . S
C111 N113 1.375 . S
C111 H129 0.931 . S
C112 N109 1.311 . S
C112 N113 1.347 . S
C112 H123 0.929 . S
N113 C111 1.375 . S
N113 C112 1.347 . S
C114 C117 1.365 . S
C114 N119 1.328 . S
C114 H120 0.929 . S
C115 C116 1.362 . S
C115 C118 1.378 . S
C115 H130 0.929 . S
C116 C115 1.362 . S
C116 C117 1.366 . S
C117 C114 1.365 . S
C117 C116 1.366 . S
C117 H131 0.930 . S
C118 C115 1.378 . S
C118 N119 1.315 . S
C118 H121 0.930 . S
N119 Co99 2.194 . S
N119 C114 1.328 . S
N119 C118 1.315 . S
H120 C114 0.929 . S
H121 C118 0.930 . S
H122 C110 0.929 . S
H123 C112 0.929 . S
O124 Co99 2.351 . S
O124 C127 1.244 . S
O125 Co99 2.155 . S
O125 C127 1.240 . S
O126 Co99 2.096 . S
O126 C107 1.247 . S
C127 O124 1.244 . S
C127 O125 1.240 . S
H128 C102 0.931 . S
H129 C111 0.931 . S
H130 C115 0.929 . S
H131 C117 0.930 . S
Co132 N136 2.148 . S
Co132 N142 2.128 . S
Co132 N152 2.194 . S
Co132 O157 2.351 . S
Co132 O158 2.155 . S
Co132 O159 2.096 . S
C133 N136 1.301 . S
C133 N137 1.328 . S
C133 H138 0.930 . S
C134 C135 1.333 . S
C134 N136 1.317 . S
C134 H139 0.930 . S
C135 C134 1.333 . S
C135 N137 1.350 . S
C135 H161 0.931 . S
N136 Co132 2.148 . S
N136 C133 1.301 . S
N136 C134 1.317 . S
N137 C133 1.328 . S
N137 C135 1.350 . S
H138 C133 0.930 . S
H139 C134 0.930 . S
C140 O141 1.224 . S
C140 O159 1.247 . S
O141 C140 1.224 . S
N142 Co132 2.128 . S
N142 C143 1.355 . S
N142 C145 1.311 . S
C143 N142 1.355 . S
C143 C144 1.363 . S
C143 H155 0.929 . S
C144 C143 1.363 . S
C144 N146 1.375 . S
C144 H162 0.931 . S
C145 N142 1.311 . S
C145 N146 1.347 . S
C145 H156 0.929 . S
N146 C144 1.375 . S
N146 C145 1.347 . S
C147 C150 1.365 . S
C147 N152 1.328 . S
C147 H153 0.929 . S
C148 C149 1.362 . S
C148 C151 1.378 . S
C148 H163 0.929 1_655 S
C149 C148 1.362 . S
C149 C150 1.366 . S
C150 C147 1.365 . S
C150 C149 1.366 . S
C150 H164 0.930 . S
C151 C148 1.378 . S
C151 N152 1.315 . S
C151 H154 0.930 . S
N152 Co132 2.194 . S
N152 C147 1.328 . S
N152 C151 1.315 . S
H153 C147 0.929 . S
H154 C151 0.930 . S
H155 C143 0.929 . S
H156 C145 0.929 . S
O157 Co132 2.351 . S
O157 C160 1.244 . S
O158 Co132 2.155 . S
O158 C160 1.240 . S
O159 Co132 2.096 . S
O159 C140 1.247 . S
C160 O157 1.244 . S
C160 O158 1.240 . S
H161 C135 0.931 . S
H162 C144 0.931 . S
H163 C148 0.929 1_455 S
H164 C150 0.930 . S
Co165 N169 2.148 . S
Co165 N175 2.128 . S
Co165 N185 2.194 . S
Co165 O190 2.351 . S
Co165 O191 2.155 . S
Co165 O192 2.096 . S
C166 N169 1.301 . S
C166 N170 1.328 . S
C166 H171 0.930 . S
C167 C168 1.333 . S
C167 N169 1.317 . S
C167 H172 0.930 . S
C168 C167 1.333 . S
C168 N170 1.350 . S
C168 H194 0.931 . S
N169 Co165 2.148 . S
N169 C166 1.301 . S
N169 C167 1.317 . S
N170 C166 1.328 . S
N170 C168 1.350 . S
H171 C166 0.930 . S
H172 C167 0.930 . S
C173 O174 1.224 . S
C173 O192 1.247 . S
O174 C173 1.224 . S
N175 Co165 2.128 . S
N175 C176 1.355 . S
N175 C178 1.311 . S
C176 N175 1.355 . S
C176 C177 1.363 . S
C176 H188 0.929 . S
C177 C176 1.363 . S
C177 N179 1.375 . S
C177 H195 0.931 . S
C178 N175 1.311 . S
C178 N179 1.347 . S
C178 H189 0.929 . S
N179 C177 1.375 . S
N179 C178 1.347 . S
C180 C183 1.365 . S
C180 N185 1.328 . S
C180 H186 0.929 . S
C181 C182 1.362 . S
C181 C184 1.378 . S
C181 H196 0.929 1_565 S
C182 C181 1.362 . S
C182 C183 1.366 . S
C183 C180 1.365 . S
C183 C182 1.366 . S
C183 H197 0.930 . S
C184 C181 1.378 . S
C184 N185 1.315 . S
C184 H187 0.930 . S
N185 Co165 2.194 . S
N185 C180 1.328 . S
N185 C184 1.315 . S
H186 C180 0.929 . S
H187 C184 0.930 . S
H188 C176 0.929 . S
H189 C178 0.929 . S
O190 Co165 2.351 . S
O190 C193 1.244 . S
O191 Co165 2.155 . S
O191 C193 1.240 . S
O192 Co165 2.096 . S
O192 C173 1.247 . S
C193 O190 1.244 . S
C193 O191 1.240 . S
H194 C168 0.931 . S
H195 C177 0.931 . S
H196 C181 0.929 1_545 S
H197 C183 0.930 . S
Co198 N202 2.148 . S
Co198 N208 2.128 . S
Co198 N218 2.194 . S
Co198 O223 2.351 . S
Co198 O224 2.155 . S
Co198 O225 2.096 . S
C199 N202 1.301 . S
C199 N203 1.328 . S
C199 H204 0.930 . S
C200 C201 1.333 . S
C200 N202 1.317 . S
C200 H205 0.930 . S
C201 C200 1.333 . S
C201 N203 1.350 . S
C201 H227 0.931 . S
N202 Co198 2.148 . S
N202 C199 1.301 . S
N202 C200 1.317 . S
N203 C199 1.328 . S
N203 C201 1.350 . S
H204 C199 0.930 . S
H205 C200 0.930 . S
C206 O207 1.224 . S
C206 O225 1.247 . S
O207 C206 1.224 . S
N208 Co198 2.128 . S
N208 C209 1.355 . S
N208 C211 1.311 . S
C209 N208 1.355 . S
C209 C210 1.363 . S
C209 H221 0.929 . S
C210 C209 1.363 . S
C210 N212 1.375 . S
C210 H228 0.931 . S
C211 N208 1.311 . S
C211 N212 1.347 . S
C211 H222 0.929 . S
N212 C210 1.375 . S
N212 C211 1.347 . S
C213 C216 1.365 . S
C213 N218 1.328 . S
C213 H219 0.929 . S
C214 C215 1.362 . S
C214 C217 1.378 . S
C214 H229 0.929 . S
C215 C214 1.362 . S
C215 C216 1.366 . S
C216 C213 1.365 . S
C216 C215 1.366 . S
C216 H230 0.930 . S
C217 C214 1.378 . S
C217 N218 1.315 . S
C217 H220 0.930 . S
N218 Co198 2.194 . S
N218 C213 1.328 . S
N218 C217 1.315 . S
H219 C213 0.929 . S
H220 C217 0.930 . S
H221 C209 0.929 . S
H222 C211 0.929 . S
O223 Co198 2.351 . S
O223 C226 1.244 . S
O224 Co198 2.155 . S
O224 C226 1.240 . S
O225 Co198 2.096 . S
O225 C206 1.247 . S
C226 O223 1.244 . S
C226 O224 1.240 . S
H227 C201 0.931 . S
H228 C210 0.931 . S
H229 C214 0.929 . S
H230 C216 0.930 . S
Co231 N235 2.148 . S
Co231 N241 2.128 . S
Co231 N251 2.194 . S
Co231 O256 2.351 . S
Co231 O257 2.155 . S
Co231 O258 2.096 . S
C232 N235 1.301 . S
C232 N236 1.328 . S
C232 H237 0.930 . S
C233 C234 1.333 . S
C233 N235 1.317 . S
C233 H238 0.930 . S
C234 C233 1.333 . S
C234 N236 1.350 . S
C234 H260 0.931 . S
N235 Co231 2.148 . S
N235 C232 1.301 . S
N235 C233 1.317 . S
N236 C232 1.328 . S
N236 C234 1.350 . S
H237 C232 0.930 . S
H238 C233 0.930 . S
C239 O240 1.224 . S
C239 O258 1.247 . S
O240 C239 1.224 . S
N241 Co231 2.128 . S
N241 C242 1.355 . S
N241 C244 1.311 . S
C242 N241 1.355 . S
C242 C243 1.363 . S
C242 H254 0.929 . S
C243 C242 1.363 . S
C243 N245 1.375 . S
C243 H261 0.931 . S
C244 N241 1.311 . S
C244 N245 1.347 . S
C244 H255 0.929 . S
N245 C243 1.375 . S
N245 C244 1.347 . S
C246 C249 1.365 . S
C246 N251 1.328 . S
C246 H252 0.929 . S
C247 C248 1.362 . S
C247 C250 1.378 . S
C247 H262 0.929 1_455 S
C248 C247 1.362 . S
C248 C249 1.366 . S
C249 C246 1.365 . S
C249 C248 1.366 . S
C249 H263 0.930 . S
C250 C247 1.378 . S
C250 N251 1.315 . S
C250 H253 0.930 . S
N251 Co231 2.194 . S
N251 C246 1.328 . S
N251 C250 1.315 . S
H252 C246 0.929 . S
H253 C250 0.930 . S
H254 C242 0.929 . S
H255 C244 0.929 . S
O256 Co231 2.351 . S
O256 C259 1.244 . S
O257 Co231 2.155 . S
O257 C259 1.240 . S
O258 Co231 2.096 . S
O258 C239 1.247 . S
C259 O256 1.244 . S
C259 O257 1.240 . S
H260 C234 0.931 . S
H261 C243 0.931 . S
H262 C247 0.929 1_655 S
H263 C249 0.930 . S
Co264 N268 2.148 . S
Co264 N274 2.128 . S
Co264 N284 2.194 . S
Co264 O289 2.351 . S
Co264 O290 2.155 . S
Co264 O291 2.096 . S
C265 N268 1.301 . S
C265 N269 1.328 . S
C265 H270 0.930 . S
C266 C267 1.333 . S
C266 N268 1.317 . S
C266 H271 0.930 . S
C267 C266 1.333 . S
C267 N269 1.350 . S
C267 H293 0.931 . S
N268 Co264 2.148 . S
N268 C265 1.301 . S
N268 C266 1.317 . S
N269 C265 1.328 . S
N269 C267 1.350 . S
H270 C265 0.930 . S
H271 C266 0.930 . S
C272 O273 1.224 . S
C272 O291 1.247 . S
O273 C272 1.224 . S
N274 Co264 2.128 . S
N274 C275 1.355 . S
N274 C277 1.311 . S
C275 N274 1.355 . S
C275 C276 1.363 . S
C275 H287 0.929 . S
C276 C275 1.363 . S
C276 N278 1.375 . S
C276 H294 0.931 . S
C277 N274 1.311 . S
C277 N278 1.347 . S
C277 H288 0.929 . S
N278 C276 1.375 . S
N278 C277 1.347 . S
C279 C282 1.365 . S
C279 N284 1.328 . S
C279 H285 0.929 . S
C280 C281 1.362 . S
C280 C283 1.378 . S
C280 H295 0.929 1_545 S
C281 C280 1.362 . S
C281 C282 1.366 . S
C282 C279 1.365 . S
C282 C281 1.366 . S
C282 H296 0.930 . S
C283 C280 1.378 . S
C283 N284 1.315 . S
C283 H286 0.930 . S
N284 Co264 2.194 . S
N284 C279 1.328 . S
N284 C283 1.315 . S
H285 C279 0.929 . S
H286 C283 0.930 . S
H287 C275 0.929 . S
H288 C277 0.929 . S
O289 Co264 2.351 . S
O289 C292 1.244 . S
O290 Co264 2.155 . S
O290 C292 1.240 . S
O291 Co264 2.096 . S
O291 C272 1.247 . S
C292 O289 1.244 . S
C292 O290 1.240 . S
H293 C267 0.931 . S
H294 C276 0.931 . S
H295 C280 0.929 1_565 S
H296 C282 0.930 . S
Co297 N301 2.148 . S
Co297 N307 2.128 . S
Co297 N317 2.194 . S
Co297 O322 2.351 . S
Co297 O323 2.155 . S
Co297 O324 2.096 . S
C298 N301 1.301 . S
C298 N302 1.328 . S
C298 H303 0.930 . S
C299 C300 1.333 . S
C299 N301 1.317 . S
C299 H304 0.930 . S
C300 C299 1.333 . S
C300 N302 1.350 . S
C300 H326 0.931 . S
N301 Co297 2.148 . S
N301 C298 1.301 . S
N301 C299 1.317 . S
N302 C298 1.328 . S
N302 C300 1.350 . S
H303 C298 0.930 . S
H304 C299 0.930 . S
C305 O306 1.224 . S
C305 O324 1.247 . S
O306 C305 1.224 . S
N307 Co297 2.128 . S
N307 C308 1.355 . S
N307 C310 1.311 . S
C308 N307 1.355 . S
C308 C309 1.363 . S
C308 H320 0.929 . S
C309 C308 1.363 . S
C309 N311 1.375 . S
C309 H327 0.931 . S
C310 N307 1.311 . S
C310 N311 1.347 . S
C310 H321 0.929 . S
N311 C309 1.375 . S
N311 C310 1.347 . S
C312 C315 1.365 . S
C312 N317 1.328 . S
C312 H318 0.929 . S
C313 C314 1.362 . S
C313 C316 1.378 . S
C313 H328 0.929 . S
C314 C313 1.362 . S
C314 C315 1.366 . S
C315 C312 1.365 . S
C315 C314 1.366 . S
C315 H329 0.930 . S
C316 C313 1.378 . S
C316 N317 1.315 . S
C316 H319 0.930 . S
N317 Co297 2.194 . S
N317 C312 1.328 . S
N317 C316 1.315 . S
H318 C312 0.929 . S
H319 C316 0.930 . S
H320 C308 0.929 . S
H321 C310 0.929 . S
O322 Co297 2.351 . S
O322 C325 1.244 . S
O323 Co297 2.155 . S
O323 C325 1.240 . S
O324 Co297 2.096 . S
O324 C305 1.247 . S
C325 O322 1.244 . S
C325 O323 1.240 . S
H326 C300 0.931 . S
H327 C309 0.931 . S
H328 C313 0.929 . S
H329 C315 0.930 . S
Co330 N334 2.148 . S
Co330 N340 2.128 . S
Co330 N350 2.194 . S
Co330 O355 2.351 . S
Co330 O356 2.155 . S
Co330 O357 2.096 . S
C331 N334 1.301 . S
C331 N335 1.328 . S
C331 H336 0.930 . S
C332 C333 1.333 . S
C332 N334 1.317 . S
C332 H337 0.930 . S
C333 C332 1.333 . S
C333 N335 1.350 . S
C333 H359 0.931 . S
N334 Co330 2.148 . S
N334 C331 1.301 . S
N334 C332 1.317 . S
N335 C331 1.328 . S
N335 C333 1.350 . S
H336 C331 0.930 . S
H337 C332 0.930 . S
C338 O339 1.224 . S
C338 O357 1.247 . S
O339 C338 1.224 . S
N340 Co330 2.128 . S
N340 C341 1.355 . S
N340 C343 1.311 . S
C341 N340 1.355 . S
C341 C342 1.363 . S
C341 H353 0.929 . S
C342 C341 1.363 . S
C342 N344 1.375 . S
C342 H360 0.931 . S
C343 N340 1.311 . S
C343 N344 1.347 . S
C343 H354 0.929 . S
N344 C342 1.375 . S
N344 C343 1.347 . S
C345 C348 1.365 . S
C345 N350 1.328 . S
C345 H351 0.929 . S
C346 C347 1.362 . S
C346 C349 1.378 . S
C346 H361 0.929 1_655 S
C347 C346 1.362 . S
C347 C348 1.366 . S
C348 C345 1.365 . S
C348 C347 1.366 . S
C348 H362 0.930 . S
C349 C346 1.378 . S
C349 N350 1.315 . S
C349 H352 0.930 . S
N350 Co330 2.194 . S
N350 C345 1.328 . S
N350 C349 1.315 . S
H351 C345 0.929 . S
H352 C349 0.930 . S
H353 C341 0.929 . S
H354 C343 0.929 . S
O355 Co330 2.351 . S
O355 C358 1.244 . S
O356 Co330 2.155 . S
O356 C358 1.240 . S
O357 Co330 2.096 . S
O357 C338 1.247 . S
C358 O355 1.244 . S
C358 O356 1.240 . S
H359 C333 0.931 . S
H360 C342 0.931 . S
H361 C346 0.929 1_455 S
H362 C348 0.930 . S
Co363 N367 2.148 . S
Co363 N373 2.128 . S
Co363 N383 2.194 . S
Co363 O388 2.351 . S
Co363 O389 2.155 . S
Co363 O390 2.096 . S
C364 N367 1.301 . S
C364 N368 1.328 . S
C364 H369 0.930 . S
C365 C366 1.333 . S
C365 N367 1.317 . S
C365 H370 0.930 . S
C366 C365 1.333 . S
C366 N368 1.350 . S
C366 H392 0.931 . S
N367 Co363 2.148 . S
N367 C364 1.301 . S
N367 C365 1.317 . S
N368 C364 1.328 . S
N368 C366 1.350 . S
H369 C364 0.930 . S
H370 C365 0.930 . S
C371 O372 1.224 . S
C371 O390 1.247 . S
O372 C371 1.224 . S
N373 Co363 2.128 . S
N373 C374 1.355 . S
N373 C376 1.311 . S
C374 N373 1.355 . S
C374 C375 1.363 . S
C374 H386 0.929 . S
C375 C374 1.363 . S
C375 N377 1.375 . S
C375 H393 0.931 . S
C376 N373 1.311 . S
C376 N377 1.347 . S
C376 H387 0.929 . S
N377 C375 1.375 . S
N377 C376 1.347 . S
C378 C381 1.365 . S
C378 N383 1.328 . S
C378 H384 0.929 . S
C379 C380 1.362 . S
C379 C382 1.378 . S
C379 H394 0.929 1_565 S
C380 C379 1.362 . S
C380 C381 1.366 . S
C381 C378 1.365 . S
C381 C380 1.366 . S
C381 H395 0.930 . S
C382 C379 1.378 . S
C382 N383 1.315 . S
C382 H385 0.930 . S
N383 Co363 2.194 . S
N383 C378 1.328 . S
N383 C382 1.315 . S
H384 C378 0.929 . S
H385 C382 0.930 . S
H386 C374 0.929 . S
H387 C376 0.929 . S
O388 Co363 2.351 . S
O388 C391 1.244 . S
O389 Co363 2.155 . S
O389 C391 1.240 . S
O390 Co363 2.096 . S
O390 C371 1.247 . S
C391 O388 1.244 . S
C391 O389 1.240 . S
H392 C366 0.931 . S
H393 C375 0.931 . S
H394 C379 0.929 1_545 S
H395 C381 0.930 . S
C396 C397 1.369 1_565 S
C396 C398 1.419 1_554 S
C396 H400 0.930 . S
C397 C396 1.369 1_545 S
C397 C406 1.469 . S
C398 C396 1.419 1_556 S
C398 C399 1.363 . S
C398 H401 0.929 . S
C399 C398 1.363 . S
C399 C405 1.428 1_565 S
H400 C396 0.930 . S
H401 C398 0.929 . S
S402 N403 1.618 . S
S402 N404 1.610 . S
N403 S402 1.618 . S
N403 C406 1.348 1_556 S
N404 S402 1.610 . S
N404 C405 1.351 . S
C405 C399 1.428 1_545 S
C405 N404 1.351 . S
C405 C406 1.393 1_556 S
C406 C397 1.469 . S
C406 N403 1.348 1_554 S
C406 C405 1.393 1_554 S
C407 C408 1.369 . S
C407 C409 1.419 . S
C407 H411 0.930 . S
C408 C407 1.369 . S
C408 C417 1.429 . S
C409 C407 1.419 . S
C409 C410 1.363 . S
C409 H412 0.929 . S
C410 C409 1.363 . S
C410 C416 1.428 . S
H411 C407 0.930 . S
H412 C409 0.929 . S
S413 N414 1.613 . S
S413 N415 1.610 . S
N414 S413 1.613 . S
N414 C417 1.350 . S
N415 S413 1.610 . S
N415 C416 1.351 . S
C416 C410 1.428 . S
C416 N415 1.351 . S
C416 C417 1.434 . S
C417 C408 1.429 . S
C417 N414 1.350 . S
C417 C416 1.434 . S
C418 C419 1.369 . S
C418 C420 1.419 . S
C418 H422 0.930 . S
C419 C418 1.369 . S
C419 C428 1.429 1_655 S
C420 C418 1.419 . S
C420 C421 1.363 1_655 S
C420 H423 0.929 . S
C421 C420 1.363 1_455 S
C421 C427 1.428 . S
H422 C418 0.930 . S
H423 C420 0.929 . S
S424 N425 1.613 . S
S424 N426 1.610 . S
N425 S424 1.613 . S
N425 C428 1.350 . S
N426 S424 1.610 . S
N426 C427 1.351 . S
C427 C421 1.428 . S
C427 N426 1.351 . S
C427 C428 1.434 . S
C428 C419 1.429 1_455 S
C428 N425 1.350 . S
C428 C427 1.434 . S
C429 C430 1.369 1_565 S
C429 C431 1.419 1_556 S
C429 H433 0.930 . S
C430 C429 1.369 1_545 S
C430 C439 1.469 . S
C431 C429 1.419 1_554 S
C431 C432 1.363 . S
C431 H434 0.929 . S
C432 C431 1.363 . S
C432 C438 1.428 1_565 S
H433 C429 0.930 . S
H434 C431 0.929 . S
S435 N436 1.654 . S
S435 N437 1.610 . S
N436 S435 1.654 . S
N436 C439 1.345 1_554 S
N437 S435 1.610 . S
N437 C438 1.351 . S
C438 C432 1.428 1_545 S
C438 N437 1.351 . S
C438 C439 1.393 1_554 S
C439 C430 1.469 . S
C439 N436 1.345 1_556 S
C439 C438 1.393 1_556 S
C440 C441 1.369 . S
C440 C442 1.419 . S
C440 H444 0.930 . S
C441 C440 1.369 . S
C441 C450 1.429 . S
C442 C440 1.419 . S
C442 C443 1.363 . S
C442 H445 0.929 . S
C443 C442 1.363 . S
C443 C449 1.428 . S
H444 C440 0.930 . S
H445 C442 0.929 . S
S446 N447 1.613 . S
S446 N448 1.610 . S
N447 S446 1.613 . S
N447 C450 1.350 . S
N448 S446 1.610 . S
N448 C449 1.351 . S
C449 C443 1.428 . S
C449 N448 1.351 . S
C449 C450 1.434 . S
C450 C441 1.429 . S
C450 N447 1.350 . S
C450 C449 1.434 . S
C451 C452 1.369 1_655 S
C451 C453 1.419 . S
C451 H455 0.930 . S
C452 C451 1.369 1_455 S
C452 C461 1.429 . S
C453 C451 1.419 . S
C453 C454 1.363 . S
C453 H456 0.929 . S
C454 C453 1.363 . S
C454 C460 1.428 1_655 S
H455 C451 0.930 . S
H456 C453 0.929 . S
S457 N458 1.613 . S
S457 N459 1.610 . S
N458 S457 1.613 . S
N458 C461 1.350 . S
N459 S457 1.610 . S
N459 C460 1.351 . S
C460 C454 1.428 1_455 S
C460 N459 1.351 . S
C460 C461 1.434 . S
C461 C452 1.429 . S
C461 N458 1.350 . S
C461 C460 1.434 . S
C462 C463 1.369 . S
C462 C464 1.419 . S
C462 H466 0.930 . S
C463 C462 1.369 . S
C463 C472 1.429 1_565 S
C464 C462 1.419 . S
C464 C465 1.363 1_565 S
C464 H467 0.929 . S
C465 C464 1.363 1_545 S
C465 C471 1.428 . S
H466 C462 0.930 . S
H467 C464 0.929 . S
S468 N469 1.613 . S
S468 N470 1.610 . S
N469 S468 1.613 . S
N469 C472 1.350 . S
N470 S468 1.610 . S
N470 C471 1.351 . S
C471 C465 1.428 . S
C471 N470 1.351 . S
C471 C472 1.434 . S
C472 C463 1.429 1_545 S
C472 N469 1.350 . S
C472 C471 1.434 . S
C473 C474 1.369 . S
C473 C475 1.419 . S
C473 H477 0.930 . S
C474 C473 1.369 . S
C474 C483 1.429 . S
C475 C473 1.419 . S
C475 C476 1.363 . S
C475 H478 0.929 . S
C476 C475 1.363 . S
C476 C482 1.428 . S
H477 C473 0.930 . S
H478 C475 0.929 . S
S479 N480 1.613 . S
S479 N481 1.610 . S
N480 S479 1.613 . S
N480 C483 1.350 . S
N481 S479 1.610 . S
N481 C482 1.351 . S
C482 C476 1.428 . S
C482 N481 1.351 . S
C482 C483 1.434 . S
C483 C474 1.429 . S
C483 N480 1.350 . S
C483 C482 1.434 . S
C484 C485 1.369 1_655 S
C484 C486 1.419 . S
C484 H488 0.930 . S
C485 C484 1.369 1_455 S
C485 C494 1.429 . S
C486 C484 1.419 . S
C486 C487 1.363 . S
C486 H489 0.929 . S
C487 C486 1.363 . S
C487 C493 1.428 1_655 S
H488 C484 0.930 . S
H489 C486 0.929 . S
S490 N491 1.613 . S
S490 N492 1.610 . S
N491 S490 1.613 . S
N491 C494 1.350 . S
N492 S490 1.610 . S
N492 C493 1.351 . S
C493 C487 1.428 1_455 S
C493 N492 1.351 . S
C493 C494 1.434 . S
C494 C485 1.429 . S
C494 N491 1.350 . S
C494 C493 1.434 . S
C495 C496 1.369 1_655 S
C495 C497 1.419 . S
C495 H499 0.930 . S
C496 C495 1.369 1_455 S
C496 C505 1.429 . S
C497 C495 1.419 . S
C497 C498 1.363 . S
C497 H500 0.929 . S
C498 C497 1.363 . S
C498 C504 1.428 1_655 S
H499 C495 0.930 . S
H500 C497 0.929 . S
S501 N502 1.613 . S
S501 N503 1.610 . S
N502 S501 1.613 . S
N502 C505 1.350 . S
N503 S501 1.610 . S
N503 C504 1.351 . S
C504 C498 1.428 1_455 S
C504 N503 1.351 . S
C504 C505 1.434 . S
C505 C496 1.429 . S
C505 N502 1.350 . S
C505 C504 1.434 . S
C506 C507 1.369 . S
C506 C508 1.419 . S
C506 H510 0.930 . S
C507 C506 1.369 . S
C507 C516 1.429 1_545 S
C508 C506 1.419 . S
C508 C509 1.363 1_545 S
C508 H511 0.929 . S
C509 C508 1.363 1_565 S
C509 C515 1.428 . S
H510 C506 0.930 . S
H511 C508 0.929 . S
S512 N513 1.613 . S
S512 N514 1.610 . S
N513 S512 1.613 . S
N513 C516 1.350 . S
N514 S512 1.610 . S
N514 C515 1.351 . S
C515 C509 1.428 . S
C515 N514 1.351 . S
C515 C516 1.434 . S
C516 C507 1.429 1_565 S
C516 N513 1.350 . S
C516 C515 1.434 . S
C517 C518 1.369 . S
C517 C519 1.419 . S
C517 H521 0.930 . S
C518 C517 1.369 . S
C518 C527 1.429 . S
C519 C517 1.419 . S
C519 C520 1.363 . S
C519 H522 0.929 . S
C520 C519 1.363 . S
C520 C526 1.428 . S
H521 C517 0.930 . S
H522 C519 0.929 . S
S523 N524 1.613 . S
S523 N525 1.610 . S
N524 S523 1.613 . S
N524 C527 1.350 . S
N525 S523 1.610 . S
N525 C526 1.351 . S
C526 C520 1.428 . S
C526 N525 1.351 . S
C526 C527 1.434 . S
C527 C518 1.429 . S
C527 N524 1.350 . S
C527 C526 1.434 . S
C528 C529 1.369 . S
C528 C530 1.419 . S
C528 H532 0.930 . S
C529 C528 1.369 . S
C529 C538 1.429 . S
C530 C528 1.419 . S
C530 C531 1.363 . S
C530 H533 0.929 . S
C531 C530 1.363 . S
C531 C537 1.428 . S
H532 C528 0.930 . S
H533 C530 0.929 . S
S534 N535 1.613 . S
S534 N536 1.610 . S
N535 S534 1.613 . S
N535 C538 1.350 . S
N536 S534 1.610 . S
N536 C537 1.351 . S
C537 C531 1.428 . S
C537 N536 1.351 . S
C537 C538 1.434 . S
C538 C529 1.429 . S
C538 N535 1.350 . S
C538 C537 1.434 . S
C539 C540 1.369 . S
C539 C541 1.419 . S
C539 H543 0.930 . S
C540 C539 1.369 . S
C540 C549 1.429 . S
C541 C539 1.419 . S
C541 C542 1.363 . S
C541 H544 0.929 . S
C542 C541 1.363 . S
C542 C548 1.428 . S
H543 C539 0.930 . S
H544 C541 0.929 . S
S545 N546 1.613 . S
S545 N547 1.610 . S
N546 S545 1.613 . S
N546 C549 1.350 . S
N547 S545 1.610 . S
N547 C548 1.351 . S
C548 C542 1.428 . S
C548 N547 1.351 . S
C548 C549 1.434 . S
C549 C540 1.429 . S
C549 N546 1.350 . S
C549 C548 1.434 . S
C550 C551 1.369 . S
C550 C552 1.419 . S
C550 H554 0.930 . S
C551 C550 1.369 . S
C551 C560 1.429 . S
C552 C550 1.419 . S
C552 C553 1.363 . S
C552 H555 0.929 . S
C553 C552 1.363 . S
C553 C559 1.428 . S
H554 C550 0.930 . S
H555 C552 0.929 . S
S556 N557 1.613 1_565 S
S556 N558 1.610 1_565 S
N557 S556 1.613 1_545 S
N557 C560 1.350 . S
N558 S556 1.610 1_545 S
N558 C559 1.351 . S
C559 C553 1.428 . S
C559 N558 1.351 . S
C559 C560 1.434 . S
C560 C551 1.429 . S
C560 N557 1.350 . S
C560 C559 1.434 . S
C561 C562 1.369 . S
C561 C563 1.419 . S
C561 H565 0.930 . S
C562 C561 1.369 . S
C562 C571 1.429 . S
C563 C561 1.419 . S
C563 C564 1.363 . S
C563 H566 0.929 . S
C564 C563 1.363 . S
C564 C570 1.428 . S
H565 C561 0.930 . S
H566 C563 0.929 . S
S567 N568 1.613 . S
S567 N569 1.610 . S
N568 S567 1.613 . S
N568 C571 1.350 . S
N569 S567 1.610 . S
N569 C570 1.351 . S
C570 C564 1.428 . S
C570 N569 1.351 . S
C570 C571 1.434 . S
C571 C562 1.429 . S
C571 N568 1.350 . S
C571 C570 1.434 . S
C572 C573 1.369 . S
C572 C574 1.419 . S
C572 H576 0.930 . S
C573 C572 1.369 . S
C573 C582 1.429 . S
C574 C572 1.419 . S
C574 C575 1.363 . S
C574 H577 0.929 . S
C575 C574 1.363 . S
C575 C581 1.428 . S
H576 C572 0.930 . S
H577 C574 0.929 . S
S578 N579 1.613 . S
S578 N580 1.610 . S
N579 S578 1.613 . S
N579 C582 1.350 . S
N580 S578 1.610 . S
N580 C581 1.351 . S
C581 C575 1.428 . S
C581 N580 1.351 . S
C581 C582 1.434 . S
C582 C573 1.429 . S
C582 N579 1.350 . S
C582 C581 1.434 . S
C583 C584 1.369 . S
C583 C585 1.419 . S
C583 H587 0.930 . S
C584 C583 1.369 . S
C584 C593 1.429 . S
C585 C583 1.419 . S
C585 C586 1.363 . S
C585 H588 0.929 . S
C586 C585 1.363 . S
C586 C592 1.428 . S
H587 C583 0.930 . S
H588 C585 0.929 . S
S589 N590 1.613 . S
S589 N591 1.610 . S
N590 S589 1.613 . S
N590 C593 1.350 . S
N591 S589 1.610 . S
N591 C592 1.351 . S
C592 C586 1.428 . S
C592 N591 1.351 . S
C592 C593 1.434 . S
C593 C584 1.429 . S
C593 N590 1.350 . S
C593 C592 1.434 . S
C594 C595 1.369 . S
C594 C596 1.419 . S
C594 H598 0.930 . S
C595 C594 1.369 . S
C595 C604 1.429 . S
C596 C594 1.419 . S
C596 C597 1.363 . S
C596 H599 0.929 . S
C597 C596 1.363 . S
C597 C603 1.428 . S
H598 C594 0.930 . S
H599 C596 0.929 . S
S600 N601 1.613 . S
S600 N602 1.610 . S
N601 S600 1.613 . S
N601 C604 1.350 . S
N602 S600 1.610 . S
N602 C603 1.351 . S
C603 C597 1.428 . S
C603 N602 1.351 . S
C603 C604 1.434 . S
C604 C595 1.429 . S
C604 N601 1.350 . S
C604 C603 1.434 . S
C605 C606 1.369 . S
C605 C607 1.419 . S
C605 H609 0.930 . S
C606 C605 1.369 . S
C606 C615 1.429 1_455 S
C607 C605 1.419 . S
C607 C608 1.363 1_455 S
C607 H610 0.929 . S
C608 C607 1.363 1_655 S
C608 C614 1.428 . S
H609 C605 0.930 . S
H610 C607 0.929 . S
S611 N612 1.613 . S
S611 N613 1.610 . S
N612 S611 1.613 . S
N612 C615 1.350 . S
N613 S611 1.610 . S
N613 C614 1.351 . S
C614 C608 1.428 . S
C614 N613 1.351 . S
C614 C615 1.434 . S
C615 C606 1.429 1_655 S
C615 N612 1.350 . S
C615 C614 1.434 . S
C616 C617 1.369 . S
C616 C618 1.419 . S
C616 H620 0.930 . S
C617 C616 1.369 . S
C617 C626 1.429 1_565 S
C618 C616 1.419 . S
C618 C619 1.363 1_565 S
C618 H621 0.929 . S
C619 C618 1.363 1_545 S
C619 C625 1.428 . S
H620 C616 0.930 . S
H621 C618 0.929 . S
S622 N623 1.613 . S
S622 N624 1.610 . S
N623 S622 1.613 . S
N623 C626 1.350 . S
N624 S622 1.610 . S
N624 C625 1.351 . S
C625 C619 1.428 . S
C625 N624 1.351 . S
C625 C626 1.434 . S
C626 C617 1.429 1_545 S
C626 N623 1.350 . S
C626 C625 1.434 . S
C627 C628 1.369 . S
C627 C629 1.419 . S
C627 H631 0.930 . S
C628 C627 1.369 . S
C628 C637 1.429 . S
C629 C627 1.419 . S
C629 C630 1.363 . S
C629 H632 0.929 . S
C630 C629 1.363 . S
C630 C636 1.428 . S
H631 C627 0.930 . S
H632 C629 0.929 . S
S633 N634 1.613 . S
S633 N635 1.610 . S
N634 S633 1.613 . S
N634 C637 1.350 . S
N635 S633 1.610 . S
N635 C636 1.351 . S
C636 C630 1.428 . S
C636 N635 1.351 . S
C636 C637 1.434 . S
C637 C628 1.429 . S
C637 N634 1.350 . S
C637 C636 1.434 . S
C638 C639 1.369 . S
C638 C640 1.419 1_455 S
C638 H642 0.930 . S
C639 C638 1.369 . S
C639 C648 1.429 . S
C640 C638 1.419 1_655 S
C640 C641 1.363 . S
C640 H643 0.929 . S
C641 C640 1.363 . S
C641 C647 1.428 . S
H642 C638 0.930 . S
H643 C640 0.929 . S
S644 N645 1.613 1_655 S
S644 N646 1.610 . S
N645 S644 1.613 1_455 S
N645 C648 1.350 . S
N646 S644 1.610 . S
N646 C647 1.351 . S
C647 C641 1.428 . S
C647 N646 1.351 . S
C647 C648 1.434 1_655 S
C648 C639 1.429 . S
C648 N645 1.350 . S
C648 C647 1.434 1_455 S
C649 C650 1.369 . S
C649 C651 1.419 . S
C649 H653 0.930 . S
C650 C649 1.369 . S
C650 C659 1.429 1_565 S
C651 C649 1.419 . S
C651 C652 1.363 1_565 S
C651 H654 0.929 . S
C652 C651 1.363 1_545 S
C652 C658 1.428 . S
H653 C649 0.930 . S
H654 C651 0.929 . S
S655 N656 1.613 . S
S655 N657 1.610 . S
N656 S655 1.613 . S
N656 C659 1.350 . S
N657 S655 1.610 . S
N657 C658 1.351 . S
C658 C652 1.428 . S
C658 N657 1.351 . S
C658 C659 1.434 . S
C659 C650 1.429 1_545 S
C659 N656 1.350 . S
C659 C658 1.434 . S
C660 C661 1.369 . S
C660 C662 1.419 1_455 S
C660 H664 0.930 . S
C661 C660 1.369 . S
C661 C670 1.429 1_545 S
C662 C660 1.419 1_655 S
C662 C663 1.363 1_545 S
C662 H665 0.929 . S
C663 C662 1.363 1_565 S
C663 C669 1.428 . S
H664 C660 0.930 . S
H665 C662 0.929 . S
S666 N667 1.613 1_655 S
S666 N668 1.610 . S
N667 S666 1.613 1_455 S
N667 C670 1.350 . S
N668 S666 1.610 . S
N668 C669 1.351 . S
C669 C663 1.428 . S
C669 N668 1.351 . S
C669 C670 1.434 1_655 S
C670 C661 1.429 1_565 S
C670 N667 1.350 . S
C670 C669 1.434 1_455 S
C671 C672 1.369 . S
C671 C673 1.419 1_545 S
C671 H675 0.930 . S
C672 C671 1.369 . S
C672 C681 1.429 1_455 S
C673 C671 1.419 1_565 S
C673 C674 1.363 1_455 S
C673 H676 0.929 . S
C674 C673 1.363 1_655 S
C674 C680 1.428 . S
H675 C671 0.930 . S
H676 C673 0.929 . S
S677 N678 1.613 . S
S677 N679 1.610 1_545 S
N678 S677 1.613 . S
N678 C681 1.350 . S
N679 S677 1.610 1_565 S
N679 C680 1.351 . S
C680 C674 1.428 . S
C680 N679 1.351 . S
C680 C681 1.434 1_565 S
C681 C672 1.429 1_655 S
C681 N678 1.350 . S
C681 C680 1.434 1_545 S
C682 C683 1.369 1_455 S
C682 C684 1.419 . S
C682 H686 0.930 . S
C683 C682 1.369 1_655 S
C683 C692 1.429 1_545 S
C684 C682 1.419 . S
C684 C685 1.363 1_545 S
C684 H687 0.929 . S
C685 C684 1.363 1_565 S
C685 C691 1.428 1_455 S
H686 C682 0.930 . S
H687 C684 0.929 . S
S688 N689 1.613 . S
S688 N690 1.610 . S
N689 S688 1.613 . S
N689 C692 1.350 . S
N690 S688 1.610 . S
N690 C691 1.351 . S
C691 C685 1.428 1_655 S
C691 N690 1.351 . S
C691 C692 1.434 . S
C692 C683 1.429 1_565 S
C692 N689 1.350 . S
C692 C691 1.434 . S
C693 C694 1.369 1_455 S
C693 C695 1.419 1_565 S
C693 H697 0.930 . S
C694 C693 1.369 1_655 S
C694 C703 1.429 . S
C695 C693 1.419 1_545 S
C695 C696 1.363 . S
C695 H698 0.929 . S
C696 C695 1.363 . S
C696 C702 1.428 1_455 S
H697 C693 0.930 . S
H698 C695 0.929 . S
S699 N700 1.613 . S
S699 N701 1.610 1_565 S
N700 S699 1.613 . S
N700 C703 1.350 . S
N701 S699 1.610 1_545 S
N701 C702 1.351 . S
C702 C696 1.428 1_655 S
C702 N701 1.351 . S
C702 C703 1.434 1_545 S
C703 C694 1.429 . S
C703 N700 1.350 . S
C703 C702 1.434 1_565 S
C704 C705 1.369 . S
C704 C706 1.419 1_655 S
C704 H708 0.930 . S
C705 C704 1.369 . S
C705 C714 1.429 1_545 S
C706 C704 1.419 1_455 S
C706 C707 1.363 1_545 S
C706 H709 0.929 . S
C707 C706 1.363 1_565 S
C707 C713 1.428 . S
H708 C704 0.930 . S
H709 C706 0.929 . S
S710 N711 1.613 . S
S710 N712 1.611 . S
N711 S710 1.613 . S
N711 C714 1.350 . S
N712 S710 1.611 . S
N712 C713 1.351 1_655 S
C713 C707 1.428 . S
C713 N712 1.351 1_455 S
C713 C714 1.434 1_455 S
C714 C705 1.429 1_565 S
C714 N711 1.350 . S
C714 C713 1.434 1_655 S
C715 C716 1.369 . S
C715 C717 1.419 1_455 S
C715 H719 0.930 . S
C716 C715 1.369 . S
C716 C725 1.429 1_545 S
C717 C715 1.419 1_655 S
C717 C718 1.363 1_545 S
C717 H720 0.929 . S
C718 C717 1.363 1_565 S
C718 C724 1.428 . S
H719 C715 0.930 . S
H720 C717 0.929 . S
S721 N722 1.613 . S
S721 N723 1.610 1_455 S
N722 S721 1.613 . S
N722 C725 1.350 . S
N723 S721 1.610 1_655 S
N723 C724 1.351 . S
C724 C718 1.428 . S
C724 N723 1.351 . S
C724 C725 1.434 1_655 S
C725 C716 1.429 1_565 S
C725 N722 1.350 . S
C725 C724 1.434 1_455 S
C397 N14 1.614 . S
C399 N245 1.612 . S
C408 N47 1.609 . S
C410 N278 1.612 . S
C419 N80 1.608 . S
C421 N311 1.611 . S
C430 N344 1.610 . S
C432 N113 1.608 . S
C441 N377 1.607 . S
C443 N146 1.611 . S
C452 N179 1.613 . S
C454 N212 1.610 . S
C463 C127 1.771 . S
C465 C28 1.769 . S
C474 C61 1.769 . S
C476 C160 1.771 . S
C485 C193 1.767 . S
C487 C94 1.768 . S
C496 C325 1.768 . S
C498 C226 1.770 . S
C507 C358 1.770 . S
C509 C259 1.768 . S
C518 C292 1.768 . S
C520 C391 1.768 . S
C529 N269 1.545 . S
C531 N5 1.543 . S
C540 N38 1.542 . S
C542 N302 1.540 . S
C551 N71 1.537 . S
C553 N335 1.540 . S
C562 N104 1.545 . S
C564 N368 1.544 . S
C573 N137 1.545 . S
C575 N203 1.543 . S
C584 N236 1.543 . S
C586 N170 1.541 . S
C595 C116 1.090 . S
C597 C17 1.093 . S
C606 C50 1.096 . S
C608 C149 1.095 . S
C617 C182 1.097 . S
C619 C83 1.095 . S
C628 C215 1.094 . S
C630 C314 1.096 . S
C639 C248 1.092 . S
C641 C347 1.091 . S
C650 C380 1.094 . S
C652 C281 1.091 . S
C661 C8 1.478 . S
C663 C107 1.473 . S
C672 C41 1.473 . S
C674 C140 1.476 . S
C683 C74 1.473 . S
C685 C173 1.477 . S
C694 C206 1.475 . S
C696 C305 1.475 . S
C705 C338 1.477 . S
C707 C239 1.474 . S
C716 C272 1.472 . S
C718 C371 1.477 . S
