# Generated by pormake.
# Topology wli, (5)-cn, num edge types: 1
# Building blocks:
#     Node 0, Type 0, BuildingBlock: BEQFEK_clean_sbu_0, # of connection points: 5
#     Node 1, Type 0, BuildingBlock: BEQFEK_clean_sbu_0, # of connection points: 5
#     Node 2, Type 0, BuildingBlock: BEQFEK_clean_sbu_0, # of connection points: 5
#     Node 3, Type 0, BuildingBlock: BEQFEK_clean_sbu_0, # of connection points: 5
#     Node 4, Type 0, BuildingBlock: BEQFEK_clean_sbu_0, # of connection points: 5
#     Node 5, Type 0, BuildingBlock: BEQFEK_clean_sbu_0, # of connection points: 5
#     Edge 6, Type (0, 0), BuildingBlock: FUNLAD_clean_linker_1, # of connection points: 2
#     Edge 7, Type (0, 0), BuildingBlock: FUNLAD_clean_linker_1, # of connection points: 2
#     Edge 8, Type (0, 0), BuildingBlock: FUNLAD_clean_linker_1, # of connection points: 2
#     Edge 9, Type (0, 0), BuildingBlock: FUNLAD_clean_linker_1, # of connection points: 2
#     Edge 10, Type (0, 0), BuildingBlock: FUNLAD_clean_linker_1, # of connection points: 2
#     Edge 11, Type (0, 0), BuildingBlock: FUNLAD_clean_linker_1, # of connection points: 2
#     Edge 12, Type (0, 0), BuildingBlock: FUNLAD_clean_linker_1, # of connection points: 2
#     Edge 13, Type (0, 0), BuildingBlock: FUNLAD_clean_linker_1, # of connection points: 2
#     Edge 14, Type (0, 0), BuildingBlock: FUNLAD_clean_linker_1, # of connection points: 2
#     Edge 15, Type (0, 0), BuildingBlock: FUNLAD_clean_linker_1, # of connection points: 2
#     Edge 16, Type (0, 0), BuildingBlock: FUNLAD_clean_linker_1, # of connection points: 2
#     Edge 17, Type (0, 0), BuildingBlock: FUNLAD_clean_linker_1, # of connection points: 2
#     Edge 18, Type (0, 0), BuildingBlock: FUNLAD_clean_linker_1, # of connection points: 2
#     Edge 19, Type (0, 0), BuildingBlock: FUNLAD_clean_linker_1, # of connection points: 2
#     Edge 20, Type (0, 0), BuildingBlock: FUNLAD_clean_linker_1, # of connection points: 2
# Relax obj value: 0.166
# Max RMSD: 0.121
# Mean RMSD: 0.121
data_MOF--net-wli--node1-BEQFEK_clean_sbu_0--edge1-FUNLAD_clean_linker_1
_symmetry_space_group_name_H-M    P1
_symmetry_Int_Tables_number       1
_symmetry_cell_setting            triclinic
loop_
_symmetry_equiv_pos_as_xyz
'x, y, z'
_cell_length_a     37.945605
_cell_length_b     38.023942
_cell_length_c     29.18593
_cell_angle_alpha  89.985574
_cell_angle_beta   89.868525
_cell_angle_gamma 119.87759
loop_
_atom_site_label
_atom_site_type_symbol
_atom_site_fract_x
_atom_site_fract_y
_atom_site_fract_z
_atom_type_partial_charge
Co0 Co 0.20991 0.44087 0.99282 0.0
Co1 Co 0.14031 0.37587 0.0563 0.0
C2 C 0.21361 0.36958 0.03149 0.0
O3 O 0.22814 0.40235 0.00879 0.0
O4 O 0.1795 0.35493 0.05213 0.0
C5 C 0.29196 0.50071 0.97748 0.0
O6 O 0.2962 0.48728 0.01735 0.0
C7 C 0.10479 0.33663 0.14491 0.0
C8 C 0.03936 0.31323 0.1337 0.0
C9 C 0.06733 0.31758 0.16693 0.0
N10 N 0.09937 0.34401 0.10111 0.0
N11 N 0.06003 0.32925 0.09447 0.0
C12 C 0.14545 0.35013 0.16597 0.0
H13 H 0.17025 0.37066 0.14243 0.0
H14 H 0.14811 0.36579 0.19894 0.0
H15 H 0.14843 0.3231 0.1734 0.0
C16 C 0.20605 0.49695 0.06008 0.0
N17 N 0.19517 0.45919 0.04579 0.0
N18 N 0.16614 0.43243 0.07252 0.0
C19 C 0.15748 0.45263 0.10462 0.0
C20 C 0.18296 0.49406 0.09843 0.0
C21 C 0.23322 0.53448 0.03322 0.0
H22 H 0.22949 0.52779 0.99604 0.0
H23 H 0.26531 0.54517 0.04257 0.0
H24 H 0.22631 0.55908 0.04011 0.0
O25 O 0.1628 0.41422 0.9509 0.0
O26 O 0.11337 0.36833 0.99534 0.0
H27 H 0.09551 0.4099 0.12131 0.0
H28 H 0.11705 0.45496 0.15601 0.0
C29 C 0.1235 0.43286 0.13869 0.0
H30 H 0.13189 0.41765 0.16532 0.0
H31 H 0.04744 0.33155 0.06363 0.0
O32 O 0.25671 0.48591 0.96005 0.0
C33 C 0.12626 0.38582 0.9566 0.0
Co34 Co 0.58281 0.76803 0.64552 0.0
Co35 Co 0.64059 0.77095 0.72474 0.0
C36 C 0.65047 0.84697 0.68447 0.0
O37 O 0.62082 0.82621 0.6577 0.0
O38 O 0.66243 0.83018 0.71366 0.0
C39 C 0.52435 0.78715 0.61116 0.0
O40 O 0.53415 0.80931 0.64851 0.0
C41 C 0.68228 0.77997 0.81467 0.0
C42 C 0.69405 0.72879 0.80955 0.0
C43 C 0.69882 0.75987 0.83822 0.0
N44 N 0.66815 0.7614 0.77406 0.0
N45 N 0.67565 0.73104 0.77128 0.0
C46 C 0.67972 0.81595 0.83079 0.0
H47 H 0.662 0.82343 0.80643 0.0
H48 H 0.66531 0.8097 0.8652 0.0
H49 H 0.71088 0.84232 0.83411 0.0
C50 C 0.52003 0.71762 0.71445 0.0
N51 N 0.55907 0.74041 0.70112 0.0
N52 N 0.583 0.74258 0.73495 0.0
C53 C 0.55975 0.72143 0.77107 0.0
C54 C 0.51902 0.70474 0.75907 0.0
C55 C 0.48416 0.7067 0.68433 0.0
H56 H 0.49111 0.70228 0.6486 0.0
H57 H 0.47712 0.73172 0.68491 0.0
H58 H 0.45694 0.6786 0.69645 0.0
O59 O 0.61183 0.74344 0.61456 0.0
O60 O 0.65321 0.74757 0.67059 0.0
H61 H 0.59167 0.70138 0.81435 0.0
H62 H 0.55263 0.70694 0.84374 0.0
C63 C 0.57646 0.71979 0.8169 0.0
H64 H 0.59937 0.75087 0.82731 0.0
H65 H 0.66763 0.71137 0.74341 0.0
O66 O 0.54108 0.76602 0.60292 0.0
C67 C 0.63999 0.73777 0.62993 0.0
Co68 Co 0.24591 0.82404 0.32173 0.0
Co69 Co 0.24739 0.88797 0.39136 0.0
C70 C 0.16914 0.81978 0.35607 0.0
O71 O 0.18759 0.80665 0.33094 0.0
O72 O 0.1884 0.85039 0.38207 0.0
C73 C 0.22071 0.74742 0.2773 0.0
O74 O 0.18515 0.73696 0.29557 0.0
C75 C 0.23916 0.91747 0.48146 0.0
C76 C 0.27942 0.9836 0.47415 0.0
C77 C 0.25513 0.95368 0.50534 0.0
N78 N 0.2538 0.92549 0.43843 0.0
N79 N 0.27736 0.96516 0.43408 0.0
C80 C 0.2121 0.87569 0.49982 0.0
H81 H 0.20939 0.85243 0.47489 0.0
H82 H 0.22413 0.87163 0.53282 0.0
H83 H 0.18153 0.87168 0.50662 0.0
C84 C 0.29308 0.81379 0.3963 0.0
N85 N 0.27264 0.83121 0.37869 0.0
N86 N 0.27573 0.85976 0.40666 0.0
C87 C 0.29967 0.86242 0.44218 0.0
C88 C 0.31132 0.83337 0.43699 0.0
C89 C 0.29263 0.77752 0.37575 0.0
H90 H 0.31518 0.78748 0.34745 0.0
H91 H 0.26216 0.75672 0.36149 0.0
H92 H 0.29982 0.76065 0.40155 0.0
O93 O 0.27231 0.87562 0.28609 0.0
O94 O 0.26942 0.91936 0.33443 0.0
H95 H 0.31835 0.92317 0.46419 0.0
H96 H 0.34386 0.90021 0.49284 0.0
C97 C 0.31439 0.89445 0.47847 0.0
H98 H 0.29194 0.88416 0.5068 0.0
H99 H 0.29312 0.97954 0.4042 0.0
O100 O 0.25055 0.78278 0.28421 0.0
C101 C 0.27856 0.91099 0.29559 0.0
Co102 Co 0.43775 0.21449 0.00919 0.0
Co103 Co 0.37996 0.1425 0.94539 0.0
C104 C 0.35788 0.20385 0.97755 0.0
O105 O 0.39053 0.22247 1.00055 0.0
O106 O 0.35016 0.17295 0.95347 0.0
C107 C 0.46882 0.27775 0.0746 0.0
O108 O 0.4302 0.26126 0.08542 0.0
C109 C 0.34417 0.10602 0.85688 0.0
C110 C 0.31671 0.04055 0.87122 0.0
C111 C 0.32273 0.06814 0.83677 0.0
N112 N 0.35082 0.10123 0.90103 0.0
N113 N 0.33407 0.06196 0.9095 0.0
C114 C 0.35846 0.14624 0.83438 0.0
H115 H 0.37596 0.17139 0.85877 0.0
H116 H 0.37769 0.14926 0.80426 0.0
H117 H 0.33181 0.14797 0.82171 0.0
C118 C 0.49715 0.22585 0.93758 0.0
N119 N 0.45858 0.20807 0.95286 0.0
N120 N 0.43551 0.17647 0.92708 0.0
C121 C 0.45919 0.1724 0.89526 0.0
C122 C 0.49908 0.20408 0.90045 0.0
C123 C 0.53206 0.26084 0.96102 0.0
H124 H 0.53808 0.25033 0.99403 0.0
H125 H 0.52401 0.28455 0.96863 0.0
H126 H 0.56 0.27422 0.93967 0.0
O127 O 0.42235 0.16609 0.04801 0.0
O128 O 0.37827 0.11542 0.00399 0.0
H129 H 0.47073 0.12851 0.86131 0.0
H130 H 0.43489 0.13914 0.83324 0.0
C131 C 0.44558 0.13492 0.86702 0.0
H132 H 0.42048 0.10831 0.88436 0.0
H133 H 0.33488 0.04979 0.94127 0.0
O134 O 0.47958 0.26249 0.0425 0.0
C135 C 0.39746 0.12858 0.04155 0.0
Co136 Co 0.80771 0.22804 0.68204 0.0
Co137 Co 0.88037 0.24376 0.61602 0.0
C138 C 0.81592 0.15948 0.64295 0.0
O139 O 0.79754 0.173 0.66748 0.0
O140 O 0.84794 0.18326 0.62057 0.0
C141 C 0.72413 0.19235 0.70816 0.0
O142 O 0.7198 0.16478 0.67816 0.0
C143 C 0.91452 0.24594 0.52482 0.0
C144 C 0.98021 0.28685 0.53511 0.0
C145 C 0.95153 0.26455 0.50196 0.0
N146 N 0.92083 0.25696 0.56918 0.0
N147 N 0.96028 0.28115 0.57518 0.0
C148 C 0.87351 0.2194 0.50439 0.0
H149 H 0.84917 0.21181 0.53013 0.0
H150 H 0.86904 0.23491 0.47462 0.0
H151 H 0.87175 0.19107 0.49163 0.0
C152 C 0.80077 0.28308 0.61643 0.0
N153 N 0.8168 0.2599 0.62885 0.0
N154 N 0.84762 0.26769 0.60168 0.0
C155 C 0.85237 0.29664 0.57134 0.0
C156 C 0.8224 0.30681 0.57935 0.0
C157 C 0.76731 0.28467 0.64194 0.0
H158 H 0.77665 0.29348 0.67804 0.0
H159 H 0.73989 0.25409 0.64203 0.0
H160 H 0.7594 0.30642 0.62627 0.0
O161 O 0.85621 0.25499 0.72216 0.0
O162 O 0.90761 0.26513 0.67634 0.0
H163 H 0.91626 0.32196 0.55831 0.0
H164 H 0.89484 0.35057 0.53421 0.0
C165 C 0.88904 0.31951 0.54143 0.0
H166 H 0.88411 0.30329 0.50844 0.0
H167 H 0.97354 0.29453 0.60642 0.0
O168 O 0.75936 0.2223 0.71589 0.0
C169 C 0.89386 0.26759 0.7155 0.0
Co170 Co 0.77868 0.57802 0.34131 0.0
Co171 Co 0.78329 0.6445 0.27284 0.0
C172 C 0.85833 0.64587 0.30717 0.0
O173 O 0.83731 0.61402 0.33087 0.0
O174 O 0.84183 0.6614 0.28252 0.0
C175 C 0.79752 0.53148 0.4043 0.0
O176 O 0.82911 0.56685 0.4143 0.0
C177 C 0.7926 0.68625 0.18422 0.0
C178 C 0.75606 0.71583 0.19678 0.0
C179 C 0.77818 0.70939 0.16329 0.0
N180 N 0.77906 0.67881 0.22776 0.0
N181 N 0.75779 0.69718 0.23518 0.0
C182 C 0.81763 0.67025 0.1628 0.0
H183 H 0.81944 0.64792 0.18576 0.0
H184 H 0.80456 0.65602 0.12927 0.0
H185 H 0.84873 0.69588 0.1563 0.0
C186 C 0.72858 0.52418 0.26667 0.0
N187 N 0.75158 0.56154 0.2843 0.0
N188 N 0.75166 0.5886 0.25604 0.0
C189 C 0.72722 0.56885 0.22022 0.0
C190 C 0.71187 0.52751 0.22583 0.0
C191 C 0.72556 0.48662 0.28687 0.0
H192 H 0.70317 0.47568 0.31537 0.0
H193 H 0.75549 0.49336 0.30057 0.0
H194 H 0.7162 0.4625 0.26076 0.0
O195 O 0.75608 0.60614 0.37883 0.0
O196 O 0.76101 0.65334 0.33001 0.0
H197 H 0.71338 0.61432 0.1973 0.0
H198 H 0.68618 0.56654 0.16755 0.0
C199 C 0.71568 0.58848 0.18326 0.0
H200 H 0.73914 0.59965 0.15601 0.0
H201 H 0.74326 0.69586 0.26608 0.0
O202 O 0.77167 0.52956 0.37537 0.0
C203 C 0.75132 0.63621 0.36903 0.0
H204 H 0.25697 0.72789 0.23645 0.0
C205 C 0.22677 0.71827 0.24992 0.0
H206 H 0.1657 0.67085 0.25346 0.0
H207 H 0.18006 0.58611 0.07302 0.0
H208 H 0.14367 0.61859 0.04362 0.0
H209 H 0.13364 0.66645 0.09136 0.0
H210 H 0.16028 0.68233 0.16871 0.0
C211 C 0.19635 0.68054 0.2415 0.0
C212 C 0.20276 0.65179 0.21299 0.0
C213 C 0.18629 0.64221 0.16822 0.0
C214 C 0.19141 0.61405 0.14101 0.0
C215 C 0.176 0.60628 0.09573 0.0
C216 C 0.1553 0.62497 0.07827 0.0
C217 C 0.1497 0.65195 0.10512 0.0
C218 C 0.16507 0.66071 0.14952 0.0
H219 H 0.15256 0.52156 0.1373 0.0
C220 C 0.18158 0.52707 0.12383 0.0
H221 H 0.24475 0.5682 0.12225 0.0
H222 H 0.23722 0.66256 0.29801 0.0
H223 H 0.27416 0.63055 0.32716 0.0
H224 H 0.28328 0.5819 0.27985 0.0
H225 H 0.25541 0.56488 0.20313 0.0
C226 C 0.21491 0.56292 0.13227 0.0
C227 C 0.21218 0.59477 0.15911 0.0
C228 C 0.22942 0.60502 0.20352 0.0
C229 C 0.22448 0.63337 0.23064 0.0
C230 C 0.24075 0.64191 0.27553 0.0
C231 C 0.26186 0.62357 0.29281 0.0
C232 C 0.26696 0.59615 0.26619 0.0
C233 C 0.25086 0.58673 0.22214 0.0
H234 H 0.45632 0.68467 0.78219 0.0
C235 C 0.48205 0.67989 0.78678 0.0
H236 H 0.5019 0.64192 0.81577 0.0
H237 H 0.35044 0.61158 0.9552 0.0
H238 H 0.39568 0.68015 0.98152 0.0
H239 H 0.46175 0.72315 0.94358 0.0
H240 H 0.48272 0.69803 0.87871 0.0
C241 C 0.47801 0.64971 0.8141 0.0
C242 C 0.43916 0.62332 0.83865 0.0
C243 C 0.42787 0.63813 0.87729 0.0
C244 C 0.39042 0.61282 0.90021 0.0
C245 C 0.37915 0.62897 0.93753 0.0
C246 C 0.40472 0.66839 0.95281 0.0
C247 C 0.44186 0.69264 0.93136 0.0
C248 C 0.45346 0.67787 0.89403 0.0
H249 H 0.3577 0.54265 0.96963 0.0
C250 C 0.32842 0.53146 0.95301 0.0
H251 H 0.29811 0.53257 0.89289 0.0
H252 H 0.45135 0.586 0.7651 0.0
H253 H 0.40672 0.51702 0.73954 0.0
H254 H 0.34272 0.47245 0.78051 0.0
H255 H 0.32281 0.49661 0.84711 0.0
C256 C 0.32694 0.54465 0.91074 0.0
C257 C 0.36495 0.57232 0.8853 0.0
C258 C 0.37616 0.55765 0.84646 0.0
C259 C 0.4133 0.58317 0.82315 0.0
C260 C 0.42366 0.56779 0.78433 0.0
C261 C 0.3983 0.52827 0.76925 0.0
C262 C 0.36225 0.50319 0.79229 0.0
C263 C 0.35117 0.5175 0.83047 0.0
H264 H 0.33667 0.83308 0.50489 0.0
C265 C 0.33748 0.82629 0.46885 0.0
H266 H 0.3679 0.81079 0.41878 0.0
H267 H 0.50882 0.88151 0.57687 0.0
H268 H 0.52228 0.94678 0.54791 0.0
H269 H 0.4769 0.95158 0.49098 0.0
H270 H 0.41781 0.89105 0.4626 0.0
C271 C 0.36465 0.81577 0.45477 0.0
C272 C 0.39261 0.81272 0.48808 0.0
C273 C 0.42705 0.84839 0.50429 0.0
C274 C 0.45315 0.84558 0.53717 0.0
C275 C 0.48763 0.88175 0.55232 0.0
C276 C 0.49583 0.91949 0.53586 0.0
C277 C 0.47029 0.92219 0.50381 0.0
C278 C 0.43636 0.88718 0.48795 0.0
H279 H 0.49066 0.77168 0.54586 0.0
C280 C 0.49456 0.78683 0.57858 0.0
H281 H 0.47684 0.82062 0.62041 0.0
H282 H 0.32991 0.7387 0.46282 0.0
H283 H 0.31494 0.67325 0.4932 0.0
H284 H 0.35819 0.66836 0.55296 0.0
H285 H 0.41684 0.72869 0.58223 0.0
C286 C 0.47254 0.80475 0.58813 0.0
C287 C 0.4448 0.80707 0.55373 0.0
C288 C 0.40999 0.77139 0.53785 0.0
C289 C 0.38431 0.77425 0.50437 0.0
C290 C 0.35017 0.73822 0.48849 0.0
C291 C 0.34121 0.70048 0.50568 0.0
C292 C 0.36562 0.69772 0.53925 0.0
C293 C 0.39948 0.73264 0.55545 0.0
H294 H 0.56425 0.22216 0.89963 0.0
C295 C 0.53682 0.20917 0.879 0.0
H296 H 0.51266 0.18876 0.81295 0.0
H297 H 0.68372 0.27225 0.71318 0.0
H298 H 0.65636 0.31429 0.68672 0.0
H299 H 0.59279 0.30646 0.71932 0.0
H300 H 0.55601 0.25635 0.7784 0.0
C301 C 0.53872 0.19892 0.83542 0.0
C302 C 0.57718 0.20355 0.81595 0.0
C303 C 0.59844 0.23313 0.78164 0.0
C304 C 0.63538 0.23799 0.76323 0.0
C305 C 0.65574 0.26752 0.72867 0.0
C306 C 0.64036 0.29184 0.71312 0.0
C307 C 0.60454 0.2874 0.73144 0.0
C308 C 0.58371 0.25847 0.76531 0.0
H309 H 0.65882 0.16129 0.72488 0.0
C310 C 0.68777 0.18855 0.73122 0.0
H311 H 0.71724 0.24581 0.76366 0.0
H312 H 0.54224 0.14116 0.87813 0.0
H313 H 0.57069 0.10069 0.90624 0.0
H314 H 0.6369 0.11216 0.8779 0.0
H315 H 0.67467 0.16374 0.82068 0.0
C316 C 0.68894 0.21756 0.75851 0.0
C317 C 0.65101 0.21324 0.77914 0.0
C318 C 0.63005 0.18399 0.81389 0.0
C319 C 0.5927 0.17857 0.83165 0.0
C320 C 0.57142 0.14768 0.86461 0.0
C321 C 0.5873 0.12401 0.88088 0.0
C322 C 0.6245 0.13037 0.86481 0.0
C323 C 0.64576 0.15995 0.83174 0.0
H324 H 0.76828 0.46496 0.41138 0.0
C325 C 0.79338 0.4936 0.42329 0.0
H326 H 0.8464 0.52194 0.46366 0.0
H327 H 0.74634 0.32951 0.53823 0.0
H328 H 0.69252 0.34257 0.56124 0.0
H329 H 0.69679 0.40805 0.54364 0.0
H330 H 0.75435 0.46033 0.50185 0.0
C331 C 0.82042 0.49348 0.45287 0.0
C332 C 0.81884 0.45505 0.4672 0.0
C333 C 0.78597 0.4257 0.49385 0.0
C334 C 0.78483 0.38903 0.50674 0.0
C335 C 0.75005 0.35891 0.53009 0.0
C336 C 0.71868 0.36582 0.54305 0.0
C337 C 0.72099 0.4026 0.53294 0.0
C338 C 0.75413 0.43228 0.50863 0.0
H339 H 0.81478 0.3606 0.58347 0.0
C340 C 0.81925 0.34102 0.55991 0.0
H341 H 0.82389 0.32755 0.49099 0.0
H342 H 0.88493 0.50364 0.41367 0.0
H343 H 0.93946 0.49119 0.39227 0.0
H344 H 0.93932 0.42934 0.41803 0.0
H345 H 0.88457 0.37952 0.46498 0.0
C346 C 0.81992 0.34743 0.51457 0.0
C347 C 0.81797 0.383 0.49583 0.0
C348 C 0.85037 0.41196 0.46834 0.0
C349 C 0.85074 0.44792 0.45396 0.0
C350 C 0.88333 0.4761 0.42618 0.0
C351 C 0.91484 0.4693 0.41349 0.0
C352 C 0.91474 0.43448 0.42797 0.0
C353 C 0.88304 0.40609 0.45506 0.0
H354 H 0.48812 0.3251 0.12746 0.0
C355 C 0.49903 0.3133 0.10034 0.0
H356 H 0.55078 0.31867 0.06631 0.0
H357 H 0.61819 0.49749 0.16873 0.0
H358 H 0.58136 0.51002 0.10931 0.0
H359 H 0.53914 0.45658 0.05384 0.0
H360 H 0.53303 0.39001 0.05812 0.0
C361 C 0.53909 0.3308 0.09216 0.0
C362 C 0.56858 0.36459 0.12146 0.0
C363 C 0.57322 0.40381 0.11726 0.0
C364 C 0.59924 0.43523 0.14776 0.0
C365 C 0.60087 0.47321 0.14486 0.0
C366 C 0.57943 0.48068 0.11122 0.0
C367 C 0.55553 0.45055 0.08011 0.0
C368 C 0.5522 0.41245 0.08305 0.0
H369 H 0.68717 0.49973 0.15843 0.0
C370 C 0.68325 0.49478 0.19521 0.0
H371 H 0.64655 0.45649 0.24844 0.0
H372 H 0.56642 0.29276 0.13826 0.0
H373 H 0.60396 0.28012 0.19688 0.0
H374 H 0.65014 0.33475 0.24897 0.0
H375 H 0.65892 0.40209 0.24282 0.0
C376 C 0.65116 0.46091 0.21167 0.0
C377 C 0.62214 0.42783 0.18096 0.0
C378 C 0.61723 0.38841 0.18519 0.0
C379 C 0.59063 0.35688 0.1552 0.0
C380 C 0.5863 0.31784 0.16011 0.0
C381 C 0.60766 0.31014 0.19361 0.0
C382 C 0.63366 0.34089 0.22291 0.0
C383 C 0.63851 0.37956 0.2189 0.0
H384 H 0.90921 0.28895 0.7868 0.0
C385 C 0.92154 0.28459 0.75501 0.0
H386 H 0.97288 0.28709 0.7232 0.0
H387 H 0.05413 0.40922 0.9024 0.0
H388 H 0.04082 0.45602 0.85968 0.0
H389 H 0.00319 0.43548 0.78673 0.0
H390 H 0.97812 0.36773 0.75643 0.0
C391 C 0.96038 0.29301 0.75385 0.0
C392 C 0.98591 0.30667 0.79589 0.0
C393 C 1.00144 0.34676 0.81241 0.0
C394 C 0.02453 0.3591 0.85357 0.0
C395 C 0.03788 0.3987 0.87041 0.0
C396 C 0.03017 0.42581 0.8464 0.0
C397 C 0.00887 0.4142 0.8054 0.0
C398 C 0.99453 0.37517 0.78848 0.0
H399 H 0.11168 0.38754 0.88386 0.0
C400 C 0.09887 0.37314 0.91663 0.0
H401 H 0.04616 0.32934 0.95118 0.0
H402 H 0.9602 0.22762 0.77384 0.0
H403 H 0.97453 0.18104 0.81569 0.0
H404 H 0.01622 0.20292 0.8858 0.0
H405 H 0.04366 0.2714 0.91465 0.0
C406 C 0.05929 0.3449 0.91906 0.0
C407 C 0.0333 0.33174 0.87726 0.0
C408 C 0.01767 0.29162 0.86071 0.0
C409 C 0.994 0.27911 0.81999 0.0
C410 C 0.97859 0.2388 0.80441 0.0
C411 C 0.98656 0.21173 0.82811 0.0
C412 C 0.01 0.22404 0.8676 0.0
C413 C 0.02552 0.26347 0.88383 0.0
H414 H 0.7307 0.67794 0.39222 0.0
C415 C 0.7341 0.65234 0.40277 0.0
H416 H 0.72428 0.61082 0.45618 0.0
H417 H 0.71949 0.77124 0.54624 0.0
H418 H 0.7914 0.80894 0.52838 0.0
H419 H 0.82483 0.77608 0.4887 0.0
H420 H 0.78625 0.70551 0.46578 0.0
C421 C 0.72254 0.63721 0.44519 0.0
C422 C 0.70432 0.65474 0.47663 0.0
C423 C 0.72778 0.69539 0.49201 0.0
C424 C 0.70896 0.71368 0.51709 0.0
C425 C 0.73253 0.75519 0.52905 0.0
C426 C 0.77384 0.77733 0.51869 0.0
C427 C 0.79262 0.75888 0.49618 0.0
C428 C 0.77003 0.71842 0.48291 0.0
H429 H 0.68232 0.71532 0.61555 0.0
C430 C 0.65847 0.71965 0.60071 0.0
H431 H 0.62297 0.71171 0.54183 0.0
H432 H 0.65114 0.57572 0.4542 0.0
H433 H 0.57993 0.53685 0.47549 0.0
H434 H 0.54797 0.5676 0.52199 0.0
H435 H 0.58693 0.63752 0.54719 0.0
C436 C 0.64759 0.70891 0.55696 0.0
C437 C 0.6672 0.69055 0.52907 0.0
C438 C 0.6441 0.64951 0.51503 0.0
C439 C 0.66266 0.6316 0.48873 0.0
C440 C 0.63869 0.59075 0.47454 0.0
C441 C 0.59776 0.56808 0.48652 0.0
C442 C 0.57976 0.5854 0.51268 0.0
C443 C 0.60249 0.6256 0.52687 0.0
H444 H 0.41618 0.1071 0.10191 0.0
C445 C 0.39121 0.09973 0.07851 0.0
H446 H 0.33034 0.05905 0.06139 0.0
H447 H 0.29895 0.89933 0.15454 0.0
H448 H 0.2869 0.88064 0.07455 0.0
H449 H 0.30437 0.93256 0.01467 0.0
H450 H 0.33318 0.00338 0.03458 0.0
C451 C 0.35518 0.0659 0.08482 0.0
C452 C 0.34835 0.0356 0.12128 0.0
C453 C 0.33313 0.99442 0.10886 0.0
C454 C 0.32445 0.96463 0.14327 0.0
C455 C 0.30711 0.92346 0.12996 0.0
C456 C 0.29993 0.91221 0.08404 0.0
C457 C 0.30968 0.94142 0.05035 0.0
C458 C 0.32608 0.98204 0.06236 0.0
H459 H 0.28605 0.96628 0.26307 0.0
C460 C 0.29443 0.94287 0.26037 0.0
H461 H 0.32772 0.92128 0.22383 0.0
H462 H 0.36965 0.10994 0.15946 0.0
H463 H 0.38976 0.13004 0.23804 0.0
H464 H 0.38819 0.08104 0.29463 0.0
H465 H 0.3643 0.01108 0.27319 0.0
C466 C 0.31909 0.94451 0.22632 0.0
C467 C 0.33269 0.97632 0.18992 0.0
C468 C 0.35116 0.018 0.2018 0.0
C469 C 0.35634 0.04719 0.16807 0.0
C470 C 0.36871 0.08727 0.18253 0.0
C471 C 0.37982 0.09913 0.2278 0.0
C472 C 0.37865 0.0715 0.25972 0.0
C473 C 0.36448 0.03136 0.24708 0.0
H474 H 0.29921 0.2002 0.96125 0.0
C475 C 0.3273 0.21707 0.9804 0.0
H476 H 0.36008 0.26424 0.0277 0.0
H477 H 0.22278 0.3097 0.94873 0.0
H478 H 0.25205 0.31469 0.87339 0.0
H479 H 0.3055 0.29665 0.86159 0.0
H480 H 0.32917 0.27257 0.92463 0.0
C481 C 0.33277 0.24828 0.00706 0.0
C482 C 0.30078 0.25977 0.01331 0.0
C483 C 0.28865 0.27549 0.97625 0.0
C484 C 0.25963 0.28826 0.98358 0.0
C485 C 0.2462 0.30153 0.94552 0.0
C486 C 0.26251 0.30423 0.90201 0.0
C487 C 0.29246 0.2939 0.89534 0.0
C488 C 0.30555 0.27978 0.93187 0.0
H489 H 0.26839 0.36533 0.01942 0.0
C490 C 0.23693 0.34812 0.03083 0.0
H491 H 0.1889 0.28979 0.04858 0.0
H492 H 0.31454 0.22792 0.09093 0.0
H493 H 0.28604 0.22439 0.16639 0.0
H494 H 0.23856 0.24999 0.17965 0.0
H495 H 0.21902 0.27901 0.11736 0.0
C496 C 0.22032 0.30801 0.03755 0.0
C497 C 0.24482 0.28787 0.02844 0.0
C498 C 0.25585 0.27094 0.06508 0.0
C499 C 0.28372 0.25673 0.0575 0.0
C500 C 0.29403 0.23978 0.09481 0.0
C501 C 0.27779 0.23743 0.1383 0.0
C502 C 0.25103 0.25181 0.14576 0.0
C503 C 0.2401 0.26844 0.10973 0.0
H504 H 0.8201 0.10494 0.62596 0.0
C505 C 0.80158 0.11547 0.64304 0.0
H506 H 0.74986 0.09945 0.68399 0.0
H507 H 0.71867 0.92065 0.60584 0.0
H508 H 0.72228 0.9468 0.52913 0.0
H509 H 0.73894 0.01765 0.51698 0.0
H510 H 0.75329 0.06301 0.58124 0.0
C511 C 0.76773 0.08878 0.66571 0.0
C512 C 0.75602 0.04533 0.67202 0.0
C513 C 0.74556 0.01869 0.63402 0.0
C514 C 0.73317 0.97706 0.64119 0.0
C515 C 0.72591 0.95188 0.60251 0.0
C516 C 0.72824 0.9666 0.55825 0.0
C517 C 0.73782 0.00653 0.55141 0.0
C518 C 0.74634 0.03238 0.58869 0.0
H519 H 0.65459 0.90394 0.66173 0.0
C520 C 0.67079 0.89148 0.68015 0.0
H521 H 0.72567 0.90497 0.71292 0.0
H522 H 0.77742 0.08856 0.75219 0.0
H523 H 0.77162 0.06164 0.82881 0.0
H524 H 0.74545 0.98861 0.84135 0.0
H525 H 0.72534 0.94209 0.77727 0.0
C526 C 0.70888 0.91671 0.69445 0.0
C527 C 0.7282 0.96139 0.68643 0.0
C528 C 0.73957 0.98815 0.72427 0.0
C529 C 0.75381 0.03016 0.71706 0.0
C530 C 0.76556 0.05625 0.75558 0.0
C531 C 0.76255 0.04124 0.79982 0.0
C532 C 0.74787 1.00013 0.80688 0.0
C533 C 0.73645 0.97375 0.76972 0.0
H534 H 0.11009 0.81514 0.37189 0.0
C535 C 0.12452 0.80086 0.35335 0.0
H536 H 0.11594 0.75414 0.30782 0.0
H537 H 0.93089 0.70584 0.3884 0.0
H538 H 0.95665 0.70455 0.46391 0.0
H539 H 0.02813 0.72235 0.47458 0.0
H540 H 0.07446 0.74278 0.41004 0.0
C541 C 0.10166 0.76792 0.32753 0.0
C542 C 0.0573 0.75208 0.32095 0.0
C543 C 0.03006 0.73769 0.35874 0.0
C544 C 0.98818 0.72454 0.35211 0.0
C545 C 0.96241 0.71373 0.39101 0.0
C546 C 0.97689 0.71324 0.43466 0.0
C547 C 0.01717 0.72347 0.4407 0.0
C548 C 0.04356 0.73553 0.40334 0.0
H549 H 0.91513 0.64724 0.32535 0.0
C550 C 0.90285 0.66503 0.31025 0.0
H551 H 0.9168 0.72238 0.28415 0.0
H552 H 0.10123 0.77892 0.24117 0.0
H553 H 0.07458 0.77673 0.16525 0.0
H554 H 1.00115 0.74924 0.15315 0.0
H555 H 0.95397 0.7242 0.21707 0.0
C556 C 0.92831 0.704 0.29933 0.0
C557 C 0.97291 0.72255 0.3072 0.0
C558 C 1.00004 0.73668 0.26943 0.0
C559 C 0.04229 0.75175 0.27633 0.0
C560 C 0.06876 0.76643 0.23797 0.0
C561 C 0.05389 0.76547 0.19413 0.0
C562 C 0.01256 0.75005 0.18733 0.0
C563 C 0.98581 0.73577 0.22437 0.0
H564 H 0.93272 0.24481 0.43027 0.0
C565 C 0.95859 0.26342 0.45208 0.0
H566 H 0.02165 0.3055 0.45382 0.0
H567 H 0.0279 0.23255 0.25367 0.0
H568 H 0.02949 0.17972 0.2987 0.0
H569 H 0.0187 0.17595 0.38236 0.0
H570 H 0.00588 0.22486 0.42152 0.0
C571 C 0.99548 0.28598 0.43287 0.0
C572 C 1.00137 0.28768 0.38223 0.0
C573 C 0.0095 0.25936 0.35992 0.0
C574 C 0.0165 0.26202 0.31171 0.0
C575 C 0.02332 0.23255 0.29025 0.0
C576 C 0.02413 0.20194 0.31568 0.0
C577 C 0.01799 0.19978 0.36279 0.0
C578 C 0.0107 0.22804 0.38484 0.0
H579 H 0.08463 0.31436 0.2388 0.0
C580 C 0.05938 0.30867 0.21662 0.0
H581 H 0.99746 0.29228 0.21383 0.0
H582 H 0.98633 0.34652 0.41429 0.0
H583 H 0.98504 0.39966 0.36956 0.0
H584 H 0.99822 0.40506 0.28632 0.0
H585 H 0.01261 0.35733 0.24723 0.0
C586 C 0.02256 0.29638 0.23533 0.0
C587 C 0.01595 0.29343 0.28598 0.0
C588 C 0.00761 0.32163 0.30837 0.0
C589 C 1.00035 0.31876 0.35648 0.0
C590 C 0.99219 0.3474 0.37788 0.0
C591 C 0.99136 0.37806 0.35262 0.0
C592 C 0.99873 0.38107 0.30575 0.0
C593 C 0.00684 0.35335 0.28372 0.0
H594 H 0.70865 0.78608 0.90814 0.0
C595 C 0.71413 0.7664 0.88587 0.0
H596 H 0.73684 0.72595 0.88071 0.0
H597 H 0.81192 0.81282 0.0825 0.0
H598 H 0.85011 0.87619 0.04075 0.0
H599 H 0.83895 0.8799 0.95806 0.0
H600 H 0.78934 0.82047 0.91667 0.0
C601 C 0.73198 0.74618 0.90278 0.0
C602 C 0.7395 0.7449 0.95266 0.0
C603 C 0.76906 0.77988 0.97612 0.0
C604 C 0.77606 0.77758 0.02366 0.0
C605 C 0.80549 0.81295 0.0464 0.0
C606 C 0.82767 0.84945 0.02284 0.0
C607 C 0.82135 0.85154 0.97629 0.0
C608 C 0.79257 0.81724 0.95298 0.0
H609 H 0.79346 0.7075 0.09027 0.0
C610 C 0.7796 0.71912 0.11396 0.0
H611 H 0.74673 0.75039 0.1204 0.0
H612 H 0.6802 0.67214 0.91829 0.0
H613 H 0.64255 0.60902 0.96003 0.0
H614 H 0.65482 0.60515 0.04233 0.0
H615 H 0.70487 0.66432 0.08329 0.0
C616 C 0.76042 0.73811 0.09737 0.0
C617 C 0.75418 0.74023 0.04737 0.0
C618 C 0.72467 0.70523 0.02392 0.0
C619 C 0.71746 0.70754 0.97652 0.0
C620 C 0.6874 0.67217 0.95414 0.0
C621 C 0.66535 0.63569 0.97774 0.0
C622 C 0.67226 0.6335 0.02405 0.0
C623 C 0.70133 0.66776 0.0471 0.0
H624 H 0.32233 0.0843 0.76403 0.0
C625 C 0.31138 0.05913 0.78802 0.0
H626 H 0.27921 0.99545 0.79577 0.0
H627 H 0.23028 0.02833 0.58578 0.0
H628 H 0.19681 0.06041 0.62421 0.0
H629 H 0.20137 0.0696 0.70809 0.0
H630 H 0.23967 0.04713 0.754 0.0
C631 C 0.2895 0.02095 0.77237 0.0
C632 C 0.28322 0.01228 0.72239 0.0
C633 C 0.25996 0.02486 0.69623 0.0
C634 C 0.25665 0.01884 0.64798 0.0
C635 C 0.23373 0.03215 0.62254 0.0
C636 C 0.21428 0.05049 0.64417 0.0
C637 C 0.2169 0.05572 0.69139 0.0
C638 C 0.23927 0.04296 0.71731 0.0
H639 H 0.23383 0.93223 0.57605 0.0
C640 C 0.25207 0.95892 0.55511 0.0
H641 H 0.29205 0.02238 0.55525 0.0
H642 H 0.32852 0.98278 0.76267 0.0
H643 H 0.36086 0.94974 0.72438 0.0
H644 H 0.35541 0.93965 0.64067 0.0
H645 H 0.3175 0.9624 0.59485 0.0
C646 C 0.27402 0.99516 0.57548 0.0
C647 C 0.27574 0.99942 0.62617 0.0
C648 C 0.29814 0.98588 0.65245 0.0
C649 C 0.30161 0.99206 0.70066 0.0
C650 C 0.32459 0.9787 0.726 0.0
C651 C 0.34347 0.95976 0.70443 0.0
C652 C 0.34038 0.95406 0.65733 0.0
C653 C 0.31824 0.96709 0.63144 0.0
loop_
_geom_bond_atom_site_label_1
_geom_bond_atom_site_label_2
_geom_bond_distance
_geom_bond_site_symmetry_2
_ccdc_geom_bond_type
Co0 O3 1.970 . S
Co0 N17 1.989 1_556 S
Co0 O25 1.967 . S
Co0 O32 1.920 . S
Co1 O4 1.966 . S
Co1 N10 2.022 . S
Co1 N18 1.993 . S
Co1 O26 1.941 1_554 S
C2 O3 1.258 1_554 S
C2 O4 1.263 . S
O3 Co0 1.970 . S
O3 C2 1.258 1_556 S
O4 Co1 1.966 . S
O4 C2 1.263 . S
C5 O6 1.235 . S
C5 O32 1.289 . S
O6 C5 1.235 . S
C7 C9 1.400 . S
C7 N10 1.351 . S
C7 C12 1.501 . S
C8 C9 1.387 . S
C8 N11 1.341 . S
C9 C7 1.400 . S
C9 C8 1.387 . S
N10 Co1 2.022 . S
N10 C7 1.351 . S
N10 N11 1.365 . S
N11 C8 1.341 . S
N11 N10 1.365 . S
N11 H31 0.862 . S
C12 C7 1.501 . S
C12 H13 0.961 . S
C12 H14 0.961 . S
C12 H15 0.960 . S
H13 C12 0.961 . S
H14 C12 0.961 . S
H15 C12 0.960 . S
C16 N17 1.342 . S
C16 C20 1.401 . S
C16 C21 1.499 . S
N17 Co0 1.989 1_554 S
N17 C16 1.342 . S
N17 N18 1.388 . S
N18 Co1 1.993 . S
N18 N17 1.388 . S
N18 C19 1.346 . S
C19 N18 1.346 . S
C19 C20 1.396 . S
C19 C29 1.510 . S
C20 C16 1.401 . S
C20 C19 1.396 . S
C21 C16 1.499 . S
C21 H22 0.959 1_554 S
C21 H23 0.960 . S
C21 H24 0.961 . S
H22 C21 0.959 1_556 S
H23 C21 0.960 . S
H24 C21 0.961 . S
O25 Co0 1.967 . S
O25 C33 1.258 . S
O26 Co1 1.941 1_556 S
O26 C33 1.266 . S
H27 C29 0.959 . S
H28 C29 0.961 . S
C29 C19 1.510 . S
C29 H27 0.959 . S
C29 H28 0.961 . S
C29 H30 0.960 . S
H30 C29 0.960 . S
H31 N11 0.862 . S
O32 Co0 1.920 . S
O32 C5 1.289 . S
C33 O25 1.258 . S
C33 O26 1.266 . S
Co34 O37 1.970 . S
Co34 N51 1.989 . S
Co34 O59 1.967 . S
Co34 O66 1.920 . S
Co35 O38 1.966 . S
Co35 N44 2.022 . S
Co35 N52 1.993 . S
Co35 O60 1.941 . S
C36 O37 1.258 . S
C36 O38 1.263 . S
O37 Co34 1.970 . S
O37 C36 1.258 . S
O38 Co35 1.966 . S
O38 C36 1.263 . S
C39 O40 1.235 . S
C39 O66 1.289 . S
O40 C39 1.235 . S
C41 C43 1.400 . S
C41 N44 1.351 . S
C41 C46 1.501 . S
C42 C43 1.387 . S
C42 N45 1.341 . S
C43 C41 1.400 . S
C43 C42 1.387 . S
N44 Co35 2.022 . S
N44 C41 1.351 . S
N44 N45 1.365 . S
N45 C42 1.341 . S
N45 N44 1.365 . S
N45 H65 0.862 . S
C46 C41 1.501 . S
C46 H47 0.961 . S
C46 H48 0.961 . S
C46 H49 0.960 . S
H47 C46 0.961 . S
H48 C46 0.961 . S
H49 C46 0.960 . S
C50 N51 1.342 . S
C50 C54 1.401 . S
C50 C55 1.499 . S
N51 Co34 1.989 . S
N51 C50 1.342 . S
N51 N52 1.388 . S
N52 Co35 1.993 . S
N52 N51 1.388 . S
N52 C53 1.346 . S
C53 N52 1.346 . S
C53 C54 1.396 . S
C53 C63 1.510 . S
C54 C50 1.401 . S
C54 C53 1.396 . S
C55 C50 1.499 . S
C55 H56 0.959 . S
C55 H57 0.960 . S
C55 H58 0.961 . S
H56 C55 0.959 . S
H57 C55 0.960 . S
H58 C55 0.961 . S
O59 Co34 1.967 . S
O59 C67 1.258 . S
O60 Co35 1.941 . S
O60 C67 1.266 . S
H61 C63 0.959 . S
H62 C63 0.961 . S
C63 C53 1.510 . S
C63 H61 0.959 . S
C63 H62 0.961 . S
C63 H64 0.960 . S
H64 C63 0.960 . S
H65 N45 0.862 . S
O66 Co34 1.920 . S
O66 C39 1.289 . S
C67 O59 1.258 . S
C67 O60 1.266 . S
Co68 O71 1.970 . S
Co68 N85 1.989 . S
Co68 O93 1.967 . S
Co68 O100 1.920 . S
Co69 O72 1.966 . S
Co69 N78 2.022 . S
Co69 N86 1.993 . S
Co69 O94 1.941 . S
C70 O71 1.258 . S
C70 O72 1.263 . S
O71 Co68 1.970 . S
O71 C70 1.258 . S
O72 Co69 1.966 . S
O72 C70 1.263 . S
C73 O74 1.235 . S
C73 O100 1.289 . S
O74 C73 1.235 . S
C75 C77 1.400 . S
C75 N78 1.351 . S
C75 C80 1.501 . S
C76 C77 1.387 . S
C76 N79 1.341 . S
C77 C75 1.400 . S
C77 C76 1.387 . S
N78 Co69 2.022 . S
N78 C75 1.351 . S
N78 N79 1.365 . S
N79 C76 1.341 . S
N79 N78 1.365 . S
N79 H99 0.862 . S
C80 C75 1.501 . S
C80 H81 0.961 . S
C80 H82 0.961 . S
C80 H83 0.960 . S
H81 C80 0.961 . S
H82 C80 0.961 . S
H83 C80 0.960 . S
C84 N85 1.342 . S
C84 C88 1.401 . S
C84 C89 1.499 . S
N85 Co68 1.989 . S
N85 C84 1.342 . S
N85 N86 1.388 . S
N86 Co69 1.993 . S
N86 N85 1.388 . S
N86 C87 1.346 . S
C87 N86 1.346 . S
C87 C88 1.396 . S
C87 C97 1.510 . S
C88 C84 1.401 . S
C88 C87 1.396 . S
C89 C84 1.499 . S
C89 H90 0.959 . S
C89 H91 0.960 . S
C89 H92 0.961 . S
H90 C89 0.959 . S
H91 C89 0.960 . S
H92 C89 0.961 . S
O93 Co68 1.967 . S
O93 C101 1.258 . S
O94 Co69 1.941 . S
O94 C101 1.266 . S
H95 C97 0.959 . S
H96 C97 0.961 . S
C97 C87 1.510 . S
C97 H95 0.959 . S
C97 H96 0.961 . S
C97 H98 0.960 . S
H98 C97 0.960 . S
H99 N79 0.862 . S
O100 Co68 1.920 . S
O100 C73 1.289 . S
C101 O93 1.258 . S
C101 O94 1.266 . S
Co102 O105 1.970 . S
Co102 N119 1.989 1_554 S
Co102 O127 1.967 . S
Co102 O134 1.920 . S
Co103 O106 1.966 . S
Co103 N112 2.022 . S
Co103 N120 1.993 . S
Co103 O128 1.941 1_556 S
C104 O105 1.258 1_556 S
C104 O106 1.263 . S
O105 Co102 1.970 . S
O105 C104 1.258 1_554 S
O106 Co103 1.966 . S
O106 C104 1.263 . S
C107 O108 1.235 . S
C107 O134 1.289 . S
O108 C107 1.235 . S
C109 C111 1.400 . S
C109 N112 1.351 . S
C109 C114 1.501 . S
C110 C111 1.387 . S
C110 N113 1.341 . S
C111 C109 1.400 . S
C111 C110 1.387 . S
N112 Co103 2.022 . S
N112 C109 1.351 . S
N112 N113 1.365 . S
N113 C110 1.341 . S
N113 N112 1.365 . S
N113 H133 0.862 . S
C114 C109 1.501 . S
C114 H115 0.961 . S
C114 H116 0.961 . S
C114 H117 0.960 . S
H115 C114 0.961 . S
H116 C114 0.961 . S
H117 C114 0.960 . S
C118 N119 1.342 . S
C118 C122 1.401 . S
C118 C123 1.499 . S
N119 Co102 1.989 1_556 S
N119 C118 1.342 . S
N119 N120 1.388 . S
N120 Co103 1.993 . S
N120 N119 1.388 . S
N120 C121 1.346 . S
C121 N120 1.346 . S
C121 C122 1.396 . S
C121 C131 1.510 . S
C122 C118 1.401 . S
C122 C121 1.396 . S
C123 C118 1.499 . S
C123 H124 0.959 1_556 S
C123 H125 0.960 . S
C123 H126 0.961 . S
H124 C123 0.959 1_554 S
H125 C123 0.960 . S
H126 C123 0.961 . S
O127 Co102 1.967 . S
O127 C135 1.258 . S
O128 Co103 1.941 1_554 S
O128 C135 1.266 . S
H129 C131 0.959 . S
H130 C131 0.961 . S
C131 C121 1.510 . S
C131 H129 0.959 . S
C131 H130 0.961 . S
C131 H132 0.960 . S
H132 C131 0.960 . S
H133 N113 0.862 . S
O134 Co102 1.920 . S
O134 C107 1.289 . S
C135 O127 1.258 . S
C135 O128 1.266 . S
Co136 O139 1.970 . S
Co136 N153 1.989 . S
Co136 O161 1.967 . S
Co136 O168 1.920 . S
Co137 O140 1.966 . S
Co137 N146 2.022 . S
Co137 N154 1.993 . S
Co137 O162 1.941 . S
C138 O139 1.258 . S
C138 O140 1.263 . S
O139 Co136 1.970 . S
O139 C138 1.258 . S
O140 Co137 1.966 . S
O140 C138 1.263 . S
C141 O142 1.235 . S
C141 O168 1.289 . S
O142 C141 1.235 . S
C143 C145 1.400 . S
C143 N146 1.351 . S
C143 C148 1.501 . S
C144 C145 1.387 . S
C144 N147 1.341 . S
C145 C143 1.400 . S
C145 C144 1.387 . S
N146 Co137 2.022 . S
N146 C143 1.351 . S
N146 N147 1.365 . S
N147 C144 1.341 . S
N147 N146 1.365 . S
N147 H167 0.862 . S
C148 C143 1.501 . S
C148 H149 0.961 . S
C148 H150 0.961 . S
C148 H151 0.960 . S
H149 C148 0.961 . S
H150 C148 0.961 . S
H151 C148 0.960 . S
C152 N153 1.342 . S
C152 C156 1.401 . S
C152 C157 1.499 . S
N153 Co136 1.989 . S
N153 C152 1.342 . S
N153 N154 1.388 . S
N154 Co137 1.993 . S
N154 N153 1.388 . S
N154 C155 1.346 . S
C155 N154 1.346 . S
C155 C156 1.396 . S
C155 C165 1.510 . S
C156 C152 1.401 . S
C156 C155 1.396 . S
C157 C152 1.499 . S
C157 H158 0.959 . S
C157 H159 0.960 . S
C157 H160 0.961 . S
H158 C157 0.959 . S
H159 C157 0.960 . S
H160 C157 0.961 . S
O161 Co136 1.967 . S
O161 C169 1.258 . S
O162 Co137 1.941 . S
O162 C169 1.266 . S
H163 C165 0.959 . S
H164 C165 0.961 . S
C165 C155 1.510 . S
C165 H163 0.959 . S
C165 H164 0.961 . S
C165 H166 0.960 . S
H166 C165 0.960 . S
H167 N147 0.862 . S
O168 Co136 1.920 . S
O168 C141 1.289 . S
C169 O161 1.258 . S
C169 O162 1.266 . S
Co170 O173 1.970 . S
Co170 N187 1.989 . S
Co170 O195 1.967 . S
Co170 O202 1.920 . S
Co171 O174 1.966 . S
Co171 N180 2.022 . S
Co171 N188 1.993 . S
Co171 O196 1.941 . S
C172 O173 1.258 . S
C172 O174 1.263 . S
O173 Co170 1.970 . S
O173 C172 1.258 . S
O174 Co171 1.966 . S
O174 C172 1.263 . S
C175 O176 1.235 . S
C175 O202 1.289 . S
O176 C175 1.235 . S
C177 C179 1.400 . S
C177 N180 1.351 . S
C177 C182 1.501 . S
C178 C179 1.387 . S
C178 N181 1.341 . S
C179 C177 1.400 . S
C179 C178 1.387 . S
N180 Co171 2.022 . S
N180 C177 1.351 . S
N180 N181 1.365 . S
N181 C178 1.341 . S
N181 N180 1.365 . S
N181 H201 0.862 . S
C182 C177 1.501 . S
C182 H183 0.961 . S
C182 H184 0.961 . S
C182 H185 0.960 . S
H183 C182 0.961 . S
H184 C182 0.961 . S
H185 C182 0.960 . S
C186 N187 1.342 . S
C186 C190 1.401 . S
C186 C191 1.499 . S
N187 Co170 1.989 . S
N187 C186 1.342 . S
N187 N188 1.388 . S
N188 Co171 1.993 . S
N188 N187 1.388 . S
N188 C189 1.346 . S
C189 N188 1.346 . S
C189 C190 1.396 . S
C189 C199 1.510 . S
C190 C186 1.401 . S
C190 C189 1.396 . S
C191 C186 1.499 . S
C191 H192 0.959 . S
C191 H193 0.960 . S
C191 H194 0.961 . S
H192 C191 0.959 . S
H193 C191 0.960 . S
H194 C191 0.961 . S
O195 Co170 1.967 . S
O195 C203 1.258 . S
O196 Co171 1.941 . S
O196 C203 1.266 . S
H197 C199 0.959 . S
H198 C199 0.961 . S
C199 C189 1.510 . S
C199 H197 0.959 . S
C199 H198 0.961 . S
C199 H200 0.960 . S
H200 C199 0.960 . S
H201 N181 0.862 . S
O202 Co170 1.920 . S
O202 C175 1.289 . S
C203 O195 1.258 . S
C203 O196 1.266 . S
H204 C205 0.951 . S
C205 H204 0.951 . S
C205 C211 1.265 . S
H206 C211 0.950 . S
H207 C215 0.949 . S
H208 C216 0.950 . S
H209 C217 0.951 . S
H210 C218 0.951 . S
C211 C205 1.265 . S
C211 H206 0.950 . S
C211 C212 1.478 . S
C212 C211 1.478 . S
C212 C213 1.397 . S
C212 C229 1.394 . S
C213 C212 1.397 . S
C213 C214 1.438 . S
C213 C218 1.429 . S
C214 C213 1.438 . S
C214 C215 1.428 . S
C214 C227 1.394 . S
C215 H207 0.949 . S
C215 C214 1.428 . S
C215 C216 1.345 . S
C216 H208 0.950 . S
C216 C215 1.345 . S
C216 C217 1.424 . S
C217 H209 0.951 . S
C217 C216 1.424 . S
C217 C218 1.347 . S
C218 H210 0.951 . S
C218 C213 1.429 . S
C218 C217 1.347 . S
H219 C220 0.951 . S
C220 H219 0.951 . S
C220 C226 1.265 . S
H221 C226 0.950 . S
H222 C230 0.949 . S
H223 C231 0.950 . S
H224 C232 0.951 . S
H225 C233 0.951 . S
C226 C220 1.265 . S
C226 H221 0.950 . S
C226 C227 1.478 . S
C227 C214 1.394 . S
C227 C226 1.478 . S
C227 C228 1.397 . S
C228 C227 1.397 . S
C228 C229 1.438 . S
C228 C233 1.429 . S
C229 C212 1.394 . S
C229 C228 1.438 . S
C229 C230 1.428 . S
C230 H222 0.949 . S
C230 C229 1.428 . S
C230 C231 1.345 . S
C231 H223 0.950 . S
C231 C230 1.345 . S
C231 C232 1.424 . S
C232 H224 0.951 . S
C232 C231 1.424 . S
C232 C233 1.347 . S
C233 H225 0.951 . S
C233 C228 1.429 . S
C233 C232 1.347 . S
H234 C235 0.951 . S
C235 H234 0.951 . S
C235 C241 1.265 . S
H236 C241 0.950 . S
H237 C245 0.949 . S
H238 C246 0.950 . S
H239 C247 0.951 . S
H240 C248 0.951 . S
C241 C235 1.265 . S
C241 H236 0.950 . S
C241 C242 1.478 . S
C242 C241 1.478 . S
C242 C243 1.397 . S
C242 C259 1.394 . S
C243 C242 1.397 . S
C243 C244 1.438 . S
C243 C248 1.429 . S
C244 C243 1.438 . S
C244 C245 1.428 . S
C244 C257 1.394 . S
C245 H237 0.949 . S
C245 C244 1.428 . S
C245 C246 1.345 . S
C246 H238 0.950 . S
C246 C245 1.345 . S
C246 C247 1.424 . S
C247 H239 0.951 . S
C247 C246 1.424 . S
C247 C248 1.347 . S
C248 H240 0.951 . S
C248 C243 1.429 . S
C248 C247 1.347 . S
H249 C250 0.951 . S
C250 H249 0.951 . S
C250 C256 1.265 . S
H251 C256 0.950 . S
H252 C260 0.949 . S
H253 C261 0.950 . S
H254 C262 0.951 . S
H255 C263 0.951 . S
C256 C250 1.265 . S
C256 H251 0.950 . S
C256 C257 1.478 . S
C257 C244 1.394 . S
C257 C256 1.478 . S
C257 C258 1.397 . S
C258 C257 1.397 . S
C258 C259 1.438 . S
C258 C263 1.429 . S
C259 C242 1.394 . S
C259 C258 1.438 . S
C259 C260 1.428 . S
C260 H252 0.949 . S
C260 C259 1.428 . S
C260 C261 1.345 . S
C261 H253 0.950 . S
C261 C260 1.345 . S
C261 C262 1.424 . S
C262 H254 0.951 . S
C262 C261 1.424 . S
C262 C263 1.347 . S
C263 H255 0.951 . S
C263 C258 1.429 . S
C263 C262 1.347 . S
H264 C265 0.951 . S
C265 H264 0.951 . S
C265 C271 1.265 . S
H266 C271 0.950 . S
H267 C275 0.949 . S
H268 C276 0.950 . S
H269 C277 0.951 . S
H270 C278 0.951 . S
C271 C265 1.265 . S
C271 H266 0.950 . S
C271 C272 1.478 . S
C272 C271 1.478 . S
C272 C273 1.397 . S
C272 C289 1.394 . S
C273 C272 1.397 . S
C273 C274 1.438 . S
C273 C278 1.429 . S
C274 C273 1.438 . S
C274 C275 1.428 . S
C274 C287 1.394 . S
C275 H267 0.949 . S
C275 C274 1.428 . S
C275 C276 1.345 . S
C276 H268 0.950 . S
C276 C275 1.345 . S
C276 C277 1.424 . S
C277 H269 0.951 . S
C277 C276 1.424 . S
C277 C278 1.347 . S
C278 H270 0.951 . S
C278 C273 1.429 . S
C278 C277 1.347 . S
H279 C280 0.951 . S
C280 H279 0.951 . S
C280 C286 1.265 . S
H281 C286 0.950 . S
H282 C290 0.949 . S
H283 C291 0.950 . S
H284 C292 0.951 . S
H285 C293 0.951 . S
C286 C280 1.265 . S
C286 H281 0.950 . S
C286 C287 1.478 . S
C287 C274 1.394 . S
C287 C286 1.478 . S
C287 C288 1.397 . S
C288 C287 1.397 . S
C288 C289 1.438 . S
C288 C293 1.429 . S
C289 C272 1.394 . S
C289 C288 1.438 . S
C289 C290 1.428 . S
C290 H282 0.949 . S
C290 C289 1.428 . S
C290 C291 1.345 . S
C291 H283 0.950 . S
C291 C290 1.345 . S
C291 C292 1.424 . S
C292 H284 0.951 . S
C292 C291 1.424 . S
C292 C293 1.347 . S
C293 H285 0.951 . S
C293 C288 1.429 . S
C293 C292 1.347 . S
H294 C295 0.951 . S
C295 H294 0.951 . S
C295 C301 1.265 . S
H296 C301 0.950 . S
H297 C305 0.949 . S
H298 C306 0.950 . S
H299 C307 0.951 . S
H300 C308 0.951 . S
C301 C295 1.265 . S
C301 H296 0.950 . S
C301 C302 1.478 . S
C302 C301 1.478 . S
C302 C303 1.397 . S
C302 C319 1.394 . S
C303 C302 1.397 . S
C303 C304 1.438 . S
C303 C308 1.429 . S
C304 C303 1.438 . S
C304 C305 1.428 . S
C304 C317 1.394 . S
C305 H297 0.949 . S
C305 C304 1.428 . S
C305 C306 1.345 . S
C306 H298 0.950 . S
C306 C305 1.345 . S
C306 C307 1.424 . S
C307 H299 0.951 . S
C307 C306 1.424 . S
C307 C308 1.347 . S
C308 H300 0.951 . S
C308 C303 1.429 . S
C308 C307 1.347 . S
H309 C310 0.951 . S
C310 H309 0.951 . S
C310 C316 1.265 . S
H311 C316 0.950 . S
H312 C320 0.949 . S
H313 C321 0.950 . S
H314 C322 0.951 . S
H315 C323 0.951 . S
C316 C310 1.265 . S
C316 H311 0.950 . S
C316 C317 1.478 . S
C317 C304 1.394 . S
C317 C316 1.478 . S
C317 C318 1.397 . S
C318 C317 1.397 . S
C318 C319 1.438 . S
C318 C323 1.429 . S
C319 C302 1.394 . S
C319 C318 1.438 . S
C319 C320 1.428 . S
C320 H312 0.949 . S
C320 C319 1.428 . S
C320 C321 1.345 . S
C321 H313 0.950 . S
C321 C320 1.345 . S
C321 C322 1.424 . S
C322 H314 0.951 . S
C322 C321 1.424 . S
C322 C323 1.347 . S
C323 H315 0.951 . S
C323 C318 1.429 . S
C323 C322 1.347 . S
H324 C325 0.951 . S
C325 H324 0.951 . S
C325 C331 1.265 . S
H326 C331 0.950 . S
H327 C335 0.949 . S
H328 C336 0.950 . S
H329 C337 0.951 . S
H330 C338 0.951 . S
C331 C325 1.265 . S
C331 H326 0.950 . S
C331 C332 1.478 . S
C332 C331 1.478 . S
C332 C333 1.397 . S
C332 C349 1.394 . S
C333 C332 1.397 . S
C333 C334 1.438 . S
C333 C338 1.429 . S
C334 C333 1.438 . S
C334 C335 1.428 . S
C334 C347 1.394 . S
C335 H327 0.949 . S
C335 C334 1.428 . S
C335 C336 1.345 . S
C336 H328 0.950 . S
C336 C335 1.345 . S
C336 C337 1.424 . S
C337 H329 0.951 . S
C337 C336 1.424 . S
C337 C338 1.347 . S
C338 H330 0.951 . S
C338 C333 1.429 . S
C338 C337 1.347 . S
H339 C340 0.951 . S
C340 H339 0.951 . S
C340 C346 1.265 . S
H341 C346 0.950 . S
H342 C350 0.949 . S
H343 C351 0.950 . S
H344 C352 0.951 . S
H345 C353 0.951 . S
C346 C340 1.265 . S
C346 H341 0.950 . S
C346 C347 1.478 . S
C347 C334 1.394 . S
C347 C346 1.478 . S
C347 C348 1.397 . S
C348 C347 1.397 . S
C348 C349 1.438 . S
C348 C353 1.429 . S
C349 C332 1.394 . S
C349 C348 1.438 . S
C349 C350 1.428 . S
C350 H342 0.949 . S
C350 C349 1.428 . S
C350 C351 1.345 . S
C351 H343 0.950 . S
C351 C350 1.345 . S
C351 C352 1.424 . S
C352 H344 0.951 . S
C352 C351 1.424 . S
C352 C353 1.347 . S
C353 H345 0.951 . S
C353 C348 1.429 . S
C353 C352 1.347 . S
H354 C355 0.951 . S
C355 H354 0.951 . S
C355 C361 1.265 . S
H356 C361 0.950 . S
H357 C365 0.949 . S
H358 C366 0.950 . S
H359 C367 0.951 . S
H360 C368 0.951 . S
C361 C355 1.265 . S
C361 H356 0.950 . S
C361 C362 1.478 . S
C362 C361 1.478 . S
C362 C363 1.397 . S
C362 C379 1.394 . S
C363 C362 1.397 . S
C363 C364 1.438 . S
C363 C368 1.429 . S
C364 C363 1.438 . S
C364 C365 1.428 . S
C364 C377 1.394 . S
C365 H357 0.949 . S
C365 C364 1.428 . S
C365 C366 1.345 . S
C366 H358 0.950 . S
C366 C365 1.345 . S
C366 C367 1.424 . S
C367 H359 0.951 . S
C367 C366 1.424 . S
C367 C368 1.347 . S
C368 H360 0.951 . S
C368 C363 1.429 . S
C368 C367 1.347 . S
H369 C370 0.951 . S
C370 H369 0.951 . S
C370 C376 1.265 . S
H371 C376 0.950 . S
H372 C380 0.949 . S
H373 C381 0.950 . S
H374 C382 0.951 . S
H375 C383 0.951 . S
C376 C370 1.265 . S
C376 H371 0.950 . S
C376 C377 1.478 . S
C377 C364 1.394 . S
C377 C376 1.478 . S
C377 C378 1.397 . S
C378 C377 1.397 . S
C378 C379 1.438 . S
C378 C383 1.429 . S
C379 C362 1.394 . S
C379 C378 1.438 . S
C379 C380 1.428 . S
C380 H372 0.949 . S
C380 C379 1.428 . S
C380 C381 1.345 . S
C381 H373 0.950 . S
C381 C380 1.345 . S
C381 C382 1.424 . S
C382 H374 0.951 . S
C382 C381 1.424 . S
C382 C383 1.347 . S
C383 H375 0.951 . S
C383 C378 1.429 . S
C383 C382 1.347 . S
H384 C385 0.951 . S
C385 H384 0.951 . S
C385 C391 1.265 . S
H386 C391 0.950 . S
H387 C395 0.949 . S
H388 C396 0.950 . S
H389 C397 0.951 . S
H390 C398 0.951 . S
C391 C385 1.265 . S
C391 H386 0.950 . S
C391 C392 1.478 . S
C392 C391 1.478 . S
C392 C393 1.397 1_655 S
C392 C409 1.394 . S
C393 C392 1.397 1_455 S
C393 C394 1.438 . S
C393 C398 1.429 . S
C394 C393 1.438 . S
C394 C395 1.428 . S
C394 C407 1.394 . S
C395 H387 0.949 . S
C395 C394 1.428 . S
C395 C396 1.345 . S
C396 H388 0.950 . S
C396 C395 1.345 . S
C396 C397 1.424 . S
C397 H389 0.951 . S
C397 C396 1.424 . S
C397 C398 1.347 . S
C398 H390 0.951 . S
C398 C393 1.429 . S
C398 C397 1.347 . S
H399 C400 0.951 . S
C400 H399 0.951 . S
C400 C406 1.265 . S
H401 C406 0.950 . S
H402 C410 0.949 . S
H403 C411 0.950 . S
H404 C412 0.951 . S
H405 C413 0.951 . S
C406 C400 1.265 . S
C406 H401 0.950 . S
C406 C407 1.478 . S
C407 C394 1.394 . S
C407 C406 1.478 . S
C407 C408 1.397 1_455 S
C408 C407 1.397 1_655 S
C408 C409 1.438 . S
C408 C413 1.429 . S
C409 C392 1.394 . S
C409 C408 1.438 . S
C409 C410 1.428 . S
C410 H402 0.949 . S
C410 C409 1.428 . S
C410 C411 1.345 . S
C411 H403 0.950 . S
C411 C410 1.345 . S
C411 C412 1.424 . S
C412 H404 0.951 . S
C412 C411 1.424 . S
C412 C413 1.347 . S
C413 H405 0.951 . S
C413 C408 1.429 . S
C413 C412 1.347 . S
H414 C415 0.951 . S
C415 H414 0.951 . S
C415 C421 1.265 . S
H416 C421 0.950 . S
H417 C425 0.949 . S
H418 C426 0.950 . S
H419 C427 0.951 . S
H420 C428 0.951 . S
C421 C415 1.265 . S
C421 H416 0.950 . S
C421 C422 1.478 . S
C422 C421 1.478 . S
C422 C423 1.397 . S
C422 C439 1.394 . S
C423 C422 1.397 . S
C423 C424 1.438 . S
C423 C428 1.429 . S
C424 C423 1.438 . S
C424 C425 1.428 . S
C424 C437 1.394 . S
C425 H417 0.949 . S
C425 C424 1.428 . S
C425 C426 1.345 . S
C426 H418 0.950 . S
C426 C425 1.345 . S
C426 C427 1.424 . S
C427 H419 0.951 . S
C427 C426 1.424 . S
C427 C428 1.347 . S
C428 H420 0.951 . S
C428 C423 1.429 . S
C428 C427 1.347 . S
H429 C430 0.951 . S
C430 H429 0.951 . S
C430 C436 1.265 . S
H431 C436 0.950 . S
H432 C440 0.949 . S
H433 C441 0.950 . S
H434 C442 0.951 . S
H435 C443 0.951 . S
C436 C430 1.265 . S
C436 H431 0.950 . S
C436 C437 1.478 . S
C437 C424 1.394 . S
C437 C436 1.478 . S
C437 C438 1.397 . S
C438 C437 1.397 . S
C438 C439 1.438 . S
C438 C443 1.429 . S
C439 C422 1.394 . S
C439 C438 1.438 . S
C439 C440 1.428 . S
C440 H432 0.949 . S
C440 C439 1.428 . S
C440 C441 1.345 . S
C441 H433 0.950 . S
C441 C440 1.345 . S
C441 C442 1.424 . S
C442 H434 0.951 . S
C442 C441 1.424 . S
C442 C443 1.347 . S
C443 H435 0.951 . S
C443 C438 1.429 . S
C443 C442 1.347 . S
H444 C445 0.951 . S
C445 H444 0.951 . S
C445 C451 1.265 . S
H446 C451 0.950 . S
H447 C455 0.949 . S
H448 C456 0.950 . S
H449 C457 0.951 . S
H450 C458 0.951 . S
C451 C445 1.265 . S
C451 H446 0.950 . S
C451 C452 1.478 . S
C452 C451 1.478 . S
C452 C453 1.397 1_545 S
C452 C469 1.394 . S
C453 C452 1.397 1_565 S
C453 C454 1.438 . S
C453 C458 1.429 . S
C454 C453 1.438 . S
C454 C455 1.428 . S
C454 C467 1.394 . S
C455 H447 0.949 . S
C455 C454 1.428 . S
C455 C456 1.345 . S
C456 H448 0.950 . S
C456 C455 1.345 . S
C456 C457 1.424 . S
C457 H449 0.951 . S
C457 C456 1.424 . S
C457 C458 1.347 . S
C458 H450 0.951 . S
C458 C453 1.429 . S
C458 C457 1.347 . S
H459 C460 0.951 . S
C460 H459 0.951 . S
C460 C466 1.265 . S
H461 C466 0.950 . S
H462 C470 0.949 . S
H463 C471 0.950 . S
H464 C472 0.951 . S
H465 C473 0.951 . S
C466 C460 1.265 . S
C466 H461 0.950 . S
C466 C467 1.478 . S
C467 C454 1.394 . S
C467 C466 1.478 . S
C467 C468 1.397 1_565 S
C468 C467 1.397 1_545 S
C468 C469 1.438 . S
C468 C473 1.429 . S
C469 C452 1.394 . S
C469 C468 1.438 . S
C469 C470 1.428 . S
C470 H462 0.949 . S
C470 C469 1.428 . S
C470 C471 1.345 . S
C471 H463 0.950 . S
C471 C470 1.345 . S
C471 C472 1.424 . S
C472 H464 0.951 . S
C472 C471 1.424 . S
C472 C473 1.347 . S
C473 H465 0.951 . S
C473 C468 1.429 . S
C473 C472 1.347 . S
H474 C475 0.951 . S
C475 H474 0.951 . S
C475 C481 1.265 . S
H476 C481 0.950 . S
H477 C485 0.949 . S
H478 C486 0.950 . S
H479 C487 0.951 . S
H480 C488 0.951 . S
C481 C475 1.265 . S
C481 H476 0.950 . S
C481 C482 1.478 . S
C482 C481 1.478 . S
C482 C483 1.397 . S
C482 C499 1.394 1_556 S
C483 C482 1.397 . S
C483 C484 1.438 . S
C483 C488 1.429 . S
C484 C483 1.438 . S
C484 C485 1.428 . S
C484 C497 1.394 1_556 S
C485 H477 0.949 . S
C485 C484 1.428 . S
C485 C486 1.345 . S
C486 H478 0.950 . S
C486 C485 1.345 . S
C486 C487 1.424 . S
C487 H479 0.951 . S
C487 C486 1.424 . S
C487 C488 1.347 . S
C488 H480 0.951 . S
C488 C483 1.429 . S
C488 C487 1.347 . S
H489 C490 0.951 . S
C490 H489 0.951 . S
C490 C496 1.265 . S
H491 C496 0.950 . S
H492 C500 0.949 . S
H493 C501 0.950 . S
H494 C502 0.951 . S
H495 C503 0.951 . S
C496 C490 1.265 . S
C496 H491 0.950 . S
C496 C497 1.478 . S
C497 C484 1.394 1_554 S
C497 C496 1.478 . S
C497 C498 1.397 . S
C498 C497 1.397 . S
C498 C499 1.438 . S
C498 C503 1.429 . S
C499 C482 1.394 1_554 S
C499 C498 1.438 . S
C499 C500 1.428 . S
C500 H492 0.949 . S
C500 C499 1.428 . S
C500 C501 1.345 . S
C501 H493 0.950 . S
C501 C500 1.345 . S
C501 C502 1.424 . S
C502 H494 0.951 . S
C502 C501 1.424 . S
C502 C503 1.347 . S
C503 H495 0.951 . S
C503 C498 1.429 . S
C503 C502 1.347 . S
H504 C505 0.951 . S
C505 H504 0.951 . S
C505 C511 1.265 . S
H506 C511 0.950 . S
H507 C515 0.949 . S
H508 C516 0.950 . S
H509 C517 0.951 . S
H510 C518 0.951 . S
C511 C505 1.265 . S
C511 H506 0.950 . S
C511 C512 1.478 . S
C512 C511 1.478 . S
C512 C513 1.397 . S
C512 C529 1.394 . S
C513 C512 1.397 . S
C513 C514 1.438 1_545 S
C513 C518 1.429 . S
C514 C513 1.438 1_565 S
C514 C515 1.428 . S
C514 C527 1.394 . S
C515 H507 0.949 . S
C515 C514 1.428 . S
C515 C516 1.345 . S
C516 H508 0.950 . S
C516 C515 1.345 . S
C516 C517 1.424 1_565 S
C517 H509 0.951 . S
C517 C516 1.424 1_545 S
C517 C518 1.347 . S
C518 H510 0.951 . S
C518 C513 1.429 . S
C518 C517 1.347 . S
H519 C520 0.951 . S
C520 H519 0.951 . S
C520 C526 1.265 . S
H521 C526 0.950 . S
H522 C530 0.949 . S
H523 C531 0.950 . S
H524 C532 0.951 . S
H525 C533 0.951 . S
C526 C520 1.265 . S
C526 H521 0.950 . S
C526 C527 1.478 . S
C527 C514 1.394 . S
C527 C526 1.478 . S
C527 C528 1.397 . S
C528 C527 1.397 . S
C528 C529 1.438 1_565 S
C528 C533 1.429 . S
C529 C512 1.394 . S
C529 C528 1.438 1_545 S
C529 C530 1.428 . S
C530 H522 0.949 . S
C530 C529 1.428 . S
C530 C531 1.345 . S
C531 H523 0.950 . S
C531 C530 1.345 . S
C531 C532 1.424 . S
C532 H524 0.951 . S
C532 C531 1.424 . S
C532 C533 1.347 1_545 S
C533 H525 0.951 . S
C533 C528 1.429 . S
C533 C532 1.347 1_565 S
H534 C535 0.951 . S
C535 H534 0.951 . S
C535 C541 1.265 . S
H536 C541 0.950 . S
H537 C545 0.949 . S
H538 C546 0.950 . S
H539 C547 0.951 . S
H540 C548 0.951 . S
C541 C535 1.265 . S
C541 H536 0.950 . S
C541 C542 1.478 . S
C542 C541 1.478 . S
C542 C543 1.397 . S
C542 C559 1.394 . S
C543 C542 1.397 . S
C543 C544 1.438 1_455 S
C543 C548 1.429 . S
C544 C543 1.438 1_655 S
C544 C545 1.428 . S
C544 C557 1.394 . S
C545 H537 0.949 . S
C545 C544 1.428 . S
C545 C546 1.345 . S
C546 H538 0.950 . S
C546 C545 1.345 . S
C546 C547 1.424 1_655 S
C547 H539 0.951 . S
C547 C546 1.424 1_455 S
C547 C548 1.347 . S
C548 H540 0.951 . S
C548 C543 1.429 . S
C548 C547 1.347 . S
H549 C550 0.951 . S
C550 H549 0.951 . S
C550 C556 1.265 . S
H551 C556 0.950 . S
H552 C560 0.949 . S
H553 C561 0.950 . S
H554 C562 0.951 . S
H555 C563 0.951 . S
C556 C550 1.265 . S
C556 H551 0.950 . S
C556 C557 1.478 . S
C557 C544 1.394 . S
C557 C556 1.478 . S
C557 C558 1.397 . S
C558 C557 1.397 . S
C558 C559 1.438 1_655 S
C558 C563 1.429 . S
C559 C542 1.394 . S
C559 C558 1.438 1_455 S
C559 C560 1.428 . S
C560 H552 0.949 . S
C560 C559 1.428 . S
C560 C561 1.345 . S
C561 H553 0.950 . S
C561 C560 1.345 . S
C561 C562 1.424 . S
C562 H554 0.951 . S
C562 C561 1.424 . S
C562 C563 1.347 1_455 S
C563 H555 0.951 . S
C563 C558 1.429 . S
C563 C562 1.347 1_655 S
H564 C565 0.951 . S
C565 H564 0.951 . S
C565 C571 1.265 . S
H566 C571 0.950 1_455 S
H567 C575 0.949 . S
H568 C576 0.950 . S
H569 C577 0.951 . S
H570 C578 0.951 . S
C571 C565 1.265 . S
C571 H566 0.950 1_655 S
C571 C572 1.478 . S
C572 C571 1.478 . S
C572 C573 1.397 1_655 S
C572 C589 1.394 1_655 S
C573 C572 1.397 1_455 S
C573 C574 1.438 . S
C573 C578 1.429 1_455 S
C574 C573 1.438 . S
C574 C575 1.428 . S
C574 C587 1.394 . S
C575 H567 0.949 . S
C575 C574 1.428 . S
C575 C576 1.345 . S
C576 H568 0.950 . S
C576 C575 1.345 . S
C576 C577 1.424 . S
C577 H569 0.951 . S
C577 C576 1.424 . S
C577 C578 1.347 1_455 S
C578 H570 0.951 . S
C578 C573 1.429 1_655 S
C578 C577 1.347 1_655 S
H579 C580 0.951 . S
C580 H579 0.951 . S
C580 C586 1.265 . S
H581 C586 0.950 . S
H582 C590 0.949 . S
H583 C591 0.950 1_655 S
H584 C592 0.951 . S
H585 C593 0.951 . S
C586 C580 1.265 . S
C586 H581 0.950 . S
C586 C587 1.478 . S
C587 C574 1.394 . S
C587 C586 1.478 . S
C587 C588 1.397 . S
C588 C587 1.397 . S
C588 C589 1.438 . S
C588 C593 1.429 . S
C589 C572 1.394 1_455 S
C589 C588 1.438 . S
C589 C590 1.428 1_455 S
C590 H582 0.949 . S
C590 C589 1.428 1_655 S
C590 C591 1.345 1_655 S
C591 H583 0.950 1_455 S
C591 C590 1.345 1_455 S
C591 C592 1.424 . S
C592 H584 0.951 . S
C592 C591 1.424 . S
C592 C593 1.347 . S
C593 H585 0.951 . S
C593 C588 1.429 . S
C593 C592 1.347 . S
H594 C595 0.951 . S
C595 H594 0.951 . S
C595 C601 1.265 . S
H596 C601 0.950 . S
H597 C605 0.949 . S
H598 C606 0.950 . S
H599 C607 0.951 1_556 S
H600 C608 0.951 . S
C601 C595 1.265 . S
C601 H596 0.950 . S
C601 C602 1.478 . S
C602 C601 1.478 . S
C602 C603 1.397 . S
C602 C619 1.394 . S
C603 C602 1.397 . S
C603 C604 1.438 1_556 S
C603 C608 1.429 . S
C604 C603 1.438 1_554 S
C604 C605 1.428 . S
C604 C617 1.394 . S
C605 H597 0.949 . S
C605 C604 1.428 . S
C605 C606 1.345 . S
C606 H598 0.950 . S
C606 C605 1.345 . S
C606 C607 1.424 . S
C607 H599 0.951 1_554 S
C607 C606 1.424 . S
C607 C608 1.347 1_554 S
C608 H600 0.951 . S
C608 C603 1.429 . S
C608 C607 1.347 1_556 S
H609 C610 0.951 . S
C610 H609 0.951 . S
C610 C616 1.265 . S
H611 C616 0.950 . S
H612 C620 0.949 . S
H613 C621 0.950 . S
H614 C622 0.951 1_554 S
H615 C623 0.951 . S
C616 C610 1.265 . S
C616 H611 0.950 . S
C616 C617 1.478 . S
C617 C604 1.394 . S
C617 C616 1.478 . S
C617 C618 1.397 . S
C618 C617 1.397 . S
C618 C619 1.438 1_554 S
C618 C623 1.429 . S
C619 C602 1.394 . S
C619 C618 1.438 1_556 S
C619 C620 1.428 . S
C620 H612 0.949 . S
C620 C619 1.428 . S
C620 C621 1.345 . S
C621 H613 0.950 . S
C621 C620 1.345 . S
C621 C622 1.424 . S
C622 H614 0.951 1_556 S
C622 C621 1.424 . S
C622 C623 1.347 1_556 S
C623 H615 0.951 . S
C623 C618 1.429 . S
C623 C622 1.347 1_554 S
H624 C625 0.951 . S
C625 H624 0.951 . S
C625 C631 1.265 . S
H626 C631 0.950 . S
H627 C635 0.949 . S
H628 C636 0.950 . S
H629 C637 0.951 . S
H630 C638 0.951 . S
C631 C625 1.265 . S
C631 H626 0.950 . S
C631 C632 1.478 . S
C632 C631 1.478 . S
C632 C633 1.397 . S
C632 C649 1.394 1_545 S
C633 C632 1.397 . S
C633 C634 1.438 . S
C633 C638 1.429 . S
C634 C633 1.438 . S
C634 C635 1.428 . S
C634 C647 1.394 1_545 S
C635 H627 0.949 . S
C635 C634 1.428 . S
C635 C636 1.345 . S
C636 H628 0.950 . S
C636 C635 1.345 . S
C636 C637 1.424 . S
C637 H629 0.951 . S
C637 C636 1.424 . S
C637 C638 1.347 . S
C638 H630 0.951 . S
C638 C633 1.429 . S
C638 C637 1.347 . S
H639 C640 0.951 . S
C640 H639 0.951 . S
C640 C646 1.265 . S
H641 C646 0.950 . S
H642 C650 0.949 . S
H643 C651 0.950 . S
H644 C652 0.951 . S
H645 C653 0.951 . S
C646 C640 1.265 . S
C646 H641 0.950 . S
C646 C647 1.478 . S
C647 C634 1.394 1_565 S
C647 C646 1.478 . S
C647 C648 1.397 . S
C648 C647 1.397 . S
C648 C649 1.438 . S
C648 C653 1.429 . S
C649 C632 1.394 1_565 S
C649 C648 1.438 . S
C649 C650 1.428 . S
C650 H642 0.949 . S
C650 C649 1.428 . S
C650 C651 1.345 . S
C651 H643 0.950 . S
C651 C650 1.345 . S
C651 C652 1.424 . S
C652 H644 0.951 . S
C652 C651 1.424 . S
C652 C653 1.347 . S
C653 H645 0.951 . S
C653 C648 1.429 . S
C653 C652 1.347 . S
C205 C73 1.567 . S
C220 C20 1.591 . S
C235 C54 1.582 . S
C250 C5 1.534 . S
C265 C88 1.576 . S
C280 C39 1.568 . S
C295 C122 1.588 . S
C310 C141 1.525 . S
C325 C175 1.540 . S
C340 C156 1.593 . S
C355 C107 1.566 . S
C370 C190 1.577 . S
C385 C169 1.158 . S
C400 C33 1.158 . S
C415 C203 1.134 . S
C430 C67 1.135 . S
C445 C135 1.152 . S
C460 C101 1.153 . S
C475 C104 1.503 . S
C490 C2 1.462 . S
C505 C138 1.502 . S
C520 C36 1.462 . S
C535 C70 1.504 . S
C550 C172 1.463 . S
C565 C145 1.385 . S
C580 C9 1.418 . S
C595 C43 1.368 . S
C610 C179 1.422 . S
C625 C111 1.337 . S
C640 C77 1.415 . S
