# Generated by pormake.
# Topology wmp, (6)-cn, num edge types: 1
# Building blocks:
#     Node 0, Type 0, BuildingBlock: IZENUY_clean_sbu_0, # of connection points: 6
#     Node 1, Type 0, BuildingBlock: IZENUY_clean_sbu_0, # of connection points: 6
#     Node 2, Type 0, BuildingBlock: IZENUY_clean_sbu_0, # of connection points: 6
#     Node 3, Type 0, BuildingBlock: IZENUY_clean_sbu_0, # of connection points: 6
#     Node 4, Type 0, BuildingBlock: IZENUY_clean_sbu_0, # of connection points: 6
#     Node 5, Type 0, BuildingBlock: IZENUY_clean_sbu_0, # of connection points: 6
#     Node 6, Type 0, BuildingBlock: IZENUY_clean_sbu_0, # of connection points: 6
#     Node 7, Type 0, BuildingBlock: IZENUY_clean_sbu_0, # of connection points: 6
#     Node 8, Type 0, BuildingBlock: IZENUY_clean_sbu_0, # of connection points: 6
#     Node 9, Type 0, BuildingBlock: IZENUY_clean_sbu_0, # of connection points: 6
#     Node 10, Type 0, BuildingBlock: IZENUY_clean_sbu_0, # of connection points: 6
#     Node 11, Type 0, BuildingBlock: IZENUY_clean_sbu_0, # of connection points: 6
#     Node 12, Type 0, BuildingBlock: IZENUY_clean_sbu_0, # of connection points: 6
#     Node 13, Type 0, BuildingBlock: IZENUY_clean_sbu_0, # of connection points: 6
#     Node 14, Type 0, BuildingBlock: IZENUY_clean_sbu_0, # of connection points: 6
#     Node 15, Type 0, BuildingBlock: IZENUY_clean_sbu_0, # of connection points: 6
#     Node 16, Type 0, BuildingBlock: IZENUY_clean_sbu_0, # of connection points: 6
#     Node 17, Type 0, BuildingBlock: IZENUY_clean_sbu_0, # of connection points: 6
#     Node 18, Type 0, BuildingBlock: IZENUY_clean_sbu_0, # of connection points: 6
#     Node 19, Type 0, BuildingBlock: IZENUY_clean_sbu_0, # of connection points: 6
#     Node 20, Type 0, BuildingBlock: IZENUY_clean_sbu_0, # of connection points: 6
#     Node 21, Type 0, BuildingBlock: IZENUY_clean_sbu_0, # of connection points: 6
#     Node 22, Type 0, BuildingBlock: IZENUY_clean_sbu_0, # of connection points: 6
#     Node 23, Type 0, BuildingBlock: IZENUY_clean_sbu_0, # of connection points: 6
#     Node 24, Type 0, BuildingBlock: IZENUY_clean_sbu_0, # of connection points: 6
#     Node 25, Type 0, BuildingBlock: IZENUY_clean_sbu_0, # of connection points: 6
#     Node 26, Type 0, BuildingBlock: IZENUY_clean_sbu_0, # of connection points: 6
#     Node 27, Type 0, BuildingBlock: IZENUY_clean_sbu_0, # of connection points: 6
#     Node 28, Type 0, BuildingBlock: IZENUY_clean_sbu_0, # of connection points: 6
#     Node 29, Type 0, BuildingBlock: IZENUY_clean_sbu_0, # of connection points: 6
#     Node 30, Type 0, BuildingBlock: IZENUY_clean_sbu_0, # of connection points: 6
#     Node 31, Type 0, BuildingBlock: IZENUY_clean_sbu_0, # of connection points: 6
#     Node 32, Type 0, BuildingBlock: IZENUY_clean_sbu_0, # of connection points: 6
#     Node 33, Type 0, BuildingBlock: IZENUY_clean_sbu_0, # of connection points: 6
#     Node 34, Type 0, BuildingBlock: IZENUY_clean_sbu_0, # of connection points: 6
#     Node 35, Type 0, BuildingBlock: IZENUY_clean_sbu_0, # of connection points: 6
#     Edge 36, Type (0, 0), BuildingBlock: UVAHIK_clean_linker_0, # of connection points: 2
#     Edge 37, Type (0, 0), BuildingBlock: UVAHIK_clean_linker_0, # of connection points: 2
#     Edge 38, Type (0, 0), BuildingBlock: UVAHIK_clean_linker_0, # of connection points: 2
#     Edge 39, Type (0, 0), BuildingBlock: UVAHIK_clean_linker_0, # of connection points: 2
#     Edge 40, Type (0, 0), BuildingBlock: UVAHIK_clean_linker_0, # of connection points: 2
#     Edge 41, Type (0, 0), BuildingBlock: UVAHIK_clean_linker_0, # of connection points: 2
#     Edge 42, Type (0, 0), BuildingBlock: UVAHIK_clean_linker_0, # of connection points: 2
#     Edge 43, Type (0, 0), BuildingBlock: UVAHIK_clean_linker_0, # of connection points: 2
#     Edge 44, Type (0, 0), BuildingBlock: UVAHIK_clean_linker_0, # of connection points: 2
#     Edge 45, Type (0, 0), BuildingBlock: UVAHIK_clean_linker_0, # of connection points: 2
#     Edge 46, Type (0, 0), BuildingBlock: UVAHIK_clean_linker_0, # of connection points: 2
#     Edge 47, Type (0, 0), BuildingBlock: UVAHIK_clean_linker_0, # of connection points: 2
#     Edge 48, Type (0, 0), BuildingBlock: UVAHIK_clean_linker_0, # of connection points: 2
#     Edge 49, Type (0, 0), BuildingBlock: UVAHIK_clean_linker_0, # of connection points: 2
#     Edge 50, Type (0, 0), BuildingBlock: UVAHIK_clean_linker_0, # of connection points: 2
#     Edge 51, Type (0, 0), BuildingBlock: UVAHIK_clean_linker_0, # of connection points: 2
#     Edge 52, Type (0, 0), BuildingBlock: UVAHIK_clean_linker_0, # of connection points: 2
#     Edge 53, Type (0, 0), BuildingBlock: UVAHIK_clean_linker_0, # of connection points: 2
#     Edge 54, Type (0, 0), BuildingBlock: UVAHIK_clean_linker_0, # of connection points: 2
#     Edge 55, Type (0, 0), BuildingBlock: UVAHIK_clean_linker_0, # of connection points: 2
#     Edge 56, Type (0, 0), BuildingBlock: UVAHIK_clean_linker_0, # of connection points: 2
#     Edge 57, Type (0, 0), BuildingBlock: UVAHIK_clean_linker_0, # of connection points: 2
#     Edge 58, Type (0, 0), BuildingBlock: UVAHIK_clean_linker_0, # of connection points: 2
#     Edge 59, Type (0, 0), BuildingBlock: UVAHIK_clean_linker_0, # of connection points: 2
#     Edge 60, Type (0, 0), BuildingBlock: UVAHIK_clean_linker_0, # of connection points: 2
#     Edge 61, Type (0, 0), BuildingBlock: UVAHIK_clean_linker_0, # of connection points: 2
#     Edge 62, Type (0, 0), BuildingBlock: UVAHIK_clean_linker_0, # of connection points: 2
#     Edge 63, Type (0, 0), BuildingBlock: UVAHIK_clean_linker_0, # of connection points: 2
#     Edge 64, Type (0, 0), BuildingBlock: UVAHIK_clean_linker_0, # of connection points: 2
#     Edge 65, Type (0, 0), BuildingBlock: UVAHIK_clean_linker_0, # of connection points: 2
#     Edge 66, Type (0, 0), BuildingBlock: UVAHIK_clean_linker_0, # of connection points: 2
#     Edge 67, Type (0, 0), BuildingBlock: UVAHIK_clean_linker_0, # of connection points: 2
#     Edge 68, Type (0, 0), BuildingBlock: UVAHIK_clean_linker_0, # of connection points: 2
#     Edge 69, Type (0, 0), BuildingBlock: UVAHIK_clean_linker_0, # of connection points: 2
#     Edge 70, Type (0, 0), BuildingBlock: UVAHIK_clean_linker_0, # of connection points: 2
#     Edge 71, Type (0, 0), BuildingBlock: UVAHIK_clean_linker_0, # of connection points: 2
#     Edge 72, Type (0, 0), BuildingBlock: UVAHIK_clean_linker_0, # of connection points: 2
#     Edge 73, Type (0, 0), BuildingBlock: UVAHIK_clean_linker_0, # of connection points: 2
#     Edge 74, Type (0, 0), BuildingBlock: UVAHIK_clean_linker_0, # of connection points: 2
#     Edge 75, Type (0, 0), BuildingBlock: UVAHIK_clean_linker_0, # of connection points: 2
#     Edge 76, Type (0, 0), BuildingBlock: UVAHIK_clean_linker_0, # of connection points: 2
#     Edge 77, Type (0, 0), BuildingBlock: UVAHIK_clean_linker_0, # of connection points: 2
#     Edge 78, Type (0, 0), BuildingBlock: UVAHIK_clean_linker_0, # of connection points: 2
#     Edge 79, Type (0, 0), BuildingBlock: UVAHIK_clean_linker_0, # of connection points: 2
#     Edge 80, Type (0, 0), BuildingBlock: UVAHIK_clean_linker_0, # of connection points: 2
#     Edge 81, Type (0, 0), BuildingBlock: UVAHIK_clean_linker_0, # of connection points: 2
#     Edge 82, Type (0, 0), BuildingBlock: UVAHIK_clean_linker_0, # of connection points: 2
#     Edge 83, Type (0, 0), BuildingBlock: UVAHIK_clean_linker_0, # of connection points: 2
#     Edge 84, Type (0, 0), BuildingBlock: UVAHIK_clean_linker_0, # of connection points: 2
#     Edge 85, Type (0, 0), BuildingBlock: UVAHIK_clean_linker_0, # of connection points: 2
#     Edge 86, Type (0, 0), BuildingBlock: UVAHIK_clean_linker_0, # of connection points: 2
#     Edge 87, Type (0, 0), BuildingBlock: UVAHIK_clean_linker_0, # of connection points: 2
#     Edge 88, Type (0, 0), BuildingBlock: UVAHIK_clean_linker_0, # of connection points: 2
#     Edge 89, Type (0, 0), BuildingBlock: UVAHIK_clean_linker_0, # of connection points: 2
#     Edge 90, Type (0, 0), BuildingBlock: UVAHIK_clean_linker_0, # of connection points: 2
#     Edge 91, Type (0, 0), BuildingBlock: UVAHIK_clean_linker_0, # of connection points: 2
#     Edge 92, Type (0, 0), BuildingBlock: UVAHIK_clean_linker_0, # of connection points: 2
#     Edge 93, Type (0, 0), BuildingBlock: UVAHIK_clean_linker_0, # of connection points: 2
#     Edge 94, Type (0, 0), BuildingBlock: UVAHIK_clean_linker_0, # of connection points: 2
#     Edge 95, Type (0, 0), BuildingBlock: UVAHIK_clean_linker_0, # of connection points: 2
#     Edge 96, Type (0, 0), BuildingBlock: UVAHIK_clean_linker_0, # of connection points: 2
#     Edge 97, Type (0, 0), BuildingBlock: UVAHIK_clean_linker_0, # of connection points: 2
#     Edge 98, Type (0, 0), BuildingBlock: UVAHIK_clean_linker_0, # of connection points: 2
#     Edge 99, Type (0, 0), BuildingBlock: UVAHIK_clean_linker_0, # of connection points: 2
#     Edge 100, Type (0, 0), BuildingBlock: UVAHIK_clean_linker_0, # of connection points: 2
#     Edge 101, Type (0, 0), BuildingBlock: UVAHIK_clean_linker_0, # of connection points: 2
#     Edge 102, Type (0, 0), BuildingBlock: UVAHIK_clean_linker_0, # of connection points: 2
#     Edge 103, Type (0, 0), BuildingBlock: UVAHIK_clean_linker_0, # of connection points: 2
#     Edge 104, Type (0, 0), BuildingBlock: UVAHIK_clean_linker_0, # of connection points: 2
#     Edge 105, Type (0, 0), BuildingBlock: UVAHIK_clean_linker_0, # of connection points: 2
#     Edge 106, Type (0, 0), BuildingBlock: UVAHIK_clean_linker_0, # of connection points: 2
#     Edge 107, Type (0, 0), BuildingBlock: UVAHIK_clean_linker_0, # of connection points: 2
#     Edge 108, Type (0, 0), BuildingBlock: UVAHIK_clean_linker_0, # of connection points: 2
#     Edge 109, Type (0, 0), BuildingBlock: UVAHIK_clean_linker_0, # of connection points: 2
#     Edge 110, Type (0, 0), BuildingBlock: UVAHIK_clean_linker_0, # of connection points: 2
#     Edge 111, Type (0, 0), BuildingBlock: UVAHIK_clean_linker_0, # of connection points: 2
#     Edge 112, Type (0, 0), BuildingBlock: UVAHIK_clean_linker_0, # of connection points: 2
#     Edge 113, Type (0, 0), BuildingBlock: UVAHIK_clean_linker_0, # of connection points: 2
#     Edge 114, Type (0, 0), BuildingBlock: UVAHIK_clean_linker_0, # of connection points: 2
#     Edge 115, Type (0, 0), BuildingBlock: UVAHIK_clean_linker_0, # of connection points: 2
#     Edge 116, Type (0, 0), BuildingBlock: UVAHIK_clean_linker_0, # of connection points: 2
#     Edge 117, Type (0, 0), BuildingBlock: UVAHIK_clean_linker_0, # of connection points: 2
#     Edge 118, Type (0, 0), BuildingBlock: UVAHIK_clean_linker_0, # of connection points: 2
#     Edge 119, Type (0, 0), BuildingBlock: UVAHIK_clean_linker_0, # of connection points: 2
#     Edge 120, Type (0, 0), BuildingBlock: UVAHIK_clean_linker_0, # of connection points: 2
#     Edge 121, Type (0, 0), BuildingBlock: UVAHIK_clean_linker_0, # of connection points: 2
#     Edge 122, Type (0, 0), BuildingBlock: UVAHIK_clean_linker_0, # of connection points: 2
#     Edge 123, Type (0, 0), BuildingBlock: UVAHIK_clean_linker_0, # of connection points: 2
#     Edge 124, Type (0, 0), BuildingBlock: UVAHIK_clean_linker_0, # of connection points: 2
#     Edge 125, Type (0, 0), BuildingBlock: UVAHIK_clean_linker_0, # of connection points: 2
#     Edge 126, Type (0, 0), BuildingBlock: UVAHIK_clean_linker_0, # of connection points: 2
#     Edge 127, Type (0, 0), BuildingBlock: UVAHIK_clean_linker_0, # of connection points: 2
#     Edge 128, Type (0, 0), BuildingBlock: UVAHIK_clean_linker_0, # of connection points: 2
#     Edge 129, Type (0, 0), BuildingBlock: UVAHIK_clean_linker_0, # of connection points: 2
#     Edge 130, Type (0, 0), BuildingBlock: UVAHIK_clean_linker_0, # of connection points: 2
#     Edge 131, Type (0, 0), BuildingBlock: UVAHIK_clean_linker_0, # of connection points: 2
#     Edge 132, Type (0, 0), BuildingBlock: UVAHIK_clean_linker_0, # of connection points: 2
#     Edge 133, Type (0, 0), BuildingBlock: UVAHIK_clean_linker_0, # of connection points: 2
#     Edge 134, Type (0, 0), BuildingBlock: UVAHIK_clean_linker_0, # of connection points: 2
#     Edge 135, Type (0, 0), BuildingBlock: UVAHIK_clean_linker_0, # of connection points: 2
#     Edge 136, Type (0, 0), BuildingBlock: UVAHIK_clean_linker_0, # of connection points: 2
#     Edge 137, Type (0, 0), BuildingBlock: UVAHIK_clean_linker_0, # of connection points: 2
#     Edge 138, Type (0, 0), BuildingBlock: UVAHIK_clean_linker_0, # of connection points: 2
#     Edge 139, Type (0, 0), BuildingBlock: UVAHIK_clean_linker_0, # of connection points: 2
#     Edge 140, Type (0, 0), BuildingBlock: UVAHIK_clean_linker_0, # of connection points: 2
#     Edge 141, Type (0, 0), BuildingBlock: UVAHIK_clean_linker_0, # of connection points: 2
#     Edge 142, Type (0, 0), BuildingBlock: UVAHIK_clean_linker_0, # of connection points: 2
#     Edge 143, Type (0, 0), BuildingBlock: UVAHIK_clean_linker_0, # of connection points: 2
# Relax obj value: 0.389
# Max RMSD: 0.289
# Mean RMSD: 0.288
data_MOF--net-wmp--node1-IZENUY_clean_sbu_0--edge1-UVAHIK_clean_linker_0
_symmetry_space_group_name_H-M    P1
_symmetry_Int_Tables_number       1
_symmetry_cell_setting            triclinic
loop_
_symmetry_equiv_pos_as_xyz
'x, y, z'
_cell_length_a     157.51484
_cell_length_b     157.49823
_cell_length_c     19.401189
_cell_angle_alpha  89.990576
_cell_angle_beta   89.996678
_cell_angle_gamma 119.98425
loop_
_atom_site_label
_atom_site_type_symbol
_atom_site_fract_x
_atom_site_fract_y
_atom_site_fract_z
_atom_type_partial_charge
Fe0 Fe 0.13765 0.38811 0.14236 0.0
Fe1 Fe 0.14162 0.4081 0.08983 0.0
O2 O 0.13418 0.39518 0.09161 0.0
Fe3 Fe 0.12332 0.38934 0.0422 0.0
O4 O 0.11672 0.3791 0.10248 0.0
O5 O 0.12642 0.38301 0.19245 0.0
O6 O 0.14354 0.39742 0.21002 0.0
C7 C 0.14225 0.40447 0.22662 0.0
C8 C 0.13024 0.37683 0.02053 0.0
O9 O 0.14011 0.40889 0.18182 0.0
C10 C 0.13665 0.4044 0.95424 0.0
O11 O 0.14896 0.39263 0.09493 0.0
O12 O 0.15326 0.40819 0.1013 0.0
O13 O 0.1278 0.38256 0.99321 0.0
O14 O 0.13242 0.37754 0.0839 0.0
C15 C 0.12227 0.40494 0.09175 0.0
O16 O 0.14353 0.40802 0.99759 0.0
O17 O 0.12794 0.3985 0.97277 0.0
C18 C 0.15532 0.40155 0.08813 0.0
O19 O 0.13131 0.41032 0.07812 0.0
O20 O 0.11821 0.39573 0.08829 0.0
C21 C 0.11802 0.37809 0.16572 0.0
Fe22 Fe 0.58906 0.73329 0.09593 0.0
Fe23 Fe 0.60762 0.73326 0.04881 0.0
O24 O 0.60196 0.73861 0.09684 0.0
Fe25 Fe 0.60917 0.74933 0.14552 0.0
O26 O 0.59988 0.74631 0.21291 0.0
O27 O 0.58841 0.73126 0.1883 0.0
O28 O 0.58658 0.72068 0.08566 0.0
C29 C 0.59181 0.71687 0.09957 0.0
C30 C 0.59586 0.75355 0.08947 0.0
O31 O 0.60101 0.72186 0.09579 0.0
C32 C 0.62046 0.75259 0.02461 0.0
O33 O 0.58907 0.73505 0.00373 0.0
O34 O 0.59849 0.72884 0.97891 0.0
O35 O 0.60476 0.75603 0.09562 0.0
O36 O 0.58919 0.74498 0.10558 0.0
C37 C 0.61875 0.73936 0.17304 0.0
O38 O 0.61463 0.74435 0.99857 0.0
O39 O 0.61976 0.7543 0.08743 0.0
C40 C 0.59268 0.73179 0.96033 0.0
O41 O 0.61775 0.73678 0.11023 0.0
O42 O 0.61407 0.74324 0.19764 0.0
C43 C 0.59291 0.73804 0.2315 0.0
Fe44 Fe 0.24666 0.85764 0.13585 0.0
Fe45 Fe 0.26311 0.85466 0.07995 0.0
O46 O 0.25736 0.86182 0.0857 0.0
Fe47 Fe 0.2623 0.87309 0.04124 0.0
O48 O 0.25844 0.87904 0.10614 0.0
O49 O 0.25247 0.86835 0.1907 0.0
O50 O 0.25018 0.85135 0.19995 0.0
C51 C 0.25866 0.85305 0.21675 0.0
C52 C 0.24282 0.866 0.01909 0.0
O53 O 0.26532 0.85564 0.17211 0.0
C54 C 0.2643 0.86055 0.94654 0.0
O55 O 0.24023 0.84676 0.08344 0.0
O56 O 0.25172 0.84279 0.08839 0.0
O57 O 0.25111 0.8689 0.9921 0.0
O58 O 0.24123 0.8632 0.08126 0.0
C59 C 0.27903 0.87404 0.08798 0.0
O60 O 0.26122 0.85339 0.98752 0.0
O61 O 0.26697 0.86911 0.96838 0.0
C62 C 0.24302 0.84062 0.07424 0.0
O63 O 0.27552 0.86517 0.07031 0.0
O64 O 0.27376 0.87798 0.08755 0.0
C65 C 0.25591 0.877 0.1688 0.0
Fe66 Fe 0.38672 0.13829 0.85686 0.0
Fe67 Fe 0.4065 0.14214 0.91261 0.0
O68 O 0.3936 0.1347 0.90851 0.0
Fe69 Fe 0.38759 0.12368 0.95624 0.0
O70 O 0.37758 0.11726 0.89386 0.0
O71 O 0.38192 0.12723 0.80514 0.0
O72 O 0.39629 0.14445 0.79123 0.0
C73 C 0.40335 0.14314 0.77536 0.0
C74 C 0.37496 0.1305 0.97625 0.0
O75 O 0.40762 0.14089 0.82062 0.0
C76 C 0.40233 0.13677 0.04732 0.0
O77 O 0.39099 0.14943 0.90593 0.0
O78 O 0.40658 0.15379 0.90216 0.0
O79 O 0.38061 0.12801 0.00445 0.0
O80 O 0.37591 0.13282 0.91308 0.0
C81 C 0.40339 0.12286 0.90793 0.0
O82 O 0.40609 0.14377 0.00494 0.0
O83 O 0.39649 0.12811 0.02738 0.0
C84 C 0.39987 0.15577 0.91477 0.0
O85 O 0.40869 0.13183 0.92373 0.0
O86 O 0.39417 0.11874 0.91066 0.0
C87 C 0.37691 0.11875 0.83044 0.0
Fe88 Fe 0.85461 0.26464 0.9084 0.0
Fe89 Fe 0.8731 0.26449 0.95663 0.0
O90 O 0.86217 0.25926 0.90775 0.0
Fe91 Fe 0.85875 0.24859 0.85864 0.0
O92 O 0.85269 0.25168 0.79048 0.0
O93 O 0.85587 0.26657 0.81572 0.0
O94 O 0.86486 0.27722 0.91766 0.0
C95 C 0.8739 0.28092 0.90431 0.0
C96 C 0.84111 0.24434 0.91374 0.0
O97 O 0.87806 0.27587 0.90917 0.0
C98 C 0.86637 0.24514 0.98097 0.0
O99 O 0.85289 0.26305 0.0011 0.0
O100 O 0.86848 0.26909 0.02547 0.0
O101 O 0.84753 0.24186 0.90699 0.0
O102 O 0.84303 0.25297 0.89937 0.0
C103 C 0.87833 0.25824 0.83405 0.0
O104 O 0.86879 0.25337 0.00717 0.0
O105 O 0.86415 0.24352 0.91778 0.0
C106 C 0.85979 0.26633 0.04443 0.0
O107 O 0.87971 0.26078 0.89687 0.0
O108 O 0.86991 0.25469 0.80772 0.0
C109 C 0.85378 0.25988 0.77205 0.0
Fe110 Fe 0.74879 0.60893 0.86031 0.0
Fe111 Fe 0.73256 0.58917 0.91417 0.0
O112 O 0.73821 0.60209 0.91109 0.0
Fe113 Fe 0.7333 0.60818 0.95905 0.0
O114 O 0.73714 0.61833 0.89757 0.0
O115 O 0.74277 0.61401 0.80878 0.0
O116 O 0.74529 0.59945 0.79379 0.0
C117 C 0.73689 0.5925 0.77728 0.0
C118 C 0.75276 0.62051 0.98074 0.0
O119 O 0.7303 0.58824 0.8221 0.0
C120 C 0.7313 0.5932 0.04907 0.0
O121 O 0.75543 0.60437 0.90921 0.0
O122 O 0.74401 0.58886 0.90393 0.0
O123 O 0.74455 0.61491 0.00818 0.0
O124 O 0.75422 0.61962 0.91761 0.0
C125 C 0.71661 0.59264 0.90916 0.0
O126 O 0.73448 0.5894 0.00653 0.0
O127 O 0.7286 0.59915 0.02939 0.0
C128 C 0.75274 0.59544 0.91716 0.0
O129 O 0.72011 0.58718 0.92481 0.0
O130 O 0.72183 0.60184 0.91258 0.0
C131 C 0.73943 0.61911 0.83433 0.0
Fe132 Fe 0.85807 0.60911 0.85987 0.0
Fe133 Fe 0.8728 0.60841 0.95896 0.0
O134 O 0.86183 0.6023 0.91088 0.0
Fe135 Fe 0.85458 0.58938 0.91412 0.0
O136 O 0.85594 0.58843 0.8221 0.0
O137 O 0.85213 0.59961 0.79346 0.0
O138 O 0.86918 0.6142 0.80847 0.0
C139 C 0.87762 0.61932 0.83407 0.0
C140 C 0.84063 0.59561 0.91657 0.0
O141 O 0.87913 0.61855 0.89733 0.0
C142 C 0.85981 0.59345 0.04906 0.0
O143 O 0.8633 0.61982 0.91702 0.0
O144 O 0.86826 0.61515 0.00776 0.0
O145 O 0.8428 0.58904 0.90344 0.0
O146 O 0.84686 0.60454 0.90863 0.0
C147 C 0.87401 0.59285 0.9103 0.0
O148 O 0.86846 0.59941 0.02948 0.0
O149 O 0.85285 0.58964 0.00643 0.0
C150 C 0.86561 0.62071 0.98019 0.0
O151 O 0.87797 0.60206 0.91293 0.0
O152 O 0.86504 0.58741 0.92535 0.0
C153 C 0.8536 0.59267 0.77714 0.0
Fe154 Fe 0.38832 0.26431 0.94659 0.0
Fe155 Fe 0.40687 0.26407 0.90128 0.0
O156 O 0.39396 0.25882 0.89985 0.0
Fe157 Fe 0.38669 0.24804 0.85189 0.0
O158 O 0.38185 0.25408 0.7987 0.0
O159 O 0.3782 0.26072 0.88501 0.0
O160 O 0.395 0.27561 0.89855 0.0
C161 C 0.40421 0.28054 0.89462 0.0
C162 C 0.37538 0.24506 0.97239 0.0
O163 O 0.40941 0.27673 0.90934 0.0
C164 C 0.3999 0.24377 0.9096 0.0
O165 O 0.39739 0.26882 0.01657 0.0
O166 O 0.40686 0.2626 0.99406 0.0
O167 O 0.3761 0.24322 0.9099 0.0
O168 O 0.38124 0.25333 0.99781 0.0
C169 C 0.403 0.25907 0.76544 0.0
O170 O 0.40664 0.25232 0.89377 0.0
O171 O 0.39102 0.24135 0.9027 0.0
C172 C 0.40321 0.26596 0.03655 0.0
O173 O 0.40761 0.26585 0.8085 0.0
O174 O 0.39594 0.25089 0.7847 0.0
C175 C 0.37717 0.258 0.82254 0.0
Fe176 Fe 0.73319 0.14243 0.90302 0.0
Fe177 Fe 0.74933 0.1383 0.85588 0.0
O178 O 0.73847 0.1348 0.90285 0.0
Fe179 Fe 0.73294 0.12372 0.95011 0.0
O180 O 0.72174 0.11901 0.90073 0.0
O181 O 0.72054 0.13227 0.91062 0.0
O182 O 0.73152 0.14132 0.81024 0.0
C183 C 0.73834 0.14343 0.76758 0.0
C184 C 0.73112 0.13698 0.0385 0.0
O185 O 0.7465 0.14455 0.78737 0.0
C186 C 0.75215 0.13024 0.97826 0.0
O187 O 0.7449 0.15397 0.89551 0.0
O188 O 0.75592 0.1494 0.90593 0.0
O189 O 0.72822 0.12829 0.0187 0.0
O190 O 0.73455 0.14397 0.99585 0.0
C191 C 0.73952 0.11878 0.82785 0.0
O192 O 0.75411 0.13265 0.91557 0.0
O193 O 0.74382 0.12777 0.00255 0.0
C194 C 0.75346 0.15584 0.91171 0.0
O195 O 0.74341 0.12733 0.8034 0.0
O196 O 0.73672 0.11716 0.89016 0.0
C197 C 0.7168 0.12327 0.89575 0.0
Fe198 Fe 0.60763 0.87336 0.04118 0.0
Fe199 Fe 0.58877 0.85488 0.08537 0.0
O200 O 0.60167 0.86234 0.08901 0.0
Fe201 Fe 0.60861 0.85877 0.14023 0.0
O202 O 0.61346 0.86984 0.19183 0.0
O203 O 0.6177 0.8798 0.10308 0.0
O204 O 0.60106 0.87829 0.08726 0.0
C205 C 0.59185 0.87413 0.09032 0.0
C206 C 0.62025 0.86656 0.0203 0.0
O207 O 0.58655 0.86518 0.07442 0.0
C208 C 0.59541 0.84126 0.08287 0.0
O209 O 0.59866 0.8689 0.97045 0.0
O210 O 0.58913 0.85324 0.99302 0.0
O211 O 0.61935 0.86422 0.08344 0.0
O212 O 0.61458 0.86905 0.99249 0.0
C213 C 0.59204 0.85393 0.22247 0.0
O214 O 0.58871 0.84324 0.09579 0.0
O215 O 0.60429 0.84761 0.09128 0.0
C216 C 0.59285 0.86023 0.95059 0.0
O217 O 0.58772 0.85615 0.17739 0.0
O218 O 0.5991 0.85263 0.20632 0.0
C219 C 0.61847 0.87831 0.16636 0.0
Fe220 Fe 0.13786 0.74927 0.13523 0.0
Fe221 Fe 0.12326 0.73321 0.03892 0.0
O222 O 0.13423 0.73846 0.08743 0.0
Fe223 Fe 0.14163 0.73295 0.08782 0.0
O224 O 0.14015 0.73103 0.18022 0.0
O225 O 0.14387 0.74615 0.20393 0.0
O226 O 0.12676 0.74341 0.18663 0.0
C227 C 0.1183 0.7398 0.16094 0.0
C228 C 0.15537 0.75312 0.08083 0.0
O229 O 0.11677 0.73712 0.09837 0.0
C230 C 0.13661 0.73132 0.95203 0.0
O231 O 0.13254 0.75436 0.07527 0.0
O232 O 0.12759 0.74421 0.98747 0.0
O233 O 0.1533 0.74451 0.09738 0.0
O234 O 0.14906 0.75575 0.08616 0.0
C235 C 0.12232 0.71677 0.09199 0.0
O236 O 0.12786 0.72846 0.97043 0.0
O237 O 0.14346 0.73459 0.99558 0.0
C238 C 0.13016 0.75255 0.01238 0.0
O239 O 0.11824 0.72188 0.08736 0.0
O240 O 0.13134 0.72041 0.07801 0.0
C241 C 0.14246 0.73786 0.22305 0.0
Fe242 Fe 0.26337 0.38909 0.03912 0.0
Fe243 Fe 0.26357 0.40765 0.08833 0.0
O244 O 0.25808 0.39473 0.08805 0.0
Fe245 Fe 0.24729 0.38749 0.13603 0.0
O246 O 0.25311 0.38207 0.18621 0.0
O247 O 0.25938 0.37855 0.09716 0.0
O248 O 0.27461 0.39529 0.08834 0.0
C249 C 0.27973 0.40449 0.09305 0.0
C250 C 0.244 0.37688 0.01144 0.0
O251 O 0.27612 0.40988 0.07847 0.0
C252 C 0.24337 0.40125 0.0836 0.0
O253 O 0.26824 0.39855 0.97159 0.0
O254 O 0.26188 0.40784 0.99593 0.0
O255 O 0.24215 0.37725 0.07459 0.0
O256 O 0.25241 0.38257 0.98717 0.0
C257 C 0.25883 0.40351 0.22408 0.0
O258 O 0.25202 0.40779 0.09852 0.0
O259 O 0.24077 0.39231 0.08862 0.0
C260 C 0.26532 0.40437 0.95281 0.0
O261 O 0.26552 0.40812 0.18049 0.0
O262 O 0.25054 0.39651 0.20583 0.0
C263 C 0.25666 0.37722 0.1596 0.0
Fe264 Fe 0.80783 0.74054 0.42338 0.0
Fe265 Fe 0.78942 0.72212 0.37318 0.0
O266 O 0.80026 0.72764 0.42304 0.0
Fe267 Fe 0.80355 0.72028 0.47194 0.0
O268 O 0.80941 0.7293 0.54151 0.0
O269 O 0.80629 0.74105 0.51548 0.0
O270 O 0.79762 0.74293 0.41309 0.0
C271 C 0.7886 0.7376 0.4275 0.0
C272 C 0.82136 0.73378 0.41981 0.0
O273 O 0.7844 0.7284 0.4217 0.0
C274 C 0.79627 0.70963 0.34755 0.0
O275 O 0.80978 0.74072 0.33104 0.0
O276 O 0.79416 0.73159 0.30582 0.0
O277 O 0.81492 0.72487 0.42514 0.0
O278 O 0.81938 0.74044 0.43409 0.0
C279 C 0.78391 0.71028 0.49393 0.0
O280 O 0.79387 0.71551 0.32199 0.0
O281 O 0.7983 0.70997 0.41104 0.0
C282 C 0.80292 0.73735 0.28756 0.0
O283 O 0.78269 0.71159 0.4311 0.0
O284 O 0.79226 0.7151 0.52138 0.0
C285 C 0.80826 0.7364 0.55938 0.0
Fe286 Fe 0.2556 0.06597 0.42883 0.0
Fe287 Fe 0.27375 0.06578 0.37401 0.0
O288 O 0.26848 0.07121 0.42546 0.0
Fe289 Fe 0.2761 0.08193 0.47287 0.0
O290 O 0.26737 0.07904 0.54399 0.0
O291 O 0.25549 0.0641 0.52116 0.0
O292 O 0.25308 0.05331 0.41881 0.0
C293 C 0.25844 0.04959 0.43107 0.0
C294 C 0.26251 0.08629 0.42336 0.0
O295 O 0.2676 0.05454 0.42313 0.0
C296 C 0.28625 0.08505 0.34663 0.0
O297 O 0.25502 0.06758 0.33672 0.0
O298 O 0.26403 0.06107 0.30842 0.0
O299 O 0.27142 0.08869 0.42683 0.0
O300 O 0.25586 0.07771 0.43947 0.0
C301 C 0.28599 0.07214 0.49277 0.0
O302 O 0.28022 0.07678 0.32194 0.0
O303 O 0.28618 0.08679 0.41027 0.0
C304 C 0.25824 0.06411 0.29189 0.0
O305 O 0.28446 0.06955 0.43004 0.0
O306 O 0.28135 0.0758 0.52124 0.0
C307 C 0.26031 0.07089 0.56365 0.0
Fe308 Fe 0.93001 0.18834 0.42028 0.0
Fe309 Fe 0.92962 0.20669 0.37331 0.0
O310 O 0.92448 0.19572 0.42165 0.0
Fe311 Fe 0.91379 0.19211 0.47087 0.0
O312 O 0.91706 0.18612 0.53886 0.0
O313 O 0.93206 0.18968 0.51246 0.0
O314 O 0.94253 0.19871 0.41064 0.0
C315 C 0.94606 0.20766 0.42642 0.0
C316 C 0.90981 0.17459 0.41537 0.0
O317 O 0.94094 0.21174 0.4216 0.0
C318 C 0.91027 0.19968 0.34848 0.0
O319 O 0.92827 0.18661 0.32783 0.0
O320 O 0.93446 0.20226 0.30454 0.0
O321 O 0.90718 0.18089 0.42222 0.0
O322 O 0.91847 0.17666 0.42992 0.0
C323 C 0.92323 0.21167 0.49602 0.0
O324 O 0.91854 0.20221 0.32247 0.0
O325 O 0.90861 0.19745 0.41172 0.0
C326 C 0.93162 0.19357 0.28513 0.0
O327 O 0.92568 0.21312 0.43304 0.0
O328 O 0.91978 0.20324 0.52206 0.0
C329 C 0.92539 0.18747 0.55649 0.0
Fe330 Fe 0.07355 0.47526 0.24315 0.0
Fe331 Fe 0.05497 0.45683 0.29224 0.0
O332 O 0.06061 0.46787 0.24439 0.0
Fe333 Fe 0.05332 0.47155 0.19832 0.0
O334 O 0.06221 0.47745 0.12817 0.0
O335 O 0.0739 0.47408 0.15034 0.0
O336 O 0.07572 0.46487 0.24989 0.0
C337 C 0.07024 0.45593 0.23427 0.0
C338 C 0.06719 0.48908 0.25216 0.0
O339 O 0.06106 0.45185 0.24113 0.0
C340 C 0.04279 0.46392 0.32297 0.0
O341 O 0.07394 0.47687 0.336 0.0
O342 O 0.06448 0.46123 0.35917 0.0
O343 O 0.05824 0.48279 0.24711 0.0
O344 O 0.07371 0.48697 0.23592 0.0
C345 C 0.043 0.45197 0.17255 0.0
O346 O 0.04851 0.46116 0.34604 0.0
O347 O 0.04315 0.46633 0.26028 0.0
C348 C 0.07038 0.4699 0.37878 0.0
O349 O 0.04437 0.45044 0.23455 0.0
O350 O 0.04782 0.46044 0.14687 0.0
C351 C 0.06918 0.47623 0.10802 0.0
Fe352 Fe 0.52073 0.59713 0.23698 0.0
Fe353 Fe 0.53932 0.59732 0.28587 0.0
O354 O 0.52826 0.59174 0.23843 0.0
Fe355 Fe 0.52464 0.58076 0.19277 0.0
O356 O 0.51851 0.5836 0.12313 0.0
O357 O 0.52209 0.59875 0.14443 0.0
O358 O 0.53093 0.60977 0.24486 0.0
C359 C 0.5399 0.61341 0.22952 0.0
C360 C 0.50712 0.57694 0.24684 0.0
O361 O 0.54409 0.60842 0.23539 0.0
C362 C 0.53264 0.5781 0.31636 0.0
O363 O 0.51903 0.59575 0.32939 0.0
O364 O 0.5347 0.60215 0.35364 0.0
O365 O 0.51351 0.57439 0.24272 0.0
O366 O 0.50911 0.58547 0.22895 0.0
C367 C 0.5442 0.59046 0.1648 0.0
O368 O 0.53527 0.58654 0.33928 0.0
O369 O 0.53011 0.57597 0.25394 0.0
C370 C 0.52594 0.59917 0.37251 0.0
O371 O 0.54586 0.5934 0.22679 0.0
O372 O 0.53563 0.58646 0.14053 0.0
C373 C 0.51986 0.59183 0.10261 0.0
Fe374 Fe 0.4141 0.94309 0.19663 0.0
Fe375 Fe 0.39804 0.923 0.24684 0.0
O376 O 0.40339 0.93591 0.24521 0.0
Fe377 Fe 0.39805 0.94163 0.29264 0.0
O378 O 0.40192 0.95196 0.23256 0.0
O379 O 0.40806 0.94807 0.14452 0.0
O380 O 0.41104 0.93384 0.12881 0.0
C381 C 0.40277 0.92679 0.11084 0.0
C382 C 0.41736 0.9541 0.31897 0.0
O383 O 0.39609 0.92225 0.15459 0.0
C384 C 0.39623 0.92665 0.38162 0.0
O385 O 0.42074 0.93865 0.24631 0.0
O386 O 0.40971 0.92304 0.23817 0.0
O387 O 0.40902 0.94839 0.34411 0.0
O388 O 0.41911 0.95358 0.25583 0.0
C389 C 0.38181 0.92601 0.23907 0.0
O390 O 0.39969 0.9231 0.33939 0.0
O391 O 0.39326 0.93238 0.36162 0.0
C392 C 0.41828 0.92977 0.25349 0.0
O393 O 0.38543 0.92067 0.25546 0.0
O394 O 0.38683 0.93521 0.24372 0.0
C395 C 0.40443 0.95294 0.1697 0.0
Fe396 Fe 0.52103 0.92319 0.23525 0.0
Fe397 Fe 0.52553 0.94348 0.18605 0.0
O398 O 0.52883 0.93606 0.23414 0.0
Fe399 Fe 0.53985 0.9415 0.28179 0.0
O400 O 0.54443 0.93488 0.23304 0.0
O401 O 0.53108 0.92051 0.24423 0.0
O402 O 0.52227 0.9225 0.143 0.0
C403 C 0.52026 0.92718 0.09954 0.0
C404 C 0.5264 0.92665 0.37026 0.0
O405 O 0.51919 0.93431 0.11798 0.0
C406 C 0.5335 0.95437 0.30837 0.0
O407 O 0.50958 0.92356 0.22631 0.0
O408 O 0.51448 0.93923 0.23591 0.0
O409 O 0.53514 0.93223 0.35063 0.0
O410 O 0.51941 0.92325 0.32776 0.0
C411 C 0.54505 0.95293 0.15893 0.0
O412 O 0.53128 0.95397 0.24526 0.0
O413 O 0.53585 0.94844 0.3334 0.0
C414 C 0.50792 0.93039 0.24237 0.0
O415 O 0.53652 0.94829 0.13398 0.0
O416 O 0.54655 0.95179 0.22163 0.0
C417 C 0.54009 0.92566 0.22892 0.0
Fe418 Fe 0.07444 0.59751 0.23977 0.0
Fe419 Fe 0.0543 0.58092 0.19418 0.0
O420 O 0.06149 0.59196 0.23958 0.0
Fe421 Fe 0.05573 0.59742 0.28514 0.0
O422 O 0.06197 0.60843 0.23369 0.0
O423 O 0.07662 0.61009 0.24422 0.0
O424 O 0.07495 0.59881 0.14656 0.0
C425 C 0.07031 0.5918 0.10516 0.0
C426 C 0.07097 0.59997 0.37434 0.0
O427 O 0.0634 0.58366 0.12628 0.0
C428 C 0.04328 0.57824 0.31585 0.0
O429 O 0.07454 0.58589 0.23531 0.0
O430 O 0.05901 0.57468 0.24611 0.0
O431 O 0.06504 0.6026 0.35311 0.0
O432 O 0.07468 0.59653 0.33301 0.0
C433 C 0.04418 0.59024 0.16364 0.0
O434 O 0.0439 0.57617 0.25374 0.0
O435 O 0.04907 0.58667 0.33945 0.0
C436 C 0.06796 0.57732 0.25234 0.0
O437 O 0.04903 0.5865 0.13981 0.0
O438 O 0.04535 0.59319 0.2255 0.0
C439 C 0.07115 0.61354 0.22785 0.0
Fe440 Fe 0.3989 0.47521 0.24192 0.0
Fe441 Fe 0.41536 0.47148 0.19606 0.0
O442 O 0.40444 0.46781 0.24263 0.0
Fe443 Fe 0.39907 0.45675 0.29026 0.0
O444 O 0.38795 0.4518 0.23976 0.0
O445 O 0.38635 0.46484 0.24884 0.0
O446 O 0.39733 0.47407 0.14909 0.0
C447 C 0.40419 0.47625 0.10663 0.0
C448 C 0.39679 0.46981 0.37747 0.0
O449 O 0.41238 0.47748 0.12663 0.0
C450 C 0.41834 0.46375 0.31992 0.0
O451 O 0.41049 0.48692 0.23472 0.0
O452 O 0.42174 0.48266 0.24529 0.0
O453 O 0.39404 0.46115 0.3578 0.0
O454 O 0.40016 0.47679 0.33476 0.0
C455 C 0.40597 0.45193 0.16948 0.0
O456 O 0.42032 0.46616 0.25715 0.0
O457 O 0.4099 0.46105 0.3435 0.0
C458 C 0.41911 0.48898 0.2507 0.0
O459 O 0.40963 0.46042 0.14418 0.0
O460 O 0.40322 0.45036 0.23182 0.0
C461 C 0.38285 0.45588 0.23346 0.0
Fe462 Fe 0.27586 0.19223 0.47592 0.0
Fe463 Fe 0.27398 0.20683 0.3826 0.0
O464 O 0.26848 0.19573 0.42936 0.0
Fe465 Fe 0.25556 0.1881 0.42921 0.0
O466 O 0.25503 0.1892 0.52203 0.0
O467 O 0.2668 0.18597 0.54458 0.0
O468 O 0.28093 0.20318 0.52865 0.0
C469 C 0.28557 0.21174 0.50437 0.0
C470 C 0.26243 0.17467 0.42047 0.0
O471 O 0.28435 0.21337 0.44218 0.0
C472 C 0.25894 0.1936 0.29402 0.0
O473 O 0.28626 0.1979 0.41584 0.0
O474 O 0.2808 0.20285 0.32947 0.0
O475 O 0.25575 0.17655 0.43666 0.0
O476 O 0.27133 0.18114 0.42575 0.0
C477 C 0.25832 0.20723 0.43754 0.0
O478 O 0.26466 0.2023 0.3142 0.0
O479 O 0.25541 0.18659 0.33641 0.0
C480 C 0.2867 0.20038 0.35329 0.0
O481 O 0.26752 0.21146 0.43309 0.0
O482 O 0.25304 0.19827 0.42158 0.0
C483 C 0.25976 0.1871 0.56455 0.0
Fe484 Fe 0.80495 0.08288 0.4758 0.0
Fe485 Fe 0.79008 0.06685 0.38076 0.0
O486 O 0.80119 0.07208 0.4275 0.0
Fe487 Fe 0.80861 0.06656 0.4257 0.0
O488 O 0.80754 0.06473 0.51845 0.0
O489 O 0.8112 0.07979 0.54266 0.0
O490 O 0.79405 0.07702 0.52906 0.0
C491 C 0.78546 0.07326 0.50528 0.0
C492 C 0.82228 0.08676 0.4177 0.0
O493 O 0.78373 0.07061 0.4427 0.0
C494 C 0.80309 0.06486 0.29045 0.0
O495 O 0.79937 0.08795 0.41819 0.0
O496 O 0.79422 0.0779 0.32995 0.0
O497 O 0.82029 0.07815 0.43337 0.0
O498 O 0.81597 0.08938 0.4249 0.0
C499 C 0.7893 0.05038 0.432 0.0
O500 O 0.79446 0.0622 0.31047 0.0
O501 O 0.81009 0.06804 0.33293 0.0
C502 C 0.79681 0.0862 0.35566 0.0
O503 O 0.78522 0.0555 0.42838 0.0
O504 O 0.7983 0.05401 0.41738 0.0
C505 C 0.80987 0.07152 0.56169 0.0
Fe506 Fe 0.92996 0.72221 0.37153 0.0
Fe507 Fe 0.93007 0.74068 0.4219 0.0
O508 O 0.92473 0.72778 0.42181 0.0
Fe509 Fe 0.91413 0.72044 0.47131 0.0
O510 O 0.9203 0.7153 0.52045 0.0
O511 O 0.92625 0.71173 0.42979 0.0
O512 O 0.94134 0.72852 0.41903 0.0
C513 C 0.94639 0.73773 0.42378 0.0
C514 C 0.9106 0.70972 0.34723 0.0
O515 O 0.94266 0.74306 0.41068 0.0
C516 C 0.90978 0.73392 0.41934 0.0
O517 O 0.93459 0.73162 0.30381 0.0
O518 O 0.92819 0.74083 0.32965 0.0
O519 O 0.909 0.71009 0.41084 0.0
O520 O 0.91883 0.71558 0.32115 0.0
C521 C 0.92562 0.73662 0.55811 0.0
O522 O 0.91843 0.74059 0.43331 0.0
O523 O 0.90731 0.72501 0.4248 0.0
C524 C 0.93162 0.73743 0.2859 0.0
O525 O 0.93222 0.74123 0.51393 0.0
O526 O 0.91736 0.72951 0.5406 0.0
C527 C 0.9238 0.71046 0.4928 0.0
Fe528 Fe 0.47396 0.07382 0.75901 0.0
Fe529 Fe 0.45537 0.05571 0.70668 0.0
O530 O 0.46621 0.06094 0.75651 0.0
Fe531 Fe 0.46936 0.05331 0.80317 0.0
O532 O 0.47542 0.0621 0.87369 0.0
O533 O 0.4724 0.07403 0.85143 0.0
O534 O 0.46392 0.07648 0.74984 0.0
C535 C 0.45486 0.07124 0.76323 0.0
C536 C 0.48716 0.06673 0.751 0.0
O537 O 0.45055 0.06205 0.75651 0.0
C538 C 0.46197 0.04309 0.67767 0.0
O539 O 0.47593 0.07425 0.66675 0.0
O540 O 0.46032 0.06534 0.64026 0.0
O541 O 0.48061 0.05786 0.75526 0.0
O542 O 0.48542 0.07346 0.76858 0.0
C543 C 0.44974 0.04361 0.82621 0.0
O544 O 0.45955 0.04903 0.6539 0.0
O545 O 0.46396 0.04319 0.741 0.0
C546 C 0.46915 0.07101 0.62267 0.0
O547 O 0.44849 0.04509 0.76377 0.0
O548 O 0.45814 0.04817 0.85323 0.0
C549 C 0.47436 0.06918 0.89366 0.0
Fe550 Fe 0.92187 0.40002 0.7526 0.0
Fe551 Fe 0.94062 0.40031 0.70571 0.0
O552 O 0.93482 0.40561 0.75281 0.0
Fe553 Fe 0.94195 0.4165 0.79984 0.0
O554 O 0.93285 0.41346 0.86849 0.0
O555 O 0.92133 0.39838 0.84541 0.0
O556 O 0.91975 0.38748 0.74556 0.0
C557 C 0.92522 0.38401 0.76135 0.0
C558 C 0.92823 0.42021 0.74406 0.0
O559 O 0.93441 0.38914 0.75571 0.0
C560 C 0.9529 0.41961 0.67703 0.0
O561 O 0.92167 0.40132 0.65974 0.0
O562 O 0.93131 0.39531 0.63736 0.0
O563 O 0.93718 0.42288 0.75004 0.0
O564 O 0.92169 0.41158 0.75972 0.0
C565 C 0.95213 0.40716 0.82751 0.0
O566 O 0.94721 0.41119 0.65298 0.0
O567 O 0.95234 0.42154 0.73969 0.0
C568 C 0.92537 0.39801 0.6173 0.0
O569 O 0.95105 0.40444 0.76512 0.0
O570 O 0.94724 0.41079 0.85231 0.0
C571 C 0.92591 0.40522 0.88813 0.0
Fe572 Fe 0.59711 0.52265 0.76173 0.0
Fe573 Fe 0.59725 0.54127 0.71415 0.0
O574 O 0.59173 0.53019 0.76136 0.0
Fe575 Fe 0.58081 0.52655 0.8079 0.0
O576 O 0.58373 0.52037 0.87669 0.0
O577 O 0.59886 0.52398 0.85423 0.0
O578 O 0.60973 0.53283 0.75307 0.0
C579 C 0.61344 0.54182 0.76817 0.0
C580 C 0.57691 0.50906 0.75293 0.0
O581 O 0.60844 0.54602 0.7636 0.0
C582 C 0.57798 0.5346 0.6853 0.0
O583 O 0.5956 0.52099 0.66938 0.0
O584 O 0.60196 0.53666 0.64543 0.0
O585 O 0.57437 0.51545 0.75773 0.0
O586 O 0.58545 0.51103 0.7702 0.0
C587 C 0.59053 0.54609 0.83635 0.0
O588 O 0.5864 0.53726 0.66167 0.0
O589 O 0.57594 0.53206 0.74776 0.0
C590 C 0.59898 0.52791 0.62636 0.0
O591 O 0.59343 0.54779 0.77423 0.0
O592 O 0.58659 0.53751 0.86039 0.0
C593 C 0.59198 0.52172 0.89654 0.0
Fe594 Fe 0.71946 0.80441 0.51886 0.0
Fe595 Fe 0.73979 0.80868 0.56495 0.0
O596 O 0.7269 0.80104 0.56612 0.0
Fe597 Fe 0.72148 0.79011 0.61496 0.0
O598 O 0.71108 0.78337 0.55571 0.0
O599 O 0.71443 0.79333 0.46765 0.0
O600 O 0.72849 0.81058 0.44972 0.0
C601 C 0.73547 0.80935 0.43005 0.0
C602 C 0.70874 0.79662 0.64217 0.0
O603 O 0.74015 0.80719 0.47252 0.0
C604 C 0.73664 0.80372 0.70099 0.0
O605 O 0.72399 0.8156 0.56788 0.0
O606 O 0.73955 0.82018 0.5555 0.0
O607 O 0.71469 0.79428 0.6668 0.0
O608 O 0.70909 0.79884 0.57913 0.0
C609 C 0.73711 0.78953 0.56095 0.0
O610 O 0.74006 0.81055 0.6572 0.0
O611 O 0.73088 0.79493 0.68296 0.0
C612 C 0.7329 0.82208 0.57238 0.0
O613 O 0.74236 0.79858 0.57447 0.0
O614 O 0.72791 0.78529 0.56628 0.0
C615 C 0.70985 0.78483 0.49308 0.0
Fe616 Fe 0.18684 0.93023 0.576 0.0
Fe617 Fe 0.20538 0.92992 0.61994 0.0
O618 O 0.19416 0.9246 0.57463 0.0
Fe619 Fe 0.19017 0.91361 0.52828 0.0
O620 O 0.18388 0.9166 0.46097 0.0
O621 O 0.18776 0.93179 0.48313 0.0
O622 O 0.19725 0.94275 0.58245 0.0
C623 C 0.20618 0.94627 0.56632 0.0
C624 C 0.17301 0.9101 0.58705 0.0
O625 O 0.21022 0.9411 0.57009 0.0
C626 C 0.19843 0.91064 0.64903 0.0
O627 O 0.18555 0.92898 0.66889 0.0
O628 O 0.20124 0.9349 0.68962 0.0
O629 O 0.17924 0.90737 0.58042 0.0
O630 O 0.17507 0.91868 0.57004 0.0
C631 C 0.20956 0.92285 0.49655 0.0
O632 O 0.20124 0.91907 0.67286 0.0
O633 O 0.19578 0.90863 0.58677 0.0
C634 C 0.19264 0.93224 0.71061 0.0
O635 O 0.21151 0.92579 0.5585 0.0
O636 O 0.20093 0.9192 0.47388 0.0
C637 C 0.18534 0.92488 0.44078 0.0
Fe638 Fe 0.08137 0.2773 0.52585 0.0
Fe639 Fe 0.06563 0.25692 0.57337 0.0
O640 O 0.07075 0.26979 0.57443 0.0
Fe641 Fe 0.06533 0.27518 0.62458 0.0
O642 O 0.0689 0.28564 0.56604 0.0
O643 O 0.07502 0.28215 0.47578 0.0
O644 O 0.07853 0.26828 0.45685 0.0
C645 C 0.07036 0.26118 0.438 0.0
C646 C 0.08457 0.28797 0.64959 0.0
O647 O 0.06362 0.25647 0.48105 0.0
C648 C 0.06392 0.26001 0.70972 0.0
O649 O 0.08825 0.27296 0.57382 0.0
O650 O 0.07746 0.25731 0.56302 0.0
O651 O 0.07639 0.28195 0.67543 0.0
O652 O 0.0862 0.28769 0.58597 0.0
C653 C 0.0491 0.25953 0.57101 0.0
O654 O 0.06736 0.25668 0.66554 0.0
O655 O 0.06083 0.26573 0.69223 0.0
C656 C 0.08596 0.2641 0.57913 0.0
O657 O 0.05294 0.25429 0.58371 0.0
O658 O 0.054 0.26873 0.57674 0.0
C659 C 0.07132 0.28684 0.5029 0.0
Fe660 Fe 0.18851 0.25651 0.58715 0.0
Fe661 Fe 0.19247 0.27648 0.53479 0.0
O662 O 0.19607 0.26941 0.58399 0.0
Fe663 Fe 0.20719 0.2752 0.63044 0.0
O664 O 0.21187 0.26862 0.58178 0.0
O665 O 0.19877 0.25416 0.59714 0.0
O666 O 0.18968 0.25556 0.49497 0.0
C667 C 0.18751 0.26003 0.45068 0.0
C668 C 0.19409 0.26048 0.72138 0.0
O669 O 0.18625 0.26708 0.46791 0.0
C670 C 0.20038 0.28775 0.65602 0.0
O671 O 0.17686 0.25651 0.57769 0.0
O672 O 0.18143 0.27212 0.58488 0.0
O673 O 0.20277 0.26611 0.70057 0.0
O674 O 0.18701 0.25685 0.6796 0.0
C675 C 0.21195 0.28635 0.50664 0.0
O676 O 0.19798 0.28709 0.59307 0.0
O677 O 0.20311 0.28213 0.68139 0.0
C678 C 0.17501 0.26325 0.59236 0.0
O679 O 0.20343 0.28141 0.48208 0.0
O680 O 0.21359 0.28542 0.56934 0.0
C681 C 0.20769 0.2594 0.57998 0.0
Fe682 Fe 0.72174 0.93094 0.62362 0.0
Fe683 Fe 0.7401 0.93083 0.57245 0.0
O684 O 0.72719 0.92552 0.57396 0.0
Fe685 Fe 0.7197 0.91476 0.5265 0.0
O686 O 0.71446 0.92078 0.47664 0.0
O687 O 0.71113 0.92705 0.56651 0.0
O688 O 0.72795 0.94213 0.57393 0.0
C689 C 0.73712 0.94711 0.56673 0.0
C690 C 0.70928 0.91169 0.65157 0.0
O691 O 0.74251 0.94346 0.58056 0.0
C692 C 0.73326 0.91052 0.57884 0.0
O693 O 0.73129 0.93579 0.69017 0.0
O694 O 0.74052 0.92943 0.66521 0.0
O695 O 0.70951 0.90987 0.58823 0.0
O696 O 0.71522 0.92 0.67613 0.0
C697 C 0.73568 0.9258 0.43684 0.0
O698 O 0.73994 0.91912 0.56382 0.0
O699 O 0.72435 0.90807 0.57374 0.0
C700 C 0.73712 0.93289 0.70877 0.0
O701 O 0.74049 0.93254 0.47974 0.0
O702 O 0.72854 0.91768 0.45628 0.0
C703 C 0.70972 0.92441 0.50393 0.0
Fe704 Fe 0.06537 0.79007 0.62378 0.0
Fe705 Fe 0.06536 0.8087 0.57778 0.0
O706 O 0.07097 0.80135 0.57892 0.0
Fe707 Fe 0.0822 0.80532 0.53572 0.0
O708 O 0.07695 0.7945 0.48126 0.0
O709 O 0.06991 0.78402 0.5658 0.0
O710 O 0.05457 0.78533 0.56987 0.0
C711 C 0.04946 0.78939 0.56323 0.0
C712 C 0.08446 0.79705 0.65934 0.0
O713 O 0.0528 0.79825 0.5808 0.0
C714 C 0.08544 0.82254 0.59274 0.0
O715 O 0.05988 0.7941 0.69031 0.0
O716 O 0.06611 0.80985 0.6711 0.0
O717 O 0.08685 0.79981 0.59755 0.0
O718 O 0.07585 0.79412 0.68031 0.0
C719 C 0.07143 0.81029 0.44398 0.0
O720 O 0.07691 0.82047 0.57433 0.0
O721 O 0.08817 0.81629 0.58765 0.0
C722 C 0.06258 0.80266 0.71208 0.0
O723 O 0.06433 0.80795 0.48452 0.0
O724 O 0.07954 0.81156 0.46624 0.0
C725 C 0.07316 0.7859 0.50469 0.0
Fe726 Fe 0.94085 0.54038 0.70599 0.0
Fe727 Fe 0.92222 0.52217 0.75659 0.0
O728 O 0.93514 0.52952 0.75565 0.0
Fe729 Fe 0.94234 0.52598 0.80406 0.0
O730 O 0.94756 0.53718 0.85449 0.0
O731 O 0.95133 0.54692 0.76473 0.0
O732 O 0.93471 0.54557 0.75423 0.0
C733 C 0.92554 0.54153 0.76069 0.0
C734 C 0.95325 0.53345 0.68083 0.0
O735 O 0.92005 0.53253 0.74681 0.0
C736 C 0.92866 0.50839 0.75068 0.0
O737 O 0.93143 0.53577 0.63818 0.0
O738 O 0.92192 0.52023 0.66438 0.0
O739 O 0.95274 0.53126 0.74408 0.0
O740 O 0.94738 0.53582 0.65491 0.0
C741 C 0.92634 0.52142 0.89193 0.0
O742 O 0.92211 0.51049 0.76644 0.0
O743 O 0.93761 0.51471 0.75589 0.0
C744 C 0.92548 0.52703 0.62041 0.0
O745 O 0.92183 0.52371 0.84896 0.0
O746 O 0.93324 0.52003 0.87299 0.0
C747 C 0.95248 0.54556 0.82767 0.0
Fe748 Fe 0.45698 0.40014 0.70711 0.0
Fe749 Fe 0.47559 0.40034 0.75616 0.0
O750 O 0.46798 0.40566 0.75523 0.0
Fe751 Fe 0.47141 0.41652 0.80196 0.0
O752 O 0.46029 0.41064 0.85324 0.0
O753 O 0.45037 0.40405 0.76522 0.0
O754 O 0.45217 0.38901 0.75735 0.0
C755 C 0.45638 0.38403 0.76356 0.0
C756 C 0.46367 0.41937 0.67769 0.0
O757 O 0.46538 0.38769 0.74875 0.0
C758 C 0.48908 0.42062 0.74817 0.0
O759 O 0.46158 0.39529 0.63977 0.0
O760 O 0.47723 0.40166 0.66334 0.0
O761 O 0.46602 0.42136 0.74051 0.0
O762 O 0.46112 0.41097 0.65405 0.0
C763 C 0.47641 0.40551 0.89154 0.0
O764 O 0.48716 0.41204 0.76389 0.0
O765 O 0.48264 0.42309 0.75337 0.0
C766 C 0.47029 0.3982 0.62038 0.0
O767 O 0.47439 0.39871 0.84894 0.0
O768 O 0.47745 0.41365 0.87175 0.0
C769 C 0.45182 0.40685 0.82745 0.0
Fe770 Fe 0.58104 0.05387 0.8096 0.0
Fe771 Fe 0.5971 0.05535 0.71343 0.0
O772 O 0.59168 0.06104 0.76017 0.0
Fe773 Fe 0.59685 0.07393 0.75706 0.0
O774 O 0.59894 0.07489 0.84926 0.0
O775 O 0.58404 0.0633 0.87596 0.0
O776 O 0.58725 0.04917 0.86254 0.0
C777 C 0.59106 0.04441 0.83847 0.0
C778 C 0.57656 0.06686 0.75107 0.0
O779 O 0.5936 0.0453 0.77562 0.0
C780 C 0.59849 0.07 0.62254 0.0
O781 O 0.57613 0.04318 0.75247 0.0
O782 O 0.58603 0.04822 0.66325 0.0
O783 O 0.58509 0.07369 0.76614 0.0
O784 O 0.57423 0.05803 0.75891 0.0
C785 C 0.61334 0.07132 0.76374 0.0
O786 O 0.60155 0.06436 0.64284 0.0
O787 O 0.59504 0.0736 0.66459 0.0
C788 C 0.5778 0.04244 0.68959 0.0
O789 O 0.60843 0.0621 0.76076 0.0
O790 O 0.60952 0.07648 0.74755 0.0
C791 C 0.59231 0.0704 0.89341 0.0
C792 C 0.10257 0.36185 0.16608 0.0
C793 C 0.11031 0.36948 0.20314 0.0
C794 C 0.09624 0.35297 0.19814 0.0
C795 C 0.08615 0.34014 0.35904 0.0
H796 H 0.08846 0.31892 0.27743 0.0
C797 C 0.07467 0.30406 0.50386 0.0
C798 C 0.07235 0.29554 0.4665 0.0
C799 C 0.07744 0.31287 0.46969 0.0
C800 C 0.08746 0.32463 0.30015 0.0
H801 H 0.11698 0.374 0.30417 0.0
H802 H 0.10565 0.35845 0.3607 0.0
H803 H 0.09649 0.33494 0.22316 0.0
H804 H 0.07037 0.28932 0.36432 0.0
H805 H 0.07455 0.30452 0.30423 0.0
H806 H 0.07695 0.32984 0.4353 0.0
C807 C 0.10464 0.35939 0.30658 0.0
C808 C 0.09215 0.33385 0.26916 0.0
C809 C 0.11112 0.36826 0.27419 0.0
C810 C 0.0722 0.29582 0.39429 0.0
C811 C 0.07472 0.30458 0.36 0.0
C812 C 0.08124 0.33083 0.38933 0.0
C813 C 0.09736 0.35158 0.26818 0.0
C814 C 0.09168 0.34171 0.29891 0.0
C815 C 0.07774 0.31332 0.39719 0.0
C816 C 0.08198 0.32297 0.36107 0.0
H817 H 0.10171 0.36253 0.1113 0.0
H818 H 0.09064 0.34705 0.16767 0.0
H819 H 0.08564 0.34611 0.38254 0.0
H820 H 0.07497 0.3041 0.55967 0.0
H821 H 0.07983 0.3194 0.50054 0.0
C822 C 0.69542 0.7678 0.48477 0.0
C823 C 0.70152 0.77699 0.45421 0.0
C824 C 0.68664 0.76101 0.45316 0.0
C825 C 0.6722 0.75563 0.29049 0.0
H826 H 0.64995 0.74499 0.41485 0.0
C827 C 0.63294 0.73643 0.18455 0.0
C828 C 0.62695 0.73978 0.21331 0.0
C829 C 0.64164 0.73836 0.21708 0.0
C830 C 0.65608 0.74787 0.37941 0.0
H831 H 0.70349 0.78594 0.36394 0.0
H832 H 0.68818 0.77421 0.30961 0.0
H833 H 0.6665 0.75347 0.46157 0.0
H834 H 0.62507 0.74716 0.3015 0.0
H835 H 0.64027 0.75066 0.35738 0.0
H836 H 0.66179 0.75062 0.20825 0.0
C837 C 0.69018 0.77218 0.35771 0.0
C838 C 0.66559 0.75263 0.40621 0.0
C839 C 0.69896 0.77896 0.38917 0.0
C840 C 0.62952 0.74451 0.27765 0.0
C841 C 0.63823 0.74647 0.31001 0.0
C842 C 0.6627 0.75091 0.26369 0.0
C843 C 0.68376 0.76325 0.39031 0.0
C844 C 0.67377 0.75682 0.36201 0.0
C845 C 0.64456 0.74369 0.27905 0.0
C846 C 0.65452 0.74723 0.30781 0.0
H847 H 0.69721 0.76599 0.53455 0.0
H848 H 0.68195 0.75411 0.47901 0.0
H849 H 0.67833 0.75864 0.25503 0.0
H850 H 0.63112 0.73266 0.1354 0.0
H851 H 0.64625 0.73594 0.19254 0.0
C852 C 0.214 0.9165 0.39251 0.0
C853 C 0.21678 0.92153 0.45575 0.0
C854 C 0.21996 0.91346 0.36054 0.0
C855 C 0.22915 0.90055 0.3521 0.0
H856 H 0.25698 0.91564 0.31195 0.0
C857 C 0.25021 0.88129 0.27689 0.0
C858 C 0.25478 0.88414 0.21206 0.0
C859 C 0.24726 0.88715 0.31153 0.0
C860 C 0.24921 0.91137 0.32324 0.0
H861 H 0.22846 0.92809 0.53158 0.0
H862 H 0.23894 0.92285 0.47476 0.0
H863 H 0.24843 0.92394 0.35768 0.0
H864 H 0.26068 0.89583 0.1361 0.0
H865 H 0.25557 0.90609 0.19729 0.0
H866 H 0.22984 0.888 0.31851 0.0
C867 C 0.23208 0.9212 0.45066 0.0
C868 C 0.24435 0.9161 0.34935 0.0
C869 C 0.22606 0.92417 0.48318 0.0
C870 C 0.25711 0.89338 0.18565 0.0
C871 C 0.25421 0.89928 0.22073 0.0
C872 C 0.23401 0.89583 0.3273 0.0
C873 C 0.22889 0.91549 0.39054 0.0
C874 C 0.23425 0.91072 0.36322 0.0
C875 C 0.24891 0.89602 0.28255 0.0
C876 C 0.24407 0.90118 0.31234 0.0
H877 H 0.20696 0.91443 0.36942 0.0
H878 H 0.21741 0.90918 0.31363 0.0
H879 H 0.22138 0.89622 0.36319 0.0
H880 H 0.2484 0.87429 0.29926 0.0
H881 H 0.2433 0.88455 0.35969 0.0
C882 C 0.36008 0.10422 0.82534 0.0
C883 C 0.36854 0.11119 0.79061 0.0
C884 C 0.35156 0.09802 0.78888 0.0
C885 C 0.33988 0.09673 0.62005 0.0
H886 H 0.31945 0.07205 0.69473 0.0
C887 C 0.30262 0.07387 0.48639 0.0
C888 C 0.29489 0.07324 0.52673 0.0
C889 C 0.31171 0.07666 0.51605 0.0
C890 C 0.32513 0.07891 0.67327 0.0
H891 H 0.37496 0.11667 0.69021 0.0
H892 H 0.36025 0.10544 0.62588 0.0
H893 H 0.3357 0.08016 0.74761 0.0
H894 H 0.29045 0.07435 0.63054 0.0
H895 H 0.30635 0.07897 0.68279 0.0
H896 H 0.32928 0.09531 0.54499 0.0
C897 C 0.36003 0.10504 0.6816 0.0
C898 C 0.33443 0.08361 0.7037 0.0
C899 C 0.3685 0.11142 0.71831 0.0
C900 C 0.29626 0.0748 0.59819 0.0
C901 C 0.30533 0.07741 0.62808 0.0
C902 C 0.33067 0.09191 0.58877 0.0
C903 C 0.35133 0.09847 0.7165 0.0
C904 C 0.34187 0.09274 0.67866 0.0
C905 C 0.3132 0.07866 0.5868 0.0
C906 C 0.32317 0.08308 0.61602 0.0
H907 H 0.35984 0.10392 0.88114 0.0
H908 H 0.34504 0.09323 0.81811 0.0
H909 H 0.34527 0.10381 0.5998 0.0
H910 H 0.30183 0.07275 0.43114 0.0
H911 H 0.31769 0.07758 0.48335 0.0
C912 C 0.88516 0.25509 0.72623 0.0
C913 C 0.88591 0.25706 0.79736 0.0
C914 C 0.89142 0.25236 0.69444 0.0
C915 C 0.90276 0.23825 0.73179 0.0
H916 H 0.91876 0.2495 0.56885 0.0
C917 C 0.92185 0.21922 0.60607 0.0
C918 C 0.92204 0.21915 0.5338 0.0
C919 C 0.91943 0.22549 0.64106 0.0
C920 C 0.91423 0.24617 0.61387 0.0
H921 H 0.89416 0.25818 0.89007 0.0
H922 H 0.90483 0.25316 0.83468 0.0
H923 H 0.91055 0.25757 0.62154 0.0
H924 H 0.92006 0.22572 0.44139 0.0
H925 H 0.91538 0.23621 0.50157 0.0
H926 H 0.90575 0.22653 0.72246 0.0
C927 C 0.89948 0.25383 0.8037 0.0
C928 C 0.90961 0.25086 0.64416 0.0
C929 C 0.89337 0.25673 0.83517 0.0
C930 C 0.92009 0.22569 0.49723 0.0
C931 C 0.91744 0.23177 0.53202 0.0
C932 C 0.90718 0.23344 0.70073 0.0
C933 C 0.8984 0.2514 0.73352 0.0
C934 C 0.9038 0.24689 0.70311 0.0
C935 C 0.91688 0.23163 0.60446 0.0
C936 C 0.91292 0.23727 0.64088 0.0
H937 H 0.8795 0.2553 0.69575 0.0
H938 H 0.89045 0.25048 0.6402 0.0
H939 H 0.89821 0.23501 0.7769 0.0
H940 H 0.9234 0.2143 0.6355 0.0
H941 H 0.91936 0.22535 0.69684 0.0
C942 C 0.74075 0.62777 0.72292 0.0
C943 C 0.74049 0.62764 0.79522 0.0
C944 C 0.74304 0.63635 0.68684 0.0
C945 C 0.7477 0.6621 0.71069 0.0
H946 H 0.76414 0.66704 0.54994 0.0
C947 C 0.77671 0.70018 0.60077 0.0
C948 C 0.77626 0.70142 0.52934 0.0
C949 C 0.77041 0.69115 0.63183 0.0
C950 C 0.75947 0.66571 0.59436 0.0
H951 H 0.74219 0.63631 0.88644 0.0
H952 H 0.74664 0.65129 0.82444 0.0
H953 H 0.75667 0.65107 0.60509 0.0
H954 H 0.76854 0.69426 0.4351 0.0
H955 H 0.75778 0.67849 0.48929 0.0
H956 H 0.7512 0.6771 0.70179 0.0
C957 C 0.74474 0.64476 0.79477 0.0
C958 C 0.75509 0.65651 0.62583 0.0
C959 C 0.74223 0.63614 0.83062 0.0
C960 C 0.76907 0.69359 0.49029 0.0
C961 C 0.76293 0.68454 0.52108 0.0
C962 C 0.75228 0.67138 0.68002 0.0
C963 C 0.74538 0.64507 0.72236 0.0
C964 C 0.74922 0.65458 0.685 0.0
C965 C 0.76369 0.68319 0.59173 0.0
C966 C 0.75825 0.67326 0.62195 0.0
H967 H 0.73936 0.62129 0.69434 0.0
H968 H 0.74319 0.63618 0.6311 0.0
H969 H 0.74306 0.66087 0.75509 0.0
H970 H 0.78216 0.70608 0.63217 0.0
H971 H 0.77115 0.69024 0.68646 0.0
C972 C 0.89178 0.63639 0.83041 0.0
C973 C 0.88506 0.62787 0.795 0.0
C974 C 0.89784 0.64503 0.79457 0.0
C975 C 0.89914 0.65674 0.62558 0.0
H976 H 0.92355 0.67745 0.7014 0.0
C977 C 0.92201 0.69379 0.48941 0.0
C978 C 0.92264 0.70163 0.52835 0.0
C979 C 0.91916 0.68476 0.52038 0.0
C980 C 0.91677 0.67169 0.67968 0.0
H981 H 0.87988 0.62151 0.6941 0.0
H982 H 0.89087 0.63643 0.63088 0.0
H983 H 0.91555 0.66123 0.7549 0.0
H984 H 0.92145 0.70632 0.63117 0.0
H985 H 0.91671 0.69052 0.68574 0.0
H986 H 0.90054 0.66722 0.54955 0.0
C987 C 0.89118 0.6366 0.68663 0.0
C988 C 0.91212 0.66241 0.71045 0.0
C989 C 0.88494 0.628 0.7227 0.0
C990 C 0.921 0.70042 0.59984 0.0
C991 C 0.91833 0.69141 0.63107 0.0
C992 C 0.90391 0.66593 0.59401 0.0
C993 C 0.8975 0.64533 0.72216 0.0
C994 C 0.90311 0.65485 0.68478 0.0
C995 C 0.91708 0.68344 0.5911 0.0
C996 C 0.91265 0.67352 0.62152 0.0
H997 H 0.89199 0.63656 0.88623 0.0
H998 H 0.90243 0.65157 0.82424 0.0
H999 H 0.89214 0.65126 0.60486 0.0
H1000 H 0.92319 0.69444 0.43419 0.0
H1001 H 0.91826 0.6787 0.48867 0.0
C1002 C 0.36633 0.25258 0.7182 0.0
C1003 C 0.36888 0.25739 0.78229 0.0
C1004 C 0.35752 0.25039 0.6862 0.0
C1005 C 0.33291 0.24536 0.73361 0.0
H1006 H 0.32894 0.24299 0.53585 0.0
C1007 C 0.29659 0.2173 0.60775 0.0
C1008 C 0.29393 0.21946 0.54372 0.0
C1009 C 0.3054 0.22399 0.63925 0.0
C1010 C 0.3299 0.24376 0.5912 0.0
H1011 H 0.36455 0.26439 0.86005 0.0
H1012 H 0.34925 0.26069 0.80361 0.0
H1013 H 0.34553 0.25162 0.5819 0.0
H1014 H 0.29812 0.2307 0.46534 0.0
H1015 H 0.31343 0.24243 0.52088 0.0
H1016 H 0.31728 0.23739 0.74293 0.0
C1017 C 0.35396 0.25841 0.77898 0.0
C1018 C 0.33943 0.24861 0.61759 0.0
C1019 C 0.36276 0.26058 0.8111 0.0
C1020 C 0.29998 0.22874 0.51429 0.0
C1021 C 0.30879 0.23545 0.54589 0.0
C1022 C 0.32338 0.24053 0.70723 0.0
C1023 C 0.35108 0.253 0.71735 0.0
C1024 C 0.34105 0.24923 0.6891 0.0
C1025 C 0.31175 0.23303 0.60764 0.0
C1026 C 0.32177 0.23943 0.63574 0.0
H1027 H 0.37088 0.25005 0.69433 0.0
H1028 H 0.35552 0.24616 0.63902 0.0
H1029 H 0.33387 0.24562 0.78899 0.0
H1030 H 0.2921 0.21023 0.63207 0.0
H1031 H 0.30748 0.22184 0.68651 0.0
C1032 C 0.74486 0.11323 0.72382 0.0
C1033 C 0.74023 0.11109 0.78852 0.0
C1034 C 0.74709 0.10661 0.69217 0.0
C1035 C 0.7525 0.08728 0.73984 0.0
H1036 H 0.75416 0.0852 0.54183 0.0
C1037 C 0.7802 0.07882 0.60976 0.0
C1038 C 0.77785 0.07392 0.54604 0.0
C1039 C 0.77359 0.08097 0.64236 0.0
C1040 C 0.7536 0.08553 0.59729 0.0
H1041 H 0.7336 0.09996 0.86804 0.0
H1042 H 0.73736 0.08836 0.81222 0.0
H1043 H 0.74562 0.09319 0.5889 0.0
H1044 H 0.76637 0.06672 0.46953 0.0
H1045 H 0.75478 0.07033 0.52706 0.0
H1046 H 0.76057 0.0797 0.74821 0.0
C1047 C 0.73948 0.09526 0.78677 0.0
C1048 C 0.74879 0.09022 0.62424 0.0
C1049 C 0.73727 0.10189 0.81853 0.0
C1050 C 0.76847 0.07061 0.51817 0.0
C1051 C 0.76184 0.07273 0.55091 0.0
C1052 C 0.75728 0.08256 0.71289 0.0
C1053 C 0.74468 0.09767 0.72428 0.0
C1054 C 0.74843 0.0914 0.69578 0.0
C1055 C 0.76444 0.07821 0.61223 0.0
C1056 C 0.75812 0.08186 0.64126 0.0
H1057 H 0.74722 0.12022 0.69903 0.0
H1058 H 0.75117 0.10875 0.64432 0.0
H1059 H 0.75244 0.08812 0.79521 0.0
H1060 H 0.78735 0.08146 0.63288 0.0
H1061 H 0.77588 0.08527 0.68925 0.0
C1062 C 0.62712 0.88565 0.27775 0.0
C1063 C 0.62697 0.88581 0.20547 0.0
C1064 C 0.63571 0.89192 0.31376 0.0
C1065 C 0.66149 0.91293 0.28965 0.0
H1066 H 0.66643 0.90122 0.44925 0.0
C1067 C 0.69953 0.92145 0.39754 0.0
C1068 C 0.70085 0.92322 0.46884 0.0
C1069 C 0.6905 0.91882 0.36686 0.0
C1070 C 0.6651 0.90462 0.40515 0.0
H1071 H 0.63561 0.89284 0.1142 0.0
H1072 H 0.6506 0.90333 0.17603 0.0
H1073 H 0.65041 0.89288 0.39477 0.0
H1074 H 0.69386 0.92403 0.56324 0.0
H1075 H 0.67807 0.91916 0.50973 0.0
H1076 H 0.67655 0.92433 0.29813 0.0
C1077 C 0.64408 0.89869 0.20578 0.0
C1078 C 0.65588 0.89989 0.37408 0.0
C1079 C 0.63545 0.89261 0.17003 0.0
C1080 C 0.69311 0.92275 0.50814 0.0
C1081 C 0.68406 0.91993 0.47775 0.0
C1082 C 0.6708 0.91754 0.31989 0.0
C1083 C 0.64441 0.89831 0.27815 0.0
C1084 C 0.65395 0.90391 0.3153 0.0
C1085 C 0.68262 0.91774 0.40724 0.0
C1086 C 0.67268 0.91336 0.37751 0.0
H1087 H 0.62065 0.88054 0.30637 0.0
H1088 H 0.63556 0.89158 0.36949 0.0
H1089 H 0.66028 0.9164 0.24556 0.0
H1090 H 0.70535 0.92177 0.36596 0.0
H1091 H 0.68951 0.91711 0.31235 0.0
C1092 C 0.11074 0.74117 0.2708 0.0
C1093 C 0.11084 0.74104 0.19853 0.0
C1094 C 0.10463 0.7438 0.30584 0.0
C1095 C 0.08459 0.74996 0.27898 0.0
H1096 H 0.09609 0.7656 0.44305 0.0
C1097 C 0.07686 0.77966 0.39611 0.0
C1098 C 0.07453 0.77852 0.46673 0.0
C1099 C 0.07949 0.77341 0.36313 0.0
C1100 C 0.09276 0.76117 0.39759 0.0
H1101 H 0.10447 0.74328 0.10614 0.0
H1102 H 0.09426 0.74833 0.16644 0.0
H1103 H 0.10414 0.75768 0.38772 0.0
H1104 H 0.07275 0.76966 0.55731 0.0
H1105 H 0.07762 0.75898 0.49994 0.0
H1106 H 0.07357 0.75415 0.28732 0.0
C1107 C 0.09855 0.74608 0.19685 0.0
C1108 C 0.09731 0.75653 0.36604 0.0
C1109 C 0.10446 0.74321 0.16199 0.0
C1110 C 0.07447 0.77074 0.50284 0.0
C1111 C 0.07729 0.76463 0.47024 0.0
C1112 C 0.08018 0.75482 0.30977 0.0
C1113 C 0.0987 0.74663 0.26931 0.0
C1114 C 0.09334 0.75089 0.30592 0.0
C1115 C 0.07999 0.76604 0.40056 0.0
C1116 C 0.08427 0.76048 0.36912 0.0
H1117 H 0.11554 0.73946 0.30018 0.0
H1118 H 0.10475 0.74383 0.36162 0.0
H1119 H 0.08117 0.74554 0.23372 0.0
H1120 H 0.07695 0.78557 0.36694 0.0
H1121 H 0.0816 0.77463 0.30932 0.0
C1122 C 0.2191 0.295 0.39507 0.0
C1123 C 0.21934 0.2949 0.46734 0.0
C1124 C 0.22518 0.30362 0.35869 0.0
C1125 C 0.24576 0.32967 0.38116 0.0
H1126 H 0.23368 0.33394 0.22076 0.0
C1127 C 0.25379 0.36731 0.26742 0.0
C1128 C 0.25547 0.36843 0.19595 0.0
C1129 C 0.25122 0.35838 0.29951 0.0
C1130 C 0.23718 0.3328 0.2651 0.0
H1131 H 0.22632 0.30364 0.55821 0.0
H1132 H 0.23648 0.3187 0.49572 0.0
H1133 H 0.22565 0.31804 0.2771 0.0
H1134 H 0.25618 0.36117 0.10268 0.0
H1135 H 0.25143 0.34555 0.15862 0.0
H1136 H 0.25694 0.34479 0.3709 0.0
C1137 C 0.23193 0.31213 0.46626 0.0
C1138 C 0.23263 0.32365 0.29726 0.0
C1139 C 0.22604 0.30346 0.5024 0.0
C1140 C 0.25496 0.36058 0.15786 0.0
C1141 C 0.25221 0.35162 0.18966 0.0
C1142 C 0.25018 0.33891 0.34981 0.0
C1143 C 0.23143 0.31241 0.39389 0.0
C1144 C 0.23679 0.32195 0.3562 0.0
C1145 C 0.25013 0.35039 0.26041 0.0
C1146 C 0.24589 0.34055 0.29178 0.0
H1147 H 0.21406 0.28848 0.36674 0.0
H1148 H 0.22477 0.30343 0.30298 0.0
H1149 H 0.24933 0.32865 0.42538 0.0
H1150 H 0.25414 0.37322 0.29811 0.0
H1151 H 0.2496 0.35756 0.35417 0.0
C1152 C 0.96082 0.40852 0.93854 0.0
C1153 C 0.96069 0.40827 0.86626 0.0
C1154 C 0.96941 0.41088 0.97454 0.0
C1155 C 0.9953 0.41594 0.9507 0.0
H1156 H -0.00013 0.43209 0.11261 0.0
C1157 C 0.03305 0.44519 0.0647 0.0
C1158 C 0.03421 0.44444 0.13591 0.0
C1159 C 0.02411 0.4389 0.03257 0.0
C1160 C -0.00136 0.42751 0.06785 0.0
H1161 H 0.96935 0.41006 0.7749 0.0
H1162 H 0.9844 0.41467 0.83681 0.0
H1163 H 0.98396 0.42453 0.05666 0.0
H1164 H 0.02703 0.43623 0.22858 0.0
H1165 H 0.01138 0.4255 0.17259 0.0
H1166 H 0.01036 0.41963 0.96016 0.0
C1167 C 0.97785 0.41269 0.86653 0.0
C1168 C 0.98948 0.42308 0.03591 0.0
C1169 C 0.9692 0.41009 0.83074 0.0
C1170 C 0.0264 0.437 0.17361 0.0
C1171 C 0.01743 0.43087 0.14179 0.0
C1172 C 0.00455 0.42059 0.98185 0.0
C1173 C 0.97816 0.41334 0.93896 0.0
C1174 C 0.98768 0.4173 0.97641 0.0
C1175 C 0.01615 0.43191 0.07141 0.0
C1176 C 0.00629 0.42644 0.04039 0.0
H1177 H 0.95432 0.40706 0.96718 0.0
H1178 H 0.96923 0.41099 0.03029 0.0
H1179 H 0.99419 0.41139 0.90602 0.0
H1180 H 0.03894 0.45083 0.03433 0.0
H1181 H 0.02325 0.43985 0.9782 0.0
C1182 C 0.56129 0.59326 0.15396 0.0
C1183 C 0.55197 0.58995 0.12499 0.0
C1184 C 0.5681 0.5914 0.12117 0.0
C1185 C 0.57323 0.58239 0.95728 0.0
H1186 H 0.58482 0.57145 0.07915 0.0
C1187 C 0.59298 0.56305 0.84735 0.0
C1188 C 0.58993 0.55378 0.87649 0.0
C1189 C 0.59091 0.56971 0.88026 0.0
C1190 C 0.58167 0.57451 0.04439 0.0
H1191 H 0.54276 0.58267 0.03638 0.0
H1192 H 0.55452 0.57929 0.98004 0.0
H1193 H 0.57614 0.57921 0.12777 0.0
H1194 H 0.58297 0.54456 0.96565 0.0
H1195 H 0.57924 0.55605 0.02221 0.0
H1196 H 0.57819 0.57712 0.87392 0.0
C1197 C 0.55664 0.5834 0.02777 0.0
C1198 C 0.57679 0.57908 0.07227 0.0
C1199 C 0.54985 0.58529 0.06041 0.0
C1200 C 0.58537 0.5516 0.94146 0.0
C1201 C 0.58329 0.55824 0.97422 0.0
C1202 C 0.57807 0.57778 0.92941 0.0
C1203 C 0.56574 0.58619 0.0587 0.0
C1204 C 0.57226 0.58281 0.02904 0.0
C1205 C 0.58576 0.56725 0.94304 0.0
C1206 C 0.58209 0.57353 0.97265 0.0
H1207 H 0.56321 0.59697 0.20333 0.0
H1208 H 0.57511 0.5938 0.14576 0.0
H1209 H 0.56995 0.58532 0.92253 0.0
H1210 H 0.5966 0.56502 0.79768 0.0
H1211 H 0.59308 0.57666 0.85548 0.0
C1212 C 0.43457 0.02715 0.82314 0.0
C1213 C 0.44195 0.03487 0.86185 0.0
C1214 C 0.42825 0.01817 0.85427 0.0
C1215 C 0.41756 0.0052 0.01393 0.0
H1216 H 0.42137 0.98452 0.93912 0.0
C1217 C 0.40719 0.96995 0.16591 0.0
C1218 C 0.40538 0.96142 0.13069 0.0
C1219 C 0.4097 0.97856 0.12977 0.0
C1220 C 0.41994 0.99006 0.95985 0.0
H1221 H 0.44799 0.03946 0.96441 0.0
H1222 H 0.43668 0.02377 0.01924 0.0
H1223 H 0.429 0.00043 0.88317 0.0
H1224 H 0.40407 0.95497 0.02998 0.0
H1225 H 0.40785 0.9698 0.96631 0.0
H1226 H 0.40834 0.99486 0.08987 0.0
C1227 C 0.43593 0.0247 0.96466 0.0
C1228 C 0.42441 -0.00077 0.92789 0.0
C1229 C 0.44241 0.03364 0.93327 0.0
C1230 C 0.40552 0.96148 0.05839 0.0
C1231 C 0.4078 0.97003 0.02205 0.0
C1232 C 0.41288 0.99595 0.04511 0.0
C1233 C 0.42902 0.01681 0.92491 0.0
C1234 C 0.42342 0.00691 0.95541 0.0
C1235 C 0.41026 0.9788 0.0573 0.0
C1236 C 0.41419 0.9883 0.01948 0.0
H1237 H 0.43403 0.02783 0.76798 0.0
H1238 H 0.42295 0.01218 0.82274 0.0
H1239 H 0.41665 0.01103 0.0357 0.0
H1240 H 0.40723 0.97016 0.22173 0.0
H1241 H 0.41169 0.98513 0.15923 0.0
C1242 C 0.55075 0.96383 0.05495 0.0
C1243 C 0.55282 0.96128 0.11969 0.0
C1244 C 0.55744 0.97266 0.02346 0.0
C1245 C 0.57694 0.9973 0.0717 0.0
H1246 H 0.57898 0.00115 0.87379 0.0
C1247 C 0.58567 0.03363 0.94315 0.0
C1248 C 0.59047 0.03615 0.87905 0.0
C1249 C 0.5835 0.02484 0.97547 0.0
C1250 C 0.57867 0.00023 0.92921 0.0
H1251 H 0.5639 0.96565 0.19941 0.0
H1252 H 0.57562 0.98097 0.14383 0.0
H1253 H 0.57087 0.98459 0.92041 0.0
H1254 H 0.59751 0.03181 0.8016 0.0
H1255 H 0.59387 0.01657 0.85867 0.0
H1256 H 0.58467 0.01294 0.08049 0.0
C1257 C 0.56872 0.97625 0.11825 0.0
C1258 C 0.5739 0.99072 0.95592 0.0
C1259 C 0.56202 0.96743 0.14987 0.0
C1260 C 0.59369 0.03004 0.85056 0.0
C1261 C 0.59156 0.02126 0.88303 0.0
C1262 C 0.58174 0.00682 0.04499 0.0
C1263 C 0.56638 0.97912 0.05575 0.0
C1264 C 0.57273 0.98913 0.02744 0.0
C1265 C 0.58614 0.0184 0.94469 0.0
C1266 C 0.58243 0.0084 0.9734 0.0
H1267 H 0.54375 0.95926 0.03003 0.0
H1268 H 0.55534 0.97465 0.97562 0.0
H1269 H 0.57612 0.99638 0.12706 0.0
H1270 H 0.58311 0.03817 0.96677 0.0
H1271 H 0.57926 0.02286 0.02263 0.0
C1272 C 0.03422 0.58651 0.05508 0.0
C1273 C 0.03551 0.58902 0.12539 0.0
C1274 C 0.02534 0.58396 0.02231 0.0
C1275 C -0.00011 0.57115 0.05898 0.0
H1276 H 0.99576 0.58239 0.89351 0.0
C1277 C 0.96169 0.55338 0.93617 0.0
C1278 C 0.96131 0.55301 0.86396 0.0
C1279 C 0.97053 0.55949 0.97002 0.0
C1280 C 0.99678 0.57906 0.93926 0.0
H1281 H 0.02864 0.59126 0.21545 0.0
H1282 H 0.01312 0.58653 0.1585 0.0
H1283 H 0.01207 0.58992 0.94546 0.0
H1284 H 0.9698 0.55889 0.77037 0.0
H1285 H 0.98521 0.56908 0.82868 0.0
H1286 H 0.98494 0.55993 0.05134 0.0
C1287 C 0.01902 0.58665 0.12888 0.0
C1288 C 0.00611 0.58344 0.96906 0.0
C1289 C 0.02792 0.58937 0.16124 0.0
C1290 C 0.96983 0.55911 0.8262 0.0
C1291 C 0.97871 0.56502 0.85989 0.0
C1292 C 0.99064 0.56664 0.02844 0.0
C1293 C 0.01759 0.58372 0.05967 0.0
C1294 C 0.00772 0.57948 0.02897 0.0
C1295 C 0.97924 0.56514 0.93233 0.0
C1296 C 0.98894 0.57048 0.96781 0.0
H1297 H 0.03993 0.5862 0.02608 0.0
H1298 H 0.02434 0.58168 0.96884 0.0
H1299 H 0.00102 0.56792 0.10493 0.0
H1300 H 0.9552 0.54879 0.96643 0.0
H1301 H 0.97055 0.55957 0.0258 0.0
C1302 C 0.44491 0.40984 0.93545 0.0
C1303 C 0.44413 0.40783 0.86437 0.0
C1304 C 0.43847 0.41229 0.96762 0.0
C1305 C 0.42649 0.42575 0.93119 0.0
H1306 H 0.41078 0.4143 0.09504 0.0
C1307 C 0.4072 0.44436 0.05926 0.0
C1308 C 0.40711 0.44444 0.13153 0.0
C1309 C 0.40961 0.43812 0.02384 0.0
C1310 C 0.41522 0.41768 0.04976 0.0
H1311 H 0.43567 0.40635 0.77214 0.0
H1312 H 0.42467 0.4109 0.82819 0.0
H1313 H 0.41921 0.40651 0.04145 0.0
H1314 H 0.4092 0.43789 0.22357 0.0
H1315 H 0.4139 0.42746 0.16262 0.0
H1316 H 0.42323 0.43728 0.94119 0.0
C1317 C 0.43019 0.41047 0.85885 0.0
C1318 C 0.41997 0.41315 0.01894 0.0
C1319 C 0.43648 0.40784 0.82698 0.0
C1320 C 0.40911 0.43792 0.16772 0.0
C1321 C 0.41177 0.43187 0.13249 0.0
C1322 C 0.42196 0.43041 0.96278 0.0
C1323 C 0.43127 0.41292 0.92898 0.0
C1324 C 0.42568 0.4172 0.95968 0.0
C1325 C 0.41227 0.43203 0.06 0.0
C1326 C 0.41632 0.42651 0.02298 0.0
H1327 H 0.45071 0.40986 0.96561 0.0
H1328 H 0.43946 0.41421 0.0218 0.0
H1329 H 0.43096 0.42906 0.88587 0.0
H1330 H 0.4056 0.44927 0.03016 0.0
H1331 H 0.40961 0.43826 0.96807 0.0
C1332 C 0.13149 0.40826 0.84284 0.0
C1333 C 0.13858 0.40746 0.88154 0.0
C1334 C 0.13285 0.41028 0.77242 0.0
C1335 C 0.1512 0.41731 0.62915 0.0
H1336 H 0.12763 0.40352 0.51859 0.0
C1337 C 0.14931 0.40564 0.34384 0.0
C1338 C 0.14347 0.40761 0.29931 0.0
C1339 C 0.1497 0.40771 0.41412 0.0
C1340 C 0.13425 0.40753 0.54887 0.0
H1341 H 0.15273 0.40834 0.87798 0.0
H1342 H 0.1549 0.41131 0.75415 0.0
H1343 H 0.12634 0.403 0.64333 0.0
H1344 H 0.13368 0.41353 0.2928 0.0
H1345 H 0.13413 0.41686 0.41656 0.0
H1346 H 0.15908 0.4212 0.5333 0.0
C1347 C 0.14844 0.41075 0.77814 0.0
C1348 C 0.13354 0.4073 0.62057 0.0
C1349 C 0.14719 0.40898 0.84911 0.0
C1350 C 0.13827 0.41198 0.32597 0.0
C1351 C 0.1385 0.41385 0.39657 0.0
C1352 C 0.15191 0.41736 0.55725 0.0
C1353 C 0.1412 0.41125 0.73853 0.0
C1354 C 0.142 0.41212 0.66191 0.0
C1355 C 0.14412 0.41161 0.44126 0.0
C1356 C 0.14344 0.41241 0.51667 0.0
H1357 H 0.12485 0.40725 0.86702 0.0
H1358 H 0.12725 0.41092 0.74446 0.0
H1359 H 0.15787 0.42128 0.65889 0.0
H1360 H 0.15342 0.40231 0.32458 0.0
H1361 H 0.15402 0.40585 0.44775 0.0
C1362 C 0.58708 0.73767 0.86008 0.0
C1363 C 0.58997 0.73122 0.88701 0.0
C1364 C 0.58545 0.73782 0.78943 0.0
C1365 C 0.57958 0.724 0.62951 0.0
H1366 H 0.59709 0.74887 0.54212 0.0
C1367 C 0.58688 0.72748 0.3363 0.0
C1368 C 0.58988 0.73653 0.3043 0.0
C1369 C 0.58528 0.72646 0.40747 0.0
C1370 C 0.59194 0.74192 0.56531 0.0
H1371 H 0.59296 0.71955 0.86192 0.0
H1372 H 0.58985 0.71965 0.7384 0.0
H1373 H 0.59681 0.74759 0.66686 0.0
H1374 H 0.59289 0.75139 0.31988 0.0
H1375 H 0.58951 0.74948 0.44297 0.0
H1376 H 0.57454 0.71832 0.52838 0.0
C1377 C 0.58895 0.72463 0.77204 0.0
C1378 C 0.59185 0.74119 0.63696 0.0
C1379 C 0.59078 0.72462 0.84248 0.0
C1380 C 0.59071 0.74437 0.34368 0.0
C1381 C 0.58885 0.74328 0.41439 0.0
C1382 C 0.5795 0.72477 0.5577 0.0
C1383 C 0.58647 0.73137 0.74484 0.0
C1384 C 0.58579 0.73221 0.66954 0.0
C1385 C 0.58644 0.73441 0.44778 0.0
C1386 C 0.58581 0.7337 0.52447 0.0
H1387 H 0.58645 0.74287 0.89319 0.0
H1388 H 0.58356 0.74308 0.76937 0.0
H1389 H 0.57481 0.71701 0.65382 0.0
H1390 H 0.58626 0.72134 0.30691 0.0
H1391 H 0.58357 0.71955 0.43101 0.0
C1392 C 0.2702 0.85809 0.31647 0.0
C1393 C 0.26074 0.85215 0.28969 0.0
C1394 C 0.27187 0.85833 0.3874 0.0
C1395 C 0.26296 0.8454 0.55005 0.0
H1396 H 0.27141 0.8709 0.63094 0.0
C1397 C 0.25882 0.85011 0.84084 0.0
C1398 C 0.26531 0.85904 0.87263 0.0
C1399 C 0.25931 0.84893 0.76981 0.0
C1400 C 0.26929 0.86376 0.60965 0.0
H1401 H 0.24574 0.84137 0.3152 0.0
H1402 H 0.24875 0.84155 0.43908 0.0
H1403 H 0.27078 0.86913 0.50634 0.0
H1404 H 0.27771 0.87359 0.85617 0.0
H1405 H 0.27895 0.87139 0.73319 0.0
H1406 H 0.26162 0.83999 0.65284 0.0
C1407 C 0.25482 0.8461 0.40522 0.0
C1408 C 0.26888 0.86276 0.53806 0.0
C1409 C 0.2531 0.84603 0.33455 0.0
C1410 C 0.27253 0.86666 0.8327 0.0
C1411 C 0.27318 0.8654 0.76201 0.0
C1412 C 0.26357 0.84642 0.62178 0.0
C1413 C 0.26415 0.85244 0.43236 0.0
C1414 C 0.26556 0.85355 0.50775 0.0
C1415 C 0.26645 0.8566 0.72917 0.0
C1416 C 0.26657 0.85559 0.65271 0.0
H1417 H 0.27621 0.86293 0.28308 0.0
H1418 H 0.27913 0.86327 0.4074 0.0
H1419 H 0.2604 0.83822 0.52756 0.0
H1420 H 0.25313 0.84415 0.87048 0.0
H1421 H 0.25387 0.8421 0.74669 0.0
C1422 C 0.40482 0.15029 0.65812 0.0
C1423 C 0.40654 0.14429 0.70282 0.0
C1424 C 0.40676 0.1505 0.58773 0.0
C1425 C 0.40549 0.13447 0.45392 0.0
H1426 H 0.4199 0.15775 0.34153 0.0
C1427 C 0.40553 0.13119 0.15956 0.0
C1428 C 0.40519 0.13851 0.1205 0.0
C1429 C 0.40757 0.13251 0.23 0.0
C1430 C 0.41575 0.15118 0.37193 0.0
H1431 H 0.41189 0.13403 0.70957 0.0
H1432 H 0.41498 0.13417 0.58559 0.0
H1433 H 0.4202 0.15922 0.46703 0.0
H1434 H 0.40686 0.15301 0.12369 0.0
H1435 H 0.40987 0.15513 0.24741 0.0
H1436 H 0.40042 0.12644 0.36024 0.0
C1437 C 0.41229 0.13881 0.60553 0.0
C1438 C 0.41601 0.15203 0.44378 0.0
C1439 C 0.41055 0.13876 0.67625 0.0
C1440 C 0.40714 0.14728 0.15275 0.0
C1441 C 0.40893 0.1485 0.22369 0.0
C1442 C 0.40504 0.13362 0.38226 0.0
C1443 C 0.41026 0.14457 0.56065 0.0
C1444 C 0.41083 0.14369 0.48522 0.0
C1445 C 0.40904 0.14107 0.26355 0.0
C1446 C 0.4101 0.14197 0.34007 0.0
H1447 H 0.40176 0.15464 0.67733 0.0
H1448 H 0.40508 0.15494 0.55397 0.0
H1449 H 0.40131 0.12795 0.4849 0.0
H1450 H 0.40419 0.12442 0.13562 0.0
H1451 H 0.40788 0.12674 0.25815 0.0
C1452 C 0.84943 0.25365 0.6513 0.0
C1453 C 0.85226 0.26137 0.69861 0.0
C1454 C 0.84866 0.25511 0.58121 0.0
C1455 C 0.85832 0.27452 0.45057 0.0
H1456 H 0.83945 0.25351 0.33436 0.0
C1457 C 0.86567 0.27124 0.16544 0.0
C1458 C 0.85788 0.26732 0.11799 0.0
C1459 C 0.86394 0.27165 0.23552 0.0
C1460 C 0.84467 0.25954 0.36592 0.0
H1461 H 0.85622 0.27662 0.7093 0.0
H1462 H 0.8548 0.27915 0.58637 0.0
H1463 H 0.83774 0.252 0.45918 0.0
H1464 H 0.84215 0.26098 0.10709 0.0
H1465 H 0.83913 0.26178 0.22991 0.0
H1466 H 0.86527 0.28204 0.35731 0.0
C1467 C 0.85327 0.27198 0.60378 0.0
C1468 C 0.84376 0.25862 0.43758 0.0
C1469 C 0.85404 0.27053 0.67424 0.0
C1470 C 0.84832 0.26403 0.14225 0.0
C1471 C 0.84658 0.26445 0.21266 0.0
C1472 C 0.8592 0.27546 0.3789 0.0
C1473 C 0.85069 0.26431 0.55635 0.0
C1474 C 0.85075 0.26596 0.48078 0.0
C1475 C 0.85437 0.26817 0.26022 0.0
C1476 C 0.85257 0.26785 0.33573 0.0
H1477 H 0.84802 0.2465 0.66806 0.0
H1478 H 0.84683 0.24908 0.5462 0.0
H1479 H 0.86385 0.28031 0.48217 0.0
H1480 H 0.87313 0.27382 0.14877 0.0
H1481 H 0.87009 0.2744 0.27065 0.0
C1482 C 0.73699 0.58836 0.15433 0.0
C1483 C 0.73017 0.59031 0.12218 0.0
C1484 C 0.73647 0.58662 0.22532 0.0
C1485 C 0.72564 0.59071 0.38383 0.0
H1486 H 0.73613 0.57564 0.46928 0.0
C1487 C 0.72535 0.58537 0.67795 0.0
C1488 C 0.73489 0.58939 0.70457 0.0
C1489 C 0.72367 0.58363 0.60724 0.0
C1490 C 0.73312 0.57981 0.44584 0.0
H1491 H 0.7171 0.59135 0.13745 0.0
H1492 H 0.7158 0.58773 0.26011 0.0
H1493 H 0.73486 0.57578 0.34378 0.0
H1494 H 0.75004 0.59422 0.67913 0.0
H1495 H 0.74703 0.59089 0.55575 0.0
H1496 H 0.72378 0.59458 0.48628 0.0
C1497 C 0.72186 0.588 0.23183 0.0
C1498 C 0.73247 0.57998 0.37399 0.0
C1499 C 0.72254 0.59 0.16134 0.0
C1500 C 0.74262 0.59114 0.65989 0.0
C1501 C 0.7409 0.5892 0.5895 0.0
C1502 C 0.72609 0.59035 0.45549 0.0
C1503 C 0.72897 0.58656 0.26532 0.0
C1504 C 0.72888 0.5856 0.34188 0.0
C1505 C 0.73146 0.58566 0.56242 0.0
C1506 C 0.72999 0.58504 0.48702 0.0
H1507 H 0.74299 0.58862 0.12517 0.0
H1508 H 0.74218 0.5857 0.24897 0.0
H1509 H 0.72306 0.59531 0.36159 0.0
H1510 H 0.71927 0.584 0.71123 0.0
H1511 H 0.71633 0.5809 0.5873 0.0
C1512 C 0.84647 0.59124 0.65987 0.0
C1513 C 0.85249 0.58953 0.70449 0.0
C1514 C 0.84623 0.58928 0.5895 0.0
C1515 C 0.8622 0.59047 0.45533 0.0
H1516 H 0.83886 0.57595 0.34373 0.0
C1517 C 0.86536 0.59019 0.16114 0.0
C1518 C 0.85805 0.59054 0.12212 0.0
C1519 C 0.86405 0.58817 0.2316 0.0
C1520 C 0.84545 0.58014 0.37392 0.0
H1521 H 0.86277 0.58421 0.71106 0.0
H1522 H 0.86259 0.58109 0.58713 0.0
H1523 H 0.83746 0.57578 0.46926 0.0
H1524 H 0.84356 0.58888 0.12532 0.0
H1525 H 0.84145 0.58591 0.2491 0.0
H1526 H 0.87019 0.59545 0.36139 0.0
C1527 C 0.85796 0.58378 0.60712 0.0
C1528 C 0.84463 0.57994 0.44578 0.0
C1529 C 0.85803 0.58554 0.67782 0.0
C1530 C 0.84929 0.5886 0.15438 0.0
C1531 C 0.84807 0.58683 0.22534 0.0
C1532 C 0.86301 0.59085 0.38366 0.0
C1533 C 0.85216 0.58578 0.56235 0.0
C1534 C 0.853 0.58516 0.48693 0.0
C1535 C 0.85551 0.58674 0.2652 0.0
C1536 C 0.85464 0.58575 0.34176 0.0
H1537 H 0.8421 0.59428 0.67915 0.0
H1538 H 0.84177 0.59094 0.5558 0.0
H1539 H 0.86874 0.59468 0.48609 0.0
H1540 H 0.87214 0.59153 0.13716 0.0
H1541 H 0.86983 0.58787 0.25976 0.0
C1542 C 0.41223 0.26362 0.13503 0.0
C1543 C 0.40593 0.26686 0.11043 0.0
C1544 C 0.41424 0.26392 0.20557 0.0
C1545 C 0.41225 0.27457 0.37215 0.0
H1546 H 0.41059 0.25117 0.45093 0.0
C1547 C 0.41316 0.26966 0.66682 0.0
C1548 C 0.40588 0.26049 0.69179 0.0
C1549 C 0.4152 0.2711 0.59616 0.0
C1550 C 0.41109 0.25777 0.42975 0.0
H1551 H 0.39697 0.27315 0.14075 0.0
H1552 H 0.40034 0.27352 0.26308 0.0
H1553 H 0.4103 0.25277 0.32623 0.0
H1554 H 0.39528 0.24558 0.66208 0.0
H1555 H 0.39874 0.24813 0.53972 0.0
H1556 H 0.41248 0.27933 0.47574 0.0
C1557 C 0.40387 0.27091 0.22804 0.0
C1558 C 0.41104 0.25874 0.35817 0.0
C1559 C 0.40188 0.27062 0.15773 0.0
C1560 C 0.40094 0.25274 0.64483 0.0
C1561 C 0.40298 0.25418 0.57448 0.0
C1562 C 0.41226 0.27359 0.44374 0.0
C1563 C 0.40999 0.26746 0.25299 0.0
C1564 C 0.41136 0.26704 0.32853 0.0
C1565 C 0.41003 0.26341 0.54907 0.0
C1566 C 0.41143 0.26506 0.47341 0.0
H1567 H 0.41549 0.2607 0.10002 0.0
H1568 H 0.41905 0.2613 0.22302 0.0
H1569 H 0.41267 0.28113 0.35097 0.0
H1570 H 0.41711 0.27578 0.70161 0.0
H1571 H 0.42075 0.27827 0.57832 0.0
C1572 C 0.72789 0.14326 0.6689 0.0
C1573 C 0.73696 0.14486 0.69377 0.0
C1574 C 0.72647 0.14389 0.59827 0.0
C1575 C 0.73983 0.15278 0.43172 0.0
H1576 H 0.71601 0.13158 0.35322 0.0
C1577 C 0.73374 0.1484 0.13715 0.0
C1578 C 0.73022 0.13883 0.11231 0.0
C1579 C 0.73352 0.15011 0.20777 0.0
C1580 C 0.7227 0.13756 0.37432 0.0
H1581 H 0.75173 0.14864 0.66387 0.0
H1582 H 0.74922 0.1496 0.54144 0.0
H1583 H 0.71793 0.13308 0.47795 0.0
H1584 H 0.72349 0.12352 0.14226 0.0
H1585 H 0.72325 0.12651 0.26467 0.0
H1586 H 0.74483 0.15694 0.32811 0.0
C1587 C 0.74323 0.14801 0.57631 0.0
C1588 C 0.72376 0.13849 0.4459 0.0
C1589 C 0.74465 0.14738 0.64668 0.0
C1590 C 0.72625 0.13099 0.15943 0.0
C1591 C 0.72603 0.1327 0.22979 0.0
C1592 C 0.73879 0.15183 0.36015 0.0
C1593 C 0.73409 0.14615 0.55106 0.0
C1594 C 0.73244 0.14597 0.47545 0.0
C1595 C 0.72978 0.14228 0.255 0.0
C1596 C 0.73032 0.14406 0.3306 0.0
H1597 H 0.72182 0.14132 0.70378 0.0
H1598 H 0.71937 0.14251 0.58056 0.0
H1599 H 0.74655 0.15872 0.45282 0.0
H1600 H 0.73684 0.1546 0.10227 0.0
H1601 H 0.73637 0.15757 0.22545 0.0
C1602 C 0.58811 0.84973 0.84521 0.0
C1603 C 0.58998 0.85846 0.87744 0.0
C1604 C 0.58635 0.8485 0.77425 0.0
C1605 C 0.5902 0.86337 0.61574 0.0
H1606 H 0.57526 0.83777 0.53065 0.0
C1607 C 0.58479 0.85824 0.32166 0.0
C1608 C 0.58888 0.85279 0.29509 0.0
C1609 C 0.58305 0.85818 0.39238 0.0
C1610 C 0.57939 0.84496 0.55398 0.0
H1611 H 0.59086 0.8725 0.8623 0.0
H1612 H 0.58721 0.87017 0.73971 0.0
H1613 H 0.57547 0.83921 0.65614 0.0
H1614 H 0.59381 0.84254 0.3206 0.0
H1615 H 0.59048 0.84221 0.44397 0.0
H1616 H 0.59396 0.86908 0.51318 0.0
C1617 C 0.58756 0.86443 0.7679 0.0
C1618 C 0.5796 0.8458 0.62583 0.0
C1619 C 0.58958 0.86575 0.83836 0.0
C1620 C 0.59069 0.84684 0.33981 0.0
C1621 C 0.58874 0.84661 0.4102 0.0
C1622 C 0.5898 0.86254 0.54408 0.0
C1623 C 0.58618 0.8559 0.73435 0.0
C1624 C 0.58517 0.85501 0.65781 0.0
C1625 C 0.58515 0.85247 0.43725 0.0
C1626 C 0.58454 0.85332 0.51266 0.0
H1627 H 0.58844 0.84403 0.87429 0.0
H1628 H 0.58548 0.84189 0.75053 0.0
H1629 H 0.59476 0.87057 0.63786 0.0
H1630 H 0.58338 0.86293 0.28834 0.0
H1631 H 0.58028 0.86275 0.4123 0.0
C1632 C 0.13788 0.7273 0.32791 0.0
C1633 C 0.1439 0.73636 0.29606 0.0
C1634 C 0.13845 0.72625 0.39905 0.0
C1635 C 0.14726 0.7416 0.55745 0.0
H1636 H 0.13967 0.71664 0.64463 0.0
C1637 C 0.14809 0.73715 0.85182 0.0
C1638 C 0.13875 0.73071 0.8788 0.0
C1639 C 0.14984 0.73732 0.78111 0.0
C1640 C 0.14185 0.72365 0.62069 0.0
H1641 H 0.15569 0.75124 0.31195 0.0
H1642 H 0.15716 0.7493 0.435 0.0
H1643 H 0.14117 0.71807 0.51918 0.0
H1644 H 0.12408 0.71906 0.85378 0.0
H1645 H 0.12726 0.7192 0.73016 0.0
H1646 H 0.14811 0.74717 0.65939 0.0
C1647 C 0.15164 0.7431 0.40631 0.0
C1648 C 0.14264 0.72448 0.54888 0.0
C1649 C 0.15087 0.74421 0.33562 0.0
C1650 C 0.13134 0.72412 0.83429 0.0
C1651 C 0.13316 0.72416 0.7638 0.0
C1652 C 0.14669 0.74082 0.6291 0.0
C1653 C 0.14523 0.7342 0.43949 0.0
C1654 C 0.14519 0.73343 0.51614 0.0
C1655 C 0.14235 0.7309 0.73653 0.0
C1656 C 0.14383 0.73182 0.66119 0.0
H1657 H 0.13239 0.72116 0.2984 0.0
H1658 H 0.13329 0.71932 0.42244 0.0
H1659 H 0.149 0.74856 0.53466 0.0
H1660 H 0.15392 0.74234 0.88491 0.0
H1661 H 0.15699 0.74259 0.76099 0.0
C1662 C 0.2527 0.40409 0.34187 0.0
C1663 C 0.26059 0.40639 0.29732 0.0
C1664 C 0.25431 0.40609 0.4123 0.0
C1665 C 0.26979 0.4064 0.54715 0.0
H1666 H 0.25998 0.42028 0.65638 0.0
C1667 C 0.27413 0.40809 0.84056 0.0
C1668 C 0.26631 0.40732 0.87996 0.0
C1669 C 0.27458 0.40991 0.76989 0.0
C1670 C 0.26267 0.41627 0.62687 0.0
H1671 H 0.27637 0.41274 0.29106 0.0
H1672 H 0.27912 0.41593 0.41489 0.0
H1673 H 0.25835 0.41981 0.53092 0.0
H1674 H 0.25294 0.40802 0.87739 0.0
H1675 H 0.25337 0.41062 0.75334 0.0
H1676 H 0.27351 0.40223 0.64179 0.0
C1677 C 0.27174 0.41274 0.39485 0.0
C1678 C 0.2618 0.41609 0.55505 0.0
C1679 C 0.27015 0.41093 0.32419 0.0
C1680 C 0.25909 0.40866 0.848 0.0
C1681 C 0.25939 0.41021 0.77685 0.0
C1682 C 0.27046 0.40639 0.6188 0.0
C1683 C 0.26381 0.41023 0.43947 0.0
C1684 C 0.26532 0.41111 0.51479 0.0
C1685 C 0.26705 0.41067 0.73654 0.0
C1686 C 0.26686 0.41128 0.65987 0.0
H1687 H 0.24526 0.40062 0.32247 0.0
H1688 H 0.24809 0.40403 0.44596 0.0
H1689 H 0.27242 0.40238 0.51705 0.0
H1690 H 0.27986 0.4072 0.86435 0.0
H1691 H 0.28077 0.41053 0.74131 0.0
C1692 C 0.81343 0.74152 0.18271 0.0
C1693 C 0.80496 0.74039 0.21492 0.0
C1694 C 0.8147 0.74312 0.11161 0.0
C1695 C 0.79987 0.73981 0.95404 0.0
H1696 H 0.82536 0.75264 0.86566 0.0
C1697 C 0.8046 0.74407 0.65921 0.0
C1698 C 0.80946 0.73935 0.63247 0.0
C1699 C 0.8049 0.74595 0.72981 0.0
C1700 C 0.81821 0.74909 0.88993 0.0
H1701 H 0.79152 0.74073 0.1999 0.0
H1702 H 0.79398 0.74416 0.07701 0.0
H1703 H 0.82429 0.75312 0.99117 0.0
H1704 H 0.81885 0.73338 0.65776 0.0
H1705 H 0.81956 0.73692 0.78107 0.0
H1706 H 0.79384 0.73594 0.85242 0.0
C1707 C 0.79945 0.74332 0.1053 0.0
C1708 C 0.81757 0.74928 0.96177 0.0
C1709 C 0.79806 0.74145 0.17589 0.0
C1710 C 0.81499 0.73698 0.67706 0.0
C1711 C 0.81546 0.73905 0.74739 0.0
C1712 C 0.80051 0.73981 0.88236 0.0
C1713 C 0.80762 0.74386 0.07164 0.0
C1714 C 0.80839 0.74449 0.99495 0.0
C1715 C 0.81024 0.74335 0.77448 0.0
C1716 C 0.80968 0.7443 0.84981 0.0
H1717 H 0.81882 0.74065 0.21183 0.0
H1718 H 0.82103 0.74335 0.08783 0.0
H1719 H 0.79266 0.73581 0.97717 0.0
H1720 H 0.80025 0.74594 0.62603 0.0
H1721 H 0.80081 0.74927 0.74976 0.0
C1722 C 0.25297 0.07046 0.19245 0.0
C1723 C 0.25528 0.06357 0.2192 0.0
C1724 C 0.25146 0.07077 0.12171 0.0
C1725 C 0.24529 0.05714 0.96031 0.0
H1726 H 0.26442 0.08166 0.8763 0.0
C1727 C 0.25382 0.06044 0.66886 0.0
C1728 C 0.25743 0.06958 0.63679 0.0
C1729 C 0.25203 0.05947 0.73984 0.0
C1730 C 0.25883 0.07483 0.89847 0.0
H1731 H 0.25725 0.05125 0.19396 0.0
H1732 H 0.25431 0.05163 0.0705 0.0
H1733 H 0.26343 0.08021 0.00098 0.0
H1734 H 0.26139 0.08474 0.6522 0.0
H1735 H 0.25773 0.08298 0.77485 0.0
H1736 H 0.24054 0.05175 0.85819 0.0
C1737 C 0.25379 0.05684 0.10418 0.0
C1738 C 0.25832 0.074 0.97012 0.0
C1739 C 0.25552 0.05666 0.17461 0.0
C1740 C 0.25875 0.07763 0.67602 0.0
C1741 C 0.25672 0.07662 0.74651 0.0
C1742 C 0.24564 0.05802 0.88847 0.0
C1743 C 0.252 0.06405 0.07698 0.0
C1744 C 0.25167 0.06512 0.00157 0.0
C1745 C 0.25359 0.06759 0.77991 0.0
C1746 C 0.25255 0.06683 0.85645 0.0
H1747 H 0.2528 0.07591 0.22565 0.0
H1748 H 0.2501 0.0764 0.10167 0.0
H1749 H 0.24007 0.05022 0.98369 0.0
H1750 H 0.2528 0.05413 0.63963 0.0
H1751 H 0.24978 0.05243 0.76343 0.0
C1752 C 0.9368 0.19161 0.65632 0.0
C1753 C 0.92725 0.18636 0.62952 0.0
C1754 C 0.93842 0.19149 0.72702 0.0
C1755 C 0.92877 0.17827 0.88788 0.0
H1756 H 0.93957 0.20387 0.97306 0.0
C1757 C 0.92562 0.18303 0.1802 0.0
C1758 C 0.93265 0.19172 0.21208 0.0
C1759 C 0.92599 0.18178 0.10912 0.0
C1760 C 0.93678 0.19667 0.95052 0.0
H1761 H 0.91199 0.17645 0.65476 0.0
H1762 H 0.91489 0.17603 0.7783 0.0
H1763 H 0.93862 0.20247 0.84834 0.0
H1764 H 0.94591 0.20563 0.19626 0.0
H1765 H 0.94694 0.20326 0.07333 0.0
H1766 H 0.92708 0.17243 0.98965 0.0
C1767 C 0.92108 0.1803 0.74458 0.0
C1768 C 0.93619 0.19589 0.87888 0.0
C1769 C 0.91942 0.18059 0.67413 0.0
C1770 C 0.94033 0.19892 0.17257 0.0
C1771 C 0.94085 0.19757 0.10195 0.0
C1772 C 0.92957 0.17906 0.9597 0.0
C1773 C 0.93055 0.18593 0.77173 0.0
C1774 C 0.93204 0.18669 0.84707 0.0
C1775 C 0.93353 0.18912 0.06875 0.0
C1776 C 0.93343 0.18826 0.99213 0.0
H1777 H 0.94296 0.19616 0.62312 0.0
H1778 H 0.94579 0.19589 0.74705 0.0
H1779 H 0.92557 0.1711 0.86418 0.0
H1780 H 0.91958 0.1774 0.20965 0.0
H1781 H 0.92012 0.17524 0.08569 0.0
C1782 C 0.06663 0.47994 0.98684 0.0
C1783 C 0.07191 0.47759 0.03407 0.0
C1784 C 0.06868 0.48056 0.91645 0.0
C1785 C 0.07905 0.47139 0.78638 0.0
H1786 H 0.07609 0.4896 0.66822 0.0
C1787 C 0.07909 0.48132 0.47756 0.0
C1788 C 0.07317 0.47174 0.45251 0.0
C1789 C 0.08095 0.48302 0.54826 0.0
C1790 C 0.07711 0.48457 0.70039 0.0
H1791 H 0.08371 0.47432 0.04426 0.0
H1792 H 0.08735 0.47552 0.92112 0.0
H1793 H 0.07593 0.4913 0.79293 0.0
H1794 H 0.06482 0.45641 0.48209 0.0
H1795 H 0.06795 0.45937 0.60461 0.0
H1796 H 0.08019 0.46463 0.69384 0.0
C1797 C 0.08154 0.47676 0.93869 0.0
C1798 C 0.0769 0.48546 0.77195 0.0
C1799 C 0.07948 0.47613 0.0093 0.0
C1800 C 0.06942 0.46389 0.49944 0.0
C1801 C 0.07128 0.46558 0.56986 0.0
C1802 C 0.07929 0.47051 0.71483 0.0
C1803 C 0.07608 0.47887 0.89135 0.0
C1804 C 0.07761 0.47873 0.81579 0.0
C1805 C 0.07695 0.47518 0.59532 0.0
C1806 C 0.07806 0.47693 0.67097 0.0
H1807 H 0.06073 0.48108 0.00395 0.0
H1808 H 0.06421 0.48204 0.88148 0.0
H1809 H 0.07957 0.46604 0.81851 0.0
H1810 H 0.08209 0.48754 0.44282 0.0
H1811 H 0.08543 0.49049 0.56614 0.0
C1812 C 0.51456 0.59302 0.47312 0.0
C1813 C 0.52382 0.59967 0.44597 0.0
C1814 C 0.51285 0.59269 0.54398 0.0
C1815 C 0.52045 0.60606 0.70499 0.0
H1816 H 0.51445 0.58135 0.78912 0.0
C1817 C 0.5243 0.60235 0.99768 0.0
C1818 C 0.51854 0.59319 0.02907 0.0
C1819 C 0.52382 0.6034 0.92649 0.0
C1820 C 0.51587 0.58824 0.76686 0.0
H1821 H 0.5384 0.6115 0.47091 0.0
H1822 H 0.53529 0.6111 0.5949 0.0
H1823 H 0.51536 0.58294 0.66443 0.0
H1824 H 0.50734 0.57808 0.01201 0.0
H1825 H 0.50602 0.58 0.88869 0.0
H1826 H 0.52074 0.61136 0.80688 0.0
C1827 C 0.52942 0.6061 0.56122 0.0
C1828 C 0.51646 0.58914 0.69526 0.0
C1829 C 0.5312 0.60629 0.49053 0.0
C1830 C 0.51195 0.5852 0.98878 0.0
C1831 C 0.51127 0.5863 0.91794 0.0
C1832 C 0.51963 0.60511 0.77672 0.0
C1833 C 0.52031 0.59915 0.58857 0.0
C1834 C 0.51889 0.59809 0.66388 0.0
C1835 C 0.5174 0.59535 0.88539 0.0
C1836 C 0.51749 0.59622 0.80878 0.0
H1837 H 0.50876 0.58779 0.44001 0.0
H1838 H 0.50578 0.58727 0.56419 0.0
H1839 H 0.52229 0.61302 0.68157 0.0
H1840 H 0.52951 0.6086 0.02768 0.0
H1841 H 0.52878 0.61044 0.90362 0.0
C1842 C 0.38765 0.92345 0.49474 0.0
C1843 C 0.39529 0.92389 0.45491 0.0
C1844 C 0.3872 0.92164 0.56545 0.0
C1845 C 0.39863 0.91447 0.70717 0.0
H1846 H 0.38958 0.92877 0.81923 0.0
C1847 C 0.40883 0.92612 0.99297 0.0
C1848 C 0.40096 0.92389 0.03766 0.0
C1849 C 0.40719 0.92424 0.92243 0.0
C1850 C 0.39202 0.92464 0.78848 0.0
H1851 H 0.40838 0.92266 0.45695 0.0
H1852 H 0.40796 0.92007 0.58092 0.0
H1853 H 0.38855 0.92921 0.69453 0.0
H1854 H 0.38522 0.91777 0.04409 0.0
H1855 H 0.38243 0.91479 0.92006 0.0
H1856 H 0.40271 0.91052 0.80244 0.0
C1857 C 0.40207 0.92072 0.55773 0.0
C1858 C 0.39137 0.92483 0.71685 0.0
C1859 C 0.40236 0.92227 0.48662 0.0
C1860 C 0.39141 0.9195 0.01084 0.0
C1861 C 0.38981 0.91783 0.94008 0.0
C1862 C 0.39948 0.91448 0.77895 0.0
C1863 C 0.39456 0.92053 0.59839 0.0
C1864 C 0.39472 0.91979 0.675 0.0
C1865 C 0.39771 0.92029 0.89532 0.0
C1866 C 0.39621 0.91961 0.82 0.0
H1867 H 0.38204 0.92455 0.47123 0.0
H1868 H 0.38114 0.92126 0.59432 0.0
H1869 H 0.40111 0.91034 0.67705 0.0
H1870 H 0.41626 0.92948 0.01235 0.0
H1871 H 0.4134 0.92626 0.88865 0.0
C1872 C 0.52397 0.91964 -0.00074 0.0
C1873 C 0.51908 0.92431 0.02628 0.0
C1874 C 0.5238 0.91793 0.9285 0.0
C1875 C 0.51084 0.91502 0.76768 0.0
H1876 H 0.53653 0.92888 0.68278 0.0
C1877 C 0.51592 0.92263 0.47512 0.0
C1878 C 0.52447 0.92388 0.44346 0.0
C1879 C 0.51462 0.92112 0.54626 0.0
C1880 C 0.5293 0.92473 0.70525 0.0
H1881 H 0.50976 0.93037 0.00128 0.0
H1882 H 0.50925 0.9271 0.87754 0.0
H1883 H 0.53511 0.92856 0.80749 0.0
H1884 H 0.53809 0.92393 0.45981 0.0
H1885 H 0.5356 0.92069 0.58292 0.0
H1886 H 0.50498 0.91099 0.6659 0.0
C1887 C 0.51328 0.92488 0.91119 0.0
C1888 C 0.52851 0.92462 0.77687 0.0
C1889 C 0.51362 0.92679 0.98176 0.0
C1890 C 0.53148 0.9231 0.48331 0.0
C1891 C 0.53008 0.92134 0.55403 0.0
C1892 C 0.51163 0.91493 0.6959 0.0
C1893 C 0.51855 0.92065 0.8839 0.0
C1894 C 0.51928 0.9199 0.80856 0.0
C1895 C 0.52177 0.92061 0.58695 0.0
C1896 C 0.52087 0.91993 0.66356 0.0
H1897 H 0.52827 0.91769 0.03236 0.0
H1898 H 0.52792 0.91466 0.90835 0.0
H1899 H 0.50365 0.9113 0.79131 0.0
H1900 H 0.51044 0.92328 0.44542 0.0
H1901 H 0.5082 0.92075 0.56944 0.0
C1902 C 0.07995 0.60201 0.00342 0.0
C1903 C 0.07283 0.59294 0.03092 0.0
C1904 C 0.08139 0.60323 0.932 0.0
C1905 C 0.06725 0.59374 0.77533 0.0
H1906 H 0.092 0.60621 0.67675 0.0
C1907 C 0.06913 0.60469 0.49381 0.0
C1908 C 0.07345 0.60097 0.44862 0.0
C1909 C 0.07041 0.60461 0.56477 0.0
C1910 C 0.08505 0.6027 0.70386 0.0
H1911 H 0.06206 0.57791 0.00505 0.0
H1912 H 0.06454 0.58008 0.88137 0.0
H1913 H 0.09183 0.60399 0.80248 0.0
H1914 H 0.08298 0.59472 0.44264 0.0
H1915 H 0.08525 0.59462 0.56761 0.0
H1916 H 0.06043 0.59248 0.67778 0.0
C1917 C 0.06894 0.58625 0.91485 0.0
C1918 C 0.08496 0.60149 0.7755 0.0
C1919 C 0.06754 0.58502 0.98582 0.0
C1920 C 0.07953 0.59762 0.47604 0.0
C1921 C 0.08087 0.5976 0.54744 0.0
C1922 C 0.06735 0.59506 0.70435 0.0
C1923 C 0.07568 0.59542 0.88713 0.0
C1924 C 0.07604 0.59692 0.81166 0.0
C1925 C 0.07609 0.60084 0.59239 0.0
C1926 C 0.07623 0.59955 0.66786 0.0
H1927 H 0.08415 0.60826 0.03677 0.0
H1928 H 0.08661 0.61038 0.91176 0.0
H1929 H 0.06027 0.59028 0.80202 0.0
H1930 H 0.06446 0.6074 0.47465 0.0
H1931 H 0.06675 0.60727 0.59832 0.0
C1932 C 0.39945 0.48123 0.47617 0.0
C1933 C 0.39584 0.47165 0.45122 0.0
C1934 C 0.39926 0.48294 0.54682 0.0
C1935 C 0.4046 0.48455 0.69902 0.0
H1936 H 0.38365 0.46598 0.81709 0.0
C1937 C 0.41045 0.48002 0.98553 0.0
C1938 C 0.4028 0.47762 0.03273 0.0
C1939 C 0.40902 0.48064 0.91514 0.0
C1940 C 0.3895 0.47134 0.78497 0.0
H1941 H 0.38895 0.45633 0.48093 0.0
H1942 H 0.38873 0.45931 0.60342 0.0
H1943 H 0.38166 0.46452 0.69238 0.0
H1944 H 0.38772 0.47426 0.04288 0.0
H1945 H 0.38526 0.47545 0.91968 0.0
H1946 H 0.41245 0.49134 0.79158 0.0
C1947 C 0.39158 0.46551 0.56861 0.0
C1948 C 0.38841 0.47043 0.7134 0.0
C1949 C 0.39178 0.4638 0.49821 0.0
C1950 C 0.39376 0.47611 0.00793 0.0
C1951 C 0.39233 0.47674 0.9373 0.0
C1952 C 0.40568 0.48547 0.77058 0.0
C1953 C 0.39544 0.4751 0.59396 0.0
C1954 C 0.39604 0.47686 0.66958 0.0
C1955 C 0.39992 0.47889 0.88999 0.0
C1956 C 0.39825 0.47872 0.81441 0.0
H1957 H 0.40262 0.48744 0.44138 0.0
H1958 H 0.4022 0.4904 0.56462 0.0
H1959 H 0.41065 0.4896 0.66688 0.0
H1960 H 0.4175 0.4812 0.00265 0.0
H1961 H 0.41498 0.48215 0.8802 0.0
C1962 C 0.25024 0.18221 0.19511 0.0
C1963 C 0.25623 0.19178 0.22014 0.0
C1964 C 0.24837 0.18051 0.12445 0.0
C1965 C 0.25204 0.17885 0.97226 0.0
H1966 H 0.24975 0.19748 0.85425 0.0
C1967 C 0.26224 0.18325 0.68547 0.0
C1968 C 0.257 0.18569 0.63844 0.0
C1969 C 0.26023 0.18265 0.7559 0.0
C1970 C 0.25021 0.19211 0.88637 0.0
H1971 H 0.26473 0.2071 0.19049 0.0
H1972 H 0.26158 0.20414 0.06793 0.0
H1973 H 0.24931 0.199 0.97897 0.0
H1974 H 0.24532 0.18912 0.62864 0.0
H1975 H 0.24175 0.18797 0.75195 0.0
H1976 H 0.25297 0.17199 0.87968 0.0
C1977 C 0.2582 0.19794 0.10272 0.0
C1978 C 0.25009 0.19305 0.95793 0.0
C1979 C 0.26007 0.19963 0.17316 0.0
C1980 C 0.24951 0.18724 0.66345 0.0
C1981 C 0.24749 0.18663 0.73414 0.0
C1982 C 0.25214 0.1779 0.9007 0.0
C1983 C 0.25243 0.18835 0.07734 0.0
C1984 C 0.25125 0.18659 0.00173 0.0
C1985 C 0.25293 0.18445 0.78127 0.0
C1986 C 0.25149 0.18466 0.8569 0.0
H1987 H 0.24716 0.176 0.22989 0.0
H1988 H 0.24381 0.17305 0.10664 0.0
H1989 H 0.25301 0.17377 0.00437 0.0
H1990 H 0.26808 0.18203 0.66817 0.0
H1991 H 0.26467 0.18111 0.7907 0.0
C1992 C 0.81431 0.06677 0.19202 0.0
C1993 C 0.80485 0.06387 0.21657 0.0
C1994 C 0.81597 0.06638 0.1215 0.0
C1995 C 0.80316 0.056 0.95495 0.0
H1996 H 0.82544 0.07892 0.87599 0.0
C1997 C 0.80904 0.06073 0.6602 0.0
C1998 C 0.81127 0.07001 0.63527 0.0
C1999 C 0.80958 0.05923 0.73085 0.0
C2000 C 0.81919 0.07245 0.89722 0.0
H2001 H 0.78967 0.0581 0.18616 0.0
H2002 H 0.79259 0.05757 0.06387 0.0
H2003 H 0.82353 0.0774 0.0007 0.0
H2004 H 0.81613 0.08505 0.66501 0.0
H2005 H 0.81695 0.08241 0.78732 0.0
H2006 H 0.79853 0.05132 0.85138 0.0
C2007 C 0.79872 0.05998 0.09894 0.0
C2008 C 0.81815 0.07153 0.96881 0.0
C2009 C 0.79706 0.06037 0.16923 0.0
C2010 C 0.81436 0.0778 0.68224 0.0
C2011 C 0.81491 0.07631 0.75257 0.0
C2012 C 0.80418 0.05694 0.88335 0.0
C2013 C 0.8082 0.06308 0.07404 0.0
C2014 C 0.80999 0.06341 0.99852 0.0
C2015 C 0.81239 0.06698 0.77795 0.0
C2016 C 0.81207 0.06531 0.85361 0.0
H2017 H 0.82048 0.06949 0.22707 0.0
H2018 H 0.82335 0.06872 0.1041 0.0
H2019 H 0.79687 0.04958 0.97617 0.0
H2020 H 0.80664 0.05457 0.62541 0.0
H2021 H 0.80768 0.05198 0.74868 0.0
C2022 C 0.93697 0.74436 0.6578 0.0
C2023 C 0.9274 0.73965 0.63107 0.0
C2024 C 0.93856 0.74629 0.72837 0.0
C2025 C 0.9283 0.74942 0.88844 0.0
H2026 H 0.94064 0.73622 0.97587 0.0
C2027 C 0.92531 0.74163 0.18103 0.0
C2028 C 0.93265 0.74053 0.2134 0.0
C2029 C 0.92569 0.7433 0.10998 0.0
C2030 C 0.93741 0.7402 0.95271 0.0
H2031 H 0.91205 0.73374 0.65629 0.0
H2032 H 0.91487 0.73734 0.77947 0.0
H2033 H 0.93968 0.73641 0.85112 0.0
H2034 H 0.9465 0.74099 0.19878 0.0
H2035 H 0.94755 0.74452 0.07604 0.0
H2036 H 0.92614 0.75337 0.98969 0.0
C2037 C 0.92111 0.73945 0.74586 0.0
C2038 C 0.93682 0.74023 0.88101 0.0
C2039 C 0.9195 0.73733 0.67559 0.0
C2040 C 0.94067 0.74168 0.17463 0.0
C2041 C 0.94121 0.74362 0.10412 0.0
C2042 C 0.92908 0.74958 0.96032 0.0
C2043 C 0.93062 0.74374 0.773 0.0
C2044 C 0.93212 0.7447 0.84836 0.0
C2045 C 0.93357 0.74413 0.07025 0.0
C2046 C 0.93349 0.74481 0.99357 0.0
H2047 H 0.9432 0.74619 0.62467 0.0
H2048 H 0.94596 0.7496 0.74834 0.0
H2049 H 0.92467 0.75294 0.86412 0.0
H2050 H 0.91901 0.7407 0.20998 0.0
H2051 H 0.9196 0.74351 0.08604 0.0
C2052 C 0.48249 0.07054 0.00658 0.0
C2053 C 0.47588 0.07198 0.96694 0.0
C2054 C 0.4834 0.07248 0.07721 0.0
C2055 C 0.47572 0.08346 0.21888 0.0
H2056 H 0.47982 0.06547 0.33135 0.0
C2057 C 0.46427 0.07345 0.50499 0.0
C2058 C 0.47146 0.07381 0.54962 0.0
C2059 C 0.46614 0.07511 0.43445 0.0
C2060 C 0.4788 0.07062 0.30049 0.0
H2061 H 0.46512 0.07671 0.96921 0.0
H2062 H 0.46624 0.07956 0.09311 0.0
H2063 H 0.48047 0.0646 0.20667 0.0
H2064 H 0.48632 0.07639 0.55596 0.0
H2065 H 0.48945 0.07897 0.43191 0.0
H2066 H 0.47338 0.08896 0.31405 0.0
C2067 C 0.47104 0.07729 0.0698 0.0
C2068 C 0.47922 0.07019 0.22886 0.0
C2069 C 0.47033 0.0756 0.99874 0.0
C2070 C 0.48066 0.07613 0.52275 0.0
C2071 C 0.48245 0.07757 0.45198 0.0
C2072 C 0.47508 0.08374 0.29068 0.0
C2073 C 0.47749 0.07562 0.11028 0.0
C2074 C 0.47763 0.07656 0.18686 0.0
C2075 C 0.47515 0.07695 0.40725 0.0
C2076 C 0.47657 0.07728 0.33189 0.0
H2077 H 0.48695 0.06788 0.98298 0.0
H2078 H 0.48867 0.07137 0.10591 0.0
H2079 H 0.47464 0.08863 0.18863 0.0
H2080 H 0.45712 0.0717 0.52441 0.0
H2081 H 0.46038 0.07452 0.40073 0.0
C2082 C 0.92806 0.41149 0.00903 0.0
C2083 C 0.9231 0.40376 0.96193 0.0
C2084 C 0.92604 0.41001 0.07941 0.0
C2085 C 0.91669 0.39052 0.20974 0.0
H2086 H 0.91849 0.41124 0.32772 0.0
C2087 C 0.92672 0.39329 0.49638 0.0
C2088 C 0.92262 0.39703 0.54345 0.0
C2089 C 0.92479 0.39302 0.42599 0.0
C2090 C 0.9178 0.4053 0.29562 0.0
H2091 H 0.91188 0.38847 0.95191 0.0
H2092 H 0.90828 0.38591 0.07514 0.0
H2093 H 0.91838 0.41295 0.20302 0.0
H2094 H 0.91302 0.40314 0.55339 0.0
H2095 H 0.90957 0.40257 0.4302 0.0
H2096 H 0.91616 0.38289 0.30235 0.0
C2097 C 0.91382 0.3931 0.05743 0.0
C2098 C 0.91785 0.40633 0.22406 0.0
C2099 C 0.91585 0.39458 0.98679 0.0
C2100 C 0.91631 0.40024 0.51855 0.0
C2101 C 0.91437 0.39996 0.44791 0.0
C2102 C 0.91662 0.38947 0.28131 0.0
C2103 C 0.91899 0.40077 0.10466 0.0
C2104 C 0.91757 0.39908 0.18026 0.0
C2105 C 0.91869 0.39646 0.40071 0.0
C2106 C 0.91743 0.39696 0.32511 0.0
H2107 H 0.93371 0.41866 0.99184 0.0
H2108 H 0.93027 0.41605 0.11429 0.0
H2109 H 0.91651 0.38481 0.17763 0.0
H2110 H 0.93163 0.39078 0.5136 0.0
H2111 H 0.92837 0.39043 0.39113 0.0
C2112 C 0.59296 0.51653 0.52572 0.0
C2113 C 0.59951 0.52582 0.55288 0.0
C2114 C 0.5927 0.51482 0.45491 0.0
C2115 C 0.60622 0.52258 0.29434 0.0
H2116 H 0.58142 0.51599 0.20909 0.0
C2117 C 0.60253 0.52626 0.00132 0.0
C2118 C 0.59341 0.52036 0.96985 0.0
C2119 C 0.60358 0.52579 0.07253 0.0
C2120 C 0.58834 0.51758 0.23168 0.0
H2121 H 0.61124 0.54046 0.52799 0.0
H2122 H 0.61095 0.53735 0.40409 0.0
H2123 H 0.58291 0.51698 0.33379 0.0
H2124 H 0.5784 0.5089 0.98665 0.0
H2125 H 0.58034 0.5076 0.10994 0.0
H2126 H 0.61165 0.52298 0.19273 0.0
C2127 C 0.60598 0.53146 0.43773 0.0
C2128 C 0.58918 0.51821 0.30328 0.0
C2129 C 0.6061 0.53324 0.50837 0.0
C2130 C 0.58549 0.51362 0.00998 0.0
C2131 C 0.5866 0.51295 0.0808 0.0
C2132 C 0.60532 0.52173 0.22259 0.0
C2133 C 0.59913 0.52231 0.41038 0.0
C2134 C 0.59816 0.52086 0.33506 0.0
C2135 C 0.59558 0.51924 0.1135 0.0
C2136 C 0.5964 0.51937 0.19013 0.0
H2137 H 0.58776 0.5107 0.55878 0.0
H2138 H 0.58736 0.50771 0.43471 0.0
H2139 H 0.6132 0.52459 0.31806 0.0
H2140 H 0.60873 0.53158 0.97141 0.0
H2141 H 0.61058 0.53086 0.09551 0.0
C2142 C 0.74197 0.81522 0.801 0.0
C2143 C 0.73939 0.80595 0.77417 0.0
C2144 C 0.74348 0.81701 0.87173 0.0
C2145 C 0.74948 0.80939 0.03256 0.0
H2146 H 0.73102 0.81564 0.11782 0.0
C2147 C 0.74169 0.80508 0.32503 0.0
C2148 C 0.73834 0.81085 0.35689 0.0
C2149 C 0.74333 0.80572 0.25391 0.0
C2150 C 0.73642 0.81416 0.09526 0.0
H2151 H 0.73685 0.79145 0.79944 0.0
H2152 H 0.73978 0.7947 0.92307 0.0
H2153 H 0.73165 0.81483 0.9931 0.0
H2154 H 0.73469 0.82226 0.34097 0.0
H2155 H 0.73812 0.82385 0.21794 0.0
H2156 H 0.75442 0.80888 0.13426 0.0
C2157 C 0.74053 0.80051 0.88933 0.0
C2158 C 0.73672 0.81363 0.02361 0.0
C2159 C 0.7388 0.79865 0.81882 0.0
C2160 C 0.73715 0.81763 0.31731 0.0
C2161 C 0.73904 0.81847 0.24662 0.0
C2162 C 0.74935 0.81013 0.10436 0.0
C2163 C 0.74265 0.80963 0.91646 0.0
C2164 C 0.74313 0.8111 0.99179 0.0
C2165 C 0.74187 0.81231 0.21346 0.0
C2166 C 0.74269 0.81235 0.13683 0.0
H2167 H 0.74241 0.82096 0.76778 0.0
H2168 H 0.7451 0.82409 0.89174 0.0
H2169 H 0.75451 0.80746 0.00884 0.0
H2170 H 0.74259 0.79974 0.35453 0.0
H2171 H 0.74536 0.80074 0.23054 0.0
C2172 C 0.18118 0.91853 0.32006 0.0
C2173 C 0.18406 0.92632 0.36683 0.0
C2174 C 0.18081 0.92002 0.24949 0.0
C2175 C 0.19165 0.93944 0.11894 0.0
H2176 H 0.17251 0.91906 0.00011 0.0
C2177 C 0.19882 0.93666 0.83165 0.0
C2178 C 0.19098 0.93319 0.78472 0.0
C2179 C 0.1972 0.93688 0.90221 0.0
C2180 C 0.17783 0.9249 0.03245 0.0
H2181 H 0.1885 0.94172 0.37605 0.0
H2182 H 0.18776 0.94428 0.25251 0.0
H2183 H 0.17051 0.91734 0.12471 0.0
H2184 H 0.17533 0.92751 0.77523 0.0
H2185 H 0.17254 0.92801 0.89855 0.0
H2186 H 0.19899 0.94698 0.02665 0.0
C2187 C 0.1859 0.93705 0.27062 0.0
C2188 C 0.17675 0.92386 0.10395 0.0
C2189 C 0.18626 0.93556 0.34145 0.0
C2190 C 0.18153 0.9302 0.80994 0.0
C2191 C 0.17992 0.93043 0.88066 0.0
C2192 C 0.19273 0.94049 0.04742 0.0
C2193 C 0.1833 0.92932 0.22375 0.0
C2194 C 0.18376 0.93101 0.14807 0.0
C2195 C 0.18772 0.93365 0.92772 0.0
C2196 C 0.18596 0.93312 0.00333 0.0
H2197 H 0.17945 0.91132 0.33768 0.0
H2198 H 0.17892 0.91393 0.21488 0.0
H2199 H 0.19723 0.94505 0.15134 0.0
H2200 H 0.20619 0.93899 0.81416 0.0
H2201 H 0.20336 0.93926 0.93698 0.0
C2202 C 0.05986 0.25482 0.33308 0.0
C2203 C 0.06896 0.25817 0.36515 0.0
C2204 C 0.05887 0.2531 0.26203 0.0
C2205 C 0.07431 0.25985 0.10392 0.0
H2206 H 0.04957 0.24185 0.01689 0.0
C2207 C 0.07009 0.2546 0.80949 0.0
C2208 C 0.06337 0.25715 0.78269 0.0
C2209 C 0.0703 0.253 0.88015 0.0
C2210 C 0.05652 0.24685 0.04078 0.0
H2211 H 0.08399 0.2617 0.34985 0.0
H2212 H 0.08218 0.25812 0.22705 0.0
H2213 H 0.05098 0.24195 0.1424 0.0
H2214 H 0.05128 0.25949 0.80787 0.0
H2215 H 0.05151 0.25642 0.93128 0.0
H2216 H 0.07984 0.26461 0.00192 0.0
C2217 C 0.07588 0.25728 0.25542 0.0
C2218 C 0.05734 0.24699 0.11263 0.0
C2219 C 0.07692 0.25925 0.32597 0.0
C2220 C 0.05656 0.25758 0.82724 0.0
C2221 C 0.05664 0.25577 0.89763 0.0
C2222 C 0.07355 0.25955 0.03226 0.0
C2223 C 0.06693 0.25447 0.22194 0.0
C2224 C 0.0662 0.25362 0.14531 0.0
C2225 C 0.06366 0.2537 0.92481 0.0
C2226 C 0.06461 0.25318 0.00018 0.0
H2227 H 0.05363 0.254 0.36231 0.0
H2228 H 0.05189 0.25108 0.2384 0.0
H2229 H 0.0812 0.26524 0.12664 0.0
H2230 H 0.07545 0.25427 0.77634 0.0
H2231 H 0.07578 0.25142 0.90018 0.0
C2232 C 0.19179 0.25287 0.35086 0.0
C2233 C 0.18643 0.25706 0.37766 0.0
C2234 C 0.19178 0.25123 0.28006 0.0
C2235 C 0.17874 0.2478 0.1185 0.0
H2236 H 0.20441 0.26293 0.03489 0.0
C2237 C 0.18365 0.25606 0.82682 0.0
C2238 C 0.19236 0.25778 0.79484 0.0
C2239 C 0.18241 0.25445 0.89789 0.0
C2240 C 0.1972 0.25844 0.05698 0.0
H2241 H 0.17644 0.2623 0.35232 0.0
H2242 H 0.1762 0.25915 0.22863 0.0
H2243 H 0.20286 0.26226 0.15959 0.0
H2244 H 0.20635 0.2586 0.81072 0.0
H2245 H 0.20401 0.25521 0.93372 0.0
H2246 H 0.17303 0.24379 0.01635 0.0
C2247 C 0.18047 0.25725 0.2624 0.0
C2248 C 0.19633 0.25812 0.12861 0.0
C2249 C 0.18066 0.2591 0.33295 0.0
C2250 C 0.19962 0.25742 0.83442 0.0
C2251 C 0.19829 0.25555 0.9051 0.0
C2252 C 0.17962 0.24792 0.04671 0.0
C2253 C 0.18622 0.25353 0.23525 0.0
C2254 C 0.1871 0.25294 0.15988 0.0
C2255 C 0.18978 0.2543 0.93826 0.0
C2256 C 0.18885 0.2534 0.01483 0.0
H2257 H 0.19635 0.25129 0.38414 0.0
H2258 H 0.19626 0.24836 0.26005 0.0
H2259 H 0.17154 0.24372 0.14175 0.0
H2260 H 0.17797 0.25638 0.79738 0.0
H2261 H 0.17583 0.25368 0.92128 0.0
C2262 C 0.73663 0.93822 0.82933 0.0
C2263 C 0.74005 0.93382 0.78222 0.0
C2264 C 0.73863 0.93845 0.89954 0.0
C2265 C 0.74409 0.92505 0.03027 0.0
H2266 H 0.74722 0.94641 0.14708 0.0
C2267 C 0.7332 0.91959 0.31563 0.0
C2268 C 0.73854 0.92716 0.36311 0.0
C2269 C 0.73541 0.92096 0.24547 0.0
C2270 C 0.74652 0.94044 0.11535 0.0
H2271 H 0.74852 0.92647 0.77197 0.0
H2272 H 0.75208 0.92694 0.89507 0.0
H2273 H 0.74793 0.94834 0.02232 0.0
H2274 H 0.7506 0.94207 0.37398 0.0
H2275 H 0.75453 0.94444 0.25113 0.0
H2276 H 0.74263 0.91713 0.1233 0.0
C2277 C 0.74777 0.93013 0.87743 0.0
C2278 C 0.74681 0.94151 0.04373 0.0
C2279 C 0.74577 0.92991 0.80688 0.0
C2280 C 0.74632 0.93609 0.33881 0.0
C2281 C 0.74855 0.93746 0.26837 0.0
C2282 C 0.74383 0.924 0.1019 0.0
C2283 C 0.7441 0.93429 0.92468 0.0
C2284 C 0.74531 0.93372 0.00031 0.0
C2285 C 0.74304 0.92995 0.22078 0.0
C2286 C 0.74475 0.93157 0.14528 0.0
H2287 H 0.73219 0.94131 0.81231 0.0
H2288 H 0.73554 0.94156 0.9344 0.0
H2289 H 0.74286 0.91889 0.99848 0.0
H2290 H 0.72714 0.91262 0.33235 0.0
H2291 H 0.7309 0.91507 0.21031 0.0
C2292 C 0.05791 0.79603 0.83154 0.0
C2293 C 0.06166 0.80411 0.78656 0.0
C2294 C 0.05815 0.79738 0.90264 0.0
C2295 C 0.06068 0.81414 0.04249 0.0
H2296 H 0.07251 0.80109 0.13947 0.0
C2297 C 0.06145 0.81 0.34167 0.0
C2298 C 0.07037 0.81154 0.36936 0.0
C2299 C 0.06026 0.81016 0.27021 0.0
C2300 C 0.06924 0.80482 0.11311 0.0
H2301 H 0.0681 0.81991 0.78114 0.0
H2302 H 0.06846 0.82224 0.90622 0.0
H2303 H 0.07014 0.79909 0.01533 0.0
H2304 H 0.08516 0.81489 0.34362 0.0
H2305 H 0.08301 0.81509 0.21973 0.0
H2306 H 0.05977 0.81982 0.14124 0.0
C2307 C 0.06535 0.81488 0.88587 0.0
C2308 C 0.06779 0.8036 0.04218 0.0
C2309 C 0.06517 0.81354 0.81437 0.0
C2310 C 0.07817 0.81362 0.32425 0.0
C2311 C 0.07694 0.81371 0.25317 0.0
C2312 C 0.06202 0.81527 0.11404 0.0
C2313 C 0.06209 0.80682 0.9306 0.0
C2314 C 0.0635 0.80823 0.00609 0.0
C2315 C 0.06792 0.81176 0.22535 0.0
C2316 C 0.06637 0.81065 0.14983 0.0
H2317 H 0.05508 0.78866 0.81209 0.0
H2318 H 0.05546 0.79103 0.93598 0.0
H2319 H 0.05734 0.81777 0.01577 0.0
H2320 H 0.05531 0.80839 0.37498 0.0
H2321 H 0.05321 0.8086 0.24999 0.0
C2322 C 0.92415 0.51291 0.00421 0.0
C2323 C 0.92336 0.51995 0.96483 0.0
C2324 C 0.92221 0.51208 0.0748 0.0
C2325 C 0.91254 0.52104 0.21738 0.0
H2326 H 0.92957 0.51532 0.32821 0.0
C2327 C 0.92342 0.53223 0.50277 0.0
C2328 C 0.92262 0.52483 0.54736 0.0
C2329 C 0.92159 0.53039 0.43235 0.0
C2330 C 0.92468 0.5168 0.29783 0.0
H2331 H 0.91974 0.53151 0.96738 0.0
H2332 H 0.9169 0.53051 0.09133 0.0
H2333 H 0.93014 0.51451 0.20349 0.0
H2334 H 0.91907 0.50965 0.55371 0.0
H2335 H 0.91618 0.50655 0.42985 0.0
H2336 H 0.90765 0.52399 0.31306 0.0
C2337 C 0.91865 0.52534 0.06784 0.0
C2338 C 0.92494 0.51628 0.22618 0.0
C2339 C 0.92034 0.52598 0.99676 0.0
C2340 C 0.91969 0.51548 0.52054 0.0
C2341 C 0.91807 0.5137 0.44987 0.0
C2342 C 0.91245 0.52177 0.28921 0.0
C2343 C 0.91973 0.51849 0.10811 0.0
C2344 C 0.91892 0.51845 0.18475 0.0
C2345 C 0.91913 0.52118 0.40519 0.0
C2346 C 0.91856 0.5197 0.32984 0.0
H2347 H 0.92635 0.50807 0.98045 0.0
H2348 H 0.92282 0.5065 0.10332 0.0
H2349 H 0.90766 0.52258 0.18759 0.0
H2350 H 0.92564 0.5395 0.52213 0.0
H2351 H 0.92253 0.53628 0.39866 0.0
C2352 C 0.46436 0.3931 0.49965 0.0
C2353 C 0.47219 0.39728 0.5467 0.0
C2354 C 0.46609 0.39292 0.42931 0.0
C2355 C 0.48507 0.40609 0.29876 0.0
H2356 H 0.46663 0.38498 0.18119 0.0
C2357 C 0.48018 0.41178 0.01262 0.0
C2358 C 0.47785 0.40416 0.96537 0.0
C2359 C 0.48089 0.41038 0.08293 0.0
C2360 C 0.47196 0.39088 0.21315 0.0
H2361 H 0.488 0.40429 0.55669 0.0
H2362 H 0.49102 0.40388 0.43347 0.0
H2363 H 0.46526 0.38302 0.30591 0.0
H2364 H 0.47472 0.38914 0.95505 0.0
H2365 H 0.47606 0.38674 0.07811 0.0
H2366 H 0.49174 0.41397 0.20601 0.0
C2367 C 0.48353 0.40084 0.45121 0.0
C2368 C 0.4711 0.3898 0.28474 0.0
C2369 C 0.4818 0.40102 0.52184 0.0
C2370 C 0.4765 0.39517 0.99003 0.0
C2371 C 0.47722 0.39377 0.06059 0.0
C2372 C 0.48595 0.40716 0.22717 0.0
C2373 C 0.4757 0.3969 0.40403 0.0
C2374 C 0.47747 0.39749 0.32841 0.0
C2375 C 0.47931 0.40133 0.10796 0.0
C2376 C 0.47924 0.39968 0.18352 0.0
H2377 H 0.45687 0.39017 0.51682 0.0
H2378 H 0.45989 0.38997 0.39447 0.0
H2379 H 0.49008 0.41218 0.33076 0.0
H2380 H 0.48124 0.4188 0.99561 0.0
H2381 H 0.48235 0.41632 0.11793 0.0
C2382 C 0.60369 0.07775 0.99328 0.0
C2383 C 0.59414 0.07339 0.96641 0.0
C2384 C 0.60528 0.07941 0.06408 0.0
C2385 C 0.59551 0.08259 0.22564 0.0
H2386 H 0.60637 0.06772 0.30897 0.0
C2387 C 0.59233 0.07433 0.51737 0.0
C2388 C 0.5994 0.07271 0.54913 0.0
C2389 C 0.59267 0.07594 0.44631 0.0
C2390 C 0.60356 0.07214 0.28698 0.0
H2391 H 0.57884 0.06786 0.99162 0.0
H2392 H 0.5817 0.07105 0.11532 0.0
H2393 H 0.60548 0.06839 0.18431 0.0
H2394 H 0.61268 0.07209 0.53293 0.0
H2395 H 0.61364 0.07548 0.40999 0.0
H2396 H 0.59374 0.08652 0.32785 0.0
C2397 C 0.5879 0.07307 0.0816 0.0
C2398 C 0.603 0.07246 0.21535 0.0
C2399 C 0.58628 0.0712 0.01104 0.0
C2400 C 0.60706 0.07319 0.50939 0.0
C2401 C 0.60755 0.07505 0.43874 0.0
C2402 C 0.59627 0.08246 0.29743 0.0
C2403 C 0.59738 0.07695 0.10882 0.0
C2404 C 0.59884 0.07754 0.18419 0.0
C2405 C 0.60022 0.0762 0.40576 0.0
C2406 C 0.60014 0.07708 0.32921 0.0
H2407 H 0.60987 0.07945 0.96007 0.0
H2408 H 0.61265 0.08241 0.08416 0.0
H2409 H 0.5923 0.08658 0.20244 0.0
H2410 H 0.5863 0.07392 0.54696 0.0
H2411 H 0.58679 0.07662 0.42307 0.0
C2412 C 0.06907 0.4398 0.20717 0.0
C2413 C 0.07475 0.45005 0.21371 0.0
C2414 C 0.07347 0.43431 0.18907 0.0
C2415 C 0.09559 0.43648 0.10767 0.0
H2416 H 0.08974 0.41345 0.21562 0.0
C2417 C 0.12062 0.41981 0.10586 0.0
C2418 C 0.11623 0.40955 0.10424 0.0
C2419 C 0.11494 0.42422 0.1157 0.0
C2420 C 0.09135 0.41978 0.18435 0.0
H2421 H 0.08945 0.46257 0.20506 0.0
H2422 H 0.09709 0.45298 0.17391 0.0
H2423 H 0.08075 0.42209 0.23743 0.0
H2424 H 0.10243 0.39586 0.11262 0.0
H2425 H 0.09249 0.40361 0.12942 0.0
H2426 H 0.10625 0.43426 0.05514 0.0
C2427 C 0.08924 0.44921 0.18234 0.0
C2428 C 0.0862 0.42472 0.19681 0.0
C2429 C 0.08487 0.45469 0.20075 0.0
C2430 C 0.10604 0.40379 0.11355 0.0
C2431 C 0.10035 0.40822 0.12343 0.0
C2432 C 0.10071 0.43154 0.09515 0.0
C2433 C 0.0836 0.43897 0.17661 0.0
C2434 C 0.0884 0.43321 0.15939 0.0
C2435 C 0.10474 0.41848 0.12415 0.0
C2436 C 0.09877 0.42325 0.13418 0.0
H2437 H 0.06125 0.43602 0.2166 0.0
H2438 H 0.06894 0.42642 0.18447 0.0
H2439 H 0.09731 0.44291 0.07721 0.0
H2440 H 0.12846 0.42447 0.09936 0.0
H2441 H 0.11855 0.43215 0.11734 0.0
C2442 C 0.55594 0.6285 0.20368 0.0
C2443 C 0.54571 0.62389 0.2111 0.0
C2444 C 0.56141 0.63847 0.18797 0.0
C2445 C 0.55917 0.6588 0.11449 0.0
H2446 H 0.58256 0.67538 0.221 0.0
C2447 C 0.57673 0.7006 0.11629 0.0
C2448 C 0.587 0.70623 0.11279 0.0
C2449 C 0.57211 0.69049 0.12618 0.0
C2450 C 0.57612 0.67082 0.1902 0.0
H2451 H 0.53317 0.62609 0.2066 0.0
H2452 H 0.5427 0.64347 0.17955 0.0
H2453 H 0.57373 0.65768 0.24017 0.0
H2454 H 0.60049 0.70569 0.1182 0.0
H2455 H 0.59238 0.68798 0.13499 0.0
H2456 H 0.56149 0.67191 0.06489 0.0
C2457 C 0.54649 0.63936 0.18546 0.0
C2458 C 0.57107 0.6607 0.20114 0.0
C2459 C 0.54104 0.62942 0.20144 0.0
C2460 C 0.59256 0.70156 0.12059 0.0
C2461 C 0.58793 0.69143 0.13047 0.0
C2462 C 0.56421 0.66889 0.10347 0.0
C2463 C 0.55673 0.644 0.1789 0.0
C2464 C 0.56247 0.65462 0.16405 0.0
C2465 C 0.57765 0.68579 0.13275 0.0
C2466 C 0.57266 0.67503 0.1419 0.0
H2467 H 0.55976 0.62443 0.21055 0.0
H2468 H 0.56928 0.64185 0.18256 0.0
H2469 H 0.55265 0.65426 0.08433 0.0
H2470 H 0.57223 0.70397 0.11108 0.0
H2471 H 0.56419 0.68637 0.12909 0.0
C2472 C 0.36593 0.91119 0.208 0.0
C2473 C 0.37137 0.92134 0.21984 0.0
C2474 C 0.35607 0.90674 0.18988 0.0
C2475 C 0.33453 0.90966 0.20243 0.0
H2476 H 0.32438 0.88995 0.05843 0.0
C2477 C 0.29403 0.8902 0.11328 0.0
C2478 C 0.28962 0.88004 0.1022 0.0
C2479 C 0.30412 0.89583 0.12489 0.0
C2480 C 0.3271 0.89538 0.09911 0.0
H2481 H 0.37073 0.9348 0.22155 0.0
H2482 H 0.35343 0.92696 0.19008 0.0
H2483 H 0.34189 0.89875 0.08313 0.0
H2484 H 0.29229 0.8678 0.09624 0.0
H2485 H 0.30979 0.87758 0.11736 0.0
H2486 H 0.3197 0.90614 0.21934 0.0
C2487 C 0.35683 0.92248 0.19521 0.0
C2488 C 0.33711 0.90042 0.11314 0.0
C2489 C 0.36673 0.92696 0.21293 0.0
C2490 C 0.29547 0.87562 0.10393 0.0
C2491 C 0.30551 0.88123 0.11561 0.0
C2492 C 0.32449 0.90458 0.18855 0.0
C2493 C 0.35142 0.91233 0.18347 0.0
C2494 C 0.3409 0.90751 0.16557 0.0
C2495 C 0.30996 0.8914 0.1257 0.0
C2496 C 0.32066 0.89728 0.13745 0.0
H2497 H 0.36929 0.90667 0.21266 0.0
H2498 H 0.35203 0.89888 0.18191 0.0
H2499 H 0.33727 0.91503 0.24353 0.0
H2500 H 0.28973 0.89382 0.11229 0.0
H2501 H 0.30736 0.90366 0.13213 0.0
C2502 C 0.41835 0.12171 0.88452 0.0
C2503 C 0.40811 0.11705 0.89132 0.0
C2504 C 0.42288 0.1163 0.86855 0.0
C2505 C 0.41956 0.09162 0.87689 0.0
H2506 H 0.44065 0.10199 0.74275 0.0
C2507 C 0.43885 0.07049 0.78621 0.0
C2508 C 0.44909 0.07603 0.77925 0.0
C2509 C 0.43341 0.07512 0.79886 0.0
C2510 C 0.43483 0.09905 0.78077 0.0
H2511 H 0.39458 0.10305 0.88648 0.0
H2512 H 0.40256 0.09358 0.85849 0.0
H2513 H 0.43184 0.11074 0.76562 0.0
H2514 H 0.46169 0.09075 0.78207 0.0
H2515 H 0.45222 0.09878 0.80488 0.0
H2516 H 0.42265 0.07998 0.89263 0.0
C2517 C 0.40705 0.10142 0.86604 0.0
C2518 C 0.42978 0.10405 0.79375 0.0
C2519 C 0.40249 0.10685 0.88175 0.0
C2520 C 0.4538 0.08627 0.7865 0.0
C2521 C 0.44837 0.09088 0.79918 0.0
C2522 C 0.42463 0.08662 0.86399 0.0
C2523 C 0.41728 0.10611 0.85911 0.0
C2524 C 0.42219 0.10045 0.84253 0.0
C2525 C 0.43812 0.08537 0.80483 0.0
C2526 C 0.4324 0.09036 0.81642 0.0
H2527 H 0.42289 0.12955 0.89146 0.0
H2528 H 0.4308 0.12008 0.86442 0.0
H2529 H 0.41379 0.08874 0.91521 0.0
H2530 H 0.435 0.06258 0.781 0.0
H2531 H 0.42551 0.07069 0.80257 0.0
C2532 C 0.92642 0.36907 0.78851 0.0
C2533 C 0.9207 0.37358 0.78076 0.0
C2534 C 0.92203 0.35915 0.80573 0.0
C2535 C 0.89972 0.339 0.88338 0.0
H2536 H 0.90632 0.32208 0.77904 0.0
C2537 C 0.87528 0.29726 0.88604 0.0
C2538 C 0.87983 0.29154 0.89026 0.0
C2539 C 0.88084 0.30734 0.87525 0.0
C2540 C 0.9045 0.32673 0.80926 0.0
H2541 H 0.9059 0.37123 0.78607 0.0
H2542 H 0.89828 0.35396 0.8157 0.0
H2543 H 0.91515 0.33972 0.75719 0.0
H2544 H 0.89378 0.29192 0.88521 0.0
H2545 H 0.90351 0.30959 0.86672 0.0
H2546 H 0.88901 0.32605 0.93496 0.0
C2547 C 0.90616 0.3581 0.80893 0.0
C2548 C 0.90955 0.33682 0.79679 0.0
C2549 C 0.91053 0.36799 0.79143 0.0
C2550 C 0.89005 0.29612 0.8823 0.0
C2551 C 0.89562 0.30623 0.87146 0.0
C2552 C 0.89469 0.32894 0.8959 0.0
C2553 C 0.91186 0.35358 0.81606 0.0
C2554 C 0.90709 0.34302 0.83296 0.0
C2555 C 0.89107 0.31194 0.86844 0.0
C2556 C 0.89691 0.32268 0.85817 0.0
H2557 H 0.93428 0.37319 0.78083 0.0
H2558 H 0.9266 0.35585 0.81145 0.0
H2559 H 0.8978 0.34363 0.91292 0.0
H2560 H 0.86741 0.29397 0.89136 0.0
H2561 H 0.8771 0.31152 0.87177 0.0
C2562 C 0.62964 0.54299 0.78874 0.0
C2563 C 0.62403 0.54764 0.78354 0.0
C2564 C 0.6397 0.54846 0.80047 0.0
C2565 C 0.65923 0.57209 0.86621 0.0
H2566 H 0.67598 0.56506 0.76389 0.0
C2567 C 0.70164 0.59385 0.88396 0.0
C2568 C 0.7061 0.5881 0.89206 0.0
C2569 C 0.69167 0.58946 0.86807 0.0
C2570 C 0.67138 0.56707 0.79308 0.0
H2571 H 0.62455 0.56167 0.78806 0.0
H2572 H 0.6422 0.57124 0.80806 0.0
H2573 H 0.65841 0.55638 0.74183 0.0
H2574 H 0.70363 0.57325 0.88923 0.0
H2575 H 0.68629 0.56563 0.86185 0.0
H2576 H 0.67226 0.58276 0.91776 0.0
C2577 C 0.63877 0.56335 0.80341 0.0
C2578 C 0.66133 0.56209 0.78057 0.0
C2579 C 0.62868 0.55787 0.79169 0.0
C2580 C 0.70042 0.57789 0.88349 0.0
C2581 C 0.6905 0.57353 0.8673 0.0
C2582 C 0.66932 0.57709 0.87864 0.0
C2583 C 0.64439 0.5587 0.80721 0.0
C2584 C 0.65513 0.56444 0.81777 0.0
C2585 C 0.68602 0.57926 0.85944 0.0
C2586 C 0.67546 0.57451 0.84294 0.0
H2587 H 0.62628 0.53512 0.78339 0.0
H2588 H 0.6438 0.54464 0.80458 0.0
H2589 H 0.65462 0.57401 0.89601 0.0
H2590 H 0.70582 0.60174 0.89008 0.0
H2591 H 0.6884 0.59405 0.86179 0.0
C2592 C 0.87571 0.57804 0.89488 0.0
C2593 C 0.88008 0.5883 0.89664 0.0
C2594 C 0.88138 0.57365 0.88367 0.0
C2595 C 0.90476 0.57805 0.81137 0.0
H2596 H 0.89897 0.55491 0.9178 0.0
C2597 C 0.92679 0.55775 0.78543 0.0
C2598 C 0.92106 0.5475 0.7797 0.0
C2599 C 0.92246 0.56332 0.80328 0.0
C2600 C 0.90064 0.56134 0.88751 0.0
H2601 H 0.89383 0.60201 0.88698 0.0
H2602 H 0.90376 0.59429 0.86776 0.0
H2603 H 0.8902 0.56366 0.9423 0.0
H2604 H 0.90632 0.53505 0.78888 0.0
H2605 H 0.8988 0.54476 0.81971 0.0
H2606 H 0.91513 0.57562 0.75612 0.0
C2607 C 0.89593 0.58967 0.87476 0.0
C2608 C 0.89562 0.56634 0.90145 0.0
C2609 C 0.89024 0.59408 0.88603 0.0
C2610 C 0.91094 0.54293 0.79267 0.0
C2611 C 0.90664 0.54848 0.81086 0.0
C2612 C 0.90981 0.57304 0.79751 0.0
C2613 C 0.89155 0.57941 0.87398 0.0
C2614 C 0.89749 0.57463 0.86267 0.0
C2615 C 0.91235 0.55873 0.81631 0.0
C2616 C 0.90765 0.56454 0.83464 0.0
H2617 H 0.86789 0.57336 0.90227 0.0
H2618 H 0.87777 0.56573 0.88195 0.0
H2619 H 0.9063 0.58437 0.78032 0.0
H2620 H 0.93461 0.56148 0.7759 0.0
H2621 H 0.92703 0.5712 0.80759 0.0
C2622 C 0.45525 0.36801 0.79102 0.0
C2623 C 0.45058 0.37354 0.78161 0.0
C2624 C 0.4498 0.35804 0.8065 0.0
C2625 C 0.4252 0.33669 0.79034 0.0
H2626 H 0.43479 0.32542 0.92603 0.0
C2627 C 0.40356 0.29589 0.87223 0.0
C2628 C 0.40907 0.29116 0.88023 0.0
C2629 C 0.40826 0.30601 0.86161 0.0
C2630 C 0.43207 0.32845 0.88756 0.0
H2631 H 0.43652 0.37297 0.78208 0.0
H2632 H 0.427 0.35552 0.8093 0.0
H2633 H 0.44366 0.34307 0.90675 0.0
H2634 H 0.4238 0.2933 0.8813 0.0
H2635 H 0.43194 0.31089 0.86203 0.0
H2636 H 0.41367 0.32204 0.77057 0.0
C2637 C 0.43487 0.35891 0.80402 0.0
C2638 C 0.43713 0.33855 0.87664 0.0
C2639 C 0.44033 0.36891 0.78878 0.0
C2640 C 0.41934 0.29672 0.876 0.0
C2641 C 0.42401 0.30681 0.86537 0.0
C2642 C 0.42013 0.32657 0.80121 0.0
C2643 C 0.43956 0.35339 0.81284 0.0
C2644 C 0.43382 0.34276 0.82735 0.0
C2645 C 0.41854 0.31158 0.85876 0.0
C2646 C 0.42359 0.32234 0.84934 0.0
H2647 H 0.46313 0.37135 0.78603 0.0
H2648 H 0.45359 0.35394 0.81222 0.0
H2649 H 0.42254 0.33973 0.7515 0.0
H2650 H 0.39563 0.29181 0.87515 0.0
H2651 H 0.40385 0.3095 0.85708 0.0
C2652 C 0.62939 0.08646 0.78591 0.0
C2653 C 0.62389 0.0762 0.78003 0.0
C2654 C 0.63938 0.09111 0.80052 0.0
C2655 C 0.66081 0.0879 0.78882 0.0
H2656 H 0.67199 0.10933 0.92014 0.0
C2657 C 0.70148 0.10725 0.87384 0.0
C2658 C 0.70622 0.1175 0.88017 0.0
C2659 C 0.69138 0.10182 0.86228 0.0
C2660 C 0.66899 0.10342 0.88285 0.0
H2661 H 0.62456 0.06277 0.78552 0.0
H2662 H 0.64205 0.07095 0.81116 0.0
H2663 H 0.65436 0.10049 0.90013 0.0
H2664 H 0.70415 0.13013 0.87702 0.0
H2665 H 0.68661 0.12069 0.85603 0.0
H2666 H 0.67547 0.09092 0.77099 0.0
C2667 C 0.63861 0.07536 0.80384 0.0
C2668 C 0.6589 0.09836 0.87151 0.0
C2669 C 0.62859 0.07069 0.7895 0.0
C2670 C 0.70071 0.12224 0.87314 0.0
C2671 C 0.69065 0.11682 0.8615 0.0
C2672 C 0.67092 0.09299 0.80007 0.0
C2673 C 0.6441 0.08561 0.80945 0.0
C2674 C 0.65473 0.09062 0.82387 0.0
C2675 C 0.68586 0.10656 0.85673 0.0
C2676 C 0.67511 0.10086 0.84665 0.0
H2677 H 0.62599 0.09091 0.77903 0.0
H2678 H 0.64346 0.09904 0.80376 0.0
H2679 H 0.65779 0.08203 0.7513 0.0
H2680 H 0.70552 0.10338 0.87894 0.0
H2681 H 0.68787 0.09391 0.8592 0.0
C2682 C 0.55603 0.92633 0.20485 0.0
C2683 C 0.54582 0.92079 0.21384 0.0
C2684 C 0.56146 0.92167 0.19303 0.0
C2685 C 0.56028 0.89792 0.21637 0.0
H2686 H 0.58094 0.90779 0.079 0.0
C2687 C 0.57688 0.87518 0.11562 0.0
C2688 C 0.58709 0.87991 0.10717 0.0
C2689 C 0.5723 0.88055 0.13135 0.0
C2690 C 0.57528 0.90504 0.11815 0.0
H2691 H 0.53326 0.90605 0.21567 0.0
H2692 H 0.54272 0.89796 0.19419 0.0
H2693 H 0.57196 0.91647 0.10002 0.0
H2694 H 0.60054 0.894 0.10903 0.0
H2695 H 0.59248 0.90341 0.13651 0.0
H2696 H 0.56349 0.88641 0.23382 0.0
C2697 C 0.54655 0.90588 0.19766 0.0
C2698 C 0.57014 0.90999 0.13016 0.0
C2699 C 0.54113 0.91053 0.20957 0.0
C2700 C 0.59265 0.89015 0.11505 0.0
C2701 C 0.58804 0.89554 0.13047 0.0
C2702 C 0.56539 0.89296 0.20425 0.0
C2703 C 0.55678 0.9114 0.18986 0.0
C2704 C 0.56252 0.90641 0.17885 0.0
C2705 C 0.57783 0.89078 0.13883 0.0
C2706 C 0.57286 0.8964 0.15449 0.0
H2707 H 0.55987 0.93426 0.20779 0.0
H2708 H 0.56934 0.92611 0.18772 0.0
H2709 H 0.55458 0.8951 0.25524 0.0
H2710 H 0.57238 0.86731 0.11009 0.0
H2711 H 0.56439 0.87671 0.13665 0.0
C2712 C 0.12091 0.70043 0.11018 0.0
C2713 C 0.11637 0.70615 0.10573 0.0
C2714 C 0.11534 0.69034 0.12006 0.0
C2715 C 0.09159 0.67076 0.18278 0.0
H2716 H 0.09862 0.65419 0.07815 0.0
C2717 C 0.06989 0.62842 0.20005 0.0
C2718 C 0.07565 0.62396 0.20808 0.0
C2719 C 0.07424 0.63835 0.18325 0.0
C2720 C 0.0966 0.65873 0.10794 0.0
H2721 H 0.1024 0.70577 0.10971 0.0
H2722 H 0.09265 0.68805 0.12667 0.0
H2723 H 0.10735 0.67181 0.05792 0.0
H2724 H 0.09048 0.6264 0.2035 0.0
H2725 H 0.09805 0.64369 0.17454 0.0
H2726 H 0.08091 0.65764 0.23333 0.0
C2727 C 0.10054 0.69143 0.12273 0.0
C2728 C 0.1016 0.66881 0.09645 0.0
C2729 C 0.10613 0.70156 0.1128 0.0
C2730 C 0.08583 0.6296 0.19789 0.0
C2731 C 0.09016 0.6395 0.1808 0.0
C2732 C 0.08657 0.66065 0.19422 0.0
C2733 C 0.1051 0.68572 0.1257 0.0
C2734 C 0.09927 0.67495 0.1346 0.0
C2735 C 0.08442 0.64398 0.17364 0.0
C2736 C 0.08915 0.65457 0.15771 0.0
H2737 H 0.12879 0.70374 0.10562 0.0
H2738 H 0.11908 0.68616 0.12361 0.0
H2739 H 0.08968 0.67533 0.21329 0.0
H2740 H 0.06202 0.62426 0.20735 0.0
H2741 H 0.06964 0.64161 0.17743 0.0
C2742 C 0.29484 0.40339 0.11579 0.0
C2743 C 0.29034 0.40911 0.10723 0.0
C2744 C 0.30495 0.40787 0.12636 0.0
C2745 C 0.32775 0.43136 0.09966 0.0
H2746 H 0.33854 0.42183 0.23937 0.0
C2747 C 0.36687 0.45458 0.20253 0.0
C2748 C 0.37242 0.44998 0.21397 0.0
C2749 C 0.35698 0.44908 0.1852 0.0
C2750 C 0.33564 0.42448 0.19948 0.0
H2751 H 0.29289 0.42399 0.10498 0.0
H2752 H 0.31045 0.43175 0.12408 0.0
H2753 H 0.32088 0.41308 0.21831 0.0
H2754 H 0.37197 0.43598 0.21536 0.0
H2755 H 0.35462 0.42634 0.18504 0.0
H2756 H 0.34245 0.44284 0.08156 0.0
C2757 C 0.3062 0.42382 0.12125 0.0
C2758 C 0.32554 0.41948 0.18746 0.0
C2759 C 0.29613 0.41937 0.11074 0.0
C2760 C 0.36788 0.43974 0.20708 0.0
C2761 C 0.35795 0.43422 0.19003 0.0
C2762 C 0.33781 0.43635 0.11171 0.0
C2763 C 0.31074 0.41813 0.1285 0.0
C2764 C 0.32148 0.42298 0.13822 0.0
C2765 C 0.35241 0.43884 0.17902 0.0
C2766 C 0.34184 0.43306 0.1625 0.0
H2767 H 0.29058 0.39547 0.11345 0.0
H2768 H 0.30826 0.4033 0.1315 0.0
H2769 H 0.32485 0.4341 0.06032 0.0
H2770 H 0.37014 0.46246 0.20722 0.0
H2771 H 0.35286 0.45283 0.17788 0.0
C2772 C 0.78749 0.75249 0.45492 0.0
C2773 C 0.78279 0.7423 0.44499 0.0
C2774 C 0.78207 0.75702 0.47064 0.0
C2775 C 0.75756 0.75399 0.45485 0.0
H2776 H 0.76725 0.77463 0.59223 0.0
C2777 C 0.73628 0.77347 0.53821 0.0
C2778 C 0.74188 0.78369 0.54662 0.0
C2779 C 0.74087 0.76795 0.52738 0.0
C2780 C 0.7645 0.76894 0.55332 0.0
H2781 H 0.7687 0.72885 0.44451 0.0
H2782 H 0.75922 0.73682 0.4721 0.0
H2783 H 0.77597 0.76572 0.5721 0.0
H2784 H 0.75668 0.79616 0.54841 0.0
H2785 H 0.76464 0.78654 0.52881 0.0
H2786 H 0.74616 0.75732 0.43548 0.0
C2787 C 0.7671 0.74128 0.46711 0.0
C2788 C 0.76948 0.76383 0.5419 0.0
C2789 C 0.77254 0.73672 0.45164 0.0
C2790 C 0.75215 0.78829 0.54272 0.0
C2791 C 0.75672 0.78278 0.53192 0.0
C2792 C 0.75258 0.75912 0.46623 0.0
C2793 C 0.77183 0.75147 0.47672 0.0
C2794 C 0.76614 0.7564 0.49193 0.0
C2795 C 0.75114 0.77254 0.52477 0.0
C2796 C 0.75608 0.76674 0.51494 0.0
H2797 H 0.79538 0.757 0.45035 0.0
H2798 H 0.7859 0.76491 0.4769 0.0
H2799 H 0.75488 0.74836 0.41554 0.0
H2800 H 0.72835 0.7697 0.54085 0.0
H2801 H 0.73639 0.76006 0.52243 0.0
C2802 C 0.25937 0.03439 0.45326 0.0
C2803 C 0.25379 0.03908 0.44868 0.0
C2804 C 0.25488 0.02441 0.46885 0.0
C2805 C 0.23264 0.00431 0.54761 0.0
H2806 H 0.23856 0.98736 0.43754 0.0
C2807 C 0.20774 0.96268 0.54828 0.0
C2808 C 0.21217 0.95685 0.55106 0.0
C2809 C 0.21337 0.97274 0.53732 0.0
C2810 C 0.23693 0.99202 0.46929 0.0
H2811 H 0.23912 0.037 0.45775 0.0
H2812 H 0.23131 0.01962 0.48452 0.0
H2813 H 0.24754 0.00505 0.41737 0.0
H2814 H 0.22599 0.95699 0.54275 0.0
H2815 H 0.23586 0.97466 0.52387 0.0
H2816 H 0.22198 0.99133 0.59908 0.0
C2817 C 0.23917 0.02367 0.47658 0.0
C2818 C 0.24207 0.00213 0.45779 0.0
C2819 C 0.24364 0.03361 0.46074 0.0
C2820 C 0.22236 0.96128 0.54103 0.0
C2821 C 0.228 0.97139 0.52999 0.0
C2822 C 0.22752 0.99423 0.55913 0.0
C2823 C 0.24473 0.01896 0.48064 0.0
C2824 C 0.23986 0.00835 0.49612 0.0
C2825 C 0.22357 0.97722 0.52885 0.0
C2826 C 0.2295 0.98797 0.51933 0.0
H2827 H 0.26721 0.03841 0.44444 0.0
H2828 H 0.25934 0.02097 0.47223 0.0
H2829 H 0.23091 0.00895 0.57881 0.0
H2830 H 0.19991 0.95949 0.55513 0.0
H2831 H 0.20973 0.97702 0.53526 0.0
C2832 C 0.96105 0.22374 0.45343 0.0
C2833 C 0.95652 0.21353 0.44505 0.0
C2834 C 0.97098 0.22923 0.47047 0.0
C2835 C 0.99107 0.22689 0.54698 0.0
H2836 H 0.00802 0.25057 0.44436 0.0
C2837 C 0.03287 0.24447 0.55194 0.0
C2838 C 0.03848 0.25473 0.55673 0.0
C2839 C 0.0228 0.23987 0.5406 0.0
C2840 C 0.00336 0.24405 0.47409 0.0
H2841 H 0.95883 0.20105 0.44885 0.0
H2842 H 0.97612 0.21062 0.47813 0.0
H2843 H 0.9904 0.24178 0.42196 0.0
H2844 H 0.03794 0.26822 0.55228 0.0
H2845 H 0.02029 0.26015 0.53295 0.0
H2846 H 0.00399 0.22908 0.59872 0.0
C2847 C 0.97198 0.21438 0.47202 0.0
C2848 C 0.99329 0.23903 0.4613 0.0
C2849 C 0.9621 0.20891 0.45472 0.0
C2850 C 0.03382 0.2603 0.54892 0.0
C2851 C 0.02372 0.25569 0.53757 0.0
C2852 C 0.00112 0.23191 0.55984 0.0
C2853 C 0.97653 0.22459 0.47994 0.0
C2854 C 0.98708 0.23033 0.49692 0.0
C2855 C 0.01811 0.24542 0.53381 0.0
C2856 C 0.00738 0.24046 0.5228 0.0
H2857 H 0.95694 0.22752 0.44655 0.0
H2858 H 0.97429 0.23709 0.47681 0.0
H2859 H 0.98643 0.2203 0.57607 0.0
H2860 H 0.03624 0.23995 0.55717 0.0
H2861 H 0.01868 0.23195 0.53663 0.0
C2862 C 0.25865 0.22174 0.49231 0.0
C2863 C 0.25363 0.21307 0.45359 0.0
C2864 C 0.25422 0.22731 0.50696 0.0
C2865 C 0.2366 0.23357 0.44227 0.0
H2866 H 0.23285 0.23882 0.63193 0.0
C2867 C 0.22198 0.25935 0.52455 0.0
C2868 C 0.21354 0.25467 0.56586 0.0
C2869 C 0.22744 0.25478 0.51078 0.0
C2870 C 0.23392 0.23744 0.57883 0.0
H2871 H 0.24013 0.20347 0.39923 0.0
H2872 H 0.2325 0.21338 0.42343 0.0
H2873 H 0.24152 0.22985 0.60727 0.0
H2874 H 0.20428 0.24166 0.62622 0.0
H2875 H 0.21402 0.23381 0.60351 0.0
H2876 H 0.22905 0.24121 0.4138 0.0
C2877 C 0.23981 0.21577 0.44284 0.0
C2878 C 0.23888 0.23237 0.5648 0.0
C2879 C 0.24415 0.2101 0.42944 0.0
C2880 C 0.21073 0.24541 0.59391 0.0
C2881 C 0.21631 0.24095 0.58137 0.0
C2882 C 0.23182 0.23882 0.45625 0.0
C2883 C 0.24481 0.2244 0.48179 0.0
C2884 C 0.24012 0.23028 0.49647 0.0
C2885 C 0.22467 0.24558 0.53944 0.0
C2886 C 0.23033 0.24066 0.52463 0.0
H2887 H 0.26596 0.22416 0.51175 0.0
H2888 H 0.25818 0.23395 0.5371 0.0
H2889 H 0.23753 0.23205 0.3892 0.0
H2890 H 0.22426 0.26648 0.50214 0.0
H2891 H 0.23388 0.25846 0.47829 0.0
C2892 C 0.77313 0.03529 0.45534 0.0
C2893 C 0.78333 0.03976 0.44587 0.0
C2894 C 0.7675 0.02518 0.46562 0.0
C2895 C 0.76803 0.00236 0.43634 0.0
H2896 H 0.74794 0.99154 0.57765 0.0
C2897 C 0.7519 0.96304 0.53609 0.0
C2898 C 0.74175 0.95758 0.54812 0.0
C2899 C 0.75636 0.97296 0.51957 0.0
C2900 C 0.75343 0.99445 0.53734 0.0
H2901 H 0.79562 0.03716 0.44163 0.0
H2902 H 0.78581 0.01959 0.46026 0.0
H2903 H 0.75693 0.00922 0.55755 0.0
H2904 H 0.72831 0.95822 0.5514 0.0
H2905 H 0.73616 0.97562 0.52247 0.0
H2906 H 0.76465 0.98763 0.41681 0.0
C2907 C 0.78215 0.02387 0.45839 0.0
C2908 C 0.75857 0.00456 0.52587 0.0
C2909 C 0.78778 0.03395 0.44815 0.0
C2910 C 0.73615 0.96224 0.54265 0.0
C2911 C 0.74064 0.9722 0.5264 0.0
C2912 C 0.7629 0.99227 0.44785 0.0
C2913 C 0.77195 0.01936 0.46658 0.0
C2914 C 0.76603 0.00862 0.47599 0.0
C2915 C 0.75079 0.97764 0.51481 0.0
C2916 C 0.75566 0.98824 0.49915 0.0
H2917 H 0.76948 0.03957 0.45394 0.0
H2918 H 0.75964 0.02189 0.47147 0.0
H2919 H 0.77359 0.00526 0.39654 0.0
H2920 H 0.75643 0.95967 0.53969 0.0
H2921 H 0.76422 0.97701 0.51176 0.0
C2922 C 0.96161 0.73675 0.44403 0.0
C2923 C 0.95704 0.74242 0.43649 0.0
C2924 C 0.97174 0.74128 0.45348 0.0
C2925 C 0.99445 0.76485 0.42624 0.0
H2926 H 0.00542 0.75529 0.56445 0.0
C2927 C 0.03355 0.7881 0.52991 0.0
C2928 C 0.03912 0.78352 0.54158 0.0
C2929 C 0.0237 0.78259 0.51156 0.0
C2930 C 0.00247 0.75795 0.52493 0.0
H2931 H 0.9595 0.75727 0.43459 0.0
H2932 H 0.97711 0.76512 0.45181 0.0
H2933 H 0.98775 0.74651 0.54411 0.0
H2934 H 0.03875 0.76955 0.54181 0.0
H2935 H 0.02148 0.75991 0.50969 0.0
H2936 H 0.00913 0.77639 0.40793 0.0
C2937 C 0.97289 0.75719 0.44907 0.0
C2938 C 0.99237 0.75293 0.51333 0.0
C2939 C 0.96279 0.75268 0.43967 0.0
C2940 C 0.03465 0.7733 0.53342 0.0
C2941 C 0.02476 0.76777 0.51536 0.0
C2942 C 0.00453 0.76987 0.43789 0.0
C2943 C 0.97749 0.75155 0.45552 0.0
C2944 C 0.98825 0.75643 0.46467 0.0
C2945 C 0.01919 0.77237 0.50456 0.0
C2946 C 0.00862 0.76656 0.48812 0.0
H2947 H 0.95739 0.72883 0.44187 0.0
H2948 H 0.9751 0.73675 0.45796 0.0
H2949 H 0.99151 0.76761 0.38737 0.0
H2950 H 0.03678 0.79596 0.53549 0.0
H2951 H 0.01956 0.78632 0.50438 0.0
C2952 C 0.23765 0.41353 0.07784 0.0
C2953 C 0.23592 0.40398 0.06617 0.0
C2954 C 0.23027 0.41582 0.06523 0.0
C2955 C 0.20637 0.40674 0.97733 0.0
H2956 H 0.20004 0.41807 0.13264 0.0
C2957 C 0.16736 0.397 0.04379 0.0
C2958 C 0.16546 0.40417 0.07039 0.0
C2959 C 0.17693 0.39924 0.02984 0.0
C2960 C 0.20182 0.41512 0.08808 0.0
H2961 H 0.2253 0.38949 0.02898 0.0
H2962 H 0.2125 0.39345 0.00749 0.0
H2963 H 0.21551 0.41805 0.13157 0.0
H2964 H 0.17208 0.41942 0.10118 0.0
H2965 H 0.18891 0.4233 0.07756 0.0
H2966 H 0.19245 0.40336 0.93555 0.0
C2967 C 0.21953 0.39919 0.026 0.0
C2968 C 0.21068 0.41511 0.08745 0.0
C2969 C 0.22684 0.39689 0.03909 0.0
C2970 C 0.17332 0.41373 0.08096 0.0
C2971 C 0.18295 0.41595 0.06757 0.0
C2972 C 0.19752 0.40675 0.97799 0.0
C2973 C 0.2211 0.40863 0.0399 0.0
C2974 C 0.21285 0.41055 0.0334 0.0
C2975 C 0.18484 0.40869 0.04247 0.0
C2976 C 0.19498 0.41057 0.0347 0.0
H2977 H 0.2446 0.41916 0.09841 0.0
H2978 H 0.23169 0.42315 0.07612 0.0
H2979 H 0.20794 0.40335 0.93436 0.0
H2980 H 0.16146 0.38959 0.03454 0.0
H2981 H 0.17817 0.39344 0.01151 0.0
C2982 C 0.60051 0.77012 0.04392 0.0
C2983 C 0.59326 0.76101 0.06969 0.0
C2984 C 0.59826 0.7774 0.0282 0.0
C2985 C 0.58183 0.78605 0.08081 0.0
H2986 H 0.59454 0.80443 0.93096 0.0
C2987 C 0.58324 0.82332 0.07143 0.0
C2988 C 0.59287 0.83119 0.06387 0.0
C2989 C 0.58108 0.81374 0.05732 0.0
C2990 C 0.59088 0.79932 0.97275 0.0
H2991 H 0.57787 0.75227 0.09672 0.0
H2992 H 0.57397 0.76511 0.06981 0.0
H2993 H 0.59466 0.78899 0.93249 0.0
H2994 H 0.60764 0.83526 0.03222 0.0
H2995 H 0.60389 0.81862 0.00817 0.0
H2996 H 0.5785 0.79659 0.12292 0.0
C2997 C 0.58139 0.76657 0.06203 0.0
C2998 C 0.59095 0.7905 0.97364 0.0
C2999 C 0.58363 0.75923 0.07735 0.0
C3000 C 0.60017 0.82935 0.03921 0.0
C3001 C 0.598 0.81982 0.02462 0.0
C3002 C 0.58176 0.79487 0.07991 0.0
C3003 C 0.58872 0.77576 0.03806 0.0
C3004 C 0.58679 0.78397 0.02917 0.0
C3005 C 0.58848 0.81189 0.03459 0.0
C3006 C 0.58665 0.80176 0.02737 0.0
H3007 H 0.60798 0.77169 0.03686 0.0
H3008 H 0.60411 0.78445 0.01082 0.0
H3009 H 0.57862 0.78118 0.12448 0.0
H3010 H 0.57744 0.82452 0.08998 0.0
H3011 H 0.57367 0.80776 0.06517 0.0
C3012 C 0.17327 0.75861 0.07067 0.0
C3013 C 0.16548 0.76044 0.06102 0.0
C3014 C 0.18289 0.76584 0.05525 0.0
C3015 C 0.19748 0.78946 0.96331 0.0
H3016 H 0.21574 0.79606 0.11511 0.0
C3017 C 0.22663 0.82853 0.02735 0.0
C3018 C 0.23573 0.83052 0.05407 0.0
C3019 C 0.21942 0.81894 0.01253 0.0
C3020 C 0.21084 0.79419 0.07141 0.0
H3021 H 0.16159 0.77108 0.0245 0.0
H3022 H 0.17828 0.78365 0.99823 0.0
H3023 H 0.20024 0.78063 0.11721 0.0
H3024 H 0.24458 0.82408 0.08343 0.0
H3025 H 0.23184 0.80721 0.05829 0.0
H3026 H 0.20786 0.80328 0.91939 0.0
C3027 C 0.177 0.77664 0.01728 0.0
C3028 C 0.20196 0.78535 0.07262 0.0
C3029 C 0.16744 0.76947 0.03315 0.0
C3030 C 0.23761 0.82276 0.06322 0.0
C3031 C 0.23033 0.81312 0.04895 0.0
C3032 C 0.20635 0.79829 0.96211 0.0
C3033 C 0.18484 0.77497 0.02911 0.0
C3034 C 0.19502 0.78311 0.02005 0.0
C3035 C 0.22112 0.81112 0.0244 0.0
C3036 C 0.21292 0.80093 0.01761 0.0
H3037 H 0.17198 0.7517 0.09172 0.0
H3038 H 0.1888 0.76436 0.06462 0.0
H3039 H 0.19234 0.78782 0.92144 0.0
H3040 H 0.22499 0.83436 0.0191 0.0
H3041 H 0.21235 0.81762 0.99461 0.0
C3042 C 0.39505 0.16767 0.95797 0.0
C3043 C 0.4024 0.16583 0.93402 0.0
C3044 C 0.39722 0.17719 0.97289 0.0
C3045 C 0.41365 0.20221 0.91985 0.0
H3046 H 0.40046 0.20793 0.06606 0.0
C3047 C 0.41202 0.23797 0.92329 0.0
C3048 C 0.40239 0.23624 0.92986 0.0
C3049 C 0.41416 0.23057 0.93869 0.0
C3050 C 0.40425 0.20647 0.02525 0.0
H3051 H 0.41787 0.1725 0.90948 0.0
H3052 H 0.42163 0.18925 0.93489 0.0
H3053 H 0.40049 0.19245 0.06711 0.0
H3054 H 0.38757 0.22559 0.96092 0.0
H3055 H 0.39128 0.21271 0.98711 0.0
H3056 H 0.41698 0.216 0.87607 0.0
C3057 C 0.4142 0.18327 0.94192 0.0
C3058 C 0.40427 0.19762 0.02586 0.0
C3059 C 0.41204 0.1737 0.92747 0.0
C3060 C 0.39505 0.22713 0.95473 0.0
C3061 C 0.3972 0.21978 0.97052 0.0
C3062 C 0.41363 0.21107 0.91924 0.0
C3063 C 0.40677 0.18511 0.96398 0.0
C3064 C 0.40861 0.19524 0.97164 0.0
C3065 C 0.40673 0.22136 0.96165 0.0
C3066 C 0.40858 0.21309 0.97041 0.0
H3067 H 0.38757 0.16176 0.96419 0.0
H3068 H 0.3913 0.17838 0.98879 0.0
H3069 H 0.41701 0.20055 0.87714 0.0
H3070 H 0.41785 0.24495 0.90465 0.0
H3071 H 0.42158 0.23199 0.93172 0.0
C3072 C 0.82311 0.23841 0.92384 0.0
C3073 C 0.83105 0.23679 0.9327 0.0
C3074 C 0.81355 0.23094 0.93789 0.0
C3075 C 0.79929 0.20683 0.02443 0.0
H3076 H 0.78111 0.20061 0.87255 0.0
C3077 C 0.77006 0.16781 0.95662 0.0
C3078 C 0.76094 0.16592 0.93097 0.0
C3079 C 0.77736 0.17736 0.97141 0.0
C3080 C 0.78599 0.20235 0.91623 0.0
H3081 H 0.83524 0.22626 0.96652 0.0
H3082 H 0.81864 0.21328 0.99038 0.0
H3083 H 0.79647 0.21618 0.87311 0.0
H3084 H 0.75219 0.17255 0.90322 0.0
H3085 H 0.76507 0.18932 0.92849 0.0
H3086 H 0.78902 0.19277 0.06573 0.0
C3087 C 0.81977 0.22031 0.97301 0.0
C3088 C 0.79479 0.21128 0.91657 0.0
C3089 C 0.82928 0.22772 0.95853 0.0
C3090 C 0.75917 0.17378 0.92254 0.0
C3091 C 0.76653 0.18337 0.93689 0.0
C3092 C 0.7905 0.19791 0.02407 0.0
C3093 C 0.81179 0.22178 0.96182 0.0
C3094 C 0.80169 0.21342 0.96925 0.0
C3095 C 0.77574 0.18526 0.96067 0.0
C3096 C 0.78396 0.19542 0.96856 0.0
H3097 H 0.82425 0.24535 0.90435 0.0
H3098 H 0.80752 0.23227 0.9291 0.0
H3099 H 0.8044 0.20838 0.06636 0.0
H3100 H 0.77163 0.16192 0.96424 0.0
H3101 H 0.78443 0.1786 0.98872 0.0
C3102 C 0.8285 0.59997 0.96172 0.0
C3103 C 0.8305 0.59284 0.93546 0.0
C3104 C 0.81891 0.59761 0.97651 0.0
C3105 C 0.79405 0.58134 0.92004 0.0
H3106 H 0.78793 0.59347 0.07145 0.0
C3107 C 0.7583 0.58307 0.92681 0.0
C3108 C 0.76012 0.59269 0.93612 0.0
C3109 C 0.76561 0.58075 0.94095 0.0
C3110 C 0.7895 0.58996 0.0292 0.0
H3111 H 0.82405 0.57755 0.90638 0.0
H3112 H 0.80718 0.57344 0.93145 0.0
H3113 H 0.80345 0.59351 0.07123 0.0
H3114 H 0.77084 0.60729 0.97079 0.0
H3115 H 0.78354 0.60327 0.99503 0.0
H3116 H 0.78033 0.57826 0.87619 0.0
C3117 C 0.81308 0.58086 0.94051 0.0
C3118 C 0.79837 0.58999 0.02908 0.0
C3119 C 0.82272 0.58321 0.92627 0.0
C3120 C 0.76923 0.59983 0.96246 0.0
C3121 C 0.77648 0.5975 0.97714 0.0
C3122 C 0.78517 0.58132 0.92016 0.0
C3123 C 0.81109 0.58807 0.96508 0.0
C3124 C 0.8009 0.58606 0.97303 0.0
C3125 C 0.77481 0.58798 0.96555 0.0
C3126 C 0.78302 0.58601 0.97327 0.0
H3127 H 0.83433 0.60744 0.96996 0.0
H3128 H 0.8176 0.60336 0.99438 0.0
H3129 H 0.79583 0.5783 0.87599 0.0
H3130 H 0.75133 0.5774 0.90686 0.0
H3131 H 0.76414 0.57335 0.93177 0.0
C3132 C 0.83937 0.74591 0.41324 0.0
C3133 C 0.8315 0.73636 0.40255 0.0
C3134 C 0.84899 0.74809 0.40036 0.0
C3135 C 0.86359 0.73878 0.31248 0.0
H3136 H 0.88153 0.75034 0.46608 0.0
C3137 C 0.89312 0.72928 0.37599 0.0
C3138 C 0.9022 0.73649 0.4022 0.0
C3139 C 0.88573 0.73146 0.3627 0.0
C3140 C 0.87671 0.74732 0.42197 0.0
H3141 H 0.82749 0.72176 0.36699 0.0
H3142 H 0.8442 0.72556 0.34498 0.0
H3143 H 0.86603 0.7503 0.46617 0.0
H3144 H 0.91079 0.75174 0.43288 0.0
H3145 H 0.89774 0.75552 0.41028 0.0
H3146 H 0.87407 0.73537 0.2699 0.0
C3147 C 0.84297 0.73137 0.36295 0.0
C3148 C 0.86784 0.7473 0.42202 0.0
C3149 C 0.8334 0.72916 0.37633 0.0
C3150 C 0.90384 0.74602 0.41298 0.0
C3151 C 0.89639 0.74818 0.40018 0.0
C3152 C 0.87246 0.7388 0.31242 0.0
C3153 C 0.85088 0.74081 0.37572 0.0
C3154 C 0.86103 0.74267 0.36861 0.0
C3155 C 0.88723 0.74089 0.37554 0.0
C3156 C 0.87892 0.74271 0.3685 0.0
H3157 H 0.83813 0.75162 0.43314 0.0
H3158 H 0.85496 0.75544 0.41039 0.0
H3159 H 0.85855 0.73533 0.27 0.0
H3160 H 0.89165 0.72188 0.36658 0.0
H3161 H 0.8787 0.72563 0.34473 0.0
C3162 C 0.25047 0.0923 0.4177 0.0
C3163 C 0.25996 0.09387 0.40606 0.0
C3164 C 0.24833 0.09977 0.40459 0.0
C3165 C 0.25767 0.12359 0.31483 0.0
H3166 H 0.24625 0.1302 0.46807 0.0
C3167 C 0.26709 0.16272 0.37574 0.0
C3168 C 0.25988 0.16456 0.40242 0.0
C3169 C 0.26495 0.15315 0.3627 0.0
C3170 C 0.24923 0.12834 0.42407 0.0
H3171 H 0.2745 0.10431 0.36864 0.0
H3172 H 0.2708 0.11727 0.34639 0.0
H3173 H 0.24626 0.11473 0.4692 0.0
H3174 H 0.24465 0.15784 0.43383 0.0
H3175 H 0.24094 0.14104 0.41156 0.0
H3176 H 0.26107 0.13742 0.27132 0.0
C3177 C 0.26499 0.11029 0.36521 0.0
C3178 C 0.24924 0.11948 0.42471 0.0
C3179 C 0.26714 0.10289 0.37873 0.0
C3180 C 0.25038 0.15664 0.41358 0.0
C3181 C 0.24825 0.14704 0.40101 0.0
C3182 C 0.25767 0.13244 0.31421 0.0
C3183 C 0.2556 0.10887 0.37885 0.0
C3184 C 0.2538 0.1172 0.37138 0.0
C3185 C 0.25557 0.1452 0.37626 0.0
C3186 C 0.25379 0.13507 0.37008 0.0
H3187 H 0.24477 0.08541 0.43843 0.0
H3188 H 0.24102 0.09847 0.41528 0.0
H3189 H 0.26107 0.12192 0.27238 0.0
H3190 H 0.27447 0.16866 0.36605 0.0
H3191 H 0.27079 0.15197 0.34455 0.0
C3192 C 0.84017 0.09234 0.40562 0.0
C3193 C 0.83234 0.09414 0.3973 0.0
C3194 C 0.84976 0.09964 0.39037 0.0
C3195 C 0.86426 0.12356 0.30188 0.0
H3196 H 0.88244 0.1298 0.45374 0.0
C3197 C 0.89332 0.16252 0.3698 0.0
C3198 C 0.90243 0.16448 0.39597 0.0
C3199 C 0.8861 0.15295 0.35456 0.0
C3200 C 0.87756 0.12804 0.41002 0.0
H3201 H 0.82835 0.1048 0.36307 0.0
H3202 H 0.84501 0.1175 0.33707 0.0
H3203 H 0.86701 0.1143 0.4539 0.0
H3204 H 0.91127 0.15799 0.42419 0.0
H3205 H 0.89853 0.14116 0.39825 0.0
H3206 H 0.87459 0.13754 0.2599 0.0
C3207 C 0.84377 0.11045 0.35498 0.0
C3208 C 0.86872 0.11916 0.41011 0.0
C3209 C 0.83423 0.10321 0.37068 0.0
C3210 C 0.90429 0.15669 0.40447 0.0
C3211 C 0.89701 0.14708 0.3897 0.0
C3212 C 0.87309 0.13243 0.3018 0.0
C3213 C 0.85165 0.10881 0.36575 0.0
C3214 C 0.86181 0.11704 0.35754 0.0
C3215 C 0.88781 0.14511 0.36538 0.0
C3216 C 0.87963 0.13493 0.35738 0.0
H3217 H 0.83894 0.08539 0.42567 0.0
H3218 H 0.85571 0.09818 0.39887 0.0
H3219 H 0.85913 0.12201 0.26004 0.0
H3220 H 0.89168 0.16837 0.36205 0.0
H3221 H 0.87903 0.15166 0.33689 0.0
C3222 C 0.06356 0.56097 0.30091 0.0
C3223 C 0.07067 0.56995 0.2726 0.0
C3224 C 0.06582 0.55367 0.31558 0.0
C3225 C 0.08156 0.54458 0.25518 0.0
H3226 H 0.06966 0.52645 0.40746 0.0
C3227 C 0.07959 0.50701 0.26041 0.0
C3228 C 0.07 0.49922 0.27125 0.0
C3229 C 0.08197 0.51666 0.27455 0.0
C3230 C 0.07309 0.53148 0.36492 0.0
H3231 H 0.08586 0.57848 0.24028 0.0
H3232 H 0.08978 0.56559 0.26538 0.0
H3233 H 0.06984 0.54204 0.40816 0.0
H3234 H 0.05553 0.4954 0.30864 0.0
H3235 H 0.05965 0.51215 0.33279 0.0
H3236 H 0.08436 0.53382 0.21025 0.0
C3237 C 0.08245 0.56425 0.27595 0.0
C3238 C 0.07319 0.54039 0.36532 0.0
C3239 C 0.08021 0.57161 0.26174 0.0
C3240 C 0.06296 0.50123 0.29912 0.0
C3241 C 0.06535 0.51084 0.31373 0.0
C3242 C 0.08146 0.53566 0.25479 0.0
C3243 C 0.07522 0.55515 0.30206 0.0
C3244 C 0.07706 0.54684 0.30909 0.0
C3245 C 0.07483 0.51866 0.30059 0.0
C3246 C 0.07685 0.52886 0.30829 0.0
H3247 H 0.05617 0.55949 0.31047 0.0
H3248 H 0.06005 0.54669 0.33474 0.0
H3249 H 0.08453 0.54937 0.2109 0.0
H3250 H 0.08519 0.50568 0.23929 0.0
H3251 H 0.08934 0.52256 0.26421 0.0
C3252 C 0.49508 0.56056 0.29451 0.0
C3253 C 0.497 0.56954 0.26591 0.0
C3254 C 0.4855 0.55329 0.30895 0.0
C3255 C 0.46066 0.54426 0.24881 0.0
H3256 H 0.45436 0.52642 0.40306 0.0
C3257 C 0.4248 0.50695 0.25779 0.0
C3258 C 0.4265 0.49912 0.26939 0.0
C3259 C 0.43216 0.5166 0.27107 0.0
C3260 C 0.45599 0.53137 0.35996 0.0
H3261 H 0.4904 0.57809 0.23257 0.0
H3262 H 0.47357 0.56526 0.25729 0.0
H3263 H 0.46987 0.5419 0.40218 0.0
H3264 H 0.43705 0.49519 0.30735 0.0
H3265 H 0.44983 0.51192 0.33003 0.0
H3266 H 0.447 0.53352 0.20497 0.0
C3267 C 0.47952 0.56388 0.26826 0.0
C3268 C 0.46485 0.54022 0.35945 0.0
C3269 C 0.48915 0.57122 0.25424 0.0
C3270 C 0.43553 0.50107 0.29726 0.0
C3271 C 0.44283 0.51066 0.31102 0.0
C3272 C 0.45179 0.5354 0.24934 0.0
C3273 C 0.47761 0.5548 0.29496 0.0
C3274 C 0.46745 0.54655 0.30255 0.0
C3275 C 0.44129 0.51854 0.29699 0.0
C3276 C 0.44956 0.5287 0.3036 0.0
H3277 H 0.50097 0.55907 0.30467 0.0
H3278 H 0.48426 0.54631 0.32855 0.0
H3279 H 0.46249 0.54897 0.20406 0.0
H3280 H 0.41789 0.50567 0.23663 0.0
H3281 H 0.43077 0.52254 0.26008 0.0
C3282 C 0.48964 0.91964 0.23877 0.0
C3283 C 0.49799 0.92819 0.26184 0.0
C3284 C 0.48029 0.91834 0.25047 0.0
C3285 C 0.4692 0.93368 0.27634 0.0
H3286 H 0.44521 0.90934 0.31476 0.0
C3287 C 0.4339 0.93418 0.31232 0.0
C3288 C 0.42593 0.92744 0.27249 0.0
C3289 C 0.44193 0.9329 0.32273 0.0
C3290 C 0.45187 0.91616 0.30382 0.0
H3291 H 0.50315 0.94159 0.32062 0.0
H3292 H 0.48691 0.9392 0.34251 0.0
H3293 H 0.46093 0.90959 0.31209 0.0
H3294 H 0.41972 0.91372 0.21647 0.0
H3295 H 0.434 0.91162 0.23309 0.0
H3296 H 0.4603 0.94027 0.26678 0.0
C3297 C 0.48754 0.93367 0.31334 0.0
C3298 C 0.46083 0.91631 0.30225 0.0
C3299 C 0.49684 0.93504 0.30091 0.0
C3300 C 0.42582 0.91904 0.24714 0.0
C3301 C 0.43396 0.91782 0.25688 0.0
C3302 C 0.46032 0.93354 0.27801 0.0
C3303 C 0.47919 0.92551 0.28599 0.0
C3304 C 0.46959 0.9251 0.28896 0.0
C3305 C 0.44223 0.92495 0.29263 0.0
C3306 C 0.45156 0.92482 0.29225 0.0
H3307 H 0.49035 0.91423 0.20877 0.0
H3308 H 0.47398 0.91198 0.22868 0.0
H3309 H 0.47576 0.94051 0.2638 0.0
H3310 H 0.43407 0.94062 0.33369 0.0
H3311 H 0.44809 0.93838 0.35204 0.0
C3312 C 0.56085 0.06223 0.69265 0.0
C3313 C 0.56884 0.06907 0.73176 0.0
C3314 C 0.55285 0.06352 0.6811 0.0
C3315 C 0.54321 0.08062 0.69608 0.0
H3316 H 0.51899 0.05645 0.73288 0.0
C3317 C 0.50544 0.07742 0.75749 0.0
C3318 C 0.49713 0.06902 0.73217 0.0
C3319 C 0.5148 0.0787 0.7467 0.0
C3320 C 0.52566 0.06323 0.7213 0.0
H3321 H 0.5751 0.08296 0.78565 0.0
H3322 H 0.56088 0.08509 0.76732 0.0
H3323 H 0.53433 0.05642 0.73274 0.0
H3324 H 0.49209 0.05591 0.67019 0.0
H3325 H 0.50835 0.05825 0.65017 0.0
H3326 H 0.53436 0.08742 0.68636 0.0
C3327 C 0.56088 0.0788 0.7448 0.0
C3328 C 0.53447 0.06322 0.72116 0.0
C3329 C 0.56898 0.07756 0.75557 0.0
C3330 C 0.49836 0.06234 0.69163 0.0
C3331 C 0.50766 0.06367 0.68022 0.0
C3332 C 0.53432 0.08063 0.69632 0.0
C3333 C 0.5526 0.0716 0.70945 0.0
C3334 C 0.54334 0.07187 0.70805 0.0
C3335 C 0.51594 0.07164 0.70993 0.0
C3336 C 0.52546 0.0719 0.70844 0.0
H3337 H 0.56066 0.05572 0.67243 0.0
H3338 H 0.54669 0.05799 0.65202 0.0
H3339 H 0.54995 0.0874 0.68592 0.0
H3340 H 0.50466 0.0827 0.78864 0.0
H3341 H 0.52105 0.08491 0.77024 0.0
C3342 C 0.93255 0.43664 0.69759 0.0
C3343 C 0.92548 0.4276 0.72536 0.0
C3344 C 0.93025 0.44394 0.68409 0.0
C3345 C 0.91451 0.4529 0.74665 0.0
H3346 H 0.92619 0.47113 0.59465 0.0
C3347 C 0.91632 0.49043 0.74326 0.0
C3348 C 0.92589 0.49824 0.73203 0.0
C3349 C 0.91397 0.48079 0.72908 0.0
C3350 C 0.92282 0.46607 0.63713 0.0
H3351 H 0.91032 0.41898 0.75812 0.0
H3352 H 0.90633 0.43188 0.73511 0.0
H3353 H 0.92606 0.45557 0.59274 0.0
H3354 H 0.94034 0.50212 0.69408 0.0
H3355 H 0.93627 0.48538 0.66982 0.0
H3356 H 0.91172 0.46361 0.79268 0.0
C3357 C 0.91366 0.43326 0.724 0.0
C3358 C 0.92275 0.45718 0.63603 0.0
C3359 C 0.91594 0.42589 0.73702 0.0
C3360 C 0.93293 0.49626 0.7039 0.0
C3361 C 0.93057 0.48667 0.68922 0.0
C3362 C 0.91458 0.4618 0.74774 0.0
C3363 C 0.92084 0.44241 0.69827 0.0
C3364 C 0.91896 0.45069 0.69212 0.0
C3365 C 0.92111 0.47882 0.70258 0.0
C3366 C 0.91911 0.46864 0.69433 0.0
H3367 H 0.93995 0.43816 0.68746 0.0
H3368 H 0.936 0.45096 0.66521 0.0
H3369 H 0.9116 0.44807 0.79081 0.0
H3370 H 0.91072 0.49174 0.76461 0.0
H3371 H 0.90662 0.47487 0.73962 0.0
C3372 C 0.56045 0.49705 0.70624 0.0
C3373 C 0.56948 0.49895 0.73382 0.0
C3374 C 0.55316 0.48748 0.69173 0.0
C3375 C 0.54425 0.46257 0.75009 0.0
H3376 H 0.52621 0.4564 0.59732 0.0
C3377 C 0.5071 0.42654 0.74057 0.0
C3378 C 0.49918 0.42815 0.72985 0.0
C3379 C 0.5167 0.434 0.7274 0.0
C3380 C 0.53122 0.45799 0.64001 0.0
H3381 H 0.57809 0.49233 0.7653 0.0
H3382 H 0.56522 0.47552 0.74045 0.0
H3383 H 0.54165 0.47195 0.59823 0.0
H3384 H 0.49509 0.43865 0.69366 0.0
H3385 H 0.51176 0.45161 0.67124 0.0
H3386 H 0.53361 0.44883 0.79352 0.0
C3387 C 0.56383 0.48147 0.73034 0.0
C3388 C 0.54004 0.46688 0.64054 0.0
C3389 C 0.57118 0.49109 0.74443 0.0
C3390 C 0.50102 0.4372 0.70305 0.0
C3391 C 0.51058 0.4446 0.68943 0.0
C3392 C 0.53542 0.45367 0.74956 0.0
C3393 C 0.5547 0.47958 0.70464 0.0
C3394 C 0.54646 0.46942 0.69692 0.0
C3395 C 0.51853 0.44314 0.70251 0.0
C3396 C 0.52865 0.45148 0.69585 0.0
H3397 H 0.55894 0.50295 0.69691 0.0
H3398 H 0.54616 0.48625 0.67292 0.0
H3399 H 0.54902 0.46435 0.79446 0.0
H3400 H 0.5059 0.41962 0.76087 0.0
H3401 H 0.5227 0.43267 0.73763 0.0
C3402 C 0.74503 0.84007 0.58054 0.0
C3403 C 0.73549 0.83218 0.59095 0.0
C3404 C 0.74723 0.84967 0.59453 0.0
C3405 C 0.73791 0.86415 0.68428 0.0
H3406 H 0.74959 0.88231 0.53195 0.0
C3407 C 0.72859 0.89388 0.62294 0.0
C3408 C 0.73581 0.90295 0.59657 0.0
C3409 C 0.73074 0.88647 0.63618 0.0
C3410 C 0.74654 0.87744 0.57573 0.0
H3411 H 0.7209 0.8281 0.62722 0.0
H3412 H 0.72471 0.84478 0.65104 0.0
H3413 H 0.74949 0.86679 0.53052 0.0
H3414 H 0.75107 0.91151 0.56588 0.0
H3415 H 0.7548 0.89843 0.58846 0.0
H3416 H 0.73454 0.8746 0.72785 0.0
C3417 C 0.73051 0.84358 0.63248 0.0
C3418 C 0.74648 0.86854 0.57491 0.0
C3419 C 0.7283 0.83403 0.61807 0.0
C3420 C 0.74534 0.90457 0.58585 0.0
C3421 C 0.74747 0.8971 0.59864 0.0
C3422 C 0.73797 0.87303 0.68511 0.0
C3423 C 0.73995 0.85151 0.61991 0.0
C3424 C 0.74182 0.86165 0.62785 0.0
C3425 C 0.74015 0.88793 0.62316 0.0
C3426 C 0.74193 0.87959 0.62951 0.0
H3427 H 0.75074 0.83887 0.56003 0.0
H3428 H 0.75457 0.85565 0.58468 0.0
H3429 H 0.73444 0.85905 0.72641 0.0
H3430 H 0.7212 0.89242 0.63232 0.0
H3431 H 0.7249 0.87944 0.65409 0.0
C3432 C 0.0909 0.84044 0.60233 0.0
C3433 C 0.09269 0.83264 0.61338 0.0
C3434 C 0.09816 0.85008 0.61678 0.0
C3435 C 0.12199 0.86492 0.70613 0.0
H3436 H 0.12832 0.88253 0.55051 0.0
C3437 C 0.161 0.89384 0.63662 0.0
C3438 C 0.16293 0.90283 0.60802 0.0
C3439 C 0.15143 0.88667 0.65256 0.0
C3440 C 0.12654 0.87782 0.59522 0.0
H3441 H 0.10325 0.82878 0.65197 0.0
H3442 H 0.11587 0.84551 0.67653 0.0
H3443 H 0.11285 0.86709 0.55187 0.0
H3444 H 0.15639 0.9115 0.5764 0.0
H3445 H 0.13958 0.89883 0.60359 0.0
H3446 H 0.13594 0.87543 0.74763 0.0
C3447 C 0.10887 0.84422 0.65708 0.0
C3448 C 0.11767 0.86897 0.59602 0.0
C3449 C 0.10167 0.83462 0.64223 0.0
C3450 C 0.15512 0.90463 0.59802 0.0
C3451 C 0.14551 0.89738 0.61348 0.0
C3452 C 0.13086 0.87376 0.7053 0.0
C3453 C 0.10728 0.85207 0.64327 0.0
C3454 C 0.1155 0.86225 0.65009 0.0
C3455 C 0.14357 0.88829 0.64002 0.0
C3456 C 0.1334 0.8801 0.64845 0.0
H3457 H 0.08402 0.83913 0.58052 0.0
H3458 H 0.09672 0.85599 0.60601 0.0
H3459 H 0.12042 0.85996 0.74911 0.0
H3460 H 0.16686 0.89227 0.64556 0.0
H3461 H 0.15017 0.87968 0.67201 0.0
C3462 C 0.1637 0.26775 0.64875 0.0
C3463 C 0.16501 0.26095 0.6103 0.0
C3464 C 0.15439 0.2665 0.65784 0.0
C3465 C 0.12776 0.24972 0.63829 0.0
H3466 H 0.12822 0.274 0.59511 0.0
C3467 C 0.09345 0.2533 0.57393 0.0
C3468 C 0.09371 0.26187 0.59741 0.0
C3469 C 0.10149 0.25196 0.58472 0.0
C3470 C 0.12795 0.26719 0.6084 0.0
H3471 H 0.15758 0.24713 0.55537 0.0
H3472 H 0.14117 0.24505 0.56974 0.0
H3473 H 0.14343 0.27373 0.59872 0.0
H3474 H 0.10209 0.27527 0.6559 0.0
H3475 H 0.11594 0.27283 0.67601 0.0
H3476 H 0.11212 0.24319 0.64683 0.0
C3477 C 0.14738 0.25129 0.59344 0.0
C3478 C 0.13668 0.26703 0.61047 0.0
C3479 C 0.15675 0.2525 0.58501 0.0
C3480 C 0.10179 0.26871 0.63587 0.0
C3481 C 0.10973 0.26731 0.6473 0.0
C3482 C 0.11894 0.24988 0.63629 0.0
C3483 C 0.14618 0.25849 0.62777 0.0
C3484 C 0.13672 0.25835 0.62611 0.0
C3485 C 0.10983 0.25912 0.61964 0.0
C3486 C 0.11899 0.25866 0.62199 0.0
H3487 H 0.16994 0.27423 0.67003 0.0
H3488 H 0.15365 0.27203 0.68609 0.0
H3489 H 0.12759 0.24292 0.65027 0.0
H3490 H 0.08726 0.2479 0.5444 0.0
H3491 H 0.10138 0.24558 0.56277 0.0
C3492 C 0.09172 0.29598 0.76266 0.0
C3493 C 0.09158 0.29649 0.69053 0.0
C3494 C 0.09785 0.30433 0.80122 0.0
C3495 C 0.11831 0.33037 0.78476 0.0
H3496 H 0.10677 0.33366 0.95189 0.0
C3497 C 0.1273 0.36738 0.9106 0.0
C3498 C 0.12866 0.36804 0.9824 0.0
C3499 C 0.12462 0.35859 0.87634 0.0
C3500 C 0.11014 0.33278 0.90575 0.0
H3501 H 0.09784 0.30603 0.6019 0.0
H3502 H 0.10812 0.32063 0.6687 0.0
H3503 H 0.09848 0.31816 0.8906 0.0
H3504 H 0.12872 0.36014 0.07409 0.0
H3505 H 0.12382 0.34477 0.01424 0.0
H3506 H 0.12965 0.34533 0.79846 0.0
C3507 C 0.10382 0.31378 0.69599 0.0
C3508 C 0.10543 0.32387 0.87074 0.0
C3509 C 0.09785 0.3054 0.65752 0.0
C3510 C 0.12772 0.35988 0.01873 0.0
C3511 C 0.12489 0.35107 0.98469 0.0
C3512 C 0.12292 0.33936 0.81918 0.0
C3513 C 0.1038 0.3134 0.76843 0.0
C3514 C 0.10938 0.32257 0.80922 0.0
C3515 C 0.12313 0.3503 0.91354 0.0
C3516 C 0.1188 0.34065 0.87955 0.0
H3517 H 0.08702 0.28916 0.78927 0.0
H3518 H 0.0978 0.30369 0.8568 0.0
H3519 H 0.12169 0.32959 0.73842 0.0
H3520 H 0.12803 0.37356 0.88124 0.0
H3521 H 0.12324 0.35812 0.82137 0.0
C3522 C 0.62965 0.75882 0.91345 0.0
C3523 C 0.62922 0.75961 0.98537 0.0
C3524 C 0.63834 0.76485 0.87781 0.0
C3525 C 0.66427 0.77625 0.90212 0.0
H3526 H 0.66685 0.79118 0.73679 0.0
C3527 C 0.7008 0.79541 0.75607 0.0
C3528 C 0.70024 0.79499 0.68389 0.0
C3529 C 0.69246 0.79296 0.79547 0.0
C3530 C 0.66625 0.78696 0.78248 0.0
H3531 H 0.63745 0.76759 0.07595 0.0
H3532 H 0.65265 0.77791 0.01369 0.0
H3533 H 0.65127 0.78315 0.79893 0.0
H3534 H 0.69062 0.79192 0.59608 0.0
H3535 H 0.67601 0.78718 0.6643 0.0
H3536 H 0.67891 0.77942 0.88431 0.0
C3537 C 0.64624 0.77268 0.9851 0.0
C3538 C 0.65734 0.78243 0.81813 0.0
C3539 C 0.63753 0.76679 0.02053 0.0
C3540 C 0.69128 0.79237 0.65173 0.0
C3541 C 0.6829 0.78971 0.69103 0.0
C3542 C 0.6731 0.78059 0.86587 0.0
C3543 C 0.64676 0.77164 0.91371 0.0
C3544 C 0.65628 0.77699 0.87793 0.0
C3545 C 0.68333 0.7898 0.7635 0.0
C3546 C 0.67419 0.78593 0.80513 0.0
H3547 H 0.62334 0.75339 0.88499 0.0
H3548 H 0.63861 0.7639 0.82269 0.0
H3549 H 0.66357 0.77198 0.94776 0.0
H3550 H 0.70766 0.79752 0.78207 0.0
H3551 H 0.69315 0.79338 0.85104 0.0
C3552 C 0.20218 0.89707 0.65788 0.0
C3553 C 0.19994 0.90366 0.69044 0.0
C3554 C 0.20474 0.89124 0.69678 0.0
C3555 C 0.21429 0.89057 0.87015 0.0
H3556 H 0.21107 0.86593 0.80278 0.0
C3557 C 0.22849 0.86868 0.01951 0.0
C3558 C 0.23556 0.86762 0.9822 0.0
C3559 C 0.22241 0.87145 0.9861 0.0
C3560 C 0.21195 0.87278 0.82216 0.0
H3561 H 0.19794 0.90888 0.78896 0.0
H3562 H 0.20189 0.89832 0.85731 0.0
H3563 H 0.20301 0.87363 0.74268 0.0
H3564 H 0.24139 0.86802 0.88024 0.0
H3565 H 0.23054 0.87266 0.82153 0.0
H3566 H 0.22311 0.88959 0.95016 0.0
C3567 C 0.20211 0.89793 0.80169 0.0
C3568 C 0.20742 0.87724 0.78764 0.0
C3569 C 0.19977 0.90394 0.76266 0.0
C3570 C 0.23604 0.86884 0.91028 0.0
C3571 C 0.22982 0.87143 0.87669 0.0
C3572 C 0.21863 0.886 0.90536 0.0
C3573 C 0.20491 0.89171 0.76926 0.0
C3574 C 0.20871 0.88632 0.81027 0.0
C3575 C 0.22314 0.87301 0.91467 0.0
C3576 C 0.21766 0.87718 0.88089 0.0
H3577 H 0.20244 0.89676 0.60217 0.0
H3578 H 0.20701 0.88669 0.66964 0.0
H3579 H 0.21567 0.89763 0.88856 0.0
H3580 H 0.22794 0.86781 0.07501 0.0
H3581 H 0.21728 0.87261 0.01627 0.0
C3582 C 0.30348 0.09869 0.33598 0.0
C3583 C 0.29458 0.09206 0.30419 0.0
C3584 C 0.31173 0.10465 0.29644 0.0
C3585 C 0.32174 0.10562 0.12251 0.0
H3586 H 0.34296 0.13033 0.19045 0.0
C3587 C 0.35791 0.12766 0.97496 0.0
C3588 C 0.36604 0.12882 0.01281 0.0
C3589 C 0.34902 0.12485 0.00782 0.0
C3590 C 0.33706 0.12346 0.17091 0.0
H3591 H 0.28716 0.08687 0.20627 0.0
H3592 H 0.30148 0.09762 0.13674 0.0
H3593 H 0.32719 0.12249 0.25016 0.0
H3594 H 0.37142 0.12854 0.11519 0.0
H3595 H 0.35584 0.12379 0.17299 0.0
H3596 H 0.33164 0.10671 0.04284 0.0
C3597 C 0.3022 0.09796 0.19231 0.0
C3598 C 0.32805 0.11893 0.20516 0.0
C3599 C 0.29397 0.09184 0.23201 0.0
C3600 C 0.36526 0.12765 0.08474 0.0
C3601 C 0.35639 0.125 0.11778 0.0
C3602 C 0.33067 0.11026 0.08758 0.0
C3603 C 0.31126 0.10426 0.22403 0.0
C3604 C 0.32035 0.1098 0.18247 0.0
C3605 C 0.34815 0.12333 0.07923 0.0
C3606 C 0.33845 0.11909 0.11239 0.0
H3607 H 0.3042 0.09897 0.3916 0.0
H3608 H 0.31858 0.10923 0.32299 0.0
H3609 H 0.31611 0.09853 0.10404 0.0
H3610 H 0.35826 0.1285 0.91943 0.0
H3611 H 0.34275 0.12363 0.97723 0.0
C3612 C 0.8695 0.23892 0.09173 0.0
C3613 C 0.86793 0.238 0.02013 0.0
C3614 C 0.87204 0.23274 0.12673 0.0
C3615 C 0.88584 0.2207 0.09835 0.0
H3616 H 0.87388 0.20586 0.26469 0.0
C3617 C 0.90304 0.20084 0.23669 0.0
C3618 C 0.90324 0.20132 0.30887 0.0
C3619 C 0.89708 0.2034 0.19927 0.0
C3620 C 0.87738 0.21005 0.21867 0.0
H3621 H 0.86739 0.22959 0.92966 0.0
H3622 H 0.87206 0.21904 0.99068 0.0
H3623 H 0.86644 0.21426 0.20576 0.0
H3624 H 0.89723 0.20461 0.39885 0.0
H3625 H 0.88725 0.20954 0.33404 0.0
H3626 H 0.89711 0.21714 0.11257 0.0
C3627 C 0.87125 0.22449 0.01953 0.0
C3628 C 0.87307 0.21479 0.18491 0.0
C3629 C 0.86856 0.23053 0.98481 0.0
C3630 C 0.89715 0.20409 0.34313 0.0
C3631 C 0.89137 0.20687 0.3058 0.0
C3632 C 0.89026 0.21615 0.1327 0.0
C3633 C 0.87319 0.22567 0.09041 0.0
C3634 C 0.87731 0.22019 0.12475 0.0
C3635 C 0.89139 0.20674 0.23329 0.0
C3636 C 0.88615 0.21082 0.19371 0.0
H3637 H 0.86901 0.24457 0.12034 0.0
H3638 H 0.87356 0.2338 0.18148 0.0
H3639 H 0.8893 0.22493 0.05235 0.0
H3640 H 0.9076 0.19862 0.20916 0.0
H3641 H 0.8971 0.20296 0.1436 0.0
C3642 C 0.76718 0.63745 0.98105 0.0
C3643 C 0.76001 0.62935 0.01811 0.0
C3644 C 0.77322 0.6463 0.01441 0.0
C3645 C 0.78331 0.65823 0.17853 0.0
H3646 H 0.77981 0.67931 0.10784 0.0
C3647 C 0.79242 0.69229 0.33966 0.0
C3648 C 0.79486 0.70115 0.30656 0.0
C3649 C 0.79002 0.68391 0.30128 0.0
C3650 C 0.78112 0.67364 0.12745 0.0
H3651 H 0.754 0.62397 0.11979 0.0
H3652 H 0.76477 0.63949 0.17848 0.0
H3653 H 0.77248 0.66374 0.04734 0.0
H3654 H 0.7973 0.70839 0.20767 0.0
H3655 H 0.79356 0.69385 0.14024 0.0
H3656 H 0.79205 0.6681 0.25818 0.0
C3657 C 0.76559 0.63894 0.12348 0.0
C3658 C 0.77685 0.66469 0.0929 0.0
C3659 C 0.75941 0.63011 0.0899 0.0
C3660 C 0.79533 0.7016 0.23436 0.0
C3661 C 0.79312 0.69325 0.19587 0.0
C3662 C 0.78777 0.66727 0.21243 0.0
C3663 C 0.77234 0.64717 0.08559 0.0
C3664 C 0.77774 0.65686 0.11892 0.0
C3665 C 0.79018 0.68422 0.22881 0.0
C3666 C 0.78654 0.67502 0.18826 0.0
H3667 H 0.76783 0.63712 0.92567 0.0
H3668 H 0.7784 0.65256 0.98433 0.0
H3669 H 0.78414 0.65229 0.19907 0.0
H3670 H 0.79192 0.69171 0.39533 0.0
H3671 H 0.78762 0.6771 0.32873 0.0
C3672 C 0.90334 0.7017 0.23442 0.0
C3673 C 0.90349 0.70123 0.30657 0.0
C3674 C 0.89719 0.69334 0.19604 0.0
C3675 C 0.87683 0.66724 0.21293 0.0
H3676 H 0.88857 0.66398 0.04669 0.0
C3677 C 0.86844 0.63027 0.08945 0.0
C3678 C 0.86709 0.62951 0.01765 0.0
C3679 C 0.87097 0.63906 0.12316 0.0
C3680 C 0.88515 0.66484 0.09255 0.0
H3681 H 0.89719 0.69175 0.39543 0.0
H3682 H 0.88688 0.67712 0.32896 0.0
H3683 H 0.89668 0.67953 0.10735 0.0
H3684 H 0.8669 0.63724 0.92534 0.0
H3685 H 0.87156 0.65262 0.98422 0.0
H3686 H 0.86563 0.6522 0.19966 0.0
C3687 C 0.89119 0.68395 0.3015 0.0
C3688 C 0.88975 0.67379 0.12721 0.0
C3689 C 0.89717 0.69235 0.33979 0.0
C3690 C 0.8679 0.63757 0.98072 0.0
C3691 C 0.87059 0.64639 0.01421 0.0
C3692 C 0.87233 0.65821 0.17888 0.0
C3693 C 0.89124 0.68428 0.22903 0.0
C3694 C 0.88574 0.67508 0.18844 0.0
C3695 C 0.87233 0.64726 0.08539 0.0
C3696 C 0.87652 0.65693 0.11885 0.0
H3697 H 0.90806 0.7085 0.20765 0.0
H3698 H 0.89726 0.69395 0.14044 0.0
H3699 H 0.8734 0.668 0.25903 0.0
H3700 H 0.8678 0.62416 0.11925 0.0
H3701 H 0.87235 0.63961 0.17815 0.0
C3702 C 0.36617 0.23897 0.08359 0.0
C3703 C 0.36657 0.23817 0.01165 0.0
C3704 C 0.35745 0.23302 0.11927 0.0
C3705 C 0.33155 0.22195 0.09606 0.0
H3706 H 0.32874 0.2063 0.25779 0.0
C3707 C 0.29483 0.20216 0.23937 0.0
C3708 C 0.29526 0.20219 0.31158 0.0
C3709 C 0.30324 0.20483 0.2002 0.0
C3710 C 0.32941 0.21072 0.21317 0.0
H3711 H 0.35825 0.23031 0.92102 0.0
H3712 H 0.34301 0.22016 0.98335 0.0
H3713 H 0.34436 0.21447 0.19624 0.0
H3714 H 0.30474 0.20481 0.39963 0.0
H3715 H 0.31946 0.20992 0.33193 0.0
H3716 H 0.31693 0.21881 0.11438 0.0
C3717 C 0.34946 0.22531 0.01193 0.0
C3718 C 0.33834 0.21534 0.17786 0.0
C3719 C 0.35819 0.2311 0.97647 0.0
C3720 C 0.30417 0.20465 0.34393 0.0
C3721 C 0.31262 0.20753 0.30491 0.0
C3722 C 0.32271 0.21752 0.13203 0.0
C3723 C 0.34898 0.22633 0.08337 0.0
C3724 C 0.33948 0.22102 0.11926 0.0
C3725 C 0.31231 0.20782 0.23249 0.0
C3726 C 0.32152 0.21189 0.19141 0.0
H3727 H 0.37253 0.24432 0.11203 0.0
H3728 H 0.35721 0.23395 0.17444 0.0
H3729 H 0.33232 0.2264 0.05135 0.0
H3730 H 0.28801 0.20018 0.21318 0.0
H3731 H 0.30263 0.2047 0.14458 0.0
C3732 C 0.76544 0.12608 0.98713 0.0
C3733 C 0.75902 0.12856 0.01971 0.0
C3734 C 0.77118 0.12341 0.02601 0.0
C3735 C 0.77192 0.11407 0.19996 0.0
H3736 H 0.79641 0.11697 0.1322 0.0
C3737 C 0.79405 0.10047 0.35227 0.0
C3738 C 0.79507 0.09324 0.31678 0.0
C3739 C 0.79119 0.10637 0.31734 0.0
C3740 C 0.7896 0.11616 0.15162 0.0
H3741 H 0.754 0.13083 0.11824 0.0
H3742 H 0.76442 0.12668 0.18655 0.0
H3743 H 0.78874 0.12497 0.07121 0.0
H3744 H 0.7945 0.08695 0.21629 0.0
H3745 H 0.78969 0.09748 0.15483 0.0
H3746 H 0.77293 0.1054 0.28101 0.0
C3747 C 0.76474 0.12637 0.13093 0.0
C3748 C 0.78515 0.12067 0.11663 0.0
C3749 C 0.75881 0.12883 0.09193 0.0
C3750 C 0.79372 0.09242 0.24498 0.0
C3751 C 0.79102 0.09846 0.20982 0.0
C3752 C 0.77647 0.10975 0.23561 0.0
C3753 C 0.7708 0.12337 0.09849 0.0
C3754 C 0.77614 0.11952 0.13955 0.0
C3755 C 0.78949 0.10529 0.24613 0.0
C3756 C 0.78525 0.11062 0.21108 0.0
H3757 H 0.76569 0.12574 0.93144 0.0
H3758 H 0.7756 0.12099 -0.0011 0.0
H3759 H 0.7649 0.1128 0.21859 0.0
H3760 H 0.79504 0.10129 0.40761 0.0
H3761 H 0.79008 0.11162 0.34621 0.0
C3762 C 0.70135 0.90496 0.76568 0.0
C3763 C 0.70086 0.90472 0.69346 0.0
C3764 C 0.69304 0.8989 0.80484 0.0
C3765 C 0.66712 0.87811 0.79061 0.0
H3766 H 0.66353 0.89039 0.95253 0.0
C3767 C 0.62991 0.86947 0.91145 0.0
C3768 C 0.62916 0.86825 0.98336 0.0
C3769 C 0.63876 0.87213 0.87811 0.0
C3770 C 0.66449 0.88683 0.90786 0.0
H3771 H 0.69137 0.89786 0.60541 0.0
H3772 H 0.67683 0.88772 0.67308 0.0
H3773 H 0.67909 0.8985 0.89175 0.0
H3774 H 0.63697 0.8685 0.07636 0.0
H3775 H 0.65245 0.8734 0.01809 0.0
H3776 H 0.65218 0.86675 0.80503 0.0
C3777 C 0.68365 0.89226 0.70009 0.0
C3778 C 0.67344 0.89143 0.87319 0.0
C3779 C 0.692 0.89814 0.66109 0.0
C3780 C 0.6373 0.86938 0.02087 0.0
C3781 C 0.64617 0.8722 0.98773 0.0
C3782 C 0.65809 0.87361 0.8246 0.0
C3783 C 0.68401 0.89266 0.77252 0.0
C3784 C 0.67484 0.8872 0.81348 0.0
C3785 C 0.64702 0.87377 0.91637 0.0
C3786 C 0.6567 0.878 0.88303 0.0
H3787 H 0.70814 0.90989 0.79185 0.0
H3788 H 0.69367 0.89926 0.86047 0.0
H3789 H 0.66798 0.87452 0.74578 0.0
H3790 H 0.62374 0.8686 0.88125 0.0
H3791 H 0.6393 0.87337 0.82295 0.0
C3792 C 0.13094 0.76874 0.00033 0.0
C3793 C 0.12867 0.75964 0.97172 0.0
C3794 C 0.12832 0.7749 0.96625 0.0
C3795 C 0.1196 0.77913 0.79911 0.0
H3796 H 0.10629 0.78899 0.91435 0.0
C3797 C 0.08819 0.79033 0.76494 0.0
C3798 C 0.09136 0.79568 0.70316 0.0
C3799 C 0.09435 0.78791 0.80111 0.0
C3800 C 0.11 0.7863 0.88152 0.0
H3801 H 0.12239 0.75014 0.88284 0.0
H3802 H 0.11771 0.76082 0.82389 0.0
H3803 H 0.11439 0.78089 0.9674 0.0
H3804 H 0.10373 0.80331 0.63372 0.0
H3805 H 0.1145 0.79918 0.6974 0.0
H3806 H 0.11477 0.78407 0.71301 0.0
C3807 C 0.12158 0.76323 0.87246 0.0
C3808 C 0.11474 0.78177 0.91192 0.0
C3809 C 0.12422 0.75708 0.90647 0.0
C3810 C 0.10101 0.79905 0.68063 0.0
C3811 C 0.10718 0.79666 0.71692 0.0
C3812 C 0.11485 0.78365 0.76871 0.0
C3813 C 0.12338 0.77209 0.90281 0.0
C3814 C 0.11942 0.77795 0.87094 0.0
C3815 C 0.10382 0.79082 0.77646 0.0
C3816 C 0.10982 0.78711 0.8095 0.0
H3817 H 0.13447 0.77099 0.05019 0.0
H3818 H 0.12997 0.78176 0.99034 0.0
H3819 H 0.12323 0.77637 0.76623 0.0
H3820 H 0.08081 0.78765 0.78383 0.0
H3821 H 0.09151 0.78333 0.84653 0.0
C3822 C 0.23942 0.3667 0.9042 0.0
C3823 C 0.23678 0.36863 0.969 0.0
C3824 C 0.23305 0.35817 0.86837 0.0
C3825 C 0.21334 0.33317 0.90359 0.0
H3826 H 0.2129 0.33123 0.70433 0.0
C3827 C 0.20604 0.29827 0.76167 0.0
C3828 C 0.20146 0.29615 0.69685 0.0
C3829 C 0.20805 0.30682 0.79656 0.0
C3830 C 0.21276 0.33163 0.76001 0.0
H3831 H 0.22507 0.36351 0.04454 0.0
H3832 H 0.2139 0.3487 0.9814 0.0
H3833 H 0.22044 0.3473 0.75854 0.0
H3834 H 0.19479 0.30101 0.62 0.0
H3835 H 0.19819 0.31587 0.68147 0.0
H3836 H 0.20573 0.31749 0.90509 0.0
C3837 C 0.22099 0.35366 0.95914 0.0
C3838 C 0.2172 0.34085 0.79107 0.0
C3839 C 0.22738 0.36216 0.99516 0.0
C3840 C 0.19845 0.30249 0.66945 0.0
C3841 C 0.20043 0.31103 0.70452 0.0
C3842 C 0.20886 0.32394 0.87254 0.0
C3843 C 0.22387 0.35143 0.89632 0.0
C3844 C 0.2178 0.34173 0.86321 0.0
C3845 C 0.20547 0.31341 0.76764 0.0
C3846 C 0.20879 0.32308 0.80046 0.0
H3847 H 0.24659 0.37154 0.88241 0.0
H3848 H 0.23555 0.35664 0.82045 0.0
H3849 H 0.21373 0.33357 0.95932 0.0
H3850 H 0.20842 0.29352 0.78436 0.0
H3851 H 0.21204 0.30848 0.84472 0.0
C3852 C 0.0281 0.46581 0.34093 0.0
C3853 C 0.0345 0.46271 0.36582 0.0
C3854 C 0.01954 0.46353 0.37675 0.0
C3855 C 0.0065 0.45398 0.54313 0.0
H3856 H 0.98326 0.44303 0.42807 0.0
C3857 C 0.96335 0.42402 0.57106 0.0
C3858 C 0.96138 0.4267 0.63561 0.0
C3859 C 0.97205 0.43023 0.53637 0.0
C3860 C 0.98968 0.44608 0.46089 0.0
H3861 H 0.03721 0.4553 0.45003 0.0
H3862 H 0.0222 0.45118 0.51182 0.0
H3863 H -0.0006 0.45077 0.37456 0.0
H3864 H 0.96669 0.43831 0.71203 0.0
H3865 H 0.98181 0.44918 0.65095 0.0
H3866 H 0.99677 0.4488 0.62938 0.0
C3867 C 0.02383 0.45546 0.46497 0.0
C3868 C -0.00106 0.45063 0.43028 0.0
C3869 C 0.03243 0.45777 0.42929 0.0
C3870 C 0.96804 0.43597 0.66277 0.0
C3871 C 0.97673 0.44219 0.62797 0.0
C3872 C 0.99724 0.44942 0.57375 0.0
C3873 C 0.01717 0.45809 0.43815 0.0
C3874 C 0.00745 0.45443 0.47103 0.0
C3875 C 0.97895 0.43927 0.56529 0.0
C3876 C 0.98873 0.44522 0.53291 0.0
H3877 H 0.02955 0.46975 0.29262 0.0
H3878 H 0.01465 0.46582 0.35546 0.0
H3879 H 0.01292 0.45695 0.57594 0.0
H3880 H 0.95837 0.41695 0.54855 0.0
H3881 H 0.97357 0.42771 0.48847 0.0
C3882 C 0.56153 0.53313 0.66866 0.0
C3883 C 0.57091 0.53591 0.64289 0.0
C3884 C 0.55524 0.53534 0.63216 0.0
C3885 C 0.55152 0.54394 0.46232 0.0
H3886 H 0.53949 0.55565 0.57239 0.0
C3887 C 0.53866 0.57404 0.42398 0.0
C3888 C 0.53404 0.57114 0.35944 0.0
C3889 C 0.54108 0.56793 0.4607 0.0
C3890 C 0.54279 0.55239 0.54093 0.0
H3891 H 0.58083 0.54274 0.55679 0.0
H3892 H 0.56997 0.54677 0.49391 0.0
H3893 H 0.54787 0.54814 0.62928 0.0
H3894 H 0.52773 0.55926 0.28509 0.0
H3895 H 0.53184 0.54854 0.34978 0.0
H3896 H 0.54694 0.54871 0.37395 0.0
C3897 C 0.5674 0.54278 0.54192 0.0
C3898 C 0.54749 0.54797 0.57353 0.0
C3899 C 0.57367 0.54052 0.57825 0.0
C3900 C 0.5314 0.56177 0.33428 0.0
C3901 C 0.53379 0.55564 0.37117 0.0
C3902 C 0.54685 0.5484 0.42972 0.0
C3903 C 0.5582 0.54041 0.56917 0.0
C3904 C 0.55211 0.5439 0.53457 0.0
C3905 C 0.53889 0.55876 0.43394 0.0
C3906 C 0.54264 0.55288 0.46866 0.0
H3907 H 0.55912 0.52945 0.71794 0.0
H3908 H 0.54813 0.53326 0.65395 0.0
H3909 H 0.55488 0.54075 0.43086 0.0
H3910 H 0.54077 0.5812 0.44501 0.0
H3911 H 0.5451 0.57061 0.50854 0.0
C3912 C 0.42212 0.96447 0.42534 0.0
C3913 C 0.42461 0.9625 0.36016 0.0
C3914 C 0.42853 0.97306 0.46032 0.0
C3915 C 0.44806 0.9981 0.42353 0.0
H3916 H 0.4494 -3e-05 0.62284 0.0
C3917 C 0.45613 0.03294 0.57032 0.0
C3918 C 0.46091 0.0349 0.63433 0.0
C3919 C 0.45399 0.02446 0.53387 0.0
C3920 C 0.44929 -0.0004 0.56708 0.0
H3921 H 0.4361 0.96765 0.28279 0.0
H3922 H 0.44734 0.98258 0.34439 0.0
H3923 H 0.44157 0.98392 0.56831 0.0
H3924 H 0.46789 0.02993 0.7077 0.0
H3925 H 0.4643 0.01522 0.64347 0.0
H3926 H 0.4557 0.01378 0.42234 0.0
C3927 C 0.44033 0.97759 0.36766 0.0
C3928 C 0.44468 0.99038 0.53589 0.0
C3929 C 0.43389 0.96902 0.33254 0.0
C3930 C 0.46406 0.02854 0.65901 0.0
C3931 C 0.46197 0.0201 0.62236 0.0
C3932 C 0.4527 0.00732 0.45473 0.0
C3933 C 0.43761 0.97983 0.43107 0.0
C3934 C 0.44377 0.98953 0.46387 0.0
C3935 C 0.45666 0.01782 0.56041 0.0
C3936 C 0.45311 0.00816 0.52688 0.0
H3937 H 0.41504 0.95959 0.44821 0.0
H3938 H 0.42617 0.97461 0.50877 0.0
H3939 H 0.44742 0.99771 0.3679 0.0
H3940 H 0.45363 0.03772 0.54977 0.0
H3941 H 0.44981 0.02289 0.48662 0.0
C3942 C 0.57146 0.03323 0.57869 0.0
C3943 C 0.57069 0.03371 0.65058 0.0
C3944 C 0.56529 0.02457 0.54324 0.0
C3945 C 0.55349 -0.00135 0.56852 0.0
H3946 H 0.53886 0.99627 0.40205 0.0
C3947 C 0.53441 0.96223 0.42192 0.0
C3948 C 0.53505 0.96285 0.34982 0.0
C3949 C 0.53676 0.97055 0.46129 0.0
C3950 C 0.54298 0.99682 0.4481 0.0
H3951 H 0.56259 0.02562 0.74129 0.0
H3952 H 0.55203 0.01047 0.67936 0.0
H3953 H 0.54696 0.01185 0.46417 0.0
H3954 H 0.53838 0.97253 0.26201 0.0
H3955 H 0.54297 0.9871 0.33028 0.0
H3956 H 0.55018 0.98396 0.55106 0.0
C3957 C 0.55735 0.01681 0.65066 0.0
C3958 C 0.54756 0.00572 0.48373 0.0
C3959 C 0.56339 0.02549 0.6859 0.0
C3960 C 0.53777 0.97184 0.31761 0.0
C3961 C 0.54034 0.98019 0.35692 0.0
C3962 C 0.54911 0.98983 0.53231 0.0
C3963 C 0.55837 0.01623 0.57932 0.0
C3964 C 0.55291 0.00671 0.54386 0.0
C3965 C 0.54004 0.9797 0.42937 0.0
C3966 C 0.54388 0.98882 0.47114 0.0
H3967 H 0.57698 0.03947 0.55011 0.0
H3968 H 0.56623 0.02425 0.48817 0.0
H3969 H 0.5577 -0.0007 0.61441 0.0
H3970 H 0.5322 0.95535 0.4479 0.0
H3971 H 0.53619 0.96982 0.51683 0.0
C3972 C 0.96191 0.53504 0.56933 0.0
C3973 C 0.96203 0.53533 0.64157 0.0
C3974 C 0.97054 0.53779 0.53264 0.0
C3975 C 0.99683 0.54439 0.55467 0.0
H3976 H 0.00015 0.55928 0.38777 0.0
C3977 C 0.03385 0.57277 0.42689 0.0
C3978 C 0.03451 0.57142 0.35588 0.0
C3979 C 0.02507 0.5669 0.46225 0.0
C3980 C -0.00072 0.55506 0.43404 0.0
H3981 H 0.97119 0.53857 0.7323 0.0
H3982 H 0.98624 0.54379 0.66887 0.0
H3983 H 0.98446 0.55161 0.447 0.0
H3984 H 0.02661 0.5626 0.26695 0.0
H3985 H 0.0113 0.55259 0.32852 0.0
H3986 H 0.01196 0.54846 0.54292 0.0
C3987 C 0.9795 0.54111 0.63998 0.0
C3988 C 0.99026 0.55058 0.46779 0.0
C3989 C 0.97085 0.53816 0.67653 0.0
C3990 C 0.02636 0.56385 0.32163 0.0
C3991 C 0.01758 0.55812 0.35664 0.0
C3992 C 0.00593 0.54907 0.52156 0.0
C3993 C 0.9795 0.54112 0.56748 0.0
C3994 C 0.98891 0.54523 0.52886 0.0
C3995 C 0.01682 0.55971 0.42682 0.0
C3996 C 0.00721 0.55446 0.46119 0.0
H3997 H 0.95517 0.5328 0.54124 0.0
H3998 H 0.97019 0.53745 0.47691 0.0
H3999 H 0.99604 0.54018 0.60072 0.0
H4000 H 0.04001 0.57852 0.45464 0.0
H4001 H 0.0246 0.56825 0.51648 0.0
C4002 C 0.45752 0.42354 0.57123 0.0
C4003 C 0.46227 0.42638 0.63535 0.0
C4004 C 0.45503 0.42971 0.53572 0.0
C4005 C 0.44938 0.44922 0.5706 0.0
H4006 H 0.44818 0.44996 0.3713 0.0
C4007 C 0.43481 0.46531 0.33635 0.0
C4008 C 0.42542 0.46246 0.36222 0.0
C4009 C 0.44107 0.46297 0.372 0.0
C4010 C 0.44861 0.45 0.42702 0.0
H4011 H 0.46877 0.4382 0.7101 0.0
H4012 H 0.46456 0.449 0.64758 0.0
H4013 H 0.45651 0.44221 0.42562 0.0
H4014 H 0.41547 0.45543 0.44788 0.0
H4015 H 0.4263 0.45121 0.50939 0.0
H4016 H 0.44143 0.45696 0.57201 0.0
C4017 C 0.46255 0.44191 0.62559 0.0
C4018 C 0.45328 0.44544 0.45812 0.0
C4019 C 0.465 0.43574 0.66123 0.0
C4020 C 0.42264 0.4577 0.42637 0.0
C4021 C 0.42888 0.45533 0.46188 0.0
C4022 C 0.44473 0.4538 0.53951 0.0
C4023 C 0.45731 0.43886 0.56338 0.0
C4024 C 0.45351 0.44479 0.53024 0.0
C4025 C 0.43807 0.45772 0.43424 0.0
C4026 C 0.44409 0.45404 0.46738 0.0
H4027 H 0.45533 0.41639 0.54973 0.0
H4028 H 0.45092 0.42709 0.48823 0.0
H4029 H 0.44934 0.44878 0.62632 0.0
H4030 H 0.43723 0.4691 0.28746 0.0
H4031 H 0.44817 0.46508 0.35002 0.0
loop_
_geom_bond_atom_site_label_1
_geom_bond_atom_site_label_2
_geom_bond_distance
_geom_bond_site_symmetry_2
_ccdc_geom_bond_type
Fe0 O2 1.918 . S
Fe0 O5 1.997 . S
Fe0 O6 2.002 . S
Fe0 O11 1.976 . S
Fe0 O14 1.996 . S
Fe1 O2 1.918 . S
Fe1 O9 1.997 . S
Fe1 O12 1.996 . S
Fe1 O16 1.976 1_554 S
Fe1 O19 2.002 . S
O2 Fe0 1.918 . S
O2 Fe1 1.918 . S
O2 Fe3 1.918 . S
Fe3 O2 1.918 . S
Fe3 O4 2.002 . S
Fe3 O13 1.976 1_554 S
Fe3 O17 1.996 1_554 S
Fe3 O20 1.997 . S
O4 Fe3 2.002 . S
O4 C21 1.295 . S
O5 Fe0 1.997 . S
O5 C21 1.235 . S
O6 Fe0 2.002 . S
O6 C7 1.295 . S
C7 O6 1.295 . S
C7 O9 1.235 . S
C8 O13 1.287 1_554 S
C8 O14 1.255 . S
O9 Fe1 1.997 . S
O9 C7 1.235 . S
C10 O16 1.287 . S
C10 O17 1.255 . S
O11 Fe0 1.976 . S
O11 C18 1.287 . S
O12 Fe1 1.996 . S
O12 C18 1.255 . S
O13 Fe3 1.976 1_556 S
O13 C8 1.287 1_556 S
O14 Fe0 1.996 . S
O14 C8 1.255 . S
C15 O19 1.295 . S
C15 O20 1.235 . S
O16 Fe1 1.976 1_556 S
O16 C10 1.287 . S
O17 Fe3 1.996 1_556 S
O17 C10 1.255 . S
C18 O11 1.287 . S
C18 O12 1.255 . S
O19 Fe1 2.002 . S
O19 C15 1.295 . S
O20 Fe3 1.997 . S
O20 C15 1.235 . S
C21 O4 1.295 . S
C21 O5 1.235 . S
Fe22 O24 1.918 . S
Fe22 O27 1.997 . S
Fe22 O28 2.002 . S
Fe22 O33 1.976 1_554 S
Fe22 O36 1.996 . S
Fe23 O24 1.918 . S
Fe23 O31 1.997 . S
Fe23 O34 1.996 1_554 S
Fe23 O38 1.976 1_554 S
Fe23 O41 2.002 . S
O24 Fe22 1.918 . S
O24 Fe23 1.918 . S
O24 Fe25 1.918 . S
Fe25 O24 1.918 . S
Fe25 O26 2.002 . S
Fe25 O35 1.976 . S
Fe25 O39 1.996 . S
Fe25 O42 1.997 . S
O26 Fe25 2.002 . S
O26 C43 1.295 . S
O27 Fe22 1.997 . S
O27 C43 1.235 . S
O28 Fe22 2.002 . S
O28 C29 1.295 . S
C29 O28 1.295 . S
C29 O31 1.235 . S
C30 O35 1.287 . S
C30 O36 1.255 . S
O31 Fe23 1.997 . S
O31 C29 1.235 . S
C32 O38 1.287 1_554 S
C32 O39 1.255 . S
O33 Fe22 1.976 1_556 S
O33 C40 1.287 . S
O34 Fe23 1.996 1_556 S
O34 C40 1.255 . S
O35 Fe25 1.976 . S
O35 C30 1.287 . S
O36 Fe22 1.996 . S
O36 C30 1.255 . S
C37 O41 1.295 . S
C37 O42 1.235 . S
O38 Fe23 1.976 1_556 S
O38 C32 1.287 1_556 S
O39 Fe25 1.996 . S
O39 C32 1.255 . S
C40 O33 1.287 . S
C40 O34 1.255 . S
O41 Fe23 2.002 . S
O41 C37 1.295 . S
O42 Fe25 1.997 . S
O42 C37 1.235 . S
C43 O26 1.295 . S
C43 O27 1.235 . S
Fe44 O46 1.918 . S
Fe44 O49 1.997 . S
Fe44 O50 2.002 . S
Fe44 O55 1.976 . S
Fe44 O58 1.996 . S
Fe45 O46 1.918 . S
Fe45 O53 1.997 . S
Fe45 O56 1.996 . S
Fe45 O60 1.976 1_554 S
Fe45 O63 2.002 . S
O46 Fe44 1.918 . S
O46 Fe45 1.918 . S
O46 Fe47 1.918 . S
Fe47 O46 1.918 . S
Fe47 O48 2.002 . S
Fe47 O57 1.976 1_554 S
Fe47 O61 1.996 1_554 S
Fe47 O64 1.997 . S
O48 Fe47 2.002 . S
O48 C65 1.295 . S
O49 Fe44 1.997 . S
O49 C65 1.235 . S
O50 Fe44 2.002 . S
O50 C51 1.295 . S
C51 O50 1.295 . S
C51 O53 1.235 . S
C52 O57 1.287 1_554 S
C52 O58 1.255 . S
O53 Fe45 1.997 . S
O53 C51 1.235 . S
C54 O60 1.287 . S
C54 O61 1.255 . S
O55 Fe44 1.976 . S
O55 C62 1.287 . S
O56 Fe45 1.996 . S
O56 C62 1.255 . S
O57 Fe47 1.976 1_556 S
O57 C52 1.287 1_556 S
O58 Fe44 1.996 . S
O58 C52 1.255 . S
C59 O63 1.295 . S
C59 O64 1.235 . S
O60 Fe45 1.976 1_556 S
O60 C54 1.287 . S
O61 Fe47 1.996 1_556 S
O61 C54 1.255 . S
C62 O55 1.287 . S
C62 O56 1.255 . S
O63 Fe45 2.002 . S
O63 C59 1.295 . S
O64 Fe47 1.997 . S
O64 C59 1.235 . S
C65 O48 1.295 . S
C65 O49 1.235 . S
Fe66 O68 1.918 . S
Fe66 O71 1.997 . S
Fe66 O72 2.002 . S
Fe66 O77 1.976 . S
Fe66 O80 1.996 . S
Fe67 O68 1.918 . S
Fe67 O75 1.997 . S
Fe67 O78 1.996 . S
Fe67 O82 1.976 1_556 S
Fe67 O85 2.002 . S
O68 Fe66 1.918 . S
O68 Fe67 1.918 . S
O68 Fe69 1.918 . S
Fe69 O68 1.918 . S
Fe69 O70 2.002 . S
Fe69 O79 1.976 1_556 S
Fe69 O83 1.996 1_556 S
Fe69 O86 1.997 . S
O70 Fe69 2.002 . S
O70 C87 1.295 . S
O71 Fe66 1.997 . S
O71 C87 1.235 . S
O72 Fe66 2.002 . S
O72 C73 1.295 . S
C73 O72 1.295 . S
C73 O75 1.235 . S
C74 O79 1.287 1_556 S
C74 O80 1.255 . S
O75 Fe67 1.997 . S
O75 C73 1.235 . S
C76 O82 1.287 . S
C76 O83 1.255 . S
O77 Fe66 1.976 . S
O77 C84 1.287 . S
O78 Fe67 1.996 . S
O78 C84 1.255 . S
O79 Fe69 1.976 1_554 S
O79 C74 1.287 1_554 S
O80 Fe66 1.996 . S
O80 C74 1.255 . S
C81 O85 1.295 . S
C81 O86 1.235 . S
O82 Fe67 1.976 1_554 S
O82 C76 1.287 . S
O83 Fe69 1.996 1_554 S
O83 C76 1.255 . S
C84 O77 1.287 . S
C84 O78 1.255 . S
O85 Fe67 2.002 . S
O85 C81 1.295 . S
O86 Fe69 1.997 . S
O86 C81 1.235 . S
C87 O70 1.295 . S
C87 O71 1.235 . S
Fe88 O90 1.918 . S
Fe88 O93 1.997 . S
Fe88 O94 2.002 . S
Fe88 O99 1.976 1_556 S
Fe88 O102 1.996 . S
Fe89 O90 1.918 . S
Fe89 O97 1.997 . S
Fe89 O100 1.996 1_556 S
Fe89 O104 1.976 1_556 S
Fe89 O107 2.002 . S
O90 Fe88 1.918 . S
O90 Fe89 1.918 . S
O90 Fe91 1.918 . S
Fe91 O90 1.918 . S
Fe91 O92 2.002 . S
Fe91 O101 1.976 . S
Fe91 O105 1.996 . S
Fe91 O108 1.997 . S
O92 Fe91 2.002 . S
O92 C109 1.295 . S
O93 Fe88 1.997 . S
O93 C109 1.235 . S
O94 Fe88 2.002 . S
O94 C95 1.295 . S
C95 O94 1.295 . S
C95 O97 1.235 . S
C96 O101 1.287 . S
C96 O102 1.255 . S
O97 Fe89 1.997 . S
O97 C95 1.235 . S
C98 O104 1.287 1_556 S
C98 O105 1.255 . S
O99 Fe88 1.976 1_554 S
O99 C106 1.287 . S
O100 Fe89 1.996 1_554 S
O100 C106 1.255 . S
O101 Fe91 1.976 . S
O101 C96 1.287 . S
O102 Fe88 1.996 . S
O102 C96 1.255 . S
C103 O107 1.295 . S
C103 O108 1.235 . S
O104 Fe89 1.976 1_554 S
O104 C98 1.287 1_554 S
O105 Fe91 1.996 . S
O105 C98 1.255 . S
C106 O99 1.287 . S
C106 O100 1.255 . S
O107 Fe89 2.002 . S
O107 C103 1.295 . S
O108 Fe91 1.997 . S
O108 C103 1.235 . S
C109 O92 1.295 . S
C109 O93 1.235 . S
Fe110 O112 1.918 . S
Fe110 O115 1.997 . S
Fe110 O116 2.002 . S
Fe110 O121 1.976 . S
Fe110 O124 1.996 . S
Fe111 O112 1.918 . S
Fe111 O119 1.997 . S
Fe111 O122 1.996 . S
Fe111 O126 1.976 1_556 S
Fe111 O129 2.002 . S
O112 Fe110 1.918 . S
O112 Fe111 1.918 . S
O112 Fe113 1.918 . S
Fe113 O112 1.918 . S
Fe113 O114 2.002 . S
Fe113 O123 1.976 1_556 S
Fe113 O127 1.996 1_556 S
Fe113 O130 1.997 . S
O114 Fe113 2.002 . S
O114 C131 1.295 . S
O115 Fe110 1.997 . S
O115 C131 1.235 . S
O116 Fe110 2.002 . S
O116 C117 1.295 . S
C117 O116 1.295 . S
C117 O119 1.235 . S
C118 O123 1.287 1_556 S
C118 O124 1.255 . S
O119 Fe111 1.997 . S
O119 C117 1.235 . S
C120 O126 1.287 . S
C120 O127 1.255 . S
O121 Fe110 1.976 . S
O121 C128 1.287 . S
O122 Fe111 1.996 . S
O122 C128 1.255 . S
O123 Fe113 1.976 1_554 S
O123 C118 1.287 1_554 S
O124 Fe110 1.996 . S
O124 C118 1.255 . S
C125 O129 1.295 . S
C125 O130 1.235 . S
O126 Fe111 1.976 1_554 S
O126 C120 1.287 . S
O127 Fe113 1.996 1_554 S
O127 C120 1.255 . S
C128 O121 1.287 . S
C128 O122 1.255 . S
O129 Fe111 2.002 . S
O129 C125 1.295 . S
O130 Fe113 1.997 . S
O130 C125 1.235 . S
C131 O114 1.295 . S
C131 O115 1.235 . S
Fe132 O134 1.918 . S
Fe132 O137 1.997 . S
Fe132 O138 2.002 . S
Fe132 O143 1.976 . S
Fe132 O146 1.996 . S
Fe133 O134 1.918 . S
Fe133 O141 1.997 . S
Fe133 O144 1.996 1_556 S
Fe133 O148 1.976 1_556 S
Fe133 O151 2.002 . S
O134 Fe132 1.918 . S
O134 Fe133 1.918 . S
O134 Fe135 1.918 . S
Fe135 O134 1.918 . S
Fe135 O136 2.002 . S
Fe135 O145 1.976 . S
Fe135 O149 1.996 1_556 S
Fe135 O152 1.997 . S
O136 Fe135 2.002 . S
O136 C153 1.295 . S
O137 Fe132 1.997 . S
O137 C153 1.235 . S
O138 Fe132 2.002 . S
O138 C139 1.295 . S
C139 O138 1.295 . S
C139 O141 1.235 . S
C140 O145 1.287 . S
C140 O146 1.255 . S
O141 Fe133 1.997 . S
O141 C139 1.235 . S
C142 O148 1.287 . S
C142 O149 1.255 . S
O143 Fe132 1.976 . S
O143 C150 1.287 . S
O144 Fe133 1.996 1_554 S
O144 C150 1.255 1_554 S
O145 Fe135 1.976 . S
O145 C140 1.287 . S
O146 Fe132 1.996 . S
O146 C140 1.255 . S
C147 O151 1.295 . S
C147 O152 1.235 . S
O148 Fe133 1.976 1_554 S
O148 C142 1.287 . S
O149 Fe135 1.996 1_554 S
O149 C142 1.255 . S
C150 O143 1.287 . S
C150 O144 1.255 1_556 S
O151 Fe133 2.002 . S
O151 C147 1.295 . S
O152 Fe135 1.997 . S
O152 C147 1.235 . S
C153 O136 1.295 . S
C153 O137 1.235 . S
Fe154 O156 1.918 . S
Fe154 O159 1.997 . S
Fe154 O160 2.002 . S
Fe154 O165 1.976 1_556 S
Fe154 O168 1.996 1_556 S
Fe155 O156 1.918 . S
Fe155 O163 1.997 . S
Fe155 O166 1.996 1_556 S
Fe155 O170 1.976 . S
Fe155 O173 2.002 . S
O156 Fe154 1.918 . S
O156 Fe155 1.918 . S
O156 Fe157 1.918 . S
Fe157 O156 1.918 . S
Fe157 O158 2.002 . S
Fe157 O167 1.976 . S
Fe157 O171 1.996 . S
Fe157 O174 1.997 . S
O158 Fe157 2.002 . S
O158 C175 1.295 . S
O159 Fe154 1.997 . S
O159 C175 1.235 . S
O160 Fe154 2.002 . S
O160 C161 1.295 . S
C161 O160 1.295 . S
C161 O163 1.235 . S
C162 O167 1.287 . S
C162 O168 1.255 1_556 S
O163 Fe155 1.997 . S
O163 C161 1.235 . S
C164 O170 1.287 . S
C164 O171 1.255 . S
O165 Fe154 1.976 1_554 S
O165 C172 1.287 . S
O166 Fe155 1.996 1_554 S
O166 C172 1.255 . S
O167 Fe157 1.976 . S
O167 C162 1.287 . S
O168 Fe154 1.996 1_554 S
O168 C162 1.255 1_554 S
C169 O173 1.295 . S
C169 O174 1.235 . S
O170 Fe155 1.976 . S
O170 C164 1.287 . S
O171 Fe157 1.996 . S
O171 C164 1.255 . S
C172 O165 1.287 . S
C172 O166 1.255 . S
O173 Fe155 2.002 . S
O173 C169 1.295 . S
O174 Fe157 1.997 . S
O174 C169 1.235 . S
C175 O158 1.295 . S
C175 O159 1.235 . S
Fe176 O178 1.918 . S
Fe176 O181 1.997 . S
Fe176 O182 2.002 . S
Fe176 O187 1.976 . S
Fe176 O190 1.996 1_556 S
Fe177 O178 1.918 . S
Fe177 O185 1.997 . S
Fe177 O188 1.996 . S
Fe177 O192 1.976 . S
Fe177 O195 2.002 . S
O178 Fe176 1.918 . S
O178 Fe177 1.918 . S
O178 Fe179 1.918 . S
Fe179 O178 1.918 . S
Fe179 O180 2.002 . S
Fe179 O189 1.976 1_556 S
Fe179 O193 1.996 1_556 S
Fe179 O196 1.997 . S
O180 Fe179 2.002 . S
O180 C197 1.295 . S
O181 Fe176 1.997 . S
O181 C197 1.235 . S
O182 Fe176 2.002 . S
O182 C183 1.295 . S
C183 O182 1.295 . S
C183 O185 1.235 . S
C184 O189 1.287 . S
C184 O190 1.255 . S
O185 Fe177 1.997 . S
O185 C183 1.235 . S
C186 O192 1.287 . S
C186 O193 1.255 1_556 S
O187 Fe176 1.976 . S
O187 C194 1.287 . S
O188 Fe177 1.996 . S
O188 C194 1.255 . S
O189 Fe179 1.976 1_554 S
O189 C184 1.287 . S
O190 Fe176 1.996 1_554 S
O190 C184 1.255 . S
C191 O195 1.295 . S
C191 O196 1.235 . S
O192 Fe177 1.976 . S
O192 C186 1.287 . S
O193 Fe179 1.996 1_554 S
O193 C186 1.255 1_554 S
C194 O187 1.287 . S
C194 O188 1.255 . S
O195 Fe177 2.002 . S
O195 C191 1.295 . S
O196 Fe179 1.997 . S
O196 C191 1.235 . S
C197 O180 1.295 . S
C197 O181 1.235 . S
Fe198 O200 1.918 . S
Fe198 O203 1.997 . S
Fe198 O204 2.002 . S
Fe198 O209 1.976 1_554 S
Fe198 O212 1.996 1_554 S
Fe199 O200 1.918 . S
Fe199 O207 1.997 . S
Fe199 O210 1.996 1_554 S
Fe199 O214 1.976 . S
Fe199 O217 2.002 . S
O200 Fe198 1.918 . S
O200 Fe199 1.918 . S
O200 Fe201 1.918 . S
Fe201 O200 1.918 . S
Fe201 O202 2.002 . S
Fe201 O211 1.976 . S
Fe201 O215 1.996 . S
Fe201 O218 1.997 . S
O202 Fe201 2.002 . S
O202 C219 1.295 . S
O203 Fe198 1.997 . S
O203 C219 1.235 . S
O204 Fe198 2.002 . S
O204 C205 1.295 . S
C205 O204 1.295 . S
C205 O207 1.235 . S
C206 O211 1.287 . S
C206 O212 1.255 1_554 S
O207 Fe199 1.997 . S
O207 C205 1.235 . S
C208 O214 1.287 . S
C208 O215 1.255 . S
O209 Fe198 1.976 1_556 S
O209 C216 1.287 . S
O210 Fe199 1.996 1_556 S
O210 C216 1.255 . S
O211 Fe201 1.976 . S
O211 C206 1.287 . S
O212 Fe198 1.996 1_556 S
O212 C206 1.255 1_556 S
C213 O217 1.295 . S
C213 O218 1.235 . S
O214 Fe199 1.976 . S
O214 C208 1.287 . S
O215 Fe201 1.996 . S
O215 C208 1.255 . S
C216 O209 1.287 . S
C216 O210 1.255 . S
O217 Fe199 2.002 . S
O217 C213 1.295 . S
O218 Fe201 1.997 . S
O218 C213 1.235 . S
C219 O202 1.295 . S
C219 O203 1.235 . S
Fe220 O222 1.918 . S
Fe220 O225 1.997 . S
Fe220 O226 2.002 . S
Fe220 O231 1.976 . S
Fe220 O234 1.996 . S
Fe221 O222 1.918 . S
Fe221 O229 1.997 . S
Fe221 O232 1.996 1_554 S
Fe221 O236 1.976 1_554 S
Fe221 O239 2.002 . S
O222 Fe220 1.918 . S
O222 Fe221 1.918 . S
O222 Fe223 1.918 . S
Fe223 O222 1.918 . S
Fe223 O224 2.002 . S
Fe223 O233 1.976 . S
Fe223 O237 1.996 1_554 S
Fe223 O240 1.997 . S
O224 Fe223 2.002 . S
O224 C241 1.295 . S
O225 Fe220 1.997 . S
O225 C241 1.235 . S
O226 Fe220 2.002 . S
O226 C227 1.295 . S
C227 O226 1.295 . S
C227 O229 1.235 . S
C228 O233 1.287 . S
C228 O234 1.255 . S
O229 Fe221 1.997 . S
O229 C227 1.235 . S
C230 O236 1.287 . S
C230 O237 1.255 . S
O231 Fe220 1.976 . S
O231 C238 1.287 . S
O232 Fe221 1.996 1_556 S
O232 C238 1.255 1_556 S
O233 Fe223 1.976 . S
O233 C228 1.287 . S
O234 Fe220 1.996 . S
O234 C228 1.255 . S
C235 O239 1.295 . S
C235 O240 1.235 . S
O236 Fe221 1.976 1_556 S
O236 C230 1.287 . S
O237 Fe223 1.996 1_556 S
O237 C230 1.255 . S
C238 O231 1.287 . S
C238 O232 1.255 1_554 S
O239 Fe221 2.002 . S
O239 C235 1.295 . S
O240 Fe223 1.997 . S
O240 C235 1.235 . S
C241 O224 1.295 . S
C241 O225 1.235 . S
Fe242 O244 1.918 . S
Fe242 O247 1.997 . S
Fe242 O248 2.002 . S
Fe242 O253 1.976 1_554 S
Fe242 O256 1.996 1_554 S
Fe243 O244 1.918 . S
Fe243 O251 1.997 . S
Fe243 O254 1.996 1_554 S
Fe243 O258 1.976 . S
Fe243 O261 2.002 . S
O244 Fe242 1.918 . S
O244 Fe243 1.918 . S
O244 Fe245 1.918 . S
Fe245 O244 1.918 . S
Fe245 O246 2.002 . S
Fe245 O255 1.976 . S
Fe245 O259 1.996 . S
Fe245 O262 1.997 . S
O246 Fe245 2.002 . S
O246 C263 1.295 . S
O247 Fe242 1.997 . S
O247 C263 1.235 . S
O248 Fe242 2.002 . S
O248 C249 1.295 . S
C249 O248 1.295 . S
C249 O251 1.235 . S
C250 O255 1.287 . S
C250 O256 1.255 1_554 S
O251 Fe243 1.997 . S
O251 C249 1.235 . S
C252 O258 1.287 . S
C252 O259 1.255 . S
O253 Fe242 1.976 1_556 S
O253 C260 1.287 . S
O254 Fe243 1.996 1_556 S
O254 C260 1.255 . S
O255 Fe245 1.976 . S
O255 C250 1.287 . S
O256 Fe242 1.996 1_556 S
O256 C250 1.255 1_556 S
C257 O261 1.295 . S
C257 O262 1.235 . S
O258 Fe243 1.976 . S
O258 C252 1.287 . S
O259 Fe245 1.996 . S
O259 C252 1.255 . S
C260 O253 1.287 . S
C260 O254 1.255 . S
O261 Fe243 2.002 . S
O261 C257 1.295 . S
O262 Fe245 1.997 . S
O262 C257 1.235 . S
C263 O246 1.295 . S
C263 O247 1.235 . S
Fe264 O266 1.918 . S
Fe264 O269 1.997 . S
Fe264 O270 2.002 . S
Fe264 O275 1.976 . S
Fe264 O278 1.996 . S
Fe265 O266 1.918 . S
Fe265 O273 1.997 . S
Fe265 O276 1.996 . S
Fe265 O280 1.976 . S
Fe265 O283 2.002 . S
O266 Fe264 1.918 . S
O266 Fe265 1.918 . S
O266 Fe267 1.918 . S
Fe267 O266 1.918 . S
Fe267 O268 2.002 . S
Fe267 O277 1.976 . S
Fe267 O281 1.996 . S
Fe267 O284 1.997 . S
O268 Fe267 2.002 . S
O268 C285 1.295 . S
O269 Fe264 1.997 . S
O269 C285 1.235 . S
O270 Fe264 2.002 . S
O270 C271 1.295 . S
C271 O270 1.295 . S
C271 O273 1.235 . S
C272 O277 1.287 . S
C272 O278 1.255 . S
O273 Fe265 1.997 . S
O273 C271 1.235 . S
C274 O280 1.287 . S
C274 O281 1.255 . S
O275 Fe264 1.976 . S
O275 C282 1.287 . S
O276 Fe265 1.996 . S
O276 C282 1.255 . S
O277 Fe267 1.976 . S
O277 C272 1.287 . S
O278 Fe264 1.996 . S
O278 C272 1.255 . S
C279 O283 1.295 . S
C279 O284 1.235 . S
O280 Fe265 1.976 . S
O280 C274 1.287 . S
O281 Fe267 1.996 . S
O281 C274 1.255 . S
C282 O275 1.287 . S
C282 O276 1.255 . S
O283 Fe265 2.002 . S
O283 C279 1.295 . S
O284 Fe267 1.997 . S
O284 C279 1.235 . S
C285 O268 1.295 . S
C285 O269 1.235 . S
Fe286 O288 1.918 . S
Fe286 O291 1.997 . S
Fe286 O292 2.002 . S
Fe286 O297 1.976 . S
Fe286 O300 1.996 . S
Fe287 O288 1.918 . S
Fe287 O295 1.997 . S
Fe287 O298 1.996 . S
Fe287 O302 1.976 . S
Fe287 O305 2.002 . S
O288 Fe286 1.918 . S
O288 Fe287 1.918 . S
O288 Fe289 1.918 . S
Fe289 O288 1.918 . S
Fe289 O290 2.002 . S
Fe289 O299 1.976 . S
Fe289 O303 1.996 . S
Fe289 O306 1.997 . S
O290 Fe289 2.002 . S
O290 C307 1.295 . S
O291 Fe286 1.997 . S
O291 C307 1.235 . S
O292 Fe286 2.002 . S
O292 C293 1.295 . S
C293 O292 1.295 . S
C293 O295 1.235 . S
C294 O299 1.287 . S
C294 O300 1.255 . S
O295 Fe287 1.997 . S
O295 C293 1.235 . S
C296 O302 1.287 . S
C296 O303 1.255 . S
O297 Fe286 1.976 . S
O297 C304 1.287 . S
O298 Fe287 1.996 . S
O298 C304 1.255 . S
O299 Fe289 1.976 . S
O299 C294 1.287 . S
O300 Fe286 1.996 . S
O300 C294 1.255 . S
C301 O305 1.295 . S
C301 O306 1.235 . S
O302 Fe287 1.976 . S
O302 C296 1.287 . S
O303 Fe289 1.996 . S
O303 C296 1.255 . S
C304 O297 1.287 . S
C304 O298 1.255 . S
O305 Fe287 2.002 . S
O305 C301 1.295 . S
O306 Fe289 1.997 . S
O306 C301 1.235 . S
C307 O290 1.295 . S
C307 O291 1.235 . S
Fe308 O310 1.918 . S
Fe308 O313 1.997 . S
Fe308 O314 2.002 . S
Fe308 O319 1.976 . S
Fe308 O322 1.996 . S
Fe309 O310 1.918 . S
Fe309 O317 1.997 . S
Fe309 O320 1.996 . S
Fe309 O324 1.976 . S
Fe309 O327 2.002 . S
O310 Fe308 1.918 . S
O310 Fe309 1.918 . S
O310 Fe311 1.918 . S
Fe311 O310 1.918 . S
Fe311 O312 2.002 . S
Fe311 O321 1.976 . S
Fe311 O325 1.996 . S
Fe311 O328 1.997 . S
O312 Fe311 2.002 . S
O312 C329 1.295 . S
O313 Fe308 1.997 . S
O313 C329 1.235 . S
O314 Fe308 2.002 . S
O314 C315 1.295 . S
C315 O314 1.295 . S
C315 O317 1.235 . S
C316 O321 1.287 . S
C316 O322 1.255 . S
O317 Fe309 1.997 . S
O317 C315 1.235 . S
C318 O324 1.287 . S
C318 O325 1.255 . S
O319 Fe308 1.976 . S
O319 C326 1.287 . S
O320 Fe309 1.996 . S
O320 C326 1.255 . S
O321 Fe311 1.976 . S
O321 C316 1.287 . S
O322 Fe308 1.996 . S
O322 C316 1.255 . S
C323 O327 1.295 . S
C323 O328 1.235 . S
O324 Fe309 1.976 . S
O324 C318 1.287 . S
O325 Fe311 1.996 . S
O325 C318 1.255 . S
C326 O319 1.287 . S
C326 O320 1.255 . S
O327 Fe309 2.002 . S
O327 C323 1.295 . S
O328 Fe311 1.997 . S
O328 C323 1.235 . S
C329 O312 1.295 . S
C329 O313 1.235 . S
Fe330 O332 1.918 . S
Fe330 O335 1.997 . S
Fe330 O336 2.002 . S
Fe330 O341 1.976 . S
Fe330 O344 1.996 . S
Fe331 O332 1.918 . S
Fe331 O339 1.997 . S
Fe331 O342 1.996 . S
Fe331 O346 1.976 . S
Fe331 O349 2.002 . S
O332 Fe330 1.918 . S
O332 Fe331 1.918 . S
O332 Fe333 1.918 . S
Fe333 O332 1.918 . S
Fe333 O334 2.002 . S
Fe333 O343 1.976 . S
Fe333 O347 1.996 . S
Fe333 O350 1.997 . S
O334 Fe333 2.002 . S
O334 C351 1.295 . S
O335 Fe330 1.997 . S
O335 C351 1.235 . S
O336 Fe330 2.002 . S
O336 C337 1.295 . S
C337 O336 1.295 . S
C337 O339 1.235 . S
C338 O343 1.287 . S
C338 O344 1.255 . S
O339 Fe331 1.997 . S
O339 C337 1.235 . S
C340 O346 1.287 . S
C340 O347 1.255 . S
O341 Fe330 1.976 . S
O341 C348 1.287 . S
O342 Fe331 1.996 . S
O342 C348 1.255 . S
O343 Fe333 1.976 . S
O343 C338 1.287 . S
O344 Fe330 1.996 . S
O344 C338 1.255 . S
C345 O349 1.295 . S
C345 O350 1.235 . S
O346 Fe331 1.976 . S
O346 C340 1.287 . S
O347 Fe333 1.996 . S
O347 C340 1.255 . S
C348 O341 1.287 . S
C348 O342 1.255 . S
O349 Fe331 2.002 . S
O349 C345 1.295 . S
O350 Fe333 1.997 . S
O350 C345 1.235 . S
C351 O334 1.295 . S
C351 O335 1.235 . S
Fe352 O354 1.918 . S
Fe352 O357 1.997 . S
Fe352 O358 2.002 . S
Fe352 O363 1.976 . S
Fe352 O366 1.996 . S
Fe353 O354 1.918 . S
Fe353 O361 1.997 . S
Fe353 O364 1.996 . S
Fe353 O368 1.976 . S
Fe353 O371 2.002 . S
O354 Fe352 1.918 . S
O354 Fe353 1.918 . S
O354 Fe355 1.918 . S
Fe355 O354 1.918 . S
Fe355 O356 2.002 . S
Fe355 O365 1.976 . S
Fe355 O369 1.996 . S
Fe355 O372 1.997 . S
O356 Fe355 2.002 . S
O356 C373 1.295 . S
O357 Fe352 1.997 . S
O357 C373 1.235 . S
O358 Fe352 2.002 . S
O358 C359 1.295 . S
C359 O358 1.295 . S
C359 O361 1.235 . S
C360 O365 1.287 . S
C360 O366 1.255 . S
O361 Fe353 1.997 . S
O361 C359 1.235 . S
C362 O368 1.287 . S
C362 O369 1.255 . S
O363 Fe352 1.976 . S
O363 C370 1.287 . S
O364 Fe353 1.996 . S
O364 C370 1.255 . S
O365 Fe355 1.976 . S
O365 C360 1.287 . S
O366 Fe352 1.996 . S
O366 C360 1.255 . S
C367 O371 1.295 . S
C367 O372 1.235 . S
O368 Fe353 1.976 . S
O368 C362 1.287 . S
O369 Fe355 1.996 . S
O369 C362 1.255 . S
C370 O363 1.287 . S
C370 O364 1.255 . S
O371 Fe353 2.002 . S
O371 C367 1.295 . S
O372 Fe355 1.997 . S
O372 C367 1.235 . S
C373 O356 1.295 . S
C373 O357 1.235 . S
Fe374 O376 1.918 . S
Fe374 O379 1.997 . S
Fe374 O380 2.002 . S
Fe374 O385 1.976 . S
Fe374 O388 1.996 . S
Fe375 O376 1.918 . S
Fe375 O383 1.997 . S
Fe375 O386 1.996 . S
Fe375 O390 1.976 . S
Fe375 O393 2.002 . S
O376 Fe374 1.918 . S
O376 Fe375 1.918 . S
O376 Fe377 1.918 . S
Fe377 O376 1.918 . S
Fe377 O378 2.002 . S
Fe377 O387 1.976 . S
Fe377 O391 1.996 . S
Fe377 O394 1.997 . S
O378 Fe377 2.002 . S
O378 C395 1.295 . S
O379 Fe374 1.997 . S
O379 C395 1.235 . S
O380 Fe374 2.002 . S
O380 C381 1.295 . S
C381 O380 1.295 . S
C381 O383 1.235 . S
C382 O387 1.287 . S
C382 O388 1.255 . S
O383 Fe375 1.997 . S
O383 C381 1.235 . S
C384 O390 1.287 . S
C384 O391 1.255 . S
O385 Fe374 1.976 . S
O385 C392 1.287 . S
O386 Fe375 1.996 . S
O386 C392 1.255 . S
O387 Fe377 1.976 . S
O387 C382 1.287 . S
O388 Fe374 1.996 . S
O388 C382 1.255 . S
C389 O393 1.295 . S
C389 O394 1.235 . S
O390 Fe375 1.976 . S
O390 C384 1.287 . S
O391 Fe377 1.996 . S
O391 C384 1.255 . S
C392 O385 1.287 . S
C392 O386 1.255 . S
O393 Fe375 2.002 . S
O393 C389 1.295 . S
O394 Fe377 1.997 . S
O394 C389 1.235 . S
C395 O378 1.295 . S
C395 O379 1.235 . S
Fe396 O398 1.918 . S
Fe396 O401 1.997 . S
Fe396 O402 2.002 . S
Fe396 O407 1.976 . S
Fe396 O410 1.996 . S
Fe397 O398 1.918 . S
Fe397 O405 1.997 . S
Fe397 O408 1.996 . S
Fe397 O412 1.976 . S
Fe397 O415 2.002 . S
O398 Fe396 1.918 . S
O398 Fe397 1.918 . S
O398 Fe399 1.918 . S
Fe399 O398 1.918 . S
Fe399 O400 2.002 . S
Fe399 O409 1.976 . S
Fe399 O413 1.996 . S
Fe399 O416 1.997 . S
O400 Fe399 2.002 . S
O400 C417 1.295 . S
O401 Fe396 1.997 . S
O401 C417 1.235 . S
O402 Fe396 2.002 . S
O402 C403 1.295 . S
C403 O402 1.295 . S
C403 O405 1.235 . S
C404 O409 1.287 . S
C404 O410 1.255 . S
O405 Fe397 1.997 . S
O405 C403 1.235 . S
C406 O412 1.287 . S
C406 O413 1.255 . S
O407 Fe396 1.976 . S
O407 C414 1.287 . S
O408 Fe397 1.996 . S
O408 C414 1.255 . S
O409 Fe399 1.976 . S
O409 C404 1.287 . S
O410 Fe396 1.996 . S
O410 C404 1.255 . S
C411 O415 1.295 . S
C411 O416 1.235 . S
O412 Fe397 1.976 . S
O412 C406 1.287 . S
O413 Fe399 1.996 . S
O413 C406 1.255 . S
C414 O407 1.287 . S
C414 O408 1.255 . S
O415 Fe397 2.002 . S
O415 C411 1.295 . S
O416 Fe399 1.997 . S
O416 C411 1.235 . S
C417 O400 1.295 . S
C417 O401 1.235 . S
Fe418 O420 1.918 . S
Fe418 O423 1.997 . S
Fe418 O424 2.002 . S
Fe418 O429 1.976 . S
Fe418 O432 1.996 . S
Fe419 O420 1.918 . S
Fe419 O427 1.997 . S
Fe419 O430 1.996 . S
Fe419 O434 1.976 . S
Fe419 O437 2.002 . S
O420 Fe418 1.918 . S
O420 Fe419 1.918 . S
O420 Fe421 1.918 . S
Fe421 O420 1.918 . S
Fe421 O422 2.002 . S
Fe421 O431 1.976 . S
Fe421 O435 1.996 . S
Fe421 O438 1.997 . S
O422 Fe421 2.002 . S
O422 C439 1.295 . S
O423 Fe418 1.997 . S
O423 C439 1.235 . S
O424 Fe418 2.002 . S
O424 C425 1.295 . S
C425 O424 1.295 . S
C425 O427 1.235 . S
C426 O431 1.287 . S
C426 O432 1.255 . S
O427 Fe419 1.997 . S
O427 C425 1.235 . S
C428 O434 1.287 . S
C428 O435 1.255 . S
O429 Fe418 1.976 . S
O429 C436 1.287 . S
O430 Fe419 1.996 . S
O430 C436 1.255 . S
O431 Fe421 1.976 . S
O431 C426 1.287 . S
O432 Fe418 1.996 . S
O432 C426 1.255 . S
C433 O437 1.295 . S
C433 O438 1.235 . S
O434 Fe419 1.976 . S
O434 C428 1.287 . S
O435 Fe421 1.996 . S
O435 C428 1.255 . S
C436 O429 1.287 . S
C436 O430 1.255 . S
O437 Fe419 2.002 . S
O437 C433 1.295 . S
O438 Fe421 1.997 . S
O438 C433 1.235 . S
C439 O422 1.295 . S
C439 O423 1.235 . S
Fe440 O442 1.918 . S
Fe440 O445 1.997 . S
Fe440 O446 2.002 . S
Fe440 O451 1.976 . S
Fe440 O454 1.996 . S
Fe441 O442 1.918 . S
Fe441 O449 1.997 . S
Fe441 O452 1.996 . S
Fe441 O456 1.976 . S
Fe441 O459 2.002 . S
O442 Fe440 1.918 . S
O442 Fe441 1.918 . S
O442 Fe443 1.918 . S
Fe443 O442 1.918 . S
Fe443 O444 2.002 . S
Fe443 O453 1.976 . S
Fe443 O457 1.996 . S
Fe443 O460 1.997 . S
O444 Fe443 2.002 . S
O444 C461 1.295 . S
O445 Fe440 1.997 . S
O445 C461 1.235 . S
O446 Fe440 2.002 . S
O446 C447 1.295 . S
C447 O446 1.295 . S
C447 O449 1.235 . S
C448 O453 1.287 . S
C448 O454 1.255 . S
O449 Fe441 1.997 . S
O449 C447 1.235 . S
C450 O456 1.287 . S
C450 O457 1.255 . S
O451 Fe440 1.976 . S
O451 C458 1.287 . S
O452 Fe441 1.996 . S
O452 C458 1.255 . S
O453 Fe443 1.976 . S
O453 C448 1.287 . S
O454 Fe440 1.996 . S
O454 C448 1.255 . S
C455 O459 1.295 . S
C455 O460 1.235 . S
O456 Fe441 1.976 . S
O456 C450 1.287 . S
O457 Fe443 1.996 . S
O457 C450 1.255 . S
C458 O451 1.287 . S
C458 O452 1.255 . S
O459 Fe441 2.002 . S
O459 C455 1.295 . S
O460 Fe443 1.997 . S
O460 C455 1.235 . S
C461 O444 1.295 . S
C461 O445 1.235 . S
Fe462 O464 1.918 . S
Fe462 O467 1.997 . S
Fe462 O468 2.002 . S
Fe462 O473 1.976 . S
Fe462 O476 1.996 . S
Fe463 O464 1.918 . S
Fe463 O471 1.997 . S
Fe463 O474 1.996 . S
Fe463 O478 1.976 . S
Fe463 O481 2.002 . S
O464 Fe462 1.918 . S
O464 Fe463 1.918 . S
O464 Fe465 1.918 . S
Fe465 O464 1.918 . S
Fe465 O466 2.002 . S
Fe465 O475 1.976 . S
Fe465 O479 1.996 . S
Fe465 O482 1.997 . S
O466 Fe465 2.002 . S
O466 C483 1.295 . S
O467 Fe462 1.997 . S
O467 C483 1.235 . S
O468 Fe462 2.002 . S
O468 C469 1.295 . S
C469 O468 1.295 . S
C469 O471 1.235 . S
C470 O475 1.287 . S
C470 O476 1.255 . S
O471 Fe463 1.997 . S
O471 C469 1.235 . S
C472 O478 1.287 . S
C472 O479 1.255 . S
O473 Fe462 1.976 . S
O473 C480 1.287 . S
O474 Fe463 1.996 . S
O474 C480 1.255 . S
O475 Fe465 1.976 . S
O475 C470 1.287 . S
O476 Fe462 1.996 . S
O476 C470 1.255 . S
C477 O481 1.295 . S
C477 O482 1.235 . S
O478 Fe463 1.976 . S
O478 C472 1.287 . S
O479 Fe465 1.996 . S
O479 C472 1.255 . S
C480 O473 1.287 . S
C480 O474 1.255 . S
O481 Fe463 2.002 . S
O481 C477 1.295 . S
O482 Fe465 1.997 . S
O482 C477 1.235 . S
C483 O466 1.295 . S
C483 O467 1.235 . S
Fe484 O486 1.918 . S
Fe484 O489 1.997 . S
Fe484 O490 2.002 . S
Fe484 O495 1.976 . S
Fe484 O498 1.996 . S
Fe485 O486 1.918 . S
Fe485 O493 1.997 . S
Fe485 O496 1.996 . S
Fe485 O500 1.976 . S
Fe485 O503 2.002 . S
O486 Fe484 1.918 . S
O486 Fe485 1.918 . S
O486 Fe487 1.918 . S
Fe487 O486 1.918 . S
Fe487 O488 2.002 . S
Fe487 O497 1.976 . S
Fe487 O501 1.996 . S
Fe487 O504 1.997 . S
O488 Fe487 2.002 . S
O488 C505 1.295 . S
O489 Fe484 1.997 . S
O489 C505 1.235 . S
O490 Fe484 2.002 . S
O490 C491 1.295 . S
C491 O490 1.295 . S
C491 O493 1.235 . S
C492 O497 1.287 . S
C492 O498 1.255 . S
O493 Fe485 1.997 . S
O493 C491 1.235 . S
C494 O500 1.287 . S
C494 O501 1.255 . S
O495 Fe484 1.976 . S
O495 C502 1.287 . S
O496 Fe485 1.996 . S
O496 C502 1.255 . S
O497 Fe487 1.976 . S
O497 C492 1.287 . S
O498 Fe484 1.996 . S
O498 C492 1.255 . S
C499 O503 1.295 . S
C499 O504 1.235 . S
O500 Fe485 1.976 . S
O500 C494 1.287 . S
O501 Fe487 1.996 . S
O501 C494 1.255 . S
C502 O495 1.287 . S
C502 O496 1.255 . S
O503 Fe485 2.002 . S
O503 C499 1.295 . S
O504 Fe487 1.997 . S
O504 C499 1.235 . S
C505 O488 1.295 . S
C505 O489 1.235 . S
Fe506 O508 1.918 . S
Fe506 O511 1.997 . S
Fe506 O512 2.002 . S
Fe506 O517 1.976 . S
Fe506 O520 1.996 . S
Fe507 O508 1.918 . S
Fe507 O515 1.997 . S
Fe507 O518 1.996 . S
Fe507 O522 1.976 . S
Fe507 O525 2.002 . S
O508 Fe506 1.918 . S
O508 Fe507 1.918 . S
O508 Fe509 1.918 . S
Fe509 O508 1.918 . S
Fe509 O510 2.002 . S
Fe509 O519 1.976 . S
Fe509 O523 1.996 . S
Fe509 O526 1.997 . S
O510 Fe509 2.002 . S
O510 C527 1.295 . S
O511 Fe506 1.997 . S
O511 C527 1.235 . S
O512 Fe506 2.002 . S
O512 C513 1.295 . S
C513 O512 1.295 . S
C513 O515 1.235 . S
C514 O519 1.287 . S
C514 O520 1.255 . S
O515 Fe507 1.997 . S
O515 C513 1.235 . S
C516 O522 1.287 . S
C516 O523 1.255 . S
O517 Fe506 1.976 . S
O517 C524 1.287 . S
O518 Fe507 1.996 . S
O518 C524 1.255 . S
O519 Fe509 1.976 . S
O519 C514 1.287 . S
O520 Fe506 1.996 . S
O520 C514 1.255 . S
C521 O525 1.295 . S
C521 O526 1.235 . S
O522 Fe507 1.976 . S
O522 C516 1.287 . S
O523 Fe509 1.996 . S
O523 C516 1.255 . S
C524 O517 1.287 . S
C524 O518 1.255 . S
O525 Fe507 2.002 . S
O525 C521 1.295 . S
O526 Fe509 1.997 . S
O526 C521 1.235 . S
C527 O510 1.295 . S
C527 O511 1.235 . S
Fe528 O530 1.918 . S
Fe528 O533 1.997 . S
Fe528 O534 2.002 . S
Fe528 O539 1.976 . S
Fe528 O542 1.996 . S
Fe529 O530 1.918 . S
Fe529 O537 1.997 . S
Fe529 O540 1.996 . S
Fe529 O544 1.976 . S
Fe529 O547 2.002 . S
O530 Fe528 1.918 . S
O530 Fe529 1.918 . S
O530 Fe531 1.918 . S
Fe531 O530 1.918 . S
Fe531 O532 2.002 . S
Fe531 O541 1.976 . S
Fe531 O545 1.996 . S
Fe531 O548 1.997 . S
O532 Fe531 2.002 . S
O532 C549 1.295 . S
O533 Fe528 1.997 . S
O533 C549 1.235 . S
O534 Fe528 2.002 . S
O534 C535 1.295 . S
C535 O534 1.295 . S
C535 O537 1.235 . S
C536 O541 1.287 . S
C536 O542 1.255 . S
O537 Fe529 1.997 . S
O537 C535 1.235 . S
C538 O544 1.287 . S
C538 O545 1.255 . S
O539 Fe528 1.976 . S
O539 C546 1.287 . S
O540 Fe529 1.996 . S
O540 C546 1.255 . S
O541 Fe531 1.976 . S
O541 C536 1.287 . S
O542 Fe528 1.996 . S
O542 C536 1.255 . S
C543 O547 1.295 . S
C543 O548 1.235 . S
O544 Fe529 1.976 . S
O544 C538 1.287 . S
O545 Fe531 1.996 . S
O545 C538 1.255 . S
C546 O539 1.287 . S
C546 O540 1.255 . S
O547 Fe529 2.002 . S
O547 C543 1.295 . S
O548 Fe531 1.997 . S
O548 C543 1.235 . S
C549 O532 1.295 . S
C549 O533 1.235 . S
Fe550 O552 1.918 . S
Fe550 O555 1.997 . S
Fe550 O556 2.002 . S
Fe550 O561 1.976 . S
Fe550 O564 1.996 . S
Fe551 O552 1.918 . S
Fe551 O559 1.997 . S
Fe551 O562 1.996 . S
Fe551 O566 1.976 . S
Fe551 O569 2.002 . S
O552 Fe550 1.918 . S
O552 Fe551 1.918 . S
O552 Fe553 1.918 . S
Fe553 O552 1.918 . S
Fe553 O554 2.002 . S
Fe553 O563 1.976 . S
Fe553 O567 1.996 . S
Fe553 O570 1.997 . S
O554 Fe553 2.002 . S
O554 C571 1.295 . S
O555 Fe550 1.997 . S
O555 C571 1.235 . S
O556 Fe550 2.002 . S
O556 C557 1.295 . S
C557 O556 1.295 . S
C557 O559 1.235 . S
C558 O563 1.287 . S
C558 O564 1.255 . S
O559 Fe551 1.997 . S
O559 C557 1.235 . S
C560 O566 1.287 . S
C560 O567 1.255 . S
O561 Fe550 1.976 . S
O561 C568 1.287 . S
O562 Fe551 1.996 . S
O562 C568 1.255 . S
O563 Fe553 1.976 . S
O563 C558 1.287 . S
O564 Fe550 1.996 . S
O564 C558 1.255 . S
C565 O569 1.295 . S
C565 O570 1.235 . S
O566 Fe551 1.976 . S
O566 C560 1.287 . S
O567 Fe553 1.996 . S
O567 C560 1.255 . S
C568 O561 1.287 . S
C568 O562 1.255 . S
O569 Fe551 2.002 . S
O569 C565 1.295 . S
O570 Fe553 1.997 . S
O570 C565 1.235 . S
C571 O554 1.295 . S
C571 O555 1.235 . S
Fe572 O574 1.918 . S
Fe572 O577 1.997 . S
Fe572 O578 2.002 . S
Fe572 O583 1.976 . S
Fe572 O586 1.996 . S
Fe573 O574 1.918 . S
Fe573 O581 1.997 . S
Fe573 O584 1.996 . S
Fe573 O588 1.976 . S
Fe573 O591 2.002 . S
O574 Fe572 1.918 . S
O574 Fe573 1.918 . S
O574 Fe575 1.918 . S
Fe575 O574 1.918 . S
Fe575 O576 2.002 . S
Fe575 O585 1.976 . S
Fe575 O589 1.996 . S
Fe575 O592 1.997 . S
O576 Fe575 2.002 . S
O576 C593 1.295 . S
O577 Fe572 1.997 . S
O577 C593 1.235 . S
O578 Fe572 2.002 . S
O578 C579 1.295 . S
C579 O578 1.295 . S
C579 O581 1.235 . S
C580 O585 1.287 . S
C580 O586 1.255 . S
O581 Fe573 1.997 . S
O581 C579 1.235 . S
C582 O588 1.287 . S
C582 O589 1.255 . S
O583 Fe572 1.976 . S
O583 C590 1.287 . S
O584 Fe573 1.996 . S
O584 C590 1.255 . S
O585 Fe575 1.976 . S
O585 C580 1.287 . S
O586 Fe572 1.996 . S
O586 C580 1.255 . S
C587 O591 1.295 . S
C587 O592 1.235 . S
O588 Fe573 1.976 . S
O588 C582 1.287 . S
O589 Fe575 1.996 . S
O589 C582 1.255 . S
C590 O583 1.287 . S
C590 O584 1.255 . S
O591 Fe573 2.002 . S
O591 C587 1.295 . S
O592 Fe575 1.997 . S
O592 C587 1.235 . S
C593 O576 1.295 . S
C593 O577 1.235 . S
Fe594 O596 1.918 . S
Fe594 O599 1.997 . S
Fe594 O600 2.002 . S
Fe594 O605 1.976 . S
Fe594 O608 1.996 . S
Fe595 O596 1.918 . S
Fe595 O603 1.997 . S
Fe595 O606 1.996 . S
Fe595 O610 1.976 . S
Fe595 O613 2.002 . S
O596 Fe594 1.918 . S
O596 Fe595 1.918 . S
O596 Fe597 1.918 . S
Fe597 O596 1.918 . S
Fe597 O598 2.002 . S
Fe597 O607 1.976 . S
Fe597 O611 1.996 . S
Fe597 O614 1.997 . S
O598 Fe597 2.002 . S
O598 C615 1.295 . S
O599 Fe594 1.997 . S
O599 C615 1.235 . S
O600 Fe594 2.002 . S
O600 C601 1.295 . S
C601 O600 1.295 . S
C601 O603 1.235 . S
C602 O607 1.287 . S
C602 O608 1.255 . S
O603 Fe595 1.997 . S
O603 C601 1.235 . S
C604 O610 1.287 . S
C604 O611 1.255 . S
O605 Fe594 1.976 . S
O605 C612 1.287 . S
O606 Fe595 1.996 . S
O606 C612 1.255 . S
O607 Fe597 1.976 . S
O607 C602 1.287 . S
O608 Fe594 1.996 . S
O608 C602 1.255 . S
C609 O613 1.295 . S
C609 O614 1.235 . S
O610 Fe595 1.976 . S
O610 C604 1.287 . S
O611 Fe597 1.996 . S
O611 C604 1.255 . S
C612 O605 1.287 . S
C612 O606 1.255 . S
O613 Fe595 2.002 . S
O613 C609 1.295 . S
O614 Fe597 1.997 . S
O614 C609 1.235 . S
C615 O598 1.295 . S
C615 O599 1.235 . S
Fe616 O618 1.918 . S
Fe616 O621 1.997 . S
Fe616 O622 2.002 . S
Fe616 O627 1.976 . S
Fe616 O630 1.996 . S
Fe617 O618 1.918 . S
Fe617 O625 1.997 . S
Fe617 O628 1.996 . S
Fe617 O632 1.976 . S
Fe617 O635 2.002 . S
O618 Fe616 1.918 . S
O618 Fe617 1.918 . S
O618 Fe619 1.918 . S
Fe619 O618 1.918 . S
Fe619 O620 2.002 . S
Fe619 O629 1.976 . S
Fe619 O633 1.996 . S
Fe619 O636 1.997 . S
O620 Fe619 2.002 . S
O620 C637 1.295 . S
O621 Fe616 1.997 . S
O621 C637 1.235 . S
O622 Fe616 2.002 . S
O622 C623 1.295 . S
C623 O622 1.295 . S
C623 O625 1.235 . S
C624 O629 1.287 . S
C624 O630 1.255 . S
O625 Fe617 1.997 . S
O625 C623 1.235 . S
C626 O632 1.287 . S
C626 O633 1.255 . S
O627 Fe616 1.976 . S
O627 C634 1.287 . S
O628 Fe617 1.996 . S
O628 C634 1.255 . S
O629 Fe619 1.976 . S
O629 C624 1.287 . S
O630 Fe616 1.996 . S
O630 C624 1.255 . S
C631 O635 1.295 . S
C631 O636 1.235 . S
O632 Fe617 1.976 . S
O632 C626 1.287 . S
O633 Fe619 1.996 . S
O633 C626 1.255 . S
C634 O627 1.287 . S
C634 O628 1.255 . S
O635 Fe617 2.002 . S
O635 C631 1.295 . S
O636 Fe619 1.997 . S
O636 C631 1.235 . S
C637 O620 1.295 . S
C637 O621 1.235 . S
Fe638 O640 1.918 . S
Fe638 O643 1.997 . S
Fe638 O644 2.002 . S
Fe638 O649 1.976 . S
Fe638 O652 1.996 . S
Fe639 O640 1.918 . S
Fe639 O647 1.997 . S
Fe639 O650 1.996 . S
Fe639 O654 1.976 . S
Fe639 O657 2.002 . S
O640 Fe638 1.918 . S
O640 Fe639 1.918 . S
O640 Fe641 1.918 . S
Fe641 O640 1.918 . S
Fe641 O642 2.002 . S
Fe641 O651 1.976 . S
Fe641 O655 1.996 . S
Fe641 O658 1.997 . S
O642 Fe641 2.002 . S
O642 C659 1.295 . S
O643 Fe638 1.997 . S
O643 C659 1.235 . S
O644 Fe638 2.002 . S
O644 C645 1.295 . S
C645 O644 1.295 . S
C645 O647 1.235 . S
C646 O651 1.287 . S
C646 O652 1.255 . S
O647 Fe639 1.997 . S
O647 C645 1.235 . S
C648 O654 1.287 . S
C648 O655 1.255 . S
O649 Fe638 1.976 . S
O649 C656 1.287 . S
O650 Fe639 1.996 . S
O650 C656 1.255 . S
O651 Fe641 1.976 . S
O651 C646 1.287 . S
O652 Fe638 1.996 . S
O652 C646 1.255 . S
C653 O657 1.295 . S
C653 O658 1.235 . S
O654 Fe639 1.976 . S
O654 C648 1.287 . S
O655 Fe641 1.996 . S
O655 C648 1.255 . S
C656 O649 1.287 . S
C656 O650 1.255 . S
O657 Fe639 2.002 . S
O657 C653 1.295 . S
O658 Fe641 1.997 . S
O658 C653 1.235 . S
C659 O642 1.295 . S
C659 O643 1.235 . S
Fe660 O662 1.918 . S
Fe660 O665 1.997 . S
Fe660 O666 2.002 . S
Fe660 O671 1.976 . S
Fe660 O674 1.996 . S
Fe661 O662 1.918 . S
Fe661 O669 1.997 . S
Fe661 O672 1.996 . S
Fe661 O676 1.976 . S
Fe661 O679 2.002 . S
O662 Fe660 1.918 . S
O662 Fe661 1.918 . S
O662 Fe663 1.918 . S
Fe663 O662 1.918 . S
Fe663 O664 2.002 . S
Fe663 O673 1.976 . S
Fe663 O677 1.996 . S
Fe663 O680 1.997 . S
O664 Fe663 2.002 . S
O664 C681 1.295 . S
O665 Fe660 1.997 . S
O665 C681 1.235 . S
O666 Fe660 2.002 . S
O666 C667 1.295 . S
C667 O666 1.295 . S
C667 O669 1.235 . S
C668 O673 1.287 . S
C668 O674 1.255 . S
O669 Fe661 1.997 . S
O669 C667 1.235 . S
C670 O676 1.287 . S
C670 O677 1.255 . S
O671 Fe660 1.976 . S
O671 C678 1.287 . S
O672 Fe661 1.996 . S
O672 C678 1.255 . S
O673 Fe663 1.976 . S
O673 C668 1.287 . S
O674 Fe660 1.996 . S
O674 C668 1.255 . S
C675 O679 1.295 . S
C675 O680 1.235 . S
O676 Fe661 1.976 . S
O676 C670 1.287 . S
O677 Fe663 1.996 . S
O677 C670 1.255 . S
C678 O671 1.287 . S
C678 O672 1.255 . S
O679 Fe661 2.002 . S
O679 C675 1.295 . S
O680 Fe663 1.997 . S
O680 C675 1.235 . S
C681 O664 1.295 . S
C681 O665 1.235 . S
Fe682 O684 1.918 . S
Fe682 O687 1.997 . S
Fe682 O688 2.002 . S
Fe682 O693 1.976 . S
Fe682 O696 1.996 . S
Fe683 O684 1.918 . S
Fe683 O691 1.997 . S
Fe683 O694 1.996 . S
Fe683 O698 1.976 . S
Fe683 O701 2.002 . S
O684 Fe682 1.918 . S
O684 Fe683 1.918 . S
O684 Fe685 1.918 . S
Fe685 O684 1.918 . S
Fe685 O686 2.002 . S
Fe685 O695 1.976 . S
Fe685 O699 1.996 . S
Fe685 O702 1.997 . S
O686 Fe685 2.002 . S
O686 C703 1.295 . S
O687 Fe682 1.997 . S
O687 C703 1.235 . S
O688 Fe682 2.002 . S
O688 C689 1.295 . S
C689 O688 1.295 . S
C689 O691 1.235 . S
C690 O695 1.287 . S
C690 O696 1.255 . S
O691 Fe683 1.997 . S
O691 C689 1.235 . S
C692 O698 1.287 . S
C692 O699 1.255 . S
O693 Fe682 1.976 . S
O693 C700 1.287 . S
O694 Fe683 1.996 . S
O694 C700 1.255 . S
O695 Fe685 1.976 . S
O695 C690 1.287 . S
O696 Fe682 1.996 . S
O696 C690 1.255 . S
C697 O701 1.295 . S
C697 O702 1.235 . S
O698 Fe683 1.976 . S
O698 C692 1.287 . S
O699 Fe685 1.996 . S
O699 C692 1.255 . S
C700 O693 1.287 . S
C700 O694 1.255 . S
O701 Fe683 2.002 . S
O701 C697 1.295 . S
O702 Fe685 1.997 . S
O702 C697 1.235 . S
C703 O686 1.295 . S
C703 O687 1.235 . S
Fe704 O706 1.918 . S
Fe704 O709 1.997 . S
Fe704 O710 2.002 . S
Fe704 O715 1.976 . S
Fe704 O718 1.996 . S
Fe705 O706 1.918 . S
Fe705 O713 1.997 . S
Fe705 O716 1.996 . S
Fe705 O720 1.976 . S
Fe705 O723 2.002 . S
O706 Fe704 1.918 . S
O706 Fe705 1.918 . S
O706 Fe707 1.918 . S
Fe707 O706 1.918 . S
Fe707 O708 2.002 . S
Fe707 O717 1.976 . S
Fe707 O721 1.996 . S
Fe707 O724 1.997 . S
O708 Fe707 2.002 . S
O708 C725 1.295 . S
O709 Fe704 1.997 . S
O709 C725 1.235 . S
O710 Fe704 2.002 . S
O710 C711 1.295 . S
C711 O710 1.295 . S
C711 O713 1.235 . S
C712 O717 1.287 . S
C712 O718 1.255 . S
O713 Fe705 1.997 . S
O713 C711 1.235 . S
C714 O720 1.287 . S
C714 O721 1.255 . S
O715 Fe704 1.976 . S
O715 C722 1.287 . S
O716 Fe705 1.996 . S
O716 C722 1.255 . S
O717 Fe707 1.976 . S
O717 C712 1.287 . S
O718 Fe704 1.996 . S
O718 C712 1.255 . S
C719 O723 1.295 . S
C719 O724 1.235 . S
O720 Fe705 1.976 . S
O720 C714 1.287 . S
O721 Fe707 1.996 . S
O721 C714 1.255 . S
C722 O715 1.287 . S
C722 O716 1.255 . S
O723 Fe705 2.002 . S
O723 C719 1.295 . S
O724 Fe707 1.997 . S
O724 C719 1.235 . S
C725 O708 1.295 . S
C725 O709 1.235 . S
Fe726 O728 1.918 . S
Fe726 O731 1.997 . S
Fe726 O732 2.002 . S
Fe726 O737 1.976 . S
Fe726 O740 1.996 . S
Fe727 O728 1.918 . S
Fe727 O735 1.997 . S
Fe727 O738 1.996 . S
Fe727 O742 1.976 . S
Fe727 O745 2.002 . S
O728 Fe726 1.918 . S
O728 Fe727 1.918 . S
O728 Fe729 1.918 . S
Fe729 O728 1.918 . S
Fe729 O730 2.002 . S
Fe729 O739 1.976 . S
Fe729 O743 1.996 . S
Fe729 O746 1.997 . S
O730 Fe729 2.002 . S
O730 C747 1.295 . S
O731 Fe726 1.997 . S
O731 C747 1.235 . S
O732 Fe726 2.002 . S
O732 C733 1.295 . S
C733 O732 1.295 . S
C733 O735 1.235 . S
C734 O739 1.287 . S
C734 O740 1.255 . S
O735 Fe727 1.997 . S
O735 C733 1.235 . S
C736 O742 1.287 . S
C736 O743 1.255 . S
O737 Fe726 1.976 . S
O737 C744 1.287 . S
O738 Fe727 1.996 . S
O738 C744 1.255 . S
O739 Fe729 1.976 . S
O739 C734 1.287 . S
O740 Fe726 1.996 . S
O740 C734 1.255 . S
C741 O745 1.295 . S
C741 O746 1.235 . S
O742 Fe727 1.976 . S
O742 C736 1.287 . S
O743 Fe729 1.996 . S
O743 C736 1.255 . S
C744 O737 1.287 . S
C744 O738 1.255 . S
O745 Fe727 2.002 . S
O745 C741 1.295 . S
O746 Fe729 1.997 . S
O746 C741 1.235 . S
C747 O730 1.295 . S
C747 O731 1.235 . S
Fe748 O750 1.918 . S
Fe748 O753 1.997 . S
Fe748 O754 2.002 . S
Fe748 O759 1.976 . S
Fe748 O762 1.996 . S
Fe749 O750 1.918 . S
Fe749 O757 1.997 . S
Fe749 O760 1.996 . S
Fe749 O764 1.976 . S
Fe749 O767 2.002 . S
O750 Fe748 1.918 . S
O750 Fe749 1.918 . S
O750 Fe751 1.918 . S
Fe751 O750 1.918 . S
Fe751 O752 2.002 . S
Fe751 O761 1.976 . S
Fe751 O765 1.996 . S
Fe751 O768 1.997 . S
O752 Fe751 2.002 . S
O752 C769 1.295 . S
O753 Fe748 1.997 . S
O753 C769 1.235 . S
O754 Fe748 2.002 . S
O754 C755 1.295 . S
C755 O754 1.295 . S
C755 O757 1.235 . S
C756 O761 1.287 . S
C756 O762 1.255 . S
O757 Fe749 1.997 . S
O757 C755 1.235 . S
C758 O764 1.287 . S
C758 O765 1.255 . S
O759 Fe748 1.976 . S
O759 C766 1.287 . S
O760 Fe749 1.996 . S
O760 C766 1.255 . S
O761 Fe751 1.976 . S
O761 C756 1.287 . S
O762 Fe748 1.996 . S
O762 C756 1.255 . S
C763 O767 1.295 . S
C763 O768 1.235 . S
O764 Fe749 1.976 . S
O764 C758 1.287 . S
O765 Fe751 1.996 . S
O765 C758 1.255 . S
C766 O759 1.287 . S
C766 O760 1.255 . S
O767 Fe749 2.002 . S
O767 C763 1.295 . S
O768 Fe751 1.997 . S
O768 C763 1.235 . S
C769 O752 1.295 . S
C769 O753 1.235 . S
Fe770 O772 1.918 . S
Fe770 O775 1.997 . S
Fe770 O776 2.002 . S
Fe770 O781 1.976 . S
Fe770 O784 1.996 . S
Fe771 O772 1.918 . S
Fe771 O779 1.997 . S
Fe771 O782 1.996 . S
Fe771 O786 1.976 . S
Fe771 O789 2.002 . S
O772 Fe770 1.918 . S
O772 Fe771 1.918 . S
O772 Fe773 1.918 . S
Fe773 O772 1.918 . S
Fe773 O774 2.002 . S
Fe773 O783 1.976 . S
Fe773 O787 1.996 . S
Fe773 O790 1.997 . S
O774 Fe773 2.002 . S
O774 C791 1.295 . S
O775 Fe770 1.997 . S
O775 C791 1.235 . S
O776 Fe770 2.002 . S
O776 C777 1.295 . S
C777 O776 1.295 . S
C777 O779 1.235 . S
C778 O783 1.287 . S
C778 O784 1.255 . S
O779 Fe771 1.997 . S
O779 C777 1.235 . S
C780 O786 1.287 . S
C780 O787 1.255 . S
O781 Fe770 1.976 . S
O781 C788 1.287 . S
O782 Fe771 1.996 . S
O782 C788 1.255 . S
O783 Fe773 1.976 . S
O783 C778 1.287 . S
O784 Fe770 1.996 . S
O784 C778 1.255 . S
C785 O789 1.295 . S
C785 O790 1.235 . S
O786 Fe771 1.976 . S
O786 C780 1.287 . S
O787 Fe773 1.996 . S
O787 C780 1.255 . S
C788 O781 1.287 . S
C788 O782 1.255 . S
O789 Fe771 2.002 . S
O789 C785 1.295 . S
O790 Fe773 1.997 . S
O790 C785 1.235 . S
C791 O774 1.295 . S
C791 O775 1.235 . S
C792 C793 1.349 . S
C792 C794 1.327 . S
C792 H817 0.950 . S
C793 C792 1.349 . S
C793 C809 1.349 . S
C794 C792 1.327 . S
C794 C813 1.429 . S
C794 H818 0.950 . S
C795 C812 1.574 . S
C795 C814 1.368 . S
C795 H819 0.949 . S
H796 C800 0.949 . S
C797 C798 1.349 . S
C797 C799 1.327 . S
C797 H820 0.950 . S
C798 C797 1.349 . S
C798 C810 1.349 . S
C799 C797 1.327 . S
C799 C815 1.429 . S
C799 H821 0.950 . S
C800 H796 0.949 . S
C800 C808 1.574 . S
C800 C816 1.368 . S
H801 C809 0.950 . S
H802 C807 0.950 . S
H803 C808 0.949 . S
H804 C810 0.950 . S
H805 C811 0.950 . S
H806 C812 0.949 . S
C807 H802 0.950 . S
C807 C809 1.327 . S
C807 C813 1.429 . S
C808 C800 1.574 . S
C808 H803 0.949 . S
C808 C814 1.368 . S
C809 C793 1.349 . S
C809 H801 0.950 . S
C809 C807 1.327 . S
C810 C798 1.349 . S
C810 H804 0.950 . S
C810 C811 1.327 . S
C811 H805 0.950 . S
C811 C810 1.327 . S
C811 C815 1.429 . S
C812 C795 1.574 . S
C812 H806 0.949 . S
C812 C816 1.368 . S
C813 C794 1.429 . S
C813 C807 1.429 . S
C813 C814 1.523 . S
C814 C795 1.368 . S
C814 C808 1.368 . S
C814 C813 1.523 . S
C815 C799 1.429 . S
C815 C811 1.429 . S
C815 C816 1.523 . S
C816 C800 1.368 . S
C816 C812 1.368 . S
C816 C815 1.523 . S
H817 C792 0.950 . S
H818 C794 0.950 . S
H819 C795 0.949 . S
H820 C797 0.950 . S
H821 C799 0.950 . S
C822 C823 1.349 . S
C822 C824 1.327 . S
C822 H847 0.950 . S
C823 C822 1.349 . S
C823 C839 1.349 . S
C824 C822 1.327 . S
C824 C843 1.429 . S
C824 H848 0.950 . S
C825 C842 1.574 . S
C825 C844 1.368 . S
C825 H849 0.949 . S
H826 C830 0.949 . S
C827 C828 1.349 . S
C827 C829 1.327 . S
C827 H850 0.950 . S
C828 C827 1.349 . S
C828 C840 1.349 . S
C829 C827 1.327 . S
C829 C845 1.429 . S
C829 H851 0.950 . S
C830 H826 0.949 . S
C830 C838 1.574 . S
C830 C846 1.368 . S
H831 C839 0.950 . S
H832 C837 0.950 . S
H833 C838 0.949 . S
H834 C840 0.950 . S
H835 C841 0.950 . S
H836 C842 0.949 . S
C837 H832 0.950 . S
C837 C839 1.327 . S
C837 C843 1.429 . S
C838 C830 1.574 . S
C838 H833 0.949 . S
C838 C844 1.368 . S
C839 C823 1.349 . S
C839 H831 0.950 . S
C839 C837 1.327 . S
C840 C828 1.349 . S
C840 H834 0.950 . S
C840 C841 1.327 . S
C841 H835 0.950 . S
C841 C840 1.327 . S
C841 C845 1.429 . S
C842 C825 1.574 . S
C842 H836 0.949 . S
C842 C846 1.368 . S
C843 C824 1.429 . S
C843 C837 1.429 . S
C843 C844 1.523 . S
C844 C825 1.368 . S
C844 C838 1.368 . S
C844 C843 1.523 . S
C845 C829 1.429 . S
C845 C841 1.429 . S
C845 C846 1.523 . S
C846 C830 1.368 . S
C846 C842 1.368 . S
C846 C845 1.523 . S
H847 C822 0.950 . S
H848 C824 0.950 . S
H849 C825 0.949 . S
H850 C827 0.950 . S
H851 C829 0.950 . S
C852 C853 1.349 . S
C852 C854 1.327 . S
C852 H877 0.950 . S
C853 C852 1.349 . S
C853 C869 1.349 . S
C854 C852 1.327 . S
C854 C873 1.429 . S
C854 H878 0.950 . S
C855 C872 1.574 . S
C855 C874 1.368 . S
C855 H879 0.949 . S
H856 C860 0.949 . S
C857 C858 1.349 . S
C857 C859 1.327 . S
C857 H880 0.950 . S
C858 C857 1.349 . S
C858 C870 1.349 . S
C859 C857 1.327 . S
C859 C875 1.429 . S
C859 H881 0.950 . S
C860 H856 0.949 . S
C860 C868 1.574 . S
C860 C876 1.368 . S
H861 C869 0.950 . S
H862 C867 0.950 . S
H863 C868 0.949 . S
H864 C870 0.950 . S
H865 C871 0.950 . S
H866 C872 0.949 . S
C867 H862 0.950 . S
C867 C869 1.327 . S
C867 C873 1.429 . S
C868 C860 1.574 . S
C868 H863 0.949 . S
C868 C874 1.368 . S
C869 C853 1.349 . S
C869 H861 0.950 . S
C869 C867 1.327 . S
C870 C858 1.349 . S
C870 H864 0.950 . S
C870 C871 1.327 . S
C871 H865 0.950 . S
C871 C870 1.327 . S
C871 C875 1.429 . S
C872 C855 1.574 . S
C872 H866 0.949 . S
C872 C876 1.368 . S
C873 C854 1.429 . S
C873 C867 1.429 . S
C873 C874 1.523 . S
C874 C855 1.368 . S
C874 C868 1.368 . S
C874 C873 1.523 . S
C875 C859 1.429 . S
C875 C871 1.429 . S
C875 C876 1.523 . S
C876 C860 1.368 . S
C876 C872 1.368 . S
C876 C875 1.523 . S
H877 C852 0.950 . S
H878 C854 0.950 . S
H879 C855 0.949 . S
H880 C857 0.950 . S
H881 C859 0.950 . S
C882 C883 1.349 . S
C882 C884 1.327 . S
C882 H907 0.950 . S
C883 C882 1.349 . S
C883 C899 1.349 . S
C884 C882 1.327 . S
C884 C903 1.429 . S
C884 H908 0.950 . S
C885 C902 1.574 . S
C885 C904 1.368 . S
C885 H909 0.949 . S
H886 C890 0.949 . S
C887 C888 1.349 . S
C887 C889 1.327 . S
C887 H910 0.950 . S
C888 C887 1.349 . S
C888 C900 1.349 . S
C889 C887 1.327 . S
C889 C905 1.429 . S
C889 H911 0.950 . S
C890 H886 0.949 . S
C890 C898 1.574 . S
C890 C906 1.368 . S
H891 C899 0.950 . S
H892 C897 0.950 . S
H893 C898 0.949 . S
H894 C900 0.950 . S
H895 C901 0.950 . S
H896 C902 0.949 . S
C897 H892 0.950 . S
C897 C899 1.327 . S
C897 C903 1.429 . S
C898 C890 1.574 . S
C898 H893 0.949 . S
C898 C904 1.368 . S
C899 C883 1.349 . S
C899 H891 0.950 . S
C899 C897 1.327 . S
C900 C888 1.349 . S
C900 H894 0.950 . S
C900 C901 1.327 . S
C901 H895 0.950 . S
C901 C900 1.327 . S
C901 C905 1.429 . S
C902 C885 1.574 . S
C902 H896 0.949 . S
C902 C906 1.368 . S
C903 C884 1.429 . S
C903 C897 1.429 . S
C903 C904 1.523 . S
C904 C885 1.368 . S
C904 C898 1.368 . S
C904 C903 1.523 . S
C905 C889 1.429 . S
C905 C901 1.429 . S
C905 C906 1.523 . S
C906 C890 1.368 . S
C906 C902 1.368 . S
C906 C905 1.523 . S
H907 C882 0.950 . S
H908 C884 0.950 . S
H909 C885 0.949 . S
H910 C887 0.950 . S
H911 C889 0.950 . S
C912 C913 1.349 . S
C912 C914 1.327 . S
C912 H937 0.950 . S
C913 C912 1.349 . S
C913 C929 1.349 . S
C914 C912 1.327 . S
C914 C933 1.429 . S
C914 H938 0.950 . S
C915 C932 1.574 . S
C915 C934 1.368 . S
C915 H939 0.949 . S
H916 C920 0.949 . S
C917 C918 1.349 . S
C917 C919 1.327 . S
C917 H940 0.950 . S
C918 C917 1.349 . S
C918 C930 1.349 . S
C919 C917 1.327 . S
C919 C935 1.429 . S
C919 H941 0.950 . S
C920 H916 0.949 . S
C920 C928 1.574 . S
C920 C936 1.368 . S
H921 C929 0.950 . S
H922 C927 0.950 . S
H923 C928 0.949 . S
H924 C930 0.950 . S
H925 C931 0.950 . S
H926 C932 0.949 . S
C927 H922 0.950 . S
C927 C929 1.327 . S
C927 C933 1.429 . S
C928 C920 1.574 . S
C928 H923 0.949 . S
C928 C934 1.368 . S
C929 C913 1.349 . S
C929 H921 0.950 . S
C929 C927 1.327 . S
C930 C918 1.349 . S
C930 H924 0.950 . S
C930 C931 1.327 . S
C931 H925 0.950 . S
C931 C930 1.327 . S
C931 C935 1.429 . S
C932 C915 1.574 . S
C932 H926 0.949 . S
C932 C936 1.368 . S
C933 C914 1.429 . S
C933 C927 1.429 . S
C933 C934 1.523 . S
C934 C915 1.368 . S
C934 C928 1.368 . S
C934 C933 1.523 . S
C935 C919 1.429 . S
C935 C931 1.429 . S
C935 C936 1.523 . S
C936 C920 1.368 . S
C936 C932 1.368 . S
C936 C935 1.523 . S
H937 C912 0.950 . S
H938 C914 0.950 . S
H939 C915 0.949 . S
H940 C917 0.950 . S
H941 C919 0.950 . S
C942 C943 1.349 . S
C942 C944 1.327 . S
C942 H967 0.950 . S
C943 C942 1.349 . S
C943 C959 1.349 . S
C944 C942 1.327 . S
C944 C963 1.429 . S
C944 H968 0.950 . S
C945 C962 1.574 . S
C945 C964 1.368 . S
C945 H969 0.949 . S
H946 C950 0.949 . S
C947 C948 1.349 . S
C947 C949 1.327 . S
C947 H970 0.950 . S
C948 C947 1.349 . S
C948 C960 1.349 . S
C949 C947 1.327 . S
C949 C965 1.429 . S
C949 H971 0.950 . S
C950 H946 0.949 . S
C950 C958 1.574 . S
C950 C966 1.368 . S
H951 C959 0.950 . S
H952 C957 0.950 . S
H953 C958 0.949 . S
H954 C960 0.950 . S
H955 C961 0.950 . S
H956 C962 0.949 . S
C957 H952 0.950 . S
C957 C959 1.327 . S
C957 C963 1.429 . S
C958 C950 1.574 . S
C958 H953 0.949 . S
C958 C964 1.368 . S
C959 C943 1.349 . S
C959 H951 0.950 . S
C959 C957 1.327 . S
C960 C948 1.349 . S
C960 H954 0.950 . S
C960 C961 1.327 . S
C961 H955 0.950 . S
C961 C960 1.327 . S
C961 C965 1.429 . S
C962 C945 1.574 . S
C962 H956 0.949 . S
C962 C966 1.368 . S
C963 C944 1.429 . S
C963 C957 1.429 . S
C963 C964 1.523 . S
C964 C945 1.368 . S
C964 C958 1.368 . S
C964 C963 1.523 . S
C965 C949 1.429 . S
C965 C961 1.429 . S
C965 C966 1.523 . S
C966 C950 1.368 . S
C966 C962 1.368 . S
C966 C965 1.523 . S
H967 C942 0.950 . S
H968 C944 0.950 . S
H969 C945 0.949 . S
H970 C947 0.950 . S
H971 C949 0.950 . S
C972 C973 1.349 . S
C972 C974 1.327 . S
C972 H997 0.950 . S
C973 C972 1.349 . S
C973 C989 1.349 . S
C974 C972 1.327 . S
C974 C993 1.429 . S
C974 H998 0.950 . S
C975 C992 1.574 . S
C975 C994 1.368 . S
C975 H999 0.949 . S
H976 C980 0.949 . S
C977 C978 1.349 . S
C977 C979 1.327 . S
C977 H1000 0.950 . S
C978 C977 1.349 . S
C978 C990 1.349 . S
C979 C977 1.327 . S
C979 C995 1.429 . S
C979 H1001 0.950 . S
C980 H976 0.949 . S
C980 C988 1.574 . S
C980 C996 1.368 . S
H981 C989 0.950 . S
H982 C987 0.950 . S
H983 C988 0.949 . S
H984 C990 0.950 . S
H985 C991 0.950 . S
H986 C992 0.949 . S
C987 H982 0.950 . S
C987 C989 1.327 . S
C987 C993 1.429 . S
C988 C980 1.574 . S
C988 H983 0.949 . S
C988 C994 1.368 . S
C989 C973 1.349 . S
C989 H981 0.950 . S
C989 C987 1.327 . S
C990 C978 1.349 . S
C990 H984 0.950 . S
C990 C991 1.327 . S
C991 H985 0.950 . S
C991 C990 1.327 . S
C991 C995 1.429 . S
C992 C975 1.574 . S
C992 H986 0.949 . S
C992 C996 1.368 . S
C993 C974 1.429 . S
C993 C987 1.429 . S
C993 C994 1.523 . S
C994 C975 1.368 . S
C994 C988 1.368 . S
C994 C993 1.523 . S
C995 C979 1.429 . S
C995 C991 1.429 . S
C995 C996 1.523 . S
C996 C980 1.368 . S
C996 C992 1.368 . S
C996 C995 1.523 . S
H997 C972 0.950 . S
H998 C974 0.950 . S
H999 C975 0.949 . S
H1000 C977 0.950 . S
H1001 C979 0.950 . S
C1002 C1003 1.349 . S
C1002 C1004 1.327 . S
C1002 H1027 0.950 . S
C1003 C1002 1.349 . S
C1003 C1019 1.349 . S
C1004 C1002 1.327 . S
C1004 C1023 1.429 . S
C1004 H1028 0.950 . S
C1005 C1022 1.574 . S
C1005 C1024 1.368 . S
C1005 H1029 0.949 . S
H1006 C1010 0.949 . S
C1007 C1008 1.349 . S
C1007 C1009 1.327 . S
C1007 H1030 0.950 . S
C1008 C1007 1.349 . S
C1008 C1020 1.349 . S
C1009 C1007 1.327 . S
C1009 C1025 1.429 . S
C1009 H1031 0.950 . S
C1010 H1006 0.949 . S
C1010 C1018 1.574 . S
C1010 C1026 1.368 . S
H1011 C1019 0.950 . S
H1012 C1017 0.950 . S
H1013 C1018 0.949 . S
H1014 C1020 0.950 . S
H1015 C1021 0.950 . S
H1016 C1022 0.949 . S
C1017 H1012 0.950 . S
C1017 C1019 1.327 . S
C1017 C1023 1.429 . S
C1018 C1010 1.574 . S
C1018 H1013 0.949 . S
C1018 C1024 1.368 . S
C1019 C1003 1.349 . S
C1019 H1011 0.950 . S
C1019 C1017 1.327 . S
C1020 C1008 1.349 . S
C1020 H1014 0.950 . S
C1020 C1021 1.327 . S
C1021 H1015 0.950 . S
C1021 C1020 1.327 . S
C1021 C1025 1.429 . S
C1022 C1005 1.574 . S
C1022 H1016 0.949 . S
C1022 C1026 1.368 . S
C1023 C1004 1.429 . S
C1023 C1017 1.429 . S
C1023 C1024 1.523 . S
C1024 C1005 1.368 . S
C1024 C1018 1.368 . S
C1024 C1023 1.523 . S
C1025 C1009 1.429 . S
C1025 C1021 1.429 . S
C1025 C1026 1.523 . S
C1026 C1010 1.368 . S
C1026 C1022 1.368 . S
C1026 C1025 1.523 . S
H1027 C1002 0.950 . S
H1028 C1004 0.950 . S
H1029 C1005 0.949 . S
H1030 C1007 0.950 . S
H1031 C1009 0.950 . S
C1032 C1033 1.349 . S
C1032 C1034 1.327 . S
C1032 H1057 0.950 . S
C1033 C1032 1.349 . S
C1033 C1049 1.349 . S
C1034 C1032 1.327 . S
C1034 C1053 1.429 . S
C1034 H1058 0.950 . S
C1035 C1052 1.574 . S
C1035 C1054 1.368 . S
C1035 H1059 0.949 . S
H1036 C1040 0.949 . S
C1037 C1038 1.349 . S
C1037 C1039 1.327 . S
C1037 H1060 0.950 . S
C1038 C1037 1.349 . S
C1038 C1050 1.349 . S
C1039 C1037 1.327 . S
C1039 C1055 1.429 . S
C1039 H1061 0.950 . S
C1040 H1036 0.949 . S
C1040 C1048 1.574 . S
C1040 C1056 1.368 . S
H1041 C1049 0.950 . S
H1042 C1047 0.950 . S
H1043 C1048 0.949 . S
H1044 C1050 0.950 . S
H1045 C1051 0.950 . S
H1046 C1052 0.949 . S
C1047 H1042 0.950 . S
C1047 C1049 1.327 . S
C1047 C1053 1.429 . S
C1048 C1040 1.574 . S
C1048 H1043 0.949 . S
C1048 C1054 1.368 . S
C1049 C1033 1.349 . S
C1049 H1041 0.950 . S
C1049 C1047 1.327 . S
C1050 C1038 1.349 . S
C1050 H1044 0.950 . S
C1050 C1051 1.327 . S
C1051 H1045 0.950 . S
C1051 C1050 1.327 . S
C1051 C1055 1.429 . S
C1052 C1035 1.574 . S
C1052 H1046 0.949 . S
C1052 C1056 1.368 . S
C1053 C1034 1.429 . S
C1053 C1047 1.429 . S
C1053 C1054 1.523 . S
C1054 C1035 1.368 . S
C1054 C1048 1.368 . S
C1054 C1053 1.523 . S
C1055 C1039 1.429 . S
C1055 C1051 1.429 . S
C1055 C1056 1.523 . S
C1056 C1040 1.368 . S
C1056 C1052 1.368 . S
C1056 C1055 1.523 . S
H1057 C1032 0.950 . S
H1058 C1034 0.950 . S
H1059 C1035 0.949 . S
H1060 C1037 0.950 . S
H1061 C1039 0.950 . S
C1062 C1063 1.349 . S
C1062 C1064 1.327 . S
C1062 H1087 0.950 . S
C1063 C1062 1.349 . S
C1063 C1079 1.349 . S
C1064 C1062 1.327 . S
C1064 C1083 1.429 . S
C1064 H1088 0.950 . S
C1065 C1082 1.574 . S
C1065 C1084 1.368 . S
C1065 H1089 0.949 . S
H1066 C1070 0.949 . S
C1067 C1068 1.349 . S
C1067 C1069 1.327 . S
C1067 H1090 0.950 . S
C1068 C1067 1.349 . S
C1068 C1080 1.349 . S
C1069 C1067 1.327 . S
C1069 C1085 1.429 . S
C1069 H1091 0.950 . S
C1070 H1066 0.949 . S
C1070 C1078 1.574 . S
C1070 C1086 1.368 . S
H1071 C1079 0.950 . S
H1072 C1077 0.950 . S
H1073 C1078 0.949 . S
H1074 C1080 0.950 . S
H1075 C1081 0.950 . S
H1076 C1082 0.949 . S
C1077 H1072 0.950 . S
C1077 C1079 1.327 . S
C1077 C1083 1.429 . S
C1078 C1070 1.574 . S
C1078 H1073 0.949 . S
C1078 C1084 1.368 . S
C1079 C1063 1.349 . S
C1079 H1071 0.950 . S
C1079 C1077 1.327 . S
C1080 C1068 1.349 . S
C1080 H1074 0.950 . S
C1080 C1081 1.327 . S
C1081 H1075 0.950 . S
C1081 C1080 1.327 . S
C1081 C1085 1.429 . S
C1082 C1065 1.574 . S
C1082 H1076 0.949 . S
C1082 C1086 1.368 . S
C1083 C1064 1.429 . S
C1083 C1077 1.429 . S
C1083 C1084 1.523 . S
C1084 C1065 1.368 . S
C1084 C1078 1.368 . S
C1084 C1083 1.523 . S
C1085 C1069 1.429 . S
C1085 C1081 1.429 . S
C1085 C1086 1.523 . S
C1086 C1070 1.368 . S
C1086 C1082 1.368 . S
C1086 C1085 1.523 . S
H1087 C1062 0.950 . S
H1088 C1064 0.950 . S
H1089 C1065 0.949 . S
H1090 C1067 0.950 . S
H1091 C1069 0.950 . S
C1092 C1093 1.349 . S
C1092 C1094 1.327 . S
C1092 H1117 0.950 . S
C1093 C1092 1.349 . S
C1093 C1109 1.349 . S
C1094 C1092 1.327 . S
C1094 C1113 1.429 . S
C1094 H1118 0.950 . S
C1095 C1112 1.574 . S
C1095 C1114 1.368 . S
C1095 H1119 0.949 . S
H1096 C1100 0.949 . S
C1097 C1098 1.349 . S
C1097 C1099 1.327 . S
C1097 H1120 0.950 . S
C1098 C1097 1.349 . S
C1098 C1110 1.349 . S
C1099 C1097 1.327 . S
C1099 C1115 1.429 . S
C1099 H1121 0.950 . S
C1100 H1096 0.949 . S
C1100 C1108 1.574 . S
C1100 C1116 1.368 . S
H1101 C1109 0.950 . S
H1102 C1107 0.950 . S
H1103 C1108 0.949 . S
H1104 C1110 0.950 . S
H1105 C1111 0.950 . S
H1106 C1112 0.949 . S
C1107 H1102 0.950 . S
C1107 C1109 1.327 . S
C1107 C1113 1.429 . S
C1108 C1100 1.574 . S
C1108 H1103 0.949 . S
C1108 C1114 1.368 . S
C1109 C1093 1.349 . S
C1109 H1101 0.950 . S
C1109 C1107 1.327 . S
C1110 C1098 1.349 . S
C1110 H1104 0.950 . S
C1110 C1111 1.327 . S
C1111 H1105 0.950 . S
C1111 C1110 1.327 . S
C1111 C1115 1.429 . S
C1112 C1095 1.574 . S
C1112 H1106 0.949 . S
C1112 C1116 1.368 . S
C1113 C1094 1.429 . S
C1113 C1107 1.429 . S
C1113 C1114 1.523 . S
C1114 C1095 1.368 . S
C1114 C1108 1.368 . S
C1114 C1113 1.523 . S
C1115 C1099 1.429 . S
C1115 C1111 1.429 . S
C1115 C1116 1.523 . S
C1116 C1100 1.368 . S
C1116 C1112 1.368 . S
C1116 C1115 1.523 . S
H1117 C1092 0.950 . S
H1118 C1094 0.950 . S
H1119 C1095 0.949 . S
H1120 C1097 0.950 . S
H1121 C1099 0.950 . S
C1122 C1123 1.349 . S
C1122 C1124 1.327 . S
C1122 H1147 0.950 . S
C1123 C1122 1.349 . S
C1123 C1139 1.349 . S
C1124 C1122 1.327 . S
C1124 C1143 1.429 . S
C1124 H1148 0.950 . S
C1125 C1142 1.574 . S
C1125 C1144 1.368 . S
C1125 H1149 0.949 . S
H1126 C1130 0.949 . S
C1127 C1128 1.349 . S
C1127 C1129 1.327 . S
C1127 H1150 0.950 . S
C1128 C1127 1.349 . S
C1128 C1140 1.349 . S
C1129 C1127 1.327 . S
C1129 C1145 1.429 . S
C1129 H1151 0.950 . S
C1130 H1126 0.949 . S
C1130 C1138 1.574 . S
C1130 C1146 1.368 . S
H1131 C1139 0.950 . S
H1132 C1137 0.950 . S
H1133 C1138 0.949 . S
H1134 C1140 0.950 . S
H1135 C1141 0.950 . S
H1136 C1142 0.949 . S
C1137 H1132 0.950 . S
C1137 C1139 1.327 . S
C1137 C1143 1.429 . S
C1138 C1130 1.574 . S
C1138 H1133 0.949 . S
C1138 C1144 1.368 . S
C1139 C1123 1.349 . S
C1139 H1131 0.950 . S
C1139 C1137 1.327 . S
C1140 C1128 1.349 . S
C1140 H1134 0.950 . S
C1140 C1141 1.327 . S
C1141 H1135 0.950 . S
C1141 C1140 1.327 . S
C1141 C1145 1.429 . S
C1142 C1125 1.574 . S
C1142 H1136 0.949 . S
C1142 C1146 1.368 . S
C1143 C1124 1.429 . S
C1143 C1137 1.429 . S
C1143 C1144 1.523 . S
C1144 C1125 1.368 . S
C1144 C1138 1.368 . S
C1144 C1143 1.523 . S
C1145 C1129 1.429 . S
C1145 C1141 1.429 . S
C1145 C1146 1.523 . S
C1146 C1130 1.368 . S
C1146 C1142 1.368 . S
C1146 C1145 1.523 . S
H1147 C1122 0.950 . S
H1148 C1124 0.950 . S
H1149 C1125 0.949 . S
H1150 C1127 0.950 . S
H1151 C1129 0.950 . S
C1152 C1153 1.349 . S
C1152 C1154 1.327 . S
C1152 H1177 0.950 . S
C1153 C1152 1.349 . S
C1153 C1169 1.349 . S
C1154 C1152 1.327 . S
C1154 C1173 1.429 . S
C1154 H1178 0.950 . S
C1155 C1172 1.569 1_656 S
C1155 C1174 1.368 . S
C1155 H1179 0.949 . S
H1156 C1160 0.949 . S
C1157 C1158 1.349 . S
C1157 C1159 1.327 . S
C1157 H1180 0.950 . S
C1158 C1157 1.349 . S
C1158 C1170 1.349 . S
C1159 C1157 1.327 . S
C1159 C1175 1.429 . S
C1159 H1181 0.950 . S
C1160 H1156 0.949 . S
C1160 C1168 1.571 1_454 S
C1160 C1176 1.368 . S
H1161 C1169 0.950 . S
H1162 C1167 0.950 . S
H1163 C1168 0.949 . S
H1164 C1170 0.950 . S
H1165 C1171 0.950 . S
H1166 C1172 0.949 . S
C1167 H1162 0.950 . S
C1167 C1169 1.327 . S
C1167 C1173 1.429 . S
C1168 C1160 1.571 1_656 S
C1168 H1163 0.949 . S
C1168 C1174 1.371 . S
C1169 C1153 1.349 . S
C1169 H1161 0.950 . S
C1169 C1167 1.327 . S
C1170 C1158 1.349 . S
C1170 H1164 0.950 . S
C1170 C1171 1.327 . S
C1171 H1165 0.950 . S
C1171 C1170 1.327 . S
C1171 C1175 1.429 . S
C1172 C1155 1.569 1_454 S
C1172 H1166 0.949 . S
C1172 C1176 1.373 . S
C1173 C1154 1.429 . S
C1173 C1167 1.429 . S
C1173 C1174 1.523 . S
C1174 C1155 1.368 . S
C1174 C1168 1.371 . S
C1174 C1173 1.523 . S
C1175 C1159 1.429 . S
C1175 C1171 1.429 . S
C1175 C1176 1.523 . S
C1176 C1160 1.368 . S
C1176 C1172 1.373 . S
C1176 C1175 1.523 . S
H1177 C1152 0.950 . S
H1178 C1154 0.950 . S
H1179 C1155 0.949 . S
H1180 C1157 0.950 . S
H1181 C1159 0.950 . S
C1182 C1183 1.349 . S
C1182 C1184 1.327 . S
C1182 H1207 0.950 . S
C1183 C1182 1.349 . S
C1183 C1199 1.349 . S
C1184 C1182 1.327 . S
C1184 C1203 1.429 . S
C1184 H1208 0.950 . S
C1185 C1202 1.574 . S
C1185 C1204 1.368 1_556 S
C1185 H1209 0.949 . S
H1186 C1190 0.949 . S
C1187 C1188 1.349 . S
C1187 C1189 1.327 . S
C1187 H1210 0.950 . S
C1188 C1187 1.349 . S
C1188 C1200 1.349 . S
C1189 C1187 1.327 . S
C1189 C1205 1.429 . S
C1189 H1211 0.950 . S
C1190 H1186 0.949 . S
C1190 C1198 1.574 . S
C1190 C1206 1.368 1_554 S
H1191 C1199 0.950 . S
H1192 C1197 0.950 1_556 S
H1193 C1198 0.949 . S
H1194 C1200 0.950 . S
H1195 C1201 0.950 1_554 S
H1196 C1202 0.949 . S
C1197 H1192 0.950 1_554 S
C1197 C1199 1.327 . S
C1197 C1203 1.429 . S
C1198 C1190 1.574 . S
C1198 H1193 0.949 . S
C1198 C1204 1.368 . S
C1199 C1183 1.349 . S
C1199 H1191 0.950 . S
C1199 C1197 1.327 . S
C1200 C1188 1.349 . S
C1200 H1194 0.950 . S
C1200 C1201 1.327 . S
C1201 H1195 0.950 1_556 S
C1201 C1200 1.327 . S
C1201 C1205 1.429 . S
C1202 C1185 1.574 . S
C1202 H1196 0.949 . S
C1202 C1206 1.368 . S
C1203 C1184 1.429 . S
C1203 C1197 1.429 . S
C1203 C1204 1.523 . S
C1204 C1185 1.368 1_554 S
C1204 C1198 1.368 . S
C1204 C1203 1.523 . S
C1205 C1189 1.429 . S
C1205 C1201 1.429 . S
C1205 C1206 1.523 . S
C1206 C1190 1.368 1_556 S
C1206 C1202 1.368 . S
C1206 C1205 1.523 . S
H1207 C1182 0.950 . S
H1208 C1184 0.950 . S
H1209 C1185 0.949 . S
H1210 C1187 0.950 . S
H1211 C1189 0.950 . S
C1212 C1213 1.349 . S
C1212 C1214 1.327 . S
C1212 H1237 0.950 . S
C1213 C1212 1.349 . S
C1213 C1229 1.349 . S
C1214 C1212 1.327 . S
C1214 C1233 1.429 . S
C1214 H1238 0.950 . S
C1215 C1232 1.574 1_545 S
C1215 C1234 1.368 1_554 S
C1215 H1239 0.949 . S
H1216 C1220 0.949 . S
C1217 C1218 1.349 . S
C1217 C1219 1.327 . S
C1217 H1240 0.950 . S
C1218 C1217 1.349 . S
C1218 C1230 1.349 . S
C1219 C1217 1.327 . S
C1219 C1235 1.429 . S
C1219 H1241 0.950 . S
C1220 H1216 0.949 . S
C1220 C1228 1.574 1_565 S
C1220 C1236 1.368 1_556 S
H1221 C1229 0.950 . S
H1222 C1227 0.950 . S
H1223 C1228 0.949 . S
H1224 C1230 0.950 . S
H1225 C1231 0.950 . S
H1226 C1232 0.949 . S
C1227 H1222 0.950 . S
C1227 C1229 1.327 . S
C1227 C1233 1.429 . S
C1228 C1220 1.574 1_545 S
C1228 H1223 0.949 . S
C1228 C1234 1.368 . S
C1229 C1213 1.349 . S
C1229 H1221 0.950 . S
C1229 C1227 1.327 . S
C1230 C1218 1.349 . S
C1230 H1224 0.950 . S
C1230 C1231 1.327 . S
C1231 H1225 0.950 . S
C1231 C1230 1.327 . S
C1231 C1235 1.429 . S
C1232 C1215 1.574 1_565 S
C1232 H1226 0.949 . S
C1232 C1236 1.368 . S
C1233 C1214 1.429 . S
C1233 C1227 1.429 . S
C1233 C1234 1.523 . S
C1234 C1215 1.368 1_556 S
C1234 C1228 1.368 . S
C1234 C1233 1.523 . S
C1235 C1219 1.429 . S
C1235 C1231 1.429 . S
C1235 C1236 1.523 . S
C1236 C1220 1.368 1_554 S
C1236 C1232 1.368 . S
C1236 C1235 1.523 . S
H1237 C1212 0.950 . S
H1238 C1214 0.950 . S
H1239 C1215 0.949 . S
H1240 C1217 0.950 . S
H1241 C1219 0.950 . S
C1242 C1243 1.349 . S
C1242 C1244 1.327 . S
C1242 H1267 0.950 . S
C1243 C1242 1.349 . S
C1243 C1259 1.349 . S
C1244 C1242 1.327 . S
C1244 C1263 1.429 . S
C1244 H1268 0.950 1_554 S
C1245 C1262 1.574 1_565 S
C1245 C1264 1.368 . S
C1245 H1269 0.949 . S
H1246 C1250 0.949 . S
C1247 C1248 1.349 . S
C1247 C1249 1.327 . S
C1247 H1270 0.950 . S
C1248 C1247 1.349 . S
C1248 C1260 1.349 . S
C1249 C1247 1.327 . S
C1249 C1265 1.429 . S
C1249 H1271 0.950 1_556 S
C1250 H1246 0.949 . S
C1250 C1258 1.574 1_545 S
C1250 C1266 1.368 . S
H1251 C1259 0.950 . S
H1252 C1257 0.950 . S
H1253 C1258 0.949 . S
H1254 C1260 0.950 . S
H1255 C1261 0.950 . S
H1256 C1262 0.949 . S
C1257 H1252 0.950 . S
C1257 C1259 1.327 . S
C1257 C1263 1.429 . S
C1258 C1250 1.574 1_565 S
C1258 H1253 0.949 . S
C1258 C1264 1.368 1_556 S
C1259 C1243 1.349 . S
C1259 H1251 0.950 . S
C1259 C1257 1.327 . S
C1260 C1248 1.349 . S
C1260 H1254 0.950 . S
C1260 C1261 1.327 . S
C1261 H1255 0.950 . S
C1261 C1260 1.327 . S
C1261 C1265 1.429 . S
C1262 C1245 1.574 1_545 S
C1262 H1256 0.949 . S
C1262 C1266 1.368 1_554 S
C1263 C1244 1.429 . S
C1263 C1257 1.429 . S
C1263 C1264 1.523 . S
C1264 C1245 1.368 . S
C1264 C1258 1.368 1_554 S
C1264 C1263 1.523 . S
C1265 C1249 1.429 . S
C1265 C1261 1.429 . S
C1265 C1266 1.523 . S
C1266 C1250 1.368 . S
C1266 C1262 1.368 1_556 S
C1266 C1265 1.523 . S
H1267 C1242 0.950 . S
H1268 C1244 0.950 1_556 S
H1269 C1245 0.949 . S
H1270 C1247 0.950 . S
H1271 C1249 0.950 1_554 S
C1272 C1273 1.349 . S
C1272 C1274 1.327 . S
C1272 H1297 0.950 . S
C1273 C1272 1.349 . S
C1273 C1289 1.349 . S
C1274 C1272 1.327 . S
C1274 C1293 1.429 . S
C1274 H1298 0.950 1_554 S
C1275 C1292 1.574 1_455 S
C1275 C1294 1.368 . S
C1275 H1299 0.949 . S
H1276 C1280 0.949 . S
C1277 C1278 1.349 . S
C1277 C1279 1.327 . S
C1277 H1300 0.950 . S
C1278 C1277 1.349 . S
C1278 C1290 1.349 . S
C1279 C1277 1.327 . S
C1279 C1295 1.429 . S
C1279 H1301 0.950 1_556 S
C1280 H1276 0.949 . S
C1280 C1288 1.574 1_655 S
C1280 C1296 1.368 . S
H1281 C1289 0.950 . S
H1282 C1287 0.950 . S
H1283 C1288 0.949 . S
H1284 C1290 0.950 . S
H1285 C1291 0.950 . S
H1286 C1292 0.949 . S
C1287 H1282 0.950 . S
C1287 C1289 1.327 . S
C1287 C1293 1.429 . S
C1288 C1280 1.574 1_455 S
C1288 H1283 0.949 . S
C1288 C1294 1.368 1_556 S
C1289 C1273 1.349 . S
C1289 H1281 0.950 . S
C1289 C1287 1.327 . S
C1290 C1278 1.349 . S
C1290 H1284 0.950 . S
C1290 C1291 1.327 . S
C1291 H1285 0.950 . S
C1291 C1290 1.327 . S
C1291 C1295 1.429 . S
C1292 C1275 1.574 1_655 S
C1292 H1286 0.949 . S
C1292 C1296 1.368 1_554 S
C1293 C1274 1.429 . S
C1293 C1287 1.429 . S
C1293 C1294 1.523 . S
C1294 C1275 1.368 . S
C1294 C1288 1.368 1_554 S
C1294 C1293 1.523 . S
C1295 C1279 1.429 . S
C1295 C1291 1.429 . S
C1295 C1296 1.523 . S
C1296 C1280 1.368 . S
C1296 C1292 1.368 1_556 S
C1296 C1295 1.523 . S
H1297 C1272 0.950 . S
H1298 C1274 0.950 1_556 S
H1299 C1275 0.949 . S
H1300 C1277 0.950 . S
H1301 C1279 0.950 1_554 S
C1302 C1303 1.349 . S
C1302 C1304 1.327 . S
C1302 H1327 0.950 . S
C1303 C1302 1.349 . S
C1303 C1319 1.349 . S
C1304 C1302 1.327 . S
C1304 C1323 1.429 . S
C1304 H1328 0.950 . S
C1305 C1322 1.574 . S
C1305 C1324 1.368 . S
C1305 H1329 0.949 . S
H1306 C1310 0.949 . S
C1307 C1308 1.349 . S
C1307 C1309 1.327 . S
C1307 H1330 0.950 . S
C1308 C1307 1.349 . S
C1308 C1320 1.349 . S
C1309 C1307 1.327 . S
C1309 C1325 1.429 . S
C1309 H1331 0.950 . S
C1310 H1306 0.949 . S
C1310 C1318 1.574 . S
C1310 C1326 1.368 . S
H1311 C1319 0.950 . S
H1312 C1317 0.950 . S
H1313 C1318 0.949 . S
H1314 C1320 0.950 . S
H1315 C1321 0.950 . S
H1316 C1322 0.949 . S
C1317 H1312 0.950 . S
C1317 C1319 1.327 . S
C1317 C1323 1.429 . S
C1318 C1310 1.574 . S
C1318 H1313 0.949 . S
C1318 C1324 1.368 1_554 S
C1319 C1303 1.349 . S
C1319 H1311 0.950 . S
C1319 C1317 1.327 . S
C1320 C1308 1.349 . S
C1320 H1314 0.950 . S
C1320 C1321 1.327 . S
C1321 H1315 0.950 . S
C1321 C1320 1.327 . S
C1321 C1325 1.429 . S
C1322 C1305 1.574 . S
C1322 H1316 0.949 . S
C1322 C1326 1.368 1_556 S
C1323 C1304 1.429 . S
C1323 C1317 1.429 . S
C1323 C1324 1.523 . S
C1324 C1305 1.368 . S
C1324 C1318 1.368 1_556 S
C1324 C1323 1.523 . S
C1325 C1309 1.429 . S
C1325 C1321 1.429 . S
C1325 C1326 1.523 . S
C1326 C1310 1.368 . S
C1326 C1322 1.368 1_554 S
C1326 C1325 1.523 . S
H1327 C1302 0.950 . S
H1328 C1304 0.950 . S
H1329 C1305 0.949 . S
H1330 C1307 0.950 . S
H1331 C1309 0.950 . S
C1332 C1333 1.349 . S
C1332 C1334 1.327 . S
C1332 H1357 0.950 . S
C1333 C1332 1.349 . S
C1333 C1349 1.349 . S
C1334 C1332 1.327 . S
C1334 C1353 1.429 . S
C1334 H1358 0.950 . S
C1335 C1352 1.574 . S
C1335 C1354 1.368 . S
C1335 H1359 0.949 . S
H1336 C1340 0.949 . S
C1337 C1338 1.349 . S
C1337 C1339 1.327 . S
C1337 H1360 0.950 . S
C1338 C1337 1.349 . S
C1338 C1350 1.349 . S
C1339 C1337 1.327 . S
C1339 C1355 1.429 . S
C1339 H1361 0.950 . S
C1340 H1336 0.949 . S
C1340 C1348 1.574 . S
C1340 C1356 1.368 . S
H1341 C1349 0.950 . S
H1342 C1347 0.950 . S
H1343 C1348 0.949 . S
H1344 C1350 0.950 . S
H1345 C1351 0.950 . S
H1346 C1352 0.949 . S
C1347 H1342 0.950 . S
C1347 C1349 1.327 . S
C1347 C1353 1.429 . S
C1348 C1340 1.574 . S
C1348 H1343 0.949 . S
C1348 C1354 1.368 . S
C1349 C1333 1.349 . S
C1349 H1341 0.950 . S
C1349 C1347 1.327 . S
C1350 C1338 1.349 . S
C1350 H1344 0.950 . S
C1350 C1351 1.327 . S
C1351 H1345 0.950 . S
C1351 C1350 1.327 . S
C1351 C1355 1.429 . S
C1352 C1335 1.574 . S
C1352 H1346 0.949 . S
C1352 C1356 1.368 . S
C1353 C1334 1.429 . S
C1353 C1347 1.429 . S
C1353 C1354 1.523 . S
C1354 C1335 1.368 . S
C1354 C1348 1.368 . S
C1354 C1353 1.523 . S
C1355 C1339 1.429 . S
C1355 C1351 1.429 . S
C1355 C1356 1.523 . S
C1356 C1340 1.368 . S
C1356 C1352 1.368 . S
C1356 C1355 1.523 . S
H1357 C1332 0.950 . S
H1358 C1334 0.950 . S
H1359 C1335 0.949 . S
H1360 C1337 0.950 . S
H1361 C1339 0.950 . S
C1362 C1363 1.349 . S
C1362 C1364 1.327 . S
C1362 H1387 0.950 . S
C1363 C1362 1.349 . S
C1363 C1379 1.349 . S
C1364 C1362 1.327 . S
C1364 C1383 1.429 . S
C1364 H1388 0.950 . S
C1365 C1382 1.574 . S
C1365 C1384 1.368 . S
C1365 H1389 0.949 . S
H1366 C1370 0.949 . S
C1367 C1368 1.349 . S
C1367 C1369 1.327 . S
C1367 H1390 0.950 . S
C1368 C1367 1.349 . S
C1368 C1380 1.349 . S
C1369 C1367 1.327 . S
C1369 C1385 1.429 . S
C1369 H1391 0.950 . S
C1370 H1366 0.949 . S
C1370 C1378 1.574 . S
C1370 C1386 1.368 . S
H1371 C1379 0.950 . S
H1372 C1377 0.950 . S
H1373 C1378 0.949 . S
H1374 C1380 0.950 . S
H1375 C1381 0.950 . S
H1376 C1382 0.949 . S
C1377 H1372 0.950 . S
C1377 C1379 1.327 . S
C1377 C1383 1.429 . S
C1378 C1370 1.574 . S
C1378 H1373 0.949 . S
C1378 C1384 1.368 . S
C1379 C1363 1.349 . S
C1379 H1371 0.950 . S
C1379 C1377 1.327 . S
C1380 C1368 1.349 . S
C1380 H1374 0.950 . S
C1380 C1381 1.327 . S
C1381 H1375 0.950 . S
C1381 C1380 1.327 . S
C1381 C1385 1.429 . S
C1382 C1365 1.574 . S
C1382 H1376 0.949 . S
C1382 C1386 1.368 . S
C1383 C1364 1.429 . S
C1383 C1377 1.429 . S
C1383 C1384 1.523 . S
C1384 C1365 1.368 . S
C1384 C1378 1.368 . S
C1384 C1383 1.523 . S
C1385 C1369 1.429 . S
C1385 C1381 1.429 . S
C1385 C1386 1.523 . S
C1386 C1370 1.368 . S
C1386 C1382 1.368 . S
C1386 C1385 1.523 . S
H1387 C1362 0.950 . S
H1388 C1364 0.950 . S
H1389 C1365 0.949 . S
H1390 C1367 0.950 . S
H1391 C1369 0.950 . S
C1392 C1393 1.349 . S
C1392 C1394 1.327 . S
C1392 H1417 0.950 . S
C1393 C1392 1.349 . S
C1393 C1409 1.349 . S
C1394 C1392 1.327 . S
C1394 C1413 1.429 . S
C1394 H1418 0.950 . S
C1395 C1412 1.574 . S
C1395 C1414 1.368 . S
C1395 H1419 0.949 . S
H1396 C1400 0.949 . S
C1397 C1398 1.349 . S
C1397 C1399 1.327 . S
C1397 H1420 0.950 . S
C1398 C1397 1.349 . S
C1398 C1410 1.349 . S
C1399 C1397 1.327 . S
C1399 C1415 1.429 . S
C1399 H1421 0.950 . S
C1400 H1396 0.949 . S
C1400 C1408 1.574 . S
C1400 C1416 1.368 . S
H1401 C1409 0.950 . S
H1402 C1407 0.950 . S
H1403 C1408 0.949 . S
H1404 C1410 0.950 . S
H1405 C1411 0.950 . S
H1406 C1412 0.949 . S
C1407 H1402 0.950 . S
C1407 C1409 1.327 . S
C1407 C1413 1.429 . S
C1408 C1400 1.574 . S
C1408 H1403 0.949 . S
C1408 C1414 1.368 . S
C1409 C1393 1.349 . S
C1409 H1401 0.950 . S
C1409 C1407 1.327 . S
C1410 C1398 1.349 . S
C1410 H1404 0.950 . S
C1410 C1411 1.327 . S
C1411 H1405 0.950 . S
C1411 C1410 1.327 . S
C1411 C1415 1.429 . S
C1412 C1395 1.574 . S
C1412 H1406 0.949 . S
C1412 C1416 1.368 . S
C1413 C1394 1.429 . S
C1413 C1407 1.429 . S
C1413 C1414 1.523 . S
C1414 C1395 1.368 . S
C1414 C1408 1.368 . S
C1414 C1413 1.523 . S
C1415 C1399 1.429 . S
C1415 C1411 1.429 . S
C1415 C1416 1.523 . S
C1416 C1400 1.368 . S
C1416 C1412 1.368 . S
C1416 C1415 1.523 . S
H1417 C1392 0.950 . S
H1418 C1394 0.950 . S
H1419 C1395 0.949 . S
H1420 C1397 0.950 . S
H1421 C1399 0.950 . S
C1422 C1423 1.349 . S
C1422 C1424 1.327 . S
C1422 H1447 0.950 . S
C1423 C1422 1.349 . S
C1423 C1439 1.349 . S
C1424 C1422 1.327 . S
C1424 C1443 1.429 . S
C1424 H1448 0.950 . S
C1425 C1442 1.574 . S
C1425 C1444 1.368 . S
C1425 H1449 0.949 . S
H1426 C1430 0.949 . S
C1427 C1428 1.349 . S
C1427 C1429 1.327 . S
C1427 H1450 0.950 . S
C1428 C1427 1.349 . S
C1428 C1440 1.349 . S
C1429 C1427 1.327 . S
C1429 C1445 1.429 . S
C1429 H1451 0.950 . S
C1430 H1426 0.949 . S
C1430 C1438 1.574 . S
C1430 C1446 1.368 . S
H1431 C1439 0.950 . S
H1432 C1437 0.950 . S
H1433 C1438 0.949 . S
H1434 C1440 0.950 . S
H1435 C1441 0.950 . S
H1436 C1442 0.949 . S
C1437 H1432 0.950 . S
C1437 C1439 1.327 . S
C1437 C1443 1.429 . S
C1438 C1430 1.574 . S
C1438 H1433 0.949 . S
C1438 C1444 1.368 . S
C1439 C1423 1.349 . S
C1439 H1431 0.950 . S
C1439 C1437 1.327 . S
C1440 C1428 1.349 . S
C1440 H1434 0.950 . S
C1440 C1441 1.327 . S
C1441 H1435 0.950 . S
C1441 C1440 1.327 . S
C1441 C1445 1.429 . S
C1442 C1425 1.574 . S
C1442 H1436 0.949 . S
C1442 C1446 1.368 . S
C1443 C1424 1.429 . S
C1443 C1437 1.429 . S
C1443 C1444 1.523 . S
C1444 C1425 1.368 . S
C1444 C1438 1.368 . S
C1444 C1443 1.523 . S
C1445 C1429 1.429 . S
C1445 C1441 1.429 . S
C1445 C1446 1.523 . S
C1446 C1430 1.368 . S
C1446 C1442 1.368 . S
C1446 C1445 1.523 . S
H1447 C1422 0.950 . S
H1448 C1424 0.950 . S
H1449 C1425 0.949 . S
H1450 C1427 0.950 . S
H1451 C1429 0.950 . S
C1452 C1453 1.349 . S
C1452 C1454 1.327 . S
C1452 H1477 0.950 . S
C1453 C1452 1.349 . S
C1453 C1469 1.349 . S
C1454 C1452 1.327 . S
C1454 C1473 1.429 . S
C1454 H1478 0.950 . S
C1455 C1472 1.574 . S
C1455 C1474 1.368 . S
C1455 H1479 0.949 . S
H1456 C1460 0.949 . S
C1457 C1458 1.349 . S
C1457 C1459 1.327 . S
C1457 H1480 0.950 . S
C1458 C1457 1.349 . S
C1458 C1470 1.349 . S
C1459 C1457 1.327 . S
C1459 C1475 1.429 . S
C1459 H1481 0.950 . S
C1460 H1456 0.949 . S
C1460 C1468 1.574 . S
C1460 C1476 1.368 . S
H1461 C1469 0.950 . S
H1462 C1467 0.950 . S
H1463 C1468 0.949 . S
H1464 C1470 0.950 . S
H1465 C1471 0.950 . S
H1466 C1472 0.949 . S
C1467 H1462 0.950 . S
C1467 C1469 1.327 . S
C1467 C1473 1.429 . S
C1468 C1460 1.574 . S
C1468 H1463 0.949 . S
C1468 C1474 1.368 . S
C1469 C1453 1.349 . S
C1469 H1461 0.950 . S
C1469 C1467 1.327 . S
C1470 C1458 1.349 . S
C1470 H1464 0.950 . S
C1470 C1471 1.327 . S
C1471 H1465 0.950 . S
C1471 C1470 1.327 . S
C1471 C1475 1.429 . S
C1472 C1455 1.574 . S
C1472 H1466 0.949 . S
C1472 C1476 1.368 . S
C1473 C1454 1.429 . S
C1473 C1467 1.429 . S
C1473 C1474 1.523 . S
C1474 C1455 1.368 . S
C1474 C1468 1.368 . S
C1474 C1473 1.523 . S
C1475 C1459 1.429 . S
C1475 C1471 1.429 . S
C1475 C1476 1.523 . S
C1476 C1460 1.368 . S
C1476 C1472 1.368 . S
C1476 C1475 1.523 . S
H1477 C1452 0.950 . S
H1478 C1454 0.950 . S
H1479 C1455 0.949 . S
H1480 C1457 0.950 . S
H1481 C1459 0.950 . S
C1482 C1483 1.349 . S
C1482 C1484 1.327 . S
C1482 H1507 0.950 . S
C1483 C1482 1.349 . S
C1483 C1499 1.349 . S
C1484 C1482 1.327 . S
C1484 C1503 1.429 . S
C1484 H1508 0.950 . S
C1485 C1502 1.574 . S
C1485 C1504 1.368 . S
C1485 H1509 0.949 . S
H1486 C1490 0.949 . S
C1487 C1488 1.349 . S
C1487 C1489 1.327 . S
C1487 H1510 0.950 . S
C1488 C1487 1.349 . S
C1488 C1500 1.349 . S
C1489 C1487 1.327 . S
C1489 C1505 1.429 . S
C1489 H1511 0.950 . S
C1490 H1486 0.949 . S
C1490 C1498 1.574 . S
C1490 C1506 1.368 . S
H1491 C1499 0.950 . S
H1492 C1497 0.950 . S
H1493 C1498 0.949 . S
H1494 C1500 0.950 . S
H1495 C1501 0.950 . S
H1496 C1502 0.949 . S
C1497 H1492 0.950 . S
C1497 C1499 1.327 . S
C1497 C1503 1.429 . S
C1498 C1490 1.574 . S
C1498 H1493 0.949 . S
C1498 C1504 1.368 . S
C1499 C1483 1.349 . S
C1499 H1491 0.950 . S
C1499 C1497 1.327 . S
C1500 C1488 1.349 . S
C1500 H1494 0.950 . S
C1500 C1501 1.327 . S
C1501 H1495 0.950 . S
C1501 C1500 1.327 . S
C1501 C1505 1.429 . S
C1502 C1485 1.574 . S
C1502 H1496 0.949 . S
C1502 C1506 1.368 . S
C1503 C1484 1.429 . S
C1503 C1497 1.429 . S
C1503 C1504 1.523 . S
C1504 C1485 1.368 . S
C1504 C1498 1.368 . S
C1504 C1503 1.523 . S
C1505 C1489 1.429 . S
C1505 C1501 1.429 . S
C1505 C1506 1.523 . S
C1506 C1490 1.368 . S
C1506 C1502 1.368 . S
C1506 C1505 1.523 . S
H1507 C1482 0.950 . S
H1508 C1484 0.950 . S
H1509 C1485 0.949 . S
H1510 C1487 0.950 . S
H1511 C1489 0.950 . S
C1512 C1513 1.349 . S
C1512 C1514 1.327 . S
C1512 H1537 0.950 . S
C1513 C1512 1.349 . S
C1513 C1529 1.349 . S
C1514 C1512 1.327 . S
C1514 C1533 1.429 . S
C1514 H1538 0.950 . S
C1515 C1532 1.574 . S
C1515 C1534 1.368 . S
C1515 H1539 0.949 . S
H1516 C1520 0.949 . S
C1517 C1518 1.349 . S
C1517 C1519 1.327 . S
C1517 H1540 0.950 . S
C1518 C1517 1.349 . S
C1518 C1530 1.349 . S
C1519 C1517 1.327 . S
C1519 C1535 1.429 . S
C1519 H1541 0.950 . S
C1520 H1516 0.949 . S
C1520 C1528 1.574 . S
C1520 C1536 1.368 . S
H1521 C1529 0.950 . S
H1522 C1527 0.950 . S
H1523 C1528 0.949 . S
H1524 C1530 0.950 . S
H1525 C1531 0.950 . S
H1526 C1532 0.949 . S
C1527 H1522 0.950 . S
C1527 C1529 1.327 . S
C1527 C1533 1.429 . S
C1528 C1520 1.574 . S
C1528 H1523 0.949 . S
C1528 C1534 1.368 . S
C1529 C1513 1.349 . S
C1529 H1521 0.950 . S
C1529 C1527 1.327 . S
C1530 C1518 1.349 . S
C1530 H1524 0.950 . S
C1530 C1531 1.327 . S
C1531 H1525 0.950 . S
C1531 C1530 1.327 . S
C1531 C1535 1.429 . S
C1532 C1515 1.574 . S
C1532 H1526 0.949 . S
C1532 C1536 1.368 . S
C1533 C1514 1.429 . S
C1533 C1527 1.429 . S
C1533 C1534 1.523 . S
C1534 C1515 1.368 . S
C1534 C1528 1.368 . S
C1534 C1533 1.523 . S
C1535 C1519 1.429 . S
C1535 C1531 1.429 . S
C1535 C1536 1.523 . S
C1536 C1520 1.368 . S
C1536 C1532 1.368 . S
C1536 C1535 1.523 . S
H1537 C1512 0.950 . S
H1538 C1514 0.950 . S
H1539 C1515 0.949 . S
H1540 C1517 0.950 . S
H1541 C1519 0.950 . S
C1542 C1543 1.349 . S
C1542 C1544 1.327 . S
C1542 H1567 0.950 . S
C1543 C1542 1.349 . S
C1543 C1559 1.349 . S
C1544 C1542 1.327 . S
C1544 C1563 1.429 . S
C1544 H1568 0.950 . S
C1545 C1562 1.574 . S
C1545 C1564 1.368 . S
C1545 H1569 0.949 . S
H1546 C1550 0.949 . S
C1547 C1548 1.349 . S
C1547 C1549 1.327 . S
C1547 H1570 0.950 . S
C1548 C1547 1.349 . S
C1548 C1560 1.349 . S
C1549 C1547 1.327 . S
C1549 C1565 1.429 . S
C1549 H1571 0.950 . S
C1550 H1546 0.949 . S
C1550 C1558 1.574 . S
C1550 C1566 1.368 . S
H1551 C1559 0.950 . S
H1552 C1557 0.950 . S
H1553 C1558 0.949 . S
H1554 C1560 0.950 . S
H1555 C1561 0.950 . S
H1556 C1562 0.949 . S
C1557 H1552 0.950 . S
C1557 C1559 1.327 . S
C1557 C1563 1.429 . S
C1558 C1550 1.574 . S
C1558 H1553 0.949 . S
C1558 C1564 1.368 . S
C1559 C1543 1.349 . S
C1559 H1551 0.950 . S
C1559 C1557 1.327 . S
C1560 C1548 1.349 . S
C1560 H1554 0.950 . S
C1560 C1561 1.327 . S
C1561 H1555 0.950 . S
C1561 C1560 1.327 . S
C1561 C1565 1.429 . S
C1562 C1545 1.574 . S
C1562 H1556 0.949 . S
C1562 C1566 1.368 . S
C1563 C1544 1.429 . S
C1563 C1557 1.429 . S
C1563 C1564 1.523 . S
C1564 C1545 1.368 . S
C1564 C1558 1.368 . S
C1564 C1563 1.523 . S
C1565 C1549 1.429 . S
C1565 C1561 1.429 . S
C1565 C1566 1.523 . S
C1566 C1550 1.368 . S
C1566 C1562 1.368 . S
C1566 C1565 1.523 . S
H1567 C1542 0.950 . S
H1568 C1544 0.950 . S
H1569 C1545 0.949 . S
H1570 C1547 0.950 . S
H1571 C1549 0.950 . S
C1572 C1573 1.349 . S
C1572 C1574 1.327 . S
C1572 H1597 0.950 . S
C1573 C1572 1.349 . S
C1573 C1589 1.349 . S
C1574 C1572 1.327 . S
C1574 C1593 1.429 . S
C1574 H1598 0.950 . S
C1575 C1592 1.574 . S
C1575 C1594 1.368 . S
C1575 H1599 0.949 . S
H1576 C1580 0.949 . S
C1577 C1578 1.349 . S
C1577 C1579 1.327 . S
C1577 H1600 0.950 . S
C1578 C1577 1.349 . S
C1578 C1590 1.349 . S
C1579 C1577 1.327 . S
C1579 C1595 1.429 . S
C1579 H1601 0.950 . S
C1580 H1576 0.949 . S
C1580 C1588 1.574 . S
C1580 C1596 1.368 . S
H1581 C1589 0.950 . S
H1582 C1587 0.950 . S
H1583 C1588 0.949 . S
H1584 C1590 0.950 . S
H1585 C1591 0.950 . S
H1586 C1592 0.949 . S
C1587 H1582 0.950 . S
C1587 C1589 1.327 . S
C1587 C1593 1.429 . S
C1588 C1580 1.574 . S
C1588 H1583 0.949 . S
C1588 C1594 1.368 . S
C1589 C1573 1.349 . S
C1589 H1581 0.950 . S
C1589 C1587 1.327 . S
C1590 C1578 1.349 . S
C1590 H1584 0.950 . S
C1590 C1591 1.327 . S
C1591 H1585 0.950 . S
C1591 C1590 1.327 . S
C1591 C1595 1.429 . S
C1592 C1575 1.574 . S
C1592 H1586 0.949 . S
C1592 C1596 1.368 . S
C1593 C1574 1.429 . S
C1593 C1587 1.429 . S
C1593 C1594 1.523 . S
C1594 C1575 1.368 . S
C1594 C1588 1.368 . S
C1594 C1593 1.523 . S
C1595 C1579 1.429 . S
C1595 C1591 1.429 . S
C1595 C1596 1.523 . S
C1596 C1580 1.368 . S
C1596 C1592 1.368 . S
C1596 C1595 1.523 . S
H1597 C1572 0.950 . S
H1598 C1574 0.950 . S
H1599 C1575 0.949 . S
H1600 C1577 0.950 . S
H1601 C1579 0.950 . S
C1602 C1603 1.349 . S
C1602 C1604 1.327 . S
C1602 H1627 0.950 . S
C1603 C1602 1.349 . S
C1603 C1619 1.349 . S
C1604 C1602 1.327 . S
C1604 C1623 1.429 . S
C1604 H1628 0.950 . S
C1605 C1622 1.574 . S
C1605 C1624 1.368 . S
C1605 H1629 0.949 . S
H1606 C1610 0.949 . S
C1607 C1608 1.349 . S
C1607 C1609 1.327 . S
C1607 H1630 0.950 . S
C1608 C1607 1.349 . S
C1608 C1620 1.349 . S
C1609 C1607 1.327 . S
C1609 C1625 1.429 . S
C1609 H1631 0.950 . S
C1610 H1606 0.949 . S
C1610 C1618 1.574 . S
C1610 C1626 1.368 . S
H1611 C1619 0.950 . S
H1612 C1617 0.950 . S
H1613 C1618 0.949 . S
H1614 C1620 0.950 . S
H1615 C1621 0.950 . S
H1616 C1622 0.949 . S
C1617 H1612 0.950 . S
C1617 C1619 1.327 . S
C1617 C1623 1.429 . S
C1618 C1610 1.574 . S
C1618 H1613 0.949 . S
C1618 C1624 1.368 . S
C1619 C1603 1.349 . S
C1619 H1611 0.950 . S
C1619 C1617 1.327 . S
C1620 C1608 1.349 . S
C1620 H1614 0.950 . S
C1620 C1621 1.327 . S
C1621 H1615 0.950 . S
C1621 C1620 1.327 . S
C1621 C1625 1.429 . S
C1622 C1605 1.574 . S
C1622 H1616 0.949 . S
C1622 C1626 1.368 . S
C1623 C1604 1.429 . S
C1623 C1617 1.429 . S
C1623 C1624 1.523 . S
C1624 C1605 1.368 . S
C1624 C1618 1.368 . S
C1624 C1623 1.523 . S
C1625 C1609 1.429 . S
C1625 C1621 1.429 . S
C1625 C1626 1.523 . S
C1626 C1610 1.368 . S
C1626 C1622 1.368 . S
C1626 C1625 1.523 . S
H1627 C1602 0.950 . S
H1628 C1604 0.950 . S
H1629 C1605 0.949 . S
H1630 C1607 0.950 . S
H1631 C1609 0.950 . S
C1632 C1633 1.349 . S
C1632 C1634 1.327 . S
C1632 H1657 0.950 . S
C1633 C1632 1.349 . S
C1633 C1649 1.349 . S
C1634 C1632 1.327 . S
C1634 C1653 1.429 . S
C1634 H1658 0.950 . S
C1635 C1652 1.574 . S
C1635 C1654 1.368 . S
C1635 H1659 0.949 . S
H1636 C1640 0.949 . S
C1637 C1638 1.349 . S
C1637 C1639 1.327 . S
C1637 H1660 0.950 . S
C1638 C1637 1.349 . S
C1638 C1650 1.349 . S
C1639 C1637 1.327 . S
C1639 C1655 1.429 . S
C1639 H1661 0.950 . S
C1640 H1636 0.949 . S
C1640 C1648 1.574 . S
C1640 C1656 1.368 . S
H1641 C1649 0.950 . S
H1642 C1647 0.950 . S
H1643 C1648 0.949 . S
H1644 C1650 0.950 . S
H1645 C1651 0.950 . S
H1646 C1652 0.949 . S
C1647 H1642 0.950 . S
C1647 C1649 1.327 . S
C1647 C1653 1.429 . S
C1648 C1640 1.574 . S
C1648 H1643 0.949 . S
C1648 C1654 1.368 . S
C1649 C1633 1.349 . S
C1649 H1641 0.950 . S
C1649 C1647 1.327 . S
C1650 C1638 1.349 . S
C1650 H1644 0.950 . S
C1650 C1651 1.327 . S
C1651 H1645 0.950 . S
C1651 C1650 1.327 . S
C1651 C1655 1.429 . S
C1652 C1635 1.574 . S
C1652 H1646 0.949 . S
C1652 C1656 1.368 . S
C1653 C1634 1.429 . S
C1653 C1647 1.429 . S
C1653 C1654 1.523 . S
C1654 C1635 1.368 . S
C1654 C1648 1.368 . S
C1654 C1653 1.523 . S
C1655 C1639 1.429 . S
C1655 C1651 1.429 . S
C1655 C1656 1.523 . S
C1656 C1640 1.368 . S
C1656 C1652 1.368 . S
C1656 C1655 1.523 . S
H1657 C1632 0.950 . S
H1658 C1634 0.950 . S
H1659 C1635 0.949 . S
H1660 C1637 0.950 . S
H1661 C1639 0.950 . S
C1662 C1663 1.349 . S
C1662 C1664 1.327 . S
C1662 H1687 0.950 . S
C1663 C1662 1.349 . S
C1663 C1679 1.349 . S
C1664 C1662 1.327 . S
C1664 C1683 1.429 . S
C1664 H1688 0.950 . S
C1665 C1682 1.574 . S
C1665 C1684 1.368 . S
C1665 H1689 0.949 . S
H1666 C1670 0.949 . S
C1667 C1668 1.349 . S
C1667 C1669 1.327 . S
C1667 H1690 0.950 . S
C1668 C1667 1.349 . S
C1668 C1680 1.349 . S
C1669 C1667 1.327 . S
C1669 C1685 1.429 . S
C1669 H1691 0.950 . S
C1670 H1666 0.949 . S
C1670 C1678 1.574 . S
C1670 C1686 1.368 . S
H1671 C1679 0.950 . S
H1672 C1677 0.950 . S
H1673 C1678 0.949 . S
H1674 C1680 0.950 . S
H1675 C1681 0.950 . S
H1676 C1682 0.949 . S
C1677 H1672 0.950 . S
C1677 C1679 1.327 . S
C1677 C1683 1.429 . S
C1678 C1670 1.574 . S
C1678 H1673 0.949 . S
C1678 C1684 1.368 . S
C1679 C1663 1.349 . S
C1679 H1671 0.950 . S
C1679 C1677 1.327 . S
C1680 C1668 1.349 . S
C1680 H1674 0.950 . S
C1680 C1681 1.327 . S
C1681 H1675 0.950 . S
C1681 C1680 1.327 . S
C1681 C1685 1.429 . S
C1682 C1665 1.574 . S
C1682 H1676 0.949 . S
C1682 C1686 1.368 . S
C1683 C1664 1.429 . S
C1683 C1677 1.429 . S
C1683 C1684 1.523 . S
C1684 C1665 1.368 . S
C1684 C1678 1.368 . S
C1684 C1683 1.523 . S
C1685 C1669 1.429 . S
C1685 C1681 1.429 . S
C1685 C1686 1.523 . S
C1686 C1670 1.368 . S
C1686 C1682 1.368 . S
C1686 C1685 1.523 . S
H1687 C1662 0.950 . S
H1688 C1664 0.950 . S
H1689 C1665 0.949 . S
H1690 C1667 0.950 . S
H1691 C1669 0.950 . S
C1692 C1693 1.349 . S
C1692 C1694 1.327 . S
C1692 H1717 0.950 . S
C1693 C1692 1.349 . S
C1693 C1709 1.349 . S
C1694 C1692 1.327 . S
C1694 C1713 1.429 . S
C1694 H1718 0.950 . S
C1695 C1712 1.574 . S
C1695 C1714 1.368 . S
C1695 H1719 0.949 . S
H1696 C1700 0.949 . S
C1697 C1698 1.349 . S
C1697 C1699 1.327 . S
C1697 H1720 0.950 . S
C1698 C1697 1.349 . S
C1698 C1710 1.349 . S
C1699 C1697 1.327 . S
C1699 C1715 1.429 . S
C1699 H1721 0.950 . S
C1700 H1696 0.949 . S
C1700 C1708 1.574 . S
C1700 C1716 1.368 . S
H1701 C1709 0.950 . S
H1702 C1707 0.950 . S
H1703 C1708 0.949 . S
H1704 C1710 0.950 . S
H1705 C1711 0.950 . S
H1706 C1712 0.949 . S
C1707 H1702 0.950 . S
C1707 C1709 1.327 . S
C1707 C1713 1.429 . S
C1708 C1700 1.574 . S
C1708 H1703 0.949 . S
C1708 C1714 1.368 . S
C1709 C1693 1.349 . S
C1709 H1701 0.950 . S
C1709 C1707 1.327 . S
C1710 C1698 1.349 . S
C1710 H1704 0.950 . S
C1710 C1711 1.327 . S
C1711 H1705 0.950 . S
C1711 C1710 1.327 . S
C1711 C1715 1.429 . S
C1712 C1695 1.574 . S
C1712 H1706 0.949 . S
C1712 C1716 1.368 . S
C1713 C1694 1.429 . S
C1713 C1707 1.429 . S
C1713 C1714 1.523 1_554 S
C1714 C1695 1.368 . S
C1714 C1708 1.368 . S
C1714 C1713 1.523 1_556 S
C1715 C1699 1.429 . S
C1715 C1711 1.429 . S
C1715 C1716 1.523 . S
C1716 C1700 1.368 . S
C1716 C1712 1.368 . S
C1716 C1715 1.523 . S
H1717 C1692 0.950 . S
H1718 C1694 0.950 . S
H1719 C1695 0.949 . S
H1720 C1697 0.950 . S
H1721 C1699 0.950 . S
C1722 C1723 1.349 . S
C1722 C1724 1.327 . S
C1722 H1747 0.950 . S
C1723 C1722 1.349 . S
C1723 C1739 1.349 . S
C1724 C1722 1.327 . S
C1724 C1743 1.429 . S
C1724 H1748 0.950 . S
C1725 C1742 1.574 . S
C1725 C1744 1.368 . S
C1725 H1749 0.949 . S
H1726 C1730 0.949 . S
C1727 C1728 1.349 . S
C1727 C1729 1.327 . S
C1727 H1750 0.950 . S
C1728 C1727 1.349 . S
C1728 C1740 1.349 . S
C1729 C1727 1.327 . S
C1729 C1745 1.429 . S
C1729 H1751 0.950 . S
C1730 H1726 0.949 . S
C1730 C1738 1.574 . S
C1730 C1746 1.368 . S
H1731 C1739 0.950 . S
H1732 C1737 0.950 . S
H1733 C1738 0.949 . S
H1734 C1740 0.950 . S
H1735 C1741 0.950 . S
H1736 C1742 0.949 . S
C1737 H1732 0.950 . S
C1737 C1739 1.327 . S
C1737 C1743 1.429 . S
C1738 C1730 1.574 . S
C1738 H1733 0.949 . S
C1738 C1744 1.368 . S
C1739 C1723 1.349 . S
C1739 H1731 0.950 . S
C1739 C1737 1.327 . S
C1740 C1728 1.349 . S
C1740 H1734 0.950 . S
C1740 C1741 1.327 . S
C1741 H1735 0.950 . S
C1741 C1740 1.327 . S
C1741 C1745 1.429 . S
C1742 C1725 1.574 . S
C1742 H1736 0.949 . S
C1742 C1746 1.368 . S
C1743 C1724 1.429 . S
C1743 C1737 1.429 . S
C1743 C1744 1.523 1_554 S
C1744 C1725 1.368 . S
C1744 C1738 1.368 . S
C1744 C1743 1.523 1_556 S
C1745 C1729 1.429 . S
C1745 C1741 1.429 . S
C1745 C1746 1.523 . S
C1746 C1730 1.368 . S
C1746 C1742 1.368 . S
C1746 C1745 1.523 . S
H1747 C1722 0.950 . S
H1748 C1724 0.950 . S
H1749 C1725 0.949 . S
H1750 C1727 0.950 . S
H1751 C1729 0.950 . S
C1752 C1753 1.349 . S
C1752 C1754 1.327 . S
C1752 H1777 0.950 . S
C1753 C1752 1.349 . S
C1753 C1769 1.349 . S
C1754 C1752 1.327 . S
C1754 C1773 1.429 . S
C1754 H1778 0.950 . S
C1755 C1772 1.574 . S
C1755 C1774 1.368 . S
C1755 H1779 0.949 . S
H1756 C1760 0.949 . S
C1757 C1758 1.349 . S
C1757 C1759 1.327 . S
C1757 H1780 0.950 . S
C1758 C1757 1.349 . S
C1758 C1770 1.349 . S
C1759 C1757 1.327 . S
C1759 C1775 1.429 . S
C1759 H1781 0.950 . S
C1760 H1756 0.949 . S
C1760 C1768 1.574 . S
C1760 C1776 1.368 . S
H1761 C1769 0.950 . S
H1762 C1767 0.950 . S
H1763 C1768 0.949 . S
H1764 C1770 0.950 . S
H1765 C1771 0.950 . S
H1766 C1772 0.949 . S
C1767 H1762 0.950 . S
C1767 C1769 1.327 . S
C1767 C1773 1.429 . S
C1768 C1760 1.574 . S
C1768 H1763 0.949 . S
C1768 C1774 1.368 . S
C1769 C1753 1.349 . S
C1769 H1761 0.950 . S
C1769 C1767 1.327 . S
C1770 C1758 1.349 . S
C1770 H1764 0.950 . S
C1770 C1771 1.327 . S
C1771 H1765 0.950 . S
C1771 C1770 1.327 . S
C1771 C1775 1.429 . S
C1772 C1755 1.574 . S
C1772 H1766 0.949 . S
C1772 C1776 1.368 . S
C1773 C1754 1.429 . S
C1773 C1767 1.429 . S
C1773 C1774 1.523 . S
C1774 C1755 1.368 . S
C1774 C1768 1.368 . S
C1774 C1773 1.523 . S
C1775 C1759 1.429 . S
C1775 C1771 1.429 . S
C1775 C1776 1.523 1_554 S
C1776 C1760 1.368 . S
C1776 C1772 1.368 . S
C1776 C1775 1.523 1_556 S
H1777 C1752 0.950 . S
H1778 C1754 0.950 . S
H1779 C1755 0.949 . S
H1780 C1757 0.950 . S
H1781 C1759 0.950 . S
C1782 C1783 1.349 1_556 S
C1782 C1784 1.327 . S
C1782 H1807 0.950 1_556 S
C1783 C1782 1.349 1_554 S
C1783 C1799 1.349 1_554 S
C1784 C1782 1.327 . S
C1784 C1803 1.429 . S
C1784 H1808 0.950 . S
C1785 C1802 1.574 . S
C1785 C1804 1.368 . S
C1785 H1809 0.949 . S
H1786 C1790 0.949 . S
C1787 C1788 1.349 . S
C1787 C1789 1.327 . S
C1787 H1810 0.950 . S
C1788 C1787 1.349 . S
C1788 C1800 1.349 . S
C1789 C1787 1.327 . S
C1789 C1805 1.429 . S
C1789 H1811 0.950 . S
C1790 H1786 0.949 . S
C1790 C1798 1.574 . S
C1790 C1806 1.368 . S
H1791 C1799 0.950 1_554 S
H1792 C1797 0.950 . S
H1793 C1798 0.949 . S
H1794 C1800 0.950 . S
H1795 C1801 0.950 . S
H1796 C1802 0.949 . S
C1797 H1792 0.950 . S
C1797 C1799 1.327 . S
C1797 C1803 1.429 . S
C1798 C1790 1.574 . S
C1798 H1793 0.949 . S
C1798 C1804 1.368 . S
C1799 C1783 1.349 1_556 S
C1799 H1791 0.950 1_556 S
C1799 C1797 1.327 . S
C1800 C1788 1.349 . S
C1800 H1794 0.950 . S
C1800 C1801 1.327 . S
C1801 H1795 0.950 . S
C1801 C1800 1.327 . S
C1801 C1805 1.429 . S
C1802 C1785 1.574 . S
C1802 H1796 0.949 . S
C1802 C1806 1.368 . S
C1803 C1784 1.429 . S
C1803 C1797 1.429 . S
C1803 C1804 1.523 . S
C1804 C1785 1.368 . S
C1804 C1798 1.368 . S
C1804 C1803 1.523 . S
C1805 C1789 1.429 . S
C1805 C1801 1.429 . S
C1805 C1806 1.523 . S
C1806 C1790 1.368 . S
C1806 C1802 1.368 . S
C1806 C1805 1.523 . S
H1807 C1782 0.950 1_554 S
H1808 C1784 0.950 . S
H1809 C1785 0.949 . S
H1810 C1787 0.950 . S
H1811 C1789 0.950 . S
C1812 C1813 1.349 . S
C1812 C1814 1.327 . S
C1812 H1837 0.950 . S
C1813 C1812 1.349 . S
C1813 C1829 1.349 . S
C1814 C1812 1.327 . S
C1814 C1833 1.429 . S
C1814 H1838 0.950 . S
C1815 C1832 1.574 . S
C1815 C1834 1.368 . S
C1815 H1839 0.949 . S
H1816 C1820 0.949 . S
C1817 C1818 1.345 1_556 S
C1817 C1819 1.335 . S
C1817 H1840 0.945 1_556 S
C1818 C1817 1.345 1_554 S
C1818 C1830 1.349 1_554 S
C1819 C1817 1.335 . S
C1819 C1835 1.429 . S
C1819 H1841 0.950 . S
C1820 H1816 0.949 . S
C1820 C1828 1.574 . S
C1820 C1836 1.368 . S
H1821 C1829 0.950 . S
H1822 C1827 0.950 . S
H1823 C1828 0.949 . S
H1824 C1830 0.950 1_554 S
H1825 C1831 0.950 . S
H1826 C1832 0.949 . S
C1827 H1822 0.950 . S
C1827 C1829 1.327 . S
C1827 C1833 1.429 . S
C1828 C1820 1.574 . S
C1828 H1823 0.949 . S
C1828 C1834 1.368 . S
C1829 C1813 1.349 . S
C1829 H1821 0.950 . S
C1829 C1827 1.327 . S
C1830 C1818 1.349 1_556 S
C1830 H1824 0.950 1_556 S
C1830 C1831 1.327 . S
C1831 H1825 0.950 . S
C1831 C1830 1.327 . S
C1831 C1835 1.429 . S
C1832 C1815 1.574 . S
C1832 H1826 0.949 . S
C1832 C1836 1.368 . S
C1833 C1814 1.429 . S
C1833 C1827 1.429 . S
C1833 C1834 1.523 . S
C1834 C1815 1.368 . S
C1834 C1828 1.368 . S
C1834 C1833 1.523 . S
C1835 C1819 1.429 . S
C1835 C1831 1.429 . S
C1835 C1836 1.523 . S
C1836 C1820 1.368 . S
C1836 C1832 1.368 . S
C1836 C1835 1.523 . S
H1837 C1812 0.950 . S
H1838 C1814 0.950 . S
H1839 C1815 0.949 . S
H1840 C1817 0.945 1_554 S
H1841 C1819 0.950 . S
C1842 C1843 1.349 . S
C1842 C1844 1.327 . S
C1842 H1867 0.950 . S
C1843 C1842 1.349 . S
C1843 C1859 1.349 . S
C1844 C1842 1.327 . S
C1844 C1863 1.429 . S
C1844 H1868 0.950 . S
C1845 C1862 1.574 . S
C1845 C1864 1.368 . S
C1845 H1869 0.949 . S
H1846 C1850 0.949 . S
C1847 C1848 1.349 1_556 S
C1847 C1849 1.327 . S
C1847 H1870 0.950 1_556 S
C1848 C1847 1.349 1_554 S
C1848 C1860 1.349 1_554 S
C1849 C1847 1.327 . S
C1849 C1865 1.429 . S
C1849 H1871 0.950 . S
C1850 H1846 0.949 . S
C1850 C1858 1.574 . S
C1850 C1866 1.368 . S
H1851 C1859 0.950 . S
H1852 C1857 0.950 . S
H1853 C1858 0.949 . S
H1854 C1860 0.950 1_554 S
H1855 C1861 0.950 . S
H1856 C1862 0.949 . S
C1857 H1852 0.950 . S
C1857 C1859 1.327 . S
C1857 C1863 1.429 . S
C1858 C1850 1.574 . S
C1858 H1853 0.949 . S
C1858 C1864 1.368 . S
C1859 C1843 1.349 . S
C1859 H1851 0.950 . S
C1859 C1857 1.327 . S
C1860 C1848 1.349 1_556 S
C1860 H1854 0.950 1_556 S
C1860 C1861 1.327 . S
C1861 H1855 0.950 . S
C1861 C1860 1.327 . S
C1861 C1865 1.429 . S
C1862 C1845 1.574 . S
C1862 H1856 0.949 . S
C1862 C1866 1.368 . S
C1863 C1844 1.429 . S
C1863 C1857 1.429 . S
C1863 C1864 1.523 . S
C1864 C1845 1.368 . S
C1864 C1858 1.368 . S
C1864 C1863 1.523 . S
C1865 C1849 1.429 . S
C1865 C1861 1.429 . S
C1865 C1866 1.523 . S
C1866 C1850 1.368 . S
C1866 C1862 1.368 . S
C1866 C1865 1.523 . S
H1867 C1842 0.950 . S
H1868 C1844 0.950 . S
H1869 C1845 0.949 . S
H1870 C1847 0.950 1_554 S
H1871 C1849 0.950 . S
C1872 C1873 1.349 1_556 S
C1872 C1874 1.327 . S
C1872 H1897 0.950 1_556 S
C1873 C1872 1.349 1_554 S
C1873 C1889 1.349 1_554 S
C1874 C1872 1.327 . S
C1874 C1893 1.429 . S
C1874 H1898 0.950 . S
C1875 C1892 1.574 . S
C1875 C1894 1.368 . S
C1875 H1899 0.949 . S
H1876 C1880 0.949 . S
C1877 C1878 1.349 . S
C1877 C1879 1.327 . S
C1877 H1900 0.950 . S
C1878 C1877 1.349 . S
C1878 C1890 1.349 . S
C1879 C1877 1.327 . S
C1879 C1895 1.429 . S
C1879 H1901 0.950 . S
C1880 H1876 0.949 . S
C1880 C1888 1.574 . S
C1880 C1896 1.368 . S
H1881 C1889 0.950 1_554 S
H1882 C1887 0.950 . S
H1883 C1888 0.949 . S
H1884 C1890 0.950 . S
H1885 C1891 0.950 . S
H1886 C1892 0.949 . S
C1887 H1882 0.950 . S
C1887 C1889 1.327 . S
C1887 C1893 1.429 . S
C1888 C1880 1.574 . S
C1888 H1883 0.949 . S
C1888 C1894 1.368 . S
C1889 C1873 1.349 1_556 S
C1889 H1881 0.950 1_556 S
C1889 C1887 1.327 . S
C1890 C1878 1.349 . S
C1890 H1884 0.950 . S
C1890 C1891 1.327 . S
C1891 H1885 0.950 . S
C1891 C1890 1.327 . S
C1891 C1895 1.429 . S
C1892 C1875 1.574 . S
C1892 H1886 0.949 . S
C1892 C1896 1.368 . S
C1893 C1874 1.429 . S
C1893 C1887 1.429 . S
C1893 C1894 1.523 . S
C1894 C1875 1.368 . S
C1894 C1888 1.368 . S
C1894 C1893 1.523 . S
C1895 C1879 1.429 . S
C1895 C1891 1.429 . S
C1895 C1896 1.523 . S
C1896 C1880 1.368 . S
C1896 C1892 1.368 . S
C1896 C1895 1.523 . S
H1897 C1872 0.950 1_554 S
H1898 C1874 0.950 . S
H1899 C1875 0.949 . S
H1900 C1877 0.950 . S
H1901 C1879 0.950 . S
C1902 C1903 1.349 1_556 S
C1902 C1904 1.327 . S
C1902 H1927 0.950 1_556 S
C1903 C1902 1.349 1_554 S
C1903 C1919 1.349 1_554 S
C1904 C1902 1.327 . S
C1904 C1923 1.429 . S
C1904 H1928 0.950 . S
C1905 C1922 1.574 . S
C1905 C1924 1.368 . S
C1905 H1929 0.949 . S
H1906 C1910 0.949 . S
C1907 C1908 1.349 . S
C1907 C1909 1.327 . S
C1907 H1930 0.950 . S
C1908 C1907 1.349 . S
C1908 C1920 1.349 . S
C1909 C1907 1.327 . S
C1909 C1925 1.429 . S
C1909 H1931 0.950 . S
C1910 H1906 0.949 . S
C1910 C1918 1.574 . S
C1910 C1926 1.368 . S
H1911 C1919 0.950 1_554 S
H1912 C1917 0.950 . S
H1913 C1918 0.949 . S
H1914 C1920 0.950 . S
H1915 C1921 0.950 . S
H1916 C1922 0.949 . S
C1917 H1912 0.950 . S
C1917 C1919 1.327 . S
C1917 C1923 1.429 . S
C1918 C1910 1.574 . S
C1918 H1913 0.949 . S
C1918 C1924 1.368 . S
C1919 C1903 1.349 1_556 S
C1919 H1911 0.950 1_556 S
C1919 C1917 1.327 . S
C1920 C1908 1.349 . S
C1920 H1914 0.950 . S
C1920 C1921 1.327 . S
C1921 H1915 0.950 . S
C1921 C1920 1.327 . S
C1921 C1925 1.429 . S
C1922 C1905 1.574 . S
C1922 H1916 0.949 . S
C1922 C1926 1.368 . S
C1923 C1904 1.429 . S
C1923 C1917 1.429 . S
C1923 C1924 1.523 . S
C1924 C1905 1.368 . S
C1924 C1918 1.368 . S
C1924 C1923 1.523 . S
C1925 C1909 1.429 . S
C1925 C1921 1.429 . S
C1925 C1926 1.523 . S
C1926 C1910 1.368 . S
C1926 C1922 1.368 . S
C1926 C1925 1.523 . S
H1927 C1902 0.950 1_554 S
H1928 C1904 0.950 . S
H1929 C1905 0.949 . S
H1930 C1907 0.950 . S
H1931 C1909 0.950 . S
C1932 C1933 1.349 . S
C1932 C1934 1.327 . S
C1932 H1957 0.950 . S
C1933 C1932 1.349 . S
C1933 C1949 1.349 . S
C1934 C1932 1.327 . S
C1934 C1953 1.429 . S
C1934 H1958 0.950 . S
C1935 C1952 1.574 . S
C1935 C1954 1.368 . S
C1935 H1959 0.949 . S
H1936 C1940 0.949 . S
C1937 C1938 1.349 1_556 S
C1937 C1939 1.327 . S
C1937 H1960 0.950 1_556 S
C1938 C1937 1.349 1_554 S
C1938 C1950 1.349 1_554 S
C1939 C1937 1.327 . S
C1939 C1955 1.429 . S
C1939 H1961 0.950 . S
C1940 H1936 0.949 . S
C1940 C1948 1.574 . S
C1940 C1956 1.368 . S
H1941 C1949 0.950 . S
H1942 C1947 0.950 . S
H1943 C1948 0.949 . S
H1944 C1950 0.950 1_554 S
H1945 C1951 0.950 . S
H1946 C1952 0.949 . S
C1947 H1942 0.950 . S
C1947 C1949 1.327 . S
C1947 C1953 1.429 . S
C1948 C1940 1.574 . S
C1948 H1943 0.949 . S
C1948 C1954 1.368 . S
C1949 C1933 1.349 . S
C1949 H1941 0.950 . S
C1949 C1947 1.327 . S
C1950 C1938 1.349 1_556 S
C1950 H1944 0.950 1_556 S
C1950 C1951 1.327 . S
C1951 H1945 0.950 . S
C1951 C1950 1.327 . S
C1951 C1955 1.429 . S
C1952 C1935 1.574 . S
C1952 H1946 0.949 . S
C1952 C1956 1.368 . S
C1953 C1934 1.429 . S
C1953 C1947 1.429 . S
C1953 C1954 1.523 . S
C1954 C1935 1.368 . S
C1954 C1948 1.368 . S
C1954 C1953 1.523 . S
C1955 C1939 1.429 . S
C1955 C1951 1.429 . S
C1955 C1956 1.523 . S
C1956 C1940 1.368 . S
C1956 C1952 1.368 . S
C1956 C1955 1.523 . S
H1957 C1932 0.950 . S
H1958 C1934 0.950 . S
H1959 C1935 0.949 . S
H1960 C1937 0.950 1_554 S
H1961 C1939 0.950 . S
C1962 C1963 1.349 . S
C1962 C1964 1.327 . S
C1962 H1987 0.950 . S
C1963 C1962 1.349 . S
C1963 C1979 1.349 . S
C1964 C1962 1.327 . S
C1964 C1983 1.429 . S
C1964 H1988 0.950 . S
C1965 C1982 1.574 . S
C1965 C1984 1.368 . S
C1965 H1989 0.949 . S
H1966 C1970 0.949 . S
C1967 C1968 1.349 . S
C1967 C1969 1.327 . S
C1967 H1990 0.950 . S
C1968 C1967 1.349 . S
C1968 C1980 1.349 . S
C1969 C1967 1.327 . S
C1969 C1985 1.429 . S
C1969 H1991 0.950 . S
C1970 H1966 0.949 . S
C1970 C1978 1.574 . S
C1970 C1986 1.368 . S
H1971 C1979 0.950 . S
H1972 C1977 0.950 . S
H1973 C1978 0.949 . S
H1974 C1980 0.950 . S
H1975 C1981 0.950 . S
H1976 C1982 0.949 . S
C1977 H1972 0.950 . S
C1977 C1979 1.327 . S
C1977 C1983 1.429 . S
C1978 C1970 1.574 . S
C1978 H1973 0.949 . S
C1978 C1984 1.368 . S
C1979 C1963 1.349 . S
C1979 H1971 0.950 . S
C1979 C1977 1.327 . S
C1980 C1968 1.349 . S
C1980 H1974 0.950 . S
C1980 C1981 1.327 . S
C1981 H1975 0.950 . S
C1981 C1980 1.327 . S
C1981 C1985 1.429 . S
C1982 C1965 1.574 . S
C1982 H1976 0.949 . S
C1982 C1986 1.368 . S
C1983 C1964 1.429 . S
C1983 C1977 1.429 . S
C1983 C1984 1.523 1_554 S
C1984 C1965 1.368 . S
C1984 C1978 1.368 . S
C1984 C1983 1.523 1_556 S
C1985 C1969 1.429 . S
C1985 C1981 1.429 . S
C1985 C1986 1.523 . S
C1986 C1970 1.368 . S
C1986 C1982 1.368 . S
C1986 C1985 1.523 . S
H1987 C1962 0.950 . S
H1988 C1964 0.950 . S
H1989 C1965 0.949 . S
H1990 C1967 0.950 . S
H1991 C1969 0.950 . S
C1992 C1993 1.349 . S
C1992 C1994 1.327 . S
C1992 H2017 0.950 . S
C1993 C1992 1.349 . S
C1993 C2009 1.349 . S
C1994 C1992 1.327 . S
C1994 C2013 1.429 . S
C1994 H2018 0.950 . S
C1995 C2012 1.574 . S
C1995 C2014 1.368 . S
C1995 H2019 0.949 . S
H1996 C2000 0.949 . S
C1997 C1998 1.349 . S
C1997 C1999 1.327 . S
C1997 H2020 0.950 . S
C1998 C1997 1.349 . S
C1998 C2010 1.349 . S
C1999 C1997 1.327 . S
C1999 C2015 1.429 . S
C1999 H2021 0.950 . S
C2000 H1996 0.949 . S
C2000 C2008 1.574 . S
C2000 C2016 1.368 . S
H2001 C2009 0.950 . S
H2002 C2007 0.950 . S
H2003 C2008 0.949 1_554 S
H2004 C2010 0.950 . S
H2005 C2011 0.950 . S
H2006 C2012 0.949 . S
C2007 H2002 0.950 . S
C2007 C2009 1.327 . S
C2007 C2013 1.429 . S
C2008 C2000 1.574 . S
C2008 H2003 0.949 1_556 S
C2008 C2014 1.368 . S
C2009 C1993 1.349 . S
C2009 H2001 0.950 . S
C2009 C2007 1.327 . S
C2010 C1998 1.349 . S
C2010 H2004 0.950 . S
C2010 C2011 1.327 . S
C2011 H2005 0.950 . S
C2011 C2010 1.327 . S
C2011 C2015 1.429 . S
C2012 C1995 1.574 . S
C2012 H2006 0.949 . S
C2012 C2016 1.368 . S
C2013 C1994 1.429 . S
C2013 C2007 1.429 . S
C2013 C2014 1.523 1_554 S
C2014 C1995 1.368 . S
C2014 C2008 1.368 . S
C2014 C2013 1.523 1_556 S
C2015 C1999 1.429 . S
C2015 C2011 1.429 . S
C2015 C2016 1.523 . S
C2016 C2000 1.368 . S
C2016 C2012 1.368 . S
C2016 C2015 1.523 . S
H2017 C1992 0.950 . S
H2018 C1994 0.950 . S
H2019 C1995 0.949 . S
H2020 C1997 0.950 . S
H2021 C1999 0.950 . S
C2022 C2023 1.349 . S
C2022 C2024 1.327 . S
C2022 H2047 0.950 . S
C2023 C2022 1.349 . S
C2023 C2039 1.349 . S
C2024 C2022 1.327 . S
C2024 C2043 1.429 . S
C2024 H2048 0.950 . S
C2025 C2042 1.574 . S
C2025 C2044 1.368 . S
C2025 H2049 0.949 . S
H2026 C2030 0.949 . S
C2027 C2028 1.349 . S
C2027 C2029 1.327 . S
C2027 H2050 0.950 . S
C2028 C2027 1.349 . S
C2028 C2040 1.349 . S
C2029 C2027 1.327 . S
C2029 C2045 1.429 . S
C2029 H2051 0.950 . S
C2030 H2026 0.949 . S
C2030 C2038 1.574 . S
C2030 C2046 1.368 . S
H2031 C2039 0.950 . S
H2032 C2037 0.950 . S
H2033 C2038 0.949 . S
H2034 C2040 0.950 . S
H2035 C2041 0.950 . S
H2036 C2042 0.949 . S
C2037 H2032 0.950 . S
C2037 C2039 1.327 . S
C2037 C2043 1.429 . S
C2038 C2030 1.574 . S
C2038 H2033 0.949 . S
C2038 C2044 1.368 . S
C2039 C2023 1.349 . S
C2039 H2031 0.950 . S
C2039 C2037 1.327 . S
C2040 C2028 1.349 . S
C2040 H2034 0.950 . S
C2040 C2041 1.327 . S
C2041 H2035 0.950 . S
C2041 C2040 1.327 . S
C2041 C2045 1.429 . S
C2042 C2025 1.574 . S
C2042 H2036 0.949 . S
C2042 C2046 1.368 . S
C2043 C2024 1.429 . S
C2043 C2037 1.429 . S
C2043 C2044 1.523 . S
C2044 C2025 1.368 . S
C2044 C2038 1.368 . S
C2044 C2043 1.523 . S
C2045 C2029 1.429 . S
C2045 C2041 1.429 . S
C2045 C2046 1.523 1_554 S
C2046 C2030 1.368 . S
C2046 C2042 1.368 . S
C2046 C2045 1.523 1_556 S
H2047 C2022 0.950 . S
H2048 C2024 0.950 . S
H2049 C2025 0.949 . S
H2050 C2027 0.950 . S
H2051 C2029 0.950 . S
C2052 C2053 1.349 1_554 S
C2052 C2054 1.327 . S
C2052 H2077 0.950 1_554 S
C2053 C2052 1.349 1_556 S
C2053 C2069 1.349 . S
C2054 C2052 1.327 . S
C2054 C2073 1.429 . S
C2054 H2078 0.950 . S
C2055 C2072 1.574 . S
C2055 C2074 1.368 . S
C2055 H2079 0.949 . S
H2056 C2060 0.949 . S
C2057 C2058 1.349 . S
C2057 C2059 1.327 . S
C2057 H2080 0.950 . S
C2058 C2057 1.349 . S
C2058 C2070 1.349 . S
C2059 C2057 1.327 . S
C2059 C2075 1.429 . S
C2059 H2081 0.950 . S
C2060 H2056 0.949 . S
C2060 C2068 1.574 . S
C2060 C2076 1.368 . S
H2061 C2069 0.950 . S
H2062 C2067 0.950 . S
H2063 C2068 0.949 . S
H2064 C2070 0.950 . S
H2065 C2071 0.950 . S
H2066 C2072 0.949 . S
C2067 H2062 0.950 . S
C2067 C2069 1.327 1_554 S
C2067 C2073 1.429 . S
C2068 C2060 1.574 . S
C2068 H2063 0.949 . S
C2068 C2074 1.368 . S
C2069 C2053 1.349 . S
C2069 H2061 0.950 . S
C2069 C2067 1.327 1_556 S
C2070 C2058 1.349 . S
C2070 H2064 0.950 . S
C2070 C2071 1.327 . S
C2071 H2065 0.950 . S
C2071 C2070 1.327 . S
C2071 C2075 1.429 . S
C2072 C2055 1.574 . S
C2072 H2066 0.949 . S
C2072 C2076 1.368 . S
C2073 C2054 1.429 . S
C2073 C2067 1.429 . S
C2073 C2074 1.523 . S
C2074 C2055 1.368 . S
C2074 C2068 1.368 . S
C2074 C2073 1.523 . S
C2075 C2059 1.429 . S
C2075 C2071 1.429 . S
C2075 C2076 1.523 . S
C2076 C2060 1.368 . S
C2076 C2072 1.368 . S
C2076 C2075 1.523 . S
H2077 C2052 0.950 1_556 S
H2078 C2054 0.950 . S
H2079 C2055 0.949 . S
H2080 C2057 0.950 . S
H2081 C2059 0.950 . S
C2082 C2083 1.349 1_554 S
C2082 C2084 1.327 . S
C2082 H2107 0.950 1_554 S
C2083 C2082 1.349 1_556 S
C2083 C2099 1.349 . S
C2084 C2082 1.327 . S
C2084 C2103 1.429 . S
C2084 H2108 0.950 . S
C2085 C2102 1.574 . S
C2085 C2104 1.368 . S
C2085 H2109 0.949 . S
H2086 C2090 0.949 . S
C2087 C2088 1.349 . S
C2087 C2089 1.327 . S
C2087 H2110 0.950 . S
C2088 C2087 1.349 . S
C2088 C2100 1.349 . S
C2089 C2087 1.327 . S
C2089 C2105 1.429 . S
C2089 H2111 0.950 . S
C2090 H2086 0.949 . S
C2090 C2098 1.574 . S
C2090 C2106 1.368 . S
H2091 C2099 0.950 . S
H2092 C2097 0.950 . S
H2093 C2098 0.949 . S
H2094 C2100 0.950 . S
H2095 C2101 0.950 . S
H2096 C2102 0.949 . S
C2097 H2092 0.950 . S
C2097 C2099 1.327 1_554 S
C2097 C2103 1.429 . S
C2098 C2090 1.574 . S
C2098 H2093 0.949 . S
C2098 C2104 1.368 . S
C2099 C2083 1.349 . S
C2099 H2091 0.950 . S
C2099 C2097 1.327 1_556 S
C2100 C2088 1.349 . S
C2100 H2094 0.950 . S
C2100 C2101 1.327 . S
C2101 H2095 0.950 . S
C2101 C2100 1.327 . S
C2101 C2105 1.429 . S
C2102 C2085 1.574 . S
C2102 H2096 0.949 . S
C2102 C2106 1.368 . S
C2103 C2084 1.429 . S
C2103 C2097 1.429 . S
C2103 C2104 1.523 . S
C2104 C2085 1.368 . S
C2104 C2098 1.368 . S
C2104 C2103 1.523 . S
C2105 C2089 1.429 . S
C2105 C2101 1.429 . S
C2105 C2106 1.523 . S
C2106 C2090 1.368 . S
C2106 C2102 1.368 . S
C2106 C2105 1.523 . S
H2107 C2082 0.950 1_556 S
H2108 C2084 0.950 . S
H2109 C2085 0.949 . S
H2110 C2087 0.950 . S
H2111 C2089 0.950 . S
C2112 C2113 1.349 . S
C2112 C2114 1.327 . S
C2112 H2137 0.950 . S
C2113 C2112 1.349 . S
C2113 C2129 1.349 . S
C2114 C2112 1.327 . S
C2114 C2133 1.429 . S
C2114 H2138 0.950 . S
C2115 C2132 1.574 . S
C2115 C2134 1.368 . S
C2115 H2139 0.949 . S
H2116 C2120 0.949 . S
C2117 C2118 1.349 . S
C2117 C2119 1.327 1_556 S
C2117 H2140 0.950 . S
C2118 C2117 1.349 . S
C2118 C2130 1.349 1_556 S
C2119 C2117 1.327 1_554 S
C2119 C2135 1.429 . S
C2119 H2141 0.950 . S
C2120 H2116 0.949 . S
C2120 C2128 1.574 . S
C2120 C2136 1.368 . S
H2121 C2129 0.950 . S
H2122 C2127 0.950 . S
H2123 C2128 0.949 . S
H2124 C2130 0.950 1_556 S
H2125 C2131 0.950 . S
H2126 C2132 0.949 . S
C2127 H2122 0.950 . S
C2127 C2129 1.327 . S
C2127 C2133 1.429 . S
C2128 C2120 1.574 . S
C2128 H2123 0.949 . S
C2128 C2134 1.368 . S
C2129 C2113 1.349 . S
C2129 H2121 0.950 . S
C2129 C2127 1.327 . S
C2130 C2118 1.349 1_554 S
C2130 H2124 0.950 1_554 S
C2130 C2131 1.327 . S
C2131 H2125 0.950 . S
C2131 C2130 1.327 . S
C2131 C2135 1.429 . S
C2132 C2115 1.574 . S
C2132 H2126 0.949 . S
C2132 C2136 1.368 . S
C2133 C2114 1.429 . S
C2133 C2127 1.429 . S
C2133 C2134 1.523 . S
C2134 C2115 1.368 . S
C2134 C2128 1.368 . S
C2134 C2133 1.523 . S
C2135 C2119 1.429 . S
C2135 C2131 1.429 . S
C2135 C2136 1.523 . S
C2136 C2120 1.368 . S
C2136 C2132 1.368 . S
C2136 C2135 1.523 . S
H2137 C2112 0.950 . S
H2138 C2114 0.950 . S
H2139 C2115 0.949 . S
H2140 C2117 0.950 . S
H2141 C2119 0.950 . S
C2142 C2143 1.349 . S
C2142 C2144 1.327 . S
C2142 H2167 0.950 . S
C2143 C2142 1.349 . S
C2143 C2159 1.349 . S
C2144 C2142 1.327 . S
C2144 C2163 1.429 . S
C2144 H2168 0.950 . S
C2145 C2162 1.574 . S
C2145 C2164 1.368 . S
C2145 H2169 0.949 . S
H2146 C2150 0.949 . S
C2147 C2148 1.349 . S
C2147 C2149 1.327 . S
C2147 H2170 0.950 . S
C2148 C2147 1.349 . S
C2148 C2160 1.349 . S
C2149 C2147 1.327 . S
C2149 C2165 1.429 . S
C2149 H2171 0.950 . S
C2150 H2146 0.949 . S
C2150 C2158 1.574 . S
C2150 C2166 1.368 . S
H2151 C2159 0.950 . S
H2152 C2157 0.950 . S
H2153 C2158 0.949 1_556 S
H2154 C2160 0.950 . S
H2155 C2161 0.950 . S
H2156 C2162 0.949 . S
C2157 H2152 0.950 . S
C2157 C2159 1.327 . S
C2157 C2163 1.429 . S
C2158 C2150 1.574 . S
C2158 H2153 0.949 1_554 S
C2158 C2164 1.368 . S
C2159 C2143 1.349 . S
C2159 H2151 0.950 . S
C2159 C2157 1.327 . S
C2160 C2148 1.349 . S
C2160 H2154 0.950 . S
C2160 C2161 1.327 . S
C2161 H2155 0.950 . S
C2161 C2160 1.327 . S
C2161 C2165 1.429 . S
C2162 C2145 1.574 . S
C2162 H2156 0.949 . S
C2162 C2166 1.368 . S
C2163 C2144 1.429 . S
C2163 C2157 1.429 . S
C2163 C2164 1.523 1_556 S
C2164 C2145 1.368 . S
C2164 C2158 1.368 . S
C2164 C2163 1.523 1_554 S
C2165 C2149 1.429 . S
C2165 C2161 1.429 . S
C2165 C2166 1.523 . S
C2166 C2150 1.368 . S
C2166 C2162 1.368 . S
C2166 C2165 1.523 . S
H2167 C2142 0.950 . S
H2168 C2144 0.950 . S
H2169 C2145 0.949 . S
H2170 C2147 0.950 . S
H2171 C2149 0.950 . S
C2172 C2173 1.349 . S
C2172 C2174 1.327 . S
C2172 H2197 0.950 . S
C2173 C2172 1.349 . S
C2173 C2189 1.349 . S
C2174 C2172 1.327 . S
C2174 C2193 1.429 . S
C2174 H2198 0.950 . S
C2175 C2192 1.574 . S
C2175 C2194 1.368 . S
C2175 H2199 0.949 . S
H2176 C2180 0.949 1_556 S
C2177 C2178 1.349 . S
C2177 C2179 1.327 . S
C2177 H2200 0.950 . S
C2178 C2177 1.349 . S
C2178 C2190 1.349 . S
C2179 C2177 1.327 . S
C2179 C2195 1.429 . S
C2179 H2201 0.950 . S
C2180 H2176 0.949 1_554 S
C2180 C2188 1.574 . S
C2180 C2196 1.368 . S
H2181 C2189 0.950 . S
H2182 C2187 0.950 . S
H2183 C2188 0.949 . S
H2184 C2190 0.950 . S
H2185 C2191 0.950 . S
H2186 C2192 0.949 . S
C2187 H2182 0.950 . S
C2187 C2189 1.327 . S
C2187 C2193 1.429 . S
C2188 C2180 1.574 . S
C2188 H2183 0.949 . S
C2188 C2194 1.368 . S
C2189 C2173 1.349 . S
C2189 H2181 0.950 . S
C2189 C2187 1.327 . S
C2190 C2178 1.349 . S
C2190 H2184 0.950 . S
C2190 C2191 1.327 . S
C2191 H2185 0.950 . S
C2191 C2190 1.327 . S
C2191 C2195 1.429 . S
C2192 C2175 1.574 . S
C2192 H2186 0.949 . S
C2192 C2196 1.368 . S
C2193 C2174 1.429 . S
C2193 C2187 1.429 . S
C2193 C2194 1.523 . S
C2194 C2175 1.368 . S
C2194 C2188 1.368 . S
C2194 C2193 1.523 . S
C2195 C2179 1.429 . S
C2195 C2191 1.429 . S
C2195 C2196 1.523 1_556 S
C2196 C2180 1.368 . S
C2196 C2192 1.368 . S
C2196 C2195 1.523 1_554 S
H2197 C2172 0.950 . S
H2198 C2174 0.950 . S
H2199 C2175 0.949 . S
H2200 C2177 0.950 . S
H2201 C2179 0.950 . S
C2202 C2203 1.349 . S
C2202 C2204 1.327 . S
C2202 H2227 0.950 . S
C2203 C2202 1.349 . S
C2203 C2219 1.349 . S
C2204 C2202 1.327 . S
C2204 C2223 1.429 . S
C2204 H2228 0.950 . S
C2205 C2222 1.574 . S
C2205 C2224 1.368 . S
C2205 H2229 0.949 . S
H2206 C2210 0.949 . S
C2207 C2208 1.349 . S
C2207 C2209 1.327 . S
C2207 H2230 0.950 . S
C2208 C2207 1.349 . S
C2208 C2220 1.349 . S
C2209 C2207 1.327 . S
C2209 C2225 1.429 . S
C2209 H2231 0.950 . S
C2210 H2206 0.949 . S
C2210 C2218 1.574 . S
C2210 C2226 1.368 . S
H2211 C2219 0.950 . S
H2212 C2217 0.950 . S
H2213 C2218 0.949 . S
H2214 C2220 0.950 . S
H2215 C2221 0.950 . S
H2216 C2222 0.949 1_556 S
C2217 H2212 0.950 . S
C2217 C2219 1.327 . S
C2217 C2223 1.429 . S
C2218 C2210 1.574 . S
C2218 H2213 0.949 . S
C2218 C2224 1.368 . S
C2219 C2203 1.349 . S
C2219 H2211 0.950 . S
C2219 C2217 1.327 . S
C2220 C2208 1.349 . S
C2220 H2214 0.950 . S
C2220 C2221 1.327 . S
C2221 H2215 0.950 . S
C2221 C2220 1.327 . S
C2221 C2225 1.429 . S
C2222 C2205 1.574 . S
C2222 H2216 0.949 1_554 S
C2222 C2226 1.368 . S
C2223 C2204 1.429 . S
C2223 C2217 1.429 . S
C2223 C2224 1.523 . S
C2224 C2205 1.368 . S
C2224 C2218 1.368 . S
C2224 C2223 1.523 . S
C2225 C2209 1.429 . S
C2225 C2221 1.429 . S
C2225 C2226 1.523 1_556 S
C2226 C2210 1.368 . S
C2226 C2222 1.368 . S
C2226 C2225 1.523 1_554 S
H2227 C2202 0.950 . S
H2228 C2204 0.950 . S
H2229 C2205 0.949 . S
H2230 C2207 0.950 . S
H2231 C2209 0.950 . S
C2232 C2233 1.349 . S
C2232 C2234 1.327 . S
C2232 H2257 0.950 . S
C2233 C2232 1.349 . S
C2233 C2249 1.349 . S
C2234 C2232 1.327 . S
C2234 C2253 1.429 . S
C2234 H2258 0.950 . S
C2235 C2252 1.574 . S
C2235 C2254 1.368 . S
C2235 H2259 0.949 . S
H2236 C2240 0.949 . S
C2237 C2238 1.349 . S
C2237 C2239 1.327 . S
C2237 H2260 0.950 . S
C2238 C2237 1.349 . S
C2238 C2250 1.349 . S
C2239 C2237 1.327 . S
C2239 C2255 1.429 . S
C2239 H2261 0.950 . S
C2240 H2236 0.949 . S
C2240 C2248 1.574 . S
C2240 C2256 1.368 . S
H2241 C2249 0.950 . S
H2242 C2247 0.950 . S
H2243 C2248 0.949 . S
H2244 C2250 0.950 . S
H2245 C2251 0.950 . S
H2246 C2252 0.949 . S
C2247 H2242 0.950 . S
C2247 C2249 1.327 . S
C2247 C2253 1.429 . S
C2248 C2240 1.574 . S
C2248 H2243 0.949 . S
C2248 C2254 1.368 . S
C2249 C2233 1.349 . S
C2249 H2241 0.950 . S
C2249 C2247 1.327 . S
C2250 C2238 1.349 . S
C2250 H2244 0.950 . S
C2250 C2251 1.327 . S
C2251 H2245 0.950 . S
C2251 C2250 1.327 . S
C2251 C2255 1.429 . S
C2252 C2235 1.574 . S
C2252 H2246 0.949 . S
C2252 C2256 1.368 . S
C2253 C2234 1.429 . S
C2253 C2247 1.429 . S
C2253 C2254 1.523 . S
C2254 C2235 1.368 . S
C2254 C2248 1.368 . S
C2254 C2253 1.523 . S
C2255 C2239 1.429 . S
C2255 C2251 1.429 . S
C2255 C2256 1.523 1_556 S
C2256 C2240 1.368 . S
C2256 C2252 1.368 . S
C2256 C2255 1.523 1_554 S
H2257 C2232 0.950 . S
H2258 C2234 0.950 . S
H2259 C2235 0.949 . S
H2260 C2237 0.950 . S
H2261 C2239 0.950 . S
C2262 C2263 1.349 . S
C2262 C2264 1.327 . S
C2262 H2287 0.950 . S
C2263 C2262 1.349 . S
C2263 C2279 1.349 . S
C2264 C2262 1.327 . S
C2264 C2283 1.429 . S
C2264 H2288 0.950 . S
C2265 C2282 1.574 . S
C2265 C2284 1.368 . S
C2265 H2289 0.949 1_554 S
H2266 C2270 0.949 . S
C2267 C2268 1.349 . S
C2267 C2269 1.327 . S
C2267 H2290 0.950 . S
C2268 C2267 1.349 . S
C2268 C2280 1.349 . S
C2269 C2267 1.327 . S
C2269 C2285 1.429 . S
C2269 H2291 0.950 . S
C2270 H2266 0.949 . S
C2270 C2278 1.574 . S
C2270 C2286 1.368 . S
H2271 C2279 0.950 . S
H2272 C2277 0.950 . S
H2273 C2278 0.949 . S
H2274 C2280 0.950 . S
H2275 C2281 0.950 . S
H2276 C2282 0.949 . S
C2277 H2272 0.950 . S
C2277 C2279 1.327 . S
C2277 C2283 1.429 . S
C2278 C2270 1.574 . S
C2278 H2273 0.949 . S
C2278 C2284 1.368 . S
C2279 C2263 1.349 . S
C2279 H2271 0.950 . S
C2279 C2277 1.327 . S
C2280 C2268 1.349 . S
C2280 H2274 0.950 . S
C2280 C2281 1.327 . S
C2281 H2275 0.950 . S
C2281 C2280 1.327 . S
C2281 C2285 1.429 . S
C2282 C2265 1.574 . S
C2282 H2276 0.949 . S
C2282 C2286 1.368 . S
C2283 C2264 1.429 . S
C2283 C2277 1.429 . S
C2283 C2284 1.523 1_556 S
C2284 C2265 1.368 . S
C2284 C2278 1.368 . S
C2284 C2283 1.523 1_554 S
C2285 C2269 1.429 . S
C2285 C2281 1.429 . S
C2285 C2286 1.523 . S
C2286 C2270 1.368 . S
C2286 C2282 1.368 . S
C2286 C2285 1.523 . S
H2287 C2262 0.950 . S
H2288 C2264 0.950 . S
H2289 C2265 0.949 1_556 S
H2290 C2267 0.950 . S
H2291 C2269 0.950 . S
C2292 C2293 1.349 . S
C2292 C2294 1.327 . S
C2292 H2317 0.950 . S
C2293 C2292 1.349 . S
C2293 C2309 1.349 . S
C2294 C2292 1.327 . S
C2294 C2313 1.429 . S
C2294 H2318 0.950 . S
C2295 C2312 1.574 . S
C2295 C2314 1.368 . S
C2295 H2319 0.949 . S
H2296 C2300 0.949 . S
C2297 C2298 1.349 . S
C2297 C2299 1.327 . S
C2297 H2320 0.950 . S
C2298 C2297 1.349 . S
C2298 C2310 1.349 . S
C2299 C2297 1.327 . S
C2299 C2315 1.429 . S
C2299 H2321 0.950 . S
C2300 H2296 0.949 . S
C2300 C2308 1.574 . S
C2300 C2316 1.368 . S
H2301 C2309 0.950 . S
H2302 C2307 0.950 . S
H2303 C2308 0.949 . S
H2304 C2310 0.950 . S
H2305 C2311 0.950 . S
H2306 C2312 0.949 . S
C2307 H2302 0.950 . S
C2307 C2309 1.327 . S
C2307 C2313 1.429 . S
C2308 C2300 1.574 . S
C2308 H2303 0.949 . S
C2308 C2314 1.368 . S
C2309 C2293 1.349 . S
C2309 H2301 0.950 . S
C2309 C2307 1.327 . S
C2310 C2298 1.349 . S
C2310 H2304 0.950 . S
C2310 C2311 1.327 . S
C2311 H2305 0.950 . S
C2311 C2310 1.327 . S
C2311 C2315 1.429 . S
C2312 C2295 1.574 . S
C2312 H2306 0.949 . S
C2312 C2316 1.368 . S
C2313 C2294 1.429 . S
C2313 C2307 1.429 . S
C2313 C2314 1.523 1_556 S
C2314 C2295 1.368 . S
C2314 C2308 1.368 . S
C2314 C2313 1.523 1_554 S
C2315 C2299 1.429 . S
C2315 C2311 1.429 . S
C2315 C2316 1.523 . S
C2316 C2300 1.368 . S
C2316 C2312 1.368 . S
C2316 C2315 1.523 . S
H2317 C2292 0.950 . S
H2318 C2294 0.950 . S
H2319 C2295 0.949 . S
H2320 C2297 0.950 . S
H2321 C2299 0.950 . S
C2322 C2323 1.349 1_554 S
C2322 C2324 1.327 . S
C2322 H2347 0.950 1_554 S
C2323 C2322 1.349 1_556 S
C2323 C2339 1.349 . S
C2324 C2322 1.327 . S
C2324 C2343 1.429 . S
C2324 H2348 0.950 . S
C2325 C2342 1.574 . S
C2325 C2344 1.368 . S
C2325 H2349 0.949 . S
H2326 C2330 0.949 . S
C2327 C2328 1.349 . S
C2327 C2329 1.327 . S
C2327 H2350 0.950 . S
C2328 C2327 1.349 . S
C2328 C2340 1.349 . S
C2329 C2327 1.327 . S
C2329 C2345 1.429 . S
C2329 H2351 0.950 . S
C2330 H2326 0.949 . S
C2330 C2338 1.574 . S
C2330 C2346 1.368 . S
H2331 C2339 0.950 . S
H2332 C2337 0.950 . S
H2333 C2338 0.949 . S
H2334 C2340 0.950 . S
H2335 C2341 0.950 . S
H2336 C2342 0.949 . S
C2337 H2332 0.950 . S
C2337 C2339 1.327 1_554 S
C2337 C2343 1.429 . S
C2338 C2330 1.574 . S
C2338 H2333 0.949 . S
C2338 C2344 1.368 . S
C2339 C2323 1.349 . S
C2339 H2331 0.950 . S
C2339 C2337 1.327 1_556 S
C2340 C2328 1.349 . S
C2340 H2334 0.950 . S
C2340 C2341 1.327 . S
C2341 H2335 0.950 . S
C2341 C2340 1.327 . S
C2341 C2345 1.429 . S
C2342 C2325 1.574 . S
C2342 H2336 0.949 . S
C2342 C2346 1.368 . S
C2343 C2324 1.429 . S
C2343 C2337 1.429 . S
C2343 C2344 1.523 . S
C2344 C2325 1.368 . S
C2344 C2338 1.368 . S
C2344 C2343 1.523 . S
C2345 C2329 1.429 . S
C2345 C2341 1.429 . S
C2345 C2346 1.523 . S
C2346 C2330 1.368 . S
C2346 C2342 1.368 . S
C2346 C2345 1.523 . S
H2347 C2322 0.950 1_556 S
H2348 C2324 0.950 . S
H2349 C2325 0.949 . S
H2350 C2327 0.950 . S
H2351 C2329 0.950 . S
C2352 C2353 1.349 . S
C2352 C2354 1.327 . S
C2352 H2377 0.950 . S
C2353 C2352 1.349 . S
C2353 C2369 1.349 . S
C2354 C2352 1.327 . S
C2354 C2373 1.429 . S
C2354 H2378 0.950 . S
C2355 C2372 1.574 . S
C2355 C2374 1.368 . S
C2355 H2379 0.949 . S
H2356 C2360 0.949 . S
C2357 C2358 1.349 1_554 S
C2357 C2359 1.327 . S
C2357 H2380 0.950 1_554 S
C2358 C2357 1.349 1_556 S
C2358 C2370 1.349 . S
C2359 C2357 1.327 . S
C2359 C2375 1.429 . S
C2359 H2381 0.950 . S
C2360 H2356 0.949 . S
C2360 C2368 1.574 . S
C2360 C2376 1.368 . S
H2361 C2369 0.950 . S
H2362 C2367 0.950 . S
H2363 C2368 0.949 . S
H2364 C2370 0.950 . S
H2365 C2371 0.950 . S
H2366 C2372 0.949 . S
C2367 H2362 0.950 . S
C2367 C2369 1.327 . S
C2367 C2373 1.429 . S
C2368 C2360 1.574 . S
C2368 H2363 0.949 . S
C2368 C2374 1.368 . S
C2369 C2353 1.349 . S
C2369 H2361 0.950 . S
C2369 C2367 1.327 . S
C2370 C2358 1.349 . S
C2370 H2364 0.950 . S
C2370 C2371 1.327 1_556 S
C2371 H2365 0.950 . S
C2371 C2370 1.327 1_554 S
C2371 C2375 1.429 . S
C2372 C2355 1.574 . S
C2372 H2366 0.949 . S
C2372 C2376 1.368 . S
C2373 C2354 1.429 . S
C2373 C2367 1.429 . S
C2373 C2374 1.523 . S
C2374 C2355 1.368 . S
C2374 C2368 1.368 . S
C2374 C2373 1.523 . S
C2375 C2359 1.429 . S
C2375 C2371 1.429 . S
C2375 C2376 1.523 . S
C2376 C2360 1.368 . S
C2376 C2372 1.368 . S
C2376 C2375 1.523 . S
H2377 C2352 0.950 . S
H2378 C2354 0.950 . S
H2379 C2355 0.949 . S
H2380 C2357 0.950 1_556 S
H2381 C2359 0.950 . S
C2382 C2383 1.349 1_554 S
C2382 C2384 1.327 . S
C2382 H2407 0.950 1_554 S
C2383 C2382 1.349 1_556 S
C2383 C2399 1.349 1_556 S
C2384 C2382 1.327 . S
C2384 C2403 1.429 . S
C2384 H2408 0.950 . S
C2385 C2402 1.574 . S
C2385 C2404 1.368 . S
C2385 H2409 0.949 . S
H2386 C2390 0.949 . S
C2387 C2388 1.349 . S
C2387 C2389 1.327 . S
C2387 H2410 0.950 . S
C2388 C2387 1.349 . S
C2388 C2400 1.349 . S
C2389 C2387 1.327 . S
C2389 C2405 1.429 . S
C2389 H2411 0.950 . S
C2390 H2386 0.949 . S
C2390 C2398 1.574 . S
C2390 C2406 1.368 . S
H2391 C2399 0.950 1_556 S
H2392 C2397 0.950 . S
H2393 C2398 0.949 . S
H2394 C2400 0.950 . S
H2395 C2401 0.950 . S
H2396 C2402 0.949 . S
C2397 H2392 0.950 . S
C2397 C2399 1.327 . S
C2397 C2403 1.429 . S
C2398 C2390 1.574 . S
C2398 H2393 0.949 . S
C2398 C2404 1.368 . S
C2399 C2383 1.349 1_554 S
C2399 H2391 0.950 1_554 S
C2399 C2397 1.327 . S
C2400 C2388 1.349 . S
C2400 H2394 0.950 . S
C2400 C2401 1.327 . S
C2401 H2395 0.950 . S
C2401 C2400 1.327 . S
C2401 C2405 1.429 . S
C2402 C2385 1.574 . S
C2402 H2396 0.949 . S
C2402 C2406 1.368 . S
C2403 C2384 1.429 . S
C2403 C2397 1.429 . S
C2403 C2404 1.523 . S
C2404 C2385 1.368 . S
C2404 C2398 1.368 . S
C2404 C2403 1.523 . S
C2405 C2389 1.429 . S
C2405 C2401 1.429 . S
C2405 C2406 1.523 . S
C2406 C2390 1.368 . S
C2406 C2402 1.368 . S
C2406 C2405 1.523 . S
H2407 C2382 0.950 1_556 S
H2408 C2384 0.950 . S
H2409 C2385 0.949 . S
H2410 C2387 0.950 . S
H2411 C2389 0.950 . S
C2412 C2413 1.349 . S
C2412 C2414 1.327 . S
C2412 H2437 0.950 . S
C2413 C2412 1.349 . S
C2413 C2429 1.349 . S
C2414 C2412 1.327 . S
C2414 C2433 1.429 . S
C2414 H2438 0.950 . S
C2415 C2432 1.574 . S
C2415 C2434 1.368 . S
C2415 H2439 0.949 . S
H2416 C2420 0.949 . S
C2417 C2418 1.349 . S
C2417 C2419 1.327 . S
C2417 H2440 0.950 . S
C2418 C2417 1.349 . S
C2418 C2430 1.349 . S
C2419 C2417 1.327 . S
C2419 C2435 1.429 . S
C2419 H2441 0.950 . S
C2420 H2416 0.949 . S
C2420 C2428 1.574 . S
C2420 C2436 1.368 . S
H2421 C2429 0.950 . S
H2422 C2427 0.950 . S
H2423 C2428 0.949 . S
H2424 C2430 0.950 . S
H2425 C2431 0.950 . S
H2426 C2432 0.949 . S
C2427 H2422 0.950 . S
C2427 C2429 1.327 . S
C2427 C2433 1.429 . S
C2428 C2420 1.574 . S
C2428 H2423 0.949 . S
C2428 C2434 1.368 . S
C2429 C2413 1.349 . S
C2429 H2421 0.950 . S
C2429 C2427 1.327 . S
C2430 C2418 1.349 . S
C2430 H2424 0.950 . S
C2430 C2431 1.327 . S
C2431 H2425 0.950 . S
C2431 C2430 1.327 . S
C2431 C2435 1.429 . S
C2432 C2415 1.574 . S
C2432 H2426 0.949 . S
C2432 C2436 1.368 . S
C2433 C2414 1.429 . S
C2433 C2427 1.429 . S
C2433 C2434 1.523 . S
C2434 C2415 1.368 . S
C2434 C2428 1.368 . S
C2434 C2433 1.523 . S
C2435 C2419 1.429 . S
C2435 C2431 1.429 . S
C2435 C2436 1.523 . S
C2436 C2420 1.368 . S
C2436 C2432 1.368 . S
C2436 C2435 1.523 . S
H2437 C2412 0.950 . S
H2438 C2414 0.950 . S
H2439 C2415 0.949 . S
H2440 C2417 0.950 . S
H2441 C2419 0.950 . S
C2442 C2443 1.349 . S
C2442 C2444 1.327 . S
C2442 H2467 0.950 . S
C2443 C2442 1.349 . S
C2443 C2459 1.349 . S
C2444 C2442 1.327 . S
C2444 C2463 1.429 . S
C2444 H2468 0.950 . S
C2445 C2462 1.574 . S
C2445 C2464 1.368 . S
C2445 H2469 0.949 . S
H2446 C2450 0.949 . S
C2447 C2448 1.349 . S
C2447 C2449 1.327 . S
C2447 H2470 0.950 . S
C2448 C2447 1.349 . S
C2448 C2460 1.349 . S
C2449 C2447 1.327 . S
C2449 C2465 1.429 . S
C2449 H2471 0.950 . S
C2450 H2446 0.949 . S
C2450 C2458 1.574 . S
C2450 C2466 1.368 . S
H2451 C2459 0.950 . S
H2452 C2457 0.950 . S
H2453 C2458 0.949 . S
H2454 C2460 0.950 . S
H2455 C2461 0.950 . S
H2456 C2462 0.949 . S
C2457 H2452 0.950 . S
C2457 C2459 1.327 . S
C2457 C2463 1.429 . S
C2458 C2450 1.574 . S
C2458 H2453 0.949 . S
C2458 C2464 1.368 . S
C2459 C2443 1.349 . S
C2459 H2451 0.950 . S
C2459 C2457 1.327 . S
C2460 C2448 1.349 . S
C2460 H2454 0.950 . S
C2460 C2461 1.327 . S
C2461 H2455 0.950 . S
C2461 C2460 1.327 . S
C2461 C2465 1.429 . S
C2462 C2445 1.574 . S
C2462 H2456 0.949 . S
C2462 C2466 1.368 . S
C2463 C2444 1.429 . S
C2463 C2457 1.429 . S
C2463 C2464 1.523 . S
C2464 C2445 1.368 . S
C2464 C2458 1.368 . S
C2464 C2463 1.523 . S
C2465 C2449 1.429 . S
C2465 C2461 1.429 . S
C2465 C2466 1.523 . S
C2466 C2450 1.368 . S
C2466 C2462 1.368 . S
C2466 C2465 1.523 . S
H2467 C2442 0.950 . S
H2468 C2444 0.950 . S
H2469 C2445 0.949 . S
H2470 C2447 0.950 . S
H2471 C2449 0.950 . S
C2472 C2473 1.349 . S
C2472 C2474 1.327 . S
C2472 H2497 0.950 . S
C2473 C2472 1.349 . S
C2473 C2489 1.349 . S
C2474 C2472 1.327 . S
C2474 C2493 1.429 . S
C2474 H2498 0.950 . S
C2475 C2492 1.574 . S
C2475 C2494 1.368 . S
C2475 H2499 0.949 . S
H2476 C2480 0.949 . S
C2477 C2478 1.349 . S
C2477 C2479 1.327 . S
C2477 H2500 0.950 . S
C2478 C2477 1.349 . S
C2478 C2490 1.349 . S
C2479 C2477 1.327 . S
C2479 C2495 1.429 . S
C2479 H2501 0.950 . S
C2480 H2476 0.949 . S
C2480 C2488 1.574 . S
C2480 C2496 1.368 . S
H2481 C2489 0.950 . S
H2482 C2487 0.950 . S
H2483 C2488 0.949 . S
H2484 C2490 0.950 . S
H2485 C2491 0.950 . S
H2486 C2492 0.949 . S
C2487 H2482 0.950 . S
C2487 C2489 1.327 . S
C2487 C2493 1.429 . S
C2488 C2480 1.574 . S
C2488 H2483 0.949 . S
C2488 C2494 1.368 . S
C2489 C2473 1.349 . S
C2489 H2481 0.950 . S
C2489 C2487 1.327 . S
C2490 C2478 1.349 . S
C2490 H2484 0.950 . S
C2490 C2491 1.327 . S
C2491 H2485 0.950 . S
C2491 C2490 1.327 . S
C2491 C2495 1.429 . S
C2492 C2475 1.574 . S
C2492 H2486 0.949 . S
C2492 C2496 1.368 . S
C2493 C2474 1.429 . S
C2493 C2487 1.429 . S
C2493 C2494 1.523 . S
C2494 C2475 1.368 . S
C2494 C2488 1.368 . S
C2494 C2493 1.523 . S
C2495 C2479 1.429 . S
C2495 C2491 1.429 . S
C2495 C2496 1.523 . S
C2496 C2480 1.368 . S
C2496 C2492 1.368 . S
C2496 C2495 1.523 . S
H2497 C2472 0.950 . S
H2498 C2474 0.950 . S
H2499 C2475 0.949 . S
H2500 C2477 0.950 . S
H2501 C2479 0.950 . S
C2502 C2503 1.349 . S
C2502 C2504 1.327 . S
C2502 H2527 0.950 . S
C2503 C2502 1.349 . S
C2503 C2519 1.349 . S
C2504 C2502 1.327 . S
C2504 C2523 1.429 . S
C2504 H2528 0.950 . S
C2505 C2522 1.574 . S
C2505 C2524 1.368 . S
C2505 H2529 0.949 . S
H2506 C2510 0.949 . S
C2507 C2508 1.349 . S
C2507 C2509 1.327 . S
C2507 H2530 0.950 . S
C2508 C2507 1.349 . S
C2508 C2520 1.349 . S
C2509 C2507 1.327 . S
C2509 C2525 1.429 . S
C2509 H2531 0.950 . S
C2510 H2506 0.949 . S
C2510 C2518 1.574 . S
C2510 C2526 1.368 . S
H2511 C2519 0.950 . S
H2512 C2517 0.950 . S
H2513 C2518 0.949 . S
H2514 C2520 0.950 . S
H2515 C2521 0.950 . S
H2516 C2522 0.949 . S
C2517 H2512 0.950 . S
C2517 C2519 1.327 . S
C2517 C2523 1.429 . S
C2518 C2510 1.574 . S
C2518 H2513 0.949 . S
C2518 C2524 1.368 . S
C2519 C2503 1.349 . S
C2519 H2511 0.950 . S
C2519 C2517 1.327 . S
C2520 C2508 1.349 . S
C2520 H2514 0.950 . S
C2520 C2521 1.327 . S
C2521 H2515 0.950 . S
C2521 C2520 1.327 . S
C2521 C2525 1.429 . S
C2522 C2505 1.574 . S
C2522 H2516 0.949 . S
C2522 C2526 1.368 . S
C2523 C2504 1.429 . S
C2523 C2517 1.429 . S
C2523 C2524 1.523 . S
C2524 C2505 1.368 . S
C2524 C2518 1.368 . S
C2524 C2523 1.523 . S
C2525 C2509 1.429 . S
C2525 C2521 1.429 . S
C2525 C2526 1.523 . S
C2526 C2510 1.368 . S
C2526 C2522 1.368 . S
C2526 C2525 1.523 . S
H2527 C2502 0.950 . S
H2528 C2504 0.950 . S
H2529 C2505 0.949 . S
H2530 C2507 0.950 . S
H2531 C2509 0.950 . S
C2532 C2533 1.349 . S
C2532 C2534 1.327 . S
C2532 H2557 0.950 . S
C2533 C2532 1.349 . S
C2533 C2549 1.349 . S
C2534 C2532 1.327 . S
C2534 C2553 1.429 . S
C2534 H2558 0.950 . S
C2535 C2552 1.574 . S
C2535 C2554 1.368 . S
C2535 H2559 0.949 . S
H2536 C2540 0.949 . S
C2537 C2538 1.349 . S
C2537 C2539 1.327 . S
C2537 H2560 0.950 . S
C2538 C2537 1.349 . S
C2538 C2550 1.349 . S
C2539 C2537 1.327 . S
C2539 C2555 1.429 . S
C2539 H2561 0.950 . S
C2540 H2536 0.949 . S
C2540 C2548 1.574 . S
C2540 C2556 1.368 . S
H2541 C2549 0.950 . S
H2542 C2547 0.950 . S
H2543 C2548 0.949 . S
H2544 C2550 0.950 . S
H2545 C2551 0.950 . S
H2546 C2552 0.949 . S
C2547 H2542 0.950 . S
C2547 C2549 1.327 . S
C2547 C2553 1.429 . S
C2548 C2540 1.574 . S
C2548 H2543 0.949 . S
C2548 C2554 1.368 . S
C2549 C2533 1.349 . S
C2549 H2541 0.950 . S
C2549 C2547 1.327 . S
C2550 C2538 1.349 . S
C2550 H2544 0.950 . S
C2550 C2551 1.327 . S
C2551 H2545 0.950 . S
C2551 C2550 1.327 . S
C2551 C2555 1.429 . S
C2552 C2535 1.574 . S
C2552 H2546 0.949 . S
C2552 C2556 1.368 . S
C2553 C2534 1.429 . S
C2553 C2547 1.429 . S
C2553 C2554 1.523 . S
C2554 C2535 1.368 . S
C2554 C2548 1.368 . S
C2554 C2553 1.523 . S
C2555 C2539 1.429 . S
C2555 C2551 1.429 . S
C2555 C2556 1.523 . S
C2556 C2540 1.368 . S
C2556 C2552 1.368 . S
C2556 C2555 1.523 . S
H2557 C2532 0.950 . S
H2558 C2534 0.950 . S
H2559 C2535 0.949 . S
H2560 C2537 0.950 . S
H2561 C2539 0.950 . S
C2562 C2563 1.349 . S
C2562 C2564 1.327 . S
C2562 H2587 0.950 . S
C2563 C2562 1.349 . S
C2563 C2579 1.349 . S
C2564 C2562 1.327 . S
C2564 C2583 1.429 . S
C2564 H2588 0.950 . S
C2565 C2582 1.574 . S
C2565 C2584 1.368 . S
C2565 H2589 0.949 . S
H2566 C2570 0.949 . S
C2567 C2568 1.349 . S
C2567 C2569 1.327 . S
C2567 H2590 0.950 . S
C2568 C2567 1.349 . S
C2568 C2580 1.349 . S
C2569 C2567 1.327 . S
C2569 C2585 1.429 . S
C2569 H2591 0.950 . S
C2570 H2566 0.949 . S
C2570 C2578 1.574 . S
C2570 C2586 1.368 . S
H2571 C2579 0.950 . S
H2572 C2577 0.950 . S
H2573 C2578 0.949 . S
H2574 C2580 0.950 . S
H2575 C2581 0.950 . S
H2576 C2582 0.949 . S
C2577 H2572 0.950 . S
C2577 C2579 1.327 . S
C2577 C2583 1.429 . S
C2578 C2570 1.574 . S
C2578 H2573 0.949 . S
C2578 C2584 1.368 . S
C2579 C2563 1.349 . S
C2579 H2571 0.950 . S
C2579 C2577 1.327 . S
C2580 C2568 1.349 . S
C2580 H2574 0.950 . S
C2580 C2581 1.327 . S
C2581 H2575 0.950 . S
C2581 C2580 1.327 . S
C2581 C2585 1.429 . S
C2582 C2565 1.574 . S
C2582 H2576 0.949 . S
C2582 C2586 1.368 . S
C2583 C2564 1.429 . S
C2583 C2577 1.429 . S
C2583 C2584 1.523 . S
C2584 C2565 1.368 . S
C2584 C2578 1.368 . S
C2584 C2583 1.523 . S
C2585 C2569 1.429 . S
C2585 C2581 1.429 . S
C2585 C2586 1.523 . S
C2586 C2570 1.368 . S
C2586 C2582 1.368 . S
C2586 C2585 1.523 . S
H2587 C2562 0.950 . S
H2588 C2564 0.950 . S
H2589 C2565 0.949 . S
H2590 C2567 0.950 . S
H2591 C2569 0.950 . S
C2592 C2593 1.349 . S
C2592 C2594 1.327 . S
C2592 H2617 0.950 . S
C2593 C2592 1.349 . S
C2593 C2609 1.349 . S
C2594 C2592 1.327 . S
C2594 C2613 1.429 . S
C2594 H2618 0.950 . S
C2595 C2612 1.574 . S
C2595 C2614 1.368 . S
C2595 H2619 0.949 . S
H2596 C2600 0.949 . S
C2597 C2598 1.349 . S
C2597 C2599 1.327 . S
C2597 H2620 0.950 . S
C2598 C2597 1.349 . S
C2598 C2610 1.349 . S
C2599 C2597 1.327 . S
C2599 C2615 1.429 . S
C2599 H2621 0.950 . S
C2600 H2596 0.949 . S
C2600 C2608 1.574 . S
C2600 C2616 1.368 . S
H2601 C2609 0.950 . S
H2602 C2607 0.950 . S
H2603 C2608 0.949 . S
H2604 C2610 0.950 . S
H2605 C2611 0.950 . S
H2606 C2612 0.949 . S
C2607 H2602 0.950 . S
C2607 C2609 1.327 . S
C2607 C2613 1.429 . S
C2608 C2600 1.574 . S
C2608 H2603 0.949 . S
C2608 C2614 1.368 . S
C2609 C2593 1.349 . S
C2609 H2601 0.950 . S
C2609 C2607 1.327 . S
C2610 C2598 1.349 . S
C2610 H2604 0.950 . S
C2610 C2611 1.327 . S
C2611 H2605 0.950 . S
C2611 C2610 1.327 . S
C2611 C2615 1.429 . S
C2612 C2595 1.574 . S
C2612 H2606 0.949 . S
C2612 C2616 1.368 . S
C2613 C2594 1.429 . S
C2613 C2607 1.429 . S
C2613 C2614 1.523 . S
C2614 C2595 1.368 . S
C2614 C2608 1.368 . S
C2614 C2613 1.523 . S
C2615 C2599 1.429 . S
C2615 C2611 1.429 . S
C2615 C2616 1.523 . S
C2616 C2600 1.368 . S
C2616 C2612 1.368 . S
C2616 C2615 1.523 . S
H2617 C2592 0.950 . S
H2618 C2594 0.950 . S
H2619 C2595 0.949 . S
H2620 C2597 0.950 . S
H2621 C2599 0.950 . S
C2622 C2623 1.349 . S
C2622 C2624 1.327 . S
C2622 H2647 0.950 . S
C2623 C2622 1.349 . S
C2623 C2639 1.349 . S
C2624 C2622 1.327 . S
C2624 C2643 1.429 . S
C2624 H2648 0.950 . S
C2625 C2642 1.574 . S
C2625 C2644 1.368 . S
C2625 H2649 0.949 . S
H2626 C2630 0.949 . S
C2627 C2628 1.349 . S
C2627 C2629 1.327 . S
C2627 H2650 0.950 . S
C2628 C2627 1.349 . S
C2628 C2640 1.349 . S
C2629 C2627 1.327 . S
C2629 C2645 1.429 . S
C2629 H2651 0.950 . S
C2630 H2626 0.949 . S
C2630 C2638 1.574 . S
C2630 C2646 1.368 . S
H2631 C2639 0.950 . S
H2632 C2637 0.950 . S
H2633 C2638 0.949 . S
H2634 C2640 0.950 . S
H2635 C2641 0.950 . S
H2636 C2642 0.949 . S
C2637 H2632 0.950 . S
C2637 C2639 1.327 . S
C2637 C2643 1.429 . S
C2638 C2630 1.574 . S
C2638 H2633 0.949 . S
C2638 C2644 1.368 . S
C2639 C2623 1.349 . S
C2639 H2631 0.950 . S
C2639 C2637 1.327 . S
C2640 C2628 1.349 . S
C2640 H2634 0.950 . S
C2640 C2641 1.327 . S
C2641 H2635 0.950 . S
C2641 C2640 1.327 . S
C2641 C2645 1.429 . S
C2642 C2625 1.574 . S
C2642 H2636 0.949 . S
C2642 C2646 1.368 . S
C2643 C2624 1.429 . S
C2643 C2637 1.429 . S
C2643 C2644 1.523 . S
C2644 C2625 1.368 . S
C2644 C2638 1.368 . S
C2644 C2643 1.523 . S
C2645 C2629 1.429 . S
C2645 C2641 1.429 . S
C2645 C2646 1.523 . S
C2646 C2630 1.368 . S
C2646 C2642 1.368 . S
C2646 C2645 1.523 . S
H2647 C2622 0.950 . S
H2648 C2624 0.950 . S
H2649 C2625 0.949 . S
H2650 C2627 0.950 . S
H2651 C2629 0.950 . S
C2652 C2653 1.349 . S
C2652 C2654 1.327 . S
C2652 H2677 0.950 . S
C2653 C2652 1.349 . S
C2653 C2669 1.349 . S
C2654 C2652 1.327 . S
C2654 C2673 1.429 . S
C2654 H2678 0.950 . S
C2655 C2672 1.574 . S
C2655 C2674 1.368 . S
C2655 H2679 0.949 . S
H2656 C2660 0.949 . S
C2657 C2658 1.349 . S
C2657 C2659 1.327 . S
C2657 H2680 0.950 . S
C2658 C2657 1.349 . S
C2658 C2670 1.349 . S
C2659 C2657 1.327 . S
C2659 C2675 1.429 . S
C2659 H2681 0.950 . S
C2660 H2656 0.949 . S
C2660 C2668 1.574 . S
C2660 C2676 1.368 . S
H2661 C2669 0.950 . S
H2662 C2667 0.950 . S
H2663 C2668 0.949 . S
H2664 C2670 0.950 . S
H2665 C2671 0.950 . S
H2666 C2672 0.949 . S
C2667 H2662 0.950 . S
C2667 C2669 1.327 . S
C2667 C2673 1.429 . S
C2668 C2660 1.574 . S
C2668 H2663 0.949 . S
C2668 C2674 1.368 . S
C2669 C2653 1.349 . S
C2669 H2661 0.950 . S
C2669 C2667 1.327 . S
C2670 C2658 1.349 . S
C2670 H2664 0.950 . S
C2670 C2671 1.327 . S
C2671 H2665 0.950 . S
C2671 C2670 1.327 . S
C2671 C2675 1.429 . S
C2672 C2655 1.574 . S
C2672 H2666 0.949 . S
C2672 C2676 1.368 . S
C2673 C2654 1.429 . S
C2673 C2667 1.429 . S
C2673 C2674 1.523 . S
C2674 C2655 1.368 . S
C2674 C2668 1.368 . S
C2674 C2673 1.523 . S
C2675 C2659 1.429 . S
C2675 C2671 1.429 . S
C2675 C2676 1.523 . S
C2676 C2660 1.368 . S
C2676 C2672 1.368 . S
C2676 C2675 1.523 . S
H2677 C2652 0.950 . S
H2678 C2654 0.950 . S
H2679 C2655 0.949 . S
H2680 C2657 0.950 . S
H2681 C2659 0.950 . S
C2682 C2683 1.349 . S
C2682 C2684 1.327 . S
C2682 H2707 0.950 . S
C2683 C2682 1.349 . S
C2683 C2699 1.349 . S
C2684 C2682 1.327 . S
C2684 C2703 1.429 . S
C2684 H2708 0.950 . S
C2685 C2702 1.574 . S
C2685 C2704 1.368 . S
C2685 H2709 0.949 . S
H2686 C2690 0.949 . S
C2687 C2688 1.349 . S
C2687 C2689 1.327 . S
C2687 H2710 0.950 . S
C2688 C2687 1.349 . S
C2688 C2700 1.349 . S
C2689 C2687 1.327 . S
C2689 C2705 1.429 . S
C2689 H2711 0.950 . S
C2690 H2686 0.949 . S
C2690 C2698 1.574 . S
C2690 C2706 1.368 . S
H2691 C2699 0.950 . S
H2692 C2697 0.950 . S
H2693 C2698 0.949 . S
H2694 C2700 0.950 . S
H2695 C2701 0.950 . S
H2696 C2702 0.949 . S
C2697 H2692 0.950 . S
C2697 C2699 1.327 . S
C2697 C2703 1.429 . S
C2698 C2690 1.574 . S
C2698 H2693 0.949 . S
C2698 C2704 1.368 . S
C2699 C2683 1.349 . S
C2699 H2691 0.950 . S
C2699 C2697 1.327 . S
C2700 C2688 1.349 . S
C2700 H2694 0.950 . S
C2700 C2701 1.327 . S
C2701 H2695 0.950 . S
C2701 C2700 1.327 . S
C2701 C2705 1.429 . S
C2702 C2685 1.574 . S
C2702 H2696 0.949 . S
C2702 C2706 1.368 . S
C2703 C2684 1.429 . S
C2703 C2697 1.429 . S
C2703 C2704 1.523 . S
C2704 C2685 1.368 . S
C2704 C2698 1.368 . S
C2704 C2703 1.523 . S
C2705 C2689 1.429 . S
C2705 C2701 1.429 . S
C2705 C2706 1.523 . S
C2706 C2690 1.368 . S
C2706 C2702 1.368 . S
C2706 C2705 1.523 . S
H2707 C2682 0.950 . S
H2708 C2684 0.950 . S
H2709 C2685 0.949 . S
H2710 C2687 0.950 . S
H2711 C2689 0.950 . S
C2712 C2713 1.349 . S
C2712 C2714 1.327 . S
C2712 H2737 0.950 . S
C2713 C2712 1.349 . S
C2713 C2729 1.349 . S
C2714 C2712 1.327 . S
C2714 C2733 1.429 . S
C2714 H2738 0.950 . S
C2715 C2732 1.574 . S
C2715 C2734 1.368 . S
C2715 H2739 0.949 . S
H2716 C2720 0.949 . S
C2717 C2718 1.349 . S
C2717 C2719 1.327 . S
C2717 H2740 0.950 . S
C2718 C2717 1.349 . S
C2718 C2730 1.349 . S
C2719 C2717 1.327 . S
C2719 C2735 1.429 . S
C2719 H2741 0.950 . S
C2720 H2716 0.949 . S
C2720 C2728 1.574 . S
C2720 C2736 1.368 . S
H2721 C2729 0.950 . S
H2722 C2727 0.950 . S
H2723 C2728 0.949 . S
H2724 C2730 0.950 . S
H2725 C2731 0.950 . S
H2726 C2732 0.949 . S
C2727 H2722 0.950 . S
C2727 C2729 1.327 . S
C2727 C2733 1.429 . S
C2728 C2720 1.574 . S
C2728 H2723 0.949 . S
C2728 C2734 1.368 . S
C2729 C2713 1.349 . S
C2729 H2721 0.950 . S
C2729 C2727 1.327 . S
C2730 C2718 1.349 . S
C2730 H2724 0.950 . S
C2730 C2731 1.327 . S
C2731 H2725 0.950 . S
C2731 C2730 1.327 . S
C2731 C2735 1.429 . S
C2732 C2715 1.574 . S
C2732 H2726 0.949 . S
C2732 C2736 1.368 . S
C2733 C2714 1.429 . S
C2733 C2727 1.429 . S
C2733 C2734 1.523 . S
C2734 C2715 1.368 . S
C2734 C2728 1.368 . S
C2734 C2733 1.523 . S
C2735 C2719 1.429 . S
C2735 C2731 1.429 . S
C2735 C2736 1.523 . S
C2736 C2720 1.368 . S
C2736 C2732 1.368 . S
C2736 C2735 1.523 . S
H2737 C2712 0.950 . S
H2738 C2714 0.950 . S
H2739 C2715 0.949 . S
H2740 C2717 0.950 . S
H2741 C2719 0.950 . S
C2742 C2743 1.349 . S
C2742 C2744 1.327 . S
C2742 H2767 0.950 . S
C2743 C2742 1.349 . S
C2743 C2759 1.349 . S
C2744 C2742 1.327 . S
C2744 C2763 1.429 . S
C2744 H2768 0.950 . S
C2745 C2762 1.574 . S
C2745 C2764 1.368 . S
C2745 H2769 0.949 . S
H2746 C2750 0.949 . S
C2747 C2748 1.349 . S
C2747 C2749 1.327 . S
C2747 H2770 0.950 . S
C2748 C2747 1.349 . S
C2748 C2760 1.349 . S
C2749 C2747 1.327 . S
C2749 C2765 1.429 . S
C2749 H2771 0.950 . S
C2750 H2746 0.949 . S
C2750 C2758 1.574 . S
C2750 C2766 1.368 . S
H2751 C2759 0.950 . S
H2752 C2757 0.950 . S
H2753 C2758 0.949 . S
H2754 C2760 0.950 . S
H2755 C2761 0.950 . S
H2756 C2762 0.949 . S
C2757 H2752 0.950 . S
C2757 C2759 1.327 . S
C2757 C2763 1.429 . S
C2758 C2750 1.574 . S
C2758 H2753 0.949 . S
C2758 C2764 1.368 . S
C2759 C2743 1.349 . S
C2759 H2751 0.950 . S
C2759 C2757 1.327 . S
C2760 C2748 1.349 . S
C2760 H2754 0.950 . S
C2760 C2761 1.327 . S
C2761 H2755 0.950 . S
C2761 C2760 1.327 . S
C2761 C2765 1.429 . S
C2762 C2745 1.574 . S
C2762 H2756 0.949 . S
C2762 C2766 1.368 . S
C2763 C2744 1.429 . S
C2763 C2757 1.429 . S
C2763 C2764 1.523 . S
C2764 C2745 1.368 . S
C2764 C2758 1.368 . S
C2764 C2763 1.523 . S
C2765 C2749 1.429 . S
C2765 C2761 1.429 . S
C2765 C2766 1.523 . S
C2766 C2750 1.368 . S
C2766 C2762 1.368 . S
C2766 C2765 1.523 . S
H2767 C2742 0.950 . S
H2768 C2744 0.950 . S
H2769 C2745 0.949 . S
H2770 C2747 0.950 . S
H2771 C2749 0.950 . S
C2772 C2773 1.349 . S
C2772 C2774 1.327 . S
C2772 H2797 0.950 . S
C2773 C2772 1.349 . S
C2773 C2789 1.349 . S
C2774 C2772 1.327 . S
C2774 C2793 1.429 . S
C2774 H2798 0.950 . S
C2775 C2792 1.574 . S
C2775 C2794 1.368 . S
C2775 H2799 0.949 . S
H2776 C2780 0.949 . S
C2777 C2778 1.349 . S
C2777 C2779 1.327 . S
C2777 H2800 0.950 . S
C2778 C2777 1.349 . S
C2778 C2790 1.349 . S
C2779 C2777 1.327 . S
C2779 C2795 1.429 . S
C2779 H2801 0.950 . S
C2780 H2776 0.949 . S
C2780 C2788 1.574 . S
C2780 C2796 1.368 . S
H2781 C2789 0.950 . S
H2782 C2787 0.950 . S
H2783 C2788 0.949 . S
H2784 C2790 0.950 . S
H2785 C2791 0.950 . S
H2786 C2792 0.949 . S
C2787 H2782 0.950 . S
C2787 C2789 1.327 . S
C2787 C2793 1.429 . S
C2788 C2780 1.574 . S
C2788 H2783 0.949 . S
C2788 C2794 1.368 . S
C2789 C2773 1.349 . S
C2789 H2781 0.950 . S
C2789 C2787 1.327 . S
C2790 C2778 1.349 . S
C2790 H2784 0.950 . S
C2790 C2791 1.327 . S
C2791 H2785 0.950 . S
C2791 C2790 1.327 . S
C2791 C2795 1.429 . S
C2792 C2775 1.574 . S
C2792 H2786 0.949 . S
C2792 C2796 1.368 . S
C2793 C2774 1.429 . S
C2793 C2787 1.429 . S
C2793 C2794 1.523 . S
C2794 C2775 1.368 . S
C2794 C2788 1.368 . S
C2794 C2793 1.523 . S
C2795 C2779 1.429 . S
C2795 C2791 1.429 . S
C2795 C2796 1.523 . S
C2796 C2780 1.368 . S
C2796 C2792 1.368 . S
C2796 C2795 1.523 . S
H2797 C2772 0.950 . S
H2798 C2774 0.950 . S
H2799 C2775 0.949 . S
H2800 C2777 0.950 . S
H2801 C2779 0.950 . S
C2802 C2803 1.349 . S
C2802 C2804 1.327 . S
C2802 H2827 0.950 . S
C2803 C2802 1.349 . S
C2803 C2819 1.349 . S
C2804 C2802 1.327 . S
C2804 C2823 1.429 . S
C2804 H2828 0.950 . S
C2805 C2822 1.574 1_545 S
C2805 C2824 1.368 . S
C2805 H2829 0.949 . S
H2806 C2810 0.949 . S
C2807 C2808 1.349 . S
C2807 C2809 1.327 . S
C2807 H2830 0.950 . S
C2808 C2807 1.349 . S
C2808 C2820 1.349 . S
C2809 C2807 1.327 . S
C2809 C2825 1.429 . S
C2809 H2831 0.950 . S
C2810 H2806 0.949 . S
C2810 C2818 1.574 1_565 S
C2810 C2826 1.368 . S
H2811 C2819 0.950 . S
H2812 C2817 0.950 . S
H2813 C2818 0.949 . S
H2814 C2820 0.950 . S
H2815 C2821 0.950 . S
H2816 C2822 0.949 . S
C2817 H2812 0.950 . S
C2817 C2819 1.327 . S
C2817 C2823 1.429 . S
C2818 C2810 1.574 1_545 S
C2818 H2813 0.949 . S
C2818 C2824 1.368 . S
C2819 C2803 1.349 . S
C2819 H2811 0.950 . S
C2819 C2817 1.327 . S
C2820 C2808 1.349 . S
C2820 H2814 0.950 . S
C2820 C2821 1.327 . S
C2821 H2815 0.950 . S
C2821 C2820 1.327 . S
C2821 C2825 1.429 . S
C2822 C2805 1.574 1_565 S
C2822 H2816 0.949 . S
C2822 C2826 1.368 . S
C2823 C2804 1.429 . S
C2823 C2817 1.429 . S
C2823 C2824 1.523 . S
C2824 C2805 1.368 . S
C2824 C2818 1.368 . S
C2824 C2823 1.523 . S
C2825 C2809 1.429 . S
C2825 C2821 1.429 . S
C2825 C2826 1.523 . S
C2826 C2810 1.368 . S
C2826 C2822 1.368 . S
C2826 C2825 1.523 . S
H2827 C2802 0.950 . S
H2828 C2804 0.950 . S
H2829 C2805 0.949 . S
H2830 C2807 0.950 . S
H2831 C2809 0.950 . S
C2832 C2833 1.349 . S
C2832 C2834 1.327 . S
C2832 H2857 0.950 . S
C2833 C2832 1.349 . S
C2833 C2849 1.349 . S
C2834 C2832 1.327 . S
C2834 C2853 1.429 . S
C2834 H2858 0.950 . S
C2835 C2852 1.574 1_655 S
C2835 C2854 1.368 . S
C2835 H2859 0.949 . S
H2836 C2840 0.949 . S
C2837 C2838 1.349 . S
C2837 C2839 1.327 . S
C2837 H2860 0.950 . S
C2838 C2837 1.349 . S
C2838 C2850 1.349 . S
C2839 C2837 1.327 . S
C2839 C2855 1.429 . S
C2839 H2861 0.950 . S
C2840 H2836 0.949 . S
C2840 C2848 1.574 1_455 S
C2840 C2856 1.368 . S
H2841 C2849 0.950 . S
H2842 C2847 0.950 . S
H2843 C2848 0.949 . S
H2844 C2850 0.950 . S
H2845 C2851 0.950 . S
H2846 C2852 0.949 . S
C2847 H2842 0.950 . S
C2847 C2849 1.327 . S
C2847 C2853 1.429 . S
C2848 C2840 1.574 1_655 S
C2848 H2843 0.949 . S
C2848 C2854 1.368 . S
C2849 C2833 1.349 . S
C2849 H2841 0.950 . S
C2849 C2847 1.327 . S
C2850 C2838 1.349 . S
C2850 H2844 0.950 . S
C2850 C2851 1.327 . S
C2851 H2845 0.950 . S
C2851 C2850 1.327 . S
C2851 C2855 1.429 . S
C2852 C2835 1.574 1_455 S
C2852 H2846 0.949 . S
C2852 C2856 1.368 . S
C2853 C2834 1.429 . S
C2853 C2847 1.429 . S
C2853 C2854 1.523 . S
C2854 C2835 1.368 . S
C2854 C2848 1.368 . S
C2854 C2853 1.523 . S
C2855 C2839 1.429 . S
C2855 C2851 1.429 . S
C2855 C2856 1.523 . S
C2856 C2840 1.368 . S
C2856 C2852 1.368 . S
C2856 C2855 1.523 . S
H2857 C2832 0.950 . S
H2858 C2834 0.950 . S
H2859 C2835 0.949 . S
H2860 C2837 0.950 . S
H2861 C2839 0.950 . S
C2862 C2863 1.349 . S
C2862 C2864 1.327 . S
C2862 H2887 0.950 . S
C2863 C2862 1.349 . S
C2863 C2879 1.349 . S
C2864 C2862 1.327 . S
C2864 C2883 1.429 . S
C2864 H2888 0.950 . S
C2865 C2882 1.574 . S
C2865 C2884 1.368 . S
C2865 H2889 0.949 . S
H2866 C2870 0.949 . S
C2867 C2868 1.349 . S
C2867 C2869 1.327 . S
C2867 H2890 0.950 . S
C2868 C2867 1.349 . S
C2868 C2880 1.349 . S
C2869 C2867 1.327 . S
C2869 C2885 1.429 . S
C2869 H2891 0.950 . S
C2870 H2866 0.949 . S
C2870 C2878 1.574 . S
C2870 C2886 1.368 . S
H2871 C2879 0.950 . S
H2872 C2877 0.950 . S
H2873 C2878 0.949 . S
H2874 C2880 0.950 . S
H2875 C2881 0.950 . S
H2876 C2882 0.949 . S
C2877 H2872 0.950 . S
C2877 C2879 1.327 . S
C2877 C2883 1.429 . S
C2878 C2870 1.574 . S
C2878 H2873 0.949 . S
C2878 C2884 1.368 . S
C2879 C2863 1.349 . S
C2879 H2871 0.950 . S
C2879 C2877 1.327 . S
C2880 C2868 1.349 . S
C2880 H2874 0.950 . S
C2880 C2881 1.327 . S
C2881 H2875 0.950 . S
C2881 C2880 1.327 . S
C2881 C2885 1.429 . S
C2882 C2865 1.574 . S
C2882 H2876 0.949 . S
C2882 C2886 1.368 . S
C2883 C2864 1.429 . S
C2883 C2877 1.429 . S
C2883 C2884 1.523 . S
C2884 C2865 1.368 . S
C2884 C2878 1.368 . S
C2884 C2883 1.523 . S
C2885 C2869 1.429 . S
C2885 C2881 1.429 . S
C2885 C2886 1.523 . S
C2886 C2870 1.368 . S
C2886 C2882 1.368 . S
C2886 C2885 1.523 . S
H2887 C2862 0.950 . S
H2888 C2864 0.950 . S
H2889 C2865 0.949 . S
H2890 C2867 0.950 . S
H2891 C2869 0.950 . S
C2892 C2893 1.349 . S
C2892 C2894 1.327 . S
C2892 H2917 0.950 . S
C2893 C2892 1.349 . S
C2893 C2909 1.349 . S
C2894 C2892 1.327 . S
C2894 C2913 1.429 . S
C2894 H2918 0.950 . S
C2895 C2912 1.574 1_545 S
C2895 C2914 1.368 . S
C2895 H2919 0.949 . S
H2896 C2900 0.949 . S
C2897 C2898 1.349 . S
C2897 C2899 1.327 . S
C2897 H2920 0.950 . S
C2898 C2897 1.349 . S
C2898 C2910 1.349 . S
C2899 C2897 1.327 . S
C2899 C2915 1.429 . S
C2899 H2921 0.950 . S
C2900 H2896 0.949 . S
C2900 C2908 1.574 1_565 S
C2900 C2916 1.368 . S
H2901 C2909 0.950 . S
H2902 C2907 0.950 . S
H2903 C2908 0.949 . S
H2904 C2910 0.950 . S
H2905 C2911 0.950 . S
H2906 C2912 0.949 . S
C2907 H2902 0.950 . S
C2907 C2909 1.327 . S
C2907 C2913 1.429 . S
C2908 C2900 1.574 1_545 S
C2908 H2903 0.949 . S
C2908 C2914 1.368 . S
C2909 C2893 1.349 . S
C2909 H2901 0.950 . S
C2909 C2907 1.327 . S
C2910 C2898 1.349 . S
C2910 H2904 0.950 . S
C2910 C2911 1.327 . S
C2911 H2905 0.950 . S
C2911 C2910 1.327 . S
C2911 C2915 1.429 . S
C2912 C2895 1.574 1_565 S
C2912 H2906 0.949 . S
C2912 C2916 1.368 . S
C2913 C2894 1.429 . S
C2913 C2907 1.429 . S
C2913 C2914 1.523 . S
C2914 C2895 1.368 . S
C2914 C2908 1.368 . S
C2914 C2913 1.523 . S
C2915 C2899 1.429 . S
C2915 C2911 1.429 . S
C2915 C2916 1.523 . S
C2916 C2900 1.368 . S
C2916 C2912 1.368 . S
C2916 C2915 1.523 . S
H2917 C2892 0.950 . S
H2918 C2894 0.950 . S
H2919 C2895 0.949 . S
H2920 C2897 0.950 . S
H2921 C2899 0.950 . S
C2922 C2923 1.349 . S
C2922 C2924 1.327 . S
C2922 H2947 0.950 . S
C2923 C2922 1.349 . S
C2923 C2939 1.349 . S
C2924 C2922 1.327 . S
C2924 C2943 1.429 . S
C2924 H2948 0.950 . S
C2925 C2942 1.574 1_655 S
C2925 C2944 1.368 . S
C2925 H2949 0.949 . S
H2926 C2930 0.949 . S
C2927 C2928 1.349 . S
C2927 C2929 1.327 . S
C2927 H2950 0.950 . S
C2928 C2927 1.349 . S
C2928 C2940 1.349 . S
C2929 C2927 1.327 . S
C2929 C2945 1.429 . S
C2929 H2951 0.950 . S
C2930 H2926 0.949 . S
C2930 C2938 1.574 1_455 S
C2930 C2946 1.368 . S
H2931 C2939 0.950 . S
H2932 C2937 0.950 . S
H2933 C2938 0.949 . S
H2934 C2940 0.950 . S
H2935 C2941 0.950 . S
H2936 C2942 0.949 . S
C2937 H2932 0.950 . S
C2937 C2939 1.327 . S
C2937 C2943 1.429 . S
C2938 C2930 1.574 1_655 S
C2938 H2933 0.949 . S
C2938 C2944 1.368 . S
C2939 C2923 1.349 . S
C2939 H2931 0.950 . S
C2939 C2937 1.327 . S
C2940 C2928 1.349 . S
C2940 H2934 0.950 . S
C2940 C2941 1.327 . S
C2941 H2935 0.950 . S
C2941 C2940 1.327 . S
C2941 C2945 1.429 . S
C2942 C2925 1.574 1_455 S
C2942 H2936 0.949 . S
C2942 C2946 1.368 . S
C2943 C2924 1.429 . S
C2943 C2937 1.429 . S
C2943 C2944 1.523 . S
C2944 C2925 1.368 . S
C2944 C2938 1.368 . S
C2944 C2943 1.523 . S
C2945 C2929 1.429 . S
C2945 C2941 1.429 . S
C2945 C2946 1.523 . S
C2946 C2930 1.368 . S
C2946 C2942 1.368 . S
C2946 C2945 1.523 . S
H2947 C2922 0.950 . S
H2948 C2924 0.950 . S
H2949 C2925 0.949 . S
H2950 C2927 0.950 . S
H2951 C2929 0.950 . S
C2952 C2953 1.349 . S
C2952 C2954 1.327 . S
C2952 H2977 0.950 . S
C2953 C2952 1.349 . S
C2953 C2969 1.349 . S
C2954 C2952 1.327 . S
C2954 C2973 1.429 . S
C2954 H2978 0.950 . S
C2955 C2972 1.574 . S
C2955 C2974 1.368 . S
C2955 H2979 0.949 1_554 S
H2956 C2960 0.949 . S
C2957 C2958 1.349 . S
C2957 C2959 1.327 . S
C2957 H2980 0.950 1_554 S
C2958 C2957 1.349 . S
C2958 C2970 1.349 . S
C2959 C2957 1.327 . S
C2959 C2975 1.429 . S
C2959 H2981 0.950 1_554 S
C2960 H2956 0.949 . S
C2960 C2968 1.574 . S
C2960 C2976 1.368 . S
H2961 C2969 0.950 1_556 S
H2962 C2967 0.950 1_556 S
H2963 C2968 0.949 . S
H2964 C2970 0.950 . S
H2965 C2971 0.950 . S
H2966 C2972 0.949 1_556 S
C2967 H2962 0.950 1_554 S
C2967 C2969 1.327 . S
C2967 C2973 1.429 . S
C2968 C2960 1.574 . S
C2968 H2963 0.949 . S
C2968 C2974 1.368 . S
C2969 C2953 1.349 . S
C2969 H2961 0.950 1_554 S
C2969 C2967 1.327 . S
C2970 C2958 1.349 . S
C2970 H2964 0.950 . S
C2970 C2971 1.327 . S
C2971 H2965 0.950 . S
C2971 C2970 1.327 . S
C2971 C2975 1.429 . S
C2972 C2955 1.574 . S
C2972 H2966 0.949 1_554 S
C2972 C2976 1.368 . S
C2973 C2954 1.429 . S
C2973 C2967 1.429 . S
C2973 C2974 1.523 . S
C2974 C2955 1.368 . S
C2974 C2968 1.368 . S
C2974 C2973 1.523 . S
C2975 C2959 1.429 . S
C2975 C2971 1.429 . S
C2975 C2976 1.523 . S
C2976 C2960 1.368 . S
C2976 C2972 1.368 . S
C2976 C2975 1.523 . S
H2977 C2952 0.950 . S
H2978 C2954 0.950 . S
H2979 C2955 0.949 1_556 S
H2980 C2957 0.950 1_556 S
H2981 C2959 0.950 1_556 S
C2982 C2983 1.349 . S
C2982 C2984 1.327 . S
C2982 H3007 0.950 . S
C2983 C2982 1.349 . S
C2983 C2999 1.349 . S
C2984 C2982 1.327 . S
C2984 C3003 1.429 . S
C2984 H3008 0.950 . S
C2985 C3002 1.574 . S
C2985 C3004 1.368 . S
C2985 H3009 0.949 1_554 S
H2986 C2990 0.949 . S
C2987 C2988 1.349 . S
C2987 C2989 1.327 . S
C2987 H3010 0.950 1_554 S
C2988 C2987 1.349 . S
C2988 C3000 1.349 . S
C2989 C2987 1.327 . S
C2989 C3005 1.429 . S
C2989 H3011 0.950 1_554 S
C2990 H2986 0.949 . S
C2990 C2998 1.574 . S
C2990 C3006 1.368 . S
H2991 C2999 0.950 1_556 S
H2992 C2997 0.950 1_556 S
H2993 C2998 0.949 . S
H2994 C3000 0.950 . S
H2995 C3001 0.950 . S
H2996 C3002 0.949 1_556 S
C2997 H2992 0.950 1_554 S
C2997 C2999 1.327 . S
C2997 C3003 1.429 . S
C2998 C2990 1.574 . S
C2998 H2993 0.949 . S
C2998 C3004 1.368 . S
C2999 C2983 1.349 . S
C2999 H2991 0.950 1_554 S
C2999 C2997 1.327 . S
C3000 C2988 1.349 . S
C3000 H2994 0.950 . S
C3000 C3001 1.327 . S
C3001 H2995 0.950 . S
C3001 C3000 1.327 . S
C3001 C3005 1.429 . S
C3002 C2985 1.574 . S
C3002 H2996 0.949 1_554 S
C3002 C3006 1.368 . S
C3003 C2984 1.429 . S
C3003 C2997 1.429 . S
C3003 C3004 1.523 . S
C3004 C2985 1.368 . S
C3004 C2998 1.368 . S
C3004 C3003 1.523 . S
C3005 C2989 1.429 . S
C3005 C3001 1.429 . S
C3005 C3006 1.523 . S
C3006 C2990 1.368 . S
C3006 C3002 1.368 . S
C3006 C3005 1.523 . S
H3007 C2982 0.950 . S
H3008 C2984 0.950 . S
H3009 C2985 0.949 1_556 S
H3010 C2987 0.950 1_556 S
H3011 C2989 0.950 1_556 S
C3012 C3013 1.349 . S
C3012 C3014 1.327 . S
C3012 H3037 0.950 . S
C3013 C3012 1.349 . S
C3013 C3029 1.349 . S
C3014 C3012 1.327 . S
C3014 C3033 1.429 . S
C3014 H3038 0.950 . S
C3015 C3032 1.574 . S
C3015 C3034 1.368 . S
C3015 H3039 0.949 1_554 S
H3016 C3020 0.949 . S
C3017 C3018 1.349 . S
C3017 C3019 1.327 . S
C3017 H3040 0.950 1_554 S
C3018 C3017 1.349 . S
C3018 C3030 1.349 . S
C3019 C3017 1.327 . S
C3019 C3035 1.429 . S
C3019 H3041 0.950 1_554 S
C3020 H3016 0.949 . S
C3020 C3028 1.574 . S
C3020 C3036 1.368 . S
H3021 C3029 0.950 1_556 S
H3022 C3027 0.950 1_556 S
H3023 C3028 0.949 . S
H3024 C3030 0.950 . S
H3025 C3031 0.950 . S
H3026 C3032 0.949 1_556 S
C3027 H3022 0.950 1_554 S
C3027 C3029 1.327 . S
C3027 C3033 1.429 . S
C3028 C3020 1.574 . S
C3028 H3023 0.949 . S
C3028 C3034 1.368 . S
C3029 C3013 1.349 . S
C3029 H3021 0.950 1_554 S
C3029 C3027 1.327 . S
C3030 C3018 1.349 . S
C3030 H3024 0.950 . S
C3030 C3031 1.327 . S
C3031 H3025 0.950 . S
C3031 C3030 1.327 . S
C3031 C3035 1.429 . S
C3032 C3015 1.574 . S
C3032 H3026 0.949 1_554 S
C3032 C3036 1.368 . S
C3033 C3014 1.429 . S
C3033 C3027 1.429 . S
C3033 C3034 1.523 . S
C3034 C3015 1.368 . S
C3034 C3028 1.368 . S
C3034 C3033 1.523 . S
C3035 C3019 1.429 . S
C3035 C3031 1.429 . S
C3035 C3036 1.523 . S
C3036 C3020 1.368 . S
C3036 C3032 1.368 . S
C3036 C3035 1.523 . S
H3037 C3012 0.950 . S
H3038 C3014 0.950 . S
H3039 C3015 0.949 1_556 S
H3040 C3017 0.950 1_556 S
H3041 C3019 0.950 1_556 S
C3042 C3043 1.349 . S
C3042 C3044 1.327 . S
C3042 H3067 0.950 . S
C3043 C3042 1.349 . S
C3043 C3059 1.349 . S
C3044 C3042 1.327 . S
C3044 C3063 1.429 . S
C3044 H3068 0.950 . S
C3045 C3062 1.574 . S
C3045 C3064 1.368 . S
C3045 H3069 0.949 1_556 S
H3046 C3050 0.949 . S
C3047 C3048 1.349 . S
C3047 C3049 1.327 . S
C3047 H3070 0.950 1_556 S
C3048 C3047 1.349 . S
C3048 C3060 1.349 . S
C3049 C3047 1.327 . S
C3049 C3065 1.429 . S
C3049 H3071 0.950 1_556 S
C3050 H3046 0.949 . S
C3050 C3058 1.574 . S
C3050 C3066 1.368 . S
H3051 C3059 0.950 1_554 S
H3052 C3057 0.950 1_554 S
H3053 C3058 0.949 . S
H3054 C3060 0.950 . S
H3055 C3061 0.950 . S
H3056 C3062 0.949 1_554 S
C3057 H3052 0.950 1_556 S
C3057 C3059 1.327 . S
C3057 C3063 1.429 . S
C3058 C3050 1.574 . S
C3058 H3053 0.949 . S
C3058 C3064 1.368 . S
C3059 C3043 1.349 . S
C3059 H3051 0.950 1_556 S
C3059 C3057 1.327 . S
C3060 C3048 1.349 . S
C3060 H3054 0.950 . S
C3060 C3061 1.327 . S
C3061 H3055 0.950 . S
C3061 C3060 1.327 . S
C3061 C3065 1.429 . S
C3062 C3045 1.574 . S
C3062 H3056 0.949 1_556 S
C3062 C3066 1.368 . S
C3063 C3044 1.429 . S
C3063 C3057 1.429 . S
C3063 C3064 1.523 . S
C3064 C3045 1.368 . S
C3064 C3058 1.368 . S
C3064 C3063 1.523 . S
C3065 C3049 1.429 . S
C3065 C3061 1.429 . S
C3065 C3066 1.523 . S
C3066 C3050 1.368 . S
C3066 C3062 1.368 . S
C3066 C3065 1.523 . S
H3067 C3042 0.950 . S
H3068 C3044 0.950 . S
H3069 C3045 0.949 1_554 S
H3070 C3047 0.950 1_554 S
H3071 C3049 0.950 1_554 S
C3072 C3073 1.349 . S
C3072 C3074 1.327 . S
C3072 H3097 0.950 1_556 S
C3073 C3072 1.349 . S
C3073 C3089 1.349 . S
C3074 C3072 1.327 . S
C3074 C3093 1.429 . S
C3074 H3098 0.950 1_556 S
C3075 C3092 1.574 . S
C3075 C3094 1.368 . S
C3075 H3099 0.949 . S
H3076 C3080 0.949 1_554 S
C3077 C3078 1.349 . S
C3077 C3079 1.327 . S
C3077 H3100 0.950 . S
C3078 C3077 1.349 . S
C3078 C3090 1.349 . S
C3079 C3077 1.327 . S
C3079 C3095 1.429 . S
C3079 H3101 0.950 . S
C3080 H3076 0.949 1_556 S
C3080 C3088 1.574 . S
C3080 C3096 1.368 . S
H3081 C3089 0.950 . S
H3082 C3087 0.950 . S
H3083 C3088 0.949 1_554 S
H3084 C3090 0.950 1_554 S
H3085 C3091 0.950 1_554 S
H3086 C3092 0.949 . S
C3087 H3082 0.950 . S
C3087 C3089 1.327 . S
C3087 C3093 1.429 . S
C3088 C3080 1.574 . S
C3088 H3083 0.949 1_556 S
C3088 C3094 1.368 . S
C3089 C3073 1.349 . S
C3089 H3081 0.950 . S
C3089 C3087 1.327 . S
C3090 C3078 1.349 . S
C3090 H3084 0.950 1_556 S
C3090 C3091 1.327 . S
C3091 H3085 0.950 1_556 S
C3091 C3090 1.327 . S
C3091 C3095 1.429 . S
C3092 C3075 1.574 . S
C3092 H3086 0.949 . S
C3092 C3096 1.368 . S
C3093 C3074 1.429 . S
C3093 C3087 1.429 . S
C3093 C3094 1.523 . S
C3094 C3075 1.368 . S
C3094 C3088 1.368 . S
C3094 C3093 1.523 . S
C3095 C3079 1.429 . S
C3095 C3091 1.429 . S
C3095 C3096 1.523 . S
C3096 C3080 1.368 . S
C3096 C3092 1.368 . S
C3096 C3095 1.523 . S
H3097 C3072 0.950 1_554 S
H3098 C3074 0.950 1_554 S
H3099 C3075 0.949 . S
H3100 C3077 0.950 . S
H3101 C3079 0.950 . S
C3102 C3103 1.349 . S
C3102 C3104 1.327 . S
C3102 H3127 0.950 1_556 S
C3103 C3102 1.349 . S
C3103 C3119 1.349 . S
C3104 C3102 1.327 . S
C3104 C3123 1.429 . S
C3104 H3128 0.950 1_556 S
C3105 C3122 1.574 . S
C3105 C3124 1.368 . S
C3105 H3129 0.949 . S
H3106 C3110 0.949 1_554 S
C3107 C3108 1.349 . S
C3107 C3109 1.327 . S
C3107 H3130 0.950 . S
C3108 C3107 1.349 . S
C3108 C3120 1.349 . S
C3109 C3107 1.327 . S
C3109 C3125 1.429 . S
C3109 H3131 0.950 . S
C3110 H3106 0.949 1_556 S
C3110 C3118 1.574 . S
C3110 C3126 1.368 . S
H3111 C3119 0.950 . S
H3112 C3117 0.950 . S
H3113 C3118 0.949 1_554 S
H3114 C3120 0.950 1_554 S
H3115 C3121 0.950 1_554 S
H3116 C3122 0.949 . S
C3117 H3112 0.950 . S
C3117 C3119 1.327 . S
C3117 C3123 1.429 . S
C3118 C3110 1.574 . S
C3118 H3113 0.949 1_556 S
C3118 C3124 1.368 . S
C3119 C3103 1.349 . S
C3119 H3111 0.950 . S
C3119 C3117 1.327 . S
C3120 C3108 1.349 . S
C3120 H3114 0.950 1_556 S
C3120 C3121 1.327 . S
C3121 H3115 0.950 1_556 S
C3121 C3120 1.327 . S
C3121 C3125 1.429 . S
C3122 C3105 1.574 . S
C3122 H3116 0.949 . S
C3122 C3126 1.368 . S
C3123 C3104 1.429 . S
C3123 C3117 1.429 . S
C3123 C3124 1.523 . S
C3124 C3105 1.368 . S
C3124 C3118 1.368 . S
C3124 C3123 1.523 . S
C3125 C3109 1.429 . S
C3125 C3121 1.429 . S
C3125 C3126 1.523 . S
C3126 C3110 1.368 . S
C3126 C3122 1.368 . S
C3126 C3125 1.523 . S
H3127 C3102 0.950 1_554 S
H3128 C3104 0.950 1_554 S
H3129 C3105 0.949 . S
H3130 C3107 0.950 . S
H3131 C3109 0.950 . S
C3132 C3133 1.349 . S
C3132 C3134 1.327 . S
C3132 H3157 0.950 . S
C3133 C3132 1.349 . S
C3133 C3149 1.349 . S
C3134 C3132 1.327 . S
C3134 C3153 1.429 . S
C3134 H3158 0.950 . S
C3135 C3152 1.574 . S
C3135 C3154 1.368 . S
C3135 H3159 0.949 . S
H3136 C3140 0.949 . S
C3137 C3138 1.349 . S
C3137 C3139 1.327 . S
C3137 H3160 0.950 . S
C3138 C3137 1.349 . S
C3138 C3150 1.349 . S
C3139 C3137 1.327 . S
C3139 C3155 1.429 . S
C3139 H3161 0.950 . S
C3140 H3136 0.949 . S
C3140 C3148 1.574 . S
C3140 C3156 1.368 . S
H3141 C3149 0.950 . S
H3142 C3147 0.950 . S
H3143 C3148 0.949 . S
H3144 C3150 0.950 . S
H3145 C3151 0.950 . S
H3146 C3152 0.949 . S
C3147 H3142 0.950 . S
C3147 C3149 1.327 . S
C3147 C3153 1.429 . S
C3148 C3140 1.574 . S
C3148 H3143 0.949 . S
C3148 C3154 1.368 . S
C3149 C3133 1.349 . S
C3149 H3141 0.950 . S
C3149 C3147 1.327 . S
C3150 C3138 1.349 . S
C3150 H3144 0.950 . S
C3150 C3151 1.327 . S
C3151 H3145 0.950 . S
C3151 C3150 1.327 . S
C3151 C3155 1.429 . S
C3152 C3135 1.574 . S
C3152 H3146 0.949 . S
C3152 C3156 1.368 . S
C3153 C3134 1.429 . S
C3153 C3147 1.429 . S
C3153 C3154 1.523 . S
C3154 C3135 1.368 . S
C3154 C3148 1.368 . S
C3154 C3153 1.523 . S
C3155 C3139 1.429 . S
C3155 C3151 1.429 . S
C3155 C3156 1.523 . S
C3156 C3140 1.368 . S
C3156 C3152 1.368 . S
C3156 C3155 1.523 . S
H3157 C3132 0.950 . S
H3158 C3134 0.950 . S
H3159 C3135 0.949 . S
H3160 C3137 0.950 . S
H3161 C3139 0.950 . S
C3162 C3163 1.349 . S
C3162 C3164 1.327 . S
C3162 H3187 0.950 . S
C3163 C3162 1.349 . S
C3163 C3179 1.349 . S
C3164 C3162 1.327 . S
C3164 C3183 1.429 . S
C3164 H3188 0.950 . S
C3165 C3182 1.574 . S
C3165 C3184 1.368 . S
C3165 H3189 0.949 . S
H3166 C3170 0.949 . S
C3167 C3168 1.349 . S
C3167 C3169 1.327 . S
C3167 H3190 0.950 . S
C3168 C3167 1.349 . S
C3168 C3180 1.349 . S
C3169 C3167 1.327 . S
C3169 C3185 1.429 . S
C3169 H3191 0.950 . S
C3170 H3166 0.949 . S
C3170 C3178 1.574 . S
C3170 C3186 1.368 . S
H3171 C3179 0.950 . S
H3172 C3177 0.950 . S
H3173 C3178 0.949 . S
H3174 C3180 0.950 . S
H3175 C3181 0.950 . S
H3176 C3182 0.949 . S
C3177 H3172 0.950 . S
C3177 C3179 1.327 . S
C3177 C3183 1.429 . S
C3178 C3170 1.574 . S
C3178 H3173 0.949 . S
C3178 C3184 1.368 . S
C3179 C3163 1.349 . S
C3179 H3171 0.950 . S
C3179 C3177 1.327 . S
C3180 C3168 1.349 . S
C3180 H3174 0.950 . S
C3180 C3181 1.327 . S
C3181 H3175 0.950 . S
C3181 C3180 1.327 . S
C3181 C3185 1.429 . S
C3182 C3165 1.574 . S
C3182 H3176 0.949 . S
C3182 C3186 1.368 . S
C3183 C3164 1.429 . S
C3183 C3177 1.429 . S
C3183 C3184 1.523 . S
C3184 C3165 1.368 . S
C3184 C3178 1.368 . S
C3184 C3183 1.523 . S
C3185 C3169 1.429 . S
C3185 C3181 1.429 . S
C3185 C3186 1.523 . S
C3186 C3170 1.368 . S
C3186 C3182 1.368 . S
C3186 C3185 1.523 . S
H3187 C3162 0.950 . S
H3188 C3164 0.950 . S
H3189 C3165 0.949 . S
H3190 C3167 0.950 . S
H3191 C3169 0.950 . S
C3192 C3193 1.349 . S
C3192 C3194 1.327 . S
C3192 H3217 0.950 . S
C3193 C3192 1.349 . S
C3193 C3209 1.349 . S
C3194 C3192 1.327 . S
C3194 C3213 1.429 . S
C3194 H3218 0.950 . S
C3195 C3212 1.574 . S
C3195 C3214 1.368 . S
C3195 H3219 0.949 . S
H3196 C3200 0.949 . S
C3197 C3198 1.349 . S
C3197 C3199 1.327 . S
C3197 H3220 0.950 . S
C3198 C3197 1.349 . S
C3198 C3210 1.349 . S
C3199 C3197 1.327 . S
C3199 C3215 1.429 . S
C3199 H3221 0.950 . S
C3200 H3196 0.949 . S
C3200 C3208 1.574 . S
C3200 C3216 1.368 . S
H3201 C3209 0.950 . S
H3202 C3207 0.950 . S
H3203 C3208 0.949 . S
H3204 C3210 0.950 . S
H3205 C3211 0.950 . S
H3206 C3212 0.949 . S
C3207 H3202 0.950 . S
C3207 C3209 1.327 . S
C3207 C3213 1.429 . S
C3208 C3200 1.574 . S
C3208 H3203 0.949 . S
C3208 C3214 1.368 . S
C3209 C3193 1.349 . S
C3209 H3201 0.950 . S
C3209 C3207 1.327 . S
C3210 C3198 1.349 . S
C3210 H3204 0.950 . S
C3210 C3211 1.327 . S
C3211 H3205 0.950 . S
C3211 C3210 1.327 . S
C3211 C3215 1.429 . S
C3212 C3195 1.574 . S
C3212 H3206 0.949 . S
C3212 C3216 1.368 . S
C3213 C3194 1.429 . S
C3213 C3207 1.429 . S
C3213 C3214 1.523 . S
C3214 C3195 1.368 . S
C3214 C3208 1.368 . S
C3214 C3213 1.523 . S
C3215 C3199 1.429 . S
C3215 C3211 1.429 . S
C3215 C3216 1.523 . S
C3216 C3200 1.368 . S
C3216 C3212 1.368 . S
C3216 C3215 1.523 . S
H3217 C3192 0.950 . S
H3218 C3194 0.950 . S
H3219 C3195 0.949 . S
H3220 C3197 0.950 . S
H3221 C3199 0.950 . S
C3222 C3223 1.349 . S
C3222 C3224 1.327 . S
C3222 H3247 0.950 . S
C3223 C3222 1.349 . S
C3223 C3239 1.349 . S
C3224 C3222 1.327 . S
C3224 C3243 1.429 . S
C3224 H3248 0.950 . S
C3225 C3242 1.574 . S
C3225 C3244 1.368 . S
C3225 H3249 0.949 . S
H3226 C3230 0.949 . S
C3227 C3228 1.349 . S
C3227 C3229 1.327 . S
C3227 H3250 0.950 . S
C3228 C3227 1.349 . S
C3228 C3240 1.349 . S
C3229 C3227 1.327 . S
C3229 C3245 1.429 . S
C3229 H3251 0.950 . S
C3230 H3226 0.949 . S
C3230 C3238 1.574 . S
C3230 C3246 1.368 . S
H3231 C3239 0.950 . S
H3232 C3237 0.950 . S
H3233 C3238 0.949 . S
H3234 C3240 0.950 . S
H3235 C3241 0.950 . S
H3236 C3242 0.949 . S
C3237 H3232 0.950 . S
C3237 C3239 1.327 . S
C3237 C3243 1.429 . S
C3238 C3230 1.574 . S
C3238 H3233 0.949 . S
C3238 C3244 1.368 . S
C3239 C3223 1.349 . S
C3239 H3231 0.950 . S
C3239 C3237 1.327 . S
C3240 C3228 1.349 . S
C3240 H3234 0.950 . S
C3240 C3241 1.327 . S
C3241 H3235 0.950 . S
C3241 C3240 1.327 . S
C3241 C3245 1.429 . S
C3242 C3225 1.574 . S
C3242 H3236 0.949 . S
C3242 C3246 1.368 . S
C3243 C3224 1.429 . S
C3243 C3237 1.429 . S
C3243 C3244 1.523 . S
C3244 C3225 1.368 . S
C3244 C3238 1.368 . S
C3244 C3243 1.523 . S
C3245 C3229 1.429 . S
C3245 C3241 1.429 . S
C3245 C3246 1.523 . S
C3246 C3230 1.368 . S
C3246 C3242 1.368 . S
C3246 C3245 1.523 . S
H3247 C3222 0.950 . S
H3248 C3224 0.950 . S
H3249 C3225 0.949 . S
H3250 C3227 0.950 . S
H3251 C3229 0.950 . S
C3252 C3253 1.349 . S
C3252 C3254 1.327 . S
C3252 H3277 0.950 . S
C3253 C3252 1.349 . S
C3253 C3269 1.349 . S
C3254 C3252 1.327 . S
C3254 C3273 1.429 . S
C3254 H3278 0.950 . S
C3255 C3272 1.574 . S
C3255 C3274 1.368 . S
C3255 H3279 0.949 . S
H3256 C3260 0.949 . S
C3257 C3258 1.349 . S
C3257 C3259 1.327 . S
C3257 H3280 0.950 . S
C3258 C3257 1.349 . S
C3258 C3270 1.349 . S
C3259 C3257 1.327 . S
C3259 C3275 1.429 . S
C3259 H3281 0.950 . S
C3260 H3256 0.949 . S
C3260 C3268 1.574 . S
C3260 C3276 1.368 . S
H3261 C3269 0.950 . S
H3262 C3267 0.950 . S
H3263 C3268 0.949 . S
H3264 C3270 0.950 . S
H3265 C3271 0.950 . S
H3266 C3272 0.949 . S
C3267 H3262 0.950 . S
C3267 C3269 1.327 . S
C3267 C3273 1.429 . S
C3268 C3260 1.574 . S
C3268 H3263 0.949 . S
C3268 C3274 1.368 . S
C3269 C3253 1.349 . S
C3269 H3261 0.950 . S
C3269 C3267 1.327 . S
C3270 C3258 1.349 . S
C3270 H3264 0.950 . S
C3270 C3271 1.327 . S
C3271 H3265 0.950 . S
C3271 C3270 1.327 . S
C3271 C3275 1.429 . S
C3272 C3255 1.574 . S
C3272 H3266 0.949 . S
C3272 C3276 1.368 . S
C3273 C3254 1.429 . S
C3273 C3267 1.429 . S
C3273 C3274 1.523 . S
C3274 C3255 1.368 . S
C3274 C3268 1.368 . S
C3274 C3273 1.523 . S
C3275 C3259 1.429 . S
C3275 C3271 1.429 . S
C3275 C3276 1.523 . S
C3276 C3260 1.368 . S
C3276 C3272 1.368 . S
C3276 C3275 1.523 . S
H3277 C3252 0.950 . S
H3278 C3254 0.950 . S
H3279 C3255 0.949 . S
H3280 C3257 0.950 . S
H3281 C3259 0.950 . S
C3282 C3283 1.349 . S
C3282 C3284 1.327 . S
C3282 H3307 0.950 . S
C3283 C3282 1.349 . S
C3283 C3299 1.349 . S
C3284 C3282 1.327 . S
C3284 C3303 1.429 . S
C3284 H3308 0.950 . S
C3285 C3302 1.574 . S
C3285 C3304 1.368 . S
C3285 H3309 0.949 . S
H3286 C3290 0.949 . S
C3287 C3288 1.349 . S
C3287 C3289 1.327 . S
C3287 H3310 0.950 . S
C3288 C3287 1.349 . S
C3288 C3300 1.349 . S
C3289 C3287 1.327 . S
C3289 C3305 1.429 . S
C3289 H3311 0.950 . S
C3290 H3286 0.949 . S
C3290 C3298 1.574 . S
C3290 C3306 1.368 . S
H3291 C3299 0.950 . S
H3292 C3297 0.950 . S
H3293 C3298 0.949 . S
H3294 C3300 0.950 . S
H3295 C3301 0.950 . S
H3296 C3302 0.949 . S
C3297 H3292 0.950 . S
C3297 C3299 1.327 . S
C3297 C3303 1.429 . S
C3298 C3290 1.574 . S
C3298 H3293 0.949 . S
C3298 C3304 1.368 . S
C3299 C3283 1.349 . S
C3299 H3291 0.950 . S
C3299 C3297 1.327 . S
C3300 C3288 1.349 . S
C3300 H3294 0.950 . S
C3300 C3301 1.327 . S
C3301 H3295 0.950 . S
C3301 C3300 1.327 . S
C3301 C3305 1.429 . S
C3302 C3285 1.574 . S
C3302 H3296 0.949 . S
C3302 C3306 1.368 . S
C3303 C3284 1.429 . S
C3303 C3297 1.429 . S
C3303 C3304 1.523 . S
C3304 C3285 1.368 . S
C3304 C3298 1.368 . S
C3304 C3303 1.523 . S
C3305 C3289 1.429 . S
C3305 C3301 1.429 . S
C3305 C3306 1.523 . S
C3306 C3290 1.368 . S
C3306 C3302 1.368 . S
C3306 C3305 1.523 . S
H3307 C3282 0.950 . S
H3308 C3284 0.950 . S
H3309 C3285 0.949 . S
H3310 C3287 0.950 . S
H3311 C3289 0.950 . S
C3312 C3313 1.349 . S
C3312 C3314 1.327 . S
C3312 H3337 0.950 . S
C3313 C3312 1.349 . S
C3313 C3329 1.349 . S
C3314 C3312 1.327 . S
C3314 C3333 1.429 . S
C3314 H3338 0.950 . S
C3315 C3332 1.574 . S
C3315 C3334 1.368 . S
C3315 H3339 0.949 . S
H3316 C3320 0.949 . S
C3317 C3318 1.349 . S
C3317 C3319 1.327 . S
C3317 H3340 0.950 . S
C3318 C3317 1.349 . S
C3318 C3330 1.349 . S
C3319 C3317 1.327 . S
C3319 C3335 1.429 . S
C3319 H3341 0.950 . S
C3320 H3316 0.949 . S
C3320 C3328 1.574 . S
C3320 C3336 1.368 . S
H3321 C3329 0.950 . S
H3322 C3327 0.950 . S
H3323 C3328 0.949 . S
H3324 C3330 0.950 . S
H3325 C3331 0.950 . S
H3326 C3332 0.949 . S
C3327 H3322 0.950 . S
C3327 C3329 1.327 . S
C3327 C3333 1.429 . S
C3328 C3320 1.574 . S
C3328 H3323 0.949 . S
C3328 C3334 1.368 . S
C3329 C3313 1.349 . S
C3329 H3321 0.950 . S
C3329 C3327 1.327 . S
C3330 C3318 1.349 . S
C3330 H3324 0.950 . S
C3330 C3331 1.327 . S
C3331 H3325 0.950 . S
C3331 C3330 1.327 . S
C3331 C3335 1.429 . S
C3332 C3315 1.574 . S
C3332 H3326 0.949 . S
C3332 C3336 1.368 . S
C3333 C3314 1.429 . S
C3333 C3327 1.429 . S
C3333 C3334 1.523 . S
C3334 C3315 1.368 . S
C3334 C3328 1.368 . S
C3334 C3333 1.523 . S
C3335 C3319 1.429 . S
C3335 C3331 1.429 . S
C3335 C3336 1.523 . S
C3336 C3320 1.368 . S
C3336 C3332 1.368 . S
C3336 C3335 1.523 . S
H3337 C3312 0.950 . S
H3338 C3314 0.950 . S
H3339 C3315 0.949 . S
H3340 C3317 0.950 . S
H3341 C3319 0.950 . S
C3342 C3343 1.349 . S
C3342 C3344 1.327 . S
C3342 H3367 0.950 . S
C3343 C3342 1.349 . S
C3343 C3359 1.349 . S
C3344 C3342 1.327 . S
C3344 C3363 1.429 . S
C3344 H3368 0.950 . S
C3345 C3362 1.574 . S
C3345 C3364 1.368 . S
C3345 H3369 0.949 . S
H3346 C3350 0.949 . S
C3347 C3348 1.349 . S
C3347 C3349 1.327 . S
C3347 H3370 0.950 . S
C3348 C3347 1.349 . S
C3348 C3360 1.349 . S
C3349 C3347 1.327 . S
C3349 C3365 1.429 . S
C3349 H3371 0.950 . S
C3350 H3346 0.949 . S
C3350 C3358 1.574 . S
C3350 C3366 1.368 . S
H3351 C3359 0.950 . S
H3352 C3357 0.950 . S
H3353 C3358 0.949 . S
H3354 C3360 0.950 . S
H3355 C3361 0.950 . S
H3356 C3362 0.949 . S
C3357 H3352 0.950 . S
C3357 C3359 1.327 . S
C3357 C3363 1.429 . S
C3358 C3350 1.574 . S
C3358 H3353 0.949 . S
C3358 C3364 1.368 . S
C3359 C3343 1.349 . S
C3359 H3351 0.950 . S
C3359 C3357 1.327 . S
C3360 C3348 1.349 . S
C3360 H3354 0.950 . S
C3360 C3361 1.327 . S
C3361 H3355 0.950 . S
C3361 C3360 1.327 . S
C3361 C3365 1.429 . S
C3362 C3345 1.574 . S
C3362 H3356 0.949 . S
C3362 C3366 1.368 . S
C3363 C3344 1.429 . S
C3363 C3357 1.429 . S
C3363 C3364 1.523 . S
C3364 C3345 1.368 . S
C3364 C3358 1.368 . S
C3364 C3363 1.523 . S
C3365 C3349 1.429 . S
C3365 C3361 1.429 . S
C3365 C3366 1.523 . S
C3366 C3350 1.368 . S
C3366 C3362 1.368 . S
C3366 C3365 1.523 . S
H3367 C3342 0.950 . S
H3368 C3344 0.950 . S
H3369 C3345 0.949 . S
H3370 C3347 0.950 . S
H3371 C3349 0.950 . S
C3372 C3373 1.349 . S
C3372 C3374 1.327 . S
C3372 H3397 0.950 . S
C3373 C3372 1.349 . S
C3373 C3389 1.349 . S
C3374 C3372 1.327 . S
C3374 C3393 1.429 . S
C3374 H3398 0.950 . S
C3375 C3392 1.574 . S
C3375 C3394 1.368 . S
C3375 H3399 0.949 . S
H3376 C3380 0.949 . S
C3377 C3378 1.349 . S
C3377 C3379 1.327 . S
C3377 H3400 0.950 . S
C3378 C3377 1.349 . S
C3378 C3390 1.349 . S
C3379 C3377 1.327 . S
C3379 C3395 1.429 . S
C3379 H3401 0.950 . S
C3380 H3376 0.949 . S
C3380 C3388 1.574 . S
C3380 C3396 1.368 . S
H3381 C3389 0.950 . S
H3382 C3387 0.950 . S
H3383 C3388 0.949 . S
H3384 C3390 0.950 . S
H3385 C3391 0.950 . S
H3386 C3392 0.949 . S
C3387 H3382 0.950 . S
C3387 C3389 1.327 . S
C3387 C3393 1.429 . S
C3388 C3380 1.574 . S
C3388 H3383 0.949 . S
C3388 C3394 1.368 . S
C3389 C3373 1.349 . S
C3389 H3381 0.950 . S
C3389 C3387 1.327 . S
C3390 C3378 1.349 . S
C3390 H3384 0.950 . S
C3390 C3391 1.327 . S
C3391 H3385 0.950 . S
C3391 C3390 1.327 . S
C3391 C3395 1.429 . S
C3392 C3375 1.574 . S
C3392 H3386 0.949 . S
C3392 C3396 1.368 . S
C3393 C3374 1.429 . S
C3393 C3387 1.429 . S
C3393 C3394 1.523 . S
C3394 C3375 1.368 . S
C3394 C3388 1.368 . S
C3394 C3393 1.523 . S
C3395 C3379 1.429 . S
C3395 C3391 1.429 . S
C3395 C3396 1.523 . S
C3396 C3380 1.368 . S
C3396 C3392 1.368 . S
C3396 C3395 1.523 . S
H3397 C3372 0.950 . S
H3398 C3374 0.950 . S
H3399 C3375 0.949 . S
H3400 C3377 0.950 . S
H3401 C3379 0.950 . S
C3402 C3403 1.349 . S
C3402 C3404 1.327 . S
C3402 H3427 0.950 . S
C3403 C3402 1.349 . S
C3403 C3419 1.349 . S
C3404 C3402 1.327 . S
C3404 C3423 1.429 . S
C3404 H3428 0.950 . S
C3405 C3422 1.574 . S
C3405 C3424 1.368 . S
C3405 H3429 0.949 . S
H3406 C3410 0.949 . S
C3407 C3408 1.349 . S
C3407 C3409 1.327 . S
C3407 H3430 0.950 . S
C3408 C3407 1.349 . S
C3408 C3420 1.349 . S
C3409 C3407 1.327 . S
C3409 C3425 1.429 . S
C3409 H3431 0.950 . S
C3410 H3406 0.949 . S
C3410 C3418 1.574 . S
C3410 C3426 1.368 . S
H3411 C3419 0.950 . S
H3412 C3417 0.950 . S
H3413 C3418 0.949 . S
H3414 C3420 0.950 . S
H3415 C3421 0.950 . S
H3416 C3422 0.949 . S
C3417 H3412 0.950 . S
C3417 C3419 1.327 . S
C3417 C3423 1.429 . S
C3418 C3410 1.574 . S
C3418 H3413 0.949 . S
C3418 C3424 1.368 . S
C3419 C3403 1.349 . S
C3419 H3411 0.950 . S
C3419 C3417 1.327 . S
C3420 C3408 1.349 . S
C3420 H3414 0.950 . S
C3420 C3421 1.327 . S
C3421 H3415 0.950 . S
C3421 C3420 1.327 . S
C3421 C3425 1.429 . S
C3422 C3405 1.574 . S
C3422 H3416 0.949 . S
C3422 C3426 1.368 . S
C3423 C3404 1.429 . S
C3423 C3417 1.429 . S
C3423 C3424 1.523 . S
C3424 C3405 1.368 . S
C3424 C3418 1.368 . S
C3424 C3423 1.523 . S
C3425 C3409 1.429 . S
C3425 C3421 1.429 . S
C3425 C3426 1.523 . S
C3426 C3410 1.368 . S
C3426 C3422 1.368 . S
C3426 C3425 1.523 . S
H3427 C3402 0.950 . S
H3428 C3404 0.950 . S
H3429 C3405 0.949 . S
H3430 C3407 0.950 . S
H3431 C3409 0.950 . S
C3432 C3433 1.349 . S
C3432 C3434 1.327 . S
C3432 H3457 0.950 . S
C3433 C3432 1.349 . S
C3433 C3449 1.349 . S
C3434 C3432 1.327 . S
C3434 C3453 1.429 . S
C3434 H3458 0.950 . S
C3435 C3452 1.574 . S
C3435 C3454 1.368 . S
C3435 H3459 0.949 . S
H3436 C3440 0.949 . S
C3437 C3438 1.349 . S
C3437 C3439 1.327 . S
C3437 H3460 0.950 . S
C3438 C3437 1.349 . S
C3438 C3450 1.349 . S
C3439 C3437 1.327 . S
C3439 C3455 1.429 . S
C3439 H3461 0.950 . S
C3440 H3436 0.949 . S
C3440 C3448 1.574 . S
C3440 C3456 1.368 . S
H3441 C3449 0.950 . S
H3442 C3447 0.950 . S
H3443 C3448 0.949 . S
H3444 C3450 0.950 . S
H3445 C3451 0.950 . S
H3446 C3452 0.949 . S
C3447 H3442 0.950 . S
C3447 C3449 1.327 . S
C3447 C3453 1.429 . S
C3448 C3440 1.574 . S
C3448 H3443 0.949 . S
C3448 C3454 1.368 . S
C3449 C3433 1.349 . S
C3449 H3441 0.950 . S
C3449 C3447 1.327 . S
C3450 C3438 1.349 . S
C3450 H3444 0.950 . S
C3450 C3451 1.327 . S
C3451 H3445 0.950 . S
C3451 C3450 1.327 . S
C3451 C3455 1.429 . S
C3452 C3435 1.574 . S
C3452 H3446 0.949 . S
C3452 C3456 1.368 . S
C3453 C3434 1.429 . S
C3453 C3447 1.429 . S
C3453 C3454 1.523 . S
C3454 C3435 1.368 . S
C3454 C3448 1.368 . S
C3454 C3453 1.523 . S
C3455 C3439 1.429 . S
C3455 C3451 1.429 . S
C3455 C3456 1.523 . S
C3456 C3440 1.368 . S
C3456 C3452 1.368 . S
C3456 C3455 1.523 . S
H3457 C3432 0.950 . S
H3458 C3434 0.950 . S
H3459 C3435 0.949 . S
H3460 C3437 0.950 . S
H3461 C3439 0.950 . S
C3462 C3463 1.349 . S
C3462 C3464 1.327 . S
C3462 H3487 0.950 . S
C3463 C3462 1.349 . S
C3463 C3479 1.349 . S
C3464 C3462 1.327 . S
C3464 C3483 1.429 . S
C3464 H3488 0.950 . S
C3465 C3482 1.574 . S
C3465 C3484 1.368 . S
C3465 H3489 0.949 . S
H3466 C3470 0.949 . S
C3467 C3468 1.349 . S
C3467 C3469 1.327 . S
C3467 H3490 0.950 . S
C3468 C3467 1.349 . S
C3468 C3480 1.349 . S
C3469 C3467 1.327 . S
C3469 C3485 1.429 . S
C3469 H3491 0.950 . S
C3470 H3466 0.949 . S
C3470 C3478 1.574 . S
C3470 C3486 1.368 . S
H3471 C3479 0.950 . S
H3472 C3477 0.950 . S
H3473 C3478 0.949 . S
H3474 C3480 0.950 . S
H3475 C3481 0.950 . S
H3476 C3482 0.949 . S
C3477 H3472 0.950 . S
C3477 C3479 1.327 . S
C3477 C3483 1.429 . S
C3478 C3470 1.574 . S
C3478 H3473 0.949 . S
C3478 C3484 1.368 . S
C3479 C3463 1.349 . S
C3479 H3471 0.950 . S
C3479 C3477 1.327 . S
C3480 C3468 1.349 . S
C3480 H3474 0.950 . S
C3480 C3481 1.327 . S
C3481 H3475 0.950 . S
C3481 C3480 1.327 . S
C3481 C3485 1.429 . S
C3482 C3465 1.574 . S
C3482 H3476 0.949 . S
C3482 C3486 1.368 . S
C3483 C3464 1.429 . S
C3483 C3477 1.429 . S
C3483 C3484 1.523 . S
C3484 C3465 1.368 . S
C3484 C3478 1.368 . S
C3484 C3483 1.523 . S
C3485 C3469 1.429 . S
C3485 C3481 1.429 . S
C3485 C3486 1.523 . S
C3486 C3470 1.368 . S
C3486 C3482 1.368 . S
C3486 C3485 1.523 . S
H3487 C3462 0.950 . S
H3488 C3464 0.950 . S
H3489 C3465 0.949 . S
H3490 C3467 0.950 . S
H3491 C3469 0.950 . S
C3492 C3493 1.349 . S
C3492 C3494 1.327 . S
C3492 H3517 0.950 . S
C3493 C3492 1.349 . S
C3493 C3509 1.349 . S
C3494 C3492 1.327 . S
C3494 C3513 1.429 . S
C3494 H3518 0.950 . S
C3495 C3512 1.574 . S
C3495 C3514 1.368 . S
C3495 H3519 0.949 . S
H3496 C3500 0.949 . S
C3497 C3498 1.349 . S
C3497 C3499 1.327 . S
C3497 H3520 0.950 . S
C3498 C3497 1.349 . S
C3498 C3510 1.349 1_556 S
C3499 C3497 1.327 . S
C3499 C3515 1.429 . S
C3499 H3521 0.950 . S
C3500 H3496 0.949 . S
C3500 C3508 1.574 . S
C3500 C3516 1.368 . S
H3501 C3509 0.950 . S
H3502 C3507 0.950 . S
H3503 C3508 0.949 . S
H3504 C3510 0.950 . S
H3505 C3511 0.950 1_554 S
H3506 C3512 0.949 . S
C3507 H3502 0.950 . S
C3507 C3509 1.327 . S
C3507 C3513 1.429 . S
C3508 C3500 1.574 . S
C3508 H3503 0.949 . S
C3508 C3514 1.368 . S
C3509 C3493 1.349 . S
C3509 H3501 0.950 . S
C3509 C3507 1.327 . S
C3510 C3498 1.349 1_554 S
C3510 H3504 0.950 . S
C3510 C3511 1.327 1_554 S
C3511 H3505 0.950 1_556 S
C3511 C3510 1.327 1_556 S
C3511 C3515 1.429 . S
C3512 C3495 1.574 . S
C3512 H3506 0.949 . S
C3512 C3516 1.368 . S
C3513 C3494 1.429 . S
C3513 C3507 1.429 . S
C3513 C3514 1.523 . S
C3514 C3495 1.368 . S
C3514 C3508 1.368 . S
C3514 C3513 1.523 . S
C3515 C3499 1.429 . S
C3515 C3511 1.429 . S
C3515 C3516 1.523 . S
C3516 C3500 1.368 . S
C3516 C3512 1.368 . S
C3516 C3515 1.523 . S
H3517 C3492 0.950 . S
H3518 C3494 0.950 . S
H3519 C3495 0.949 . S
H3520 C3497 0.950 . S
H3521 C3499 0.950 . S
C3522 C3523 1.349 . S
C3522 C3524 1.327 . S
C3522 H3547 0.950 . S
C3523 C3522 1.349 . S
C3523 C3539 1.349 1_556 S
C3524 C3522 1.327 . S
C3524 C3543 1.429 . S
C3524 H3548 0.950 . S
C3525 C3542 1.574 . S
C3525 C3544 1.368 . S
C3525 H3549 0.949 . S
H3526 C3530 0.949 . S
C3527 C3528 1.349 . S
C3527 C3529 1.327 . S
C3527 H3550 0.950 . S
C3528 C3527 1.349 . S
C3528 C3540 1.349 . S
C3529 C3527 1.327 . S
C3529 C3545 1.429 . S
C3529 H3551 0.950 . S
C3530 H3526 0.949 . S
C3530 C3538 1.574 . S
C3530 C3546 1.368 . S
H3531 C3539 0.950 . S
H3532 C3537 0.950 . S
H3533 C3538 0.949 . S
H3534 C3540 0.950 . S
H3535 C3541 0.950 . S
H3536 C3542 0.949 . S
C3537 H3532 0.950 . S
C3537 C3539 1.327 1_556 S
C3537 C3543 1.429 . S
C3538 C3530 1.574 . S
C3538 H3533 0.949 . S
C3538 C3544 1.368 . S
C3539 C3523 1.349 1_554 S
C3539 H3531 0.950 . S
C3539 C3537 1.327 1_554 S
C3540 C3528 1.349 . S
C3540 H3534 0.950 . S
C3540 C3541 1.327 . S
C3541 H3535 0.950 . S
C3541 C3540 1.327 . S
C3541 C3545 1.429 . S
C3542 C3525 1.574 . S
C3542 H3536 0.949 . S
C3542 C3546 1.368 . S
C3543 C3524 1.429 . S
C3543 C3537 1.429 . S
C3543 C3544 1.523 . S
C3544 C3525 1.368 . S
C3544 C3538 1.368 . S
C3544 C3543 1.523 . S
C3545 C3529 1.429 . S
C3545 C3541 1.429 . S
C3545 C3546 1.523 . S
C3546 C3530 1.368 . S
C3546 C3542 1.368 . S
C3546 C3545 1.523 . S
H3547 C3522 0.950 . S
H3548 C3524 0.950 . S
H3549 C3525 0.949 . S
H3550 C3527 0.950 . S
H3551 C3529 0.950 . S
C3552 C3553 1.349 . S
C3552 C3554 1.327 . S
C3552 H3577 0.950 . S
C3553 C3552 1.349 . S
C3553 C3569 1.349 . S
C3554 C3552 1.327 . S
C3554 C3573 1.429 . S
C3554 H3578 0.950 . S
C3555 C3572 1.574 . S
C3555 C3574 1.368 . S
C3555 H3579 0.949 . S
H3556 C3560 0.949 . S
C3557 C3558 1.349 1_554 S
C3557 C3559 1.327 1_554 S
C3557 H3580 0.950 . S
C3558 C3557 1.349 1_556 S
C3558 C3570 1.349 . S
C3559 C3557 1.327 1_556 S
C3559 C3575 1.429 . S
C3559 H3581 0.950 . S
C3560 H3556 0.949 . S
C3560 C3568 1.574 . S
C3560 C3576 1.368 . S
H3561 C3569 0.950 . S
H3562 C3567 0.950 . S
H3563 C3568 0.949 . S
H3564 C3570 0.950 . S
H3565 C3571 0.950 . S
H3566 C3572 0.949 . S
C3567 H3562 0.950 . S
C3567 C3569 1.327 . S
C3567 C3573 1.429 . S
C3568 C3560 1.574 . S
C3568 H3563 0.949 . S
C3568 C3574 1.368 . S
C3569 C3553 1.349 . S
C3569 H3561 0.950 . S
C3569 C3567 1.327 . S
C3570 C3558 1.349 . S
C3570 H3564 0.950 . S
C3570 C3571 1.327 . S
C3571 H3565 0.950 . S
C3571 C3570 1.327 . S
C3571 C3575 1.429 . S
C3572 C3555 1.574 . S
C3572 H3566 0.949 . S
C3572 C3576 1.368 . S
C3573 C3554 1.429 . S
C3573 C3567 1.429 . S
C3573 C3574 1.523 . S
C3574 C3555 1.368 . S
C3574 C3568 1.368 . S
C3574 C3573 1.523 . S
C3575 C3559 1.429 . S
C3575 C3571 1.429 . S
C3575 C3576 1.523 . S
C3576 C3560 1.368 . S
C3576 C3572 1.368 . S
C3576 C3575 1.523 . S
H3577 C3552 0.950 . S
H3578 C3554 0.950 . S
H3579 C3555 0.949 . S
H3580 C3557 0.950 . S
H3581 C3559 0.950 . S
C3582 C3583 1.349 . S
C3582 C3584 1.327 . S
C3582 H3607 0.950 . S
C3583 C3582 1.349 . S
C3583 C3599 1.349 . S
C3584 C3582 1.327 . S
C3584 C3603 1.429 . S
C3584 H3608 0.950 . S
C3585 C3602 1.574 . S
C3585 C3604 1.368 . S
C3585 H3609 0.949 . S
H3586 C3590 0.949 . S
C3587 C3588 1.349 1_556 S
C3587 C3589 1.327 1_556 S
C3587 H3610 0.950 . S
C3588 C3587 1.349 1_554 S
C3588 C3600 1.349 . S
C3589 C3587 1.327 1_554 S
C3589 C3605 1.429 . S
C3589 H3611 0.950 1_554 S
C3590 H3586 0.949 . S
C3590 C3598 1.574 . S
C3590 C3606 1.368 . S
H3591 C3599 0.950 . S
H3592 C3597 0.950 . S
H3593 C3598 0.949 . S
H3594 C3600 0.950 . S
H3595 C3601 0.950 . S
H3596 C3602 0.949 . S
C3597 H3592 0.950 . S
C3597 C3599 1.327 . S
C3597 C3603 1.429 . S
C3598 C3590 1.574 . S
C3598 H3593 0.949 . S
C3598 C3604 1.368 . S
C3599 C3583 1.349 . S
C3599 H3591 0.950 . S
C3599 C3597 1.327 . S
C3600 C3588 1.349 . S
C3600 H3594 0.950 . S
C3600 C3601 1.327 . S
C3601 H3595 0.950 . S
C3601 C3600 1.327 . S
C3601 C3605 1.429 . S
C3602 C3585 1.574 . S
C3602 H3596 0.949 . S
C3602 C3606 1.368 . S
C3603 C3584 1.429 . S
C3603 C3597 1.429 . S
C3603 C3604 1.523 . S
C3604 C3585 1.368 . S
C3604 C3598 1.368 . S
C3604 C3603 1.523 . S
C3605 C3589 1.429 . S
C3605 C3601 1.429 . S
C3605 C3606 1.523 . S
C3606 C3590 1.368 . S
C3606 C3602 1.368 . S
C3606 C3605 1.523 . S
H3607 C3582 0.950 . S
H3608 C3584 0.950 . S
H3609 C3585 0.949 . S
H3610 C3587 0.950 . S
H3611 C3589 0.950 1_556 S
C3612 C3613 1.349 . S
C3612 C3614 1.327 . S
C3612 H3637 0.950 . S
C3613 C3612 1.349 . S
C3613 C3629 1.349 1_554 S
C3614 C3612 1.327 . S
C3614 C3633 1.429 . S
C3614 H3638 0.950 . S
C3615 C3632 1.574 . S
C3615 C3634 1.368 . S
C3615 H3639 0.949 . S
H3616 C3620 0.949 . S
C3617 C3618 1.349 . S
C3617 C3619 1.327 . S
C3617 H3640 0.950 . S
C3618 C3617 1.349 . S
C3618 C3630 1.349 . S
C3619 C3617 1.327 . S
C3619 C3635 1.429 . S
C3619 H3641 0.950 . S
C3620 H3616 0.949 . S
C3620 C3628 1.574 . S
C3620 C3636 1.368 . S
H3621 C3629 0.950 . S
H3622 C3627 0.950 1_556 S
H3623 C3628 0.949 . S
H3624 C3630 0.950 . S
H3625 C3631 0.950 . S
H3626 C3632 0.949 . S
C3627 H3622 0.950 1_554 S
C3627 C3629 1.327 1_554 S
C3627 C3633 1.429 . S
C3628 C3620 1.574 . S
C3628 H3623 0.949 . S
C3628 C3634 1.368 . S
C3629 C3613 1.349 1_556 S
C3629 H3621 0.950 . S
C3629 C3627 1.327 1_556 S
C3630 C3618 1.349 . S
C3630 H3624 0.950 . S
C3630 C3631 1.327 . S
C3631 H3625 0.950 . S
C3631 C3630 1.327 . S
C3631 C3635 1.429 . S
C3632 C3615 1.574 . S
C3632 H3626 0.949 . S
C3632 C3636 1.368 . S
C3633 C3614 1.429 . S
C3633 C3627 1.429 . S
C3633 C3634 1.523 . S
C3634 C3615 1.368 . S
C3634 C3628 1.368 . S
C3634 C3633 1.523 . S
C3635 C3619 1.429 . S
C3635 C3631 1.429 . S
C3635 C3636 1.523 . S
C3636 C3620 1.368 . S
C3636 C3632 1.368 . S
C3636 C3635 1.523 . S
H3637 C3612 0.950 . S
H3638 C3614 0.950 . S
H3639 C3615 0.949 . S
H3640 C3617 0.950 . S
H3641 C3619 0.950 . S
C3642 C3643 1.345 1_556 S
C3642 C3644 1.320 1_556 S
C3642 H3667 0.961 . S
C3643 C3642 1.345 1_554 S
C3643 C3659 1.349 . S
C3644 C3642 1.320 1_554 S
C3644 C3663 1.429 . S
C3644 H3668 0.950 . S
C3645 C3662 1.574 . S
C3645 C3664 1.368 . S
C3645 H3669 0.949 . S
H3646 C3650 0.949 . S
C3647 C3648 1.349 . S
C3647 C3649 1.327 . S
C3647 H3670 0.950 . S
C3648 C3647 1.349 . S
C3648 C3660 1.349 . S
C3649 C3647 1.327 . S
C3649 C3665 1.429 . S
C3649 H3671 0.950 . S
C3650 H3646 0.949 . S
C3650 C3658 1.574 . S
C3650 C3666 1.368 . S
H3651 C3659 0.950 . S
H3652 C3657 0.950 . S
H3653 C3658 0.949 . S
H3654 C3660 0.950 . S
H3655 C3661 0.950 . S
H3656 C3662 0.949 . S
C3657 H3652 0.950 . S
C3657 C3659 1.327 . S
C3657 C3663 1.429 . S
C3658 C3650 1.574 . S
C3658 H3653 0.949 . S
C3658 C3664 1.368 . S
C3659 C3643 1.349 . S
C3659 H3651 0.950 . S
C3659 C3657 1.327 . S
C3660 C3648 1.349 . S
C3660 H3654 0.950 . S
C3660 C3661 1.327 . S
C3661 H3655 0.950 . S
C3661 C3660 1.327 . S
C3661 C3665 1.429 . S
C3662 C3645 1.574 . S
C3662 H3656 0.949 . S
C3662 C3666 1.368 . S
C3663 C3644 1.429 . S
C3663 C3657 1.429 . S
C3663 C3664 1.523 . S
C3664 C3645 1.368 . S
C3664 C3658 1.368 . S
C3664 C3663 1.523 . S
C3665 C3649 1.429 . S
C3665 C3661 1.429 . S
C3665 C3666 1.523 . S
C3666 C3650 1.368 . S
C3666 C3662 1.368 . S
C3666 C3665 1.523 . S
H3667 C3642 0.961 . S
H3668 C3644 0.950 . S
H3669 C3645 0.949 . S
H3670 C3647 0.950 . S
H3671 C3649 0.950 . S
C3672 C3673 1.349 . S
C3672 C3674 1.327 . S
C3672 H3697 0.950 . S
C3673 C3672 1.349 . S
C3673 C3689 1.349 . S
C3674 C3672 1.327 . S
C3674 C3693 1.429 . S
C3674 H3698 0.950 . S
C3675 C3692 1.574 . S
C3675 C3694 1.368 . S
C3675 H3699 0.949 . S
H3676 C3680 0.949 . S
C3677 C3678 1.349 . S
C3677 C3679 1.327 . S
C3677 H3700 0.950 . S
C3678 C3677 1.349 . S
C3678 C3690 1.349 . S
C3679 C3677 1.327 . S
C3679 C3695 1.429 . S
C3679 H3701 0.950 . S
C3680 H3676 0.949 . S
C3680 C3688 1.574 . S
C3680 C3696 1.368 . S
H3681 C3689 0.950 . S
H3682 C3687 0.950 . S
H3683 C3688 0.949 . S
H3684 C3690 0.950 1_556 S
H3685 C3691 0.950 . S
H3686 C3692 0.949 . S
C3687 H3682 0.950 . S
C3687 C3689 1.327 . S
C3687 C3693 1.429 . S
C3688 C3680 1.574 . S
C3688 H3683 0.949 . S
C3688 C3694 1.368 . S
C3689 C3673 1.349 . S
C3689 H3681 0.950 . S
C3689 C3687 1.327 . S
C3690 C3678 1.349 . S
C3690 H3684 0.950 1_554 S
C3690 C3691 1.327 . S
C3691 H3685 0.950 . S
C3691 C3690 1.327 . S
C3691 C3695 1.429 . S
C3692 C3675 1.574 . S
C3692 H3686 0.949 . S
C3692 C3696 1.368 . S
C3693 C3674 1.429 . S
C3693 C3687 1.429 . S
C3693 C3694 1.523 . S
C3694 C3675 1.368 . S
C3694 C3688 1.368 . S
C3694 C3693 1.523 . S
C3695 C3679 1.429 . S
C3695 C3691 1.429 . S
C3695 C3696 1.523 . S
C3696 C3680 1.368 . S
C3696 C3692 1.368 . S
C3696 C3695 1.523 . S
H3697 C3672 0.950 . S
H3698 C3674 0.950 . S
H3699 C3675 0.949 . S
H3700 C3677 0.950 . S
H3701 C3679 0.950 . S
C3702 C3703 1.349 . S
C3702 C3704 1.327 . S
C3702 H3727 0.950 . S
C3703 C3702 1.349 . S
C3703 C3719 1.349 . S
C3704 C3702 1.327 . S
C3704 C3723 1.429 . S
C3704 H3728 0.950 . S
C3705 C3722 1.574 . S
C3705 C3724 1.368 . S
C3705 H3729 0.949 . S
H3706 C3710 0.949 . S
C3707 C3708 1.349 . S
C3707 C3709 1.327 . S
C3707 H3730 0.950 . S
C3708 C3707 1.349 . S
C3708 C3720 1.349 . S
C3709 C3707 1.327 . S
C3709 C3725 1.429 . S
C3709 H3731 0.950 . S
C3710 H3706 0.949 . S
C3710 C3718 1.574 . S
C3710 C3726 1.368 . S
H3711 C3719 0.950 . S
H3712 C3717 0.950 . S
H3713 C3718 0.949 . S
H3714 C3720 0.950 . S
H3715 C3721 0.950 . S
H3716 C3722 0.949 . S
C3717 H3712 0.950 . S
C3717 C3719 1.327 . S
C3717 C3723 1.429 . S
C3718 C3710 1.574 . S
C3718 H3713 0.949 . S
C3718 C3724 1.368 . S
C3719 C3703 1.349 . S
C3719 H3711 0.950 . S
C3719 C3717 1.327 . S
C3720 C3708 1.349 . S
C3720 H3714 0.950 . S
C3720 C3721 1.327 . S
C3721 H3715 0.950 . S
C3721 C3720 1.327 . S
C3721 C3725 1.429 . S
C3722 C3705 1.574 . S
C3722 H3716 0.949 . S
C3722 C3726 1.368 . S
C3723 C3704 1.429 . S
C3723 C3717 1.429 . S
C3723 C3724 1.523 . S
C3724 C3705 1.368 . S
C3724 C3718 1.368 . S
C3724 C3723 1.523 . S
C3725 C3709 1.429 . S
C3725 C3721 1.429 . S
C3725 C3726 1.523 . S
C3726 C3710 1.368 . S
C3726 C3722 1.368 . S
C3726 C3725 1.523 . S
H3727 C3702 0.950 . S
H3728 C3704 0.950 . S
H3729 C3705 0.949 . S
H3730 C3707 0.950 . S
H3731 C3709 0.950 . S
C3732 C3733 1.349 . S
C3732 C3734 1.327 . S
C3732 H3757 0.950 1_554 S
C3733 C3732 1.349 . S
C3733 C3749 1.349 . S
C3734 C3732 1.327 . S
C3734 C3753 1.429 . S
C3734 H3758 0.950 . S
C3735 C3752 1.574 . S
C3735 C3754 1.368 . S
C3735 H3759 0.949 . S
H3736 C3740 0.949 . S
C3737 C3738 1.349 . S
C3737 C3739 1.327 . S
C3737 H3760 0.950 . S
C3738 C3737 1.349 . S
C3738 C3750 1.349 . S
C3739 C3737 1.327 . S
C3739 C3755 1.429 . S
C3739 H3761 0.950 . S
C3740 H3736 0.949 . S
C3740 C3748 1.574 . S
C3740 C3756 1.368 . S
H3741 C3749 0.950 . S
H3742 C3747 0.950 . S
H3743 C3748 0.949 . S
H3744 C3750 0.950 . S
H3745 C3751 0.950 . S
H3746 C3752 0.949 . S
C3747 H3742 0.950 . S
C3747 C3749 1.327 . S
C3747 C3753 1.429 . S
C3748 C3740 1.574 . S
C3748 H3743 0.949 . S
C3748 C3754 1.368 . S
C3749 C3733 1.349 . S
C3749 H3741 0.950 . S
C3749 C3747 1.327 . S
C3750 C3738 1.349 . S
C3750 H3744 0.950 . S
C3750 C3751 1.327 . S
C3751 H3745 0.950 . S
C3751 C3750 1.327 . S
C3751 C3755 1.429 . S
C3752 C3735 1.574 . S
C3752 H3746 0.949 . S
C3752 C3756 1.368 . S
C3753 C3734 1.429 . S
C3753 C3747 1.429 . S
C3753 C3754 1.523 . S
C3754 C3735 1.368 . S
C3754 C3748 1.368 . S
C3754 C3753 1.523 . S
C3755 C3739 1.429 . S
C3755 C3751 1.429 . S
C3755 C3756 1.523 . S
C3756 C3740 1.368 . S
C3756 C3752 1.368 . S
C3756 C3755 1.523 . S
H3757 C3732 0.950 1_556 S
H3758 C3734 0.950 . S
H3759 C3735 0.949 . S
H3760 C3737 0.950 . S
H3761 C3739 0.950 . S
C3762 C3763 1.349 . S
C3762 C3764 1.327 . S
C3762 H3787 0.950 . S
C3763 C3762 1.349 . S
C3763 C3779 1.349 . S
C3764 C3762 1.327 . S
C3764 C3783 1.429 . S
C3764 H3788 0.950 . S
C3765 C3782 1.574 . S
C3765 C3784 1.368 . S
C3765 H3789 0.949 . S
H3766 C3770 0.949 . S
C3767 C3768 1.349 . S
C3767 C3769 1.327 . S
C3767 H3790 0.950 . S
C3768 C3767 1.349 . S
C3768 C3780 1.349 . S
C3769 C3767 1.327 . S
C3769 C3785 1.429 . S
C3769 H3791 0.950 . S
C3770 H3766 0.949 . S
C3770 C3778 1.574 . S
C3770 C3786 1.368 . S
H3771 C3779 0.950 . S
H3772 C3777 0.950 . S
H3773 C3778 0.949 . S
H3774 C3780 0.950 1_554 S
H3775 C3781 0.950 . S
H3776 C3782 0.949 . S
C3777 H3772 0.950 . S
C3777 C3779 1.327 . S
C3777 C3783 1.429 . S
C3778 C3770 1.574 . S
C3778 H3773 0.949 . S
C3778 C3784 1.368 . S
C3779 C3763 1.349 . S
C3779 H3771 0.950 . S
C3779 C3777 1.327 . S
C3780 C3768 1.349 . S
C3780 H3774 0.950 1_556 S
C3780 C3781 1.327 . S
C3781 H3775 0.950 . S
C3781 C3780 1.327 . S
C3781 C3785 1.429 . S
C3782 C3765 1.574 . S
C3782 H3776 0.949 . S
C3782 C3786 1.368 . S
C3783 C3764 1.429 . S
C3783 C3777 1.429 . S
C3783 C3784 1.523 . S
C3784 C3765 1.368 . S
C3784 C3778 1.368 . S
C3784 C3783 1.523 . S
C3785 C3769 1.429 . S
C3785 C3781 1.429 . S
C3785 C3786 1.523 . S
C3786 C3770 1.368 . S
C3786 C3782 1.368 . S
C3786 C3785 1.523 . S
H3787 C3762 0.950 . S
H3788 C3764 0.950 . S
H3789 C3765 0.949 . S
H3790 C3767 0.950 . S
H3791 C3769 0.950 . S
C3792 C3793 1.349 . S
C3792 C3794 1.327 . S
C3792 H3817 0.950 . S
C3793 C3792 1.349 . S
C3793 C3809 1.349 . S
C3794 C3792 1.327 . S
C3794 C3813 1.429 . S
C3794 H3818 0.950 . S
C3795 C3812 1.574 . S
C3795 C3814 1.368 . S
C3795 H3819 0.949 . S
H3796 C3800 0.949 . S
C3797 C3798 1.349 . S
C3797 C3799 1.327 . S
C3797 H3820 0.950 . S
C3798 C3797 1.349 . S
C3798 C3810 1.349 . S
C3799 C3797 1.327 . S
C3799 C3815 1.429 . S
C3799 H3821 0.950 . S
C3800 H3796 0.949 . S
C3800 C3808 1.574 . S
C3800 C3816 1.368 . S
H3801 C3809 0.950 . S
H3802 C3807 0.950 . S
H3803 C3808 0.949 . S
H3804 C3810 0.950 . S
H3805 C3811 0.950 . S
H3806 C3812 0.949 . S
C3807 H3802 0.950 . S
C3807 C3809 1.327 . S
C3807 C3813 1.429 . S
C3808 C3800 1.574 . S
C3808 H3803 0.949 . S
C3808 C3814 1.368 . S
C3809 C3793 1.349 . S
C3809 H3801 0.950 . S
C3809 C3807 1.327 . S
C3810 C3798 1.349 . S
C3810 H3804 0.950 . S
C3810 C3811 1.327 . S
C3811 H3805 0.950 . S
C3811 C3810 1.327 . S
C3811 C3815 1.429 . S
C3812 C3795 1.574 . S
C3812 H3806 0.949 . S
C3812 C3816 1.368 . S
C3813 C3794 1.429 . S
C3813 C3807 1.429 . S
C3813 C3814 1.523 . S
C3814 C3795 1.368 . S
C3814 C3808 1.368 . S
C3814 C3813 1.523 . S
C3815 C3799 1.429 . S
C3815 C3811 1.429 . S
C3815 C3816 1.523 . S
C3816 C3800 1.368 . S
C3816 C3812 1.368 . S
C3816 C3815 1.523 . S
H3817 C3792 0.950 . S
H3818 C3794 0.950 . S
H3819 C3795 0.949 . S
H3820 C3797 0.950 . S
H3821 C3799 0.950 . S
C3822 C3823 1.349 . S
C3822 C3824 1.327 . S
C3822 H3847 0.950 . S
C3823 C3822 1.349 . S
C3823 C3839 1.349 1_556 S
C3824 C3822 1.327 . S
C3824 C3843 1.429 . S
C3824 H3848 0.950 . S
C3825 C3842 1.574 . S
C3825 C3844 1.368 . S
C3825 H3849 0.949 . S
H3826 C3830 0.949 . S
C3827 C3828 1.349 . S
C3827 C3829 1.327 . S
C3827 H3850 0.950 . S
C3828 C3827 1.349 . S
C3828 C3840 1.349 . S
C3829 C3827 1.327 . S
C3829 C3845 1.429 . S
C3829 H3851 0.950 . S
C3830 H3826 0.949 . S
C3830 C3838 1.574 . S
C3830 C3846 1.368 . S
H3831 C3839 0.950 . S
H3832 C3837 0.950 1_554 S
H3833 C3838 0.949 . S
H3834 C3840 0.950 . S
H3835 C3841 0.950 . S
H3836 C3842 0.949 . S
C3837 H3832 0.950 1_556 S
C3837 C3839 1.327 1_556 S
C3837 C3843 1.429 . S
C3838 C3830 1.574 . S
C3838 H3833 0.949 . S
C3838 C3844 1.368 . S
C3839 C3823 1.349 1_554 S
C3839 H3831 0.950 . S
C3839 C3837 1.327 1_554 S
C3840 C3828 1.349 . S
C3840 H3834 0.950 . S
C3840 C3841 1.327 . S
C3841 H3835 0.950 . S
C3841 C3840 1.327 . S
C3841 C3845 1.429 . S
C3842 C3825 1.574 . S
C3842 H3836 0.949 . S
C3842 C3846 1.368 . S
C3843 C3824 1.429 . S
C3843 C3837 1.429 . S
C3843 C3844 1.523 . S
C3844 C3825 1.368 . S
C3844 C3838 1.368 . S
C3844 C3843 1.523 . S
C3845 C3829 1.429 . S
C3845 C3841 1.429 . S
C3845 C3846 1.523 . S
C3846 C3830 1.368 . S
C3846 C3842 1.368 . S
C3846 C3845 1.523 . S
H3847 C3822 0.950 . S
H3848 C3824 0.950 . S
H3849 C3825 0.949 . S
H3850 C3827 0.950 . S
H3851 C3829 0.950 . S
C3852 C3853 1.349 . S
C3852 C3854 1.327 . S
C3852 H3877 0.950 . S
C3853 C3852 1.349 . S
C3853 C3869 1.349 . S
C3854 C3852 1.327 . S
C3854 C3873 1.429 . S
C3854 H3878 0.950 . S
C3855 C3872 1.574 1_455 S
C3855 C3874 1.368 . S
C3855 H3879 0.949 . S
H3856 C3860 0.949 . S
C3857 C3858 1.349 . S
C3857 C3859 1.327 . S
C3857 H3880 0.950 . S
C3858 C3857 1.349 . S
C3858 C3870 1.349 . S
C3859 C3857 1.327 . S
C3859 C3875 1.429 . S
C3859 H3881 0.950 . S
C3860 H3856 0.949 . S
C3860 C3868 1.574 1_655 S
C3860 C3876 1.368 . S
H3861 C3869 0.950 . S
H3862 C3867 0.950 . S
H3863 C3868 0.949 . S
H3864 C3870 0.950 . S
H3865 C3871 0.950 . S
H3866 C3872 0.949 . S
C3867 H3862 0.950 . S
C3867 C3869 1.327 . S
C3867 C3873 1.429 . S
C3868 C3860 1.574 1_455 S
C3868 H3863 0.949 . S
C3868 C3874 1.368 . S
C3869 C3853 1.349 . S
C3869 H3861 0.950 . S
C3869 C3867 1.327 . S
C3870 C3858 1.349 . S
C3870 H3864 0.950 . S
C3870 C3871 1.327 . S
C3871 H3865 0.950 . S
C3871 C3870 1.327 . S
C3871 C3875 1.429 . S
C3872 C3855 1.574 1_655 S
C3872 H3866 0.949 . S
C3872 C3876 1.368 . S
C3873 C3854 1.429 . S
C3873 C3867 1.429 . S
C3873 C3874 1.523 . S
C3874 C3855 1.368 . S
C3874 C3868 1.368 . S
C3874 C3873 1.523 . S
C3875 C3859 1.429 . S
C3875 C3871 1.429 . S
C3875 C3876 1.523 . S
C3876 C3860 1.368 . S
C3876 C3872 1.368 . S
C3876 C3875 1.523 . S
H3877 C3852 0.950 . S
H3878 C3854 0.950 . S
H3879 C3855 0.949 . S
H3880 C3857 0.950 . S
H3881 C3859 0.950 . S
C3882 C3883 1.349 . S
C3882 C3884 1.327 . S
C3882 H3907 0.950 . S
C3883 C3882 1.349 . S
C3883 C3899 1.349 . S
C3884 C3882 1.327 . S
C3884 C3903 1.429 . S
C3884 H3908 0.950 . S
C3885 C3902 1.574 . S
C3885 C3904 1.368 . S
C3885 H3909 0.949 . S
H3886 C3890 0.949 . S
C3887 C3888 1.349 . S
C3887 C3889 1.327 . S
C3887 H3910 0.950 . S
C3888 C3887 1.349 . S
C3888 C3900 1.349 . S
C3889 C3887 1.327 . S
C3889 C3905 1.429 . S
C3889 H3911 0.950 . S
C3890 H3886 0.949 . S
C3890 C3898 1.574 . S
C3890 C3906 1.368 . S
H3891 C3899 0.950 . S
H3892 C3897 0.950 . S
H3893 C3898 0.949 . S
H3894 C3900 0.950 . S
H3895 C3901 0.950 . S
H3896 C3902 0.949 . S
C3897 H3892 0.950 . S
C3897 C3899 1.327 . S
C3897 C3903 1.429 . S
C3898 C3890 1.574 . S
C3898 H3893 0.949 . S
C3898 C3904 1.368 . S
C3899 C3883 1.349 . S
C3899 H3891 0.950 . S
C3899 C3897 1.327 . S
C3900 C3888 1.349 . S
C3900 H3894 0.950 . S
C3900 C3901 1.327 . S
C3901 H3895 0.950 . S
C3901 C3900 1.327 . S
C3901 C3905 1.429 . S
C3902 C3885 1.574 . S
C3902 H3896 0.949 . S
C3902 C3906 1.368 . S
C3903 C3884 1.429 . S
C3903 C3897 1.429 . S
C3903 C3904 1.523 . S
C3904 C3885 1.368 . S
C3904 C3898 1.368 . S
C3904 C3903 1.523 . S
C3905 C3889 1.429 . S
C3905 C3901 1.429 . S
C3905 C3906 1.523 . S
C3906 C3890 1.368 . S
C3906 C3902 1.368 . S
C3906 C3905 1.523 . S
H3907 C3882 0.950 . S
H3908 C3884 0.950 . S
H3909 C3885 0.949 . S
H3910 C3887 0.950 . S
H3911 C3889 0.950 . S
C3912 C3913 1.349 . S
C3912 C3914 1.327 . S
C3912 H3937 0.950 . S
C3913 C3912 1.349 . S
C3913 C3929 1.349 . S
C3914 C3912 1.327 . S
C3914 C3933 1.429 . S
C3914 H3938 0.950 . S
C3915 C3932 1.550 1_565 S
C3915 C3934 1.391 . S
C3915 H3939 0.950 . S
H3916 C3920 0.950 . S
C3917 C3918 1.349 . S
C3917 C3919 1.327 . S
C3917 H3940 0.950 . S
C3918 C3917 1.349 . S
C3918 C3930 1.349 . S
C3919 C3917 1.327 . S
C3919 C3935 1.429 . S
C3919 H3941 0.950 . S
C3920 H3916 0.950 . S
C3920 C3928 1.554 1_545 S
C3920 C3936 1.388 . S
H3921 C3929 0.950 . S
H3922 C3927 0.950 . S
H3923 C3928 0.949 . S
H3924 C3930 0.950 . S
H3925 C3931 0.950 . S
H3926 C3932 0.949 . S
C3927 H3922 0.950 . S
C3927 C3929 1.327 . S
C3927 C3933 1.429 . S
C3928 C3920 1.554 1_565 S
C3928 H3923 0.949 . S
C3928 C3934 1.368 . S
C3929 C3913 1.349 . S
C3929 H3921 0.950 . S
C3929 C3927 1.327 . S
C3930 C3918 1.349 . S
C3930 H3924 0.950 . S
C3930 C3931 1.327 . S
C3931 H3925 0.950 . S
C3931 C3930 1.327 . S
C3931 C3935 1.429 . S
C3932 C3915 1.550 1_545 S
C3932 H3926 0.949 . S
C3932 C3936 1.368 . S
C3933 C3914 1.429 . S
C3933 C3927 1.429 . S
C3933 C3934 1.523 . S
C3934 C3915 1.391 . S
C3934 C3928 1.368 . S
C3934 C3933 1.523 . S
C3935 C3919 1.429 . S
C3935 C3931 1.429 . S
C3935 C3936 1.523 . S
C3936 C3920 1.388 . S
C3936 C3932 1.368 . S
C3936 C3935 1.523 . S
H3937 C3912 0.950 . S
H3938 C3914 0.950 . S
H3939 C3915 0.950 . S
H3940 C3917 0.950 . S
H3941 C3919 0.950 . S
C3942 C3943 1.349 . S
C3942 C3944 1.327 . S
C3942 H3967 0.950 . S
C3943 C3942 1.349 . S
C3943 C3959 1.349 . S
C3944 C3942 1.327 . S
C3944 C3963 1.429 . S
C3944 H3968 0.950 . S
C3945 C3962 1.543 1_545 S
C3945 C3964 1.400 . S
C3945 H3969 0.952 . S
H3946 C3950 0.952 . S
C3947 C3948 1.349 . S
C3947 C3949 1.327 . S
C3947 H3970 0.950 . S
C3948 C3947 1.349 . S
C3948 C3960 1.349 . S
C3949 C3947 1.327 . S
C3949 C3965 1.429 . S
C3949 H3971 0.950 . S
C3950 H3946 0.952 . S
C3950 C3958 1.543 1_565 S
C3950 C3966 1.400 . S
H3951 C3959 0.950 . S
H3952 C3957 0.950 . S
H3953 C3958 0.949 . S
H3954 C3960 0.950 . S
H3955 C3961 0.950 . S
H3956 C3962 0.949 . S
C3957 H3952 0.950 . S
C3957 C3959 1.327 . S
C3957 C3963 1.429 . S
C3958 C3950 1.543 1_545 S
C3958 H3953 0.949 . S
C3958 C3964 1.368 . S
C3959 C3943 1.349 . S
C3959 H3951 0.950 . S
C3959 C3957 1.327 . S
C3960 C3948 1.349 . S
C3960 H3954 0.950 . S
C3960 C3961 1.327 . S
C3961 H3955 0.950 . S
C3961 C3960 1.327 . S
C3961 C3965 1.429 . S
C3962 C3945 1.543 1_565 S
C3962 H3956 0.949 . S
C3962 C3966 1.368 . S
C3963 C3944 1.429 . S
C3963 C3957 1.429 . S
C3963 C3964 1.523 . S
C3964 C3945 1.400 . S
C3964 C3958 1.368 . S
C3964 C3963 1.523 . S
C3965 C3949 1.429 . S
C3965 C3961 1.429 . S
C3965 C3966 1.523 . S
C3966 C3950 1.400 . S
C3966 C3962 1.368 . S
C3966 C3965 1.523 . S
H3967 C3942 0.950 . S
H3968 C3944 0.950 . S
H3969 C3945 0.952 . S
H3970 C3947 0.950 . S
H3971 C3949 0.950 . S
C3972 C3973 1.349 . S
C3972 C3974 1.327 . S
C3972 H3997 0.950 . S
C3973 C3972 1.349 . S
C3973 C3989 1.349 . S
C3974 C3972 1.327 . S
C3974 C3993 1.429 . S
C3974 H3998 0.950 . S
C3975 C3992 1.543 1_655 S
C3975 C3994 1.394 . S
C3975 H3999 0.944 . S
H3976 C3980 0.944 . S
C3977 C3978 1.349 . S
C3977 C3979 1.327 . S
C3977 H4000 0.950 . S
C3978 C3977 1.349 . S
C3978 C3990 1.349 . S
C3979 C3977 1.327 . S
C3979 C3995 1.429 . S
C3979 H4001 0.950 . S
C3980 H3976 0.944 . S
C3980 C3988 1.543 1_455 S
C3980 C3996 1.394 . S
H3981 C3989 0.950 . S
H3982 C3987 0.950 . S
H3983 C3988 0.949 . S
H3984 C3990 0.950 . S
H3985 C3991 0.950 . S
H3986 C3992 0.949 . S
C3987 H3982 0.950 . S
C3987 C3989 1.327 . S
C3987 C3993 1.429 . S
C3988 C3980 1.543 1_655 S
C3988 H3983 0.949 . S
C3988 C3994 1.368 . S
C3989 C3973 1.349 . S
C3989 H3981 0.950 . S
C3989 C3987 1.327 . S
C3990 C3978 1.349 . S
C3990 H3984 0.950 . S
C3990 C3991 1.327 . S
C3991 H3985 0.950 . S
C3991 C3990 1.327 . S
C3991 C3995 1.429 . S
C3992 C3975 1.543 1_455 S
C3992 H3986 0.949 . S
C3992 C3996 1.368 . S
C3993 C3974 1.429 . S
C3993 C3987 1.429 . S
C3993 C3994 1.523 . S
C3994 C3975 1.394 . S
C3994 C3988 1.368 . S
C3994 C3993 1.523 . S
C3995 C3979 1.429 . S
C3995 C3991 1.429 . S
C3995 C3996 1.523 . S
C3996 C3980 1.394 . S
C3996 C3992 1.368 . S
C3996 C3995 1.523 . S
H3997 C3972 0.950 . S
H3998 C3974 0.950 . S
H3999 C3975 0.944 . S
H4000 C3977 0.950 . S
H4001 C3979 0.950 . S
C4002 C4003 1.349 . S
C4002 C4004 1.327 . S
C4002 H4027 0.950 . S
C4003 C4002 1.349 . S
C4003 C4019 1.349 . S
C4004 C4002 1.327 . S
C4004 C4023 1.429 . S
C4004 H4028 0.950 . S
C4005 C4022 1.574 . S
C4005 C4024 1.368 . S
C4005 H4029 0.949 . S
H4006 C4010 0.949 . S
C4007 C4008 1.349 . S
C4007 C4009 1.327 . S
C4007 H4030 0.950 . S
C4008 C4007 1.349 . S
C4008 C4020 1.349 . S
C4009 C4007 1.327 . S
C4009 C4025 1.429 . S
C4009 H4031 0.950 . S
C4010 H4006 0.949 . S
C4010 C4018 1.574 . S
C4010 C4026 1.368 . S
H4011 C4019 0.950 . S
H4012 C4017 0.950 . S
H4013 C4018 0.949 . S
H4014 C4020 0.950 . S
H4015 C4021 0.950 . S
H4016 C4022 0.949 . S
C4017 H4012 0.950 . S
C4017 C4019 1.327 . S
C4017 C4023 1.429 . S
C4018 C4010 1.574 . S
C4018 H4013 0.949 . S
C4018 C4024 1.368 . S
C4019 C4003 1.349 . S
C4019 H4011 0.950 . S
C4019 C4017 1.327 . S
C4020 C4008 1.349 . S
C4020 H4014 0.950 . S
C4020 C4021 1.327 . S
C4021 H4015 0.950 . S
C4021 C4020 1.327 . S
C4021 C4025 1.429 . S
C4022 C4005 1.574 . S
C4022 H4016 0.949 . S
C4022 C4026 1.368 . S
C4023 C4004 1.429 . S
C4023 C4017 1.429 . S
C4023 C4024 1.523 . S
C4024 C4005 1.368 . S
C4024 C4018 1.368 . S
C4024 C4023 1.523 . S
C4025 C4009 1.429 . S
C4025 C4021 1.429 . S
C4025 C4026 1.523 . S
C4026 C4010 1.368 . S
C4026 C4022 1.368 . S
C4026 C4025 1.523 . S
H4027 C4002 0.950 . S
H4028 C4004 0.950 . S
H4029 C4005 0.949 . S
H4030 C4007 0.950 . S
H4031 C4009 0.950 . S
C793 C21 1.269 . S
C798 C659 1.269 . S
C823 C615 1.269 . S
C828 C37 1.269 . S
C853 C631 1.268 . S
C858 C65 1.268 . S
C883 C87 1.269 . S
C888 C301 1.269 . S
C913 C103 1.269 . S
C918 C323 1.269 . S
C943 C131 1.269 . S
C948 C279 1.269 . S
C973 C139 1.256 . S
C978 C527 1.256 . S
C1003 C175 1.256 . S
C1008 C469 1.256 . S
C1033 C191 1.256 . S
C1038 C491 1.256 . S
C1063 C219 1.256 . S
C1068 C703 1.256 . S
C1093 C227 1.256 . S
C1098 C725 1.256 . S
C1123 C675 1.256 . S
C1128 C263 1.256 . S
C1153 C565 1.268 . S
C1158 C345 1.268 . S
C1183 C367 1.269 . S
C1188 C587 1.269 . S
C1213 C543 1.268 . S
C1218 C395 1.268 . S
C1243 C411 1.256 . S
C1248 C777 1.256 . S
C1273 C433 1.256 . S
C1278 C747 1.256 . S
C1303 C769 1.256 . S
C1308 C455 1.256 . S
C1333 C10 1.276 . S
C1338 C7 1.300 . S
C1363 C40 1.276 . S
C1368 C43 1.300 . S
C1393 C51 1.300 . S
C1398 C54 1.276 . S
C1423 C73 1.300 . S
C1428 C76 1.276 . S
C1453 C109 1.300 . S
C1458 C106 1.276 . S
C1483 C120 1.276 . S
C1488 C117 1.300 . S
C1513 C153 1.311 . S
C1518 C142 1.290 . S
C1543 C172 1.289 . S
C1548 C169 1.311 . S
C1573 C183 1.311 . S
C1578 C184 1.290 . S
C1603 C216 1.290 . S
C1608 C213 1.311 . S
C1633 C241 1.311 . S
C1638 C230 1.290 . S
C1663 C257 1.311 . S
C1668 C260 1.289 . S
C1693 C282 1.277 . S
C1698 C285 1.300 . S
C1723 C304 1.276 . S
C1728 C307 1.300 . S
C1753 C329 1.300 . S
C1758 C326 1.276 . S
C1783 C351 1.300 . S
C1788 C348 1.276 . S
C1813 C370 1.276 . S
C1818 C373 1.300 . S
C1843 C384 1.277 . S
C1848 C381 1.300 . S
C1873 C403 1.311 . S
C1878 C404 1.289 . S
C1903 C425 1.311 . S
C1908 C426 1.290 . S
C1933 C448 1.290 . S
C1938 C447 1.311 . S
C1963 C472 1.290 . S
C1968 C483 1.311 . S
C1993 C494 1.290 . S
C1998 C505 1.311 . S
C2023 C521 1.311 . S
C2028 C524 1.290 . S
C2053 C549 1.300 . S
C2058 C546 1.276 . S
C2083 C571 1.300 . S
C2088 C568 1.277 . S
C2113 C590 1.276 . S
C2118 C593 1.300 . S
C2143 C604 1.277 . S
C2148 C601 1.300 . S
C2173 C637 1.300 . S
C2178 C634 1.276 . S
C2203 C645 1.300 . S
C2208 C648 1.276 . S
C2233 C667 1.311 . S
C2238 C668 1.290 . S
C2263 C700 1.290 . S
C2268 C697 1.311 . S
C2293 C722 1.290 . S
C2298 C719 1.311 . S
C2323 C741 1.311 . S
C2328 C744 1.289 . S
C2353 C766 1.290 . S
C2358 C763 1.311 . S
C2383 C791 1.311 . S
C2388 C780 1.290 . S
C2413 C337 1.044 . S
C2418 C15 1.044 . S
C2443 C359 1.045 . S
C2448 C29 1.045 . S
C2473 C389 1.046 . S
C2478 C59 1.046 . S
C2503 C81 1.044 . S
C2508 C535 1.044 . S
C2533 C557 1.046 . S
C2538 C95 1.046 . S
C2563 C579 1.045 . S
C2568 C125 1.045 . S
C2593 C147 1.052 . S
C2598 C733 1.052 . S
C2623 C755 1.054 . S
C2628 C161 1.054 . S
C2653 C785 1.054 . S
C2658 C197 1.054 . S
C2683 C417 1.052 . S
C2688 C205 1.052 . S
C2713 C235 1.054 . S
C2718 C439 1.054 . S
C2743 C249 1.054 . S
C2748 C461 1.054 . S
C2773 C271 1.044 . S
C2778 C609 1.044 . S
C2803 C293 1.046 . S
C2808 C623 1.046 . S
C2833 C315 1.046 . S
C2838 C653 1.046 . S
C2863 C477 1.053 . S
C2868 C681 1.053 . S
C2893 C499 1.054 . S
C2898 C689 1.054 . S
C2923 C513 1.054 . S
C2928 C711 1.054 . S
C2953 C252 1.394 . S
C2958 C18 1.400 . S
C2983 C30 1.400 . S
C2988 C208 1.394 . S
C3013 C228 1.394 . S
C3018 C62 1.400 . S
C3043 C84 1.400 . S
C3048 C164 1.394 . S
C3073 C96 1.400 . S
C3078 C194 1.394 . S
C3103 C140 1.394 . S
C3108 C128 1.400 . S
C3133 C272 1.400 . S
C3138 C516 1.394 . S
C3163 C294 1.400 . S
C3168 C470 1.394 . S
C3193 C492 1.394 . S
C3198 C316 1.400 . S
C3223 C436 1.394 . S
C3228 C338 1.400 . S
C3253 C360 1.400 . S
C3258 C458 1.394 . S
C3283 C414 1.394 . S
C3288 C392 1.400 . S
C3313 C778 1.394 . S
C3318 C536 1.400 . S
C3343 C558 1.400 . S
C3348 C736 1.394 . S
C3373 C580 1.400 . S
C3378 C758 1.394 . S
C3403 C612 1.400 . S
C3408 C692 1.394 . S
C3433 C714 1.394 . S
C3438 C624 1.400 . S
C3463 C678 1.394 . S
C3468 C656 1.400 . S
C3493 C646 0.999 . S
C3498 C8 0.999 1_556 S
C3523 C32 0.999 1_556 S
C3528 C602 0.999 . S
C3553 C626 0.999 . S
C3558 C52 0.999 1_556 S
C3583 C296 0.999 . S
C3588 C74 0.999 1_554 S
C3613 C98 0.999 1_554 S
C3618 C318 0.999 . S
C3643 C118 0.999 1_554 S
C3648 C274 0.999 . S
C3673 C514 0.997 . S
C3678 C150 0.997 1_554 S
C3703 C162 0.997 1_554 S
C3708 C480 0.997 . S
C3733 C186 0.997 1_554 S
C3738 C502 0.997 . S
C3763 C690 0.997 . S
C3768 C206 0.997 1_556 S
C3793 C238 0.997 1_556 S
C3798 C712 0.997 . S
C3823 C250 0.997 1_556 S
C3828 C670 0.997 . S
C3853 C340 0.999 . S
C3858 C560 0.999 . S
C3883 C582 0.998 . S
C3888 C362 0.998 . S
C3913 C382 0.999 . S
C3918 C538 0.999 . S
C3943 C788 0.997 . S
C3948 C406 0.997 . S
C3973 C734 0.997 . S
C3978 C428 0.997 . S
C4003 C756 0.997 . S
C4008 C450 0.997 . S
