# Generated by pormake.
# Topology mon, (4)-cn, num edge types: 1
# Building blocks:
#     Node 0, Type 0, BuildingBlock: NAHDIM_clean_sbu_0, # of connection points: 4
#     Node 1, Type 0, BuildingBlock: NAHDIM_clean_sbu_0, # of connection points: 4
#     Node 2, Type 0, BuildingBlock: NAHDIM_clean_sbu_0, # of connection points: 4
#     Node 3, Type 0, BuildingBlock: NAHDIM_clean_sbu_0, # of connection points: 4
#     Node 4, Type 0, BuildingBlock: NAHDIM_clean_sbu_0, # of connection points: 4
#     Node 5, Type 0, BuildingBlock: NAHDIM_clean_sbu_0, # of connection points: 4
#     Node 6, Type 0, BuildingBlock: NAHDIM_clean_sbu_0, # of connection points: 4
#     Node 7, Type 0, BuildingBlock: NAHDIM_clean_sbu_0, # of connection points: 4
#     Node 8, Type 0, BuildingBlock: NAHDIM_clean_sbu_0, # of connection points: 4
#     Node 9, Type 0, BuildingBlock: NAHDIM_clean_sbu_0, # of connection points: 4
#     Node 10, Type 0, BuildingBlock: NAHDIM_clean_sbu_0, # of connection points: 4
#     Node 11, Type 0, BuildingBlock: NAHDIM_clean_sbu_0, # of connection points: 4
#     Node 12, Type 0, BuildingBlock: NAHDIM_clean_sbu_0, # of connection points: 4
#     Node 13, Type 0, BuildingBlock: NAHDIM_clean_sbu_0, # of connection points: 4
#     Node 14, Type 0, BuildingBlock: NAHDIM_clean_sbu_0, # of connection points: 4
#     Node 15, Type 0, BuildingBlock: NAHDIM_clean_sbu_0, # of connection points: 4
#     Edge 16, Type (0, 0), BuildingBlock: ZUJKAS_clean_linker_0, # of connection points: 2
#     Edge 17, Type (0, 0), BuildingBlock: ZUJKAS_clean_linker_0, # of connection points: 2
#     Edge 18, Type (0, 0), BuildingBlock: ZUJKAS_clean_linker_0, # of connection points: 2
#     Edge 19, Type (0, 0), BuildingBlock: ZUJKAS_clean_linker_0, # of connection points: 2
#     Edge 20, Type (0, 0), BuildingBlock: ZUJKAS_clean_linker_0, # of connection points: 2
#     Edge 21, Type (0, 0), BuildingBlock: ZUJKAS_clean_linker_0, # of connection points: 2
#     Edge 22, Type (0, 0), BuildingBlock: ZUJKAS_clean_linker_0, # of connection points: 2
#     Edge 23, Type (0, 0), BuildingBlock: ZUJKAS_clean_linker_0, # of connection points: 2
#     Edge 24, Type (0, 0), BuildingBlock: ZUJKAS_clean_linker_0, # of connection points: 2
#     Edge 25, Type (0, 0), BuildingBlock: ZUJKAS_clean_linker_0, # of connection points: 2
#     Edge 26, Type (0, 0), BuildingBlock: ZUJKAS_clean_linker_0, # of connection points: 2
#     Edge 27, Type (0, 0), BuildingBlock: ZUJKAS_clean_linker_0, # of connection points: 2
#     Edge 28, Type (0, 0), BuildingBlock: ZUJKAS_clean_linker_0, # of connection points: 2
#     Edge 29, Type (0, 0), BuildingBlock: ZUJKAS_clean_linker_0, # of connection points: 2
#     Edge 30, Type (0, 0), BuildingBlock: ZUJKAS_clean_linker_0, # of connection points: 2
#     Edge 31, Type (0, 0), BuildingBlock: ZUJKAS_clean_linker_0, # of connection points: 2
#     Edge 32, Type (0, 0), BuildingBlock: ZUJKAS_clean_linker_0, # of connection points: 2
#     Edge 33, Type (0, 0), BuildingBlock: ZUJKAS_clean_linker_0, # of connection points: 2
#     Edge 34, Type (0, 0), BuildingBlock: ZUJKAS_clean_linker_0, # of connection points: 2
#     Edge 35, Type (0, 0), BuildingBlock: ZUJKAS_clean_linker_0, # of connection points: 2
#     Edge 36, Type (0, 0), BuildingBlock: ZUJKAS_clean_linker_0, # of connection points: 2
#     Edge 37, Type (0, 0), BuildingBlock: ZUJKAS_clean_linker_0, # of connection points: 2
#     Edge 38, Type (0, 0), BuildingBlock: ZUJKAS_clean_linker_0, # of connection points: 2
#     Edge 39, Type (0, 0), BuildingBlock: ZUJKAS_clean_linker_0, # of connection points: 2
#     Edge 40, Type (0, 0), BuildingBlock: ZUJKAS_clean_linker_0, # of connection points: 2
#     Edge 41, Type (0, 0), BuildingBlock: ZUJKAS_clean_linker_0, # of connection points: 2
#     Edge 42, Type (0, 0), BuildingBlock: ZUJKAS_clean_linker_0, # of connection points: 2
#     Edge 43, Type (0, 0), BuildingBlock: ZUJKAS_clean_linker_0, # of connection points: 2
#     Edge 44, Type (0, 0), BuildingBlock: ZUJKAS_clean_linker_0, # of connection points: 2
#     Edge 45, Type (0, 0), BuildingBlock: ZUJKAS_clean_linker_0, # of connection points: 2
#     Edge 46, Type (0, 0), BuildingBlock: ZUJKAS_clean_linker_0, # of connection points: 2
#     Edge 47, Type (0, 0), BuildingBlock: ZUJKAS_clean_linker_0, # of connection points: 2
# Relax obj value: 0.123
# Max RMSD: 0.119
# Mean RMSD: 0.119
data_MOF--net-mon--node1-NAHDIM_clean_sbu_0--edge1-ZUJKAS_clean_linker_0
_symmetry_space_group_name_H-M    P1
_symmetry_Int_Tables_number       1
_symmetry_cell_setting            triclinic
loop_
_symmetry_equiv_pos_as_xyz
'x, y, z'
_cell_length_a     44.698024
_cell_length_b     44.736809
_cell_length_c     105.67081
_cell_angle_alpha  90.038838
_cell_angle_beta   89.973
_cell_angle_gamma 89.976086
loop_
_atom_site_label
_atom_site_type_symbol
_atom_site_fract_x
_atom_site_fract_y
_atom_site_fract_z
_atom_type_partial_charge
C0 C 0.98359 0.08966 0.59743 0.0
O1 O 0.95987 0.08069 0.59115 0.0
O2 O 0.95804 0.01451 0.60303 0.0
Zn3 Zn -0.00343 0.0283 0.59518 0.0
O4 O -0.00493 0.02592 0.57618 0.0
C5 C 0.02545 0.9758 0.60486 0.0
O6 O -0.00203 0.96541 0.60458 0.0
O7 O 0.00353 0.07067 0.60035 0.0
C8 C 0.99157 0.00107 0.57055 0.0
O9 O 0.98817 0.97665 0.57729 0.0
C10 C 0.93332 0.01193 0.59721 0.0
O11 O 0.93181 0.01875 0.58514 0.0
O12 O 0.03036 0.00254 0.60138 0.0
C13 C 0.17289 0.74702 0.85205 0.0
O14 O 0.1893 0.73018 0.85949 0.0
O15 O 0.24289 0.71527 0.84643 0.0
Zn16 Zn 0.22749 0.75174 0.83763 0.0
O17 O 0.23117 0.74717 0.81882 0.0
C18 C 0.25627 0.79106 0.85492 0.0
O19 O 0.24272 0.77366 0.86314 0.0
O20 O 0.18463 0.75866 0.84227 0.0
C21 C 0.25582 0.73924 0.81386 0.0
O22 O 0.2788 0.73357 0.82123 0.0
C23 C 0.23922 0.68868 0.84253 0.0
O24 O 0.22465 0.68387 0.83193 0.0
O25 O 0.25248 0.78638 0.84318 0.0
C26 C 0.51759 0.90501 0.09875 0.0
O27 O 0.53656 0.92026 0.10571 0.0
O28 O 0.54655 0.97698 0.09391 0.0
Zn29 Zn 0.50825 0.96183 0.08645 0.0
O30 O 0.50895 0.96858 0.06771 0.0
C31 C 0.47133 0.98573 0.10607 0.0
O32 O 0.49003 0.97062 0.11321 0.0
O33 O 0.50315 0.91824 0.09004 0.0
C34 C 0.48474 0.97086 0.0615 0.0
O35 O 0.45908 0.96843 0.06748 0.0
C36 C 0.54977 0.00507 0.09493 0.0
O37 O 0.52843 0.02275 0.09079 0.0
O38 O 0.47435 0.98483 0.09413 0.0
C39 C 0.35209 0.26784 0.34954 0.0
O40 O 0.34316 0.29424 0.34562 0.0
O41 O 0.27664 0.29243 0.3531 0.0
Zn42 Zn 0.29094 0.25435 0.34512 0.0
O43 O 0.28797 0.25667 0.32618 0.0
C44 C 0.2384 0.21892 0.347 0.0
O45 O 0.22923 0.23825 0.33848 0.0
O46 O 0.33328 0.24664 0.35015 0.0
C47 C 0.28997 0.2329 0.31966 0.0
O48 O 0.29459 0.20734 0.32546 0.0
C49 C 0.27287 0.31656 0.34697 0.0
O50 O 0.27893 0.31724 0.33481 0.0
O51 O 0.2648 0.22112 0.35135 0.0
C52 C 0.98408 0.90291 0.40645 0.0
O53 O 0.95955 0.91098 0.4124 0.0
O54 O 0.95607 0.97605 0.40268 0.0
Zn55 Zn -0.00388 0.96432 0.40976 0.0
O56 O -0.004 0.96633 0.42882 0.0
C57 C 0.02198 0.01762 0.39911 0.0
O58 O -0.00532 0.02788 0.40063 0.0
O59 O 0.00411 0.92236 0.40431 0.0
C60 C 0.00336 0.9899 0.43477 0.0
O61 O 0.01138 0.01372 0.42835 0.0
C62 C 0.93703 0.99185 0.40859 0.0
O63 O 0.94312 0.00112 0.4201 0.0
O64 O 0.02798 0.99101 0.40246 0.0
C65 C 0.35399 0.71684 0.64622 0.0
O66 O 0.34462 0.69063 0.65019 0.0
O67 O 0.27891 0.69434 0.64582 0.0
Zn68 Zn 0.29466 0.73279 0.653 0.0
O69 O 0.29484 0.73124 0.67206 0.0
C70 C 0.25556 0.76602 0.63657 0.0
O71 O 0.25946 0.74286 0.6291 0.0
O72 O 0.33624 0.73898 0.6466 0.0
C73 C 0.27291 0.74185 0.67828 0.0
O74 O 0.25028 0.75363 0.67211 0.0
C75 C 0.25611 0.6814 0.65042 0.0
O76 O 0.24267 0.69315 0.66029 0.0
O77 O 0.26882 0.76675 0.64719 0.0
C78 C 0.52613 0.09037 0.88938 0.0
O79 O 0.54182 0.07442 0.88131 0.0
O80 O 0.56374 0.02213 0.89667 0.0
Zn81 Zn 0.52434 0.03561 0.90378 0.0
O82 O 0.52328 0.03077 0.92263 0.0
C83 C 0.48997 0.98321 0.89924 0.0
O84 O 0.50983 0.97183 0.90703 0.0
O85 O 0.51675 0.07834 0.89951 0.0
C86 C 0.4983 0.03254 0.92832 0.0
O87 O 0.47404 0.03813 0.92171 0.0
C88 C 0.58104 0.00498 0.90285 0.0
O89 O 0.57342 -0.00335 0.91432 0.0
O90 O 0.49177 0.01064 0.89626 0.0
C91 C 0.17566 0.24629 0.14523 0.0
O92 O 0.19507 0.25115 0.13612 0.0
O93 O 0.24457 0.28364 0.15127 0.0
Zn94 Zn 0.22828 0.24821 0.16048 0.0
O95 O 0.23412 0.25273 0.17922 0.0
C96 C 0.2782 0.21035 0.15758 0.0
O97 O 0.29013 0.23189 0.16437 0.0
O98 O 0.18489 0.24393 0.15655 0.0
C99 C 0.23211 0.22948 0.18607 0.0
O100 O 0.22561 0.2038 0.18069 0.0
C101 C 0.24226 0.31036 0.15521 0.0
O102 O 0.2286 0.31571 0.16598 0.0
O103 O 0.25076 0.2121 0.15456 0.0
C104 C 0.86175 0.21856 0.14461 0.0
O105 O 0.85197 0.19309 0.1492 0.0
O106 O 0.78328 0.20043 0.14435 0.0
Zn107 Zn 0.80291 0.23726 0.15135 0.0
O108 O 0.80381 0.23529 0.17031 0.0
C109 C 0.76762 0.27332 0.13498 0.0
O110 O 0.77345 0.25118 0.12718 0.0
O111 O 0.84442 0.24104 0.14451 0.0
C112 C 0.77905 0.23519 0.17621 0.0
O113 O 0.75403 0.23654 0.16971 0.0
C114 C 0.78089 0.17588 0.15031 0.0
O115 O 0.79244 0.17344 0.16169 0.0
O116 O 0.77857 0.27273 0.14606 0.0
C117 C 0.66775 0.74498 0.64133 0.0
O118 O 0.68626 0.75288 0.63227 0.0
O119 O 0.73674 0.78209 0.64891 0.0
Zn120 Zn 0.72103 0.74445 0.65666 0.0
O121 O 0.72498 0.7459 0.67557 0.0
C122 C 0.77216 0.71337 0.64752 0.0
O123 O 0.78423 0.73975 0.64943 0.0
O124 O 0.67788 0.73996 0.65235 0.0
C125 C 0.74854 0.75519 0.68102 0.0
O126 O 0.77111 0.76457 0.67412 0.0
C127 C 0.731 0.80814 0.65302 0.0
O128 O 0.71336 0.81136 0.66288 0.0
O129 O 0.74455 0.70964 0.64991 0.0
C130 C 0.66684 0.22939 0.34897 0.0
O131 O 0.6848 0.22012 0.35799 0.0
O132 O 0.73728 0.19589 0.34356 0.0
Zn133 Zn 0.72129 0.23193 0.33461 0.0
O134 O 0.72746 0.22785 0.31592 0.0
C135 C 0.75278 0.26945 0.35206 0.0
O136 O 0.74756 0.24693 0.35971 0.0
O137 O 0.67763 0.23593 0.3382 0.0
C138 C 0.75371 0.22608 0.31137 0.0
O139 O 0.77674 0.22665 0.31909 0.0
C140 C 0.73652 0.16961 0.33904 0.0
O141 O 0.72489 0.16512 0.32778 0.0
O142 O 0.74315 0.2683 0.34076 0.0
C143 C 0.85788 0.75901 0.84192 0.0
O144 O 0.84833 0.77849 0.83355 0.0
O145 O 0.77863 0.78015 0.84792 0.0
Zn146 Zn 0.79697 0.74273 0.84089 0.0
O147 O 0.79508 0.74354 0.82195 0.0
C148 C 0.76425 0.70745 0.8586 0.0
O149 O 0.77041 0.73023 0.866 0.0
O150 O 0.83951 0.74038 0.84656 0.0
C151 C 0.76986 0.74158 0.81648 0.0
O152 O 0.7456 0.73866 0.8234 0.0
C153 C 0.77708 0.80457 0.84183 0.0
O154 O 0.78782 0.80596 0.83027 0.0
O155 O 0.77395 0.70746 0.8473 0.0
C156 C 0.49016 0.5891 0.09033 0.0
O157 O 0.46855 0.57974 0.0829 0.0
O158 O 0.46565 0.5123 0.09828 0.0
Zn159 Zn 0.50317 0.52734 0.09002 0.0
O160 O 0.50035 0.52372 0.07109 0.0
C161 C 0.53416 0.47646 0.09994 0.0
O162 O 0.50702 0.46521 0.09982 0.0
O163 O 0.50869 0.57025 0.09471 0.0
C164 C 0.49727 0.49841 0.06579 0.0
O165 O 0.49572 0.47429 0.07283 0.0
C166 C 0.44043 0.51032 0.0928 0.0
O167 O 0.43775 0.51905 0.08099 0.0
O168 O 0.53818 0.50317 0.09622 0.0
C169 C 0.01832 0.40345 0.59887 0.0
O170 O 0.03564 0.42061 0.6058 0.0
O171 O 0.04614 0.47482 0.59218 0.0
Zn172 Zn 0.00924 0.45739 0.5844 0.0
O173 O 0.01138 0.46085 0.56553 0.0
C174 C 0.97307 0.48781 0.60238 0.0
O175 O -0.00516 0.4792 0.60989 0.0
O176 O 0.00496 0.41446 0.58934 0.0
C177 C 0.01113 0.48654 0.56043 0.0
O178 O 0.00952 0.51037 0.56767 0.0
C179 C 0.07195 0.47404 0.58717 0.0
O180 O 0.07551 0.46116 0.5761 0.0
O181 O 0.97395 0.48054 0.59076 0.0
C182 C 0.47946 0.4002 0.90106 0.0
O183 O 0.45637 0.40785 0.90805 0.0
O184 O 0.4578 0.47891 0.89745 0.0
Zn185 Zn 0.49477 0.46116 0.90512 0.0
O186 O 0.49212 0.461 0.92412 0.0
C187 C 0.52768 0.51247 0.89651 0.0
O188 O 0.50103 0.52485 0.89674 0.0
O189 O 0.49939 0.41954 0.89862 0.0
C190 C 0.4903 0.48562 0.93007 0.0
O191 O 0.48981 0.51073 0.92364 0.0
C192 C 0.43259 0.48075 0.90295 0.0
O193 O 0.42949 0.47016 0.91447 0.0
O194 O 0.53051 0.48526 0.89973 0.0
C195 C 0.01276 0.59112 0.38751 0.0
O196 O 0.03447 0.57654 0.38184 0.0
O197 O 0.04069 0.51901 0.39324 0.0
Zn198 Zn 0.00226 0.5348 0.4004 0.0
O199 O 0.00347 0.53225 0.41937 0.0
C200 C 0.9729 0.48256 0.39103 0.0
O201 O 8e-05 0.4717 0.3921 0.0
O202 O -0.0037 0.5776 0.39547 0.0
C203 C 0.01052 0.50799 0.42486 0.0
O204 O 0.01715 0.48444 0.41798 0.0
C205 C 0.06612 0.52305 0.39832 0.0
O206 O 0.06816 0.5392 0.40867 0.0
O207 O 0.96813 0.50972 0.39396 0.0
H208 H 0.02855 0.11519 0.61128 0.0
H209 H 0.0354 0.1683 0.61605 0.0
H210 H 0.95446 0.189 0.59563 0.0
H211 H 0.94712 0.1361 0.59104 0.0
H212 H 0.04333 0.21264 0.59895 0.0
H213 H 0.94291 0.23685 0.62773 0.0
H214 H 0.95553 0.1992 0.62461 0.0
H215 H 0.93332 0.21893 0.6131 0.0
C216 C 0.01203 0.13104 0.60793 0.0
C217 C 0.98728 0.12147 0.60079 0.0
C218 C 0.01596 0.16132 0.61069 0.0
C219 C -0.00485 0.18248 0.6064 0.0
C220 C 0.97034 0.17295 0.59934 0.0
H221 H 0.97951 0.36389 0.58816 0.0
H222 H 0.97559 0.31033 0.59224 0.0
C223 C 0.96633 0.14271 0.59662 0.0
C224 C 0.00053 0.21478 0.60829 0.0
H225 H 0.96626 0.27935 0.61757 0.0
C226 C 0.02682 0.22719 0.60328 0.0
C227 C 0.97898 0.23363 0.61399 0.0
C228 C 0.95126 0.22141 0.62028 0.0
C229 C 0.03124 0.2582 0.60309 0.0
C230 C 0.00886 0.27707 0.60811 0.0
C231 C 0.98326 0.26466 0.61368 0.0
C232 C 0.01031 0.30973 0.60648 0.0
C233 C 0.05899 0.27072 0.59692 0.0
C234 C 0.0309 0.32701 0.6133 0.0
C235 C 0.03319 0.3577 0.61102 0.0
C236 C 0.015 0.37139 0.60183 0.0
C237 C 0.99397 0.35399 0.59524 0.0
C238 C 0.9916 0.32344 0.59758 0.0
H239 H 0.07289 0.25305 0.59244 0.0
H240 H 0.05275 0.2874 0.58961 0.0
H241 H 0.07275 0.28234 0.60415 0.0
H242 H 0.0454 0.31668 0.62025 0.0
H243 H 0.04955 0.37054 0.61627 0.0
H244 H 0.90341 0.7926 0.83232 0.0
H245 H 0.95627 0.79059 0.83807 0.0
H246 H 0.93704 0.72317 0.86607 0.0
H247 H 0.88408 0.72457 0.86022 0.0
H248 H 0.9847 0.80043 0.86138 0.0
H249 H 0.00146 0.68401 0.84406 0.0
H250 H 0.96855 0.70554 0.84023 0.0
H251 H 0.97242 0.68902 0.85563 0.0
C252 C 0.91038 0.77735 0.83971 0.0
C253 C 0.88964 0.75853 0.84573 0.0
C254 C 0.94056 0.77631 0.84301 0.0
C255 C 0.95053 0.75648 0.85237 0.0
C256 C 0.92981 0.73824 0.85866 0.0
H257 H 0.13847 0.71789 0.86954 0.0
H258 H 0.08412 0.72133 0.87219 0.0
C259 C 0.89959 0.73914 0.85532 0.0
C260 C 0.9828 0.75455 0.85522 0.0
H261 H 0.04347 0.70879 0.85228 0.0
C262 C -0.00246 0.78033 0.85951 0.0
C263 C -0.00061 0.72821 0.85283 0.0
C264 C 0.98479 0.70015 0.84784 0.0
C265 C 0.02866 0.78072 0.86113 0.0
C266 C 0.04533 0.75477 0.85824 0.0
C267 C 0.03048 0.72861 0.85451 0.0
C268 C 0.07831 0.75505 0.85774 0.0
C269 C 0.04351 0.809 0.8657 0.0
C270 C 0.09287 0.77292 0.84876 0.0
C271 C 0.12375 0.77089 0.84716 0.0
C272 C 0.14062 0.75086 0.8545 0.0
C273 C 0.12608 0.73356 0.86376 0.0
C274 C 0.09509 0.73549 0.8653 0.0
H275 H 0.0276 0.82343 0.87099 0.0
H276 H 0.06294 0.80389 0.87188 0.0
H277 H 0.05173 0.82184 0.85742 0.0
H278 H 0.08019 0.78771 0.84267 0.0
H279 H 0.13429 0.78454 0.83996 0.0
H280 H 0.45657 0.63527 0.08126 0.0
H281 H 0.46235 0.68846 0.08585 0.0
H282 H 0.53542 0.66869 0.11115 0.0
H283 H 0.53017 0.61539 0.10646 0.0
H284 H 0.45936 0.71909 0.10905 0.0
H285 H 0.57152 0.72961 0.08656 0.0
H286 H 0.54784 0.69746 0.08414 0.0
H287 H 0.56837 0.70158 0.09865 0.0
C288 C 0.47388 0.64219 0.0878 0.0
C289 C 0.49309 0.62115 0.09341 0.0
C290 C 0.47709 0.67258 0.09044 0.0
C291 C 0.49955 0.68245 0.0987 0.0
C292 C 0.51831 0.6615 0.10456 0.0
H293 H 0.55001 0.86816 0.11421 0.0
H294 H 0.54529 0.8138 0.11628 0.0
C295 C 0.5152 0.63108 0.1019 0.0
C296 C 0.50342 0.71479 0.10097 0.0
H297 H 0.55104 0.77304 0.09567 0.0
C298 C 0.47947 0.73089 0.10621 0.0
C299 C 0.52976 0.73001 0.0973 0.0
C300 C 0.5558 0.71391 0.09126 0.0
C301 C 0.48094 0.762 0.10765 0.0
C302 C 0.50687 0.77729 0.10359 0.0
C303 C 0.53123 0.76111 0.09879 0.0
C304 C 0.50824 0.81023 0.1032 0.0
C305 C 0.45465 0.77831 0.11336 0.0
C306 C 0.48902 0.82601 0.09514 0.0
C307 C 0.49173 0.8569 0.09388 0.0
C308 C 0.51381 0.87255 0.10064 0.0
C309 C 0.53275 0.85673 0.10889 0.0
C310 C 0.5301 0.82574 0.11009 0.0
H311 H 0.44059 0.76317 0.11919 0.0
H312 H 0.46221 0.79729 0.11933 0.0
H313 H 0.44047 0.78739 0.10564 0.0
H314 H 0.4724 0.81431 0.08956 0.0
H315 H 0.4768 0.86842 0.08745 0.0
H316 H 0.63591 0.21701 0.37074 0.0
H317 H 0.58162 0.21948 0.37394 0.0
H318 H 0.57022 0.24924 0.33544 0.0
H319 H 0.62412 0.24668 0.3321 0.0
H320 H 0.54256 0.26956 0.37092 0.0
H321 H 0.51392 0.17647 0.33851 0.0
H322 H 0.55127 0.18222 0.34455 0.0
H323 H 0.53791 0.20388 0.33138 0.0
C324 C 0.62182 0.22404 0.36295 0.0
C325 C 0.63428 0.23147 0.35114 0.0
C326 C 0.59088 0.22544 0.36481 0.0
C327 C 0.57203 0.23404 0.35486 0.0
C328 C 0.58443 0.24197 0.34315 0.0
H329 H 0.39843 0.30734 0.34784 0.0
H330 H 0.45143 0.29736 0.35145 0.0
C331 C 0.61525 0.24063 0.34129 0.0
C332 C 0.53932 0.23536 0.35663 0.0
H333 H 0.47403 0.20987 0.34398 0.0
C334 C 0.52749 0.25622 0.36519 0.0
C335 C 0.51982 0.21753 0.3493 0.0
C336 C 0.53134 0.19354 0.34051 0.0
C337 C 0.49653 0.26093 0.36608 0.0
C338 C 0.47717 0.24463 0.35805 0.0
C339 C 0.48896 0.22258 0.35003 0.0
C340 C 0.44487 0.25134 0.35715 0.0
C341 C 0.48489 0.28354 0.37546 0.0
C342 C 0.42368 0.22866 0.359 0.0
C343 C 0.39339 0.2342 0.3568 0.0
C344 C 0.38383 0.26249 0.35265 0.0
C345 C 0.40506 0.28534 0.35107 0.0
C346 C 0.43534 0.27975 0.35324 0.0
H347 H 0.50074 0.28668 0.38345 0.0
H348 H 0.48221 0.30543 0.37066 0.0
H349 H 0.46281 0.27673 0.37932 0.0
H350 H 0.43066 0.20652 0.36192 0.0
H351 H 0.37757 0.21613 0.35813 0.0
H352 H 0.94724 0.8554 0.41082 0.0
H353 H 0.95435 0.8037 0.40399 0.0
H354 H 0.0365 0.82831 0.38529 0.0
H355 H 0.02991 0.88005 0.39226 0.0
H356 H 0.96022 0.77996 0.37945 0.0
H357 H 0.06194 0.75985 0.40863 0.0
H358 H 0.03794 0.79179 0.41104 0.0
H359 H 0.06379 0.79115 0.39802 0.0
C360 C 0.96686 0.84984 0.40527 0.0
C361 C 0.98815 0.87175 0.40217 0.0
C362 C 0.97082 0.82032 0.40135 0.0
C363 C -0.00389 0.8122 0.39428 0.0
C364 C 0.01711 0.83409 0.39094 0.0
H365 H 0.05044 0.62946 0.37514 0.0
H366 H 0.0467 0.68406 0.37415 0.0
C367 C 0.01325 0.86362 0.3949 0.0
C368 C 0.00052 0.78063 0.39062 0.0
H369 H 0.04467 0.71986 0.3962 0.0
C370 C 0.97881 0.76684 0.38302 0.0
C371 C 0.02491 0.76371 0.39524 0.0
C372 C 0.0484 0.77722 0.40377 0.0
C373 C 0.98043 0.73627 0.38017 0.0
C374 C 0.00418 0.71915 0.38518 0.0
C375 C 0.02656 0.73318 0.39234 0.0
C376 C 0.00469 0.68623 0.38428 0.0
C377 C 0.95653 0.72245 0.37197 0.0
C378 C 0.98219 0.66954 0.39023 0.0
C379 C 0.98433 0.63849 0.39088 0.0
C380 C 0.00907 0.62359 0.38561 0.0
C381 C 0.03108 0.6403 0.37926 0.0
C382 C 0.02901 0.67145 0.37869 0.0
H383 H 0.94554 0.73944 0.36587 0.0
H384 H 0.96595 0.70456 0.36586 0.0
H385 H 0.93911 0.71237 0.37811 0.0
H386 H 0.96355 0.68061 0.39482 0.0
H387 H 0.96698 0.62627 0.39582 0.0
H388 H 0.37906 0.76676 0.63576 0.0
H389 H 0.4315 0.77436 0.63001 0.0
H390 H 0.45176 0.68406 0.64149 0.0
H391 H 0.39937 0.67605 0.64699 0.0
H392 H 0.47693 0.77254 0.64633 0.0
H393 H 0.49744 0.68944 0.60862 0.0
H394 H 0.46019 0.70023 0.61345 0.0
H395 H 0.48064 0.67243 0.62223 0.0
C396 C 0.39461 0.74837 0.63688 0.0
C397 C 0.38513 0.72083 0.64188 0.0
C398 C 0.42451 0.75273 0.63355 0.0
C399 C 0.44542 0.72964 0.63513 0.0
C400 C 0.43587 0.70193 0.63986 0.0
H401 H 0.62435 0.73025 0.65828 0.0
H402 H 0.57048 0.72926 0.6549 0.0
C403 C 0.40595 0.69748 0.64312 0.0
C404 C 0.47769 0.73544 0.63329 0.0
H405 H 0.54116 0.7061 0.62029 0.0
C406 C 0.49087 0.75839 0.64042 0.0
C407 C 0.49584 0.71728 0.62545 0.0
C408 C 0.48272 0.69369 0.6169 0.0
C409 C 0.52192 0.76239 0.64057 0.0
C410 C 0.5402 0.7426 0.63359 0.0
C411 C 0.52701 0.72094 0.62578 0.0
C412 C 0.57296 0.7424 0.63523 0.0
C413 C 0.53497 0.78723 0.64851 0.0
C414 C 0.59216 0.74924 0.62515 0.0
C415 C 0.62314 0.74977 0.62703 0.0
C416 C 0.63522 0.74322 0.63901 0.0
C417 C 0.61581 0.73561 0.64897 0.0
C418 C 0.585 0.73515 0.64708 0.0
H419 H 0.51841 0.80534 0.65016 0.0
H420 H 0.54165 0.77812 0.65786 0.0
H421 H 0.55512 0.79694 0.64394 0.0
H422 H 0.58316 0.75465 0.61591 0.0
H423 H 0.63754 0.7556 0.61917 0.0
H424 H 0.5208 0.37893 0.88427 0.0
H425 H 0.52754 0.32727 0.87726 0.0
H426 H 0.45291 0.30003 0.90044 0.0
H427 H 0.44553 0.35164 0.90724 0.0
H428 H 0.54159 0.28107 0.89208 0.0
H429 H 0.43473 0.25652 0.86798 0.0
H430 H 0.44632 0.29416 0.87174 0.0
H431 H 0.42852 0.2712 0.88355 0.0
C432 C 0.50558 0.36199 0.88775 0.0
C433 C 0.48265 0.36932 0.89633 0.0
C434 C 0.50942 0.33253 0.88371 0.0
C435 C 0.49041 0.30992 0.88815 0.0
C436 C 0.4673 0.31725 0.8966 0.0
H437 H 0.48837 0.12672 0.90248 0.0
H438 H 0.48043 0.1802 0.89952 0.0
C439 C 0.46329 0.34673 0.90058 0.0
C440 C 0.49646 0.27827 0.88501 0.0
H441 H 0.46252 0.21363 0.87566 0.0
C442 C 0.52455 0.26644 0.8882 0.0
C443 C 0.47424 0.25929 0.8799 0.0
C444 C 0.44439 0.27104 0.87547 0.0
C445 C 0.53034 0.23575 0.8872 0.0
C446 C 0.50747 0.21658 0.88284 0.0
C447 C 0.47992 0.22853 0.87904 0.0
C448 C 0.51067 0.18387 0.88363 0.0
C449 C 0.56021 0.22374 0.8915 0.0
C450 C 0.52998 0.16832 0.8755 0.0
C451 C 0.53458 0.13764 0.87714 0.0
C452 C 0.52004 0.12229 0.88699 0.0
C453 C 0.50009 0.13793 0.89487 0.0
C454 C 0.49539 0.16844 0.89316 0.0
H455 H 0.57464 0.24139 0.89567 0.0
H456 H 0.55691 0.20582 0.89863 0.0
H457 H 0.57214 0.21377 0.88331 0.0
H458 H 0.54184 0.18 0.86805 0.0
H459 H 0.55001 0.12615 0.8709 0.0
H460 H 0.14772 0.25242 0.12229 0.0
H461 H 0.09377 0.25105 0.11809 0.0
H462 H 0.07694 0.2344 0.15765 0.0
H463 H 0.13046 0.23599 0.16196 0.0
H464 H 0.05182 0.20464 0.12289 0.0
H465 H 0.02471 0.30773 0.14954 0.0
H466 H 0.06233 0.29846 0.14468 0.0
H467 H 0.04649 0.28183 0.15866 0.0
C468 C 0.13251 0.24848 0.13009 0.0
C469 C 0.14333 0.24453 0.14247 0.0
C470 C 0.10176 0.24771 0.12767 0.0
C471 C 0.08149 0.24318 0.13761 0.0
C472 C 0.09227 0.23857 0.14991 0.0
H473 H 0.90667 0.17757 0.14684 0.0
H474 H 0.9596 0.18483 0.14218 0.0
C475 C 0.12288 0.23934 0.15233 0.0
C476 C 0.04894 0.24279 0.13528 0.0
H477 H 0.98391 0.27401 0.14567 0.0
C478 C 0.0369 0.22008 0.12768 0.0
C479 C 0.02965 0.26338 0.14131 0.0
C480 C 0.04145 0.28942 0.1489 0.0
C481 C 0.00584 0.21623 0.12663 0.0
C482 C 0.98659 0.23529 0.13356 0.0
C483 C -0.00131 0.25918 0.14048 0.0
C484 C 0.95412 0.22957 0.13471 0.0
C485 C 0.99401 0.19154 0.1183 0.0
C486 C 0.93346 0.2524 0.13216 0.0
C487 C 0.90321 0.24849 0.13501 0.0
C488 C 0.89315 0.22167 0.14048 0.0
C489 C 0.91371 0.19845 0.14259 0.0
C490 C 0.94396 0.20246 0.13982 0.0
H491 H 0.00987 0.18639 0.1105 0.0
H492 H 0.99128 0.17094 0.12403 0.0
H493 H 0.97198 0.1975 0.11416 0.0
H494 H 0.94089 0.27356 0.1283 0.0
H495 H 0.88788 0.26675 0.13321 0.0
H496 H 0.98951 0.94418 0.45091 0.0
H497 H 0.9867 0.94604 0.47403 0.0
H498 H 0.01163 0.03912 0.47335 0.0
H499 H 0.01438 0.0376 0.45025 0.0
H500 H 0.03331 0.9628 0.49139 0.0
H501 H 0.93376 0.0369 0.49471 0.0
H502 H 0.94362 0.01717 0.48038 0.0
H503 H 0.96349 0.05046 0.4848 0.0
C504 C -0.00565 0.96508 0.45567 0.0
C505 C 0.00205 0.99079 0.44874 0.0
C506 C 0.99274 0.96607 0.46887 0.0
C507 C -0.00144 0.9928 0.47534 0.0
C508 C 0.00657 0.01841 0.46849 0.0
H509 H 0.00103 0.04686 0.5539 0.0
H510 H 0.00296 0.04408 0.53081 0.0
C511 C 0.00827 0.01744 0.4553 0.0
C512 C -0.00321 0.99378 0.4893 0.0
H513 H 0.95908 0.02604 0.51385 0.0
C514 C 0.01701 0.97649 0.49633 0.0
C515 C 0.97553 0.01174 0.49566 0.0
C516 C 0.95267 0.02997 0.48853 0.0
C517 C 0.01694 0.97714 0.5096 0.0
C518 C -0.00435 -0.0049 0.51597 0.0
C519 C 0.97536 0.01231 0.50893 0.0
C520 C 0.99421 -0.00344 0.52995 0.0
C521 C 0.04015 0.95922 0.51667 0.0
C522 C 0.98818 0.97083 0.53709 0.0
C523 C 0.98717 0.9723 0.55029 0.0
C524 C 0.99191 -0.00039 0.55657 0.0
C525 C -0.00264 0.02546 0.54936 0.0
C526 C -0.00154 0.02394 0.53617 0.0
H527 H 0.05935 0.95311 0.51051 0.0
H528 H 0.04873 0.97184 0.52497 0.0
H529 H 0.02983 0.93823 0.52016 0.0
H530 H 0.98418 0.94961 0.53245 0.0
H531 H 0.9827 0.95203 0.55556 0.0
H532 H 0.21354 0.75265 0.7961 0.0
H533 H 0.21895 0.75137 0.7731 0.0
H534 H 0.31 0.72096 0.77706 0.0
H535 H 0.30484 0.72201 0.80013 0.0
H536 H 0.26299 0.78416 0.75884 0.0
H537 H 0.27128 0.66118 0.75168 0.0
H538 H 0.2562 0.67748 0.76597 0.0
H539 H 0.29587 0.6771 0.76334 0.0
C540 C 0.23468 0.74547 0.7921 0.0
C541 C 0.25877 0.73741 0.79995 0.0
C542 C 0.23771 0.74479 0.77896 0.0
C543 C 0.26476 0.73581 0.77342 0.0
C544 C 0.28881 0.72753 0.78118 0.0
H545 H 0.31704 0.72156 0.69408 0.0
H546 H 0.3165 0.72072 0.71725 0.0
C547 C 0.28584 0.72828 0.79435 0.0
C548 C 0.26802 0.73634 0.75951 0.0
H549 H 0.27718 0.69165 0.73361 0.0
C550 C 0.26611 0.76397 0.7533 0.0
C551 C 0.27232 0.70994 0.75238 0.0
C552 C 0.27385 0.67966 0.75862 0.0
C553 C 0.26834 0.76594 0.7401 0.0
C554 C 0.27191 0.73947 0.73292 0.0
C555 C 0.27437 0.71187 0.73915 0.0
C556 C 0.27224 0.73992 0.71892 0.0
C557 C 0.26718 0.79639 0.73397 0.0
C558 C 0.24736 0.75057 0.71222 0.0
C559 C 0.24762 0.75119 0.69902 0.0
C560 C 0.2727 0.74089 0.69226 0.0
C561 C 0.29743 0.72975 0.699 0.0
C562 C 0.29716 0.72922 0.71223 0.0
H563 H 0.27313 0.81439 0.74077 0.0
H564 H 0.28259 0.79764 0.72574 0.0
H565 H 0.24411 0.80072 0.73056 0.0
H566 H 0.22763 0.75828 0.71721 0.0
H567 H 0.22811 0.75968 0.69412 0.0
H568 H 0.43733 0.97976 0.04557 0.0
H569 H 0.43895 0.98981 0.02281 0.0
H570 H 0.53531 0.98546 0.02358 0.0
H571 H 0.53399 0.97523 0.04628 0.0
H572 H 0.46905 0.03825 0.01044 0.0
H573 H 0.51128 0.92734 0.99487 0.0
H574 H 0.49492 0.93345 0.01029 0.0
H575 H 0.53277 0.9448 0.00719 0.0
C576 C 0.45887 0.98079 0.04089 0.0
C577 C 0.48553 0.97658 0.04772 0.0
C578 C 0.45973 0.98657 0.0279 0.0
C579 C 0.48722 0.98798 0.02153 0.0
C580 C 0.51386 0.98393 0.02831 0.0
H581 H 0.54423 0.02131 0.94471 0.0
H582 H 0.54086 0.01163 0.96743 0.0
C583 C 0.51304 0.97823 0.04129 0.0
C584 C 0.48814 -0.00551 0.00783 0.0
H585 H 0.50984 0.96565 0.97938 0.0
C586 C 0.47778 0.02236 0.00361 0.0
C587 C 0.49964 0.97368 -0.00099 0.0
C588 C 0.51007 0.94302 0.00301 0.0
C589 C 0.47925 0.03027 0.99078 0.0
C590 C 0.49085 0.00949 0.98196 0.0
C591 C 0.50103 0.98154 0.98619 0.0
C592 C 0.49272 0.01625 0.96829 0.0
C593 C 0.4691 0.06106 0.98684 0.0
C594 C 0.46672 0.02188 0.96126 0.0
C595 C 0.46855 0.02753 0.94828 0.0
C596 C 0.49643 0.02739 0.9421 0.0
C597 C 0.52243 0.02165 0.94919 0.0
C598 C 0.52056 0.01608 0.96216 0.0
H599 H 0.46822 0.07672 0.995 0.0
H600 H 0.48422 0.07053 0.97952 0.0
H601 H 0.44629 0.05956 0.98275 0.0
H602 H 0.44496 0.02149 0.96577 0.0
H603 H 0.44809 0.03167 0.94308 0.0
H604 H 0.24246 0.27934 0.20044 0.0
H605 H 0.25364 0.2814 0.22312 0.0
H606 H 0.24658 0.18545 0.22538 0.0
H607 H 0.23541 0.18307 0.20276 0.0
H608 H 0.21697 0.25736 0.2438 0.0
H609 H 0.33022 0.20643 0.24085 0.0
H610 H 0.31165 0.22269 0.22732 0.0
H611 H 0.30093 0.18632 0.23288 0.0
C612 C 0.24329 0.25867 0.20576 0.0
C613 C 0.23815 0.23102 0.1998 0.0
C614 C 0.24966 0.25991 0.2187 0.0
C615 C 0.2513 0.23355 0.22583 0.0
C616 C 0.24584 0.20598 0.21996 0.0
H617 H 0.28687 0.18564 0.30333 0.0
H618 H 0.27756 0.18711 0.28055 0.0
C619 C 0.23931 0.20471 0.20705 0.0
C620 C 0.25825 0.2348 0.23948 0.0
H621 H 0.31007 0.21347 0.26138 0.0
C622 C 0.23739 0.24798 0.24768 0.0
C623 C 0.28488 0.22244 0.24442 0.0
C624 C 0.30838 0.20886 0.23593 0.0
C625 C 0.24208 0.24839 0.2608 0.0
C626 C 0.26869 0.23589 0.26578 0.0
C627 C 0.2897 0.22302 0.25753 0.0
C628 C 0.27488 0.23534 0.27953 0.0
C629 C 0.2181 0.26133 0.26925 0.0
C630 C 0.27699 0.26202 0.28646 0.0
C631 C 0.28216 0.26127 0.2995 0.0
C632 C 0.28563 0.2338 0.3058 0.0
C633 C 0.28425 0.20716 0.29877 0.0
C634 C 0.27893 0.20794 0.28575 0.0
H635 H 0.19619 0.26276 0.26432 0.0
H636 H 0.21528 0.2477 0.27794 0.0
H637 H 0.22463 0.28428 0.27212 0.0
H638 H 0.27464 0.28343 0.28179 0.0
H639 H 0.28334 0.2822 0.30463 0.0
H640 H 0.72988 0.23382 0.19155 0.0
H641 H 0.72871 0.23037 0.21463 0.0
H642 H 0.82513 0.22776 0.21554 0.0
H643 H 0.8266 0.2315 0.19244 0.0
H644 H 0.75317 0.18467 0.23017 0.0
H645 H 0.80348 0.29589 0.24022 0.0
H646 H 0.78861 0.2861 0.22489 0.0
H647 H 0.82454 0.27225 0.22974 0.0
C648 C 0.75087 0.23262 0.19664 0.0
C649 C 0.77834 0.2331 0.19017 0.0
C650 C 0.75014 0.2306 0.20982 0.0
C651 C 0.77683 0.22918 0.21676 0.0
C652 C 0.8043 0.22936 0.21035 0.0
H653 H 0.80669 0.2242 0.29839 0.0
H654 H 0.81371 0.22263 0.27541 0.0
C655 C 0.80507 0.23137 0.19715 0.0
C656 C 0.77576 0.22716 0.23072 0.0
H657 H 0.79336 0.26491 0.25778 0.0
C658 C 0.76198 0.20217 0.23622 0.0
C659 C 0.78744 0.24998 0.23855 0.0
C660 C 0.80166 0.27772 0.2331 0.0
C661 C 0.75948 0.19941 0.2494 0.0
C662 C 0.7706 0.22252 0.25723 0.0
C663 C 0.7849 0.24723 0.25173 0.0
C664 C 0.7664 0.22218 0.27111 0.0
C665 C 0.74515 0.17171 0.25483 0.0
C666 C 0.73749 0.22266 0.27625 0.0
C667 C 0.73339 0.22357 0.28934 0.0
C668 C 0.75817 0.2242 0.29753 0.0
C669 C 0.78715 0.22366 0.29234 0.0
C670 C 0.79121 0.22278 0.27923 0.0
H671 H 0.74568 0.15283 0.248 0.0
H672 H 0.7565 0.16466 0.26369 0.0
H673 H 0.72138 0.17654 0.25709 0.0
H674 H 0.71805 0.22285 0.27013 0.0
H675 H 0.71077 0.22409 0.29302 0.0
H676 H 0.7975 0.76755 0.69562 0.0
H677 H 0.80127 0.76504 0.7187 0.0
H678 H 0.70826 0.74 0.72102 0.0
H679 H 0.7044 0.74186 0.69798 0.0
H680 H 0.77024 0.79631 0.73706 0.0
H681 H 0.74901 0.67454 0.7414 0.0
H682 H 0.75759 0.69213 0.72647 0.0
H683 H 0.72038 0.69422 0.73291 0.0
C684 C 0.77786 0.76146 0.70104 0.0
C685 C 0.75071 0.75467 0.69497 0.0
C686 C 0.78006 0.76004 0.71422 0.0
C687 C 0.7552 0.75179 0.72153 0.0
C688 C 0.7279 0.74569 0.71552 0.0
H689 H 0.71996 0.73524 0.80178 0.0
H690 H 0.71672 0.73847 0.7787 0.0
C691 C 0.72571 0.74694 0.70236 0.0
C692 C 0.75768 0.74999 0.73547 0.0
H693 H 0.74926 0.70258 0.76052 0.0
C694 C 0.76583 0.77579 0.74219 0.0
C695 C 0.75192 0.72315 0.74212 0.0
C696 C 0.74452 0.69435 0.73536 0.0
C697 C 0.76782 0.77563 0.75544 0.0
C698 C 0.76179 0.74887 0.76208 0.0
C699 C 0.75372 0.72306 0.75537 0.0
C700 C 0.76389 0.74716 0.77601 0.0
C701 C 0.77577 0.80417 0.76227 0.0
C702 C 0.79157 0.75063 0.78206 0.0
C703 C 0.79354 0.74872 0.79522 0.0
C704 C 0.76783 0.74325 0.80254 0.0
C705 C 0.74016 0.73956 0.79642 0.0
C706 C 0.73824 0.74137 0.78324 0.0
H707 H 0.77323 0.82408 0.75608 0.0
H708 H 0.76154 0.80718 0.77079 0.0
H709 H 0.79943 0.80302 0.76541 0.0
H710 H 0.81168 0.75464 0.77659 0.0
H711 H 0.8152 0.7516 0.79965 0.0
H712 H 0.48927 0.43781 0.94621 0.0
H713 H 0.48815 0.43885 0.96936 0.0
H714 H 0.48828 0.53524 0.96868 0.0
H715 H 0.48895 0.53447 0.94557 0.0
H716 H 0.53 0.46424 0.98557 0.0
H717 H 0.41843 0.51632 0.99225 0.0
H718 H 0.43031 0.5006 0.97733 0.0
H719 H 0.44277 0.53718 0.98202 0.0
C720 C 0.48886 0.45924 0.95098 0.0
C721 C 0.48909 0.48607 0.94405 0.0
C722 C 0.48823 0.45978 0.9642 0.0
C723 C 0.48767 0.48711 0.97071 0.0
C724 C 0.48802 0.51391 0.96383 0.0
H725 H 0.49779 0.54402 0.04858 0.0
H726 H 0.49542 0.54013 0.02552 0.0
C727 C 0.48859 0.51341 0.95062 0.0
C728 C 0.48795 0.48765 0.98471 0.0
H729 H 0.44957 0.51313 0.01049 0.0
C730 C 0.51231 0.47469 0.99103 0.0
C731 C 0.46482 0.50134 0.99179 0.0
C732 C 0.43745 0.51441 0.98552 0.0
C733 C 0.51457 0.47575 0.00427 0.0
C734 C 0.49163 0.48977 0.01132 0.0
C735 C 0.46713 0.50248 0.00502 0.0
C736 C 0.49287 0.49186 0.02528 0.0
C737 C 0.54184 0.46259 0.01057 0.0
C738 C 0.49184 0.46598 0.03275 0.0
C739 C 0.49318 0.46809 0.04592 0.0
C740 C 0.49548 0.49616 0.05185 0.0
C741 C 0.49614 0.52206 0.04432 0.0
C742 C 0.49474 0.51991 0.03114 0.0
H743 H 0.56033 0.45873 0.00373 0.0
H744 H 0.55005 0.47748 0.01823 0.0
H745 H 0.53584 0.44078 0.01488 0.0
H746 H 0.48988 0.44415 0.02838 0.0
H747 H 0.49248 0.44773 0.05145 0.0
H748 H 0.01709 0.44192 0.54294 0.0
H749 H 0.01826 0.44676 0.51992 0.0
H750 H 0.00818 0.54231 0.52335 0.0
H751 H 0.00748 0.53778 0.54641 0.0
H752 H 0.97419 0.46997 0.50435 0.0
H753 H 0.07981 0.53434 0.49958 0.0
H754 H 0.06947 0.51541 0.51402 0.0
H755 H 0.05292 0.55085 0.51011 0.0
C756 C 0.01531 0.46401 0.53881 0.0
C757 C 0.01228 0.4895 0.5465 0.0
C758 C 0.01596 0.46671 0.52566 0.0
C759 C 0.01372 0.49491 0.51995 0.0
C760 C 0.01059 0.5204 0.52758 0.0
H761 H 0.00205 0.55342 0.44183 0.0
H762 H 0.00249 0.55019 0.46495 0.0
C763 C 0.01001 0.51774 0.54075 0.0
C764 C 0.01357 0.49744 0.50599 0.0
H765 H 0.05063 0.52842 0.48097 0.0
C766 C 0.99097 0.48264 0.49923 0.0
C767 C 0.03547 0.51405 0.49936 0.0
C768 C 0.06096 0.52936 0.50611 0.0
C769 C 0.98948 0.48427 0.486 0.0
C770 C 0.01138 0.50083 0.47938 0.0
C771 C 0.03389 0.51577 0.48612 0.0
C772 C 0.0114 0.50269 0.46543 0.0
C773 C 0.96425 0.46866 0.47919 0.0
C774 C 0.01666 0.47708 0.4581 0.0
C775 C 0.01651 0.47882 0.44491 0.0
C776 C 0.0111 0.50624 0.43883 0.0
C777 C 0.00615 0.53194 0.44622 0.0
C778 C 0.00644 0.53018 0.45942 0.0
H779 H 0.94573 0.46264 0.48573 0.0
H780 H 0.95517 0.48296 0.47151 0.0
H781 H 0.97282 0.44776 0.47484 0.0
H782 H 0.02097 0.45576 0.4626 0.0
H783 H 0.0205 0.45865 0.43949 0.0
H784 H 0.21938 0.76888 0.61576 0.0
H785 H 0.18293 0.80772 0.61058 0.0
H786 H 0.20832 0.85684 0.64403 0.0
H787 H 0.24443 0.81786 0.64942 0.0
H788 H 0.14793 0.8505 0.64187 0.0
H789 H 0.19578 0.89149 0.59671 0.0
H790 H 0.18998 0.85179 0.59688 0.0
H791 H 0.21663 0.8683 0.60756 0.0
C792 C 0.21744 0.78809 0.62195 0.0
C793 C 0.23481 0.7903 0.63299 0.0
C794 C 0.19672 0.81035 0.61893 0.0
C795 C 0.19326 0.83535 0.62683 0.0
C796 C 0.21079 0.83778 0.63778 0.0
H797 H 0.0846 0.99056 0.60722 0.0
H798 H 0.12594 0.95769 0.61328 0.0
C799 C 0.23141 0.81549 0.64084 0.0
C800 C 0.17013 0.85808 0.62406 0.0
H801 H 0.14561 0.90644 0.60136 0.0
C802 C 0.14755 0.86293 0.63306 0.0
C803 C 0.16993 0.87454 0.61264 0.0
C804 C 0.19454 0.87153 0.60294 0.0
C805 C 0.12424 0.88321 0.6308 0.0
C806 C 0.12323 0.89854 0.61911 0.0
C807 C 0.14629 0.89438 0.61026 0.0
C808 C 0.09812 0.91856 0.61577 0.0
C809 C 0.10103 0.88812 0.64096 0.0
C810 C 0.06887 0.90735 0.61507 0.0
C811 C 0.04521 0.92605 0.61167 0.0
C812 C 0.05044 0.95626 0.60878 0.0
C813 C 0.07982 0.96741 0.60942 0.0
C814 C 0.10347 0.94868 0.61286 0.0
H815 H 0.1096 0.88171 0.65045 0.0
H816 H 0.09377 0.91185 0.64129 0.0
H817 H 0.08116 0.87408 0.63891 0.0
H818 H 0.06438 0.884 0.61701 0.0
H819 H 0.02289 0.91671 0.61117 0.0
H820 H 0.27093 0.80557 0.87927 0.0
H821 H 0.30896 0.84115 0.8863 0.0
H822 H 0.32771 0.86431 0.84749 0.0
H823 H 0.28995 0.82861 0.84034 0.0
H824 H 0.3785 0.84946 0.86172 0.0
H825 H 0.30784 0.9332 0.88649 0.0
H826 H 0.30147 0.89524 0.89133 0.0
H827 H 0.2927 0.9064 0.87542 0.0
C828 C 0.28288 0.81847 0.87223 0.0
C829 C 0.27746 0.81423 0.85925 0.0
C830 C 0.30448 0.8389 0.87627 0.0
C831 C 0.32086 0.85552 0.86741 0.0
C832 C 0.31516 0.85174 0.85446 0.0
H833 H 0.44431 0.00046 0.88367 0.0
H834 H 0.4035 0.96955 0.87554 0.0
C835 C 0.29357 0.83135 0.85041 0.0
C836 C 0.34529 0.87543 0.8716 0.0
H837 H 0.36046 0.93682 0.88966 0.0
C838 C 0.37458 0.86867 0.86777 0.0
C839 C 0.33997 0.90057 0.87939 0.0
C840 C 0.30877 0.90953 0.88332 0.0
C841 C 0.39887 0.88609 0.87175 0.0
C842 C 0.39367 0.91061 0.87989 0.0
C843 C 0.36432 0.91779 0.8835 0.0
C844 C 0.41847 0.9291 0.88478 0.0
C845 C 0.42985 0.87826 0.86713 0.0
C846 C 0.44017 0.91655 0.89275 0.0
C847 C 0.46353 0.93411 0.89741 0.0
C848 C 0.46546 0.96454 0.89421 0.0
C849 C 0.44352 0.97706 0.88628 0.0
C850 C 0.42016 0.95949 0.88164 0.0
H851 H 0.42915 0.86371 0.85861 0.0
H852 H 0.44279 0.89874 0.86484 0.0
H853 H 0.44196 0.86604 0.87469 0.0
H854 H 0.43892 0.89322 0.89544 0.0
H855 H 0.47997 0.92383 0.90355 0.0
H856 H 0.4307 0.02117 0.09392 0.0
H857 H 0.39603 0.05696 0.10344 0.0
H858 H 0.42608 0.03139 0.14066 0.0
H859 H 0.46075 -0.00472 0.13125 0.0
H860 H 0.36216 0.03821 0.13801 0.0
H861 H 0.42634 0.1356 0.11989 0.0
H862 H 0.41584 0.10866 0.10808 0.0
H863 H 0.44166 0.09826 0.12034 0.0
C864 C 0.42982 0.02296 0.10414 0.0
C865 C 0.44868 0.00558 0.11184 0.0
C866 C 0.41007 0.04349 0.10954 0.0
C867 C 0.40891 0.04706 0.12271 0.0
C868 C 0.42682 0.02898 0.13046 0.0
H869 H 0.33714 0.19998 0.16267 0.0
H870 H 0.36819 0.15889 0.15493 0.0
C871 C 0.44662 0.00843 0.12506 0.0
C872 C 0.38976 0.07041 0.12838 0.0
H873 H 0.37982 0.14593 0.12969 0.0
C874 C 0.36598 0.06178 0.13623 0.0
C875 C 0.39518 0.10108 0.12615 0.0
C876 C 0.42128 0.11159 0.11825 0.0
C877 C 0.34705 0.08315 0.14177 0.0
C878 C 0.35196 0.11379 0.13923 0.0
C879 C 0.37604 0.12238 0.13154 0.0
C880 C 0.33252 0.13748 0.14448 0.0
C881 C 0.32225 0.07283 0.15041 0.0
C882 C 0.3022 0.13903 0.14113 0.0
C883 C 0.28436 0.16248 0.14554 0.0
C884 C 0.29665 0.18489 0.15329 0.0
C885 C 0.32699 0.1831 0.1567 0.0
C886 C 0.34477 0.15965 0.1523 0.0
H887 H 0.32613 0.04971 0.15388 0.0
H888 H 0.31994 0.08797 0.15868 0.0
H889 H 0.30079 0.07304 0.14513 0.0
H890 H 0.29248 0.12244 0.13489 0.0
H891 H 0.26109 0.16328 0.1427 0.0
H892 H 0.07939 0.00219 0.3929 0.0
H893 H 0.11823 0.03453 0.38398 0.0
H894 H 0.05668 0.10876 0.38406 0.0
H895 H 0.01771 0.07673 0.39298 0.0
H896 H 0.1147 0.06946 0.36056 0.0
H897 H 0.13253 0.13847 0.40368 0.0
H898 H 0.11464 0.10228 0.40412 0.0
H899 H 0.09423 0.13444 0.39875 0.0
C900 C 0.07413 0.02542 0.39105 0.0
C901 C 0.04551 0.03695 0.39369 0.0
C902 C 0.09631 0.04379 0.38594 0.0
C903 C 0.09031 0.074 0.38351 0.0
C904 C 0.06177 0.08554 0.38604 0.0
H905 H 0.18184 0.20628 0.33881 0.0
H906 H 0.14725 0.16909 0.34737 0.0
C907 C 0.03953 0.06718 0.39109 0.0
C908 C 0.1138 0.09349 0.37822 0.0
H909 H 0.15609 0.15499 0.38481 0.0
C910 C 0.12392 0.08808 0.36586 0.0
C911 C 0.12589 0.11749 0.38524 0.0
C912 C 0.11652 0.12349 0.39873 0.0
C913 C 0.14537 0.10665 0.3602 0.0
C914 C 0.15671 0.13125 0.36708 0.0
C915 C 0.14715 0.13618 0.37955 0.0
C916 C 0.17818 0.15253 0.36147 0.0
C917 C 0.15583 0.0998 0.34693 0.0
C918 C 0.20686 0.15563 0.36666 0.0
C919 C 0.22667 0.17686 0.36181 0.0
C920 C 0.21796 0.19555 0.35176 0.0
C921 C 0.18924 0.19221 0.34653 0.0
C922 C 0.1695 0.17087 0.35136 0.0
H923 H 0.15039 0.0765 0.34411 0.0
H924 H 0.14457 0.11518 0.34021 0.0
H925 H 0.18035 0.10321 0.34605 0.0
H926 H 0.21384 0.14173 0.37451 0.0
H927 H 0.24863 0.1789 0.36605 0.0
H928 H 0.91357 0.9707 0.38649 0.0
H929 H 0.87212 0.99189 0.37434 0.0
H930 H 0.85847 0.05842 0.40334 0.0
H931 H 0.89931 0.03686 0.41572 0.0
H932 H 0.80523 0.03695 0.3934 0.0
H933 H 0.8845 0.06958 0.35521 0.0
H934 H 0.88348 0.03033 0.3587 0.0
H935 H 0.89703 0.05619 0.3704 0.0
C936 C 0.90152 0.98964 0.39034 0.0
C937 C 0.90995 0.00241 0.40197 0.0
C938 C 0.87793 0.00176 0.38337 0.0
C939 C 0.86274 0.02712 0.38781 0.0
C940 C 0.87005 0.03892 0.39972 0.0
H941 H 0.75442 0.17013 0.36366 0.0
H942 H 0.78068 0.13078 0.37511 0.0
C943 C 0.89342 0.02661 0.40677 0.0
C944 C 0.8406 0.04267 0.37976 0.0
H945 H 0.83412 0.08272 0.35242 0.0
C946 C 0.81143 0.04672 0.38438 0.0
C947 C 0.84881 0.05539 0.368 0.0
C948 C 0.8802 0.05294 0.3628 0.0
C949 C 0.79041 0.06378 0.37767 0.0
C950 C 0.79895 0.07721 0.36612 0.0
C951 C 0.82768 0.07217 0.36126 0.0
C952 C 0.77975 0.0992 0.3596 0.0
C953 C 0.75942 0.06771 0.38306 0.0
C954 C 0.77067 0.09449 0.34705 0.0
C955 C 0.75566 0.11702 0.34043 0.0
C956 C 0.74998 0.14474 0.34624 0.0
C957 C 0.75854 0.14906 0.35891 0.0
C958 C 0.7733 0.1265 0.36552 0.0
H959 H 0.7537 0.04947 0.38977 0.0
H960 H 0.75836 0.08919 0.38831 0.0
H961 H 0.74235 0.06834 0.37543 0.0
H962 H 0.77579 0.07363 0.3423 0.0
H963 H 0.74938 0.11306 0.33068 0.0
H964 H 0.59945 0.97518 0.10332 0.0
H965 H 0.64321 -0.00354 0.11401 0.0
H966 H 0.60441 0.08445 0.11115 0.0
H967 H 0.5607 0.06355 0.1005 0.0
H968 H 0.68277 0.04325 0.10477 0.0
H969 H 0.62481 0.0736 0.14939 0.0
H970 H 0.60981 0.04678 0.13829 0.0
H971 H 0.60588 0.08617 0.13537 0.0
C972 C 0.60024 -0.00093 0.10497 0.0
C973 C 0.57657 0.0177 0.1011 0.0
C974 C 0.62523 0.01113 0.11107 0.0
C975 C 0.62672 0.04189 0.1135 0.0
C976 C 0.60336 0.06055 0.10952 0.0
H977 H 0.75738 0.17282 0.12655 0.0
H978 H 0.72383 0.1348 0.11811 0.0
C979 C 0.57849 0.04859 0.10338 0.0
C980 C 0.65289 0.0549 0.11999 0.0
H981 H 0.67202 0.09718 0.14558 0.0
C982 C 0.68063 0.05465 0.11379 0.0
C983 C 0.65006 0.06925 0.13184 0.0
C984 C 0.62111 0.06878 0.13919 0.0
C985 C 0.70526 0.07006 0.11881 0.0
C986 C 0.70179 0.08626 0.13021 0.0
C987 C 0.67455 0.08491 0.13678 0.0
C988 C 0.72497 0.10706 0.13487 0.0
C989 C 0.73457 0.06939 0.11173 0.0
C990 C 0.73662 0.10413 0.14714 0.0
C991 C 0.75576 0.12597 0.15204 0.0
C992 C 0.7632 0.15124 0.14478 0.0
C993 C 0.75209 0.15364 0.13238 0.0
C994 C 0.7331 0.13179 0.12749 0.0
H995 H 0.73646 0.04906 0.10574 0.0
H996 H 0.73589 0.08917 0.10543 0.0
H997 H 0.75386 0.0701 0.11835 0.0
H998 H 0.73034 0.0853 0.15301 0.0
H999 H 0.76392 0.12351 0.16163 0.0
H1000 H 0.755 0.80944 0.86581 0.0
H1001 H 0.72822 0.8517 0.87505 0.0
H1002 H 0.73925 0.90142 0.84042 0.0
H1003 H 0.76603 0.85908 0.831 0.0
H1004 H 0.74636 0.91425 0.87793 0.0
H1005 H 0.64709 0.89761 0.84679 0.0
H1006 H 0.67523 0.86908 0.84887 0.0
H1007 H 0.68296 0.90113 0.83921 0.0
C1008 C 0.75189 0.82939 0.86015 0.0
C1009 C 0.76239 0.83082 0.84762 0.0
C1010 C 0.7367 0.85354 0.86548 0.0
C1011 C 0.7316 0.87947 0.85837 0.0
C1012 C 0.74276 0.88141 0.84599 0.0
H1013 H 0.60375 0.01848 0.87951 0.0
H1014 H 0.64459 0.99317 0.86843 0.0
C1015 C 0.75806 0.85724 0.84064 0.0
C1016 C 0.71326 0.90371 0.86382 0.0
H1017 H 0.64366 0.93465 0.86239 0.0
C1018 C 0.72403 0.91904 0.87447 0.0
C1019 C 0.68425 0.90989 0.85921 0.0
C1020 C 0.67146 0.89352 0.84794 0.0
C1021 C 0.70615 0.93998 0.88085 0.0
C1022 C 0.6766 0.94511 0.87659 0.0
C1023 C 0.66634 0.93067 0.86563 0.0
C1024 C 0.65496 0.96326 0.8839 0.0
C1025 C 0.719 0.95617 0.89213 0.0
C1026 C 0.6475 0.95504 0.89633 0.0
C1027 C 0.62426 0.96949 0.90269 0.0
C1028 C 0.6078 0.99216 0.89668 0.0
C1029 C 0.61595 0.00102 0.88439 0.0
C1030 C 0.63929 0.98663 0.87805 0.0
H1031 H 0.74376 0.95772 0.8915 0.0
H1032 H 0.70964 0.97907 0.893 0.0
H1033 H 0.71345 0.94356 0.90086 0.0
H1034 H 0.65877 0.93656 0.90091 0.0
H1035 H 0.61848 0.96206 0.91214 0.0
H1036 H 0.76557 0.80868 0.63181 0.0
H1037 H 0.79478 0.8502 0.62343 0.0
H1038 H 0.76049 0.90794 0.65272 0.0
H1039 H 0.7308 0.86637 0.66122 0.0
H1040 H 0.76478 0.93374 0.62663 0.0
H1041 H 0.86901 0.88039 0.64414 0.0
H1042 H 0.84555 0.8562 0.63488 0.0
H1043 H 0.83236 0.87005 0.64985 0.0
C1044 C 0.76395 0.83024 0.63643 0.0
C1045 C 0.74615 0.83416 0.64728 0.0
C1046 C 0.78066 0.85392 0.63162 0.0
C1047 C 0.78002 0.88188 0.63758 0.0
C1048 C 0.76126 0.88639 0.64804 0.0
H1049 H 0.92616 0.00444 0.62261 0.0
H1050 H 0.8858 0.97808 0.63344 0.0
C1051 C 0.74441 0.86265 0.65288 0.0
C1052 C 0.80055 0.90559 0.63327 0.0
H1053 H 0.87477 0.92041 0.62958 0.0
C1054 C 0.78884 0.93113 0.62738 0.0
C1055 C 0.83184 0.90221 0.63448 0.0
C1056 C 0.84552 0.87588 0.64128 0.0
C1057 C 0.80784 0.9529 0.62216 0.0
C1058 C 0.83918 0.9486 0.62273 0.0
C1059 C 0.85074 0.92361 0.62909 0.0
C1060 C 0.86069 0.96879 0.61638 0.0
C1061 C 0.7942 0.98017 0.61607 0.0
C1062 C 0.85967 0.97281 0.60321 0.0
C1063 C 0.88265 0.98807 0.59699 0.0
C1064 C 0.90724 -0.00091 0.60383 0.0
C1065 C 0.90762 -0.004 0.61706 0.0
C1066 C 0.88454 0.98102 0.62327 0.0
H1067 H 0.77153 0.98482 0.61991 0.0
H1068 H 0.80846 0.0002 0.61751 0.0
H1069 H 0.79195 0.97622 0.60575 0.0
H1070 H 0.84187 0.96294 0.59766 0.0
H1071 H 0.8818 0.99001 0.58678 0.0
H1072 H 0.75388 0.32425 0.1481 0.0
H1073 H 0.71703 0.36239 0.14243 0.0
H1074 H 0.69707 0.31472 0.10796 0.0
H1075 H 0.73432 0.27688 0.11339 0.0
H1076 H 0.70112 0.37533 0.10432 0.0
H1077 H 0.62724 0.3492 0.14513 0.0
H1078 H 0.6648 0.35919 0.14941 0.0
H1079 H 0.65808 0.3255 0.14057 0.0
C1080 C 0.74177 0.32197 0.13928 0.0
C1081 C 0.74683 0.29742 0.13124 0.0
C1082 C 0.72062 0.3437 0.13609 0.0
C1083 C 0.70394 0.34103 0.12491 0.0
C1084 C 0.70963 0.31708 0.11668 0.0
H1085 H 0.53382 0.41703 0.10562 0.0
H1086 H 0.57622 0.38586 0.11174 0.0
C1087 C 0.7309 0.29547 0.1198 0.0
C1088 C 0.68005 0.36276 0.12185 0.0
H1089 H 0.61302 0.38989 0.13223 0.0
C1090 C 0.68188 0.37862 0.11042 0.0
C1091 C 0.65484 0.36666 0.12978 0.0
C1092 C 0.65087 0.34907 0.14185 0.0
C1093 C 0.65903 0.3982 0.10666 0.0
C1094 C 0.63404 0.40244 0.11469 0.0
C1095 C 0.63235 0.38675 0.12615 0.0
C1096 C 0.60859 0.42179 0.11107 0.0
C1097 C 0.66138 0.41335 0.09394 0.0
C1098 C 0.6127 0.45242 0.10882 0.0
C1099 C 0.5885 0.4703 0.10522 0.0
C1100 C 0.55976 0.45787 0.10397 0.0
C1101 C 0.55567 0.4273 0.10649 0.0
C1102 C 0.57987 0.40944 0.10999 0.0
H1103 H 0.67797 0.40213 0.0877 0.0
H1104 H 0.6394 0.41362 0.08905 0.0
H1105 H 0.6687 0.43682 0.09532 0.0
H1106 H 0.63457 0.46251 0.10988 0.0
H1107 H 0.59232 0.49384 0.10345 0.0
H1108 H 0.76494 0.3211 0.33921 0.0
H1109 H 0.79875 0.36134 0.3456 0.0
H1110 H 0.81715 0.31516 0.38056 0.0
H1111 H 0.78292 0.27518 0.37439 0.0
H1112 H 0.80955 0.37606 0.38383 0.0
H1113 H 0.88943 0.35173 0.34484 0.0
H1114 H 0.85196 0.35977 0.33976 0.0
H1115 H 0.85928 0.32676 0.34894 0.0
C1116 C 0.77603 0.3196 0.34829 0.0
C1117 C 0.77149 0.29481 0.35624 0.0
C1118 C 0.79543 0.34254 0.3519 0.0
C1119 C 0.81086 0.3409 0.36344 0.0
C1120 C 0.80554 0.31675 0.37159 0.0
H1121 H 0.97516 0.42277 0.38622 0.0
H1122 H 0.93436 0.39026 0.3795 0.0
C1123 C 0.78601 0.2939 0.36803 0.0
C1124 C 0.83332 0.36376 0.36689 0.0
H1125 H 0.90053 0.39303 0.35791 0.0
C1126 C 0.8294 0.37991 0.37816 0.0
C1127 C 0.85933 0.36839 0.35951 0.0
C1128 C 0.8655 0.35059 0.34765 0.0
C1129 C 0.85097 0.40047 0.38232 0.0
C1130 C 0.87681 0.40532 0.37486 0.0
C1131 C 0.88055 0.38938 0.36354 0.0
C1132 C 0.90116 0.42546 0.37899 0.0
C1133 C 0.84642 0.41601 0.39485 0.0
C1134 C 0.89605 0.45611 0.38081 0.0
C1135 C 0.91935 0.47479 0.38473 0.0
C1136 C 0.94818 0.46312 0.38676 0.0
C1137 C 0.95324 0.43248 0.38475 0.0
C1138 C 0.92995 0.41385 0.3809 0.0
H1139 H 0.82915 0.40472 0.40071 0.0
H1140 H 0.86763 0.41688 0.4003 0.0
H1141 H 0.83891 0.4393 0.39313 0.0
H1142 H 0.87412 0.46561 0.37913 0.0
H1143 H 0.91479 0.49835 0.38613 0.0
H1144 H 0.92282 0.50635 0.58988 0.0
H1145 H 0.88503 0.54176 0.59737 0.0
H1146 H 0.9316 0.54978 0.63295 0.0
H1147 H 0.9691 0.51392 0.62567 0.0
H1148 H 0.87032 0.54606 0.63585 0.0
H1149 H 0.90091 0.63123 0.59985 0.0
H1150 H 0.89039 0.59561 0.59341 0.0
H1151 H 0.92363 0.59868 0.60289 0.0
C1152 C 0.92492 0.51551 0.59933 0.0
C1153 C 0.9491 0.50756 0.60715 0.0
C1154 C 0.90339 0.53583 0.60356 0.0
C1155 C 0.90588 0.54879 0.61561 0.0
C1156 C 0.92938 0.54011 0.62359 0.0
H1157 H 0.83235 0.71326 0.6434 0.0
H1158 H 0.86319 0.67207 0.63571 0.0
C1159 C 0.95081 0.51965 0.61941 0.0
C1160 C 0.88456 0.57206 0.61981 0.0
H1161 H 0.85972 0.64238 0.61305 0.0
C1162 C 0.86788 0.5671 0.63086 0.0
C1163 C 0.8818 0.5996 0.61334 0.0
C1164 C 0.9003 0.60682 0.60178 0.0
C1165 C 0.84854 0.58906 0.63567 0.0
C1166 C 0.84546 0.61641 0.62909 0.0
C1167 C 0.862 0.62127 0.618 0.0
C1168 C 0.82639 0.64096 0.63387 0.0
C1169 C 0.83236 0.58318 0.64796 0.0
C1170 C 0.79541 0.63716 0.63529 0.0
C1171 C 0.77768 0.66065 0.63977 0.0
C1172 C 0.79066 0.6884 0.64276 0.0
C1173 C 0.82165 0.69218 0.64119 0.0
C1174 C 0.83932 0.66868 0.63678 0.0
H1175 H 0.84257 0.56438 0.6533 0.0
H1176 H 0.83239 0.60338 0.65407 0.0
H1177 H 0.80876 0.57723 0.6459 0.0
H1178 H 0.78492 0.61611 0.63285 0.0
H1179 H 0.75384 0.65711 0.6408 0.0
H1180 H 0.73328 0.70463 0.88085 0.0
H1181 H 0.6969 0.66687 0.88724 0.0
H1182 H 0.71374 0.61777 0.85282 0.0
H1183 H 0.74971 0.65582 0.8462 0.0
H1184 H 0.65487 0.62663 0.85674 0.0
H1185 H 0.70662 0.58264 0.90052 0.0
H1186 H 0.70294 0.62257 0.90077 0.0
H1187 H 0.72706 0.60514 0.88928 0.0
C1188 C 0.72957 0.6856 0.87471 0.0
C1189 C 0.74433 0.68325 0.86301 0.0
C1190 C 0.70891 0.66391 0.87843 0.0
C1191 C 0.70294 0.63929 0.87059 0.0
C1192 C 0.71814 0.63653 0.85903 0.0
H1193 H 0.5853 0.49294 0.89352 0.0
H1194 H 0.62862 0.52215 0.88663 0.0
C1195 C 0.73868 0.65829 0.85527 0.0
C1196 C 0.67908 0.61781 0.87397 0.0
H1197 H 0.65447 0.57189 0.89756 0.0
C1198 C 0.65495 0.61439 0.8656 0.0
C1199 C 0.6794 0.60158 0.88546 0.0
C1200 C 0.70556 0.6029 0.89446 0.0
C1201 C 0.63061 0.59598 0.8686 0.0
C1202 C 0.63013 0.58114 0.88041 0.0
C1203 C 0.65474 0.58365 0.88858 0.0
C1204 C 0.60396 0.56348 0.88456 0.0
C1205 C 0.60568 0.59257 0.85908 0.0
C1206 C 0.57589 0.57719 0.88585 0.0
C1207 C 0.55111 0.56059 0.88972 0.0
C1208 C 0.55403 0.53002 0.8925 0.0
C1209 C 0.5823 0.51644 0.89141 0.0
C1210 C 0.60707 0.53307 0.88749 0.0
H1211 H 0.6134 0.59785 0.84934 0.0
H1212 H 0.59649 0.56951 0.85916 0.0
H1213 H 0.58735 0.60831 0.86149 0.0
H1214 H 0.57319 0.60082 0.88392 0.0
H1215 H 0.52971 0.57178 0.89057 0.0
H1216 H 0.43034 0.50007 0.87853 0.0
H1217 H 0.39197 0.53122 0.86875 0.0
H1218 H 0.34069 0.52949 0.90332 0.0
H1219 H 0.37891 0.49785 0.9132 0.0
H1220 H 0.30593 0.52423 0.88002 0.0
H1221 H 0.38525 0.6198 0.8801 0.0
H1222 H 0.39935 0.58662 0.8726 0.0
H1223 H 0.39149 0.58638 0.88928 0.0
C1224 C 0.41078 0.50602 0.88404 0.0
C1225 C 0.40784 0.49685 0.8967 0.0
C1226 C 0.38891 0.52382 0.87843 0.0
C1227 C 0.36385 0.53298 0.8854 0.0
C1228 C 0.36 0.52267 0.89782 0.0
H1229 H 0.26183 0.69034 0.86641 0.0
H1230 H 0.28832 0.6507 0.87758 0.0
C1231 C 0.38186 0.50469 0.90345 0.0
C1232 C 0.34293 0.55503 0.87997 0.0
H1233 H 0.3399 0.62648 0.8689 0.0
C1234 C 0.3132 0.54666 0.87762 0.0
C1235 C 0.35251 0.58434 0.87706 0.0
C1236 C 0.3838 0.595 0.87998 0.0
C1237 C 0.29287 0.56679 0.87213 0.0
C1238 C 0.3028 0.59575 0.8688 0.0
C1239 C 0.33239 0.60419 0.87139 0.0
C1240 C 0.28316 0.61801 0.86264 0.0
C1241 C 0.26094 0.55707 0.87008 0.0
C1242 C 0.27106 0.61259 0.8506 0.0
C1243 C 0.25573 0.63524 0.84418 0.0
C1244 C 0.25269 0.66372 0.84966 0.0
C1245 C 0.26403 0.66871 0.86188 0.0
C1246 C 0.2791 0.64607 0.86831 0.0
H1247 H 0.255 0.53765 0.87613 0.0
H1248 H 0.24513 0.57563 0.87209 0.0
H1249 H 0.25801 0.5503 0.86005 0.0
H1250 H 0.27449 0.59128 0.84596 0.0
H1251 H 0.2473 0.63078 0.83476 0.0
H1252 H 0.12821 0.48484 0.57788 0.0
H1253 H 0.16857 0.51268 0.58829 0.0
H1254 H 0.11292 0.52459 0.62126 0.0
H1255 H 0.07277 0.4968 0.61106 0.0
H1256 H 0.16314 0.57193 0.59633 0.0
H1257 H 0.19284 0.4987 0.63659 0.0
H1258 H 0.17253 0.48532 0.62293 0.0
H1259 H 0.15327 0.5049 0.63539 0.0
C1260 C 0.12478 0.493 0.58742 0.0
C1261 C 0.09728 0.48872 0.59363 0.0
C1262 C 0.14784 0.50885 0.59335 0.0
C1263 C 0.14385 0.52024 0.60561 0.0
C1264 C 0.11669 0.51538 0.61191 0.0
H1265 H 0.20585 0.6503 0.65692 0.0
H1266 H 0.18312 0.60856 0.64551 0.0
C1267 C 0.09366 0.49973 0.60601 0.0
C1268 C 0.16662 0.53984 0.61143 0.0
H1269 H 0.20579 0.55082 0.63874 0.0
C1270 C 0.17305 0.5671 0.60548 0.0
C1271 C 0.17937 0.53341 0.62336 0.0
C1272 C 0.17439 0.50385 0.62988 0.0
C1273 C 0.1904 0.58897 0.61151 0.0
C1274 C 0.20198 0.58308 0.62371 0.0
C1275 C 0.19674 0.55526 0.62941 0.0
C1276 C 0.21746 0.60646 0.6311 0.0
C1277 C 0.19474 0.61881 0.6051 0.0
C1278 C 0.24465 0.61855 0.62691 0.0
C1279 C 0.25763 0.6425 0.63337 0.0
C1280 C 0.24368 0.65461 0.64416 0.0
C1281 C 0.21707 0.6416 0.64861 0.0
C1282 C 0.2041 0.61771 0.64213 0.0
H1283 H 0.17975 0.62162 0.5968 0.0
H1284 H 0.19053 0.6374 0.61184 0.0
H1285 H 0.2182 0.62065 0.60176 0.0
H1286 H 0.25552 0.60981 0.61853 0.0
H1287 H 0.27829 0.65185 0.62977 0.0
H1288 H 0.0691 0.49 0.3767 0.0
H1289 H 0.1109 0.4597 0.36924 0.0
H1290 H 0.16463 0.48977 0.40063 0.0
H1291 H 0.12279 0.52048 0.40822 0.0
H1292 H 0.19445 0.48621 0.37505 0.0
H1293 H 0.13503 0.3832 0.39018 0.0
H1294 H 0.11321 0.40818 0.38059 0.0
H1295 H 0.12526 0.41987 0.39603 0.0
C1296 C 0.08987 0.49048 0.38198 0.0
C1297 C 0.09253 0.50738 0.39314 0.0
C1298 C 0.1137 0.47315 0.37769 0.0
C1299 C 0.14058 0.4723 0.38449 0.0
C1300 C 0.14394 0.49017 0.3953 0.0
H1301 H 0.2624 0.3239 0.37222 0.0
H1302 H 0.23513 0.36456 0.38246 0.0
C1303 C 0.12003 0.50761 0.39962 0.0
C1304 C 0.16424 0.45117 0.38066 0.0
H1305 H 0.17746 0.37669 0.37695 0.0
C1306 C 0.19101 0.46224 0.37557 0.0
C1307 C 0.15972 0.42 0.38156 0.0
C1308 C 0.13188 0.407 0.38749 0.0
C1309 C 0.21299 0.44274 0.37084 0.0
C1310 C 0.2077 0.41157 0.37112 0.0
C1311 C 0.18141 0.40061 0.37669 0.0
C1312 C 0.22825 0.3897 0.36522 0.0
C1313 C 0.24155 0.45564 0.36556 0.0
C1314 C 0.23382 0.39062 0.35215 0.0
C1315 C 0.24949 0.36742 0.34626 0.0
C1316 C 0.25947 0.34276 0.35333 0.0
C1317 C 0.25483 0.34249 0.36649 0.0
C1318 C 0.23933 0.36574 0.37237 0.0
H1319 H 0.2461 0.47823 0.36949 0.0
H1320 H 0.26095 0.44092 0.36761 0.0
H1321 H 0.23942 0.4578 0.35514 0.0
H1322 H 0.22489 0.40856 0.34641 0.0
H1323 H 0.25266 0.36824 0.3361 0.0
H1324 H 0.43751 0.49423 0.11765 0.0
H1325 H 0.39851 0.46493 0.128 0.0
H1326 H 0.34764 0.46348 0.09335 0.0
H1327 H 0.38646 0.49323 0.08288 0.0
H1328 H 0.31265 0.47166 0.11648 0.0
H1329 H 0.39102 0.37528 0.11829 0.0
H1330 H 0.40521 0.40911 0.12521 0.0
H1331 H 0.39771 0.40766 0.10851 0.0
C1332 C 0.41788 0.48801 0.11224 0.0
C1333 C 0.41525 0.49568 0.09939 0.0
C1334 C 0.39565 0.47128 0.11818 0.0
C1335 C 0.37053 0.46171 0.11136 0.0
C1336 C 0.36698 0.47064 0.09873 0.0
H1337 H 0.26555 0.3074 0.13143 0.0
H1338 H 0.29315 0.34609 0.12014 0.0
C1339 C 0.38919 0.48754 0.09278 0.0
C1340 C 0.34931 0.44047 0.11715 0.0
H1341 H 0.34511 0.36992 0.12916 0.0
C1342 C 0.31961 0.44936 0.11923 0.0
C1343 C 0.35849 0.41131 0.12053 0.0
C1344 C 0.38976 0.40008 0.11793 0.0
C1345 C 0.29888 0.42989 0.12488 0.0
C1346 C 0.30837 0.40106 0.12862 0.0
C1347 C 0.33796 0.39211 0.12634 0.0
C1348 C 0.28819 0.3794 0.13485 0.0
C1349 C 0.26699 0.44011 0.12664 0.0
C1350 C 0.27587 0.38549 0.14679 0.0
C1351 C 0.25995 0.36338 0.15329 0.0
C1352 C 0.25646 0.33477 0.14797 0.0
C1353 C 0.26804 0.32913 0.13583 0.0
C1354 C 0.28375 0.35123 0.12934 0.0
H1355 H 0.26155 0.45942 0.12045 0.0
H1356 H 0.25106 0.42169 0.1246 0.0
H1357 H 0.26369 0.44717 0.13662 0.0
H1358 H 0.27956 0.40691 0.15131 0.0
H1359 H 0.25133 0.36837 0.16263 0.0
loop_
_geom_bond_atom_site_label_1
_geom_bond_atom_site_label_2
_geom_bond_distance
_geom_bond_site_symmetry_2
_ccdc_geom_bond_type
C0 O1 1.139 1_455 S
C0 O7 1.202 . S
O1 C0 1.139 1_655 S
O2 Zn3 1.899 1_655 S
O2 C10 1.284 . S
Zn3 O2 1.899 1_455 S
Zn3 O4 2.032 . S
Zn3 O7 2.086 . S
Zn3 O12 1.977 . S
O4 Zn3 2.032 . S
O4 C8 1.278 . S
C5 O6 1.203 . S
C5 O12 1.267 1_565 S
O6 C5 1.203 . S
O7 C0 1.202 . S
O7 Zn3 2.086 . S
C8 O4 1.278 . S
C8 O9 1.211 1_545 S
O9 C8 1.211 1_565 S
C10 O2 1.284 . S
C10 O11 1.273 1_545 S
O11 C10 1.273 1_565 S
O12 Zn3 1.977 . S
O12 C5 1.267 1_545 S
C13 O14 1.160 . S
C13 O20 1.185 . S
O14 C13 1.160 . S
O15 Zn16 1.899 . S
O15 C23 1.284 . S
Zn16 O15 1.899 . S
Zn16 O17 2.032 . S
Zn16 O20 2.086 . S
Zn16 O25 1.977 . S
O17 Zn16 2.032 . S
O17 C21 1.278 . S
C18 O19 1.203 . S
C18 O25 1.267 . S
O19 C18 1.203 . S
O20 C13 1.185 . S
O20 Zn16 2.086 . S
C21 O17 1.278 . S
C21 O22 1.211 . S
O22 C21 1.211 . S
C23 O15 1.284 . S
C23 O24 1.273 . S
O24 C23 1.273 . S
O25 Zn16 1.977 . S
O25 C18 1.267 . S
C26 O27 1.160 . S
C26 O33 1.185 . S
O27 C26 1.160 . S
O28 Zn29 1.899 . S
O28 C36 1.284 . S
Zn29 O28 1.899 . S
Zn29 O30 2.032 . S
Zn29 O33 2.086 . S
Zn29 O38 1.977 . S
O30 Zn29 2.032 . S
O30 C34 1.278 . S
C31 O32 1.203 . S
C31 O38 1.267 1_545 S
O32 C31 1.203 . S
O33 C26 1.185 . S
O33 Zn29 2.086 . S
C34 O30 1.278 . S
C34 O35 1.211 1_565 S
O35 C34 1.211 1_545 S
C36 O28 1.284 . S
C36 O37 1.273 1_565 S
O37 C36 1.273 1_545 S
O38 Zn29 1.977 . S
O38 C31 1.267 1_565 S
C39 O40 1.160 . S
C39 O46 1.185 . S
O40 C39 1.160 . S
O41 Zn42 1.899 . S
O41 C49 1.284 . S
Zn42 O41 1.899 . S
Zn42 O43 2.032 . S
Zn42 O46 2.086 . S
Zn42 O51 1.977 . S
O43 Zn42 2.032 . S
O43 C47 1.278 . S
C44 O45 1.203 . S
C44 O51 1.267 . S
O45 C44 1.203 . S
O46 C39 1.185 . S
O46 Zn42 2.086 . S
C47 O43 1.278 . S
C47 O48 1.211 . S
O48 C47 1.211 . S
C49 O41 1.284 . S
C49 O50 1.273 . S
O50 C49 1.273 . S
O51 Zn42 1.977 . S
O51 C44 1.267 . S
C52 O53 1.139 1_455 S
C52 O59 1.202 . S
O53 C52 1.139 1_655 S
O54 Zn55 1.899 1_655 S
O54 C62 1.284 . S
Zn55 O54 1.899 1_455 S
Zn55 O56 2.032 . S
Zn55 O59 2.086 . S
Zn55 O64 1.977 . S
O56 Zn55 2.032 . S
O56 C60 1.278 . S
C57 O58 1.203 . S
C57 O64 1.267 1_545 S
O58 C57 1.203 . S
O59 C52 1.202 . S
O59 Zn55 2.086 . S
C60 O56 1.278 . S
C60 O61 1.211 1_565 S
O61 C60 1.211 1_545 S
C62 O54 1.284 . S
C62 O63 1.273 1_565 S
O63 C62 1.273 1_545 S
O64 Zn55 1.977 . S
O64 C57 1.267 1_565 S
C65 O66 1.160 . S
C65 O72 1.185 . S
O66 C65 1.160 . S
O67 Zn68 1.899 . S
O67 C75 1.284 . S
Zn68 O67 1.899 . S
Zn68 O69 2.032 . S
Zn68 O72 2.086 . S
Zn68 O77 1.977 . S
O69 Zn68 2.032 . S
O69 C73 1.278 . S
C70 O71 1.203 . S
C70 O77 1.267 . S
O71 C70 1.203 . S
O72 C65 1.185 . S
O72 Zn68 2.086 . S
C73 O69 1.278 . S
C73 O74 1.211 . S
O74 C73 1.211 . S
C75 O67 1.284 . S
C75 O76 1.273 . S
O76 C75 1.273 . S
O77 Zn68 1.977 . S
O77 C70 1.267 . S
C78 O79 1.160 . S
C78 O85 1.185 . S
O79 C78 1.160 . S
O80 Zn81 1.899 . S
O80 C88 1.284 . S
Zn81 O80 1.899 . S
Zn81 O82 2.032 . S
Zn81 O85 2.086 . S
Zn81 O90 1.977 . S
O82 Zn81 2.032 . S
O82 C86 1.278 . S
C83 O84 1.203 . S
C83 O90 1.267 1_565 S
O84 C83 1.203 . S
O85 C78 1.185 . S
O85 Zn81 2.086 . S
C86 O82 1.278 . S
C86 O87 1.211 1_545 S
O87 C86 1.211 1_565 S
C88 O80 1.284 . S
C88 O89 1.273 1_545 S
O89 C88 1.273 1_565 S
O90 Zn81 1.977 . S
O90 C83 1.267 1_545 S
C91 O92 1.160 . S
C91 O98 1.185 . S
O92 C91 1.160 . S
O93 Zn94 1.899 . S
O93 C101 1.284 . S
Zn94 O93 1.899 . S
Zn94 O95 2.032 . S
Zn94 O98 2.086 . S
Zn94 O103 1.977 . S
O95 Zn94 2.032 . S
O95 C99 1.278 . S
C96 O97 1.203 . S
C96 O103 1.267 . S
O97 C96 1.203 . S
O98 C91 1.185 . S
O98 Zn94 2.086 . S
C99 O95 1.278 . S
C99 O100 1.211 . S
O100 C99 1.211 . S
C101 O93 1.284 . S
C101 O102 1.273 . S
O102 C101 1.273 . S
O103 Zn94 1.977 . S
O103 C96 1.267 . S
C104 O105 1.160 . S
C104 O111 1.185 . S
O105 C104 1.160 . S
O106 Zn107 1.899 . S
O106 C114 1.284 . S
Zn107 O106 1.899 . S
Zn107 O108 2.032 . S
Zn107 O111 2.086 . S
Zn107 O116 1.977 . S
O108 Zn107 2.032 . S
O108 C112 1.278 . S
C109 O110 1.203 . S
C109 O116 1.267 . S
O110 C109 1.203 . S
O111 C104 1.185 . S
O111 Zn107 2.086 . S
C112 O108 1.278 . S
C112 O113 1.211 . S
O113 C112 1.211 . S
C114 O106 1.284 . S
C114 O115 1.273 . S
O115 C114 1.273 . S
O116 Zn107 1.977 . S
O116 C109 1.267 . S
C117 O118 1.160 . S
C117 O124 1.185 . S
O118 C117 1.160 . S
O119 Zn120 1.899 . S
O119 C127 1.284 . S
Zn120 O119 1.899 . S
Zn120 O121 2.032 . S
Zn120 O124 2.086 . S
Zn120 O129 1.977 . S
O121 Zn120 2.032 . S
O121 C125 1.278 . S
C122 O123 1.203 . S
C122 O129 1.267 . S
O123 C122 1.203 . S
O124 C117 1.185 . S
O124 Zn120 2.086 . S
C125 O121 1.278 . S
C125 O126 1.211 . S
O126 C125 1.211 . S
C127 O119 1.284 . S
C127 O128 1.273 . S
O128 C127 1.273 . S
O129 Zn120 1.977 . S
O129 C122 1.267 . S
C130 O131 1.160 . S
C130 O137 1.185 . S
O131 C130 1.160 . S
O132 Zn133 1.899 . S
O132 C140 1.284 . S
Zn133 O132 1.899 . S
Zn133 O134 2.032 . S
Zn133 O137 2.086 . S
Zn133 O142 1.977 . S
O134 Zn133 2.032 . S
O134 C138 1.278 . S
C135 O136 1.203 . S
C135 O142 1.267 . S
O136 C135 1.203 . S
O137 C130 1.185 . S
O137 Zn133 2.086 . S
C138 O134 1.278 . S
C138 O139 1.211 . S
O139 C138 1.211 . S
C140 O132 1.284 . S
C140 O141 1.273 . S
O141 C140 1.273 . S
O142 Zn133 1.977 . S
O142 C135 1.267 . S
C143 O144 1.160 . S
C143 O150 1.185 . S
O144 C143 1.160 . S
O145 Zn146 1.899 . S
O145 C153 1.284 . S
Zn146 O145 1.899 . S
Zn146 O147 2.032 . S
Zn146 O150 2.086 . S
Zn146 O155 1.977 . S
O147 Zn146 2.032 . S
O147 C151 1.278 . S
C148 O149 1.203 . S
C148 O155 1.267 . S
O149 C148 1.203 . S
O150 C143 1.185 . S
O150 Zn146 2.086 . S
C151 O147 1.278 . S
C151 O152 1.211 . S
O152 C151 1.211 . S
C153 O145 1.284 . S
C153 O154 1.273 . S
O154 C153 1.273 . S
O155 Zn146 1.977 . S
O155 C148 1.267 . S
C156 O157 1.160 . S
C156 O163 1.185 . S
O157 C156 1.160 . S
O158 Zn159 1.899 . S
O158 C166 1.284 . S
Zn159 O158 1.899 . S
Zn159 O160 2.032 . S
Zn159 O163 2.086 . S
Zn159 O168 1.977 . S
O160 Zn159 2.032 . S
O160 C164 1.278 . S
C161 O162 1.203 . S
C161 O168 1.267 . S
O162 C161 1.203 . S
O163 C156 1.185 . S
O163 Zn159 2.086 . S
C164 O160 1.278 . S
C164 O165 1.211 . S
O165 C164 1.211 . S
C166 O158 1.284 . S
C166 O167 1.273 . S
O167 C166 1.273 . S
O168 Zn159 1.977 . S
O168 C161 1.267 . S
C169 O170 1.160 . S
C169 O176 1.185 . S
O170 C169 1.160 . S
O171 Zn172 1.899 . S
O171 C179 1.284 . S
Zn172 O171 1.899 . S
Zn172 O173 2.032 . S
Zn172 O176 2.086 . S
Zn172 O181 1.977 1_455 S
O173 Zn172 2.032 . S
O173 C177 1.278 . S
C174 O175 1.203 . S
C174 O181 1.267 . S
O175 C174 1.203 . S
O176 C169 1.185 . S
O176 Zn172 2.086 . S
C177 O173 1.278 . S
C177 O178 1.207 1_455 S
O178 C177 1.207 1_655 S
C179 O171 1.284 . S
C179 O180 1.273 . S
O180 C179 1.273 . S
O181 Zn172 1.977 1_655 S
O181 C174 1.267 . S
C182 O183 1.160 . S
C182 O189 1.185 . S
O183 C182 1.160 . S
O184 Zn185 1.899 . S
O184 C192 1.284 . S
Zn185 O184 1.899 . S
Zn185 O186 2.032 . S
Zn185 O189 2.086 . S
Zn185 O194 1.977 . S
O186 Zn185 2.032 . S
O186 C190 1.278 . S
C187 O188 1.203 . S
C187 O194 1.267 . S
O188 C187 1.203 . S
O189 C182 1.185 . S
O189 Zn185 2.086 . S
C190 O186 1.278 . S
C190 O191 1.211 . S
O191 C190 1.211 . S
C192 O184 1.284 . S
C192 O193 1.273 . S
O193 C192 1.273 . S
O194 Zn185 1.977 . S
O194 C187 1.267 . S
C195 O196 1.160 . S
C195 O202 1.185 . S
O196 C195 1.160 . S
O197 Zn198 1.899 . S
O197 C205 1.284 . S
Zn198 O197 1.899 . S
Zn198 O199 2.032 . S
Zn198 O202 2.086 . S
Zn198 O207 1.977 1_455 S
O199 Zn198 2.032 . S
O199 C203 1.278 . S
C200 O201 1.203 . S
C200 O207 1.267 . S
O201 C200 1.203 . S
O202 C195 1.185 . S
O202 Zn198 2.086 . S
C203 O199 1.278 . S
C203 O204 1.207 1_455 S
O204 C203 1.207 1_655 S
C205 O197 1.284 . S
C205 O206 1.273 . S
O206 C205 1.273 . S
O207 Zn198 1.977 1_655 S
O207 C200 1.267 . S
H208 C216 0.929 . S
H209 C218 0.930 . S
H210 C220 0.930 . S
H211 C223 0.929 . S
H212 C226 0.930 . S
H213 C228 0.960 . S
H214 C228 0.960 . S
H215 C228 0.960 . S
C216 H208 0.929 . S
C216 C217 1.377 . S
C216 C218 1.384 . S
C217 C216 1.377 . S
C217 C223 1.390 1_455 S
C218 H209 0.930 . S
C218 C216 1.384 . S
C218 C219 1.372 . S
C219 C218 1.372 . S
C219 C220 1.400 1_455 S
C219 C224 1.490 . S
C220 H210 0.930 . S
C220 C219 1.400 1_655 S
C220 C223 1.386 . S
H221 C237 0.930 1_655 S
H222 C238 0.931 1_655 S
C223 H211 0.929 . S
C223 C217 1.390 1_655 S
C223 C220 1.386 . S
C224 C219 1.490 . S
C224 C226 1.395 . S
C224 C227 1.403 1_455 S
H225 C231 0.930 . S
C226 H212 0.930 . S
C226 C224 1.395 . S
C226 C229 1.403 . S
C227 C224 1.403 1_655 S
C227 C228 1.524 . S
C227 C231 1.400 . S
C228 H213 0.960 . S
C228 H214 0.960 . S
C228 H215 0.960 . S
C228 C227 1.524 . S
C229 C226 1.403 . S
C229 C230 1.392 . S
C229 C233 1.495 . S
C230 C229 1.392 . S
C230 C231 1.385 1_455 S
C230 C232 1.478 . S
C231 H225 0.930 . S
C231 C227 1.400 . S
C231 C230 1.385 1_655 S
C232 C230 1.478 . S
C232 C234 1.381 . S
C232 C238 1.383 . S
C233 C229 1.495 . S
C233 H239 0.959 . S
C233 H240 0.961 . S
C233 H241 0.960 . S
C234 C232 1.381 . S
C234 C235 1.394 . S
C234 H242 0.930 . S
C235 C234 1.394 . S
C235 C236 1.383 . S
C235 H243 0.929 . S
C236 C235 1.383 . S
C236 C237 1.377 . S
C237 H221 0.930 1_455 S
C237 C236 1.377 . S
C237 C238 1.379 . S
C238 H222 0.931 1_455 S
C238 C232 1.383 . S
C238 C237 1.379 . S
H239 C233 0.959 . S
H240 C233 0.961 . S
H241 C233 0.960 . S
H242 C234 0.930 . S
H243 C235 0.929 . S
H244 C252 0.929 . S
H245 C254 0.930 . S
H246 C256 0.930 . S
H247 C259 0.929 . S
H248 C262 0.930 . S
H249 C264 0.960 . S
H250 C264 0.960 . S
H251 C264 0.960 . S
C252 H244 0.929 . S
C252 C253 1.377 . S
C252 C254 1.384 . S
C253 C252 1.377 . S
C253 C259 1.390 . S
C254 H245 0.930 . S
C254 C252 1.384 . S
C254 C255 1.372 . S
C255 C254 1.372 . S
C255 C256 1.400 . S
C255 C260 1.490 . S
C256 H246 0.930 . S
C256 C255 1.400 . S
C256 C259 1.386 . S
H257 C273 0.930 . S
H258 C274 0.931 . S
C259 H247 0.929 . S
C259 C253 1.390 . S
C259 C256 1.386 . S
C260 C255 1.490 . S
C260 C262 1.395 . S
C260 C263 1.403 . S
H261 C267 0.930 . S
C262 H248 0.930 . S
C262 C260 1.395 . S
C262 C265 1.403 1_655 S
C263 C260 1.403 . S
C263 C264 1.524 . S
C263 C267 1.400 1_655 S
C264 H249 0.960 . S
C264 H250 0.960 . S
C264 H251 0.960 . S
C264 C263 1.524 . S
C265 C262 1.403 1_455 S
C265 C266 1.392 . S
C265 C269 1.495 . S
C266 C265 1.392 . S
C266 C267 1.385 . S
C266 C268 1.478 . S
C267 H261 0.930 . S
C267 C263 1.400 1_455 S
C267 C266 1.385 . S
C268 C266 1.478 . S
C268 C270 1.381 . S
C268 C274 1.383 . S
C269 C265 1.495 . S
C269 H275 0.959 . S
C269 H276 0.961 . S
C269 H277 0.960 . S
C270 C268 1.381 . S
C270 C271 1.394 . S
C270 H278 0.930 . S
C271 C270 1.394 . S
C271 C272 1.383 . S
C271 H279 0.929 . S
C272 C271 1.383 . S
C272 C273 1.377 . S
C273 H257 0.930 . S
C273 C272 1.377 . S
C273 C274 1.379 . S
C274 H258 0.931 . S
C274 C268 1.383 . S
C274 C273 1.379 . S
H275 C269 0.959 . S
H276 C269 0.961 . S
H277 C269 0.960 . S
H278 C270 0.930 . S
H279 C271 0.929 . S
H280 C288 0.929 . S
H281 C290 0.930 . S
H282 C292 0.930 . S
H283 C295 0.929 . S
H284 C298 0.930 . S
H285 C300 0.960 . S
H286 C300 0.960 . S
H287 C300 0.960 . S
C288 H280 0.929 . S
C288 C289 1.377 . S
C288 C290 1.384 . S
C289 C288 1.377 . S
C289 C295 1.390 . S
C290 H281 0.930 . S
C290 C288 1.384 . S
C290 C291 1.372 . S
C291 C290 1.372 . S
C291 C292 1.400 . S
C291 C296 1.490 . S
C292 H282 0.930 . S
C292 C291 1.400 . S
C292 C295 1.386 . S
H293 C309 0.930 . S
H294 C310 0.931 . S
C295 H283 0.929 . S
C295 C289 1.390 . S
C295 C292 1.386 . S
C296 C291 1.490 . S
C296 C298 1.395 . S
C296 C299 1.403 . S
H297 C303 0.930 . S
C298 H284 0.930 . S
C298 C296 1.395 . S
C298 C301 1.403 . S
C299 C296 1.403 . S
C299 C300 1.524 . S
C299 C303 1.400 . S
C300 H285 0.960 . S
C300 H286 0.960 . S
C300 H287 0.960 . S
C300 C299 1.524 . S
C301 C298 1.403 . S
C301 C302 1.392 . S
C301 C305 1.495 . S
C302 C301 1.392 . S
C302 C303 1.385 . S
C302 C304 1.478 . S
C303 H297 0.930 . S
C303 C299 1.400 . S
C303 C302 1.385 . S
C304 C302 1.478 . S
C304 C306 1.381 . S
C304 C310 1.383 . S
C305 C301 1.495 . S
C305 H311 0.959 . S
C305 H312 0.961 . S
C305 H313 0.960 . S
C306 C304 1.381 . S
C306 C307 1.394 . S
C306 H314 0.930 . S
C307 C306 1.394 . S
C307 C308 1.383 . S
C307 H315 0.929 . S
C308 C307 1.383 . S
C308 C309 1.377 . S
C309 H293 0.930 . S
C309 C308 1.377 . S
C309 C310 1.379 . S
C310 H294 0.931 . S
C310 C304 1.383 . S
C310 C309 1.379 . S
H311 C305 0.959 . S
H312 C305 0.961 . S
H313 C305 0.960 . S
H314 C306 0.930 . S
H315 C307 0.929 . S
H316 C324 0.929 . S
H317 C326 0.930 . S
H318 C328 0.930 . S
H319 C331 0.929 . S
H320 C334 0.930 . S
H321 C336 0.960 . S
H322 C336 0.960 . S
H323 C336 0.960 . S
C324 H316 0.929 . S
C324 C325 1.377 . S
C324 C326 1.384 . S
C325 C324 1.377 . S
C325 C331 1.390 . S
C326 H317 0.930 . S
C326 C324 1.384 . S
C326 C327 1.372 . S
C327 C326 1.372 . S
C327 C328 1.400 . S
C327 C332 1.490 . S
C328 H318 0.930 . S
C328 C327 1.400 . S
C328 C331 1.386 . S
H329 C345 0.930 . S
H330 C346 0.931 . S
C331 H319 0.929 . S
C331 C325 1.390 . S
C331 C328 1.386 . S
C332 C327 1.490 . S
C332 C334 1.395 . S
C332 C335 1.403 . S
H333 C339 0.930 . S
C334 H320 0.930 . S
C334 C332 1.395 . S
C334 C337 1.403 . S
C335 C332 1.403 . S
C335 C336 1.524 . S
C335 C339 1.400 . S
C336 H321 0.960 . S
C336 H322 0.960 . S
C336 H323 0.960 . S
C336 C335 1.524 . S
C337 C334 1.403 . S
C337 C338 1.392 . S
C337 C341 1.495 . S
C338 C337 1.392 . S
C338 C339 1.385 . S
C338 C340 1.478 . S
C339 H333 0.930 . S
C339 C335 1.400 . S
C339 C338 1.385 . S
C340 C338 1.478 . S
C340 C342 1.381 . S
C340 C346 1.383 . S
C341 C337 1.495 . S
C341 H347 0.959 . S
C341 H348 0.961 . S
C341 H349 0.960 . S
C342 C340 1.381 . S
C342 C343 1.394 . S
C342 H350 0.930 . S
C343 C342 1.394 . S
C343 C344 1.383 . S
C343 H351 0.929 . S
C344 C343 1.383 . S
C344 C345 1.377 . S
C345 H329 0.930 . S
C345 C344 1.377 . S
C345 C346 1.379 . S
C346 H330 0.931 . S
C346 C340 1.383 . S
C346 C345 1.379 . S
H347 C341 0.959 . S
H348 C341 0.961 . S
H349 C341 0.960 . S
H350 C342 0.930 . S
H351 C343 0.929 . S
H352 C360 0.929 . S
H353 C362 0.930 . S
H354 C364 0.930 . S
H355 C367 0.929 . S
H356 C370 0.930 1_655 S
H357 C372 0.960 . S
H358 C372 0.960 . S
H359 C372 0.960 . S
C360 H352 0.929 . S
C360 C361 1.377 1_655 S
C360 C362 1.384 . S
C361 C360 1.377 1_455 S
C361 C367 1.390 . S
C362 H353 0.930 . S
C362 C360 1.384 . S
C362 C363 1.372 1_655 S
C363 C362 1.372 1_455 S
C363 C364 1.400 . S
C363 C368 1.490 . S
C364 H354 0.930 . S
C364 C363 1.400 . S
C364 C367 1.386 . S
H365 C381 0.930 . S
H366 C382 0.931 . S
C367 H355 0.929 . S
C367 C361 1.390 . S
C367 C364 1.386 . S
C368 C363 1.490 . S
C368 C370 1.395 . S
C368 C371 1.403 . S
H369 C375 0.930 . S
C370 H356 0.930 1_455 S
C370 C368 1.395 . S
C370 C373 1.403 . S
C371 C368 1.403 . S
C371 C372 1.524 . S
C371 C375 1.400 . S
C372 H357 0.960 . S
C372 H358 0.960 . S
C372 H359 0.960 . S
C372 C371 1.524 . S
C373 C370 1.403 . S
C373 C374 1.392 . S
C373 C377 1.495 1_455 S
C374 C373 1.392 . S
C374 C375 1.385 . S
C374 C376 1.478 . S
C375 H369 0.930 . S
C375 C371 1.400 . S
C375 C374 1.385 . S
C376 C374 1.478 . S
C376 C378 1.381 1_455 S
C376 C382 1.383 . S
C377 C373 1.495 1_655 S
C377 H383 0.959 . S
C377 H384 0.961 1_655 S
C377 H385 0.960 . S
C378 C376 1.381 1_655 S
C378 C379 1.394 . S
C378 H386 0.930 . S
C379 C378 1.394 . S
C379 C380 1.383 1_655 S
C379 H387 0.929 . S
C380 C379 1.383 1_455 S
C380 C381 1.377 . S
C381 H365 0.930 . S
C381 C380 1.377 . S
C381 C382 1.379 . S
C382 H366 0.931 . S
C382 C376 1.383 . S
C382 C381 1.379 . S
H383 C377 0.959 . S
H384 C377 0.961 1_455 S
H385 C377 0.960 . S
H386 C378 0.930 . S
H387 C379 0.929 . S
H388 C396 0.929 . S
H389 C398 0.930 . S
H390 C400 0.930 . S
H391 C403 0.929 . S
H392 C406 0.930 . S
H393 C408 0.960 . S
H394 C408 0.960 . S
H395 C408 0.960 . S
C396 H388 0.929 . S
C396 C397 1.377 . S
C396 C398 1.384 . S
C397 C396 1.377 . S
C397 C403 1.390 . S
C398 H389 0.930 . S
C398 C396 1.384 . S
C398 C399 1.372 . S
C399 C398 1.372 . S
C399 C400 1.400 . S
C399 C404 1.490 . S
C400 H390 0.930 . S
C400 C399 1.400 . S
C400 C403 1.386 . S
H401 C417 0.930 . S
H402 C418 0.931 . S
C403 H391 0.929 . S
C403 C397 1.390 . S
C403 C400 1.386 . S
C404 C399 1.490 . S
C404 C406 1.395 . S
C404 C407 1.403 . S
H405 C411 0.930 . S
C406 H392 0.930 . S
C406 C404 1.395 . S
C406 C409 1.403 . S
C407 C404 1.403 . S
C407 C408 1.524 . S
C407 C411 1.400 . S
C408 H393 0.960 . S
C408 H394 0.960 . S
C408 H395 0.960 . S
C408 C407 1.524 . S
C409 C406 1.403 . S
C409 C410 1.392 . S
C409 C413 1.495 . S
C410 C409 1.392 . S
C410 C411 1.385 . S
C410 C412 1.478 . S
C411 H405 0.930 . S
C411 C407 1.400 . S
C411 C410 1.385 . S
C412 C410 1.478 . S
C412 C414 1.381 . S
C412 C418 1.383 . S
C413 C409 1.495 . S
C413 H419 0.959 . S
C413 H420 0.961 . S
C413 H421 0.960 . S
C414 C412 1.381 . S
C414 C415 1.394 . S
C414 H422 0.930 . S
C415 C414 1.394 . S
C415 C416 1.383 . S
C415 H423 0.929 . S
C416 C415 1.383 . S
C416 C417 1.377 . S
C417 H401 0.930 . S
C417 C416 1.377 . S
C417 C418 1.379 . S
C418 H402 0.931 . S
C418 C412 1.383 . S
C418 C417 1.379 . S
H419 C413 0.959 . S
H420 C413 0.961 . S
H421 C413 0.960 . S
H422 C414 0.930 . S
H423 C415 0.929 . S
H424 C432 0.929 . S
H425 C434 0.930 . S
H426 C436 0.930 . S
H427 C439 0.929 . S
H428 C442 0.930 . S
H429 C444 0.960 . S
H430 C444 0.960 . S
H431 C444 0.960 . S
C432 H424 0.929 . S
C432 C433 1.377 . S
C432 C434 1.384 . S
C433 C432 1.377 . S
C433 C439 1.390 . S
C434 H425 0.930 . S
C434 C432 1.384 . S
C434 C435 1.372 . S
C435 C434 1.372 . S
C435 C436 1.400 . S
C435 C440 1.490 . S
C436 H426 0.930 . S
C436 C435 1.400 . S
C436 C439 1.386 . S
H437 C453 0.930 . S
H438 C454 0.931 . S
C439 H427 0.929 . S
C439 C433 1.390 . S
C439 C436 1.386 . S
C440 C435 1.490 . S
C440 C442 1.395 . S
C440 C443 1.403 . S
H441 C447 0.930 . S
C442 H428 0.930 . S
C442 C440 1.395 . S
C442 C445 1.403 . S
C443 C440 1.403 . S
C443 C444 1.524 . S
C443 C447 1.400 . S
C444 H429 0.960 . S
C444 H430 0.960 . S
C444 H431 0.960 . S
C444 C443 1.524 . S
C445 C442 1.403 . S
C445 C446 1.392 . S
C445 C449 1.495 . S
C446 C445 1.392 . S
C446 C447 1.385 . S
C446 C448 1.478 . S
C447 H441 0.930 . S
C447 C443 1.400 . S
C447 C446 1.385 . S
C448 C446 1.478 . S
C448 C450 1.381 . S
C448 C454 1.383 . S
C449 C445 1.495 . S
C449 H455 0.959 . S
C449 H456 0.961 . S
C449 H457 0.960 . S
C450 C448 1.381 . S
C450 C451 1.394 . S
C450 H458 0.930 . S
C451 C450 1.394 . S
C451 C452 1.383 . S
C451 H459 0.929 . S
C452 C451 1.383 . S
C452 C453 1.377 . S
C453 H437 0.930 . S
C453 C452 1.377 . S
C453 C454 1.379 . S
C454 H438 0.931 . S
C454 C448 1.383 . S
C454 C453 1.379 . S
H455 C449 0.959 . S
H456 C449 0.961 . S
H457 C449 0.960 . S
H458 C450 0.930 . S
H459 C451 0.929 . S
H460 C468 0.929 . S
H461 C470 0.930 . S
H462 C472 0.930 . S
H463 C475 0.929 . S
H464 C478 0.930 . S
H465 C480 0.960 . S
H466 C480 0.960 . S
H467 C480 0.960 . S
C468 H460 0.929 . S
C468 C469 1.377 . S
C468 C470 1.384 . S
C469 C468 1.377 . S
C469 C475 1.390 . S
C470 H461 0.930 . S
C470 C468 1.384 . S
C470 C471 1.372 . S
C471 C470 1.372 . S
C471 C472 1.400 . S
C471 C476 1.490 . S
C472 H462 0.930 . S
C472 C471 1.400 . S
C472 C475 1.386 . S
H473 C489 0.930 . S
H474 C490 0.931 . S
C475 H463 0.929 . S
C475 C469 1.390 . S
C475 C472 1.386 . S
C476 C471 1.490 . S
C476 C478 1.395 . S
C476 C479 1.403 . S
H477 C483 0.930 . S
C478 H464 0.930 . S
C478 C476 1.395 . S
C478 C481 1.403 1_455 S
C479 C476 1.403 . S
C479 C480 1.524 . S
C479 C483 1.400 1_455 S
C480 H465 0.960 . S
C480 H466 0.960 . S
C480 H467 0.960 . S
C480 C479 1.524 . S
C481 C478 1.403 1_655 S
C481 C482 1.392 . S
C481 C485 1.495 . S
C482 C481 1.392 . S
C482 C483 1.385 . S
C482 C484 1.478 . S
C483 H477 0.930 . S
C483 C479 1.400 1_655 S
C483 C482 1.385 . S
C484 C482 1.478 . S
C484 C486 1.381 . S
C484 C490 1.383 . S
C485 C481 1.495 . S
C485 H491 0.954 1_655 S
C485 H492 0.961 . S
C485 H493 0.960 . S
C486 C484 1.381 . S
C486 C487 1.394 . S
C486 H494 0.930 . S
C487 C486 1.394 . S
C487 C488 1.383 . S
C487 H495 0.929 . S
C488 C487 1.383 . S
C488 C489 1.377 . S
C489 H473 0.930 . S
C489 C488 1.377 . S
C489 C490 1.379 . S
C490 H474 0.931 . S
C490 C484 1.383 . S
C490 C489 1.379 . S
H491 C485 0.954 1_455 S
H492 C485 0.961 . S
H493 C485 0.960 . S
H494 C486 0.930 . S
H495 C487 0.929 . S
H496 C504 0.929 . S
H497 C506 0.930 . S
H498 C508 0.930 . S
H499 C511 0.929 . S
H500 C514 0.930 . S
H501 C516 0.960 . S
H502 C516 0.960 . S
H503 C516 0.960 . S
C504 H496 0.929 . S
C504 C505 1.377 1_655 S
C504 C506 1.384 . S
C505 C504 1.377 1_455 S
C505 C511 1.390 1_565 S
C506 H497 0.930 . S
C506 C504 1.384 . S
C506 C507 1.372 1_655 S
C507 C506 1.372 1_455 S
C507 C508 1.400 1_565 S
C507 C512 1.490 . S
C508 H498 0.930 . S
C508 C507 1.400 1_545 S
C508 C511 1.386 . S
H509 C525 0.930 . S
H510 C526 0.931 . S
C511 H499 0.929 . S
C511 C505 1.390 1_545 S
C511 C508 1.386 . S
C512 C507 1.490 . S
C512 C514 1.395 . S
C512 C515 1.403 1_465 S
H513 C519 0.940 . S
C514 H500 0.930 . S
C514 C512 1.395 . S
C514 C517 1.403 . S
C515 C512 1.403 1_645 S
C515 C516 1.524 . S
C515 C519 1.402 . S
C516 H501 0.960 . S
C516 H502 0.960 . S
C516 H503 0.960 . S
C516 C515 1.524 . S
C517 C514 1.403 . S
C517 C518 1.415 . S
C517 C521 1.495 . S
C518 C517 1.415 . S
C518 C519 1.356 1_465 S
C518 C520 1.473 1_565 S
C519 H513 0.940 . S
C519 C515 1.402 . S
C519 C518 1.356 1_645 S
C520 C518 1.473 1_545 S
C520 C522 1.381 1_445 S
C520 C526 1.383 . S
C521 C517 1.495 . S
C521 H527 0.959 . S
C521 H528 0.961 . S
C521 H529 0.960 . S
C522 C520 1.381 1_665 S
C522 C523 1.394 . S
C522 H530 0.930 . S
C523 C522 1.394 . S
C523 C524 1.383 1_665 S
C523 H531 0.929 . S
C524 C523 1.383 1_445 S
C524 C525 1.377 . S
C525 H509 0.930 . S
C525 C524 1.377 . S
C525 C526 1.379 . S
C526 H510 0.931 . S
C526 C520 1.383 . S
C526 C525 1.379 . S
H527 C521 0.959 . S
H528 C521 0.961 . S
H529 C521 0.960 . S
H530 C522 0.930 . S
H531 C523 0.929 . S
H532 C540 0.929 . S
H533 C542 0.930 . S
H534 C544 0.930 . S
H535 C547 0.929 . S
H536 C550 0.930 . S
H537 C552 0.960 . S
H538 C552 0.960 . S
H539 C552 0.960 . S
C540 H532 0.929 . S
C540 C541 1.377 . S
C540 C542 1.384 . S
C541 C540 1.377 . S
C541 C547 1.390 . S
C542 H533 0.930 . S
C542 C540 1.384 . S
C542 C543 1.372 . S
C543 C542 1.372 . S
C543 C544 1.400 . S
C543 C548 1.490 . S
C544 H534 0.930 . S
C544 C543 1.400 . S
C544 C547 1.386 . S
H545 C561 0.930 . S
H546 C562 0.931 . S
C547 H535 0.929 . S
C547 C541 1.390 . S
C547 C544 1.386 . S
C548 C543 1.490 . S
C548 C550 1.395 . S
C548 C551 1.403 . S
H549 C555 0.930 . S
C550 H536 0.930 . S
C550 C548 1.395 . S
C550 C553 1.403 . S
C551 C548 1.403 . S
C551 C552 1.524 . S
C551 C555 1.400 . S
C552 H537 0.960 . S
C552 H538 0.960 . S
C552 H539 0.960 . S
C552 C551 1.524 . S
C553 C550 1.403 . S
C553 C554 1.392 . S
C553 C557 1.495 . S
C554 C553 1.392 . S
C554 C555 1.385 . S
C554 C556 1.478 . S
C555 H549 0.930 . S
C555 C551 1.400 . S
C555 C554 1.385 . S
C556 C554 1.478 . S
C556 C558 1.381 . S
C556 C562 1.383 . S
C557 C553 1.495 . S
C557 H563 0.959 . S
C557 H564 0.961 . S
C557 H565 0.960 . S
C558 C556 1.381 . S
C558 C559 1.394 . S
C558 H566 0.930 . S
C559 C558 1.394 . S
C559 C560 1.383 . S
C559 H567 0.929 . S
C560 C559 1.383 . S
C560 C561 1.377 . S
C561 H545 0.930 . S
C561 C560 1.377 . S
C561 C562 1.379 . S
C562 H546 0.931 . S
C562 C556 1.383 . S
C562 C561 1.379 . S
H563 C557 0.959 . S
H564 C557 0.961 . S
H565 C557 0.960 . S
H566 C558 0.930 . S
H567 C559 0.929 . S
H568 C576 0.929 . S
H569 C578 0.930 . S
H570 C580 0.930 . S
H571 C583 0.929 . S
H572 C586 0.930 . S
H573 C588 1.014 . S
H574 C588 0.960 . S
H575 C588 0.960 . S
C576 H568 0.929 . S
C576 C577 1.377 . S
C576 C578 1.384 . S
C577 C576 1.377 . S
C577 C583 1.390 . S
C578 H569 0.930 . S
C578 C576 1.384 . S
C578 C579 1.372 . S
C579 C578 1.372 . S
C579 C580 1.400 . S
C579 C584 1.490 . S
C580 H570 0.930 . S
C580 C579 1.400 . S
C580 C583 1.386 . S
H581 C597 0.930 . S
H582 C598 0.931 . S
C583 H571 0.929 . S
C583 C577 1.390 . S
C583 C580 1.386 . S
C584 C579 1.490 . S
C584 C586 1.395 1_565 S
C584 C587 1.403 . S
H585 C591 0.930 . S
C586 H572 0.930 . S
C586 C584 1.395 1_545 S
C586 C589 1.403 1_554 S
C587 C584 1.403 . S
C587 C588 1.524 . S
C587 C591 1.400 1_554 S
C588 H573 1.014 . S
C588 H574 0.960 . S
C588 H575 0.960 . S
C588 C587 1.524 . S
C589 C586 1.403 1_556 S
C589 C590 1.392 . S
C589 C593 1.495 . S
C590 C589 1.392 . S
C590 C591 1.385 1_545 S
C590 C592 1.478 . S
C591 H585 0.930 . S
C591 C587 1.400 1_556 S
C591 C590 1.385 1_565 S
C592 C590 1.478 . S
C592 C594 1.381 . S
C592 C598 1.383 . S
C593 C589 1.495 . S
C593 H599 0.959 . S
C593 H600 0.961 . S
C593 H601 0.960 . S
C594 C592 1.381 . S
C594 C595 1.394 . S
C594 H602 0.930 . S
C595 C594 1.394 . S
C595 C596 1.383 . S
C595 H603 0.929 . S
C596 C595 1.383 . S
C596 C597 1.377 . S
C597 H581 0.930 . S
C597 C596 1.377 . S
C597 C598 1.379 . S
C598 H582 0.931 . S
C598 C592 1.383 . S
C598 C597 1.379 . S
H599 C593 0.959 . S
H600 C593 0.961 . S
H601 C593 0.960 . S
H602 C594 0.930 . S
H603 C595 0.929 . S
H604 C612 0.929 . S
H605 C614 0.930 . S
H606 C616 0.930 . S
H607 C619 0.929 . S
H608 C622 0.930 . S
H609 C624 0.960 . S
H610 C624 0.960 . S
H611 C624 0.960 . S
C612 H604 0.929 . S
C612 C613 1.377 . S
C612 C614 1.384 . S
C613 C612 1.377 . S
C613 C619 1.390 . S
C614 H605 0.930 . S
C614 C612 1.384 . S
C614 C615 1.372 . S
C615 C614 1.372 . S
C615 C616 1.400 . S
C615 C620 1.490 . S
C616 H606 0.930 . S
C616 C615 1.400 . S
C616 C619 1.386 . S
H617 C633 0.930 . S
H618 C634 0.931 . S
C619 H607 0.929 . S
C619 C613 1.390 . S
C619 C616 1.386 . S
C620 C615 1.490 . S
C620 C622 1.395 . S
C620 C623 1.403 . S
H621 C627 0.930 . S
C622 H608 0.930 . S
C622 C620 1.395 . S
C622 C625 1.403 . S
C623 C620 1.403 . S
C623 C624 1.524 . S
C623 C627 1.400 . S
C624 H609 0.960 . S
C624 H610 0.960 . S
C624 H611 0.960 . S
C624 C623 1.524 . S
C625 C622 1.403 . S
C625 C626 1.392 . S
C625 C629 1.495 . S
C626 C625 1.392 . S
C626 C627 1.385 . S
C626 C628 1.478 . S
C627 H621 0.930 . S
C627 C623 1.400 . S
C627 C626 1.385 . S
C628 C626 1.478 . S
C628 C630 1.381 . S
C628 C634 1.383 . S
C629 C625 1.495 . S
C629 H635 0.959 . S
C629 H636 0.961 . S
C629 H637 0.960 . S
C630 C628 1.381 . S
C630 C631 1.394 . S
C630 H638 0.930 . S
C631 C630 1.394 . S
C631 C632 1.383 . S
C631 H639 0.929 . S
C632 C631 1.383 . S
C632 C633 1.377 . S
C633 H617 0.930 . S
C633 C632 1.377 . S
C633 C634 1.379 . S
C634 H618 0.931 . S
C634 C628 1.383 . S
C634 C633 1.379 . S
H635 C629 0.959 . S
H636 C629 0.961 . S
H637 C629 0.960 . S
H638 C630 0.930 . S
H639 C631 0.929 . S
H640 C648 0.929 . S
H641 C650 0.930 . S
H642 C652 0.930 . S
H643 C655 0.929 . S
H644 C658 0.930 . S
H645 C660 0.960 . S
H646 C660 0.960 . S
H647 C660 0.960 . S
C648 H640 0.929 . S
C648 C649 1.377 . S
C648 C650 1.384 . S
C649 C648 1.377 . S
C649 C655 1.390 . S
C650 H641 0.930 . S
C650 C648 1.384 . S
C650 C651 1.372 . S
C651 C650 1.372 . S
C651 C652 1.400 . S
C651 C656 1.490 . S
C652 H642 0.930 . S
C652 C651 1.400 . S
C652 C655 1.386 . S
H653 C669 0.930 . S
H654 C670 0.931 . S
C655 H643 0.929 . S
C655 C649 1.390 . S
C655 C652 1.386 . S
C656 C651 1.490 . S
C656 C658 1.395 . S
C656 C659 1.403 . S
H657 C663 0.930 . S
C658 H644 0.930 . S
C658 C656 1.395 . S
C658 C661 1.403 . S
C659 C656 1.403 . S
C659 C660 1.524 . S
C659 C663 1.400 . S
C660 H645 0.960 . S
C660 H646 0.960 . S
C660 H647 0.960 . S
C660 C659 1.524 . S
C661 C658 1.403 . S
C661 C662 1.392 . S
C661 C665 1.495 . S
C662 C661 1.392 . S
C662 C663 1.385 . S
C662 C664 1.478 . S
C663 H657 0.930 . S
C663 C659 1.400 . S
C663 C662 1.385 . S
C664 C662 1.478 . S
C664 C666 1.381 . S
C664 C670 1.383 . S
C665 C661 1.495 . S
C665 H671 0.959 . S
C665 H672 0.961 . S
C665 H673 0.960 . S
C666 C664 1.381 . S
C666 C667 1.394 . S
C666 H674 0.930 . S
C667 C666 1.394 . S
C667 C668 1.383 . S
C667 H675 0.929 . S
C668 C667 1.383 . S
C668 C669 1.377 . S
C669 H653 0.930 . S
C669 C668 1.377 . S
C669 C670 1.379 . S
C670 H654 0.931 . S
C670 C664 1.383 . S
C670 C669 1.379 . S
H671 C665 0.959 . S
H672 C665 0.961 . S
H673 C665 0.960 . S
H674 C666 0.930 . S
H675 C667 0.929 . S
H676 C684 0.929 . S
H677 C686 0.930 . S
H678 C688 0.930 . S
H679 C691 0.929 . S
H680 C694 0.930 . S
H681 C696 0.960 . S
H682 C696 0.960 . S
H683 C696 0.960 . S
C684 H676 0.929 . S
C684 C685 1.377 . S
C684 C686 1.384 . S
C685 C684 1.377 . S
C685 C691 1.390 . S
C686 H677 0.930 . S
C686 C684 1.384 . S
C686 C687 1.372 . S
C687 C686 1.372 . S
C687 C688 1.400 . S
C687 C692 1.490 . S
C688 H678 0.930 . S
C688 C687 1.400 . S
C688 C691 1.386 . S
H689 C705 0.930 . S
H690 C706 0.931 . S
C691 H679 0.929 . S
C691 C685 1.390 . S
C691 C688 1.386 . S
C692 C687 1.490 . S
C692 C694 1.395 . S
C692 C695 1.403 . S
H693 C699 0.930 . S
C694 H680 0.930 . S
C694 C692 1.395 . S
C694 C697 1.403 . S
C695 C692 1.403 . S
C695 C696 1.524 . S
C695 C699 1.400 . S
C696 H681 0.960 . S
C696 H682 0.960 . S
C696 H683 0.960 . S
C696 C695 1.524 . S
C697 C694 1.403 . S
C697 C698 1.392 . S
C697 C701 1.495 . S
C698 C697 1.392 . S
C698 C699 1.385 . S
C698 C700 1.478 . S
C699 H693 0.930 . S
C699 C695 1.400 . S
C699 C698 1.385 . S
C700 C698 1.478 . S
C700 C702 1.381 . S
C700 C706 1.383 . S
C701 C697 1.495 . S
C701 H707 0.959 . S
C701 H708 0.961 . S
C701 H709 0.960 . S
C702 C700 1.381 . S
C702 C703 1.394 . S
C702 H710 0.930 . S
C703 C702 1.394 . S
C703 C704 1.383 . S
C703 H711 0.929 . S
C704 C703 1.383 . S
C704 C705 1.377 . S
C705 H689 0.930 . S
C705 C704 1.377 . S
C705 C706 1.379 . S
C706 H690 0.931 . S
C706 C700 1.383 . S
C706 C705 1.379 . S
H707 C701 0.959 . S
H708 C701 0.961 . S
H709 C701 0.960 . S
H710 C702 0.930 . S
H711 C703 0.929 . S
H712 C720 0.929 . S
H713 C722 0.930 . S
H714 C724 0.930 . S
H715 C727 0.929 . S
H716 C730 0.930 . S
H717 C732 0.960 . S
H718 C732 0.960 . S
H719 C732 0.960 . S
C720 H712 0.929 . S
C720 C721 1.377 . S
C720 C722 1.384 . S
C721 C720 1.377 . S
C721 C727 1.390 . S
C722 H713 0.930 . S
C722 C720 1.384 . S
C722 C723 1.372 . S
C723 C722 1.372 . S
C723 C724 1.400 . S
C723 C728 1.490 . S
C724 H714 0.930 . S
C724 C723 1.400 . S
C724 C727 1.386 . S
H725 C741 0.930 . S
H726 C742 0.931 . S
C727 H715 0.929 . S
C727 C721 1.390 . S
C727 C724 1.386 . S
C728 C723 1.490 . S
C728 C730 1.395 . S
C728 C731 1.403 . S
H729 C735 0.930 . S
C730 H716 0.930 . S
C730 C728 1.395 . S
C730 C733 1.403 1_556 S
C731 C728 1.403 . S
C731 C732 1.524 . S
C731 C735 1.400 1_556 S
C732 H717 0.960 . S
C732 H718 0.960 . S
C732 H719 0.960 . S
C732 C731 1.524 . S
C733 C730 1.403 1_554 S
C733 C734 1.392 . S
C733 C737 1.495 . S
C734 C733 1.392 . S
C734 C735 1.385 . S
C734 C736 1.478 . S
C735 H729 0.930 . S
C735 C731 1.400 1_554 S
C735 C734 1.385 . S
C736 C734 1.478 . S
C736 C738 1.381 . S
C736 C742 1.383 . S
C737 C733 1.495 . S
C737 H743 0.959 . S
C737 H744 0.961 . S
C737 H745 0.960 . S
C738 C736 1.381 . S
C738 C739 1.394 . S
C738 H746 0.930 . S
C739 C738 1.394 . S
C739 C740 1.383 . S
C739 H747 0.929 . S
C740 C739 1.383 . S
C740 C741 1.377 . S
C741 H725 0.930 . S
C741 C740 1.377 . S
C741 C742 1.379 . S
C742 H726 0.931 . S
C742 C736 1.383 . S
C742 C741 1.379 . S
H743 C737 0.959 . S
H744 C737 0.961 . S
H745 C737 0.960 . S
H746 C738 0.930 . S
H747 C739 0.929 . S
H748 C756 0.929 . S
H749 C758 0.930 . S
H750 C760 0.930 . S
H751 C763 0.929 . S
H752 C766 0.930 . S
H753 C768 0.960 . S
H754 C768 0.960 . S
H755 C768 0.960 . S
C756 H748 0.929 . S
C756 C757 1.377 . S
C756 C758 1.384 . S
C757 C756 1.377 . S
C757 C763 1.390 . S
C758 H749 0.930 . S
C758 C756 1.384 . S
C758 C759 1.372 . S
C759 C758 1.372 . S
C759 C760 1.400 . S
C759 C764 1.490 . S
C760 H750 0.930 . S
C760 C759 1.400 . S
C760 C763 1.386 . S
H761 C777 0.930 . S
H762 C778 0.931 . S
C763 H751 0.929 . S
C763 C757 1.390 . S
C763 C760 1.386 . S
C764 C759 1.490 . S
C764 C766 1.395 1_455 S
C764 C767 1.403 . S
H765 C771 0.930 . S
C766 H752 0.930 . S
C766 C764 1.395 1_655 S
C766 C769 1.403 . S
C767 C764 1.403 . S
C767 C768 1.524 . S
C767 C771 1.400 . S
C768 H753 0.960 . S
C768 H754 0.960 . S
C768 H755 0.960 . S
C768 C767 1.524 . S
C769 C766 1.403 . S
C769 C770 1.392 1_655 S
C769 C773 1.495 . S
C770 C769 1.392 1_455 S
C770 C771 1.385 . S
C770 C772 1.478 . S
C771 H765 0.930 . S
C771 C767 1.400 . S
C771 C770 1.385 . S
C772 C770 1.478 . S
C772 C774 1.381 . S
C772 C778 1.383 . S
C773 C769 1.495 . S
C773 H779 0.959 . S
C773 H780 0.961 . S
C773 H781 0.960 . S
C774 C772 1.381 . S
C774 C775 1.394 . S
C774 H782 0.930 . S
C775 C774 1.394 . S
C775 C776 1.383 . S
C775 H783 0.929 . S
C776 C775 1.383 . S
C776 C777 1.377 . S
C777 H761 0.930 . S
C777 C776 1.377 . S
C777 C778 1.379 . S
C778 H762 0.931 . S
C778 C772 1.383 . S
C778 C777 1.379 . S
H779 C773 0.959 . S
H780 C773 0.961 . S
H781 C773 0.960 . S
H782 C774 0.930 . S
H783 C775 0.929 . S
H784 C792 0.929 . S
H785 C794 0.930 . S
H786 C796 0.930 . S
H787 C799 0.929 . S
H788 C802 0.930 . S
H789 C804 0.960 . S
H790 C804 0.960 . S
H791 C804 0.960 . S
C792 H784 0.929 . S
C792 C793 1.377 . S
C792 C794 1.384 . S
C793 C792 1.377 . S
C793 C799 1.390 . S
C794 H785 0.930 . S
C794 C792 1.384 . S
C794 C795 1.372 . S
C795 C794 1.372 . S
C795 C796 1.400 . S
C795 C800 1.490 . S
C796 H786 0.930 . S
C796 C795 1.400 . S
C796 C799 1.386 . S
H797 C813 0.930 1_545 S
H798 C814 0.931 . S
C799 H787 0.929 . S
C799 C793 1.390 . S
C799 C796 1.386 . S
C800 C795 1.490 . S
C800 C802 1.395 . S
C800 C803 1.403 . S
H801 C807 0.930 . S
C802 H788 0.930 . S
C802 C800 1.395 . S
C802 C805 1.403 . S
C803 C800 1.403 . S
C803 C804 1.524 . S
C803 C807 1.400 . S
C804 H789 0.960 . S
C804 H790 0.960 . S
C804 H791 0.960 . S
C804 C803 1.524 . S
C805 C802 1.403 . S
C805 C806 1.392 . S
C805 C809 1.495 . S
C806 C805 1.392 . S
C806 C807 1.385 . S
C806 C808 1.478 . S
C807 H801 0.930 . S
C807 C803 1.400 . S
C807 C806 1.385 . S
C808 C806 1.478 . S
C808 C810 1.381 . S
C808 C814 1.383 . S
C809 C805 1.495 . S
C809 H815 0.959 . S
C809 H816 0.961 . S
C809 H817 0.960 . S
C810 C808 1.381 . S
C810 C811 1.394 . S
C810 H818 0.930 . S
C811 C810 1.394 . S
C811 C812 1.383 . S
C811 H819 0.929 . S
C812 C811 1.383 . S
C812 C813 1.377 . S
C813 H797 0.930 1_565 S
C813 C812 1.377 . S
C813 C814 1.379 . S
C814 H798 0.931 . S
C814 C808 1.383 . S
C814 C813 1.379 . S
H815 C809 0.959 . S
H816 C809 0.961 . S
H817 C809 0.960 . S
H818 C810 0.930 . S
H819 C811 0.929 . S
H820 C828 0.929 . S
H821 C830 0.930 . S
H822 C832 0.930 . S
H823 C835 0.929 . S
H824 C838 0.930 . S
H825 C840 0.960 . S
H826 C840 0.960 . S
H827 C840 0.960 . S
C828 H820 0.929 . S
C828 C829 1.377 . S
C828 C830 1.384 . S
C829 C828 1.377 . S
C829 C835 1.390 . S
C830 H821 0.930 . S
C830 C828 1.384 . S
C830 C831 1.372 . S
C831 C830 1.372 . S
C831 C832 1.400 . S
C831 C836 1.490 . S
C832 H822 0.930 . S
C832 C831 1.400 . S
C832 C835 1.386 . S
H833 C849 0.930 . S
H834 C850 0.931 . S
C835 H823 0.929 . S
C835 C829 1.390 . S
C835 C832 1.386 . S
C836 C831 1.490 . S
C836 C838 1.395 . S
C836 C839 1.403 . S
H837 C843 0.930 . S
C838 H824 0.930 . S
C838 C836 1.395 . S
C838 C841 1.403 . S
C839 C836 1.403 . S
C839 C840 1.524 . S
C839 C843 1.400 . S
C840 H825 0.960 . S
C840 H826 0.960 . S
C840 H827 0.960 . S
C840 C839 1.524 . S
C841 C838 1.403 . S
C841 C842 1.392 . S
C841 C845 1.495 . S
C842 C841 1.392 . S
C842 C843 1.385 . S
C842 C844 1.478 . S
C843 H837 0.930 . S
C843 C839 1.400 . S
C843 C842 1.385 . S
C844 C842 1.478 . S
C844 C846 1.381 . S
C844 C850 1.383 . S
C845 C841 1.495 . S
C845 H851 0.959 . S
C845 H852 0.961 . S
C845 H853 0.960 . S
C846 C844 1.381 . S
C846 C847 1.394 . S
C846 H854 0.930 . S
C847 C846 1.394 . S
C847 C848 1.383 . S
C847 H855 0.929 . S
C848 C847 1.383 . S
C848 C849 1.377 . S
C849 H833 0.930 . S
C849 C848 1.377 . S
C849 C850 1.379 . S
C850 H834 0.931 . S
C850 C844 1.383 . S
C850 C849 1.379 . S
H851 C845 0.959 . S
H852 C845 0.961 . S
H853 C845 0.960 . S
H854 C846 0.930 . S
H855 C847 0.929 . S
H856 C864 0.929 . S
H857 C866 0.930 . S
H858 C868 0.930 . S
H859 C871 0.929 . S
H860 C874 0.930 . S
H861 C876 0.960 . S
H862 C876 0.960 . S
H863 C876 0.960 . S
C864 H856 0.929 . S
C864 C865 1.377 . S
C864 C866 1.384 . S
C865 C864 1.377 . S
C865 C871 1.390 . S
C866 H857 0.930 . S
C866 C864 1.384 . S
C866 C867 1.372 . S
C867 C866 1.372 . S
C867 C868 1.400 . S
C867 C872 1.490 . S
C868 H858 0.930 . S
C868 C867 1.400 . S
C868 C871 1.386 . S
H869 C885 0.930 . S
H870 C886 0.931 . S
C871 H859 0.929 . S
C871 C865 1.390 . S
C871 C868 1.386 . S
C872 C867 1.490 . S
C872 C874 1.395 . S
C872 C875 1.403 . S
H873 C879 0.930 . S
C874 H860 0.930 . S
C874 C872 1.395 . S
C874 C877 1.403 . S
C875 C872 1.403 . S
C875 C876 1.524 . S
C875 C879 1.400 . S
C876 H861 0.960 . S
C876 H862 0.960 . S
C876 H863 0.960 . S
C876 C875 1.524 . S
C877 C874 1.403 . S
C877 C878 1.392 . S
C877 C881 1.495 . S
C878 C877 1.392 . S
C878 C879 1.385 . S
C878 C880 1.478 . S
C879 H873 0.930 . S
C879 C875 1.400 . S
C879 C878 1.385 . S
C880 C878 1.478 . S
C880 C882 1.381 . S
C880 C886 1.383 . S
C881 C877 1.495 . S
C881 H887 0.959 . S
C881 H888 0.961 . S
C881 H889 0.960 . S
C882 C880 1.381 . S
C882 C883 1.394 . S
C882 H890 0.930 . S
C883 C882 1.394 . S
C883 C884 1.383 . S
C883 H891 0.929 . S
C884 C883 1.383 . S
C884 C885 1.377 . S
C885 H869 0.930 . S
C885 C884 1.377 . S
C885 C886 1.379 . S
C886 H870 0.931 . S
C886 C880 1.383 . S
C886 C885 1.379 . S
H887 C881 0.959 . S
H888 C881 0.961 . S
H889 C881 0.960 . S
H890 C882 0.930 . S
H891 C883 0.929 . S
H892 C900 0.929 1_565 S
H893 C902 0.930 . S
H894 C904 0.930 . S
H895 C907 0.929 . S
H896 C910 0.930 . S
H897 C912 0.960 . S
H898 C912 0.960 . S
H899 C912 0.960 . S
C900 H892 0.929 1_545 S
C900 C901 1.377 . S
C900 C902 1.384 . S
C901 C900 1.377 . S
C901 C907 1.390 . S
C902 H893 0.930 . S
C902 C900 1.384 . S
C902 C903 1.372 . S
C903 C902 1.372 . S
C903 C904 1.400 . S
C903 C908 1.490 . S
C904 H894 0.930 . S
C904 C903 1.400 . S
C904 C907 1.386 . S
H905 C921 0.930 . S
H906 C922 0.931 . S
C907 H895 0.929 . S
C907 C901 1.390 . S
C907 C904 1.386 . S
C908 C903 1.490 . S
C908 C910 1.395 . S
C908 C911 1.403 . S
H909 C915 0.930 . S
C910 H896 0.930 . S
C910 C908 1.395 . S
C910 C913 1.403 . S
C911 C908 1.403 . S
C911 C912 1.524 . S
C911 C915 1.400 . S
C912 H897 0.960 . S
C912 H898 0.960 . S
C912 H899 0.960 . S
C912 C911 1.524 . S
C913 C910 1.403 . S
C913 C914 1.392 . S
C913 C917 1.495 . S
C914 C913 1.392 . S
C914 C915 1.385 . S
C914 C916 1.478 . S
C915 H909 0.930 . S
C915 C911 1.400 . S
C915 C914 1.385 . S
C916 C914 1.478 . S
C916 C918 1.381 . S
C916 C922 1.383 . S
C917 C913 1.495 . S
C917 H923 0.959 . S
C917 H924 0.961 . S
C917 H925 0.960 . S
C918 C916 1.381 . S
C918 C919 1.394 . S
C918 H926 0.930 . S
C919 C918 1.394 . S
C919 C920 1.383 . S
C919 H927 0.929 . S
C920 C919 1.383 . S
C920 C921 1.377 . S
C921 H905 0.930 . S
C921 C920 1.377 . S
C921 C922 1.379 . S
C922 H906 0.931 . S
C922 C916 1.383 . S
C922 C921 1.379 . S
H923 C917 0.959 . S
H924 C917 0.961 . S
H925 C917 0.960 . S
H926 C918 0.930 . S
H927 C919 0.929 . S
H928 C936 0.929 . S
H929 C938 0.930 . S
H930 C940 0.930 . S
H931 C943 0.929 . S
H932 C946 0.930 . S
H933 C948 0.960 . S
H934 C948 0.960 . S
H935 C948 0.960 . S
C936 H928 0.929 . S
C936 C937 1.377 1_565 S
C936 C938 1.384 1_565 S
C937 C936 1.377 1_545 S
C937 C943 1.390 . S
C938 H929 0.930 . S
C938 C936 1.384 1_545 S
C938 C939 1.372 . S
C939 C938 1.372 . S
C939 C940 1.400 . S
C939 C944 1.490 . S
C940 H930 0.930 . S
C940 C939 1.400 . S
C940 C943 1.386 . S
H941 C957 0.930 . S
H942 C958 0.931 . S
C943 H931 0.929 . S
C943 C937 1.390 . S
C943 C940 1.386 . S
C944 C939 1.490 . S
C944 C946 1.395 . S
C944 C947 1.403 . S
H945 C951 0.930 . S
C946 H932 0.930 . S
C946 C944 1.395 . S
C946 C949 1.403 . S
C947 C944 1.403 . S
C947 C948 1.524 . S
C947 C951 1.400 . S
C948 H933 0.960 . S
C948 H934 0.960 . S
C948 H935 0.960 . S
C948 C947 1.524 . S
C949 C946 1.403 . S
C949 C950 1.392 . S
C949 C953 1.495 . S
C950 C949 1.392 . S
C950 C951 1.385 . S
C950 C952 1.478 . S
C951 H945 0.930 . S
C951 C947 1.400 . S
C951 C950 1.385 . S
C952 C950 1.478 . S
C952 C954 1.381 . S
C952 C958 1.383 . S
C953 C949 1.495 . S
C953 H959 0.959 . S
C953 H960 0.961 . S
C953 H961 0.960 . S
C954 C952 1.381 . S
C954 C955 1.394 . S
C954 H962 0.930 . S
C955 C954 1.394 . S
C955 C956 1.383 . S
C955 H963 0.929 . S
C956 C955 1.383 . S
C956 C957 1.377 . S
C957 H941 0.930 . S
C957 C956 1.377 . S
C957 C958 1.379 . S
C958 H942 0.931 . S
C958 C952 1.383 . S
C958 C957 1.379 . S
H959 C953 0.959 . S
H960 C953 0.961 . S
H961 C953 0.960 . S
H962 C954 0.930 . S
H963 C955 0.929 . S
H964 C972 0.929 . S
H965 C974 0.930 . S
H966 C976 0.930 . S
H967 C979 0.929 . S
H968 C982 0.930 . S
H969 C984 0.960 . S
H970 C984 0.960 . S
H971 C984 0.960 . S
C972 H964 0.929 . S
C972 C973 1.377 1_565 S
C972 C974 1.384 1_565 S
C973 C972 1.377 1_545 S
C973 C979 1.390 . S
C974 H965 0.930 . S
C974 C972 1.384 1_545 S
C974 C975 1.372 . S
C975 C974 1.372 . S
C975 C976 1.400 . S
C975 C980 1.490 . S
C976 H966 0.930 . S
C976 C975 1.400 . S
C976 C979 1.386 . S
H977 C993 0.930 . S
H978 C994 0.931 . S
C979 H967 0.929 . S
C979 C973 1.390 . S
C979 C976 1.386 . S
C980 C975 1.490 . S
C980 C982 1.395 . S
C980 C983 1.403 . S
H981 C987 0.930 . S
C982 H968 0.930 . S
C982 C980 1.395 . S
C982 C985 1.403 . S
C983 C980 1.403 . S
C983 C984 1.524 . S
C983 C987 1.400 . S
C984 H969 0.960 . S
C984 H970 0.960 . S
C984 H971 0.960 . S
C984 C983 1.524 . S
C985 C982 1.403 . S
C985 C986 1.392 . S
C985 C989 1.495 . S
C986 C985 1.392 . S
C986 C987 1.385 . S
C986 C988 1.478 . S
C987 H981 0.930 . S
C987 C983 1.400 . S
C987 C986 1.385 . S
C988 C986 1.478 . S
C988 C990 1.381 . S
C988 C994 1.383 . S
C989 C985 1.495 . S
C989 H995 0.959 . S
C989 H996 0.961 . S
C989 H997 0.960 . S
C990 C988 1.381 . S
C990 C991 1.394 . S
C990 H998 0.930 . S
C991 C990 1.394 . S
C991 C992 1.383 . S
C991 H999 0.929 . S
C992 C991 1.383 . S
C992 C993 1.377 . S
C993 H977 0.930 . S
C993 C992 1.377 . S
C993 C994 1.379 . S
C994 H978 0.931 . S
C994 C988 1.383 . S
C994 C993 1.379 . S
H995 C989 0.959 . S
H996 C989 0.961 . S
H997 C989 0.960 . S
H998 C990 0.930 . S
H999 C991 0.929 . S
H1000 C1008 0.929 . S
H1001 C1010 0.930 . S
H1002 C1012 0.930 . S
H1003 C1015 0.929 . S
H1004 C1018 0.930 . S
H1005 C1020 0.960 . S
H1006 C1020 0.960 . S
H1007 C1020 0.960 . S
C1008 H1000 0.929 . S
C1008 C1009 1.377 . S
C1008 C1010 1.384 . S
C1009 C1008 1.377 . S
C1009 C1015 1.390 . S
C1010 H1001 0.930 . S
C1010 C1008 1.384 . S
C1010 C1011 1.372 . S
C1011 C1010 1.372 . S
C1011 C1012 1.400 . S
C1011 C1016 1.490 . S
C1012 H1002 0.930 . S
C1012 C1011 1.400 . S
C1012 C1015 1.386 . S
H1013 C1029 0.944 . S
H1014 C1030 0.931 . S
C1015 H1003 0.929 . S
C1015 C1009 1.390 . S
C1015 C1012 1.386 . S
C1016 C1011 1.490 . S
C1016 C1018 1.395 . S
C1016 C1019 1.403 . S
H1017 C1023 0.930 . S
C1018 H1004 0.930 . S
C1018 C1016 1.395 . S
C1018 C1021 1.403 . S
C1019 C1016 1.403 . S
C1019 C1020 1.524 . S
C1019 C1023 1.400 . S
C1020 H1005 0.960 . S
C1020 H1006 0.960 . S
C1020 H1007 0.960 . S
C1020 C1019 1.524 . S
C1021 C1018 1.403 . S
C1021 C1022 1.392 . S
C1021 C1025 1.495 . S
C1022 C1021 1.392 . S
C1022 C1023 1.385 . S
C1022 C1024 1.478 . S
C1023 H1017 0.930 . S
C1023 C1019 1.400 . S
C1023 C1022 1.385 . S
C1024 C1022 1.478 . S
C1024 C1026 1.381 . S
C1024 C1030 1.383 . S
C1025 C1021 1.495 . S
C1025 H1031 0.959 . S
C1025 H1032 0.961 . S
C1025 H1033 0.960 . S
C1026 C1024 1.381 . S
C1026 C1027 1.394 . S
C1026 H1034 0.930 . S
C1027 C1026 1.394 . S
C1027 C1028 1.383 . S
C1027 H1035 0.929 . S
C1028 C1027 1.383 . S
C1028 C1029 1.377 . S
C1029 H1013 0.944 . S
C1029 C1028 1.377 . S
C1029 C1030 1.379 . S
C1030 H1014 0.931 . S
C1030 C1024 1.383 . S
C1030 C1029 1.379 . S
H1031 C1025 0.959 . S
H1032 C1025 0.961 . S
H1033 C1025 0.960 . S
H1034 C1026 0.930 . S
H1035 C1027 0.929 . S
H1036 C1044 0.929 . S
H1037 C1046 0.930 . S
H1038 C1048 0.930 . S
H1039 C1051 0.929 . S
H1040 C1054 0.930 . S
H1041 C1056 0.960 . S
H1042 C1056 0.960 . S
H1043 C1056 0.960 . S
C1044 H1036 0.929 . S
C1044 C1045 1.377 . S
C1044 C1046 1.384 . S
C1045 C1044 1.377 . S
C1045 C1051 1.390 . S
C1046 H1037 0.930 . S
C1046 C1044 1.384 . S
C1046 C1047 1.372 . S
C1047 C1046 1.372 . S
C1047 C1048 1.400 . S
C1047 C1052 1.490 . S
C1048 H1038 0.930 . S
C1048 C1047 1.400 . S
C1048 C1051 1.386 . S
H1049 C1065 0.930 1_545 S
H1050 C1066 0.931 . S
C1051 H1039 0.929 . S
C1051 C1045 1.390 . S
C1051 C1048 1.386 . S
C1052 C1047 1.490 . S
C1052 C1054 1.395 . S
C1052 C1055 1.403 . S
H1053 C1059 0.930 . S
C1054 H1040 0.930 . S
C1054 C1052 1.395 . S
C1054 C1057 1.403 . S
C1055 C1052 1.403 . S
C1055 C1056 1.524 . S
C1055 C1059 1.400 . S
C1056 H1041 0.960 . S
C1056 H1042 0.960 . S
C1056 H1043 0.960 . S
C1056 C1055 1.524 . S
C1057 C1054 1.403 . S
C1057 C1058 1.392 . S
C1057 C1061 1.495 . S
C1058 C1057 1.392 . S
C1058 C1059 1.385 . S
C1058 C1060 1.478 . S
C1059 H1053 0.930 . S
C1059 C1055 1.400 . S
C1059 C1058 1.385 . S
C1060 C1058 1.478 . S
C1060 C1062 1.381 . S
C1060 C1066 1.383 . S
C1061 C1057 1.495 . S
C1061 H1067 0.959 . S
C1061 H1068 0.961 . S
C1061 H1069 0.960 . S
C1062 C1060 1.381 . S
C1062 C1063 1.394 . S
C1062 H1070 0.930 . S
C1063 C1062 1.394 . S
C1063 C1064 1.383 . S
C1063 H1071 0.929 . S
C1064 C1063 1.383 . S
C1064 C1065 1.377 . S
C1065 H1049 0.930 1_565 S
C1065 C1064 1.377 . S
C1065 C1066 1.379 . S
C1066 H1050 0.931 . S
C1066 C1060 1.383 . S
C1066 C1065 1.379 . S
H1067 C1061 0.959 . S
H1068 C1061 0.961 . S
H1069 C1061 0.960 . S
H1070 C1062 0.930 . S
H1071 C1063 0.929 . S
H1072 C1080 0.929 . S
H1073 C1082 0.930 . S
H1074 C1084 0.930 . S
H1075 C1087 0.929 . S
H1076 C1090 0.930 . S
H1077 C1092 0.960 . S
H1078 C1092 0.960 . S
H1079 C1092 0.960 . S
C1080 H1072 0.929 . S
C1080 C1081 1.377 . S
C1080 C1082 1.384 . S
C1081 C1080 1.377 . S
C1081 C1087 1.390 . S
C1082 H1073 0.930 . S
C1082 C1080 1.384 . S
C1082 C1083 1.372 . S
C1083 C1082 1.372 . S
C1083 C1084 1.400 . S
C1083 C1088 1.490 . S
C1084 H1074 0.930 . S
C1084 C1083 1.400 . S
C1084 C1087 1.386 . S
H1085 C1101 0.930 . S
H1086 C1102 0.931 . S
C1087 H1075 0.929 . S
C1087 C1081 1.390 . S
C1087 C1084 1.386 . S
C1088 C1083 1.490 . S
C1088 C1090 1.395 . S
C1088 C1091 1.403 . S
H1089 C1095 0.930 . S
C1090 H1076 0.930 . S
C1090 C1088 1.395 . S
C1090 C1093 1.403 . S
C1091 C1088 1.403 . S
C1091 C1092 1.524 . S
C1091 C1095 1.400 . S
C1092 H1077 0.960 . S
C1092 H1078 0.960 . S
C1092 H1079 0.960 . S
C1092 C1091 1.524 . S
C1093 C1090 1.403 . S
C1093 C1094 1.392 . S
C1093 C1097 1.495 . S
C1094 C1093 1.392 . S
C1094 C1095 1.385 . S
C1094 C1096 1.478 . S
C1095 H1089 0.930 . S
C1095 C1091 1.400 . S
C1095 C1094 1.385 . S
C1096 C1094 1.478 . S
C1096 C1098 1.381 . S
C1096 C1102 1.383 . S
C1097 C1093 1.495 . S
C1097 H1103 0.959 . S
C1097 H1104 0.961 . S
C1097 H1105 0.960 . S
C1098 C1096 1.381 . S
C1098 C1099 1.394 . S
C1098 H1106 0.930 . S
C1099 C1098 1.394 . S
C1099 C1100 1.383 . S
C1099 H1107 0.929 . S
C1100 C1099 1.383 . S
C1100 C1101 1.377 . S
C1101 H1085 0.930 . S
C1101 C1100 1.377 . S
C1101 C1102 1.379 . S
C1102 H1086 0.931 . S
C1102 C1096 1.383 . S
C1102 C1101 1.379 . S
H1103 C1097 0.959 . S
H1104 C1097 0.961 . S
H1105 C1097 0.960 . S
H1106 C1098 0.930 . S
H1107 C1099 0.929 . S
H1108 C1116 0.929 . S
H1109 C1118 0.930 . S
H1110 C1120 0.930 . S
H1111 C1123 0.929 . S
H1112 C1126 0.930 . S
H1113 C1128 0.960 . S
H1114 C1128 0.960 . S
H1115 C1128 0.960 . S
C1116 H1108 0.929 . S
C1116 C1117 1.377 . S
C1116 C1118 1.384 . S
C1117 C1116 1.377 . S
C1117 C1123 1.390 . S
C1118 H1109 0.930 . S
C1118 C1116 1.384 . S
C1118 C1119 1.372 . S
C1119 C1118 1.372 . S
C1119 C1120 1.400 . S
C1119 C1124 1.490 . S
C1120 H1110 0.930 . S
C1120 C1119 1.400 . S
C1120 C1123 1.386 . S
H1121 C1137 0.930 . S
H1122 C1138 0.931 . S
C1123 H1111 0.929 . S
C1123 C1117 1.390 . S
C1123 C1120 1.386 . S
C1124 C1119 1.490 . S
C1124 C1126 1.395 . S
C1124 C1127 1.403 . S
H1125 C1131 0.930 . S
C1126 H1112 0.930 . S
C1126 C1124 1.395 . S
C1126 C1129 1.403 . S
C1127 C1124 1.403 . S
C1127 C1128 1.524 . S
C1127 C1131 1.400 . S
C1128 H1113 0.960 . S
C1128 H1114 0.960 . S
C1128 H1115 0.960 . S
C1128 C1127 1.524 . S
C1129 C1126 1.403 . S
C1129 C1130 1.392 . S
C1129 C1133 1.495 . S
C1130 C1129 1.392 . S
C1130 C1131 1.385 . S
C1130 C1132 1.478 . S
C1131 H1125 0.930 . S
C1131 C1127 1.400 . S
C1131 C1130 1.385 . S
C1132 C1130 1.478 . S
C1132 C1134 1.381 . S
C1132 C1138 1.383 . S
C1133 C1129 1.495 . S
C1133 H1139 0.959 . S
C1133 H1140 0.961 . S
C1133 H1141 0.960 . S
C1134 C1132 1.381 . S
C1134 C1135 1.394 . S
C1134 H1142 0.930 . S
C1135 C1134 1.394 . S
C1135 C1136 1.383 . S
C1135 H1143 0.929 . S
C1136 C1135 1.383 . S
C1136 C1137 1.377 . S
C1137 H1121 0.930 . S
C1137 C1136 1.377 . S
C1137 C1138 1.379 . S
C1138 H1122 0.931 . S
C1138 C1132 1.383 . S
C1138 C1137 1.379 . S
H1139 C1133 0.959 . S
H1140 C1133 0.961 . S
H1141 C1133 0.960 . S
H1142 C1134 0.930 . S
H1143 C1135 0.929 . S
H1144 C1152 0.929 . S
H1145 C1154 0.930 . S
H1146 C1156 0.930 . S
H1147 C1159 0.929 . S
H1148 C1162 0.930 . S
H1149 C1164 0.960 . S
H1150 C1164 0.960 . S
H1151 C1164 0.960 . S
C1152 H1144 0.929 . S
C1152 C1153 1.377 . S
C1152 C1154 1.384 . S
C1153 C1152 1.377 . S
C1153 C1159 1.390 . S
C1154 H1145 0.930 . S
C1154 C1152 1.384 . S
C1154 C1155 1.372 . S
C1155 C1154 1.372 . S
C1155 C1156 1.400 . S
C1155 C1160 1.490 . S
C1156 H1146 0.930 . S
C1156 C1155 1.400 . S
C1156 C1159 1.386 . S
H1157 C1173 0.930 . S
H1158 C1174 0.931 . S
C1159 H1147 0.929 . S
C1159 C1153 1.390 . S
C1159 C1156 1.386 . S
C1160 C1155 1.490 . S
C1160 C1162 1.395 . S
C1160 C1163 1.403 . S
H1161 C1167 0.930 . S
C1162 H1148 0.930 . S
C1162 C1160 1.395 . S
C1162 C1165 1.403 . S
C1163 C1160 1.403 . S
C1163 C1164 1.524 . S
C1163 C1167 1.400 . S
C1164 H1149 0.960 . S
C1164 H1150 0.960 . S
C1164 H1151 0.960 . S
C1164 C1163 1.524 . S
C1165 C1162 1.403 . S
C1165 C1166 1.392 . S
C1165 C1169 1.495 . S
C1166 C1165 1.392 . S
C1166 C1167 1.385 . S
C1166 C1168 1.478 . S
C1167 H1161 0.930 . S
C1167 C1163 1.400 . S
C1167 C1166 1.385 . S
C1168 C1166 1.478 . S
C1168 C1170 1.381 . S
C1168 C1174 1.383 . S
C1169 C1165 1.495 . S
C1169 H1175 0.959 . S
C1169 H1176 0.961 . S
C1169 H1177 0.960 . S
C1170 C1168 1.381 . S
C1170 C1171 1.394 . S
C1170 H1178 0.930 . S
C1171 C1170 1.394 . S
C1171 C1172 1.383 . S
C1171 H1179 0.929 . S
C1172 C1171 1.383 . S
C1172 C1173 1.377 . S
C1173 H1157 0.930 . S
C1173 C1172 1.377 . S
C1173 C1174 1.379 . S
C1174 H1158 0.931 . S
C1174 C1168 1.383 . S
C1174 C1173 1.379 . S
H1175 C1169 0.959 . S
H1176 C1169 0.961 . S
H1177 C1169 0.960 . S
H1178 C1170 0.930 . S
H1179 C1171 0.929 . S
H1180 C1188 0.929 . S
H1181 C1190 0.930 . S
H1182 C1192 0.930 . S
H1183 C1195 0.929 . S
H1184 C1198 0.930 . S
H1185 C1200 0.960 . S
H1186 C1200 0.960 . S
H1187 C1200 0.960 . S
C1188 H1180 0.929 . S
C1188 C1189 1.377 . S
C1188 C1190 1.384 . S
C1189 C1188 1.377 . S
C1189 C1195 1.390 . S
C1190 H1181 0.930 . S
C1190 C1188 1.384 . S
C1190 C1191 1.372 . S
C1191 C1190 1.372 . S
C1191 C1192 1.400 . S
C1191 C1196 1.490 . S
C1192 H1182 0.930 . S
C1192 C1191 1.400 . S
C1192 C1195 1.386 . S
H1193 C1209 0.930 . S
H1194 C1210 0.931 . S
C1195 H1183 0.929 . S
C1195 C1189 1.390 . S
C1195 C1192 1.386 . S
C1196 C1191 1.490 . S
C1196 C1198 1.395 . S
C1196 C1199 1.403 . S
H1197 C1203 0.930 . S
C1198 H1184 0.930 . S
C1198 C1196 1.395 . S
C1198 C1201 1.403 . S
C1199 C1196 1.403 . S
C1199 C1200 1.524 . S
C1199 C1203 1.400 . S
C1200 H1185 0.960 . S
C1200 H1186 0.960 . S
C1200 H1187 0.960 . S
C1200 C1199 1.524 . S
C1201 C1198 1.403 . S
C1201 C1202 1.392 . S
C1201 C1205 1.495 . S
C1202 C1201 1.392 . S
C1202 C1203 1.385 . S
C1202 C1204 1.478 . S
C1203 H1197 0.930 . S
C1203 C1199 1.400 . S
C1203 C1202 1.385 . S
C1204 C1202 1.478 . S
C1204 C1206 1.381 . S
C1204 C1210 1.383 . S
C1205 C1201 1.495 . S
C1205 H1211 0.959 . S
C1205 H1212 0.961 . S
C1205 H1213 0.960 . S
C1206 C1204 1.381 . S
C1206 C1207 1.394 . S
C1206 H1214 0.930 . S
C1207 C1206 1.394 . S
C1207 C1208 1.383 . S
C1207 H1215 0.929 . S
C1208 C1207 1.383 . S
C1208 C1209 1.377 . S
C1209 H1193 0.930 . S
C1209 C1208 1.377 . S
C1209 C1210 1.379 . S
C1210 H1194 0.931 . S
C1210 C1204 1.383 . S
C1210 C1209 1.379 . S
H1211 C1205 0.959 . S
H1212 C1205 0.961 . S
H1213 C1205 0.960 . S
H1214 C1206 0.930 . S
H1215 C1207 0.929 . S
H1216 C1224 0.929 . S
H1217 C1226 0.930 . S
H1218 C1228 0.930 . S
H1219 C1231 0.929 . S
H1220 C1234 0.930 . S
H1221 C1236 0.960 . S
H1222 C1236 0.960 . S
H1223 C1236 0.960 . S
C1224 H1216 0.929 . S
C1224 C1225 1.377 . S
C1224 C1226 1.384 . S
C1225 C1224 1.377 . S
C1225 C1231 1.390 . S
C1226 H1217 0.930 . S
C1226 C1224 1.384 . S
C1226 C1227 1.372 . S
C1227 C1226 1.372 . S
C1227 C1228 1.400 . S
C1227 C1232 1.490 . S
C1228 H1218 0.930 . S
C1228 C1227 1.400 . S
C1228 C1231 1.386 . S
H1229 C1245 0.930 . S
H1230 C1246 0.931 . S
C1231 H1219 0.929 . S
C1231 C1225 1.390 . S
C1231 C1228 1.386 . S
C1232 C1227 1.490 . S
C1232 C1234 1.395 . S
C1232 C1235 1.403 . S
H1233 C1239 0.930 . S
C1234 H1220 0.930 . S
C1234 C1232 1.395 . S
C1234 C1237 1.403 . S
C1235 C1232 1.403 . S
C1235 C1236 1.524 . S
C1235 C1239 1.400 . S
C1236 H1221 0.960 . S
C1236 H1222 0.960 . S
C1236 H1223 0.960 . S
C1236 C1235 1.524 . S
C1237 C1234 1.403 . S
C1237 C1238 1.392 . S
C1237 C1241 1.495 . S
C1238 C1237 1.392 . S
C1238 C1239 1.385 . S
C1238 C1240 1.478 . S
C1239 H1233 0.930 . S
C1239 C1235 1.400 . S
C1239 C1238 1.385 . S
C1240 C1238 1.478 . S
C1240 C1242 1.381 . S
C1240 C1246 1.383 . S
C1241 C1237 1.495 . S
C1241 H1247 0.959 . S
C1241 H1248 0.961 . S
C1241 H1249 0.960 . S
C1242 C1240 1.381 . S
C1242 C1243 1.394 . S
C1242 H1250 0.930 . S
C1243 C1242 1.394 . S
C1243 C1244 1.383 . S
C1243 H1251 0.929 . S
C1244 C1243 1.383 . S
C1244 C1245 1.377 . S
C1245 H1229 0.930 . S
C1245 C1244 1.377 . S
C1245 C1246 1.379 . S
C1246 H1230 0.931 . S
C1246 C1240 1.383 . S
C1246 C1245 1.379 . S
H1247 C1241 0.959 . S
H1248 C1241 0.961 . S
H1249 C1241 0.960 . S
H1250 C1242 0.930 . S
H1251 C1243 0.929 . S
H1252 C1260 0.929 . S
H1253 C1262 0.930 . S
H1254 C1264 0.930 . S
H1255 C1267 0.929 . S
H1256 C1270 0.930 . S
H1257 C1272 0.960 . S
H1258 C1272 0.960 . S
H1259 C1272 0.960 . S
C1260 H1252 0.929 . S
C1260 C1261 1.377 . S
C1260 C1262 1.384 . S
C1261 C1260 1.377 . S
C1261 C1267 1.390 . S
C1262 H1253 0.930 . S
C1262 C1260 1.384 . S
C1262 C1263 1.372 . S
C1263 C1262 1.372 . S
C1263 C1264 1.400 . S
C1263 C1268 1.490 . S
C1264 H1254 0.930 . S
C1264 C1263 1.400 . S
C1264 C1267 1.386 . S
H1265 C1281 0.930 . S
H1266 C1282 0.931 . S
C1267 H1255 0.929 . S
C1267 C1261 1.390 . S
C1267 C1264 1.386 . S
C1268 C1263 1.490 . S
C1268 C1270 1.395 . S
C1268 C1271 1.403 . S
H1269 C1275 0.930 . S
C1270 H1256 0.930 . S
C1270 C1268 1.395 . S
C1270 C1273 1.403 . S
C1271 C1268 1.403 . S
C1271 C1272 1.524 . S
C1271 C1275 1.400 . S
C1272 H1257 0.960 . S
C1272 H1258 0.960 . S
C1272 H1259 0.960 . S
C1272 C1271 1.524 . S
C1273 C1270 1.403 . S
C1273 C1274 1.392 . S
C1273 C1277 1.495 . S
C1274 C1273 1.392 . S
C1274 C1275 1.385 . S
C1274 C1276 1.478 . S
C1275 H1269 0.930 . S
C1275 C1271 1.400 . S
C1275 C1274 1.385 . S
C1276 C1274 1.478 . S
C1276 C1278 1.381 . S
C1276 C1282 1.383 . S
C1277 C1273 1.495 . S
C1277 H1283 0.959 . S
C1277 H1284 0.961 . S
C1277 H1285 0.960 . S
C1278 C1276 1.381 . S
C1278 C1279 1.394 . S
C1278 H1286 0.930 . S
C1279 C1278 1.394 . S
C1279 C1280 1.383 . S
C1279 H1287 0.929 . S
C1280 C1279 1.383 . S
C1280 C1281 1.377 . S
C1281 H1265 0.930 . S
C1281 C1280 1.377 . S
C1281 C1282 1.379 . S
C1282 H1266 0.931 . S
C1282 C1276 1.383 . S
C1282 C1281 1.379 . S
H1283 C1277 0.959 . S
H1284 C1277 0.961 . S
H1285 C1277 0.960 . S
H1286 C1278 0.930 . S
H1287 C1279 0.929 . S
H1288 C1296 0.929 . S
H1289 C1298 0.930 . S
H1290 C1300 0.930 . S
H1291 C1303 0.929 . S
H1292 C1306 0.930 . S
H1293 C1308 0.960 . S
H1294 C1308 0.960 . S
H1295 C1308 0.960 . S
C1296 H1288 0.929 . S
C1296 C1297 1.377 . S
C1296 C1298 1.384 . S
C1297 C1296 1.377 . S
C1297 C1303 1.390 . S
C1298 H1289 0.930 . S
C1298 C1296 1.384 . S
C1298 C1299 1.372 . S
C1299 C1298 1.372 . S
C1299 C1300 1.400 . S
C1299 C1304 1.490 . S
C1300 H1290 0.930 . S
C1300 C1299 1.400 . S
C1300 C1303 1.386 . S
H1301 C1317 0.930 . S
H1302 C1318 0.931 . S
C1303 H1291 0.929 . S
C1303 C1297 1.390 . S
C1303 C1300 1.386 . S
C1304 C1299 1.490 . S
C1304 C1306 1.395 . S
C1304 C1307 1.403 . S
H1305 C1311 0.930 . S
C1306 H1292 0.930 . S
C1306 C1304 1.395 . S
C1306 C1309 1.403 . S
C1307 C1304 1.403 . S
C1307 C1308 1.524 . S
C1307 C1311 1.400 . S
C1308 H1293 0.960 . S
C1308 H1294 0.960 . S
C1308 H1295 0.960 . S
C1308 C1307 1.524 . S
C1309 C1306 1.403 . S
C1309 C1310 1.392 . S
C1309 C1313 1.495 . S
C1310 C1309 1.392 . S
C1310 C1311 1.385 . S
C1310 C1312 1.478 . S
C1311 H1305 0.930 . S
C1311 C1307 1.400 . S
C1311 C1310 1.385 . S
C1312 C1310 1.478 . S
C1312 C1314 1.381 . S
C1312 C1318 1.383 . S
C1313 C1309 1.495 . S
C1313 H1319 0.959 . S
C1313 H1320 0.961 . S
C1313 H1321 0.960 . S
C1314 C1312 1.381 . S
C1314 C1315 1.394 . S
C1314 H1322 0.930 . S
C1315 C1314 1.394 . S
C1315 C1316 1.383 . S
C1315 H1323 0.929 . S
C1316 C1315 1.383 . S
C1316 C1317 1.377 . S
C1317 H1301 0.930 . S
C1317 C1316 1.377 . S
C1317 C1318 1.379 . S
C1318 H1302 0.931 . S
C1318 C1312 1.383 . S
C1318 C1317 1.379 . S
H1319 C1313 0.959 . S
H1320 C1313 0.961 . S
H1321 C1313 0.960 . S
H1322 C1314 0.930 . S
H1323 C1315 0.929 . S
H1324 C1332 0.929 . S
H1325 C1334 0.930 . S
H1326 C1336 0.930 . S
H1327 C1339 0.929 . S
H1328 C1342 0.930 . S
H1329 C1344 0.960 . S
H1330 C1344 0.960 . S
H1331 C1344 0.960 . S
C1332 H1324 0.929 . S
C1332 C1333 1.377 . S
C1332 C1334 1.384 . S
C1333 C1332 1.377 . S
C1333 C1339 1.390 . S
C1334 H1325 0.930 . S
C1334 C1332 1.384 . S
C1334 C1335 1.372 . S
C1335 C1334 1.372 . S
C1335 C1336 1.400 . S
C1335 C1340 1.490 . S
C1336 H1326 0.930 . S
C1336 C1335 1.400 . S
C1336 C1339 1.386 . S
H1337 C1353 0.930 . S
H1338 C1354 0.931 . S
C1339 H1327 0.929 . S
C1339 C1333 1.390 . S
C1339 C1336 1.386 . S
C1340 C1335 1.490 . S
C1340 C1342 1.395 . S
C1340 C1343 1.403 . S
H1341 C1347 0.930 . S
C1342 H1328 0.930 . S
C1342 C1340 1.395 . S
C1342 C1345 1.403 . S
C1343 C1340 1.403 . S
C1343 C1344 1.524 . S
C1343 C1347 1.400 . S
C1344 H1329 0.960 . S
C1344 H1330 0.960 . S
C1344 H1331 0.960 . S
C1344 C1343 1.524 . S
C1345 C1342 1.403 . S
C1345 C1346 1.392 . S
C1345 C1349 1.495 . S
C1346 C1345 1.392 . S
C1346 C1347 1.385 . S
C1346 C1348 1.478 . S
C1347 H1341 0.930 . S
C1347 C1343 1.400 . S
C1347 C1346 1.385 . S
C1348 C1346 1.478 . S
C1348 C1350 1.381 . S
C1348 C1354 1.383 . S
C1349 C1345 1.495 . S
C1349 H1355 0.959 . S
C1349 H1356 0.961 . S
C1349 H1357 0.960 . S
C1350 C1348 1.381 . S
C1350 C1351 1.394 . S
C1350 H1358 0.930 . S
C1351 C1350 1.394 . S
C1351 C1352 1.383 . S
C1351 H1359 0.929 . S
C1352 C1351 1.383 . S
C1352 C1353 1.377 . S
C1353 H1337 0.930 . S
C1353 C1352 1.377 . S
C1353 C1354 1.379 . S
C1354 H1338 0.931 . S
C1354 C1348 1.383 . S
C1354 C1353 1.379 . S
H1355 C1349 0.959 . S
H1356 C1349 0.961 . S
H1357 C1349 0.960 . S
H1358 C1350 0.930 . S
H1359 C1351 0.929 . S
C217 C0 0.988 . S
C236 C169 0.968 . S
C253 C143 0.986 . S
C272 C13 1.000 . S
C289 C156 0.985 . S
C308 C26 0.999 . S
C325 C130 0.980 . S
C344 C39 0.973 . S
C361 C52 0.986 . S
C380 C195 0.981 . S
C397 C65 0.983 . S
C416 C117 0.967 . S
C433 C182 0.981 . S
C452 C78 0.964 . S
C469 C91 0.980 . S
C488 C104 0.970 . S
C505 C60 1.601 . S
C524 C8 1.576 . S
C541 C21 1.601 . S
C560 C73 1.576 . S
C577 C34 1.599 . S
C596 C86 1.601 . S
C613 C99 1.598 . S
C632 C47 1.584 . S
C649 C112 1.594 . S
C668 C138 1.603 . S
C685 C125 1.594 . S
C704 C151 1.613 . S
C721 C190 1.601 . S
C740 C164 1.576 . S
C757 C177 1.602 . S
C776 C203 1.578 . S
C793 C70 1.152 . S
C812 C5 1.118 . S
C829 C18 1.155 . S
C848 C83 1.114 . S
C865 C31 1.147 . S
C884 C96 1.183 . S
C901 C57 1.156 . S
C920 C44 1.153 . S
C937 C62 1.229 1_545 S
C956 C140 1.247 . S
C973 C36 1.229 1_545 S
C992 C114 1.247 . S
C1009 C153 1.224 . S
C1028 C88 1.229 1_565 S
C1045 C127 1.223 . S
C1064 C10 1.225 1_565 S
C1081 C109 1.149 . S
C1100 C161 1.181 . S
C1117 C135 1.151 . S
C1136 C200 1.177 . S
C1153 C174 1.149 . S
C1172 C122 1.181 . S
C1189 C148 1.151 . S
C1208 C187 1.121 . S
C1225 C192 1.227 . S
C1244 C23 1.243 . S
C1261 C179 1.227 . S
C1280 C75 1.233 . S
C1297 C205 1.227 . S
C1316 C49 1.244 . S
C1333 C166 1.229 . S
C1352 C101 1.246 . S
