# Generated by pormake.
# Topology ung, (4)-cn, num edge types: 1
# Building blocks:
#     Node 0, Type 0, BuildingBlock: ESEHIV_clean_sbu_0, # of connection points: 4
#     Node 1, Type 0, BuildingBlock: ESEHIV_clean_sbu_0, # of connection points: 4
#     Node 2, Type 0, BuildingBlock: ESEHIV_clean_sbu_0, # of connection points: 4
#     Node 3, Type 0, BuildingBlock: ESEHIV_clean_sbu_0, # of connection points: 4
#     Node 4, Type 0, BuildingBlock: ESEHIV_clean_sbu_0, # of connection points: 4
#     Node 5, Type 0, BuildingBlock: ESEHIV_clean_sbu_0, # of connection points: 4
#     Node 6, Type 0, BuildingBlock: ESEHIV_clean_sbu_0, # of connection points: 4
#     Node 7, Type 0, BuildingBlock: ESEHIV_clean_sbu_0, # of connection points: 4
#     Node 8, Type 0, BuildingBlock: ESEHIV_clean_sbu_0, # of connection points: 4
#     Node 9, Type 0, BuildingBlock: ESEHIV_clean_sbu_0, # of connection points: 4
#     Node 10, Type 0, BuildingBlock: ESEHIV_clean_sbu_0, # of connection points: 4
#     Node 11, Type 0, BuildingBlock: ESEHIV_clean_sbu_0, # of connection points: 4
#     Node 12, Type 0, BuildingBlock: ESEHIV_clean_sbu_0, # of connection points: 4
#     Node 13, Type 0, BuildingBlock: ESEHIV_clean_sbu_0, # of connection points: 4
#     Node 14, Type 0, BuildingBlock: ESEHIV_clean_sbu_0, # of connection points: 4
#     Node 15, Type 0, BuildingBlock: ESEHIV_clean_sbu_0, # of connection points: 4
#     Node 16, Type 0, BuildingBlock: ESEHIV_clean_sbu_0, # of connection points: 4
#     Node 17, Type 0, BuildingBlock: ESEHIV_clean_sbu_0, # of connection points: 4
#     Edge 18, Type (0, 0), BuildingBlock: EZIPEK_clean_linker_0, # of connection points: 2
#     Edge 19, Type (0, 0), BuildingBlock: EZIPEK_clean_linker_0, # of connection points: 2
#     Edge 20, Type (0, 0), BuildingBlock: EZIPEK_clean_linker_0, # of connection points: 2
#     Edge 21, Type (0, 0), BuildingBlock: EZIPEK_clean_linker_0, # of connection points: 2
#     Edge 22, Type (0, 0), BuildingBlock: EZIPEK_clean_linker_0, # of connection points: 2
#     Edge 23, Type (0, 0), BuildingBlock: EZIPEK_clean_linker_0, # of connection points: 2
#     Edge 24, Type (0, 0), BuildingBlock: EZIPEK_clean_linker_0, # of connection points: 2
#     Edge 25, Type (0, 0), BuildingBlock: EZIPEK_clean_linker_0, # of connection points: 2
#     Edge 26, Type (0, 0), BuildingBlock: EZIPEK_clean_linker_0, # of connection points: 2
#     Edge 27, Type (0, 0), BuildingBlock: EZIPEK_clean_linker_0, # of connection points: 2
#     Edge 28, Type (0, 0), BuildingBlock: EZIPEK_clean_linker_0, # of connection points: 2
#     Edge 29, Type (0, 0), BuildingBlock: EZIPEK_clean_linker_0, # of connection points: 2
#     Edge 30, Type (0, 0), BuildingBlock: EZIPEK_clean_linker_0, # of connection points: 2
#     Edge 31, Type (0, 0), BuildingBlock: EZIPEK_clean_linker_0, # of connection points: 2
#     Edge 32, Type (0, 0), BuildingBlock: EZIPEK_clean_linker_0, # of connection points: 2
#     Edge 33, Type (0, 0), BuildingBlock: EZIPEK_clean_linker_0, # of connection points: 2
#     Edge 34, Type (0, 0), BuildingBlock: EZIPEK_clean_linker_0, # of connection points: 2
#     Edge 35, Type (0, 0), BuildingBlock: EZIPEK_clean_linker_0, # of connection points: 2
#     Edge 36, Type (0, 0), BuildingBlock: EZIPEK_clean_linker_0, # of connection points: 2
#     Edge 37, Type (0, 0), BuildingBlock: EZIPEK_clean_linker_0, # of connection points: 2
#     Edge 38, Type (0, 0), BuildingBlock: EZIPEK_clean_linker_0, # of connection points: 2
#     Edge 39, Type (0, 0), BuildingBlock: EZIPEK_clean_linker_0, # of connection points: 2
#     Edge 40, Type (0, 0), BuildingBlock: EZIPEK_clean_linker_0, # of connection points: 2
#     Edge 41, Type (0, 0), BuildingBlock: EZIPEK_clean_linker_0, # of connection points: 2
#     Edge 42, Type (0, 0), BuildingBlock: EZIPEK_clean_linker_0, # of connection points: 2
#     Edge 43, Type (0, 0), BuildingBlock: EZIPEK_clean_linker_0, # of connection points: 2
#     Edge 44, Type (0, 0), BuildingBlock: EZIPEK_clean_linker_0, # of connection points: 2
#     Edge 45, Type (0, 0), BuildingBlock: EZIPEK_clean_linker_0, # of connection points: 2
#     Edge 46, Type (0, 0), BuildingBlock: EZIPEK_clean_linker_0, # of connection points: 2
#     Edge 47, Type (0, 0), BuildingBlock: EZIPEK_clean_linker_0, # of connection points: 2
#     Edge 48, Type (0, 0), BuildingBlock: EZIPEK_clean_linker_0, # of connection points: 2
#     Edge 49, Type (0, 0), BuildingBlock: EZIPEK_clean_linker_0, # of connection points: 2
#     Edge 50, Type (0, 0), BuildingBlock: EZIPEK_clean_linker_0, # of connection points: 2
#     Edge 51, Type (0, 0), BuildingBlock: EZIPEK_clean_linker_0, # of connection points: 2
#     Edge 52, Type (0, 0), BuildingBlock: EZIPEK_clean_linker_0, # of connection points: 2
#     Edge 53, Type (0, 0), BuildingBlock: EZIPEK_clean_linker_0, # of connection points: 2
# Relax obj value: 0.013
# Max RMSD: 0.200
# Mean RMSD: 0.160
data_MOF--net-ung--node1-ESEHIV_clean_sbu_0--edge1-EZIPEK_clean_linker_0
_symmetry_space_group_name_H-M    P1
_symmetry_Int_Tables_number       1
_symmetry_cell_setting            triclinic
loop_
_symmetry_equiv_pos_as_xyz
'x, y, z'
_cell_length_a     67.818521
_cell_length_b     66.012174
_cell_length_c     16.255231
_cell_angle_alpha  98.357718
_cell_angle_beta   85.81504
_cell_angle_gamma 122.81768
loop_
_atom_site_label
_atom_site_type_symbol
_atom_site_fract_x
_atom_site_fract_y
_atom_site_fract_z
_atom_type_partial_charge
Cu0 Cu 0.06657 0.61221 0.2071 0.0
N1 N 0.05702 0.59384 0.29717 0.0
N2 N 0.05575 0.57036 0.38671 0.0
C3 C 0.06716 0.58285 0.32205 0.0
C4 C 0.03787 0.57366 0.40379 0.0
C5 C 0.03874 0.58823 0.34868 0.0
O6 O 0.07545 0.59518 0.1176 0.0
C7 C 0.08782 0.65743 0.30543 0.0
O8 O 0.06644 0.64738 0.33522 0.0
H9 H 0.08238 0.58369 0.29261 0.0
H10 H 1.02675 0.59414 0.34594 0.0
N11 N 0.04222 0.61418 0.16733 0.0
N12 N 1.02312 0.62699 0.10523 0.0
C13 C 0.04427 0.63197 0.12802 0.0
C14 C 1.01901 0.59749 0.16891 0.0
C15 C 1.00722 0.60537 0.13096 0.0
C16 C 0.06105 0.57239 0.09719 0.0
O17 O 0.0408 0.56132 0.13538 0.0
H18 H 0.06087 0.64804 0.11533 0.0
H19 H 1.0112 0.58057 0.19485 0.0
O20 O 0.09232 0.64531 0.24716 0.0
H21 H 1.02501 0.56588 0.45205 0.0
H22 H 0.98843 0.59584 0.12194 0.0
Cu23 Cu 0.50826 0.47697 0.16742 0.0
N24 N 0.51941 0.4929 0.07154 0.0
N25 N 0.54394 0.51419 0.97349 0.0
C26 C 0.54156 0.50376 0.04217 0.0
C27 C 0.52253 0.50963 0.95841 0.0
C28 C 0.50741 0.49645 0.01894 0.0
O29 O 0.53436 0.49383 0.24843 0.0
C30 C 0.50111 0.43254 0.073 0.0
O31 O 0.51991 0.44668 0.03123 0.0
H32 H 0.55567 0.50407 0.07061 0.0
H33 H 0.489 0.49008 0.02465 0.0
N34 N 0.48329 0.47922 0.21586 0.0
N35 N 0.45062 0.47032 0.28759 0.0
C36 C 0.46549 0.46311 0.26095 0.0
C37 C 0.47943 0.49714 0.2142 0.0
C38 C 0.45928 0.49168 0.25827 0.0
C39 C 0.54465 0.51692 0.26556 0.0
O40 O 0.53739 0.52826 0.22914 0.0
H41 H 0.46349 0.44648 0.27417 0.0
H42 H 0.49053 0.5131 0.1832 0.0
O43 O 0.49492 0.44197 0.13543 0.0
H44 H 0.51824 0.51558 0.90769 0.0
H45 H 0.45156 0.50252 0.26821 0.0
Cu46 Cu 0.62788 0.03603 0.28085 0.0
N47 N 0.60696 0.02722 0.19284 0.0
N48 N 0.58543 0.03084 0.10465 0.0
C49 C 0.60113 0.042 0.16795 0.0
C50 C 0.58136 1.00827 0.08822 0.0
C51 C 0.59474 1.00611 0.14242 0.0
O52 O 0.61547 0.04769 0.37661 0.0
C53 C 0.678 0.07519 0.27608 0.0
O54 O 0.67806 0.07934 0.35762 0.0
H55 H 0.60823 0.06059 0.1957 0.0
H56 H 0.59556 0.99029 0.14424 0.0
N57 N 0.62886 1.00985 0.30995 0.0
N58 N 0.64117 0.98936 0.36581 0.0
C59 C 0.64667 1.01133 0.34898 0.0
C60 C 0.6116 0.98612 0.30261 0.0
C61 C 0.61917 0.97347 0.33663 0.0
C62 C 0.59417 0.03262 0.3961 0.0
O63 O 0.58271 1.0108 0.35411 0.0
H64 H 0.66311 0.02818 0.3663 0.0
H65 H 0.59442 0.97853 0.2765 0.0
O66 O 0.65897 0.05907 0.23765 0.0
H67 H 0.56969 0.99445 0.04004 0.0
H68 H 0.60916 0.95417 0.3412 0.0
Cu69 Cu 0.06919 0.47149 0.72624 0.0
N70 N 0.07617 0.48836 0.63306 0.0
N71 N 0.07543 0.51096 0.54418 0.0
C72 C 0.06864 0.50283 0.61923 0.0
C73 C 0.08746 0.50112 0.50892 0.0
C74 C 0.08778 0.4871 0.56355 0.0
O75 O 0.06201 0.4895 0.81754 0.0
C76 C 0.04626 0.42402 0.64153 0.0
O77 O 0.06755 0.43205 0.61325 0.0
H78 H 0.05789 0.50683 0.66227 0.0
H79 H 0.0954 0.47622 0.55212 0.0
N80 N 0.09466 0.47 0.75848 0.0
N81 N 0.11622 0.46077 0.82493 0.0
C82 C 0.09558 0.45941 0.82238 0.0
C83 C 0.11551 0.47842 0.72025 0.0
C84 C 0.12871 0.47267 0.76059 0.0
C85 C 0.07808 0.51131 0.84412 0.0
O86 O 0.0992 0.52064 0.81239 0.0
H87 H 0.08141 0.45079 0.86583 0.0
H88 H 0.12088 0.48816 0.66672 0.0
O89 O 0.04262 0.43803 0.69416 0.0
H90 H 0.09498 0.50347 0.44731 0.0
H91 H 0.14628 0.47709 0.74455 0.0
Cu92 Cu 0.65916 0.61412 0.60286 0.0
N93 N 0.64923 0.59415 0.68821 0.0
N94 N 0.62585 0.56977 0.78182 0.0
C95 C 0.62774 0.58324 0.72315 0.0
C96 C 0.64685 0.57219 0.78424 0.0
C97 C 0.66128 0.58729 0.72643 0.0
O98 O 0.63254 0.59867 0.52455 0.0
C99 C 0.6577 0.65218 0.71008 0.0
O100 O 0.6365 0.63489 0.72904 0.0
H101 H 0.61369 0.58498 0.70558 0.0
H102 H 0.67925 0.59279 0.71293 0.0
N103 N 0.68537 0.61622 0.5453 0.0
N104 N 0.71886 0.63065 0.47253 0.0
C105 C 0.7038 0.63586 0.51442 0.0
C106 C 0.68909 0.59811 0.52225 0.0
C107 C 0.70963 0.60692 0.47737 0.0
C108 C 0.62317 0.57608 0.49805 0.0
O109 O 0.63176 0.56434 0.5232 0.0
H110 H 0.70595 0.65352 0.5213 0.0
H111 H 0.67753 0.57968 0.53639 0.0
O112 O 0.66932 0.64718 0.65498 0.0
H113 H 0.65136 0.56363 0.82478 0.0
H114 H 0.71718 0.59669 0.44989 0.0
Cu115 Cu 0.49705 0.04392 0.73274 0.0
N116 N 0.51744 0.05994 0.82459 0.0
N117 N 0.54071 0.06351 0.92391 0.0
C118 C 0.52507 0.04861 0.86299 0.0
C119 C 0.54313 0.08521 0.92443 0.0
C120 C 0.52868 0.08296 0.86277 0.0
O121 O 0.51371 0.03228 0.65558 0.0
C122 C 0.45741 0.02644 0.83354 0.0
O123 O 0.46852 0.04975 0.86064 0.0
H124 H 0.51967 0.02985 0.84509 0.0
H125 H 0.52693 0.09717 0.84582 0.0
N126 N 0.49116 0.06212 0.67001 0.0
N127 N 0.48147 0.08521 0.61709 0.0
C128 C 0.48804 0.08096 0.68654 0.0
C129 C 0.48628 0.05453 0.58837 0.0
C130 C 0.48047 0.06865 0.55576 0.0
C131 C 0.53383 0.04897 0.63177 0.0
O132 O 0.54148 0.07175 0.65941 0.0
H133 H 0.49 0.09092 0.74764 0.0
H134 H 0.48642 0.03919 0.55499 0.0
O135 O 0.46667 0.01897 0.77561 0.0
H136 H 0.55484 0.10155 0.96507 0.0
H137 H 0.47558 0.06677 0.49185 0.0
Cu138 Cu 0.73944 0.95136 0.62051 0.0
N139 N 0.73419 0.93358 0.70932 0.0
N140 N 0.73724 0.91084 0.79127 0.0
C141 C 0.74426 0.92118 0.72012 0.0
C142 C 0.72227 0.91697 0.82676 0.0
C143 C 0.72041 0.93097 0.77609 0.0
O144 O 0.74882 0.93557 0.52803 0.0
C145 C 0.77618 0.9943 0.71795 0.0
O146 O 0.77884 0.97913 0.75257 0.0
H147 H 0.75675 0.92007 0.67743 0.0
H148 H 0.70997 0.93895 0.78757 0.0
N149 N 0.71153 0.94849 0.5908 0.0
N150 N 0.68682 0.9558 0.53656 0.0
C151 C 0.7095 0.96411 0.55202 0.0
C152 C 0.68937 0.92982 0.60014 0.0
C153 C 0.67412 0.93429 0.56684 0.0
C154 C 0.74073 0.92985 0.4541 0.0
O155 O 0.72902 0.93882 0.43208 0.0
H156 H 0.72431 0.98093 0.53389 0.0
H157 H 0.68467 0.91386 0.62795 0.0
O158 O 0.76193 0.98617 0.65682 0.0
H159 H 0.71359 0.91194 0.88567 0.0
H160 H 0.65518 0.92251 0.56375 0.0
Cu161 Cu 0.16537 0.81957 0.58244 0.0
N162 N 0.18248 0.83214 0.68268 0.0
N163 N 0.20891 0.85814 0.78122 0.0
C164 C 0.20122 0.85488 0.70314 0.0
C165 C 0.19464 0.83671 0.81096 0.0
C166 C 0.17833 0.82071 0.75007 0.0
O167 O 0.18317 0.84551 0.50964 0.0
C168 C 0.12567 0.8176 0.67126 0.0
O169 O 0.14142 0.8372 0.71796 0.0
H170 H 0.20909 0.86874 0.66178 0.0
H171 H 0.16435 0.80207 0.75457 0.0
N172 N 0.16443 0.79116 0.53622 0.0
N173 N 0.15157 0.7538 0.47059 0.0
C174 C 0.14649 0.77099 0.49372 0.0
C175 C 0.1813 0.78642 0.54006 0.0
C176 C 0.17341 0.76338 0.49959 0.0
C177 C 0.19311 0.843 0.44243 0.0
O178 O 0.18814 0.82123 0.41125 0.0
H179 H 0.12997 0.76881 0.48085 0.0
H180 H 0.19811 0.79882 0.57069 0.0
O181 O 0.13241 0.8091 0.60758 0.0
H182 H 0.19606 0.83293 0.87211 0.0
H183 H 0.18281 0.75423 0.4928 0.0
Cu184 Cu 0.30591 0.38388 0.58889 0.0
N185 N 0.2963 0.39315 0.69085 0.0
N186 N 0.27237 0.39228 0.7945 0.0
C187 C 0.27449 0.38056 0.72253 0.0
C188 C 0.29361 0.41294 0.80917 0.0
C189 C 0.30834 0.41347 0.74498 0.0
O190 O 0.28043 0.37548 0.5137 0.0
C191 C 0.32457 0.36324 0.66865 0.0
O192 O 0.33316 0.38441 0.71452 0.0
H193 H 0.26039 0.36326 0.69306 0.0
H194 H 0.32652 0.4277 0.73815 0.0
N195 N 0.33397 0.41019 0.55183 0.0
N196 N 0.36799 0.43193 0.48604 0.0
C197 C 0.3513 0.4097 0.50649 0.0
C198 C 0.33997 0.43346 0.55946 0.0
C199 C 0.36096 0.4469 0.51926 0.0
C200 C 0.28217 0.37722 0.43609 0.0
O201 O 0.30078 0.37974 0.39614 0.0
H202 H 0.35141 0.39336 0.48719 0.0
H203 H 0.32947 0.44006 0.59033 0.0
O204 O 0.31151 0.35839 0.60639 0.0
H205 H 0.29807 0.42662 0.86246 0.0
H206 H 0.3701 0.46605 0.51305 0.0
Cu207 Cu 0.74204 0.81094 0.03659 0.0
N208 N 0.73601 0.82247 0.14221 0.0
N209 N 0.73529 0.84782 0.24842 0.0
C210 C 0.74052 0.84504 0.16742 0.0
C211 C 0.72704 0.82624 0.2753 0.0
C212 C 0.72753 0.81065 0.20976 0.0
O213 O 0.74391 0.83258 0.96069 0.0
C214 C 0.76711 0.7924 0.08826 0.0
O215 O 0.74618 0.77698 0.11562 0.0
H216 H 0.74746 0.85914 0.12745 0.0
H217 H 0.72209 0.79201 0.21143 0.0
N218 N 0.71664 0.77948 0.99938 0.0
N219 N 0.69499 0.74256 0.92693 0.0
C220 C 0.7165 0.76322 0.93783 0.0
C221 C 0.69448 0.76865 0.02785 0.0
C222 C 0.68112 0.74586 0.9835 0.0
C223 C 0.76123 0.85354 0.94775 0.0
O224 O 0.78192 0.86163 0.979 0.0
H225 H 0.73181 0.76638 0.90207 0.0
H226 H 0.68846 0.77679 0.07747 0.0
O227 O 0.76984 0.80917 0.04872 0.0
H228 H 0.721 0.82207 0.33774 0.0
H229 H 0.66268 0.73266 0.99216 0.0
Cu230 Cu 0.31166 0.96557 0.12048 0.0
N231 N 0.29936 0.94941 0.21585 0.0
N232 N 0.27388 0.9238 0.30339 0.0
C233 C 0.27782 0.92934 0.22444 0.0
C234 C 0.29365 0.94093 0.34596 0.0
C235 C 0.30928 0.95668 0.29196 0.0
O236 O 0.28579 0.94775 0.03893 0.0
C237 C 0.31477 1.00895 0.20724 0.0
O238 O 0.29444 0.99397 0.23975 0.0
H239 H 0.26516 0.91917 0.17425 0.0
H240 H 0.32653 0.97261 0.30739 0.0
N241 N 0.33738 0.96366 0.07746 0.0
N242 N 0.37066 0.97231 1.01004 0.0
C243 C 0.35609 0.98002 0.03583 0.0
C244 C 0.34036 0.9451 0.07783 0.0
C245 C 0.36086 0.95039 0.03643 0.0
C246 C 0.28815 0.94139 0.96277 0.0
O247 O 0.30927 0.95047 0.93135 0.0
H248 H 0.35884 0.99708 0.0238 0.0
H249 H 0.32829 0.9287 0.10542 0.0
O250 O 0.32373 1.00038 0.15229 0.0
H251 H 0.2965 0.94197 0.41151 0.0
H252 H 0.368 0.93901 0.02608 0.0
Cu253 Cu 0.17048 0.38496 0.12923 0.0
N254 N 0.19136 0.39477 0.21874 0.0
N255 N 0.21732 0.39509 0.29824 0.0
C256 C 0.19976 0.38188 0.24151 0.0
C257 C 0.2199 0.41706 0.31257 0.0
C258 C 0.20403 0.41686 0.26328 0.0
O259 O 0.18774 0.38228 0.03063 0.0
C260 C 0.12748 0.35741 0.20751 0.0
O261 O 0.13481 0.3793 0.24532 0.0
H262 H 0.19396 0.36356 0.21416 0.0
H263 H 0.20294 0.43227 0.25674 0.0
N264 N 0.16351 0.40846 0.11366 0.0
N265 N 0.15049 0.42789 0.05427 0.0
C266 C 0.15637 0.41104 0.04228 0.0
C267 C 0.16223 0.42443 0.17213 0.0
C268 C 0.15416 0.43628 0.13595 0.0
C269 C 0.1935 0.3667 0.01376 0.0
O270 O 0.18425 0.34809 0.05612 0.0
H271 H 0.15497 0.4004 0.98312 0.0
H272 H 0.16606 0.42673 0.23744 0.0
O273 O 0.14079 0.355 0.15249 0.0
H274 H 0.23329 0.43257 0.35208 0.0
H275 H 0.15097 0.44987 0.16729 0.0
Cu276 Cu 0.39389 0.28859 0.89579 0.0
N277 N 0.38949 0.27504 0.9951 0.0
N278 N 0.39209 0.25432 0.08704 0.0
C279 C 0.39554 0.25928 1.00761 0.0
C280 C 0.38358 0.26745 0.12632 0.0
C281 C 0.38214 0.28033 0.06961 0.0
O282 O 0.39373 0.26475 0.80811 0.0
C283 C 0.43939 0.32871 0.95765 0.0
O284 O 0.44115 0.31242 0.98844 0.0
H285 H 0.403 0.25214 0.96017 0.0
H286 H 0.37684 0.29325 0.08255 0.0
N287 N 0.36922 0.29246 0.87352 0.0
N288 N 0.35003 0.30654 0.8189 0.0
C289 C 0.3684 0.30359 0.81127 0.0
C290 C 0.35047 0.28785 0.92108 0.0
C291 C 0.3387 0.29656 0.88784 0.0
C292 C 0.40541 0.26782 0.74113 0.0
O293 O 0.42071 0.28991 0.72337 0.0
H294 H 0.38164 0.31045 0.76357 0.0
H295 H 0.34605 0.27951 0.97767 0.0
O296 O 0.42206 0.3217 0.91014 0.0
H297 H 0.37946 0.26825 0.19184 0.0
H298 H 0.32338 0.29625 0.91366 0.0
Cu299 Cu 0.82256 0.13663 0.96535 0.0
N300 N 0.83391 0.15435 0.87356 0.0
N301 N 0.85845 0.1763 0.77668 0.0
C302 C 0.85562 0.16403 0.84069 0.0
C303 C 0.83778 0.17422 0.76835 0.0
C304 C 0.82266 0.16064 0.82815 0.0
O305 O 0.84815 0.15307 0.04845 0.0
C306 C 0.8222 0.09539 0.87284 0.0
O307 O 0.84355 0.11139 0.85019 0.0
H308 H 0.86913 0.16221 0.86334 0.0
H309 H 0.80477 0.15586 0.83828 0.0
N310 N 0.79668 0.13711 0.01495 0.0
N311 N 0.76358 0.12652 0.08699 0.0
C312 C 0.77787 0.11929 0.05174 0.0
C313 C 0.794 0.15611 0.02722 0.0
C314 C 0.77372 0.14968 0.07166 0.0
C315 C 0.85763 0.17593 0.06968 0.0
O316 O 0.85027 0.18743 0.0349 0.0
H317 H 0.77495 0.10155 0.05421 0.0
H318 H 0.80614 0.1736 1.00636 0.0
O319 O 0.81139 0.10245 0.9247 0.0
H320 H 0.83401 0.18212 0.72273 0.0
H321 H 0.76697 0.16115 0.0918 0.0
Cu322 Cu 0.98576 0.72433 0.84086 0.0
N323 N 0.96985 0.7178 0.74077 0.0
N324 N 0.94955 0.72013 0.64405 0.0
C325 C 0.95924 0.72884 0.72084 0.0
C326 C 0.95433 0.70313 0.61397 0.0
C327 C 0.96691 0.70176 0.67375 0.0
O328 O 0.96941 0.73351 0.92939 0.0
C329 C 1.0273 0.76531 0.77755 0.0
O330 O 1.01267 0.76969 0.7477 0.0
H331 H 0.95882 0.74312 0.7614 0.0
H332 H 0.97353 0.68996 0.66862 0.0
N333 N 0.98381 0.69634 0.86716 0.0
N334 N 0.99142 0.67217 0.9236 0.0
C335 C 0.9985 0.69535 0.91627 0.0
C336 C 0.96698 0.67299 0.84301 0.0
C337 C 0.97165 0.65809 0.87753 0.0
C338 C 0.94716 0.71895 0.93539 0.0
O339 O 0.93644 0.69882 0.88339 0.0
H340 H 1.0139 0.71123 0.94662 0.0
H341 H 0.95219 0.66719 0.80361 0.0
O342 O 1.0194 0.7484 0.82382 0.0
H343 H 0.94911 0.69255 0.55319 0.0
H344 H 0.96126 0.63842 0.87003 0.0
Cu345 Cu 0.40704 0.1563 0.41868 0.0
N346 N 0.41511 0.17316 0.32507 0.0
N347 N 0.41548 0.19633 0.23602 0.0
C348 C 0.40327 0.18168 0.29487 0.0
C349 C 0.43573 0.19697 0.2279 0.0
C350 C 0.43545 0.18267 0.28288 0.0
O351 O 0.40164 0.17602 0.50909 0.0
C352 C 0.36705 0.11296 0.33177 0.0
O353 O 0.36472 0.12786 0.29414 0.0
H354 H 0.38638 0.17794 0.3172 0.0
H355 H 0.44958 0.18033 0.29419 0.0
N356 N 0.43299 0.15698 0.45716 0.0
N357 N 0.45431 0.14605 0.51555 0.0
C358 C 0.43426 0.13825 0.47428 0.0
C359 C 0.45286 0.17717 0.48889 0.0
C360 C 0.466 0.17051 0.52485 0.0
C361 C 0.38655 0.18198 0.51346 0.0
O362 O 0.36898 0.17086 0.46024 0.0
H363 H 0.42041 0.11933 0.45998 0.0
H364 H 0.457 0.19547 0.48908 0.0
O365 O 0.38232 0.12163 0.38982 0.0
H366 H 0.45005 0.20785 0.1878 0.0
H367 H 0.48265 0.18265 0.55692 0.0
Cu368 Cu 0.96891 0.27733 0.40901 0.0
N369 N 0.96185 0.25633 0.48821 0.0
N370 N 0.93952 0.23065 0.57979 0.0
C371 C 0.94219 0.24751 0.53445 0.0
C372 C 0.95818 0.22867 0.56178 0.0
C373 C 0.972 0.2446 0.50505 0.0
O374 O 0.941 0.25978 0.33618 0.0
C375 C 0.99349 0.32927 0.45919 0.0
O376 O 1.00713 0.33087 0.39571 0.0
H377 H 0.92957 0.25265 0.53231 0.0
H378 H 0.98777 0.24677 0.47583 0.0
N379 N 0.99439 0.28325 0.33819 0.0
N380 N 0.03049 0.29757 0.28475 0.0
C381 C 1.01637 0.28868 0.35127 0.0
C382 C 0.99468 0.28832 0.26074 0.0
C383 C 1.01667 0.29712 0.22806 0.0
C384 C 0.93505 0.23839 0.30296 0.0
O385 O 0.94765 0.22975 0.31866 0.0
H386 H 1.02229 0.2877 0.40977 0.0
H387 H 0.98025 0.28742 0.23234 0.0
O388 O 0.97542 0.30855 0.47136 0.0
H389 H 0.96119 0.21613 0.58599 0.0
H390 H 1.02246 0.30389 0.16845 0.0
Cu391 Cu 0.85311 0.7326 0.28883 0.0
N392 N 0.87407 0.74498 0.37913 0.0
N393 N 0.89796 0.74686 0.47214 0.0
C394 C 0.88338 0.73355 0.40671 0.0
C395 C 0.89781 0.7674 0.48695 0.0
C396 C 0.88299 0.76617 0.42952 0.0
O397 O 0.86732 0.72113 0.19868 0.0
C398 C 0.80402 0.69122 0.29302 0.0
O399 O 0.80406 0.6881 0.21134 0.0
H400 H 0.87963 0.71586 0.37911 0.0
H401 H 0.879 0.77976 0.42496 0.0
N402 N 0.85001 0.75688 0.25339 0.0
N403 N 0.83503 0.77576 0.20299 0.0
C404 C 0.83062 0.75453 0.22371 0.0
C405 C 0.86712 0.7804 0.25088 0.0
C406 C 0.85794 0.79206 0.22014 0.0
C407 C 0.8889 0.73597 0.18159 0.0
O408 O 0.90013 0.75793 0.2227 0.0
H409 H 0.81362 0.73771 0.21769 0.0
H410 H 0.88508 0.78858 0.27035 0.0
O411 O 0.82268 0.70792 0.3324 0.0
H412 H 0.9077 0.78215 0.5357 0.0
H413 H 0.86728 0.81107 0.21154 0.0
C414 C 0.06841 0.52119 0.99163 0.0
C415 C 0.07324 0.52672 0.90845 0.0
C416 C 0.07004 0.56237 0.94859 0.0
C417 C 0.06682 0.55778 0.03274 0.0
N418 N 0.06683 0.5353 0.13706 0.0
N419 N 0.08142 0.55415 0.80892 0.0
C420 C 0.06696 0.53778 0.05488 0.0
C421 C 0.075 0.54786 0.88748 0.0
N422 N 0.0653 0.50011 1.01041 0.0
N423 N 0.06707 0.57974 0.92611 0.0
H424 H 0.08357 0.54327 0.7607 0.0
H425 H 0.08598 0.57083 0.79247 0.0
H426 H 0.06342 0.5907 0.96867 0.0
H427 H 0.06635 0.58206 0.86467 0.0
H428 H 0.05891 0.49349 0.06717 0.0
H429 H 0.06765 0.48826 0.96737 0.0
H430 H 0.06935 0.52274 0.15839 0.0
H431 H 0.06632 0.54733 0.18503 0.0
C432 C 0.60232 0.56636 0.90888 0.0
C433 C 0.60546 0.55557 0.83128 0.0
C434 C 0.56894 0.51681 0.85157 0.0
C435 C 0.56507 0.528 0.92672 0.0
N436 N 0.5764 0.56346 0.0248 0.0
N437 N 0.59166 0.52155 0.72461 0.0
C438 C 0.58141 0.55281 0.95504 0.0
C439 C 0.5887 0.53101 0.80153 0.0
N440 N 0.61959 0.58951 0.93832 0.0
N441 N 0.55388 0.49242 0.82966 0.0
H442 H 0.60636 0.53143 0.68829 0.0
H443 H 0.57918 0.50457 0.69473 0.0
H444 H 0.53931 0.48181 0.86544 0.0
H445 H 0.55645 0.48238 0.77951 0.0
H446 H 0.61972 0.59803 0.99756 0.0
H447 H 0.63469 0.59988 0.90441 0.0
H448 H 0.58636 0.58195 0.04595 0.0
H449 H 0.56128 0.55383 0.05958 0.0
C450 C 0.55615 0.04205 0.09794 0.0
C451 C 0.57527 0.04091 0.06199 0.0
C452 C 0.57331 0.05771 0.93933 0.0
C453 C 0.5533 0.05744 0.97307 0.0
N454 N 0.52445 0.04821 0.08006 0.0
N455 N 0.60246 0.04739 0.95046 0.0
C456 C 0.54452 0.04949 0.0517 0.0
C457 C 0.58401 0.04876 0.98312 0.0
N458 N 0.54923 0.03598 0.17643 0.0
N459 N 0.58201 0.06675 0.86548 0.0
H460 H 0.61114 0.04197 0.98323 0.0
H461 H 0.60895 0.05099 0.89087 0.0
H462 H 0.57432 0.07324 0.83268 0.0
H463 H 0.59723 0.06887 0.83788 0.0
H464 H 0.5369 0.0384 0.21037 0.0
H465 H 0.55681 0.0295 0.20982 0.0
H466 H 0.51556 0.04054 0.13303 0.0
H467 H 0.51594 0.0539 0.04764 0.0
C468 C 0.57431 0.028 0.53568 0.0
C469 C 0.58118 0.03918 0.46137 0.0
C470 C 0.55446 0.05361 0.49414 0.0
C471 C 0.54866 0.04373 0.57094 0.0
N472 N 0.55611 0.02518 0.67159 0.0
N473 N 0.5805 0.06558 0.37539 0.0
C474 C 0.55936 0.03184 0.5935 0.0
C475 C 0.57214 0.05299 0.44261 0.0
N476 N 0.58189 1.01343 0.55054 0.0
N477 N 0.54228 0.06269 0.4687 0.0
H478 H 0.59304 0.06516 0.33546 0.0
H479 H 0.57655 0.07803 0.36287 0.0
H480 H 0.52906 0.06319 0.504 0.0
H481 H 0.54368 0.06769 0.40969 0.0
H482 H 0.5753 1.00233 0.59775 0.0
H483 H 0.59403 1.01149 0.51272 0.0
H484 H 0.56554 0.01909 0.69556 0.0
H485 H 0.54517 0.02746 0.71514 0.0
C486 C 0.07677 0.56596 0.49439 0.0
C487 C 0.06076 0.55542 0.42667 0.0
C488 C 0.05277 0.51515 0.44246 0.0
C489 C 0.06993 0.52591 0.50655 0.0
N490 N 0.10013 0.56147 0.58848 0.0
N491 N 0.03524 0.52088 0.3297 0.0
C492 C 0.08239 0.55134 0.53143 0.0
C493 C 0.04923 0.53021 0.39889 0.0
N494 N 0.08625 0.58992 0.5237 0.0
N495 N 0.0394 0.49041 0.42542 0.0
H496 H 0.03204 0.53149 0.29803 0.0
H497 H 1.02809 0.5032 0.30045 0.0
H498 H 0.04155 0.47908 0.45711 0.0
H499 H 1.02511 0.48104 0.38479 0.0
H500 H 0.09634 0.59847 0.57771 0.0
H501 H 0.08277 0.60099 0.49612 0.0
H502 H 0.11144 0.5801 0.60465 0.0
H503 H 0.10451 0.5511 0.6161 0.0
C504 C 0.58082 0.54284 0.4676 0.0
C505 C 0.60245 0.56236 0.44046 0.0
C506 C 0.58686 0.55025 0.29745 0.0
C507 C 0.56484 0.53152 0.32535 0.0
N508 N 0.53951 0.51262 0.43902 0.0
N509 N 0.62525 0.58668 0.33207 0.0
C510 C 0.56149 0.52844 0.41097 0.0
C511 C 0.60514 0.56676 0.35619 0.0
N512 N 0.57876 0.53801 0.54787 0.0
N513 N 0.59068 0.55153 0.21404 0.0
H514 H 0.63947 0.59846 0.37191 0.0
H515 H 0.62731 0.59261 0.2743 0.0
H516 H 0.57794 0.53961 0.16923 0.0
H517 H 0.60695 0.56293 0.18834 0.0
H518 H 0.56482 0.52225 0.56896 0.0
H519 H 0.59162 0.54931 0.59305 0.0
H520 H 0.53522 0.51151 0.50169 0.0
H521 H 0.52494 0.50178 0.39981 0.0
C522 C 0.75921 0.88942 0.32437 0.0
C523 C 0.73704 0.869 0.29628 0.0
C524 C 0.71753 0.8876 0.37689 0.0
C525 C 0.73976 0.90902 0.39968 0.0
N526 N 0.78184 0.93164 0.38655 0.0
N527 N 0.69552 0.85037 0.28232 0.0
C528 C 0.76067 0.9103 0.3711 0.0
C529 C 0.71633 0.86866 0.31858 0.0
N530 N 0.77874 0.88843 0.30858 0.0
N531 N 0.69758 0.88468 0.41443 0.0
H532 H 0.69423 0.83635 0.23912 0.0
H533 H 0.6801 0.85031 0.28902 0.0
H534 H 0.69761 0.89754 0.46007 0.0
H535 H 0.68124 0.86847 0.40666 0.0
H536 H 0.79518 0.90156 0.33419 0.0
H537 H 0.77808 0.87342 0.27439 0.0
H538 H 0.79752 0.93457 0.3605 0.0
H539 H 0.78349 0.94716 0.42063 0.0
C540 C 0.23604 0.86699 0.4067 0.0
C541 C 0.21387 0.86465 0.40919 0.0
C542 C 0.23195 0.90274 0.34657 0.0
C543 C 0.25328 0.90347 0.33623 0.0
N544 N 0.2744 0.88405 0.34276 0.0
N545 N 0.19 0.87891 0.37313 0.0
C546 C 0.25493 0.88491 0.36247 0.0
C547 C 0.21163 0.88222 0.37703 0.0
N548 N 0.23944 0.85284 0.45007 0.0
N549 N 0.23141 0.92211 0.3299 0.0
H550 H 0.1749 0.86427 0.39544 0.0
H551 H 0.18672 0.88961 0.34256 0.0
H552 H 0.24601 0.93731 0.30807 0.0
H553 H 0.21721 0.924 0.34379 0.0
H554 H 0.2558 0.8554 0.45738 0.0
H555 H 0.22645 0.84024 0.48633 0.0
H556 H 0.27574 0.86958 0.35244 0.0
H557 H 0.28832 0.8967 0.30923 0.0
C558 C 0.27332 0.40021 0.34816 0.0
C559 C 0.26504 0.38038 0.3948 0.0
C560 C 0.22467 0.37037 0.37869 0.0
C561 C 0.23294 0.38883 0.32649 0.0
N562 N 0.26418 0.41645 0.24292 0.0
N563 N 0.23201 0.34352 0.43934 0.0
C564 C 0.25698 0.40217 0.30532 0.0
C565 C 0.24042 0.36453 0.40567 0.0
N566 N 0.29658 0.41827 0.34934 0.0
N567 N 0.20197 0.35906 0.40504 0.0
H568 H 0.24289 0.33826 0.45718 0.0
H569 H 0.2142 0.33021 0.44184 0.0
H570 H 0.19017 0.36309 0.38668 0.0
H571 H 0.19544 0.34726 0.45011 0.0
H572 H 0.30298 0.43413 0.32256 0.0
H573 H 0.30911 0.419 0.38524 0.0
H574 H 0.28117 0.42482 0.21934 0.0
H575 H 0.25249 0.41761 0.2086 0.0
C576 C 0.21209 0.37585 0.87227 0.0
C577 C 0.21315 0.37164 0.95471 0.0
C578 C 0.25183 0.37733 0.92486 0.0
C579 C 0.25188 0.38427 0.84658 0.0
N580 N 0.23364 0.39323 0.74872 0.0
N581 N 0.23645 0.37317 0.06438 0.0
C582 C 0.23237 0.38428 0.82087 0.0
C583 C 0.23362 0.3735 0.98229 0.0
N584 N 0.19149 0.3711 0.84225 0.0
N585 N 0.26909 0.37397 0.94359 0.0
H586 H 0.22415 0.37142 0.10963 0.0
H587 H 0.25206 0.37712 0.0892 0.0
H588 H 0.28254 0.37649 0.90227 0.0
H589 H 0.2688 0.36648 0.99617 0.0
H590 H 0.18892 0.37154 0.78031 0.0
H591 H 0.17623 0.36455 0.87757 0.0
H592 H 0.22109 0.39617 0.73039 0.0
H593 H 0.24831 0.3996 0.71031 0.0
C594 C 0.76387 0.89321 0.94043 0.0
C595 C 0.75724 0.86941 0.90296 0.0
C596 C 0.7373 0.87319 0.79054 0.0
C597 C 0.74507 0.89728 0.8257 0.0
N598 N 0.76997 0.93213 0.92254 0.0
N599 N 0.74208 0.83908 0.78247 0.0
C600 C 0.7597 0.90785 0.89709 0.0
C601 C 0.74522 0.86007 0.82501 0.0
N602 N 0.77285 0.90143 0.01946 0.0
N603 N 0.72164 0.86255 0.72596 0.0
H604 H 0.74828 0.82942 0.80434 0.0
H605 H 0.73545 0.83253 0.72204 0.0
H606 H 0.71562 0.87175 0.69961 0.0
H607 H 0.71324 0.84419 0.70299 0.0
H608 H 0.77532 0.91733 0.05309 0.0
H609 H 0.77594 0.89148 0.05484 0.0
H610 H 0.78279 0.94163 0.96889 0.0
H611 H 0.76727 0.94323 0.89157 0.0
C612 C 0.2679 0.8989 0.88669 0.0
C613 C 0.26761 0.9202 0.91483 0.0
C614 C 0.22771 0.89983 0.85727 0.0
C615 C 0.229 0.87955 0.82337 0.0
N616 N 0.25159 0.86136 0.79222 0.0
N617 N 0.24851 0.94223 0.91779 0.0
C618 C 0.24953 0.87962 0.83405 0.0
C619 C 0.24781 0.92102 0.89772 0.0
N620 N 0.28501 0.89643 0.91403 0.0
N621 N 0.20698 0.89844 0.85287 0.0
H622 H 0.26291 0.958 0.94724 0.0
H623 H 0.23567 0.94478 0.89968 0.0
H624 H 0.19215 0.88321 0.82317 0.0
H625 H 0.20394 0.91147 0.88353 0.0
H626 H 0.28474 0.88034 0.90245 0.0
H627 H 0.29825 0.90955 0.9555 0.0
H628 H 0.26708 0.86157 0.79015 0.0
H629 H 0.23838 0.84706 0.75317 0.0
C630 C 0.39429 0.24327 0.59864 0.0
C631 C 0.40098 0.24608 0.68228 0.0
C632 C 0.3949 0.20533 0.65804 0.0
C633 C 0.39075 0.20371 0.57219 0.0
N634 N 0.3924 0.2244 0.45804 0.0
N635 N 0.41241 0.23176 0.7866 0.0
C636 C 0.39203 0.22356 0.54166 0.0
C637 C 0.40257 0.22762 0.71068 0.0
N638 N 0.38913 0.25883 0.5739 0.0
N639 N 0.3908 0.18537 0.69009 0.0
H640 H 0.41922 0.24823 0.82512 0.0
H641 H 0.41611 0.21995 0.80735 0.0
H642 H 0.3847 0.16862 0.65406 0.0
H643 H 0.39121 0.18475 0.75359 0.0
H644 H 0.38175 0.25601 0.51607 0.0
H645 H 0.38996 0.27315 0.6138 0.0
H646 H 0.39589 0.23966 0.43283 0.0
H647 H 0.39182 0.21103 0.4137 0.0
C648 C 0.88069 0.17961 0.6462 0.0
C649 C 0.87939 0.18953 0.72827 0.0
C650 C 0.91906 0.22537 0.71485 0.0
C651 C 0.91959 0.21629 0.63079 0.0
N652 N 0.9004 0.1864 0.51252 0.0
N653 N 0.89568 0.22277 0.83846 0.0
C654 C 0.90024 0.19378 0.5954 0.0
C655 C 0.89823 0.21265 0.76222 0.0
N656 N 0.8634 0.15634 0.61803 0.0
N657 N 0.93866 0.2461 0.74906 0.0
H658 H 0.88051 0.21391 0.87368 0.0
H659 H 0.90776 0.24046 0.86445 0.0
H660 H 0.95386 0.25587 0.7148 0.0
H661 H 0.94048 0.25272 0.81202 0.0
H662 H 0.86412 0.147 0.56168 0.0
H663 H 0.84901 0.14569 0.65433 0.0
H664 H 0.88595 0.1715 0.48022 0.0
H665 H 0.91469 0.19625 0.4746 0.0
C666 C 0.91265 0.71775 0.62055 0.0
C667 C 0.93669 0.72742 0.60235 0.0
C668 C 0.93489 0.74935 0.49614 0.0
C669 C 0.91112 0.74048 0.51671 0.0
N670 N 0.87783 0.71876 0.60336 0.0
N671 N 0.97171 0.7544 0.53153 0.0
C672 C 0.90013 0.72536 0.58046 0.0
C673 C 0.94809 0.74379 0.54237 0.0
N674 N 0.90179 0.70078 0.67455 0.0
N675 N 0.94453 0.76263 0.431 0.0
H676 H 0.98162 0.75046 0.56458 0.0
H677 H 0.98178 0.76813 0.49434 0.0
H678 H 0.93529 0.76729 0.39756 0.0
H679 H 0.96101 0.76782 0.40676 0.0
H680 H 0.88384 0.69124 0.6858 0.0
H681 H 0.91071 0.69515 0.70495 0.0
H682 H 0.86928 0.70959 0.65425 0.0
H683 H 0.86831 0.72387 0.57393 0.0
C684 C 0.92164 0.72875 0.14529 0.0
C685 C 0.90225 0.72907 0.11881 0.0
C686 C 0.91405 0.72552 0.9731 0.0
C687 C 0.93278 0.72404 0.99933 0.0
N688 N 0.95189 0.71993 0.10923 0.0
N689 N 0.87802 0.72448 1.00757 0.0
C690 C 0.93597 0.72461 0.08522 0.0
C691 C 0.89779 0.7263 0.03263 0.0
N692 N 0.92642 0.73249 0.22835 0.0
N693 N 0.91247 0.72735 0.89141 0.0
H694 H 0.86628 0.72598 0.04908 0.0
H695 H 0.87224 0.7197 0.94611 0.0
H696 H 0.92418 0.72724 0.84643 0.0
H697 H 0.90091 0.73105 0.86898 0.0
H698 H 0.94193 0.73583 0.2519 0.0
H699 H 0.91525 0.73334 0.27428 0.0
H700 H 0.95323 0.71722 0.16955 0.0
H701 H 0.9627 0.71686 0.06749 0.0
C702 C 0.39209 0.19986 0.13513 0.0
C703 C 0.40948 0.21089 0.19839 0.0
C704 C 0.41673 0.25084 0.18258 0.0
C705 C 0.39809 0.23963 0.12394 0.0
N706 N 0.36582 0.2033 0.05227 0.0
N707 N 0.43535 0.24592 0.29342 0.0
C708 C 0.38518 0.21404 0.10217 0.0
C709 C 0.42098 0.23616 0.22522 0.0
N710 N 0.38264 0.17594 0.10549 0.0
N711 N 0.43094 0.27559 0.19494 0.0
H712 H 0.4385 0.23551 0.32642 0.0
H713 H 0.44242 0.26371 0.32157 0.0
H714 H 0.42864 0.28676 0.16294 0.0
H715 H 0.44621 0.28492 0.23085 0.0
H716 H 0.37152 0.16718 0.05395 0.0
H717 H 0.38735 0.16526 0.1292 0.0
H718 H 0.35425 0.18458 0.0399 0.0
H719 H 0.36029 0.21326 0.02829 0.0
C720 C 0.91964 0.22086 0.15685 0.0
C721 C 0.91501 0.22332 0.24319 0.0
C722 C 0.87326 0.19143 0.21671 0.0
C723 C 0.87766 0.19036 0.12984 0.0
N724 N 0.90435 0.20581 0.01589 0.0
N725 N 0.88752 0.21242 0.3561 0.0
C726 C 0.90068 0.20559 0.09966 0.0
C727 C 0.8918 0.209 0.27333 0.0
N728 N 0.94231 0.23265 0.12957 0.0
N729 N 0.85137 0.17541 0.24483 0.0
H730 H 0.90074 0.2247 0.39907 0.0
H731 H 0.87085 0.20433 0.38194 0.0
H732 H 0.83744 0.16271 0.20496 0.0
H733 H 0.84724 0.17346 0.30724 0.0
H734 H 0.94717 0.22933 0.06935 0.0
H735 H 0.95663 0.24472 0.16866 0.0
H736 H 0.91987 0.21869 0.98958 0.0
H737 H 0.89131 0.19384 0.97211 0.0
C738 C 0.11135 0.68548 0.43087 0.0
C739 C 0.10642 0.68205 0.34464 0.0
C740 C 0.13354 0.72604 0.34041 0.0
C741 C 0.13639 0.7296 0.42786 0.0
N742 N 0.12624 0.71352 0.5584 0.0
N743 N 0.11105 0.69923 0.21807 0.0
C744 C 0.12485 0.70949 0.47359 0.0
C745 C 0.11721 0.70237 0.29929 0.0
N746 N 0.1037 0.66571 0.47131 0.0
N747 N 0.14685 0.74535 0.2968 0.0
H748 H 0.09946 0.68222 0.18574 0.0
H749 H 0.1162 0.71353 0.18414 0.0
H750 H 0.15862 0.76282 0.32586 0.0
H751 H 0.14756 0.74381 0.23216 0.0
H752 H 0.10855 0.66691 0.53199 0.0
H753 H 0.09423 0.64791 0.44157 0.0
H754 H 0.1163 0.69998 0.59649 0.0
H755 H 0.13605 0.73091 0.59104 0.0
C756 C 0.40732 0.44557 0.29778 0.0
C757 C 0.42963 0.45801 0.33682 0.0
C758 C 0.41058 0.44881 0.4729 0.0
C759 C 0.38847 0.4386 0.43475 0.0
N760 N 0.36531 0.42814 0.3128 0.0
N761 N 0.45313 0.47301 0.46079 0.0
C762 C 0.38669 0.43704 0.34742 0.0
C763 C 0.43142 0.45982 0.4243 0.0
N764 N 0.40602 0.44172 0.21296 0.0
N765 N 0.41143 0.44779 0.55578 0.0
H766 H 0.46856 0.48108 0.42638 0.0
H767 H 0.45595 0.47716 0.52475 0.0
H768 H 0.39635 0.44005 0.59217 0.0
H769 H 0.42661 0.45296 0.58718 0.0
H770 H 0.39037 0.43105 0.17946 0.0
H771 H 0.42094 0.44786 0.17583 0.0
H772 H 0.36284 0.42865 0.25089 0.0
H773 H 0.34996 0.42128 0.34772 0.0
C774 C 0.66832 0.97954 0.53923 0.0
C775 C 0.67767 0.96671 0.49318 0.0
C776 C 0.66648 0.9729 0.36281 0.0
C777 C 0.65514 0.98361 0.40897 0.0
N778 N 0.64351 0.99579 0.54017 0.0
N779 N 0.68432 0.94931 0.36232 0.0
C780 C 0.65577 0.98678 0.49713 0.0
C781 C 0.67656 0.96307 0.40507 0.0
N782 N 0.67171 0.9849 0.62333 0.0
N783 N 0.66773 0.97243 0.2784 0.0
H784 H 0.69184 0.94207 0.39196 0.0
H785 H 0.68205 0.9438 0.29858 0.0
H786 H 0.66033 0.97943 0.24664 0.0
H787 H 0.67743 0.96686 0.24062 0.0
H788 H 0.66724 0.99599 0.6608 0.0
H789 H 0.68065 0.97953 0.65502 0.0
H790 H 0.64115 0.99644 0.60424 0.0
H791 H 0.63443 1.0014 0.51067 0.0
C792 C 0.72103 0.09025 0.25077 0.0
C793 C 0.70028 0.08861 0.22786 0.0
C794 C 0.72077 0.10864 0.10453 0.0
C795 C 0.74211 0.1129 0.13312 0.0
N796 N 0.76349 0.11201 0.2428 0.0
N797 N 0.6822 0.10095 0.1407 0.0
C798 C 0.7425 0.10487 0.20892 0.0
C799 C 0.70063 0.09907 0.15667 0.0
N800 N 0.72014 0.07692 0.30949 0.0
N801 N 0.71956 0.11307 0.02619 0.0
H802 H 0.66761 0.09526 0.17917 0.0
H803 H 0.68252 0.11048 0.09434 0.0
H804 H 0.73381 0.11937 0.98581 0.0
H805 H 0.70393 0.10814 0.99851 0.0
H806 H 0.73421 0.07562 0.32241 0.0
H807 H 0.70469 0.06508 0.33895 0.0
H808 H 0.76506 0.10879 0.30212 0.0
H809 H 0.77952 0.12324 0.21505 0.0
C810 C 0.99903 0.66398 0.05845 0.0
C811 C 1.00216 0.66362 0.97114 0.0
C812 C 1.02069 0.64032 0.97313 0.0
C813 C 1.01801 0.64113 0.06065 0.0
N814 N 1.00854 0.65696 0.18883 0.0
N815 N 1.01936 0.65544 0.84699 0.0
C816 C 1.0084 0.65406 0.10394 0.0
C817 C 1.01411 0.65301 0.92908 0.0
N818 N 0.98614 0.67283 0.09697 0.0
N819 N 0.02854 0.62647 0.93202 0.0
H820 H 1.0147 0.66468 0.81397 0.0
H821 H 0.02981 0.65009 0.8135 0.0
H822 H 0.03356 0.61715 0.9629 0.0
H823 H 0.02872 0.62294 0.86755 0.0
H824 H 0.98106 0.67149 0.15893 0.0
H825 H 0.97918 0.68023 0.06511 0.0
H826 H 1.00375 0.66793 0.22529 0.0
H827 H 1.0153 0.64979 0.22291 0.0
C828 C 0.46042 0.36364 0.07315 0.0
C829 C 0.45582 0.35526 0.98664 0.0
C830 C 0.4788 0.39778 0.95799 0.0
C831 C 0.48591 0.40588 0.04301 0.0
N832 N 0.48714 0.39536 0.17784 0.0
N833 N 0.46491 0.36463 0.84547 0.0
C834 C 0.47779 0.38846 0.09951 0.0
C835 C 0.46628 0.37243 0.92867 0.0
N836 N 0.44729 0.34837 0.13086 0.0
N837 N 0.48273 0.41408 0.90584 0.0
H838 H 0.4565 0.34631 0.82154 0.0
H839 H 0.47421 0.37639 0.8011 0.0
H840 H 0.49054 0.43261 0.92518 0.0
H841 H 0.47584 0.40884 0.84574 0.0
H842 H 0.44844 0.35428 0.19439 0.0
H843 H 0.43335 0.33054 0.1153 0.0
H844 H 0.48353 0.38296 0.21862 0.0
H845 H 0.50038 0.41315 0.19889 0.0
C846 C 1.00153 0.37162 0.49101 0.0
C847 C 1.00079 0.35176 0.51874 0.0
C848 C 1.02518 0.37876 0.64032 0.0
C849 C 1.02706 0.39882 0.60977 0.0
N850 N 1.0133 0.41405 0.51787 0.0
N851 N 1.00749 0.33503 0.62797 0.0
C852 C 1.01383 0.39505 0.53909 0.0
C853 C 1.01101 0.35487 0.59662 0.0
N854 N 0.99107 0.3681 0.41698 0.0
N855 N 0.03786 0.38285 0.70928 0.0
H856 H 0.99786 0.31747 0.59672 0.0
H857 H 1.01259 0.33553 0.68741 0.0
H858 H 0.04721 0.39983 0.74497 0.0
H859 H 0.03988 0.36987 0.72988 0.0
H860 H 0.99304 0.38204 0.3874 0.0
H861 H 0.98075 0.35092 0.38337 0.0
H862 H 1.00271 0.41248 0.47107 0.0
H863 H 1.02232 0.43135 0.55167 0.0
C864 C 0.73925 0.65627 0.3586 0.0
C865 C 0.74023 0.64666 0.42961 0.0
C866 C 0.78246 0.6641 0.40627 0.0
C867 C 0.78199 0.67577 0.33999 0.0
N868 N 0.76037 0.68705 0.26603 0.0
N869 N 0.7635 0.64539 0.53078 0.0
C870 C 0.76048 0.67297 0.31963 0.0
C871 C 0.7621 0.65177 0.45623 0.0
N872 N 0.71795 0.64869 0.32628 0.0
N873 N 0.80194 0.66372 0.41923 0.0
H874 H 0.749 0.63685 0.5693 0.0
H875 H 0.77931 0.65069 0.55794 0.0
H876 H 0.81685 0.67161 0.38227 0.0
H877 H 0.80243 0.65347 0.46113 0.0
H878 H 0.71601 0.65304 0.26957 0.0
H879 H 0.70213 0.63613 0.35221 0.0
H880 H 0.74566 0.68752 0.25564 0.0
H881 H 0.77551 0.70014 0.2385 0.0
C882 C 0.44855 0.11634 0.60834 0.0
C883 C 0.46173 0.13162 0.54636 0.0
C884 C 0.49111 0.12095 0.55215 0.0
C885 C 0.4764 0.10327 0.60515 0.0
N886 N 0.43978 0.08201 0.67691 0.0
N887 N 0.49399 0.146 0.45077 0.0
C888 C 0.4548 0.1005 0.63204 0.0
C889 C 0.48274 0.13342 0.51648 0.0
N890 N 0.43053 0.11755 0.6463 0.0
N891 N 0.51318 0.12572 0.53623 0.0
H892 H 0.48775 0.15445 0.42106 0.0
H893 H 0.50816 0.14614 0.42076 0.0
H894 H 0.51962 0.11687 0.56249 0.0
H895 H 0.5257 0.13986 0.504 0.0
H896 H 0.42158 0.10855 0.6972 0.0
H897 H 0.42598 0.12938 0.63168 0.0
H898 H 0.42266 0.07727 0.69063 0.0
H899 H 0.44397 0.07031 0.6956 0.0
C900 C 0.39173 0.98459 0.87703 0.0
C901 C 0.39234 0.98481 0.96418 0.0
C902 C 0.43548 1.00753 0.96048 0.0
C903 C 0.43497 1.00954 0.87485 0.0
N904 N 0.41272 1.00193 0.75256 0.0
N905 N 0.41433 0.99821 0.09106 0.0
C906 C 0.4131 0.9984 0.83308 0.0
C907 C 0.41414 0.99667 1.00639 0.0
N908 N 0.37065 0.9707 0.83631 0.0
N909 N 0.45641 1.01556 0.99732 0.0
H910 H 0.39896 0.99037 0.12585 0.0
H911 H 0.42951 1.0087 0.12728 0.0
H912 H 0.47225 0.02327 0.96516 0.0
H913 H 0.4579 1.01269 0.05722 0.0
H914 H 0.36891 0.96764 0.77185 0.0
H915 H 0.35486 0.96069 0.86736 0.0
H916 H 0.39749 0.99672 0.72136 0.0
H917 H 0.42794 1.01148 0.71816 0.0
C918 C 0.11255 0.42703 0.8911 0.0
C919 C 0.12412 0.45222 0.88466 0.0
C920 C 0.15475 0.46046 0.98068 0.0
C921 C 0.14195 0.43568 0.99399 0.0
N922 N 0.10628 0.39615 0.97346 0.0
N923 N 0.15358 0.49336 0.93669 0.0
C924 C 0.12016 0.41913 0.95224 0.0
C925 C 0.1445 0.46906 0.93335 0.0
N926 N 0.09489 0.41061 0.8366 0.0
N927 N 0.17711 0.4756 0.01089 0.0
H928 H 0.14591 0.50014 0.90538 0.0
H929 H 0.16713 0.50651 0.97699 0.0
H930 H 0.18539 0.46959 0.04291 0.0
H931 H 0.18818 0.49332 0.99684 0.0
H932 H 0.08724 0.39191 0.83278 0.0
H933 H 0.08941 0.41581 0.78997 0.0
H934 H 0.08922 0.38398 0.95112 0.0
H935 H 0.11102 0.39005 0.01944 0.0
C936 C 0.6738 0.69727 0.73146 0.0
C937 C 0.66942 0.67624 0.76317 0.0
C938 C 0.68587 0.70053 0.89891 0.0
C939 C 0.68802 0.7208 0.86965 0.0
N940 N 0.68296 0.73877 0.76161 0.0
N941 N 0.6708 0.65732 0.87716 0.0
C942 C 0.68189 0.71931 0.78649 0.0
C943 C 0.67539 0.67776 0.84701 0.0
N944 N 0.6702 0.69613 0.64881 0.0
N945 N 0.69447 0.70342 0.97611 0.0
H946 H 0.66483 0.64079 0.83984 0.0
H947 H 0.67197 0.65632 0.93974 0.0
H948 H 0.70215 0.71993 0.01489 0.0
H949 H 0.69564 0.69027 0.9996 0.0
H950 H 0.67512 0.71122 0.61964 0.0
H951 H 0.66357 0.68013 0.60769 0.0
H952 H 0.67656 0.73842 0.70484 0.0
H953 H 0.68915 0.75511 0.80049 0.0
C954 C 0.78535 0.02565 0.84368 0.0
C955 C 0.78766 0.02026 0.75678 0.0
C956 C 0.80963 0.06403 0.74489 0.0
C957 C 0.81012 0.06947 0.8331 0.0
N958 N 0.80196 0.05492 0.96706 0.0
N959 N 0.80569 0.03494 0.62698 0.0
C960 C 0.79894 0.05012 0.8827 0.0
C961 C 0.80082 0.03964 0.70796 0.0
N962 N 0.76931 1.00762 0.8887 0.0
N963 N 0.81648 0.0819 0.69582 0.0
H964 H 0.79999 0.01746 0.59804 0.0
H965 H 0.81728 0.04856 0.59112 0.0
H966 H 0.82194 0.09971 0.71971 0.0
H967 H 0.81428 0.07847 0.63145 0.0
H968 H 0.76529 1.01098 0.95025 0.0
H969 H 0.75809 0.9897 0.8623 0.0
H970 H 0.79623 0.04137 1.00526 0.0
H971 H 0.81225 0.07245 0.99807 0.0
C972 C 0.08201 0.79592 0.6405 0.0
C973 C 0.10041 0.80401 0.69799 0.0
C974 C 0.07103 0.78891 0.80959 0.0
C975 C 0.05254 0.77852 0.75053 0.0
N976 N 0.04102 0.76697 0.60545 0.0
N977 N 0.1113 0.80204 0.83372 0.0
C978 C 0.05818 0.7806 0.6647 0.0
C979 C 0.09461 0.79881 0.78164 0.0
N980 N 0.0871 0.80351 0.56356 0.0
N981 N 0.06633 0.7902 0.89268 0.0
H982 H 0.12839 0.80779 0.81502 0.0
H983 H 0.10744 0.79629 0.89248 0.0
H984 H 0.04949 0.78387 0.91591 0.0
H985 H 0.07944 0.79983 0.9381 0.0
H986 H 0.07428 0.80017 0.52245 0.0
H987 H 0.10418 0.81525 0.5441 0.0
H988 H 0.04456 0.76605 0.54202 0.0
H989 H 1.02362 0.75442 0.61948 0.0
C990 C 0.35522 0.35652 0.7113 0.0
C991 C 0.33138 0.34645 0.69029 0.0
C992 C 0.32171 0.30788 0.73417 0.0
C993 C 0.34446 0.31954 0.76957 0.0
N994 N 0.38172 0.35683 0.80392 0.0
N995 N 0.2911 0.31251 0.69024 0.0
C996 C 0.36103 0.34432 0.76069 0.0
C997 C 0.31437 0.32197 0.70298 0.0
N998 N 0.37243 0.3777 0.68307 0.0
N999 N 0.30724 0.28322 0.72923 0.0
H1000 H 0.28485 0.32212 0.66857 0.0
H1001 H 0.27784 0.29577 0.70752 0.0
H1002 H 0.31246 0.2725 0.74943 0.0
H1003 H 0.29124 0.27333 0.69751 0.0
H1004 H 0.39025 0.38478 0.69056 0.0
H1005 H 0.36891 0.3866 0.64393 0.0
H1006 H 0.39339 0.37554 0.80585 0.0
H1007 H 0.38606 0.34913 0.84516 0.0
C1008 C 0.06386 0.30176 0.19873 0.0
C1009 C 0.05558 0.30818 0.27452 0.0
C1010 C 0.09647 0.33854 0.3148 0.0
C1011 C 0.10387 0.33677 0.23133 0.0
N1012 N 0.09285 0.31626 0.09024 0.0
N1013 N 0.06505 0.33632 0.40083 0.0
C1014 C 0.08724 0.31796 0.17226 0.0
C1015 C 0.07215 0.3273 0.33244 0.0
N1016 N 0.04922 0.28014 0.15189 0.0
N1017 N 0.1127 0.35099 0.37746 0.0
H1018 H 0.04759 0.33025 0.41352 0.0
H1019 H 0.0768 0.35179 0.44007 0.0
H1020 H 0.13057 0.35828 0.36719 0.0
H1021 H 0.10805 0.35133 0.44 0.0
H1022 H 0.05474 0.27349 0.09931 0.0
H1023 H 0.03231 0.26777 0.17146 0.0
H1024 H 0.08038 0.30457 0.0443 0.0
H1025 H 0.10938 0.3276 0.0664 0.0
C1026 C 0.80925 0.79184 0.22856 0.0
C1027 C 0.81867 0.78069 0.17263 0.0
C1028 C 0.79611 0.77945 0.05768 0.0
C1029 C 0.78726 0.79134 0.11333 0.0
N1030 N 0.78832 0.81262 0.24808 0.0
N1031 N 0.82421 0.76708 0.03302 0.0
C1032 C 0.79477 0.79869 0.19778 0.0
C1033 C 0.813 0.77546 0.08673 0.0
N1034 N 0.81361 0.79509 0.31171 0.0
N1035 N 0.7877 0.77122 0.97794 0.0
H1036 H 0.83626 0.76364 0.05328 0.0
H1037 H 0.82281 0.76505 0.96861 0.0
H1038 H 0.776 0.77459 0.95424 0.0
H1039 H 0.79132 0.76006 0.93657 0.0
H1040 H 0.80549 0.8008 0.35748 0.0
H1041 H 0.82421 0.7903 0.33552 0.0
H1042 H 0.79481 0.82051 0.30807 0.0
H1043 H 0.77791 0.81807 0.22718 0.0
C1044 C 0.33802 0.0533 0.18299 0.0
C1045 C 0.32808 0.03561 0.23915 0.0
C1046 C 0.34145 0.06862 0.35621 0.0
C1047 C 0.35363 0.08627 0.30039 0.0
N1048 N 0.3682 0.09449 0.16101 0.0
N1049 N 0.32569 0.02722 0.3808 0.0
C1050 C 0.3532 0.07836 0.21379 0.0
C1051 C 0.33125 0.04348 0.32629 0.0
N1052 N 0.33236 0.04639 0.10037 0.0
N1053 N 0.33886 0.07567 0.43742 0.0
H1054 H 0.3194 1.00894 0.36195 0.0
H1055 H 0.32984 0.03242 0.44395 0.0
H1056 H 0.34547 0.09375 0.46139 0.0
H1057 H 0.3281 0.06338 0.47868 0.0
H1058 H 0.33722 0.0588 0.05822 0.0
H1059 H 0.32075 0.0284 0.07548 0.0
H1060 H 0.37019 0.08919 0.09899 0.0
H1061 H 0.3806 0.11268 0.18098 0.0
loop_
_geom_bond_atom_site_label_1
_geom_bond_atom_site_label_2
_geom_bond_distance
_geom_bond_site_symmetry_2
_ccdc_geom_bond_type
Cu0 N1 1.999 . S
Cu0 O6 1.974 . S
Cu0 N11 1.985 . S
Cu0 O20 1.959 . S
N1 Cu0 1.999 . S
N1 C3 1.263 . S
N1 C5 1.389 . S
N2 C3 1.358 . S
N2 C4 1.400 . S
C3 N1 1.263 . S
C3 N2 1.358 . S
C3 H9 0.930 . S
C4 N2 1.400 . S
C4 C5 1.351 . S
C4 H21 0.930 . S
C5 N1 1.389 . S
C5 C4 1.351 . S
C5 H10 0.930 . S
O6 Cu0 1.974 . S
O6 C16 1.282 . S
C7 O8 1.261 . S
C7 O20 1.251 . S
O8 C7 1.261 . S
H9 C3 0.930 . S
H10 C5 0.930 . S
N11 Cu0 1.985 . S
N11 C13 1.335 . S
N11 C14 1.390 . S
N12 C13 1.345 . S
N12 C15 1.336 1_554 S
C13 N11 1.335 . S
C13 N12 1.345 . S
C13 H18 0.930 . S
C14 N11 1.390 . S
C14 C15 1.346 1_554 S
C14 H19 0.931 . S
C15 N12 1.336 1_556 S
C15 C14 1.346 1_556 S
C15 H22 0.929 . S
C16 O6 1.282 . S
C16 O17 1.216 . S
O17 C16 1.216 . S
H18 C13 0.930 . S
H19 C14 0.931 . S
O20 Cu0 1.959 . S
O20 C7 1.251 . S
H21 C4 0.930 . S
H22 C15 0.929 . S
Cu23 N24 1.999 . S
Cu23 O29 1.974 . S
Cu23 N34 1.985 . S
Cu23 O43 1.959 . S
N24 Cu23 1.999 . S
N24 C26 1.263 . S
N24 C28 1.389 1_554 S
N25 C26 1.358 1_556 S
N25 C27 1.400 . S
C26 N24 1.263 . S
C26 N25 1.358 1_554 S
C26 H32 0.930 . S
C27 N25 1.400 . S
C27 C28 1.351 . S
C27 H44 0.930 . S
C28 N24 1.389 1_556 S
C28 C27 1.351 . S
C28 H33 0.930 . S
O29 Cu23 1.974 . S
O29 C39 1.282 . S
C30 O31 1.261 . S
C30 O43 1.251 . S
O31 C30 1.261 . S
H32 C26 0.930 . S
H33 C28 0.930 . S
N34 Cu23 1.985 . S
N34 C36 1.335 . S
N34 C37 1.390 . S
N35 C36 1.345 . S
N35 C38 1.336 . S
C36 N34 1.335 . S
C36 N35 1.345 . S
C36 H41 0.930 . S
C37 N34 1.390 . S
C37 C38 1.346 . S
C37 H42 0.930 . S
C38 N35 1.336 . S
C38 C37 1.346 . S
C38 H45 0.929 . S
C39 O29 1.282 . S
C39 O40 1.216 . S
O40 C39 1.216 . S
H41 C36 0.930 . S
H42 C37 0.930 . S
O43 Cu23 1.959 . S
O43 C30 1.251 . S
H44 C27 0.930 . S
H45 C38 0.929 . S
Cu46 N47 1.999 . S
Cu46 O52 1.974 . S
Cu46 N57 1.985 . S
Cu46 O66 1.959 . S
N47 Cu46 1.999 . S
N47 C49 1.263 . S
N47 C51 1.389 . S
N48 C49 1.358 . S
N48 C50 1.400 . S
C49 N47 1.263 . S
C49 N48 1.358 . S
C49 H55 0.930 . S
C50 N48 1.400 . S
C50 C51 1.351 . S
C50 H67 0.930 . S
C51 N47 1.389 . S
C51 C50 1.351 . S
C51 H56 0.930 . S
O52 Cu46 1.974 . S
O52 C62 1.282 . S
C53 O54 1.261 . S
C53 O66 1.251 . S
O54 C53 1.261 . S
H55 C49 0.930 . S
H56 C51 0.930 . S
N57 Cu46 1.985 . S
N57 C59 1.335 . S
N57 C60 1.390 . S
N58 C59 1.345 . S
N58 C61 1.336 . S
C59 N57 1.335 . S
C59 N58 1.345 . S
C59 H64 0.930 . S
C60 N57 1.390 . S
C60 C61 1.346 . S
C60 H65 0.930 . S
C61 N58 1.336 . S
C61 C60 1.346 . S
C61 H68 0.929 . S
C62 O52 1.282 . S
C62 O63 1.216 . S
O63 C62 1.216 . S
H64 C59 0.930 . S
H65 C60 0.930 . S
O66 Cu46 1.959 . S
O66 C53 1.251 . S
H67 C50 0.930 . S
H68 C61 0.929 . S
Cu69 N70 1.999 . S
Cu69 O75 1.974 . S
Cu69 N80 1.985 . S
Cu69 O89 1.959 . S
N70 Cu69 1.999 . S
N70 C72 1.263 . S
N70 C74 1.389 . S
N71 C72 1.358 . S
N71 C73 1.400 . S
C72 N70 1.263 . S
C72 N71 1.358 . S
C72 H78 0.930 . S
C73 N71 1.400 . S
C73 C74 1.351 . S
C73 H90 0.930 . S
C74 N70 1.389 . S
C74 C73 1.351 . S
C74 H79 0.930 . S
O75 Cu69 1.974 . S
O75 C85 1.282 . S
C76 O77 1.261 . S
C76 O89 1.251 . S
O77 C76 1.261 . S
H78 C72 0.930 . S
H79 C74 0.930 . S
N80 Cu69 1.985 . S
N80 C82 1.335 . S
N80 C83 1.390 . S
N81 C82 1.345 . S
N81 C84 1.336 . S
C82 N80 1.335 . S
C82 N81 1.345 . S
C82 H87 0.930 . S
C83 N80 1.390 . S
C83 C84 1.346 . S
C83 H88 0.930 . S
C84 N81 1.336 . S
C84 C83 1.346 . S
C84 H91 0.929 . S
C85 O75 1.282 . S
C85 O86 1.216 . S
O86 C85 1.216 . S
H87 C82 0.930 . S
H88 C83 0.930 . S
O89 Cu69 1.959 . S
O89 C76 1.251 . S
H90 C73 0.930 . S
H91 C84 0.929 . S
Cu92 N93 1.999 . S
Cu92 O98 1.974 . S
Cu92 N103 1.985 . S
Cu92 O112 1.959 . S
N93 Cu92 1.999 . S
N93 C95 1.263 . S
N93 C97 1.389 . S
N94 C95 1.358 . S
N94 C96 1.400 . S
C95 N93 1.263 . S
C95 N94 1.358 . S
C95 H101 0.930 . S
C96 N94 1.400 . S
C96 C97 1.351 . S
C96 H113 0.930 . S
C97 N93 1.389 . S
C97 C96 1.351 . S
C97 H102 0.930 . S
O98 Cu92 1.974 . S
O98 C108 1.282 . S
C99 O100 1.261 . S
C99 O112 1.251 . S
O100 C99 1.261 . S
H101 C95 0.930 . S
H102 C97 0.930 . S
N103 Cu92 1.985 . S
N103 C105 1.335 . S
N103 C106 1.390 . S
N104 C105 1.345 . S
N104 C107 1.336 . S
C105 N103 1.335 . S
C105 N104 1.345 . S
C105 H110 0.930 . S
C106 N103 1.390 . S
C106 C107 1.346 . S
C106 H111 0.930 . S
C107 N104 1.336 . S
C107 C106 1.346 . S
C107 H114 0.929 . S
C108 O98 1.282 . S
C108 O109 1.216 . S
O109 C108 1.216 . S
H110 C105 0.930 . S
H111 C106 0.930 . S
O112 Cu92 1.959 . S
O112 C99 1.251 . S
H113 C96 0.930 . S
H114 C107 0.929 . S
Cu115 N116 1.999 . S
Cu115 O121 1.974 . S
Cu115 N126 1.985 . S
Cu115 O135 1.959 . S
N116 Cu115 1.999 . S
N116 C118 1.263 . S
N116 C120 1.389 . S
N117 C118 1.358 . S
N117 C119 1.400 . S
C118 N116 1.263 . S
C118 N117 1.358 . S
C118 H124 0.930 . S
C119 N117 1.400 . S
C119 C120 1.351 . S
C119 H136 0.930 1_556 S
C120 N116 1.389 . S
C120 C119 1.351 . S
C120 H125 0.930 . S
O121 Cu115 1.974 . S
O121 C131 1.282 . S
C122 O123 1.261 . S
C122 O135 1.251 . S
O123 C122 1.261 . S
H124 C118 0.930 . S
H125 C120 0.930 . S
N126 Cu115 1.985 . S
N126 C128 1.335 . S
N126 C129 1.390 . S
N127 C128 1.345 . S
N127 C130 1.336 . S
C128 N126 1.335 . S
C128 N127 1.345 . S
C128 H133 0.930 . S
C129 N126 1.390 . S
C129 C130 1.346 . S
C129 H134 0.930 . S
C130 N127 1.336 . S
C130 C129 1.346 . S
C130 H137 0.929 . S
C131 O121 1.282 . S
C131 O132 1.216 . S
O132 C131 1.216 . S
H133 C128 0.930 . S
H134 C129 0.930 . S
O135 Cu115 1.959 . S
O135 C122 1.251 . S
H136 C119 0.930 1_554 S
H137 C130 0.929 . S
Cu138 N139 1.999 . S
Cu138 O144 1.974 . S
Cu138 N149 1.985 . S
Cu138 O158 1.959 . S
N139 Cu138 1.999 . S
N139 C141 1.263 . S
N139 C143 1.389 . S
N140 C141 1.358 . S
N140 C142 1.400 . S
C141 N139 1.263 . S
C141 N140 1.358 . S
C141 H147 0.930 . S
C142 N140 1.400 . S
C142 C143 1.351 . S
C142 H159 0.930 . S
C143 N139 1.389 . S
C143 C142 1.351 . S
C143 H148 0.930 . S
O144 Cu138 1.974 . S
O144 C154 1.282 . S
C145 O146 1.261 . S
C145 O158 1.251 . S
O146 C145 1.261 . S
H147 C141 0.930 . S
H148 C143 0.930 . S
N149 Cu138 1.985 . S
N149 C151 1.335 . S
N149 C152 1.390 . S
N150 C151 1.345 . S
N150 C153 1.336 . S
C151 N149 1.335 . S
C151 N150 1.345 . S
C151 H156 0.930 . S
C152 N149 1.390 . S
C152 C153 1.346 . S
C152 H157 0.930 . S
C153 N150 1.336 . S
C153 C152 1.346 . S
C153 H160 0.929 . S
C154 O144 1.282 . S
C154 O155 1.216 . S
O155 C154 1.216 . S
H156 C151 0.930 . S
H157 C152 0.930 . S
O158 Cu138 1.959 . S
O158 C145 1.251 . S
H159 C142 0.930 . S
H160 C153 0.929 . S
Cu161 N162 1.999 . S
Cu161 O167 1.974 . S
Cu161 N172 1.985 . S
Cu161 O181 1.959 . S
N162 Cu161 1.999 . S
N162 C164 1.263 . S
N162 C166 1.389 . S
N163 C164 1.358 . S
N163 C165 1.400 . S
C164 N162 1.263 . S
C164 N163 1.358 . S
C164 H170 0.930 . S
C165 N163 1.400 . S
C165 C166 1.351 . S
C165 H182 0.930 . S
C166 N162 1.389 . S
C166 C165 1.351 . S
C166 H171 0.930 . S
O167 Cu161 1.974 . S
O167 C177 1.282 . S
C168 O169 1.261 . S
C168 O181 1.251 . S
O169 C168 1.261 . S
H170 C164 0.930 . S
H171 C166 0.930 . S
N172 Cu161 1.985 . S
N172 C174 1.335 . S
N172 C175 1.390 . S
N173 C174 1.345 . S
N173 C176 1.336 . S
C174 N172 1.335 . S
C174 N173 1.345 . S
C174 H179 0.930 . S
C175 N172 1.390 . S
C175 C176 1.346 . S
C175 H180 0.930 . S
C176 N173 1.336 . S
C176 C175 1.346 . S
C176 H183 0.929 . S
C177 O167 1.282 . S
C177 O178 1.216 . S
O178 C177 1.216 . S
H179 C174 0.930 . S
H180 C175 0.930 . S
O181 Cu161 1.959 . S
O181 C168 1.251 . S
H182 C165 0.930 . S
H183 C176 0.929 . S
Cu184 N185 1.999 . S
Cu184 O190 1.974 . S
Cu184 N195 1.985 . S
Cu184 O204 1.959 . S
N185 Cu184 1.999 . S
N185 C187 1.263 . S
N185 C189 1.389 . S
N186 C187 1.358 . S
N186 C188 1.400 . S
C187 N185 1.263 . S
C187 N186 1.358 . S
C187 H193 0.930 . S
C188 N186 1.400 . S
C188 C189 1.351 . S
C188 H205 0.930 . S
C189 N185 1.389 . S
C189 C188 1.351 . S
C189 H194 0.930 . S
O190 Cu184 1.974 . S
O190 C200 1.282 . S
C191 O192 1.261 . S
C191 O204 1.251 . S
O192 C191 1.261 . S
H193 C187 0.930 . S
H194 C189 0.930 . S
N195 Cu184 1.985 . S
N195 C197 1.335 . S
N195 C198 1.390 . S
N196 C197 1.345 . S
N196 C199 1.336 . S
C197 N195 1.335 . S
C197 N196 1.345 . S
C197 H202 0.930 . S
C198 N195 1.390 . S
C198 C199 1.346 . S
C198 H203 0.930 . S
C199 N196 1.336 . S
C199 C198 1.346 . S
C199 H206 0.929 . S
C200 O190 1.282 . S
C200 O201 1.216 . S
O201 C200 1.216 . S
H202 C197 0.930 . S
H203 C198 0.930 . S
O204 Cu184 1.959 . S
O204 C191 1.251 . S
H205 C188 0.930 . S
H206 C199 0.929 . S
Cu207 N208 1.999 . S
Cu207 O213 1.974 1_554 S
Cu207 N218 1.985 1_554 S
Cu207 O227 1.959 . S
N208 Cu207 1.999 . S
N208 C210 1.263 . S
N208 C212 1.389 . S
N209 C210 1.358 . S
N209 C211 1.400 . S
C210 N208 1.263 . S
C210 N209 1.358 . S
C210 H216 0.930 . S
C211 N209 1.400 . S
C211 C212 1.351 . S
C211 H228 0.930 . S
C212 N208 1.389 . S
C212 C211 1.351 . S
C212 H217 0.930 . S
O213 Cu207 1.974 1_556 S
O213 C223 1.282 . S
C214 O215 1.261 . S
C214 O227 1.251 . S
O215 C214 1.261 . S
H216 C210 0.930 . S
H217 C212 0.930 . S
N218 Cu207 1.985 1_556 S
N218 C220 1.335 . S
N218 C221 1.390 . S
N219 C220 1.345 . S
N219 C222 1.336 . S
C220 N218 1.335 . S
C220 N219 1.345 . S
C220 H225 0.930 . S
C221 N218 1.390 . S
C221 C222 1.346 . S
C221 H226 0.930 . S
C222 N219 1.336 . S
C222 C221 1.346 . S
C222 H229 0.929 . S
C223 O213 1.282 . S
C223 O224 1.216 . S
O224 C223 1.216 . S
H225 C220 0.930 . S
H226 C221 0.930 . S
O227 Cu207 1.959 . S
O227 C214 1.251 . S
H228 C211 0.930 . S
H229 C222 0.929 . S
Cu230 N231 1.999 . S
Cu230 O236 1.974 . S
Cu230 N241 1.985 . S
Cu230 O250 1.959 . S
N231 Cu230 1.999 . S
N231 C233 1.263 . S
N231 C235 1.389 . S
N232 C233 1.358 . S
N232 C234 1.400 . S
C233 N231 1.263 . S
C233 N232 1.358 . S
C233 H239 0.930 . S
C234 N232 1.400 . S
C234 C235 1.351 . S
C234 H251 0.930 . S
C235 N231 1.389 . S
C235 C234 1.351 . S
C235 H240 0.930 . S
O236 Cu230 1.974 . S
O236 C246 1.282 1_554 S
C237 O238 1.261 . S
C237 O250 1.251 . S
O238 C237 1.261 . S
H239 C233 0.930 . S
H240 C235 0.930 . S
N241 Cu230 1.985 . S
N241 C243 1.335 . S
N241 C244 1.390 1_554 S
N242 C243 1.345 1_556 S
N242 C245 1.336 . S
C243 N241 1.335 . S
C243 N242 1.345 1_554 S
C243 H248 0.930 . S
C244 N241 1.390 1_556 S
C244 C245 1.346 . S
C244 H249 0.930 . S
C245 N242 1.336 . S
C245 C244 1.346 . S
C245 H252 0.929 . S
C246 O236 1.282 1_556 S
C246 O247 1.216 . S
O247 C246 1.216 . S
H248 C243 0.930 . S
H249 C244 0.930 . S
O250 Cu230 1.959 . S
O250 C237 1.251 . S
H251 C234 0.930 . S
H252 C245 0.929 . S
Cu253 N254 1.999 . S
Cu253 O259 1.974 . S
Cu253 N264 1.985 . S
Cu253 O273 1.959 . S
N254 Cu253 1.999 . S
N254 C256 1.263 . S
N254 C258 1.389 . S
N255 C256 1.358 . S
N255 C257 1.400 . S
C256 N254 1.263 . S
C256 N255 1.358 . S
C256 H262 0.930 . S
C257 N255 1.400 . S
C257 C258 1.351 . S
C257 H274 0.930 . S
C258 N254 1.389 . S
C258 C257 1.351 . S
C258 H263 0.930 . S
O259 Cu253 1.974 . S
O259 C269 1.282 1_554 S
C260 O261 1.261 . S
C260 O273 1.251 . S
O261 C260 1.261 . S
H262 C256 0.930 . S
H263 C258 0.930 . S
N264 Cu253 1.985 . S
N264 C266 1.335 . S
N264 C267 1.390 1_554 S
N265 C266 1.345 1_556 S
N265 C268 1.336 . S
C266 N264 1.335 . S
C266 N265 1.345 1_554 S
C266 H271 0.930 . S
C267 N264 1.390 1_556 S
C267 C268 1.346 . S
C267 H272 0.930 . S
C268 N265 1.336 . S
C268 C267 1.346 . S
C268 H275 0.929 . S
C269 O259 1.282 1_556 S
C269 O270 1.216 . S
O270 C269 1.216 . S
H271 C266 0.930 . S
H272 C267 0.930 . S
O273 Cu253 1.959 . S
O273 C260 1.251 . S
H274 C257 0.930 . S
H275 C268 0.929 . S
Cu276 N277 1.999 . S
Cu276 O282 1.974 . S
Cu276 N287 1.985 . S
Cu276 O296 1.959 . S
N277 Cu276 1.999 . S
N277 C279 1.263 . S
N277 C281 1.389 1_556 S
N278 C279 1.358 1_554 S
N278 C280 1.400 . S
C279 N277 1.263 . S
C279 N278 1.358 1_556 S
C279 H285 0.930 . S
C280 N278 1.400 . S
C280 C281 1.351 . S
C280 H297 0.930 . S
C281 N277 1.389 1_554 S
C281 C280 1.351 . S
C281 H286 0.930 . S
O282 Cu276 1.974 . S
O282 C292 1.282 . S
C283 O284 1.261 . S
C283 O296 1.251 . S
O284 C283 1.261 . S
H285 C279 0.930 . S
H286 C281 0.930 . S
N287 Cu276 1.985 . S
N287 C289 1.335 . S
N287 C290 1.390 . S
N288 C289 1.345 . S
N288 C291 1.336 . S
C289 N287 1.335 . S
C289 N288 1.345 . S
C289 H294 0.930 . S
C290 N287 1.390 . S
C290 C291 1.346 . S
C290 H295 0.930 . S
C291 N288 1.336 . S
C291 C290 1.346 . S
C291 H298 0.929 . S
C292 O282 1.282 . S
C292 O293 1.216 . S
O293 C292 1.216 . S
H294 C289 0.930 . S
H295 C290 0.930 . S
O296 Cu276 1.959 . S
O296 C283 1.251 . S
H297 C280 0.930 . S
H298 C291 0.929 . S
Cu299 N300 1.999 . S
Cu299 O305 1.974 1_556 S
Cu299 N310 1.985 1_556 S
Cu299 O319 1.959 . S
N300 Cu299 1.999 . S
N300 C302 1.263 . S
N300 C304 1.389 . S
N301 C302 1.358 . S
N301 C303 1.400 . S
C302 N300 1.263 . S
C302 N301 1.358 . S
C302 H308 0.930 . S
C303 N301 1.400 . S
C303 C304 1.351 . S
C303 H320 0.930 . S
C304 N300 1.389 . S
C304 C303 1.351 . S
C304 H309 0.930 . S
O305 Cu299 1.974 1_554 S
O305 C315 1.282 . S
C306 O307 1.261 . S
C306 O319 1.251 . S
O307 C306 1.261 . S
H308 C302 0.930 . S
H309 C304 0.930 . S
N310 Cu299 1.985 1_554 S
N310 C312 1.335 . S
N310 C313 1.390 . S
N311 C312 1.345 . S
N311 C314 1.336 . S
C312 N310 1.335 . S
C312 N311 1.345 . S
C312 H317 0.930 . S
C313 N310 1.390 . S
C313 C314 1.346 . S
C313 H318 0.930 . S
C314 N311 1.336 . S
C314 C313 1.346 . S
C314 H321 0.929 . S
C315 O305 1.282 . S
C315 O316 1.216 . S
O316 C315 1.216 . S
H317 C312 0.930 . S
H318 C313 0.930 . S
O319 Cu299 1.959 . S
O319 C306 1.251 . S
H320 C303 0.930 . S
H321 C314 0.929 . S
Cu322 N323 1.999 . S
Cu322 O328 1.974 . S
Cu322 N333 1.985 . S
Cu322 O342 1.959 . S
N323 Cu322 1.999 . S
N323 C325 1.263 . S
N323 C327 1.389 . S
N324 C325 1.358 . S
N324 C326 1.400 . S
C325 N323 1.263 . S
C325 N324 1.358 . S
C325 H331 0.930 . S
C326 N324 1.400 . S
C326 C327 1.351 . S
C326 H343 0.930 . S
C327 N323 1.389 . S
C327 C326 1.351 . S
C327 H332 0.930 . S
O328 Cu322 1.974 . S
O328 C338 1.282 . S
C329 O330 1.261 . S
C329 O342 1.251 . S
O330 C329 1.261 . S
H331 C325 0.930 . S
H332 C327 0.930 . S
N333 Cu322 1.985 . S
N333 C335 1.335 . S
N333 C336 1.390 . S
N334 C335 1.345 . S
N334 C337 1.336 1_556 S
C335 N333 1.335 . S
C335 N334 1.345 . S
C335 H340 0.930 . S
C336 N333 1.390 . S
C336 C337 1.346 1_556 S
C336 H341 0.930 1_556 S
C337 N334 1.336 1_554 S
C337 C336 1.346 1_554 S
C337 H344 0.929 . S
C338 O328 1.282 . S
C338 O339 1.216 . S
O339 C338 1.216 . S
H340 C335 0.930 . S
H341 C336 0.930 1_554 S
O342 Cu322 1.959 . S
O342 C329 1.251 . S
H343 C326 0.930 . S
H344 C337 0.929 . S
Cu345 N346 1.999 . S
Cu345 O351 1.974 . S
Cu345 N356 1.985 . S
Cu345 O365 1.959 . S
N346 Cu345 1.999 . S
N346 C348 1.263 . S
N346 C350 1.389 . S
N347 C348 1.358 . S
N347 C349 1.400 . S
C348 N346 1.263 . S
C348 N347 1.358 . S
C348 H354 0.930 . S
C349 N347 1.400 . S
C349 C350 1.351 . S
C349 H366 0.930 . S
C350 N346 1.389 . S
C350 C349 1.351 . S
C350 H355 0.930 . S
O351 Cu345 1.974 . S
O351 C361 1.282 . S
C352 O353 1.261 . S
C352 O365 1.251 . S
O353 C352 1.261 . S
H354 C348 0.930 . S
H355 C350 0.930 . S
N356 Cu345 1.985 . S
N356 C358 1.335 . S
N356 C359 1.390 . S
N357 C358 1.345 . S
N357 C360 1.336 . S
C358 N356 1.335 . S
C358 N357 1.345 . S
C358 H363 0.930 . S
C359 N356 1.390 . S
C359 C360 1.346 . S
C359 H364 0.930 . S
C360 N357 1.336 . S
C360 C359 1.346 . S
C360 H367 0.929 . S
C361 O351 1.282 . S
C361 O362 1.216 . S
O362 C361 1.216 . S
H363 C358 0.930 . S
H364 C359 0.930 . S
O365 Cu345 1.959 . S
O365 C352 1.251 . S
H366 C349 0.930 . S
H367 C360 0.929 . S
Cu368 N369 1.999 . S
Cu368 O374 1.974 . S
Cu368 N379 1.985 . S
Cu368 O388 1.959 . S
N369 Cu368 1.999 . S
N369 C371 1.263 . S
N369 C373 1.389 . S
N370 C371 1.358 . S
N370 C372 1.400 . S
C371 N369 1.263 . S
C371 N370 1.358 . S
C371 H377 0.930 . S
C372 N370 1.400 . S
C372 C373 1.351 . S
C372 H389 0.930 . S
C373 N369 1.389 . S
C373 C372 1.351 . S
C373 H378 0.930 . S
O374 Cu368 1.974 . S
O374 C384 1.282 . S
C375 O376 1.261 . S
C375 O388 1.251 . S
O376 C375 1.261 . S
H377 C371 0.930 . S
H378 C373 0.930 . S
N379 Cu368 1.985 . S
N379 C381 1.335 . S
N379 C382 1.390 . S
N380 C381 1.345 1_455 S
N380 C383 1.336 1_455 S
C381 N379 1.335 . S
C381 N380 1.345 1_655 S
C381 H386 0.930 1_655 S
C382 N379 1.390 . S
C382 C383 1.346 . S
C382 H387 0.930 . S
C383 N380 1.336 1_655 S
C383 C382 1.346 . S
C383 H390 0.929 . S
C384 O374 1.282 . S
C384 O385 1.216 . S
O385 C384 1.216 . S
H386 C381 0.930 1_455 S
H387 C382 0.930 . S
O388 Cu368 1.959 . S
O388 C375 1.251 . S
H389 C372 0.930 . S
H390 C383 0.929 . S
Cu391 N392 1.999 . S
Cu391 O397 1.974 . S
Cu391 N402 1.985 . S
Cu391 O411 1.959 . S
N392 Cu391 1.999 . S
N392 C394 1.263 . S
N392 C396 1.389 . S
N393 C394 1.358 . S
N393 C395 1.400 . S
C394 N392 1.263 . S
C394 N393 1.358 . S
C394 H400 0.930 . S
C395 N393 1.400 . S
C395 C396 1.351 . S
C395 H412 0.930 . S
C396 N392 1.389 . S
C396 C395 1.351 . S
C396 H401 0.930 . S
O397 Cu391 1.974 . S
O397 C407 1.282 . S
C398 O399 1.261 . S
C398 O411 1.251 . S
O399 C398 1.261 . S
H400 C394 0.930 . S
H401 C396 0.930 . S
N402 Cu391 1.985 . S
N402 C404 1.335 . S
N402 C405 1.390 . S
N403 C404 1.345 . S
N403 C406 1.336 . S
C404 N402 1.335 . S
C404 N403 1.345 . S
C404 H409 0.930 . S
C405 N402 1.390 . S
C405 C406 1.346 . S
C405 H410 0.930 . S
C406 N403 1.336 . S
C406 C405 1.346 . S
C406 H413 0.929 . S
C407 O397 1.282 . S
C407 O408 1.216 . S
O408 C407 1.216 . S
H409 C404 0.930 . S
H410 C405 0.930 . S
O411 Cu391 1.959 . S
O411 C398 1.251 . S
H412 C395 0.930 . S
H413 C406 0.929 . S
C414 C415 1.363 . S
C414 C420 1.379 . S
C414 N422 1.356 . S
C415 C414 1.363 . S
C415 C421 1.363 . S
C416 C417 1.363 1_556 S
C416 C421 1.379 . S
C416 N423 1.356 1_556 S
C417 C416 1.363 1_554 S
C417 C420 1.363 1_554 S
N418 C420 1.356 1_654 S
N418 H430 0.984 . S
N418 H431 0.973 . S
N419 C421 1.356 . S
N419 H424 0.984 . S
N419 H425 0.985 . S
C420 C414 1.379 . S
C420 C417 1.363 1_556 S
C420 N418 1.356 1_456 S
C421 C415 1.363 . S
C421 C416 1.379 . S
C421 N419 1.356 . S
N422 C414 1.356 . S
N422 H428 0.984 1_455 S
N422 H429 0.984 . S
N423 C416 1.356 1_554 S
N423 H426 0.984 . S
N423 H427 0.985 . S
H424 N419 0.984 . S
H425 N419 0.985 . S
H426 N423 0.984 . S
H427 N423 0.985 . S
H428 N422 0.984 1_655 S
H429 N422 0.984 . S
H430 N418 0.984 . S
H431 N418 0.973 . S
C432 C433 1.363 . S
C432 C438 1.379 . S
C432 N440 1.356 . S
C433 C432 1.363 . S
C433 C439 1.363 . S
C434 C435 1.363 . S
C434 C439 1.379 . S
C434 N441 1.356 . S
C435 C434 1.363 . S
C435 C438 1.363 . S
N436 C438 1.356 1_554 S
N436 H448 0.984 . S
N436 H449 0.985 . S
N437 C439 1.356 . S
N437 H442 0.984 . S
N437 H443 0.985 . S
C438 C432 1.379 . S
C438 C435 1.363 . S
C438 N436 1.356 1_556 S
C439 C433 1.363 . S
C439 C434 1.379 . S
C439 N437 1.356 . S
N440 C432 1.356 . S
N440 H446 0.984 . S
N440 H447 0.984 . S
N441 C434 1.356 . S
N441 H444 0.984 . S
N441 H445 0.985 . S
H442 N437 0.984 . S
H443 N437 0.985 . S
H444 N441 0.984 . S
H445 N441 0.985 . S
H446 N440 0.984 . S
H447 N440 0.984 . S
H448 N436 0.984 . S
H449 N436 0.985 . S
C450 C451 1.363 . S
C450 C456 1.379 1_554 S
C450 N458 1.356 . S
C451 C450 1.363 . S
C451 C457 1.363 . S
C452 C453 1.363 1_554 S
C452 C457 1.379 . S
C452 N459 1.356 . S
C453 C452 1.363 1_556 S
C453 C456 1.363 . S
N454 C456 1.356 . S
N454 H466 0.984 1_545 S
N454 H467 0.985 . S
N455 C457 1.356 . S
N455 H460 0.984 . S
N455 H461 0.985 . S
C456 C450 1.379 1_556 S
C456 C453 1.363 . S
C456 N454 1.356 . S
C457 C451 1.363 . S
C457 C452 1.379 . S
C457 N455 1.356 . S
N458 C450 1.356 . S
N458 H464 0.984 . S
N458 H465 0.984 . S
N459 C452 1.356 . S
N459 H462 0.984 1_554 S
N459 H463 0.985 . S
H460 N455 0.984 . S
H461 N455 0.985 . S
H462 N459 0.984 1_556 S
H463 N459 0.985 . S
H464 N458 0.984 . S
H465 N458 0.984 . S
H466 N454 0.984 1_565 S
H467 N454 0.985 . S
C468 C469 1.363 . S
C468 C474 1.379 . S
C468 N476 1.352 1_545 S
C469 C468 1.363 . S
C469 C475 1.363 . S
C470 C471 1.363 . S
C470 C475 1.379 . S
C470 N477 1.356 . S
C471 C470 1.363 . S
C471 C474 1.363 . S
N472 C474 1.356 . S
N472 H484 0.984 1_545 S
N472 H485 0.985 . S
N473 C475 1.356 . S
N473 H478 0.984 . S
N473 H479 0.985 . S
C474 C468 1.379 . S
C474 C471 1.363 . S
C474 N472 1.356 . S
C475 C469 1.363 . S
C475 C470 1.379 . S
C475 N473 1.356 . S
N476 C468 1.352 1_565 S
N476 H482 0.987 . S
N476 H483 0.986 1_565 S
N477 C470 1.356 . S
N477 H480 0.984 . S
N477 H481 0.985 . S
H478 N473 0.984 . S
H479 N473 0.985 . S
H480 N477 0.984 . S
H481 N477 0.985 . S
H482 N476 0.987 . S
H483 N476 0.986 1_545 S
H484 N472 0.984 1_565 S
H485 N472 0.985 . S
C486 C487 1.363 . S
C486 C492 1.379 . S
C486 N494 1.356 . S
C487 C486 1.363 . S
C487 C493 1.363 . S
C488 C489 1.363 . S
C488 C493 1.379 . S
C488 N495 1.356 . S
C489 C488 1.363 . S
C489 C492 1.363 . S
N490 C492 1.356 . S
N490 H502 0.984 . S
N490 H503 0.985 . S
N491 C493 1.356 . S
N491 H496 0.984 . S
N491 H497 0.985 . S
C492 C486 1.379 . S
C492 C489 1.363 . S
C492 N490 1.356 . S
C493 C487 1.363 . S
C493 C488 1.379 . S
C493 N491 1.356 . S
N494 C486 1.356 . S
N494 H500 0.984 . S
N494 H501 0.984 . S
N495 C488 1.356 . S
N495 H498 0.984 . S
N495 H499 0.985 . S
H496 N491 0.984 . S
H497 N491 0.985 . S
H498 N495 0.984 . S
H499 N495 0.985 . S
H500 N494 0.984 . S
H501 N494 0.984 . S
H502 N490 0.984 . S
H503 N490 0.985 . S
C504 C505 1.363 . S
C504 C510 1.379 . S
C504 N512 1.356 . S
C505 C504 1.363 . S
C505 C511 1.363 . S
C506 C507 1.363 . S
C506 C511 1.379 . S
C506 N513 1.356 . S
C507 C506 1.363 . S
C507 C510 1.363 . S
N508 C510 1.356 . S
N508 H520 0.984 . S
N508 H521 0.985 . S
N509 C511 1.356 . S
N509 H514 0.984 . S
N509 H515 0.985 . S
C510 C504 1.379 . S
C510 C507 1.363 . S
C510 N508 1.356 . S
C511 C505 1.363 . S
C511 C506 1.379 . S
C511 N509 1.356 . S
N512 C504 1.356 . S
N512 H518 0.984 . S
N512 H519 0.984 . S
N513 C506 1.356 . S
N513 H516 0.984 . S
N513 H517 0.985 . S
H514 N509 0.984 . S
H515 N509 0.985 . S
H516 N513 0.984 . S
H517 N513 0.985 . S
H518 N512 0.984 . S
H519 N512 0.984 . S
H520 N508 0.984 . S
H521 N508 0.985 . S
C522 C523 1.363 . S
C522 C528 1.379 . S
C522 N530 1.356 . S
C523 C522 1.363 . S
C523 C529 1.363 . S
C524 C525 1.363 . S
C524 C529 1.379 . S
C524 N531 1.356 . S
C525 C524 1.363 . S
C525 C528 1.363 . S
N526 C528 1.356 . S
N526 H538 0.984 . S
N526 H539 0.985 . S
N527 C529 1.356 . S
N527 H532 0.984 . S
N527 H533 0.985 . S
C528 C522 1.379 . S
C528 C525 1.363 . S
C528 N526 1.356 . S
C529 C523 1.363 . S
C529 C524 1.379 . S
C529 N527 1.356 . S
N530 C522 1.356 . S
N530 H536 0.984 . S
N530 H537 0.984 . S
N531 C524 1.356 . S
N531 H534 0.984 . S
N531 H535 0.985 . S
H532 N527 0.984 . S
H533 N527 0.985 . S
H534 N531 0.984 . S
H535 N531 0.985 . S
H536 N530 0.984 . S
H537 N530 0.984 . S
H538 N526 0.984 . S
H539 N526 0.985 . S
C540 C541 1.363 . S
C540 C546 1.379 . S
C540 N548 1.356 . S
C541 C540 1.363 . S
C541 C547 1.363 . S
C542 C543 1.363 . S
C542 C547 1.379 . S
C542 N549 1.356 . S
C543 C542 1.363 . S
C543 C546 1.363 . S
N544 C546 1.356 . S
N544 H556 0.984 . S
N544 H557 0.985 . S
N545 C547 1.356 . S
N545 H550 0.984 . S
N545 H551 0.985 . S
C546 C540 1.379 . S
C546 C543 1.363 . S
C546 N544 1.356 . S
C547 C541 1.363 . S
C547 C542 1.379 . S
C547 N545 1.356 . S
N548 C540 1.356 . S
N548 H554 0.984 . S
N548 H555 0.984 . S
N549 C542 1.356 . S
N549 H552 0.984 . S
N549 H553 0.985 . S
H550 N545 0.984 . S
H551 N545 0.985 . S
H552 N549 0.984 . S
H553 N549 0.985 . S
H554 N548 0.984 . S
H555 N548 0.984 . S
H556 N544 0.984 . S
H557 N544 0.985 . S
C558 C559 1.363 . S
C558 C564 1.379 . S
C558 N566 1.356 . S
C559 C558 1.363 . S
C559 C565 1.363 . S
C560 C561 1.363 . S
C560 C565 1.379 . S
C560 N567 1.356 . S
C561 C560 1.363 . S
C561 C564 1.363 . S
N562 C564 1.356 . S
N562 H574 0.984 . S
N562 H575 0.985 . S
N563 C565 1.356 . S
N563 H568 0.984 . S
N563 H569 0.985 . S
C564 C558 1.379 . S
C564 C561 1.363 . S
C564 N562 1.356 . S
C565 C559 1.363 . S
C565 C560 1.379 . S
C565 N563 1.356 . S
N566 C558 1.356 . S
N566 H572 0.984 . S
N566 H573 0.984 . S
N567 C560 1.356 . S
N567 H570 0.984 . S
N567 H571 0.985 . S
H568 N563 0.984 . S
H569 N563 0.985 . S
H570 N567 0.984 . S
H571 N567 0.985 . S
H572 N566 0.984 . S
H573 N566 0.984 . S
H574 N562 0.984 . S
H575 N562 0.985 . S
C576 C577 1.363 . S
C576 C582 1.379 . S
C576 N584 1.356 . S
C577 C576 1.363 . S
C577 C583 1.363 . S
C578 C579 1.363 . S
C578 C583 1.379 . S
C578 N585 1.356 . S
C579 C578 1.363 . S
C579 C582 1.363 . S
N580 C582 1.356 . S
N580 H592 0.984 . S
N580 H593 0.985 . S
N581 C583 1.356 . S
N581 H586 0.984 1_556 S
N581 H587 0.985 1_556 S
C582 C576 1.379 . S
C582 C579 1.363 . S
C582 N580 1.356 . S
C583 C577 1.363 . S
C583 C578 1.379 . S
C583 N581 1.356 . S
N584 C576 1.356 . S
N584 H590 0.984 . S
N584 H591 0.984 . S
N585 C578 1.356 . S
N585 H588 0.984 . S
N585 H589 0.985 . S
H586 N581 0.984 1_554 S
H587 N581 0.985 1_554 S
H588 N585 0.984 . S
H589 N585 0.985 . S
H590 N584 0.984 . S
H591 N584 0.984 . S
H592 N580 0.984 . S
H593 N580 0.985 . S
C594 C595 1.363 . S
C594 C600 1.379 . S
C594 N602 1.365 . S
C595 C594 1.363 . S
C595 C601 1.363 . S
C596 C597 1.363 . S
C596 C601 1.379 . S
C596 N603 1.356 . S
C597 C596 1.363 . S
C597 C600 1.363 . S
N598 C600 1.356 . S
N598 H610 0.984 . S
N598 H611 0.985 . S
N599 C601 1.356 . S
N599 H604 0.984 . S
N599 H605 0.985 . S
C600 C594 1.379 . S
C600 C597 1.363 . S
C600 N598 1.356 . S
C601 C595 1.363 . S
C601 C596 1.379 . S
C601 N599 1.356 . S
N602 C594 1.365 . S
N602 H608 0.980 1_556 S
N602 H609 0.980 1_556 S
N603 C596 1.356 . S
N603 H606 0.984 . S
N603 H607 0.985 . S
H604 N599 0.984 . S
H605 N599 0.985 . S
H606 N603 0.984 . S
H607 N603 0.985 . S
H608 N602 0.980 1_554 S
H609 N602 0.980 1_554 S
H610 N598 0.984 . S
H611 N598 0.985 . S
C612 C613 1.363 . S
C612 C618 1.379 . S
C612 N620 1.356 . S
C613 C612 1.363 . S
C613 C619 1.363 . S
C614 C615 1.363 . S
C614 C619 1.379 . S
C614 N621 1.356 . S
C615 C614 1.363 . S
C615 C618 1.363 . S
N616 C618 1.356 . S
N616 H628 0.984 . S
N616 H629 0.985 . S
N617 C619 1.356 . S
N617 H622 0.984 1_556 S
N617 H623 0.985 . S
C618 C612 1.379 . S
C618 C615 1.363 . S
C618 N616 1.356 . S
C619 C613 1.363 . S
C619 C614 1.379 . S
C619 N617 1.356 . S
N620 C612 1.356 . S
N620 H626 0.984 . S
N620 H627 0.984 . S
N621 C614 1.356 . S
N621 H624 0.984 . S
N621 H625 0.985 . S
H622 N617 0.984 1_554 S
H623 N617 0.985 . S
H624 N621 0.984 . S
H625 N621 0.985 . S
H626 N620 0.984 . S
H627 N620 0.984 . S
H628 N616 0.984 . S
H629 N616 0.985 . S
C630 C631 1.363 . S
C630 C636 1.379 . S
C630 N638 1.356 . S
C631 C630 1.363 . S
C631 C637 1.363 . S
C632 C633 1.363 . S
C632 C637 1.379 . S
C632 N639 1.356 . S
C633 C632 1.363 . S
C633 C636 1.363 . S
N634 C636 1.356 . S
N634 H646 0.984 . S
N634 H647 0.985 . S
N635 C637 1.356 . S
N635 H640 0.984 . S
N635 H641 0.985 . S
C636 C630 1.379 . S
C636 C633 1.363 . S
C636 N634 1.356 . S
C637 C631 1.363 . S
C637 C632 1.379 . S
C637 N635 1.356 . S
N638 C630 1.356 . S
N638 H644 0.984 . S
N638 H645 0.984 . S
N639 C632 1.356 . S
N639 H642 0.984 . S
N639 H643 0.985 . S
H640 N635 0.984 . S
H641 N635 0.985 . S
H642 N639 0.984 . S
H643 N639 0.985 . S
H644 N638 0.984 . S
H645 N638 0.984 . S
H646 N634 0.984 . S
H647 N634 0.985 . S
C648 C649 1.363 . S
C648 C654 1.379 . S
C648 N656 1.356 . S
C649 C648 1.363 . S
C649 C655 1.363 . S
C650 C651 1.363 . S
C650 C655 1.379 . S
C650 N657 1.356 . S
C651 C650 1.363 . S
C651 C654 1.363 . S
N652 C654 1.356 . S
N652 H664 0.984 . S
N652 H665 0.985 . S
N653 C655 1.356 . S
N653 H658 0.984 . S
N653 H659 0.985 . S
C654 C648 1.379 . S
C654 C651 1.363 . S
C654 N652 1.356 . S
C655 C649 1.363 . S
C655 C650 1.379 . S
C655 N653 1.356 . S
N656 C648 1.356 . S
N656 H662 0.984 . S
N656 H663 0.984 . S
N657 C650 1.356 . S
N657 H660 0.984 . S
N657 H661 0.985 . S
H658 N653 0.984 . S
H659 N653 0.985 . S
H660 N657 0.984 . S
H661 N657 0.985 . S
H662 N656 0.984 . S
H663 N656 0.984 . S
H664 N652 0.984 . S
H665 N652 0.985 . S
C666 C667 1.363 . S
C666 C672 1.379 . S
C666 N674 1.356 . S
C667 C666 1.363 . S
C667 C673 1.363 . S
C668 C669 1.363 . S
C668 C673 1.379 . S
C668 N675 1.356 . S
C669 C668 1.363 . S
C669 C672 1.363 . S
N670 C672 1.356 . S
N670 H682 0.984 . S
N670 H683 0.985 . S
N671 C673 1.356 . S
N671 H676 0.984 . S
N671 H677 0.985 . S
C672 C666 1.379 . S
C672 C669 1.363 . S
C672 N670 1.356 . S
C673 C667 1.363 . S
C673 C668 1.379 . S
C673 N671 1.356 . S
N674 C666 1.356 . S
N674 H680 0.984 . S
N674 H681 0.984 . S
N675 C668 1.356 . S
N675 H678 0.984 . S
N675 H679 0.985 . S
H676 N671 0.984 . S
H677 N671 0.985 . S
H678 N675 0.984 . S
H679 N675 0.985 . S
H680 N674 0.984 . S
H681 N674 0.984 . S
H682 N670 0.984 . S
H683 N670 0.985 . S
C684 C685 1.363 . S
C684 C690 1.379 1_554 S
C684 N692 1.356 . S
C685 C684 1.363 . S
C685 C691 1.363 . S
C686 C687 1.363 1_554 S
C686 C691 1.379 . S
C686 N693 1.356 . S
C687 C686 1.363 1_556 S
C687 C690 1.363 . S
N688 C690 1.356 . S
N688 H700 0.984 . S
N688 H701 0.985 . S
N689 C691 1.356 . S
N689 H694 0.984 . S
N689 H695 0.985 . S
C690 C684 1.379 1_556 S
C690 C687 1.363 . S
C690 N688 1.356 . S
C691 C685 1.363 . S
C691 C686 1.379 . S
C691 N689 1.356 . S
N692 C684 1.356 . S
N692 H698 0.984 1_554 S
N692 H699 0.984 . S
N693 C686 1.356 . S
N693 H696 0.984 . S
N693 H697 0.985 . S
H694 N689 0.984 . S
H695 N689 0.985 . S
H696 N693 0.984 . S
H697 N693 0.985 . S
H698 N692 0.984 1_556 S
H699 N692 0.984 . S
H700 N688 0.984 . S
H701 N688 0.985 . S
C702 C703 1.363 . S
C702 C708 1.379 . S
C702 N710 1.356 . S
C703 C702 1.363 . S
C703 C709 1.363 . S
C704 C705 1.363 . S
C704 C709 1.379 . S
C704 N711 1.356 . S
C705 C704 1.363 . S
C705 C708 1.363 . S
N706 C708 1.356 1_556 S
N706 H718 0.984 . S
N706 H719 0.985 . S
N707 C709 1.356 . S
N707 H712 0.984 . S
N707 H713 0.985 . S
C708 C702 1.379 . S
C708 C705 1.363 . S
C708 N706 1.356 1_554 S
C709 C703 1.363 . S
C709 C704 1.379 . S
C709 N707 1.356 . S
N710 C702 1.356 . S
N710 H716 0.984 . S
N710 H717 0.984 . S
N711 C704 1.356 . S
N711 H714 0.984 . S
N711 H715 0.985 . S
H712 N707 0.984 . S
H713 N707 0.985 . S
H714 N711 0.984 . S
H715 N711 0.985 . S
H716 N710 0.984 . S
H717 N710 0.984 . S
H718 N706 0.984 . S
H719 N706 0.985 . S
C720 C721 1.363 . S
C720 C726 1.379 . S
C720 N728 1.356 . S
C721 C720 1.363 . S
C721 C727 1.363 . S
C722 C723 1.363 . S
C722 C727 1.379 . S
C722 N729 1.356 . S
C723 C722 1.363 . S
C723 C726 1.363 . S
N724 C726 1.356 . S
N724 H736 0.984 . S
N724 H737 0.985 . S
N725 C727 1.356 . S
N725 H730 0.984 . S
N725 H731 0.985 . S
C726 C720 1.379 . S
C726 C723 1.363 . S
C726 N724 1.356 . S
C727 C721 1.363 . S
C727 C722 1.379 . S
C727 N725 1.356 . S
N728 C720 1.356 . S
N728 H734 0.984 . S
N728 H735 0.984 . S
N729 C722 1.356 . S
N729 H732 0.984 . S
N729 H733 0.985 . S
H730 N725 0.984 . S
H731 N725 0.985 . S
H732 N729 0.984 . S
H733 N729 0.985 . S
H734 N728 0.984 . S
H735 N728 0.984 . S
H736 N724 0.984 . S
H737 N724 0.985 . S
C738 C739 1.363 . S
C738 C744 1.379 . S
C738 N746 1.356 . S
C739 C738 1.363 . S
C739 C745 1.363 . S
C740 C741 1.363 . S
C740 C745 1.379 . S
C740 N747 1.356 . S
C741 C740 1.363 . S
C741 C744 1.363 . S
N742 C744 1.356 . S
N742 H754 0.984 . S
N742 H755 0.985 . S
N743 C745 1.356 . S
N743 H748 0.984 . S
N743 H749 0.985 . S
C744 C738 1.379 . S
C744 C741 1.363 . S
C744 N742 1.356 . S
C745 C739 1.363 . S
C745 C740 1.379 . S
C745 N743 1.356 . S
N746 C738 1.356 . S
N746 H752 0.984 . S
N746 H753 0.984 . S
N747 C740 1.356 . S
N747 H750 0.984 . S
N747 H751 0.985 . S
H748 N743 0.984 . S
H749 N743 0.985 . S
H750 N747 0.984 . S
H751 N747 0.985 . S
H752 N746 0.984 . S
H753 N746 0.984 . S
H754 N742 0.984 . S
H755 N742 0.985 . S
C756 C757 1.363 . S
C756 C762 1.379 . S
C756 N764 1.356 . S
C757 C756 1.363 . S
C757 C763 1.363 . S
C758 C759 1.363 . S
C758 C763 1.379 . S
C758 N765 1.356 . S
C759 C758 1.363 . S
C759 C762 1.363 . S
N760 C762 1.356 . S
N760 H772 0.984 . S
N760 H773 0.985 . S
N761 C763 1.356 . S
N761 H766 0.984 . S
N761 H767 0.985 . S
C762 C756 1.379 . S
C762 C759 1.363 . S
C762 N760 1.356 . S
C763 C757 1.363 . S
C763 C758 1.379 . S
C763 N761 1.356 . S
N764 C756 1.356 . S
N764 H770 0.984 . S
N764 H771 0.984 . S
N765 C758 1.356 . S
N765 H768 0.984 . S
N765 H769 0.985 . S
H766 N761 0.984 . S
H767 N761 0.985 . S
H768 N765 0.984 . S
H769 N765 0.985 . S
H770 N764 0.984 . S
H771 N764 0.984 . S
H772 N760 0.984 . S
H773 N760 0.985 . S
C774 C775 1.363 . S
C774 C780 1.379 1_565 S
C774 N782 1.356 . S
C775 C774 1.363 . S
C775 C781 1.363 . S
C776 C777 1.363 1_565 S
C776 C781 1.379 . S
C776 N783 1.374 . S
C777 C776 1.363 1_545 S
C777 C780 1.363 . S
N778 C780 1.356 . S
N778 H790 0.984 . S
N778 H791 0.985 . S
N779 C781 1.356 . S
N779 H784 0.984 . S
N779 H785 0.985 . S
C780 C774 1.379 1_545 S
C780 C777 1.363 . S
C780 N778 1.356 . S
C781 C775 1.363 . S
C781 C776 1.379 . S
C781 N779 1.356 . S
N782 C774 1.356 . S
N782 H788 0.984 . S
N782 H789 0.984 . S
N783 C776 1.374 . S
N783 H786 0.957 1_565 S
N783 H787 0.996 . S
H784 N779 0.984 . S
H785 N779 0.985 . S
H786 N783 0.957 1_545 S
H787 N783 0.996 . S
H788 N782 0.984 . S
H789 N782 0.984 . S
H790 N778 0.984 . S
H791 N778 0.985 . S
C792 C793 1.363 . S
C792 C798 1.379 . S
C792 N800 1.356 . S
C793 C792 1.363 . S
C793 C799 1.363 . S
C794 C795 1.363 . S
C794 C799 1.379 . S
C794 N801 1.356 . S
C795 C794 1.363 . S
C795 C798 1.363 . S
N796 C798 1.356 . S
N796 H808 0.984 . S
N796 H809 0.985 . S
N797 C799 1.356 . S
N797 H802 0.984 . S
N797 H803 0.985 . S
C798 C792 1.379 . S
C798 C795 1.363 . S
C798 N796 1.356 . S
C799 C793 1.363 . S
C799 C794 1.379 . S
C799 N797 1.356 . S
N800 C792 1.356 . S
N800 H806 0.984 . S
N800 H807 0.984 . S
N801 C794 1.356 . S
N801 H804 0.984 . S
N801 H805 0.985 . S
H802 N797 0.984 . S
H803 N797 0.985 . S
H804 N801 0.984 . S
H805 N801 0.985 . S
H806 N800 0.984 . S
H807 N800 0.984 . S
H808 N796 0.984 . S
H809 N796 0.985 . S
C810 C811 1.348 1_454 S
C810 C816 1.379 . S
C810 N818 1.346 1_455 S
C811 C810 1.348 1_656 S
C811 C817 1.340 1_655 S
C812 C813 1.363 1_556 S
C812 C817 1.379 . S
C812 N819 1.356 . S
C813 C812 1.363 1_554 S
C813 C816 1.363 . S
N814 C816 1.356 . S
N814 H826 0.984 . S
N814 H827 0.985 . S
N815 C817 1.356 1_655 S
N815 H820 0.984 . S
N815 H821 0.985 . S
C816 C810 1.379 . S
C816 C813 1.363 . S
C816 N814 1.356 . S
C817 C811 1.340 1_455 S
C817 C812 1.379 . S
C817 N815 1.356 1_455 S
N818 C810 1.346 1_655 S
N818 H824 0.983 1_655 S
N818 H825 0.996 . S
N819 C812 1.356 . S
N819 H822 0.984 . S
N819 H823 0.985 . S
H820 N815 0.984 . S
H821 N815 0.985 . S
H822 N819 0.984 . S
H823 N819 0.985 . S
H824 N818 0.983 1_455 S
H825 N818 0.996 . S
H826 N814 0.984 . S
H827 N814 0.985 . S
C828 C829 1.363 1_554 S
C828 C834 1.379 . S
C828 N836 1.356 . S
C829 C828 1.363 1_556 S
C829 C835 1.363 . S
C830 C831 1.363 1_556 S
C830 C835 1.379 . S
C830 N837 1.356 . S
C831 C830 1.363 1_554 S
C831 C834 1.363 . S
N832 C834 1.356 . S
N832 H844 0.984 . S
N832 H845 0.985 . S
N833 C835 1.356 . S
N833 H838 0.984 . S
N833 H839 0.985 . S
C834 C828 1.379 . S
C834 C831 1.363 . S
C834 N832 1.356 . S
C835 C829 1.363 . S
C835 C830 1.379 . S
C835 N833 1.356 . S
N836 C828 1.356 . S
N836 H842 0.984 . S
N836 H843 0.984 . S
N837 C830 1.356 . S
N837 H840 0.984 . S
N837 H841 0.985 . S
H838 N833 0.984 . S
H839 N833 0.985 . S
H840 N837 0.984 . S
H841 N837 0.985 . S
H842 N836 0.984 . S
H843 N836 0.984 . S
H844 N832 0.984 . S
H845 N832 0.985 . S
C846 C847 1.363 . S
C846 C852 1.379 . S
C846 N854 1.356 . S
C847 C846 1.363 . S
C847 C853 1.363 1_655 S
C848 C849 1.363 . S
C848 C853 1.379 . S
C848 N855 1.356 . S
C849 C848 1.363 . S
C849 C852 1.363 1_455 S
N850 C852 1.356 . S
N850 H862 0.984 . S
N850 H863 0.985 . S
N851 C853 1.356 . S
N851 H856 0.977 1_455 S
N851 H857 0.985 . S
C852 C846 1.379 . S
C852 C849 1.363 1_655 S
C852 N850 1.356 . S
C853 C847 1.363 1_455 S
C853 C848 1.379 . S
C853 N851 1.356 . S
N854 C846 1.356 . S
N854 H860 0.984 . S
N854 H861 0.984 . S
N855 C848 1.356 . S
N855 H858 0.984 . S
N855 H859 0.985 . S
H856 N851 0.977 1_655 S
H857 N851 0.985 . S
H858 N855 0.984 . S
H859 N855 0.985 . S
H860 N854 0.984 . S
H861 N854 0.984 . S
H862 N850 0.984 . S
H863 N850 0.985 . S
C864 C865 1.363 . S
C864 C870 1.379 . S
C864 N872 1.356 . S
C865 C864 1.363 . S
C865 C871 1.363 . S
C866 C867 1.363 . S
C866 C871 1.379 . S
C866 N873 1.356 . S
C867 C866 1.363 . S
C867 C870 1.363 . S
N868 C870 1.356 . S
N868 H880 0.984 . S
N868 H881 0.985 . S
N869 C871 1.356 . S
N869 H874 0.984 . S
N869 H875 0.985 . S
C870 C864 1.379 . S
C870 C867 1.363 . S
C870 N868 1.356 . S
C871 C865 1.363 . S
C871 C866 1.379 . S
C871 N869 1.356 . S
N872 C864 1.356 . S
N872 H878 0.984 . S
N872 H879 0.984 . S
N873 C866 1.356 . S
N873 H876 0.984 . S
N873 H877 0.985 . S
H874 N869 0.984 . S
H875 N869 0.985 . S
H876 N873 0.984 . S
H877 N873 0.985 . S
H878 N872 0.984 . S
H879 N872 0.984 . S
H880 N868 0.984 . S
H881 N868 0.985 . S
C882 C883 1.363 . S
C882 C888 1.379 . S
C882 N890 1.356 . S
C883 C882 1.363 . S
C883 C889 1.363 . S
C884 C885 1.363 . S
C884 C889 1.379 . S
C884 N891 1.356 . S
C885 C884 1.363 . S
C885 C888 1.363 . S
N886 C888 1.356 . S
N886 H898 0.984 . S
N886 H899 0.985 . S
N887 C889 1.356 . S
N887 H892 0.984 . S
N887 H893 0.985 . S
C888 C882 1.379 . S
C888 C885 1.363 . S
C888 N886 1.356 . S
C889 C883 1.363 . S
C889 C884 1.379 . S
C889 N887 1.356 . S
N890 C882 1.356 . S
N890 H896 0.984 . S
N890 H897 0.984 . S
N891 C884 1.356 . S
N891 H894 0.984 . S
N891 H895 0.985 . S
H892 N887 0.984 . S
H893 N887 0.985 . S
H894 N891 0.984 . S
H895 N891 0.985 . S
H896 N890 0.984 . S
H897 N890 0.984 . S
H898 N886 0.984 . S
H899 N886 0.985 . S
C900 C901 1.363 1_545 S
C900 C906 1.379 . S
C900 N908 1.356 1_556 S
C901 C900 1.363 1_565 S
C901 C907 1.363 . S
C902 C903 1.363 1_565 S
C902 C907 1.379 . S
C902 N909 1.356 . S
C903 C902 1.363 1_545 S
C903 C906 1.363 . S
N904 C906 1.356 . S
N904 H916 0.992 . S
N904 H917 0.985 . S
N905 C907 1.356 . S
N905 H910 0.984 . S
N905 H911 0.985 . S
C906 C900 1.379 . S
C906 C903 1.363 . S
C906 N904 1.356 . S
C907 C901 1.363 . S
C907 C902 1.379 . S
C907 N905 1.356 . S
N908 C900 1.356 1_554 S
N908 H914 0.984 . S
N908 H915 0.984 . S
N909 C902 1.356 . S
N909 H912 0.984 . S
N909 H913 0.985 . S
H910 N905 0.984 . S
H911 N905 0.985 . S
H912 N909 0.984 . S
H913 N909 0.985 . S
H914 N908 0.984 . S
H915 N908 0.984 . S
H916 N904 0.992 . S
H917 N904 0.985 . S
C918 C919 1.363 . S
C918 C924 1.379 . S
C918 N926 1.356 . S
C919 C918 1.363 . S
C919 C925 1.363 . S
C920 C921 1.363 . S
C920 C925 1.379 . S
C920 N927 1.356 1_556 S
C921 C920 1.363 . S
C921 C924 1.363 . S
N922 C924 1.356 . S
N922 H934 0.984 . S
N922 H935 0.985 . S
N923 C925 1.356 . S
N923 H928 0.984 . S
N923 H929 0.985 1_556 S
C924 C918 1.379 . S
C924 C921 1.363 . S
C924 N922 1.356 . S
C925 C919 1.363 . S
C925 C920 1.379 . S
C925 N923 1.356 . S
N926 C918 1.356 . S
N926 H932 0.984 . S
N926 H933 0.984 . S
N927 C920 1.356 1_554 S
N927 H930 0.984 . S
N927 H931 0.985 . S
H928 N923 0.984 . S
H929 N923 0.985 1_554 S
H930 N927 0.984 . S
H931 N927 0.985 . S
H932 N926 0.984 . S
H933 N926 0.984 . S
H934 N922 0.984 . S
H935 N922 0.985 . S
C936 C937 1.363 . S
C936 C942 1.379 . S
C936 N944 1.356 . S
C937 C936 1.363 . S
C937 C943 1.363 . S
C938 C939 1.363 . S
C938 C943 1.379 . S
C938 N945 1.356 . S
C939 C938 1.363 . S
C939 C942 1.363 . S
N940 C942 1.356 . S
N940 H952 0.984 . S
N940 H953 0.985 . S
N941 C943 1.356 . S
N941 H946 0.984 . S
N941 H947 0.985 . S
C942 C936 1.379 . S
C942 C939 1.363 . S
C942 N940 1.356 . S
C943 C937 1.363 . S
C943 C938 1.379 . S
C943 N941 1.356 . S
N944 C936 1.356 . S
N944 H950 0.984 . S
N944 H951 0.984 . S
N945 C938 1.356 . S
N945 H948 0.984 . S
N945 H949 0.985 . S
H946 N941 0.984 . S
H947 N941 0.985 . S
H948 N945 0.984 . S
H949 N945 0.985 . S
H950 N944 0.984 . S
H951 N944 0.984 . S
H952 N940 0.984 . S
H953 N940 0.985 . S
C954 C955 1.363 . S
C954 C960 1.379 . S
C954 N962 1.356 1_545 S
C955 C954 1.363 . S
C955 C961 1.363 . S
C956 C957 1.363 . S
C956 C961 1.379 . S
C956 N963 1.356 . S
C957 C956 1.363 . S
C957 C960 1.363 . S
N958 C960 1.356 . S
N958 H970 0.984 1_556 S
N958 H971 0.985 . S
N959 C961 1.356 . S
N959 H964 0.984 1_545 S
N959 H965 0.985 . S
C960 C954 1.379 . S
C960 C957 1.363 . S
C960 N958 1.356 . S
C961 C955 1.363 . S
C961 C956 1.379 . S
C961 N959 1.356 . S
N962 C954 1.356 1_565 S
N962 H968 0.984 . S
N962 H969 0.984 . S
N963 C956 1.356 . S
N963 H966 0.984 . S
N963 H967 0.985 . S
H964 N959 0.984 1_565 S
H965 N959 0.985 . S
H966 N963 0.984 . S
H967 N963 0.985 . S
H968 N962 0.984 . S
H969 N962 0.984 . S
H970 N958 0.984 1_554 S
H971 N958 0.985 . S
C972 C973 1.363 . S
C972 C978 1.379 . S
C972 N980 1.356 . S
C973 C972 1.363 . S
C973 C979 1.363 . S
C974 C975 1.363 . S
C974 C979 1.379 . S
C974 N981 1.356 . S
C975 C974 1.363 . S
C975 C978 1.363 . S
N976 C978 1.356 . S
N976 H988 0.984 . S
N976 H989 0.985 1_455 S
N977 C979 1.356 . S
N977 H982 0.984 . S
N977 H983 0.985 . S
C978 C972 1.379 . S
C978 C975 1.363 . S
C978 N976 1.356 . S
C979 C973 1.363 . S
C979 C974 1.379 . S
C979 N977 1.356 . S
N980 C972 1.356 . S
N980 H986 0.984 . S
N980 H987 0.984 . S
N981 C974 1.356 . S
N981 H984 0.984 . S
N981 H985 0.985 . S
H982 N977 0.984 . S
H983 N977 0.985 . S
H984 N981 0.984 . S
H985 N981 0.985 . S
H986 N980 0.984 . S
H987 N980 0.984 . S
H988 N976 0.984 . S
H989 N976 0.985 1_655 S
C990 C991 1.363 . S
C990 C996 1.379 . S
C990 N998 1.356 . S
C991 C990 1.363 . S
C991 C997 1.363 . S
C992 C993 1.363 . S
C992 C997 1.379 . S
C992 N999 1.356 . S
C993 C992 1.363 . S
C993 C996 1.363 . S
N994 C996 1.356 . S
N994 H1006 0.984 . S
N994 H1007 0.985 . S
N995 C997 1.356 . S
N995 H1000 0.984 . S
N995 H1001 0.985 . S
C996 C990 1.379 . S
C996 C993 1.363 . S
C996 N994 1.356 . S
C997 C991 1.363 . S
C997 C992 1.379 . S
C997 N995 1.356 . S
N998 C990 1.356 . S
N998 H1004 0.984 . S
N998 H1005 0.984 . S
N999 C992 1.356 . S
N999 H1002 0.984 . S
N999 H1003 0.985 . S
H1000 N995 0.984 . S
H1001 N995 0.985 . S
H1002 N999 0.984 . S
H1003 N999 0.985 . S
H1004 N998 0.984 . S
H1005 N998 0.984 . S
H1006 N994 0.984 . S
H1007 N994 0.985 . S
C1008 C1009 1.363 . S
C1008 C1014 1.379 . S
C1008 N1016 1.356 . S
C1009 C1008 1.363 . S
C1009 C1015 1.363 . S
C1010 C1011 1.363 . S
C1010 C1015 1.379 . S
C1010 N1017 1.356 . S
C1011 C1010 1.363 . S
C1011 C1014 1.363 . S
N1012 C1014 1.356 . S
N1012 H1024 0.984 . S
N1012 H1025 0.985 . S
N1013 C1015 1.356 . S
N1013 H1018 0.984 . S
N1013 H1019 0.985 . S
C1014 C1008 1.379 . S
C1014 C1011 1.363 . S
C1014 N1012 1.356 . S
C1015 C1009 1.363 . S
C1015 C1010 1.379 . S
C1015 N1013 1.356 . S
N1016 C1008 1.356 . S
N1016 H1022 0.984 . S
N1016 H1023 1.036 . S
N1017 C1010 1.356 . S
N1017 H1020 0.984 . S
N1017 H1021 0.985 . S
H1018 N1013 0.984 . S
H1019 N1013 0.985 . S
H1020 N1017 0.984 . S
H1021 N1017 0.985 . S
H1022 N1016 0.984 . S
H1023 N1016 1.036 . S
H1024 N1012 0.984 . S
H1025 N1012 0.985 . S
C1026 C1027 1.363 . S
C1026 C1032 1.379 . S
C1026 N1034 1.356 . S
C1027 C1026 1.363 . S
C1027 C1033 1.363 . S
C1028 C1029 1.363 . S
C1028 C1033 1.379 . S
C1028 N1035 1.356 . S
C1029 C1028 1.363 . S
C1029 C1032 1.363 . S
N1030 C1032 1.356 1_556 S
N1030 H1042 0.984 . S
N1030 H1043 0.985 1_556 S
N1031 C1033 1.356 . S
N1031 H1036 0.984 . S
N1031 H1037 0.985 . S
C1032 C1026 1.379 . S
C1032 C1029 1.363 . S
C1032 N1030 1.356 1_554 S
C1033 C1027 1.363 . S
C1033 C1028 1.379 . S
C1033 N1031 1.356 . S
N1034 C1026 1.356 . S
N1034 H1040 0.984 1_554 S
N1034 H1041 0.984 . S
N1035 C1028 1.356 . S
N1035 H1038 0.984 . S
N1035 H1039 0.985 . S
H1036 N1031 0.984 . S
H1037 N1031 0.985 . S
H1038 N1035 0.984 . S
H1039 N1035 0.985 . S
H1040 N1034 0.984 1_556 S
H1041 N1034 0.984 . S
H1042 N1030 0.984 . S
H1043 N1030 0.985 1_554 S
C1044 C1045 1.363 . S
C1044 C1050 1.379 . S
C1044 N1052 1.356 . S
C1045 C1044 1.363 . S
C1045 C1051 1.363 . S
C1046 C1047 1.363 . S
C1046 C1051 1.379 . S
C1046 N1053 1.356 . S
C1047 C1046 1.363 . S
C1047 C1050 1.363 . S
N1048 C1050 1.356 . S
N1048 H1060 0.984 . S
N1048 H1061 0.985 . S
N1049 C1051 1.356 . S
N1049 H1054 0.984 1_545 S
N1049 H1055 0.985 . S
C1050 C1044 1.379 . S
C1050 C1047 1.363 . S
C1050 N1048 1.356 . S
C1051 C1045 1.363 . S
C1051 C1046 1.379 . S
C1051 N1049 1.356 . S
N1052 C1044 1.356 . S
N1052 H1058 0.984 . S
N1052 H1059 0.984 1_545 S
N1053 C1046 1.356 . S
N1053 H1056 0.984 . S
N1053 H1057 0.985 . S
H1054 N1049 0.984 1_565 S
H1055 N1049 0.985 . S
H1056 N1053 0.984 . S
H1057 N1053 0.985 . S
H1058 N1052 0.984 . S
H1059 N1052 0.984 1_565 S
H1060 N1048 0.984 . S
H1061 N1048 0.985 . S
C415 C85 1.569 . S
C417 C16 1.572 . S
C433 N94 1.583 . S
C435 N25 1.582 . S
C451 N48 1.546 . S
C453 N117 1.554 . S
C469 C62 1.693 . S
C471 C131 1.691 . S
C487 N2 1.661 . S
C489 N71 1.651 . S
C505 C108 1.706 . S
C507 C39 1.709 . S
C523 N209 1.776 . S
C525 C154 1.852 . S
C541 C177 1.826 . S
C543 N232 1.757 . S
C559 C200 1.749 . S
C561 N255 1.690 . S
C577 C269 1.558 . S
C579 N186 1.499 . S
C595 C223 1.539 . S
C597 N140 1.486 . S
C613 C246 1.633 . S
C615 N163 1.564 . S
C631 C292 1.603 . S
C633 C361 1.613 . S
C649 N301 1.626 . S
C651 N370 1.630 . S
C667 N324 1.598 . S
C669 N393 1.593 . S
C685 C407 1.730 . S
C687 C338 1.735 . S
C703 N347 1.710 . S
C705 N278 1.704 . S
C721 C384 1.740 . S
C723 C315 1.745 . S
C739 C7 1.579 . S
C741 N173 1.557 . S
C757 N35 1.558 . S
C759 N196 1.561 . S
C775 N150 1.548 . S
C777 N58 1.552 . S
C793 C53 1.679 . S
C795 N311 1.645 . S
C811 N334 1.670 . S
C813 N12 1.656 . S
C829 C283 1.591 . S
C831 C30 1.613 . S
C847 C375 1.590 . S
C849 C76 1.602 . S
C865 N104 1.640 . S
C867 C398 1.637 . S
C883 N357 1.628 . S
C885 N127 1.640 . S
C901 N242 1.626 . S
C903 C122 1.658 . S
C919 N81 1.612 . S
C921 N265 1.616 . S
C937 C99 1.674 . S
C939 N219 1.646 . S
C955 C145 1.705 1_545 S
C957 C306 1.709 . S
C973 C168 1.686 . S
C975 C329 1.695 1_455 S
C991 C191 1.724 . S
C993 N288 1.695 . S
C1009 N380 1.633 . S
C1011 C260 1.647 . S
C1027 N403 1.628 . S
C1029 C214 1.635 . S
C1045 C237 1.591 1_545 S
C1047 C352 1.603 . S
