# Generated by pormake.
# Topology pem, (4)-cn, num edge types: 1
# Building blocks:
#     Node 0, Type 0, BuildingBlock: TATPOV_clean_sbu_0, # of connection points: 4
#     Node 1, Type 0, BuildingBlock: TATPOV_clean_sbu_0, # of connection points: 4
#     Node 2, Type 0, BuildingBlock: TATPOV_clean_sbu_0, # of connection points: 4
#     Node 3, Type 0, BuildingBlock: TATPOV_clean_sbu_0, # of connection points: 4
#     Node 4, Type 0, BuildingBlock: TATPOV_clean_sbu_0, # of connection points: 4
#     Node 5, Type 0, BuildingBlock: TATPOV_clean_sbu_0, # of connection points: 4
#     Node 6, Type 0, BuildingBlock: TATPOV_clean_sbu_0, # of connection points: 4
#     Node 7, Type 0, BuildingBlock: TATPOV_clean_sbu_0, # of connection points: 4
#     Node 8, Type 0, BuildingBlock: TATPOV_clean_sbu_0, # of connection points: 4
#     Node 9, Type 0, BuildingBlock: TATPOV_clean_sbu_0, # of connection points: 4
#     Node 10, Type 0, BuildingBlock: TATPOV_clean_sbu_0, # of connection points: 4
#     Node 11, Type 0, BuildingBlock: TATPOV_clean_sbu_0, # of connection points: 4
#     Node 12, Type 0, BuildingBlock: TATPOV_clean_sbu_0, # of connection points: 4
#     Node 13, Type 0, BuildingBlock: TATPOV_clean_sbu_0, # of connection points: 4
#     Node 14, Type 0, BuildingBlock: TATPOV_clean_sbu_0, # of connection points: 4
#     Node 15, Type 0, BuildingBlock: TATPOV_clean_sbu_0, # of connection points: 4
#     Node 16, Type 0, BuildingBlock: TATPOV_clean_sbu_0, # of connection points: 4
#     Node 17, Type 0, BuildingBlock: TATPOV_clean_sbu_0, # of connection points: 4
#     Node 18, Type 0, BuildingBlock: TATPOV_clean_sbu_0, # of connection points: 4
#     Node 19, Type 0, BuildingBlock: TATPOV_clean_sbu_0, # of connection points: 4
#     Node 20, Type 0, BuildingBlock: TATPOV_clean_sbu_0, # of connection points: 4
#     Node 21, Type 0, BuildingBlock: TATPOV_clean_sbu_0, # of connection points: 4
#     Node 22, Type 0, BuildingBlock: TATPOV_clean_sbu_0, # of connection points: 4
#     Node 23, Type 0, BuildingBlock: TATPOV_clean_sbu_0, # of connection points: 4
#     Node 24, Type 0, BuildingBlock: TATPOV_clean_sbu_0, # of connection points: 4
#     Node 25, Type 0, BuildingBlock: TATPOV_clean_sbu_0, # of connection points: 4
#     Node 26, Type 0, BuildingBlock: TATPOV_clean_sbu_0, # of connection points: 4
#     Node 27, Type 0, BuildingBlock: TATPOV_clean_sbu_0, # of connection points: 4
#     Node 28, Type 0, BuildingBlock: TATPOV_clean_sbu_0, # of connection points: 4
#     Node 29, Type 0, BuildingBlock: TATPOV_clean_sbu_0, # of connection points: 4
#     Node 30, Type 0, BuildingBlock: TATPOV_clean_sbu_0, # of connection points: 4
#     Node 31, Type 0, BuildingBlock: TATPOV_clean_sbu_0, # of connection points: 4
#     Edge 32, Type (0, 0), BuildingBlock: AJUNOK_clean_linker_0, # of connection points: 2
#     Edge 33, Type (0, 0), BuildingBlock: AJUNOK_clean_linker_0, # of connection points: 2
#     Edge 34, Type (0, 0), BuildingBlock: AJUNOK_clean_linker_0, # of connection points: 2
#     Edge 35, Type (0, 0), BuildingBlock: AJUNOK_clean_linker_0, # of connection points: 2
#     Edge 36, Type (0, 0), BuildingBlock: AJUNOK_clean_linker_0, # of connection points: 2
#     Edge 37, Type (0, 0), BuildingBlock: AJUNOK_clean_linker_0, # of connection points: 2
#     Edge 38, Type (0, 0), BuildingBlock: AJUNOK_clean_linker_0, # of connection points: 2
#     Edge 39, Type (0, 0), BuildingBlock: AJUNOK_clean_linker_0, # of connection points: 2
#     Edge 40, Type (0, 0), BuildingBlock: AJUNOK_clean_linker_0, # of connection points: 2
#     Edge 41, Type (0, 0), BuildingBlock: AJUNOK_clean_linker_0, # of connection points: 2
#     Edge 42, Type (0, 0), BuildingBlock: AJUNOK_clean_linker_0, # of connection points: 2
#     Edge 43, Type (0, 0), BuildingBlock: AJUNOK_clean_linker_0, # of connection points: 2
#     Edge 44, Type (0, 0), BuildingBlock: AJUNOK_clean_linker_0, # of connection points: 2
#     Edge 45, Type (0, 0), BuildingBlock: AJUNOK_clean_linker_0, # of connection points: 2
#     Edge 46, Type (0, 0), BuildingBlock: AJUNOK_clean_linker_0, # of connection points: 2
#     Edge 47, Type (0, 0), BuildingBlock: AJUNOK_clean_linker_0, # of connection points: 2
#     Edge 48, Type (0, 0), BuildingBlock: AJUNOK_clean_linker_0, # of connection points: 2
#     Edge 49, Type (0, 0), BuildingBlock: AJUNOK_clean_linker_0, # of connection points: 2
#     Edge 50, Type (0, 0), BuildingBlock: AJUNOK_clean_linker_0, # of connection points: 2
#     Edge 51, Type (0, 0), BuildingBlock: AJUNOK_clean_linker_0, # of connection points: 2
#     Edge 52, Type (0, 0), BuildingBlock: AJUNOK_clean_linker_0, # of connection points: 2
#     Edge 53, Type (0, 0), BuildingBlock: AJUNOK_clean_linker_0, # of connection points: 2
#     Edge 54, Type (0, 0), BuildingBlock: AJUNOK_clean_linker_0, # of connection points: 2
#     Edge 55, Type (0, 0), BuildingBlock: AJUNOK_clean_linker_0, # of connection points: 2
#     Edge 56, Type (0, 0), BuildingBlock: AJUNOK_clean_linker_0, # of connection points: 2
#     Edge 57, Type (0, 0), BuildingBlock: AJUNOK_clean_linker_0, # of connection points: 2
#     Edge 58, Type (0, 0), BuildingBlock: AJUNOK_clean_linker_0, # of connection points: 2
#     Edge 59, Type (0, 0), BuildingBlock: AJUNOK_clean_linker_0, # of connection points: 2
#     Edge 60, Type (0, 0), BuildingBlock: AJUNOK_clean_linker_0, # of connection points: 2
#     Edge 61, Type (0, 0), BuildingBlock: AJUNOK_clean_linker_0, # of connection points: 2
#     Edge 62, Type (0, 0), BuildingBlock: AJUNOK_clean_linker_0, # of connection points: 2
#     Edge 63, Type (0, 0), BuildingBlock: AJUNOK_clean_linker_0, # of connection points: 2
#     Edge 64, Type (0, 0), BuildingBlock: AJUNOK_clean_linker_0, # of connection points: 2
#     Edge 65, Type (0, 0), BuildingBlock: AJUNOK_clean_linker_0, # of connection points: 2
#     Edge 66, Type (0, 0), BuildingBlock: AJUNOK_clean_linker_0, # of connection points: 2
#     Edge 67, Type (0, 0), BuildingBlock: AJUNOK_clean_linker_0, # of connection points: 2
#     Edge 68, Type (0, 0), BuildingBlock: AJUNOK_clean_linker_0, # of connection points: 2
#     Edge 69, Type (0, 0), BuildingBlock: AJUNOK_clean_linker_0, # of connection points: 2
#     Edge 70, Type (0, 0), BuildingBlock: AJUNOK_clean_linker_0, # of connection points: 2
#     Edge 71, Type (0, 0), BuildingBlock: AJUNOK_clean_linker_0, # of connection points: 2
#     Edge 72, Type (0, 0), BuildingBlock: AJUNOK_clean_linker_0, # of connection points: 2
#     Edge 73, Type (0, 0), BuildingBlock: AJUNOK_clean_linker_0, # of connection points: 2
#     Edge 74, Type (0, 0), BuildingBlock: AJUNOK_clean_linker_0, # of connection points: 2
#     Edge 75, Type (0, 0), BuildingBlock: AJUNOK_clean_linker_0, # of connection points: 2
#     Edge 76, Type (0, 0), BuildingBlock: AJUNOK_clean_linker_0, # of connection points: 2
#     Edge 77, Type (0, 0), BuildingBlock: AJUNOK_clean_linker_0, # of connection points: 2
#     Edge 78, Type (0, 0), BuildingBlock: AJUNOK_clean_linker_0, # of connection points: 2
#     Edge 79, Type (0, 0), BuildingBlock: AJUNOK_clean_linker_0, # of connection points: 2
#     Edge 80, Type (0, 0), BuildingBlock: AJUNOK_clean_linker_0, # of connection points: 2
#     Edge 81, Type (0, 0), BuildingBlock: AJUNOK_clean_linker_0, # of connection points: 2
#     Edge 82, Type (0, 0), BuildingBlock: AJUNOK_clean_linker_0, # of connection points: 2
#     Edge 83, Type (0, 0), BuildingBlock: AJUNOK_clean_linker_0, # of connection points: 2
#     Edge 84, Type (0, 0), BuildingBlock: AJUNOK_clean_linker_0, # of connection points: 2
#     Edge 85, Type (0, 0), BuildingBlock: AJUNOK_clean_linker_0, # of connection points: 2
#     Edge 86, Type (0, 0), BuildingBlock: AJUNOK_clean_linker_0, # of connection points: 2
#     Edge 87, Type (0, 0), BuildingBlock: AJUNOK_clean_linker_0, # of connection points: 2
#     Edge 88, Type (0, 0), BuildingBlock: AJUNOK_clean_linker_0, # of connection points: 2
#     Edge 89, Type (0, 0), BuildingBlock: AJUNOK_clean_linker_0, # of connection points: 2
#     Edge 90, Type (0, 0), BuildingBlock: AJUNOK_clean_linker_0, # of connection points: 2
#     Edge 91, Type (0, 0), BuildingBlock: AJUNOK_clean_linker_0, # of connection points: 2
#     Edge 92, Type (0, 0), BuildingBlock: AJUNOK_clean_linker_0, # of connection points: 2
#     Edge 93, Type (0, 0), BuildingBlock: AJUNOK_clean_linker_0, # of connection points: 2
#     Edge 94, Type (0, 0), BuildingBlock: AJUNOK_clean_linker_0, # of connection points: 2
#     Edge 95, Type (0, 0), BuildingBlock: AJUNOK_clean_linker_0, # of connection points: 2
# Relax obj value: 0.089
# Max RMSD: 0.079
# Mean RMSD: 0.072
data_MOF--net-pem--node1-TATPOV_clean_sbu_0--edge1-AJUNOK_clean_linker_0
_symmetry_space_group_name_H-M    P1
_symmetry_Int_Tables_number       1
_symmetry_cell_setting            triclinic
loop_
_symmetry_equiv_pos_as_xyz
'x, y, z'
_cell_length_a     31.507124
_cell_length_b     32.034413
_cell_length_c     32.157887
_cell_angle_alpha  90.825918
_cell_angle_beta   90.431779
_cell_angle_gamma 90.790645
loop_
_atom_site_label
_atom_site_type_symbol
_atom_site_fract_x
_atom_site_fract_y
_atom_site_fract_z
_atom_type_partial_charge
Zn0 Zn 0.04434 0.01868 0.0776 0.0
Zn1 Zn 0.11345 0.06813 0.07532 0.0
O2 O 0.06761 0.11076 0.09486 0.0
O3 O 0.0106 0.06996 0.09742 0.0
O4 O 0.16583 0.09891 0.05643 0.0
O5 O 0.07429 0.98094 0.11737 0.0
O6 O 0.13094 0.02189 0.11834 0.0
C7 C 0.02791 0.1058 0.10169 0.0
C8 C 0.07971 0.0235 -0.00271 0.0
O9 O 0.10409 0.04878 0.01627 0.0
O10 O 0.05014 0.00524 0.01668 0.0
C11 C 0.15979 0.12471 0.02714 0.0
O12 O 0.12159 0.13963 0.02158 0.0
C13 C 0.11143 0.98896 0.13073 0.0
Zn14 Zn 0.23793 0.86446 0.3259 0.0
Zn15 Zn 0.16279 0.82668 0.34278 0.0
O16 O 0.19247 0.84291 0.40115 0.0
O17 O 0.24581 0.88448 0.38408 0.0
O18 O 0.10976 0.78681 0.35135 0.0
O19 O 0.21298 0.89987 0.28244 0.0
O20 O 0.15029 0.87125 0.29532 0.0
C21 C 0.22406 0.86672 0.41169 0.0
C22 C 0.23431 0.78038 0.30148 0.0
O23 O 0.19693 0.78502 0.31422 0.0
O24 O 0.26164 0.80945 0.30607 0.0
C25 C 0.11305 0.74837 0.36149 0.0
O26 O 0.15106 0.73404 0.36954 0.0
C27 C 0.17397 0.89573 0.27371 0.0
Zn28 Zn 0.50282 0.92449 0.60719 0.0
Zn29 Zn 0.41891 0.89575 0.59157 0.0
O30 O 0.44988 0.84357 0.61664 0.0
O31 O 0.51534 0.86734 0.62872 0.0
O32 O 0.35726 0.88595 0.57103 0.0
O33 O 0.48082 0.97135 0.64457 0.0
O34 O 0.41624 0.94808 0.62982 0.0
C35 C 0.48819 0.83784 0.62896 0.0
C36 C 0.47557 0.9183 0.52092 0.0
O37 O 0.44048 0.90625 0.53505 0.0
O38 O 0.50594 0.92939 0.54483 0.0
C39 C 0.34981 0.8627 0.53912 0.0
O40 O 0.38097 0.84148 0.52269 0.0
C41 C 0.44099 0.97439 0.64835 0.0
Zn42 Zn 0.28354 0.12183 0.79907 0.0
Zn43 Zn 0.34965 0.15712 0.83136 0.0
O44 O 0.30493 0.14395 0.87958 0.0
O45 O 0.25595 0.10238 0.85127 0.0
O46 O 0.40258 0.18365 0.85674 0.0
O47 O 0.31514 0.08645 0.75901 0.0
O48 O 0.3728 0.11246 0.78877 0.0
C49 C 0.27038 0.1224 0.88259 0.0
C50 C 0.29236 0.21035 0.78619 0.0
O51 O 0.32827 0.20759 0.80345 0.0
O52 O 0.26801 0.17891 0.78161 0.0
C53 C 0.43662 0.19425 0.83799 0.0
O54 O 0.43862 0.19028 0.79739 0.0
C55 C 0.35518 0.08872 0.76119 0.0
Zn56 Zn 0.03786 0.89188 0.33022 0.0
Zn57 Zn 0.08049 0.91112 0.38944 0.0
O58 O 0.04901 0.85267 0.39243 0.0
O59 O 0.03758 0.83103 0.32827 0.0
O60 O 0.12466 0.91457 0.43768 0.0
O61 O 0.06041 0.92591 0.28678 0.0
O62 O 0.10046 0.94855 0.33869 0.0
C63 C 0.03321 0.82572 0.36694 0.0
C64 C 0.99412 0.93632 0.39388 0.0
O65 O 0.03126 0.94265 0.40874 0.0
O66 O 0.98788 0.91432 0.36148 0.0
C67 C 0.12077 0.89193 0.46988 0.0
O68 O 0.0883 0.86591 0.47198 0.0
C69 C 0.08739 0.95179 0.30103 0.0
Zn70 Zn 0.39612 0.84638 0.68004 0.0
Zn71 Zn 0.32733 0.86038 0.64378 0.0
O72 O 0.3413 0.91853 0.67431 0.0
O73 O 0.38113 0.8907 0.7227 0.0
O74 O 0.27394 0.86674 0.60709 0.0
O75 O 0.37847 0.78585 0.67021 0.0
O76 O 0.36529 0.81527 0.61154 0.0
C77 C 0.3593 0.92114 0.71025 0.0
C78 C 0.32251 0.83 0.72824 0.0
O79 O 0.30548 0.83092 0.69231 0.0
O80 O 0.3612 0.84062 0.73406 0.0
C81 C 0.25284 0.89944 0.59928 0.0
O82 O 0.2656 0.93543 0.61539 0.0
C83 C 0.37499 0.78254 0.63136 0.0
Zn84 Zn 0.31407 0.00205 0.94317 0.0
Zn85 Zn 0.35791 0.07929 0.92246 0.0
O86 O 0.33852 0.05631 0.86517 0.0
O87 O 0.29844 0.00154 0.88018 0.0
O88 O 0.40273 0.12441 0.91535 0.0
O89 O 0.29555 0.04137 0.99166 0.0
O90 O 0.3216 0.10135 0.96996 0.0
C91 C 0.3164 0.02449 0.8534 0.0
C92 C 0.39906 7e-05 0.95619 0.0
O93 O 0.39264 0.03668 0.94447 0.0
O94 O 0.36944 0.97301 0.9562 0.0
C95 C 0.44227 0.11963 0.90859 0.0
O96 O 0.45721 0.08212 0.90174 0.0
C97 C 0.30255 0.08022 -0.00245 0.0
Zn98 Zn 0.06739 0.18281 0.23333 0.0
Zn99 Zn 0.12385 0.17351 0.1576 0.0
O100 O 0.1076 0.1145 0.17618 0.0
O101 O 0.10834 0.13388 0.24166 0.0
O102 O 0.17391 0.16556 0.11897 0.0
O103 O 0.05359 0.2268 0.18926 0.0
O104 O 0.0818 0.21128 0.12876 0.0
C105 C 0.11354 0.10593 0.21431 0.0
C106 C 0.14853 0.21372 0.24357 0.0
O107 O 0.15021 0.20521 0.20493 0.0
O108 O 0.11808 0.20186 0.26614 0.0
C109 C 0.20887 0.15197 0.13326 0.0
O110 O 0.21204 0.14381 0.17307 0.0
C111 C 0.059 0.23491 0.15115 0.0
Zn112 Zn 0.51169 0.40442 0.89808 0.0
Zn113 Zn 0.59817 0.40988 0.94841 0.0
O114 O 0.58194 0.35044 0.93254 0.0
O115 O 0.51752 0.36545 0.94821 0.0
O116 O 0.6424 0.40635 0.99563 0.0
O117 O 0.55796 0.43781 0.8644 0.0
O118 O 0.61924 0.4418 0.89854 0.0
C119 C 0.54485 0.33799 0.94102 0.0
C120 C 0.53744 0.47548 0.94454 0.0
O121 O 0.55138 0.44718 0.9684 0.0
O122 O 0.51915 0.46587 0.91047 0.0
C123 C 0.64807 0.37315 0.01643 0.0
O124 O 0.62467 0.33986 0.00779 0.0
C125 C 0.59638 0.45083 0.86711 0.0
Zn126 Zn 0.9138 0.31073 0.2288 0.0
Zn127 Zn 0.87301 0.32384 0.15653 0.0
O128 O 0.88989 0.38069 0.18536 0.0
O129 O 0.93891 0.36897 0.23246 0.0
O130 O 0.82793 0.33644 0.1125 0.0
O131 O 0.93886 0.26084 0.19878 0.0
O132 O 0.91397 0.27625 0.13678 0.0
C133 C 0.9155 0.3944 0.21358 0.0
C134 C 0.82666 0.29424 0.23144 0.0
O135 O 0.8321 0.29723 0.19283 0.0
O136 O 0.85686 0.3021 0.25662 0.0
C137 C 0.797 0.35915 0.12429 0.0
O138 O 0.7989 0.37747 0.16106 0.0
C139 C 0.93479 0.25185 0.16041 0.0
Zn140 Zn 0.84148 0.52947 0.41155 0.0
Zn141 Zn 0.88677 0.59316 0.4006 0.0
O142 O 0.88807 0.54818 0.35052 0.0
O143 O 0.83397 0.5045 0.35515 0.0
O144 O 0.92876 0.64176 0.38319 0.0
O145 O 0.79507 0.55244 0.44439 0.0
O146 O 0.83532 0.6092 0.44334 0.0
C147 C 0.86655 0.51688 0.336 0.0
C148 C 0.92196 0.53232 0.45467 0.0
O149 O 0.92416 0.56883 0.44071 0.0
O150 O 0.89098 0.50834 0.44525 0.0
C151 C 0.96681 0.63167 0.37362 0.0
O152 O 0.97612 0.59185 0.37198 0.0
C153 C 0.80316 0.58885 0.45802 0.0
Zn154 Zn 0.78455 0.60639 0.35905 0.0
Zn155 Zn 0.82332 0.6651 0.35767 0.0
O156 O 0.77553 0.6698 0.40513 0.0
O157 O 0.7343 0.61504 0.39289 0.0
O158 O 0.86939 0.70758 0.3719 0.0
O159 O 0.79166 0.58652 0.30042 0.0
O160 O 0.85143 0.61825 0.31705 0.0
C161 C 0.74068 0.64968 0.41129 0.0
C162 C 0.76503 0.66804 0.29321 0.0
O163 O 0.79163 0.69103 0.31295 0.0
O164 O 0.7575 0.63097 0.30497 0.0
C165 C 0.88929 0.71898 0.40491 0.0
O166 O 0.88106 0.7008 0.44036 0.0
C167 C 0.83021 0.59414 0.29189 0.0
Zn168 Zn 0.69255 0.38495 0.82773 0.0
Zn169 Zn 0.62822 0.34868 0.83826 0.0
O170 O 0.66587 0.36073 0.89458 0.0
O171 O 0.70422 0.41611 0.87889 0.0
O172 O 0.5722 0.31395 0.85096 0.0
O173 O 0.68119 0.4125 0.77486 0.0
O174 O 0.61614 0.39315 0.79068 0.0
C175 C 0.69294 0.38953 0.90526 0.0
C176 C 0.70061 0.30539 0.80398 0.0
O177 O 0.66072 0.30848 0.80533 0.0
O178 O 0.72386 0.33228 0.82234 0.0
C179 C 0.57223 0.27388 0.85301 0.0
O180 O 0.60839 0.25529 0.84612 0.0
C181 C 0.64213 0.41184 0.76616 0.0
Zn182 Zn 0.86603 0.98114 0.9391 0.0
Zn183 Zn 0.90169 0.90996 0.91682 0.0
O184 O 0.85982 0.89222 0.96306 0.0
O185 O 0.84858 0.95355 0.99229 0.0
O186 O 0.93598 0.85944 0.89703 0.0
O187 O 0.82731 0.97962 0.88971 0.0
O188 O 0.88001 0.94252 0.86556 0.0
C189 C 0.84432 0.91417 0.99258 0.0
C190 C 0.95559 0.98213 0.92785 0.0
O191 O 0.95025 0.94409 0.93689 0.0
O192 O 0.92413 0.00615 0.92658 0.0
C193 C 0.96665 0.84464 0.9184 0.0
O194 O 0.97238 0.85761 0.95699 0.0
C195 C 0.84934 0.96736 0.85936 0.0
Zn196 Zn 0.78591 0.12238 0.67909 0.0
Zn197 Zn 0.84851 0.15188 0.66024 0.0
O198 O 0.86177 0.10335 0.70418 0.0
O199 O 0.80094 0.11047 0.73632 0.0
O200 O 0.90005 0.18513 0.63473 0.0
O201 O 0.78194 0.07663 0.63741 0.0
O202 O 0.80725 0.1349 0.61145 0.0
C203 C 0.83714 0.09436 0.7347 0.0
C204 C 0.77852 0.20318 0.68296 0.0
O205 O 0.81745 0.19649 0.69048 0.0
O206 O 0.75623 0.17467 0.66617 0.0
C207 C 0.901 0.22518 0.63191 0.0
O208 O 0.87053 0.24682 0.64897 0.0
C209 C 0.78318 0.10253 0.60818 0.0
Zn210 Zn 0.66459 0.00535 0.42937 0.0
Zn211 Zn 0.59943 0.08523 0.41684 0.0
O212 O 0.62562 0.11332 0.47023 0.0
O213 O 0.65636 0.05473 0.46245 0.0
O214 O 0.55473 0.12298 0.3918 0.0
O215 O 0.69362 0.02373 0.37871 0.0
O216 O 0.63811 0.06429 0.36984 0.0
C217 C 0.65118 0.0868 0.48412 0.0
C218 C 0.57124 0.9937 0.4203 0.0
O219 O 0.56587 0.03268 0.4273 0.0
O220 O 0.60796 0.97802 0.41707 0.0
C221 C 0.51848 0.13107 0.4073 0.0
O222 O 0.50853 0.11622 0.44387 0.0
C223 C 0.66947 0.04408 0.35502 0.0
Zn224 Zn 0.60456 0.83688 0.23048 0.0
Zn225 Zn 0.6532 0.8574 0.16769 0.0
O226 O 0.59701 0.83217 0.14884 0.0
O227 O 0.55359 0.85213 0.1977 0.0
O228 O 0.69265 0.87061 0.12049 0.0
O229 O 0.63657 0.88127 0.26214 0.0
O230 O 0.65228 0.90991 0.20225 0.0
C231 C 0.56007 0.83137 0.16475 0.0
C232 C 0.66558 0.77829 0.20778 0.0
O233 O 0.68352 0.81146 0.1953 0.0
O234 O 0.62776 0.77932 0.22045 0.0
C235 C 0.72138 0.84582 0.10794 0.0
O236 O 0.7216 0.80725 0.12117 0.0
C237 C 0.64976 0.91206 0.24149 0.0
Zn238 Zn 0.96589 0.0394 0.60274 0.0
Zn239 Zn 0.89527 0.07187 0.58269 0.0
O240 O 0.87991 0.0357 0.63604 0.0
O241 O 0.94531 0.0376 0.66023 0.0
O242 O 0.84816 0.10163 0.5476 0.0
O243 O 0.00257 0.08837 0.58854 0.0
O244 O 0.94 0.11777 0.59359 0.0
C245 C 0.90692 0.02711 0.6648 0.0
C246 C 0.93087 -0.00101 0.53623 0.0
O247 O 0.91146 0.03306 0.53814 0.0
O248 O 0.95597 0.98914 0.56513 0.0
C249 C 0.82914 0.08403 0.51645 0.0
O250 O 0.83484 0.04399 0.50973 0.0
C251 C 0.98039 0.1208 0.59194 0.0
Zn252 Zn 0.59015 0.18361 0.28101 0.0
Zn253 Zn 0.6318 0.16149 0.34495 0.0
O254 O 0.58714 0.20188 0.3728 0.0
O255 O 0.5612 0.22652 0.31465 0.0
O256 O 0.67451 0.14066 0.39026 0.0
O257 O 0.56459 0.12992 0.25885 0.0
O258 O 0.61745 0.11171 0.29959 0.0
C259 C 0.56455 0.22865 0.35382 0.0
C260 C 0.67266 0.21364 0.28093 0.0
O261 O 0.67085 0.20036 0.31766 0.0
O262 O 0.64311 0.2053 0.2552 0.0
C263 C 0.70229 0.16404 0.40904 0.0
O264 O 0.70174 0.20445 0.40279 0.0
C265 C 0.59107 0.10283 0.26971 0.0
Zn266 Zn 0.63633 0.96419 0.05649 0.0
Zn267 Zn 0.58704 0.90183 0.07482 0.0
O268 O 0.63794 0.87257 0.04077 0.0
O269 O 0.67844 0.92819 0.03119 0.0
O270 O 0.53565 0.85976 0.08584 0.0
O271 O 0.6431 0.99005 0.11188 0.0
O272 O 0.59457 0.94367 0.12968 0.0
C273 C 0.67053 0.89003 0.02403 0.0
C274 C 0.56427 0.96592 0.01013 0.0
O275 O 0.55869 0.93328 0.03113 0.0
O276 O 0.59616 0.98952 0.01634 0.0
C277 C 0.51284 0.83824 0.05975 0.0
O278 O 0.523 0.83849 0.02022 0.0
C279 C 0.61757 0.97638 0.13865 0.0
Zn280 Zn 0.89134 0.7997 0.76684 0.0
Zn281 Zn 0.85449 0.82678 0.8393 0.0
O282 O 0.89637 0.7809 0.85964 0.0
O283 O 0.92163 0.75638 0.80072 0.0
O284 O 0.81933 0.84541 0.88929 0.0
O285 O 0.91295 0.85732 0.75524 0.0
O286 O 0.87325 0.87983 0.80701 0.0
C287 C 0.91893 0.7544 0.83992 0.0
C288 C 0.80165 0.79363 0.76746 0.0
O289 O 0.80717 0.80417 0.80521 0.0
O290 O 0.83294 0.78894 0.74354 0.0
C291 C 0.79262 0.82071 0.90639 0.0
O292 O 0.79219 0.781 0.89562 0.0
C293 C 0.89572 0.88696 0.77491 0.0
Zn294 Zn 0.51106 0.59599 0.12756 0.0
Zn295 Zn 0.437 0.60718 0.08874 0.0
O296 O 0.42746 0.55074 0.12277 0.0
O297 O 0.49311 0.53887 0.1428 0.0
O298 O 0.38394 0.62257 0.05047 0.0
O299 O 0.5049 0.64155 0.16983 0.0
O300 O 0.45832 0.65857 0.12241 0.0
C301 C 0.45456 0.52755 0.14126 0.0
C302 C 0.52077 0.60457 0.04167 0.0
O303 O 0.48068 0.60074 0.04433 0.0
O304 O 0.54318 0.60667 0.07446 0.0
C305 C 0.37842 0.59571 0.02126 0.0
O306 O 0.4043 0.56388 0.02173 0.0
C307 C 0.4816 0.66861 0.1536 0.0
Zn308 Zn 0.11523 0.69034 0.76734 0.0
Zn309 Zn 0.15679 0.66145 0.82925 0.0
O310 O 0.1091 0.70252 0.85595 0.0
O311 O 0.07094 0.71673 0.8005 0.0
O312 O 0.19695 0.63535 0.87276 0.0
O313 O 0.10561 0.63827 0.73382 0.0
O314 O 0.14675 0.61389 0.78317 0.0
C315 C 0.07871 0.72274 0.83871 0.0
C316 C 0.19643 0.72796 0.78079 0.0
O317 O 0.19855 0.70151 0.80926 0.0
O318 O 0.16451 0.72932 0.75676 0.0
C319 C 0.2355 0.62567 0.86494 0.0
O320 O 0.25041 0.63079 0.82735 0.0
C321 C 0.12679 0.60868 0.74854 0.0
Zn322 Zn 0.16805 0.47994 0.53842 0.0
Zn323 Zn 0.12326 0.41118 0.56203 0.0
O324 O 0.16605 0.3852 0.51852 0.0
O325 O 0.20015 0.44243 0.49986 0.0
O326 O 0.07995 0.36679 0.58113 0.0
O327 O 0.18425 0.49761 0.59648 0.0
O328 O 0.13694 0.44993 0.61401 0.0
C329 C 0.1924 0.4038 0.49463 0.0
C330 C 0.08229 0.47901 0.51384 0.0
O331 O 0.08377 0.44302 0.52909 0.0
O332 O 0.11388 0.50376 0.5159 0.0
C333 C 0.05747 0.34771 0.55352 0.0
O334 O 0.06613 0.35415 0.51424 0.0
C335 C 0.16041 0.48163 0.62357 0.0
Zn336 Zn 0.07601 0.32224 0.72224 0.0
Zn337 Zn 0.12761 0.34842 0.65527 0.0
O338 O 0.09125 0.30169 0.62824 0.0
O339 O 0.04884 0.28233 0.67902 0.0
O340 O 0.17356 0.36547 0.61478 0.0
O341 O 0.05904 0.38261 0.73143 0.0
O342 O 0.10379 0.40156 0.68251 0.0
C343 C 0.06099 0.27904 0.64159 0.0
C344 C 0.16568 0.31151 0.73243 0.0
O345 O 0.16577 0.32563 0.6961 0.0
O346 O 0.13119 0.30613 0.75181 0.0
C347 C 0.20137 0.3391 0.60344 0.0
O348 O 0.1959 0.29954 0.61244 0.0
C349 C 0.07933 0.41099 0.71265 0.0
Zn350 Zn 0.28079 0.552 0.17559 0.0
Zn351 Zn 0.35804 0.62732 0.1403 0.0
O352 O 0.39823 0.60014 0.1874 0.0
O353 O 0.33926 0.56945 0.17846 0.0
O354 O 0.38399 0.68151 0.11117 0.0
O355 O 0.27673 0.53705 0.1149 0.0
O356 O 0.32283 0.58777 0.0985 0.0
C357 C 0.37138 0.57402 0.20103 0.0
C358 C 0.27521 0.6444 0.19181 0.0
O359 O 0.31107 0.64946 0.17448 0.0
O360 O 0.25533 0.60929 0.19213 0.0
C361 C 0.38627 0.71904 0.12578 0.0
O362 O 0.3687 0.72678 0.16193 0.0
C363 C 0.2969 0.55789 0.08785 0.0
Zn364 Zn 0.53651 0.59604 0.64502 0.0
Zn365 Zn 0.57643 0.60854 0.59175 0.0
O366 O 0.51945 0.64623 0.59437 0.0
O367 O 0.48605 0.62932 0.65158 0.0
O368 O 0.62298 0.64248 0.56386 0.0
O369 O 0.54029 0.53485 0.65084 0.0
O370 O 0.60206 0.55981 0.63224 0.0
C371 C 0.48689 0.64935 0.61798 0.0
C372 C 0.52718 0.54844 0.56228 0.0
O373 O 0.55665 0.57099 0.54769 0.0
O374 O 0.51564 0.5535 0.59974 0.0
C375 C 0.6131 0.66788 0.53544 0.0
O376 O 0.57283 0.6761 0.52934 0.0
C377 C 0.57991 0.52995 0.64816 0.0
Zn378 Zn 0.95389 0.4711 0.09323 0.0
Zn379 Zn 0.88737 0.4278 0.08377 0.0
O380 O 0.92389 0.37892 0.10278 0.0
O381 O 0.98377 0.41411 0.0932 0.0
O382 O 0.8302 0.41122 0.05965 0.0
O383 O 0.94035 0.5013 0.14605 0.0
O384 O 0.8773 0.47625 0.12871 0.0
C385 C 0.96434 0.37987 0.09979 0.0
C386 C 0.92498 0.47347 0.01425 0.0
O387 O 0.91033 0.43979 0.02796 0.0
O388 O 0.93824 0.50079 0.04001 0.0
C389 C 0.82687 0.38573 0.02889 0.0
O390 O 0.85973 0.36333 0.01811 0.0
C391 C 0.90067 0.50087 0.15134 0.0
Zn392 Zn 0.60302 0.64658 0.76254 0.0
Zn393 Zn 0.6413 0.63061 0.67511 0.0
O394 O 0.62953 0.57933 0.71192 0.0
O395 O 0.65674 0.61132 0.76555 0.0
O396 O 0.67843 0.61438 0.62348 0.0
O397 O 0.57061 0.68101 0.71824 0.0
O398 O 0.58931 0.66148 0.65491 0.0
C399 C 0.64573 0.57748 0.74816 0.0
C400 C 0.65532 0.70835 0.72456 0.0
O401 O 0.67143 0.67748 0.70504 0.0
O402 O 0.62119 0.70464 0.74514 0.0
C403 C 0.71469 0.6301 0.61409 0.0
O404 O 0.73253 0.65729 0.63993 0.0
C405 C 0.5664 0.6835 0.67902 0.0
Zn406 Zn 0.32509 0.44835 0.42169 0.0
Zn407 Zn 0.37516 0.40321 0.4061 0.0
O408 O 0.33433 0.38061 0.45504 0.0
O409 O 0.32308 0.44189 0.48376 0.0
O410 O 0.41573 0.35718 0.39233 0.0
O411 O 0.33275 0.49269 0.38082 0.0
O412 O 0.36286 0.4383 0.35143 0.0
C413 C 0.3218 0.40234 0.48647 0.0
C414 C 0.404 0.4665 0.46083 0.0
O415 O 0.41551 0.44123 0.43301 0.0
O416 O 0.36492 0.47137 0.46849 0.0
C417 C 0.44131 0.34376 0.41993 0.0
O418 O 0.43738 0.35631 0.45877 0.0
C419 C 0.35033 0.47623 0.34956 0.0
Zn420 Zn 0.1541 0.51845 0.91878 0.0
Zn421 Zn 0.1109 0.58914 0.91255 0.0
O422 O 0.16765 0.60997 0.94161 0.0
O423 O 0.19508 0.54916 0.95696 0.0
O424 O 0.07099 0.637 0.90191 0.0
O425 O 0.16142 0.51371 0.85748 0.0
O426 O 0.11 0.55907 0.85486 0.0
C427 C 0.19765 0.58865 0.95732 0.0
C428 C 0.06819 0.51519 0.94347 0.0
O429 O 0.07359 0.55433 0.9472 0.0
O430 O 0.09854 0.49186 0.93356 0.0
C431 C 0.03914 0.64768 0.92377 0.0
O432 O 0.03532 0.63413 0.96194 0.0
C433 C 0.13183 0.53065 0.83745 0.0
Zn434 Zn 0.39862 0.29005 0.24007 0.0
Zn435 Zn 0.36598 0.33172 0.30587 0.0
O436 O 0.39874 0.28032 0.32933 0.0
O437 O 0.43974 0.2613 0.27753 0.0
O438 O 0.3283 0.35327 0.35283 0.0
O439 O 0.40592 0.34852 0.21643 0.0
O440 O 0.39663 0.38108 0.27672 0.0
C441 C 0.4273 0.25643 0.31456 0.0
C442 C 0.31176 0.28073 0.25099 0.0
O443 O 0.31804 0.31507 0.26974 0.0
O444 O 0.34245 0.25974 0.23749 0.0
C445 C 0.2994 0.32955 0.36788 0.0
O446 O 0.29817 0.28983 0.35712 0.0
C447 C 0.40552 0.38193 0.23798 0.0
C448 C 0.04862 0.05442 0.93882 0.0
C449 C 0.07747 0.02415 0.95197 0.0
C450 C 0.00772 0.04128 0.92676 0.0
C451 C -0.00121 -0.00168 0.92224 0.0
H452 H 0.05307 0.08669 0.94872 0.0
H453 H 0.98256 0.06397 0.92606 0.0
S454 S 0.07838 0.91441 0.91619 0.0
N455 N 0.10464 0.95566 0.93502 0.0
N456 N 0.02939 0.93006 0.90749 0.0
C457 C 0.03312 0.97085 0.91932 0.0
C458 C 0.07366 0.98465 0.93337 0.0
C459 C 0.29507 0.70043 0.24139 0.0
C460 C 0.26271 0.67777 0.22023 0.0
C461 C 0.2856 0.73276 0.26884 0.0
C462 C 0.24343 0.74335 0.27623 0.0
H463 H 0.32821 0.69309 0.23686 0.0
H464 H 0.3115 0.7498 0.28396 0.0
S465 S 0.14703 0.69296 0.22896 0.0
N466 N 0.18714 0.66719 0.20874 0.0
N467 N 0.16856 0.72839 0.26068 0.0
C468 C 0.21052 0.72018 0.25607 0.0
C469 C 0.22036 0.68717 0.22796 0.0
C470 C 0.46802 0.96153 0.46049 0.0
C471 C 0.48045 0.92321 0.47659 0.0
C472 C 0.49503 0.98266 0.43365 0.0
C473 C 0.53448 0.96537 0.42343 0.0
H474 H 0.44196 0.97842 0.47431 0.0
H475 H 0.48822 0.01495 0.42694 0.0
S476 S 0.56671 0.8559 0.43931 0.0
N477 N 0.52342 0.86166 0.46737 0.0
N478 N 0.57439 0.90089 0.41581 0.0
C479 C 0.54039 0.9225 0.42982 0.0
C480 C 0.51293 0.90126 0.45721 0.0
C481 C 0.26966 0.25748 0.73296 0.0
C482 C 0.27568 0.25035 0.77525 0.0
C483 C 0.23533 0.28058 0.71967 0.0
C484 C 0.20594 0.29644 0.74845 0.0
H485 H 0.28843 0.2411 0.70996 0.0
H486 H 0.22971 0.28243 0.68651 0.0
S487 S 0.21587 0.29581 0.86305 0.0
N488 N 0.25622 0.26794 0.84624 0.0
N489 N 0.19041 0.31138 0.82104 0.0
C490 C 0.21502 0.29422 0.79099 0.0
C491 C 0.25062 0.27126 0.80449 0.0
C492 C 0.94224 0.98391 0.42261 0.0
C493 C 0.95926 0.94401 0.42127 0.0
C494 C 0.92722 -0.00015 0.46004 0.0
C495 C 0.93071 0.97649 0.49669 0.0
H496 H 0.94531 0.00447 0.39629 0.0
H497 H 0.91807 0.03234 0.46109 0.0
S498 S 0.96149 0.86587 0.50472 0.0
N499 N 0.96909 0.87772 0.45549 0.0
N500 N 0.94275 0.90852 0.52711 0.0
C501 C 0.94152 0.93436 0.49398 0.0
C502 C 0.95535 0.91778 0.45553 0.0
C503 C 0.30585 0.77362 0.77447 0.0
C504 C 0.29688 0.81403 0.76133 0.0
C505 C 0.27263 0.74593 0.78286 0.0
C506 C 0.23039 0.75854 0.77798 0.0
H507 H 0.33784 0.76171 0.77265 0.0
H508 H 0.27993 0.71376 0.78964 0.0
S509 S 0.19253 0.86505 0.75704 0.0
N510 N 0.24476 0.8685 0.75393 0.0
N511 N 0.18171 0.81603 0.76883 0.0
C512 C 0.22161 0.80052 0.77095 0.0
C513 C 0.25537 0.82875 0.76351 0.0
C514 C 0.46161 0.95457 0.95555 0.0
C515 C 0.44211 0.99134 0.96862 0.0
C516 C 0.50442 0.94862 0.96435 0.0
C517 C 0.52826 0.97934 0.98624 0.0
H518 H 0.44378 0.93047 0.93877 0.0
H519 H 0.51833 0.91879 0.95648 0.0
S520 S 0.49166 0.08194 0.02475 0.0
N521 N 0.44947 0.05951 0.00294 0.0
N522 N 0.53048 0.04844 0.01833 0.0
C523 C 0.50972 0.01724 -0.00297 0.0
C524 C 0.46618 0.023 0.98891 0.0
C525 C 0.23456 0.28984 0.2508 0.0
C526 C 0.26933 0.26299 0.25284 0.0
C527 C 0.19343 0.27425 0.25466 0.0
C528 C 0.18641 0.23172 0.26136 0.0
H529 H 0.23912 0.32276 0.24458 0.0
H530 H 0.16702 0.29476 0.2488 0.0
S531 S 0.26668 0.14998 0.27588 0.0
N532 N 0.29449 0.19301 0.26704 0.0
N533 N 0.21636 0.16374 0.27445 0.0
C534 C 0.22081 0.20526 0.2671 0.0
C535 C 0.26268 0.22086 0.26243 0.0
C536 C 0.51202 0.58662 0.96801 0.0
C537 C 0.54025 0.59365 0.00167 0.0
C538 C 0.51301 0.54874 0.94604 0.0
C539 C 0.54398 0.51935 0.95585 0.0
H540 H 0.48423 0.60588 0.96443 0.0
H541 H 0.48687 0.54066 0.92522 0.0
S542 S 0.64066 0.53806 0.01982 0.0
N543 N 0.61094 0.57935 0.0285 0.0
N544 N 0.61385 0.50831 0.98615 0.0
C545 C 0.579 0.5321 0.98024 0.0
C546 C 0.57761 0.57042 0.00266 0.0
C547 C 0.78121 0.26335 0.2856 0.0
C548 C 0.78528 0.27944 0.2456 0.0
C549 C 0.74396 0.24301 0.29711 0.0
C550 C 0.70968 0.23833 0.26898 0.0
H551 H 0.80752 0.26472 0.3075 0.0
H552 H 0.74274 0.2297 0.32785 0.0
S553 S 0.70163 0.28216 0.16332 0.0
N554 N 0.74993 0.29467 0.17972 0.0
N555 N 0.67982 0.25622 0.20171 0.0
C556 C 0.71214 0.25704 0.23003 0.0
C557 C 0.75002 0.27777 0.21826 0.0
C558 C 0.02908 0.53355 0.50436 0.0
C559 C 0.04168 0.4923 0.49783 0.0
C560 C 0.9884 0.54555 0.49326 0.0
C561 C 0.95952 0.51664 0.4751 0.0
H562 H 0.05049 0.55647 0.51858 0.0
H563 H 0.97993 0.57798 0.49773 0.0
S564 S 0.97795 0.40484 0.45155 0.0
N565 N 0.02292 0.42249 0.47221 0.0
N566 N 0.94586 0.44511 0.45165 0.0
C567 C 0.97144 0.47505 0.46939 0.0
C568 C 0.01292 0.46292 0.4804 0.0
C569 C 0.76058 0.71812 0.2366 0.0
C570 C 0.74178 0.68527 0.25845 0.0
C571 C 0.73552 0.74574 0.21483 0.0
C572 C 0.69111 0.74137 0.21522 0.0
H573 H 0.79427 0.72488 0.23966 0.0
H574 H 0.75082 0.77302 0.20179 0.0
S575 S 0.62905 0.65108 0.25424 0.0
N576 N 0.6784 0.64258 0.26925 0.0
N577 N 0.63068 0.69507 0.22808 0.0
C578 C 0.67289 0.70434 0.23035 0.0
C579 C 0.69858 0.67594 0.25225 0.0
C580 C 0.7818 0.26186 0.73222 0.0
C581 C 0.75724 0.23623 0.70555 0.0
C582 C 0.76321 0.28255 0.76527 0.0
C583 C 0.71932 0.27915 0.77201 0.0
H584 H 0.81603 0.26377 0.72937 0.0
H585 H 0.78362 0.30116 0.78574 0.0
S586 S 0.63994 0.22297 0.705 0.0
N587 N 0.68616 0.21396 0.68315 0.0
N588 N 0.65086 0.2525 0.74623 0.0
C589 C 0.69383 0.25627 0.74345 0.0
C590 C 0.71283 0.23548 0.70946 0.0
C591 C 0.7263 0.77914 0.78265 0.0
C592 C 0.75848 0.78442 0.75294 0.0
C593 C 0.6881 0.75974 0.77165 0.0
C594 C 0.68162 0.74523 0.73085 0.0
H595 H 0.73195 0.78625 0.81529 0.0
H596 H 0.66625 0.75139 0.79615 0.0
S597 S 0.74782 0.76694 0.63907 0.0
N598 N 0.77591 0.78518 0.67914 0.0
N599 N 0.70323 0.74833 0.65867 0.0
C600 C 0.70979 0.75727 0.69969 0.0
C601 C 0.74885 0.77687 0.71077 0.0
C602 C 0.46704 0.51132 0.46839 0.0
C603 C 0.43621 0.4857 0.48659 0.0
C604 C 0.49932 0.52926 0.4927 0.0
C605 C 0.50146 0.52125 0.53546 0.0
H606 H 0.46538 0.5184 0.43555 0.0
H607 H 0.52113 0.55112 0.47841 0.0
S608 S 0.43268 0.44857 0.59467 0.0
N609 N 0.41226 0.44831 0.54725 0.0
N610 N 0.47408 0.48067 0.59333 0.0
C611 C 0.4727 0.49258 0.55293 0.0
C612 C 0.43945 0.47522 0.52835 0.0
C613 C 0.01898 0.45648 0.95888 0.0
C614 C 0.02536 0.49785 0.94657 0.0
C615 C 0.97883 0.44328 0.97152 0.0
C616 C 0.94576 0.47226 0.97429 0.0
H617 H 0.04553 0.43571 0.96271 0.0
H618 H 0.9762 0.4133 0.98659 0.0
S619 S 0.94172 0.57508 0.92459 0.0
N620 N 0.99168 0.56062 0.92053 0.0
N621 N 0.91691 0.53661 0.94847 0.0
C622 C 0.94942 0.50958 0.95292 0.0
C623 C 0.98973 0.52269 0.9388 0.0
C624 C 0.16666 0.9742 0.18558 0.0
C625 C 0.12953 0.96188 0.1639 0.0
C626 C 0.18072 0.95239 0.22063 0.0
C627 C 0.15804 0.91758 0.23603 0.0
H628 H 0.18425 0.00181 0.17641 0.0
H629 H 0.20899 0.96392 0.23664 0.0
S630 S 0.0628 0.86816 0.18683 0.0
N631 N 0.07317 0.90902 0.15771 0.0
N632 N 0.0997 0.86869 0.22354 0.0
C633 C 0.12243 0.90333 0.2132 0.0
C634 C 0.1082 0.92527 0.17725 0.0
C635 C 0.29503 0.90227 0.50035 0.0
C636 C 0.30896 0.86414 0.51614 0.0
C637 C 0.26328 0.90337 0.46942 0.0
C638 C 0.2435 0.86649 0.45391 0.0
H639 H 0.31101 0.93116 0.50955 0.0
H640 H 0.25615 0.9331 0.45552 0.0
S641 S 0.26575 0.75912 0.4886 0.0
N642 N 0.29877 0.78896 0.51641 0.0
N643 N 0.238 0.79114 0.45953 0.0
C644 C 0.2547 0.82856 0.47218 0.0
C645 C 0.28784 0.82734 0.50286 0.0
C646 C 0.35932 0.04598 0.6959 0.0
C647 C 0.38029 0.0638 0.73086 0.0
C648 C 0.37988 0.01866 0.66866 0.0
C649 C 0.42249 0.00786 0.6749 0.0
H650 H 0.32609 0.05205 0.69003 0.0
H651 H 0.36165 0.00487 0.64314 0.0
S652 S 0.49397 0.0508 0.75792 0.0
N653 N 0.44769 0.07237 0.76756 0.0
N654 N 0.48661 0.02087 0.71614 0.0
C655 C 0.44496 0.0278 0.70791 0.0
C656 C 0.42382 0.05578 0.73592 0.0
C657 C 0.22651 0.08677 0.93667 0.0
C658 C 0.24404 0.12384 0.92075 0.0
C659 C 0.20062 0.08736 0.97211 0.0
C660 C 0.18922 0.12522 0.99147 0.0
H661 H 0.23391 0.05696 0.92235 0.0
H662 H 0.18884 0.05796 0.984 0.0
S663 S 0.22007 0.23121 0.95753 0.0
N664 N 0.24496 0.19968 0.925 0.0
N665 N 0.19308 0.20079 0.9892 0.0
C666 C 0.20369 0.16261 0.97395 0.0
C667 C 0.23194 0.16195 0.93923 0.0
C668 C 0.14018 0.05178 0.26261 0.0
C669 C 0.11339 0.0628 0.22931 0.0
C670 C 0.13283 0.01505 0.28512 0.0
C671 C 0.09808 0.98858 0.27531 0.0
H672 H 0.16591 0.07257 0.27237 0.0
H673 H 0.15376 0.00793 0.31086 0.0
S674 S 0.01665 0.00639 0.19307 0.0
N675 N 0.05097 0.04526 0.18832 0.0
N676 N 0.03526 0.97796 0.23123 0.0
C677 C 0.07125 -0.00036 0.24189 0.0
C678 C 0.0795 0.03623 0.21864 0.0
C679 C 0.20409 0.9336 0.54768 0.0
C680 C 0.2165 0.89752 0.56905 0.0
C681 C 0.17328 0.93167 0.51565 0.0
C682 C 0.15268 0.89383 0.50447 0.0
H683 H 0.21955 0.96334 0.55449 0.0
H684 H 0.16569 0.96002 0.49939 0.0
S685 S 0.17014 0.79117 0.55354 0.0
N686 N 0.20351 0.82324 0.57824 0.0
N687 N 0.145 0.81992 0.51928 0.0
C688 C 0.16317 0.85799 0.52705 0.0
C689 C 0.19515 0.85975 0.55898 0.0
C690 C 0.29704 0.99376 0.78203 0.0
C691 C 0.32738 0.00435 0.81299 0.0
C692 C 0.30824 0.96975 0.74651 0.0
C693 C 0.34975 0.95442 0.7416 0.0
H694 H 0.26444 0.00335 0.78568 0.0
H695 H 0.28374 0.96111 0.72408 0.0
S696 S 0.43949 0.97075 0.81597 0.0
N697 N 0.39999 -0.00327 0.83688 0.0
N698 N 0.42056 0.95084 0.77187 0.0
C699 C 0.38005 0.96496 0.77258 0.0
C700 C 0.36896 0.98999 0.80781 0.0
C701 C 0.27772 0.14378 0.03732 0.0
C702 C 0.28684 0.10086 0.03623 0.0
C703 C 0.2541 0.16125 0.07008 0.0
C704 C 0.24162 0.13699 0.1041 0.0
H705 H 0.28592 0.16327 0.0113 0.0
H706 H 0.24405 0.19335 0.06796 0.0
S707 S 0.27222 0.02769 0.12367 0.0
N708 N 0.29078 0.03751 0.07687 0.0
N709 N 0.24928 0.07106 0.13954 0.0
C710 C 0.25665 0.09605 0.10649 0.0
C711 C 0.2788 0.0778 0.07236 0.0
C712 C 0.9624 0.2055 0.1019 0.0
C713 C 0.95444 0.21236 0.14452 0.0
C714 C 0.9864 0.17106 0.08807 0.0
C715 C 0.00183 0.14144 0.11618 0.0
H716 H 0.95175 0.22785 0.07929 0.0
H717 H 0.99327 0.16782 0.05525 0.0
S718 S 0.98046 0.13872 0.22926 0.0
N719 N 0.95813 0.18212 0.21362 0.0
N720 N 0.00151 0.11761 0.18726 0.0
C721 C 0.99063 0.14579 0.15809 0.0
C722 C 0.96713 0.18101 0.17232 0.0
C723 C 0.49325 0.3073 0.88206 0.0
C724 C 0.5294 0.29945 0.92131 0.0
C725 C 0.46556 0.27149 0.85358 0.0
C726 C 0.47049 0.21927 0.86147 0.0
H727 H 0.48641 0.33928 0.87463 0.0
H728 H 0.44289 0.28217 0.8308 0.0
S729 S 0.57641 0.19651 0.97473 0.0
N730 N 0.57487 0.24856 0.97049 0.0
N731 N 0.54314 0.17307 0.94056 0.0
C732 C 0.52655 0.20654 0.92063 0.0
C733 C 0.5463 0.25294 0.93955 0.0
C734 C 0.00317 0.69565 0.34246 0.0
C735 C 0.00264 0.66298 0.37138 0.0
C736 C 0.03895 0.7228 0.3388 0.0
C737 C 0.07509 0.7193 0.36479 0.0
H738 H 0.97619 0.69973 0.32193 0.0
H739 H 0.03825 0.74667 0.31534 0.0
S740 S 0.09036 0.63723 0.4439 0.0
N741 N 0.04257 0.62723 0.42455 0.0
N742 N 0.1082 0.67859 0.41908 0.0
C743 C 0.07502 0.68606 0.3931 0.0
C744 C 0.03921 0.6581 0.39618 0.0
C745 C 0.00271 0.33849 0.15166 0.0
C746 C 0.98968 0.34313 0.11037 0.0
C747 C 0.02637 0.30411 0.16377 0.0
C748 C 0.0388 0.27317 0.13486 0.0
H749 H 0.99431 0.36156 0.17492 0.0
H750 H 0.03438 0.30156 0.19645 0.0
S751 S 0.0196 0.27567 0.02094 0.0
N752 N 0.99488 0.3172 0.03923 0.0
N753 N 0.04153 0.25316 0.06159 0.0
C754 C 0.02924 0.27948 0.09258 0.0
C755 C 0.00394 0.31422 0.08042 0.0
C756 C 0.55496 0.74024 0.62756 0.0
C757 C 0.54119 0.71869 0.66289 0.0
C758 C 0.53679 0.77834 0.6165 0.0
C759 C 0.50354 0.79585 0.63968 0.0
H760 H 0.58132 0.72871 0.60949 0.0
H761 H 0.54929 0.79461 0.58984 0.0
S762 S 0.45691 0.75272 0.73548 0.0
N763 N 0.49208 0.71778 0.72094 0.0
N764 N 0.45945 0.79007 0.70069 0.0
C765 C 0.48928 0.77457 0.67474 0.0
C766 C 0.50763 0.73576 0.68609 0.0
C767 C 0.92472 0.77534 0.36601 0.0
C768 C 0.9249 0.74932 0.40076 0.0
C769 C 0.96004 0.79959 0.35597 0.0
C770 C -0.00283 0.79943 0.38043 0.0
H771 H 0.89734 0.77619 0.34546 0.0
H772 H 0.95819 0.81861 0.32843 0.0
S773 S 0.01307 0.74053 0.4774 0.0
N774 N 0.96463 0.72698 0.46171 0.0
N775 N 0.03105 0.77437 0.4432 0.0
C776 C -0.00288 0.77601 0.41701 0.0
C777 C 0.96099 0.75047 0.42708 0.0
C778 C 0.45238 0.19999 0.93026 0.0
C779 C 0.46966 0.1571 0.90405 0.0
C780 C 0.47334 0.2484 0.92262 0.0
C781 C 0.53436 0.24588 0.86686 0.0
H782 H 0.42664 0.19676 0.95211 0.0
H783 H 0.46092 0.27359 0.94222 0.0
S784 S 0.55738 0.132 0.81598 0.0
N785 N 0.51856 0.11859 0.84841 0.0
N786 N 0.56758 0.18308 0.82014 0.0
C787 C 0.53951 0.19505 0.84933 0.0
C788 C 0.5089 0.15506 0.86748 0.0
C789 C 0.80901 0.03257 0.77158 0.0
C790 C 0.84409 0.05898 0.76292 0.0
C791 C 0.81152 0.001 0.80106 0.0
C792 C 0.84948 0.994 0.82248 0.0
H793 H 0.77884 0.03685 0.75591 0.0
H794 H 0.78334 0.98265 0.80789 0.0
S795 S 0.95002 0.05482 0.81291 0.0
N796 N 0.91752 0.0765 0.77915 0.0
N797 N 0.92277 0.01629 0.83412 0.0
C798 C 0.88505 0.01955 0.81379 0.0
C799 C 0.8823 0.05221 0.78403 0.0
C800 C 0.70077 0.05748 0.53505 0.0
C801 C 0.67987 0.09299 0.52005 0.0
C802 C 0.73466 0.06107 0.56288 0.0
C803 C 0.74919 0.10031 0.57677 0.0
H804 H 0.69182 0.02639 0.52415 0.0
H805 H 0.75013 0.03292 0.573 0.0
S806 S 0.70111 0.20255 0.55287 0.0
N807 N 0.67295 0.16831 0.52493 0.0
N808 N 0.73716 0.17532 0.57782 0.0
C809 C 0.7272 0.13608 0.56409 0.0
C810 C 0.69223 0.13234 0.53572 0.0
C811 C 0.6926 0.97322 0.26608 0.0
C812 C 0.65345 0.95216 0.26255 0.0
C813 C 0.697 0.00809 0.29259 0.0
C814 C 0.66203 0.02302 0.31506 0.0
H815 H 0.72035 0.96107 0.2506 0.0
H816 H 0.72838 0.0214 0.29809 0.0
S817 S 0.55155 0.98029 0.31103 0.0
N818 N 0.57884 0.94943 0.28005 0.0
N819 N 0.58589 0.01604 0.32801 0.0
C820 C 0.62188 0.00389 0.30837 0.0
C821 C 0.61792 0.96798 0.28261 0.0
C822 C 0.79081 0.92128 0.04878 0.0
C823 C 0.81713 0.89518 0.02497 0.0
C824 C 0.76109 0.90489 0.07629 0.0
C825 C 0.75594 0.86161 0.08107 0.0
H826 H 0.79202 0.95485 0.04529 0.0
H827 H 0.7412 0.92653 0.09316 0.0
S828 S 0.8217 0.77974 0.03129 0.0
N829 N 0.83966 0.82392 0.01172 0.0
N830 N 0.78341 0.79286 0.06357 0.0
C831 C 0.78404 0.83506 0.05977 0.0
C832 C 0.81449 0.85189 0.0315 0.0
C833 C 0.93306 0.98618 0.7251 0.0
C834 C 0.89861 -0.00319 0.69879 0.0
C835 C 0.93113 0.95202 0.75164 0.0
C836 C 0.89423 0.92767 0.75427 0.0
H837 H 0.96293 0.00326 0.72404 0.0
H838 H 0.95917 0.94386 0.76931 0.0
S839 S 0.79428 0.94192 0.69468 0.0
N840 N 0.82584 0.97991 0.67851 0.0
N841 N 0.82182 0.91624 0.72974 0.0
C842 C 0.8588 0.93856 0.7299 0.0
C843 C 0.86099 0.97306 0.70201 0.0
C844 C 0.77288 0.0834 0.46071 0.0
C845 C 0.79902 0.10672 0.4885 0.0
C846 C 0.74262 0.10245 0.43528 0.0
C847 C 0.73645 0.1457 0.43592 0.0
H848 H 0.77496 0.04971 0.45902 0.0
H849 H 0.72344 0.08292 0.41513 0.0
S850 S 0.80131 0.22238 0.49802 0.0
N851 N 0.82001 0.1766 0.51168 0.0
N852 N 0.76306 0.21233 0.46373 0.0
C853 C 0.76408 0.16998 0.46177 0.0
C854 C 0.79517 0.15051 0.48802 0.0
C855 C 0.57171 0.00894 0.19516 0.0
C856 C 0.612 0.00303 0.17722 0.0
C857 C 0.56489 0.04073 0.22552 0.0
C858 C 0.59839 0.0668 0.24043 0.0
H859 H 0.54482 0.99036 0.18418 0.0
H860 H 0.53311 0.04506 0.23728 0.0
S861 S 0.70904 0.06655 0.20216 0.0
N862 N 0.6854 0.0279 0.17609 0.0
N863 N 0.6724 0.08626 0.2328 0.0
C864 C 0.63855 0.0612 0.2228 0.0
C865 C 0.64543 0.0296 0.19162 0.0
C866 C 0.70807 0.82718 0.99175 0.0
C867 C 0.69738 0.86966 0.99153 0.0
C868 C 0.73845 0.81118 0.96367 0.0
C869 C 0.75927 0.83715 0.93475 0.0
H870 H 0.69448 0.80673 0.01479 0.0
H871 H 0.74669 0.77856 0.96558 0.0
S872 S 0.73286 0.94725 0.91347 0.0
N873 N 0.7033 0.9348 0.95361 0.0
N874 N 0.76035 0.90513 0.90248 0.0
C875 C 0.74595 0.87858 0.93201 0.0
C876 C 0.71499 0.89463 0.95989 0.0
C877 C 0.02381 0.78954 0.92286 0.0
C878 C -0.00183 0.81609 0.89882 0.0
C879 C 0.05135 0.76035 0.90397 0.0
C880 C 0.05395 0.75648 0.86036 0.0
H881 H 0.0213 0.79003 0.95643 0.0
H882 H 0.06908 0.7395 0.92357 0.0
S883 S 0.0055 0.82954 0.78488 0.0
N884 N 0.98575 0.84374 0.83015 0.0
N885 N 0.03653 0.78983 0.79474 0.0
C886 C 0.0321 0.78644 0.8366 0.0
C887 C 0.00445 0.81588 0.85574 0.0
C888 C 0.48572 0.74012 0.18613 0.0
C889 C 0.49764 0.71142 0.15533 0.0
C890 C 0.50386 0.78039 0.18723 0.0
C891 C 0.53472 0.79265 0.15786 0.0
H892 H 0.46279 0.73133 0.20947 0.0
H893 H 0.49468 0.80145 0.21212 0.0
S894 S 0.57556 0.72686 0.07117 0.0
N895 N 0.54079 0.69685 0.09498 0.0
N896 N 0.57552 0.7717 0.09698 0.0
C897 C 0.54619 0.76363 0.12677 0.0
C898 C 0.52752 0.7232 0.12562 0.0
C899 C 0.01799 0.27898 0.52636 0.0
C900 C 0.02399 0.31636 0.56421 0.0
C901 C 0.98226 0.23944 0.52831 0.0
C902 C 0.93618 0.24923 0.61008 0.0
H903 H 0.03809 0.28015 0.49928 0.0
H904 H 0.97916 0.21576 0.50364 0.0
S905 S 0.97266 0.35286 0.67437 0.0
N906 N 0.00532 0.35766 0.63405 0.0
N907 N 0.94366 0.30916 0.66928 0.0
C908 C 0.9578 0.29328 0.63297 0.0
C909 C -0.00308 0.3233 0.61032 0.0
C910 C 0.97759 0.69743 0.92641 0.0
C911 C 0.00365 0.67011 0.9037 0.0
C912 C 0.94836 0.72324 0.90596 0.0
C913 C 0.94398 0.72219 0.86225 0.0
H914 H 0.98179 0.70096 0.95974 0.0
H915 H 0.93097 0.74576 0.92433 0.0
S916 S 0.99382 0.64461 0.79117 0.0
N917 N 0.01517 0.63568 0.83709 0.0
N918 N 0.96088 0.68358 0.79867 0.0
C919 C 0.96595 0.69088 0.84019 0.0
C920 C 0.99554 0.66492 0.86094 0.0
C921 C 0.47179 0.19256 0.31897 0.0
C922 C 0.44502 0.2213 0.33902 0.0
C923 C 0.49302 0.16175 0.34108 0.0
C924 C 0.48871 0.15827 0.38428 0.0
H925 H 0.47799 0.19477 0.28599 0.0
H926 H 0.51475 0.14184 0.3244 0.0
S927 S 0.4118 0.21631 0.44942 0.0
N928 N 0.40767 0.23762 0.40311 0.0
N929 N 0.44794 0.17964 0.44482 0.0
C930 C 0.45796 0.1831 0.404 0.0
C931 C 0.43614 0.21473 0.38134 0.0
C932 C 0.04205 0.16746 0.61174 0.0
C933 C 0.00082 0.16215 0.59597 0.0
C934 C 0.06081 0.2067 0.6209 0.0
C935 C 0.04164 0.2459 0.61478 0.0
H936 H 0.05998 0.14006 0.61978 0.0
H937 H 0.09153 0.20593 0.63638 0.0
S938 S 0.90866 0.24894 0.54078 0.0
N939 N 0.93466 0.19607 0.56047 0.0
N940 N 0.9568 0.28693 0.56297 0.0
C941 C 0.0015 0.24676 0.59216 0.0
C942 C 0.9789 0.19707 0.5849 0.0
C943 C 0.43747 0.74328 0.06961 0.0
C944 C 0.41365 0.75234 0.10559 0.0
C945 C 0.46785 0.7719 0.05395 0.0
C946 C 0.47655 0.81074 0.07385 0.0
H947 H 0.43391 0.71313 0.05423 0.0
H948 H 0.48628 0.76249 0.0272 0.0
S949 S 0.41809 0.8536 0.16418 0.0
N950 N 0.39722 0.80644 0.15693 0.0
N951 N 0.45451 0.85902 0.12794 0.0
C952 C 0.45089 0.82152 0.10783 0.0
C953 C 0.41954 0.79273 0.12354 0.0
C954 C 0.65596 0.46331 0.70925 0.0
C955 C 0.62779 0.43513 0.72894 0.0
C956 C 0.64154 0.49145 0.67928 0.0
C957 C 0.59843 0.49249 0.66808 0.0
H958 H 0.68885 0.46585 0.71912 0.0
H959 H 0.66356 0.51467 0.6676 0.0
S960 S 0.51567 0.41497 0.69867 0.0
N961 N 0.55767 0.40289 0.72676 0.0
N962 N 0.53055 0.45499 0.67023 0.0
C963 C 0.57164 0.46011 0.68267 0.0
C964 C 0.58626 0.43174 0.71331 0.0
C965 C 0.77441 0.34927 0.981 0.0
C966 C 0.7887 0.38599 0.0016 0.0
C967 C 0.73992 0.34978 0.9529 0.0
C968 C 0.71956 0.3873 0.9433 0.0
H969 H 0.79016 0.31999 0.98646 0.0
H970 H 0.73096 0.32111 0.93664 0.0
S971 S 0.7465 0.4923 0.98691 0.0
N972 N 0.78018 0.46088 0.00989 0.0
N973 N 0.71672 0.46211 0.95617 0.0
C974 C 0.73359 0.42413 0.96379 0.0
C975 C 0.76787 0.42344 0.99304 0.0
C976 C 0.8921 0.57476 0.24572 0.0
C977 C 0.84813 0.57569 0.25286 0.0
C978 C 0.90876 0.55156 0.21211 0.0
C979 C 0.88213 0.52866 0.18412 0.0
H980 H 0.9139 0.59005 0.26744 0.0
H981 H 0.94293 0.55026 0.20916 0.0
S982 S 0.76444 0.52882 0.18371 0.0
N983 N 0.77811 0.55737 0.22482 0.0
N984 N 0.8094 0.51403 0.16252 0.0
C985 C 0.83811 0.53249 0.18891 0.0
C986 C 0.82117 0.55602 0.22292 0.0
C987 C 0.71692 0.68412 0.47824 0.0
C988 C 0.70717 0.66533 0.43945 0.0
C989 C 0.68562 0.68762 0.50918 0.0
C990 C 0.64345 0.67448 0.50125 0.0
H991 H 0.74937 0.69287 0.48589 0.0
H992 H 0.69483 0.69869 0.53998 0.0
S993 S 0.59984 0.63447 0.40072 0.0
N994 N 0.65109 0.64104 0.39234 0.0
N995 N 0.59235 0.64935 0.44943 0.0
C996 C 0.63249 0.66107 0.4608 0.0
C997 C 0.66434 0.65626 0.43003 0.0
C998 C 0.58489 0.4914 0.80201 0.0
C999 C 0.6117 0.48115 0.83563 0.0
C1000 C 0.59685 0.52134 0.77284 0.0
C1001 C 0.63636 0.54196 0.77561 0.0
H1002 H 0.554 0.47652 0.79822 0.0
H1003 H 0.57443 0.52915 0.74858 0.0
S1004 S 0.71675 0.53043 0.85932 0.0
N1005 N 0.6782 0.4976 0.87168 0.0
N1006 N 0.70158 0.55197 0.81541 0.0
C1007 C 0.6634 0.53254 0.80906 0.0
C1008 C 0.6509 0.50263 0.83934 0.0
C1009 C 0.7415 0.32856 0.07603 0.0
C1010 C 0.758 0.36324 0.09835 0.0
C1011 C 0.70467 0.33167 0.05137 0.0
C1012 C 0.68397 0.37005 0.04654 0.0
H1013 H 0.75712 0.29871 0.07771 0.0
H1014 H 0.69354 0.30414 0.03442 0.0
S1015 S 0.7134 0.46988 0.09957 0.0
N1016 N 0.74931 0.43668 0.11597 0.0
N1017 N 0.68163 0.44301 0.06773 0.0
C1018 C 0.69965 0.40478 0.06932 0.0
C1019 C 0.73627 0.40127 0.09563 0.0
C1020 C 0.85053 0.47145 0.27382 0.0
C1021 C 0.88081 0.49255 0.29901 0.0
C1022 C 0.8627 0.44345 0.24235 0.0
C1023 C 0.90568 0.43409 0.23567 0.0
H1024 H 0.81696 0.47579 0.27918 0.0
H1025 H 0.83789 0.42658 0.22543 0.0
S1026 S -0.00228 0.48352 0.29059 0.0
N1027 N 0.95597 0.505 0.31262 0.0
N1028 N 0.9788 0.45075 0.25463 0.0
C1029 C 0.93645 0.45654 0.25913 0.0
C1030 C 0.92403 0.48602 0.29058 0.0
C1031 C 0.79641 0.63038 0.52552 0.0
C1032 C 0.77819 0.60347 0.4951 0.0
C1033 C 0.77576 0.6386 0.56363 0.0
C1034 C 0.73611 0.61997 0.57344 0.0
H1035 H 0.82736 0.64441 0.52035 0.0
H1036 H 0.7914 0.65956 0.58578 0.0
S1037 S 0.67368 0.54863 0.5036 0.0
N1038 N 0.71671 0.5599 0.47682 0.0
N1039 N 0.67934 0.57382 0.54843 0.0
C1040 C 0.71746 0.59328 0.54309 0.0
C1041 C 0.73807 0.58546 0.50411 0.0
C1042 C 0.41433 0.67464 0.63301 0.0
C1043 C 0.45123 0.67782 0.60881 0.0
C1044 C 0.38499 0.70685 0.63447 0.0
C1045 C 0.39155 0.74376 0.61219 0.0
H1046 H 0.40961 0.64861 0.65368 0.0
H1047 H 0.35961 0.70485 0.65696 0.0
S1048 S 0.4731 0.75974 0.53115 0.0
N1049 N 0.48538 0.71462 0.55211 0.0
N1050 N 0.4305 0.77611 0.55588 0.0
C1051 C 0.42393 0.74409 0.5823 0.0
C1052 C 0.45389 0.71082 0.58045 0.0
C1053 C 0.4029 0.52924 0.25709 0.0
C1054 C 0.37115 0.55638 0.24353 0.0
C1055 C 0.39569 0.50199 0.29057 0.0
C1056 C 0.35702 0.50229 0.31238 0.0
H1057 H 0.43271 0.528 0.24089 0.0
H1058 H 0.42059 0.48092 0.29966 0.0
S1059 S 0.26812 0.57497 0.29539 0.0
N1060 N 0.30302 0.58679 0.25931 0.0
N1061 N 0.28933 0.53649 0.32159 0.0
C1062 C 0.32679 0.53201 0.30134 0.0
C1063 C 0.33402 0.55903 0.26731 0.0
C1064 C 0.24222 0.59539 0.05275 0.0
C1065 C 0.2736 0.56437 0.0492 0.0
C1066 C 0.22483 0.61706 0.01922 0.0
C1067 C 0.23551 0.60854 0.97798 0.0
H1068 H 0.23091 0.60414 0.08342 0.0
H1069 H 0.19754 0.63636 0.02556 0.0
S1070 S 0.36566 0.53926 0.94817 0.0
N1071 N 0.33175 0.52892 0.00067 0.0
N1072 N 0.32568 0.5848 0.92694 0.0
C1073 C 0.27677 0.58998 0.9721 0.0
C1074 C 0.28989 0.555 0.01003 0.0
C1075 C 0.14628 0.48625 0.77572 0.0
C1076 C 0.11686 0.50919 0.79889 0.0
C1077 C 0.13312 0.45741 0.7452 0.0
C1078 C 0.08985 0.44933 0.73696 0.0
H1079 H 0.17996 0.48946 0.78231 0.0
H1080 H 0.15733 0.43934 0.72971 0.0
S1081 S -0.00051 0.5005 0.78933 0.0
N1082 N 0.04202 0.52269 0.811 0.0
N1083 N 0.01722 0.4665 0.75462 0.0
C1084 C 0.05977 0.47242 0.75934 0.0
C1085 C 0.07329 0.50297 0.78987 0.0
C1086 C 0.25907 0.32569 0.55148 0.0
C1087 C 0.23941 0.35277 0.5801 0.0
C1088 C 0.28985 0.34072 0.52366 0.0
C1089 C 0.3013 0.38331 0.52342 0.0
H1090 H 0.24845 0.29348 0.54837 0.0
H1091 H 0.30181 0.31964 0.50003 0.0
S1092 S 0.27512 0.46074 0.60612 0.0
N1093 N 0.24478 0.41974 0.61619 0.0
N1094 N 0.30217 0.44807 0.56416 0.0
C1095 C 0.28752 0.4085 0.55688 0.0
C1096 C 0.25637 0.39327 0.58503 0.0
C1097 C 0.38755 0.4406 0.19043 0.0
C1098 C 0.41685 0.42125 0.21703 0.0
C1099 C 0.39974 0.47446 0.16535 0.0
C1100 C 0.44195 0.48962 0.16535 0.0
H1101 H 0.35506 0.42916 0.18872 0.0
H1102 H 0.37596 0.48879 0.14593 0.0
S1103 S 0.53063 0.44818 0.22982 0.0
N1104 N 0.48916 0.41907 0.2422 0.0
N1105 N 0.51315 0.48127 0.19498 0.0
C1106 C 0.47155 0.46967 0.1918 0.0
C1107 C 0.45871 0.43598 0.21772 0.0
C1108 C 0.32904 0.64487 0.96547 0.0
C1109 C 0.3431 0.59845 0.98739 0.0
C1110 C 0.293 0.64811 0.9251 0.0
C1111 C 0.26418 0.60999 0.89794 0.0
H1112 H 0.34398 0.67334 0.97711 0.0
H1113 H 0.28765 0.67963 0.91484 0.0
S1114 S 0.25526 0.48348 0.8999 0.0
N1115 N 0.28789 0.49004 0.94107 0.0
N1116 N 0.24245 0.52955 0.87905 0.0
C1117 C 0.26319 0.55694 0.90418 0.0
C1118 C 0.29107 0.53231 0.94129 0.0
C1119 C 0.18388 0.52653 0.68442 0.0
C1120 C 0.15091 0.50757 0.66084 0.0
C1121 C 0.17541 0.55743 0.71475 0.0
C1122 C 0.13381 0.57133 0.72174 0.0
H1123 H 0.21653 0.51818 0.67863 0.0
H1124 H 0.20184 0.57186 0.73152 0.0
S1125 S 0.03648 0.53279 0.6671 0.0
N1126 N 0.07506 0.50515 0.64645 0.0
N1127 N 0.0594 0.56399 0.70222 0.0
C1128 C 0.1006 0.55262 0.69835 0.0
C1129 C 0.10908 0.52053 0.66826 0.0
C1130 C 0.2204 0.33919 0.45722 0.0
C1131 C 0.21292 0.3824 0.45849 0.0
C1132 C 0.24756 0.32168 0.42704 0.0
C1133 C 0.26659 0.34662 0.39628 0.0
H1134 H 0.20756 0.31931 0.4811 0.0
H1135 H 0.25516 0.28889 0.429 0.0
S1136 S 0.23839 0.45584 0.37353 0.0
N1137 N 0.2148 0.44601 0.41801 0.0
N1138 N 0.2638 0.41284 0.36083 0.0
C1139 C 0.25332 0.38804 0.39322 0.0
C1140 C 0.2267 0.40593 0.42424 0.0
C1141 C 0.49174 0.32037 0.36606 0.0
C1142 C 0.47762 0.31775 0.40715 0.0
C1143 C 0.52225 0.2933 0.35066 0.0
C1144 C 0.53965 0.26164 0.37533 0.0
H1145 H 0.47811 0.34271 0.34497 0.0
H1146 H 0.53054 0.29607 0.31818 0.0
S1147 S 0.52172 0.24892 0.48832 0.0
N1148 N 0.48962 0.28698 0.47503 0.0
N1149 N 0.54651 0.23469 0.44537 0.0
C1150 C 0.52939 0.26156 0.41783 0.0
C1151 C 0.49842 0.28993 0.43388 0.0
loop_
_geom_bond_atom_site_label_1
_geom_bond_atom_site_label_2
_geom_bond_distance
_geom_bond_site_symmetry_2
_ccdc_geom_bond_type
Zn0 O3 2.031 . S
Zn0 O5 2.049 . S
Zn0 O10 2.067 . S
Zn1 O2 1.962 . S
Zn1 O4 1.986 . S
Zn1 O6 1.996 . S
Zn1 O9 1.943 . S
O2 Zn1 1.962 . S
O2 C7 1.254 . S
O3 Zn0 2.031 . S
O3 C7 1.269 . S
O4 Zn1 1.986 . S
O4 C11 1.262 . S
O5 Zn0 2.049 . S
O5 C13 1.260 . S
O6 Zn1 1.996 . S
O6 C13 1.257 . S
C7 O2 1.254 . S
C7 O3 1.269 . S
C8 O9 1.249 . S
C8 O10 1.270 . S
O9 Zn1 1.943 . S
O9 C8 1.249 . S
O10 Zn0 2.067 . S
O10 C8 1.270 . S
C11 O4 1.262 . S
C11 O12 1.232 . S
O12 C11 1.232 . S
C13 O5 1.260 . S
C13 O6 1.257 . S
Zn14 O17 2.031 . S
Zn14 O19 2.049 . S
Zn14 O24 2.067 . S
Zn15 O16 1.962 . S
Zn15 O18 1.986 . S
Zn15 O20 1.996 . S
Zn15 O23 1.943 . S
O16 Zn15 1.962 . S
O16 C21 1.254 . S
O17 Zn14 2.031 . S
O17 C21 1.269 . S
O18 Zn15 1.986 . S
O18 C25 1.262 . S
O19 Zn14 2.049 . S
O19 C27 1.260 . S
O20 Zn15 1.996 . S
O20 C27 1.257 . S
C21 O16 1.254 . S
C21 O17 1.269 . S
C22 O23 1.249 . S
C22 O24 1.270 . S
O23 Zn15 1.943 . S
O23 C22 1.249 . S
O24 Zn14 2.067 . S
O24 C22 1.270 . S
C25 O18 1.262 . S
C25 O26 1.232 . S
O26 C25 1.232 . S
C27 O19 1.260 . S
C27 O20 1.257 . S
Zn28 O31 2.031 . S
Zn28 O33 2.049 . S
Zn28 O38 2.067 . S
Zn29 O30 1.962 . S
Zn29 O32 1.986 . S
Zn29 O34 1.996 . S
Zn29 O37 1.943 . S
O30 Zn29 1.962 . S
O30 C35 1.254 . S
O31 Zn28 2.031 . S
O31 C35 1.269 . S
O32 Zn29 1.986 . S
O32 C39 1.262 . S
O33 Zn28 2.049 . S
O33 C41 1.260 . S
O34 Zn29 1.996 . S
O34 C41 1.257 . S
C35 O30 1.254 . S
C35 O31 1.269 . S
C36 O37 1.249 . S
C36 O38 1.270 . S
O37 Zn29 1.943 . S
O37 C36 1.249 . S
O38 Zn28 2.067 . S
O38 C36 1.270 . S
C39 O32 1.262 . S
C39 O40 1.232 . S
O40 C39 1.232 . S
C41 O33 1.260 . S
C41 O34 1.257 . S
Zn42 O45 2.031 . S
Zn42 O47 2.049 . S
Zn42 O52 2.067 . S
Zn43 O44 1.962 . S
Zn43 O46 1.986 . S
Zn43 O48 1.996 . S
Zn43 O51 1.943 . S
O44 Zn43 1.962 . S
O44 C49 1.254 . S
O45 Zn42 2.031 . S
O45 C49 1.269 . S
O46 Zn43 1.986 . S
O46 C53 1.262 . S
O47 Zn42 2.049 . S
O47 C55 1.260 . S
O48 Zn43 1.996 . S
O48 C55 1.257 . S
C49 O44 1.254 . S
C49 O45 1.269 . S
C50 O51 1.249 . S
C50 O52 1.270 . S
O51 Zn43 1.943 . S
O51 C50 1.249 . S
O52 Zn42 2.067 . S
O52 C50 1.270 . S
C53 O46 1.262 . S
C53 O54 1.232 . S
O54 C53 1.232 . S
C55 O47 1.260 . S
C55 O48 1.257 . S
Zn56 O59 2.031 . S
Zn56 O61 2.049 . S
Zn56 O66 2.067 . S
Zn57 O58 1.962 . S
Zn57 O60 1.986 . S
Zn57 O62 1.996 . S
Zn57 O65 1.943 . S
O58 Zn57 1.962 . S
O58 C63 1.254 . S
O59 Zn56 2.031 . S
O59 C63 1.269 . S
O60 Zn57 1.986 . S
O60 C67 1.262 . S
O61 Zn56 2.049 . S
O61 C69 1.260 . S
O62 Zn57 1.996 . S
O62 C69 1.257 . S
C63 O58 1.254 . S
C63 O59 1.269 . S
C64 O65 1.249 . S
C64 O66 1.270 . S
O65 Zn57 1.943 . S
O65 C64 1.249 . S
O66 Zn56 2.067 . S
O66 C64 1.270 . S
C67 O60 1.262 . S
C67 O68 1.232 . S
O68 C67 1.232 . S
C69 O61 1.260 . S
C69 O62 1.257 . S
Zn70 O73 2.031 . S
Zn70 O75 2.049 . S
Zn70 O80 2.067 . S
Zn71 O72 1.962 . S
Zn71 O74 1.986 . S
Zn71 O76 1.996 . S
Zn71 O79 1.943 . S
O72 Zn71 1.962 . S
O72 C77 1.254 . S
O73 Zn70 2.031 . S
O73 C77 1.269 . S
O74 Zn71 1.986 . S
O74 C81 1.262 . S
O75 Zn70 2.049 . S
O75 C83 1.260 . S
O76 Zn71 1.996 . S
O76 C83 1.257 . S
C77 O72 1.254 . S
C77 O73 1.269 . S
C78 O79 1.249 . S
C78 O80 1.270 . S
O79 Zn71 1.943 . S
O79 C78 1.249 . S
O80 Zn70 2.067 . S
O80 C78 1.270 . S
C81 O74 1.262 . S
C81 O82 1.232 . S
O82 C81 1.232 . S
C83 O75 1.260 . S
C83 O76 1.257 . S
Zn84 O87 2.031 . S
Zn84 O89 2.049 . S
Zn84 O94 2.067 . S
Zn85 O86 1.962 . S
Zn85 O88 1.986 . S
Zn85 O90 1.996 . S
Zn85 O93 1.943 . S
O86 Zn85 1.962 . S
O86 C91 1.254 . S
O87 Zn84 2.031 . S
O87 C91 1.269 . S
O88 Zn85 1.986 . S
O88 C95 1.262 . S
O89 Zn84 2.049 . S
O89 C97 1.260 . S
O90 Zn85 1.996 . S
O90 C97 1.257 . S
C91 O86 1.254 . S
C91 O87 1.269 . S
C92 O93 1.249 . S
C92 O94 1.270 . S
O93 Zn85 1.943 . S
O93 C92 1.249 . S
O94 Zn84 2.067 . S
O94 C92 1.270 . S
C95 O88 1.262 . S
C95 O96 1.232 . S
O96 C95 1.232 . S
C97 O89 1.260 . S
C97 O90 1.257 . S
Zn98 O101 2.031 . S
Zn98 O103 2.049 . S
Zn98 O108 2.067 . S
Zn99 O100 1.962 . S
Zn99 O102 1.986 . S
Zn99 O104 1.996 . S
Zn99 O107 1.943 . S
O100 Zn99 1.962 . S
O100 C105 1.254 . S
O101 Zn98 2.031 . S
O101 C105 1.269 . S
O102 Zn99 1.986 . S
O102 C109 1.262 . S
O103 Zn98 2.049 . S
O103 C111 1.260 . S
O104 Zn99 1.996 . S
O104 C111 1.257 . S
C105 O100 1.254 . S
C105 O101 1.269 . S
C106 O107 1.249 . S
C106 O108 1.270 . S
O107 Zn99 1.943 . S
O107 C106 1.249 . S
O108 Zn98 2.067 . S
O108 C106 1.270 . S
C109 O102 1.262 . S
C109 O110 1.232 . S
O110 C109 1.232 . S
C111 O103 1.260 . S
C111 O104 1.257 . S
Zn112 O115 2.031 . S
Zn112 O117 2.049 . S
Zn112 O122 2.067 . S
Zn113 O114 1.962 . S
Zn113 O116 1.986 . S
Zn113 O118 1.996 . S
Zn113 O121 1.943 . S
O114 Zn113 1.962 . S
O114 C119 1.254 . S
O115 Zn112 2.031 . S
O115 C119 1.269 . S
O116 Zn113 1.986 . S
O116 C123 1.262 . S
O117 Zn112 2.049 . S
O117 C125 1.260 . S
O118 Zn113 1.996 . S
O118 C125 1.257 . S
C119 O114 1.254 . S
C119 O115 1.269 . S
C120 O121 1.249 . S
C120 O122 1.270 . S
O121 Zn113 1.943 . S
O121 C120 1.249 . S
O122 Zn112 2.067 . S
O122 C120 1.270 . S
C123 O116 1.262 . S
C123 O124 1.232 . S
O124 C123 1.232 . S
C125 O117 1.260 . S
C125 O118 1.257 . S
Zn126 O129 2.031 . S
Zn126 O131 2.049 . S
Zn126 O136 2.067 . S
Zn127 O128 1.962 . S
Zn127 O130 1.986 . S
Zn127 O132 1.996 . S
Zn127 O135 1.943 . S
O128 Zn127 1.962 . S
O128 C133 1.254 . S
O129 Zn126 2.031 . S
O129 C133 1.269 . S
O130 Zn127 1.986 . S
O130 C137 1.262 . S
O131 Zn126 2.049 . S
O131 C139 1.260 . S
O132 Zn127 1.996 . S
O132 C139 1.257 . S
C133 O128 1.254 . S
C133 O129 1.269 . S
C134 O135 1.249 . S
C134 O136 1.270 . S
O135 Zn127 1.943 . S
O135 C134 1.249 . S
O136 Zn126 2.067 . S
O136 C134 1.270 . S
C137 O130 1.262 . S
C137 O138 1.232 . S
O138 C137 1.232 . S
C139 O131 1.260 . S
C139 O132 1.257 . S
Zn140 O143 2.031 . S
Zn140 O145 2.049 . S
Zn140 O150 2.067 . S
Zn141 O142 1.962 . S
Zn141 O144 1.986 . S
Zn141 O146 1.996 . S
Zn141 O149 1.943 . S
O142 Zn141 1.962 . S
O142 C147 1.254 . S
O143 Zn140 2.031 . S
O143 C147 1.269 . S
O144 Zn141 1.986 . S
O144 C151 1.262 . S
O145 Zn140 2.049 . S
O145 C153 1.260 . S
O146 Zn141 1.996 . S
O146 C153 1.257 . S
C147 O142 1.254 . S
C147 O143 1.269 . S
C148 O149 1.249 . S
C148 O150 1.270 . S
O149 Zn141 1.943 . S
O149 C148 1.249 . S
O150 Zn140 2.067 . S
O150 C148 1.270 . S
C151 O144 1.262 . S
C151 O152 1.232 . S
O152 C151 1.232 . S
C153 O145 1.260 . S
C153 O146 1.257 . S
Zn154 O157 2.031 . S
Zn154 O159 2.049 . S
Zn154 O164 2.067 . S
Zn155 O156 1.962 . S
Zn155 O158 1.986 . S
Zn155 O160 1.996 . S
Zn155 O163 1.943 . S
O156 Zn155 1.962 . S
O156 C161 1.254 . S
O157 Zn154 2.031 . S
O157 C161 1.269 . S
O158 Zn155 1.986 . S
O158 C165 1.262 . S
O159 Zn154 2.049 . S
O159 C167 1.260 . S
O160 Zn155 1.996 . S
O160 C167 1.257 . S
C161 O156 1.254 . S
C161 O157 1.269 . S
C162 O163 1.249 . S
C162 O164 1.270 . S
O163 Zn155 1.943 . S
O163 C162 1.249 . S
O164 Zn154 2.067 . S
O164 C162 1.270 . S
C165 O158 1.262 . S
C165 O166 1.232 . S
O166 C165 1.232 . S
C167 O159 1.260 . S
C167 O160 1.257 . S
Zn168 O171 2.031 . S
Zn168 O173 2.049 . S
Zn168 O178 2.067 . S
Zn169 O170 1.962 . S
Zn169 O172 1.986 . S
Zn169 O174 1.996 . S
Zn169 O177 1.943 . S
O170 Zn169 1.962 . S
O170 C175 1.254 . S
O171 Zn168 2.031 . S
O171 C175 1.269 . S
O172 Zn169 1.986 . S
O172 C179 1.262 . S
O173 Zn168 2.049 . S
O173 C181 1.260 . S
O174 Zn169 1.996 . S
O174 C181 1.257 . S
C175 O170 1.254 . S
C175 O171 1.269 . S
C176 O177 1.249 . S
C176 O178 1.270 . S
O177 Zn169 1.943 . S
O177 C176 1.249 . S
O178 Zn168 2.067 . S
O178 C176 1.270 . S
C179 O172 1.262 . S
C179 O180 1.232 . S
O180 C179 1.232 . S
C181 O173 1.260 . S
C181 O174 1.257 . S
Zn182 O185 2.031 . S
Zn182 O187 2.049 1_565 S
Zn182 O192 2.071 . S
Zn183 O184 1.962 . S
Zn183 O186 1.986 . S
Zn183 O188 1.996 . S
Zn183 O191 1.943 . S
O184 Zn183 1.962 . S
O184 C189 1.254 . S
O185 Zn182 2.031 . S
O185 C189 1.269 . S
O186 Zn183 1.986 . S
O186 C193 1.262 . S
O187 Zn182 2.049 1_545 S
O187 C195 1.260 1_545 S
O188 Zn183 1.996 . S
O188 C195 1.257 . S
C189 O184 1.254 . S
C189 O185 1.269 . S
C190 O191 1.249 . S
C190 O192 1.286 . S
O191 Zn183 1.943 . S
O191 C190 1.249 . S
O192 Zn182 2.071 . S
O192 C190 1.286 . S
C193 O186 1.262 . S
C193 O194 1.232 . S
O194 C193 1.232 . S
C195 O187 1.260 1_565 S
C195 O188 1.257 . S
Zn196 O199 2.031 . S
Zn196 O201 2.049 . S
Zn196 O206 2.067 . S
Zn197 O198 1.962 . S
Zn197 O200 1.986 . S
Zn197 O202 1.996 . S
Zn197 O205 1.943 . S
O198 Zn197 1.962 . S
O198 C203 1.254 . S
O199 Zn196 2.031 . S
O199 C203 1.269 . S
O200 Zn197 1.986 . S
O200 C207 1.262 . S
O201 Zn196 2.049 . S
O201 C209 1.260 . S
O202 Zn197 1.996 . S
O202 C209 1.257 . S
C203 O198 1.254 . S
C203 O199 1.269 . S
C204 O205 1.249 . S
C204 O206 1.270 . S
O205 Zn197 1.943 . S
O205 C204 1.249 . S
O206 Zn196 2.067 . S
O206 C204 1.270 . S
C207 O200 1.262 . S
C207 O208 1.232 . S
O208 C207 1.232 . S
C209 O201 1.260 . S
C209 O202 1.257 . S
Zn210 O213 2.031 . S
Zn210 O215 2.058 . S
Zn210 O220 2.067 . S
Zn211 O212 1.962 . S
Zn211 O214 1.986 . S
Zn211 O216 1.996 . S
Zn211 O219 1.943 . S
O212 Zn211 1.962 . S
O212 C217 1.254 . S
O213 Zn210 2.031 . S
O213 C217 1.269 . S
O214 Zn211 1.986 . S
O214 C221 1.262 . S
O215 Zn210 2.058 . S
O215 C223 1.281 . S
O216 Zn211 1.996 . S
O216 C223 1.257 . S
C217 O212 1.254 . S
C217 O213 1.269 . S
C218 O219 1.249 . S
C218 O220 1.270 . S
O219 Zn211 1.943 . S
O219 C218 1.249 . S
O220 Zn210 2.067 . S
O220 C218 1.270 . S
C221 O214 1.262 . S
C221 O222 1.232 . S
O222 C221 1.232 . S
C223 O215 1.281 . S
C223 O216 1.257 . S
Zn224 O227 2.031 . S
Zn224 O229 2.049 . S
Zn224 O234 2.067 . S
Zn225 O226 1.962 . S
Zn225 O228 1.986 . S
Zn225 O230 1.996 . S
Zn225 O233 1.943 . S
O226 Zn225 1.962 . S
O226 C231 1.254 . S
O227 Zn224 2.031 . S
O227 C231 1.269 . S
O228 Zn225 1.986 . S
O228 C235 1.262 . S
O229 Zn224 2.049 . S
O229 C237 1.260 . S
O230 Zn225 1.996 . S
O230 C237 1.257 . S
C231 O226 1.254 . S
C231 O227 1.269 . S
C232 O233 1.249 . S
C232 O234 1.270 . S
O233 Zn225 1.943 . S
O233 C232 1.249 . S
O234 Zn224 2.067 . S
O234 C232 1.270 . S
C235 O228 1.262 . S
C235 O236 1.232 . S
O236 C235 1.232 . S
C237 O229 1.260 . S
C237 O230 1.257 . S
Zn238 O241 2.031 . S
Zn238 O243 2.049 . S
Zn238 O248 2.067 . S
Zn239 O240 1.962 . S
Zn239 O242 1.986 . S
Zn239 O244 1.996 . S
Zn239 O247 1.943 . S
O240 Zn239 1.962 . S
O240 C245 1.254 . S
O241 Zn238 2.031 . S
O241 C245 1.269 . S
O242 Zn239 1.986 . S
O242 C249 1.262 . S
O243 Zn238 2.049 . S
O243 C251 1.260 . S
O244 Zn239 1.996 . S
O244 C251 1.257 . S
C245 O240 1.254 . S
C245 O241 1.269 . S
C246 O247 1.249 . S
C246 O248 1.270 . S
O247 Zn239 1.943 . S
O247 C246 1.249 . S
O248 Zn238 2.067 . S
O248 C246 1.270 . S
C249 O242 1.262 . S
C249 O250 1.232 . S
O250 C249 1.232 . S
C251 O243 1.260 . S
C251 O244 1.257 . S
Zn252 O255 2.031 . S
Zn252 O257 2.049 . S
Zn252 O262 2.067 . S
Zn253 O254 1.962 . S
Zn253 O256 1.986 . S
Zn253 O258 1.996 . S
Zn253 O261 1.943 . S
O254 Zn253 1.962 . S
O254 C259 1.254 . S
O255 Zn252 2.031 . S
O255 C259 1.269 . S
O256 Zn253 1.986 . S
O256 C263 1.262 . S
O257 Zn252 2.049 . S
O257 C265 1.260 . S
O258 Zn253 1.996 . S
O258 C265 1.257 . S
C259 O254 1.254 . S
C259 O255 1.269 . S
C260 O261 1.249 . S
C260 O262 1.270 . S
O261 Zn253 1.943 . S
O261 C260 1.249 . S
O262 Zn252 2.067 . S
O262 C260 1.270 . S
C263 O256 1.262 . S
C263 O264 1.232 . S
O264 C263 1.232 . S
C265 O257 1.260 . S
C265 O258 1.257 . S
Zn266 O269 2.031 . S
Zn266 O271 2.049 1_565 S
Zn266 O276 2.067 . S
Zn267 O268 1.962 . S
Zn267 O270 1.986 . S
Zn267 O272 1.996 . S
Zn267 O275 1.943 . S
O268 Zn267 1.962 . S
O268 C273 1.254 . S
O269 Zn266 2.031 . S
O269 C273 1.269 . S
O270 Zn267 1.986 . S
O270 C277 1.262 . S
O271 Zn266 2.049 1_545 S
O271 C279 1.260 1_545 S
O272 Zn267 1.996 . S
O272 C279 1.257 . S
C273 O268 1.254 . S
C273 O269 1.269 . S
C274 O275 1.249 . S
C274 O276 1.270 . S
O275 Zn267 1.943 . S
O275 C274 1.249 . S
O276 Zn266 2.067 . S
O276 C274 1.270 . S
C277 O270 1.262 . S
C277 O278 1.232 . S
O278 C277 1.232 . S
C279 O271 1.260 1_565 S
C279 O272 1.257 . S
Zn280 O283 2.031 . S
Zn280 O285 2.049 . S
Zn280 O290 2.067 . S
Zn281 O282 1.962 . S
Zn281 O284 1.986 . S
Zn281 O286 1.996 . S
Zn281 O289 1.943 . S
O282 Zn281 1.962 . S
O282 C287 1.254 . S
O283 Zn280 2.031 . S
O283 C287 1.269 . S
O284 Zn281 1.986 . S
O284 C291 1.262 . S
O285 Zn280 2.049 . S
O285 C293 1.260 . S
O286 Zn281 1.996 . S
O286 C293 1.257 . S
C287 O282 1.254 . S
C287 O283 1.269 . S
C288 O289 1.249 . S
C288 O290 1.270 . S
O289 Zn281 1.943 . S
O289 C288 1.249 . S
O290 Zn280 2.067 . S
O290 C288 1.270 . S
C291 O284 1.262 . S
C291 O292 1.232 . S
O292 C291 1.232 . S
C293 O285 1.260 . S
C293 O286 1.257 . S
Zn294 O297 2.031 . S
Zn294 O299 2.049 . S
Zn294 O304 2.067 . S
Zn295 O296 1.962 . S
Zn295 O298 1.986 . S
Zn295 O300 1.996 . S
Zn295 O303 1.943 . S
O296 Zn295 1.962 . S
O296 C301 1.254 . S
O297 Zn294 2.031 . S
O297 C301 1.269 . S
O298 Zn295 1.986 . S
O298 C305 1.262 . S
O299 Zn294 2.049 . S
O299 C307 1.260 . S
O300 Zn295 1.996 . S
O300 C307 1.257 . S
C301 O296 1.254 . S
C301 O297 1.269 . S
C302 O303 1.249 . S
C302 O304 1.270 . S
O303 Zn295 1.943 . S
O303 C302 1.249 . S
O304 Zn294 2.067 . S
O304 C302 1.270 . S
C305 O298 1.262 . S
C305 O306 1.232 . S
O306 C305 1.232 . S
C307 O299 1.260 . S
C307 O300 1.257 . S
Zn308 O311 2.031 . S
Zn308 O313 2.049 . S
Zn308 O318 2.067 . S
Zn309 O310 1.962 . S
Zn309 O312 1.986 . S
Zn309 O314 1.996 . S
Zn309 O317 1.943 . S
O310 Zn309 1.962 . S
O310 C315 1.254 . S
O311 Zn308 2.031 . S
O311 C315 1.269 . S
O312 Zn309 1.986 . S
O312 C319 1.262 . S
O313 Zn308 2.049 . S
O313 C321 1.260 . S
O314 Zn309 1.996 . S
O314 C321 1.257 . S
C315 O310 1.254 . S
C315 O311 1.269 . S
C316 O317 1.249 . S
C316 O318 1.270 . S
O317 Zn309 1.943 . S
O317 C316 1.249 . S
O318 Zn308 2.067 . S
O318 C316 1.270 . S
C319 O312 1.262 . S
C319 O320 1.232 . S
O320 C319 1.232 . S
C321 O313 1.260 . S
C321 O314 1.257 . S
Zn322 O325 2.031 . S
Zn322 O327 2.049 . S
Zn322 O332 2.067 . S
Zn323 O324 1.962 . S
Zn323 O326 1.986 . S
Zn323 O328 1.996 . S
Zn323 O331 1.943 . S
O324 Zn323 1.962 . S
O324 C329 1.254 . S
O325 Zn322 2.031 . S
O325 C329 1.269 . S
O326 Zn323 1.986 . S
O326 C333 1.262 . S
O327 Zn322 2.049 . S
O327 C335 1.260 . S
O328 Zn323 1.996 . S
O328 C335 1.257 . S
C329 O324 1.254 . S
C329 O325 1.269 . S
C330 O331 1.249 . S
C330 O332 1.270 . S
O331 Zn323 1.943 . S
O331 C330 1.249 . S
O332 Zn322 2.067 . S
O332 C330 1.270 . S
C333 O326 1.262 . S
C333 O334 1.232 . S
O334 C333 1.232 . S
C335 O327 1.260 . S
C335 O328 1.257 . S
Zn336 O339 2.031 . S
Zn336 O341 2.049 . S
Zn336 O346 2.067 . S
Zn337 O338 1.962 . S
Zn337 O340 1.986 . S
Zn337 O342 1.996 . S
Zn337 O345 1.943 . S
O338 Zn337 1.962 . S
O338 C343 1.254 . S
O339 Zn336 2.031 . S
O339 C343 1.269 . S
O340 Zn337 1.986 . S
O340 C347 1.262 . S
O341 Zn336 2.049 . S
O341 C349 1.260 . S
O342 Zn337 1.996 . S
O342 C349 1.257 . S
C343 O338 1.254 . S
C343 O339 1.269 . S
C344 O345 1.249 . S
C344 O346 1.270 . S
O345 Zn337 1.943 . S
O345 C344 1.249 . S
O346 Zn336 2.067 . S
O346 C344 1.270 . S
C347 O340 1.262 . S
C347 O348 1.232 . S
O348 C347 1.232 . S
C349 O341 1.260 . S
C349 O342 1.257 . S
Zn350 O353 2.031 . S
Zn350 O355 2.049 . S
Zn350 O360 2.067 . S
Zn351 O352 1.962 . S
Zn351 O354 1.986 . S
Zn351 O356 1.996 . S
Zn351 O359 1.943 . S
O352 Zn351 1.962 . S
O352 C357 1.254 . S
O353 Zn350 2.031 . S
O353 C357 1.269 . S
O354 Zn351 1.986 . S
O354 C361 1.262 . S
O355 Zn350 2.049 . S
O355 C363 1.260 . S
O356 Zn351 1.996 . S
O356 C363 1.257 . S
C357 O352 1.254 . S
C357 O353 1.269 . S
C358 O359 1.249 . S
C358 O360 1.270 . S
O359 Zn351 1.943 . S
O359 C358 1.249 . S
O360 Zn350 2.067 . S
O360 C358 1.270 . S
C361 O354 1.262 . S
C361 O362 1.232 . S
O362 C361 1.232 . S
C363 O355 1.260 . S
C363 O356 1.257 . S
Zn364 O367 2.031 . S
Zn364 O369 2.049 . S
Zn364 O374 2.067 . S
Zn365 O366 1.962 . S
Zn365 O368 1.986 . S
Zn365 O370 1.996 . S
Zn365 O373 1.943 . S
O366 Zn365 1.962 . S
O366 C371 1.254 . S
O367 Zn364 2.031 . S
O367 C371 1.269 . S
O368 Zn365 1.986 . S
O368 C375 1.262 . S
O369 Zn364 2.049 . S
O369 C377 1.260 . S
O370 Zn365 1.996 . S
O370 C377 1.257 . S
C371 O366 1.254 . S
C371 O367 1.269 . S
C372 O373 1.249 . S
C372 O374 1.270 . S
O373 Zn365 1.943 . S
O373 C372 1.249 . S
O374 Zn364 2.067 . S
O374 C372 1.270 . S
C375 O368 1.262 . S
C375 O376 1.232 . S
O376 C375 1.232 . S
C377 O369 1.260 . S
C377 O370 1.257 . S
Zn378 O381 2.031 . S
Zn378 O383 2.049 . S
Zn378 O388 2.067 . S
Zn379 O380 1.962 . S
Zn379 O382 1.986 . S
Zn379 O384 1.996 . S
Zn379 O387 1.943 . S
O380 Zn379 1.962 . S
O380 C385 1.254 . S
O381 Zn378 2.031 . S
O381 C385 1.269 . S
O382 Zn379 1.986 . S
O382 C389 1.262 . S
O383 Zn378 2.049 . S
O383 C391 1.260 . S
O384 Zn379 1.996 . S
O384 C391 1.257 . S
C385 O380 1.254 . S
C385 O381 1.269 . S
C386 O387 1.249 . S
C386 O388 1.270 . S
O387 Zn379 1.943 . S
O387 C386 1.249 . S
O388 Zn378 2.067 . S
O388 C386 1.270 . S
C389 O382 1.262 . S
C389 O390 1.232 . S
O390 C389 1.232 . S
C391 O383 1.260 . S
C391 O384 1.257 . S
Zn392 O395 2.031 . S
Zn392 O397 2.049 . S
Zn392 O402 2.067 . S
Zn393 O394 1.962 . S
Zn393 O396 1.986 . S
Zn393 O398 1.996 . S
Zn393 O401 1.943 . S
O394 Zn393 1.962 . S
O394 C399 1.254 . S
O395 Zn392 2.031 . S
O395 C399 1.269 . S
O396 Zn393 1.986 . S
O396 C403 1.262 . S
O397 Zn392 2.049 . S
O397 C405 1.260 . S
O398 Zn393 1.996 . S
O398 C405 1.257 . S
C399 O394 1.254 . S
C399 O395 1.269 . S
C400 O401 1.249 . S
C400 O402 1.270 . S
O401 Zn393 1.943 . S
O401 C400 1.249 . S
O402 Zn392 2.067 . S
O402 C400 1.270 . S
C403 O396 1.262 . S
C403 O404 1.232 . S
O404 C403 1.232 . S
C405 O397 1.260 . S
C405 O398 1.257 . S
Zn406 O409 2.031 . S
Zn406 O411 2.049 . S
Zn406 O416 2.067 . S
Zn407 O408 1.962 . S
Zn407 O410 1.986 . S
Zn407 O412 1.996 . S
Zn407 O415 1.943 . S
O408 Zn407 1.962 . S
O408 C413 1.254 . S
O409 Zn406 2.031 . S
O409 C413 1.269 . S
O410 Zn407 1.986 . S
O410 C417 1.262 . S
O411 Zn406 2.049 . S
O411 C419 1.260 . S
O412 Zn407 1.996 . S
O412 C419 1.257 . S
C413 O408 1.254 . S
C413 O409 1.269 . S
C414 O415 1.249 . S
C414 O416 1.270 . S
O415 Zn407 1.943 . S
O415 C414 1.249 . S
O416 Zn406 2.067 . S
O416 C414 1.270 . S
C417 O410 1.262 . S
C417 O418 1.232 . S
O418 C417 1.232 . S
C419 O411 1.260 . S
C419 O412 1.257 . S
Zn420 O423 2.031 . S
Zn420 O425 2.049 . S
Zn420 O430 2.067 . S
Zn421 O422 1.962 . S
Zn421 O424 1.986 . S
Zn421 O426 1.996 . S
Zn421 O429 1.943 . S
O422 Zn421 1.962 . S
O422 C427 1.254 . S
O423 Zn420 2.031 . S
O423 C427 1.269 . S
O424 Zn421 1.986 . S
O424 C431 1.262 . S
O425 Zn420 2.049 . S
O425 C433 1.260 . S
O426 Zn421 1.996 . S
O426 C433 1.257 . S
C427 O422 1.254 . S
C427 O423 1.269 . S
C428 O429 1.249 . S
C428 O430 1.270 . S
O429 Zn421 1.943 . S
O429 C428 1.249 . S
O430 Zn420 2.067 . S
O430 C428 1.270 . S
C431 O424 1.262 . S
C431 O432 1.232 . S
O432 C431 1.232 . S
C433 O425 1.260 . S
C433 O426 1.257 . S
Zn434 O437 2.031 . S
Zn434 O439 2.049 . S
Zn434 O444 2.067 . S
Zn435 O436 1.962 . S
Zn435 O438 1.986 . S
Zn435 O440 1.996 . S
Zn435 O443 1.943 . S
O436 Zn435 1.962 . S
O436 C441 1.254 . S
O437 Zn434 2.031 . S
O437 C441 1.269 . S
O438 Zn435 1.986 . S
O438 C445 1.262 . S
O439 Zn434 2.049 . S
O439 C447 1.260 . S
O440 Zn435 1.996 . S
O440 C447 1.257 . S
C441 O436 1.254 . S
C441 O437 1.269 . S
C442 O443 1.249 . S
C442 O444 1.270 . S
O443 Zn435 1.943 . S
O443 C442 1.249 . S
O444 Zn434 2.067 . S
O444 C442 1.270 . S
C445 O438 1.262 . S
C445 O446 1.232 . S
O446 C445 1.232 . S
C447 O439 1.260 . S
C447 O440 1.257 . S
C448 C449 1.369 1_655 S
C448 C450 1.419 1_554 S
C448 H452 0.930 . S
C449 C448 1.369 1_455 S
C449 C458 1.429 1_545 S
C450 C448 1.419 1_556 S
C450 C451 1.363 1_545 S
C450 H453 0.929 . S
C451 C450 1.363 1_565 S
C451 C457 1.428 1_556 S
H452 C448 0.930 . S
H453 C450 0.929 . S
S454 N455 1.613 . S
S454 N456 1.601 1_454 S
N455 S454 1.613 . S
N455 C458 1.350 . S
N456 S454 1.601 1_656 S
N456 C457 1.354 1_556 S
C457 C451 1.428 1_554 S
C457 N456 1.354 1_554 S
C457 C458 1.434 1_655 S
C458 C449 1.429 1_565 S
C458 N455 1.350 . S
C458 C457 1.434 1_455 S
C459 C460 1.369 . S
C459 C461 1.419 . S
C459 H463 0.930 . S
C460 C459 1.369 . S
C460 C469 1.429 . S
C461 C459 1.419 . S
C461 C462 1.363 . S
C461 H464 0.929 . S
C462 C461 1.363 . S
C462 C468 1.428 . S
H463 C459 0.930 . S
H464 C461 0.929 . S
S465 N466 1.613 . S
S465 N467 1.610 . S
N466 S465 1.613 . S
N466 C469 1.350 . S
N467 S465 1.610 . S
N467 C468 1.351 . S
C468 C462 1.428 . S
C468 N467 1.351 . S
C468 C469 1.434 . S
C469 C460 1.429 . S
C469 N466 1.350 . S
C469 C468 1.434 . S
C470 C471 1.369 1_545 S
C470 C472 1.419 . S
C470 H474 0.930 . S
C471 C470 1.369 1_565 S
C471 C480 1.429 . S
C472 C470 1.419 . S
C472 C473 1.363 . S
C472 H475 0.929 . S
C473 C472 1.363 . S
C473 C479 1.428 1_545 S
H474 C470 0.930 . S
H475 C472 0.929 . S
S476 N477 1.613 . S
S476 N478 1.610 . S
N477 S476 1.613 . S
N477 C480 1.350 . S
N478 S476 1.610 . S
N478 C479 1.351 . S
C479 C473 1.428 1_565 S
C479 N478 1.351 . S
C479 C480 1.434 . S
C480 C471 1.429 . S
C480 N477 1.350 . S
C480 C479 1.434 . S
C481 C482 1.369 . S
C481 C483 1.419 . S
C481 H485 0.930 . S
C482 C481 1.369 . S
C482 C491 1.429 . S
C483 C481 1.419 . S
C483 C484 1.363 . S
C483 H486 0.929 . S
C484 C483 1.363 . S
C484 C490 1.428 . S
H485 C481 0.930 . S
H486 C483 0.929 . S
S487 N488 1.613 . S
S487 N489 1.610 . S
N488 S487 1.613 . S
N488 C491 1.350 . S
N489 S487 1.610 . S
N489 C490 1.351 . S
C490 C484 1.428 . S
C490 N489 1.351 . S
C490 C491 1.434 . S
C491 C482 1.429 . S
C491 N488 1.350 . S
C491 C490 1.434 . S
C492 C493 1.369 1_545 S
C492 C494 1.419 1_455 S
C492 H496 0.930 . S
C493 C492 1.369 1_565 S
C493 C502 1.429 . S
C494 C492 1.419 1_655 S
C494 C495 1.363 . S
C494 H497 0.929 . S
C495 C494 1.363 . S
C495 C501 1.428 1_545 S
H496 C492 0.930 . S
H497 C494 0.929 . S
S498 N499 1.610 1_655 S
S498 N500 1.610 . S
N499 S498 1.610 1_455 S
N499 C502 1.350 . S
N500 S498 1.610 . S
N500 C501 1.351 . S
C501 C495 1.428 1_565 S
C501 N500 1.351 . S
C501 C502 1.434 1_655 S
C502 C493 1.429 . S
C502 N499 1.350 . S
C502 C501 1.434 1_455 S
C503 C504 1.369 . S
C503 C505 1.419 . S
C503 H507 0.930 . S
C504 C503 1.369 . S
C504 C513 1.429 . S
C505 C503 1.419 . S
C505 C506 1.363 . S
C505 H508 0.929 . S
C506 C505 1.363 . S
C506 C512 1.428 . S
H507 C503 0.930 . S
H508 C505 0.929 . S
S509 N510 1.613 . S
S509 N511 1.610 . S
N510 S509 1.613 . S
N510 C513 1.350 . S
N511 S509 1.610 . S
N511 C512 1.351 . S
C512 C506 1.428 . S
C512 N511 1.351 . S
C512 C513 1.434 . S
C513 C504 1.429 . S
C513 N510 1.350 . S
C513 C512 1.434 . S
C514 C515 1.369 1_565 S
C514 C516 1.419 . S
C514 H518 0.930 . S
C515 C514 1.369 1_545 S
C515 C524 1.429 . S
C516 C514 1.419 . S
C516 C517 1.363 1_556 S
C516 H519 0.929 . S
C517 C516 1.363 1_554 S
C517 C523 1.428 1_565 S
H518 C514 0.930 . S
H519 C516 0.929 . S
S520 N521 1.613 1_554 S
S520 N522 1.610 . S
N521 S520 1.613 1_556 S
N521 C524 1.350 . S
N522 S520 1.610 . S
N522 C523 1.351 . S
C523 C517 1.428 1_545 S
C523 N522 1.351 . S
C523 C524 1.434 1_554 S
C524 C515 1.429 . S
C524 N521 1.350 . S
C524 C523 1.434 1_556 S
C525 C526 1.369 . S
C525 C527 1.419 . S
C525 H529 0.930 . S
C526 C525 1.369 . S
C526 C535 1.429 . S
C527 C525 1.419 . S
C527 C528 1.363 . S
C527 H530 0.929 . S
C528 C527 1.363 . S
C528 C534 1.428 . S
H529 C525 0.930 . S
H530 C527 0.929 . S
S531 N532 1.613 . S
S531 N533 1.610 . S
N532 S531 1.613 . S
N532 C535 1.350 . S
N533 S531 1.610 . S
N533 C534 1.351 . S
C534 C528 1.428 . S
C534 N533 1.351 . S
C534 C535 1.434 . S
C535 C526 1.429 . S
C535 N532 1.350 . S
C535 C534 1.434 . S
C536 C537 1.369 1_556 S
C536 C538 1.419 . S
C536 H540 0.930 . S
C537 C536 1.369 1_554 S
C537 C546 1.429 . S
C538 C536 1.419 . S
C538 C539 1.363 . S
C538 H541 0.929 . S
C539 C538 1.363 . S
C539 C545 1.428 1_556 S
H540 C536 0.930 . S
H541 C538 0.929 . S
S542 N543 1.613 . S
S542 N544 1.610 . S
N543 S542 1.613 . S
N543 C546 1.350 . S
N544 S542 1.610 . S
N544 C545 1.351 . S
C545 C539 1.428 1_554 S
C545 N544 1.351 . S
C545 C546 1.434 . S
C546 C537 1.429 . S
C546 N543 1.350 . S
C546 C545 1.434 . S
C547 C548 1.369 . S
C547 C549 1.419 . S
C547 H551 0.930 . S
C548 C547 1.369 . S
C548 C557 1.429 . S
C549 C547 1.419 . S
C549 C550 1.363 . S
C549 H552 0.929 . S
C550 C549 1.363 . S
C550 C556 1.428 . S
H551 C547 0.930 . S
H552 C549 0.929 . S
S553 N554 1.613 . S
S553 N555 1.610 . S
N554 S553 1.613 . S
N554 C557 1.350 . S
N555 S553 1.610 . S
N555 C556 1.351 . S
C556 C550 1.428 . S
C556 N555 1.351 . S
C556 C557 1.434 . S
C557 C548 1.429 . S
C557 N554 1.350 . S
C557 C556 1.434 . S
C558 C559 1.369 . S
C558 C560 1.423 . S
C558 H562 0.930 . S
C559 C558 1.369 . S
C559 C568 1.429 . S
C560 C558 1.423 . S
C560 C561 1.359 1_455 S
C560 H563 0.929 . S
C561 C560 1.359 1_655 S
C561 C567 1.428 . S
H562 C558 0.930 . S
H563 C560 0.929 . S
S564 N565 1.607 1_655 S
S564 N566 1.610 . S
N565 S564 1.607 1_455 S
N565 C568 1.350 . S
N566 S564 1.610 . S
N566 C567 1.351 . S
C567 C561 1.428 . S
C567 N566 1.351 . S
C567 C568 1.434 1_655 S
C568 C559 1.429 . S
C568 N565 1.350 . S
C568 C567 1.434 1_455 S
C569 C570 1.369 . S
C569 C571 1.419 . S
C569 H573 0.930 . S
C570 C569 1.369 . S
C570 C579 1.429 . S
C571 C569 1.419 . S
C571 C572 1.363 . S
C571 H574 0.929 . S
C572 C571 1.363 . S
C572 C578 1.428 . S
H573 C569 0.930 . S
H574 C571 0.929 . S
S575 N576 1.613 . S
S575 N577 1.610 . S
N576 S575 1.613 . S
N576 C579 1.350 . S
N577 S575 1.610 . S
N577 C578 1.351 . S
C578 C572 1.428 . S
C578 N577 1.351 . S
C578 C579 1.434 . S
C579 C570 1.429 . S
C579 N576 1.350 . S
C579 C578 1.434 . S
C580 C581 1.369 . S
C580 C582 1.419 . S
C580 H584 0.930 . S
C581 C580 1.369 . S
C581 C590 1.429 . S
C582 C580 1.419 . S
C582 C583 1.363 . S
C582 H585 0.929 . S
C583 C582 1.363 . S
C583 C589 1.428 . S
H584 C580 0.930 . S
H585 C582 0.929 . S
S586 N587 1.613 . S
S586 N588 1.610 . S
N587 S586 1.613 . S
N587 C590 1.350 . S
N588 S586 1.610 . S
N588 C589 1.351 . S
C589 C583 1.428 . S
C589 N588 1.351 . S
C589 C590 1.434 . S
C590 C581 1.429 . S
C590 N587 1.350 . S
C590 C589 1.434 . S
C591 C592 1.369 . S
C591 C593 1.419 . S
C591 H595 0.930 . S
C592 C591 1.369 . S
C592 C601 1.429 . S
C593 C591 1.419 . S
C593 C594 1.363 . S
C593 H596 0.929 . S
C594 C593 1.363 . S
C594 C600 1.428 . S
H595 C591 0.930 . S
H596 C593 0.929 . S
S597 N598 1.613 . S
S597 N599 1.610 . S
N598 S597 1.613 . S
N598 C601 1.350 . S
N599 S597 1.610 . S
N599 C600 1.351 . S
C600 C594 1.428 . S
C600 N599 1.351 . S
C600 C601 1.434 . S
C601 C592 1.429 . S
C601 N598 1.350 . S
C601 C600 1.434 . S
C602 C603 1.369 . S
C602 C604 1.419 . S
C602 H606 0.930 . S
C603 C602 1.369 . S
C603 C612 1.429 . S
C604 C602 1.419 . S
C604 C605 1.363 . S
C604 H607 0.929 . S
C605 C604 1.363 . S
C605 C611 1.428 . S
H606 C602 0.930 . S
H607 C604 0.929 . S
S608 N609 1.613 . S
S608 N610 1.610 . S
N609 S608 1.613 . S
N609 C612 1.350 . S
N610 S608 1.610 . S
N610 C611 1.351 . S
C611 C605 1.428 . S
C611 N610 1.351 . S
C611 C612 1.434 . S
C612 C603 1.429 . S
C612 N609 1.350 . S
C612 C611 1.434 . S
C613 C614 1.369 1_554 S
C613 C615 1.419 . S
C613 H617 0.930 . S
C614 C613 1.369 1_556 S
C614 C623 1.429 1_455 S
C615 C613 1.419 . S
C615 C616 1.363 1_455 S
C615 H618 0.929 . S
C616 C615 1.363 1_655 S
C616 C622 1.430 . S
H617 C613 0.930 . S
H618 C615 0.929 . S
S619 N620 1.613 . S
S619 N621 1.610 . S
N620 S619 1.613 . S
N620 C623 1.350 . S
N621 S619 1.610 . S
N621 C622 1.351 1_556 S
C622 C616 1.430 . S
C622 N621 1.351 1_554 S
C622 C623 1.433 1_554 S
C623 C614 1.429 1_655 S
C623 N620 1.350 . S
C623 C622 1.433 1_556 S
C624 C625 1.369 . S
C624 C626 1.419 1_545 S
C624 H628 0.930 . S
C625 C624 1.369 . S
C625 C634 1.429 1_545 S
C626 C624 1.419 1_565 S
C626 C627 1.363 . S
C626 H629 0.929 . S
C627 C626 1.363 . S
C627 C633 1.428 . S
H628 C624 0.930 . S
H629 C626 0.929 . S
S630 N631 1.613 . S
S630 N632 1.610 . S
N631 S630 1.613 . S
N631 C634 1.350 . S
N632 S630 1.610 . S
N632 C633 1.351 . S
C633 C627 1.428 . S
C633 N632 1.351 . S
C633 C634 1.434 . S
C634 C625 1.429 1_565 S
C634 N631 1.350 . S
C634 C633 1.434 . S
C635 C636 1.369 . S
C635 C637 1.419 . S
C635 H639 0.930 . S
C636 C635 1.369 . S
C636 C645 1.429 . S
C637 C635 1.419 . S
C637 C638 1.363 . S
C637 H640 0.929 . S
C638 C637 1.363 . S
C638 C644 1.428 . S
H639 C635 0.930 . S
H640 C637 0.929 . S
S641 N642 1.613 . S
S641 N643 1.610 . S
N642 S641 1.613 . S
N642 C645 1.350 . S
N643 S641 1.610 . S
N643 C644 1.351 . S
C644 C638 1.428 . S
C644 N643 1.351 . S
C644 C645 1.434 . S
C645 C636 1.429 . S
C645 N642 1.350 . S
C645 C644 1.434 . S
C646 C647 1.369 . S
C646 C648 1.419 1_545 S
C646 H650 0.930 . S
C647 C646 1.369 . S
C647 C656 1.429 . S
C648 C646 1.419 1_565 S
C648 C649 1.363 . S
C648 H651 0.929 . S
C649 C648 1.363 . S
C649 C655 1.428 1_565 S
H650 C646 0.930 . S
H651 C648 0.929 . S
S652 N653 1.613 . S
S652 N654 1.610 . S
N653 S652 1.613 . S
N653 C656 1.350 . S
N654 S652 1.610 . S
N654 C655 1.351 . S
C655 C649 1.428 1_545 S
C655 N654 1.351 . S
C655 C656 1.434 . S
C656 C647 1.429 . S
C656 N653 1.350 . S
C656 C655 1.434 . S
C657 C658 1.369 . S
C657 C659 1.419 1_556 S
C657 H661 0.930 . S
C658 C657 1.369 . S
C658 C667 1.429 . S
C659 C657 1.419 1_554 S
C659 C660 1.363 . S
C659 H662 0.929 . S
C660 C659 1.363 . S
C660 C666 1.428 1_554 S
H661 C657 0.930 . S
H662 C659 0.929 . S
S663 N664 1.613 . S
S663 N665 1.610 . S
N664 S663 1.613 . S
N664 C667 1.350 . S
N665 S663 1.610 . S
N665 C666 1.351 . S
C666 C660 1.428 1_556 S
C666 N665 1.351 . S
C666 C667 1.434 . S
C667 C658 1.429 . S
C667 N664 1.350 . S
C667 C666 1.434 . S
C668 C669 1.369 . S
C668 C670 1.419 . S
C668 H672 0.930 . S
C669 C668 1.369 . S
C669 C678 1.429 . S
C670 C668 1.419 . S
C670 C671 1.363 1_545 S
C670 H673 0.929 . S
C671 C670 1.363 1_565 S
C671 C677 1.428 . S
H672 C668 0.930 . S
H673 C670 0.929 . S
S674 N675 1.613 1_565 S
S674 N676 1.610 . S
N675 S674 1.613 1_545 S
N675 C678 1.350 . S
N676 S674 1.610 . S
N676 C677 1.351 . S
C677 C671 1.428 . S
C677 N676 1.351 . S
C677 C678 1.434 1_565 S
C678 C669 1.429 . S
C678 N675 1.350 . S
C678 C677 1.434 1_545 S
C679 C680 1.369 . S
C679 C681 1.419 . S
C679 H683 0.930 . S
C680 C679 1.369 . S
C680 C689 1.429 . S
C681 C679 1.419 . S
C681 C682 1.363 . S
C681 H684 0.929 . S
C682 C681 1.363 . S
C682 C688 1.428 . S
H683 C679 0.930 . S
H684 C681 0.929 . S
S685 N686 1.613 . S
S685 N687 1.610 . S
N686 S685 1.613 . S
N686 C689 1.350 . S
N687 S685 1.610 . S
N687 C688 1.351 . S
C688 C682 1.428 . S
C688 N687 1.351 . S
C688 C689 1.434 . S
C689 C680 1.429 . S
C689 N686 1.350 . S
C689 C688 1.434 . S
C690 C691 1.369 . S
C690 C692 1.419 1_545 S
C690 H694 0.930 . S
C691 C690 1.369 . S
C691 C700 1.429 1_545 S
C692 C690 1.419 1_565 S
C692 C693 1.363 . S
C692 H695 0.929 . S
C693 C692 1.363 . S
C693 C699 1.428 . S
H694 C690 0.930 . S
H695 C692 0.929 . S
S696 N697 1.613 . S
S696 N698 1.610 . S
N697 S696 1.613 . S
N697 C700 1.350 . S
N698 S696 1.610 . S
N698 C699 1.351 . S
C699 C693 1.428 . S
C699 N698 1.351 . S
C699 C700 1.434 . S
C700 C691 1.429 1_565 S
C700 N697 1.350 . S
C700 C699 1.434 . S
C701 C702 1.369 . S
C701 C703 1.419 1_556 S
C701 H705 0.930 . S
C702 C701 1.369 . S
C702 C711 1.429 1_556 S
C703 C701 1.419 1_554 S
C703 C704 1.363 . S
C703 H706 0.929 1_554 S
C704 C703 1.363 . S
C704 C710 1.428 . S
H705 C701 0.930 . S
H706 C703 0.929 1_556 S
S707 N708 1.613 . S
S707 N709 1.610 . S
N708 S707 1.613 . S
N708 C711 1.350 . S
N709 S707 1.610 . S
N709 C710 1.351 . S
C710 C704 1.428 . S
C710 N709 1.351 . S
C710 C711 1.434 . S
C711 C702 1.429 1_554 S
C711 N708 1.350 . S
C711 C710 1.434 . S
C712 C713 1.369 . S
C712 C714 1.419 . S
C712 H716 0.930 . S
C713 C712 1.369 . S
C713 C722 1.429 . S
C714 C712 1.419 . S
C714 C715 1.363 1_655 S
C714 H717 0.929 . S
C715 C714 1.363 1_455 S
C715 C721 1.428 . S
H716 C712 0.930 . S
H717 C714 0.929 . S
S718 N719 1.613 1_455 S
S718 N720 1.610 . S
N719 S718 1.613 1_655 S
N719 C722 1.350 . S
N720 S718 1.610 . S
N720 C721 1.351 . S
C721 C715 1.428 . S
C721 N720 1.351 . S
C721 C722 1.434 1_455 S
C722 C713 1.429 . S
C722 N719 1.350 . S
C722 C721 1.434 1_655 S
C723 C724 1.369 . S
C723 C725 1.419 . S
C723 H727 0.930 . S
C724 C723 1.369 . S
C724 C733 1.429 . S
C725 C723 1.419 . S
C725 C726 1.363 . S
C725 H728 0.929 . S
C726 C725 1.363 . S
C726 C732 1.428 . S
H727 C723 0.930 . S
H728 C725 0.929 . S
S729 N730 1.613 . S
S729 N731 1.610 . S
N730 S729 1.613 . S
N730 C733 1.350 . S
N731 S729 1.610 . S
N731 C732 1.351 . S
C732 C726 1.428 . S
C732 N731 1.351 . S
C732 C733 1.434 . S
C733 C724 1.429 . S
C733 N730 1.350 . S
C733 C732 1.434 . S
C734 C735 1.369 . S
C734 C736 1.419 1_655 S
C734 H738 0.930 . S
C735 C734 1.369 . S
C735 C744 1.429 1_655 S
C736 C734 1.419 1_455 S
C736 C737 1.363 . S
C736 H739 0.929 1_455 S
C737 C736 1.363 . S
C737 C743 1.428 . S
H738 C734 0.930 . S
H739 C736 0.929 1_655 S
S740 N741 1.613 . S
S740 N742 1.610 . S
N741 S740 1.613 . S
N741 C744 1.350 . S
N742 S740 1.610 . S
N742 C743 1.351 . S
C743 C737 1.428 . S
C743 N742 1.351 . S
C743 C744 1.434 . S
C744 C735 1.429 1_455 S
C744 N741 1.350 . S
C744 C743 1.434 . S
C745 C746 1.369 . S
C745 C747 1.419 . S
C745 H749 0.930 . S
C746 C745 1.369 . S
C746 C755 1.429 . S
C747 C745 1.419 . S
C747 C748 1.363 . S
C747 H750 0.929 . S
C748 C747 1.363 . S
C748 C754 1.428 . S
H749 C745 0.930 . S
H750 C747 0.929 . S
S751 N752 1.613 1_455 S
S751 N753 1.610 . S
N752 S751 1.613 1_655 S
N752 C755 1.350 1_655 S
N753 S751 1.610 . S
N753 C754 1.351 . S
C754 C748 1.428 . S
C754 N753 1.351 . S
C754 C755 1.434 . S
C755 C746 1.429 . S
C755 N752 1.350 1_455 S
C755 C754 1.434 . S
C756 C757 1.369 . S
C756 C758 1.419 . S
C756 H760 0.930 . S
C757 C756 1.369 . S
C757 C766 1.429 . S
C758 C756 1.419 . S
C758 C759 1.363 . S
C758 H761 0.929 . S
C759 C758 1.363 . S
C759 C765 1.428 . S
H760 C756 0.930 . S
H761 C758 0.929 . S
S762 N763 1.613 . S
S762 N764 1.610 . S
N763 S762 1.613 . S
N763 C766 1.350 . S
N764 S762 1.610 . S
N764 C765 1.351 . S
C765 C759 1.428 . S
C765 N764 1.351 . S
C765 C766 1.434 . S
C766 C757 1.429 . S
C766 N763 1.350 . S
C766 C765 1.434 . S
C767 C768 1.369 . S
C767 C769 1.419 . S
C767 H771 0.930 . S
C768 C767 1.369 . S
C768 C777 1.429 . S
C769 C767 1.419 . S
C769 C770 1.363 1_655 S
C769 H772 0.929 . S
C770 C769 1.363 1_455 S
C770 C776 1.428 . S
H771 C767 0.930 . S
H772 C769 0.929 . S
S773 N774 1.613 . S
S773 N775 1.610 . S
N774 S773 1.613 . S
N774 C777 1.350 1_455 S
N775 S773 1.610 . S
N775 C776 1.351 . S
C776 C770 1.428 . S
C776 N775 1.351 . S
C776 C777 1.434 1_455 S
C777 C768 1.429 . S
C777 N774 1.350 1_655 S
C777 C776 1.434 1_655 S
C778 C779 1.369 . S
C778 C780 1.419 . S
C778 H782 0.930 . S
C779 C778 1.369 . S
C779 C788 1.429 . S
C780 C778 1.419 . S
C780 C781 1.363 . S
C780 H783 0.929 . S
C781 C780 1.363 . S
C781 C787 1.428 . S
H782 C778 0.930 . S
H783 C780 0.929 . S
S784 N785 1.613 . S
S784 N786 1.610 . S
N785 S784 1.613 . S
N785 C788 1.350 . S
N786 S784 1.610 . S
N786 C787 1.351 . S
C787 C781 1.428 . S
C787 N786 1.351 . S
C787 C788 1.434 . S
C788 C779 1.429 . S
C788 N785 1.350 . S
C788 C787 1.434 . S
C789 C790 1.369 . S
C789 C791 1.419 1_545 S
C789 H793 0.930 . S
C790 C789 1.369 . S
C790 C799 1.429 . S
C791 C789 1.419 1_565 S
C791 C792 1.363 . S
C791 H794 0.929 . S
C792 C791 1.363 . S
C792 C798 1.428 1_565 S
H793 C789 0.930 . S
H794 C791 0.929 . S
S795 N796 1.613 . S
S795 N797 1.610 . S
N796 S795 1.613 . S
N796 C799 1.350 . S
N797 S795 1.610 . S
N797 C798 1.351 . S
C798 C792 1.428 1_545 S
C798 N797 1.351 . S
C798 C799 1.434 . S
C799 C790 1.429 . S
C799 N796 1.350 . S
C799 C798 1.434 . S
C800 C801 1.369 . S
C800 C802 1.419 . S
C800 H804 0.930 . S
C801 C800 1.369 . S
C801 C810 1.429 . S
C802 C800 1.419 . S
C802 C803 1.363 . S
C802 H805 0.929 . S
C803 C802 1.363 . S
C803 C809 1.428 . S
H804 C800 0.930 . S
H805 C802 0.929 . S
S806 N807 1.613 . S
S806 N808 1.610 . S
N807 S806 1.613 . S
N807 C810 1.350 . S
N808 S806 1.610 . S
N808 C809 1.351 . S
C809 C803 1.428 . S
C809 N808 1.351 . S
C809 C810 1.434 . S
C810 C801 1.429 . S
C810 N807 1.350 . S
C810 C809 1.434 . S
C811 C812 1.369 . S
C811 C813 1.419 1_565 S
C811 H815 0.930 . S
C812 C811 1.369 . S
C812 C821 1.429 . S
C813 C811 1.419 1_545 S
C813 C814 1.363 . S
C813 H816 0.929 . S
C814 C813 1.363 . S
C814 C820 1.428 1_545 S
H815 C811 0.930 . S
H816 C813 0.929 . S
S817 N818 1.613 . S
S817 N819 1.610 . S
N818 S817 1.613 . S
N818 C821 1.350 . S
N819 S817 1.610 . S
N819 C820 1.351 . S
C820 C814 1.428 1_565 S
C820 N819 1.351 . S
C820 C821 1.434 . S
C821 C812 1.429 . S
C821 N818 1.350 . S
C821 C820 1.434 . S
C822 C823 1.369 1_554 S
C822 C824 1.419 . S
C822 H826 0.930 . S
C823 C822 1.369 1_556 S
C823 C832 1.429 . S
C824 C822 1.419 . S
C824 C825 1.363 . S
C824 H827 0.929 . S
C825 C824 1.363 . S
C825 C831 1.428 . S
H826 C822 0.930 . S
H827 C824 0.929 . S
S828 N829 1.613 . S
S828 N830 1.610 1_556 S
N829 S828 1.613 . S
N829 C832 1.350 . S
N830 S828 1.610 1_554 S
N830 C831 1.351 . S
C831 C825 1.428 . S
C831 N830 1.351 . S
C831 C832 1.434 1_554 S
C832 C823 1.429 . S
C832 N829 1.350 . S
C832 C831 1.434 1_556 S
C833 C834 1.369 . S
C833 C835 1.419 1_545 S
C833 H837 0.930 . S
C834 C833 1.369 . S
C834 C843 1.429 1_545 S
C835 C833 1.419 1_565 S
C835 C836 1.363 . S
C835 H838 0.929 . S
C836 C835 1.363 . S
C836 C842 1.428 . S
H837 C833 0.930 . S
H838 C835 0.929 . S
S839 N840 1.613 . S
S839 N841 1.610 . S
N840 S839 1.613 . S
N840 C843 1.350 . S
N841 S839 1.610 . S
N841 C842 1.351 . S
C842 C836 1.428 . S
C842 N841 1.351 . S
C842 C843 1.434 . S
C843 C834 1.429 1_565 S
C843 N840 1.350 . S
C843 C842 1.434 . S
C844 C845 1.369 . S
C844 C846 1.419 . S
C844 H848 0.930 . S
C845 C844 1.369 . S
C845 C854 1.429 . S
C846 C844 1.419 . S
C846 C847 1.363 . S
C846 H849 0.929 . S
C847 C846 1.363 . S
C847 C853 1.428 . S
H848 C844 0.930 . S
H849 C846 0.929 . S
S850 N851 1.613 . S
S850 N852 1.610 . S
N851 S850 1.613 . S
N851 C854 1.350 . S
N852 S850 1.610 . S
N852 C853 1.351 . S
C853 C847 1.428 . S
C853 N852 1.351 . S
C853 C854 1.434 . S
C854 C845 1.429 . S
C854 N851 1.350 . S
C854 C853 1.434 . S
C855 C856 1.369 . S
C855 C857 1.419 1_565 S
C855 H859 0.930 . S
C856 C855 1.369 . S
C856 C865 1.429 1_565 S
C857 C855 1.419 1_545 S
C857 C858 1.363 . S
C857 H860 0.929 . S
C858 C857 1.363 . S
C858 C864 1.428 . S
H859 C855 0.930 . S
H860 C857 0.929 . S
S861 N862 1.613 . S
S861 N863 1.610 . S
N862 S861 1.613 . S
N862 C865 1.350 . S
N863 S861 1.610 . S
N863 C864 1.351 . S
C864 C858 1.428 . S
C864 N863 1.351 . S
C864 C865 1.434 . S
C865 C856 1.429 1_545 S
C865 N862 1.350 . S
C865 C864 1.434 . S
C866 C867 1.369 . S
C866 C868 1.419 1_554 S
C866 H870 0.930 . S
C867 C866 1.369 . S
C867 C876 1.429 1_554 S
C868 C866 1.419 1_556 S
C868 C869 1.363 . S
C868 H871 0.929 . S
C869 C868 1.363 . S
C869 C875 1.428 . S
H870 C866 0.930 . S
H871 C868 0.929 . S
S872 N873 1.613 . S
S872 N874 1.610 . S
N873 S872 1.613 . S
N873 C876 1.350 . S
N874 S872 1.610 . S
N874 C875 1.351 . S
C875 C869 1.428 . S
C875 N874 1.351 . S
C875 C876 1.434 . S
C876 C867 1.429 1_556 S
C876 N873 1.350 . S
C876 C875 1.434 . S
C877 C878 1.369 1_455 S
C877 C879 1.419 . S
C877 H881 0.930 . S
C878 C877 1.369 1_655 S
C878 C887 1.429 . S
C879 C877 1.419 . S
C879 C880 1.363 . S
C879 H882 0.929 . S
C880 C879 1.363 . S
C880 C886 1.428 . S
H881 C877 0.930 . S
H882 C879 0.929 . S
S883 N884 1.613 . S
S883 N885 1.586 1_655 S
N884 S883 1.613 . S
N884 C887 1.350 . S
N885 S883 1.586 1_455 S
N885 C886 1.356 . S
C886 C880 1.428 . S
C886 N885 1.356 . S
C886 C887 1.434 1_455 S
C887 C878 1.429 . S
C887 N884 1.350 . S
C887 C886 1.434 1_655 S
C888 C889 1.369 . S
C888 C890 1.419 . S
C888 H892 0.930 . S
C889 C888 1.369 . S
C889 C898 1.429 . S
C890 C888 1.419 . S
C890 C891 1.363 . S
C890 H893 0.929 . S
C891 C890 1.363 . S
C891 C897 1.428 . S
H892 C888 0.930 . S
H893 C890 0.929 . S
S894 N895 1.613 . S
S894 N896 1.610 . S
N895 S894 1.613 . S
N895 C898 1.350 . S
N896 S894 1.610 . S
N896 C897 1.351 . S
C897 C891 1.428 . S
C897 N896 1.351 . S
C897 C898 1.434 . S
C898 C889 1.429 . S
C898 N895 1.350 . S
C898 C897 1.434 . S
C899 C900 1.369 . S
C899 C901 1.419 1_455 S
C899 H903 0.930 . S
C900 C899 1.369 . S
C900 C909 1.429 1_455 S
C901 C899 1.419 1_655 S
C901 C902 1.363 . S
C901 H904 0.929 . S
C902 C901 1.363 . S
C902 C908 1.428 . S
H903 C899 0.930 . S
H904 C901 0.929 . S
S905 N906 1.613 . S
S905 N907 1.610 . S
N906 S905 1.613 . S
N906 C909 1.350 . S
N907 S905 1.610 . S
N907 C908 1.351 . S
C908 C902 1.428 . S
C908 N907 1.351 . S
C908 C909 1.434 . S
C909 C900 1.429 1_655 S
C909 N906 1.350 . S
C909 C908 1.434 . S
C910 C911 1.369 . S
C910 C912 1.419 1_455 S
C910 H914 0.930 . S
C911 C910 1.369 . S
C911 C920 1.429 1_455 S
C912 C910 1.419 1_655 S
C912 C913 1.363 . S
C912 H915 0.929 . S
C913 C912 1.363 . S
C913 C919 1.428 . S
H914 C910 0.930 . S
H915 C912 0.929 . S
S916 N917 1.613 . S
S916 N918 1.610 . S
N917 S916 1.613 . S
N917 C920 1.350 . S
N918 S916 1.610 . S
N918 C919 1.351 . S
C919 C913 1.428 . S
C919 N918 1.351 . S
C919 C920 1.434 . S
C920 C911 1.429 1_655 S
C920 N917 1.350 . S
C920 C919 1.434 . S
C921 C922 1.369 . S
C921 C923 1.419 . S
C921 H925 0.930 . S
C922 C921 1.369 . S
C922 C931 1.429 . S
C923 C921 1.419 . S
C923 C924 1.363 . S
C923 H926 0.929 . S
C924 C923 1.363 . S
C924 C930 1.428 . S
H925 C921 0.930 . S
H926 C923 0.929 . S
S927 N928 1.613 . S
S927 N929 1.610 . S
N928 S927 1.613 . S
N928 C931 1.350 . S
N929 S927 1.610 . S
N929 C930 1.351 . S
C930 C924 1.428 . S
C930 N929 1.351 . S
C930 C931 1.434 . S
C931 C922 1.429 . S
C931 N928 1.350 . S
C931 C930 1.434 . S
C932 C933 1.369 1_455 S
C932 C934 1.419 . S
C932 H936 0.930 . S
C933 C932 1.369 1_655 S
C933 C942 1.429 . S
C934 C932 1.419 . S
C934 C935 1.363 . S
C934 H937 0.929 . S
C935 C934 1.363 . S
C935 C941 1.428 . S
H936 C932 0.930 . S
H937 C934 0.929 . S
S938 N939 1.613 . S
S938 N940 1.610 . S
N939 S938 1.613 . S
N939 C942 1.350 . S
N940 S938 1.610 . S
N940 C941 1.351 1_655 S
C941 C935 1.428 . S
C941 N940 1.351 1_455 S
C941 C942 1.434 1_455 S
C942 C933 1.429 . S
C942 N939 1.350 . S
C942 C941 1.434 1_655 S
C943 C944 1.369 . S
C943 C945 1.419 . S
C943 H947 0.930 . S
C944 C943 1.369 . S
C944 C953 1.429 . S
C945 C943 1.419 . S
C945 C946 1.363 . S
C945 H948 0.929 . S
C946 C945 1.363 . S
C946 C952 1.428 . S
H947 C943 0.930 . S
H948 C945 0.929 . S
S949 N950 1.613 . S
S949 N951 1.610 . S
N950 S949 1.613 . S
N950 C953 1.350 . S
N951 S949 1.610 . S
N951 C952 1.351 . S
C952 C946 1.428 . S
C952 N951 1.351 . S
C952 C953 1.434 . S
C953 C944 1.429 . S
C953 N950 1.350 . S
C953 C952 1.434 . S
C954 C955 1.369 . S
C954 C956 1.419 . S
C954 H958 0.930 . S
C955 C954 1.369 . S
C955 C964 1.429 . S
C956 C954 1.419 . S
C956 C957 1.363 . S
C956 H959 0.929 . S
C957 C956 1.363 . S
C957 C963 1.428 . S
H958 C954 0.930 . S
H959 C956 0.929 . S
S960 N961 1.613 . S
S960 N962 1.610 . S
N961 S960 1.613 . S
N961 C964 1.350 . S
N962 S960 1.610 . S
N962 C963 1.351 . S
C963 C957 1.428 . S
C963 N962 1.351 . S
C963 C964 1.434 . S
C964 C955 1.429 . S
C964 N961 1.350 . S
C964 C963 1.434 . S
C965 C966 1.369 1_556 S
C965 C967 1.419 . S
C965 H969 0.930 1_556 S
C966 C965 1.369 1_554 S
C966 C975 1.429 1_554 S
C967 C965 1.419 . S
C967 C968 1.363 . S
C967 H970 0.929 . S
C968 C967 1.363 . S
C968 C974 1.428 . S
H969 C965 0.930 1_554 S
H970 C967 0.929 . S
S971 N972 1.613 1_556 S
S971 N973 1.610 . S
N972 S971 1.613 1_554 S
N972 C975 1.350 1_554 S
N973 S971 1.610 . S
N973 C974 1.351 . S
C974 C968 1.428 . S
C974 N973 1.351 . S
C974 C975 1.434 . S
C975 C966 1.429 1_556 S
C975 N972 1.350 1_556 S
C975 C974 1.434 . S
C976 C977 1.369 . S
C976 C978 1.419 . S
C976 H980 0.930 . S
C977 C976 1.369 . S
C977 C986 1.429 . S
C978 C976 1.419 . S
C978 C979 1.363 . S
C978 H981 0.929 . S
C979 C978 1.363 . S
C979 C985 1.428 . S
H980 C976 0.930 . S
H981 C978 0.929 . S
S982 N983 1.613 . S
S982 N984 1.610 . S
N983 S982 1.613 . S
N983 C986 1.350 . S
N984 S982 1.610 . S
N984 C985 1.351 . S
C985 C979 1.428 . S
C985 N984 1.351 . S
C985 C986 1.434 . S
C986 C977 1.429 . S
C986 N983 1.350 . S
C986 C985 1.434 . S
C987 C988 1.369 . S
C987 C989 1.419 . S
C987 H991 0.930 . S
C988 C987 1.369 . S
C988 C997 1.429 . S
C989 C987 1.419 . S
C989 C990 1.363 . S
C989 H992 0.929 . S
C990 C989 1.363 . S
C990 C996 1.428 . S
H991 C987 0.930 . S
H992 C989 0.929 . S
S993 N994 1.613 . S
S993 N995 1.610 . S
N994 S993 1.613 . S
N994 C997 1.350 . S
N995 S993 1.610 . S
N995 C996 1.351 . S
C996 C990 1.428 . S
C996 N995 1.351 . S
C996 C997 1.434 . S
C997 C988 1.429 . S
C997 N994 1.350 . S
C997 C996 1.434 . S
C998 C999 1.369 . S
C998 C1000 1.419 . S
C998 H1002 0.930 . S
C999 C998 1.369 . S
C999 C1008 1.429 . S
C1000 C998 1.419 . S
C1000 C1001 1.363 . S
C1000 H1003 0.929 . S
C1001 C1000 1.363 . S
C1001 C1007 1.428 . S
H1002 C998 0.930 . S
H1003 C1000 0.929 . S
S1004 N1005 1.613 . S
S1004 N1006 1.610 . S
N1005 S1004 1.613 . S
N1005 C1008 1.350 . S
N1006 S1004 1.610 . S
N1006 C1007 1.351 . S
C1007 C1001 1.428 . S
C1007 N1006 1.351 . S
C1007 C1008 1.434 . S
C1008 C999 1.429 . S
C1008 N1005 1.350 . S
C1008 C1007 1.434 . S
C1009 C1010 1.369 . S
C1009 C1011 1.419 . S
C1009 H1013 0.930 . S
C1010 C1009 1.369 . S
C1010 C1019 1.429 . S
C1011 C1009 1.419 . S
C1011 C1012 1.363 1_554 S
C1011 H1014 0.929 . S
C1012 C1011 1.363 1_556 S
C1012 C1018 1.428 . S
H1013 C1009 0.930 . S
H1014 C1011 0.929 . S
S1015 N1016 1.613 1_556 S
S1015 N1017 1.610 . S
N1016 S1015 1.613 1_554 S
N1016 C1019 1.350 . S
N1017 S1015 1.610 . S
N1017 C1018 1.351 . S
C1018 C1012 1.428 . S
C1018 N1017 1.351 . S
C1018 C1019 1.434 1_556 S
C1019 C1010 1.429 . S
C1019 N1016 1.350 . S
C1019 C1018 1.434 1_554 S
C1020 C1021 1.369 . S
C1020 C1022 1.419 . S
C1020 H1024 0.930 . S
C1021 C1020 1.369 . S
C1021 C1030 1.429 . S
C1022 C1020 1.419 . S
C1022 C1023 1.363 . S
C1022 H1025 0.929 . S
C1023 C1022 1.363 . S
C1023 C1029 1.428 . S
H1024 C1020 0.930 . S
H1025 C1022 0.929 . S
S1026 N1027 1.613 . S
S1026 N1028 1.610 . S
N1027 S1026 1.613 . S
N1027 C1030 1.350 . S
N1028 S1026 1.610 . S
N1028 C1029 1.351 . S
C1029 C1023 1.428 . S
C1029 N1028 1.351 . S
C1029 C1030 1.434 . S
C1030 C1021 1.429 . S
C1030 N1027 1.350 . S
C1030 C1029 1.434 . S
C1031 C1032 1.369 . S
C1031 C1033 1.419 . S
C1031 H1035 0.930 . S
C1032 C1031 1.369 . S
C1032 C1041 1.429 . S
C1033 C1031 1.419 . S
C1033 C1034 1.363 . S
C1033 H1036 0.929 . S
C1034 C1033 1.363 . S
C1034 C1040 1.428 . S
H1035 C1031 0.930 . S
H1036 C1033 0.929 . S
S1037 N1038 1.613 . S
S1037 N1039 1.610 . S
N1038 S1037 1.613 . S
N1038 C1041 1.350 . S
N1039 S1037 1.610 . S
N1039 C1040 1.351 . S
C1040 C1034 1.428 . S
C1040 N1039 1.351 . S
C1040 C1041 1.434 . S
C1041 C1032 1.429 . S
C1041 N1038 1.350 . S
C1041 C1040 1.434 . S
C1042 C1043 1.369 . S
C1042 C1044 1.419 . S
C1042 H1046 0.930 . S
C1043 C1042 1.369 . S
C1043 C1052 1.429 . S
C1044 C1042 1.419 . S
C1044 C1045 1.363 . S
C1044 H1047 0.929 . S
C1045 C1044 1.363 . S
C1045 C1051 1.428 . S
H1046 C1042 0.930 . S
H1047 C1044 0.929 . S
S1048 N1049 1.613 . S
S1048 N1050 1.610 . S
N1049 S1048 1.613 . S
N1049 C1052 1.350 . S
N1050 S1048 1.610 . S
N1050 C1051 1.351 . S
C1051 C1045 1.428 . S
C1051 N1050 1.351 . S
C1051 C1052 1.434 . S
C1052 C1043 1.429 . S
C1052 N1049 1.350 . S
C1052 C1051 1.434 . S
C1053 C1054 1.369 . S
C1053 C1055 1.419 . S
C1053 H1057 0.930 . S
C1054 C1053 1.369 . S
C1054 C1063 1.429 . S
C1055 C1053 1.419 . S
C1055 C1056 1.363 . S
C1055 H1058 0.929 . S
C1056 C1055 1.363 . S
C1056 C1062 1.428 . S
H1057 C1053 0.930 . S
H1058 C1055 0.929 . S
S1059 N1060 1.613 . S
S1059 N1061 1.610 . S
N1060 S1059 1.613 . S
N1060 C1063 1.350 . S
N1061 S1059 1.610 . S
N1061 C1062 1.351 . S
C1062 C1056 1.428 . S
C1062 N1061 1.351 . S
C1062 C1063 1.434 . S
C1063 C1054 1.429 . S
C1063 N1060 1.350 . S
C1063 C1062 1.434 . S
C1064 C1065 1.369 . S
C1064 C1066 1.419 . S
C1064 H1068 0.930 . S
C1065 C1064 1.369 . S
C1065 C1074 1.429 . S
C1066 C1064 1.419 . S
C1066 C1067 1.363 1_554 S
C1066 H1069 0.929 . S
C1067 C1066 1.363 1_556 S
C1067 C1073 1.428 . S
H1068 C1064 0.930 . S
H1069 C1066 0.929 . S
S1070 N1071 1.613 1_556 S
S1070 N1072 1.610 . S
N1071 S1070 1.613 1_554 S
N1071 C1074 1.350 . S
N1072 S1070 1.610 . S
N1072 C1073 1.351 . S
C1073 C1067 1.428 . S
C1073 N1072 1.351 . S
C1073 C1074 1.434 1_556 S
C1074 C1065 1.429 . S
C1074 N1071 1.350 . S
C1074 C1073 1.434 1_554 S
C1075 C1076 1.369 . S
C1075 C1077 1.419 . S
C1075 H1079 0.930 . S
C1076 C1075 1.369 . S
C1076 C1085 1.429 . S
C1077 C1075 1.419 . S
C1077 C1078 1.363 . S
C1077 H1080 0.929 . S
C1078 C1077 1.363 . S
C1078 C1084 1.428 . S
H1079 C1075 0.930 . S
H1080 C1077 0.929 . S
S1081 N1082 1.613 . S
S1081 N1083 1.610 . S
N1082 S1081 1.613 . S
N1082 C1085 1.350 . S
N1083 S1081 1.610 . S
N1083 C1084 1.351 . S
C1084 C1078 1.428 . S
C1084 N1083 1.351 . S
C1084 C1085 1.434 . S
C1085 C1076 1.429 . S
C1085 N1082 1.350 . S
C1085 C1084 1.434 . S
C1086 C1087 1.369 . S
C1086 C1088 1.419 . S
C1086 H1090 0.930 . S
C1087 C1086 1.369 . S
C1087 C1096 1.429 . S
C1088 C1086 1.419 . S
C1088 C1089 1.363 . S
C1088 H1091 0.929 . S
C1089 C1088 1.363 . S
C1089 C1095 1.428 . S
H1090 C1086 0.930 . S
H1091 C1088 0.929 . S
S1092 N1093 1.613 . S
S1092 N1094 1.610 . S
N1093 S1092 1.613 . S
N1093 C1096 1.350 . S
N1094 S1092 1.610 . S
N1094 C1095 1.351 . S
C1095 C1089 1.428 . S
C1095 N1094 1.351 . S
C1095 C1096 1.434 . S
C1096 C1087 1.429 . S
C1096 N1093 1.350 . S
C1096 C1095 1.434 . S
C1097 C1098 1.369 . S
C1097 C1099 1.419 . S
C1097 H1101 0.930 . S
C1098 C1097 1.369 . S
C1098 C1107 1.429 . S
C1099 C1097 1.419 . S
C1099 C1100 1.363 . S
C1099 H1102 0.929 . S
C1100 C1099 1.363 . S
C1100 C1106 1.428 . S
H1101 C1097 0.930 . S
H1102 C1099 0.929 . S
S1103 N1104 1.613 . S
S1103 N1105 1.610 . S
N1104 S1103 1.613 . S
N1104 C1107 1.350 . S
N1105 S1103 1.610 . S
N1105 C1106 1.351 . S
C1106 C1100 1.428 . S
C1106 N1105 1.351 . S
C1106 C1107 1.434 . S
C1107 C1098 1.429 . S
C1107 N1104 1.350 . S
C1107 C1106 1.434 . S
C1108 C1109 1.369 1_556 S
C1108 C1110 1.419 . S
C1108 H1112 0.930 . S
C1109 C1108 1.369 1_554 S
C1109 C1118 1.429 . S
C1110 C1108 1.419 . S
C1110 C1111 1.363 . S
C1110 H1113 0.929 . S
C1111 C1110 1.363 . S
C1111 C1117 1.428 . S
H1112 C1108 0.930 . S
H1113 C1110 0.929 . S
S1114 N1115 1.613 . S
S1114 N1116 1.610 1_554 S
N1115 S1114 1.613 . S
N1115 C1118 1.350 . S
N1116 S1114 1.610 1_556 S
N1116 C1117 1.351 . S
C1117 C1111 1.428 . S
C1117 N1116 1.351 . S
C1117 C1118 1.434 1_556 S
C1118 C1109 1.429 . S
C1118 N1115 1.350 . S
C1118 C1117 1.434 1_554 S
C1119 C1120 1.369 . S
C1119 C1121 1.419 . S
C1119 H1123 0.930 . S
C1120 C1119 1.369 . S
C1120 C1129 1.429 . S
C1121 C1119 1.419 . S
C1121 C1122 1.363 . S
C1121 H1124 0.929 . S
C1122 C1121 1.363 . S
C1122 C1128 1.428 . S
H1123 C1119 0.930 . S
H1124 C1121 0.929 . S
S1125 N1126 1.613 . S
S1125 N1127 1.610 . S
N1126 S1125 1.613 . S
N1126 C1129 1.350 . S
N1127 S1125 1.610 . S
N1127 C1128 1.351 . S
C1128 C1122 1.428 . S
C1128 N1127 1.351 . S
C1128 C1129 1.434 . S
C1129 C1120 1.429 . S
C1129 N1126 1.350 . S
C1129 C1128 1.434 . S
C1130 C1131 1.369 . S
C1130 C1132 1.419 . S
C1130 H1134 0.930 . S
C1131 C1130 1.369 . S
C1131 C1140 1.429 . S
C1132 C1130 1.419 . S
C1132 C1133 1.363 . S
C1132 H1135 0.929 . S
C1133 C1132 1.363 . S
C1133 C1139 1.428 . S
H1134 C1130 0.930 . S
H1135 C1132 0.929 . S
S1136 N1137 1.613 . S
S1136 N1138 1.610 . S
N1137 S1136 1.613 . S
N1137 C1140 1.350 . S
N1138 S1136 1.610 . S
N1138 C1139 1.351 . S
C1139 C1133 1.428 . S
C1139 N1138 1.351 . S
C1139 C1140 1.434 . S
C1140 C1131 1.429 . S
C1140 N1137 1.350 . S
C1140 C1139 1.434 . S
C1141 C1142 1.369 . S
C1141 C1143 1.419 . S
C1141 H1145 0.930 . S
C1142 C1141 1.369 . S
C1142 C1151 1.429 . S
C1143 C1141 1.419 . S
C1143 C1144 1.363 . S
C1143 H1146 0.929 . S
C1144 C1143 1.363 . S
C1144 C1150 1.428 . S
H1145 C1141 0.930 . S
H1146 C1143 0.929 . S
S1147 N1148 1.613 . S
S1147 N1149 1.610 . S
N1148 S1147 1.613 . S
N1148 C1151 1.350 . S
N1149 S1147 1.610 . S
N1149 C1150 1.351 . S
C1150 C1144 1.428 . S
C1150 N1149 1.351 . S
C1150 C1151 1.434 . S
C1151 C1142 1.429 . S
C1151 N1148 1.350 . S
C1151 C1150 1.434 . S
C449 C8 1.176 . S
C451 C190 1.181 . S
C460 C358 1.304 . S
C462 C22 1.316 . S
C471 C36 1.292 . S
C473 C218 1.285 . S
C482 C50 1.382 . S
C484 C344 1.373 . S
C493 C64 1.418 . S
C495 C246 1.402 . S
C504 C78 1.390 . S
C506 C316 1.380 . S
C515 C92 1.371 . S
C517 C274 1.372 . S
C526 C442 1.182 . S
C528 C106 1.180 . S
C537 C302 1.396 . S
C539 C120 1.415 . S
C548 C134 1.389 . S
C550 C260 1.377 . S
C559 C330 1.377 . S
C561 C148 1.372 . S
C570 C162 1.376 . S
C572 C232 1.377 . S
C581 C204 1.304 . S
C583 C176 1.317 . S
C592 C288 1.178 . S
C594 C400 1.175 . S
C603 C414 1.181 . S
C605 C372 1.175 . S
C614 C428 1.290 . S
C616 C386 1.290 . S
C625 C13 1.480 . S
C627 C27 1.478 . S
C636 C39 1.612 . S
C638 C21 1.620 . S
C647 C55 1.489 . S
C649 C41 1.479 . S
C658 C49 1.602 . S
C660 C11 1.583 . S
C669 C105 1.671 . S
C671 C69 1.488 . S
C680 C81 1.329 . S
C682 C67 1.324 . S
C691 C91 1.484 . S
C693 C77 1.486 . S
C702 C97 1.266 . S
C704 C109 1.432 . S
C713 C139 1.292 . S
C715 C7 1.455 . S
C724 C119 1.601 . S
C726 C53 1.589 . S
C735 C151 1.420 . S
C737 C25 1.415 . S
C746 C385 1.598 1_455 S
C748 C111 1.435 . S
C757 C405 1.429 . S
C759 C35 1.599 . S
C768 C165 1.589 . S
C770 C63 1.600 . S
C779 C95 1.421 . S
C781 C179 1.415 . S
C790 C203 1.475 . S
C792 C195 1.401 . S
C801 C217 1.527 . S
C803 C209 1.451 . S
C812 C237 1.442 . S
C814 C223 1.436 . S
C823 C189 1.543 . S
C825 C235 1.540 . S
C834 C245 1.531 . S
C836 C293 1.431 . S
C845 C249 1.460 . S
C847 C263 1.452 . S
C856 C279 1.503 . S
C858 C265 1.496 . S
C867 C273 1.505 . S
C869 C291 1.512 . S
C878 C193 1.610 . S
C880 C315 1.606 . S
C889 C307 1.448 . S
C891 C231 1.539 . S
C900 C333 1.401 . S
C902 C207 1.395 . S
C911 C431 1.595 . S
C913 C287 1.587 . S
C922 C441 1.593 . S
C924 C221 1.590 . S
C933 C251 1.458 . S
C935 C343 1.539 . S
C944 C361 1.398 . S
C946 C277 1.397 . S
C955 C181 1.481 . S
C957 C377 1.478 . S
C966 C389 1.610 . S
C968 C175 1.621 . S
C977 C167 1.477 . S
C979 C391 1.487 . S
C988 C161 1.601 . S
C990 C375 1.581 . S
C999 C125 1.492 . S
C1001 C399 1.669 . S
C1010 C137 1.332 . S
C1012 C123 1.322 . S
C1021 C147 1.486 . S
C1023 C133 1.488 . S
C1032 C153 1.263 . S
C1034 C403 1.436 . S
C1043 C371 1.456 . S
C1045 C83 1.298 . S
C1054 C357 1.469 . S
C1056 C419 1.400 . S
C1065 C363 1.455 . S
C1067 C427 1.523 . S
C1076 C433 1.431 . S
C1078 C349 1.442 . S
C1087 C347 1.544 . S
C1089 C413 1.539 . S
C1098 C447 1.437 . S
C1100 C301 1.526 . S
C1109 C305 1.454 . S
C1111 C319 1.458 . S
C1120 C335 1.514 . S
C1122 C321 1.503 . S
C1131 C329 1.505 . S
C1133 C445 1.512 . S
C1142 C417 1.607 . S
C1144 C259 1.608 . S
