# Generated by pormake.
# Topology wme, (6)-cn, num edge types: 1
# Building blocks:
#     Node 0, Type 0, BuildingBlock: VOLQOD_clean_sbu_1, # of connection points: 6
#     Node 1, Type 0, BuildingBlock: VOLQOD_clean_sbu_1, # of connection points: 6
#     Node 2, Type 0, BuildingBlock: VOLQOD_clean_sbu_1, # of connection points: 6
#     Node 3, Type 0, BuildingBlock: VOLQOD_clean_sbu_1, # of connection points: 6
#     Node 4, Type 0, BuildingBlock: VOLQOD_clean_sbu_1, # of connection points: 6
#     Node 5, Type 0, BuildingBlock: VOLQOD_clean_sbu_1, # of connection points: 6
#     Node 6, Type 0, BuildingBlock: VOLQOD_clean_sbu_1, # of connection points: 6
#     Node 7, Type 0, BuildingBlock: VOLQOD_clean_sbu_1, # of connection points: 6
#     Node 8, Type 0, BuildingBlock: VOLQOD_clean_sbu_1, # of connection points: 6
#     Node 9, Type 0, BuildingBlock: VOLQOD_clean_sbu_1, # of connection points: 6
#     Node 10, Type 0, BuildingBlock: VOLQOD_clean_sbu_1, # of connection points: 6
#     Node 11, Type 0, BuildingBlock: VOLQOD_clean_sbu_1, # of connection points: 6
#     Edge 12, Type (0, 0), BuildingBlock: TEMPAE_clean_linker_10, # of connection points: 2
#     Edge 13, Type (0, 0), BuildingBlock: TEMPAE_clean_linker_10, # of connection points: 2
#     Edge 14, Type (0, 0), BuildingBlock: TEMPAE_clean_linker_10, # of connection points: 2
#     Edge 15, Type (0, 0), BuildingBlock: TEMPAE_clean_linker_10, # of connection points: 2
#     Edge 16, Type (0, 0), BuildingBlock: TEMPAE_clean_linker_10, # of connection points: 2
#     Edge 17, Type (0, 0), BuildingBlock: TEMPAE_clean_linker_10, # of connection points: 2
#     Edge 18, Type (0, 0), BuildingBlock: TEMPAE_clean_linker_10, # of connection points: 2
#     Edge 19, Type (0, 0), BuildingBlock: TEMPAE_clean_linker_10, # of connection points: 2
#     Edge 20, Type (0, 0), BuildingBlock: TEMPAE_clean_linker_10, # of connection points: 2
#     Edge 21, Type (0, 0), BuildingBlock: TEMPAE_clean_linker_10, # of connection points: 2
#     Edge 22, Type (0, 0), BuildingBlock: TEMPAE_clean_linker_10, # of connection points: 2
#     Edge 23, Type (0, 0), BuildingBlock: TEMPAE_clean_linker_10, # of connection points: 2
#     Edge 24, Type (0, 0), BuildingBlock: TEMPAE_clean_linker_10, # of connection points: 2
#     Edge 25, Type (0, 0), BuildingBlock: TEMPAE_clean_linker_10, # of connection points: 2
#     Edge 26, Type (0, 0), BuildingBlock: TEMPAE_clean_linker_10, # of connection points: 2
#     Edge 27, Type (0, 0), BuildingBlock: TEMPAE_clean_linker_10, # of connection points: 2
#     Edge 28, Type (0, 0), BuildingBlock: TEMPAE_clean_linker_10, # of connection points: 2
#     Edge 29, Type (0, 0), BuildingBlock: TEMPAE_clean_linker_10, # of connection points: 2
#     Edge 30, Type (0, 0), BuildingBlock: TEMPAE_clean_linker_10, # of connection points: 2
#     Edge 31, Type (0, 0), BuildingBlock: TEMPAE_clean_linker_10, # of connection points: 2
#     Edge 32, Type (0, 0), BuildingBlock: TEMPAE_clean_linker_10, # of connection points: 2
#     Edge 33, Type (0, 0), BuildingBlock: TEMPAE_clean_linker_10, # of connection points: 2
#     Edge 34, Type (0, 0), BuildingBlock: TEMPAE_clean_linker_10, # of connection points: 2
#     Edge 35, Type (0, 0), BuildingBlock: TEMPAE_clean_linker_10, # of connection points: 2
#     Edge 36, Type (0, 0), BuildingBlock: TEMPAE_clean_linker_10, # of connection points: 2
#     Edge 37, Type (0, 0), BuildingBlock: TEMPAE_clean_linker_10, # of connection points: 2
#     Edge 38, Type (0, 0), BuildingBlock: TEMPAE_clean_linker_10, # of connection points: 2
#     Edge 39, Type (0, 0), BuildingBlock: TEMPAE_clean_linker_10, # of connection points: 2
#     Edge 40, Type (0, 0), BuildingBlock: TEMPAE_clean_linker_10, # of connection points: 2
#     Edge 41, Type (0, 0), BuildingBlock: TEMPAE_clean_linker_10, # of connection points: 2
#     Edge 42, Type (0, 0), BuildingBlock: TEMPAE_clean_linker_10, # of connection points: 2
#     Edge 43, Type (0, 0), BuildingBlock: TEMPAE_clean_linker_10, # of connection points: 2
#     Edge 44, Type (0, 0), BuildingBlock: TEMPAE_clean_linker_10, # of connection points: 2
#     Edge 45, Type (0, 0), BuildingBlock: TEMPAE_clean_linker_10, # of connection points: 2
#     Edge 46, Type (0, 0), BuildingBlock: TEMPAE_clean_linker_10, # of connection points: 2
#     Edge 47, Type (0, 0), BuildingBlock: TEMPAE_clean_linker_10, # of connection points: 2
# Relax obj value: 0.331
# Max RMSD: 0.236
# Mean RMSD: 0.236
data_MOF--net-wme--node1-VOLQOD_clean_sbu_1--edge1-TEMPAE_clean_linker_10
_symmetry_space_group_name_H-M    P1
_symmetry_Int_Tables_number       1
_symmetry_cell_setting            triclinic
loop_
_symmetry_equiv_pos_as_xyz
'x, y, z'
_cell_length_a     31.322514
_cell_length_b     31.349108
_cell_length_c     64.844624
_cell_angle_alpha  89.940732
_cell_angle_beta   90.122207
_cell_angle_gamma 119.98412
loop_
_atom_site_label
_atom_site_type_symbol
_atom_site_fract_x
_atom_site_fract_y
_atom_site_fract_z
_atom_type_partial_charge
O0 O 0.22945 0.41049 0.11151 0.0
Zn1 Zn 0.23029 0.34911 0.10337 0.0
O2 O 0.25988 0.32837 0.12482 0.0
Zn3 Zn 0.3189 0.33132 0.11406 0.0
Zn4 Zn 0.27685 0.37194 0.1481 0.0
Zn5 Zn 0.21374 0.26332 0.13451 0.0
O6 O 0.31851 0.26774 0.11864 0.0
O7 O 0.24231 0.21977 0.13058 0.0
O8 O 0.26172 0.35519 0.07545 0.0
O9 O 0.32192 0.34025 0.08355 0.0
O10 O 0.37924 0.3909 0.12473 0.0
O11 O 0.34891 0.42157 0.14756 0.0
O12 O 0.25512 0.3373 0.17541 0.0
O13 O 0.15859 0.29948 0.10083 0.0
O14 O 0.19814 0.26347 0.16453 0.0
O15 O 0.1489 0.23616 0.11979 0.0
C16 C 0.22653 0.42342 0.12983 0.0
C17 C 0.28392 0.22616 0.12479 0.0
C18 C 0.38501 0.42436 0.13741 0.0
C19 C 0.298 0.34984 0.07027 0.0
C20 C 0.21894 0.29448 0.17901 0.0
C21 C 0.13178 0.2561 0.10775 0.0
O22 O 0.23983 0.40807 0.14535 0.0
O23 O 0.79626 0.20346 0.61332 0.0
Zn24 Zn 0.85867 0.20711 0.60299 0.0
O25 O 0.91087 0.23462 0.6236 0.0
Zn26 Zn 0.96437 0.29731 0.61391 0.0
Zn27 Zn 0.88398 0.24478 0.64822 0.0
Zn28 Zn 0.93282 0.18886 0.63053 0.0
O29 O 0.02955 0.29902 0.61634 0.0
O30 O 0.00414 0.22033 0.62393 0.0
O31 O 0.88174 0.24218 0.57564 0.0
O32 O 0.95605 0.30402 0.5837 0.0
O33 O 0.96261 0.35428 0.6278 0.0
O34 O 0.90192 0.31478 0.65029 0.0
O35 O 0.90446 0.22422 0.67372 0.0
O36 O 0.83795 0.13643 0.59831 0.0
O37 O 0.92486 0.1714 0.66088 0.0
O38 O 0.89325 0.12513 0.61525 0.0
C39 C 0.78112 0.19468 0.63191 0.0
C40 C 0.03805 0.2638 0.61947 0.0
C41 C 0.93369 0.35441 0.64159 0.0
C42 C 0.92217 0.28017 0.57053 0.0
C43 C 0.91613 0.19112 0.67623 0.0
C44 C 0.85524 0.10911 0.60376 0.0
O45 O 0.81072 0.20426 0.64693 0.0
O46 O 0.61023 0.8023 0.09857 0.0
Zn47 Zn 0.66888 0.8702 0.09592 0.0
O48 O 0.67789 0.91123 0.12013 0.0
Zn49 Zn 0.67395 0.96867 0.11148 0.0
Zn50 Zn 0.62672 0.87296 0.1396 0.0
Zn51 Zn 0.74019 0.93084 0.13381 0.0
O52 O 0.73799 0.0315 0.11719 0.0
O53 O 0.78504 0.0027 0.12978 0.0
O54 O 0.66622 0.90204 0.06922 0.0
O55 O 0.66622 0.96856 0.08086 0.0
O56 O 0.61302 0.96675 0.12285 0.0
O57 O 0.57772 0.89545 0.13976 0.0
O58 O 0.65203 0.875 0.16803 0.0
O59 O 0.72251 0.85397 0.09491 0.0
O60 O 0.73324 0.91667 0.16445 0.0
O61 O 0.77006 0.89241 0.12198 0.0
C62 C 0.58791 0.77984 0.11489 0.0
C63 C 0.7793 0.03815 0.12373 0.0
C64 C 0.57699 0.93322 0.13299 0.0
C65 C 0.66447 0.94124 0.06603 0.0
C66 C 0.69508 0.89289 0.17558 0.0
C67 C 0.75874 0.86341 0.10661 0.0
O68 O 0.59338 0.80227 0.13182 0.0
O69 O 0.78738 0.5854 0.61335 0.0
Zn70 Zn 0.78242 0.64439 0.60455 0.0
O71 O 0.75564 0.66682 0.62629 0.0
Zn72 Zn 0.69134 0.65572 0.61782 0.0
Zn73 Zn 0.74962 0.62902 0.65028 0.0
Zn74 Zn 0.80029 0.73459 0.63351 0.0
O75 O 0.68842 0.71855 0.62049 0.0
O76 O 0.76773 0.77322 0.6265 0.0
O77 O 0.74566 0.63348 0.57765 0.0
O78 O 0.68182 0.64079 0.58753 0.0
O79 O 0.63684 0.59601 0.63242 0.0
O80 O 0.68047 0.5752 0.65291 0.0
O81 O 0.77037 0.66868 0.67616 0.0
O82 O 0.8527 0.69519 0.59982 0.0
O83 O 0.81669 0.74428 0.66402 0.0
O84 O 0.86453 0.75959 0.61853 0.0
C85 C 0.79982 0.57945 0.63138 0.0
C86 C 0.72361 0.76272 0.62272 0.0
C87 C 0.63939 0.5667 0.64541 0.0
C88 C 0.70586 0.63348 0.57353 0.0
C89 C 0.79975 0.71434 0.67909 0.0
C90 C 0.88031 0.73895 0.60621 0.0
O91 O 0.79244 0.59903 0.64713 0.0
O92 O 0.19734 0.78586 0.10137 0.0
Zn93 Zn 0.13007 0.77904 0.09818 0.0
O94 O 0.0887 0.75224 0.12246 0.0
Zn95 Zn 0.03549 0.68644 0.11603 0.0
Zn96 Zn 0.13084 0.75216 0.14353 0.0
Zn97 Zn 0.06412 0.7939 0.13228 0.0
O98 O 0.96931 0.68069 0.12211 0.0
O99 O -0.00741 0.76012 0.12653 0.0
O100 O 0.0954 0.74234 0.07243 0.0
O101 O 0.03194 0.67485 0.08529 0.0
O102 O 0.04823 0.63575 0.12993 0.0
O103 O 0.1176 0.68399 0.14713 0.0
O104 O 0.12414 0.77901 0.17026 0.0
O105 O 0.14768 0.84882 0.09544 0.0
O106 O 0.07392 0.80767 0.16304 0.0
O107 O 0.10096 0.85978 0.11822 0.0
C108 C 0.22179 0.80189 0.11804 0.0
C109 C 0.95937 0.71527 0.12418 0.0
C110 C 0.08406 0.64148 0.14134 0.0
C111 C 0.05669 0.7006 0.06992 0.0
C112 C 0.10056 0.80027 0.17573 0.0
C113 C 0.13411 0.87614 0.10432 0.0
O114 O 0.20047 0.79545 0.13532 0.0
O115 O 0.40835 0.18957 0.61761 0.0
Zn116 Zn 0.34861 0.12722 0.60804 0.0
O117 O 0.32391 0.07651 0.62914 0.0
Zn118 Zn 0.33429 0.02318 0.62047 0.0
Zn119 Zn 0.36036 0.10602 0.65368 0.0
Zn120 Zn 0.25571 0.05365 0.63509 0.0
O121 O 0.27173 0.95745 0.62329 0.0
O122 O 0.21709 0.98266 0.62789 0.0
O123 O 0.35849 0.10173 0.58101 0.0
O124 O 0.34749 0.02864 0.59012 0.0
O125 O 0.39421 0.0281 0.63466 0.0
O126 O 0.41342 0.08941 0.65666 0.0
O127 O 0.31827 0.08664 0.67886 0.0
O128 O 0.29923 0.14846 0.603 0.0
O129 O 0.24425 0.06037 0.66527 0.0
O130 O 0.23197 0.09318 0.61945 0.0
C131 C 0.41383 0.20696 0.6358 0.0
C132 C 0.22752 0.94881 0.62474 0.0
C133 C 0.42267 0.05816 0.64835 0.0
C134 C 0.35588 0.06098 0.57642 0.0
C135 C 0.27259 0.07188 0.68088 0.0
C136 C 0.2544 0.13119 0.60805 0.0
O137 O 0.39256 0.17925 0.6512 0.0
O138 O 0.57902 0.77988 0.3978 0.0
Zn139 Zn 0.63976 0.77339 0.40042 0.0
O140 O 0.65238 0.74452 0.37629 0.0
Zn141 Zn 0.64014 0.67922 0.38361 0.0
Zn142 Zn 0.60848 0.74265 0.35557 0.0
Zn143 Zn 0.71791 0.78538 0.36539 0.0
O144 O 0.7006 0.67346 0.37765 0.0
O145 O 0.7562 0.75184 0.37069 0.0
O146 O 0.6392 0.73869 0.42657 0.0
O147 O 0.63277 0.66954 0.41445 0.0
O148 O 0.57649 0.62723 0.37022 0.0
O149 O 0.55424 0.67405 0.35261 0.0
O150 O 0.64001 0.76875 0.32846 0.0
O151 O 0.69206 0.84334 0.40189 0.0
O152 O 0.71941 0.7978 0.33457 0.0
O153 O 0.74819 0.85228 0.37867 0.0
C154 C 0.56828 0.79351 0.38104 0.0
C155 C 0.7448 0.7074 0.37416 0.0
C156 C 0.54588 0.63199 0.35876 0.0
C157 C 0.63517 0.69665 0.42953 0.0
C158 C 0.6844 0.78996 0.32236 0.0
C159 C 0.7323 0.86986 0.39242 0.0
O160 O 0.58142 0.78532 0.36369 0.0
O161 O 0.79091 0.58953 0.88563 0.0
Zn162 Zn 0.85448 0.64803 0.89532 0.0
O163 O 0.90501 0.67126 0.87402 0.0
Zn164 Zn 0.95832 0.66065 0.88286 0.0
Zn165 Zn 0.87538 0.634 0.8497 0.0
Zn166 Zn 0.92775 0.73904 0.86691 0.0
O167 O 0.02387 0.72402 0.88072 0.0
O168 O -0.0014 0.77806 0.87439 0.0
O169 O 0.87913 0.63599 0.92241 0.0
O170 O 0.95124 0.64475 0.91302 0.0
O171 O 0.95478 0.60155 0.86832 0.0
O172 O 0.89144 0.58078 0.84721 0.0
O173 O 0.8955 0.6742 0.82402 0.0
O174 O 0.83469 0.69873 0.90009 0.0
O175 O 0.92171 0.74914 0.83635 0.0
O176 O 0.8879 0.76349 0.88172 0.0
C177 C 0.77414 0.58347 0.86729 0.0
C178 C 0.03239 0.76803 0.87849 0.0
C179 C 0.92382 0.57243 0.85502 0.0
C180 C 0.91903 0.63634 0.92676 0.0
C181 C 0.91052 0.71964 0.8212 0.0
C182 C 0.85111 0.74264 0.89384 0.0
O183 O 0.80246 0.60312 0.85191 0.0
O184 O 0.18383 0.7936 0.39896 0.0
Zn185 Zn 0.19059 0.86056 0.40275 0.0
O186 O 0.22034 0.9037 0.37887 0.0
Zn187 Zn 0.28226 0.96054 0.3871 0.0
Zn188 Zn 0.2316 0.86663 0.35848 0.0
Zn189 Zn 0.1765 0.92328 0.36651 0.0
O190 O 0.28185 0.02383 0.38147 0.0
O191 O 0.20411 -0.00508 0.37114 0.0
O192 O 0.22576 0.89224 0.42942 0.0
O193 O 0.29052 0.96027 0.41763 0.0
O194 O 0.34013 0.95694 0.37546 0.0
O195 O 0.3022 0.88531 0.35881 0.0
O196 O 0.21089 0.87355 0.33024 0.0
O197 O 0.12001 0.84221 0.40448 0.0
O198 O 0.16786 0.91105 0.33569 0.0
O199 O 0.10918 0.88388 0.37914 0.0
C200 C 0.17675 0.77198 0.38166 0.0
C201 C 0.24633 0.03039 0.37615 0.0
C202 C 0.34136 0.92241 0.36557 0.0
C203 C 0.26612 0.93223 0.43249 0.0
C204 C 0.18413 0.89051 0.32362 0.0
C205 C 0.09246 0.8529 0.39389 0.0
O206 O 0.18988 0.79572 0.36483 0.0
O207 O 0.39852 0.20955 0.88249 0.0
Zn208 Zn 0.33998 0.21462 0.89202 0.0
O209 O 0.31625 0.24132 0.87069 0.0
Zn210 Zn 0.32653 0.30503 0.87937 0.0
Zn211 Zn 0.35347 0.24893 0.84636 0.0
Zn212 Zn 0.24831 0.19621 0.86397 0.0
O213 O 0.2641 0.30827 0.87613 0.0
O214 O 0.20954 0.22902 0.87019 0.0
O215 O 0.35164 0.25132 0.9189 0.0
O216 O 0.34052 0.31333 0.90967 0.0
O217 O 0.38632 0.36017 0.86535 0.0
O218 O 0.40699 0.31839 0.84386 0.0
O219 O 0.31254 0.22758 0.8208 0.0
O220 O 0.28926 0.14452 0.89724 0.0
O221 O 0.23843 0.17799 0.83375 0.0
O222 O 0.22335 0.13283 0.87964 0.0
C223 C 0.40452 0.19867 0.8642 0.0
C224 C 0.22 0.27318 0.87366 0.0
C225 C 0.41554 0.35879 0.85204 0.0
C226 C 0.3496 0.28985 0.92336 0.0
C227 C 0.26723 0.19589 0.81838 0.0
C228 C 0.24477 0.11712 0.89162 0.0
O229 O 0.38466 0.20707 0.84877 0.0
O230 O 0.16638 0.40027 0.38481 0.0
Zn231 Zn 0.10282 0.33875 0.39145 0.0
O232 O 0.05505 0.31999 0.36907 0.0
Zn233 Zn -0.00163 0.32336 0.37884 0.0
Zn234 Zn 0.08521 0.36517 0.34664 0.0
Zn235 Zn 0.03665 0.25563 0.35859 0.0
O236 O 0.93546 0.26015 0.3732 0.0
O237 O 0.96428 0.21219 0.36185 0.0
O238 O 0.07462 0.34304 0.41887 0.0
O239 O 0.00095 0.3303 0.40952 0.0
O240 O -0.00051 0.38405 0.36814 0.0
O241 O 0.06427 0.41567 0.3472 0.0
O242 O 0.07401 0.33297 0.31889 0.0
O243 O 0.12383 0.28849 0.39415 0.0
O244 O 0.05404 0.25751 0.32863 0.0
O245 O 0.07331 0.22746 0.37343 0.0
C246 C 0.18467 0.41349 0.36685 0.0
C247 C 0.92875 0.21861 0.36712 0.0
C248 C 0.02973 0.41838 0.35634 0.0
C249 C 0.03282 0.33813 0.42338 0.0
C250 C 0.06621 0.29004 0.31464 0.0
C251 C 0.10852 0.24604 0.38643 0.0
O252 O 0.15795 0.39922 0.35073 0.0
O253 O 0.77404 0.19413 0.88018 0.0
Zn254 Zn 0.77298 0.13219 0.88912 0.0
O255 O 0.74631 0.08166 0.86799 0.0
Zn256 Zn 0.68314 0.02821 0.87712 0.0
Zn257 Zn 0.73859 0.1118 0.84381 0.0
Zn258 Zn 0.79154 0.05913 0.8613 0.0
O259 O 0.68053 0.96268 0.8742 0.0
O260 O 0.76023 0.98834 0.86879 0.0
O261 O 0.7395 0.10648 0.91644 0.0
O262 O 0.67655 0.03371 0.9076 0.0
O263 O 0.62742 0.03294 0.8634 0.0
O264 O 0.66871 0.09502 0.8416 0.0
O265 O 0.76007 0.09276 0.81813 0.0
O266 O 0.84409 0.15446 0.8931 0.0
O267 O 0.80731 0.06499 0.83088 0.0
O268 O 0.856 0.09986 0.87603 0.0
C269 C 0.78632 0.2122 0.86212 0.0
C270 C 0.71624 0.95432 0.87236 0.0
C271 C 0.6285 0.06336 0.85001 0.0
C272 C 0.7014 0.06589 0.92123 0.0
C273 C 0.79018 0.07716 0.81558 0.0
C274 C 0.87187 0.13795 0.8874 0.0
O275 O 0.7801 0.18504 0.84654 0.0
C276 C 0.14426 0.95983 0.10247 0.0
C277 C 0.16503 0.9295 0.10186 0.0
C278 C 0.17439 0.01097 0.10398 0.0
C279 C 0.22619 0.03164 0.1058 0.0
C280 C 0.24741 0.00121 0.10432 0.0
C281 C 0.21645 0.95037 0.10204 0.0
C282 C 0.15054 0.04256 0.10488 0.0
C283 C 0.30215 0.02151 0.10686 0.0
C284 C 0.29252 0.16964 0.10123 0.0
C285 C 0.2874 0.18199 0.12145 0.0
C286 C 0.27665 0.12062 0.09597 0.0
C287 C 0.2567 0.08411 0.11151 0.0
C288 C 0.25802 0.09785 0.1324 0.0
C289 C 0.27246 0.14676 0.13708 0.0
C290 C 0.27555 0.10734 0.07354 0.0
C291 C 0.23903 0.06015 0.14951 0.0
H292 H 0.10449 0.94341 0.10236 0.0
H293 H 0.23241 0.9266 0.10196 0.0
H294 H 0.15357 0.057 0.12075 0.0
H295 H 0.16968 0.07464 0.09438 0.0
H296 H 0.1109 0.02166 0.10058 0.0
H297 H 0.31356 -0.00496 0.10149 0.0
H298 H 0.3236 0.05665 0.09836 0.0
H299 H 0.31195 0.02927 0.12343 0.0
H300 H 0.3036 0.19712 0.08915 0.0
H301 H 0.26856 0.1567 0.1527 0.0
H302 H 0.23752 0.09236 0.0675 0.0
H303 H 0.28582 0.07848 0.07158 0.0
H304 H 0.30072 0.13991 0.0641 0.0
H305 H 0.19813 0.0395 0.14918 0.0
H306 H 0.25113 0.07764 0.16492 0.0
H307 H 0.25181 0.0332 0.14743 0.0
C308 C 0.17867 0.13675 0.60298 0.0
C309 C 0.2301 0.15982 0.6032 0.0
C310 C 0.15503 0.16459 0.60247 0.0
C311 C 0.1837 0.21672 0.60264 0.0
C312 C 0.23561 0.24015 0.60135 0.0
C313 C 0.25828 0.21129 0.60147 0.0
C314 C 0.09939 0.13814 0.6033 0.0
C315 C 0.26741 0.29553 0.60161 0.0
C316 C 0.10262 0.2725 0.59547 0.0
C317 C 0.08703 0.27072 0.61581 0.0
C318 C 0.13849 0.25969 0.59086 0.0
C319 C 0.15903 0.24547 0.60709 0.0
C320 C 0.14773 0.2499 0.62784 0.0
C321 C 0.11107 0.26175 0.63195 0.0
C322 C 0.14976 0.25566 0.56858 0.0
C323 C 0.16995 0.23645 0.64563 0.0
H324 H 0.15691 0.09695 0.60407 0.0
H325 H 0.29819 0.2293 0.60171 0.0
H326 H 0.08746 0.14353 0.6187 0.0
H327 H 0.08475 0.15348 0.59165 0.0
H328 H 0.08267 0.09794 0.60053 0.0
H329 H 0.30527 0.30774 0.59598 0.0
H330 H 0.25103 0.31311 0.59207 0.0
H331 H 0.27019 0.30894 0.61766 0.0
H332 H 0.08324 0.27886 0.58304 0.0
H333 H 0.09843 0.26012 0.64765 0.0
H334 H 0.12788 0.21662 0.56363 0.0
H335 H 0.18927 0.26749 0.56645 0.0
H336 H 0.14009 0.27808 0.55837 0.0
H337 H 0.15277 0.19579 0.64647 0.0
H338 H 0.1639 0.24981 0.6606 0.0
H339 H 0.21012 0.25202 0.64335 0.0
C340 C 0.85865 0.1051 0.13692 0.0
C341 C 0.82394 0.08602 0.12099 0.0
C342 C 0.90739 0.14138 0.1329 0.0
C343 C 0.92178 0.15719 0.11232 0.0
C344 C 0.88579 0.14111 0.09652 0.0
C345 C 0.83685 0.10595 0.10114 0.0
C346 C 0.94437 0.15908 0.15033 0.0
C347 C 0.89972 0.15664 0.07438 0.0
C348 C 0.0541 0.2589 0.10559 0.0
C349 C 0.0782 0.2314 0.10458 0.0
C350 C 0.00262 0.23539 0.10713 0.0
C351 C 0.97493 0.18336 0.1071 0.0
C352 C -0.00099 0.15565 0.10435 0.0
C353 C 0.05055 0.18006 0.1035 0.0
C354 C 0.97848 0.26616 0.11048 0.0
C355 C 0.97059 0.10005 0.1036 0.0
H356 H 0.84838 0.08937 0.15225 0.0
H357 H 0.8099 0.09048 0.0888 0.0
H358 H 0.96726 0.14128 0.14917 0.0
H359 H 0.96946 0.19949 0.14937 0.0
H360 H 0.92611 0.15004 0.16565 0.0
H361 H 0.86707 0.14882 0.06485 0.0
H362 H 0.9272 0.19645 0.07328 0.0
H363 H 0.91677 0.13605 0.06776 0.0
H364 H 0.07565 0.29871 0.10669 0.0
H365 H 0.06933 0.15895 0.10264 0.0
H366 H 0.96813 0.26408 0.12696 0.0
H367 H 0.94421 0.25202 0.10124 0.0
H368 H 0.00353 0.30546 0.10648 0.0
H369 H 0.9555 0.08528 0.1191 0.0
H370 H -0.00593 0.08456 0.09872 0.0
H371 H 0.939 0.08696 0.09278 0.0
C372 C 0.71178 0.81497 0.59774 0.0
C373 C 0.71589 0.80403 0.61832 0.0
C374 C 0.72434 0.86298 0.59196 0.0
C375 C 0.7406 0.90001 0.60728 0.0
C376 C 0.73848 0.88723 0.62837 0.0
C377 C 0.72689 0.83934 0.63362 0.0
C378 C 0.72591 0.87505 0.56935 0.0
C379 C 0.75407 0.92537 0.64524 0.0
C380 C 0.84911 0.02738 0.59977 0.0
C381 C 0.82617 0.05586 0.59965 0.0
C382 C 0.8211 0.97594 0.6004 0.0
C383 C 0.769 0.9527 0.60144 0.0
C384 C 0.74556 0.98111 0.59975 0.0
C385 C 0.77455 0.03255 0.59868 0.0
C386 C 0.84751 0.94676 0.6016 0.0
C387 C 0.69023 0.95781 0.60091 0.0
H388 H 0.70392 0.78751 0.58593 0.0
H389 H 0.73037 0.83059 0.64951 0.0
H390 H 0.71411 0.9026 0.56672 0.0
H391 H 0.76435 0.89116 0.56372 0.0
H392 H 0.70217 0.84164 0.56006 0.0
H393 H 0.74237 0.90816 0.66071 0.0
H394 H 0.79483 0.94875 0.64524 0.0
H395 H 0.73838 0.94974 0.64256 0.0
H396 H 0.889 0.0454 0.6003 0.0
H397 H 0.75664 0.05454 0.59868 0.0
H398 H 0.8307 0.91516 0.59076 0.0
H399 H 0.84394 0.9317 0.6174 0.0
H400 H 0.88736 0.96965 0.59795 0.0
H401 H 0.67153 0.92253 0.5923 0.0
H402 H 0.67753 0.98269 0.59476 0.0
H403 H 0.67856 0.94965 0.61727 0.0
C404 C 0.89798 0.7102 0.09961 0.0
C405 C 0.9098 0.70629 0.12008 0.0
C406 C 0.86451 0.72618 0.09508 0.0
C407 C 0.842 0.73725 0.11151 0.0
C408 C 0.84842 0.72609 0.13206 0.0
C409 C 0.88323 0.71157 0.13616 0.0
C410 C 0.85897 0.73784 0.07298 0.0
C411 C 0.82344 0.73551 0.14993 0.0
C412 C 0.83176 0.85228 0.10897 0.0
C413 C 0.78167 0.83268 0.1048 0.0
C414 C 0.85221 0.82155 0.11013 0.0
C415 C 0.82122 0.76989 0.10784 0.0
C416 C 0.7707 0.75005 0.10321 0.0
C417 C 0.75164 0.78191 0.10143 0.0
C418 C 0.90668 0.84427 0.11455 0.0
C419 C 0.73627 0.69521 0.10136 0.0
H420 H 0.9194 0.7068 0.08725 0.0
H421 H 0.89303 0.70901 0.15198 0.0
H422 H 0.82051 0.72835 0.06958 0.0
H423 H 0.88295 0.77799 0.07035 0.0
H424 H 0.87 0.71796 0.06198 0.0
H425 H 0.82378 0.71544 0.16401 0.0
H426 H 0.84309 0.77549 0.15348 0.0
H427 H 0.78473 0.72433 0.14605 0.0
H428 H 0.85471 0.89152 0.11166 0.0
H429 H 0.71253 0.7667 0.09862 0.0
H430 H 0.92398 0.83098 0.10326 0.0
H431 H 0.91209 0.83302 0.13012 0.0
H432 H 0.92622 0.88515 0.11395 0.0
H433 H 0.6993 0.68618 0.09553 0.0
H434 H 0.73166 0.67785 0.11673 0.0
H435 H 0.75189 0.67846 0.09094 0.0
C436 C 0.95626 0.73447 0.59982 0.0
C437 C 0.93358 0.76312 0.60213 0.0
C438 C 0.00768 0.75611 0.60073 0.0
C439 C 0.03673 0.80753 0.60367 0.0
C440 C 0.01412 0.83702 0.6041 0.0
C441 C 0.96268 0.81433 0.60357 0.0
C442 C 0.03028 0.72341 0.60034 0.0
C443 C 0.04402 0.89227 0.60666 0.0
C444 C 0.1519 0.87397 0.63528 0.0
C445 C 0.18635 0.9001 0.61991 0.0
C446 C 0.10363 0.8384 0.63005 0.0
C447 C 0.08968 0.83046 0.60899 0.0
C448 C 0.12589 0.85293 0.59346 0.0
C449 C 0.17424 0.88756 0.59917 0.0
C450 C 0.06635 0.81391 0.64708 0.0
C451 C 0.11255 0.8453 0.57086 0.0
H452 H 0.9338 0.69472 0.59882 0.0
H453 H 0.94515 0.83648 0.60517 0.0
H454 H 0.00488 0.68691 0.5934 0.0
H455 H 0.06544 0.7408 0.59164 0.0
H456 H 0.03857 0.71738 0.61638 0.0
H457 H 0.02144 0.91015 0.60425 0.0
H458 H 0.05979 0.90127 0.62245 0.0
H459 H 0.07519 0.90832 0.59561 0.0
H460 H 0.16154 0.88432 0.6513 0.0
H461 H 0.20108 0.9086 0.58734 0.0
H462 H 0.0414 0.77435 0.64361 0.0
H463 H 0.0434 0.83163 0.64836 0.0
H464 H 0.08439 0.81713 0.66222 0.0
H465 H 0.08485 0.80633 0.56761 0.0
H466 H 0.14546 0.85622 0.56104 0.0
H467 H 0.0961 0.8682 0.56644 0.0
C468 C 0.00827 0.8419 0.39364 0.0
C469 C 0.0389 0.82177 0.39603 0.0
C470 C 0.9571 0.81131 0.39224 0.0
C471 C 0.93658 0.7594 0.39243 0.0
C472 C 0.96735 0.73895 0.39555 0.0
C473 C 0.01828 0.77055 0.39759 0.0
C474 C 0.9253 0.8346 0.3895 0.0
C475 C 0.94725 0.68401 0.3952 0.0
C476 C 0.79914 0.69734 0.39838 0.0
C477 C 0.78575 0.69869 0.3779 0.0
C478 C 0.84814 0.71223 0.40346 0.0
C479 C 0.8836 0.72759 0.38752 0.0
C480 C 0.86836 0.72171 0.36664 0.0
C481 C 0.81951 0.70821 0.36206 0.0
C482 C 0.86287 0.7179 0.42589 0.0
C483 C 0.90477 0.73572 0.34919 0.0
H484 H 0.02447 0.88151 0.39238 0.0
H485 H 0.04229 0.75501 0.39902 0.0
H486 H 0.90981 0.82742 0.37366 0.0
H487 H 0.89389 0.81821 0.40044 0.0
H488 H 0.94633 0.87509 0.39197 0.0
H489 H 0.9397 0.67089 0.379 0.0
H490 H 0.97383 0.67401 0.40183 0.0
H491 H 0.91203 0.66419 0.40378 0.0
H492 H 0.77287 0.69057 0.41059 0.0
H493 H 0.8089 0.70953 0.34624 0.0
H494 H 0.87897 0.75713 0.4304 0.0
H495 H 0.89128 0.70727 0.42863 0.0
H496 H 0.83072 0.69539 0.43602 0.0
H497 H 0.92582 0.77641 0.34762 0.0
H498 H 0.88599 0.71984 0.33427 0.0
H499 H 0.93153 0.72311 0.35233 0.0
C500 C 0.10735 0.84248 0.86713 0.0
C501 C 0.08108 0.80972 0.883 0.0
C502 C 0.14299 0.89121 0.87158 0.0
C503 C 0.15099 0.90736 0.89236 0.0
C504 C 0.12829 0.87288 0.9085 0.0
C505 C 0.09349 0.82404 0.90358 0.0
C506 C 0.16758 0.9266 0.85394 0.0
C507 C 0.13601 0.88858 0.93082 0.0
C508 C 0.24828 0.04112 0.89946 0.0
C509 C 0.2201 0.0641 0.89636 0.0
C510 C 0.22607 0.98965 0.89946 0.0
C511 C 0.17455 0.96084 0.89662 0.0
C512 C 0.14554 0.98389 0.89531 0.0
C513 C 0.16878 0.03534 0.895 0.0
C514 C 0.25823 0.96651 0.90081 0.0
C515 C 0.09021 0.95432 0.89278 0.0
H516 H 0.09706 0.83116 0.85124 0.0
H517 H 0.07232 0.79853 0.91579 0.0
H518 H 0.15013 0.94963 0.85188 0.0
H519 H 0.20725 0.95163 0.85725 0.0
H520 H 0.16409 0.90699 0.83922 0.0
H521 H 0.12487 0.85674 0.94133 0.0
H522 H 0.17507 0.9164 0.93388 0.0
H523 H 0.11331 0.9057 0.93448 0.0
H524 H 0.2881 0.06325 0.90044 0.0
H525 H 0.14693 0.05305 0.89283 0.0
H526 H 0.26349 0.95587 0.88511 0.0
H527 H 0.2407 0.93262 0.91036 0.0
H528 H 0.29511 0.9924 0.90735 0.0
H529 H 0.08101 0.93687 0.8773 0.0
H530 H 0.07274 0.97749 0.89434 0.0
H531 H 0.07385 0.92441 0.90441 0.0
C532 C 0.18848 0.24883 0.39146 0.0
C533 C 0.13692 0.22104 0.39013 0.0
C534 C 0.21705 0.22586 0.39094 0.0
C535 C 0.1932 0.17396 0.3896 0.0
C536 C 0.141 0.14566 0.38982 0.0
C537 C 0.11345 0.16966 0.38973 0.0
C538 C 0.27251 0.25727 0.39028 0.0
C539 C 0.11416 0.09006 0.38901 0.0
C540 C 0.23987 0.09999 0.36214 0.0
C541 C 0.25042 0.07853 0.37881 0.0
C542 C 0.22654 0.13592 0.3654 0.0
C543 C 0.22186 0.14882 0.38586 0.0
C544 C 0.23686 0.13042 0.40262 0.0
C545 C 0.25159 0.09564 0.39883 0.0
C546 C 0.21254 0.1561 0.34706 0.0
C547 C 0.2319 0.14284 0.42464 0.0
H548 H 0.20667 0.28872 0.39151 0.0
H549 H 0.07357 0.1483 0.38879 0.0
H550 H 0.2901 0.24215 0.40054 0.0
H551 H 0.28541 0.25725 0.37435 0.0
H552 H 0.28531 0.29599 0.39481 0.0
H553 H 0.07397 0.07364 0.39175 0.0
H554 H 0.11942 0.07789 0.37363 0.0
H555 H 0.12939 0.07536 0.40069 0.0
H556 H 0.23868 0.08618 0.34669 0.0
H557 H 0.25902 0.07815 0.41171 0.0
H558 H 0.22715 0.19625 0.3488 0.0
H559 H 0.17179 0.13797 0.34601 0.0
H560 H 0.22653 0.14946 0.33238 0.0
H561 H 0.24391 0.18247 0.42631 0.0
H562 H 0.25366 0.13353 0.43542 0.0
H563 H 0.19257 0.12151 0.42925 0.0
C564 C 0.14545 0.27213 0.86117 0.0
C565 C 0.17864 0.28122 0.87724 0.0
C566 C 0.09698 0.2603 0.86537 0.0
C567 C 0.08153 0.256 0.88616 0.0
C568 C 0.11655 0.27069 0.9023 0.0
C569 C 0.16518 0.28349 0.89759 0.0
C570 C 0.06102 0.24647 0.84769 0.0
C571 C 0.10157 0.26687 0.92462 0.0
C572 C 0.94755 0.21912 0.89286 0.0
C573 C 0.92511 0.16767 0.89143 0.0
C574 C -0.00102 0.24889 0.89238 0.0
C575 C 0.02825 0.22638 0.89079 0.0
C576 C 0.00577 0.17432 0.89112 0.0
C577 C 0.95434 0.14556 0.8912 0.0
C578 C 0.02147 0.30414 0.89188 0.0
C579 C 0.03588 0.14887 0.88998 0.0
H580 H 0.1562 0.27013 0.84546 0.0
H581 H 0.19106 0.28998 0.90998 0.0
H582 H 0.0381 0.20576 0.84678 0.0
H583 H 0.03591 0.26139 0.85011 0.0
H584 H 0.08022 0.26022 0.8327 0.0
H585 H 0.13378 0.28953 0.93474 0.0
H586 H 0.07379 0.27855 0.92678 0.0
H587 H 0.08463 0.22791 0.92965 0.0
H588 H 0.92495 0.23637 0.89291 0.0
H589 H 0.93696 0.10579 0.8903 0.0
H590 H 0.03076 0.31714 0.87572 0.0
H591 H 0.05605 0.32266 0.90101 0.0
H592 H -0.00441 0.31573 0.89785 0.0
H593 H 0.05283 0.15462 0.87447 0.0
H594 H 0.01317 0.1086 0.89276 0.0
H595 H 0.0662 0.16473 0.90147 0.0
C596 C 0.863 0.16307 0.39063 0.0
C597 C 0.88112 0.17435 0.37047 0.0
C598 C 0.83051 0.11423 0.39635 0.0
C599 C 0.81511 0.07674 0.3813 0.0
C600 C 0.82796 0.08922 0.36034 0.0
C601 C 0.86187 0.13803 0.35522 0.0
C602 C 0.81797 0.10234 0.41886 0.0
C603 C 0.81034 0.0504 0.3437 0.0
C604 C 0.80521 0.95418 0.39292 0.0
C605 C 0.75421 0.92337 0.39374 0.0
C606 C 0.82555 0.00505 0.3904 0.0
C607 C 0.79382 0.02478 0.38771 0.0
C608 C 0.74224 0.99389 0.38927 0.0
C609 C 0.72305 0.94347 0.39262 0.0
C610 C 0.88094 0.03724 0.38947 0.0
C611 C 0.70717 0.0131 0.38576 0.0
H612 H 0.87859 0.19138 0.40243 0.0
H613 H 0.87619 0.14712 0.33964 0.0
H614 H 0.779 0.0731 0.42085 0.0
H615 H 0.84144 0.08843 0.42546 0.0
H616 H 0.82456 0.13533 0.42779 0.0
H617 H 0.81563 0.06677 0.32805 0.0
H618 H 0.8314 0.03064 0.34464 0.0
H619 H 0.77076 0.02288 0.34579 0.0
H620 H 0.82902 0.93832 0.39372 0.0
H621 H 0.68339 0.91924 0.39282 0.0
H622 H 0.89335 0.07019 0.3994 0.0
H623 H 0.89232 0.05032 0.37343 0.0
H624 H 0.90017 0.01728 0.39445 0.0
H625 H 0.71997 0.04866 0.39381 0.0
H626 H 0.6692 0.98649 0.391 0.0
H627 H 0.7057 0.01976 0.36903 0.0
C628 C 0.77042 0.73846 0.89894 0.0
C629 C 0.82199 0.76687 0.89773 0.0
C630 C 0.74116 0.76062 0.89753 0.0
C631 C 0.76428 0.8123 0.89525 0.0
C632 C 0.81639 0.84138 0.89606 0.0
C633 C 0.84466 0.81821 0.89703 0.0
C634 C 0.68583 0.72834 0.89659 0.0
C635 C 0.84249 0.89683 0.89427 0.0
C636 C 0.72032 0.88092 0.86223 0.0
C637 C 0.70932 0.90583 0.87725 0.0
C638 C 0.73257 0.84528 0.8679 0.0
C639 C 0.73543 0.83599 0.8891 0.0
C640 C 0.71932 0.85742 0.90416 0.0
C641 C 0.70604 0.89211 0.89798 0.0
C642 C 0.74798 0.82198 0.85131 0.0
C643 C 0.72177 0.84845 0.92688 0.0
H644 H 0.75273 0.69862 0.89936 0.0
H645 H 0.88452 0.84015 0.89629 0.0
H646 H 0.66721 0.74526 0.905 0.0
H647 H 0.67368 0.72385 0.88026 0.0
H648 H 0.67351 0.69118 0.90311 0.0
H649 H 0.88246 0.91417 0.89783 0.0
H650 H 0.83842 0.90723 0.87833 0.0
H651 H 0.82582 0.91219 0.90487 0.0
H652 H 0.72321 0.89215 0.84623 0.0
H653 H 0.69821 0.91221 0.90956 0.0
H654 H 0.73271 0.78215 0.85439 0.0
H655 H 0.78877 0.83963 0.85118 0.0
H656 H 0.73569 0.82639 0.83576 0.0
H657 H 0.71023 0.80934 0.92994 0.0
H658 H 0.69828 0.85864 0.93606 0.0
H659 H 0.7604 0.87121 0.93229 0.0
C660 C 0.0651 0.55509 0.13456 0.0
C661 C 0.09228 0.59968 0.14522 0.0
C662 C 0.08118 0.52059 0.13401 0.0
C663 C 0.12565 0.53157 0.1441 0.0
C664 C 0.15059 0.5743 0.15642 0.0
C665 C 0.13318 0.60751 0.15705 0.0
C666 C 0.05271 0.47435 0.12135 0.0
C667 C 0.19826 0.58741 0.16736 0.0
C668 C 0.16965 0.43983 0.15035 0.0
C669 C 0.20139 0.45161 0.13342 0.0
C670 C 0.14294 0.46408 0.15357 0.0
C671 C 0.14952 0.50199 0.13989 0.0
C672 C 0.18165 0.51407 0.12278 0.0
C673 C 0.20665 0.48804 0.11955 0.0
C674 C 0.10781 0.44921 0.17157 0.0
C675 C 0.19044 0.55518 0.10814 0.0
H676 H 0.03312 0.54845 0.12558 0.0
H677 H 0.15392 0.64144 0.16567 0.0
H678 H 0.0722 0.47842 0.10658 0.0
H679 H 0.05022 0.44207 0.12953 0.0
H680 H 0.01485 0.46681 0.11779 0.0
H681 H 0.21038 0.61939 0.17788 0.0
H682 H 0.19442 0.5557 0.17644 0.0
H683 H 0.22766 0.59669 0.15577 0.0
H684 H 0.16482 0.41075 0.16082 0.0
H685 H 0.23103 0.49679 0.10642 0.0
H686 H 0.07065 0.44025 0.16609 0.0
H687 H 0.12042 0.4803 0.18257 0.0
H688 H 0.10465 0.41685 0.17997 0.0
H689 H 0.15512 0.54776 0.10105 0.0
H690 H 0.21663 0.55989 0.09563 0.0
H691 H 0.20544 0.59039 0.11674 0.0
C692 C 0.70887 0.13605 0.65271 0.0
C693 C 0.72793 0.16917 0.63615 0.0
C694 C 0.65817 0.1101 0.65675 0.0
C695 C 0.6262 0.11869 0.64427 0.0
C696 C 0.6453 0.1521 0.6275 0.0
C697 C 0.696 0.17643 0.62345 0.0
C698 C 0.63889 0.0737 0.67435 0.0
C699 C 0.61235 0.16297 0.61411 0.0
C700 C 0.48808 0.03718 0.64003 0.0
C701 C 0.4721 0.06416 0.65174 0.0
C702 C 0.53836 0.05209 0.63882 0.0
C703 C 0.57309 0.09524 0.6493 0.0
C704 C 0.55676 0.11967 0.6627 0.0
C705 C 0.50636 0.10337 0.66398 0.0
C706 C 0.55447 0.02405 0.62499 0.0
C707 C 0.59265 0.16596 0.67409 0.0
H708 H 0.73357 0.12975 0.66232 0.0
H709 H 0.71084 0.20197 0.61064 0.0
H710 H 0.62208 0.08612 0.68623 0.0
H711 H 0.60956 0.03729 0.66872 0.0
H712 H 0.66835 0.06906 0.68174 0.0
H713 H 0.63311 0.19001 0.60175 0.0
H714 H 0.58338 0.12856 0.60685 0.0
H715 H 0.59349 0.17783 0.62373 0.0
H716 H 0.46184 0.0064 0.63075 0.0
H717 H 0.49439 0.12404 0.67336 0.0
H718 H 0.58439 0.02019 0.63235 0.0
H719 H 0.56918 0.04465 0.61038 0.0
H720 H 0.52342 0.98681 0.6212 0.0
H721 H 0.62111 0.1609 0.6821 0.0
H722 H 0.57399 0.17721 0.68563 0.0
H723 H 0.61194 0.19647 0.66287 0.0
C724 C 0.59417 0.70653 0.1226 0.0
C725 C 0.56543 0.72643 0.11571 0.0
C726 C 0.57287 0.65601 0.1264 0.0
C727 C 0.52172 0.62512 0.12316 0.0
C728 C 0.49296 0.64507 0.11539 0.0
C729 C 0.51528 0.69589 0.11186 0.0
C730 C 0.60462 0.63619 0.13472 0.0
C731 C 0.43834 0.61301 0.1115 0.0
C732 C 0.45805 0.48692 0.11815 0.0
C733 C 0.43091 0.47239 0.13656 0.0
C734 C 0.4908 0.53674 0.11405 0.0
C735 C 0.49723 0.5724 0.12893 0.0
C736 C 0.4746 0.55737 0.1485 0.0
C737 C 0.44125 0.5074 0.15203 0.0
C738 C 0.51422 0.55134 0.09298 0.0
C739 C 0.48199 0.59435 0.16503 0.0
H740 H 0.63309 0.73088 0.12567 0.0
H741 H 0.49342 0.71191 0.10669 0.0
H742 H 0.64438 0.66457 0.13486 0.0
H743 H 0.59316 0.6227 0.1507 0.0
H744 H 0.59968 0.60443 0.12536 0.0
H745 H 0.42213 0.63368 0.10411 0.0
H746 H 0.43129 0.58152 0.10144 0.0
H747 H 0.41901 0.5976 0.12631 0.0
H748 H 0.45026 0.46005 0.10609 0.0
H749 H 0.42075 0.49621 0.16637 0.0
H750 H 0.55323 0.5811 0.09413 0.0
H751 H 0.49434 0.56567 0.08367 0.0
H752 H 0.51263 0.51964 0.08464 0.0
H753 H 0.52157 0.62247 0.16653 0.0
H754 H 0.46821 0.57653 0.18027 0.0
H755 H 0.46184 0.61379 0.1607 0.0
C756 C 0.81582 0.51204 0.62147 0.0
C757 C 0.8266 0.55245 0.634 0.0
C758 C 0.8407 0.4857 0.6242 0.0
C759 C 0.87821 0.5013 0.63939 0.0
C760 C 0.89061 0.54341 0.65149 0.0
C761 C 0.86403 0.56806 0.64887 0.0
C762 C 0.82578 0.44029 0.61128 0.0
C763 C 0.93144 0.56199 0.66732 0.0
C764 C 0.89435 0.39698 0.65868 0.0
C765 C 0.92994 0.39908 0.64494 0.0
C766 C 0.87933 0.4321 0.65796 0.0
C767 C 0.90143 0.471 0.64353 0.0
C768 C 0.94137 0.47665 0.63135 0.0
C769 C 0.95502 0.4403 0.63208 0.0
C770 C 0.8365 0.42468 0.67121 0.0
C771 C 0.967 0.5188 0.61634 0.0
H772 H 0.78696 0.5002 0.60994 0.0
H773 H 0.87298 0.60004 0.65829 0.0
H774 H 0.85807 0.44401 0.60271 0.0
H775 H 0.81241 0.40756 0.62144 0.0
H776 H 0.79625 0.43349 0.60002 0.0
H777 H 0.96551 0.56592 0.66032 0.0
H778 H 0.93978 0.59805 0.67392 0.0
H779 H 0.92083 0.53501 0.68009 0.0
H780 H 0.87534 0.36575 0.66896 0.0
H781 H 0.98303 0.44262 0.6216 0.0
H782 H 0.80368 0.4136 0.66129 0.0
H783 H 0.84485 0.45942 0.67904 0.0
H784 H 0.82692 0.39575 0.6831 0.0
H785 H 0.94329 0.51162 0.60256 0.0
H786 H 0.00288 0.52343 0.61118 0.0
H787 H 0.97341 0.55381 0.62334 0.0
C788 C 0.5177 0.95651 0.11834 0.0
C789 C 0.52959 0.93251 0.13367 0.0
C790 C 0.46858 0.94431 0.11503 0.0
C791 C 0.43102 0.9074 0.12734 0.0
C792 C 0.44353 0.88682 0.14411 0.0
C793 C 0.49276 0.89985 0.14713 0.0
C794 C 0.45664 0.96804 0.09739 0.0
C795 C 0.40455 0.8479 0.15783 0.0
C796 C 0.29819 0.87557 0.12954 0.0
C797 C 0.27558 0.8326 0.11757 0.0
C798 C 0.34948 0.90306 0.13145 0.0
C799 C 0.37846 0.88614 0.12165 0.0
C800 C 0.35587 0.84432 0.10853 0.0
C801 C 0.30439 0.81824 0.10644 0.0
C802 C 0.37218 0.9483 0.14499 0.0
C803 C 0.38573 0.82516 0.09785 0.0
H804 H 0.54604 0.98193 0.10791 0.0
H805 H 0.50195 0.8818 0.1592 0.0
H806 H 0.44201 0.94194 0.08424 0.0
H807 H 0.42783 0.97698 0.10188 0.0
H808 H 0.48974 0.00224 0.09204 0.0
H809 H 0.42074 0.83841 0.1711 0.0
H810 H 0.37966 0.86056 0.16387 0.0
H811 H 0.3817 0.81395 0.14872 0.0
H812 H 0.27557 0.88712 0.13778 0.0
H813 H 0.28659 0.78512 0.09711 0.0
H814 H 0.4065 0.97816 0.13803 0.0
H815 H 0.38202 0.93909 0.16014 0.0
H816 H 0.34634 0.96231 0.1477 0.0
H817 H 0.41697 0.8553 0.08937 0.0
H818 H 0.36319 0.79498 0.08685 0.0
H819 H 0.4015 0.81101 0.10955 0.0
C820 C 0.60054 0.48465 0.66241 0.0
C821 C 0.59588 0.51767 0.64923 0.0
C822 C 0.56597 0.43433 0.66207 0.0
C823 C 0.52513 0.41681 0.64858 0.0
C824 C 0.51721 0.45052 0.63697 0.0
C825 C 0.55297 0.50074 0.63732 0.0
C826 C 0.57585 0.39957 0.67466 0.0
C827 C 0.47308 0.43318 0.62295 0.0
C828 C 0.48162 0.29035 0.62596 0.0
C829 C 0.44224 0.26057 0.63895 0.0
C830 C 0.50858 0.34146 0.62884 0.0
C831 C 0.49478 0.36319 0.64472 0.0
C832 C 0.45411 0.33337 0.65751 0.0
C833 C 0.4287 0.28223 0.65466 0.0
C834 C 0.55249 0.37206 0.61516 0.0
C835 C 0.4376 0.35545 0.67421 0.0
H836 H 0.63314 0.49746 0.67196 0.0
H837 H 0.54874 0.52603 0.62727 0.0
H838 H 0.54225 0.37268 0.68305 0.0
H839 H 0.58637 0.37836 0.6642 0.0
H840 H 0.60605 0.41939 0.68603 0.0
H841 H 0.46748 0.46402 0.61806 0.0
H842 H 0.47854 0.41619 0.60895 0.0
H843 H 0.43912 0.40474 0.63068 0.0
H844 H 0.49197 0.27354 0.61381 0.0
H845 H 0.39759 0.2592 0.66449 0.0
H846 H 0.58633 0.39167 0.62472 0.0
H847 H 0.54757 0.4004 0.60698 0.0
H848 H 0.55821 0.34941 0.60353 0.0
H849 H 0.46694 0.3734 0.68603 0.0
H850 H 0.40332 0.32741 0.68194 0.0
H851 H 0.43109 0.38437 0.6676 0.0
C852 C 0.4245 0.94584 0.37972 0.0
C853 C 0.38727 0.92013 0.36506 0.0
C854 C 0.46148 0.93376 0.38309 0.0
C855 C 0.46082 0.89517 0.37155 0.0
C856 C 0.42598 0.87229 0.35551 0.0
C857 C 0.38976 0.88526 0.3524 0.0
C858 C 0.49895 0.95983 0.39995 0.0
C859 C 0.42458 0.83145 0.34262 0.0
C860 C 0.56276 0.86488 0.36844 0.0
C861 C 0.54449 0.82357 0.38135 0.0
C862 C 0.53807 0.89147 0.36643 0.0
C863 C 0.49336 0.8753 0.37715 0.0
C864 C 0.47637 0.83533 0.39118 0.0
C865 C 0.50266 0.81015 0.39331 0.0
C866 C 0.55825 0.93481 0.35186 0.0
C867 C 0.42869 0.81704 0.40285 0.0
H868 H 0.42288 0.97295 0.38954 0.0
H869 H 0.36149 0.86579 0.34084 0.0
H870 H 0.48922 0.93531 0.41358 0.0
H871 H 0.53628 0.96862 0.39487 0.0
H872 H 0.50019 0.99442 0.40479 0.0
H873 H 0.39708 0.81969 0.32994 0.0
H874 H 0.46131 0.84344 0.33582 0.0
H875 H 0.4151 0.79907 0.35256 0.0
H876 H 0.59594 0.87577 0.35955 0.0
H877 H 0.48897 0.77834 0.40337 0.0
H878 H 0.55461 0.96543 0.3585 0.0
H879 H 0.5369 0.92349 0.33726 0.0
H880 H 0.59766 0.94863 0.34816 0.0
H881 H 0.42804 0.84805 0.41077 0.0
H882 H 0.423 0.78864 0.41449 0.0
H883 H 0.39731 0.80081 0.39184 0.0
C884 C 0.7004 0.56986 0.84748 0.0
C885 C 0.72061 0.55607 0.86373 0.0
C886 C 0.64951 0.54476 0.84385 0.0
C887 C 0.6185 0.5041 0.85641 0.0
C888 C 0.63871 0.49032 0.87298 0.0
C889 C 0.68961 0.51702 0.87663 0.0
C890 C 0.62905 0.56132 0.82645 0.0
C891 C 0.60676 0.4465 0.88648 0.0
C892 C 0.48013 0.44521 0.86074 0.0
C893 C 0.46478 0.40252 0.84891 0.0
C894 C 0.53021 0.4811 0.86205 0.0
C895 C 0.56538 0.47353 0.85151 0.0
C896 C 0.54964 0.43295 0.83804 0.0
C897 C 0.49943 0.39826 0.8367 0.0
C898 C 0.54568 0.525 0.87598 0.0
C899 C 0.58604 0.4235 0.82655 0.0
H900 H 0.72439 0.60076 0.83773 0.0
H901 H 0.70533 0.50654 0.88921 0.0
H902 H 0.61347 0.53258 0.81432 0.0
H903 H 0.59859 0.56655 0.83215 0.0
H904 H 0.6576 0.59628 0.81934 0.0
H905 H 0.62821 0.44104 0.89883 0.0
H906 H 0.57739 0.45122 0.89377 0.0
H907 H 0.58839 0.41261 0.87693 0.0
H908 H 0.45357 0.44918 0.87002 0.0
H909 H 0.48791 0.36582 0.82723 0.0
H910 H 0.57507 0.55907 0.86867 0.0
H911 H 0.56087 0.51938 0.89054 0.0
H912 H 0.51419 0.53043 0.87987 0.0
H913 H 0.61359 0.45716 0.81839 0.0
H914 H 0.56769 0.39322 0.81513 0.0
H915 H 0.60639 0.41336 0.83773 0.0
C916 C 0.15899 0.68672 0.38884 0.0
C917 C 0.14474 0.71865 0.38041 0.0
C918 C 0.13106 0.63598 0.38494 0.0
C919 C 0.08774 0.61739 0.3727 0.0
C920 C 0.07155 0.64946 0.36548 0.0
C921 C 0.10074 0.69997 0.3692 0.0
C922 C 0.1494 0.60272 0.3929 0.0
C923 C 0.02501 0.63101 0.35288 0.0
C924 C 0.06406 0.50397 0.34339 0.0
C925 C 0.03222 0.46665 0.35688 0.0
C926 C 0.07972 0.55339 0.34761 0.0
C927 C 0.06285 0.56553 0.36569 0.0
C928 C 0.02646 0.52779 0.37808 0.0
C929 C 0.01138 0.47855 0.37348 0.0
C930 C 0.11775 0.59271 0.33374 0.0
C931 C 0.00675 0.53941 0.39719 0.0
H932 H 0.1931 0.70166 0.39752 0.0
H933 H 0.08974 0.72517 0.36295 0.0
H934 H 0.11962 0.57103 0.40132 0.0
H935 H 0.16029 0.58769 0.37972 0.0
H936 H 0.18165 0.62236 0.40335 0.0
H937 H -0.00525 0.59632 0.35941 0.0
H938 H 0.01265 0.6586 0.35208 0.0
H939 H 0.03182 0.62303 0.33695 0.0
H940 H 0.07965 0.49491 0.33034 0.0
H941 H 0.98645 0.4499 0.38393 0.0
H942 H 0.15357 0.61237 0.34199 0.0
H943 H 0.10679 0.62029 0.32971 0.0
H944 H 0.12318 0.57714 0.31925 0.0
H945 H 0.03493 0.55187 0.40959 0.0
H946 H 0.97261 0.50673 0.40286 0.0
H947 H -0.00111 0.56968 0.39422 0.0
C948 C 0.54251 0.04253 0.85915 0.0
C949 C 0.58471 0.06894 0.84694 0.0
C950 C 0.50678 0.05698 0.86035 0.0
C951 C 0.51404 0.09909 0.84933 0.0
C952 C 0.55412 0.12297 0.83556 0.0
C953 C 0.5886 0.10716 0.83432 0.0
C954 C 0.4634 0.02954 0.87462 0.0
C955 C 0.56329 0.16815 0.82357 0.0
C956 C 0.41763 0.13777 0.84488 0.0
C957 C 0.43197 0.17256 0.8608 0.0
C958 C 0.4426 0.11177 0.84151 0.0
C959 C 0.4837 0.12202 0.85398 0.0
C960 C 0.49812 0.15693 0.87017 0.0
C961 C 0.47152 0.18129 0.87359 0.0
C962 C 0.42533 0.07377 0.82453 0.0
C963 C 0.54248 0.16956 0.88352 0.0
H964 H 0.53882 0.01256 0.86875 0.0
H965 H 0.62065 0.12736 0.82457 0.0
H966 H 0.46959 0.0513 0.88891 0.0
H967 H 0.42903 0.02441 0.86735 0.0
H968 H 0.45807 0.9929 0.87896 0.0
H969 H 0.59317 0.17934 0.81202 0.0
H970 H 0.52935 0.16165 0.81547 0.0
H971 H 0.57389 0.19926 0.83441 0.0
H972 H 0.38636 0.13036 0.83522 0.0
H973 H 0.48244 0.20813 0.88591 0.0
H974 H 0.41997 0.03835 0.83065 0.0
H975 H 0.45378 0.08602 0.8123 0.0
H976 H 0.39026 0.06722 0.81741 0.0
H977 H 0.53794 0.13593 0.89121 0.0
H978 H 0.54849 0.19726 0.89554 0.0
H979 H 0.57601 0.18436 0.87378 0.0
C980 C 0.25982 0.4283 0.34825 0.0
C981 C 0.23838 0.44072 0.36441 0.0
C982 C 0.31105 0.45223 0.34594 0.0
C983 C 0.34118 0.49052 0.35971 0.0
C984 C 0.31965 0.50295 0.37617 0.0
C985 C 0.26833 0.47718 0.37853 0.0
C986 C 0.33286 0.43697 0.32866 0.0
C987 C 0.35068 0.54444 0.39088 0.0
C988 C 0.47883 0.54581 0.36627 0.0
C989 C 0.49609 0.58966 0.35506 0.0
C990 C 0.42833 0.51088 0.36672 0.0
C991 C 0.39479 0.52071 0.35598 0.0
C992 C 0.41251 0.56274 0.34323 0.0
C993 C 0.46303 0.59633 0.3427 0.0
C994 C 0.41066 0.46536 0.37985 0.0
C995 C 0.37789 0.57466 0.33159 0.0
H996 H 0.23648 0.39916 0.33761 0.0
H997 H 0.25151 0.48637 0.39107 0.0
H998 H 0.35062 0.46717 0.31723 0.0
H999 H 0.36187 0.4299 0.33477 0.0
H1000 H 0.3046 0.40337 0.32058 0.0
H1001 H 0.3282 0.54889 0.403 0.0
H1002 H 0.37855 0.53772 0.39846 0.0
H1003 H 0.37092 0.57956 0.38221 0.0
H1004 H 0.50417 0.5401 0.37569 0.0
H1005 H 0.47614 0.62967 0.33366 0.0
H1006 H 0.38144 0.43248 0.37176 0.0
H1007 H 0.39449 0.46987 0.39432 0.0
H1008 H 0.4412 0.45856 0.38397 0.0
H1009 H 0.35119 0.54256 0.32235 0.0
H1010 H 0.39783 0.60668 0.32109 0.0
H1011 H 0.3564 0.58326 0.34274 0.0
C1012 C 0.94309 0.50592 0.86368 0.0
C1013 C 0.9189 0.52369 0.85111 0.0
C1014 C 0.92838 0.45562 0.86378 0.0
C1015 C 0.88829 0.42271 0.85124 0.0
C1016 C 0.86704 0.44119 0.83714 0.0
C1017 C 0.88307 0.49157 0.83706 0.0
C1018 C 0.95306 0.43729 0.87849 0.0
C1019 C 0.82408 0.40732 0.82354 0.0
C1020 C 0.84952 0.28812 0.84454 0.0
C1021 C 0.81226 0.26594 0.85941 0.0
C1022 C 0.87619 0.33942 0.84224 0.0
C1023 C 0.86413 0.36887 0.85469 0.0
C1024 C 0.82648 0.34657 0.86973 0.0
C1025 C 0.80148 0.29529 0.87212 0.0
C1026 C 0.91707 0.36207 0.8265 0.0
C1027 C 0.81185 0.37676 0.88299 0.0
H1028 H 0.9712 0.53053 0.87442 0.0
H1029 H 0.86475 0.50508 0.827 0.0
H1030 H 0.92885 0.41992 0.89203 0.0
H1031 H 0.95915 0.40893 0.87104 0.0
H1032 H 0.989 0.46769 0.8841 0.0
H1033 H 0.81539 0.4279 0.81189 0.0
H1034 H 0.83172 0.38079 0.81539 0.0
H1035 H 0.79094 0.38566 0.83324 0.0
H1036 H 0.8585 0.26536 0.83496 0.0
H1037 H 0.77275 0.27803 0.88364 0.0
H1038 H 0.95165 0.39041 0.83393 0.0
H1039 H 0.90758 0.38085 0.81434 0.0
H1040 H 0.92402 0.33421 0.81906 0.0
H1041 H 0.84411 0.40436 0.89193 0.0
H1042 H 0.78184 0.35368 0.89396 0.0
H1043 H 0.79927 0.39722 0.87307 0.0
C1044 C 0.08317 0.31091 0.27724 0.0
C1045 C 0.079 0.28048 0.29387 0.0
C1046 C 0.10303 0.30745 0.25836 0.0
C1047 C 0.11999 0.27342 0.25623 0.0
C1048 C 0.11396 0.24117 0.27266 0.0
C1049 C 0.09306 0.24475 0.29123 0.0
C1050 C 0.10778 0.34169 0.24099 0.0
C1051 C 0.13214 0.20484 0.27106 0.0
C1052 C 0.14575 0.24834 0.20179 0.0
C1053 C 0.19591 0.28349 0.19967 0.0
C1054 C 0.12073 0.24354 0.22032 0.0
C1055 C 0.14676 0.27392 0.23726 0.0
C1056 C 0.19806 0.30726 0.23563 0.0
C1057 C 0.22194 0.31202 0.21677 0.0
C1058 C 0.06592 0.20807 0.22137 0.0
C1059 C 0.22732 0.33948 0.25354 0.0
H1060 H 0.07216 0.33841 0.27916 0.0
H1061 H 0.09034 0.22136 0.30407 0.0
H1062 H 0.1473 0.36828 0.23813 0.0
H1063 H 0.09222 0.32055 0.22654 0.0
H1064 H 0.08874 0.36272 0.24445 0.0
H1065 H 0.12099 0.17963 0.28454 0.0
H1066 H 0.1179 0.18249 0.25682 0.0
H1067 H 0.17297 0.22514 0.27007 0.0
H1068 H 0.12523 0.22641 0.18859 0.0
H1069 H 0.26073 0.33906 0.21526 0.0
H1070 H 0.04616 0.22907 0.22271 0.0
H1071 H 0.05668 0.18435 0.23523 0.0
H1072 H 0.05196 0.18416 0.20749 0.0
H1073 H 0.21525 0.36656 0.25683 0.0
H1074 H 0.26757 0.35993 0.2504 0.0
H1075 H 0.22053 0.31688 0.26763 0.0
C1076 C 0.89639 0.1208 0.69992 0.0
C1077 C 0.91222 0.17092 0.69714 0.0
C1078 C 0.88087 0.09862 0.71937 0.0
C1079 C 0.88192 0.12752 0.73632 0.0
C1080 C 0.90242 0.17901 0.73393 0.0
C1081 C 0.91698 0.20002 0.71432 0.0
C1082 C 0.85946 0.04368 0.72131 0.0
C1083 C 0.90525 0.21139 0.75173 0.0
C1084 C 0.78383 0.08096 0.77742 0.0
C1085 C 0.80991 0.07932 0.79469 0.0
C1086 C 0.80579 0.09278 0.7579 0.0
C1087 C 0.85527 0.10387 0.75568 0.0
C1088 C 0.88051 0.09857 0.77273 0.0
C1089 C 0.85737 0.08605 0.79208 0.0
C1090 C 0.77717 0.09698 0.73999 0.0
C1091 C 0.9332 0.10991 0.77095 0.0
H1092 H 0.89258 0.09813 0.68665 0.0
H1093 H 0.9298 0.23891 0.71225 0.0
H1094 H 0.87148 0.03425 0.73587 0.0
H1095 H 0.81865 0.0255 0.72166 0.0
H1096 H 0.87013 0.02837 0.70813 0.0
H1097 H 0.92776 0.25118 0.74794 0.0
H1098 H 0.86755 0.20333 0.75582 0.0
H1099 H 0.92128 0.2037 0.76554 0.0
H1100 H 0.74689 0.0751 0.77932 0.0
H1101 H 0.87772 0.08481 0.80539 0.0
H1102 H 0.78025 0.07758 0.72627 0.0
H1103 H 0.7928 0.13633 0.73579 0.0
H1104 H 0.73751 0.08149 0.74369 0.0
H1105 H 0.9389 0.0946 0.75648 0.0
H1106 H 0.94417 0.09506 0.78424 0.0
H1107 H 0.958 0.15042 0.77051 0.0
C1108 C 0.73971 0.91416 0.20949 0.0
C1109 C 0.70017 0.8811 0.19715 0.0
C1110 C 0.74353 0.90264 0.23014 0.0
C1111 C 0.70783 0.85642 0.23826 0.0
C1112 C 0.66907 0.82223 0.22552 0.0
C1113 C 0.66531 0.8353 0.20524 0.0
C1114 C 0.78456 0.94049 0.24344 0.0
C1115 C 0.63086 0.77212 0.23342 0.0
C1116 C 0.72686 0.80437 0.28824 0.0
C1117 C 0.69503 0.81059 0.3014 0.0
C1118 C 0.73296 0.82066 0.26766 0.0
C1119 C 0.70782 0.84495 0.2605 0.0
C1120 C 0.67807 0.85382 0.27423 0.0
C1121 C 0.67142 0.8358 0.2944 0.0
C1122 C 0.76401 0.80951 0.25333 0.0
C1123 C 0.65161 0.88064 0.26741 0.0
H1124 H 0.76674 0.94952 0.20318 0.0
H1125 H 0.63523 0.80927 0.19558 0.0
H1126 H 0.76871 0.95268 0.25585 0.0
H1127 H 0.80483 0.92417 0.25103 0.0
H1128 H 0.81113 0.9733 0.23447 0.0
H1129 H 0.60616 0.74811 0.22096 0.0
H1130 H 0.64905 0.75335 0.24077 0.0
H1131 H 0.6079 0.77634 0.24535 0.0
H1132 H 0.74507 0.78485 0.29376 0.0
H1133 H 0.64741 0.84125 0.30476 0.0
H1134 H 0.79047 0.84309 0.24479 0.0
H1135 H 0.73985 0.78191 0.24172 0.0
H1136 H 0.78483 0.79473 0.26169 0.0
H1137 H 0.67738 0.91524 0.25928 0.0
H1138 H 0.63496 0.88976 0.28058 0.0
H1139 H 0.62179 0.85735 0.25641 0.0
C1140 C 0.86616 0.77031 0.70354 0.0
C1141 C 0.81815 0.73114 0.70022 0.0
C1142 C 0.88742 0.77982 0.72333 0.0
C1143 C 0.85968 0.7498 0.74007 0.0
C1144 C 0.80981 0.71307 0.73704 0.0
C1145 C 0.78981 0.70394 0.71712 0.0
C1146 C 0.94064 0.81932 0.72593 0.0
C1147 C 0.77854 0.68088 0.75456 0.0
C1148 C 0.9136 0.71088 0.78324 0.0
C1149 C 0.90887 0.73622 0.80005 0.0
C1150 C 0.90174 0.71837 0.76324 0.0
C1151 C 0.88384 0.75137 0.76004 0.0
C1152 C 0.88269 0.77993 0.7767 0.0
C1153 C 0.89559 0.77224 0.79657 0.0
C1154 C 0.90462 0.68795 0.74582 0.0
C1155 C 0.8639 0.8155 0.77392 0.0
H1156 H 0.88825 0.79142 0.6905 0.0
H1157 H 0.75246 0.67405 0.71464 0.0
H1158 H 0.94592 0.84058 0.7403 0.0
H1159 H 0.96381 0.80184 0.72715 0.0
H1160 H 0.95398 0.84519 0.71266 0.0
H1161 H 0.73908 0.65828 0.75016 0.0
H1162 H 0.79204 0.65568 0.75933 0.0
H1163 H 0.78142 0.70369 0.76813 0.0
H1164 H 0.92444 0.68344 0.78587 0.0
H1165 H 0.89178 0.79183 0.80956 0.0
H1166 H 0.92278 0.71143 0.73217 0.0
H1167 H 0.86682 0.6596 0.74112 0.0
H1168 H 0.92521 0.66901 0.7503 0.0
H1169 H 0.87833 0.83703 0.7595 0.0
H1170 H 0.87421 0.8414 0.78712 0.0
H1171 H 0.8231 0.79452 0.77272 0.0
C1172 C 0.15731 0.84767 0.20404 0.0
C1173 C 0.10889 0.82082 0.19668 0.0
C1174 C 0.16709 0.86439 0.22443 0.0
C1175 C 0.12731 0.8525 0.23797 0.0
C1176 C 0.07825 0.82697 0.23038 0.0
C1177 C 0.06962 0.81197 0.20961 0.0
C1178 C 0.21997 0.89253 0.23173 0.0
C1179 C 0.03488 0.81269 0.24446 0.0
C1180 C 0.15865 0.83694 0.29272 0.0
C1181 C 0.16768 0.88107 0.30195 0.0
C1182 C 0.14284 0.8262 0.27223 0.0
C1183 C 0.13732 0.86115 0.26043 0.0
C1184 C 0.14569 0.90559 0.26973 0.0
C1185 C 0.16008 0.91473 0.29057 0.0
C1186 C 0.13325 0.77787 0.26308 0.0
C1187 C 0.14134 0.94419 0.25748 0.0
H1188 H 0.18767 0.85504 0.19385 0.0
H1189 H 0.0322 0.79113 0.20381 0.0
H1190 H 0.22672 0.92548 0.24069 0.0
H1191 H 0.22749 0.86885 0.24209 0.0
H1192 H 0.24649 0.90456 0.21871 0.0
H1193 H -0.00022 0.79849 0.23576 0.0
H1194 H 0.03135 0.78356 0.25523 0.0
H1195 H 0.04059 0.84456 0.25393 0.0
H1196 H 0.16355 0.8104 0.30164 0.0
H1197 H 0.16692 0.94878 0.29777 0.0
H1198 H 0.16142 0.7848 0.25119 0.0
H1199 H 0.0967 0.75896 0.25538 0.0
H1200 H 0.13434 0.75272 0.27489 0.0
H1201 H 0.17043 0.95951 0.24547 0.0
H1202 H 0.14524 0.97492 0.26733 0.0
H1203 H 0.10529 0.92758 0.24941 0.0
C1204 C 0.27613 0.20219 0.78024 0.0
C1205 C 0.25017 0.17508 0.79759 0.0
C1206 C 0.26813 0.17979 0.76087 0.0
C1207 C 0.23379 0.12885 0.7589 0.0
C1208 C 0.20443 0.10229 0.77598 0.0
C1209 C 0.21281 0.12587 0.79518 0.0
C1210 C 0.29944 0.20978 0.74291 0.0
C1211 C 0.16727 0.04806 0.77447 0.0
C1212 C 0.2158 0.08518 0.70349 0.0
C1213 C 0.2543 0.07482 0.70148 0.0
C1214 C 0.20584 0.09945 0.72259 0.0
C1215 C 0.23476 0.10279 0.73996 0.0
C1216 C 0.27037 0.08771 0.73837 0.0
C1217 C 0.27995 0.07425 0.7191 0.0
C1218 C 0.16739 0.11494 0.72369 0.0
C1219 C 0.30128 0.08965 0.75665 0.0
H1220 H 0.30455 0.24044 0.78201 0.0
H1221 H 0.19258 0.10474 0.80857 0.0
H1222 H 0.32679 0.19828 0.73921 0.0
H1223 H 0.27631 0.20327 0.729 0.0
H1224 H 0.31966 0.24988 0.74632 0.0
H1225 H 0.14073 0.03546 0.78749 0.0
H1226 H 0.14647 0.03939 0.75974 0.0
H1227 H 0.18687 0.02678 0.7748 0.0
H1228 H 0.19582 0.08565 0.6899 0.0
H1229 H 0.30925 0.06556 0.71764 0.0
H1230 H 0.18591 0.15575 0.72354 0.0
H1231 H 0.14593 0.102 0.7382 0.0
H1232 H 0.14154 0.10068 0.7104 0.0
H1233 H 0.32749 0.12864 0.76064 0.0
H1234 H 0.32277 0.07095 0.75347 0.0
H1235 H 0.27764 0.07215 0.77032 0.0
C1236 C 0.36186 0.35249 0.95 0.0
C1237 C 0.35226 0.30488 0.94514 0.0
C1238 C 0.35767 0.36527 0.97032 0.0
C1239 C 0.34261 0.32928 0.98602 0.0
C1240 C 0.33465 0.28171 0.98135 0.0
C1241 C 0.34004 0.27023 0.96097 0.0
C1242 C 0.36768 0.41671 0.97483 0.0
C1243 C 0.31816 0.24221 0.99768 0.0
C1244 C 0.35858 0.36151 0.04286 0.0
C1245 C 0.31099 0.35108 0.04832 0.0
C1246 C 0.3701 0.35684 0.02242 0.0
C1247 C 0.33284 0.34036 0.00718 0.0
C1248 C 0.2852 0.33154 0.01244 0.0
C1249 C 0.27498 0.33751 0.03296 0.0
C1250 C 0.42162 0.36779 0.0173 0.0
C1251 C 0.24437 0.31344 0.99662 0.0
H1252 H 0.37165 0.37953 0.93783 0.0
H1253 H 0.33225 0.23329 0.95728 0.0
H1254 H 0.33283 0.41546 0.97916 0.0
H1255 H 0.39334 0.43261 0.98809 0.0
H1256 H 0.38373 0.44164 0.96136 0.0
H1257 H 0.31516 0.20765 0.99165 0.0
H1258 H 0.3444 0.25538 0.01081 0.0
H1259 H 0.28167 0.23377 0.00377 0.0
H1260 H 0.38667 0.37249 0.05469 0.0
H1261 H 0.2381 0.32915 0.03715 0.0
H1262 H 0.43596 0.39257 0.00372 0.0
H1263 H 0.42095 0.33312 0.01319 0.0
H1264 H 0.44754 0.3852 0.0304 0.0
H1265 H 0.25623 0.33863 0.98316 0.0
H1266 H 0.21009 0.31046 0.00299 0.0
H1267 H 0.2359 0.27667 0.9909 0.0
C1268 C 0.98097 0.34721 0.45026 0.0
C1269 C 0.01909 0.33791 0.44518 0.0
C1270 C 0.96394 0.34222 0.47059 0.0
C1271 C 0.98489 0.3266 0.48611 0.0
C1272 C 0.02428 0.31842 0.48118 0.0
C1273 C 0.04127 0.32468 0.46079 0.0
C1274 C 0.92271 0.35242 0.47536 0.0
C1275 C 0.04721 0.30119 0.49729 0.0
C1276 C 0.96989 0.34172 0.54315 0.0
C1277 C 0.93276 0.29413 0.54858 0.0
C1278 C 0.98562 0.35356 0.52265 0.0
C1279 C 0.96437 0.31664 0.50732 0.0
C1280 C 0.92544 0.26911 0.51255 0.0
C1281 C 0.90974 0.25856 0.53311 0.0
C1282 C 0.02635 0.40499 0.51757 0.0
C1283 C 0.90217 0.22862 0.49664 0.0
H1284 H 0.96397 0.35784 0.43825 0.0
H1285 H 0.07051 0.31714 0.45691 0.0
H1286 H 0.88922 0.31773 0.47991 0.0
H1287 H 0.93302 0.37823 0.48857 0.0
H1288 H 0.9134 0.36837 0.46196 0.0
H1289 H 0.07829 0.29763 0.49105 0.0
H1290 H 0.06095 0.32731 0.51044 0.0
H1291 H 0.01893 0.26487 0.50343 0.0
H1292 H 0.98753 0.36946 0.55504 0.0
H1293 H 0.88126 0.22164 0.53724 0.0
H1294 H 0.01592 0.41965 0.50408 0.0
H1295 H 0.0602 0.40411 0.51336 0.0
H1296 H 0.03511 0.43072 0.53074 0.0
H1297 H 0.88903 0.24097 0.48326 0.0
H1298 H 0.87063 0.19448 0.50298 0.0
H1299 H 0.93011 0.21972 0.49082 0.0
C1300 C 0.64743 0.99168 0.0411 0.0
C1301 C 0.66259 0.95709 0.04473 0.0
C1302 C 0.64899 0.01015 0.02125 0.0
C1303 C 0.66692 0.99423 0.0047 0.0
C1304 C 0.68114 0.95841 0.00815 0.0
C1305 C 0.67841 0.93994 0.02812 0.0
C1306 C 0.63257 0.04751 0.01807 0.0
C1307 C 0.70083 0.94085 0.99088 0.0
C1308 C 0.64405 0.01183 0.94874 0.0
C1309 C 0.68941 0.05266 0.9432 0.0
C1310 C 0.63528 0.99371 0.96899 0.0
C1311 C 0.67303 0.01656 0.98394 0.0
C1312 C 0.71797 0.05921 0.9787 0.0
C1313 C 0.72547 0.077 0.95841 0.0
C1314 C 0.58647 0.94881 0.97414 0.0
C1315 C 0.7592 0.08446 0.99422 0.0
H1316 H 0.63468 0.00472 0.05385 0.0
H1317 H 0.69032 0.91336 0.03085 0.0
H1318 H 0.66455 0.0834 0.01352 0.0
H1319 H 0.6052 0.03566 0.00537 0.0
H1320 H 0.61596 0.0531 0.0322 0.0
H1321 H 0.70907 0.91189 0.99601 0.0
H1322 H 0.67378 0.92593 0.97805 0.0
H1323 H 0.73511 0.97232 0.98465 0.0
H1324 H 0.61587 0.99304 0.93709 0.0
H1325 H 0.76069 0.10843 0.95424 0.0
H1326 H 0.5709 0.95518 0.98839 0.0
H1327 H 0.59202 0.91706 0.97711 0.0
H1328 H 0.55917 0.93877 0.96147 0.0
H1329 H 0.7456 0.09362 0.00836 0.0
H1330 H 0.79072 0.11881 0.98802 0.0
H1331 H 0.77273 0.05916 -0.00119 0.0
C1332 C 0.64192 0.62095 0.54735 0.0
C1333 C 0.68976 0.63047 0.55183 0.0
C1334 C 0.62832 0.62555 0.5272 0.0
C1335 C 0.66364 0.64076 0.51122 0.0
C1336 C 0.71118 0.64791 0.51543 0.0
C1337 C 0.72356 0.64231 0.53568 0.0
C1338 C 0.57696 0.61659 0.52324 0.0
C1339 C 0.74998 0.66445 0.49882 0.0
C1340 C 0.62701 0.6324 0.45481 0.0
C1341 C 0.63774 0.6808 0.45082 0.0
C1342 C 0.63385 0.61831 0.47456 0.0
C1343 C 0.65252 0.65364 0.49059 0.0
C1344 C 0.66226 0.70218 0.48679 0.0
C1345 C 0.65441 0.71506 0.46701 0.0
C1346 C 0.62219 0.56598 0.47814 0.0
C1347 C 0.68252 0.74104 0.50347 0.0
H1348 H 0.61542 0.61131 0.55972 0.0
H1349 H 0.76062 0.64985 0.53903 0.0
H1350 H 0.57862 0.65213 0.51997 0.0
H1351 H 0.56062 0.59274 0.5095 0.0
H1352 H 0.55218 0.59906 0.53663 0.0
H1353 H 0.78373 0.66457 0.50421 0.0
H1354 H 0.73527 0.64013 0.48513 0.0
H1355 H 0.76038 0.70225 0.49377 0.0
H1356 H 0.61387 0.6056 0.44242 0.0
H1357 H 0.66301 0.75258 0.46408 0.0
H1358 H 0.59738 0.55002 0.49162 0.0
H1359 H 0.65659 0.5655 0.48173 0.0
H1360 H 0.60445 0.54208 0.46451 0.0
H1361 H 0.65755 0.72857 0.517 0.0
H1362 H 0.68727 0.77683 0.49811 0.0
H1363 H 0.7188 0.74696 0.50878 0.0
C1364 C 0.91063 0.64588 0.96459 0.0
C1365 C 0.93139 0.63251 0.94848 0.0
C1366 C 0.92883 0.65136 0.9848 0.0
C1367 C 0.96811 0.64245 0.98901 0.0
C1368 C 0.98669 0.62546 0.97309 0.0
C1369 C 0.96838 0.62108 0.95298 0.0
C1370 C 0.90822 0.66982 0.00135 0.0
C1371 C 0.02781 0.61456 0.97704 0.0
C1372 C 0.05508 0.71716 0.03229 0.0
C1373 C 0.03723 0.68386 0.04882 0.0
C1374 C 0.03324 0.70382 0.01271 0.0
C1375 C -0.007 0.65573 0.00946 0.0
C1376 C 0.97603 0.62127 0.02583 0.0
C1377 C -0.00188 0.63585 0.04536 0.0
C1378 C 0.05227 0.74176 0.99567 0.0
C1379 C 0.93385 0.56942 0.02282 0.0
H1380 H 0.88217 0.65493 0.9612 0.0
H1381 H 0.98423 0.61023 0.94062 0.0
H1382 H 0.89855 0.64621 0.01527 0.0
H1383 H 0.93665 0.7076 0.00599 0.0
H1384 H 0.87496 0.67078 0.99605 0.0
H1385 H 0.0335 0.59551 0.96379 0.0
H1386 H 0.06267 0.64951 0.97989 0.0
H1387 H 0.01997 0.59135 0.99101 0.0
H1388 H 0.08509 0.75438 0.0348 0.0
H1389 H 0.98421 0.60979 0.05802 0.0
H1390 H 0.02252 0.74868 0.9904 0.0
H1391 H 0.06346 0.72782 0.98221 0.0
H1392 H 0.0843 0.7773 0.00064 0.0
H1393 H 0.89953 0.57022 0.01943 0.0
H1394 H 0.92752 0.54604 0.03665 0.0
H1395 H 0.94113 0.55202 0.00942 0.0
C1396 C 0.25205 0.9314 0.47047 0.0
C1397 C 0.28449 0.94824 0.4537 0.0
C1398 C 0.26837 0.95052 0.49032 0.0
C1399 C 0.31847 0.98665 0.49345 0.0
C1400 C 0.35183 0.00209 0.47675 0.0
C1401 C 0.33434 0.98301 0.45702 0.0
C1402 C 0.23162 0.93345 0.50778 0.0
C1403 C 0.40568 0.0397 0.47959 0.0
C1404 C 0.34322 0.07121 0.53913 0.0
C1405 C 0.35524 0.04753 0.55453 0.0
C1406 C 0.33274 0.05266 0.51896 0.0
C1407 C 0.33518 0.00994 0.51403 0.0
C1408 C 0.3506 0.9879 0.52913 0.0
C1409 C 0.36011 0.00675 0.54927 0.0
C1410 C 0.31623 0.07708 0.50326 0.0
C1411 C 0.35477 0.94301 0.5243 0.0
H1412 H 0.21349 0.90468 0.46796 0.0
H1413 H 0.35972 -0.00422 0.44413 0.0
H1414 H 0.24432 0.91928 0.52069 0.0
H1415 H 0.22871 0.96502 0.5138 0.0
H1416 H 0.19437 0.90407 0.50291 0.0
H1417 H 0.42754 0.04456 0.46542 0.0
H1418 H 0.40961 0.07579 0.48378 0.0
H1419 H 0.42157 0.02861 0.49242 0.0
H1420 H 0.33917 0.10259 0.54309 0.0
H1421 H 0.36975 0.98849 0.56107 0.0
H1422 H 0.2773 0.05148 0.4989 0.0
H1423 H 0.33863 0.08567 0.48903 0.0
H1424 H 0.31911 0.11166 0.5092 0.0
H1425 H 0.31747 0.91089 0.52172 0.0
H1426 H 0.37275 0.93389 0.53699 0.0
H1427 H 0.37615 0.94878 0.50993 0.0
loop_
_geom_bond_atom_site_label_1
_geom_bond_atom_site_label_2
_geom_bond_distance
_geom_bond_site_symmetry_2
_ccdc_geom_bond_type
O0 Zn1 1.953 . S
O0 C16 1.225 . S
Zn1 O0 1.953 . S
Zn1 O2 1.949 . S
Zn1 O8 1.919 . S
Zn1 O13 1.924 . S
O2 Zn1 1.949 . S
O2 Zn3 1.923 . S
O2 Zn4 1.950 . S
O2 Zn5 1.945 . S
Zn3 O2 1.923 . S
Zn3 O6 1.933 . S
Zn3 O9 1.941 . S
Zn3 O10 1.965 . S
Zn4 O2 1.950 . S
Zn4 O11 1.938 . S
Zn4 O12 1.906 . S
Zn4 O22 1.953 . S
Zn5 O2 1.945 . S
Zn5 O7 1.932 . S
Zn5 O14 1.977 . S
Zn5 O15 1.910 . S
O6 Zn3 1.933 . S
O6 C17 1.226 . S
O7 Zn5 1.932 . S
O7 C17 1.307 . S
O8 Zn1 1.919 . S
O8 C19 1.253 . S
O9 Zn3 1.941 . S
O9 C19 1.283 . S
O10 Zn3 1.965 . S
O10 C18 1.303 . S
O11 Zn4 1.938 . S
O11 C18 1.247 . S
O12 Zn4 1.906 . S
O12 C20 1.304 . S
O13 Zn1 1.924 . S
O13 C21 1.311 . S
O14 Zn5 1.977 . S
O14 C20 1.272 . S
O15 Zn5 1.910 . S
O15 C21 1.231 . S
C16 O0 1.225 . S
C16 O22 1.298 . S
C17 O6 1.226 . S
C17 O7 1.307 . S
C18 O10 1.303 . S
C18 O11 1.247 . S
C19 O8 1.253 . S
C19 O9 1.283 . S
C20 O12 1.304 . S
C20 O14 1.272 . S
C21 O13 1.311 . S
C21 O15 1.231 . S
O22 Zn4 1.953 . S
O22 C16 1.298 . S
O23 Zn24 1.953 . S
O23 C39 1.225 . S
Zn24 O23 1.953 . S
Zn24 O25 1.949 . S
Zn24 O31 1.919 . S
Zn24 O36 1.924 . S
O25 Zn24 1.949 . S
O25 Zn26 1.923 . S
O25 Zn27 1.950 . S
O25 Zn28 1.945 . S
Zn26 O25 1.923 . S
Zn26 O29 1.933 . S
Zn26 O32 1.941 . S
Zn26 O33 1.965 . S
Zn27 O25 1.950 . S
Zn27 O34 1.938 . S
Zn27 O35 1.906 . S
Zn27 O45 1.953 . S
Zn28 O25 1.945 . S
Zn28 O30 1.932 . S
Zn28 O37 1.977 . S
Zn28 O38 1.910 . S
O29 Zn26 1.933 . S
O29 C40 1.226 1_655 S
O30 Zn28 1.932 . S
O30 C40 1.307 1_655 S
O31 Zn24 1.919 . S
O31 C42 1.253 . S
O32 Zn26 1.941 . S
O32 C42 1.283 . S
O33 Zn26 1.965 . S
O33 C41 1.303 . S
O34 Zn27 1.938 . S
O34 C41 1.247 . S
O35 Zn27 1.906 . S
O35 C43 1.304 . S
O36 Zn24 1.924 . S
O36 C44 1.311 . S
O37 Zn28 1.977 . S
O37 C43 1.272 . S
O38 Zn28 1.910 . S
O38 C44 1.231 . S
C39 O23 1.225 . S
C39 O45 1.298 . S
C40 O29 1.226 1_455 S
C40 O30 1.307 1_455 S
C41 O33 1.303 . S
C41 O34 1.247 . S
C42 O31 1.253 . S
C42 O32 1.283 . S
C43 O35 1.304 . S
C43 O37 1.272 . S
C44 O36 1.311 . S
C44 O38 1.231 . S
O45 Zn27 1.953 . S
O45 C39 1.298 . S
O46 Zn47 1.953 . S
O46 C62 1.225 . S
Zn47 O46 1.953 . S
Zn47 O48 1.949 . S
Zn47 O54 1.919 . S
Zn47 O59 1.924 . S
O48 Zn47 1.949 . S
O48 Zn49 1.923 . S
O48 Zn50 1.950 . S
O48 Zn51 1.945 . S
Zn49 O48 1.923 . S
Zn49 O52 1.933 . S
Zn49 O55 1.941 . S
Zn49 O56 1.965 . S
Zn50 O48 1.950 . S
Zn50 O57 1.938 . S
Zn50 O58 1.906 . S
Zn50 O68 1.953 . S
Zn51 O48 1.945 . S
Zn51 O53 1.932 . S
Zn51 O60 1.977 . S
Zn51 O61 1.910 . S
O52 Zn49 1.933 . S
O52 C63 1.226 1_565 S
O53 Zn51 1.932 . S
O53 C63 1.307 1_565 S
O54 Zn47 1.919 . S
O54 C65 1.253 . S
O55 Zn49 1.941 . S
O55 C65 1.283 . S
O56 Zn49 1.965 . S
O56 C64 1.303 . S
O57 Zn50 1.938 . S
O57 C64 1.247 . S
O58 Zn50 1.906 . S
O58 C66 1.304 . S
O59 Zn47 1.924 . S
O59 C67 1.311 . S
O60 Zn51 1.977 . S
O60 C66 1.272 . S
O61 Zn51 1.910 . S
O61 C67 1.231 . S
C62 O46 1.225 . S
C62 O68 1.298 . S
C63 O52 1.226 1_545 S
C63 O53 1.307 1_545 S
C64 O56 1.303 . S
C64 O57 1.247 . S
C65 O54 1.253 . S
C65 O55 1.283 . S
C66 O58 1.304 . S
C66 O60 1.272 . S
C67 O59 1.311 . S
C67 O61 1.231 . S
O68 Zn50 1.953 . S
O68 C62 1.298 . S
O69 Zn70 1.953 . S
O69 C85 1.225 . S
Zn70 O69 1.953 . S
Zn70 O71 1.949 . S
Zn70 O77 1.919 . S
Zn70 O82 1.924 . S
O71 Zn70 1.949 . S
O71 Zn72 1.923 . S
O71 Zn73 1.950 . S
O71 Zn74 1.945 . S
Zn72 O71 1.923 . S
Zn72 O75 1.933 . S
Zn72 O78 1.941 . S
Zn72 O79 1.965 . S
Zn73 O71 1.950 . S
Zn73 O80 1.938 . S
Zn73 O81 1.906 . S
Zn73 O91 1.953 . S
Zn74 O71 1.945 . S
Zn74 O76 1.932 . S
Zn74 O83 1.977 . S
Zn74 O84 1.910 . S
O75 Zn72 1.933 . S
O75 C86 1.226 . S
O76 Zn74 1.932 . S
O76 C86 1.307 . S
O77 Zn70 1.919 . S
O77 C88 1.253 . S
O78 Zn72 1.941 . S
O78 C88 1.283 . S
O79 Zn72 1.965 . S
O79 C87 1.303 . S
O80 Zn73 1.938 . S
O80 C87 1.247 . S
O81 Zn73 1.906 . S
O81 C89 1.304 . S
O82 Zn70 1.924 . S
O82 C90 1.311 . S
O83 Zn74 1.977 . S
O83 C89 1.272 . S
O84 Zn74 1.910 . S
O84 C90 1.231 . S
C85 O69 1.225 . S
C85 O91 1.298 . S
C86 O75 1.226 . S
C86 O76 1.307 . S
C87 O79 1.303 . S
C87 O80 1.247 . S
C88 O77 1.253 . S
C88 O78 1.283 . S
C89 O81 1.304 . S
C89 O83 1.272 . S
C90 O82 1.311 . S
C90 O84 1.231 . S
O91 Zn73 1.953 . S
O91 C85 1.298 . S
O92 Zn93 1.953 . S
O92 C108 1.225 . S
Zn93 O92 1.953 . S
Zn93 O94 1.949 . S
Zn93 O100 1.919 . S
Zn93 O105 1.924 . S
O94 Zn93 1.949 . S
O94 Zn95 1.923 . S
O94 Zn96 1.950 . S
O94 Zn97 1.945 . S
Zn95 O94 1.923 . S
Zn95 O98 1.933 . S
Zn95 O101 1.941 . S
Zn95 O102 1.965 . S
Zn96 O94 1.950 . S
Zn96 O103 1.938 . S
Zn96 O104 1.906 . S
Zn96 O114 1.953 . S
Zn97 O94 1.945 . S
Zn97 O99 1.932 . S
Zn97 O106 1.977 . S
Zn97 O107 1.910 . S
O98 Zn95 1.933 . S
O98 C109 1.226 1_455 S
O99 Zn97 1.932 . S
O99 C109 1.307 1_455 S
O100 Zn93 1.919 . S
O100 C111 1.253 . S
O101 Zn95 1.941 . S
O101 C111 1.283 . S
O102 Zn95 1.965 . S
O102 C110 1.303 . S
O103 Zn96 1.938 . S
O103 C110 1.247 . S
O104 Zn96 1.906 . S
O104 C112 1.304 . S
O105 Zn93 1.924 . S
O105 C113 1.311 . S
O106 Zn97 1.977 . S
O106 C112 1.272 . S
O107 Zn97 1.910 . S
O107 C113 1.231 . S
C108 O92 1.225 . S
C108 O114 1.298 . S
C109 O98 1.226 1_655 S
C109 O99 1.307 1_655 S
C110 O102 1.303 . S
C110 O103 1.247 . S
C111 O100 1.253 . S
C111 O101 1.283 . S
C112 O104 1.304 . S
C112 O106 1.272 . S
C113 O105 1.311 . S
C113 O107 1.231 . S
O114 Zn96 1.953 . S
O114 C108 1.298 . S
O115 Zn116 1.953 . S
O115 C131 1.225 . S
Zn116 O115 1.953 . S
Zn116 O117 1.949 . S
Zn116 O123 1.919 . S
Zn116 O128 1.924 . S
O117 Zn116 1.949 . S
O117 Zn118 1.923 . S
O117 Zn119 1.950 . S
O117 Zn120 1.945 . S
Zn118 O117 1.923 . S
Zn118 O121 1.933 . S
Zn118 O124 1.941 . S
Zn118 O125 1.965 . S
Zn119 O117 1.950 . S
Zn119 O126 1.938 . S
Zn119 O127 1.906 . S
Zn119 O137 1.953 . S
Zn120 O117 1.945 . S
Zn120 O122 1.932 . S
Zn120 O129 1.977 . S
Zn120 O130 1.910 . S
O121 Zn118 1.933 . S
O121 C132 1.226 1_545 S
O122 Zn120 1.932 . S
O122 C132 1.307 1_545 S
O123 Zn116 1.919 . S
O123 C134 1.253 . S
O124 Zn118 1.941 . S
O124 C134 1.283 . S
O125 Zn118 1.965 . S
O125 C133 1.303 . S
O126 Zn119 1.938 . S
O126 C133 1.247 . S
O127 Zn119 1.906 . S
O127 C135 1.304 . S
O128 Zn116 1.924 . S
O128 C136 1.311 . S
O129 Zn120 1.977 . S
O129 C135 1.272 . S
O130 Zn120 1.910 . S
O130 C136 1.231 . S
C131 O115 1.225 . S
C131 O137 1.298 . S
C132 O121 1.226 1_565 S
C132 O122 1.307 1_565 S
C133 O125 1.303 . S
C133 O126 1.247 . S
C134 O123 1.253 . S
C134 O124 1.283 . S
C135 O127 1.304 . S
C135 O129 1.272 . S
C136 O128 1.311 . S
C136 O130 1.231 . S
O137 Zn119 1.953 . S
O137 C131 1.298 . S
O138 Zn139 1.953 . S
O138 C154 1.225 . S
Zn139 O138 1.953 . S
Zn139 O140 1.949 . S
Zn139 O146 1.919 . S
Zn139 O151 1.924 . S
O140 Zn139 1.949 . S
O140 Zn141 1.923 . S
O140 Zn142 1.950 . S
O140 Zn143 1.945 . S
Zn141 O140 1.923 . S
Zn141 O144 1.933 . S
Zn141 O147 1.941 . S
Zn141 O148 1.965 . S
Zn142 O140 1.950 . S
Zn142 O149 1.938 . S
Zn142 O150 1.906 . S
Zn142 O160 1.953 . S
Zn143 O140 1.945 . S
Zn143 O145 1.932 . S
Zn143 O152 1.977 . S
Zn143 O153 1.910 . S
O144 Zn141 1.933 . S
O144 C155 1.226 . S
O145 Zn143 1.932 . S
O145 C155 1.307 . S
O146 Zn139 1.919 . S
O146 C157 1.253 . S
O147 Zn141 1.941 . S
O147 C157 1.283 . S
O148 Zn141 1.965 . S
O148 C156 1.303 . S
O149 Zn142 1.938 . S
O149 C156 1.247 . S
O150 Zn142 1.906 . S
O150 C158 1.304 . S
O151 Zn139 1.924 . S
O151 C159 1.311 . S
O152 Zn143 1.977 . S
O152 C158 1.272 . S
O153 Zn143 1.910 . S
O153 C159 1.231 . S
C154 O138 1.225 . S
C154 O160 1.298 . S
C155 O144 1.226 . S
C155 O145 1.307 . S
C156 O148 1.303 . S
C156 O149 1.247 . S
C157 O146 1.253 . S
C157 O147 1.283 . S
C158 O150 1.304 . S
C158 O152 1.272 . S
C159 O151 1.311 . S
C159 O153 1.231 . S
O160 Zn142 1.953 . S
O160 C154 1.298 . S
O161 Zn162 1.953 . S
O161 C177 1.225 . S
Zn162 O161 1.953 . S
Zn162 O163 1.949 . S
Zn162 O169 1.919 . S
Zn162 O174 1.924 . S
O163 Zn162 1.949 . S
O163 Zn164 1.923 . S
O163 Zn165 1.950 . S
O163 Zn166 1.945 . S
Zn164 O163 1.923 . S
Zn164 O167 1.933 . S
Zn164 O170 1.941 . S
Zn164 O171 1.965 . S
Zn165 O163 1.950 . S
Zn165 O172 1.938 . S
Zn165 O173 1.906 . S
Zn165 O183 1.953 . S
Zn166 O163 1.945 . S
Zn166 O168 1.932 . S
Zn166 O175 1.977 . S
Zn166 O176 1.910 . S
O167 Zn164 1.933 . S
O167 C178 1.226 1_655 S
O168 Zn166 1.932 . S
O168 C178 1.307 1_655 S
O169 Zn162 1.919 . S
O169 C180 1.253 . S
O170 Zn164 1.941 . S
O170 C180 1.283 . S
O171 Zn164 1.965 . S
O171 C179 1.303 . S
O172 Zn165 1.938 . S
O172 C179 1.247 . S
O173 Zn165 1.906 . S
O173 C181 1.304 . S
O174 Zn162 1.924 . S
O174 C182 1.311 . S
O175 Zn166 1.977 . S
O175 C181 1.272 . S
O176 Zn166 1.910 . S
O176 C182 1.231 . S
C177 O161 1.225 . S
C177 O183 1.298 . S
C178 O167 1.226 1_455 S
C178 O168 1.307 1_455 S
C179 O171 1.303 . S
C179 O172 1.247 . S
C180 O169 1.253 . S
C180 O170 1.283 . S
C181 O173 1.304 . S
C181 O175 1.272 . S
C182 O174 1.311 . S
C182 O176 1.231 . S
O183 Zn165 1.953 . S
O183 C177 1.298 . S
O184 Zn185 1.953 . S
O184 C200 1.225 . S
Zn185 O184 1.953 . S
Zn185 O186 1.949 . S
Zn185 O192 1.919 . S
Zn185 O197 1.924 . S
O186 Zn185 1.949 . S
O186 Zn187 1.923 . S
O186 Zn188 1.950 . S
O186 Zn189 1.945 . S
Zn187 O186 1.923 . S
Zn187 O190 1.933 . S
Zn187 O193 1.941 . S
Zn187 O194 1.965 . S
Zn188 O186 1.950 . S
Zn188 O195 1.938 . S
Zn188 O196 1.906 . S
Zn188 O206 1.953 . S
Zn189 O186 1.945 . S
Zn189 O191 1.932 . S
Zn189 O198 1.977 . S
Zn189 O199 1.910 . S
O190 Zn187 1.933 . S
O190 C201 1.226 1_565 S
O191 Zn189 1.932 . S
O191 C201 1.307 1_565 S
O192 Zn185 1.919 . S
O192 C203 1.253 . S
O193 Zn187 1.941 . S
O193 C203 1.283 . S
O194 Zn187 1.965 . S
O194 C202 1.303 . S
O195 Zn188 1.938 . S
O195 C202 1.247 . S
O196 Zn188 1.906 . S
O196 C204 1.304 . S
O197 Zn185 1.924 . S
O197 C205 1.311 . S
O198 Zn189 1.977 . S
O198 C204 1.272 . S
O199 Zn189 1.910 . S
O199 C205 1.231 . S
C200 O184 1.225 . S
C200 O206 1.298 . S
C201 O190 1.226 1_545 S
C201 O191 1.307 1_545 S
C202 O194 1.303 . S
C202 O195 1.247 . S
C203 O192 1.253 . S
C203 O193 1.283 . S
C204 O196 1.304 . S
C204 O198 1.272 . S
C205 O197 1.311 . S
C205 O199 1.231 . S
O206 Zn188 1.953 . S
O206 C200 1.298 . S
O207 Zn208 1.953 . S
O207 C223 1.225 . S
Zn208 O207 1.953 . S
Zn208 O209 1.949 . S
Zn208 O215 1.919 . S
Zn208 O220 1.924 . S
O209 Zn208 1.949 . S
O209 Zn210 1.923 . S
O209 Zn211 1.950 . S
O209 Zn212 1.945 . S
Zn210 O209 1.923 . S
Zn210 O213 1.933 . S
Zn210 O216 1.941 . S
Zn210 O217 1.965 . S
Zn211 O209 1.950 . S
Zn211 O218 1.938 . S
Zn211 O219 1.906 . S
Zn211 O229 1.953 . S
Zn212 O209 1.945 . S
Zn212 O214 1.932 . S
Zn212 O221 1.977 . S
Zn212 O222 1.910 . S
O213 Zn210 1.933 . S
O213 C224 1.226 . S
O214 Zn212 1.932 . S
O214 C224 1.307 . S
O215 Zn208 1.919 . S
O215 C226 1.253 . S
O216 Zn210 1.941 . S
O216 C226 1.283 . S
O217 Zn210 1.965 . S
O217 C225 1.303 . S
O218 Zn211 1.938 . S
O218 C225 1.247 . S
O219 Zn211 1.906 . S
O219 C227 1.304 . S
O220 Zn208 1.924 . S
O220 C228 1.311 . S
O221 Zn212 1.977 . S
O221 C227 1.272 . S
O222 Zn212 1.910 . S
O222 C228 1.231 . S
C223 O207 1.225 . S
C223 O229 1.298 . S
C224 O213 1.226 . S
C224 O214 1.307 . S
C225 O217 1.303 . S
C225 O218 1.247 . S
C226 O215 1.253 . S
C226 O216 1.283 . S
C227 O219 1.304 . S
C227 O221 1.272 . S
C228 O220 1.311 . S
C228 O222 1.231 . S
O229 Zn211 1.953 . S
O229 C223 1.298 . S
O230 Zn231 1.953 . S
O230 C246 1.225 . S
Zn231 O230 1.953 . S
Zn231 O232 1.949 . S
Zn231 O238 1.919 . S
Zn231 O243 1.924 . S
O232 Zn231 1.949 . S
O232 Zn233 1.923 . S
O232 Zn234 1.950 . S
O232 Zn235 1.945 . S
Zn233 O232 1.923 . S
Zn233 O236 1.933 . S
Zn233 O239 1.941 . S
Zn233 O240 1.965 . S
Zn234 O232 1.950 . S
Zn234 O241 1.938 . S
Zn234 O242 1.906 . S
Zn234 O252 1.953 . S
Zn235 O232 1.945 . S
Zn235 O237 1.932 . S
Zn235 O244 1.977 . S
Zn235 O245 1.910 . S
O236 Zn233 1.933 . S
O236 C247 1.226 1_455 S
O237 Zn235 1.932 . S
O237 C247 1.307 1_455 S
O238 Zn231 1.919 . S
O238 C249 1.253 . S
O239 Zn233 1.941 . S
O239 C249 1.283 . S
O240 Zn233 1.965 . S
O240 C248 1.303 . S
O241 Zn234 1.938 . S
O241 C248 1.247 . S
O242 Zn234 1.906 . S
O242 C250 1.304 . S
O243 Zn231 1.924 . S
O243 C251 1.311 . S
O244 Zn235 1.977 . S
O244 C250 1.272 . S
O245 Zn235 1.910 . S
O245 C251 1.231 . S
C246 O230 1.225 . S
C246 O252 1.298 . S
C247 O236 1.226 1_655 S
C247 O237 1.307 1_655 S
C248 O240 1.303 . S
C248 O241 1.247 . S
C249 O238 1.253 . S
C249 O239 1.283 . S
C250 O242 1.304 . S
C250 O244 1.272 . S
C251 O243 1.311 . S
C251 O245 1.231 . S
O252 Zn234 1.953 . S
O252 C246 1.298 . S
O253 Zn254 1.953 . S
O253 C269 1.225 . S
Zn254 O253 1.953 . S
Zn254 O255 1.949 . S
Zn254 O261 1.919 . S
Zn254 O266 1.924 . S
O255 Zn254 1.949 . S
O255 Zn256 1.923 . S
O255 Zn257 1.950 . S
O255 Zn258 1.945 . S
Zn256 O255 1.923 . S
Zn256 O259 1.933 . S
Zn256 O262 1.941 . S
Zn256 O263 1.965 . S
Zn257 O255 1.950 . S
Zn257 O264 1.938 . S
Zn257 O265 1.906 . S
Zn257 O275 1.953 . S
Zn258 O255 1.945 . S
Zn258 O260 1.932 . S
Zn258 O267 1.977 . S
Zn258 O268 1.910 . S
O259 Zn256 1.933 . S
O259 C270 1.226 1_545 S
O260 Zn258 1.932 . S
O260 C270 1.307 1_545 S
O261 Zn254 1.919 . S
O261 C272 1.253 . S
O262 Zn256 1.941 . S
O262 C272 1.283 . S
O263 Zn256 1.965 . S
O263 C271 1.303 . S
O264 Zn257 1.938 . S
O264 C271 1.247 . S
O265 Zn257 1.906 . S
O265 C273 1.304 . S
O266 Zn254 1.924 . S
O266 C274 1.311 . S
O267 Zn258 1.977 . S
O267 C273 1.272 . S
O268 Zn258 1.910 . S
O268 C274 1.231 . S
C269 O253 1.225 . S
C269 O275 1.298 . S
C270 O259 1.226 1_565 S
C270 O260 1.307 1_565 S
C271 O263 1.303 . S
C271 O264 1.247 . S
C272 O261 1.253 . S
C272 O262 1.283 . S
C273 O265 1.304 . S
C273 O267 1.272 . S
C274 O266 1.311 . S
C274 O268 1.231 . S
O275 Zn257 1.953 . S
O275 C269 1.298 . S
C276 C277 1.391 . S
C276 C278 1.394 1_565 S
C276 H292 0.931 . S
C277 C276 1.391 . S
C277 C281 1.376 1_565 S
C278 C276 1.394 1_545 S
C278 C279 1.369 . S
C278 C282 1.531 . S
C279 C278 1.369 . S
C279 C280 1.410 . S
C279 C287 1.503 . S
C280 C279 1.410 . S
C280 C281 1.392 . S
C280 C283 1.511 . S
C281 C277 1.376 1_545 S
C281 C280 1.392 . S
C281 H293 0.929 1_545 S
C282 C278 1.531 . S
C282 H294 0.960 . S
C282 H295 0.962 . S
C282 H296 0.960 . S
C283 C280 1.511 . S
C283 H297 0.961 . S
C283 H298 0.961 . S
C283 H299 0.961 . S
C284 C285 1.370 . S
C284 C286 1.363 . S
C284 H300 0.931 . S
C285 C284 1.370 . S
C285 C289 1.408 . S
C286 C284 1.363 . S
C286 C287 1.370 . S
C286 C290 1.524 . S
C287 C279 1.503 . S
C287 C286 1.370 . S
C287 C288 1.403 . S
C288 C287 1.403 . S
C288 C289 1.404 . S
C288 C291 1.539 . S
C289 C285 1.408 . S
C289 C288 1.404 . S
C289 H301 0.930 . S
C290 C286 1.524 . S
C290 H302 0.956 . S
C290 H303 0.961 . S
C290 H304 0.961 . S
C291 C288 1.539 . S
C291 H305 0.958 . S
C291 H306 0.961 . S
C291 H307 0.960 . S
H292 C276 0.931 . S
H293 C281 0.929 1_565 S
H294 C282 0.960 . S
H295 C282 0.962 . S
H296 C282 0.960 . S
H297 C283 0.961 . S
H298 C283 0.961 . S
H299 C283 0.961 . S
H300 C284 0.931 . S
H301 C289 0.930 . S
H302 C290 0.956 . S
H303 C290 0.961 . S
H304 C290 0.961 . S
H305 C291 0.958 . S
H306 C291 0.961 . S
H307 C291 0.960 . S
C308 C309 1.391 . S
C308 C310 1.394 . S
C308 H324 0.931 . S
C309 C308 1.391 . S
C309 C313 1.376 . S
C310 C308 1.394 . S
C310 C311 1.369 . S
C310 C314 1.531 . S
C311 C310 1.369 . S
C311 C312 1.410 . S
C311 C319 1.503 . S
C312 C311 1.410 . S
C312 C313 1.392 . S
C312 C315 1.511 . S
C313 C309 1.376 . S
C313 C312 1.392 . S
C313 H325 0.929 . S
C314 C310 1.531 . S
C314 H326 0.960 . S
C314 H327 0.962 . S
C314 H328 0.960 . S
C315 C312 1.511 . S
C315 H329 0.961 . S
C315 H330 0.961 . S
C315 H331 0.961 . S
C316 C317 1.370 . S
C316 C318 1.363 . S
C316 H332 0.931 . S
C317 C316 1.370 . S
C317 C321 1.408 . S
C318 C316 1.363 . S
C318 C319 1.370 . S
C318 C322 1.524 . S
C319 C311 1.503 . S
C319 C318 1.370 . S
C319 C320 1.403 . S
C320 C319 1.403 . S
C320 C321 1.404 . S
C320 C323 1.539 . S
C321 C317 1.408 . S
C321 C320 1.404 . S
C321 H333 0.930 . S
C322 C318 1.524 . S
C322 H334 0.956 . S
C322 H335 0.961 . S
C322 H336 0.961 . S
C323 C320 1.539 . S
C323 H337 0.958 . S
C323 H338 0.961 . S
C323 H339 0.960 . S
H324 C308 0.931 . S
H325 C313 0.929 . S
H326 C314 0.960 . S
H327 C314 0.962 . S
H328 C314 0.960 . S
H329 C315 0.961 . S
H330 C315 0.961 . S
H331 C315 0.961 . S
H332 C316 0.931 . S
H333 C321 0.930 . S
H334 C322 0.956 . S
H335 C322 0.961 . S
H336 C322 0.961 . S
H337 C323 0.958 . S
H338 C323 0.961 . S
H339 C323 0.960 . S
C340 C341 1.391 . S
C340 C342 1.394 . S
C340 H356 0.931 . S
C341 C340 1.391 . S
C341 C345 1.376 . S
C342 C340 1.394 . S
C342 C343 1.369 . S
C342 C346 1.531 . S
C343 C342 1.369 . S
C343 C344 1.410 . S
C343 C351 1.503 . S
C344 C343 1.410 . S
C344 C345 1.392 . S
C344 C347 1.511 . S
C345 C341 1.376 . S
C345 C344 1.392 . S
C345 H357 0.929 1_545 S
C346 C342 1.531 . S
C346 H358 0.960 . S
C346 H359 0.962 . S
C346 H360 0.960 . S
C347 C344 1.511 . S
C347 H361 0.961 . S
C347 H362 0.961 . S
C347 H363 0.961 . S
C348 C349 1.370 1_655 S
C348 C350 1.363 . S
C348 H364 0.931 1_655 S
C349 C348 1.370 1_455 S
C349 C353 1.408 . S
C350 C348 1.363 . S
C350 C351 1.370 . S
C350 C354 1.524 . S
C351 C343 1.503 . S
C351 C350 1.370 . S
C351 C352 1.403 . S
C352 C351 1.403 . S
C352 C353 1.404 1_655 S
C352 C355 1.539 . S
C353 C349 1.408 . S
C353 C352 1.404 1_455 S
C353 H365 0.930 . S
C354 C350 1.524 . S
C354 H366 0.956 . S
C354 H367 0.961 . S
C354 H368 0.961 . S
C355 C352 1.539 . S
C355 H369 0.958 . S
C355 H370 0.961 1_655 S
C355 H371 0.960 . S
H356 C340 0.931 . S
H357 C345 0.929 1_565 S
H358 C346 0.960 . S
H359 C346 0.962 . S
H360 C346 0.960 . S
H361 C347 0.961 . S
H362 C347 0.961 . S
H363 C347 0.961 . S
H364 C348 0.931 1_455 S
H365 C353 0.930 . S
H366 C354 0.956 . S
H367 C354 0.961 . S
H368 C354 0.961 . S
H369 C355 0.958 . S
H370 C355 0.961 1_455 S
H371 C355 0.960 . S
C372 C373 1.391 . S
C372 C374 1.394 . S
C372 H388 0.931 . S
C373 C372 1.391 . S
C373 C377 1.376 . S
C374 C372 1.394 . S
C374 C375 1.369 . S
C374 C378 1.531 . S
C375 C374 1.369 . S
C375 C376 1.410 . S
C375 C383 1.503 . S
C376 C375 1.410 . S
C376 C377 1.392 . S
C376 C379 1.511 . S
C377 C373 1.376 . S
C377 C376 1.392 . S
C377 H389 0.929 . S
C378 C374 1.531 . S
C378 H390 0.960 . S
C378 H391 0.962 . S
C378 H392 0.960 . S
C379 C376 1.511 . S
C379 H393 0.961 . S
C379 H394 0.961 . S
C379 H395 0.961 . S
C380 C381 1.370 . S
C380 C382 1.363 1_545 S
C380 H396 0.931 . S
C381 C380 1.370 . S
C381 C385 1.415 . S
C382 C380 1.363 1_565 S
C382 C383 1.370 . S
C382 C386 1.524 . S
C383 C375 1.503 . S
C383 C382 1.370 . S
C383 C384 1.403 . S
C384 C383 1.403 . S
C384 C385 1.388 1_565 S
C384 C387 1.539 . S
C385 C381 1.415 . S
C385 C384 1.388 1_545 S
C385 H397 0.939 . S
C386 C382 1.524 . S
C386 H398 0.956 . S
C386 H399 0.961 . S
C386 H400 0.961 . S
C387 C384 1.539 . S
C387 H401 0.958 . S
C387 H402 0.961 . S
C387 H403 0.960 . S
H388 C372 0.931 . S
H389 C377 0.929 . S
H390 C378 0.960 . S
H391 C378 0.962 . S
H392 C378 0.960 . S
H393 C379 0.961 . S
H394 C379 0.961 . S
H395 C379 0.961 . S
H396 C380 0.931 . S
H397 C385 0.939 . S
H398 C386 0.956 . S
H399 C386 0.961 . S
H400 C386 0.961 . S
H401 C387 0.958 . S
H402 C387 0.961 . S
H403 C387 0.960 . S
C404 C405 1.391 . S
C404 C406 1.394 . S
C404 H420 0.931 . S
C405 C404 1.391 . S
C405 C409 1.376 . S
C406 C404 1.394 . S
C406 C407 1.369 . S
C406 C410 1.531 . S
C407 C406 1.369 . S
C407 C408 1.410 . S
C407 C415 1.503 . S
C408 C407 1.410 . S
C408 C409 1.392 . S
C408 C411 1.511 . S
C409 C405 1.376 . S
C409 C408 1.392 . S
C409 H421 0.929 . S
C410 C406 1.531 . S
C410 H422 0.960 . S
C410 H423 0.962 . S
C410 H424 0.960 . S
C411 C408 1.511 . S
C411 H425 0.961 . S
C411 H426 0.961 . S
C411 H427 0.961 . S
C412 C413 1.370 . S
C412 C414 1.363 . S
C412 H428 0.931 . S
C413 C412 1.370 . S
C413 C417 1.408 . S
C414 C412 1.363 . S
C414 C415 1.370 . S
C414 C418 1.524 . S
C415 C407 1.503 . S
C415 C414 1.370 . S
C415 C416 1.403 . S
C416 C415 1.403 . S
C416 C417 1.404 . S
C416 C419 1.539 . S
C417 C413 1.408 . S
C417 C416 1.404 . S
C417 H429 0.930 . S
C418 C414 1.524 . S
C418 H430 0.956 . S
C418 H431 0.961 . S
C418 H432 0.961 . S
C419 C416 1.539 . S
C419 H433 0.958 . S
C419 H434 0.961 . S
C419 H435 0.960 . S
H420 C404 0.931 . S
H421 C409 0.929 . S
H422 C410 0.960 . S
H423 C410 0.962 . S
H424 C410 0.960 . S
H425 C411 0.961 . S
H426 C411 0.961 . S
H427 C411 0.961 . S
H428 C412 0.931 . S
H429 C417 0.930 . S
H430 C418 0.956 . S
H431 C418 0.961 . S
H432 C418 0.961 . S
H433 C419 0.958 . S
H434 C419 0.961 . S
H435 C419 0.960 . S
C436 C437 1.391 . S
C436 C438 1.394 1_655 S
C436 H452 0.931 . S
C437 C436 1.391 . S
C437 C441 1.376 . S
C438 C436 1.394 1_455 S
C438 C439 1.369 . S
C438 C442 1.531 . S
C439 C438 1.369 . S
C439 C440 1.410 . S
C439 C447 1.503 . S
C440 C439 1.410 . S
C440 C441 1.392 1_455 S
C440 C443 1.511 . S
C441 C437 1.376 . S
C441 C440 1.392 1_655 S
C441 H453 0.929 . S
C442 C438 1.531 . S
C442 H454 0.960 . S
C442 H455 0.962 . S
C442 H456 0.960 . S
C443 C440 1.511 . S
C443 H457 0.961 . S
C443 H458 0.961 . S
C443 H459 0.961 . S
C444 C445 1.370 . S
C444 C446 1.363 . S
C444 H460 0.924 1_565 S
C445 C444 1.370 . S
C445 C449 1.408 . S
C446 C444 1.363 . S
C446 C447 1.370 . S
C446 C450 1.524 . S
C447 C439 1.503 . S
C447 C446 1.370 . S
C447 C448 1.403 . S
C448 C447 1.403 . S
C448 C449 1.404 . S
C448 C451 1.539 . S
C449 C445 1.408 . S
C449 C448 1.404 . S
C449 H461 0.930 . S
C450 C446 1.524 . S
C450 H462 0.956 . S
C450 H463 0.961 . S
C450 H464 0.961 . S
C451 C448 1.539 . S
C451 H465 0.958 . S
C451 H466 0.961 . S
C451 H467 0.960 . S
H452 C436 0.931 . S
H453 C441 0.929 . S
H454 C442 0.960 . S
H455 C442 0.962 . S
H456 C442 0.960 . S
H457 C443 0.961 . S
H458 C443 0.961 . S
H459 C443 0.961 . S
H460 C444 0.924 1_545 S
H461 C449 0.930 . S
H462 C450 0.956 . S
H463 C450 0.961 . S
H464 C450 0.961 . S
H465 C451 0.958 . S
H466 C451 0.961 . S
H467 C451 0.960 . S
C468 C469 1.391 . S
C468 C470 1.394 1_455 S
C468 H484 0.931 . S
C469 C468 1.391 . S
C469 C473 1.376 1_455 S
C470 C468 1.394 1_655 S
C470 C471 1.369 . S
C470 C474 1.531 . S
C471 C470 1.369 . S
C471 C472 1.410 . S
C471 C479 1.503 . S
C472 C471 1.410 . S
C472 C473 1.392 . S
C472 C475 1.511 . S
C473 C469 1.376 1_655 S
C473 C472 1.392 . S
C473 H485 0.929 1_655 S
C474 C470 1.531 . S
C474 H486 0.960 . S
C474 H487 0.962 . S
C474 H488 0.960 1_655 S
C475 C472 1.511 . S
C475 H489 0.961 . S
C475 H490 0.961 . S
C475 H491 0.961 . S
C476 C477 1.370 . S
C476 C478 1.363 . S
C476 H492 0.931 . S
C477 C476 1.370 . S
C477 C481 1.408 . S
C478 C476 1.363 . S
C478 C479 1.370 . S
C478 C482 1.524 . S
C479 C471 1.503 . S
C479 C478 1.370 . S
C479 C480 1.403 . S
C480 C479 1.403 . S
C480 C481 1.404 . S
C480 C483 1.539 . S
C481 C477 1.408 . S
C481 C480 1.404 . S
C481 H493 0.930 . S
C482 C478 1.524 . S
C482 H494 0.956 . S
C482 H495 0.961 . S
C482 H496 0.961 . S
C483 C480 1.539 . S
C483 H497 0.958 . S
C483 H498 0.961 . S
C483 H499 0.960 . S
H484 C468 0.931 . S
H485 C473 0.929 1_455 S
H486 C474 0.960 . S
H487 C474 0.962 . S
H488 C474 0.960 1_455 S
H489 C475 0.961 . S
H490 C475 0.961 . S
H491 C475 0.961 . S
H492 C476 0.931 . S
H493 C481 0.930 . S
H494 C482 0.956 . S
H495 C482 0.961 . S
H496 C482 0.961 . S
H497 C483 0.958 . S
H498 C483 0.961 . S
H499 C483 0.960 . S
C500 C501 1.391 . S
C500 C502 1.394 . S
C500 H516 0.931 . S
C501 C500 1.391 . S
C501 C505 1.376 . S
C502 C500 1.394 . S
C502 C503 1.369 . S
C502 C506 1.531 . S
C503 C502 1.369 . S
C503 C504 1.410 . S
C503 C511 1.503 . S
C504 C503 1.410 . S
C504 C505 1.392 . S
C504 C507 1.511 . S
C505 C501 1.376 . S
C505 C504 1.392 . S
C505 H517 0.915 1_455 S
C506 C502 1.531 . S
C506 H518 0.960 . S
C506 H519 0.962 . S
C506 H520 0.960 . S
C507 C504 1.511 . S
C507 H521 0.961 . S
C507 H522 0.961 . S
C507 H523 0.961 . S
C508 C509 1.370 1_565 S
C508 C510 1.363 . S
C508 H524 0.926 . S
C509 C508 1.370 1_545 S
C509 C513 1.408 . S
C510 C508 1.363 . S
C510 C511 1.370 . S
C510 C514 1.524 . S
C511 C503 1.503 . S
C511 C510 1.370 . S
C511 C512 1.403 . S
C512 C511 1.403 . S
C512 C513 1.404 1_565 S
C512 C515 1.539 . S
C513 C509 1.408 . S
C513 C512 1.404 1_545 S
C513 H525 0.930 . S
C514 C510 1.524 . S
C514 H526 0.956 . S
C514 H527 0.961 . S
C514 H528 0.961 . S
C515 C512 1.539 . S
C515 H529 0.958 . S
C515 H530 0.961 1_565 S
C515 H531 0.960 . S
H516 C500 0.931 . S
H517 C505 0.915 1_655 S
H518 C506 0.960 . S
H519 C506 0.962 . S
H520 C506 0.960 . S
H521 C507 0.961 . S
H522 C507 0.961 . S
H523 C507 0.961 . S
H524 C508 0.926 . S
H525 C513 0.930 . S
H526 C514 0.956 . S
H527 C514 0.961 . S
H528 C514 0.961 . S
H529 C515 0.958 . S
H530 C515 0.961 1_545 S
H531 C515 0.960 . S
C532 C533 1.391 . S
C532 C534 1.394 . S
C532 H548 0.931 . S
C533 C532 1.391 . S
C533 C537 1.376 . S
C534 C532 1.394 . S
C534 C535 1.369 . S
C534 C538 1.531 . S
C535 C534 1.369 . S
C535 C536 1.410 . S
C535 C543 1.503 . S
C536 C535 1.410 . S
C536 C537 1.392 . S
C536 C539 1.511 . S
C537 C533 1.376 . S
C537 C536 1.392 . S
C537 H549 0.929 . S
C538 C534 1.531 . S
C538 H550 0.960 . S
C538 H551 0.962 . S
C538 H552 0.960 . S
C539 C536 1.511 . S
C539 H553 0.961 . S
C539 H554 0.961 . S
C539 H555 0.961 . S
C540 C541 1.370 . S
C540 C542 1.363 . S
C540 H556 0.931 . S
C541 C540 1.370 . S
C541 C545 1.408 . S
C542 C540 1.363 . S
C542 C543 1.370 . S
C542 C546 1.524 . S
C543 C535 1.503 . S
C543 C542 1.370 . S
C543 C544 1.403 . S
C544 C543 1.403 . S
C544 C545 1.404 . S
C544 C547 1.539 . S
C545 C541 1.408 . S
C545 C544 1.404 . S
C545 H557 0.930 1_545 S
C546 C542 1.524 . S
C546 H558 0.956 . S
C546 H559 0.961 . S
C546 H560 0.961 . S
C547 C544 1.539 . S
C547 H561 0.958 . S
C547 H562 0.961 . S
C547 H563 0.960 . S
H548 C532 0.931 . S
H549 C537 0.929 . S
H550 C538 0.960 . S
H551 C538 0.962 . S
H552 C538 0.960 . S
H553 C539 0.961 . S
H554 C539 0.961 . S
H555 C539 0.961 . S
H556 C540 0.931 . S
H557 C545 0.930 1_565 S
H558 C546 0.956 . S
H559 C546 0.961 . S
H560 C546 0.961 . S
H561 C547 0.958 . S
H562 C547 0.961 . S
H563 C547 0.960 . S
C564 C565 1.391 . S
C564 C566 1.394 . S
C564 H580 0.931 . S
C565 C564 1.391 . S
C565 C569 1.376 . S
C566 C564 1.394 . S
C566 C567 1.369 . S
C566 C570 1.531 . S
C567 C566 1.369 . S
C567 C568 1.410 . S
C567 C575 1.503 . S
C568 C567 1.410 . S
C568 C569 1.392 . S
C568 C571 1.511 . S
C569 C565 1.376 . S
C569 C568 1.392 . S
C569 H581 0.929 . S
C570 C566 1.531 . S
C570 H582 0.960 . S
C570 H583 0.962 . S
C570 H584 0.960 . S
C571 C568 1.511 . S
C571 H585 0.961 . S
C571 H586 0.961 . S
C571 H587 0.961 . S
C572 C573 1.370 1_455 S
C572 C574 1.363 . S
C572 H588 0.931 . S
C573 C572 1.370 1_655 S
C573 C577 1.408 . S
C574 C572 1.363 . S
C574 C575 1.370 . S
C574 C578 1.524 . S
C575 C567 1.503 . S
C575 C574 1.370 . S
C575 C576 1.403 . S
C576 C575 1.403 . S
C576 C577 1.404 1_455 S
C576 C579 1.539 . S
C577 C573 1.408 . S
C577 C576 1.404 1_655 S
C577 H589 0.930 . S
C578 C574 1.524 . S
C578 H590 0.956 . S
C578 H591 0.961 . S
C578 H592 0.961 . S
C579 C576 1.539 . S
C579 H593 0.958 . S
C579 H594 0.961 1_455 S
C579 H595 0.960 . S
H580 C564 0.931 . S
H581 C569 0.929 . S
H582 C570 0.960 . S
H583 C570 0.962 . S
H584 C570 0.960 . S
H585 C571 0.961 . S
H586 C571 0.961 . S
H587 C571 0.961 . S
H588 C572 0.931 . S
H589 C577 0.930 . S
H590 C578 0.956 . S
H591 C578 0.961 . S
H592 C578 0.961 . S
H593 C579 0.958 . S
H594 C579 0.961 1_655 S
H595 C579 0.960 . S
C596 C597 1.391 . S
C596 C598 1.394 . S
C596 H612 0.931 . S
C597 C596 1.391 . S
C597 C601 1.376 . S
C598 C596 1.394 . S
C598 C599 1.369 . S
C598 C602 1.531 . S
C599 C598 1.369 . S
C599 C600 1.410 . S
C599 C607 1.503 . S
C600 C599 1.410 . S
C600 C601 1.392 . S
C600 C603 1.511 . S
C601 C597 1.376 . S
C601 C600 1.392 . S
C601 H613 0.929 . S
C602 C598 1.531 . S
C602 H614 0.960 . S
C602 H615 0.962 . S
C602 H616 0.960 . S
C603 C600 1.511 . S
C603 H617 0.961 . S
C603 H618 0.961 . S
C603 H619 0.961 . S
C604 C605 1.370 . S
C604 C606 1.363 1_565 S
C604 H620 0.931 . S
C605 C604 1.370 . S
C605 C609 1.408 . S
C606 C604 1.363 1_545 S
C606 C607 1.370 . S
C606 C610 1.524 . S
C607 C599 1.503 . S
C607 C606 1.370 . S
C607 C608 1.403 . S
C608 C607 1.403 . S
C608 C609 1.404 1_545 S
C608 C611 1.539 . S
C609 C605 1.408 . S
C609 C608 1.404 1_565 S
C609 H621 0.930 . S
C610 C606 1.524 . S
C610 H622 0.956 . S
C610 H623 0.961 . S
C610 H624 0.961 . S
C611 C608 1.539 . S
C611 H625 0.958 . S
C611 H626 0.961 . S
C611 H627 0.960 . S
H612 C596 0.931 . S
H613 C601 0.929 . S
H614 C602 0.960 . S
H615 C602 0.962 . S
H616 C602 0.960 . S
H617 C603 0.961 . S
H618 C603 0.961 . S
H619 C603 0.961 . S
H620 C604 0.931 . S
H621 C609 0.930 . S
H622 C610 0.956 . S
H623 C610 0.961 . S
H624 C610 0.961 . S
H625 C611 0.958 . S
H626 C611 0.961 . S
H627 C611 0.960 . S
C628 C629 1.391 . S
C628 C630 1.394 . S
C628 H644 0.931 . S
C629 C628 1.391 . S
C629 C633 1.376 . S
C630 C628 1.394 . S
C630 C631 1.369 . S
C630 C634 1.531 . S
C631 C630 1.369 . S
C631 C632 1.410 . S
C631 C639 1.503 . S
C632 C631 1.410 . S
C632 C633 1.392 . S
C632 C635 1.511 . S
C633 C629 1.376 . S
C633 C632 1.392 . S
C633 H645 0.929 . S
C634 C630 1.531 . S
C634 H646 0.960 . S
C634 H647 0.962 . S
C634 H648 0.960 . S
C635 C632 1.511 . S
C635 H649 0.961 . S
C635 H650 0.961 . S
C635 H651 0.961 . S
C636 C637 1.370 . S
C636 C638 1.363 . S
C636 H652 0.931 . S
C637 C636 1.370 . S
C637 C641 1.408 . S
C638 C636 1.363 . S
C638 C639 1.370 . S
C638 C642 1.524 . S
C639 C631 1.503 . S
C639 C638 1.370 . S
C639 C640 1.403 . S
C640 C639 1.403 . S
C640 C641 1.404 . S
C640 C643 1.539 . S
C641 C637 1.408 . S
C641 C640 1.404 . S
C641 H653 0.930 . S
C642 C638 1.524 . S
C642 H654 0.956 . S
C642 H655 0.961 . S
C642 H656 0.961 . S
C643 C640 1.539 . S
C643 H657 0.958 . S
C643 H658 0.961 . S
C643 H659 0.960 . S
H644 C628 0.931 . S
H645 C633 0.929 . S
H646 C634 0.960 . S
H647 C634 0.962 . S
H648 C634 0.960 . S
H649 C635 0.961 . S
H650 C635 0.961 . S
H651 C635 0.961 . S
H652 C636 0.931 . S
H653 C641 0.930 . S
H654 C642 0.956 . S
H655 C642 0.961 . S
H656 C642 0.961 . S
H657 C643 0.958 . S
H658 C643 0.961 . S
H659 C643 0.960 . S
C660 C661 1.391 . S
C660 C662 1.394 . S
C660 H676 0.931 . S
C661 C660 1.391 . S
C661 C665 1.376 . S
C662 C660 1.394 . S
C662 C663 1.369 . S
C662 C666 1.531 . S
C663 C662 1.369 . S
C663 C664 1.410 . S
C663 C671 1.503 . S
C664 C663 1.410 . S
C664 C665 1.392 . S
C664 C667 1.511 . S
C665 C661 1.376 . S
C665 C664 1.392 . S
C665 H677 0.929 . S
C666 C662 1.531 . S
C666 H678 0.960 . S
C666 H679 0.962 . S
C666 H680 0.960 . S
C667 C664 1.511 . S
C667 H681 0.961 . S
C667 H682 0.961 . S
C667 H683 0.961 . S
C668 C669 1.370 . S
C668 C670 1.363 . S
C668 H684 0.931 . S
C669 C668 1.370 . S
C669 C673 1.408 . S
C670 C668 1.363 . S
C670 C671 1.370 . S
C670 C674 1.524 . S
C671 C663 1.503 . S
C671 C670 1.370 . S
C671 C672 1.403 . S
C672 C671 1.403 . S
C672 C673 1.404 . S
C672 C675 1.539 . S
C673 C669 1.408 . S
C673 C672 1.404 . S
C673 H685 0.930 . S
C674 C670 1.524 . S
C674 H686 0.956 . S
C674 H687 0.961 . S
C674 H688 0.961 . S
C675 C672 1.539 . S
C675 H689 0.958 . S
C675 H690 0.961 . S
C675 H691 0.960 . S
H676 C660 0.931 . S
H677 C665 0.929 . S
H678 C666 0.960 . S
H679 C666 0.962 . S
H680 C666 0.960 . S
H681 C667 0.961 . S
H682 C667 0.961 . S
H683 C667 0.961 . S
H684 C668 0.931 . S
H685 C673 0.930 . S
H686 C674 0.956 . S
H687 C674 0.961 . S
H688 C674 0.961 . S
H689 C675 0.958 . S
H690 C675 0.961 . S
H691 C675 0.960 . S
C692 C693 1.391 . S
C692 C694 1.394 . S
C692 H708 0.931 . S
C693 C692 1.391 . S
C693 C697 1.376 . S
C694 C692 1.394 . S
C694 C695 1.369 . S
C694 C698 1.531 . S
C695 C694 1.369 . S
C695 C696 1.410 . S
C695 C703 1.503 . S
C696 C695 1.410 . S
C696 C697 1.392 . S
C696 C699 1.511 . S
C697 C693 1.376 . S
C697 C696 1.392 . S
C697 H709 0.929 . S
C698 C694 1.531 . S
C698 H710 0.960 . S
C698 H711 0.962 . S
C698 H712 0.960 . S
C699 C696 1.511 . S
C699 H713 0.961 . S
C699 H714 0.961 . S
C699 H715 0.961 . S
C700 C701 1.370 . S
C700 C702 1.363 . S
C700 H716 0.931 . S
C701 C700 1.370 . S
C701 C705 1.408 . S
C702 C700 1.363 . S
C702 C703 1.370 . S
C702 C706 1.524 . S
C703 C695 1.503 . S
C703 C702 1.370 . S
C703 C704 1.403 . S
C704 C703 1.403 . S
C704 C705 1.404 . S
C704 C707 1.539 . S
C705 C701 1.408 . S
C705 C704 1.404 . S
C705 H717 0.930 . S
C706 C702 1.524 . S
C706 H718 0.956 . S
C706 H719 0.961 . S
C706 H720 0.961 . S
C707 C704 1.539 . S
C707 H721 0.958 . S
C707 H722 0.961 . S
C707 H723 0.960 . S
H708 C692 0.931 . S
H709 C697 0.929 . S
H710 C698 0.960 . S
H711 C698 0.962 . S
H712 C698 0.960 . S
H713 C699 0.961 . S
H714 C699 0.961 . S
H715 C699 0.961 . S
H716 C700 0.931 . S
H717 C705 0.930 . S
H718 C706 0.956 . S
H719 C706 0.961 . S
H720 C706 0.961 . S
H721 C707 0.958 . S
H722 C707 0.961 . S
H723 C707 0.960 . S
C724 C725 1.391 . S
C724 C726 1.394 . S
C724 H740 0.931 . S
C725 C724 1.391 . S
C725 C729 1.376 . S
C726 C724 1.394 . S
C726 C727 1.369 . S
C726 C730 1.531 . S
C727 C726 1.369 . S
C727 C728 1.410 . S
C727 C735 1.503 . S
C728 C727 1.410 . S
C728 C729 1.392 . S
C728 C731 1.511 . S
C729 C725 1.376 . S
C729 C728 1.392 . S
C729 H741 0.929 . S
C730 C726 1.531 . S
C730 H742 0.960 . S
C730 H743 0.962 . S
C730 H744 0.960 . S
C731 C728 1.511 . S
C731 H745 0.961 . S
C731 H746 0.961 . S
C731 H747 0.961 . S
C732 C733 1.370 . S
C732 C734 1.363 . S
C732 H748 0.931 . S
C733 C732 1.370 . S
C733 C737 1.408 . S
C734 C732 1.363 . S
C734 C735 1.370 . S
C734 C738 1.524 . S
C735 C727 1.503 . S
C735 C734 1.370 . S
C735 C736 1.403 . S
C736 C735 1.403 . S
C736 C737 1.404 . S
C736 C739 1.539 . S
C737 C733 1.408 . S
C737 C736 1.404 . S
C737 H749 0.930 . S
C738 C734 1.524 . S
C738 H750 0.956 . S
C738 H751 0.961 . S
C738 H752 0.961 . S
C739 C736 1.539 . S
C739 H753 0.958 . S
C739 H754 0.961 . S
C739 H755 0.960 . S
H740 C724 0.931 . S
H741 C729 0.929 . S
H742 C730 0.960 . S
H743 C730 0.962 . S
H744 C730 0.960 . S
H745 C731 0.961 . S
H746 C731 0.961 . S
H747 C731 0.961 . S
H748 C732 0.931 . S
H749 C737 0.930 . S
H750 C738 0.956 . S
H751 C738 0.961 . S
H752 C738 0.961 . S
H753 C739 0.958 . S
H754 C739 0.961 . S
H755 C739 0.960 . S
C756 C757 1.391 . S
C756 C758 1.394 . S
C756 H772 0.931 . S
C757 C756 1.391 . S
C757 C761 1.376 . S
C758 C756 1.394 . S
C758 C759 1.369 . S
C758 C762 1.531 . S
C759 C758 1.369 . S
C759 C760 1.410 . S
C759 C767 1.503 . S
C760 C759 1.410 . S
C760 C761 1.392 . S
C760 C763 1.511 . S
C761 C757 1.376 . S
C761 C760 1.392 . S
C761 H773 0.929 . S
C762 C758 1.531 . S
C762 H774 0.960 . S
C762 H775 0.962 . S
C762 H776 0.960 . S
C763 C760 1.511 . S
C763 H777 0.961 . S
C763 H778 0.961 . S
C763 H779 0.961 . S
C764 C765 1.370 . S
C764 C766 1.363 . S
C764 H780 0.931 . S
C765 C764 1.370 . S
C765 C769 1.408 . S
C766 C764 1.363 . S
C766 C767 1.370 . S
C766 C770 1.524 . S
C767 C759 1.503 . S
C767 C766 1.370 . S
C767 C768 1.403 . S
C768 C767 1.403 . S
C768 C769 1.404 . S
C768 C771 1.539 . S
C769 C765 1.408 . S
C769 C768 1.404 . S
C769 H781 0.930 . S
C770 C766 1.524 . S
C770 H782 0.956 . S
C770 H783 0.961 . S
C770 H784 0.961 . S
C771 C768 1.539 . S
C771 H785 0.958 . S
C771 H786 0.961 . S
C771 H787 0.960 . S
H772 C756 0.931 . S
H773 C761 0.929 . S
H774 C762 0.960 . S
H775 C762 0.962 . S
H776 C762 0.960 . S
H777 C763 0.961 . S
H778 C763 0.961 . S
H779 C763 0.961 . S
H780 C764 0.931 . S
H781 C769 0.930 . S
H782 C770 0.956 . S
H783 C770 0.961 . S
H784 C770 0.961 . S
H785 C771 0.958 . S
H786 C771 0.961 . S
H787 C771 0.960 . S
C788 C789 1.391 . S
C788 C790 1.394 . S
C788 H804 0.931 . S
C789 C788 1.391 . S
C789 C793 1.376 . S
C790 C788 1.394 . S
C790 C791 1.369 . S
C790 C794 1.531 . S
C791 C790 1.369 . S
C791 C792 1.410 . S
C791 C799 1.503 . S
C792 C791 1.410 . S
C792 C793 1.392 . S
C792 C795 1.511 . S
C793 C789 1.376 . S
C793 C792 1.392 . S
C793 H805 0.929 . S
C794 C790 1.531 . S
C794 H806 0.960 . S
C794 H807 0.962 . S
C794 H808 0.960 . S
C795 C792 1.511 . S
C795 H809 0.961 . S
C795 H810 0.961 . S
C795 H811 0.961 . S
C796 C797 1.370 . S
C796 C798 1.363 . S
C796 H812 0.931 . S
C797 C796 1.370 . S
C797 C801 1.408 . S
C798 C796 1.363 . S
C798 C799 1.370 . S
C798 C802 1.524 . S
C799 C791 1.503 . S
C799 C798 1.370 . S
C799 C800 1.403 . S
C800 C799 1.403 . S
C800 C801 1.404 . S
C800 C803 1.539 . S
C801 C797 1.408 . S
C801 C800 1.404 . S
C801 H813 0.930 . S
C802 C798 1.524 . S
C802 H814 0.956 . S
C802 H815 0.961 . S
C802 H816 0.961 . S
C803 C800 1.539 . S
C803 H817 0.958 . S
C803 H818 0.961 . S
C803 H819 0.960 . S
H804 C788 0.931 . S
H805 C793 0.929 . S
H806 C794 0.960 . S
H807 C794 0.962 . S
H808 C794 0.960 . S
H809 C795 0.961 . S
H810 C795 0.961 . S
H811 C795 0.961 . S
H812 C796 0.931 . S
H813 C801 0.930 . S
H814 C802 0.956 . S
H815 C802 0.961 . S
H816 C802 0.961 . S
H817 C803 0.958 . S
H818 C803 0.961 . S
H819 C803 0.960 . S
C820 C821 1.391 . S
C820 C822 1.394 . S
C820 H836 0.931 . S
C821 C820 1.391 . S
C821 C825 1.376 . S
C822 C820 1.394 . S
C822 C823 1.369 . S
C822 C826 1.531 . S
C823 C822 1.369 . S
C823 C824 1.410 . S
C823 C831 1.503 . S
C824 C823 1.410 . S
C824 C825 1.392 . S
C824 C827 1.511 . S
C825 C821 1.376 . S
C825 C824 1.392 . S
C825 H837 0.929 . S
C826 C822 1.531 . S
C826 H838 0.960 . S
C826 H839 0.962 . S
C826 H840 0.960 . S
C827 C824 1.511 . S
C827 H841 0.961 . S
C827 H842 0.961 . S
C827 H843 0.961 . S
C828 C829 1.370 . S
C828 C830 1.363 . S
C828 H844 0.931 . S
C829 C828 1.370 . S
C829 C833 1.408 . S
C830 C828 1.363 . S
C830 C831 1.370 . S
C830 C834 1.524 . S
C831 C823 1.503 . S
C831 C830 1.370 . S
C831 C832 1.403 . S
C832 C831 1.403 . S
C832 C833 1.404 . S
C832 C835 1.539 . S
C833 C829 1.408 . S
C833 C832 1.404 . S
C833 H845 0.930 . S
C834 C830 1.524 . S
C834 H846 0.956 . S
C834 H847 0.961 . S
C834 H848 0.961 . S
C835 C832 1.539 . S
C835 H849 0.958 . S
C835 H850 0.961 . S
C835 H851 0.960 . S
H836 C820 0.931 . S
H837 C825 0.929 . S
H838 C826 0.960 . S
H839 C826 0.962 . S
H840 C826 0.960 . S
H841 C827 0.961 . S
H842 C827 0.961 . S
H843 C827 0.961 . S
H844 C828 0.931 . S
H845 C833 0.930 . S
H846 C834 0.956 . S
H847 C834 0.961 . S
H848 C834 0.961 . S
H849 C835 0.958 . S
H850 C835 0.961 . S
H851 C835 0.960 . S
C852 C853 1.391 . S
C852 C854 1.394 . S
C852 H868 0.931 . S
C853 C852 1.391 . S
C853 C857 1.376 . S
C854 C852 1.394 . S
C854 C855 1.369 . S
C854 C858 1.531 . S
C855 C854 1.369 . S
C855 C856 1.410 . S
C855 C863 1.503 . S
C856 C855 1.410 . S
C856 C857 1.392 . S
C856 C859 1.511 . S
C857 C853 1.376 . S
C857 C856 1.392 . S
C857 H869 0.929 . S
C858 C854 1.531 . S
C858 H870 0.960 . S
C858 H871 0.962 . S
C858 H872 0.960 . S
C859 C856 1.511 . S
C859 H873 0.961 . S
C859 H874 0.961 . S
C859 H875 0.961 . S
C860 C861 1.370 . S
C860 C862 1.363 . S
C860 H876 0.931 . S
C861 C860 1.370 . S
C861 C865 1.408 . S
C862 C860 1.363 . S
C862 C863 1.370 . S
C862 C866 1.524 . S
C863 C855 1.503 . S
C863 C862 1.370 . S
C863 C864 1.403 . S
C864 C863 1.403 . S
C864 C865 1.404 . S
C864 C867 1.539 . S
C865 C861 1.408 . S
C865 C864 1.404 . S
C865 H877 0.930 . S
C866 C862 1.524 . S
C866 H878 0.956 . S
C866 H879 0.961 . S
C866 H880 0.961 . S
C867 C864 1.539 . S
C867 H881 0.958 . S
C867 H882 0.961 . S
C867 H883 0.960 . S
H868 C852 0.931 . S
H869 C857 0.929 . S
H870 C858 0.960 . S
H871 C858 0.962 . S
H872 C858 0.960 . S
H873 C859 0.961 . S
H874 C859 0.961 . S
H875 C859 0.961 . S
H876 C860 0.931 . S
H877 C865 0.930 . S
H878 C866 0.956 . S
H879 C866 0.961 . S
H880 C866 0.961 . S
H881 C867 0.958 . S
H882 C867 0.961 . S
H883 C867 0.960 . S
C884 C885 1.391 . S
C884 C886 1.394 . S
C884 H900 0.931 . S
C885 C884 1.391 . S
C885 C889 1.376 . S
C886 C884 1.394 . S
C886 C887 1.369 . S
C886 C890 1.531 . S
C887 C886 1.369 . S
C887 C888 1.410 . S
C887 C895 1.503 . S
C888 C887 1.410 . S
C888 C889 1.392 . S
C888 C891 1.511 . S
C889 C885 1.376 . S
C889 C888 1.392 . S
C889 H901 0.929 . S
C890 C886 1.531 . S
C890 H902 0.960 . S
C890 H903 0.962 . S
C890 H904 0.960 . S
C891 C888 1.511 . S
C891 H905 0.961 . S
C891 H906 0.961 . S
C891 H907 0.961 . S
C892 C893 1.370 . S
C892 C894 1.363 . S
C892 H908 0.931 . S
C893 C892 1.370 . S
C893 C897 1.408 . S
C894 C892 1.363 . S
C894 C895 1.370 . S
C894 C898 1.524 . S
C895 C887 1.503 . S
C895 C894 1.370 . S
C895 C896 1.403 . S
C896 C895 1.403 . S
C896 C897 1.404 . S
C896 C899 1.539 . S
C897 C893 1.408 . S
C897 C896 1.404 . S
C897 H909 0.930 . S
C898 C894 1.524 . S
C898 H910 0.956 . S
C898 H911 0.961 . S
C898 H912 0.961 . S
C899 C896 1.539 . S
C899 H913 0.958 . S
C899 H914 0.961 . S
C899 H915 0.960 . S
H900 C884 0.931 . S
H901 C889 0.929 . S
H902 C890 0.960 . S
H903 C890 0.962 . S
H904 C890 0.960 . S
H905 C891 0.961 . S
H906 C891 0.961 . S
H907 C891 0.961 . S
H908 C892 0.931 . S
H909 C897 0.930 . S
H910 C898 0.956 . S
H911 C898 0.961 . S
H912 C898 0.961 . S
H913 C899 0.958 . S
H914 C899 0.961 . S
H915 C899 0.960 . S
C916 C917 1.391 . S
C916 C918 1.394 . S
C916 H932 0.931 . S
C917 C916 1.391 . S
C917 C921 1.376 . S
C918 C916 1.394 . S
C918 C919 1.369 . S
C918 C922 1.531 . S
C919 C918 1.369 . S
C919 C920 1.410 . S
C919 C927 1.503 . S
C920 C919 1.410 . S
C920 C921 1.392 . S
C920 C923 1.511 . S
C921 C917 1.376 . S
C921 C920 1.392 . S
C921 H933 0.929 . S
C922 C918 1.531 . S
C922 H934 0.960 . S
C922 H935 0.962 . S
C922 H936 0.960 . S
C923 C920 1.511 . S
C923 H937 0.961 . S
C923 H938 0.961 . S
C923 H939 0.961 . S
C924 C925 1.370 . S
C924 C926 1.363 . S
C924 H940 0.931 . S
C925 C924 1.370 . S
C925 C929 1.408 . S
C926 C924 1.363 . S
C926 C927 1.370 . S
C926 C930 1.524 . S
C927 C919 1.503 . S
C927 C926 1.370 . S
C927 C928 1.403 . S
C928 C927 1.403 . S
C928 C929 1.404 . S
C928 C931 1.539 . S
C929 C925 1.408 . S
C929 C928 1.404 . S
C929 H941 0.930 . S
C930 C926 1.524 . S
C930 H942 0.956 . S
C930 H943 0.961 . S
C930 H944 0.961 . S
C931 C928 1.539 . S
C931 H945 0.958 . S
C931 H946 0.961 . S
C931 H947 0.960 . S
H932 C916 0.931 . S
H933 C921 0.929 . S
H934 C922 0.960 . S
H935 C922 0.962 . S
H936 C922 0.960 . S
H937 C923 0.961 . S
H938 C923 0.961 . S
H939 C923 0.961 . S
H940 C924 0.931 . S
H941 C929 0.930 . S
H942 C930 0.956 . S
H943 C930 0.961 . S
H944 C930 0.961 . S
H945 C931 0.958 . S
H946 C931 0.961 . S
H947 C931 0.960 . S
C948 C949 1.391 . S
C948 C950 1.394 . S
C948 H964 0.931 . S
C949 C948 1.391 . S
C949 C953 1.376 . S
C950 C948 1.394 . S
C950 C951 1.369 . S
C950 C954 1.531 . S
C951 C950 1.369 . S
C951 C952 1.410 . S
C951 C959 1.503 . S
C952 C951 1.410 . S
C952 C953 1.392 . S
C952 C955 1.511 . S
C953 C949 1.376 . S
C953 C952 1.392 . S
C953 H965 0.929 . S
C954 C950 1.531 . S
C954 H966 0.960 . S
C954 H967 0.962 . S
C954 H968 0.960 . S
C955 C952 1.511 . S
C955 H969 0.961 . S
C955 H970 0.961 . S
C955 H971 0.961 . S
C956 C957 1.370 . S
C956 C958 1.363 . S
C956 H972 0.931 . S
C957 C956 1.370 . S
C957 C961 1.408 . S
C958 C956 1.363 . S
C958 C959 1.370 . S
C958 C962 1.524 . S
C959 C951 1.503 . S
C959 C958 1.370 . S
C959 C960 1.403 . S
C960 C959 1.403 . S
C960 C961 1.404 . S
C960 C963 1.539 . S
C961 C957 1.408 . S
C961 C960 1.404 . S
C961 H973 0.930 . S
C962 C958 1.524 . S
C962 H974 0.956 . S
C962 H975 0.961 . S
C962 H976 0.961 . S
C963 C960 1.539 . S
C963 H977 0.958 . S
C963 H978 0.961 . S
C963 H979 0.960 . S
H964 C948 0.931 . S
H965 C953 0.929 . S
H966 C954 0.960 . S
H967 C954 0.962 . S
H968 C954 0.960 . S
H969 C955 0.961 . S
H970 C955 0.961 . S
H971 C955 0.961 . S
H972 C956 0.931 . S
H973 C961 0.930 . S
H974 C962 0.956 . S
H975 C962 0.961 . S
H976 C962 0.961 . S
H977 C963 0.958 . S
H978 C963 0.961 . S
H979 C963 0.960 . S
C980 C981 1.391 . S
C980 C982 1.394 . S
C980 H996 0.931 . S
C981 C980 1.391 . S
C981 C985 1.376 . S
C982 C980 1.394 . S
C982 C983 1.369 . S
C982 C986 1.531 . S
C983 C982 1.369 . S
C983 C984 1.410 . S
C983 C991 1.503 . S
C984 C983 1.410 . S
C984 C985 1.392 . S
C984 C987 1.511 . S
C985 C981 1.376 . S
C985 C984 1.392 . S
C985 H997 0.929 . S
C986 C982 1.531 . S
C986 H998 0.960 . S
C986 H999 0.962 . S
C986 H1000 0.960 . S
C987 C984 1.511 . S
C987 H1001 0.961 . S
C987 H1002 0.961 . S
C987 H1003 0.961 . S
C988 C989 1.370 . S
C988 C990 1.363 . S
C988 H1004 0.931 . S
C989 C988 1.370 . S
C989 C993 1.408 . S
C990 C988 1.363 . S
C990 C991 1.370 . S
C990 C994 1.524 . S
C991 C983 1.503 . S
C991 C990 1.370 . S
C991 C992 1.403 . S
C992 C991 1.403 . S
C992 C993 1.404 . S
C992 C995 1.539 . S
C993 C989 1.408 . S
C993 C992 1.404 . S
C993 H1005 0.930 . S
C994 C990 1.524 . S
C994 H1006 0.956 . S
C994 H1007 0.961 . S
C994 H1008 0.961 . S
C995 C992 1.539 . S
C995 H1009 0.958 . S
C995 H1010 0.961 . S
C995 H1011 0.960 . S
H996 C980 0.931 . S
H997 C985 0.929 . S
H998 C986 0.960 . S
H999 C986 0.962 . S
H1000 C986 0.960 . S
H1001 C987 0.961 . S
H1002 C987 0.961 . S
H1003 C987 0.961 . S
H1004 C988 0.931 . S
H1005 C993 0.930 . S
H1006 C994 0.956 . S
H1007 C994 0.961 . S
H1008 C994 0.961 . S
H1009 C995 0.958 . S
H1010 C995 0.961 . S
H1011 C995 0.960 . S
C1012 C1013 1.391 . S
C1012 C1014 1.394 . S
C1012 H1028 0.931 . S
C1013 C1012 1.391 . S
C1013 C1017 1.376 . S
C1014 C1012 1.394 . S
C1014 C1015 1.369 . S
C1014 C1018 1.531 . S
C1015 C1014 1.369 . S
C1015 C1016 1.410 . S
C1015 C1023 1.503 . S
C1016 C1015 1.410 . S
C1016 C1017 1.392 . S
C1016 C1019 1.511 . S
C1017 C1013 1.376 . S
C1017 C1016 1.392 . S
C1017 H1029 0.929 . S
C1018 C1014 1.531 . S
C1018 H1030 0.960 . S
C1018 H1031 0.962 . S
C1018 H1032 0.960 . S
C1019 C1016 1.511 . S
C1019 H1033 0.961 . S
C1019 H1034 0.961 . S
C1019 H1035 0.961 . S
C1020 C1021 1.370 . S
C1020 C1022 1.363 . S
C1020 H1036 0.931 . S
C1021 C1020 1.370 . S
C1021 C1025 1.408 . S
C1022 C1020 1.363 . S
C1022 C1023 1.370 . S
C1022 C1026 1.524 . S
C1023 C1015 1.503 . S
C1023 C1022 1.370 . S
C1023 C1024 1.403 . S
C1024 C1023 1.403 . S
C1024 C1025 1.404 . S
C1024 C1027 1.539 . S
C1025 C1021 1.408 . S
C1025 C1024 1.404 . S
C1025 H1037 0.930 . S
C1026 C1022 1.524 . S
C1026 H1038 0.956 . S
C1026 H1039 0.961 . S
C1026 H1040 0.961 . S
C1027 C1024 1.539 . S
C1027 H1041 0.958 . S
C1027 H1042 0.961 . S
C1027 H1043 0.960 . S
H1028 C1012 0.931 . S
H1029 C1017 0.929 . S
H1030 C1018 0.960 . S
H1031 C1018 0.962 . S
H1032 C1018 0.960 . S
H1033 C1019 0.961 . S
H1034 C1019 0.961 . S
H1035 C1019 0.961 . S
H1036 C1020 0.931 . S
H1037 C1025 0.930 . S
H1038 C1026 0.956 . S
H1039 C1026 0.961 . S
H1040 C1026 0.961 . S
H1041 C1027 0.958 . S
H1042 C1027 0.961 . S
H1043 C1027 0.960 . S
C1044 C1045 1.391 . S
C1044 C1046 1.394 . S
C1044 H1060 0.931 . S
C1045 C1044 1.391 . S
C1045 C1049 1.376 . S
C1046 C1044 1.394 . S
C1046 C1047 1.369 . S
C1046 C1050 1.531 . S
C1047 C1046 1.369 . S
C1047 C1048 1.410 . S
C1047 C1055 1.503 . S
C1048 C1047 1.410 . S
C1048 C1049 1.392 . S
C1048 C1051 1.511 . S
C1049 C1045 1.376 . S
C1049 C1048 1.392 . S
C1049 H1061 0.929 . S
C1050 C1046 1.531 . S
C1050 H1062 0.960 . S
C1050 H1063 0.962 . S
C1050 H1064 0.960 . S
C1051 C1048 1.511 . S
C1051 H1065 0.961 . S
C1051 H1066 0.961 . S
C1051 H1067 0.961 . S
C1052 C1053 1.370 . S
C1052 C1054 1.363 . S
C1052 H1068 0.931 . S
C1053 C1052 1.370 . S
C1053 C1057 1.408 . S
C1054 C1052 1.363 . S
C1054 C1055 1.370 . S
C1054 C1058 1.524 . S
C1055 C1047 1.503 . S
C1055 C1054 1.370 . S
C1055 C1056 1.403 . S
C1056 C1055 1.403 . S
C1056 C1057 1.404 . S
C1056 C1059 1.539 . S
C1057 C1053 1.408 . S
C1057 C1056 1.404 . S
C1057 H1069 0.930 . S
C1058 C1054 1.524 . S
C1058 H1070 0.956 . S
C1058 H1071 0.961 . S
C1058 H1072 0.961 . S
C1059 C1056 1.539 . S
C1059 H1073 0.958 . S
C1059 H1074 0.961 . S
C1059 H1075 0.960 . S
H1060 C1044 0.931 . S
H1061 C1049 0.929 . S
H1062 C1050 0.960 . S
H1063 C1050 0.962 . S
H1064 C1050 0.960 . S
H1065 C1051 0.961 . S
H1066 C1051 0.961 . S
H1067 C1051 0.961 . S
H1068 C1052 0.931 . S
H1069 C1057 0.930 . S
H1070 C1058 0.956 . S
H1071 C1058 0.961 . S
H1072 C1058 0.961 . S
H1073 C1059 0.958 . S
H1074 C1059 0.961 . S
H1075 C1059 0.960 . S
C1076 C1077 1.391 . S
C1076 C1078 1.394 . S
C1076 H1092 0.931 . S
C1077 C1076 1.391 . S
C1077 C1081 1.376 . S
C1078 C1076 1.394 . S
C1078 C1079 1.369 . S
C1078 C1082 1.531 . S
C1079 C1078 1.369 . S
C1079 C1080 1.410 . S
C1079 C1087 1.503 . S
C1080 C1079 1.410 . S
C1080 C1081 1.392 . S
C1080 C1083 1.511 . S
C1081 C1077 1.376 . S
C1081 C1080 1.392 . S
C1081 H1093 0.929 . S
C1082 C1078 1.531 . S
C1082 H1094 0.960 . S
C1082 H1095 0.962 . S
C1082 H1096 0.960 . S
C1083 C1080 1.511 . S
C1083 H1097 0.961 . S
C1083 H1098 0.961 . S
C1083 H1099 0.961 . S
C1084 C1085 1.370 . S
C1084 C1086 1.363 . S
C1084 H1100 0.931 . S
C1085 C1084 1.370 . S
C1085 C1089 1.408 . S
C1086 C1084 1.363 . S
C1086 C1087 1.370 . S
C1086 C1090 1.524 . S
C1087 C1079 1.503 . S
C1087 C1086 1.370 . S
C1087 C1088 1.403 . S
C1088 C1087 1.403 . S
C1088 C1089 1.404 . S
C1088 C1091 1.539 . S
C1089 C1085 1.408 . S
C1089 C1088 1.404 . S
C1089 H1101 0.930 . S
C1090 C1086 1.524 . S
C1090 H1102 0.956 . S
C1090 H1103 0.961 . S
C1090 H1104 0.961 . S
C1091 C1088 1.539 . S
C1091 H1105 0.958 . S
C1091 H1106 0.961 . S
C1091 H1107 0.960 . S
H1092 C1076 0.931 . S
H1093 C1081 0.929 . S
H1094 C1082 0.960 . S
H1095 C1082 0.962 . S
H1096 C1082 0.960 . S
H1097 C1083 0.961 . S
H1098 C1083 0.961 . S
H1099 C1083 0.961 . S
H1100 C1084 0.931 . S
H1101 C1089 0.930 . S
H1102 C1090 0.956 . S
H1103 C1090 0.961 . S
H1104 C1090 0.961 . S
H1105 C1091 0.958 . S
H1106 C1091 0.961 . S
H1107 C1091 0.960 . S
C1108 C1109 1.391 . S
C1108 C1110 1.394 . S
C1108 H1124 0.931 . S
C1109 C1108 1.391 . S
C1109 C1113 1.376 . S
C1110 C1108 1.394 . S
C1110 C1111 1.369 . S
C1110 C1114 1.531 . S
C1111 C1110 1.369 . S
C1111 C1112 1.410 . S
C1111 C1119 1.503 . S
C1112 C1111 1.410 . S
C1112 C1113 1.392 . S
C1112 C1115 1.511 . S
C1113 C1109 1.376 . S
C1113 C1112 1.392 . S
C1113 H1125 0.929 . S
C1114 C1110 1.531 . S
C1114 H1126 0.960 . S
C1114 H1127 0.962 . S
C1114 H1128 0.960 . S
C1115 C1112 1.511 . S
C1115 H1129 0.961 . S
C1115 H1130 0.961 . S
C1115 H1131 0.961 . S
C1116 C1117 1.370 . S
C1116 C1118 1.363 . S
C1116 H1132 0.931 . S
C1117 C1116 1.370 . S
C1117 C1121 1.408 . S
C1118 C1116 1.363 . S
C1118 C1119 1.370 . S
C1118 C1122 1.524 . S
C1119 C1111 1.503 . S
C1119 C1118 1.370 . S
C1119 C1120 1.403 . S
C1120 C1119 1.403 . S
C1120 C1121 1.404 . S
C1120 C1123 1.539 . S
C1121 C1117 1.408 . S
C1121 C1120 1.404 . S
C1121 H1133 0.930 . S
C1122 C1118 1.524 . S
C1122 H1134 0.956 . S
C1122 H1135 0.961 . S
C1122 H1136 0.961 . S
C1123 C1120 1.539 . S
C1123 H1137 0.958 . S
C1123 H1138 0.961 . S
C1123 H1139 0.960 . S
H1124 C1108 0.931 . S
H1125 C1113 0.929 . S
H1126 C1114 0.960 . S
H1127 C1114 0.962 . S
H1128 C1114 0.960 . S
H1129 C1115 0.961 . S
H1130 C1115 0.961 . S
H1131 C1115 0.961 . S
H1132 C1116 0.931 . S
H1133 C1121 0.930 . S
H1134 C1122 0.956 . S
H1135 C1122 0.961 . S
H1136 C1122 0.961 . S
H1137 C1123 0.958 . S
H1138 C1123 0.961 . S
H1139 C1123 0.960 . S
C1140 C1141 1.391 . S
C1140 C1142 1.394 . S
C1140 H1156 0.931 . S
C1141 C1140 1.391 . S
C1141 C1145 1.376 . S
C1142 C1140 1.394 . S
C1142 C1143 1.369 . S
C1142 C1146 1.531 . S
C1143 C1142 1.369 . S
C1143 C1144 1.410 . S
C1143 C1151 1.503 . S
C1144 C1143 1.410 . S
C1144 C1145 1.392 . S
C1144 C1147 1.511 . S
C1145 C1141 1.376 . S
C1145 C1144 1.392 . S
C1145 H1157 0.929 . S
C1146 C1142 1.531 . S
C1146 H1158 0.960 . S
C1146 H1159 0.962 . S
C1146 H1160 0.960 . S
C1147 C1144 1.511 . S
C1147 H1161 0.961 . S
C1147 H1162 0.961 . S
C1147 H1163 0.961 . S
C1148 C1149 1.370 . S
C1148 C1150 1.363 . S
C1148 H1164 0.931 . S
C1149 C1148 1.370 . S
C1149 C1153 1.408 . S
C1150 C1148 1.363 . S
C1150 C1151 1.370 . S
C1150 C1154 1.524 . S
C1151 C1143 1.503 . S
C1151 C1150 1.370 . S
C1151 C1152 1.403 . S
C1152 C1151 1.403 . S
C1152 C1153 1.404 . S
C1152 C1155 1.539 . S
C1153 C1149 1.408 . S
C1153 C1152 1.404 . S
C1153 H1165 0.930 . S
C1154 C1150 1.524 . S
C1154 H1166 0.956 . S
C1154 H1167 0.961 . S
C1154 H1168 0.961 . S
C1155 C1152 1.539 . S
C1155 H1169 0.958 . S
C1155 H1170 0.961 . S
C1155 H1171 0.960 . S
H1156 C1140 0.931 . S
H1157 C1145 0.929 . S
H1158 C1146 0.960 . S
H1159 C1146 0.962 . S
H1160 C1146 0.960 . S
H1161 C1147 0.961 . S
H1162 C1147 0.961 . S
H1163 C1147 0.961 . S
H1164 C1148 0.931 . S
H1165 C1153 0.930 . S
H1166 C1154 0.956 . S
H1167 C1154 0.961 . S
H1168 C1154 0.961 . S
H1169 C1155 0.958 . S
H1170 C1155 0.961 . S
H1171 C1155 0.960 . S
C1172 C1173 1.391 . S
C1172 C1174 1.394 . S
C1172 H1188 0.931 . S
C1173 C1172 1.391 . S
C1173 C1177 1.376 . S
C1174 C1172 1.394 . S
C1174 C1175 1.369 . S
C1174 C1178 1.531 . S
C1175 C1174 1.369 . S
C1175 C1176 1.410 . S
C1175 C1183 1.503 . S
C1176 C1175 1.410 . S
C1176 C1177 1.392 . S
C1176 C1179 1.511 . S
C1177 C1173 1.376 . S
C1177 C1176 1.392 . S
C1177 H1189 0.929 . S
C1178 C1174 1.531 . S
C1178 H1190 0.960 . S
C1178 H1191 0.962 . S
C1178 H1192 0.960 . S
C1179 C1176 1.511 . S
C1179 H1193 0.961 . S
C1179 H1194 0.961 . S
C1179 H1195 0.961 . S
C1180 C1181 1.370 . S
C1180 C1182 1.363 . S
C1180 H1196 0.931 . S
C1181 C1180 1.370 . S
C1181 C1185 1.408 . S
C1182 C1180 1.363 . S
C1182 C1183 1.370 . S
C1182 C1186 1.524 . S
C1183 C1175 1.503 . S
C1183 C1182 1.370 . S
C1183 C1184 1.403 . S
C1184 C1183 1.403 . S
C1184 C1185 1.404 . S
C1184 C1187 1.539 . S
C1185 C1181 1.408 . S
C1185 C1184 1.404 . S
C1185 H1197 0.930 . S
C1186 C1182 1.524 . S
C1186 H1198 0.956 . S
C1186 H1199 0.961 . S
C1186 H1200 0.961 . S
C1187 C1184 1.539 . S
C1187 H1201 0.958 . S
C1187 H1202 0.961 . S
C1187 H1203 0.960 . S
H1188 C1172 0.931 . S
H1189 C1177 0.929 . S
H1190 C1178 0.960 . S
H1191 C1178 0.962 . S
H1192 C1178 0.960 . S
H1193 C1179 0.961 . S
H1194 C1179 0.961 . S
H1195 C1179 0.961 . S
H1196 C1180 0.931 . S
H1197 C1185 0.930 . S
H1198 C1186 0.956 . S
H1199 C1186 0.961 . S
H1200 C1186 0.961 . S
H1201 C1187 0.958 . S
H1202 C1187 0.961 . S
H1203 C1187 0.960 . S
C1204 C1205 1.391 . S
C1204 C1206 1.394 . S
C1204 H1220 0.931 . S
C1205 C1204 1.391 . S
C1205 C1209 1.376 . S
C1206 C1204 1.394 . S
C1206 C1207 1.369 . S
C1206 C1210 1.531 . S
C1207 C1206 1.369 . S
C1207 C1208 1.410 . S
C1207 C1215 1.503 . S
C1208 C1207 1.410 . S
C1208 C1209 1.392 . S
C1208 C1211 1.511 . S
C1209 C1205 1.376 . S
C1209 C1208 1.392 . S
C1209 H1221 0.929 . S
C1210 C1206 1.531 . S
C1210 H1222 0.960 . S
C1210 H1223 0.962 . S
C1210 H1224 0.960 . S
C1211 C1208 1.511 . S
C1211 H1225 0.961 . S
C1211 H1226 0.961 . S
C1211 H1227 0.961 . S
C1212 C1213 1.370 . S
C1212 C1214 1.363 . S
C1212 H1228 0.931 . S
C1213 C1212 1.370 . S
C1213 C1217 1.408 . S
C1214 C1212 1.363 . S
C1214 C1215 1.370 . S
C1214 C1218 1.524 . S
C1215 C1207 1.503 . S
C1215 C1214 1.370 . S
C1215 C1216 1.403 . S
C1216 C1215 1.403 . S
C1216 C1217 1.404 . S
C1216 C1219 1.539 . S
C1217 C1213 1.408 . S
C1217 C1216 1.404 . S
C1217 H1229 0.930 . S
C1218 C1214 1.524 . S
C1218 H1230 0.956 . S
C1218 H1231 0.961 . S
C1218 H1232 0.961 . S
C1219 C1216 1.539 . S
C1219 H1233 0.958 . S
C1219 H1234 0.961 . S
C1219 H1235 0.960 . S
H1220 C1204 0.931 . S
H1221 C1209 0.929 . S
H1222 C1210 0.960 . S
H1223 C1210 0.962 . S
H1224 C1210 0.960 . S
H1225 C1211 0.961 . S
H1226 C1211 0.961 . S
H1227 C1211 0.961 . S
H1228 C1212 0.931 . S
H1229 C1217 0.930 . S
H1230 C1218 0.956 . S
H1231 C1218 0.961 . S
H1232 C1218 0.961 . S
H1233 C1219 0.958 . S
H1234 C1219 0.961 . S
H1235 C1219 0.960 . S
C1236 C1237 1.391 . S
C1236 C1238 1.394 . S
C1236 H1252 0.931 . S
C1237 C1236 1.391 . S
C1237 C1241 1.376 . S
C1238 C1236 1.394 . S
C1238 C1239 1.369 . S
C1238 C1242 1.531 . S
C1239 C1238 1.369 . S
C1239 C1240 1.410 . S
C1239 C1247 1.503 1_556 S
C1240 C1239 1.410 . S
C1240 C1241 1.392 . S
C1240 C1243 1.511 . S
C1241 C1237 1.376 . S
C1241 C1240 1.392 . S
C1241 H1253 0.929 . S
C1242 C1238 1.531 . S
C1242 H1254 0.960 1_556 S
C1242 H1255 0.962 1_556 S
C1242 H1256 0.960 . S
C1243 C1240 1.511 . S
C1243 H1257 0.961 . S
C1243 H1258 0.961 . S
C1243 H1259 0.961 . S
C1244 C1245 1.370 . S
C1244 C1246 1.363 . S
C1244 H1260 0.931 . S
C1245 C1244 1.370 . S
C1245 C1249 1.408 . S
C1246 C1244 1.363 . S
C1246 C1247 1.370 . S
C1246 C1250 1.524 . S
C1247 C1239 1.503 1_554 S
C1247 C1246 1.370 . S
C1247 C1248 1.403 . S
C1248 C1247 1.403 . S
C1248 C1249 1.404 . S
C1248 C1251 1.539 1_554 S
C1249 C1245 1.408 . S
C1249 C1248 1.404 . S
C1249 H1261 0.930 . S
C1250 C1246 1.524 . S
C1250 H1262 0.956 . S
C1250 H1263 0.961 . S
C1250 H1264 0.961 . S
C1251 C1248 1.539 1_556 S
C1251 H1265 0.958 . S
C1251 H1266 0.961 . S
C1251 H1267 0.960 . S
H1252 C1236 0.931 . S
H1253 C1241 0.929 . S
H1254 C1242 0.960 1_554 S
H1255 C1242 0.962 1_554 S
H1256 C1242 0.960 . S
H1257 C1243 0.961 . S
H1258 C1243 0.961 . S
H1259 C1243 0.961 . S
H1260 C1244 0.931 . S
H1261 C1249 0.930 . S
H1262 C1250 0.956 . S
H1263 C1250 0.961 . S
H1264 C1250 0.961 . S
H1265 C1251 0.958 . S
H1266 C1251 0.961 . S
H1267 C1251 0.960 . S
C1268 C1269 1.391 . S
C1268 C1270 1.394 1_455 S
C1268 H1284 0.931 1_455 S
C1269 C1268 1.391 . S
C1269 C1273 1.376 . S
C1270 C1268 1.394 1_655 S
C1270 C1271 1.369 1_655 S
C1270 C1274 1.531 . S
C1271 C1270 1.369 1_455 S
C1271 C1272 1.410 . S
C1271 C1279 1.503 1_455 S
C1272 C1271 1.410 . S
C1272 C1273 1.392 . S
C1272 C1275 1.511 . S
C1273 C1269 1.376 . S
C1273 C1272 1.392 . S
C1273 H1285 0.929 . S
C1274 C1270 1.531 . S
C1274 H1286 0.960 . S
C1274 H1287 0.962 . S
C1274 H1288 0.960 . S
C1275 C1272 1.511 . S
C1275 H1289 0.961 . S
C1275 H1290 0.961 . S
C1275 H1291 0.961 . S
C1276 C1277 1.370 . S
C1276 C1278 1.363 . S
C1276 H1292 0.931 . S
C1277 C1276 1.370 . S
C1277 C1281 1.408 . S
C1278 C1276 1.363 . S
C1278 C1279 1.370 . S
C1278 C1282 1.524 1_655 S
C1279 C1271 1.503 1_655 S
C1279 C1278 1.370 . S
C1279 C1280 1.403 . S
C1280 C1279 1.403 . S
C1280 C1281 1.404 . S
C1280 C1283 1.539 . S
C1281 C1277 1.408 . S
C1281 C1280 1.404 . S
C1281 H1293 0.930 . S
C1282 C1278 1.524 1_455 S
C1282 H1294 0.956 1_455 S
C1282 H1295 0.961 . S
C1282 H1296 0.961 . S
C1283 C1280 1.539 . S
C1283 H1297 0.958 . S
C1283 H1298 0.961 . S
C1283 H1299 0.960 . S
H1284 C1268 0.931 1_655 S
H1285 C1273 0.929 . S
H1286 C1274 0.960 . S
H1287 C1274 0.962 . S
H1288 C1274 0.960 . S
H1289 C1275 0.961 . S
H1290 C1275 0.961 . S
H1291 C1275 0.961 . S
H1292 C1276 0.931 . S
H1293 C1281 0.930 . S
H1294 C1282 0.956 1_655 S
H1295 C1282 0.961 . S
H1296 C1282 0.961 . S
H1297 C1283 0.958 . S
H1298 C1283 0.961 . S
H1299 C1283 0.960 . S
C1300 C1301 1.391 . S
C1300 C1302 1.394 . S
C1300 H1316 0.931 . S
C1301 C1300 1.391 . S
C1301 C1305 1.376 . S
C1302 C1300 1.394 . S
C1302 C1303 1.369 . S
C1302 C1306 1.531 1_565 S
C1303 C1302 1.369 . S
C1303 C1304 1.410 . S
C1303 C1311 1.503 1_564 S
C1304 C1303 1.410 . S
C1304 C1305 1.392 . S
C1304 C1307 1.511 . S
C1305 C1301 1.376 . S
C1305 C1304 1.392 . S
C1305 H1317 0.929 . S
C1306 C1302 1.531 1_545 S
C1306 H1318 0.960 . S
C1306 H1319 0.962 1_545 S
C1306 H1320 0.960 . S
C1307 C1304 1.511 . S
C1307 H1321 0.961 . S
C1307 H1322 0.961 1_554 S
C1307 H1323 0.961 1_565 S
C1308 C1309 1.370 . S
C1308 C1310 1.363 1_545 S
C1308 H1324 0.931 1_545 S
C1309 C1308 1.370 . S
C1309 C1313 1.408 . S
C1310 C1308 1.363 1_565 S
C1310 C1311 1.370 1_565 S
C1310 C1314 1.524 . S
C1311 C1303 1.503 1_546 S
C1311 C1310 1.370 1_545 S
C1311 C1312 1.403 . S
C1312 C1311 1.403 . S
C1312 C1313 1.404 . S
C1312 C1315 1.539 1_556 S
C1313 C1309 1.408 . S
C1313 C1312 1.404 . S
C1313 H1325 0.930 . S
C1314 C1310 1.524 . S
C1314 H1326 0.956 . S
C1314 H1327 0.961 . S
C1314 H1328 0.961 . S
C1315 C1312 1.539 1_554 S
C1315 H1329 0.958 . S
C1315 H1330 0.961 . S
C1315 H1331 0.960 . S
H1316 C1300 0.931 . S
H1317 C1305 0.929 . S
H1318 C1306 0.960 . S
H1319 C1306 0.962 1_565 S
H1320 C1306 0.960 . S
H1321 C1307 0.961 . S
H1322 C1307 0.961 1_556 S
H1323 C1307 0.961 1_545 S
H1324 C1308 0.931 1_565 S
H1325 C1313 0.930 . S
H1326 C1314 0.956 . S
H1327 C1314 0.961 . S
H1328 C1314 0.961 . S
H1329 C1315 0.958 . S
H1330 C1315 0.961 . S
H1331 C1315 0.960 . S
C1332 C1333 1.391 . S
C1332 C1334 1.394 . S
C1332 H1348 0.931 . S
C1333 C1332 1.391 . S
C1333 C1337 1.376 . S
C1334 C1332 1.394 . S
C1334 C1335 1.369 . S
C1334 C1338 1.531 . S
C1335 C1334 1.369 . S
C1335 C1336 1.410 . S
C1335 C1343 1.503 . S
C1336 C1335 1.410 . S
C1336 C1337 1.392 . S
C1336 C1339 1.511 . S
C1337 C1333 1.376 . S
C1337 C1336 1.392 . S
C1337 H1349 0.929 . S
C1338 C1334 1.531 . S
C1338 H1350 0.960 . S
C1338 H1351 0.962 . S
C1338 H1352 0.960 . S
C1339 C1336 1.511 . S
C1339 H1353 0.961 . S
C1339 H1354 0.961 . S
C1339 H1355 0.961 . S
C1340 C1341 1.370 . S
C1340 C1342 1.363 . S
C1340 H1356 0.931 . S
C1341 C1340 1.370 . S
C1341 C1345 1.408 . S
C1342 C1340 1.363 . S
C1342 C1343 1.370 . S
C1342 C1346 1.524 . S
C1343 C1335 1.503 . S
C1343 C1342 1.370 . S
C1343 C1344 1.403 . S
C1344 C1343 1.403 . S
C1344 C1345 1.404 . S
C1344 C1347 1.539 . S
C1345 C1341 1.408 . S
C1345 C1344 1.404 . S
C1345 H1357 0.930 . S
C1346 C1342 1.524 . S
C1346 H1358 0.956 . S
C1346 H1359 0.961 . S
C1346 H1360 0.961 . S
C1347 C1344 1.539 . S
C1347 H1361 0.958 . S
C1347 H1362 0.961 . S
C1347 H1363 0.960 . S
H1348 C1332 0.931 . S
H1349 C1337 0.929 . S
H1350 C1338 0.960 . S
H1351 C1338 0.962 . S
H1352 C1338 0.960 . S
H1353 C1339 0.961 . S
H1354 C1339 0.961 . S
H1355 C1339 0.961 . S
H1356 C1340 0.931 . S
H1357 C1345 0.930 . S
H1358 C1346 0.956 . S
H1359 C1346 0.961 . S
H1360 C1346 0.961 . S
H1361 C1347 0.958 . S
H1362 C1347 0.961 . S
H1363 C1347 0.960 . S
C1364 C1365 1.391 . S
C1364 C1366 1.394 . S
C1364 H1380 0.931 . S
C1365 C1364 1.391 . S
C1365 C1369 1.376 . S
C1366 C1364 1.394 . S
C1366 C1367 1.369 . S
C1366 C1370 1.531 1_556 S
C1367 C1366 1.369 . S
C1367 C1368 1.410 1_655 S
C1367 C1375 1.503 1_656 S
C1368 C1367 1.410 1_455 S
C1368 C1369 1.392 1_455 S
C1368 C1371 1.511 . S
C1369 C1365 1.376 . S
C1369 C1368 1.392 1_655 S
C1369 H1381 0.929 1_655 S
C1370 C1366 1.531 1_554 S
C1370 H1382 0.960 . S
C1370 H1383 0.962 . S
C1370 H1384 0.960 . S
C1371 C1368 1.511 . S
C1371 H1385 0.961 . S
C1371 H1386 0.961 . S
C1371 H1387 0.961 . S
C1372 C1373 1.370 . S
C1372 C1374 1.363 . S
C1372 H1388 0.931 . S
C1373 C1372 1.370 . S
C1373 C1377 1.408 . S
C1374 C1372 1.363 . S
C1374 C1375 1.370 . S
C1374 C1378 1.524 1_455 S
C1375 C1367 1.503 1_454 S
C1375 C1374 1.370 . S
C1375 C1376 1.403 . S
C1376 C1375 1.403 . S
C1376 C1377 1.404 . S
C1376 C1379 1.539 . S
C1377 C1373 1.408 . S
C1377 C1376 1.404 . S
C1377 H1389 0.930 . S
C1378 C1374 1.524 1_655 S
C1378 H1390 0.956 . S
C1378 H1391 0.961 1_654 S
C1378 H1392 0.961 1_655 S
C1379 C1376 1.539 . S
C1379 H1393 0.958 . S
C1379 H1394 0.961 . S
C1379 H1395 0.960 1_554 S
H1380 C1364 0.931 . S
H1381 C1369 0.929 1_455 S
H1382 C1370 0.960 . S
H1383 C1370 0.962 . S
H1384 C1370 0.960 . S
H1385 C1371 0.961 . S
H1386 C1371 0.961 . S
H1387 C1371 0.961 . S
H1388 C1372 0.931 . S
H1389 C1377 0.930 . S
H1390 C1378 0.956 . S
H1391 C1378 0.961 1_456 S
H1392 C1378 0.961 1_455 S
H1393 C1379 0.958 . S
H1394 C1379 0.961 . S
H1395 C1379 0.960 1_556 S
C1396 C1397 1.391 . S
C1396 C1398 1.394 . S
C1396 H1412 0.931 . S
C1397 C1396 1.391 . S
C1397 C1401 1.376 . S
C1398 C1396 1.394 . S
C1398 C1399 1.369 . S
C1398 C1402 1.531 . S
C1399 C1398 1.369 . S
C1399 C1400 1.410 1_565 S
C1399 C1407 1.503 1_565 S
C1400 C1399 1.410 1_545 S
C1400 C1401 1.392 1_545 S
C1400 C1403 1.511 . S
C1401 C1397 1.376 . S
C1401 C1400 1.392 1_565 S
C1401 H1413 0.920 1_565 S
C1402 C1398 1.531 . S
C1402 H1414 0.960 . S
C1402 H1415 0.962 . S
C1402 H1416 0.960 . S
C1403 C1400 1.511 . S
C1403 H1417 0.961 . S
C1403 H1418 0.961 . S
C1403 H1419 0.961 . S
C1404 C1405 1.370 . S
C1404 C1406 1.363 . S
C1404 H1420 0.931 . S
C1405 C1404 1.370 . S
C1405 C1409 1.408 . S
C1406 C1404 1.363 . S
C1406 C1407 1.370 . S
C1406 C1410 1.524 . S
C1407 C1399 1.503 1_545 S
C1407 C1406 1.370 . S
C1407 C1408 1.403 . S
C1408 C1407 1.403 . S
C1408 C1409 1.404 . S
C1408 C1411 1.539 1_545 S
C1409 C1405 1.408 . S
C1409 C1408 1.404 . S
C1409 H1421 0.930 . S
C1410 C1406 1.524 . S
C1410 H1422 0.956 1_545 S
C1410 H1423 0.961 . S
C1410 H1424 0.961 . S
C1411 C1408 1.539 1_565 S
C1411 H1425 0.958 . S
C1411 H1426 0.961 1_565 S
C1411 H1427 0.960 . S
H1412 C1396 0.931 . S
H1413 C1401 0.920 1_545 S
H1414 C1402 0.960 . S
H1415 C1402 0.962 . S
H1416 C1402 0.960 . S
H1417 C1403 0.961 . S
H1418 C1403 0.961 . S
H1419 C1403 0.961 . S
H1420 C1404 0.931 . S
H1421 C1409 0.930 . S
H1422 C1410 0.956 1_565 S
H1423 C1410 0.961 . S
H1424 C1410 0.961 . S
H1425 C1411 0.958 . S
H1426 C1411 0.961 1_545 S
H1427 C1411 0.960 . S
C277 C113 0.848 . S
C285 C17 0.837 . S
C309 C136 0.792 . S
C317 C40 0.826 . S
C341 C63 0.812 . S
C349 C21 0.795 . S
C373 C86 0.832 . S
C381 C44 0.836 . S
C405 C109 0.860 . S
C413 C67 0.834 . S
C437 C90 0.870 . S
C445 C132 0.830 . S
C469 C205 0.816 . S
C477 C155 0.832 . S
C501 C178 0.802 . S
C509 C228 0.792 . S
C533 C251 0.760 . S
C541 C201 0.803 . S
C565 C224 0.789 . S
C573 C274 0.791 . S
C597 C247 0.861 . S
C605 C159 0.833 . S
C629 C182 0.834 . S
C637 C270 0.811 . S
C661 C110 1.126 . S
C669 C16 1.125 . S
C693 C39 1.117 . S
C701 C133 1.124 . S
C725 C62 1.116 . S
C733 C18 1.120 . S
C757 C85 1.137 . S
C765 C41 1.132 . S
C789 C64 1.138 . S
C797 C108 1.131 . S
C821 C87 1.109 . S
C829 C131 1.123 . S
C853 C202 1.129 . S
C861 C154 1.127 . S
C885 C177 1.111 . S
C893 C225 1.118 . S
C917 C200 1.122 . S
C925 C248 1.127 . S
C949 C271 1.139 . S
C957 C223 1.132 . S
C981 C246 1.110 . S
C989 C156 1.120 . S
C1013 C179 1.137 . S
C1021 C269 1.132 . S
C1045 C250 1.480 . S
C1053 C20 1.508 . S
C1077 C43 1.486 . S
C1085 C273 1.509 . S
C1109 C66 1.514 . S
C1117 C158 1.494 . S
C1141 C89 1.517 . S
C1149 C181 1.496 . S
C1173 C112 1.488 . S
C1181 C204 1.508 . S
C1205 C227 1.478 . S
C1213 C135 1.509 . S
C1237 C226 1.507 . S
C1245 C19 1.513 . S
C1269 C249 1.524 . S
C1277 C42 1.521 . S
C1301 C65 1.515 . S
C1309 C272 1.516 . S
C1333 C88 1.524 . S
C1341 C157 1.521 . S
C1365 C180 1.499 . S
C1373 C111 1.510 . S
C1397 C203 1.499 . S
C1405 C134 1.510 . S
