# Generated by pormake.
# Topology mdf, (4)-cn, num edge types: 1
# Building blocks:
#     Node 0, Type 0, BuildingBlock: KUFVIS_clean_sbu_0, # of connection points: 4
#     Node 1, Type 0, BuildingBlock: KUFVIS_clean_sbu_0, # of connection points: 4
#     Node 2, Type 0, BuildingBlock: KUFVIS_clean_sbu_0, # of connection points: 4
#     Node 3, Type 0, BuildingBlock: KUFVIS_clean_sbu_0, # of connection points: 4
#     Node 4, Type 0, BuildingBlock: KUFVIS_clean_sbu_0, # of connection points: 4
#     Node 5, Type 0, BuildingBlock: KUFVIS_clean_sbu_0, # of connection points: 4
#     Node 6, Type 0, BuildingBlock: KUFVIS_clean_sbu_0, # of connection points: 4
#     Node 7, Type 0, BuildingBlock: KUFVIS_clean_sbu_0, # of connection points: 4
#     Edge 8, Type (0, 0), BuildingBlock: TEMPAE_clean_linker_10, # of connection points: 2
#     Edge 9, Type (0, 0), BuildingBlock: TEMPAE_clean_linker_10, # of connection points: 2
#     Edge 10, Type (0, 0), BuildingBlock: TEMPAE_clean_linker_10, # of connection points: 2
#     Edge 11, Type (0, 0), BuildingBlock: TEMPAE_clean_linker_10, # of connection points: 2
#     Edge 12, Type (0, 0), BuildingBlock: TEMPAE_clean_linker_10, # of connection points: 2
#     Edge 13, Type (0, 0), BuildingBlock: TEMPAE_clean_linker_10, # of connection points: 2
#     Edge 14, Type (0, 0), BuildingBlock: TEMPAE_clean_linker_10, # of connection points: 2
#     Edge 15, Type (0, 0), BuildingBlock: TEMPAE_clean_linker_10, # of connection points: 2
#     Edge 16, Type (0, 0), BuildingBlock: TEMPAE_clean_linker_10, # of connection points: 2
#     Edge 17, Type (0, 0), BuildingBlock: TEMPAE_clean_linker_10, # of connection points: 2
#     Edge 18, Type (0, 0), BuildingBlock: TEMPAE_clean_linker_10, # of connection points: 2
#     Edge 19, Type (0, 0), BuildingBlock: TEMPAE_clean_linker_10, # of connection points: 2
#     Edge 20, Type (0, 0), BuildingBlock: TEMPAE_clean_linker_10, # of connection points: 2
#     Edge 21, Type (0, 0), BuildingBlock: TEMPAE_clean_linker_10, # of connection points: 2
#     Edge 22, Type (0, 0), BuildingBlock: TEMPAE_clean_linker_10, # of connection points: 2
#     Edge 23, Type (0, 0), BuildingBlock: TEMPAE_clean_linker_10, # of connection points: 2
# Relax obj value: 0.028
# Max RMSD: 0.051
# Mean RMSD: 0.051
data_MOF--net-mdf--node1-KUFVIS_clean_sbu_0--edge1-TEMPAE_clean_linker_10
_symmetry_space_group_name_H-M    P1
_symmetry_Int_Tables_number       1
_symmetry_cell_setting            triclinic
loop_
_symmetry_equiv_pos_as_xyz
'x, y, z'
_cell_length_a     37.88315
_cell_length_b     37.921971
_cell_length_c     12.244868
_cell_angle_alpha  90.014486
_cell_angle_beta   90.003836
_cell_angle_gamma 92.360492
loop_
_atom_site_label
_atom_site_type_symbol
_atom_site_fract_x
_atom_site_fract_y
_atom_site_fract_z
_atom_type_partial_charge
Mn0 Mn 0.25033 0.52826 0.42834 0.0
Mn1 Mn 0.27351 0.49095 0.18818 0.0
C2 C 0.22207 0.47641 0.36957 0.0
C3 C 0.21746 0.56774 0.53095 0.0
C4 C 0.31573 0.48363 0.396 0.0
O5 O 0.27771 0.5686 0.35143 0.0
O6 O 0.2909 0.54049 0.19535 0.0
C7 C 0.22983 0.53364 0.04211 0.0
N8 N 0.2393 0.50155 0.07959 0.0
C9 C 0.20284 0.47137 0.94547 0.0
C10 C 0.19267 0.50409 0.90539 0.0
C11 C 0.20615 0.53535 0.95421 0.0
C12 C 0.22611 0.47133 0.0343 0.0
H13 H 0.24052 0.55776 0.07835 0.0
C14 C 0.29161 0.56769 0.25665 0.0
O15 O 0.24734 0.55651 0.56575 0.0
O16 O 0.20706 0.55668 0.4354 0.0
N17 N 0.25862 0.44273 0.1665 0.0
C18 C 0.27148 0.41341 0.214 0.0
C19 C 0.26164 0.37997 0.17229 0.0
C20 C 0.2393 0.37708 0.08095 0.0
C21 C 0.22607 0.40758 0.0341 0.0
C22 C 0.23683 0.44018 0.0791 0.0
H23 H 0.28955 0.41556 0.28212 0.0
O24 O 0.22164 0.48536 0.4719 0.0
O25 O 0.23832 0.49839 0.30333 0.0
O26 O 0.29602 0.50188 0.45681 0.0
O27 O 0.30998 0.47814 0.29461 0.0
C28 C 0.2032 0.40697 0.94322 0.0
C29 C 0.19124 0.43881 0.89981 0.0
H30 H 0.17472 0.50552 0.83679 0.0
H31 H 0.19869 0.5607 0.92321 0.0
H32 H 0.27182 0.35651 0.20902 0.0
H33 H 0.23267 0.35129 0.04701 0.0
H34 H 0.19459 0.38216 0.90606 0.0
H35 H 0.17346 0.43797 0.83049 0.0
Mn36 Mn 0.47708 0.75977 0.61586 0.0
Mn37 Mn 0.51669 0.74165 0.85617 0.0
C38 C 0.53061 0.78805 0.66269 0.0
C39 C 0.43675 0.79118 0.51201 0.0
C40 C 0.51752 0.69304 0.65923 0.0
O41 O 0.43734 0.7349 0.70491 0.0
O42 O 0.46546 0.7315 0.86666 0.0
C43 C 0.4855 0.79635 0.99504 0.0
N44 N 0.51435 0.78026 0.95573 0.0
C45 C 0.55304 0.81404 0.0755 0.0
C46 C 0.52369 0.83054 0.11878 0.0
C47 C 0.48981 0.82189 0.07759 0.0
C48 C 0.54716 0.78923 0.99217 0.0
H49 H 0.45947 0.78972 0.96357 0.0
C50 C 0.43772 0.72847 0.80748 0.0
O51 O 0.44663 0.76026 0.48239 0.0
O52 O 0.44957 0.80355 0.60331 0.0
N53 N 0.56671 0.75061 0.85962 0.0
C54 C 0.59236 0.73352 0.80535 0.0
C55 C 0.62785 0.73955 0.83536 0.0
C56 C 0.63652 0.76244 0.92233 0.0
C57 C 0.60971 0.78002 0.97625 0.0
C58 C 0.57487 0.77322 0.94204 0.0
H59 H 0.5858 0.71502 0.74079 0.0
O60 O 0.5203 0.78674 0.56155 0.0
O61 O 0.50912 0.77361 0.73338 0.0
O62 O 0.50204 0.71331 0.59318 0.0
O63 O 0.52181 0.70003 0.76046 0.0
C64 C 0.61611 0.80363 0.06362 0.0
C65 C 0.58789 0.82106 0.11204 0.0
H66 H 0.52687 0.85 0.18319 0.0
H67 H 0.46708 0.83461 0.11027 0.0
H68 H 0.64842 0.72605 0.79298 0.0
H69 H 0.66388 0.7665 0.94657 0.0
H70 H 0.64267 0.80862 0.09415 0.0
H71 H 0.59325 0.83969 0.17764 0.0
Mn72 Mn 0.2602 0.97775 0.89407 0.0
Mn73 Mn 0.24482 0.0157 0.64866 0.0
C74 C 0.29044 0.02989 0.84358 0.0
C75 C 0.29016 0.93803 1.00507 0.0
C76 C 0.19583 0.02175 0.84391 0.0
O77 O 0.23449 0.9377 0.80921 0.0
O78 O 0.23014 0.96536 0.64739 0.0
C79 C 0.29581 0.97692 0.51536 0.0
N80 N 0.28273 0.00794 0.54975 0.0
C81 C 0.31927 0.04105 0.42236 0.0
C82 C 0.33283 0.00944 0.38453 0.0
C83 C 0.32122 0.97728 0.43181 0.0
C84 C 0.29441 0.03909 0.5069 0.0
H85 H 0.2868 0.95214 0.55108 0.0
C86 C 0.22647 0.93801 0.70779 0.0
O87 O 0.25951 0.94941 0.03199 0.0
O88 O 0.30296 0.94892 0.91208 0.0
N89 N 0.25786 0.06471 0.63465 0.0
C90 C 0.24276 0.09286 0.68227 0.0
C91 C 0.25124 0.12702 0.64382 0.0
C92 C 0.27455 0.13181 0.55543 0.0
C93 C 0.2902 0.10252 0.50873 0.0
C94 C 0.28083 0.06914 0.55075 0.0
H95 H 0.22401 0.08926 0.74805 0.0
O96 O 0.28799 0.02067 0.94543 0.0
O97 O 0.27604 0.00808 0.77346 0.0
O98 O 0.21401 0.00407 0.91076 0.0
O99 O 0.20453 0.02628 0.74398 0.0
C100 C 0.31427 0.10504 0.42099 0.0
C101 C 0.32918 0.07439 0.37886 0.0
H102 H 0.35215 0.00954 0.3193 0.0
H103 H 0.3315 0.95284 0.40287 0.0
H104 H 0.23927 0.14955 0.68071 0.0
H105 H 0.28022 0.15812 0.52405 0.0
H106 H 0.32168 0.13045 0.38558 0.0
H107 H 0.34804 0.07674 0.31252 0.0
Mn108 Mn 0.02114 0.7445 0.11813 0.0
Mn109 Mn 0.98249 0.76463 0.35842 0.0
C110 C 0.96937 0.71503 0.17322 0.0
C111 C 0.061 0.71348 1.01102 0.0
C112 C 0.97261 0.80708 0.15377 0.0
O113 O 0.06129 0.77069 0.19807 0.0
O114 O 0.03035 0.78687 0.3453 0.0
C115 C 0.03174 0.72567 0.49788 0.0
N116 N 0.99816 0.73193 0.46538 0.0
C117 C 0.97376 0.6929 0.60339 0.0
C118 C 0.00807 0.68602 0.63822 0.0
C119 C 0.03717 0.70243 0.58499 0.0
C120 C 0.97001 0.7158 0.51479 0.0
H121 H 0.05425 0.73851 0.45848 0.0
C122 C 0.05852 0.78708 0.28818 0.0
O123 O 0.04956 0.74371 0.98049 0.0
O124 O 0.04971 0.70148 0.10457 0.0
N125 N 0.93605 0.7455 0.38873 0.0
C126 C 0.90472 0.75685 0.35045 0.0
C127 C 0.87308 0.74534 0.40084 0.0
C128 C 0.87398 0.72279 0.49147 0.0
C129 C 0.90638 0.7109 0.52856 0.0
C130 C 0.93712 0.72367 0.47596 0.0
H131 H 0.90394 0.77535 0.28404 0.0
O132 O 0.97821 0.71644 0.07081 0.0
O133 O 0.99126 0.73033 0.24187 0.0
O134 O 0.99506 0.79094 0.0963 0.0
O135 O 0.96446 0.79855 0.25177 0.0
C136 C 0.90946 0.6879 0.6181 0.0
C137 C 0.94312 0.67853 0.65461 0.0
H138 H 0.01238 0.66851 0.70639 0.0
H139 H 0.06371 0.6976 0.6121 0.0
H140 H 0.84811 0.75455 0.37168 0.0
H141 H 0.84961 0.71512 0.53282 0.0
H142 H 0.8861 0.67741 0.65985 0.0
H143 H 0.94516 0.66085 0.72359 0.0
Mn144 Mn 0.74518 0.02702 0.89284 0.0
Mn145 Mn 0.76044 0.98999 0.64589 0.0
C146 C 0.71508 0.97495 0.8408 0.0
C147 C 0.71524 0.06626 1.0056 0.0
C148 C 0.80965 0.9834 0.84034 0.0
O149 O 0.7707 0.06745 0.8092 0.0
O150 O 0.77504 0.04034 0.64647 0.0
C151 C 0.70913 0.02919 0.51512 0.0
N152 N 0.72238 0.99807 0.54784 0.0
C153 C 0.68558 0.9654 0.42004 0.0
C154 C 0.67179 0.99711 0.38403 0.0
C155 C 0.68343 0.0291 0.43242 0.0
C156 C 0.71066 0.96707 0.50402 0.0
H157 H 0.7182 0.05385 0.55155 0.0
C158 C 0.7787 0.06749 0.70777 0.0
O159 O 0.74596 0.05489 0.03172 0.0
O160 O 0.70234 0.05563 0.91243 0.0
N161 N 0.7475 0.94102 0.62999 0.0
C162 C 0.76283 0.91272 0.67596 0.0
C163 C 0.7544 0.87871 0.63611 0.0
C164 C 0.73091 0.87424 0.54803 0.0
C165 C 0.71504 0.90367 0.50305 0.0
C166 C 0.72439 0.93688 0.54634 0.0
H167 H 0.78173 0.91609 0.74143 0.0
O168 O 0.71759 0.98382 0.94295 0.0
O169 O 0.72933 0.99705 0.77132 0.0
O170 O 0.79149 1.00081 0.90796 0.0
O171 O 0.80086 0.97915 0.74036 0.0
C172 C 0.69076 0.90144 0.41578 0.0
C173 C 0.67566 0.93222 0.37536 0.0
H174 H 0.65226 0.99723 0.31942 0.0
H175 H 0.67292 0.05361 0.40501 0.0
H176 H 0.76655 0.85607 0.67166 0.0
H177 H 0.72529 0.84805 0.51554 0.0
H178 H 0.68334 0.87617 0.37945 0.0
H179 H 0.65662 0.9301 0.30942 0.0
Mn180 Mn 0.98567 0.26104 0.12476 0.0
Mn181 Mn 0.02388 0.24111 0.36591 0.0
C182 C 0.03751 0.29031 0.18016 0.0
C183 C 0.94616 0.29209 0.01633 0.0
C184 C 0.0339 0.1983 0.16205 0.0
O185 O 0.94527 0.23521 0.20452 0.0
O186 O 0.97599 0.21896 0.3521 0.0
C187 C 0.97445 0.28035 0.50402 0.0
N188 N 0.00807 0.274 0.47216 0.0
C189 C 0.03228 0.31324 0.61002 0.0
C190 C 0.99793 0.3202 0.64416 0.0
C191 C 0.9689 0.30373 0.59069 0.0
C192 C 0.03616 0.29018 0.52182 0.0
H193 H 0.95198 0.26747 0.46445 0.0
C194 C 0.94788 0.21884 0.2947 0.0
O195 O 0.95747 0.26171 0.98661 0.0
O196 O 0.95736 0.30421 0.10985 0.0
N197 N 0.0703 0.26016 0.39697 0.0
C198 C 0.10168 0.24864 0.35964 0.0
C199 C 0.13324 0.26018 0.41049 0.0
C200 C 0.1322 0.28293 0.50063 0.0
C201 C 0.09976 0.29498 0.5368 0.0
C202 C 0.0691 0.28217 0.48378 0.0
H203 H 0.10255 0.23001 0.2936 0.0
O204 O 0.02882 0.28876 0.07764 0.0
O205 O 0.01543 0.27527 0.24875 0.0
O206 O 0.01152 0.21439 0.10419 0.0
O207 O 0.04202 0.207 0.25996 0.0
C208 C 0.09656 0.31816 0.62587 0.0
C209 C 0.06284 0.32765 0.66158 0.0
H210 H 0.99352 0.33783 0.71201 0.0
H211 H 0.94234 0.30862 0.6173 0.0
H212 H 0.15824 0.25084 0.38206 0.0
H213 H 0.1565 0.29062 0.5424 0.0
H214 H 0.11985 0.32868 0.66791 0.0
H215 H 0.0607 0.34545 0.73024 0.0
Mn216 Mn 0.75777 0.47655 0.42769 0.0
Mn217 Mn 0.73446 0.51292 0.18622 0.0
C218 C 0.78604 0.52814 0.3668 0.0
C219 C 0.79064 0.43739 0.53163 0.0
C220 C 0.69237 0.5211 0.39394 0.0
O221 O 0.73023 0.43595 0.35248 0.0
O222 O 0.71703 0.46344 0.19538 0.0
C223 C 0.77794 0.4696 0.04146 0.0
N224 N 0.76858 0.50185 0.07789 0.0
C225 C 0.80491 0.53145 0.94232 0.0
C226 C 0.81499 0.49856 0.90333 0.0
C227 C 0.80151 0.46751 0.9534 0.0
C228 C 0.78176 0.53187 0.03138 0.0
H229 H 0.76725 0.44564 0.07862 0.0
C230 C 0.71628 0.4365 0.25772 0.0
O231 O 0.76082 0.44885 0.56615 0.0
O232 O 0.801 0.44806 0.43564 0.0
N233 N 0.74934 0.56104 0.16258 0.0
C234 C 0.73642 0.59056 0.20875 0.0
C235 C 0.74615 0.62381 0.16547 0.0
C236 C 0.76843 0.62629 0.07393 0.0
C237 C 0.78172 0.59561 0.02846 0.0
C238 C 0.77107 0.56321 0.07498 0.0
H239 H 0.71838 0.5887 0.27697 0.0
O240 O 0.78657 0.51959 0.46943 0.0
O241 O 0.76971 0.50591 0.30148 0.0
O242 O 0.71213 0.50312 0.45538 0.0
O243 O 0.69807 0.52617 0.29232 0.0
C244 C 0.80452 0.59582 0.93743 0.0
C245 C 0.81646 0.5638 0.89526 0.0
H246 H 0.83284 0.49681 0.83459 0.0
H247 H 0.80886 0.44203 0.92319 0.0
H248 H 0.73592 0.64742 0.20112 0.0
H249 H 0.77494 0.65192 0.03873 0.0
H250 H 0.81306 0.62047 0.89918 0.0
H251 H 0.83416 0.56433 0.82576 0.0
Mn252 Mn 0.52945 0.24413 0.62135 0.0
Mn253 Mn 0.48992 0.26258 0.86153 0.0
C254 C 0.4758 0.21611 0.6683 0.0
C255 C 0.56963 0.21254 0.51734 0.0
C256 C 0.48937 0.3111 0.66445 0.0
O257 O 0.56929 0.26888 0.7104 0.0
O258 O 0.54118 0.27247 0.87211 0.0
C259 C 0.52077 0.20784 1.00096 0.0
N260 N 0.49201 0.224 0.96125 0.0
C261 C 0.4531 0.19046 0.08088 0.0
C262 C 0.48234 0.17386 0.12448 0.0
C263 C 0.51628 0.18236 0.08358 0.0
C264 C 0.45915 0.21519 0.99747 0.0
H265 H 0.54686 0.21439 0.96981 0.0
C266 C 0.56893 0.27537 0.81296 0.0
O267 O 0.55984 0.2435 0.48784 0.0
O268 O 0.55681 0.20023 0.60868 0.0
N269 N 0.43986 0.25388 0.86479 0.0
C270 C 0.41432 0.2711 0.81041 0.0
C271 C 0.3788 0.26525 0.84023 0.0
C272 C 0.36997 0.24242 0.92717 0.0
C273 C 0.39666 0.22473 0.98128 0.0
C274 C 0.43154 0.23132 0.94718 0.0
H275 H 0.421 0.28956 0.74587 0.0
O276 O 0.48611 0.21731 0.56715 0.0
O277 O 0.49737 0.2305 0.73893 0.0
O278 O 0.50472 0.29069 0.59851 0.0
O279 O 0.48504 0.3042 0.76571 0.0
C280 C 0.3901 0.20122 0.06874 0.0
C281 C 0.41821 0.18364 0.1173 0.0
H282 H 0.47904 0.15446 0.18898 0.0
H283 H 0.53893 0.16959 0.11662 0.0
H284 H 0.35832 0.27885 0.79774 0.0
H285 H 0.34258 0.23851 0.95129 0.0
H286 H 0.36352 0.1964 0.09922 0.0
H287 H 0.41272 0.16508 0.18298 0.0
C288 C 0.40191 0.72402 0.97611 0.0
C289 C 0.40539 0.71573 0.86499 0.0
C290 C 0.37782 0.70533 0.04277 0.0
C291 C 0.35632 0.67788 0.99696 0.0
C292 C 0.35675 0.6721 0.88241 0.0
C293 C 0.38149 0.69118 0.81725 0.0
C294 C 0.37871 0.71213 0.16429 0.0
C295 C 0.33374 0.64332 0.83048 0.0
C296 C 0.34406 0.59655 0.1732 0.0
C297 C 0.30938 0.59921 0.21014 0.0
C298 C 0.35955 0.62222 0.1046 0.0
C299 C 0.33959 0.65107 0.07092 0.0
C300 C 0.30476 0.65446 0.1106 0.0
C301 C 0.28999 0.62836 0.18048 0.0
C302 C 0.39699 0.61782 0.06563 0.0
C303 C 0.28285 0.68491 0.07639 0.0
H304 H 0.41994 0.74339 0.01328 0.0
H305 H 0.38399 0.68482 0.73135 0.0
H306 H 0.35168 0.71102 0.19914 0.0
H307 H 0.39374 0.69134 0.20501 0.0
H308 H 0.39179 0.7381 0.18397 0.0
H309 H 0.33202 0.64665 0.74052 0.0
H310 H 0.34504 0.61735 0.84757 0.0
H311 H 0.30669 0.64283 0.86532 0.0
H312 H 0.35861 0.57351 0.1949 0.0
H313 H 0.26275 0.62967 0.20685 0.0
H314 H 0.41381 0.64136 0.08795 0.0
H315 H 0.3974 0.61548 0.97532 0.0
H316 H 0.40892 0.59411 0.10101 0.0
H317 H 0.29651 0.71028 0.09932 0.0
H318 H 0.2562 0.68365 0.11435 0.0
H319 H 0.27976 0.68496 0.98628 0.0
C320 C 0.3888 0.79541 0.3716 0.0
C321 C 0.41348 0.81214 0.44185 0.0
C322 C 0.3673 0.81513 0.30269 0.0
C323 C 0.37164 0.85245 0.30034 0.0
C324 C 0.39678 0.86939 0.37084 0.0
C325 C 0.4168 0.84908 0.44215 0.0
C326 C 0.34034 0.79583 0.23139 0.0
C327 C 0.40243 0.90902 0.37329 0.0
C328 C 0.3425 0.90157 0.04573 0.0
C329 C 0.31027 0.91502 0.0792 0.0
C330 C 0.36248 0.88096 0.11641 0.0
C331 C 0.35017 0.87368 0.22368 0.0
C332 C 0.31758 0.88706 0.25782 0.0
C333 C 0.29798 0.90739 0.18518 0.0
C334 C 0.39723 0.86759 0.07715 0.0
C335 C 0.30316 0.87953 0.3707 0.0
H336 H 0.38596 0.76685 0.37157 0.0
H337 H 0.43586 0.86217 0.49617 0.0
H338 H 0.3156 0.81037 0.22529 0.0
H339 H 0.35125 0.79328 0.14778 0.0
H340 H 0.33362 0.76897 0.26317 0.0
H341 H 0.42946 0.91686 0.40188 0.0
H342 H 0.39823 0.92114 0.29213 0.0
H343 H 0.3834 0.92006 0.43158 0.0
H344 H 0.3523 0.90734 0.96425 0.0
H345 H 0.27318 0.91769 0.21207 0.0
H346 H 0.39723 0.83843 0.08512 0.0
H347 H 0.41896 0.8788 0.129 0.0
H348 H 0.40282 0.87475 0.99072 0.0
H349 H 0.2934 0.85157 0.37519 0.0
H350 H 0.28109 0.89666 0.39122 0.0
H351 H 0.32406 0.88351 0.43348 0.0
C352 C 0.12014 0.78775 0.35881 0.0
C353 C 0.08938 0.80569 0.33647 0.0
C354 C 0.14676 0.8032 0.42549 0.0
C355 C 0.14247 0.83745 0.4684 0.0
C356 C 0.11171 0.85586 0.44317 0.0
C357 C 0.08542 0.83957 0.37843 0.0
C358 C 0.17886 0.78261 0.45264 0.0
C359 C 0.10642 0.89278 0.48501 0.0
C360 C 0.18921 0.88154 0.70835 0.0
C361 C 0.21134 0.90607 0.65319 0.0
C362 C 0.16873 0.85619 0.64952 0.0
C363 C 0.17071 0.85566 0.53377 0.0
C364 C 0.19564 0.87806 0.47932 0.0
C365 C 0.21562 0.9029 0.53971 0.0
C366 C 0.1427 0.83231 0.71038 0.0
C367 C 0.19875 0.87821 0.35619 0.0
H368 H 0.12253 0.76105 0.32879 0.0
H369 H 0.06127 0.85305 0.36207 0.0
H370 H 0.20317 0.79725 0.42488 0.0
H371 H 0.18101 0.77945 0.54246 0.0
H372 H 0.17787 0.75602 0.41433 0.0
H373 H 0.08089 0.90327 0.458 0.0
H374 H 0.10718 0.89304 0.57556 0.0
H375 H 0.12814 0.91091 0.45566 0.0
H376 H 0.18596 0.88374 0.79601 0.0
H377 H 0.23304 0.92146 0.4966 0.0
H378 H 0.14132 0.80548 0.6741 0.0
H379 H 0.11598 0.8431 0.70439 0.0
H380 H 0.14967 0.83024 0.79821 0.0
H381 H 0.20459 0.85147 0.32634 0.0
H382 H 0.21971 0.89715 0.32655 0.0
H383 H 0.17332 0.88547 0.31907 0.0
C384 C 0.10249 0.70925 0.85167 0.0
C385 C 0.08513 0.69321 0.94121 0.0
C386 C 0.12503 0.69015 0.78434 0.0
C387 C 0.12988 0.65392 0.80569 0.0
C388 C 0.11209 0.63755 0.89533 0.0
C389 C 0.09033 0.65746 0.96261 0.0
C390 C 0.14366 0.70875 0.69036 0.0
C391 C 0.11554 0.59878 0.91908 0.0
C392 C 0.16017 0.5959 0.57172 0.0
C393 C 0.19559 0.59093 0.59898 0.0
C394 C 0.1385 0.61616 0.63823 0.0
C395 C 0.15281 0.63282 0.73305 0.0
C396 C 0.1888 0.62849 0.75975 0.0
C397 C 0.20962 0.60732 0.69314 0.0
C398 C 0.10032 0.61968 0.60605 0.0
C399 C 0.20536 0.64617 0.85887 0.0
H400 H 0.09864 0.73687 0.83449 0.0
H401 H 0.0768 0.64477 0.03098 0.0
H402 H 0.17265 0.70636 0.69832 0.0
H403 H 0.13557 0.6961 0.6121 0.0
H404 H 0.13779 0.73717 0.68619 0.0
H405 H 0.09824 0.5895 0.98739 0.0
H406 H 0.10871 0.58293 0.84525 0.0
H407 H 0.14327 0.59363 0.94056 0.0
H408 H 0.14907 0.58332 0.49926 0.0
H409 H 0.23698 0.6037 0.71474 0.0
H410 H 0.09743 0.64541 0.56475 0.0
H411 H 0.08268 0.61886 0.67842 0.0
H412 H 0.09125 0.59854 0.54848 0.0
H413 H 0.20181 0.67505 0.85529 0.0
H414 H 0.23403 0.64144 0.86573 0.0
H415 H 0.19204 0.6362 0.93406 0.0
C416 C 0.79012 0.10289 0.54066 0.0
C417 C 0.79394 0.09957 0.65425 0.0
C418 C 0.81029 0.12785 0.48137 0.0
C419 C 0.83494 0.15024 0.53706 0.0
C420 C 0.83644 0.14956 0.65287 0.0
C421 C 0.81578 0.12409 0.71058 0.0
C422 C 0.8077 0.12784 0.35811 0.0
C423 C 0.86216 0.17343 0.71505 0.0
C424 C 0.92078 0.16644 0.3848 0.0
C425 C 0.91692 0.20029 0.34258 0.0
C426 C 0.8943 0.15014 0.4488 0.0
C427 C 0.86344 0.16853 0.47299 0.0
C428 C 0.85926 0.20277 0.42994 0.0
C429 C 0.88609 0.21823 0.36405 0.0
C430 C 0.89948 0.11322 0.49078 0.0
C431 C 0.82708 0.22335 0.45612 0.0
H432 H 0.77294 0.08432 0.49664 0.0
H433 H 0.81869 0.12177 0.79833 0.0
H434 H 0.80191 0.1546 0.32833 0.0
H435 H 0.8333 0.1207 0.32194 0.0
H436 H 0.78692 0.10887 0.32737 0.0
H437 H 0.85476 0.17543 0.80256 0.0
H438 H 0.88891 0.16265 0.71023 0.0
H439 H 0.86368 0.20027 0.67898 0.0
H440 H 0.94498 0.15296 0.36913 0.0
H441 H 0.88377 0.24492 0.33388 0.0
H442 H 0.87792 0.09508 0.46049 0.0
H443 H 0.89834 0.11294 0.58129 0.0
H444 H 0.92514 0.10279 0.46479 0.0
H445 H 0.80281 0.20851 0.42893 0.0
H446 H 0.82798 0.24977 0.41677 0.0
H447 H 0.82493 0.22689 0.5458 0.0
C448 C 0.90479 0.29617 0.85658 0.0
C449 C 0.9223 0.31236 0.94564 0.0
C450 C 0.88247 0.31527 0.7885 0.0
C451 C 0.87798 0.35163 0.80862 0.0
C452 C 0.896 0.36817 0.89758 0.0
C453 C 0.91752 0.34827 0.96567 0.0
C454 C 0.86373 0.29655 0.69493 0.0
C455 C 0.89305 0.40709 0.91979 0.0
C456 C 0.84779 0.40899 0.57283 0.0
C457 C 0.81247 0.41435 0.60035 0.0
C458 C 0.86942 0.38884 0.63979 0.0
C459 C 0.85516 0.37267 0.73545 0.0
C460 C 0.81924 0.37738 0.76241 0.0
C461 C 0.79848 0.39844 0.69528 0.0
C462 C 0.90744 0.38483 0.60656 0.0
C463 C 0.80269 0.36014 0.86223 0.0
H464 H 0.90835 0.26844 0.84038 0.0
H465 H 0.93119 0.36108 0.03359 0.0
H466 H 0.83475 0.29895 0.70325 0.0
H467 H 0.87171 0.3091 0.61645 0.0
H468 H 0.8696 0.26812 0.691 0.0
H469 H 0.91078 0.41654 0.98688 0.0
H470 H 0.89963 0.42254 0.84498 0.0
H471 H 0.8655 0.41258 0.94242 0.0
H472 H 0.85887 0.42116 0.49969 0.0
H473 H 0.77118 0.40233 0.71706 0.0
H474 H 0.90936 0.36018 0.55859 0.0
H475 H 0.92522 0.38323 0.67824 0.0
H476 H 0.91711 0.40709 0.55408 0.0
H477 H 0.8055 0.33115 0.85841 0.0
H478 H 0.7742 0.36557 0.87025 0.0
H479 H 0.81657 0.36977 0.9369 0.0
C480 C 0.71733 0.37549 0.18386 0.0
C481 C 0.69822 0.40491 0.21262 0.0
C482 C 0.70229 0.34925 0.11493 0.0
C483 C 0.66751 0.35284 0.07503 0.0
C484 C 0.64782 0.38198 0.10788 0.0
C485 C 0.66355 0.40773 0.17576 0.0
C486 C 0.72392 0.31849 0.08161 0.0
C487 C 0.61045 0.38662 0.06869 0.0
C488 C 0.62541 0.31229 0.82221 0.0
C489 C 0.60128 0.28807 0.87045 0.0
C490 C 0.65025 0.33139 0.88702 0.0
C491 C 0.65055 0.32597 1.00173 0.0
C492 C 0.62877 0.29886 0.04819 0.0
C493 C 0.60461 0.28013 0.98186 0.0
C494 C 0.67353 0.35981 0.83446 0.0
C495 C 0.62772 0.29252 0.16993 0.0
H496 H 0.74457 0.37404 0.2101 0.0
H497 H 0.64921 0.43098 0.19678 0.0
H498 H 0.70942 0.29323 0.10071 0.0
H499 H 0.72833 0.31913 0.99204 0.0
H500 H 0.75001 0.31886 0.12315 0.0
H501 H 0.59874 0.41056 0.10337 0.0
H502 H 0.61006 0.38868 0.97832 0.0
H503 H 0.5934 0.3633 0.09162 0.0
H504 H 0.62303 0.31838 0.73609 0.0
H505 H 0.5864 0.26101 0.01944 0.0
H506 H 0.7006 0.36004 0.86909 0.0
H507 H 0.66257 0.38596 0.85129 0.0
H508 H 0.67513 0.35632 0.74453 0.0
H509 H 0.65474 0.29328 0.20481 0.0
H510 H 0.61418 0.26685 0.19041 0.0
H511 H 0.61307 0.31373 0.2099 0.0
C512 C 0.66248 0.10182 0.04905 0.0
C513 C 0.69517 0.08901 0.08071 0.0
C514 C 0.64259 0.12221 0.12065 0.0
C515 C 0.65552 0.12999 0.22691 0.0
C516 C 0.68855 0.11724 0.25927 0.0
C517 C 0.70802 0.09706 0.18581 0.0
C518 C 0.60736 0.13492 0.08338 0.0
C519 C 0.70358 0.12526 0.3711 0.0
C520 C 0.61693 0.20825 0.37492 0.0
C521 C 0.59282 0.19154 0.44697 0.0
C522 C 0.63823 0.18853 0.30539 0.0
C523 C 0.63428 0.15117 0.30436 0.0
C524 C 0.6098 0.13422 0.37702 0.0
C525 C 0.58995 0.15459 0.44869 0.0
C526 C 0.6645 0.2079 0.23195 0.0
C527 C 0.60447 0.09458 0.38189 0.0
H528 H 0.65223 0.09571 0.9683 0.0
H529 H 0.7332 0.08728 0.21134 0.0
H530 H 0.5862 0.12395 0.13781 0.0
H531 H 0.60719 0.16412 0.08929 0.0
H532 H 0.60106 0.12703 0.99797 0.0
H533 H 0.72574 0.1082 0.39103 0.0
H534 H 0.71339 0.15323 0.37398 0.0
H535 H 0.68304 0.12154 0.43514 0.0
H536 H 0.61947 0.23682 0.37384 0.0
H537 H 0.57135 0.14146 0.50412 0.0
H538 H 0.65272 0.21069 0.14958 0.0
H539 H 0.68915 0.19336 0.22296 0.0
H540 H 0.67161 0.23466 0.26385 0.0
H541 H 0.61292 0.08118 0.30635 0.0
H542 H 0.57626 0.08703 0.39731 0.0
H543 H 0.61989 0.08458 0.45153 0.0
C544 C 0.37925 0.46855 0.40402 0.0
C545 C 0.34494 0.46479 0.44629 0.0
C546 C 0.4063 0.44735 0.44204 0.0
C547 C 0.39837 0.42067 0.52039 0.0
C548 C 0.36374 0.41723 0.56436 0.0
C549 C 0.33761 0.43976 0.52804 0.0
C550 C 0.44308 0.45285 0.39612 0.0
C551 C 0.35376 0.3885 0.64539 0.0
C552 C 0.45215 0.33801 0.52144 0.0
C553 C 0.47091 0.34166 0.61975 0.0
C554 C 0.42898 0.36384 0.48719 0.0
C555 C 0.42537 0.39471 0.55088 0.0
C556 C 0.44593 0.39949 0.64686 0.0
C557 C 0.46788 0.37257 0.6814 0.0
C558 C 0.40687 0.35708 0.3861 0.0
C559 C 0.44392 0.43253 0.7149 0.0
H560 H 0.3848 0.48785 0.34032 0.0
H561 H 0.31086 0.43648 0.55911 0.0
H562 H 0.46283 0.45404 0.46312 0.0
H563 H 0.44935 0.43024 0.34307 0.0
H564 H 0.44597 0.47745 0.34712 0.0
H565 H 0.32593 0.38978 0.67322 0.0
H566 H 0.35736 0.36228 0.6076 0.0
H567 H 0.37129 0.39042 0.71782 0.0
H568 H 0.45389 0.31388 0.47459 0.0
H569 H 0.48229 0.37544 0.75761 0.0
H570 H 0.41079 0.37915 0.32741 0.0
H571 H 0.37846 0.35564 0.40851 0.0
H572 H 0.41332 0.33212 0.34447 0.0
H573 H 0.44646 0.4563 0.66215 0.0
H574 H 0.46484 0.43426 0.7785 0.0
H575 H 0.41784 0.43296 0.75587 0.0
C576 C 0.66692 0.94716 0.72819 0.0
C577 C 0.69307 0.94397 0.80774 0.0
C578 C 0.64407 0.91839 0.70133 0.0
C579 C 0.64676 0.88604 0.75814 0.0
C580 C 0.67403 0.88262 0.83631 0.0
C581 C 0.6965 0.91181 0.86126 0.0
C582 C 0.61647 0.92291 0.61411 0.0
C583 C 0.67929 0.84898 0.89779 0.0
C584 C 0.55814 0.83612 0.77546 0.0
C585 C 0.56151 0.81031 0.69492 0.0
C586 C 0.58655 0.85948 0.80161 0.0
C587 C 0.61869 0.85766 0.74319 0.0
C588 C 0.62244 0.83061 0.66465 0.0
C589 C 0.59358 0.8076 0.6401 0.0
C590 C 0.58193 0.8866 0.89013 0.0
C591 C 0.65635 0.82661 0.60336 0.0
H592 H 0.66388 0.97241 0.68854 0.0
H593 H 0.71674 0.90948 0.92324 0.0
H594 H 0.61748 0.90116 0.55364 0.0
H595 H 0.58978 0.92162 0.6515 0.0
H596 H 0.62011 0.94849 0.57048 0.0
H597 H 0.70789 0.84386 0.90396 0.0
H598 H 0.66929 0.8522 0.98206 0.0
H599 H 0.66566 0.82591 0.85903 0.0
H600 H 0.53297 0.83855 0.81631 0.0
H601 H 0.59599 0.78758 0.57756 0.0
H602 H 0.58307 0.91346 0.85408 0.0
H603 H 0.60378 0.88538 0.95026 0.0
H604 H 0.55638 0.88263 0.93388 0.0
H605 H 0.65799 0.84691 0.53858 0.0
H606 H 0.65762 0.80027 0.56414 0.0
H607 H 0.67941 0.83056 0.65842 0.0
C608 C 0.03638 0.13978 0.06667 0.0
C609 C 0.05373 0.1698 0.1112 0.0
C610 C 0.05574 0.11215 0.02261 0.0
C611 C 0.0932 0.11514 0.02099 0.0
C612 C 0.11062 0.14583 0.06418 0.0
C613 C 0.09068 0.17258 0.10923 0.0
C614 C 0.03622 0.07968 0.97878 0.0
C615 C 0.15041 0.15064 0.06197 0.0
C616 C 0.15435 0.03833 0.9951 0.0
C617 C 0.16521 0.04131 0.88569 0.0
C618 C 0.12907 0.06066 0.03861 0.0
C619 C 0.11462 0.08695 0.97173 0.0
C620 C 0.12403 0.08882 0.85997 0.0
C621 C 0.14888 0.06586 0.81825 0.0
C622 C 0.11928 0.05734 0.15773 0.0
C623 C 0.10969 0.11666 0.78582 0.0
H624 H 0.00776 0.13763 0.06845 0.0
H625 H 0.10409 0.19613 0.14103 0.0
H626 H 0.04253 0.07612 0.89111 0.0
H627 H 0.04493 0.05592 0.02246 0.0
H628 H 0.00713 0.08112 0.98769 0.0
H629 H 0.15983 0.17622 0.09806 0.0
H630 H 0.16251 0.12899 0.10781 0.0
H631 H 0.16006 0.14937 0.97655 0.0
H632 H 0.16646 0.01936 0.04799 0.0
H633 H 0.15674 0.06845 0.73344 0.0
H634 H 0.09019 0.0577 0.16803 0.0
H635 H 0.13103 0.08018 0.20352 0.0
H636 H 0.12884 0.03273 0.19464 0.0
H637 H 0.08052 0.11705 0.79261 0.0
H638 H 0.11676 0.11239 0.6989 0.0
H639 H 0.12051 0.14305 0.81112 0.0
C640 C 0.90693 0.69382 0.15189 0.0
C641 C 0.93897 0.6924 0.20779 0.0
C642 C 0.87861 0.6702 0.17681 0.0
C643 C 0.88282 0.64384 0.25721 0.0
C644 C 0.91503 0.64303 0.31593 0.0
C645 C 0.94288 0.66713 0.28962 0.0
C646 C 0.84469 0.67284 0.11441 0.0
C647 C 0.92044 0.61615 0.40457 0.0
C648 C 0.80561 0.59096 0.38323 0.0
C649 C 0.80744 0.55884 0.32838 0.0
C650 C 0.82855 0.61958 0.35652 0.0
C651 C 0.85474 0.61564 0.27533 0.0
C652 C 0.85587 0.58334 0.21727 0.0
C653 C 0.83241 0.55515 0.24543 0.0
C654 C 0.82571 0.65321 0.41998 0.0
C655 C 0.88266 0.57812 0.12816 0.0
H656 H 0.90413 0.71333 0.08805 0.0
H657 H 0.96804 0.66567 0.33121 0.0
H658 H 0.8422 0.65039 0.05684 0.0
H659 H 0.82184 0.67129 0.17101 0.0
H660 H 0.84378 0.69773 0.06685 0.0
H661 H 0.94613 0.62058 0.44726 0.0
H662 H 0.89889 0.61712 0.46571 0.0
H663 H 0.91947 0.58925 0.36872 0.0
H664 H 0.78645 0.59353 0.44831 0.0
H665 H 0.83427 0.52987 0.20488 0.0
H666 H 0.83094 0.67653 0.36706 0.0
H667 H 0.84557 0.65335 0.48646 0.0
H668 H 0.79921 0.65529 0.45773 0.0
H669 H 0.88157 0.59971 0.06725 0.0
H670 H 0.87824 0.55248 0.08533 0.0
H671 H 0.90963 0.57912 0.16369 0.0
C672 C 0.30949 0.09282 0.86647 0.0
C673 C 0.31258 0.06087 0.81141 0.0
C674 C 0.33213 0.12195 0.84244 0.0
C675 C 0.35921 0.11871 0.76357 0.0
C676 C 0.36157 0.08658 0.70528 0.0
C677 C 0.33857 0.05785 0.73126 0.0
C678 C 0.32729 0.15533 0.90575 0.0
C679 C 0.389 0.08224 0.61745 0.0
C680 C 0.41267 0.19706 0.64646 0.0
C681 C 0.4448 0.19403 0.70068 0.0
C682 C 0.38368 0.17425 0.67122 0.0
C683 C 0.38739 0.14701 0.74909 0.0
C684 C 0.41959 0.14488 0.80703 0.0
C685 C 0.44811 0.16811 0.78088 0.0
C686 C 0.34966 0.17866 0.61085 0.0
C687 C 0.42417 0.11756 0.89493 0.0
H688 H 0.2894 0.095 0.92899 0.0
H689 H 0.34137 0.03274 0.69046 0.0
H690 H 0.33773 0.15168 0.98931 0.0
H691 H 0.34081 0.17852 0.86734 0.0
H692 H 0.29876 0.16053 0.91364 0.0
H693 H 0.38519 0.05682 0.57299 0.0
H694 H 0.38799 0.1042 0.55776 0.0
H695 H 0.41576 0.0833 0.65446 0.0
H696 H 0.4103 0.2172 0.58431 0.0
H697 H 0.4733 0.16548 0.82141 0.0
H698 H 0.32671 0.17467 0.6663 0.0
H699 H 0.34775 0.15858 0.54542 0.0
H700 H 0.34849 0.20514 0.57256 0.0
H701 H 0.40241 0.1188 0.95537 0.0
H702 H 0.44979 0.12131 0.93842 0.0
H703 H 0.42282 0.09077 0.85831 0.0
C704 C 0.85112 0.96628 0.99083 0.0
C705 C 0.84041 0.96386 0.88116 0.0
C706 C 0.87653 0.94392 0.03329 0.0
C707 C 0.89134 0.9182 0.965 0.0
C708 C 0.8821 0.91695 0.85303 0.0
C709 C 0.85706 0.93989 0.81243 0.0
C710 C 0.88609 0.94655 0.15276 0.0
C711 C 0.89688 0.88977 0.77735 0.0
C712 C 0.96987 0.86576 0.05973 0.0
C713 C 0.95268 0.83539 0.10238 0.0
C714 C 0.95035 0.89333 0.01595 0.0
C715 C 0.91292 0.88992 0.0129 0.0
C716 C 0.89568 0.85882 0.05397 0.0
C717 C 0.91576 0.83213 0.09863 0.0
C718 C 0.96968 0.9262 0.9742 0.0
C719 C 0.85594 0.85359 0.05026 0.0
H720 H 0.83876 0.9848 0.04473 0.0
H721 H 0.84932 0.93775 0.72741 0.0
H722 H 0.87452 0.92327 0.19684 0.0
H723 H 0.91517 0.94646 0.16347 0.0
H724 H 0.87616 0.97077 0.19114 0.0
H725 H 0.89003 0.89461 0.69056 0.0
H726 H 0.92603 0.88952 0.78489 0.0
H727 H 0.88616 0.86313 0.80049 0.0
H728 H 0.99847 0.86827 0.0629 0.0
H729 H 0.90251 0.80829 0.12901 0.0
H730 H 0.96081 0.94958 0.0195 0.0
H731 H 0.96333 0.93031 0.88681 0.0
H732 H 0.99878 0.92488 0.98295 0.0
H733 H 0.84346 0.8748 0.0971 0.0
H734 H 0.84669 0.8277 0.08448 0.0
H735 H 0.84654 0.85532 0.96466 0.0
C736 C 0.06424 0.33828 0.29589 0.0
C737 C 0.06806 0.31273 0.2148 0.0
C738 C 0.09226 0.36218 0.32212 0.0
C739 C 0.12456 0.36087 0.26413 0.0
C740 C 0.1287 0.33419 0.18469 0.0
C741 C 0.1002 0.31079 0.15973 0.0
C742 C 0.08693 0.38943 0.40979 0.0
C743 C 0.16272 0.33098 0.12318 0.0
C744 C 0.17558 0.44917 0.24915 0.0
C745 C 0.20049 0.44567 0.33236 0.0
C746 C 0.15194 0.42101 0.22203 0.0
C747 C 0.15279 0.38898 0.28151 0.0
C748 C 0.17888 0.38523 0.36314 0.0
C749 C 0.20204 0.4138 0.38868 0.0
C750 C 0.12526 0.42601 0.13244 0.0
C751 C 0.18138 0.35189 0.4282 0.0
H752 H 0.03902 0.34011 0.33691 0.0
H753 H 0.10293 0.29105 0.09652 0.0
H754 H 0.1084 0.38856 0.47122 0.0
H755 H 0.0881 0.41619 0.37303 0.0
H756 H 0.06118 0.3853 0.4523 0.0
H757 H 0.16362 0.30573 0.07743 0.0
H758 H 0.16535 0.35298 0.06406 0.0
H759 H 0.1855 0.33289 0.18002 0.0
H760 H 0.1739 0.47427 0.20754 0.0
H761 H 0.22114 0.41139 0.454 0.0
H762 H 0.09825 0.42529 0.16769 0.0
H763 H 0.1263 0.40417 0.07236 0.0
H764 H 0.12985 0.45145 0.08869 0.0
H765 H 0.16132 0.35213 0.49406 0.0
H766 H 0.20775 0.34985 0.46685 0.0
H767 H 0.17619 0.32834 0.37613 0.0
C768 C 0.55526 0.66645 0.51698 0.0
C769 C 0.53621 0.66261 0.61469 0.0
C770 C 0.57865 0.64077 0.48314 0.0
C771 C 0.58221 0.60984 0.5466 0.0
C772 C 0.56138 0.60488 0.64194 0.0
C773 C 0.5392 0.63166 0.67613 0.0
C774 C 0.60104 0.64773 0.38277 0.0
C775 C 0.56331 0.57177 0.70967 0.0
C776 C 0.62886 0.53623 0.40023 0.0
C777 C 0.66304 0.53998 0.44348 0.0
C778 C 0.60168 0.55738 0.43767 0.0
C779 C 0.60936 0.58399 0.51648 0.0
C780 C 0.64386 0.58743 0.56141 0.0
C781 C 0.67012 0.56495 0.52563 0.0
C782 C 0.56504 0.55188 0.39069 0.0
C783 C 0.65357 0.61609 0.64298 0.0
H784 H 0.55356 0.69062 0.47036 0.0
H785 H 0.52459 0.62866 0.75191 0.0
H786 H 0.62939 0.64923 0.40601 0.0
H787 H 0.59737 0.62573 0.32369 0.0
H788 H 0.59463 0.67272 0.34129 0.0
H789 H 0.54224 0.56991 0.77276 0.0
H790 H 0.56097 0.54806 0.65659 0.0
H791 H 0.5893 0.57137 0.75122 0.0
H792 H 0.6235 0.51697 0.33626 0.0
H793 H 0.69677 0.56821 0.5575 0.0
H794 H 0.55885 0.57457 0.33792 0.0
H795 H 0.54511 0.55051 0.45717 0.0
H796 H 0.56234 0.52736 0.34117 0.0
H797 H 0.65001 0.64234 0.60538 0.0
H798 H 0.68134 0.61485 0.67146 0.0
H799 H 0.63586 0.61406 0.71497 0.0
loop_
_geom_bond_atom_site_label_1
_geom_bond_atom_site_label_2
_geom_bond_distance
_geom_bond_site_symmetry_2
_ccdc_geom_bond_type
Mn0 O5 2.095 . S
Mn0 O15 2.162 . S
Mn0 O16 2.297 . S
Mn0 O24 2.385 . S
Mn0 O25 2.209 . S
Mn0 O26 2.094 . S
Mn1 O6 2.121 . S
Mn1 N8 2.257 . S
Mn1 N17 2.282 . S
Mn1 O25 2.215 . S
Mn1 O27 2.117 . S
C2 O24 1.234 . S
C2 O25 1.283 . S
C3 O15 1.281 . S
C3 O16 1.236 . S
C4 O26 1.240 . S
C4 O27 1.264 . S
O5 Mn0 2.095 . S
O5 C14 1.250 . S
O6 Mn1 2.121 . S
O6 C14 1.258 . S
C7 N8 1.326 1_556 S
C7 C11 1.460 . S
C7 H13 0.929 . S
N8 Mn1 2.257 . S
N8 C7 1.326 1_554 S
N8 C12 1.362 . S
C9 C10 1.258 . S
C9 C12 1.431 1_556 S
C9 C29 1.449 . S
C10 C9 1.258 . S
C10 C11 1.477 . S
C10 H30 0.931 . S
C11 C7 1.460 . S
C11 C10 1.477 . S
C11 H31 0.930 . S
C12 N8 1.362 . S
C12 C9 1.431 1_554 S
C12 C22 1.476 . S
H13 C7 0.929 . S
C14 O5 1.250 . S
C14 O6 1.258 . S
O15 Mn0 2.162 . S
O15 C3 1.281 . S
O16 Mn0 2.297 . S
O16 C3 1.236 . S
N17 Mn1 2.282 . S
N17 C18 1.328 . S
N17 C22 1.318 . S
C18 N17 1.328 . S
C18 C19 1.457 . S
C18 H23 0.929 . S
C19 C18 1.457 . S
C19 C20 1.291 . S
C19 H32 0.931 . S
C20 C19 1.291 . S
C20 C21 1.373 . S
C20 H33 0.929 . S
C21 C20 1.373 . S
C21 C22 1.396 . S
C21 C28 1.403 1_554 S
C22 C12 1.476 . S
C22 N17 1.318 . S
C22 C21 1.396 . S
H23 C18 0.929 . S
O24 Mn0 2.385 . S
O24 C2 1.234 . S
O25 Mn0 2.209 . S
O25 Mn1 2.215 . S
O25 C2 1.283 . S
O26 Mn0 2.094 . S
O26 C4 1.240 . S
O27 Mn1 2.117 . S
O27 C4 1.264 . S
C28 C21 1.403 1_556 S
C28 C29 1.399 . S
C28 H34 0.929 . S
C29 C9 1.449 . S
C29 C28 1.399 . S
C29 H35 0.930 . S
H30 C10 0.931 . S
H31 C11 0.930 . S
H32 C19 0.931 . S
H33 C20 0.929 . S
H34 C28 0.929 . S
H35 C29 0.930 . S
Mn36 O41 2.095 . S
Mn36 O51 2.162 . S
Mn36 O52 2.297 . S
Mn36 O60 2.385 . S
Mn36 O61 2.209 . S
Mn36 O62 2.094 . S
Mn37 O42 2.121 . S
Mn37 N44 2.257 . S
Mn37 N53 2.282 . S
Mn37 O61 2.215 . S
Mn37 O63 2.117 . S
C38 O60 1.234 . S
C38 O61 1.283 . S
C39 O51 1.281 . S
C39 O52 1.236 . S
C40 O62 1.240 . S
C40 O63 1.264 . S
O41 Mn36 2.095 . S
O41 C50 1.250 . S
O42 Mn37 2.121 . S
O42 C50 1.258 . S
C43 N44 1.326 1_554 S
C43 C47 1.460 . S
C43 H49 0.929 . S
N44 Mn37 2.257 . S
N44 C43 1.326 1_556 S
N44 C48 1.362 . S
C45 C46 1.258 . S
C45 C48 1.431 1_554 S
C45 C65 1.449 . S
C46 C45 1.258 . S
C46 C47 1.477 . S
C46 H66 0.931 . S
C47 C43 1.460 . S
C47 C46 1.477 . S
C47 H67 0.930 . S
C48 N44 1.362 . S
C48 C45 1.431 1_556 S
C48 C58 1.476 . S
H49 C43 0.929 . S
C50 O41 1.250 . S
C50 O42 1.258 . S
O51 Mn36 2.162 . S
O51 C39 1.281 . S
O52 Mn36 2.297 . S
O52 C39 1.236 . S
N53 Mn37 2.282 . S
N53 C54 1.328 . S
N53 C58 1.318 . S
C54 N53 1.328 . S
C54 C55 1.457 . S
C54 H59 0.929 . S
C55 C54 1.457 . S
C55 C56 1.291 . S
C55 H68 0.931 . S
C56 C55 1.291 . S
C56 C57 1.373 . S
C56 H69 0.929 . S
C57 C56 1.373 . S
C57 C58 1.396 . S
C57 C64 1.403 1_556 S
C58 C48 1.476 . S
C58 N53 1.318 . S
C58 C57 1.396 . S
H59 C54 0.929 . S
O60 Mn36 2.385 . S
O60 C38 1.234 . S
O61 Mn36 2.209 . S
O61 Mn37 2.215 . S
O61 C38 1.283 . S
O62 Mn36 2.094 . S
O62 C40 1.240 . S
O63 Mn37 2.117 . S
O63 C40 1.264 . S
C64 C57 1.403 1_554 S
C64 C65 1.399 . S
C64 H70 0.929 . S
C65 C45 1.449 . S
C65 C64 1.399 . S
C65 H71 0.930 . S
H66 C46 0.931 . S
H67 C47 0.930 . S
H68 C55 0.931 . S
H69 C56 0.929 . S
H70 C64 0.929 . S
H71 C65 0.930 . S
Mn72 O77 2.095 . S
Mn72 O87 2.162 1_556 S
Mn72 O88 2.297 . S
Mn72 O96 2.385 1_565 S
Mn72 O97 2.209 . S
Mn72 O98 2.094 1_565 S
Mn73 O78 2.121 1_545 S
Mn73 N80 2.257 . S
Mn73 N89 2.282 . S
Mn73 O97 2.215 1_545 S
Mn73 O99 2.117 . S
C74 O96 1.234 . S
C74 O97 1.283 1_545 S
C75 O87 1.281 . S
C75 O88 1.236 1_554 S
C76 O98 1.240 . S
C76 O99 1.264 . S
O77 Mn72 2.095 . S
O77 C86 1.250 . S
O78 Mn73 2.121 1_565 S
O78 C86 1.258 . S
C79 N80 1.326 1_565 S
C79 C83 1.460 1_565 S
C79 H85 0.929 . S
N80 Mn73 2.257 . S
N80 C79 1.326 1_545 S
N80 C84 1.362 . S
C81 C82 1.258 . S
C81 C84 1.431 . S
C81 C101 1.449 . S
C82 C81 1.258 . S
C82 C83 1.477 . S
C82 H102 0.931 . S
C83 C79 1.460 1_545 S
C83 C82 1.477 . S
C83 H103 0.930 1_545 S
C84 N80 1.362 . S
C84 C81 1.431 . S
C84 C94 1.476 . S
H85 C79 0.929 . S
C86 O77 1.250 . S
C86 O78 1.258 . S
O87 Mn72 2.162 1_554 S
O87 C75 1.281 . S
O88 Mn72 2.297 . S
O88 C75 1.236 1_556 S
N89 Mn73 2.282 . S
N89 C90 1.328 . S
N89 C94 1.318 . S
C90 N89 1.328 . S
C90 C91 1.457 . S
C90 H95 0.929 . S
C91 C90 1.457 . S
C91 C92 1.291 . S
C91 H104 0.931 . S
C92 C91 1.291 . S
C92 C93 1.373 . S
C92 H105 0.929 . S
C93 C92 1.373 . S
C93 C94 1.396 . S
C93 C100 1.403 . S
C94 C84 1.476 . S
C94 N89 1.318 . S
C94 C93 1.396 . S
H95 C90 0.929 . S
O96 Mn72 2.385 1_545 S
O96 C74 1.234 . S
O97 Mn72 2.209 . S
O97 Mn73 2.215 1_565 S
O97 C74 1.283 1_565 S
O98 Mn72 2.094 1_545 S
O98 C76 1.240 . S
O99 Mn73 2.117 . S
O99 C76 1.264 . S
C100 C93 1.403 . S
C100 C101 1.399 . S
C100 H106 0.929 . S
C101 C81 1.449 . S
C101 C100 1.399 . S
C101 H107 0.930 . S
H102 C82 0.931 . S
H103 C83 0.930 1_565 S
H104 C91 0.931 . S
H105 C92 0.929 . S
H106 C100 0.929 . S
H107 C101 0.930 . S
Mn108 O113 2.095 . S
Mn108 O123 2.162 1_554 S
Mn108 O124 2.297 . S
Mn108 O132 2.385 1_455 S
Mn108 O133 2.209 . S
Mn108 O134 2.094 1_455 S
Mn109 O114 2.121 1_655 S
Mn109 N116 2.257 . S
Mn109 N125 2.282 . S
Mn109 O133 2.215 1_655 S
Mn109 O135 2.117 . S
C110 O132 1.234 . S
C110 O133 1.283 1_655 S
C111 O123 1.281 . S
C111 O124 1.236 1_556 S
C112 O134 1.240 . S
C112 O135 1.264 . S
O113 Mn108 2.095 . S
O113 C122 1.250 . S
O114 Mn109 2.121 1_455 S
O114 C122 1.258 . S
C115 N116 1.326 1_455 S
C115 C119 1.460 1_455 S
C115 H121 0.929 . S
N116 Mn109 2.257 . S
N116 C115 1.326 1_655 S
N116 C120 1.362 . S
C117 C118 1.258 . S
C117 C120 1.431 . S
C117 C137 1.449 . S
C118 C117 1.258 . S
C118 C119 1.477 . S
C118 H138 0.931 . S
C119 C115 1.460 1_655 S
C119 C118 1.477 . S
C119 H139 0.930 1_655 S
C120 N116 1.362 . S
C120 C117 1.431 . S
C120 C130 1.476 . S
H121 C115 0.929 . S
C122 O113 1.250 . S
C122 O114 1.258 . S
O123 Mn108 2.162 1_556 S
O123 C111 1.281 . S
O124 Mn108 2.297 . S
O124 C111 1.236 1_554 S
N125 Mn109 2.282 . S
N125 C126 1.328 . S
N125 C130 1.318 . S
C126 N125 1.328 . S
C126 C127 1.457 . S
C126 H131 0.929 . S
C127 C126 1.457 . S
C127 C128 1.291 . S
C127 H140 0.931 . S
C128 C127 1.291 . S
C128 C129 1.373 . S
C128 H141 0.929 . S
C129 C128 1.373 . S
C129 C130 1.396 . S
C129 C136 1.403 . S
C130 C120 1.476 . S
C130 N125 1.318 . S
C130 C129 1.396 . S
H131 C126 0.929 . S
O132 Mn108 2.385 1_655 S
O132 C110 1.234 . S
O133 Mn108 2.209 . S
O133 Mn109 2.215 1_455 S
O133 C110 1.283 1_455 S
O134 Mn108 2.094 1_655 S
O134 C112 1.240 . S
O135 Mn109 2.117 . S
O135 C112 1.264 . S
C136 C129 1.403 . S
C136 C137 1.399 . S
C136 H142 0.929 . S
C137 C117 1.449 . S
C137 C136 1.399 . S
C137 H143 0.930 . S
H138 C118 0.931 . S
H139 C119 0.930 1_455 S
H140 C127 0.931 . S
H141 C128 0.929 . S
H142 C136 0.929 . S
H143 C137 0.930 . S
Mn144 O149 2.095 . S
Mn144 O159 2.162 1_556 S
Mn144 O160 2.297 . S
Mn144 O168 2.385 1_545 S
Mn144 O169 2.209 . S
Mn144 O170 2.094 1_545 S
Mn145 O150 2.121 1_565 S
Mn145 N152 2.257 . S
Mn145 N161 2.282 . S
Mn145 O169 2.215 1_565 S
Mn145 O171 2.117 . S
C146 O168 1.234 . S
C146 O169 1.283 1_565 S
C147 O159 1.281 . S
C147 O160 1.236 1_554 S
C148 O170 1.240 . S
C148 O171 1.264 . S
O149 Mn144 2.095 . S
O149 C158 1.250 . S
O150 Mn145 2.121 1_545 S
O150 C158 1.258 . S
C151 N152 1.326 1_545 S
C151 C155 1.460 1_545 S
C151 H157 0.929 . S
N152 Mn145 2.257 . S
N152 C151 1.326 1_565 S
N152 C156 1.362 . S
C153 C154 1.258 . S
C153 C156 1.431 . S
C153 C173 1.449 . S
C154 C153 1.258 . S
C154 C155 1.477 . S
C154 H174 0.931 . S
C155 C151 1.460 1_565 S
C155 C154 1.477 . S
C155 H175 0.930 1_565 S
C156 N152 1.362 . S
C156 C153 1.431 . S
C156 C166 1.476 . S
H157 C151 0.929 . S
C158 O149 1.250 . S
C158 O150 1.258 . S
O159 Mn144 2.162 1_554 S
O159 C147 1.281 . S
O160 Mn144 2.297 . S
O160 C147 1.236 1_556 S
N161 Mn145 2.282 . S
N161 C162 1.328 . S
N161 C166 1.318 . S
C162 N161 1.328 . S
C162 C163 1.457 . S
C162 H167 0.929 . S
C163 C162 1.457 . S
C163 C164 1.291 . S
C163 H176 0.931 . S
C164 C163 1.291 . S
C164 C165 1.373 . S
C164 H177 0.929 . S
C165 C164 1.373 . S
C165 C166 1.396 . S
C165 C172 1.403 . S
C166 C156 1.476 . S
C166 N161 1.318 . S
C166 C165 1.396 . S
H167 C162 0.929 . S
O168 Mn144 2.385 1_565 S
O168 C146 1.234 . S
O169 Mn144 2.209 . S
O169 Mn145 2.215 1_545 S
O169 C146 1.283 1_545 S
O170 Mn144 2.094 1_565 S
O170 C148 1.240 . S
O171 Mn145 2.117 . S
O171 C148 1.264 . S
C172 C165 1.403 . S
C172 C173 1.399 . S
C172 H178 0.929 . S
C173 C153 1.449 . S
C173 C172 1.399 . S
C173 H179 0.930 . S
H174 C154 0.931 . S
H175 C155 0.930 1_545 S
H176 C163 0.931 . S
H177 C164 0.929 . S
H178 C172 0.929 . S
H179 C173 0.930 . S
Mn180 O185 2.095 . S
Mn180 O195 2.162 1_554 S
Mn180 O196 2.297 . S
Mn180 O204 2.385 1_655 S
Mn180 O205 2.209 . S
Mn180 O206 2.094 1_655 S
Mn181 O186 2.121 1_455 S
Mn181 N188 2.257 . S
Mn181 N197 2.282 . S
Mn181 O205 2.215 1_455 S
Mn181 O207 2.117 . S
C182 O204 1.234 . S
C182 O205 1.283 1_455 S
C183 O195 1.281 . S
C183 O196 1.236 1_556 S
C184 O206 1.240 . S
C184 O207 1.264 . S
O185 Mn180 2.095 . S
O185 C194 1.250 . S
O186 Mn181 2.121 1_655 S
O186 C194 1.258 . S
C187 N188 1.326 1_655 S
C187 C191 1.460 1_655 S
C187 H193 0.929 . S
N188 Mn181 2.257 . S
N188 C187 1.326 1_455 S
N188 C192 1.362 . S
C189 C190 1.258 . S
C189 C192 1.431 . S
C189 C209 1.449 . S
C190 C189 1.258 . S
C190 C191 1.477 . S
C190 H210 0.931 . S
C191 C187 1.460 1_455 S
C191 C190 1.477 . S
C191 H211 0.930 1_455 S
C192 N188 1.362 . S
C192 C189 1.431 . S
C192 C202 1.476 . S
H193 C187 0.929 . S
C194 O185 1.250 . S
C194 O186 1.258 . S
O195 Mn180 2.162 1_556 S
O195 C183 1.281 . S
O196 Mn180 2.297 . S
O196 C183 1.236 1_554 S
N197 Mn181 2.282 . S
N197 C198 1.328 . S
N197 C202 1.318 . S
C198 N197 1.328 . S
C198 C199 1.457 . S
C198 H203 0.929 . S
C199 C198 1.457 . S
C199 C200 1.291 . S
C199 H212 0.931 . S
C200 C199 1.291 . S
C200 C201 1.373 . S
C200 H213 0.929 . S
C201 C200 1.373 . S
C201 C202 1.396 . S
C201 C208 1.403 . S
C202 C192 1.476 . S
C202 N197 1.318 . S
C202 C201 1.396 . S
H203 C198 0.929 . S
O204 Mn180 2.385 1_455 S
O204 C182 1.234 . S
O205 Mn180 2.209 . S
O205 Mn181 2.215 1_655 S
O205 C182 1.283 1_655 S
O206 Mn180 2.094 1_455 S
O206 C184 1.240 . S
O207 Mn181 2.117 . S
O207 C184 1.264 . S
C208 C201 1.403 . S
C208 C209 1.399 . S
C208 H214 0.929 . S
C209 C189 1.449 . S
C209 C208 1.399 . S
C209 H215 0.930 . S
H210 C190 0.931 . S
H211 C191 0.930 1_655 S
H212 C199 0.931 . S
H213 C200 0.929 . S
H214 C208 0.929 . S
H215 C209 0.930 . S
Mn216 O221 2.095 . S
Mn216 O231 2.162 . S
Mn216 O232 2.297 . S
Mn216 O240 2.385 . S
Mn216 O241 2.209 . S
Mn216 O242 2.094 . S
Mn217 O222 2.121 . S
Mn217 N224 2.257 . S
Mn217 N233 2.282 . S
Mn217 O241 2.215 . S
Mn217 O243 2.117 . S
C218 O240 1.234 . S
C218 O241 1.283 . S
C219 O231 1.281 . S
C219 O232 1.236 . S
C220 O242 1.240 . S
C220 O243 1.264 . S
O221 Mn216 2.095 . S
O221 C230 1.250 . S
O222 Mn217 2.121 . S
O222 C230 1.258 . S
C223 N224 1.326 1_556 S
C223 C227 1.460 . S
C223 H229 0.929 . S
N224 Mn217 2.257 . S
N224 C223 1.326 1_554 S
N224 C228 1.362 . S
C225 C226 1.258 . S
C225 C228 1.431 1_556 S
C225 C245 1.449 . S
C226 C225 1.258 . S
C226 C227 1.477 . S
C226 H246 0.931 . S
C227 C223 1.460 . S
C227 C226 1.477 . S
C227 H247 0.930 . S
C228 N224 1.362 . S
C228 C225 1.431 1_554 S
C228 C238 1.476 . S
H229 C223 0.929 . S
C230 O221 1.250 . S
C230 O222 1.258 . S
O231 Mn216 2.162 . S
O231 C219 1.281 . S
O232 Mn216 2.297 . S
O232 C219 1.236 . S
N233 Mn217 2.282 . S
N233 C234 1.328 . S
N233 C238 1.318 . S
C234 N233 1.328 . S
C234 C235 1.457 . S
C234 H239 0.929 . S
C235 C234 1.457 . S
C235 C236 1.291 . S
C235 H248 0.931 . S
C236 C235 1.291 . S
C236 C237 1.373 . S
C236 H249 0.929 . S
C237 C236 1.373 . S
C237 C238 1.396 . S
C237 C244 1.403 1_554 S
C238 C228 1.476 . S
C238 N233 1.318 . S
C238 C237 1.396 . S
H239 C234 0.929 . S
O240 Mn216 2.385 . S
O240 C218 1.234 . S
O241 Mn216 2.209 . S
O241 Mn217 2.215 . S
O241 C218 1.283 . S
O242 Mn216 2.094 . S
O242 C220 1.240 . S
O243 Mn217 2.117 . S
O243 C220 1.264 . S
C244 C237 1.403 1_556 S
C244 C245 1.399 . S
C244 H250 0.929 . S
C245 C225 1.449 . S
C245 C244 1.399 . S
C245 H251 0.930 . S
H246 C226 0.931 . S
H247 C227 0.930 . S
H248 C235 0.931 . S
H249 C236 0.929 . S
H250 C244 0.929 . S
H251 C245 0.930 . S
Mn252 O257 2.095 . S
Mn252 O267 2.162 . S
Mn252 O268 2.297 . S
Mn252 O276 2.385 . S
Mn252 O277 2.209 . S
Mn252 O278 2.094 . S
Mn253 O258 2.121 . S
Mn253 N260 2.257 . S
Mn253 N269 2.282 . S
Mn253 O277 2.215 . S
Mn253 O279 2.117 . S
C254 O276 1.234 . S
C254 O277 1.283 . S
C255 O267 1.281 . S
C255 O268 1.236 . S
C256 O278 1.240 . S
C256 O279 1.264 . S
O257 Mn252 2.095 . S
O257 C266 1.250 . S
O258 Mn253 2.121 . S
O258 C266 1.258 . S
C259 N260 1.326 1_554 S
C259 C263 1.460 . S
C259 H265 0.929 . S
N260 Mn253 2.257 . S
N260 C259 1.326 1_556 S
N260 C264 1.362 . S
C261 C262 1.258 . S
C261 C264 1.431 1_554 S
C261 C281 1.449 . S
C262 C261 1.258 . S
C262 C263 1.477 . S
C262 H282 0.931 . S
C263 C259 1.460 . S
C263 C262 1.477 . S
C263 H283 0.930 . S
C264 N260 1.362 . S
C264 C261 1.431 1_556 S
C264 C274 1.476 . S
H265 C259 0.929 . S
C266 O257 1.250 . S
C266 O258 1.258 . S
O267 Mn252 2.162 . S
O267 C255 1.281 . S
O268 Mn252 2.297 . S
O268 C255 1.236 . S
N269 Mn253 2.282 . S
N269 C270 1.328 . S
N269 C274 1.318 . S
C270 N269 1.328 . S
C270 C271 1.457 . S
C270 H275 0.929 . S
C271 C270 1.457 . S
C271 C272 1.291 . S
C271 H284 0.931 . S
C272 C271 1.291 . S
C272 C273 1.373 . S
C272 H285 0.929 . S
C273 C272 1.373 . S
C273 C274 1.396 . S
C273 C280 1.403 1_556 S
C274 C264 1.476 . S
C274 N269 1.318 . S
C274 C273 1.396 . S
H275 C270 0.929 . S
O276 Mn252 2.385 . S
O276 C254 1.234 . S
O277 Mn252 2.209 . S
O277 Mn253 2.215 . S
O277 C254 1.283 . S
O278 Mn252 2.094 . S
O278 C256 1.240 . S
O279 Mn253 2.117 . S
O279 C256 1.264 . S
C280 C273 1.403 1_554 S
C280 C281 1.399 . S
C280 H286 0.929 . S
C281 C261 1.449 . S
C281 C280 1.399 . S
C281 H287 0.930 . S
H282 C262 0.931 . S
H283 C263 0.930 . S
H284 C271 0.931 . S
H285 C272 0.929 . S
H286 C280 0.929 . S
H287 C281 0.930 . S
C288 C289 1.391 . S
C288 C290 1.394 . S
C288 H304 0.931 . S
C289 C288 1.391 . S
C289 C293 1.376 . S
C290 C288 1.394 . S
C290 C291 1.369 . S
C290 C294 1.531 1_556 S
C291 C290 1.369 . S
C291 C292 1.410 . S
C291 C299 1.503 1_556 S
C292 C291 1.410 . S
C292 C293 1.392 . S
C292 C295 1.511 . S
C293 C289 1.376 . S
C293 C292 1.392 . S
C293 H305 0.929 . S
C294 C290 1.531 1_554 S
C294 H306 0.960 . S
C294 H307 0.962 . S
C294 H308 0.960 . S
C295 C292 1.511 . S
C295 H309 0.961 . S
C295 H310 0.961 . S
C295 H311 0.961 . S
C296 C297 1.370 . S
C296 C298 1.363 . S
C296 H312 0.931 . S
C297 C296 1.370 . S
C297 C301 1.408 . S
C298 C296 1.363 . S
C298 C299 1.370 . S
C298 C302 1.524 1_554 S
C299 C291 1.503 1_554 S
C299 C298 1.370 . S
C299 C300 1.403 . S
C300 C299 1.403 . S
C300 C301 1.404 . S
C300 C303 1.539 . S
C301 C297 1.408 . S
C301 C300 1.404 . S
C301 H313 0.930 . S
C302 C298 1.524 1_556 S
C302 H314 0.956 . S
C302 H315 0.961 . S
C302 H316 0.961 . S
C303 C300 1.539 . S
C303 H317 0.958 . S
C303 H318 0.961 . S
C303 H319 0.960 . S
H304 C288 0.931 . S
H305 C293 0.929 . S
H306 C294 0.960 . S
H307 C294 0.962 . S
H308 C294 0.960 . S
H309 C295 0.961 . S
H310 C295 0.961 . S
H311 C295 0.961 . S
H312 C296 0.931 . S
H313 C301 0.930 . S
H314 C302 0.956 . S
H315 C302 0.961 . S
H316 C302 0.961 . S
H317 C303 0.958 . S
H318 C303 0.961 . S
H319 C303 0.960 . S
C320 C321 1.391 . S
C320 C322 1.394 . S
C320 H336 0.931 . S
C321 C320 1.391 . S
C321 C325 1.376 . S
C322 C320 1.394 . S
C322 C323 1.369 . S
C322 C326 1.531 . S
C323 C322 1.369 . S
C323 C324 1.410 . S
C323 C331 1.503 . S
C324 C323 1.410 . S
C324 C325 1.392 . S
C324 C327 1.511 . S
C325 C321 1.376 . S
C325 C324 1.392 . S
C325 H337 0.929 . S
C326 C322 1.531 . S
C326 H338 0.960 . S
C326 H339 0.962 . S
C326 H340 0.960 . S
C327 C324 1.511 . S
C327 H341 0.961 . S
C327 H342 0.961 . S
C327 H343 0.961 . S
C328 C329 1.370 . S
C328 C330 1.363 . S
C328 H344 0.931 1_554 S
C329 C328 1.370 . S
C329 C333 1.408 . S
C330 C328 1.363 . S
C330 C331 1.370 . S
C330 C334 1.524 . S
C331 C323 1.503 . S
C331 C330 1.370 . S
C331 C332 1.403 . S
C332 C331 1.403 . S
C332 C333 1.404 . S
C332 C335 1.539 . S
C333 C329 1.408 . S
C333 C332 1.404 . S
C333 H345 0.930 . S
C334 C330 1.524 . S
C334 H346 0.956 . S
C334 H347 0.961 . S
C334 H348 0.961 . S
C335 C332 1.539 . S
C335 H349 0.958 . S
C335 H350 0.961 . S
C335 H351 0.960 . S
H336 C320 0.931 . S
H337 C325 0.929 . S
H338 C326 0.960 . S
H339 C326 0.962 . S
H340 C326 0.960 . S
H341 C327 0.961 . S
H342 C327 0.961 . S
H343 C327 0.961 . S
H344 C328 0.931 1_556 S
H345 C333 0.930 . S
H346 C334 0.956 . S
H347 C334 0.961 . S
H348 C334 0.961 . S
H349 C335 0.958 . S
H350 C335 0.961 . S
H351 C335 0.960 . S
C352 C353 1.391 . S
C352 C354 1.394 . S
C352 H368 0.931 . S
C353 C352 1.391 . S
C353 C357 1.376 . S
C354 C352 1.394 . S
C354 C355 1.369 . S
C354 C358 1.531 . S
C355 C354 1.369 . S
C355 C356 1.410 . S
C355 C363 1.503 . S
C356 C355 1.410 . S
C356 C357 1.392 . S
C356 C359 1.511 . S
C357 C353 1.376 . S
C357 C356 1.392 . S
C357 H369 0.929 . S
C358 C354 1.531 . S
C358 H370 0.960 . S
C358 H371 0.962 . S
C358 H372 0.960 . S
C359 C356 1.511 . S
C359 H373 0.961 . S
C359 H374 0.961 . S
C359 H375 0.961 . S
C360 C361 1.370 . S
C360 C362 1.363 . S
C360 H376 0.931 . S
C361 C360 1.370 . S
C361 C365 1.408 . S
C362 C360 1.363 . S
C362 C363 1.370 . S
C362 C366 1.524 . S
C363 C355 1.503 . S
C363 C362 1.370 . S
C363 C364 1.403 . S
C364 C363 1.403 . S
C364 C365 1.404 . S
C364 C367 1.539 . S
C365 C361 1.408 . S
C365 C364 1.404 . S
C365 H377 0.930 . S
C366 C362 1.524 . S
C366 H378 0.956 . S
C366 H379 0.961 . S
C366 H380 0.961 . S
C367 C364 1.539 . S
C367 H381 0.958 . S
C367 H382 0.961 . S
C367 H383 0.960 . S
H368 C352 0.931 . S
H369 C357 0.929 . S
H370 C358 0.960 . S
H371 C358 0.962 . S
H372 C358 0.960 . S
H373 C359 0.961 . S
H374 C359 0.961 . S
H375 C359 0.961 . S
H376 C360 0.931 . S
H377 C365 0.930 . S
H378 C366 0.956 . S
H379 C366 0.961 . S
H380 C366 0.961 . S
H381 C367 0.958 . S
H382 C367 0.961 . S
H383 C367 0.960 . S
C384 C385 1.391 . S
C384 C386 1.394 . S
C384 H400 0.931 . S
C385 C384 1.391 . S
C385 C389 1.376 . S
C386 C384 1.394 . S
C386 C387 1.369 . S
C386 C390 1.531 . S
C387 C386 1.369 . S
C387 C388 1.410 . S
C387 C395 1.503 . S
C388 C387 1.410 . S
C388 C389 1.392 . S
C388 C391 1.511 . S
C389 C385 1.376 . S
C389 C388 1.392 . S
C389 H401 0.929 . S
C390 C386 1.531 . S
C390 H402 0.960 . S
C390 H403 0.962 . S
C390 H404 0.960 . S
C391 C388 1.511 . S
C391 H405 0.961 . S
C391 H406 0.961 . S
C391 H407 0.961 . S
C392 C393 1.370 . S
C392 C394 1.363 . S
C392 H408 0.931 . S
C393 C392 1.370 . S
C393 C397 1.408 . S
C394 C392 1.363 . S
C394 C395 1.370 . S
C394 C398 1.524 . S
C395 C387 1.503 . S
C395 C394 1.370 . S
C395 C396 1.403 . S
C396 C395 1.403 . S
C396 C397 1.404 . S
C396 C399 1.539 . S
C397 C393 1.408 . S
C397 C396 1.404 . S
C397 H409 0.930 . S
C398 C394 1.524 . S
C398 H410 0.956 . S
C398 H411 0.961 . S
C398 H412 0.961 . S
C399 C396 1.539 . S
C399 H413 0.958 . S
C399 H414 0.961 . S
C399 H415 0.960 . S
H400 C384 0.931 . S
H401 C389 0.929 . S
H402 C390 0.960 . S
H403 C390 0.962 . S
H404 C390 0.960 . S
H405 C391 0.961 . S
H406 C391 0.961 . S
H407 C391 0.961 . S
H408 C392 0.931 . S
H409 C397 0.930 . S
H410 C398 0.956 . S
H411 C398 0.961 . S
H412 C398 0.961 . S
H413 C399 0.958 . S
H414 C399 0.961 . S
H415 C399 0.960 . S
C416 C417 1.391 . S
C416 C418 1.394 . S
C416 H432 0.931 . S
C417 C416 1.391 . S
C417 C421 1.376 . S
C418 C416 1.394 . S
C418 C419 1.369 . S
C418 C422 1.531 . S
C419 C418 1.369 . S
C419 C420 1.410 . S
C419 C427 1.503 . S
C420 C419 1.410 . S
C420 C421 1.392 . S
C420 C423 1.511 . S
C421 C417 1.376 . S
C421 C420 1.392 . S
C421 H433 0.929 . S
C422 C418 1.531 . S
C422 H434 0.960 . S
C422 H435 0.962 . S
C422 H436 0.960 . S
C423 C420 1.511 . S
C423 H437 0.961 . S
C423 H438 0.961 . S
C423 H439 0.961 . S
C424 C425 1.370 . S
C424 C426 1.363 . S
C424 H440 0.931 . S
C425 C424 1.370 . S
C425 C429 1.408 . S
C426 C424 1.363 . S
C426 C427 1.370 . S
C426 C430 1.524 . S
C427 C419 1.503 . S
C427 C426 1.370 . S
C427 C428 1.403 . S
C428 C427 1.403 . S
C428 C429 1.404 . S
C428 C431 1.539 . S
C429 C425 1.408 . S
C429 C428 1.404 . S
C429 H441 0.930 . S
C430 C426 1.524 . S
C430 H442 0.956 . S
C430 H443 0.961 . S
C430 H444 0.961 . S
C431 C428 1.539 . S
C431 H445 0.958 . S
C431 H446 0.961 . S
C431 H447 0.960 . S
H432 C416 0.931 . S
H433 C421 0.929 . S
H434 C422 0.960 . S
H435 C422 0.962 . S
H436 C422 0.960 . S
H437 C423 0.961 . S
H438 C423 0.961 . S
H439 C423 0.961 . S
H440 C424 0.931 . S
H441 C429 0.930 . S
H442 C430 0.956 . S
H443 C430 0.961 . S
H444 C430 0.961 . S
H445 C431 0.958 . S
H446 C431 0.961 . S
H447 C431 0.960 . S
C448 C449 1.391 . S
C448 C450 1.394 . S
C448 H464 0.931 . S
C449 C448 1.391 . S
C449 C453 1.376 . S
C450 C448 1.394 . S
C450 C451 1.369 . S
C450 C454 1.531 . S
C451 C450 1.369 . S
C451 C452 1.410 . S
C451 C459 1.503 . S
C452 C451 1.410 . S
C452 C453 1.392 . S
C452 C455 1.511 . S
C453 C449 1.376 . S
C453 C452 1.392 . S
C453 H465 0.929 . S
C454 C450 1.531 . S
C454 H466 0.960 . S
C454 H467 0.962 . S
C454 H468 0.960 . S
C455 C452 1.511 . S
C455 H469 0.961 . S
C455 H470 0.961 . S
C455 H471 0.961 . S
C456 C457 1.370 . S
C456 C458 1.363 . S
C456 H472 0.931 . S
C457 C456 1.370 . S
C457 C461 1.408 . S
C458 C456 1.363 . S
C458 C459 1.370 . S
C458 C462 1.524 . S
C459 C451 1.503 . S
C459 C458 1.370 . S
C459 C460 1.403 . S
C460 C459 1.403 . S
C460 C461 1.404 . S
C460 C463 1.539 . S
C461 C457 1.408 . S
C461 C460 1.404 . S
C461 H473 0.930 . S
C462 C458 1.524 . S
C462 H474 0.956 . S
C462 H475 0.961 . S
C462 H476 0.961 . S
C463 C460 1.539 . S
C463 H477 0.958 . S
C463 H478 0.961 . S
C463 H479 0.960 . S
H464 C448 0.931 . S
H465 C453 0.929 . S
H466 C454 0.960 . S
H467 C454 0.962 . S
H468 C454 0.960 . S
H469 C455 0.961 . S
H470 C455 0.961 . S
H471 C455 0.961 . S
H472 C456 0.931 . S
H473 C461 0.930 . S
H474 C462 0.956 . S
H475 C462 0.961 . S
H476 C462 0.961 . S
H477 C463 0.958 . S
H478 C463 0.961 . S
H479 C463 0.960 . S
C480 C481 1.391 . S
C480 C482 1.394 . S
C480 H496 0.931 . S
C481 C480 1.391 . S
C481 C485 1.376 . S
C482 C480 1.394 . S
C482 C483 1.369 . S
C482 C486 1.531 . S
C483 C482 1.369 . S
C483 C484 1.410 . S
C483 C491 1.503 1_554 S
C484 C483 1.410 . S
C484 C485 1.392 . S
C484 C487 1.511 1_554 S
C485 C481 1.376 . S
C485 C484 1.392 . S
C485 H497 0.929 . S
C486 C482 1.531 . S
C486 H498 0.960 . S
C486 H499 0.962 . S
C486 H500 0.960 . S
C487 C484 1.511 1_556 S
C487 H501 0.961 . S
C487 H502 0.961 . S
C487 H503 0.961 . S
C488 C489 1.370 . S
C488 C490 1.363 . S
C488 H504 0.931 . S
C489 C488 1.370 . S
C489 C493 1.408 . S
C490 C488 1.363 . S
C490 C491 1.370 . S
C490 C494 1.524 . S
C491 C483 1.503 1_556 S
C491 C490 1.370 . S
C491 C492 1.403 . S
C492 C491 1.403 . S
C492 C493 1.404 . S
C492 C495 1.539 1_556 S
C493 C489 1.408 . S
C493 C492 1.404 . S
C493 H505 0.930 . S
C494 C490 1.524 . S
C494 H506 0.956 . S
C494 H507 0.961 . S
C494 H508 0.961 . S
C495 C492 1.539 1_554 S
C495 H509 0.958 . S
C495 H510 0.961 . S
C495 H511 0.960 . S
H496 C480 0.931 . S
H497 C485 0.929 . S
H498 C486 0.960 . S
H499 C486 0.962 . S
H500 C486 0.960 . S
H501 C487 0.961 . S
H502 C487 0.961 . S
H503 C487 0.961 . S
H504 C488 0.931 . S
H505 C493 0.930 . S
H506 C494 0.956 . S
H507 C494 0.961 . S
H508 C494 0.961 . S
H509 C495 0.958 . S
H510 C495 0.961 . S
H511 C495 0.960 . S
C512 C513 1.391 . S
C512 C514 1.394 . S
C512 H528 0.931 1_554 S
C513 C512 1.391 . S
C513 C517 1.376 . S
C514 C512 1.394 . S
C514 C515 1.369 . S
C514 C518 1.531 . S
C515 C514 1.369 . S
C515 C516 1.410 . S
C515 C523 1.503 . S
C516 C515 1.410 . S
C516 C517 1.392 . S
C516 C519 1.511 . S
C517 C513 1.376 . S
C517 C516 1.392 . S
C517 H529 0.929 . S
C518 C514 1.531 . S
C518 H530 0.960 . S
C518 H531 0.962 . S
C518 H532 0.960 . S
C519 C516 1.511 . S
C519 H533 0.961 . S
C519 H534 0.961 . S
C519 H535 0.961 . S
C520 C521 1.370 . S
C520 C522 1.363 . S
C520 H536 0.931 . S
C521 C520 1.370 . S
C521 C525 1.408 . S
C522 C520 1.363 . S
C522 C523 1.370 . S
C522 C526 1.524 . S
C523 C515 1.503 . S
C523 C522 1.370 . S
C523 C524 1.403 . S
C524 C523 1.403 . S
C524 C525 1.404 . S
C524 C527 1.539 . S
C525 C521 1.408 . S
C525 C524 1.404 . S
C525 H537 0.930 . S
C526 C522 1.524 . S
C526 H538 0.956 . S
C526 H539 0.961 . S
C526 H540 0.961 . S
C527 C524 1.539 . S
C527 H541 0.958 . S
C527 H542 0.961 . S
C527 H543 0.960 . S
H528 C512 0.931 1_556 S
H529 C517 0.929 . S
H530 C518 0.960 . S
H531 C518 0.962 . S
H532 C518 0.960 . S
H533 C519 0.961 . S
H534 C519 0.961 . S
H535 C519 0.961 . S
H536 C520 0.931 . S
H537 C525 0.930 . S
H538 C526 0.956 . S
H539 C526 0.961 . S
H540 C526 0.961 . S
H541 C527 0.958 . S
H542 C527 0.961 . S
H543 C527 0.960 . S
C544 C545 1.391 . S
C544 C546 1.394 . S
C544 H560 0.931 . S
C545 C544 1.391 . S
C545 C549 1.376 . S
C546 C544 1.394 . S
C546 C547 1.369 . S
C546 C550 1.531 . S
C547 C546 1.369 . S
C547 C548 1.410 . S
C547 C555 1.503 . S
C548 C547 1.410 . S
C548 C549 1.392 . S
C548 C551 1.511 . S
C549 C545 1.376 . S
C549 C548 1.392 . S
C549 H561 0.929 . S
C550 C546 1.531 . S
C550 H562 0.960 . S
C550 H563 0.962 . S
C550 H564 0.960 . S
C551 C548 1.511 . S
C551 H565 0.961 . S
C551 H566 0.961 . S
C551 H567 0.961 . S
C552 C553 1.370 . S
C552 C554 1.363 . S
C552 H568 0.931 . S
C553 C552 1.370 . S
C553 C557 1.408 . S
C554 C552 1.363 . S
C554 C555 1.370 . S
C554 C558 1.524 . S
C555 C547 1.503 . S
C555 C554 1.370 . S
C555 C556 1.403 . S
C556 C555 1.403 . S
C556 C557 1.404 . S
C556 C559 1.539 . S
C557 C553 1.408 . S
C557 C556 1.404 . S
C557 H569 0.930 . S
C558 C554 1.524 . S
C558 H570 0.956 . S
C558 H571 0.961 . S
C558 H572 0.961 . S
C559 C556 1.539 . S
C559 H573 0.958 . S
C559 H574 0.961 . S
C559 H575 0.960 . S
H560 C544 0.931 . S
H561 C549 0.929 . S
H562 C550 0.960 . S
H563 C550 0.962 . S
H564 C550 0.960 . S
H565 C551 0.961 . S
H566 C551 0.961 . S
H567 C551 0.961 . S
H568 C552 0.931 . S
H569 C557 0.930 . S
H570 C558 0.956 . S
H571 C558 0.961 . S
H572 C558 0.961 . S
H573 C559 0.958 . S
H574 C559 0.961 . S
H575 C559 0.960 . S
C576 C577 1.391 . S
C576 C578 1.394 . S
C576 H592 0.931 . S
C577 C576 1.391 . S
C577 C581 1.376 . S
C578 C576 1.394 . S
C578 C579 1.369 . S
C578 C582 1.531 . S
C579 C578 1.369 . S
C579 C580 1.410 . S
C579 C587 1.503 . S
C580 C579 1.410 . S
C580 C581 1.392 . S
C580 C583 1.511 . S
C581 C577 1.376 . S
C581 C580 1.392 . S
C581 H593 0.929 . S
C582 C578 1.531 . S
C582 H594 0.960 . S
C582 H595 0.962 . S
C582 H596 0.960 . S
C583 C580 1.511 . S
C583 H597 0.961 . S
C583 H598 0.961 . S
C583 H599 0.961 . S
C584 C585 1.370 . S
C584 C586 1.363 . S
C584 H600 0.931 . S
C585 C584 1.370 . S
C585 C589 1.408 . S
C586 C584 1.363 . S
C586 C587 1.370 . S
C586 C590 1.524 . S
C587 C579 1.503 . S
C587 C586 1.370 . S
C587 C588 1.403 . S
C588 C587 1.403 . S
C588 C589 1.404 . S
C588 C591 1.539 . S
C589 C585 1.408 . S
C589 C588 1.404 . S
C589 H601 0.930 . S
C590 C586 1.524 . S
C590 H602 0.956 . S
C590 H603 0.961 . S
C590 H604 0.961 . S
C591 C588 1.539 . S
C591 H605 0.958 . S
C591 H606 0.961 . S
C591 H607 0.960 . S
H592 C576 0.931 . S
H593 C581 0.929 . S
H594 C582 0.960 . S
H595 C582 0.962 . S
H596 C582 0.960 . S
H597 C583 0.961 . S
H598 C583 0.961 . S
H599 C583 0.961 . S
H600 C584 0.931 . S
H601 C589 0.930 . S
H602 C590 0.956 . S
H603 C590 0.961 . S
H604 C590 0.961 . S
H605 C591 0.958 . S
H606 C591 0.961 . S
H607 C591 0.960 . S
C608 C609 1.391 1_556 S
C608 C610 1.394 . S
C608 H624 0.931 . S
C609 C608 1.391 1_554 S
C609 C613 1.376 . S
C610 C608 1.394 . S
C610 C611 1.369 . S
C610 C614 1.531 . S
C611 C610 1.369 . S
C611 C612 1.410 1_556 S
C611 C619 1.503 . S
C612 C611 1.410 1_554 S
C612 C613 1.392 . S
C612 C615 1.511 . S
C613 C609 1.376 . S
C613 C612 1.392 . S
C613 H625 0.929 . S
C614 C610 1.531 . S
C614 H626 0.960 . S
C614 H627 0.962 . S
C614 H628 0.960 . S
C615 C612 1.511 . S
C615 H629 0.961 . S
C615 H630 0.961 . S
C615 H631 0.961 . S
C616 C617 1.370 1_554 S
C616 C618 1.363 . S
C616 H632 0.931 . S
C617 C616 1.370 1_556 S
C617 C621 1.408 . S
C618 C616 1.363 . S
C618 C619 1.370 1_554 S
C618 C622 1.524 . S
C619 C611 1.503 . S
C619 C618 1.370 1_556 S
C619 C620 1.403 . S
C620 C619 1.403 . S
C620 C621 1.404 . S
C620 C623 1.539 . S
C621 C617 1.408 . S
C621 C620 1.404 . S
C621 H633 0.930 . S
C622 C618 1.524 . S
C622 H634 0.956 . S
C622 H635 0.961 . S
C622 H636 0.961 . S
C623 C620 1.539 . S
C623 H637 0.958 . S
C623 H638 0.961 . S
C623 H639 0.960 . S
H624 C608 0.931 . S
H625 C613 0.929 . S
H626 C614 0.960 . S
H627 C614 0.962 . S
H628 C614 0.960 . S
H629 C615 0.961 . S
H630 C615 0.961 . S
H631 C615 0.961 . S
H632 C616 0.931 . S
H633 C621 0.930 . S
H634 C622 0.956 . S
H635 C622 0.961 . S
H636 C622 0.961 . S
H637 C623 0.958 . S
H638 C623 0.961 . S
H639 C623 0.960 . S
C640 C641 1.391 . S
C640 C642 1.394 . S
C640 H656 0.931 . S
C641 C640 1.391 . S
C641 C645 1.376 . S
C642 C640 1.394 . S
C642 C643 1.369 . S
C642 C646 1.531 . S
C643 C642 1.369 . S
C643 C644 1.410 . S
C643 C651 1.503 . S
C644 C643 1.410 . S
C644 C645 1.392 . S
C644 C647 1.511 . S
C645 C641 1.376 . S
C645 C644 1.392 . S
C645 H657 0.929 . S
C646 C642 1.531 . S
C646 H658 0.960 . S
C646 H659 0.962 . S
C646 H660 0.960 . S
C647 C644 1.511 . S
C647 H661 0.961 . S
C647 H662 0.961 . S
C647 H663 0.961 . S
C648 C649 1.370 . S
C648 C650 1.363 . S
C648 H664 0.931 . S
C649 C648 1.370 . S
C649 C653 1.408 . S
C650 C648 1.363 . S
C650 C651 1.370 . S
C650 C654 1.524 . S
C651 C643 1.503 . S
C651 C650 1.370 . S
C651 C652 1.403 . S
C652 C651 1.403 . S
C652 C653 1.404 . S
C652 C655 1.539 . S
C653 C649 1.408 . S
C653 C652 1.404 . S
C653 H665 0.930 . S
C654 C650 1.524 . S
C654 H666 0.956 . S
C654 H667 0.961 . S
C654 H668 0.961 . S
C655 C652 1.539 . S
C655 H669 0.958 . S
C655 H670 0.961 . S
C655 H671 0.960 . S
H656 C640 0.931 . S
H657 C645 0.929 . S
H658 C646 0.960 . S
H659 C646 0.962 . S
H660 C646 0.960 . S
H661 C647 0.961 . S
H662 C647 0.961 . S
H663 C647 0.961 . S
H664 C648 0.931 . S
H665 C653 0.930 . S
H666 C654 0.956 . S
H667 C654 0.961 . S
H668 C654 0.961 . S
H669 C655 0.958 . S
H670 C655 0.961 . S
H671 C655 0.960 . S
C672 C673 1.391 . S
C672 C674 1.394 . S
C672 H688 0.931 . S
C673 C672 1.391 . S
C673 C677 1.376 . S
C674 C672 1.394 . S
C674 C675 1.369 . S
C674 C678 1.531 . S
C675 C674 1.369 . S
C675 C676 1.410 . S
C675 C683 1.503 . S
C676 C675 1.410 . S
C676 C677 1.392 . S
C676 C679 1.511 . S
C677 C673 1.376 . S
C677 C676 1.392 . S
C677 H689 0.929 . S
C678 C674 1.531 . S
C678 H690 0.960 . S
C678 H691 0.962 . S
C678 H692 0.960 . S
C679 C676 1.511 . S
C679 H693 0.961 . S
C679 H694 0.961 . S
C679 H695 0.961 . S
C680 C681 1.370 . S
C680 C682 1.363 . S
C680 H696 0.931 . S
C681 C680 1.370 . S
C681 C685 1.408 . S
C682 C680 1.363 . S
C682 C683 1.370 . S
C682 C686 1.524 . S
C683 C675 1.503 . S
C683 C682 1.370 . S
C683 C684 1.403 . S
C684 C683 1.403 . S
C684 C685 1.404 . S
C684 C687 1.539 . S
C685 C681 1.408 . S
C685 C684 1.404 . S
C685 H697 0.930 . S
C686 C682 1.524 . S
C686 H698 0.956 . S
C686 H699 0.961 . S
C686 H700 0.961 . S
C687 C684 1.539 . S
C687 H701 0.958 . S
C687 H702 0.961 . S
C687 H703 0.960 . S
H688 C672 0.931 . S
H689 C677 0.929 . S
H690 C678 0.960 . S
H691 C678 0.962 . S
H692 C678 0.960 . S
H693 C679 0.961 . S
H694 C679 0.961 . S
H695 C679 0.961 . S
H696 C680 0.931 . S
H697 C685 0.930 . S
H698 C686 0.956 . S
H699 C686 0.961 . S
H700 C686 0.961 . S
H701 C687 0.958 . S
H702 C687 0.961 . S
H703 C687 0.960 . S
C704 C705 1.391 1_554 S
C704 C706 1.394 . S
C704 H720 0.931 . S
C705 C704 1.391 1_556 S
C705 C709 1.376 . S
C706 C704 1.394 . S
C706 C707 1.369 . S
C706 C710 1.531 . S
C707 C706 1.369 . S
C707 C708 1.410 1_554 S
C707 C715 1.503 . S
C708 C707 1.410 1_556 S
C708 C709 1.392 . S
C708 C711 1.511 . S
C709 C705 1.376 . S
C709 C708 1.392 . S
C709 H721 0.929 . S
C710 C706 1.531 . S
C710 H722 0.960 . S
C710 H723 0.962 . S
C710 H724 0.960 . S
C711 C708 1.511 . S
C711 H725 0.961 . S
C711 H726 0.961 . S
C711 H727 0.961 . S
C712 C713 1.370 1_556 S
C712 C714 1.363 . S
C712 H728 0.931 . S
C713 C712 1.370 1_554 S
C713 C717 1.408 . S
C714 C712 1.363 . S
C714 C715 1.370 1_556 S
C714 C718 1.524 . S
C715 C707 1.503 . S
C715 C714 1.370 1_554 S
C715 C716 1.403 . S
C716 C715 1.403 . S
C716 C717 1.404 . S
C716 C719 1.539 . S
C717 C713 1.408 . S
C717 C716 1.404 . S
C717 H729 0.930 . S
C718 C714 1.524 . S
C718 H730 0.956 . S
C718 H731 0.961 . S
C718 H732 0.961 . S
C719 C716 1.539 . S
C719 H733 0.958 . S
C719 H734 0.961 . S
C719 H735 0.960 . S
H720 C704 0.931 . S
H721 C709 0.929 . S
H722 C710 0.960 . S
H723 C710 0.962 . S
H724 C710 0.960 . S
H725 C711 0.961 . S
H726 C711 0.961 . S
H727 C711 0.961 . S
H728 C712 0.931 . S
H729 C717 0.930 . S
H730 C718 0.956 . S
H731 C718 0.961 . S
H732 C718 0.961 . S
H733 C719 0.958 . S
H734 C719 0.961 . S
H735 C719 0.960 . S
C736 C737 1.391 . S
C736 C738 1.394 . S
C736 H752 0.931 . S
C737 C736 1.391 . S
C737 C741 1.376 . S
C738 C736 1.394 . S
C738 C739 1.369 . S
C738 C742 1.531 . S
C739 C738 1.369 . S
C739 C740 1.410 . S
C739 C747 1.503 . S
C740 C739 1.410 . S
C740 C741 1.392 . S
C740 C743 1.511 . S
C741 C737 1.376 . S
C741 C740 1.392 . S
C741 H753 0.929 . S
C742 C738 1.531 . S
C742 H754 0.960 . S
C742 H755 0.962 . S
C742 H756 0.960 . S
C743 C740 1.511 . S
C743 H757 0.961 . S
C743 H758 0.961 . S
C743 H759 0.961 . S
C744 C745 1.370 . S
C744 C746 1.363 . S
C744 H760 0.931 . S
C745 C744 1.370 . S
C745 C749 1.408 . S
C746 C744 1.363 . S
C746 C747 1.370 . S
C746 C750 1.524 . S
C747 C739 1.503 . S
C747 C746 1.370 . S
C747 C748 1.403 . S
C748 C747 1.403 . S
C748 C749 1.404 . S
C748 C751 1.539 . S
C749 C745 1.408 . S
C749 C748 1.404 . S
C749 H761 0.930 . S
C750 C746 1.524 . S
C750 H762 0.956 . S
C750 H763 0.961 . S
C750 H764 0.961 . S
C751 C748 1.539 . S
C751 H765 0.958 . S
C751 H766 0.961 . S
C751 H767 0.960 . S
H752 C736 0.931 . S
H753 C741 0.929 . S
H754 C742 0.960 . S
H755 C742 0.962 . S
H756 C742 0.960 . S
H757 C743 0.961 . S
H758 C743 0.961 . S
H759 C743 0.961 . S
H760 C744 0.931 . S
H761 C749 0.930 . S
H762 C750 0.956 . S
H763 C750 0.961 . S
H764 C750 0.961 . S
H765 C751 0.958 . S
H766 C751 0.961 . S
H767 C751 0.960 . S
C768 C769 1.391 . S
C768 C770 1.394 . S
C768 H784 0.931 . S
C769 C768 1.391 . S
C769 C773 1.376 . S
C770 C768 1.394 . S
C770 C771 1.369 . S
C770 C774 1.531 . S
C771 C770 1.369 . S
C771 C772 1.410 . S
C771 C779 1.503 . S
C772 C771 1.410 . S
C772 C773 1.392 . S
C772 C775 1.511 . S
C773 C769 1.376 . S
C773 C772 1.392 . S
C773 H785 0.929 . S
C774 C770 1.531 . S
C774 H786 0.960 . S
C774 H787 0.962 . S
C774 H788 0.960 . S
C775 C772 1.511 . S
C775 H789 0.961 . S
C775 H790 0.961 . S
C775 H791 0.961 . S
C776 C777 1.370 . S
C776 C778 1.363 . S
C776 H792 0.931 . S
C777 C776 1.370 . S
C777 C781 1.408 . S
C778 C776 1.363 . S
C778 C779 1.370 . S
C778 C782 1.524 . S
C779 C771 1.503 . S
C779 C778 1.370 . S
C779 C780 1.403 . S
C780 C779 1.403 . S
C780 C781 1.404 . S
C780 C783 1.539 . S
C781 C777 1.408 . S
C781 C780 1.404 . S
C781 H793 0.930 . S
C782 C778 1.524 . S
C782 H794 0.956 . S
C782 H795 0.961 . S
C782 H796 0.961 . S
C783 C780 1.539 . S
C783 H797 0.958 . S
C783 H798 0.961 . S
C783 H799 0.960 . S
H784 C768 0.931 . S
H785 C773 0.929 . S
H786 C774 0.960 . S
H787 C774 0.962 . S
H788 C774 0.960 . S
H789 C775 0.961 . S
H790 C775 0.961 . S
H791 C775 0.961 . S
H792 C776 0.931 . S
H793 C781 0.930 . S
H794 C782 0.956 . S
H795 C782 0.961 . S
H796 C782 0.961 . S
H797 C783 0.958 . S
H798 C783 0.961 . S
H799 C783 0.960 . S
C289 C50 1.359 . S
C297 C14 1.364 . S
C321 C39 1.434 . S
C329 C75 1.432 . S
C353 C122 1.370 . S
C361 C86 1.341 . S
C385 C111 1.433 . S
C393 C3 1.432 . S
C417 C158 1.379 . S
C425 C194 1.359 . S
C449 C183 1.434 . S
C457 C219 1.432 . S
C481 C230 1.341 . S
C489 C266 1.334 . S
C513 C147 1.428 . S
C521 C255 1.434 . S
C545 C4 1.464 . S
C553 C256 1.444 . S
C577 C146 1.445 . S
C585 C38 1.424 . S
C609 C184 1.446 . S
C617 C76 1.442 . S
C641 C110 1.416 . S
C649 C218 1.436 . S
C673 C74 1.416 . S
C681 C254 1.436 . S
C705 C148 1.450 . S
C713 C112 1.441 . S
C737 C182 1.445 . S
C745 C2 1.424 . S
C769 C40 1.431 . S
C777 C220 1.448 . S
