# Generated by pormake.
# Topology sml, (6)-cn, num edge types: 1
# Building blocks:
#     Node 0, Type 0, BuildingBlock: PAMTOO_clean_sbu_0, # of connection points: 6
#     Node 1, Type 0, BuildingBlock: PAMTOO_clean_sbu_0, # of connection points: 6
#     Node 2, Type 0, BuildingBlock: PAMTOO_clean_sbu_0, # of connection points: 6
#     Node 3, Type 0, BuildingBlock: PAMTOO_clean_sbu_0, # of connection points: 6
#     Node 4, Type 0, BuildingBlock: PAMTOO_clean_sbu_0, # of connection points: 6
#     Node 5, Type 0, BuildingBlock: PAMTOO_clean_sbu_0, # of connection points: 6
#     Edge 6, Type (0, 0), BuildingBlock: MIFKUJ_clean_linker_0, # of connection points: 2
#     Edge 7, Type (0, 0), BuildingBlock: MIFKUJ_clean_linker_0, # of connection points: 2
#     Edge 8, Type (0, 0), BuildingBlock: MIFKUJ_clean_linker_0, # of connection points: 2
#     Edge 9, Type (0, 0), BuildingBlock: MIFKUJ_clean_linker_0, # of connection points: 2
#     Edge 10, Type (0, 0), BuildingBlock: MIFKUJ_clean_linker_0, # of connection points: 2
#     Edge 11, Type (0, 0), BuildingBlock: MIFKUJ_clean_linker_0, # of connection points: 2
#     Edge 12, Type (0, 0), BuildingBlock: MIFKUJ_clean_linker_0, # of connection points: 2
#     Edge 13, Type (0, 0), BuildingBlock: MIFKUJ_clean_linker_0, # of connection points: 2
#     Edge 14, Type (0, 0), BuildingBlock: MIFKUJ_clean_linker_0, # of connection points: 2
#     Edge 15, Type (0, 0), BuildingBlock: MIFKUJ_clean_linker_0, # of connection points: 2
#     Edge 16, Type (0, 0), BuildingBlock: MIFKUJ_clean_linker_0, # of connection points: 2
#     Edge 17, Type (0, 0), BuildingBlock: MIFKUJ_clean_linker_0, # of connection points: 2
#     Edge 18, Type (0, 0), BuildingBlock: MIFKUJ_clean_linker_0, # of connection points: 2
#     Edge 19, Type (0, 0), BuildingBlock: MIFKUJ_clean_linker_0, # of connection points: 2
#     Edge 20, Type (0, 0), BuildingBlock: MIFKUJ_clean_linker_0, # of connection points: 2
#     Edge 21, Type (0, 0), BuildingBlock: MIFKUJ_clean_linker_0, # of connection points: 2
#     Edge 22, Type (0, 0), BuildingBlock: MIFKUJ_clean_linker_0, # of connection points: 2
#     Edge 23, Type (0, 0), BuildingBlock: MIFKUJ_clean_linker_0, # of connection points: 2
# Relax obj value: 0.154
# Max RMSD: 0.211
# Mean RMSD: 0.211
data_MOF--net-sml--node1-PAMTOO_clean_sbu_0--edge1-MIFKUJ_clean_linker_0
_symmetry_space_group_name_H-M    P1
_symmetry_Int_Tables_number       1
_symmetry_cell_setting            triclinic
loop_
_symmetry_equiv_pos_as_xyz
'x, y, z'
_cell_length_a     45.762929
_cell_length_b     45.746654
_cell_length_c     29.667521
_cell_angle_alpha  90.226387
_cell_angle_beta   90.176095
_cell_angle_gamma 119.92706
loop_
_atom_site_label
_atom_site_type_symbol
_atom_site_fract_x
_atom_site_fract_y
_atom_site_fract_z
_atom_type_partial_charge
Dy0 Dy 0.16563 0.40725 0.95684 0.0
Dy1 Dy 0.2063 0.4029 0.04874 0.0
C2 C 0.19258 0.35503 0.96413 0.0
O3 O 0.12695 0.38617 0.01069 0.0
O4 O 0.15196 0.36381 0.05533 0.0
O5 O 0.12554 0.38335 0.90746 0.0
O6 O 0.16247 0.43645 0.90201 0.0
O7 O 0.18514 0.43533 0.0683 0.0
O8 O 0.17745 0.45278 0.99858 0.0
O9 O 0.24475 0.44482 1.00646 0.0
O10 O 0.21904 0.42699 0.93739 0.0
O11 O 0.24248 0.42722 0.10256 0.0
O12 O 0.21437 0.37274 0.09782 0.0
C13 C 0.12552 0.366 0.04303 0.0
O14 O 0.16735 0.3594 0.95225 0.0
O15 O 0.21454 0.37374 0.99521 0.0
C16 C 0.142 0.40584 0.83436 0.0
C17 C 0.15238 0.4001 0.74159 0.0
C18 C 0.16912 0.39164 0.77455 0.0
C19 C 0.16401 0.39455 0.8205 0.0
C20 C 0.12512 0.41408 0.8018 0.0
C21 C 0.13023 0.41125 0.75588 0.0
C22 C 0.13745 0.4103 0.88251 0.0
C23 C 0.18067 0.45604 0.04265 0.0
C24 C 0.24574 0.44591 0.96218 0.0
C25 C 0.22676 0.39702 0.17058 0.0
C26 C 0.21294 0.39511 0.26374 0.0
C27 C 0.19324 0.40038 0.23169 0.0
C28 C 0.20012 0.40137 0.1856 0.0
C29 C 0.2461 0.39121 0.20209 0.0
C30 C 0.23925 0.39019 0.24818 0.0
C31 C 0.23474 0.39886 0.12228 0.0
H32 H 0.18604 0.38261 0.76488 0.0
H33 H 0.17739 0.38819 0.84524 0.0
H34 H 0.10826 0.4231 0.8119 0.0
H35 H 0.11734 0.41851 0.73158 0.0
H36 H 0.17288 0.40438 0.24213 0.0
H37 H 0.18483 0.40581 0.16169 0.0
H38 H 0.26661 0.38755 0.19106 0.0
H39 H 0.25449 0.38527 0.27155 0.0
Dy40 Dy 0.7408 0.16655 0.29666 0.0
Dy41 Dy 0.78189 0.21062 0.38871 0.0
C42 C 0.82159 0.20711 0.30252 0.0
O43 O 0.73123 0.12822 0.34895 0.0
O44 O 0.77728 0.15987 0.39472 0.0
O45 O 0.72904 0.12723 0.24742 0.0
O46 O 0.70539 0.15805 0.24286 0.0
O47 O 0.72834 0.17865 0.40778 0.0
O48 O 0.70392 0.17353 0.33862 0.0
O49 O 0.77191 0.24499 0.34563 0.0
O50 O 0.76774 0.22027 0.27666 0.0
O51 O 0.78722 0.24543 0.44157 0.0
O52 O 0.82075 0.22473 0.43975 0.0
C53 C 0.75206 0.13075 0.3812 0.0
O54 O 0.79458 0.17916 0.28936 0.0
O55 O 0.82089 0.22583 0.33571 0.0
C56 C 0.71849 0.14113 0.1743 0.0
C57 C 0.73286 0.15382 0.08147 0.0
C58 C 0.75776 0.15654 0.1119 0.0
C59 C 0.75076 0.15052 0.15789 0.0
C60 C 0.69348 0.13798 0.144 0.0
C61 C 0.70059 0.14434 0.0981 0.0
C62 C 0.71074 0.13573 0.22286 0.0
C63 C 0.70237 0.17299 0.38289 0.0
C64 C 0.77235 0.24607 0.3013 0.0
C65 C 0.80401 0.2336 0.51178 0.0
C66 C 0.7936 0.21942 0.60499 0.0
C67 C 0.76666 0.21409 0.57665 0.0
C68 C 0.77176 0.22096 0.53054 0.0
C69 C 0.83089 0.2387 0.53992 0.0
C70 C 0.82573 0.23156 0.58603 0.0
C71 C 0.81 0.24167 0.46322 0.0
H72 H 0.78287 0.16392 0.10035 0.0
H73 H 0.77067 0.15352 0.18061 0.0
H74 H 0.66845 0.13084 0.15595 0.0
H75 H 0.6807 0.14157 0.07554 0.0
H76 H 0.74152 0.20433 0.59008 0.0
H77 H 0.75044 0.21645 0.50967 0.0
H78 H 0.85596 0.2484 0.52625 0.0
H79 H 0.84704 0.23617 0.60702 0.0
Dy80 Dy 0.55551 0.75613 0.63867 0.0
Dy81 Dy 0.55876 0.79936 0.73114 0.0
C82 C 0.60627 0.83535 0.64683 0.0
O83 O 0.58262 0.74235 0.6889 0.0
O84 O 0.59981 0.78681 0.73905 0.0
O85 O 0.5785 0.74038 0.58759 0.0
O86 O 0.52506 0.72343 0.58448 0.0
O87 O 0.53411 0.74569 0.75133 0.0
O88 O 0.5122 0.72146 0.68259 0.0
O89 O 0.5142 0.7909 0.6895 0.0
O90 O 0.53606 0.79038 0.6207 0.0
O91 O 0.53174 0.8079 0.7843 0.0
O92 O 0.58612 0.83863 0.78068 0.0
C93 C 0.60131 0.76076 0.72289 0.0
O94 O 0.60228 0.80613 0.63371 0.0
O95 O 0.58782 0.83787 0.67882 0.0
C96 C 0.55393 0.73397 0.51565 0.0
C97 C 0.55793 0.74961 0.42306 0.0
C98 C 0.55666 0.77137 0.45574 0.0
C99 C 0.55473 0.76364 0.50163 0.0
C100 C 0.55565 0.71247 0.48341 0.0
C101 C 0.55769 0.72021 0.43757 0.0
C102 C 0.55087 0.72501 0.56364 0.0
C103 C 0.51282 0.71985 0.72682 0.0
C104 C 0.51504 0.79475 0.64564 0.0
C105 C 0.56153 0.82543 0.8529 0.0
C106 C 0.5636 0.81472 0.94628 0.0
C107 C 0.56526 0.79259 0.91458 0.0
C108 C 0.56423 0.79791 0.8683 0.0
C109 C 0.56012 0.84768 0.88421 0.0
C110 C 0.56118 0.84243 0.93048 0.0
C111 C 0.5592 0.83058 0.80441 0.0
H112 H 0.55647 0.79405 0.44586 0.0
H113 H 0.5535 0.78061 0.52615 0.0
H114 H 0.55528 0.68958 0.49368 0.0
H115 H 0.55928 0.7032 0.4135 0.0
H116 H 0.56757 0.77127 0.92551 0.0
H117 H 0.56536 0.78045 0.84452 0.0
H118 H 0.55785 0.86895 0.87287 0.0
H119 H 0.5594 0.8597 0.95387 0.0
Dy120 Dy 0.79041 0.56011 0.96388 0.0
Dy121 Dy 0.74854 0.56203 0.05513 0.0
C122 C 0.75589 0.60664 0.96904 0.0
O123 O 0.82965 0.58862 0.01612 0.0
O124 O 0.80033 0.60691 0.05964 0.0
O125 O 0.82974 0.58476 0.91436 0.0
O126 O 0.79613 0.53072 0.91109 0.0
O127 O 0.7798 0.5397 0.07537 0.0
O128 O 0.78125 0.51648 1.00766 0.0
O129 O 0.71179 0.51839 0.01212 0.0
O130 O 0.73685 0.53697 0.94335 0.0
O131 O 0.71409 0.53419 0.10857 0.0
O132 O 0.7364 0.5885 0.10579 0.0
C133 C 0.82873 0.60875 0.04712 0.0
O134 O 0.7813 0.60337 0.95465 0.0
O135 O 0.7367 0.58919 1.00284 0.0
C136 C 0.81389 0.55947 0.84221 0.0
C137 C 0.80184 0.56164 0.7491 0.0
C138 C 0.78456 0.56991 0.78135 0.0
C139 C 0.79044 0.56871 0.82748 0.0
C140 C 0.8313 0.5514 0.81031 0.0
C141 C 0.82534 0.55244 0.7642 0.0
C142 C 0.81958 0.55723 0.89066 0.0
C143 C 0.78377 0.51771 0.05184 0.0
C144 C 0.71058 0.51726 0.96777 0.0
C145 C 0.72724 0.5636 0.17784 0.0
C146 C 0.74176 0.56606 0.27094 0.0
C147 C 0.75903 0.55734 0.23927 0.0
C148 C 0.75193 0.55625 0.19316 0.0
C149 C 0.71023 0.57265 0.20916 0.0
C150 C 0.71745 0.57395 0.25527 0.0
C151 C 0.71869 0.56132 0.12951 0.0
H152 H 0.76603 0.5767 0.77095 0.0
H153 H 0.77651 0.57471 0.8517 0.0
H154 H 0.84942 0.54415 0.82107 0.0
H155 H 0.83937 0.54632 0.74032 0.0
H156 H 0.77819 0.55156 0.2501 0.0
H157 H 0.76554 0.54943 0.16948 0.0
H158 H 0.6911 0.5784 0.19798 0.0
H159 H 0.70347 0.58043 0.27875 0.0
Dy160 Dy 0.21232 0.79354 0.30151 0.0
Dy161 Dy 0.16738 0.75278 0.39162 0.0
C162 C 0.13269 0.75903 0.30258 0.0
O163 O 0.20481 0.83076 0.34168 0.0
O164 O 0.1983 0.80675 0.41133 0.0
O165 O 0.22077 0.82784 0.2469 0.0
O166 O 0.24981 0.80236 0.25078 0.0
O167 O 0.21945 0.76125 0.40173 0.0
O168 O 0.25086 0.80688 0.35581 0.0
O169 O 0.15694 0.71353 0.33889 0.0
O170 O 0.20802 0.74294 0.30385 0.0
O171 O 0.1516 0.71288 0.44053 0.0
O172 O 0.13282 0.7479 0.4445 0.0
C173 C 0.20557 0.83284 0.38587 0.0
O174 O 0.15876 0.76235 0.28015 0.0
O175 O 0.13363 0.76218 0.34663 0.0
C176 C 0.23366 0.81061 0.17826 0.0
C177 C 0.21893 0.7932 0.08608 0.0
C178 C 0.193 0.78056 0.11825 0.0
C179 C 0.20031 0.78903 0.1639 0.0
C180 C 0.25964 0.82289 0.14646 0.0
C181 C 0.25239 0.81422 0.10082 0.0
C182 C 0.24148 0.82063 0.22611 0.0
C183 C 0.24846 0.78715 0.38949 0.0
C184 C 0.1804 0.71456 0.31249 0.0
C185 C 0.14202 0.72788 0.51319 0.0
C186 C 0.15482 0.73695 0.60708 0.0
C187 C 0.18157 0.75112 0.57607 0.0
C188 C 0.17522 0.74673 0.52956 0.0
C189 C 0.11533 0.7136 0.54389 0.0
C190 C 0.12162 0.71809 0.59034 0.0
C191 C 0.1348 0.72355 0.46435 0.0
H192 H 0.16704 0.76396 0.10817 0.0
H193 H 0.17986 0.77894 0.18794 0.0
H194 H 0.28553 0.83949 0.15685 0.0
H195 H 0.27292 0.82465 0.07691 0.0
H196 H 0.20739 0.76613 0.58771 0.0
H197 H 0.19619 0.75822 0.50636 0.0
H198 H 0.08954 0.69901 0.53191 0.0
H199 H 0.10046 0.7065 0.61318 0.0
Dy200 Dy 0.39661 0.22299 0.62451 0.0
Dy201 Dy 0.40073 0.18306 0.71611 0.0
C202 C 0.35388 0.1423 0.63212 0.0
O203 O 0.366 0.23118 0.67571 0.0
O204 O 0.35451 0.18731 0.7241 0.0
O205 O 0.36941 0.23434 0.57428 0.0
O206 O 0.42381 0.25807 0.5713 0.0
O207 O 0.41906 0.23623 0.73586 0.0
O208 O 0.43983 0.26031 0.66751 0.0
O209 O 0.4443 0.19293 0.6716 0.0
O210 O 0.42063 0.19338 0.60382 0.0
O211 O 0.432 0.18083 0.76895 0.0
O212 O 0.37868 0.14385 0.76638 0.0
C213 C 0.34878 0.21096 0.70884 0.0
O214 O 0.35436 0.16982 0.61829 0.0
O215 O 0.37375 0.14276 0.66457 0.0
C216 C 0.3944 0.24444 0.50235 0.0
C217 C 0.39332 0.23011 0.40944 0.0
C218 C 0.39173 0.20703 0.44199 0.0
C219 C 0.3923 0.21416 0.48804 0.0
C220 C 0.3956 0.26732 0.47017 0.0
C221 C 0.39504 0.26024 0.42416 0.0
C222 C 0.39641 0.25283 0.55061 0.0
C223 C 0.439 0.26245 0.71161 0.0
C224 C 0.44265 0.18957 0.62748 0.0
C225 C 0.404 0.16156 0.8382 0.0
C226 C 0.39996 0.17175 0.93147 0.0
C227 C 0.40212 0.1957 0.89995 0.0
C228 C 0.40406 0.19062 0.85375 0.0
C229 C 0.40179 0.13761 0.86934 0.0
C230 C 0.39977 0.14262 0.91553 0.0
C231 C 0.40661 0.15621 0.78975 0.0
H232 H 0.39075 0.18377 0.43192 0.0
H233 H 0.39149 0.19624 0.5125 0.0
H234 H 0.39718 0.29079 0.48064 0.0
H235 H 0.39576 0.27832 0.40008 0.0
H236 H 0.40197 0.21823 0.91093 0.0
H237 H 0.40566 0.20938 0.83016 0.0
H238 H 0.40183 0.11511 0.85793 0.0
H239 H 0.39863 0.12391 0.93881 0.0
H240 H 0.3079 0.23217 0.67272 0.0
H241 H 0.27073 0.24717 0.71335 0.0
H242 H 0.29911 0.22065 0.83912 0.0
H243 H 0.33456 0.20367 0.79822 0.0
H244 H 0.2375 0.20463 0.84488 0.0
H245 H 0.33738 0.30431 0.7973 0.0
H246 H 0.37997 0.34325 0.74364 0.0
H247 H 0.30375 0.35362 0.67263 0.0
H248 H 0.26061 0.31434 0.72554 0.0
H249 H 0.22929 0.32601 0.99069 0.0
H250 H 0.24499 0.29153 0.94465 0.0
H251 H 0.18587 0.29564 0.83395 0.0
H252 H 0.16955 0.32965 0.87994 0.0
H253 H 0.25669 0.31972 0.81671 0.0
H254 H 0.15868 0.22365 0.87798 0.0
H255 H 0.12159 0.18875 0.93932 0.0
H256 H 0.202 0.17699 0.99428 0.0
H257 H 0.23975 0.21223 0.93364 0.0
C258 C 0.30573 0.22912 0.70897 0.0
C259 C 0.32413 0.21702 0.73248 0.0
C260 C 0.28467 0.23783 0.73218 0.0
C261 C 0.28277 0.23586 0.77945 0.0
C262 C 0.30015 0.22244 0.8027 0.0
C263 C 0.32046 0.21282 0.77935 0.0
C264 C 0.26441 0.24961 0.80494 0.0
C265 C 0.24186 0.22986 0.83883 0.0
C266 C 0.26983 0.28247 0.79691 0.0
C267 C 0.29571 0.30607 0.76503 0.0
C268 C 0.32967 0.3147 0.77003 0.0
C269 C 0.35391 0.33685 0.73978 0.0
C270 C 0.34455 0.35082 0.70466 0.0
C271 C 0.31094 0.34272 0.69979 0.0
C272 C 0.28659 0.32052 0.72989 0.0
C273 C 0.21913 0.31903 0.95684 0.0
C274 C 0.19834 0.33061 0.9388 0.0
C275 C 0.22797 0.29923 0.93071 0.0
C276 C 0.21646 0.29107 0.88609 0.0
C277 C 0.19479 0.30161 0.86847 0.0
C278 C 0.18548 0.32094 0.89481 0.0
C279 C 0.23011 0.27482 0.85653 0.0
C280 C 0.25196 0.29426 0.82209 0.0
C281 C 0.22487 0.24221 0.86509 0.0
C282 C 0.20212 0.2208 0.90141 0.0
C283 C 0.16854 0.21385 0.90334 0.0
C284 C 0.14738 0.19396 0.93795 0.0
C285 C 0.15945 0.18071 0.97072 0.0
C286 C 0.19269 0.18727 0.96889 0.0
C287 C 0.21396 0.20717 0.93436 0.0
H288 H 0.14303 0.16532 0.9975 0.0
H289 H 0.36335 0.36798 0.68129 0.0
H290 H 0.06533 0.36362 0.02813 0.0
H291 H 0.0135 0.33294 0.07143 0.0
H292 H 0.06111 0.29211 0.15612 0.0
H293 H 0.11323 0.32306 0.11351 0.0
H294 H 0.97112 0.26863 0.08717 0.0
H295 H 0.03571 0.2891 0.26285 0.0
H296 H 0.08633 0.33234 0.30317 0.0
H297 H 0.09047 0.40878 0.2154 0.0
H298 H 0.04014 0.36611 0.17474 0.0
H299 H 0.83947 0.17229 0.2436 0.0
H300 H 0.89091 0.19514 0.19835 0.0
H301 H 0.92452 0.29401 0.25518 0.0
H302 H 0.87436 0.27122 0.30152 0.0
H303 H 0.97447 0.28597 0.25263 0.0
H304 H 0.88813 0.26772 0.14594 0.0
H305 H 0.83662 0.23813 0.09926 0.0
H306 H 0.87203 0.17483 0.04328 0.0
H307 H 0.92349 0.20364 0.09016 0.0
C308 C 0.06478 0.34799 0.05581 0.0
C309 C 0.0935 0.34592 0.06745 0.0
C310 C 0.03507 0.33037 0.08041 0.0
C311 C 0.03356 0.31047 0.11717 0.0
C312 C 0.06189 0.30766 0.1282 0.0
C313 C 0.09162 0.3253 0.10366 0.0
C314 C 0.00264 0.29346 0.14478 0.0
C315 C 0.97174 0.27217 0.12342 0.0
C316 C 0.00349 0.29884 0.19181 0.0
C317 C 0.03446 0.32434 0.21541 0.0
C318 C 0.04759 0.31513 0.25209 0.0
C319 C 0.07628 0.33955 0.27497 0.0
C320 C 0.09182 0.37329 0.26168 0.0
C321 C 0.07875 0.38265 0.22544 0.0
C322 C 0.05021 0.35834 0.20237 0.0
C323 C 0.85804 0.19883 0.24663 0.0
C324 C 0.85299 0.21989 0.27637 0.0
C325 C 0.88728 0.21191 0.22052 0.0
C326 C 0.91152 0.24639 0.22301 0.0
C327 C 0.9064 0.26728 0.25285 0.0
C328 C 0.87763 0.25418 0.27941 0.0
C329 C 0.94246 0.26113 0.19509 0.0
C330 C 0.97361 0.28187 0.21648 0.0
C331 C 0.9415 0.25649 0.14773 0.0
C332 C 0.9095 0.23759 0.12196 0.0
C333 C 0.88469 0.24713 0.12423 0.0
C334 C 0.85557 0.2306 0.09758 0.0
C335 C 0.85115 0.20472 0.06823 0.0
C336 C 0.87554 0.19493 0.06598 0.0
C337 C 0.90465 0.2113 0.09262 0.0
H338 H 0.82892 0.19236 0.04703 0.0
H339 H 0.11383 0.39223 0.27962 0.0
H340 H 0.76171 0.12559 0.47036 0.0
H341 H 0.74382 0.0741 0.51316 0.0
H342 H 0.70989 0.01546 0.39008 0.0
H343 H 0.7257 0.06699 0.34763 0.0
H344 H 0.66488 -0.01413 0.44655 0.0
H345 H 0.78288 0.02874 0.45527 0.0
H346 H 0.84285 0.07042 0.46806 0.0
H347 H 0.82266 0.07912 0.60723 0.0
H348 H 0.76246 0.03781 0.59517 0.0
H349 H 0.63272 0.83767 0.56386 0.0
H350 H 0.66526 0.88739 0.51723 0.0
H351 H 0.66468 0.95114 0.62421 0.0
H352 H 0.63163 0.90141 0.6712 0.0
H353 H 0.73037 0.97433 0.57199 0.0
H354 H 0.60942 0.93664 0.55346 0.0
H355 H 0.55084 0.89206 0.53817 0.0
H356 H 0.58121 0.86935 0.41206 0.0
H357 H 0.64002 0.91406 0.42662 0.0
C358 C 0.75092 0.10173 0.45242 0.0
C359 C 0.74512 0.10013 0.40578 0.0
C360 C 0.74089 0.07227 0.47686 0.0
C361 C 0.72601 0.04077 0.45487 0.0
C362 C 0.72127 0.03938 0.4079 0.0
C363 C 0.73039 0.06878 0.38363 0.0
C364 C 0.71293 0.00921 0.48135 0.0
C365 C 0.67966 0.98327 0.47324 0.0
C366 C 0.73184 0.00557 0.51667 0.0
C367 C 0.76808 0.03032 0.52421 0.0
C368 C 0.79118 0.03969 0.48854 0.0
C369 C 0.82523 0.06324 0.49568 0.0
C370 C 0.83655 0.07746 0.53841 0.0
C371 C 0.81385 0.06809 0.57414 0.0
C372 C 0.77977 0.04457 0.56719 0.0
C373 C 0.64003 0.86229 0.57791 0.0
C374 C 0.62951 0.86566 0.62118 0.0
C375 C 0.65858 0.8906 0.55116 0.0
C376 C 0.66721 0.92271 0.56743 0.0
C377 C 0.65828 0.92644 0.61135 0.0
C378 C 0.6393 0.89806 0.63797 0.0
C379 C 0.68275 0.95198 0.53713 0.0
C380 C 0.71621 0.9772 0.54467 0.0
C381 C 0.66445 0.95469 0.5006 0.0
C382 C 0.62905 0.92847 0.49125 0.0
C383 C 0.60358 0.92207 0.52254 0.0
C384 C 0.57035 0.89681 0.51399 0.0
C385 C 0.56231 0.87774 0.47427 0.0
C386 C 0.58747 0.88412 0.44283 0.0
C387 C 0.62072 0.90951 0.45113 0.0
H388 H 0.53659 0.85809 0.46781 0.0
H389 H 0.86292 0.09569 0.54386 0.0
H390 H 0.63084 0.72703 0.68703 0.0
H391 H 0.66312 0.70572 0.72705 0.0
H392 H 0.65062 0.74732 0.85165 0.0
H393 H 0.61987 0.77011 0.8113 0.0
H394 H 0.70978 0.75545 0.8513 0.0
H395 H 0.60056 0.66181 0.82008 0.0
H396 H 0.55128 0.62239 0.7745 0.0
H397 H 0.6127 0.59241 0.70063 0.0
H398 H 0.66255 0.63221 0.74519 0.0
H399 H 0.72128 0.63679 0.9999 0.0
H400 H 0.70149 0.66879 0.95581 0.0
H401 H 0.74881 0.65678 0.8372 0.0
H402 H 0.76938 0.62545 0.88115 0.0
H403 H 0.67485 0.63445 0.83325 0.0
H404 H 0.78403 0.72906 0.87321 0.0
H405 H 0.82894 0.76552 0.92688 0.0
H406 H 0.76056 0.78934 0.9946 0.0
H407 H 0.71508 0.7526 0.94171 0.0
C408 C 0.63532 0.73187 0.72288 0.0
C409 C 0.62283 0.75008 0.74616 0.0
C410 C 0.65357 0.71954 0.74577 0.0
C411 C 0.65866 0.72426 0.79257 0.0
C412 C 0.647 0.74331 0.81557 0.0
C413 C 0.62943 0.75632 0.7925 0.0
C414 C 0.67537 0.70867 0.81779 0.0
C415 C 0.70189 0.72892 0.84754 0.0
C416 C 0.66529 0.67406 0.8128 0.0
C417 C 0.6354 0.65035 0.78558 0.0
C418 C 0.60365 0.64709 0.79379 0.0
C419 C 0.57559 0.62462 0.76817 0.0
C420 C 0.57887 0.60498 0.73455 0.0
C421 C 0.61022 0.60774 0.72655 0.0
C422 C 0.63839 0.63027 0.75195 0.0
C423 C 0.72786 0.6414 0.96458 0.0
C424 C 0.74683 0.62868 0.9439 0.0
C425 C 0.71664 0.6597 0.93957 0.0
C426 C 0.72382 0.66505 0.89347 0.0
C427 C 0.74322 0.65292 0.87286 0.0
C428 C 0.75502 0.63519 0.89803 0.0
C429 C 0.70905 0.6813 0.86621 0.0
C430 C 0.6828 0.66105 0.8364 0.0
C431 C 0.71869 0.71557 0.87212 0.0
C432 C 0.74608 0.73783 0.90374 0.0
C433 C 0.77848 0.74182 0.89979 0.0
C434 C 0.80406 0.7626 0.93002 0.0
C435 C 0.79759 0.77967 0.9642 0.0
C436 C 0.76553 0.77608 0.96814 0.0
C437 C 0.73986 0.75531 0.93801 0.0
H438 H 0.81742 0.79574 0.98757 0.0
H439 H 0.55714 0.58757 0.71476 0.0
H440 H 0.07659 0.76034 0.33218 0.0
H441 H 0.02428 0.74319 0.29009 0.0
H442 H 0.06522 0.71794 0.17518 0.0
H443 H 0.11758 0.7359 0.21624 0.0
H444 H 0.03343 0.74851 0.1477 0.0
H445 H 0.00899 0.65774 0.25158 0.0
H446 H 0.00415 0.63245 0.32642 0.0
H447 H 0.93383 0.66366 0.36706 0.0
H448 H 0.93861 0.68953 0.2926 0.0
H449 H 0.89288 0.62304 0.02792 0.0
H450 H 0.94382 0.6573 0.07236 0.0
H451 H 0.88696 0.68166 0.16578 0.0
H452 H 0.83568 0.64717 0.12172 0.0
H453 H 0.92443 0.65898 0.20815 0.0
H454 H 0.94326 0.7419 0.09738 0.0
H455 H 0.94756 0.76427 0.02072 0.0
H456 H 0.02823 0.74504 0.99096 0.0
H457 H 0.0241 0.72209 0.06722 0.0
C458 C 0.07441 0.75124 0.29789 0.0
C459 C 0.10117 0.7494 0.27759 0.0
C460 C 0.04451 0.74138 0.27392 0.0
C461 C 0.04069 0.72893 0.22961 0.0
C462 C 0.0676 0.72758 0.20922 0.0
C463 C 0.09753 0.73778 0.23286 0.0
C464 C 0.00855 0.71642 0.2044 0.0
C465 C 0.00962 0.72882 0.16084 0.0
C466 C 0.97729 0.69141 0.22201 0.0
C467 C 0.97449 0.67594 0.26677 0.0
C468 C -0.00728 0.65946 0.27662 0.0
C469 C -0.01005 0.64498 0.31894 0.0
C470 C 0.96879 0.64656 0.35153 0.0
C471 C 0.95028 0.66254 0.34183 0.0
C472 C 0.953 0.67711 0.29958 0.0
C473 C 0.89122 0.636 0.05758 0.0
C474 C 0.86017 0.63227 0.07131 0.0
C475 C 0.92042 0.65574 0.08282 0.0
C476 C 0.91919 0.67221 0.12217 0.0
C477 C 0.88843 0.66921 0.13543 0.0
C478 C 0.85919 0.64957 0.1101 0.0
C479 C 0.94956 0.6904 0.15104 0.0
C480 C 0.94813 0.67909 0.19531 0.0
C481 C -0.01946 0.71612 0.13387 0.0
C482 C -0.01679 0.73007 0.08799 0.0
C483 C 0.96176 0.74221 0.0744 0.0
C484 C 0.96419 0.75504 0.03102 0.0
C485 C -0.01189 0.75603 1.00096 0.0
C486 C 0.00971 0.74426 0.01427 0.0
C487 C 0.00736 0.73138 0.0576 0.0
H488 H -0.01004 0.76596 0.96739 0.0
H489 H 0.96666 0.63531 0.38426 0.0
H490 H 0.35198 0.0822 0.64336 0.0
H491 H 0.32326 0.03204 0.59583 0.0
H492 H 0.28039 0.07996 0.51581 0.0
H493 H 0.30912 0.13057 0.56326 0.0
H494 H 0.23471 0.01144 0.53284 0.0
H495 H 0.34354 0.07953 0.47338 0.0
H496 H 0.40536 0.11583 0.4736 0.0
H497 H 0.41637 0.03363 0.52252 0.0
H498 H 0.35449 -0.00312 0.52332 0.0
H499 H 0.20372 0.88789 0.35332 0.0
H500 H 0.22564 0.94313 0.39059 0.0
H501 H 0.25819 0.90766 0.50396 0.0
H502 H 0.23572 0.85247 0.46784 0.0
H503 H 0.30843 0.97471 0.4591 0.0
H504 H 0.19576 0.90967 0.5249 0.0
H505 H 0.13382 0.8755 0.51905 0.0
H506 H 0.13094 0.9561 0.44927 0.0
H507 H 0.19298 -0.00944 0.45414 0.0
C508 C 0.33612 0.08204 0.61608 0.0
C509 C 0.33309 0.11053 0.60691 0.0
C510 C 0.31982 0.05337 0.58886 0.0
C511 C 0.30016 0.05259 0.55202 0.0
C512 C 0.29559 0.08023 0.54405 0.0
C513 C 0.31208 0.10909 0.57116 0.0
C514 C 0.28592 0.0234 0.52087 0.0
C515 C 0.25081 0.0037 0.51607 0.0
C516 C 0.30704 0.01356 0.49876 0.0
C517 C 0.34432 0.03549 0.49868 0.0
C518 C 0.3591 0.06924 0.4846 0.0
C519 C 0.39415 0.08988 0.48445 0.0
C520 C 0.41474 0.07701 0.49798 0.0
C521 C 0.40034 0.04351 0.51195 0.0
C522 C 0.36527 0.02275 0.51222 0.0
C523 C 0.21542 0.89192 0.38626 0.0
C524 C 0.21788 0.86592 0.40783 0.0
C525 C 0.22786 0.92335 0.40741 0.0
C526 C 0.24347 0.92923 0.44985 0.0
C527 C 0.2462 0.90344 0.47117 0.0
C528 C 0.23317 0.87192 0.4506 0.0
C529 C 0.25731 0.96229 0.47241 0.0
C530 C 0.29241 0.98275 0.47542 0.0
C531 C 0.23622 0.97313 0.49204 0.0
C532 C 0.19899 0.95248 0.48933 0.0
C533 C 0.18194 0.91995 0.50787 0.0
C534 C 0.14682 0.90057 0.50484 0.0
C535 C 0.12846 0.91357 0.48365 0.0
C536 C 0.1452 0.94603 0.46558 0.0
C537 C 0.18033 0.9655 0.46848 0.0
H538 H 0.10127 0.89853 0.48134 0.0
H539 H 0.44185 0.09295 0.49734 0.0
H540 H 0.21211 0.41689 0.69959 0.0
H541 H 0.22199 0.41462 0.61908 0.0
H542 H 0.11656 0.37733 0.59166 0.0
H543 H 0.10622 0.37826 0.67229 0.0
H544 H 0.13942 0.34393 0.54216 0.0
H545 H 0.17655 0.46071 0.57451 0.0
H546 H 0.20959 0.51486 0.61487 0.0
H547 H 0.30161 0.51946 0.57345 0.0
H548 H 0.2691 0.46511 0.53331 0.0
H549 H 0.15197 0.37095 0.30651 0.0
H550 H 0.14155 0.37231 0.3868 0.0
H551 H 0.24822 0.41822 0.41388 0.0
H552 H 0.25903 0.4195 0.33333 0.0
H553 H 0.22458 0.44705 0.46407 0.0
H554 H 0.18879 0.33077 0.43257 0.0
H555 H 0.15667 0.27631 0.39261 0.0
H556 H 0.06366 0.27001 0.4329 0.0
H557 H 0.09524 0.32464 0.47268 0.0
C558 C 0.1909 0.40777 0.67656 0.0
C559 C 0.15837 0.39791 0.69256 0.0
C560 C 0.19667 0.40683 0.6304 0.0
C561 C 0.17012 0.3963 0.59913 0.0
C562 C 0.1375 0.38574 0.61505 0.0
C563 C 0.13169 0.38658 0.6612 0.0
C564 C 0.17632 0.39655 0.54983 0.0
C565 C 0.15776 0.36657 0.52497 0.0
C566 C 0.20082 0.42586 0.52748 0.0
C567 C 0.22038 0.4587 0.55125 0.0
C568 C 0.20383 0.47317 0.57426 0.0
C569 C 0.22246 0.50391 0.59705 0.0
C570 C 0.25767 0.52055 0.59681 0.0
C571 C 0.27433 0.50653 0.57365 0.0
C572 C 0.25582 0.47577 0.55083 0.0
C573 C 0.1733 0.3819 0.32937 0.0
C574 C 0.20636 0.39508 0.31309 0.0
C575 C 0.16724 0.38214 0.37554 0.0
C576 C 0.19401 0.39475 0.4068 0.0
C577 C 0.22705 0.40815 0.39065 0.0
C578 C 0.23317 0.40846 0.34443 0.0
C579 C 0.18777 0.39434 0.45622 0.0
C580 C 0.20628 0.42433 0.48116 0.0
C581 C 0.16341 0.36496 0.47869 0.0
C582 C 0.14438 0.33192 0.45527 0.0
C583 C 0.16149 0.31785 0.4327 0.0
C584 C 0.14338 0.28695 0.41011 0.0
C585 C 0.10815 0.26975 0.41013 0.0
C586 C 0.09095 0.28337 0.43288 0.0
C587 C 0.10894 0.31428 0.4555 0.0
H588 H 0.09418 0.24585 0.39259 0.0
H589 H 0.27205 0.54434 0.6145 0.0
H590 H 0.71454 0.18966 0.02597 0.0
H591 H 0.72587 0.20061 0.94555 0.0
H592 H 0.77999 0.14583 0.94598 0.0
H593 H 0.76875 0.13481 0.02662 0.0
H594 H 0.81298 0.20256 0.89759 0.0
H595 H 0.69909 0.11021 0.90418 0.0
H596 H 0.63984 0.08072 0.92895 0.0
H597 H 0.62542 0.15842 0.87073 0.0
H598 H 0.68473 0.18863 0.84614 0.0
H599 H 0.8171 0.18701 0.65893 0.0
H600 H 0.80779 0.17577 0.73975 0.0
H601 H 0.74896 0.22573 0.74313 0.0
H602 H 0.75775 0.2365 0.66226 0.0
H603 H 0.71851 0.17021 0.78974 0.0
H604 H 0.83203 0.26321 0.78419 0.0
H605 H 0.89138 0.2936 0.7599 0.0
H606 H 0.90671 0.21597 0.81636 0.0
H607 H 0.8473 0.18487 0.84046 0.0
C608 C 0.72863 0.1797 0.0089 0.0
C609 C 0.74048 0.1611 0.03267 0.0
C610 C 0.73514 0.18603 0.9629 0.0
C611 C 0.75333 0.1736 0.93946 0.0
C612 C 0.76583 0.15563 0.96328 0.0
C613 C 0.75942 0.14938 0.00939 0.0
C614 C 0.7591 0.17918 0.89009 0.0
C615 C 0.79229 0.19506 0.87391 0.0
C616 C 0.73219 0.1701 0.85923 0.0
C617 C 0.69644 0.15182 0.87367 0.0
C618 C 0.68335 0.12112 0.89692 0.0
C619 C 0.64974 0.10426 0.9109 0.0
C620 C 0.6289 0.11773 0.90151 0.0
C621 C 0.6416 0.14804 0.87802 0.0
C622 C 0.6752 0.16502 0.86402 0.0
C623 C 0.80238 0.19579 0.677 0.0
C624 C 0.78821 0.21269 0.65419 0.0
C625 C 0.7971 0.1894 0.72324 0.0
C626 C 0.77802 0.20027 0.74783 0.0
C627 C 0.76373 0.21702 0.725 0.0
C628 C 0.76873 0.22313 0.67873 0.0
C629 C 0.77244 0.19383 0.79714 0.0
C630 C 0.73924 0.17771 0.81334 0.0
C631 C 0.79936 0.20282 0.828 0.0
C632 C 0.83513 0.22155 0.81373 0.0
C633 C 0.84799 0.2525 0.79113 0.0
C634 C 0.88165 0.26987 0.77745 0.0
C635 C 0.90278 0.25668 0.78647 0.0
C636 C 0.89031 0.22613 0.80933 0.0
C637 C 0.85665 0.20864 0.82304 0.0
H638 H 0.92883 0.27016 0.77584 0.0
H639 H 0.6029 0.10464 0.91237 0.0
H640 H 0.5929 0.81113 0.38128 0.0
H641 H 0.59446 0.82312 0.30077 0.0
H642 H 0.52752 0.71744 0.27325 0.0
H643 H 0.5254 0.70527 0.3536 0.0
H644 H 0.57973 0.74441 0.21477 0.0
H645 H 0.4984 0.77201 0.27186 0.0
H646 H 0.47811 0.80048 0.32313 0.0
H647 H 0.55563 0.897 0.27653 0.0
H648 H 0.57678 0.86906 0.22548 0.0
H649 H 0.53099 0.75451 0.99099 0.0
H650 H 0.53128 0.74473 0.07185 0.0
H651 H 0.59668 0.85139 0.09436 0.0
H652 H 0.59666 0.86138 0.01339 0.0
H653 H 0.54682 0.82528 0.15571 0.0
H654 H 0.62754 0.79731 0.09751 0.0
H655 H 0.64827 0.76848 0.04751 0.0
H656 H 0.57182 0.67237 0.09673 0.0
H657 H 0.55033 0.70062 0.1466 0.0
C658 C 0.57823 0.79045 0.3582 0.0
C659 C 0.55905 0.75719 0.37405 0.0
C660 C 0.57924 0.79735 0.31213 0.0
C661 C 0.56096 0.77119 0.28097 0.0
C662 C 0.54196 0.738 0.29663 0.0
C663 C 0.54089 0.73108 0.34263 0.0
C664 C 0.56159 0.7783 0.23201 0.0
C665 C 0.57216 0.76179 0.2018 0.0
C666 C 0.55243 0.80156 0.21518 0.0
C667 C 0.53937 0.81844 0.24516 0.0
C668 C 0.51126 0.79931 0.27274 0.0
C669 C 0.49958 0.81535 0.30174 0.0
C670 C 0.5156 0.85054 0.30316 0.0
C671 C 0.54327 0.86974 0.27544 0.0
C672 C 0.5551 0.85381 0.24644 0.0
C673 C 0.54575 0.77587 0.01303 0.0
C674 C 0.56394 0.80873 0.99558 0.0
C675 C 0.54582 0.77025 0.05932 0.0
C676 C 0.56429 0.79729 0.0892 0.0
C677 C 0.5822 0.83014 0.07199 0.0
C678 C 0.5821 0.8358 0.02568 0.0
C679 C 0.56483 0.79125 0.13837 0.0
C680 C 0.55449 0.80797 0.16866 0.0
C681 C 0.57417 0.76814 0.15531 0.0
C682 C 0.58714 0.75108 0.12549 0.0
C683 C 0.61499 0.77002 0.09742 0.0
C684 C 0.6269 0.75378 0.06915 0.0
C685 C 0.61132 0.71861 0.06886 0.0
C686 C 0.58384 0.69961 0.09695 0.0
C687 C 0.57181 0.71572 0.12526 0.0
H688 H 0.62058 0.70609 0.04695 0.0
H689 H 0.50654 0.86292 0.32568 0.0
H690 H 0.79473 0.51575 0.68418 0.0
H691 H 0.78488 0.51733 0.60346 0.0
H692 H 0.78419 0.61057 0.62181 0.0
H693 H 0.79385 0.60902 0.70276 0.0
H694 H 0.73464 0.56976 0.5664 0.0
H695 H 0.85315 0.60868 0.57712 0.0
H696 H 0.90366 0.60606 0.59991 0.0
H697 H 0.86849 0.51411 0.52449 0.0
H698 H 0.81753 0.51594 0.50174 0.0
H699 H 0.74856 0.61289 0.33433 0.0
H700 H 0.75895 0.61281 0.41524 0.0
H701 H 0.76078 0.51992 0.39993 0.0
H702 H 0.75069 0.52003 0.31895 0.0
H703 H 0.8103 0.56161 0.45391 0.0
H704 H 0.69151 0.52228 0.44389 0.0
H705 H 0.64093 0.52478 0.42113 0.0
H706 H 0.67653 0.61734 0.49521 0.0
H707 H 0.72757 0.61564 0.51792 0.0
C708 C 0.79276 0.53675 0.67102 0.0
C709 C 0.79533 0.56239 0.69996 0.0
C710 C 0.78711 0.53762 0.6248 0.0
C711 C 0.7843 0.56435 0.6063 0.0
C712 C 0.7863 0.5897 0.6352 0.0
C713 C 0.79176 0.58874 0.68152 0.0
C714 C 0.77917 0.56578 0.55688 0.0
C715 C 0.75147 0.56846 0.54183 0.0
C716 C 0.80066 0.56334 0.52465 0.0
C717 C 0.83138 0.5623 0.53807 0.0
C718 C 0.85608 0.58778 0.56565 0.0
C719 C 0.8848 0.58645 0.57852 0.0
C720 C 0.88924 0.55989 0.56374 0.0
C721 C 0.865 0.53465 0.53595 0.0
C722 C 0.83621 0.53584 0.52302 0.0
C723 C 0.75097 0.59233 0.34823 0.0
C724 C 0.74867 0.5664 0.32014 0.0
C725 C 0.75689 0.5923 0.39455 0.0
C726 C 0.76019 0.5661 0.41394 0.0
C727 C 0.75835 0.54043 0.38586 0.0
C728 C 0.75265 0.54056 0.3395 0.0
C729 C 0.7657 0.56546 0.46341 0.0
C730 C 0.79348 0.56295 0.47847 0.0
C731 C 0.74428 0.56803 0.49564 0.0
C732 C 0.71351 0.569 0.48224 0.0
C733 C 0.68867 0.54329 0.45506 0.0
C734 C 0.6599 0.54455 0.44221 0.0
C735 C 0.65556 0.57125 0.45662 0.0
C736 C 0.67994 0.5967 0.48402 0.0
C737 C 0.70878 0.59559 0.49693 0.0
H738 H 0.63327 0.57217 0.44662 0.0
H739 H 0.9115 0.55891 0.57375 0.0
H740 H 0.11978 0.75076 0.67038 0.0
H741 H 0.13023 0.75882 0.75155 0.0
H742 H 0.2154 0.74349 0.73744 0.0
H743 H 0.20463 0.73464 0.65617 0.0
H744 H 0.17675 0.70957 0.81013 0.0
H745 H 0.22762 0.82191 0.75146 0.0
H746 H 0.2297 0.86876 0.70807 0.0
H747 H 0.15084 0.86556 0.78969 0.0
H748 H 0.14796 0.81834 0.83319 0.0
H749 H 0.25268 0.77641 0.0243 0.0
H750 H 0.24106 0.76569 0.94348 0.0
H751 H 0.15578 0.78097 0.9565 0.0
H752 H 0.16762 0.7923 0.03717 0.0
H753 H 0.19453 0.81463 0.88445 0.0
H754 H 0.14367 0.70284 0.94358 0.0
H755 H 0.14175 0.65648 0.98793 0.0
H756 H 0.22014 0.65863 0.90639 0.0
H757 H 0.22287 0.70538 0.86186 0.0
C758 C 0.14057 0.74881 0.68452 0.0
C759 C 0.16138 0.74207 0.65663 0.0
C760 C 0.14669 0.7537 0.73096 0.0
C761 C 0.17379 0.75207 0.75065 0.0
C762 C 0.19438 0.74494 0.72305 0.0
C763 C 0.18836 0.74018 0.67651 0.0
C764 C 0.18072 0.75803 0.79996 0.0
C765 C 0.18109 0.73274 0.82628 0.0
C766 C 0.18562 0.78791 0.82133 0.0
C767 C 0.18734 0.81635 0.79529 0.0
C768 C 0.21053 0.83101 0.75992 0.0
C769 C 0.21189 0.85767 0.73535 0.0
C770 C 0.19035 0.87007 0.74604 0.0
C771 C 0.16747 0.85589 0.78141 0.0
C772 C 0.16598 0.8292 0.80605 0.0
C773 C 0.23151 0.77758 0.00994 0.0
C774 C 0.2111 0.78524 0.03724 0.0
C775 C 0.22473 0.7712 0.96378 0.0
C776 C 0.19741 0.77233 0.94389 0.0
C777 C 0.17697 0.77992 0.97106 0.0
C778 C 0.18361 0.78612 0.01726 0.0
C779 C 0.19051 0.76618 0.89463 0.0
C780 C 0.19016 0.79145 0.86832 0.0
C781 C 0.18557 0.73627 0.87334 0.0
C782 C 0.18371 0.70785 0.89965 0.0
C783 C 0.16069 0.69361 0.9353 0.0
C784 C 0.15943 0.66724 0.96046 0.0
C785 C 0.1809 0.6547 0.95011 0.0
C786 C 0.20357 0.66842 0.91442 0.0
C787 C 0.20496 0.69483 0.88917 0.0
H788 H 0.1799 0.6343 0.96966 0.0
H789 H 0.19145 0.89072 0.72698 0.0
H790 H 0.43157 0.27425 0.34343 0.0
H791 H 0.4313 0.26317 0.26281 0.0
H792 H 0.35597 0.15903 0.28338 0.0
H793 H 0.35596 0.16998 0.36425 0.0
H794 H 0.40437 0.16429 0.22675 0.0
H795 H 0.33446 0.21443 0.23934 0.0
H796 H 0.32011 0.25749 0.26282 0.0
H797 H 0.40273 0.33221 0.18566 0.0
H798 H 0.41788 0.28968 0.16222 0.0
H799 H 0.36097 0.12523 0.99508 0.0
H800 H 0.35906 0.13415 0.07606 0.0
H801 H 0.43282 0.23942 0.06054 0.0
H802 H 0.43474 0.23066 0.97953 0.0
H803 H 0.38355 0.23231 0.11491 0.0
H804 H 0.45413 0.18248 0.10348 0.0
H805 H 0.4687 0.13953 0.08021 0.0
H806 H 0.38496 0.06428 0.15522 0.0
H807 H 0.3696 0.10671 0.17844 0.0
C808 C 0.41468 0.24904 0.33082 0.0
C809 C 0.39357 0.22308 0.36036 0.0
C810 C 0.41461 0.24272 0.28467 0.0
C811 C 0.39327 0.21037 0.26687 0.0
C812 C 0.37263 0.18421 0.29631 0.0
C813 C 0.37271 0.1905 0.34257 0.0
C814 C 0.39254 0.20392 0.21754 0.0
C815 C 0.39932 0.17882 0.20231 0.0
C816 C 0.38666 0.22334 0.18554 0.0
C817 C 0.37748 0.24893 0.19935 0.0
C818 C 0.34972 0.2401 0.22764 0.0
C819 C 0.34142 0.2644 0.2409 0.0
C820 C 0.36054 0.29759 0.22583 0.0
C821 C 0.38796 0.30651 0.19735 0.0
C822 C 0.3964 0.28231 0.18403 0.0
C823 C 0.37701 0.15023 0.00892 0.0
C824 C 0.39822 0.17721 0.98075 0.0
C825 C 0.37586 0.1553 0.05528 0.0
C826 C 0.39613 0.18738 0.0746 0.0
C827 C 0.41694 0.21444 0.04648 0.0
C828 C 0.41798 0.20941 1.00011 0.0
C829 C 0.39559 0.19281 0.12405 0.0
C830 C 0.38853 0.21771 0.13932 0.0
C831 C 0.40123 0.17321 0.15606 0.0
C832 C 0.41052 0.1477 0.14232 0.0
C833 C 0.43867 0.15672 0.11473 0.0
C834 C 0.44709 0.13248 0.1016 0.0
C835 C 0.42771 0.09918 0.11612 0.0
C836 C 0.39992 0.09008 0.14393 0.0
C837 C 0.39136 0.11421 0.15712 0.0
H838 H 0.43427 0.08045 0.10592 0.0
H839 H 0.35408 0.31637 0.23614 0.0
H840 H 0.22667 0.50078 0.10069 0.0
H841 H 0.22285 0.54389 0.14492 0.0
H842 H 0.1269 0.5154 0.08223 0.0
H843 H 0.13204 0.47367 0.03548 0.0
H844 H 0.16023 0.58043 0.09467 0.0
H845 H 0.13737 0.48553 0.18884 0.0
H846 H 0.15008 0.44428 0.22387 0.0
H847 H 0.23652 0.52434 0.29032 0.0
H848 H 0.22535 0.56626 0.25433 0.0
H849 H 0.12242 0.66351 0.27572 0.0
H850 H 0.11732 0.61693 0.22808 0.0
H851 H 0.22279 0.651 0.24977 0.0
H852 H 0.22819 0.69782 0.29602 0.0
H853 H 0.17677 0.57902 0.25987 0.0
H854 H 0.20731 0.67234 0.15919 0.0
H855 H 0.201 0.71692 0.12179 0.0
H856 H 0.10455 0.64253 0.0691 0.0
H857 H 0.11012 0.59749 0.10672 0.0
C858 C 0.20506 0.50418 0.09596 0.0
C859 C 0.17954 0.48404 0.0651 0.0
C860 C 0.2027 0.52854 0.12148 0.0
C861 C 0.17399 0.53207 0.11813 0.0
C862 C 0.1491 0.51287 0.08576 0.0
C863 C 0.15201 0.48914 0.05909 0.0
C864 C 0.16973 0.55518 0.14922 0.0
C865 C 0.16315 0.57961 0.13087 0.0
C866 C 0.1742 0.55459 0.19653 0.0
C867 C 0.18054 0.52912 0.21866 0.0
C868 C 0.15921 0.4944 0.2107 0.0
C869 C 0.16615 0.47087 0.23073 0.0
C870 C 0.1939 0.48165 0.25952 0.0
C871 C 0.21497 0.51601 0.26809 0.0
C872 C 0.20841 0.53968 0.24778 0.0
C873 C 0.14427 0.66058 0.27082 0.0
C874 C 0.17565 0.68398 0.28951 0.0
C875 C 0.14141 0.63426 0.24344 0.0
C876 C 0.16976 0.63081 0.23538 0.0
C877 C 0.2007 0.65336 0.25564 0.0
C878 C 0.20373 0.67999 0.28202 0.0
C879 C 0.16783 0.60422 0.20513 0.0
C880 C 0.17317 0.57918 0.22372 0.0
C881 C 0.16265 0.60449 0.15818 0.0
C882 C 0.15888 0.63159 0.13641 0.0
C883 C 0.18453 0.66552 0.14019 0.0
C884 C 0.18115 0.69087 0.11879 0.0
C885 C 0.15233 0.68259 0.09323 0.0
C886 C 0.12682 0.64893 0.08904 0.0
C887 C 0.13008 0.62347 0.11037 0.0
H888 H 0.14983 0.70222 0.07648 0.0
H889 H 0.19912 0.46341 0.27522 0.0
H890 H 0.64171 0.15931 0.34536 0.0
H891 H 0.59246 0.15423 0.38494 0.0
H892 H 0.64455 0.17035 0.51208 0.0
H893 H 0.69301 0.1743 0.47333 0.0
H894 H 0.58159 0.12412 0.522 0.0
H895 H 0.64033 0.23446 0.4528 0.0
H896 H 0.66367 0.27532 0.39064 0.0
H897 H 0.56548 0.23182 0.32949 0.0
H898 H 0.54168 0.19029 0.39085 0.0
H899 H 0.49864 0.18893 0.66003 0.0
H900 H 0.53796 0.17806 0.61711 0.0
H901 H 0.47716 0.15939 0.49744 0.0
H902 H 0.43822 0.17051 0.53958 0.0
H903 H 0.54049 0.2023 0.48043 0.0
H904 H 0.48088 0.09505 0.55287 0.0
H905 H 0.45694 0.05584 0.61658 0.0
H906 H 0.55604 0.09425 0.67307 0.0
H907 H 0.58049 0.13404 0.60988 0.0
C908 C 0.6425 0.16143 0.38177 0.0
C909 C 0.67144 0.16751 0.40608 0.0
C910 C 0.6144 0.15867 0.40434 0.0
C911 C 0.61501 0.16244 0.45147 0.0
C912 C 0.64345 0.16737 0.47576 0.0
C913 C 0.67129 0.1698 0.45339 0.0
C914 C 0.58683 0.16269 0.47579 0.0
C915 C 0.57272 0.14137 0.51308 0.0
C916 C 0.57472 0.18464 0.46363 0.0
C917 C 0.58931 0.20902 0.42613 0.0
C918 C 0.6238 0.23336 0.42582 0.0
C919 C 0.63709 0.25669 0.39078 0.0
C920 C 0.61605 0.25615 0.35614 0.0
C921 C 0.58174 0.23217 0.35632 0.0
C922 C 0.56835 0.20872 0.39117 0.0
C923 C 0.49352 0.18219 0.62469 0.0
C924 C 0.46554 0.18097 0.60316 0.0
C925 C 0.51588 0.17578 0.60026 0.0
C926 C 0.51037 0.16771 0.55409 0.0
C927 C 0.48195 0.16561 0.53297 0.0
C928 C 0.45975 0.1721 0.55719 0.0
C929 C 0.53542 0.16397 0.52682 0.0
C930 C 0.54903 0.18474 0.48906 0.0
C931 C 0.54706 0.1416 0.53867 0.0
C932 C 0.53245 0.11775 0.5768 0.0
C933 C 0.49752 0.09535 0.57905 0.0
C934 C 0.48386 0.07297 0.61504 0.0
C935 C 0.50495 0.07261 0.64893 0.0
C936 C 0.53973 0.09458 0.64682 0.0
C937 C 0.5535 0.11703 0.61088 0.0
H938 H 0.49434 0.05526 0.67678 0.0
H939 H 0.62621 0.27439 0.32926 0.0
H940 H 0.30673 0.49113 1.00014 0.0
H941 H 0.35675 0.5342 0.96121 0.0
H942 H 0.30568 0.4986 0.8333 0.0
H943 H 0.25605 0.4552 0.87156 0.0
H944 H 0.37046 0.51547 0.82617 0.0
H945 H 0.30793 0.56558 0.88738 0.0
H946 H 0.28047 0.58031 0.94768 0.0
H947 H 0.37502 0.63493 0.01805 0.0
H948 H 0.40296 0.62011 0.95843 0.0
H949 H 0.45808 0.66348 0.69147 0.0
H950 H 0.41701 0.61341 0.73244 0.0
H951 H 0.47308 0.65505 0.8558 0.0
H952 H 0.51372 0.70519 0.81554 0.0
H953 H 0.40858 0.63433 0.86785 0.0
H954 H 0.47201 0.58747 0.80197 0.0
H955 H 0.4984 0.5724 0.74067 0.0
H956 H 0.4018 0.51229 0.67729 0.0
H957 H 0.37478 0.52721 0.73801 0.0
C958 C 0.30629 0.4922 0.9637 0.0
C959 C 0.27724 0.46996 0.93905 0.0
C960 C 0.33486 0.51688 0.94151 0.0
C961 C 0.33471 0.51991 0.89441 0.0
C962 C 0.30633 0.49675 0.86965 0.0
C963 C 0.27788 0.47203 0.8917 0.0
C964 C 0.36311 0.54841 0.87094 0.0
C965 C 0.37872 0.54149 0.83506 0.0
C966 C 0.37416 0.58232 0.88301 0.0
C967 C 0.35744 0.59142 0.91872 0.0
C968 C 0.32281 0.58052 0.91588 0.0
C969 C 0.30717 0.58891 0.94991 0.0
C970 C 0.32597 0.60846 0.98674 0.0
C971 C 0.36048 0.61974 0.98955 0.0
C972 C 0.37623 0.61136 0.95565 0.0
C973 C 0.4618 0.66182 0.72723 0.0
C974 C 0.48899 0.68845 0.75027 0.0
C975 C 0.43842 0.63311 0.75056 0.0
C976 C 0.4421 0.63043 0.79716 0.0
C977 C 0.4697 0.65662 0.8199 0.0
C978 C 0.4929 0.68531 0.79675 0.0
C979 C 0.41605 0.6015 0.82296 0.0
C980 C 0.40071 0.60835 0.85921 0.0
C981 C 0.40519 0.56761 0.811 0.0
C982 C 0.42141 0.55871 0.77435 0.0
C983 C 0.45642 0.57126 0.77478 0.0
C984 C 0.47149 0.5627 0.74017 0.0
C985 C 0.45183 0.54152 0.70503 0.0
C986 C 0.41701 0.52874 0.7045 0.0
C987 C 0.40179 0.53719 0.73904 0.0
H988 H 0.46358 0.53493 0.67829 0.0
H989 H 0.31381 0.61493 0.01305 0.0
H990 H 0.79027 0.30815 0.33789 0.0
H991 H 0.80008 0.35885 0.29743 0.0
H992 H 0.77831 0.30451 0.17125 0.0
H993 H 0.76926 0.25432 0.21091 0.0
H994 H 0.83045 0.36619 0.16181 0.0
H995 H 0.71952 0.31612 0.22703 0.0
H996 H 0.67872 0.29461 0.28915 0.0
H997 H 0.72795 0.39258 0.3518 0.0
H998 H 0.76972 0.41447 0.29047 0.0
H999 H 0.78011 0.45948 0.02015 0.0
H1000 H 0.78578 0.41739 0.06427 0.0
H1001 H 0.8084 0.47982 0.18318 0.0
H1002 H 0.80227 0.52149 0.13981 0.0
H1003 H 0.76054 0.41771 0.19997 0.0
H1004 H 0.86916 0.46894 0.13059 0.0
H1005 H 0.90951 0.48981 0.0677 0.0
H1006 H 0.86372 0.38986 0.01149 0.0
H1007 H 0.82276 0.36845 0.07372 0.0
C1008 C 0.78767 0.30707 0.30153 0.0
C1009 C 0.77873 0.27712 0.27772 0.0
C1010 C 0.7933 0.33604 0.27847 0.0
C1011 C 0.78963 0.33535 0.23134 0.0
C1012 C 0.78139 0.30568 0.20756 0.0
C1013 C 0.77602 0.2769 0.23044 0.0
C1014 C 0.79281 0.36486 0.20655 0.0
C1015 C 0.81505 0.37738 0.16995 0.0
C1016 C 0.77319 0.37986 0.21776 0.0
C1017 C 0.74797 0.36681 0.25446 0.0
C1018 C 0.72183 0.33301 0.25425 0.0
C1019 C 0.6985 0.32075 0.28933 0.0
C1020 C 0.7007 0.34221 0.32447 0.0
C1021 C 0.7263 0.37598 0.3246 0.0
C1022 C 0.74985 0.3883 0.28973 0.0
C1023 C 0.78673 0.46439 0.05554 0.0
C1024 C 0.79043 0.49364 0.07654 0.0
C1025 C 0.79009 0.44041 0.08068 0.0
C1026 C 0.79762 0.44554 0.12702 0.0
C1027 C 0.80245 0.47528 0.14756 0.0
C1028 C 0.7989 0.49907 0.12263 0.0
C1029 C 0.79802 0.41895 0.15493 0.0
C1030 C 0.77632 0.40689 0.19209 0.0
C1031 C 0.81805 0.40436 0.14409 0.0
C1032 C 0.84269 0.41715 0.10664 0.0
C1033 C 0.86751 0.45145 0.10463 0.0
C1034 C 0.89053 0.46337 0.06913 0.0
C1035 C 0.88913 0.44119 0.03557 0.0
C1036 C 0.86475 0.40702 0.03749 0.0
C1037 C 0.84165 0.39497 0.0729 0.0
H1038 H 0.90698 0.45046 1.00811 0.0
H1039 H 0.68255 0.33274 0.35155 0.0
H1040 H 0.31455 0.8335 0.37119 0.0
H1041 H 0.36454 0.84448 0.41515 0.0
H1042 H 0.30116 0.76825 0.51044 0.0
H1043 H 0.25136 0.75725 0.46729 0.0
H1044 H 0.35006 0.8265 0.55183 0.0
H1045 H 0.34222 0.75086 0.42899 0.0
H1046 H 0.34091 0.73593 0.34869 0.0
H1047 H 0.43678 0.82521 0.3286 0.0
H1048 H 0.43859 0.8407 0.40876 0.0
H1049 H 0.45046 0.77527 0.6696 0.0
H1050 H 0.40941 0.78322 0.62647 0.0
H1051 H 0.48611 0.84225 0.52882 0.0
H1052 H 0.52636 0.83202 0.57023 0.0
H1053 H 0.43556 0.80289 0.48559 0.0
H1054 H 0.44917 0.8761 0.60781 0.0
H1055 H 0.45244 0.89445 0.68684 0.0
H1056 H 0.34961 0.81728 0.70736 0.0
H1057 H 0.34583 0.79816 0.62865 0.0
C1058 C 0.31129 0.81913 0.40154 0.0
C1059 C 0.27898 0.79432 0.41551 0.0
C1060 C 0.33985 0.82542 0.42655 0.0
C1061 C 0.33649 0.80704 0.46589 0.0
C1062 C 0.30427 0.78274 0.48023 0.0
C1063 C 0.27583 0.77635 0.45527 0.0
C1064 C 0.36633 0.81216 0.49194 0.0
C1065 C 0.3688 0.82129 0.53757 0.0
C1066 C 0.39139 0.80664 0.47271 0.0
C1067 C 0.39035 0.79711 0.42468 0.0
C1068 C 0.36292 0.76738 0.40736 0.0
C1069 C 0.36213 0.75878 0.36192 0.0
C1070 C 0.38874 0.77963 0.33356 0.0
C1071 C 0.41622 0.80907 0.35062 0.0
C1072 C 0.41716 0.81774 0.39604 0.0
C1073 C 0.45856 0.79033 0.63927 0.0
C1074 C 0.49145 0.80307 0.62314 0.0
C1075 C 0.43518 0.79513 0.61474 0.0
C1076 C 0.44467 0.81387 0.57457 0.0
C1077 C 0.47804 0.82766 0.55954 0.0
C1078 C 0.50107 0.82195 0.58328 0.0
C1079 C 0.4192 0.81659 0.54634 0.0
C1080 C 0.41743 0.80887 0.50012 0.0
C1081 C 0.39518 0.8241 0.56492 0.0
C1082 C 0.39731 0.83556 0.61234 0.0
C1083 C 0.42732 0.8629 0.62925 0.0
C1084 C 0.42925 0.87346 0.67399 0.0
C1085 C 0.40127 0.85701 0.70212 0.0
C1086 C 0.37127 0.83 0.68554 0.0
C1087 C 0.3692 0.81932 0.64084 0.0
H1088 H 0.40283 0.86521 0.73675 0.0
H1089 H 0.38808 0.77294 0.29838 0.0
H1090 H 0.70254 0.50375 0.87774 0.0
H1091 H 0.65159 0.46466 0.83722 0.0
H1092 H 0.59574 0.43783 0.96159 0.0
H1093 H 0.64733 0.47671 1.00307 0.0
H1094 H 0.58046 0.38333 0.91404 0.0
H1095 H 0.58575 0.48732 0.88193 0.0
H1096 H 0.61177 0.54683 0.85892 0.0
H1097 H 0.6298 0.5208 0.7268 0.0
H1098 H 0.60437 0.46119 0.74917 0.0
H1099 H 0.43019 0.2818 0.79475 0.0
H1100 H 0.47106 0.32993 0.83938 0.0
H1101 H 0.54091 0.36229 0.72848 0.0
H1102 H 0.49952 0.31452 0.68295 0.0
H1103 H 0.54414 0.41588 0.77432 0.0
H1104 H 0.54143 0.31117 0.81218 0.0
H1105 H 0.51274 0.25194 0.83716 0.0
H1106 H 0.48788 0.28094 0.96279 0.0
H1107 H 0.51542 0.34008 0.93799 0.0
C1108 C 0.67947 0.48974 0.8967 0.0
C1109 C 0.67904 0.49348 0.94377 0.0
C1110 C 0.65021 0.46751 0.87329 0.0
C1111 C 0.61964 0.44878 0.89615 0.0
C1112 C 0.61904 0.45223 0.9432 0.0
C1113 C 0.64851 0.47442 0.96686 0.0
C1114 C 0.58893 0.4245 0.87076 0.0
C1115 C 0.5721 0.39061 0.88403 0.0
C1116 C 0.57825 0.43391 0.83121 0.0
C1117 C 0.59333 0.46975 0.81738 0.0
C1118 C 0.59546 0.49429 0.84805 0.0
C1119 C 0.61008 0.52805 0.83511 0.0
C1120 C 0.62249 0.5376 0.79147 0.0
C1121 C 0.62019 0.51337 0.76061 0.0
C1122 C 0.60563 0.47957 0.77339 0.0
C1123 C 0.45407 0.29944 0.77958 0.0
C1124 C 0.46193 0.29415 0.7356 0.0
C1125 C 0.47739 0.32693 0.80516 0.0
C1126 C 0.50933 0.34921 0.78766 0.0
C1127 C 0.51646 0.34525 0.74273 0.0
C1128 C 0.49285 0.31795 0.71677 0.0
C1129 C 0.53618 0.37478 0.81728 0.0
C1130 C 0.5523 0.40881 0.80469 0.0
C1131 C 0.54598 0.36559 0.85779 0.0
C1132 C 0.53015 0.33003 0.87299 0.0
C1133 C 0.52959 0.30486 0.84498 0.0
C1134 C 0.51345 0.27126 0.85907 0.0
C1135 C 0.49826 0.2626 0.90141 0.0
C1136 C 0.49937 0.28756 0.92985 0.0
C1137 C 0.51521 0.32112 0.91577 0.0
H1138 H 0.48575 0.23658 0.91226 0.0
H1139 H 0.63386 0.56375 0.78156 0.0
loop_
_geom_bond_atom_site_label_1
_geom_bond_atom_site_label_2
_geom_bond_distance
_geom_bond_site_symmetry_2
_ccdc_geom_bond_type
Dy0 O3 2.307 1_556 S
Dy0 O5 2.395 . S
Dy0 O6 2.379 . S
Dy0 O8 2.339 . S
Dy0 O10 2.298 . S
Dy0 O14 2.275 . S
Dy0 C22 2.738 . S
Dy1 O4 2.298 . S
Dy1 O7 2.275 . S
Dy1 O9 2.307 1_554 S
Dy1 O11 2.395 . S
Dy1 O12 2.379 . S
Dy1 O15 2.339 . S
Dy1 C31 2.738 . S
C2 O14 1.254 . S
C2 O15 1.257 1_556 S
O3 Dy0 2.307 1_554 S
O3 C13 1.266 . S
O4 Dy1 2.298 . S
O4 C13 1.236 . S
O5 Dy0 2.395 . S
O5 C22 1.255 . S
O6 Dy0 2.379 . S
O6 C22 1.249 . S
O7 Dy1 2.275 . S
O7 C23 1.254 . S
O8 Dy0 2.339 . S
O8 C23 1.257 1_556 S
O9 Dy1 2.307 1_556 S
O9 C24 1.266 . S
O10 Dy0 2.298 . S
O10 C24 1.236 . S
O11 Dy1 2.395 . S
O11 C31 1.255 . S
O12 Dy1 2.379 . S
O12 C31 1.249 . S
C13 O3 1.266 . S
C13 O4 1.236 . S
O14 Dy0 2.275 . S
O14 C2 1.254 . S
O15 Dy1 2.339 . S
O15 C2 1.257 1_554 S
C16 C19 1.344 . S
C16 C20 1.328 . S
C16 C22 1.516 . S
C17 C18 1.304 . S
C17 C21 1.323 . S
C18 C17 1.304 . S
C18 C19 1.371 . S
C18 H32 0.930 . S
C19 C16 1.344 . S
C19 C18 1.371 . S
C19 H33 0.931 . S
C20 C16 1.328 . S
C20 C21 1.433 . S
C20 H34 0.931 . S
C21 C17 1.323 . S
C21 C20 1.433 . S
C21 H35 0.933 . S
C22 Dy0 2.738 . S
C22 O5 1.255 . S
C22 O6 1.249 . S
C22 C16 1.516 . S
C23 O7 1.254 . S
C23 O8 1.257 1_554 S
C24 O9 1.266 . S
C24 O10 1.236 . S
C25 C28 1.344 . S
C25 C29 1.328 . S
C25 C31 1.516 . S
C26 C27 1.304 . S
C26 C30 1.323 . S
C27 C26 1.304 . S
C27 C28 1.371 . S
C27 H36 0.930 . S
C28 C25 1.344 . S
C28 C27 1.371 . S
C28 H37 0.931 . S
C29 C25 1.328 . S
C29 C30 1.433 . S
C29 H38 0.931 . S
C30 C26 1.323 . S
C30 C29 1.433 . S
C30 H39 0.933 . S
C31 Dy1 2.738 . S
C31 O11 1.255 . S
C31 O12 1.249 . S
C31 C25 1.516 . S
H32 C18 0.930 . S
H33 C19 0.931 . S
H34 C20 0.931 . S
H35 C21 0.933 . S
H36 C27 0.930 . S
H37 C28 0.931 . S
H38 C29 0.931 . S
H39 C30 0.933 . S
Dy40 O43 2.307 . S
Dy40 O45 2.395 . S
Dy40 O46 2.379 . S
Dy40 O48 2.339 . S
Dy40 O50 2.298 . S
Dy40 O54 2.275 . S
Dy40 C62 2.738 . S
Dy41 O44 2.298 . S
Dy41 O47 2.275 . S
Dy41 O49 2.307 . S
Dy41 O51 2.395 . S
Dy41 O52 2.379 . S
Dy41 O55 2.339 . S
Dy41 C71 2.738 . S
C42 O54 1.254 . S
C42 O55 1.257 . S
O43 Dy40 2.307 . S
O43 C53 1.266 . S
O44 Dy41 2.298 . S
O44 C53 1.236 . S
O45 Dy40 2.395 . S
O45 C62 1.255 . S
O46 Dy40 2.379 . S
O46 C62 1.249 . S
O47 Dy41 2.275 . S
O47 C63 1.254 . S
O48 Dy40 2.339 . S
O48 C63 1.257 . S
O49 Dy41 2.307 . S
O49 C64 1.266 . S
O50 Dy40 2.298 . S
O50 C64 1.236 . S
O51 Dy41 2.395 . S
O51 C71 1.255 . S
O52 Dy41 2.379 . S
O52 C71 1.249 . S
C53 O43 1.266 . S
C53 O44 1.236 . S
O54 Dy40 2.275 . S
O54 C42 1.254 . S
O55 Dy41 2.339 . S
O55 C42 1.257 . S
C56 C59 1.344 . S
C56 C60 1.328 . S
C56 C62 1.516 . S
C57 C58 1.304 . S
C57 C61 1.323 . S
C58 C57 1.304 . S
C58 C59 1.371 . S
C58 H72 0.930 . S
C59 C56 1.344 . S
C59 C58 1.371 . S
C59 H73 0.931 . S
C60 C56 1.328 . S
C60 C61 1.433 . S
C60 H74 0.931 . S
C61 C57 1.323 . S
C61 C60 1.433 . S
C61 H75 0.933 . S
C62 Dy40 2.738 . S
C62 O45 1.255 . S
C62 O46 1.249 . S
C62 C56 1.516 . S
C63 O47 1.254 . S
C63 O48 1.257 . S
C64 O49 1.266 . S
C64 O50 1.236 . S
C65 C68 1.344 . S
C65 C69 1.328 . S
C65 C71 1.516 . S
C66 C67 1.304 . S
C66 C70 1.323 . S
C67 C66 1.304 . S
C67 C68 1.371 . S
C67 H76 0.930 . S
C68 C65 1.344 . S
C68 C67 1.371 . S
C68 H77 0.931 . S
C69 C65 1.328 . S
C69 C70 1.433 . S
C69 H78 0.931 . S
C70 C66 1.323 . S
C70 C69 1.433 . S
C70 H79 0.933 . S
C71 Dy41 2.738 . S
C71 O51 1.255 . S
C71 O52 1.249 . S
C71 C65 1.516 . S
H72 C58 0.930 . S
H73 C59 0.931 . S
H74 C60 0.931 . S
H75 C61 0.933 . S
H76 C67 0.930 . S
H77 C68 0.931 . S
H78 C69 0.931 . S
H79 C70 0.933 . S
Dy80 O83 2.307 . S
Dy80 O85 2.395 . S
Dy80 O86 2.379 . S
Dy80 O88 2.339 . S
Dy80 O90 2.298 . S
Dy80 O94 2.275 . S
Dy80 C102 2.738 . S
Dy81 O84 2.298 . S
Dy81 O87 2.275 . S
Dy81 O89 2.307 . S
Dy81 O91 2.395 . S
Dy81 O92 2.379 . S
Dy81 O95 2.339 . S
Dy81 C111 2.738 . S
C82 O94 1.254 . S
C82 O95 1.257 . S
O83 Dy80 2.307 . S
O83 C93 1.266 . S
O84 Dy81 2.298 . S
O84 C93 1.236 . S
O85 Dy80 2.395 . S
O85 C102 1.255 . S
O86 Dy80 2.379 . S
O86 C102 1.249 . S
O87 Dy81 2.275 . S
O87 C103 1.254 . S
O88 Dy80 2.339 . S
O88 C103 1.257 . S
O89 Dy81 2.307 . S
O89 C104 1.266 . S
O90 Dy80 2.298 . S
O90 C104 1.236 . S
O91 Dy81 2.395 . S
O91 C111 1.255 . S
O92 Dy81 2.379 . S
O92 C111 1.249 . S
C93 O83 1.266 . S
C93 O84 1.236 . S
O94 Dy80 2.275 . S
O94 C82 1.254 . S
O95 Dy81 2.339 . S
O95 C82 1.257 . S
C96 C99 1.344 . S
C96 C100 1.328 . S
C96 C102 1.516 . S
C97 C98 1.304 . S
C97 C101 1.323 . S
C98 C97 1.304 . S
C98 C99 1.371 . S
C98 H112 0.930 . S
C99 C96 1.344 . S
C99 C98 1.371 . S
C99 H113 0.931 . S
C100 C96 1.328 . S
C100 C101 1.433 . S
C100 H114 0.931 . S
C101 C97 1.323 . S
C101 C100 1.433 . S
C101 H115 0.933 . S
C102 Dy80 2.738 . S
C102 O85 1.255 . S
C102 O86 1.249 . S
C102 C96 1.516 . S
C103 O87 1.254 . S
C103 O88 1.257 . S
C104 O89 1.266 . S
C104 O90 1.236 . S
C105 C108 1.344 . S
C105 C109 1.328 . S
C105 C111 1.516 . S
C106 C107 1.304 . S
C106 C110 1.323 . S
C107 C106 1.304 . S
C107 C108 1.371 . S
C107 H116 0.930 . S
C108 C105 1.344 . S
C108 C107 1.371 . S
C108 H117 0.931 . S
C109 C105 1.328 . S
C109 C110 1.433 . S
C109 H118 0.931 . S
C110 C106 1.323 . S
C110 C109 1.433 . S
C110 H119 0.933 . S
C111 Dy81 2.738 . S
C111 O91 1.255 . S
C111 O92 1.249 . S
C111 C105 1.516 . S
H112 C98 0.930 . S
H113 C99 0.931 . S
H114 C100 0.931 . S
H115 C101 0.933 . S
H116 C107 0.930 . S
H117 C108 0.931 . S
H118 C109 0.931 . S
H119 C110 0.933 . S
Dy120 O123 2.307 1_556 S
Dy120 O125 2.395 . S
Dy120 O126 2.379 . S
Dy120 O128 2.339 . S
Dy120 O130 2.298 . S
Dy120 O134 2.275 . S
Dy120 C142 2.738 . S
Dy121 O124 2.298 . S
Dy121 O127 2.275 . S
Dy121 O129 2.307 1_554 S
Dy121 O131 2.395 . S
Dy121 O132 2.379 . S
Dy121 O135 2.339 . S
Dy121 C151 2.738 . S
C122 O134 1.254 . S
C122 O135 1.257 1_556 S
O123 Dy120 2.307 1_554 S
O123 C133 1.266 . S
O124 Dy121 2.298 . S
O124 C133 1.236 . S
O125 Dy120 2.395 . S
O125 C142 1.255 . S
O126 Dy120 2.379 . S
O126 C142 1.249 . S
O127 Dy121 2.275 . S
O127 C143 1.254 . S
O128 Dy120 2.339 . S
O128 C143 1.257 1_556 S
O129 Dy121 2.307 1_556 S
O129 C144 1.266 . S
O130 Dy120 2.298 . S
O130 C144 1.236 . S
O131 Dy121 2.395 . S
O131 C151 1.255 . S
O132 Dy121 2.379 . S
O132 C151 1.249 . S
C133 O123 1.266 . S
C133 O124 1.236 . S
O134 Dy120 2.275 . S
O134 C122 1.254 . S
O135 Dy121 2.339 . S
O135 C122 1.257 1_554 S
C136 C139 1.344 . S
C136 C140 1.328 . S
C136 C142 1.516 . S
C137 C138 1.304 . S
C137 C141 1.323 . S
C138 C137 1.304 . S
C138 C139 1.371 . S
C138 H152 0.930 . S
C139 C136 1.344 . S
C139 C138 1.371 . S
C139 H153 0.931 . S
C140 C136 1.328 . S
C140 C141 1.433 . S
C140 H154 0.931 . S
C141 C137 1.323 . S
C141 C140 1.433 . S
C141 H155 0.933 . S
C142 Dy120 2.738 . S
C142 O125 1.255 . S
C142 O126 1.249 . S
C142 C136 1.516 . S
C143 O127 1.254 . S
C143 O128 1.257 1_554 S
C144 O129 1.266 . S
C144 O130 1.236 . S
C145 C148 1.344 . S
C145 C149 1.328 . S
C145 C151 1.516 . S
C146 C147 1.304 . S
C146 C150 1.323 . S
C147 C146 1.304 . S
C147 C148 1.371 . S
C147 H156 0.930 . S
C148 C145 1.344 . S
C148 C147 1.371 . S
C148 H157 0.931 . S
C149 C145 1.328 . S
C149 C150 1.433 . S
C149 H158 0.931 . S
C150 C146 1.323 . S
C150 C149 1.433 . S
C150 H159 0.933 . S
C151 Dy121 2.738 . S
C151 O131 1.255 . S
C151 O132 1.249 . S
C151 C145 1.516 . S
H152 C138 0.930 . S
H153 C139 0.931 . S
H154 C140 0.931 . S
H155 C141 0.933 . S
H156 C147 0.930 . S
H157 C148 0.931 . S
H158 C149 0.931 . S
H159 C150 0.933 . S
Dy160 O163 2.307 . S
Dy160 O165 2.395 . S
Dy160 O166 2.379 . S
Dy160 O168 2.339 . S
Dy160 O170 2.298 . S
Dy160 O174 2.275 . S
Dy160 C182 2.738 . S
Dy161 O164 2.298 . S
Dy161 O167 2.275 . S
Dy161 O169 2.307 . S
Dy161 O171 2.395 . S
Dy161 O172 2.379 . S
Dy161 O175 2.339 . S
Dy161 C191 2.738 . S
C162 O174 1.254 . S
C162 O175 1.257 . S
O163 Dy160 2.307 . S
O163 C173 1.266 . S
O164 Dy161 2.298 . S
O164 C173 1.236 . S
O165 Dy160 2.395 . S
O165 C182 1.255 . S
O166 Dy160 2.379 . S
O166 C182 1.249 . S
O167 Dy161 2.275 . S
O167 C183 1.254 . S
O168 Dy160 2.339 . S
O168 C183 1.257 . S
O169 Dy161 2.307 . S
O169 C184 1.266 . S
O170 Dy160 2.298 . S
O170 C184 1.236 . S
O171 Dy161 2.395 . S
O171 C191 1.255 . S
O172 Dy161 2.379 . S
O172 C191 1.249 . S
C173 O163 1.266 . S
C173 O164 1.236 . S
O174 Dy160 2.275 . S
O174 C162 1.254 . S
O175 Dy161 2.339 . S
O175 C162 1.257 . S
C176 C179 1.344 . S
C176 C180 1.328 . S
C176 C182 1.516 . S
C177 C178 1.304 . S
C177 C181 1.323 . S
C178 C177 1.304 . S
C178 C179 1.371 . S
C178 H192 0.930 . S
C179 C176 1.344 . S
C179 C178 1.371 . S
C179 H193 0.931 . S
C180 C176 1.328 . S
C180 C181 1.433 . S
C180 H194 0.931 . S
C181 C177 1.323 . S
C181 C180 1.433 . S
C181 H195 0.933 . S
C182 Dy160 2.738 . S
C182 O165 1.255 . S
C182 O166 1.249 . S
C182 C176 1.516 . S
C183 O167 1.254 . S
C183 O168 1.257 . S
C184 O169 1.266 . S
C184 O170 1.236 . S
C185 C188 1.344 . S
C185 C189 1.328 . S
C185 C191 1.516 . S
C186 C187 1.304 . S
C186 C190 1.323 . S
C187 C186 1.304 . S
C187 C188 1.371 . S
C187 H196 0.930 . S
C188 C185 1.344 . S
C188 C187 1.371 . S
C188 H197 0.931 . S
C189 C185 1.328 . S
C189 C190 1.433 . S
C189 H198 0.931 . S
C190 C186 1.323 . S
C190 C189 1.433 . S
C190 H199 0.933 . S
C191 Dy161 2.738 . S
C191 O171 1.255 . S
C191 O172 1.249 . S
C191 C185 1.516 . S
H192 C178 0.930 . S
H193 C179 0.931 . S
H194 C180 0.931 . S
H195 C181 0.933 . S
H196 C187 0.930 . S
H197 C188 0.931 . S
H198 C189 0.931 . S
H199 C190 0.933 . S
Dy200 O203 2.307 . S
Dy200 O205 2.395 . S
Dy200 O206 2.379 . S
Dy200 O208 2.339 . S
Dy200 O210 2.298 . S
Dy200 O214 2.275 . S
Dy200 C222 2.738 . S
Dy201 O204 2.298 . S
Dy201 O207 2.275 . S
Dy201 O209 2.307 . S
Dy201 O211 2.395 . S
Dy201 O212 2.379 . S
Dy201 O215 2.339 . S
Dy201 C231 2.738 . S
C202 O214 1.254 . S
C202 O215 1.257 . S
O203 Dy200 2.307 . S
O203 C213 1.266 . S
O204 Dy201 2.298 . S
O204 C213 1.236 . S
O205 Dy200 2.395 . S
O205 C222 1.255 . S
O206 Dy200 2.379 . S
O206 C222 1.249 . S
O207 Dy201 2.275 . S
O207 C223 1.254 . S
O208 Dy200 2.339 . S
O208 C223 1.257 . S
O209 Dy201 2.307 . S
O209 C224 1.266 . S
O210 Dy200 2.298 . S
O210 C224 1.236 . S
O211 Dy201 2.395 . S
O211 C231 1.255 . S
O212 Dy201 2.379 . S
O212 C231 1.249 . S
C213 O203 1.266 . S
C213 O204 1.236 . S
O214 Dy200 2.275 . S
O214 C202 1.254 . S
O215 Dy201 2.339 . S
O215 C202 1.257 . S
C216 C219 1.344 . S
C216 C220 1.328 . S
C216 C222 1.516 . S
C217 C218 1.304 . S
C217 C221 1.323 . S
C218 C217 1.304 . S
C218 C219 1.371 . S
C218 H232 0.930 . S
C219 C216 1.344 . S
C219 C218 1.371 . S
C219 H233 0.931 . S
C220 C216 1.328 . S
C220 C221 1.433 . S
C220 H234 0.931 . S
C221 C217 1.323 . S
C221 C220 1.433 . S
C221 H235 0.933 . S
C222 Dy200 2.738 . S
C222 O205 1.255 . S
C222 O206 1.249 . S
C222 C216 1.516 . S
C223 O207 1.254 . S
C223 O208 1.257 . S
C224 O209 1.266 . S
C224 O210 1.236 . S
C225 C228 1.344 . S
C225 C229 1.328 . S
C225 C231 1.516 . S
C226 C227 1.304 . S
C226 C230 1.323 . S
C227 C226 1.304 . S
C227 C228 1.371 . S
C227 H236 0.930 . S
C228 C225 1.344 . S
C228 C227 1.371 . S
C228 H237 0.931 . S
C229 C225 1.328 . S
C229 C230 1.433 . S
C229 H238 0.931 . S
C230 C226 1.323 . S
C230 C229 1.433 . S
C230 H239 0.933 . S
C231 Dy201 2.738 . S
C231 O211 1.255 . S
C231 O212 1.249 . S
C231 C225 1.516 . S
H232 C218 0.930 . S
H233 C219 0.931 . S
H234 C220 0.931 . S
H235 C221 0.933 . S
H236 C227 0.930 . S
H237 C228 0.931 . S
H238 C229 0.931 . S
H239 C230 0.933 . S
H240 C258 0.951 . S
H241 C260 0.951 . S
H242 C262 0.950 . S
H243 C263 0.950 . S
H244 C265 0.950 . S
H245 C268 0.950 . S
H246 C269 0.950 . S
H247 C271 0.950 . S
H248 C272 0.950 . S
H249 C273 0.951 . S
H250 C275 0.951 . S
H251 C277 0.950 . S
H252 C278 0.950 . S
H253 C280 0.950 . S
H254 C283 0.950 . S
H255 C284 0.950 . S
H256 C286 0.956 . S
H257 C287 0.950 . S
C258 H240 0.951 . S
C258 C259 1.366 . S
C258 C260 1.388 . S
C259 C258 1.366 . S
C259 C263 1.385 . S
C260 H241 0.951 . S
C260 C258 1.388 . S
C260 C261 1.366 . S
C261 C260 1.366 . S
C261 C262 1.414 . S
C261 C264 1.499 . S
C262 H242 0.950 . S
C262 C261 1.414 . S
C262 C263 1.374 . S
C263 H243 0.950 . S
C263 C259 1.385 . S
C263 C262 1.374 . S
C264 C261 1.499 . S
C264 C265 1.373 . S
C264 C266 1.389 . S
C265 H244 0.950 . S
C265 C264 1.373 . S
C265 C281 1.377 . S
C266 C264 1.389 . S
C266 C267 1.524 . S
C266 C280 1.377 . S
C267 C266 1.524 . S
C267 C268 1.397 . S
C267 C272 1.363 . S
C268 H245 0.950 . S
C268 C267 1.397 . S
C268 C269 1.334 . S
C269 H246 0.950 . S
C269 C268 1.334 . S
C269 C270 1.287 . S
C270 C269 1.287 . S
C270 C271 1.524 . S
C270 H289 0.913 . S
C271 H247 0.950 . S
C271 C270 1.524 . S
C271 C272 1.415 . S
C272 H248 0.950 . S
C272 C267 1.363 . S
C272 C271 1.415 . S
C273 H249 0.951 . S
C273 C274 1.366 . S
C273 C275 1.388 . S
C274 C273 1.366 . S
C274 C278 1.385 . S
C275 H250 0.951 . S
C275 C273 1.388 . S
C275 C276 1.366 . S
C276 C275 1.366 . S
C276 C277 1.414 . S
C276 C279 1.499 . S
C277 H251 0.950 . S
C277 C276 1.414 . S
C277 C278 1.374 . S
C278 H252 0.950 . S
C278 C274 1.385 . S
C278 C277 1.374 . S
C279 C276 1.499 . S
C279 C280 1.373 . S
C279 C281 1.389 . S
C280 H253 0.950 . S
C280 C266 1.377 . S
C280 C279 1.373 . S
C281 C265 1.377 . S
C281 C279 1.389 . S
C281 C282 1.524 . S
C282 C281 1.524 . S
C282 C283 1.397 . S
C282 C287 1.363 . S
C283 H254 0.950 . S
C283 C282 1.397 . S
C283 C284 1.334 . S
C284 H255 0.950 . S
C284 C283 1.334 . S
C284 C285 1.287 1_556 S
C285 C284 1.287 1_554 S
C285 C286 1.525 . S
C285 H288 0.999 . S
C286 H256 0.956 . S
C286 C285 1.525 . S
C286 C287 1.406 1_554 S
C287 H257 0.950 . S
C287 C282 1.363 . S
C287 C286 1.406 1_556 S
H288 C285 0.999 . S
H289 C270 0.913 . S
H290 C308 0.951 . S
H291 C310 0.951 . S
H292 C312 0.950 . S
H293 C313 0.950 . S
H294 C315 0.950 . S
H295 C318 0.950 . S
H296 C319 0.950 . S
H297 C321 0.950 . S
H298 C322 0.950 . S
H299 C323 0.951 . S
H300 C325 0.951 . S
H301 C327 0.950 . S
H302 C328 0.950 . S
H303 C330 0.956 . S
H304 C333 0.950 . S
H305 C334 0.950 . S
H306 C336 0.950 . S
H307 C337 0.950 . S
C308 H290 0.951 . S
C308 C309 1.366 . S
C308 C310 1.388 . S
C309 C308 1.366 . S
C309 C313 1.385 . S
C310 H291 0.951 . S
C310 C308 1.388 . S
C310 C311 1.366 . S
C311 C310 1.366 . S
C311 C312 1.414 . S
C311 C314 1.499 . S
C312 H292 0.950 . S
C312 C311 1.414 . S
C312 C313 1.374 . S
C313 H293 0.950 . S
C313 C309 1.385 . S
C313 C312 1.374 . S
C314 C311 1.499 . S
C314 C315 1.373 . S
C314 C316 1.389 . S
C315 H294 0.950 . S
C315 C314 1.373 . S
C315 C331 1.377 1_455 S
C316 C314 1.389 . S
C316 C317 1.524 . S
C316 C330 1.361 1_455 S
C317 C316 1.524 . S
C317 C318 1.397 . S
C317 C322 1.363 . S
C318 H295 0.950 . S
C318 C317 1.397 . S
C318 C319 1.334 . S
C319 H296 0.950 . S
C319 C318 1.334 . S
C319 C320 1.287 . S
C320 C319 1.287 . S
C320 C321 1.524 . S
C320 H339 0.913 . S
C321 H297 0.950 . S
C321 C320 1.524 . S
C321 C322 1.415 . S
C322 H298 0.950 . S
C322 C317 1.363 . S
C322 C321 1.415 . S
C323 H299 0.951 . S
C323 C324 1.366 . S
C323 C325 1.388 . S
C324 C323 1.366 . S
C324 C328 1.385 . S
C325 H300 0.951 . S
C325 C323 1.388 . S
C325 C326 1.366 . S
C326 C325 1.366 . S
C326 C327 1.414 . S
C326 C329 1.499 . S
C327 H301 0.950 . S
C327 C326 1.414 . S
C327 C328 1.374 . S
C328 H302 0.950 . S
C328 C324 1.385 . S
C328 C327 1.374 . S
C329 C326 1.499 . S
C329 C330 1.383 . S
C329 C331 1.389 . S
C330 H303 0.956 . S
C330 C316 1.361 1_655 S
C330 C329 1.383 . S
C331 C315 1.377 1_655 S
C331 C329 1.389 . S
C331 C332 1.524 . S
C332 C331 1.524 . S
C332 C333 1.397 . S
C332 C337 1.363 . S
C333 H304 0.950 . S
C333 C332 1.397 . S
C333 C334 1.334 . S
C334 H305 0.950 . S
C334 C333 1.334 . S
C334 C335 1.287 . S
C335 C334 1.287 . S
C335 C336 1.524 . S
C335 H338 0.999 . S
C336 H306 0.950 . S
C336 C335 1.524 . S
C336 C337 1.415 . S
C337 H307 0.950 . S
C337 C332 1.363 . S
C337 C336 1.415 . S
H338 C335 0.999 . S
H339 C320 0.913 . S
H340 C358 0.951 . S
H341 C360 0.951 . S
H342 C362 0.950 . S
H343 C363 0.950 . S
H344 C365 0.950 . S
H345 C368 0.950 . S
H346 C369 0.950 . S
H347 C371 0.950 . S
H348 C372 0.950 . S
H349 C373 0.951 . S
H350 C375 0.951 . S
H351 C377 0.950 . S
H352 C378 0.950 . S
H353 C380 0.950 . S
H354 C383 0.950 . S
H355 C384 0.950 . S
H356 C386 0.950 . S
H357 C387 0.950 . S
C358 H340 0.951 . S
C358 C359 1.366 . S
C358 C360 1.388 . S
C359 C358 1.366 . S
C359 C363 1.385 . S
C360 H341 0.951 . S
C360 C358 1.388 . S
C360 C361 1.366 . S
C361 C360 1.366 . S
C361 C362 1.414 . S
C361 C364 1.499 . S
C362 H342 0.950 . S
C362 C361 1.414 . S
C362 C363 1.374 . S
C363 H343 0.950 . S
C363 C359 1.385 . S
C363 C362 1.374 . S
C364 C361 1.499 . S
C364 C365 1.373 . S
C364 C366 1.389 . S
C365 H344 0.950 . S
C365 C364 1.373 . S
C365 C381 1.377 1_545 S
C366 C364 1.389 . S
C366 C367 1.524 . S
C366 C380 1.377 1_545 S
C367 C366 1.524 . S
C367 C368 1.397 . S
C367 C372 1.363 . S
C368 H345 0.950 . S
C368 C367 1.397 . S
C368 C369 1.334 . S
C369 H346 0.950 . S
C369 C368 1.334 . S
C369 C370 1.287 . S
C370 C369 1.287 . S
C370 C371 1.524 . S
C370 H389 0.913 . S
C371 H347 0.950 . S
C371 C370 1.524 . S
C371 C372 1.415 . S
C372 H348 0.950 . S
C372 C367 1.363 . S
C372 C371 1.415 . S
C373 H349 0.951 . S
C373 C374 1.366 . S
C373 C375 1.388 . S
C374 C373 1.366 . S
C374 C378 1.385 . S
C375 H350 0.951 . S
C375 C373 1.388 . S
C375 C376 1.366 . S
C376 C375 1.366 . S
C376 C377 1.414 . S
C376 C379 1.499 . S
C377 H351 0.950 . S
C377 C376 1.414 . S
C377 C378 1.374 . S
C378 H352 0.950 . S
C378 C374 1.385 . S
C378 C377 1.374 . S
C379 C376 1.499 . S
C379 C380 1.373 . S
C379 C381 1.389 . S
C380 H353 0.950 . S
C380 C366 1.377 1_565 S
C380 C379 1.373 . S
C381 C365 1.377 1_565 S
C381 C379 1.389 . S
C381 C382 1.524 . S
C382 C381 1.524 . S
C382 C383 1.397 . S
C382 C387 1.363 . S
C383 H354 0.950 . S
C383 C382 1.397 . S
C383 C384 1.334 . S
C384 H355 0.950 . S
C384 C383 1.334 . S
C384 C385 1.287 . S
C385 C384 1.287 . S
C385 C386 1.524 . S
C385 H388 0.999 . S
C386 H356 0.950 . S
C386 C385 1.524 . S
C386 C387 1.415 . S
C387 H357 0.950 . S
C387 C382 1.363 . S
C387 C386 1.415 . S
H388 C385 0.999 . S
H389 C370 0.913 . S
H390 C408 0.951 . S
H391 C410 0.951 . S
H392 C412 0.950 . S
H393 C413 0.950 . S
H394 C415 0.950 . S
H395 C418 0.950 . S
H396 C419 0.950 . S
H397 C421 0.950 . S
H398 C422 0.950 . S
H399 C423 0.931 1_554 S
H400 C425 0.951 . S
H401 C427 0.950 . S
H402 C428 0.950 . S
H403 C430 0.950 . S
H404 C433 0.950 . S
H405 C434 0.950 . S
H406 C436 0.950 . S
H407 C437 0.950 . S
C408 H390 0.951 . S
C408 C409 1.366 . S
C408 C410 1.388 . S
C409 C408 1.366 . S
C409 C413 1.385 . S
C410 H391 0.951 . S
C410 C408 1.388 . S
C410 C411 1.366 . S
C411 C410 1.366 . S
C411 C412 1.414 . S
C411 C414 1.499 . S
C412 H392 0.950 . S
C412 C411 1.414 . S
C412 C413 1.374 . S
C413 H393 0.950 . S
C413 C409 1.385 . S
C413 C412 1.374 . S
C414 C411 1.499 . S
C414 C415 1.373 . S
C414 C416 1.389 . S
C415 H394 0.950 . S
C415 C414 1.373 . S
C415 C431 1.377 . S
C416 C414 1.389 . S
C416 C417 1.524 . S
C416 C430 1.377 . S
C417 C416 1.524 . S
C417 C418 1.397 . S
C417 C422 1.363 . S
C418 H395 0.950 . S
C418 C417 1.397 . S
C418 C419 1.334 . S
C419 H396 0.950 . S
C419 C418 1.334 . S
C419 C420 1.287 . S
C420 C419 1.287 . S
C420 C421 1.524 . S
C420 H439 0.913 . S
C421 H397 0.950 . S
C421 C420 1.524 . S
C421 C422 1.415 . S
C422 H398 0.950 . S
C422 C417 1.363 . S
C422 C421 1.415 . S
C423 H399 0.931 1_556 S
C423 C424 1.366 . S
C423 C425 1.388 . S
C424 C423 1.366 . S
C424 C428 1.385 . S
C425 H400 0.951 . S
C425 C423 1.388 . S
C425 C426 1.366 . S
C426 C425 1.366 . S
C426 C427 1.414 . S
C426 C429 1.499 . S
C427 H401 0.950 . S
C427 C426 1.414 . S
C427 C428 1.374 . S
C428 H402 0.950 . S
C428 C424 1.385 . S
C428 C427 1.374 . S
C429 C426 1.499 . S
C429 C430 1.373 . S
C429 C431 1.389 . S
C430 H403 0.950 . S
C430 C416 1.377 . S
C430 C429 1.373 . S
C431 C415 1.377 . S
C431 C429 1.389 . S
C431 C432 1.524 . S
C432 C431 1.524 . S
C432 C433 1.397 . S
C432 C437 1.363 . S
C433 H404 0.950 . S
C433 C432 1.397 . S
C433 C434 1.334 . S
C434 H405 0.950 . S
C434 C433 1.334 . S
C434 C435 1.287 . S
C435 C434 1.287 . S
C435 C436 1.524 . S
C435 H438 0.999 . S
C436 H406 0.950 . S
C436 C435 1.524 . S
C436 C437 1.415 . S
C437 H407 0.950 . S
C437 C432 1.363 . S
C437 C436 1.415 . S
H438 C435 0.999 . S
H439 C420 0.913 . S
H440 C458 0.951 . S
H441 C460 0.951 . S
H442 C462 0.950 . S
H443 C463 0.950 . S
H444 C465 0.950 . S
H445 C468 0.947 1_455 S
H446 C469 0.950 1_455 S
H447 C471 0.950 . S
H448 C472 0.950 . S
H449 C473 0.951 . S
H450 C475 0.951 . S
H451 C477 0.950 . S
H452 C478 0.950 . S
H453 C480 0.950 . S
H454 C483 0.950 . S
H455 C484 0.950 1_656 S
H456 C486 0.950 . S
H457 C487 0.950 . S
C458 H440 0.951 . S
C458 C459 1.366 . S
C458 C460 1.388 . S
C459 C458 1.366 . S
C459 C463 1.385 . S
C460 H441 0.951 . S
C460 C458 1.388 . S
C460 C461 1.366 . S
C461 C460 1.366 . S
C461 C462 1.414 . S
C461 C464 1.499 . S
C462 H442 0.950 . S
C462 C461 1.414 . S
C462 C463 1.374 . S
C463 H443 0.950 . S
C463 C459 1.385 . S
C463 C462 1.374 . S
C464 C461 1.499 . S
C464 C465 1.373 . S
C464 C466 1.389 1_455 S
C465 H444 0.950 . S
C465 C464 1.373 . S
C465 C481 1.377 . S
C466 C464 1.389 1_655 S
C466 C467 1.524 . S
C466 C480 1.377 . S
C467 C466 1.524 . S
C467 C468 1.399 . S
C467 C472 1.363 . S
C468 H445 0.947 1_655 S
C468 C467 1.399 . S
C468 C469 1.334 . S
C469 H446 0.950 1_655 S
C469 C468 1.334 . S
C469 C470 1.287 . S
C470 C469 1.287 . S
C470 C471 1.524 . S
C470 H489 0.913 . S
C471 H447 0.950 . S
C471 C470 1.524 . S
C471 C472 1.415 . S
C472 H448 0.950 . S
C472 C467 1.363 . S
C472 C471 1.415 . S
C473 H449 0.951 . S
C473 C474 1.366 . S
C473 C475 1.388 . S
C474 C473 1.366 . S
C474 C478 1.385 . S
C475 H450 0.951 . S
C475 C473 1.388 . S
C475 C476 1.366 . S
C476 C475 1.366 . S
C476 C477 1.414 . S
C476 C479 1.499 . S
C477 H451 0.950 . S
C477 C476 1.414 . S
C477 C478 1.374 . S
C478 H452 0.950 . S
C478 C474 1.385 . S
C478 C477 1.374 . S
C479 C476 1.499 . S
C479 C480 1.373 . S
C479 C481 1.389 1_655 S
C480 H453 0.950 . S
C480 C466 1.377 . S
C480 C479 1.373 . S
C481 C465 1.377 . S
C481 C479 1.389 1_455 S
C481 C482 1.524 . S
C482 C481 1.524 . S
C482 C483 1.397 1_455 S
C482 C487 1.363 . S
C483 H454 0.950 . S
C483 C482 1.397 1_655 S
C483 C484 1.334 1_655 S
C484 H455 0.950 1_454 S
C484 C483 1.334 1_455 S
C484 C485 1.287 1_554 S
C485 C484 1.287 1_556 S
C485 C486 1.524 1_556 S
C485 H488 0.999 . S
C486 H456 0.950 . S
C486 C485 1.524 1_554 S
C486 C487 1.415 . S
C487 H457 0.950 . S
C487 C482 1.363 . S
C487 C486 1.415 . S
H488 C485 0.999 . S
H489 C470 0.913 . S
H490 C508 0.951 . S
H491 C510 0.951 . S
H492 C512 0.950 . S
H493 C513 0.950 . S
H494 C515 0.950 . S
H495 C518 0.950 . S
H496 C519 0.950 . S
H497 C521 0.950 . S
H498 C522 0.950 1_565 S
H499 C523 0.951 . S
H500 C525 0.951 . S
H501 C527 0.950 . S
H502 C528 0.950 . S
H503 C530 0.950 . S
H504 C533 0.950 . S
H505 C534 0.950 . S
H506 C536 0.950 . S
H507 C537 0.950 1_545 S
C508 H490 0.951 . S
C508 C509 1.366 . S
C508 C510 1.388 . S
C509 C508 1.366 . S
C509 C513 1.385 . S
C510 H491 0.951 . S
C510 C508 1.388 . S
C510 C511 1.366 . S
C511 C510 1.366 . S
C511 C512 1.414 . S
C511 C514 1.499 . S
C512 H492 0.950 . S
C512 C511 1.414 . S
C512 C513 1.374 . S
C513 H493 0.950 . S
C513 C509 1.385 . S
C513 C512 1.374 . S
C514 C511 1.499 . S
C514 C515 1.373 . S
C514 C516 1.389 . S
C515 H494 0.950 . S
C515 C514 1.373 . S
C515 C531 1.377 1_545 S
C516 C514 1.389 . S
C516 C517 1.524 . S
C516 C530 1.377 1_545 S
C517 C516 1.524 . S
C517 C518 1.397 . S
C517 C522 1.363 . S
C518 H495 0.950 . S
C518 C517 1.397 . S
C518 C519 1.334 . S
C519 H496 0.950 . S
C519 C518 1.334 . S
C519 C520 1.287 . S
C520 C519 1.287 . S
C520 C521 1.524 . S
C520 H539 0.913 . S
C521 H497 0.950 . S
C521 C520 1.524 . S
C521 C522 1.415 . S
C522 H498 0.950 1_545 S
C522 C517 1.363 . S
C522 C521 1.415 . S
C523 H499 0.951 . S
C523 C524 1.366 . S
C523 C525 1.388 . S
C524 C523 1.366 . S
C524 C528 1.385 . S
C525 H500 0.951 . S
C525 C523 1.388 . S
C525 C526 1.366 . S
C526 C525 1.366 . S
C526 C527 1.414 . S
C526 C529 1.499 . S
C527 H501 0.950 . S
C527 C526 1.414 . S
C527 C528 1.374 . S
C528 H502 0.950 . S
C528 C524 1.385 . S
C528 C527 1.374 . S
C529 C526 1.499 . S
C529 C530 1.373 . S
C529 C531 1.389 . S
C530 H503 0.950 . S
C530 C516 1.377 1_565 S
C530 C529 1.373 . S
C531 C515 1.377 1_565 S
C531 C529 1.389 . S
C531 C532 1.524 . S
C532 C531 1.524 . S
C532 C533 1.397 . S
C532 C537 1.363 . S
C533 H504 0.950 . S
C533 C532 1.397 . S
C533 C534 1.334 . S
C534 H505 0.950 . S
C534 C533 1.334 . S
C534 C535 1.287 . S
C535 C534 1.287 . S
C535 C536 1.524 . S
C535 H538 0.999 . S
C536 H506 0.950 . S
C536 C535 1.524 . S
C536 C537 1.415 . S
C537 H507 0.950 1_565 S
C537 C532 1.363 . S
C537 C536 1.415 . S
H538 C535 0.999 . S
H539 C520 0.913 . S
H540 C558 0.951 . S
H541 C560 0.951 . S
H542 C562 0.950 . S
H543 C563 0.950 . S
H544 C565 0.950 . S
H545 C568 0.950 . S
H546 C569 0.950 . S
H547 C571 0.950 . S
H548 C572 0.950 . S
H549 C573 0.951 . S
H550 C575 0.951 . S
H551 C577 0.950 . S
H552 C578 0.950 . S
H553 C580 0.950 . S
H554 C583 0.950 . S
H555 C584 0.950 . S
H556 C586 0.950 . S
H557 C587 0.950 . S
C558 H540 0.951 . S
C558 C559 1.366 . S
C558 C560 1.388 . S
C559 C558 1.366 . S
C559 C563 1.385 . S
C560 H541 0.951 . S
C560 C558 1.388 . S
C560 C561 1.366 . S
C561 C560 1.366 . S
C561 C562 1.414 . S
C561 C564 1.499 . S
C562 H542 0.950 . S
C562 C561 1.414 . S
C562 C563 1.374 . S
C563 H543 0.950 . S
C563 C559 1.385 . S
C563 C562 1.374 . S
C564 C561 1.499 . S
C564 C565 1.373 . S
C564 C566 1.389 . S
C565 H544 0.950 . S
C565 C564 1.373 . S
C565 C581 1.377 . S
C566 C564 1.389 . S
C566 C567 1.524 . S
C566 C580 1.377 . S
C567 C566 1.524 . S
C567 C568 1.397 . S
C567 C572 1.363 . S
C568 H545 0.950 . S
C568 C567 1.397 . S
C568 C569 1.334 . S
C569 H546 0.950 . S
C569 C568 1.334 . S
C569 C570 1.287 . S
C570 C569 1.287 . S
C570 C571 1.524 . S
C570 H589 0.913 . S
C571 H547 0.950 . S
C571 C570 1.524 . S
C571 C572 1.415 . S
C572 H548 0.950 . S
C572 C567 1.363 . S
C572 C571 1.415 . S
C573 H549 0.951 . S
C573 C574 1.366 . S
C573 C575 1.388 . S
C574 C573 1.366 . S
C574 C578 1.385 . S
C575 H550 0.951 . S
C575 C573 1.388 . S
C575 C576 1.366 . S
C576 C575 1.366 . S
C576 C577 1.414 . S
C576 C579 1.499 . S
C577 H551 0.950 . S
C577 C576 1.414 . S
C577 C578 1.374 . S
C578 H552 0.950 . S
C578 C574 1.385 . S
C578 C577 1.374 . S
C579 C576 1.499 . S
C579 C580 1.373 . S
C579 C581 1.389 . S
C580 H553 0.950 . S
C580 C566 1.377 . S
C580 C579 1.373 . S
C581 C565 1.377 . S
C581 C579 1.389 . S
C581 C582 1.524 . S
C582 C581 1.524 . S
C582 C583 1.397 . S
C582 C587 1.363 . S
C583 H554 0.950 . S
C583 C582 1.397 . S
C583 C584 1.334 . S
C584 H555 0.950 . S
C584 C583 1.334 . S
C584 C585 1.287 . S
C585 C584 1.287 . S
C585 C586 1.524 . S
C585 H588 0.999 . S
C586 H556 0.950 . S
C586 C585 1.524 . S
C586 C587 1.415 . S
C587 H557 0.950 . S
C587 C582 1.363 . S
C587 C586 1.415 . S
H588 C585 0.999 . S
H589 C570 0.913 . S
H590 C608 0.951 . S
H591 C610 0.951 . S
H592 C612 0.950 . S
H593 C613 0.950 1_554 S
H594 C615 0.950 . S
H595 C618 0.950 . S
H596 C619 0.950 . S
H597 C621 0.950 . S
H598 C622 0.950 . S
H599 C623 0.951 . S
H600 C625 0.951 . S
H601 C627 0.950 . S
H602 C628 0.950 . S
H603 C630 0.950 . S
H604 C633 0.950 . S
H605 C634 0.950 . S
H606 C636 0.950 . S
H607 C637 0.950 . S
C608 H590 0.951 . S
C608 C609 1.366 1_556 S
C608 C610 1.388 . S
C609 C608 1.366 1_554 S
C609 C613 1.385 1_554 S
C610 H591 0.951 . S
C610 C608 1.388 . S
C610 C611 1.366 . S
C611 C610 1.366 . S
C611 C612 1.414 . S
C611 C614 1.499 . S
C612 H592 0.950 . S
C612 C611 1.414 . S
C612 C613 1.374 . S
C613 H593 0.950 1_556 S
C613 C609 1.385 1_556 S
C613 C612 1.374 . S
C614 C611 1.499 . S
C614 C615 1.373 . S
C614 C616 1.389 . S
C615 H594 0.950 . S
C615 C614 1.373 . S
C615 C631 1.377 . S
C616 C614 1.389 . S
C616 C617 1.524 . S
C616 C630 1.377 . S
C617 C616 1.524 . S
C617 C618 1.397 . S
C617 C622 1.363 . S
C618 H595 0.950 . S
C618 C617 1.397 . S
C618 C619 1.334 . S
C619 H596 0.950 . S
C619 C618 1.334 . S
C619 C620 1.287 . S
C620 C619 1.287 . S
C620 C621 1.524 . S
C620 H639 0.913 . S
C621 H597 0.950 . S
C621 C620 1.524 . S
C621 C622 1.415 . S
C622 H598 0.950 . S
C622 C617 1.363 . S
C622 C621 1.415 . S
C623 H599 0.951 . S
C623 C624 1.366 . S
C623 C625 1.388 . S
C624 C623 1.366 . S
C624 C628 1.385 . S
C625 H600 0.951 . S
C625 C623 1.388 . S
C625 C626 1.366 . S
C626 C625 1.366 . S
C626 C627 1.414 . S
C626 C629 1.499 . S
C627 H601 0.950 . S
C627 C626 1.414 . S
C627 C628 1.374 . S
C628 H602 0.950 . S
C628 C624 1.385 . S
C628 C627 1.374 . S
C629 C626 1.499 . S
C629 C630 1.373 . S
C629 C631 1.389 . S
C630 H603 0.950 . S
C630 C616 1.377 . S
C630 C629 1.373 . S
C631 C615 1.377 . S
C631 C629 1.389 . S
C631 C632 1.524 . S
C632 C631 1.524 . S
C632 C633 1.397 . S
C632 C637 1.363 . S
C633 H604 0.950 . S
C633 C632 1.397 . S
C633 C634 1.334 . S
C634 H605 0.950 . S
C634 C633 1.334 . S
C634 C635 1.287 . S
C635 C634 1.287 . S
C635 C636 1.524 . S
C635 H638 0.999 . S
C636 H606 0.950 . S
C636 C635 1.524 . S
C636 C637 1.415 . S
C637 H607 0.950 . S
C637 C632 1.363 . S
C637 C636 1.415 . S
H638 C635 0.999 . S
H639 C620 0.913 . S
H640 C658 0.951 . S
H641 C660 0.951 . S
H642 C662 0.950 . S
H643 C663 0.950 . S
H644 C665 0.950 . S
H645 C668 0.950 . S
H646 C669 0.950 . S
H647 C671 0.950 . S
H648 C672 0.950 . S
H649 C673 0.951 . S
H650 C675 0.951 . S
H651 C677 0.950 . S
H652 C678 0.950 . S
H653 C680 0.950 . S
H654 C683 0.950 . S
H655 C684 0.950 . S
H656 C686 0.950 . S
H657 C687 0.950 . S
C658 H640 0.951 . S
C658 C659 1.366 . S
C658 C660 1.388 . S
C659 C658 1.366 . S
C659 C663 1.385 . S
C660 H641 0.951 . S
C660 C658 1.388 . S
C660 C661 1.366 . S
C661 C660 1.366 . S
C661 C662 1.414 . S
C661 C664 1.499 . S
C662 H642 0.950 . S
C662 C661 1.414 . S
C662 C663 1.374 . S
C663 H643 0.950 . S
C663 C659 1.385 . S
C663 C662 1.374 . S
C664 C661 1.499 . S
C664 C665 1.373 . S
C664 C666 1.389 . S
C665 H644 0.950 . S
C665 C664 1.373 . S
C665 C681 1.377 . S
C666 C664 1.389 . S
C666 C667 1.524 . S
C666 C680 1.377 . S
C667 C666 1.524 . S
C667 C668 1.397 . S
C667 C672 1.363 . S
C668 H645 0.950 . S
C668 C667 1.397 . S
C668 C669 1.334 . S
C669 H646 0.950 . S
C669 C668 1.334 . S
C669 C670 1.287 . S
C670 C669 1.287 . S
C670 C671 1.524 . S
C670 H689 0.913 . S
C671 H647 0.950 . S
C671 C670 1.524 . S
C671 C672 1.415 . S
C672 H648 0.950 . S
C672 C667 1.363 . S
C672 C671 1.415 . S
C673 H649 0.951 . S
C673 C674 1.366 . S
C673 C675 1.388 1_556 S
C674 C673 1.366 . S
C674 C678 1.385 1_556 S
C675 H650 0.951 . S
C675 C673 1.388 1_554 S
C675 C676 1.366 . S
C676 C675 1.366 . S
C676 C677 1.414 . S
C676 C679 1.499 . S
C677 H651 0.950 . S
C677 C676 1.414 . S
C677 C678 1.374 . S
C678 H652 0.950 . S
C678 C674 1.385 1_554 S
C678 C677 1.374 . S
C679 C676 1.499 . S
C679 C680 1.373 . S
C679 C681 1.389 . S
C680 H653 0.950 . S
C680 C666 1.377 . S
C680 C679 1.373 . S
C681 C665 1.377 . S
C681 C679 1.389 . S
C681 C682 1.524 . S
C682 C681 1.524 . S
C682 C683 1.397 . S
C682 C687 1.363 . S
C683 H654 0.950 . S
C683 C682 1.397 . S
C683 C684 1.334 . S
C684 H655 0.950 . S
C684 C683 1.334 . S
C684 C685 1.287 . S
C685 C684 1.287 . S
C685 C686 1.524 . S
C685 H688 0.999 . S
C686 H656 0.950 . S
C686 C685 1.524 . S
C686 C687 1.415 . S
C687 H657 0.950 . S
C687 C682 1.363 . S
C687 C686 1.415 . S
H688 C685 0.999 . S
H689 C670 0.913 . S
H690 C708 0.951 . S
H691 C710 0.951 . S
H692 C712 0.950 . S
H693 C713 0.950 . S
H694 C715 0.950 . S
H695 C718 0.950 . S
H696 C719 0.950 . S
H697 C721 0.950 . S
H698 C722 0.950 . S
H699 C723 0.951 . S
H700 C725 0.951 . S
H701 C727 0.950 . S
H702 C728 0.950 . S
H703 C730 0.950 . S
H704 C733 0.950 . S
H705 C734 0.950 . S
H706 C736 0.950 . S
H707 C737 0.950 . S
C708 H690 0.951 . S
C708 C709 1.366 . S
C708 C710 1.388 . S
C709 C708 1.366 . S
C709 C713 1.385 . S
C710 H691 0.951 . S
C710 C708 1.388 . S
C710 C711 1.366 . S
C711 C710 1.366 . S
C711 C712 1.414 . S
C711 C714 1.499 . S
C712 H692 0.950 . S
C712 C711 1.414 . S
C712 C713 1.374 . S
C713 H693 0.950 . S
C713 C709 1.385 . S
C713 C712 1.374 . S
C714 C711 1.499 . S
C714 C715 1.373 . S
C714 C716 1.389 . S
C715 H694 0.950 . S
C715 C714 1.373 . S
C715 C731 1.377 . S
C716 C714 1.389 . S
C716 C717 1.524 . S
C716 C730 1.377 . S
C717 C716 1.524 . S
C717 C718 1.397 . S
C717 C722 1.363 . S
C718 H695 0.950 . S
C718 C717 1.397 . S
C718 C719 1.334 . S
C719 H696 0.950 . S
C719 C718 1.334 . S
C719 C720 1.287 . S
C720 C719 1.287 . S
C720 C721 1.524 . S
C720 H739 0.913 . S
C721 H697 0.950 . S
C721 C720 1.524 . S
C721 C722 1.415 . S
C722 H698 0.950 . S
C722 C717 1.363 . S
C722 C721 1.415 . S
C723 H699 0.951 . S
C723 C724 1.366 . S
C723 C725 1.388 . S
C724 C723 1.366 . S
C724 C728 1.385 . S
C725 H700 0.951 . S
C725 C723 1.388 . S
C725 C726 1.366 . S
C726 C725 1.366 . S
C726 C727 1.414 . S
C726 C729 1.499 . S
C727 H701 0.950 . S
C727 C726 1.414 . S
C727 C728 1.374 . S
C728 H702 0.950 . S
C728 C724 1.385 . S
C728 C727 1.374 . S
C729 C726 1.499 . S
C729 C730 1.373 . S
C729 C731 1.389 . S
C730 H703 0.950 . S
C730 C716 1.377 . S
C730 C729 1.373 . S
C731 C715 1.377 . S
C731 C729 1.389 . S
C731 C732 1.524 . S
C732 C731 1.524 . S
C732 C733 1.397 . S
C732 C737 1.363 . S
C733 H704 0.950 . S
C733 C732 1.397 . S
C733 C734 1.334 . S
C734 H705 0.950 . S
C734 C733 1.334 . S
C734 C735 1.287 . S
C735 C734 1.287 . S
C735 C736 1.524 . S
C735 H738 0.999 . S
C736 H706 0.950 . S
C736 C735 1.524 . S
C736 C737 1.415 . S
C737 H707 0.950 . S
C737 C732 1.363 . S
C737 C736 1.415 . S
H738 C735 0.999 . S
H739 C720 0.913 . S
H740 C758 0.951 . S
H741 C760 0.951 . S
H742 C762 0.950 . S
H743 C763 0.950 . S
H744 C765 0.950 . S
H745 C768 0.950 . S
H746 C769 0.950 . S
H747 C771 0.950 . S
H748 C772 0.950 . S
H749 C773 0.951 . S
H750 C775 0.951 . S
H751 C777 0.950 . S
H752 C778 0.961 . S
H753 C780 0.950 . S
H754 C783 0.950 . S
H755 C784 0.950 . S
H756 C786 0.950 . S
H757 C787 0.950 . S
C758 H740 0.951 . S
C758 C759 1.366 . S
C758 C760 1.388 . S
C759 C758 1.366 . S
C759 C763 1.385 . S
C760 H741 0.951 . S
C760 C758 1.388 . S
C760 C761 1.366 . S
C761 C760 1.366 . S
C761 C762 1.414 . S
C761 C764 1.499 . S
C762 H742 0.950 . S
C762 C761 1.414 . S
C762 C763 1.374 . S
C763 H743 0.950 . S
C763 C759 1.385 . S
C763 C762 1.374 . S
C764 C761 1.499 . S
C764 C765 1.373 . S
C764 C766 1.389 . S
C765 H744 0.950 . S
C765 C764 1.373 . S
C765 C781 1.377 . S
C766 C764 1.389 . S
C766 C767 1.524 . S
C766 C780 1.377 . S
C767 C766 1.524 . S
C767 C768 1.397 . S
C767 C772 1.363 . S
C768 H745 0.950 . S
C768 C767 1.397 . S
C768 C769 1.334 . S
C769 H746 0.950 . S
C769 C768 1.334 . S
C769 C770 1.287 . S
C770 C769 1.287 . S
C770 C771 1.524 . S
C770 H789 0.913 . S
C771 H747 0.950 . S
C771 C770 1.524 . S
C771 C772 1.415 . S
C772 H748 0.950 . S
C772 C767 1.363 . S
C772 C771 1.415 . S
C773 H749 0.951 . S
C773 C774 1.366 1_556 S
C773 C775 1.388 . S
C774 C773 1.366 1_554 S
C774 C778 1.389 . S
C775 H750 0.951 . S
C775 C773 1.388 . S
C775 C776 1.366 . S
C776 C775 1.366 . S
C776 C777 1.414 . S
C776 C779 1.499 . S
C777 H751 0.950 . S
C777 C776 1.414 . S
C777 C778 1.358 1_556 S
C778 H752 0.961 . S
C778 C774 1.389 . S
C778 C777 1.358 1_554 S
C779 C776 1.499 . S
C779 C780 1.373 . S
C779 C781 1.389 . S
C780 H753 0.950 . S
C780 C766 1.377 . S
C780 C779 1.373 . S
C781 C765 1.377 . S
C781 C779 1.389 . S
C781 C782 1.524 . S
C782 C781 1.524 . S
C782 C783 1.397 . S
C782 C787 1.363 . S
C783 H754 0.950 . S
C783 C782 1.397 . S
C783 C784 1.334 . S
C784 H755 0.950 . S
C784 C783 1.334 . S
C784 C785 1.287 . S
C785 C784 1.287 . S
C785 C786 1.524 . S
C785 H788 0.999 . S
C786 H756 0.950 . S
C786 C785 1.524 . S
C786 C787 1.415 . S
C787 H757 0.950 . S
C787 C782 1.363 . S
C787 C786 1.415 . S
H788 C785 0.999 . S
H789 C770 0.913 . S
H790 C808 0.951 . S
H791 C810 0.951 . S
H792 C812 0.950 . S
H793 C813 0.950 . S
H794 C815 0.950 . S
H795 C818 0.950 . S
H796 C819 0.950 . S
H797 C821 0.950 . S
H798 C822 0.950 . S
H799 C823 0.951 . S
H800 C825 0.951 . S
H801 C827 0.950 . S
H802 C828 0.950 . S
H803 C830 0.950 . S
H804 C833 0.950 . S
H805 C834 0.950 . S
H806 C836 0.950 . S
H807 C837 0.950 . S
C808 H790 0.951 . S
C808 C809 1.366 . S
C808 C810 1.388 . S
C809 C808 1.366 . S
C809 C813 1.385 . S
C810 H791 0.951 . S
C810 C808 1.388 . S
C810 C811 1.366 . S
C811 C810 1.366 . S
C811 C812 1.414 . S
C811 C814 1.499 . S
C812 H792 0.950 . S
C812 C811 1.414 . S
C812 C813 1.374 . S
C813 H793 0.950 . S
C813 C809 1.385 . S
C813 C812 1.374 . S
C814 C811 1.499 . S
C814 C815 1.373 . S
C814 C816 1.389 . S
C815 H794 0.950 . S
C815 C814 1.373 . S
C815 C831 1.377 . S
C816 C814 1.389 . S
C816 C817 1.524 . S
C816 C830 1.377 . S
C817 C816 1.524 . S
C817 C818 1.397 . S
C817 C822 1.363 . S
C818 H795 0.950 . S
C818 C817 1.397 . S
C818 C819 1.334 . S
C819 H796 0.950 . S
C819 C818 1.334 . S
C819 C820 1.287 . S
C820 C819 1.287 . S
C820 C821 1.524 . S
C820 H839 0.913 . S
C821 H797 0.950 . S
C821 C820 1.524 . S
C821 C822 1.415 . S
C822 H798 0.950 . S
C822 C817 1.363 . S
C822 C821 1.415 . S
C823 H799 0.951 . S
C823 C824 1.366 1_554 S
C823 C825 1.388 . S
C824 C823 1.366 1_556 S
C824 C828 1.385 . S
C825 H800 0.951 . S
C825 C823 1.388 . S
C825 C826 1.366 . S
C826 C825 1.366 . S
C826 C827 1.414 . S
C826 C829 1.499 . S
C827 H801 0.950 . S
C827 C826 1.414 . S
C827 C828 1.374 1_554 S
C828 H802 0.950 . S
C828 C824 1.385 . S
C828 C827 1.374 1_556 S
C829 C826 1.499 . S
C829 C830 1.373 . S
C829 C831 1.389 . S
C830 H803 0.950 . S
C830 C816 1.377 . S
C830 C829 1.373 . S
C831 C815 1.377 . S
C831 C829 1.389 . S
C831 C832 1.524 . S
C832 C831 1.524 . S
C832 C833 1.397 . S
C832 C837 1.363 . S
C833 H804 0.950 . S
C833 C832 1.397 . S
C833 C834 1.334 . S
C834 H805 0.950 . S
C834 C833 1.334 . S
C834 C835 1.287 . S
C835 C834 1.287 . S
C835 C836 1.524 . S
C835 H838 0.999 . S
C836 H806 0.950 . S
C836 C835 1.524 . S
C836 C837 1.415 . S
C837 H807 0.950 . S
C837 C832 1.363 . S
C837 C836 1.415 . S
H838 C835 0.999 . S
H839 C820 0.913 . S
H840 C858 0.951 . S
H841 C860 0.951 . S
H842 C862 0.950 . S
H843 C863 0.950 . S
H844 C865 0.950 . S
H845 C868 0.950 . S
H846 C869 0.950 . S
H847 C871 0.950 . S
H848 C872 0.950 . S
H849 C873 0.951 . S
H850 C875 0.951 . S
H851 C877 0.950 . S
H852 C878 0.950 . S
H853 C880 0.950 . S
H854 C883 0.950 . S
H855 C884 0.950 . S
H856 C886 0.950 . S
H857 C887 0.950 . S
C858 H840 0.951 . S
C858 C859 1.366 . S
C858 C860 1.388 . S
C859 C858 1.366 . S
C859 C863 1.385 . S
C860 H841 0.951 . S
C860 C858 1.388 . S
C860 C861 1.366 . S
C861 C860 1.366 . S
C861 C862 1.414 . S
C861 C864 1.499 . S
C862 H842 0.950 . S
C862 C861 1.414 . S
C862 C863 1.374 . S
C863 H843 0.950 . S
C863 C859 1.385 . S
C863 C862 1.374 . S
C864 C861 1.499 . S
C864 C865 1.373 . S
C864 C866 1.389 . S
C865 H844 0.950 . S
C865 C864 1.373 . S
C865 C881 1.377 . S
C866 C864 1.389 . S
C866 C867 1.524 . S
C866 C880 1.377 . S
C867 C866 1.524 . S
C867 C868 1.397 . S
C867 C872 1.363 . S
C868 H845 0.950 . S
C868 C867 1.397 . S
C868 C869 1.334 . S
C869 H846 0.950 . S
C869 C868 1.334 . S
C869 C870 1.287 . S
C870 C869 1.287 . S
C870 C871 1.524 . S
C870 H889 0.913 . S
C871 H847 0.950 . S
C871 C870 1.524 . S
C871 C872 1.415 . S
C872 H848 0.950 . S
C872 C867 1.363 . S
C872 C871 1.415 . S
C873 H849 0.951 . S
C873 C874 1.366 . S
C873 C875 1.388 . S
C874 C873 1.366 . S
C874 C878 1.385 . S
C875 H850 0.951 . S
C875 C873 1.388 . S
C875 C876 1.366 . S
C876 C875 1.366 . S
C876 C877 1.414 . S
C876 C879 1.499 . S
C877 H851 0.950 . S
C877 C876 1.414 . S
C877 C878 1.374 . S
C878 H852 0.950 . S
C878 C874 1.385 . S
C878 C877 1.374 . S
C879 C876 1.499 . S
C879 C880 1.373 . S
C879 C881 1.389 . S
C880 H853 0.950 . S
C880 C866 1.377 . S
C880 C879 1.373 . S
C881 C865 1.377 . S
C881 C879 1.389 . S
C881 C882 1.524 . S
C882 C881 1.524 . S
C882 C883 1.397 . S
C882 C887 1.363 . S
C883 H854 0.950 . S
C883 C882 1.397 . S
C883 C884 1.334 . S
C884 H855 0.950 . S
C884 C883 1.334 . S
C884 C885 1.287 . S
C885 C884 1.287 . S
C885 C886 1.524 . S
C885 H888 0.999 . S
C886 H856 0.950 . S
C886 C885 1.524 . S
C886 C887 1.415 . S
C887 H857 0.950 . S
C887 C882 1.363 . S
C887 C886 1.415 . S
H888 C885 0.999 . S
H889 C870 0.913 . S
H890 C908 0.951 . S
H891 C910 0.951 . S
H892 C912 0.950 . S
H893 C913 0.950 . S
H894 C915 0.950 . S
H895 C918 0.950 . S
H896 C919 0.950 . S
H897 C921 0.950 . S
H898 C922 0.950 . S
H899 C923 0.951 . S
H900 C925 0.951 . S
H901 C927 0.950 . S
H902 C928 0.950 . S
H903 C930 0.950 . S
H904 C933 0.950 . S
H905 C934 0.950 . S
H906 C936 0.950 . S
H907 C937 0.950 . S
C908 H890 0.951 . S
C908 C909 1.366 . S
C908 C910 1.388 . S
C909 C908 1.366 . S
C909 C913 1.385 . S
C910 H891 0.951 . S
C910 C908 1.388 . S
C910 C911 1.366 . S
C911 C910 1.366 . S
C911 C912 1.414 . S
C911 C914 1.499 . S
C912 H892 0.950 . S
C912 C911 1.414 . S
C912 C913 1.374 . S
C913 H893 0.950 . S
C913 C909 1.385 . S
C913 C912 1.374 . S
C914 C911 1.499 . S
C914 C915 1.373 . S
C914 C916 1.389 . S
C915 H894 0.950 . S
C915 C914 1.373 . S
C915 C931 1.377 . S
C916 C914 1.389 . S
C916 C917 1.524 . S
C916 C930 1.377 . S
C917 C916 1.524 . S
C917 C918 1.397 . S
C917 C922 1.363 . S
C918 H895 0.950 . S
C918 C917 1.397 . S
C918 C919 1.334 . S
C919 H896 0.950 . S
C919 C918 1.334 . S
C919 C920 1.287 . S
C920 C919 1.287 . S
C920 C921 1.524 . S
C920 H939 0.913 . S
C921 H897 0.950 . S
C921 C920 1.524 . S
C921 C922 1.415 . S
C922 H898 0.950 . S
C922 C917 1.363 . S
C922 C921 1.415 . S
C923 H899 0.951 . S
C923 C924 1.366 . S
C923 C925 1.388 . S
C924 C923 1.366 . S
C924 C928 1.385 . S
C925 H900 0.951 . S
C925 C923 1.388 . S
C925 C926 1.366 . S
C926 C925 1.366 . S
C926 C927 1.414 . S
C926 C929 1.499 . S
C927 H901 0.950 . S
C927 C926 1.414 . S
C927 C928 1.374 . S
C928 H902 0.950 . S
C928 C924 1.385 . S
C928 C927 1.374 . S
C929 C926 1.499 . S
C929 C930 1.373 . S
C929 C931 1.389 . S
C930 H903 0.950 . S
C930 C916 1.377 . S
C930 C929 1.373 . S
C931 C915 1.377 . S
C931 C929 1.389 . S
C931 C932 1.524 . S
C932 C931 1.524 . S
C932 C933 1.397 . S
C932 C937 1.363 . S
C933 H904 0.950 . S
C933 C932 1.397 . S
C933 C934 1.334 . S
C934 H905 0.950 . S
C934 C933 1.334 . S
C934 C935 1.287 . S
C935 C934 1.287 . S
C935 C936 1.524 . S
C935 H938 0.999 . S
C936 H906 0.950 . S
C936 C935 1.524 . S
C936 C937 1.415 . S
C937 H907 0.950 . S
C937 C932 1.363 . S
C937 C936 1.415 . S
H938 C935 0.999 . S
H939 C920 0.913 . S
H940 C958 0.951 . S
H941 C960 0.951 . S
H942 C962 0.950 . S
H943 C963 0.950 . S
H944 C965 0.950 . S
H945 C968 0.950 . S
H946 C969 0.950 . S
H947 C971 0.950 . S
H948 C972 0.950 . S
H949 C973 0.951 . S
H950 C975 0.951 . S
H951 C977 0.950 . S
H952 C978 0.950 . S
H953 C980 0.950 . S
H954 C983 0.950 . S
H955 C984 0.950 . S
H956 C986 0.950 . S
H957 C987 0.950 . S
C958 H940 0.951 . S
C958 C959 1.366 . S
C958 C960 1.388 . S
C959 C958 1.366 . S
C959 C963 1.385 . S
C960 H941 0.951 . S
C960 C958 1.388 . S
C960 C961 1.366 . S
C961 C960 1.366 . S
C961 C962 1.414 . S
C961 C964 1.499 . S
C962 H942 0.950 . S
C962 C961 1.414 . S
C962 C963 1.374 . S
C963 H943 0.950 . S
C963 C959 1.385 . S
C963 C962 1.374 . S
C964 C961 1.499 . S
C964 C965 1.373 . S
C964 C966 1.389 . S
C965 H944 0.950 . S
C965 C964 1.373 . S
C965 C981 1.377 . S
C966 C964 1.389 . S
C966 C967 1.524 . S
C966 C980 1.377 . S
C967 C966 1.524 . S
C967 C968 1.397 . S
C967 C972 1.363 . S
C968 H945 0.950 . S
C968 C967 1.397 . S
C968 C969 1.334 . S
C969 H946 0.950 . S
C969 C968 1.334 . S
C969 C970 1.287 . S
C970 C969 1.287 . S
C970 C971 1.524 . S
C970 H989 0.913 . S
C971 H947 0.950 . S
C971 C970 1.524 . S
C971 C972 1.415 . S
C972 H948 0.950 . S
C972 C967 1.363 . S
C972 C971 1.415 . S
C973 H949 0.951 . S
C973 C974 1.366 . S
C973 C975 1.388 . S
C974 C973 1.366 . S
C974 C978 1.385 . S
C975 H950 0.951 . S
C975 C973 1.388 . S
C975 C976 1.366 . S
C976 C975 1.366 . S
C976 C977 1.414 . S
C976 C979 1.499 . S
C977 H951 0.950 . S
C977 C976 1.414 . S
C977 C978 1.374 . S
C978 H952 0.950 . S
C978 C974 1.385 . S
C978 C977 1.374 . S
C979 C976 1.499 . S
C979 C980 1.373 . S
C979 C981 1.389 . S
C980 H953 0.950 . S
C980 C966 1.377 . S
C980 C979 1.373 . S
C981 C965 1.377 . S
C981 C979 1.389 . S
C981 C982 1.524 . S
C982 C981 1.524 . S
C982 C983 1.397 . S
C982 C987 1.363 . S
C983 H954 0.950 . S
C983 C982 1.397 . S
C983 C984 1.334 . S
C984 H955 0.950 . S
C984 C983 1.334 . S
C984 C985 1.287 . S
C985 C984 1.287 . S
C985 C986 1.524 . S
C985 H988 0.999 . S
C986 H956 0.950 . S
C986 C985 1.524 . S
C986 C987 1.415 . S
C987 H957 0.950 . S
C987 C982 1.363 . S
C987 C986 1.415 . S
H988 C985 0.999 . S
H989 C970 0.913 . S
H990 C1008 0.951 . S
H991 C1010 0.951 . S
H992 C1012 0.950 . S
H993 C1013 0.950 . S
H994 C1015 0.950 . S
H995 C1018 0.950 . S
H996 C1019 0.950 . S
H997 C1021 0.950 . S
H998 C1022 0.950 . S
H999 C1023 0.951 . S
H1000 C1025 0.951 . S
H1001 C1027 0.950 . S
H1002 C1028 0.950 . S
H1003 C1030 0.950 . S
H1004 C1033 0.950 . S
H1005 C1034 0.950 1_556 S
H1006 C1036 0.950 . S
H1007 C1037 0.950 . S
C1008 H990 0.951 . S
C1008 C1009 1.366 . S
C1008 C1010 1.388 . S
C1009 C1008 1.366 . S
C1009 C1013 1.385 . S
C1010 H991 0.951 . S
C1010 C1008 1.388 . S
C1010 C1011 1.366 . S
C1011 C1010 1.366 . S
C1011 C1012 1.414 . S
C1011 C1014 1.499 . S
C1012 H992 0.950 . S
C1012 C1011 1.414 . S
C1012 C1013 1.374 . S
C1013 H993 0.950 . S
C1013 C1009 1.385 . S
C1013 C1012 1.374 . S
C1014 C1011 1.499 . S
C1014 C1015 1.373 . S
C1014 C1016 1.389 . S
C1015 H994 0.950 . S
C1015 C1014 1.373 . S
C1015 C1031 1.377 . S
C1016 C1014 1.389 . S
C1016 C1017 1.524 . S
C1016 C1030 1.377 . S
C1017 C1016 1.524 . S
C1017 C1018 1.397 . S
C1017 C1022 1.363 . S
C1018 H995 0.950 . S
C1018 C1017 1.397 . S
C1018 C1019 1.334 . S
C1019 H996 0.950 . S
C1019 C1018 1.334 . S
C1019 C1020 1.287 . S
C1020 C1019 1.287 . S
C1020 C1021 1.524 . S
C1020 H1039 0.913 . S
C1021 H997 0.950 . S
C1021 C1020 1.524 . S
C1021 C1022 1.415 . S
C1022 H998 0.950 . S
C1022 C1017 1.363 . S
C1022 C1021 1.415 . S
C1023 H999 0.951 . S
C1023 C1024 1.366 . S
C1023 C1025 1.388 . S
C1024 C1023 1.366 . S
C1024 C1028 1.385 . S
C1025 H1000 0.951 . S
C1025 C1023 1.388 . S
C1025 C1026 1.366 . S
C1026 C1025 1.366 . S
C1026 C1027 1.414 . S
C1026 C1029 1.499 . S
C1027 H1001 0.950 . S
C1027 C1026 1.414 . S
C1027 C1028 1.374 . S
C1028 H1002 0.950 . S
C1028 C1024 1.385 . S
C1028 C1027 1.374 . S
C1029 C1026 1.499 . S
C1029 C1030 1.373 . S
C1029 C1031 1.389 . S
C1030 H1003 0.950 . S
C1030 C1016 1.377 . S
C1030 C1029 1.373 . S
C1031 C1015 1.377 . S
C1031 C1029 1.389 . S
C1031 C1032 1.524 . S
C1032 C1031 1.524 . S
C1032 C1033 1.397 . S
C1032 C1037 1.363 . S
C1033 H1004 0.950 . S
C1033 C1032 1.397 . S
C1033 C1034 1.334 . S
C1034 H1005 0.950 1_554 S
C1034 C1033 1.334 . S
C1034 C1035 1.287 1_554 S
C1035 C1034 1.287 1_556 S
C1035 C1036 1.524 . S
C1035 H1038 0.999 . S
C1036 H1006 0.950 . S
C1036 C1035 1.524 . S
C1036 C1037 1.415 1_556 S
C1037 H1007 0.950 . S
C1037 C1032 1.363 . S
C1037 C1036 1.415 1_554 S
H1038 C1035 0.999 . S
H1039 C1020 0.913 . S
H1040 C1058 0.951 . S
H1041 C1060 0.951 . S
H1042 C1062 0.950 . S
H1043 C1063 0.950 . S
H1044 C1065 0.950 . S
H1045 C1068 0.950 . S
H1046 C1069 0.950 . S
H1047 C1071 0.950 . S
H1048 C1072 0.950 . S
H1049 C1073 0.951 . S
H1050 C1075 0.951 . S
H1051 C1077 0.950 . S
H1052 C1078 0.950 . S
H1053 C1080 0.950 . S
H1054 C1083 0.950 . S
H1055 C1084 0.950 . S
H1056 C1086 0.950 . S
H1057 C1087 0.950 . S
C1058 H1040 0.951 . S
C1058 C1059 1.366 . S
C1058 C1060 1.388 . S
C1059 C1058 1.366 . S
C1059 C1063 1.385 . S
C1060 H1041 0.951 . S
C1060 C1058 1.388 . S
C1060 C1061 1.366 . S
C1061 C1060 1.366 . S
C1061 C1062 1.414 . S
C1061 C1064 1.499 . S
C1062 H1042 0.950 . S
C1062 C1061 1.414 . S
C1062 C1063 1.374 . S
C1063 H1043 0.950 . S
C1063 C1059 1.385 . S
C1063 C1062 1.374 . S
C1064 C1061 1.499 . S
C1064 C1065 1.373 . S
C1064 C1066 1.389 . S
C1065 H1044 0.950 . S
C1065 C1064 1.373 . S
C1065 C1081 1.377 . S
C1066 C1064 1.389 . S
C1066 C1067 1.524 . S
C1066 C1080 1.377 . S
C1067 C1066 1.524 . S
C1067 C1068 1.397 . S
C1067 C1072 1.363 . S
C1068 H1045 0.950 . S
C1068 C1067 1.397 . S
C1068 C1069 1.334 . S
C1069 H1046 0.950 . S
C1069 C1068 1.334 . S
C1069 C1070 1.287 . S
C1070 C1069 1.287 . S
C1070 C1071 1.524 . S
C1070 H1089 0.913 . S
C1071 H1047 0.950 . S
C1071 C1070 1.524 . S
C1071 C1072 1.415 . S
C1072 H1048 0.950 . S
C1072 C1067 1.363 . S
C1072 C1071 1.415 . S
C1073 H1049 0.951 . S
C1073 C1074 1.366 . S
C1073 C1075 1.388 . S
C1074 C1073 1.366 . S
C1074 C1078 1.385 . S
C1075 H1050 0.951 . S
C1075 C1073 1.388 . S
C1075 C1076 1.366 . S
C1076 C1075 1.366 . S
C1076 C1077 1.414 . S
C1076 C1079 1.499 . S
C1077 H1051 0.950 . S
C1077 C1076 1.414 . S
C1077 C1078 1.374 . S
C1078 H1052 0.950 . S
C1078 C1074 1.385 . S
C1078 C1077 1.374 . S
C1079 C1076 1.499 . S
C1079 C1080 1.373 . S
C1079 C1081 1.389 . S
C1080 H1053 0.950 . S
C1080 C1066 1.377 . S
C1080 C1079 1.373 . S
C1081 C1065 1.377 . S
C1081 C1079 1.389 . S
C1081 C1082 1.524 . S
C1082 C1081 1.524 . S
C1082 C1083 1.397 . S
C1082 C1087 1.363 . S
C1083 H1054 0.950 . S
C1083 C1082 1.397 . S
C1083 C1084 1.334 . S
C1084 H1055 0.950 . S
C1084 C1083 1.334 . S
C1084 C1085 1.287 . S
C1085 C1084 1.287 . S
C1085 C1086 1.524 . S
C1085 H1088 0.999 . S
C1086 H1056 0.950 . S
C1086 C1085 1.524 . S
C1086 C1087 1.415 . S
C1087 H1057 0.950 . S
C1087 C1082 1.363 . S
C1087 C1086 1.415 . S
H1088 C1085 0.999 . S
H1089 C1070 0.913 . S
H1090 C1108 0.951 . S
H1091 C1110 0.951 . S
H1092 C1112 0.950 . S
H1093 C1113 0.950 . S
H1094 C1115 0.950 . S
H1095 C1118 0.950 . S
H1096 C1119 0.950 . S
H1097 C1121 0.950 . S
H1098 C1122 0.950 . S
H1099 C1123 0.951 . S
H1100 C1125 0.951 . S
H1101 C1127 0.950 . S
H1102 C1128 0.950 . S
H1103 C1130 0.950 . S
H1104 C1133 0.950 . S
H1105 C1134 0.950 . S
H1106 C1136 0.950 . S
H1107 C1137 0.950 . S
C1108 H1090 0.951 . S
C1108 C1109 1.366 . S
C1108 C1110 1.388 . S
C1109 C1108 1.366 . S
C1109 C1113 1.385 . S
C1110 H1091 0.951 . S
C1110 C1108 1.388 . S
C1110 C1111 1.366 . S
C1111 C1110 1.366 . S
C1111 C1112 1.414 . S
C1111 C1114 1.499 . S
C1112 H1092 0.950 . S
C1112 C1111 1.414 . S
C1112 C1113 1.374 . S
C1113 H1093 0.950 . S
C1113 C1109 1.385 . S
C1113 C1112 1.374 . S
C1114 C1111 1.499 . S
C1114 C1115 1.373 . S
C1114 C1116 1.389 . S
C1115 H1094 0.950 . S
C1115 C1114 1.373 . S
C1115 C1131 1.377 . S
C1116 C1114 1.389 . S
C1116 C1117 1.524 . S
C1116 C1130 1.377 . S
C1117 C1116 1.524 . S
C1117 C1118 1.397 . S
C1117 C1122 1.363 . S
C1118 H1095 0.950 . S
C1118 C1117 1.397 . S
C1118 C1119 1.334 . S
C1119 H1096 0.950 . S
C1119 C1118 1.334 . S
C1119 C1120 1.287 . S
C1120 C1119 1.287 . S
C1120 C1121 1.524 . S
C1120 H1139 0.913 . S
C1121 H1097 0.950 . S
C1121 C1120 1.524 . S
C1121 C1122 1.415 . S
C1122 H1098 0.950 . S
C1122 C1117 1.363 . S
C1122 C1121 1.415 . S
C1123 H1099 0.951 . S
C1123 C1124 1.366 . S
C1123 C1125 1.388 . S
C1124 C1123 1.366 . S
C1124 C1128 1.385 . S
C1125 H1100 0.951 . S
C1125 C1123 1.388 . S
C1125 C1126 1.366 . S
C1126 C1125 1.366 . S
C1126 C1127 1.414 . S
C1126 C1129 1.499 . S
C1127 H1101 0.950 . S
C1127 C1126 1.414 . S
C1127 C1128 1.374 . S
C1128 H1102 0.950 . S
C1128 C1124 1.385 . S
C1128 C1127 1.374 . S
C1129 C1126 1.499 . S
C1129 C1130 1.373 . S
C1129 C1131 1.389 . S
C1130 H1103 0.950 . S
C1130 C1116 1.377 . S
C1130 C1129 1.373 . S
C1131 C1115 1.377 . S
C1131 C1129 1.389 . S
C1131 C1132 1.524 . S
C1132 C1131 1.524 . S
C1132 C1133 1.397 . S
C1132 C1137 1.363 . S
C1133 H1104 0.950 . S
C1133 C1132 1.397 . S
C1133 C1134 1.334 . S
C1134 H1105 0.950 . S
C1134 C1133 1.334 . S
C1134 C1135 1.287 . S
C1135 C1134 1.287 . S
C1135 C1136 1.524 . S
C1135 H1138 0.999 . S
C1136 H1106 0.950 . S
C1136 C1135 1.524 . S
C1136 C1137 1.415 . S
C1137 H1107 0.950 . S
C1137 C1132 1.363 . S
C1137 C1136 1.415 . S
H1138 C1135 0.999 . S
H1139 C1120 0.913 . S
C259 C213 1.344 . S
C274 C2 1.325 . S
C309 C13 1.344 . S
C324 C42 1.325 . S
C359 C53 1.344 . S
C374 C82 1.325 . S
C409 C93 1.344 . S
C424 C122 1.325 . S
C459 C162 1.325 . S
C474 C133 1.344 . S
C509 C202 1.325 . S
C524 C173 1.344 . S
C559 C17 1.173 . S
C574 C26 1.173 . S
C609 C57 1.172 . S
C624 C66 1.172 . S
C659 C97 1.173 . S
C674 C106 1.173 . S
C709 C137 1.172 . S
C724 C146 1.172 . S
C759 C186 1.173 . S
C774 C177 1.173 . S
C809 C217 1.173 . S
C824 C226 1.173 . S
C859 C23 1.570 . S
C874 C184 1.561 . S
C909 C63 1.570 . S
C924 C224 1.560 . S
C959 C24 1.561 . S
C974 C103 1.570 . S
C1009 C64 1.561 . S
C1024 C143 1.570 . S
C1059 C183 1.571 . S
C1074 C104 1.561 . S
C1109 C144 1.560 . S
C1124 C223 1.570 . S
