# Generated by pormake.
# Topology umz, (4)-cn, num edge types: 1
# Building blocks:
#     Node 0, Type 0, BuildingBlock: ICAMEG_clean_sbu_1, # of connection points: 4
#     Node 1, Type 0, BuildingBlock: ICAMEG_clean_sbu_1, # of connection points: 4
#     Node 2, Type 0, BuildingBlock: ICAMEG_clean_sbu_1, # of connection points: 4
#     Node 3, Type 0, BuildingBlock: ICAMEG_clean_sbu_1, # of connection points: 4
#     Node 4, Type 0, BuildingBlock: ICAMEG_clean_sbu_1, # of connection points: 4
#     Node 5, Type 0, BuildingBlock: ICAMEG_clean_sbu_1, # of connection points: 4
#     Node 6, Type 0, BuildingBlock: ICAMEG_clean_sbu_1, # of connection points: 4
#     Node 7, Type 0, BuildingBlock: ICAMEG_clean_sbu_1, # of connection points: 4
#     Node 8, Type 0, BuildingBlock: ICAMEG_clean_sbu_1, # of connection points: 4
#     Node 9, Type 0, BuildingBlock: ICAMEG_clean_sbu_1, # of connection points: 4
#     Node 10, Type 0, BuildingBlock: ICAMEG_clean_sbu_1, # of connection points: 4
#     Node 11, Type 0, BuildingBlock: ICAMEG_clean_sbu_1, # of connection points: 4
#     Node 12, Type 0, BuildingBlock: ICAMEG_clean_sbu_1, # of connection points: 4
#     Node 13, Type 0, BuildingBlock: ICAMEG_clean_sbu_1, # of connection points: 4
#     Node 14, Type 0, BuildingBlock: ICAMEG_clean_sbu_1, # of connection points: 4
#     Node 15, Type 0, BuildingBlock: ICAMEG_clean_sbu_1, # of connection points: 4
#     Edge 16, Type (0, 0), BuildingBlock: CIFDUS_clean_linker_0, # of connection points: 2
#     Edge 17, Type (0, 0), BuildingBlock: CIFDUS_clean_linker_0, # of connection points: 2
#     Edge 18, Type (0, 0), BuildingBlock: CIFDUS_clean_linker_0, # of connection points: 2
#     Edge 19, Type (0, 0), BuildingBlock: CIFDUS_clean_linker_0, # of connection points: 2
#     Edge 20, Type (0, 0), BuildingBlock: CIFDUS_clean_linker_0, # of connection points: 2
#     Edge 21, Type (0, 0), BuildingBlock: CIFDUS_clean_linker_0, # of connection points: 2
#     Edge 22, Type (0, 0), BuildingBlock: CIFDUS_clean_linker_0, # of connection points: 2
#     Edge 23, Type (0, 0), BuildingBlock: CIFDUS_clean_linker_0, # of connection points: 2
#     Edge 24, Type (0, 0), BuildingBlock: CIFDUS_clean_linker_0, # of connection points: 2
#     Edge 25, Type (0, 0), BuildingBlock: CIFDUS_clean_linker_0, # of connection points: 2
#     Edge 26, Type (0, 0), BuildingBlock: CIFDUS_clean_linker_0, # of connection points: 2
#     Edge 27, Type (0, 0), BuildingBlock: CIFDUS_clean_linker_0, # of connection points: 2
#     Edge 28, Type (0, 0), BuildingBlock: CIFDUS_clean_linker_0, # of connection points: 2
#     Edge 29, Type (0, 0), BuildingBlock: CIFDUS_clean_linker_0, # of connection points: 2
#     Edge 30, Type (0, 0), BuildingBlock: CIFDUS_clean_linker_0, # of connection points: 2
#     Edge 31, Type (0, 0), BuildingBlock: CIFDUS_clean_linker_0, # of connection points: 2
#     Edge 32, Type (0, 0), BuildingBlock: CIFDUS_clean_linker_0, # of connection points: 2
#     Edge 33, Type (0, 0), BuildingBlock: CIFDUS_clean_linker_0, # of connection points: 2
#     Edge 34, Type (0, 0), BuildingBlock: CIFDUS_clean_linker_0, # of connection points: 2
#     Edge 35, Type (0, 0), BuildingBlock: CIFDUS_clean_linker_0, # of connection points: 2
#     Edge 36, Type (0, 0), BuildingBlock: CIFDUS_clean_linker_0, # of connection points: 2
#     Edge 37, Type (0, 0), BuildingBlock: CIFDUS_clean_linker_0, # of connection points: 2
#     Edge 38, Type (0, 0), BuildingBlock: CIFDUS_clean_linker_0, # of connection points: 2
#     Edge 39, Type (0, 0), BuildingBlock: CIFDUS_clean_linker_0, # of connection points: 2
#     Edge 40, Type (0, 0), BuildingBlock: CIFDUS_clean_linker_0, # of connection points: 2
#     Edge 41, Type (0, 0), BuildingBlock: CIFDUS_clean_linker_0, # of connection points: 2
#     Edge 42, Type (0, 0), BuildingBlock: CIFDUS_clean_linker_0, # of connection points: 2
#     Edge 43, Type (0, 0), BuildingBlock: CIFDUS_clean_linker_0, # of connection points: 2
#     Edge 44, Type (0, 0), BuildingBlock: CIFDUS_clean_linker_0, # of connection points: 2
#     Edge 45, Type (0, 0), BuildingBlock: CIFDUS_clean_linker_0, # of connection points: 2
#     Edge 46, Type (0, 0), BuildingBlock: CIFDUS_clean_linker_0, # of connection points: 2
#     Edge 47, Type (0, 0), BuildingBlock: CIFDUS_clean_linker_0, # of connection points: 2
# Relax obj value: 0.209
# Max RMSD: 0.188
# Mean RMSD: 0.168
data_MOF--net-umz--node1-ICAMEG_clean_sbu_1--edge1-CIFDUS_clean_linker_0
_symmetry_space_group_name_H-M    P1
_symmetry_Int_Tables_number       1
_symmetry_cell_setting            triclinic
loop_
_symmetry_equiv_pos_as_xyz
'x, y, z'
_cell_length_a     53.279234
_cell_length_b     53.30377
_cell_length_c     21.437643
_cell_angle_alpha  89.5089
_cell_angle_beta   90.416562
_cell_angle_gamma 89.739421
loop_
_atom_site_label
_atom_site_type_symbol
_atom_site_fract_x
_atom_site_fract_y
_atom_site_fract_z
_atom_type_partial_charge
Co0 Co 0.9911 0.58649 0.01469 0.0
Co1 Co 0.01155 0.63942 0.09267 0.0
O2 O 0.00298 0.6213 0.01632 0.0
C3 C 0.0362 0.58474 0.93485 0.0
O4 O 0.04834 0.59632 0.9796 0.0
C5 C 0.9756 0.67472 0.029 0.0
O6 O 0.96147 0.65575 0.01248 0.0
O7 O 0.97903 0.62982 0.13179 0.0
O8 O 0.96875 0.59307 0.0871 0.0
H9 H 0.02153 0.64954 0.3245 0.0
H10 H 0.98928 0.61789 0.89983 0.0
O11 O 0.01313 0.57936 0.94149 0.0
H12 H 0.90178 0.5925 0.93775 0.0
H13 H 0.96572 0.50635 0.90884 0.0
H14 H 0.98011 0.54771 0.11079 0.0
H15 H 0.93587 0.57828 0.00827 0.0
H16 H 0.9775 0.55101 0.91279 0.0
O17 O 0.99601 0.67101 0.0589 0.0
H18 H 0.01067 0.62711 0.22803 0.0
H19 H 0.0313 0.69061 0.11918 0.0
H20 H 0.96811 0.50307 0.10895 0.0
H21 H 0.95583 0.63236 0.82776 0.0
H22 H 0.96108 0.48204 0.00741 0.0
H23 H 0.9117 0.6197 0.84662 0.0
O24 O 0.01813 0.57483 0.07382 0.0
H25 H 0.06621 0.67099 0.91926 0.0
H26 H 0.06515 0.6375 0.13433 0.0
H27 H 0.10563 0.64771 0.08543 0.0
H28 H 0.10632 0.66461 0.97712 0.0
H29 H 0.02615 0.66032 0.96984 0.0
H30 H 0.04212 0.71382 0.21455 0.0
H31 H 0.03735 0.69325 0.31817 0.0
O32 O 0.02729 0.60897 0.1296 0.0
C33 C 0.96526 0.61032 0.12718 0.0
C34 C 0.02366 0.65873 0.27964 0.0
C35 C 0.03519 0.69481 0.21794 0.0
N36 N 0.02023 0.65754 0.16796 0.0
C37 C 0.01754 0.64611 0.22481 0.0
C38 C 0.02891 0.6816 0.16409 0.0
C39 C 0.03253 0.68325 0.27605 0.0
C40 C 0.97014 0.61218 0.90812 0.0
N41 N 0.96451 0.59726 0.95818 0.0
C42 C 0.95127 0.62049 0.86725 0.0
C43 C 0.92651 0.6134 0.87791 0.0
C44 C 0.92093 0.59816 0.92906 0.0
C45 C 0.94029 0.59024 0.96897 0.0
C46 C 0.96871 0.51532 0.95338 0.0
C47 C 0.97671 0.53881 0.06643 0.0
C48 C 0.97542 0.54061 0.95593 0.0
N49 N 0.97943 0.55202 0.01199 0.0
C50 C 0.97002 0.51349 0.06568 0.0
C51 C 0.96608 0.50169 0.0087 0.0
C52 C 0.02919 0.5856 0.11925 0.0
C53 C 0.06615 0.66369 0.96653 0.0
C54 C 0.0653 0.64477 0.08716 0.0
C55 C 0.08827 0.65058 0.05975 0.0
C56 C 0.08865 0.66008 0.99899 0.0
N57 N 0.0433 0.6484 0.05504 0.0
C58 C 0.04352 0.65771 0.99548 0.0
Co59 Co 0.91148 0.98411 0.51578 0.0
Co60 Co 0.8575 0.01325 0.57136 0.0
O61 O 0.87724 0.99768 0.5045 0.0
C62 C 0.91735 0.0221 0.41235 0.0
O63 O 0.90052 0.03663 0.43837 0.0
C64 C 0.82238 0.97432 0.51727 0.0
O65 O 0.84062 0.9631 0.48749 0.0
O66 O 0.86728 0.98626 0.63244 0.0
O67 O 0.90081 0.96635 0.59273 0.0
H68 H 0.84424 0.04602 0.78788 0.0
H69 H 0.8856 0.97778 0.39395 0.0
O70 O 0.92346 0.00129 0.43783 0.0
H71 H 0.90316 0.89197 0.47069 0.0
H72 H 0.99337 0.94734 0.44289 0.0
H73 H 0.94535 0.97605 0.62486 0.0
H74 H 0.91591 0.92867 0.53243 0.0
H75 H 0.94991 0.96266 0.43021 0.0
O76 O 0.82651 0.9938 0.54957 0.0
H77 H 0.86815 0.02633 0.70317 0.0
H78 H 0.80542 0.03392 0.58084 0.0
H79 H 0.98865 0.96042 0.63978 0.0
H80 H 0.87286 0.94163 0.33023 0.0
H81 H 0.01296 0.94607 0.5482 0.0
H82 H 0.88157 0.89834 0.36864 0.0
O83 O 0.92226 0.01348 0.56757 0.0
H84 H 0.82656 0.04715 0.36505 0.0
H85 H 0.85694 0.06917 0.57527 0.0
H86 H 0.84584 0.10287 0.5004 0.0
H87 H 0.83046 0.09194 0.39446 0.0
H88 H 0.83812 0.01407 0.44114 0.0
H89 H 0.78077 0.05347 0.66446 0.0
H90 H 0.8002 0.05971 0.76882 0.0
O91 O 0.887 0.03315 0.59718 0.0
C92 C 0.88424 0.96924 0.63456 0.0
C93 C 0.83557 0.04342 0.74259 0.0
C94 C 0.79995 0.04758 0.67334 0.0
N95 N 0.83825 0.02901 0.63703 0.0
C96 C 0.84904 0.03232 0.69438 0.0
C97 C 0.81398 0.03642 0.62623 0.0
C98 C 0.81086 0.05109 0.73188 0.0
C99 C 0.88966 0.95901 0.4107 0.0
N100 N 0.90154 0.95534 0.46675 0.0
C101 C 0.8823 0.93861 0.37455 0.0
C102 C 0.88716 0.91433 0.39617 0.0
C103 C 0.89925 0.91074 0.45346 0.0
C104 C 0.90632 0.93159 0.48835 0.0
C105 C 0.98294 0.95355 0.48312 0.0
C106 C 0.95575 0.96965 0.58489 0.0
C107 C 0.95834 0.96236 0.4762 0.0
N108 N 0.9451 0.9704 0.52671 0.0
C109 C 0.98028 0.96086 0.59363 0.0
C110 C 0.99393 0.95284 0.54226 0.0
C111 C 0.91075 0.03092 0.5965 0.0
C112 C 0.83313 0.05215 0.41116 0.0
C113 C 0.85032 0.06425 0.52923 0.0
C114 C 0.84401 0.08342 0.48707 0.0
C115 C 0.83537 0.07728 0.42765 0.0
N116 N 0.84796 0.03964 0.51282 0.0
C117 C 0.83958 0.03348 0.45458 0.0
Co118 Co 0.51919 0.91939 0.99334 0.0
Co119 Co 0.5036 0.86376 0.06886 0.0
O120 O 0.50929 0.88392 0.99274 0.0
C121 C 0.48087 0.91568 0.88779 0.0
O122 O 0.47914 0.89123 0.89267 0.0
C123 C 0.53578 0.81895 0.05096 0.0
O124 O 0.54659 0.82427 0.10448 0.0
O125 O 0.5368 0.87408 0.10432 0.0
O126 O 0.54337 0.91229 0.06225 0.0
H127 H 0.502 0.84765 0.30023 0.0
H128 H 0.52394 0.88712 0.8791 0.0
O129 O 0.49509 0.92827 0.9238 0.0
H130 H 0.60688 0.92561 0.9087 0.0
H131 H 0.54196 0.00304 0.89905 0.0
H132 H 0.52844 0.95587 0.09445 0.0
H133 H 0.5727 0.93425 0.9821 0.0
H134 H 0.53008 0.95849 0.89641 0.0
O135 O 0.51954 0.83405 0.02736 0.0
H136 H 0.50913 0.87257 0.20466 0.0
H137 H 0.48475 0.81175 0.09316 0.0
H138 H 0.53942 1.00072 0.09904 0.0
H139 H 0.55731 0.87842 0.8041 0.0
H140 H 0.54611 0.02472 1.00073 0.0
H141 H 0.59924 0.89776 0.8183 0.0
O142 O 0.49229 0.92761 0.05452 0.0
H143 H 0.4456 0.83101 0.90277 0.0
H144 H 0.45106 0.86355 0.11699 0.0
H145 H 0.40984 0.85181 0.07364 0.0
H146 H 0.40692 0.83529 0.96587 0.0
H147 H 0.4864 0.84337 0.94758 0.0
H148 H 0.47736 0.78616 0.18753 0.0
H149 H 0.48602 0.80408 0.29203 0.0
O150 O 0.48751 0.8926 0.11163 0.0
C151 C 0.54933 0.89437 0.09926 0.0
C152 C 0.49825 0.83958 0.25497 0.0
C153 C 0.48441 0.80509 0.19172 0.0
N154 N 0.49768 0.84356 0.14331 0.0
C155 C 0.50234 0.85358 0.20066 0.0
C156 C 0.48868 0.81966 0.13844 0.0
C157 C 0.48927 0.81515 0.25033 0.0
C158 C 0.54175 0.89611 0.88534 0.0
N159 N 0.54584 0.91192 0.93419 0.0
C160 C 0.56079 0.89087 0.84283 0.0
C161 C 0.58433 0.90164 0.85091 0.0
C162 C 0.58862 0.91726 0.90156 0.0
C163 C 0.56913 0.92207 0.94308 0.0
C164 C 0.5387 0.99298 0.94212 0.0
C165 C 0.53132 0.96618 0.05146 0.0
C166 C 0.5321 0.96767 0.94094 0.0
N167 N 0.52874 0.95452 0.99523 0.0
C168 C 0.53749 0.99159 0.05437 0.0
C169 C 0.54121 0.00505 0.99922 0.0
C170 C 0.48326 0.91577 0.10114 0.0
C171 C 0.44662 0.83815 0.94983 0.0
C172 C 0.44995 0.85666 0.06982 0.0
C173 C 0.42655 0.8499 0.04564 0.0
C174 C 0.42493 0.84059 0.98521 0.0
N175 N 0.47117 0.85419 0.03485 0.0
C176 C 0.4697 0.84509 0.97556 0.0
Co177 Co 0.57628 0.52287 0.51033 0.0
Co178 Co 0.63078 0.49597 0.57003 0.0
O179 O 0.60986 0.50827 0.50065 0.0
C180 C 0.56919 0.48219 0.41785 0.0
O181 O 0.58253 0.46731 0.45433 0.0
C182 C 0.67854 0.523 0.55055 0.0
O183 O 0.67575 0.53178 0.60716 0.0
O184 O 0.62631 0.52829 0.61478 0.0
O185 O 0.58797 0.54196 0.58458 0.0
H186 H 0.65259 0.48044 0.79571 0.0
H187 H 0.60275 0.5266 0.38926 0.0
O188 O 0.5642 0.50445 0.43484 0.0
H189 H 0.58416 0.61384 0.44884 0.0
H190 H 0.49359 0.55761 0.43215 0.0
H191 H 0.54345 0.53368 0.61817 0.0
H192 H 0.57147 0.57851 0.51646 0.0
H193 H 0.53715 0.5425 0.42154 0.0
O194 O 0.6614 0.50935 0.52651 0.0
H195 H 0.6265 0.49591 0.70798 0.0
H196 H 0.68006 0.469 0.57859 0.0
H197 H 0.50004 0.54895 0.63092 0.0
H198 H 0.61554 0.56133 0.31984 0.0
H199 H 0.4747 0.5608 0.5374 0.0
H200 H 0.60625 0.60533 0.34952 0.0
O201 O 0.56548 0.49475 0.5665 0.0
H202 H 0.64805 0.44246 0.38321 0.0
H203 H 0.62477 0.442 0.60543 0.0
H204 H 0.62813 0.40194 0.54941 0.0
H205 H 0.63989 0.402 0.4375 0.0
H206 H 0.6442 0.48213 0.44083 0.0
H207 H 0.70678 0.4533 0.66496 0.0
H208 H 0.69308 0.45898 0.77447 0.0
O209 O 0.60101 0.48263 0.61497 0.0
C210 C 0.60771 0.5434 0.61855 0.0
C211 C 0.65881 0.47791 0.74821 0.0
C212 C 0.68921 0.46267 0.67483 0.0
N213 N 0.65182 0.48357 0.63821 0.0
C214 C 0.64413 0.48668 0.69832 0.0
C215 C 0.67402 0.47165 0.62612 0.0
C216 C 0.68151 0.46586 0.73626 0.0
C217 C 0.59859 0.54569 0.40243 0.0
N218 N 0.58636 0.55053 0.45686 0.0
C219 C 0.60591 0.56528 0.36297 0.0
C220 C 0.60071 0.58996 0.37967 0.0
C221 C 0.58834 0.59475 0.43541 0.0
C222 C 0.58129 0.57469 0.47367 0.0
C223 C 0.50442 0.55246 0.47324 0.0
C224 C 0.53268 0.53912 0.57729 0.0
C225 C 0.5291 0.54384 0.46753 0.0
N226 N 0.54287 0.53716 0.51919 0.0
C227 C 0.50806 0.54765 0.58479 0.0
C228 C 0.49384 0.55426 0.53231 0.0
C229 C 0.57719 0.48263 0.60945 0.0
C230 C 0.64301 0.44219 0.43203 0.0
C231 C 0.62981 0.44221 0.5567 0.0
C232 C 0.63176 0.41945 0.52526 0.0
C233 C 0.63838 0.41949 0.46248 0.0
N234 N 0.63442 0.46439 0.52653 0.0
C235 C 0.64093 0.46458 0.46499 0.0
Co236 Co 0.98282 0.92328 0.01199 0.0
Co237 Co 0.99931 0.86746 0.94403 0.0
O238 O 0.99193 0.88771 0.01765 0.0
C239 C 0.02428 0.92498 0.10675 0.0
O240 O 0.03908 0.91288 0.06846 0.0
C241 C 0.96891 0.82174 0.96371 0.0
O242 O 0.95849 0.82646 0.9091 0.0
O243 O 0.96614 0.87673 0.90631 0.0
O244 O 0.96269 0.91717 0.93442 0.0
H245 H 0.00336 0.84978 0.71427 0.0
H246 H 0.97357 0.89394 0.12745 0.0
O247 O 0.00185 0.93021 0.09068 0.0
H248 H 0.89107 0.92881 0.06587 0.0
H249 H 0.95909 0.00779 0.09818 0.0
H250 H 0.97898 0.96028 0.90837 0.0
H251 H 0.9287 0.93787 0.00349 0.0
H252 H 0.96839 0.9625 0.10447 0.0
O253 O 0.98431 0.83744 0.98712 0.0
H254 H 0.99428 0.87502 0.80726 0.0
H255 H 0.02081 0.81608 0.92517 0.0
H256 H 0.96896 0.00531 0.89983 0.0
H257 H 0.93649 0.88461 0.19176 0.0
H258 H 0.95937 0.02957 0.99526 0.0
H259 H 0.89486 0.90208 0.16101 0.0
O260 O 0.01327 0.93054 0.96061 0.0
H261 H 0.05726 0.84014 0.11795 0.0
H262 H 0.05219 0.86818 0.8984 0.0
H263 H 0.09355 0.85901 0.94578 0.0
H264 H 0.09627 0.84479 0.05628 0.0
H265 H 0.01628 0.84979 0.06895 0.0
H266 H 0.03015 0.79015 0.83345 0.0
H267 H 0.0214 0.80697 0.72704 0.0
O268 O 0.0145 0.89658 0.89966 0.0
C269 C 0.95587 0.8984 0.90178 0.0
C270 C 0.0072 0.8422 0.76039 0.0
C271 C 0.02224 0.80875 0.82726 0.0
N272 N 0.00679 0.84701 0.87165 0.0
C273 C 0.00205 0.85641 0.81324 0.0
C274 C 0.01687 0.82352 0.87903 0.0
C275 C 0.01733 0.8182 0.76758 0.0
C276 C 0.95551 0.90161 0.11378 0.0
N277 N 0.95327 0.91631 0.0615 0.0
C278 C 0.93459 0.89625 0.15036 0.0
C279 C 0.91123 0.90605 0.13306 0.0
C280 C 0.90909 0.92102 0.07966 0.0
C281 C 0.93043 0.92597 0.04425 0.0
C282 C 0.96334 0.99749 0.05626 0.0
C283 C 0.97437 0.97054 0.95004 0.0
C284 C 0.96872 0.97183 0.05954 0.0
N285 N 0.97415 0.95868 0.00678 0.0
C286 C 0.96889 0.99612 0.94495 0.0
C287 C 0.96347 0.00969 0.99851 0.0
C288 C 0.02095 0.91891 0.9125 0.0
C289 C 0.05631 0.84622 0.06969 0.0
C290 C 0.0532 0.86209 0.94658 0.0
C291 C 0.07668 0.85686 0.97311 0.0
C292 C 0.07819 0.84887 0.03509 0.0
N293 N 0.0318 0.85933 0.98074 0.0
C294 C 0.03315 0.8516 0.0416 0.0
Co295 Co 0.58343 0.9855 0.49371 0.0
Co296 Co 0.63999 1.00076 0.42197 0.0
O297 O 0.61933 0.99473 0.49674 0.0
C298 C 0.5838 0.03063 0.57521 0.0
O299 O 0.59911 0.04164 0.53595 0.0
C300 C 0.67428 0.97031 0.50856 0.0
O301 O 0.65673 0.96714 0.55046 0.0
O302 O 0.62817 0.96883 0.38356 0.0
O303 O 0.5903 0.96143 0.42565 0.0
H304 H 0.65456 0.0062 0.1909 0.0
H305 H 0.61108 0.9833 0.61426 0.0
O306 O 0.5756 0.0088 0.56385 0.0
H307 H 0.57869 0.89783 0.58232 0.0
H308 H 0.49867 0.96693 0.58515 0.0
H309 H 0.54715 0.97569 0.39141 0.0
H310 H 0.57028 0.9313 0.50473 0.0
H311 H 0.54384 0.976 0.58931 0.0
O312 O 0.66974 0.98231 0.45815 0.0
H313 H 0.62969 0.99928 0.28597 0.0
H314 H 0.69347 0.01491 0.39898 0.0
H315 H 0.50196 0.96614 0.38512 0.0
H316 H 0.61959 0.95053 0.69365 0.0
H317 H 0.47731 0.96192 0.48229 0.0
H318 H 0.60337 0.90741 0.67789 0.0
O319 O 0.57554 0.01255 0.43055 0.0
H320 H 0.67128 0.05529 0.59659 0.0
H321 H 0.64661 0.05302 0.37472 0.0
H322 H 0.65999 0.09301 0.42087 0.0
H323 H 0.67257 0.09431 0.53259 0.0
H324 H 0.65743 0.01588 0.54887 0.0
H325 H 0.71907 0.02176 0.30511 0.0
H326 H 0.6996 0.01751 0.20011 0.0
O327 O 0.61196 0.01955 0.38158 0.0
C328 C 0.60801 0.9561 0.38835 0.0
C329 C 0.66325 0.00814 0.23639 0.0
C330 C 0.69946 0.01684 0.30048 0.0
N331 N 0.66006 0.00672 0.34803 0.0
C332 C 0.64924 0.00429 0.29041 0.0
C333 C 0.68488 0.01283 0.35349 0.0
C334 C 0.68852 0.01447 0.24159 0.0
C335 C 0.60393 0.96459 0.60709 0.0
N336 N 0.5904 0.95916 0.55458 0.0
C337 C 0.60885 0.9461 0.65217 0.0
C338 C 0.59977 0.92191 0.64326 0.0
C339 C 0.58596 0.91651 0.58961 0.0
C340 C 0.58143 0.93548 0.54555 0.0
C341 C 0.50914 0.9686 0.54235 0.0
C342 C 0.53664 0.97353 0.43401 0.0
C343 C 0.53477 0.97391 0.54443 0.0
N344 N 0.54818 0.9764 0.49065 0.0
C345 C 0.51104 0.96817 0.43013 0.0
C346 C 0.49721 0.96578 0.48474 0.0
C347 C 0.58856 0.02325 0.3883 0.0
C348 C 0.666 0.05494 0.54776 0.0
C349 C 0.65197 0.05341 0.42337 0.0
C350 C 0.6596 0.07612 0.44923 0.0
C351 C 0.66666 0.07683 0.51187 0.0
N352 N 0.6515 0.03194 0.45871 0.0
C353 C 0.6583 0.03257 0.52027 0.0
Co354 Co 0.52786 0.58191 0.00278 0.0
Co355 Co 0.49844 0.63494 0.94159 0.0
O356 O 0.51236 0.61522 0.01141 0.0
C357 C 0.48809 0.57451 0.09721 0.0
O358 O 0.47302 0.58784 0.06116 0.0
C359 C 0.53368 0.67143 0.99981 0.0
O360 O 0.55026 0.65343 0.00865 0.0
O361 O 0.52973 0.63036 0.89251 0.0
O362 O 0.5458 0.59349 0.92668 0.0
H363 H 0.47702 0.65213 0.71638 0.0
H364 H 0.53166 0.60916 0.1226 0.0
O365 O 0.51037 0.56978 0.07979 0.0
H366 H 0.61899 0.59445 0.05705 0.0
H367 H 0.56642 0.50136 0.08362 0.0
H368 H 0.53875 0.54847 0.89626 0.0
H369 H 0.58356 0.5795 0.99287 0.0
H370 H 0.54971 0.54439 0.09259 0.0
O371 O 0.51214 0.66668 0.97695 0.0
H372 H 0.49454 0.62766 0.8046 0.0
H373 H 0.47226 0.68444 0.93086 0.0
H374 H 0.55563 0.5056 0.88512 0.0
H375 H 0.56651 0.6242 0.18857 0.0
H376 H 0.5694 0.48165 0.97929 0.0
H377 H 0.61054 0.6169 0.15584 0.0
O378 O 0.4997 0.56952 0.94875 0.0
H379 H 0.44912 0.6548 0.13383 0.0
H380 H 0.44385 0.62823 0.91436 0.0
H381 H 0.40506 0.63222 0.97567 0.0
H382 H 0.40756 0.64559 0.08625 0.0
H383 H 0.48746 0.65037 0.07088 0.0
H384 H 0.45475 0.70966 0.84385 0.0
H385 H 0.45697 0.69349 0.73569 0.0
O386 O 0.48456 0.60434 0.9026 0.0
C387 C 0.54563 0.6124 0.88967 0.0
C388 C 0.47594 0.65939 0.76328 0.0
C389 C 0.46346 0.69168 0.83482 0.0
N390 N 0.48449 0.65459 0.87288 0.0
C391 C 0.48582 0.6456 0.81348 0.0
C392 C 0.47351 0.67735 0.88388 0.0
C393 C 0.4647 0.68259 0.77415 0.0
C394 C 0.55078 0.60578 0.10823 0.0
N395 N 0.55558 0.59341 0.05401 0.0
C396 C 0.57043 0.61441 0.14569 0.0
C397 C 0.59513 0.61033 0.12726 0.0
C398 C 0.59988 0.59775 0.07182 0.0
C399 C 0.57975 0.5894 0.03554 0.0
C400 C 0.56049 0.51161 0.04222 0.0
C401 C 0.54502 0.53832 0.93741 0.0
C402 C 0.55095 0.53597 0.04702 0.0
N403 N 0.54323 0.54897 0.995 0.0
C404 C 0.55447 0.514 0.93081 0.0
C405 C 0.56217 0.50057 0.98368 0.0
C406 C 0.48585 0.58061 0.90809 0.0
C407 C 0.44778 0.64903 0.08563 0.0
C408 C 0.44509 0.63401 0.96246 0.0
C409 C 0.42306 0.63629 0.99691 0.0
C410 C 0.42448 0.64382 0.05894 0.0
N411 N 0.46788 0.63914 0.98899 0.0
C412 C 0.46941 0.6466 0.04971 0.0
Co413 Co 0.91185 0.50553 0.47625 0.0
Co414 Co 0.85817 0.48576 0.39897 0.0
O415 O 0.8769 0.49401 0.47504 0.0
C416 C 0.9129 0.46084 0.55901 0.0
O417 O 0.90081 0.44892 0.51476 0.0
C418 C 0.82349 0.52123 0.4636 0.0
O419 O 0.84263 0.53528 0.47958 0.0
O420 O 0.86762 0.51838 0.35926 0.0
O421 O 0.90508 0.52781 0.40265 0.0
H422 H 0.84628 0.47667 0.16739 0.0
H423 H 0.88099 0.50797 0.59071 0.0
O424 O 0.91911 0.48363 0.55082 0.0
H425 H 0.90727 0.59503 0.54854 0.0
H426 H 0.99262 0.53113 0.58113 0.0
H427 H 0.95026 0.51583 0.37981 0.0
H428 H 0.92078 0.56064 0.48001 0.0
H429 H 0.94799 0.51911 0.57761 0.0
O430 O 0.82689 0.5012 0.43293 0.0
H431 H 0.86952 0.48697 0.26355 0.0
H432 H 0.80665 0.4664 0.37313 0.0
H433 H 0.99489 0.52801 0.38122 0.0
H434 H 0.86723 0.54172 0.66085 0.0
H435 H 0.01641 0.53557 0.48245 0.0
H436 H 0.88034 0.58563 0.63983 0.0
O437 O 0.92285 0.4782 0.41855 0.0
H438 H 0.82774 0.43063 0.57363 0.0
H439 H 0.85944 0.43233 0.35813 0.0
H440 H 0.8494 0.39174 0.40779 0.0
H441 H 0.8334 0.39072 0.51632 0.0
H442 H 0.83822 0.4708 0.52231 0.0
H443 H 0.78264 0.45612 0.27809 0.0
H444 H 0.80248 0.46115 0.17426 0.0
O445 O 0.88833 0.47 0.36211 0.0
C446 C 0.88745 0.53175 0.363 0.0
C447 C 0.83741 0.47443 0.21234 0.0
C448 C 0.80169 0.46293 0.27446 0.0
N449 N 0.83944 0.47744 0.32395 0.0
C450 C 0.85048 0.48025 0.267 0.0
C451 C 0.81535 0.4689 0.32813 0.0
C452 C 0.81284 0.46573 0.21623 0.0
C453 C 0.88689 0.52701 0.58149 0.0
N454 N 0.90166 0.53235 0.53129 0.0
C455 C 0.87899 0.54605 0.62126 0.0
C456 C 0.88632 0.57069 0.6094 0.0
C457 C 0.90141 0.57598 0.55815 0.0
C458 C 0.90892 0.55646 0.51935 0.0
C459 C 0.98344 0.52794 0.53672 0.0
C460 C 0.9594 0.5194 0.42402 0.0
C461 C 0.95817 0.52107 0.53442 0.0
N462 N 0.94647 0.51686 0.47852 0.0
C463 C 0.9847 0.52622 0.42452 0.0
C464 C 0.99677 0.53045 0.48134 0.0
C465 C 0.91169 0.46755 0.37302 0.0
C466 C 0.83464 0.43083 0.52627 0.0
C467 C 0.85257 0.43204 0.4054 0.0
C468 C 0.84685 0.409 0.43324 0.0
C469 C 0.83785 0.40845 0.49412 0.0
N470 N 0.84934 0.45392 0.43722 0.0
C471 C 0.84051 0.45352 0.49689 0.0
Co472 Co 0.0093 0.40565 0.97999 0.0
Co473 Co 0.98854 0.35261 0.90232 0.0
O474 O 0.99746 0.37074 0.97863 0.0
C475 C 0.9646 0.40698 0.06131 0.0
O476 O 0.95245 0.39492 0.01739 0.0
C477 C 0.0242 0.31738 0.96788 0.0
O478 O 0.03654 0.33629 0.99177 0.0
O479 O 0.02064 0.36255 0.8621 0.0
O480 O 0.03153 0.399 0.90739 0.0
H481 H 0.97709 0.34317 0.67072 0.0
H482 H 0.01135 0.37472 0.09565 0.0
O483 O 0.98746 0.41288 0.05351 0.0
H484 H 0.09876 0.39999 0.05607 0.0
H485 H 0.0349 0.48594 0.08487 0.0
H486 H 0.01999 0.44434 0.88347 0.0
H487 H 0.06456 0.41376 0.98536 0.0
H488 H 0.02315 0.44127 0.08145 0.0
O489 O 0.0048 0.32102 0.93404 0.0
H490 H 0.98844 0.36536 0.7672 0.0
H491 H 0.96919 0.30127 0.87557 0.0
H492 H 0.03197 0.48899 0.88479 0.0
H493 H 0.04491 0.36076 0.16804 0.0
H494 H 0.03927 0.51014 0.98605 0.0
H495 H 0.08899 0.37336 0.14833 0.0
O496 O 0.98211 0.41725 0.92113 0.0
H497 H 0.93563 0.3199 0.07776 0.0
H498 H 0.93462 0.35407 0.86327 0.0
H499 H 0.89465 0.34327 0.91398 0.0
H500 H 0.89501 0.32603 0.022 0.0
H501 H 0.97516 0.33116 0.0254 0.0
H502 H 0.95789 0.27831 0.78015 0.0
H503 H 0.96171 0.2993 0.67679 0.0
O504 O 0.97218 0.38299 0.86666 0.0
C505 C 0.03468 0.38183 0.86694 0.0
C506 C 0.97534 0.33382 0.71547 0.0
C507 C 0.96459 0.29741 0.77689 0.0
N508 N 0.97951 0.33465 0.82704 0.0
C509 C 0.98172 0.34629 0.77032 0.0
C510 C 0.97112 0.31048 0.83076 0.0
C511 C 0.96672 0.3092 0.71891 0.0
C512 C 0.03047 0.38041 0.08701 0.0
N513 N 0.03601 0.39502 0.03632 0.0
C514 C 0.0494 0.37239 0.12805 0.0
C515 C 0.07414 0.37943 0.11691 0.0
C516 C 0.07963 0.39435 0.06512 0.0
C517 C 0.06022 0.402 0.02507 0.0
C518 C 0.0318 0.47692 0.04045 0.0
C519 C 0.02351 0.4533 0.9277 0.0
C520 C 0.0251 0.45162 0.0382 0.0
N521 N 0.02094 0.44014 0.98228 0.0
C522 C 0.03019 0.47862 0.92816 0.0
C523 C 0.03427 0.49048 0.98499 0.0
C524 C 0.97054 0.4064 0.87659 0.0
C525 C 0.93524 0.32734 0.03062 0.0
C526 C 0.93493 0.34663 0.91031 0.0
C527 C 0.91224 0.3405 0.93875 0.0
C528 C 0.91245 0.33081 0.99934 0.0
N529 N 0.9572 0.34314 0.94127 0.0
C530 C 0.95756 0.33365 1.00066 0.0
Co531 Co 0.08418 0.01414 0.51166 0.0
Co532 Co 0.14344 0.00665 0.44621 0.0
O533 O 0.12083 0.00929 0.51851 0.0
C534 C 0.09084 0.97556 0.61644 0.0
O535 O 0.11539 0.97714 0.61656 0.0
C536 C 0.18312 0.0442 0.46738 0.0
O537 O 0.17656 0.05408 0.4133 0.0
O538 O 0.12867 0.03791 0.40798 0.0
O539 O 0.08937 0.04 0.44591 0.0
H540 H 0.1644 0.00815 0.21789 0.0
H541 H 0.11295 0.02181 0.63181 0.0
O542 O 0.07737 0.98814 0.57794 0.0
H543 H 0.06233 0.09841 0.60107 0.0
H544 H 0.99545 0.02 0.59148 0.0
H545 H 0.04902 0.02124 0.40486 0.0
H546 H 0.06101 0.06464 0.5236 0.0
H547 H 0.04147 0.01657 0.60179 0.0
O548 O 0.16968 0.02686 0.49141 0.0
H549 H 0.13679 0.01146 0.30923 0.0
H550 H 0.19813 0.99459 0.43037 0.0
H551 H 0.0031 0.02485 0.39255 0.0
H552 H 0.11444 0.05476 0.71077 0.0
H553 H 0.97594 0.02406 0.48628 0.0
H554 H 0.08894 0.09348 0.69606 0.0
O555 O 0.08125 0.98745 0.44684 0.0
H556 H 0.18105 0.95479 0.62035 0.0
H557 H 0.15337 0.95465 0.40049 0.0
H558 H 0.17044 0.91584 0.44778 0.0
H559 H 0.18457 0.91577 0.55846 0.0
H560 H 0.16341 0.99308 0.57147 0.0
H561 H 0.22639 0.99109 0.34036 0.0
H562 H 0.20958 0.99794 0.23315 0.0
O563 O 0.11856 0.98645 0.39942 0.0
C564 C 0.1069 0.04804 0.41099 0.0
C565 C 0.17198 0.00523 0.26439 0.0
C566 C 0.20675 0.99563 0.3331 0.0
N567 N 0.16583 0.00358 0.37522 0.0
C568 C 0.15644 0.00717 0.31632 0.0
C569 C 0.19064 0.99767 0.38391 0.0
C570 C 0.19732 0.99948 0.27297 0.0
C571 C 0.10134 0.03813 0.62523 0.0
N572 N 0.08616 0.04061 0.57384 0.0
C573 C 0.10248 0.05698 0.67004 0.0
C574 C 0.08824 0.07874 0.66168 0.0
C575 C 0.07331 0.08149 0.60847 0.0
C576 C 0.07264 0.06224 0.56471 0.0
C577 C 0.00708 0.02036 0.55028 0.0
C578 C 0.03739 0.02117 0.44596 0.0
C579 C 0.03317 0.01835 0.55579 0.0
N580 N 0.048 0.01877 0.50396 0.0
C581 C 0.01136 0.02313 0.43866 0.0
C582 C 0.99614 0.02267 0.49125 0.0
C583 C 0.09576 0.9798 0.40384 0.0
C584 C 0.17498 0.95458 0.57207 0.0
C585 C 0.15911 0.95471 0.44886 0.0
C586 C 0.16895 0.93271 0.4753 0.0
C587 C 0.17691 0.93269 0.53735 0.0
N588 N 0.15728 0.97613 0.48318 0.0
C589 C 0.16506 0.97624 0.54405 0.0
Co590 Co 0.48297 0.08831 0.98506 0.0
Co591 Co 0.51245 0.139 0.91379 0.0
O592 O 0.49962 0.12125 0.98792 0.0
C593 C 0.52366 0.08012 0.08162 0.0
O594 O 0.53878 0.09505 0.05083 0.0
C595 C 0.47918 0.17987 0.96402 0.0
O596 O 0.46075 0.16408 0.97393 0.0
O597 O 0.48006 0.13406 0.86726 0.0
O598 O 0.46334 0.09938 0.91068 0.0
H599 H 0.52958 0.14974 0.6848 0.0
H600 H 0.48326 0.11789 0.10153 0.0
O601 O 0.50165 0.07592 0.06104 0.0
H602 H 0.39389 0.10561 0.04939 0.0
H603 H 0.44217 0.01152 0.07761 0.0
H604 H 0.46915 0.05352 0.88368 0.0
H605 H 0.42699 0.08791 0.98279 0.0
H606 H 0.46111 0.05362 0.08069 0.0
O607 O 0.50035 0.17216 0.94473 0.0
H608 H 0.51328 0.12825 0.77818 0.0
H609 H 0.54024 0.18691 0.8931 0.0
H610 H 0.45026 0.0116 0.87848 0.0
H611 H 0.45078 0.13571 0.16985 0.0
H612 H 0.43658 0.99018 0.97597 0.0
H613 H 0.40572 0.12963 0.14387 0.0
O614 O 0.50946 0.07386 0.929 0.0
H615 H 0.56535 0.16277 0.09868 0.0
H616 H 0.56655 0.13042 0.88397 0.0
H617 H 0.60641 0.13528 0.94162 0.0
H618 H 0.60597 0.15163 0.04977 0.0
H619 H 0.52588 0.15731 0.03949 0.0
H620 H 0.55665 0.20918 0.80088 0.0
H621 H 0.55142 0.19057 0.69577 0.0
O622 O 0.52517 0.1073 0.87912 0.0
C623 C 0.46324 0.11705 0.87032 0.0
C624 C 0.5319 0.1581 0.7303 0.0
C625 C 0.54707 0.19146 0.79544 0.0
N626 N 0.52554 0.1564 0.84105 0.0
C627 C 0.52266 0.14603 0.78338 0.0
C628 C 0.53762 0.17882 0.84748 0.0
C629 C 0.54416 0.18099 0.7365 0.0
C630 C 0.46369 0.11507 0.0901 0.0
N631 N 0.45702 0.10185 0.03829 0.0
C632 C 0.44539 0.12526 0.12887 0.0
C633 C 0.42011 0.12186 0.11422 0.0
C634 C 0.41345 0.1084 0.0612 0.0
C635 C 0.43228 0.09851 0.02352 0.0
C636 C 0.448 0.02062 0.03482 0.0
C637 C 0.46313 0.04446 0.92629 0.0
C638 C 0.4588 0.04445 0.03626 0.0
N639 N 0.46629 0.05602 0.98238 0.0
C640 C 0.45246 0.02064 0.92307 0.0
C641 C 0.44488 0.00866 0.97776 0.0
C642 C 0.52335 0.08378 0.8872 0.0
C643 C 0.56579 0.15567 0.05155 0.0
C644 C 0.56618 0.13735 0.93112 0.0
C645 C 0.58882 0.14017 0.96347 0.0
C646 C 0.58857 0.14938 0.02412 0.0
N647 N 0.54391 0.14356 0.95834 0.0
C648 C 0.54352 0.15263 0.01774 0.0
Co649 Co 0.42129 0.48981 0.50199 0.0
Co650 Co 0.36588 0.51461 0.44072 0.0
O651 O 0.38682 0.50255 0.51038 0.0
C652 C 0.42613 0.53225 0.5886 0.0
O653 O 0.41242 0.5451 0.54835 0.0
C654 C 0.33282 0.4766 0.50322 0.0
O655 O 0.35228 0.46246 0.51766 0.0
O656 O 0.37396 0.48423 0.3906 0.0
O657 O 0.411 0.4698 0.42812 0.0
H658 H 0.34711 0.53482 0.21564 0.0
H659 H 0.39545 0.48579 0.62382 0.0
O660 O 0.43213 0.50965 0.57677 0.0
H661 H 0.41594 0.39883 0.56542 0.0
H662 H 0.5036 0.45518 0.58258 0.0
H663 H 0.45528 0.48064 0.39555 0.0
H664 H 0.42765 0.43427 0.497 0.0
H665 H 0.46039 0.47139 0.59222 0.0
O666 O 0.33563 0.4975 0.4751 0.0
H667 H 0.37313 0.51988 0.30408 0.0
H668 H 0.31383 0.53536 0.42968 0.0
H669 H 0.4988 0.46553 0.38415 0.0
H670 H 0.38366 0.45095 0.69403 0.0
H671 H 0.52333 0.45276 0.47825 0.0
H672 H 0.39389 0.4071 0.66492 0.0
O673 O 0.43108 0.51804 0.44461 0.0
H674 H 0.34123 0.56028 0.635 0.0
H675 H 0.36566 0.56975 0.4147 0.0
H676 H 0.3574 0.60748 0.4772 0.0
H677 H 0.34508 0.60287 0.58823 0.0
H678 H 0.34987 0.52306 0.57084 0.0
H679 H 0.2871 0.55024 0.34249 0.0
H680 H 0.30374 0.55011 0.23455 0.0
O681 O 0.39484 0.53214 0.40321 0.0
C682 C 0.39263 0.46909 0.38959 0.0
C683 C 0.33965 0.53498 0.26246 0.0
C684 C 0.30596 0.54361 0.33364 0.0
N685 N 0.34504 0.52672 0.37203 0.0
C686 C 0.35431 0.52657 0.31276 0.0
C687 C 0.32117 0.53507 0.38281 0.0
C688 C 0.31531 0.54354 0.2731 0.0
C689 C 0.40012 0.46677 0.61103 0.0
N690 N 0.41229 0.46207 0.55645 0.0
C691 C 0.39332 0.44712 0.65087 0.0
C692 C 0.39902 0.42251 0.63446 0.0
C693 C 0.41138 0.41786 0.57862 0.0
C694 C 0.41787 0.43799 0.53993 0.0
C695 C 0.49328 0.46111 0.54142 0.0
C696 C 0.46587 0.47528 0.43676 0.0
C697 C 0.46874 0.47016 0.54653 0.0
N698 N 0.45531 0.47699 0.49449 0.0
C699 C 0.49052 0.46672 0.42999 0.0
C700 C 0.50427 0.45959 0.48278 0.0
C701 C 0.41865 0.53216 0.40701 0.0
C702 C 0.34654 0.56254 0.58664 0.0
C703 C 0.36039 0.5676 0.46298 0.0
C704 C 0.35567 0.58903 0.49812 0.0
C705 C 0.34873 0.58643 0.56039 0.0
N706 N 0.35821 0.54423 0.48907 0.0
C707 C 0.35136 0.54153 0.55004 0.0
Co708 Co 0.0154 0.07927 0.00919 0.0
Co709 Co 0.99802 0.13629 0.07605 0.0
O710 O 0.00561 0.11514 0.0029 0.0
C711 C 0.9761 0.08069 0.90566 0.0
O712 O 0.96624 0.10159 0.92637 0.0
C713 C 0.03023 0.1697 0.99373 0.0
O714 O 0.03506 0.15152 0.95472 0.0
O715 O 0.02937 0.12497 0.11977 0.0
O716 O 0.03781 0.0868 0.08105 0.0
H717 H 0.98823 0.15217 0.30536 0.0
H718 H 0.02044 0.10672 0.88858 0.0
O719 O 0.99405 0.07002 0.93524 0.0
H720 H 0.10505 0.07392 0.93719 0.0
H721 H 0.03776 0.99407 0.92608 0.0
H722 H 0.0225 0.04365 0.11505 0.0
H723 H 0.06983 0.06595 0.00853 0.0
H724 H 0.02925 0.03932 0.91827 0.0
O725 O 0.0167 0.16586 0.04146 0.0
H726 H 0.99716 0.12678 0.21248 0.0
H727 H 0.98277 0.18983 0.09474 0.0
H728 H 0.03146 0.99833 0.12525 0.0
H729 H 0.05494 0.11463 0.81518 0.0
H730 H 0.03897 0.97313 0.03023 0.0
H731 H 0.09765 0.09823 0.83933 0.0
O732 O 0.98697 0.07177 0.06744 0.0
H733 H 0.94682 0.1689 0.89403 0.0
H734 H 0.94473 0.14224 0.11461 0.0
H735 H 0.90562 0.15607 0.06254 0.0
H736 H 0.90652 0.16969 0.95148 0.0
H737 H 0.98531 0.15441 0.94749 0.0
H738 H 0.97392 0.21593 0.1864 0.0
H739 H 0.97653 0.1971 0.29266 0.0
O740 O 0.97892 0.10835 0.11465 0.0
C741 C 0.04234 0.10481 0.11802 0.0
C742 C 0.98699 0.16059 0.25931 0.0
C743 C 0.97899 0.19637 0.19255 0.0
N744 N 0.99046 0.15675 0.14817 0.0
C745 C 0.99198 0.14629 0.2065 0.0
C746 C 0.98412 0.1815 0.14081 0.0
C747 C 0.98045 0.18579 0.25215 0.0
C748 C 0.0389 0.09937 0.89934 0.0
N749 N 0.0431 0.08598 0.95306 0.0
C750 C 0.05841 0.10401 0.85766 0.0
C751 C 0.08238 0.09484 0.87128 0.0
C752 C 0.08655 0.08124 0.92621 0.0
C753 C 0.06658 0.07697 0.96675 0.0
C754 C 0.03457 0.00475 0.96792 0.0
C755 C 0.02595 0.03285 0.07356 0.0
C756 C 0.02951 0.03042 0.96369 0.0
N757 N 0.02501 0.04411 0.01606 0.0
C758 C 0.03101 0.00719 0.07962 0.0
C759 C 0.03522 0.99306 0.0263 0.0
C760 C 0.97547 0.08495 0.10779 0.0
C761 C 0.9462 0.16311 0.94251 0.0
C762 C 0.94526 0.14786 0.06613 0.0
C763 C 0.92306 0.15582 0.03697 0.0
C764 C 0.92358 0.16349 0.97471 0.0
N765 N 0.96741 0.14758 0.03434 0.0
C766 C 0.96803 0.15504 0.97324 0.0
Co767 Co 0.42014 0.01798 0.4785 0.0
Co768 Co 0.36923 0.00963 0.57409 0.0
O769 O 0.38434 0.01067 0.49061 0.0
C770 C 0.41777 0.97055 0.40528 0.0
O771 O 0.40907 0.95875 0.45458 0.0
C772 C 0.33174 0.042 0.50516 0.0
O773 O 0.3499 0.05506 0.47972 0.0
O774 O 0.38156 0.04418 0.59194 0.0
O775 O 0.41968 0.04275 0.548 0.0
H776 H 0.3683 0.02176 0.80635 0.0
H777 H 0.38449 0.0215 0.37228 0.0
O778 O 0.42185 0.99402 0.40714 0.0
H779 H 0.42287 0.10528 0.38666 0.0
H780 H 0.49798 0.03364 0.35184 0.0
H781 H 0.46359 0.02508 0.56381 0.0
H782 H 0.43536 0.07141 0.45971 0.0
H783 H 0.45294 0.02555 0.36722 0.0
O784 O 0.33675 0.02344 0.54085 0.0
H785 H 0.3868 0.02268 0.70136 0.0
H786 H 0.31922 0.99435 0.62352 0.0
H787 H 0.50875 0.03345 0.55047 0.0
H788 H 0.37158 0.05474 0.29777 0.0
H789 H 0.52623 0.03774 0.44386 0.0
H790 H 0.39082 0.097 0.30474 0.0
O791 O 0.42999 0.99058 0.53869 0.0
H792 H 0.32895 0.9432 0.44278 0.0
H793 H 0.37123 0.96066 0.64304 0.0
H794 H 0.35773 0.91754 0.6198 0.0
H795 H 0.33637 0.90859 0.5191 0.0
H796 H 0.34296 0.98605 0.4677 0.0
H797 H 0.29988 0.99334 0.72763 0.0
H798 H 0.32449 0.00702 0.82003 0.0
O799 O 0.40048 0.99543 0.61152 0.0
C800 C 0.40362 0.05291 0.58388 0.0
C801 C 0.35737 0.01573 0.76649 0.0
C802 C 0.31897 0.99982 0.72228 0.0
N803 N 0.35414 0.00859 0.65628 0.0
C804 C 0.36777 0.01618 0.70689 0.0
C805 C 0.33 1.00053 0.66339 0.0
C806 C 0.3328 0.00748 0.77411 0.0
C807 C 0.39299 0.03983 0.37548 0.0
N808 N 0.41061 0.04454 0.42042 0.0
C809 C 0.38558 0.05859 0.33323 0.0
C810 C 0.39635 0.0823 0.33722 0.0
C811 C 0.41432 0.08696 0.3832 0.0
C812 C 0.42123 0.06775 0.42468 0.0
C813 C 0.49059 0.03186 0.39853 0.0
C814 C 0.471 0.02715 0.51725 0.0
C815 C 0.46509 0.02719 0.40755 0.0
N816 N 0.45556 0.025 0.4664 0.0
C817 C 0.4966 0.03185 0.51 0.0
C818 C 0.50642 0.03421 0.45017 0.0
C819 C 0.42121 0.98637 0.59301 0.0
C820 C 0.33817 0.94688 0.48689 0.0
C821 C 0.36201 0.95692 0.59904 0.0
C822 C 0.35436 0.93247 0.5862 0.0
C823 C 0.34237 0.92746 0.5297 0.0
N824 N 0.35776 0.97588 0.55686 0.0
C825 C 0.34607 0.97111 0.50133 0.0
Co826 Co 0.48277 0.42104 0.013 0.0
Co827 Co 0.50135 0.36326 0.07459 0.0
O828 O 0.49161 0.38542 0.00494 0.0
C829 C 0.52617 0.42216 0.92703 0.0
O830 O 0.53784 0.40717 0.9667 0.0
C831 C 0.46458 0.32194 0.06768 0.0
O832 O 0.45746 0.32849 0.12378 0.0
O833 O 0.47233 0.37519 0.12522 0.0
O834 O 0.46136 0.41309 0.08616 0.0
H835 H 0.51901 0.34192 0.29962 0.0
H836 H 0.4764 0.39585 0.89109 0.0
O837 O 0.50402 0.42974 0.93877 0.0
H838 H 0.39209 0.42662 0.94638 0.0
H839 H 0.45864 0.50686 0.93177 0.0
H840 H 0.47683 0.45575 0.11943 0.0
H841 H 0.42825 0.43376 0.01642 0.0
H842 H 0.46945 0.46204 0.92248 0.0
O843 O 0.48051 0.3354 0.0383 0.0
H844 H 0.50658 0.36938 0.21149 0.0
H845 H 0.518 0.30965 0.08473 0.0
H846 H 0.46687 0.5007 0.13059 0.0
H847 H 0.44083 0.38856 0.81928 0.0
H848 H 0.45782 0.52665 0.03619 0.0
H849 H 0.39831 0.40401 0.84678 0.0
O850 O 0.51167 0.42747 0.07123 0.0
H851 H 0.54335 0.33268 0.88026 0.0
H852 H 0.55641 0.3577 0.09897 0.0
H853 H 0.59278 0.34503 0.03593 0.0
H854 H 0.58636 0.33234 0.92577 0.0
H855 H 0.50753 0.34577 0.94479 0.0
H856 H 0.53048 0.28153 0.17154 0.0
H857 H 0.53105 0.29763 0.27993 0.0
O858 O 0.52212 0.38995 0.11234 0.0
C859 C 0.45896 0.39516 0.12546 0.0
C860 C 0.51878 0.33466 0.25262 0.0
C861 C 0.52522 0.30077 0.18075 0.0
N862 N 0.51135 0.34111 0.14304 0.0
C863 C 0.51171 0.35012 0.20252 0.0
C864 C 0.51809 0.31678 0.13179 0.0
C865 C 0.52554 0.30982 0.24154 0.0
C866 C 0.45797 0.40271 0.90325 0.0
N867 N 0.45441 0.41529 0.95776 0.0
C868 C 0.43789 0.39848 0.86248 0.0
C869 C 0.41403 0.40713 0.87797 0.0
C870 C 0.41052 0.4198 0.93386 0.0
C871 C 0.43105 0.42369 0.97347 0.0
C872 C 0.46291 0.49587 0.97311 0.0
C873 C 0.47298 0.46691 0.0781 0.0
C874 C 0.46894 0.47043 0.96818 0.0
N875 N 0.47382 0.45626 0.02036 0.0
C876 C 0.46735 0.49237 0.08474 0.0
C877 C 0.4623 0.50691 0.03177 0.0
C878 C 0.52442 0.41366 0.10891 0.0
C879 C 0.54638 0.3381 0.92826 0.0
C880 C 0.55346 0.35232 0.05102 0.0
C881 C 0.57413 0.34509 0.01559 0.0
C882 C 0.57051 0.33795 0.9538 0.0
N883 N 0.52984 0.35234 0.0257 0.0
C884 C 0.52616 0.34542 0.96511 0.0
Co885 Co 0.08651 0.48589 0.51954 0.0
Co886 Co 0.14157 0.50484 0.59144 0.0
O887 O 0.12153 0.49672 0.51761 0.0
C888 C 0.08527 0.5307 0.43768 0.0
O889 O 0.09783 0.54233 0.48162 0.0
C890 C 0.18712 0.47337 0.57561 0.0
O891 O 0.18281 0.46392 0.63129 0.0
O892 O 0.1323 0.4723 0.63198 0.0
O893 O 0.09403 0.46345 0.59225 0.0
H894 H 0.15851 0.51305 0.8214 0.0
H895 H 0.11577 0.48282 0.40259 0.0
O896 O 0.0787 0.50801 0.44582 0.0
H897 H 0.08732 0.39652 0.44562 0.0
H898 H 0.00365 0.4621 0.42239 0.0
H899 H 0.04946 0.47625 0.61959 0.0
H900 H 0.07603 0.43107 0.51605 0.0
H901 H 0.04851 0.47329 0.42164 0.0
O902 O 0.17151 0.48887 0.55105 0.0
H903 H 0.1334 0.50277 0.72812 0.0
H904 H 0.19319 0.52542 0.61079 0.0
H905 H 0.00461 0.46495 0.62245 0.0
H906 H 0.1273 0.4489 0.33049 0.0
H907 H 0.98136 0.45796 0.52332 0.0
H908 H 0.11306 0.40538 0.35188 0.0
O909 O 0.07704 0.51336 0.57819 0.0
H910 H 0.16938 0.55993 0.41375 0.0
H911 H 0.1409 0.55832 0.63207 0.0
H912 H 0.15021 0.59887 0.5814 0.0
H913 H 0.16462 0.59985 0.47148 0.0
H914 H 0.15959 0.5198 0.46599 0.0
H915 H 0.21899 0.53591 0.70281 0.0
H916 H 0.20167 0.52972 0.80908 0.0
O917 O 0.11232 0.52083 0.63251 0.0
C918 C 0.11227 0.45918 0.62997 0.0
C919 C 0.16632 0.51572 0.77536 0.0
C920 C 0.20025 0.52856 0.70881 0.0
N921 N 0.1619 0.51315 0.66406 0.0
C922 C 0.15221 0.50984 0.72236 0.0
C923 C 0.18557 0.52253 0.65688 0.0
C924 C 0.19052 0.52509 0.76841 0.0
C925 C 0.10945 0.46394 0.4121 0.0
N926 N 0.09526 0.45891 0.4635 0.0
C927 C 0.11607 0.44481 0.37116 0.0
C928 C 0.10809 0.42038 0.38321 0.0
C929 C 0.09367 0.4154 0.43583 0.0
C930 C 0.08742 0.43501 0.47571 0.0
C931 C 0.01358 0.46506 0.46591 0.0
C932 C 0.03955 0.47293 0.57627 0.0
C933 C 0.03899 0.47145 0.46578 0.0
N934 N 0.05165 0.4753 0.52055 0.0
C935 C 0.01414 0.46662 0.57819 0.0
C936 C 1.0011 0.4627 0.52255 0.0
C937 C 0.08885 0.52365 0.62322 0.0
C938 C 0.16321 0.55974 0.46174 0.0
C939 C 0.14708 0.55857 0.58418 0.0
C940 C 0.15239 0.5816 0.55578 0.0
C941 C 0.16049 0.58214 0.49412 0.0
N942 N 0.14986 0.53667 0.55218 0.0
C943 C 0.15776 0.53706 0.49168 0.0
H944 H 0.99012 0.71666 0.08875 0.0
H945 H 0.94487 0.69157 0.93396 0.0
H946 H 0.93663 0.73531 0.90323 0.0
H947 H 0.94536 0.78053 0.91579 0.0
H948 H 0.99072 0.80478 0.07169 0.0
H949 H 0.99554 0.76148 0.10689 0.0
C950 C 0.97835 0.72072 0.04837 0.0
C951 C 0.96842 0.7009 0.01309 0.0
C952 C 0.9737 0.74578 0.03123 0.0
C953 C 0.9528 0.7065 0.96173 0.0
C954 C 0.94815 0.7315 0.9441 0.0
C955 C 0.95593 0.77641 0.95808 0.0
C956 C 0.96784 0.796 0.99064 0.0
C957 C 0.9589 0.7513 0.97788 0.0
C958 C 0.98143 0.7902 0.04543 0.0
C959 C 0.98431 0.76538 0.06553 0.0
H960 H 0.71117 0.95753 0.42831 0.0
H961 H 0.69723 0.97222 0.62254 0.0
H962 H 0.74244 0.9728 0.64351 0.0
H963 H 0.78574 0.97428 0.60377 0.0
H964 H 0.79988 0.95769 0.41071 0.0
H965 H 0.75476 0.95246 0.39201 0.0
C966 C 0.71807 0.96027 0.4755 0.0
C967 C 0.70092 0.96499 0.52379 0.0
C968 C 0.74407 0.96051 0.48716 0.0
C969 C 0.71003 0.9684 0.58472 0.0
C970 C 0.73589 0.96896 0.59659 0.0
C971 C 0.77892 0.96903 0.5579 0.0
C972 C 0.79599 0.96658 0.50848 0.0
C973 C 0.75305 0.96581 0.54779 0.0
C974 C 0.78707 0.95958 0.44943 0.0
C975 C 0.76128 0.95675 0.4387 0.0
H976 H 0.56219 0.77892 0.09907 0.0
H977 H 0.5123 0.80043 0.94782 0.0
H978 H 0.50821 0.75672 0.91786 0.0
H979 H 0.51565 0.71228 0.9397 0.0
H980 H 0.56596 0.68984 0.08859 0.0
H981 H 0.57312 0.73408 0.11427 0.0
C982 C 0.55077 0.77412 0.05888 0.0
C983 C 0.53735 0.79304 0.02628 0.0
C984 C 0.54831 0.74876 0.04197 0.0
C985 C 0.52274 0.78637 0.97412 0.0
C986 C 0.52027 0.76131 0.95704 0.0
C987 C 0.52825 0.71705 0.97772 0.0
C988 C 0.53993 0.69787 0.01298 0.0
C989 C 0.53239 0.74235 0.99163 0.0
C990 C 0.55666 0.70432 0.06106 0.0
C991 C 0.5607 0.72958 0.07575 0.0
H992 H 0.72043 0.54741 0.59189 0.0
H993 H 0.69293 0.50151 0.4412 0.0
H994 H 0.7352 0.49839 0.39932 0.0
H995 H 0.78029 0.50555 0.41013 0.0
H996 H 0.80848 0.55124 0.56003 0.0
H997 H 0.76554 0.55775 0.59726 0.0
C998 C 0.7236 0.53701 0.54939 0.0
C999 C 0.70346 0.52452 0.52017 0.0
C1000 C 0.7481 0.53506 0.5257 0.0
C1001 C 0.70798 0.51126 0.46491 0.0
C1002 C 0.73221 0.50936 0.44099 0.0
C1003 C 0.77708 0.51706 0.45081 0.0
C1004 C 0.79759 0.52762 0.4828 0.0
C1005 C 0.75246 0.52065 0.47184 0.0
C1006 C 0.79303 0.54286 0.53467 0.0
C1007 C 0.76849 0.5465 0.55607 0.0
H1008 H 0.02639 0.27934 0.88618 0.0
H1009 H 0.03837 0.29697 0.07989 0.0
H1010 H 0.04379 0.25221 0.10462 0.0
H1011 H 0.04035 0.20798 0.07221 0.0
H1012 H 0.03059 0.19068 0.87741 0.0
H1013 H 0.02959 0.23548 0.85155 0.0
C1014 C 0.03065 0.27334 0.9336 0.0
C1015 C 0.03175 0.29123 0.98139 0.0
C1016 C 0.03409 0.24772 0.9471 0.0
C1017 C 0.03751 0.28344 0.0425 0.0
C1018 C 0.04046 0.25789 0.0566 0.0
C1019 C 0.03861 0.21407 0.02394 0.0
C1020 C 0.03541 0.1961 0.97676 0.0
C1021 C 0.03815 0.23984 0.00948 0.0
C1022 C 0.03327 0.20414 0.91442 0.0
C1023 C 0.03245 0.22975 0.89972 0.0
H1024 H 0.29195 0.02903 0.57603 0.0
H1025 H 0.31125 0.06932 0.40787 0.0
H1026 H 0.26656 0.07624 0.38498 0.0
H1027 H 0.2221 0.06749 0.40843 0.0
H1028 H 0.20355 0.02652 0.57646 0.0
H1029 H 0.24794 0.02357 0.6041 0.0
C1030 C 0.28646 0.03941 0.53438 0.0
C1031 C 0.30495 0.04831 0.49317 0.0
C1032 C 0.26084 0.04325 0.52162 0.0
C1033 C 0.29743 0.06217 0.44019 0.0
C1034 C 0.27187 0.06608 0.42708 0.0
C1035 C 0.22768 0.05838 0.45181 0.0
C1036 C 0.20938 0.04713 0.49013 0.0
C1037 C 0.25339 0.0563 0.46692 0.0
C1038 C 0.21711 0.03531 0.54598 0.0
C1039 C 0.24255 0.03347 0.56167 0.0
H1040 H 0.44694 0.20539 0.04105 0.0
H1041 H 0.50348 0.2162 0.90032 0.0
H1042 H 0.50155 0.26127 0.91431 0.0
H1043 H 0.48685 0.29742 0.97224 0.0
H1044 H 0.4318 0.28768 0.11696 0.0
H1045 H 0.42971 0.24279 0.09477 0.0
C1046 C 0.45859 0.21768 0.01311 0.0
C1047 C 0.47566 0.20733 0.97055 0.0
C1048 C 0.45767 0.2439 0.02199 0.0
C1049 C 0.4906 0.22354 0.93449 0.0
C1050 C 0.48942 0.24942 0.94212 0.0
C1051 C 0.47399 0.28564 0.99822 0.0
C1052 C 0.45961 0.29598 0.0464 0.0
C1053 C 0.47346 0.25978 0.98662 0.0
C1054 C 0.44317 0.28026 0.07965 0.0
C1055 C 0.44206 0.25451 0.06725 0.0
H1056 H 0.29029 0.48915 0.44201 0.0
H1057 H 0.31749 0.44741 0.60203 0.0
H1058 H 0.27412 0.44029 0.63579 0.0
H1059 H 0.22874 0.44984 0.62472 0.0
H1060 H 0.20254 0.49173 0.46334 0.0
H1061 H 0.24528 0.49461 0.42493 0.0
C1062 C 0.28674 0.4783 0.48407 0.0
C1063 C 0.30702 0.46914 0.52006 0.0
C1064 C 0.26194 0.47439 0.503 0.0
C1065 C 0.30216 0.4547 0.57368 0.0
C1066 C 0.27738 0.45075 0.59306 0.0
C1067 C 0.23231 0.4592 0.58058 0.0
C1068 C 0.21238 0.47083 0.54746 0.0
C1069 C 0.25713 0.46104 0.55882 0.0
C1070 C 0.21742 0.48278 0.49019 0.0
C1071 C 0.24192 0.48453 0.46818 0.0
H1072 H 0.01573 0.56415 0.83015 0.0
H1073 H 0.08628 0.58811 0.90972 0.0
H1074 H 0.10834 0.57326 0.81764 0.0
H1075 H 0.10798 0.55139 0.71807 0.0
H1076 H 0.0377 0.52692 0.63794 0.0
H1077 H 0.01513 0.54454 0.72642 0.0
C1078 C 0.03592 0.56626 0.82729 0.0
C1079 C 0.04934 0.57705 0.87723 0.0
C1080 C 0.04853 0.55768 0.77407 0.0
C1081 C 0.07547 0.5798 0.8723 0.0
C1082 C 0.08811 0.57131 0.81959 0.0
C1083 C 0.08768 0.5501 0.71931 0.0
C1084 C 0.07463 0.53763 0.6713 0.0
C1085 C 0.07488 0.55994 0.77065 0.0
C1086 C 0.04829 0.5364 0.67396 0.0
C1087 C 0.03537 0.54634 0.72484 0.0
H1088 H 0.98323 0.04119 0.17193 0.0
H1089 H 0.93073 0.10236 0.14928 0.0
H1090 H 0.90766 0.08818 0.24083 0.0
H1091 H 0.90438 0.06045 0.33271 0.0
H1092 H 0.95763 0.99981 0.35695 0.0
H1093 H 0.9783 0.01167 0.26018 0.0
C1094 C 0.96639 0.051 0.18613 0.0
C1095 C 0.95872 0.07281 0.15379 0.0
C1096 C 0.95354 0.04309 0.24004 0.0
C1097 C 0.93708 0.08558 0.17351 0.0
C1098 C 0.92393 0.07755 0.2261 0.0
C1099 C 0.92046 0.0498 0.31679 0.0
C1100 C 0.92945 0.02938 0.35257 0.0
C1101 C 0.93238 0.05674 0.26082 0.0
C1102 C 0.95022 0.01565 0.33066 0.0
C1103 C 0.96211 0.0224 0.2751 0.0
H1104 H 0.48197 0.90857 0.76218 0.0
H1105 H 0.44888 0.95398 0.90549 0.0
H1106 H 0.42732 0.97955 0.82622 0.0
H1107 H 0.42003 0.99056 0.71765 0.0
H1108 H 0.45301 0.94647 0.57167 0.0
H1109 H 0.47366 0.9195 0.65041 0.0
C1110 C 0.46986 0.92398 0.77565 0.0
C1111 C 0.46665 0.92938 0.83927 0.0
C1112 C 0.45836 0.93928 0.72962 0.0
C1113 C 0.45141 0.94958 0.85669 0.0
C1114 C 0.43933 0.96429 0.81151 0.0
C1115 C 0.43169 0.97502 0.70281 0.0
C1116 C 0.43523 0.97068 0.63885 0.0
C1117 C 0.44304 0.95958 0.74803 0.0
C1118 C 0.45047 0.95053 0.6206 0.0
C1119 C 0.46201 0.93496 0.66564 0.0
H1120 H 0.52126 0.46151 0.15287 0.0
H1121 H 0.56182 0.39184 0.17837 0.0
H1122 H 0.57979 0.4071 0.27561 0.0
H1123 H 0.58072 0.43847 0.35896 0.0
H1124 H 0.53903 0.50758 0.33497 0.0
H1125 H 0.52487 0.49415 0.23208 0.0
C1126 C 0.53443 0.44985 0.17891 0.0
C1127 C 0.53992 0.42545 0.15835 0.0
C1128 C 0.54412 0.4584 0.23611 0.0
C1129 C 0.55709 0.41066 0.19304 0.0
C1130 C 0.56725 0.41928 0.24909 0.0
C1131 C 0.56849 0.4506 0.33136 0.0
C1132 C 0.56072 0.47383 0.35528 0.0
C1133 C 0.56023 0.44278 0.27216 0.0
C1134 C 0.54516 0.48946 0.31823 0.0
C1135 C 0.53703 0.48186 0.25925 0.0
H1136 H 0.04668 0.97418 0.36847 0.0
H1137 H 0.12198 0.95127 0.32138 0.0
H1138 H 0.10646 0.93107 0.22758 0.0
H1139 H 0.07204 0.92262 0.15399 0.0
H1140 H 0.997 0.94724 0.19847 0.0
H1141 H 0.01191 0.96404 0.29719 0.0
C1142 C 0.05965 0.96441 0.33831 0.0
C1143 C 0.08549 0.96432 0.35238 0.0
C1144 C 0.0507 0.95337 0.28305 0.0
C1145 C 0.10199 0.9517 0.31213 0.0
C1146 C 0.09316 0.9402 0.25805 0.0
C1147 C 0.05891 0.93146 0.18548 0.0
C1148 C 0.03349 0.93372 0.16837 0.0
C1149 C 0.06763 0.94138 0.24225 0.0
C1150 C 0.01675 0.94531 0.20997 0.0
C1151 C 0.02523 0.95493 0.2667 0.0
H1152 H 0.56079 0.09761 0.80925 0.0
H1153 H 0.51273 0.03518 0.85425 0.0
H1154 H 0.52794 0.01282 0.76248 0.0
H1155 H 0.55242 0.01261 0.66519 0.0
H1156 H 0.59865 0.07637 0.61866 0.0
H1157 H 0.58615 0.09686 0.71511 0.0
C1158 C 0.55384 0.07894 0.79982 0.0
C1159 C 0.53574 0.06803 0.83931 0.0
C1160 C 0.56198 0.06668 0.74592 0.0
C1161 C 0.52695 0.04388 0.82559 0.0
C1162 C 0.53542 0.03123 0.77257 0.0
C1163 C 0.55985 0.03097 0.67608 0.0
C1164 C 0.57637 0.043 0.63421 0.0
C1165 C 0.55252 0.04271 0.73167 0.0
C1166 C 0.58582 0.06673 0.64954 0.0
C1167 C 0.57875 0.07843 0.70487 0.0
H1168 H 0.46507 0.52349 0.35777 0.0
H1169 H 0.40135 0.5736 0.3451 0.0
H1170 H 0.41743 0.59147 0.2486 0.0
H1171 H 0.44727 0.59005 0.16211 0.0
H1172 H 0.51074 0.53956 0.17321 0.0
H1173 H 0.49697 0.52478 0.27563 0.0
C1174 C 0.455 0.5387 0.33473 0.0
C1175 C 0.43189 0.54696 0.35856 0.0
C1176 C 0.464 0.54851 0.27797 0.0
C1177 C 0.41911 0.56672 0.32777 0.0
C1178 C 0.42818 0.57686 0.27217 0.0
C1179 C 0.45809 0.57577 0.1868 0.0
C1180 C 0.47978 0.56571 0.15951 0.0
C1181 C 0.45015 0.56731 0.24571 0.0
C1182 C 0.49383 0.54753 0.19282 0.0
C1183 C 0.48602 0.53904 0.25143 0.0
H1184 H 0.93978 0.38925 0.78515 0.0
H1185 H 0.97113 0.45765 0.85823 0.0
H1186 H 0.95521 0.4808 0.76696 0.0
H1187 H 0.93557 0.48073 0.66212 0.0
H1188 H 0.90523 0.41171 0.58977 0.0
H1189 H 0.91791 0.38966 0.68509 0.0
C1190 C 0.94292 0.4093 0.78186 0.0
C1191 C 0.95689 0.42158 0.82857 0.0
C1192 C 0.93424 0.42232 0.72879 0.0
C1193 C 0.96046 0.44764 0.82327 0.0
C1194 C 0.95154 0.46086 0.77072 0.0
C1195 C 0.93161 0.46088 0.66727 0.0
C1196 C 0.91966 0.44785 0.61835 0.0
C1197 C 0.93896 0.44825 0.72244 0.0
C1198 C 0.91452 0.4222 0.62625 0.0
C1199 C 0.92173 0.40956 0.68086 0.0
H1200 H 0.98507 0.42941 0.16386 0.0
H1201 H 0.91515 0.40106 0.09016 0.0
H1202 H 0.89336 0.41512 0.18331 0.0
H1203 H 0.89355 0.43756 0.28172 0.0
H1204 H 0.96291 0.46683 0.35614 0.0
H1205 H 0.98564 0.44973 0.26705 0.0
C1206 C 0.96508 0.42618 0.16825 0.0
C1207 C 0.95173 0.41438 0.11957 0.0
C1208 C 0.9526 0.43434 0.22213 0.0
C1209 C 0.92588 0.41019 0.12649 0.0
C1210 C 0.9134 0.4182 0.17985 0.0
C1211 C 0.9137 0.43999 0.27922 0.0
C1212 C 0.92643 0.45364 0.32573 0.0
C1213 C 0.9265 0.43057 0.22746 0.0
C1214 C 0.9526 0.45636 0.32138 0.0
C1215 C 0.96557 0.44676 0.27009 0.0
H1216 H 0.01743 0.91506 0.78816 0.0
H1217 H 0.06012 0.95127 0.93283 0.0
H1218 H 0.08711 0.97076 0.85362 0.0
H1219 H 0.09812 0.9776 0.74207 0.0
H1220 H 0.05359 0.94239 0.59926 0.0
H1221 H 0.02792 0.9219 0.67876 0.0
C1222 C 0.03272 0.92714 0.80241 0.0
C1223 C 0.0368 0.93183 0.86611 0.0
C1224 C 0.04793 0.93816 0.75685 0.0
C1225 C 0.05646 0.94771 0.88394 0.0
C1226 C 0.07198 0.95864 0.83871 0.0
C1227 C 0.08307 0.96505 0.72877 0.0
C1228 C 0.07784 0.96108 0.66517 0.0
C1229 C 0.06793 0.95393 0.77493 0.0
C1230 C 0.05791 0.94545 0.64804 0.0
C1231 C 0.04324 0.93385 0.6934 0.0
H1232 H 0.54454 0.01527 0.32595 0.0
H1233 H 0.606 0.06715 0.34146 0.0
H1234 H 0.59146 0.08955 0.24821 0.0
H1235 H 0.56308 0.09261 0.15739 0.0
H1236 H 0.50185 0.04032 0.14068 0.0
H1237 H 0.51449 0.01994 0.23823 0.0
C1238 C 0.55433 0.03185 0.30974 0.0
C1239 C 0.57632 0.03954 0.34064 0.0
C1240 C 0.54616 0.04435 0.25493 0.0
C1241 C 0.58909 0.0608 0.31837 0.0
C1242 C 0.58085 0.07356 0.26481 0.0
C1243 C 0.5525 0.07678 0.17512 0.0
C1244 C 0.53164 0.068 0.14135 0.0
C1245 C 0.55979 0.06513 0.23171 0.0
C1246 C 0.51798 0.04758 0.16555 0.0
C1247 C 0.52518 0.03586 0.22154 0.0
H1248 H 0.45527 0.51158 0.68185 0.0
H1249 H 0.41425 0.57886 0.63058 0.0
H1250 H 0.42683 0.59835 0.72817 0.0
H1251 H 0.45067 0.59724 0.82534 0.0
H1252 H 0.49348 0.53116 0.87644 0.0
H1253 H 0.4783 0.51001 0.78264 0.0
C1254 C 0.449 0.53048 0.69212 0.0
C1255 C 0.43391 0.54376 0.64852 0.0
C1256 C 0.45637 0.5417 0.74863 0.0
C1257 C 0.42598 0.56821 0.66281 0.0
C1258 C 0.43308 0.57938 0.71883 0.0
C1259 C 0.4565 0.57808 0.81668 0.0
C1260 C 0.4732 0.56586 0.85839 0.0
C1261 C 0.44839 0.56639 0.76179 0.0
C1262 C 0.48045 0.54101 0.84582 0.0
C1263 C 0.47198 0.52898 0.7917 0.0
H1264 H 0.9535 0.01931 0.66071 0.0
H1265 H 0.89809 0.07782 0.63575 0.0
H1266 H 0.91375 0.099 0.72865 0.0
H1267 H 0.94032 0.09856 0.82351 0.0
H1268 H 0.99464 0.03894 0.84906 0.0
H1269 H 0.98212 0.0206 0.75054 0.0
C1270 C 0.94533 0.03706 0.67447 0.0
C1271 C 0.92466 0.04691 0.64116 0.0
C1272 C 0.9538 0.04869 0.72937 0.0
C1273 C 0.91407 0.0698 0.66044 0.0
C1274 C 0.92285 0.08182 0.71401 0.0
C1275 C 0.94944 0.08159 0.80751 0.0
C1276 C 0.96813 0.07002 0.84469 0.0
C1277 C 0.94215 0.07099 0.75012 0.0
C1278 C 0.97996 0.0482 0.82237 0.0
C1279 C 0.97291 0.03767 0.76555 0.0
H1280 H 0.43479 0.98979 0.29533 0.0
H1281 H 0.41907 0.91963 0.38912 0.0
H1282 H 0.43647 0.89662 0.30121 0.0
H1283 H 0.45864 0.89646 0.20159 0.0
H1284 H 0.47492 0.96661 0.10809 0.0
H1285 H 0.45467 0.98954 0.19224 0.0
C1286 C 0.43494 0.96945 0.29648 0.0
C1287 C 0.42573 0.95648 0.34919 0.0
C1288 C 0.44519 0.95633 0.24598 0.0
C1289 C 0.42599 0.93013 0.34938 0.0
C1290 C 0.43604 0.91694 0.29915 0.0
C1291 C 0.45759 0.91676 0.19901 0.0
C1292 C 0.46851 0.92971 0.1484 0.0
C1293 C 0.44606 0.92986 0.24775 0.0
C1294 C 0.46675 0.95606 0.14623 0.0
C1295 C 0.45522 0.96922 0.19452 0.0
H1296 H 0.50626 0.4502 0.83111 0.0
H1297 H 0.57418 0.41217 0.8906 0.0
H1298 H 0.59514 0.42589 0.7955 0.0
H1299 H 0.59482 0.44981 0.6976 0.0
H1300 H 0.52735 0.48856 0.63813 0.0
H1301 H 0.50549 0.47294 0.73029 0.0
C1302 C 0.52563 0.44484 0.82327 0.0
C1303 C 0.53863 0.43023 0.86837 0.0
C1304 C 0.53762 0.45273 0.76816 0.0
C1305 C 0.5637 0.42342 0.85703 0.0
C1306 C 0.57571 0.43124 0.80251 0.0
C1307 C 0.57523 0.45464 0.70418 0.0
C1308 C 0.56277 0.47025 0.6603 0.0
C1309 C 0.56292 0.446 0.75796 0.0
C1310 C 0.53739 0.47632 0.6703 0.0
C1311 C 0.52492 0.46758 0.72348 0.0
H1312 H 0.06308 0.51099 0.33388 0.0
H1313 H 0.09291 0.57992 0.40803 0.0
H1314 H 0.08065 0.60214 0.31262 0.0
H1315 H 0.05932 0.60268 0.21191 0.0
H1316 H 0.02861 0.53433 0.13687 0.0
H1317 H 0.04405 0.51105 0.22843 0.0
C1318 C 0.067 0.53086 0.32912 0.0
C1319 C 0.07867 0.54382 0.37851 0.0
C1320 C 0.05993 0.54357 0.27389 0.0
C1321 C 0.08381 0.5695 0.37114 0.0
C1322 C 0.07685 0.58222 0.31649 0.0
C1323 C 0.05622 0.58261 0.21485 0.0
C1324 C 0.04256 0.57037 0.16755 0.0
C1325 C 0.06463 0.56952 0.26802 0.0
C1326 C 0.03904 0.5443 0.17235 0.0
C1327 C 0.04768 0.53101 0.22503 0.0
H1328 H 0.91512 0.57422 0.37276 0.0
H1329 H 0.87107 0.53158 0.24193 0.0
H1330 H 0.88902 0.55528 0.15535 0.0
H1331 H 0.92275 0.58261 0.11702 0.0
H1332 H 0.96575 0.62629 0.24794 0.0
H1333 H 0.94231 0.60806 0.33433 0.0
C1334 C 0.90897 0.57054 0.32543 0.0
C1335 C 0.89234 0.55067 0.31372 0.0
C1336 C 0.9194 0.58424 0.27586 0.0
C1337 C 0.88411 0.5465 0.25227 0.0
C1338 C 0.89448 0.55998 0.20262 0.0
C1339 C 0.92656 0.58862 0.16431 0.0
C1340 C 0.94646 0.60524 0.17612 0.0
C1341 C 0.91301 0.57804 0.21382 0.0
C1342 C 0.9508 0.61328 0.23752 0.0
C1343 C 0.93747 0.60274 0.28707 0.0
H1344 H 0.9035 0.92214 0.64616 0.0
H1345 H 0.87382 0.98352 0.7533 0.0
H1346 H 0.89098 0.96479 0.84879 0.0
H1347 H 0.92046 0.93515 0.89769 0.0
H1348 H 0.94924 0.87289 0.7922 0.0
H1349 H 0.92617 0.88771 0.70004 0.0
C1350 C 0.90022 0.93105 0.69067 0.0
C1351 C 0.88779 0.95441 0.69253 0.0
C1352 C 0.91034 0.92027 0.74536 0.0
C1353 C 0.88333 0.96558 0.75053 0.0
C1354 C 0.89336 0.95499 0.80513 0.0
C1355 C 0.92128 0.92444 0.85509 0.0
C1356 C 0.93722 0.90336 0.85148 0.0
C1357 C 0.90784 0.93297 0.80253 0.0
C1358 C 0.93757 0.88945 0.79608 0.0
C1359 C 0.92439 0.89795 0.74325 0.0
H1360 H 0.55305 0.87925 0.22028 0.0
H1361 H 0.59142 0.92185 0.07865 0.0
H1362 H 0.61754 0.94156 0.15795 0.0
H1363 H 0.6229 0.95313 0.26778 0.0
H1364 H 0.58141 0.91341 0.40912 0.0
H1365 H 0.56341 0.886 0.33038 0.0
C1366 C 0.56762 0.89225 0.20666 0.0
C1367 C 0.56988 0.89953 0.14388 0.0
C1368 C 0.58174 0.90443 0.25284 0.0
C1369 C 0.589 0.91631 0.12687 0.0
C1370 C 0.60389 0.92768 0.17225 0.0
C1371 C 0.61054 0.93798 0.28151 0.0
C1372 C 0.60309 0.93563 0.34395 0.0
C1373 C 0.59943 0.92293 0.23556 0.0
C1374 C 0.58705 0.91591 0.36112 0.0
C1375 C 0.57671 0.90022 0.31607 0.0
H1376 H 0.58111 0.58682 0.62464 0.0
H1377 H 0.63265 0.54014 0.73033 0.0
H1378 H 0.62101 0.56163 0.82587 0.0
H1379 H 0.58974 0.58707 0.88062 0.0
H1380 H 0.53845 0.63397 0.77473 0.0
H1381 H 0.55698 0.6195 0.67778 0.0
C1382 C 0.5903 0.58179 0.66827 0.0
C1383 C 0.60699 0.56128 0.67077 0.0
C1384 C 0.58337 0.59409 0.72306 0.0
C1385 C 0.61931 0.55547 0.72729 0.0
C1386 C 0.61258 0.5677 0.78207 0.0
C1387 C 0.5831 0.59469 0.83641 0.0
C1388 C 0.56215 0.61084 0.83478 0.0
C1389 C 0.59361 0.58603 0.78084 0.0
C1390 C 0.55421 0.62112 0.77732 0.0
C1391 C 0.5647 0.61272 0.72174 0.0
H1392 H 0.08494 0.4166 0.62074 0.0
H1393 H 0.12952 0.45925 0.75036 0.0
H1394 H 0.11161 0.43586 0.83754 0.0
H1395 H 0.07751 0.40911 0.87655 0.0
H1396 H 0.03384 0.36562 0.74654 0.0
H1397 H 0.05752 0.38318 0.6598 0.0
C1398 C 0.09122 0.42033 0.66794 0.0
C1399 C 0.10791 0.44018 0.67922 0.0
C1400 C 0.08077 0.40687 0.71777 0.0
C1401 C 0.11638 0.44438 0.74044 0.0
C1402 C 0.10602 0.43108 0.7904 0.0
C1403 C 0.07359 0.403 0.82939 0.0
C1404 C 0.05345 0.38665 0.81789 0.0
C1405 C 0.08727 0.41321 0.77966 0.0
C1406 C 0.04899 0.37844 0.75669 0.0
C1407 C 0.06245 0.38858 0.70694 0.0
H1408 H 0.0424 0.11782 0.24016 0.0
H1409 H 0.0872 0.08156 0.10045 0.0
H1410 H 0.11524 0.06466 0.18088 0.0
H1411 H 0.12206 0.05377 0.29108 0.0
H1412 H 0.07496 0.08705 0.43079 0.0
H1413 H 0.05335 0.11204 0.35095 0.0
C1414 C 0.05873 0.10686 0.22733 0.0
C1415 C 0.06246 0.10053 0.16465 0.0
C1416 C 0.07427 0.09643 0.27414 0.0
C1417 C 0.08365 0.08624 0.14857 0.0
C1418 C 0.09972 0.07657 0.19457 0.0
C1419 C 0.10763 0.06706 0.30423 0.0
C1420 C 0.09981 0.06822 0.36652 0.0
C1421 C 0.0945 0.08053 0.25766 0.0
C1422 C 0.08105 0.08556 0.3829 0.0
C1423 C 0.06859 0.09978 0.33722 0.0
H1424 H 0.38435 0.0694 0.6943 0.0
H1425 H 0.44395 0.08309 0.56316 0.0
H1426 H 0.46501 0.10997 0.63772 0.0
H1427 H 0.47082 0.12253 0.74638 0.0
H1428 H 0.41397 0.10481 0.88136 0.0
H1429 H 0.38746 0.08708 0.79957 0.0
C1430 C 0.40164 0.07869 0.6815 0.0
C1431 C 0.4127 0.07376 0.62345 0.0
C1432 C 0.41439 0.09329 0.72589 0.0
C1433 C 0.43505 0.08624 0.60762 0.0
C1434 C 0.44724 0.1016 0.65044 0.0
C1435 C 0.45226 0.11566 0.75744 0.0
C1436 C 0.44445 0.11478 0.81978 0.0
C1437 C 0.43772 0.10428 0.7107 0.0
C1438 C 0.42043 0.10553 0.83362 0.0
C1439 C 0.40534 0.09522 0.78692 0.0
H1440 H 0.41809 0.4258 0.12879 0.0
H1441 H 0.46251 0.37518 0.24303 0.0
H1442 H 0.44268 0.39144 0.33667 0.0
H1443 H 0.41834 0.42499 0.38618 0.0
H1444 H 0.37339 0.47514 0.27196 0.0
H1445 H 0.38745 0.45375 0.17823 0.0
C1446 C 0.423 0.41789 0.17405 0.0
C1447 C 0.44222 0.39975 0.17899 0.0
C1448 C 0.41162 0.42743 0.22777 0.0
C1449 C 0.448 0.38933 0.23784 0.0
C1450 C 0.43676 0.39874 0.29155 0.0
C1451 C 0.41113 0.43085 0.34089 0.0
C1452 C 0.39532 0.45201 0.33599 0.0
C1453 C 0.41942 0.41856 0.28714 0.0
C1454 C 0.38575 0.45907 0.27711 0.0
C1455 C 0.39392 0.44694 0.22336 0.0
loop_
_geom_bond_atom_site_label_1
_geom_bond_atom_site_label_2
_geom_bond_distance
_geom_bond_site_symmetry_2
_ccdc_geom_bond_type
Co0 O2 2.143 1_655 S
Co0 O8 2.074 . S
Co0 O11 2.093 1_654 S
Co0 O24 2.097 1_655 S
Co0 N41 2.151 1_554 S
Co0 N49 2.214 . S
Co1 O2 2.160 . S
Co1 O7 2.058 1_455 S
Co1 O17 2.057 1_455 S
Co1 O32 2.037 . S
Co1 N36 2.145 . S
Co1 N57 2.257 . S
O2 Co0 2.143 1_455 S
O2 Co1 2.160 . S
C3 O4 1.278 . S
C3 O11 1.224 . S
O4 C3 1.278 . S
C5 O6 1.245 1_554 S
C5 O17 1.232 . S
O6 C5 1.245 1_556 S
O7 Co1 2.058 1_655 S
O7 C33 1.269 . S
O8 Co0 2.074 . S
O8 C33 1.257 . S
H9 C34 0.930 . S
H10 C40 0.930 . S
O11 Co0 2.093 1_456 S
O11 C3 1.224 . S
H12 C44 0.929 . S
H13 C46 0.930 . S
H14 C47 0.930 . S
H15 C45 0.929 . S
H16 C48 0.928 . S
O17 Co1 2.057 1_655 S
O17 C5 1.232 . S
H18 C37 0.929 . S
H19 C38 0.929 . S
H20 C50 0.931 . S
H21 C42 0.929 . S
H22 C51 0.930 . S
H23 C43 0.931 . S
O24 Co0 2.097 1_455 S
O24 C52 1.214 . S
H25 C53 0.929 . S
H26 C54 0.929 . S
H27 C55 0.930 . S
H28 C56 0.929 . S
H29 C58 0.930 1_556 S
H30 C35 0.930 . S
H31 C39 0.930 . S
O32 Co1 2.037 . S
O32 C52 1.234 . S
C33 O7 1.269 . S
C33 O8 1.257 . S
C34 H9 0.930 . S
C34 C37 1.388 . S
C34 C39 1.418 . S
C35 H30 0.930 . S
C35 C38 1.404 . S
C35 C39 1.353 . S
N36 Co1 2.145 . S
N36 C37 1.397 . S
N36 C38 1.334 . S
C37 H18 0.929 . S
C37 C34 1.388 . S
C37 N36 1.397 . S
C38 H19 0.929 . S
C38 C35 1.404 . S
C38 N36 1.334 . S
C39 H31 0.930 . S
C39 C34 1.418 . S
C39 C35 1.353 . S
C40 H10 0.930 . S
C40 N41 1.330 . S
C40 C42 1.446 . S
N41 Co0 2.151 1_556 S
N41 C40 1.330 . S
N41 C45 1.418 . S
C42 H21 0.929 . S
C42 C40 1.446 . S
C42 C43 1.332 . S
C43 H23 0.931 . S
C43 C42 1.332 . S
C43 C44 1.267 . S
C44 H12 0.929 . S
C44 C43 1.267 . S
C44 C45 1.251 . S
C45 H15 0.929 . S
C45 N41 1.418 . S
C45 C44 1.251 . S
C46 H13 0.930 . S
C46 C48 1.406 . S
C46 C51 1.261 1_556 S
C47 H14 0.930 . S
C47 N49 1.325 . S
C47 C50 1.357 . S
C48 H16 0.928 . S
C48 C46 1.406 . S
C48 N49 1.261 1_556 S
N49 Co0 2.214 . S
N49 C47 1.325 . S
N49 C48 1.261 1_554 S
C50 H20 0.931 . S
C50 C47 1.357 . S
C50 C51 1.312 . S
C51 H22 0.930 . S
C51 C46 1.261 1_554 S
C51 C50 1.312 . S
C52 O24 1.214 . S
C52 O32 1.234 . S
C53 H25 0.929 . S
C53 C56 1.391 1_556 S
C53 C58 1.391 1_556 S
C54 H26 0.929 . S
C54 C55 1.390 . S
C54 N57 1.391 . S
C55 H27 0.930 . S
C55 C54 1.390 . S
C55 C56 1.392 . S
C56 H28 0.929 . S
C56 C53 1.391 1_554 S
C56 C55 1.392 . S
N57 Co1 2.257 . S
N57 C54 1.391 . S
N57 C58 1.388 . S
C58 H29 0.930 1_554 S
C58 C53 1.391 1_554 S
C58 N57 1.388 . S
Co59 O61 2.143 1_565 S
Co59 O67 2.074 . S
Co59 O70 2.093 1_565 S
Co59 O83 2.097 1_565 S
Co59 N100 2.151 . S
Co59 N108 2.214 . S
Co60 O61 2.160 . S
Co60 O66 2.058 1_545 S
Co60 O76 2.057 1_545 S
Co60 O91 2.037 . S
Co60 N95 2.145 . S
Co60 N116 2.257 . S
O61 Co59 2.143 1_545 S
O61 Co60 2.160 . S
C62 O63 1.278 . S
C62 O70 1.224 . S
O63 C62 1.278 . S
C64 O65 1.245 . S
C64 O76 1.232 . S
O65 C64 1.245 . S
O66 Co60 2.058 1_565 S
O66 C92 1.269 . S
O67 Co59 2.074 . S
O67 C92 1.257 . S
H68 C93 0.930 . S
H69 C99 0.930 . S
O70 Co59 2.093 1_545 S
O70 C62 1.224 . S
H71 C103 0.929 . S
H72 C105 0.930 1_455 S
H73 C106 0.930 . S
H74 C104 0.929 . S
H75 C107 0.928 . S
O76 Co60 2.057 1_565 S
O76 C64 1.232 . S
H77 C96 0.929 . S
H78 C97 0.929 . S
H79 C109 0.931 . S
H80 C101 0.929 . S
H81 C110 0.930 . S
H82 C102 0.931 . S
O83 Co59 2.097 1_545 S
O83 C111 1.214 . S
H84 C112 0.929 . S
H85 C113 0.929 . S
H86 C114 0.930 . S
H87 C115 0.929 . S
H88 C117 0.930 . S
H89 C94 0.930 . S
H90 C98 0.930 . S
O91 Co60 2.037 . S
O91 C111 1.234 . S
C92 O66 1.269 . S
C92 O67 1.257 . S
C93 H68 0.930 . S
C93 C96 1.388 . S
C93 C98 1.418 . S
C94 H89 0.930 . S
C94 C97 1.404 . S
C94 C98 1.353 . S
N95 Co60 2.145 . S
N95 C96 1.397 . S
N95 C97 1.334 . S
C96 H77 0.929 . S
C96 C93 1.388 . S
C96 N95 1.397 . S
C97 H78 0.929 . S
C97 C94 1.404 . S
C97 N95 1.334 . S
C98 H90 0.930 . S
C98 C93 1.418 . S
C98 C94 1.353 . S
C99 H69 0.930 . S
C99 N100 1.330 . S
C99 C101 1.446 . S
N100 Co59 2.151 . S
N100 C99 1.330 . S
N100 C104 1.418 . S
C101 H80 0.929 . S
C101 C99 1.446 . S
C101 C102 1.332 . S
C102 H82 0.931 . S
C102 C101 1.332 . S
C102 C103 1.267 . S
C103 H71 0.929 . S
C103 C102 1.267 . S
C103 C104 1.251 . S
C104 H74 0.929 . S
C104 N100 1.418 . S
C104 C103 1.251 . S
C105 H72 0.930 1_655 S
C105 C107 1.406 . S
C105 C110 1.261 1_655 S
C106 H73 0.930 . S
C106 N108 1.325 . S
C106 C109 1.357 . S
C107 H75 0.928 . S
C107 C105 1.406 . S
C107 N108 1.261 . S
N108 Co59 2.214 . S
N108 C106 1.325 . S
N108 C107 1.261 . S
C109 H79 0.931 . S
C109 C106 1.357 . S
C109 C110 1.312 1_655 S
C110 H81 0.930 . S
C110 C105 1.261 1_455 S
C110 C109 1.312 1_455 S
C111 O83 1.214 . S
C111 O91 1.234 . S
C112 H84 0.929 . S
C112 C115 1.391 . S
C112 C117 1.391 . S
C113 H85 0.929 . S
C113 C114 1.390 . S
C113 N116 1.391 . S
C114 H86 0.930 . S
C114 C113 1.390 . S
C114 C115 1.392 . S
C115 H87 0.929 . S
C115 C112 1.391 . S
C115 C114 1.392 . S
N116 Co60 2.257 . S
N116 C113 1.391 . S
N116 C117 1.388 . S
C117 H88 0.930 . S
C117 C112 1.391 . S
C117 N116 1.388 . S
Co118 O120 2.143 . S
Co118 O126 2.074 . S
Co118 O129 2.093 1_554 S
Co118 O142 2.097 . S
Co118 N159 2.151 1_554 S
Co118 N167 2.214 . S
Co119 O120 2.160 . S
Co119 O125 2.058 . S
Co119 O135 2.057 . S
Co119 O150 2.037 . S
Co119 N154 2.145 . S
Co119 N175 2.257 . S
O120 Co118 2.143 . S
O120 Co119 2.160 . S
C121 O122 1.278 . S
C121 O129 1.224 . S
O122 C121 1.278 . S
C123 O124 1.245 1_554 S
C123 O135 1.232 . S
O124 C123 1.245 1_556 S
O125 Co119 2.058 . S
O125 C151 1.269 . S
O126 Co118 2.074 . S
O126 C151 1.257 . S
H127 C152 0.930 . S
H128 C158 0.930 . S
O129 Co118 2.093 1_556 S
O129 C121 1.224 . S
H130 C162 0.929 . S
H131 C164 0.930 1_545 S
H132 C165 0.930 . S
H133 C163 0.929 1_554 S
H134 C166 0.928 . S
O135 Co119 2.057 . S
O135 C123 1.232 . S
H136 C155 0.929 . S
H137 C156 0.929 . S
H138 C168 0.931 . S
H139 C160 0.929 . S
H140 C169 0.930 . S
H141 C161 0.931 . S
O142 Co118 2.097 . S
O142 C170 1.214 . S
H143 C171 0.929 1_556 S
H144 C172 0.929 . S
H145 C173 0.930 . S
H146 C174 0.929 . S
H147 C176 0.930 1_556 S
H148 C153 0.930 . S
H149 C157 0.930 . S
O150 Co119 2.037 . S
O150 C170 1.234 . S
C151 O125 1.269 . S
C151 O126 1.257 . S
C152 H127 0.930 . S
C152 C155 1.388 . S
C152 C157 1.418 . S
C153 H148 0.930 . S
C153 C156 1.404 . S
C153 C157 1.353 . S
N154 Co119 2.145 . S
N154 C155 1.397 . S
N154 C156 1.334 . S
C155 H136 0.929 . S
C155 C152 1.388 . S
C155 N154 1.397 . S
C156 H137 0.929 . S
C156 C153 1.404 . S
C156 N154 1.334 . S
C157 H149 0.930 . S
C157 C152 1.418 . S
C157 C153 1.353 . S
C158 H128 0.930 . S
C158 N159 1.330 . S
C158 C160 1.446 . S
N159 Co118 2.151 1_556 S
N159 C158 1.330 . S
N159 C163 1.418 . S
C160 H139 0.929 . S
C160 C158 1.446 . S
C160 C161 1.332 . S
C161 H141 0.931 . S
C161 C160 1.332 . S
C161 C162 1.267 . S
C162 H130 0.929 . S
C162 C161 1.267 . S
C162 C163 1.251 . S
C163 H133 0.929 1_556 S
C163 N159 1.418 . S
C163 C162 1.251 . S
C164 H131 0.930 1_565 S
C164 C166 1.406 . S
C164 C169 1.261 1_566 S
C165 H132 0.930 . S
C165 N167 1.325 . S
C165 C168 1.357 . S
C166 H134 0.928 . S
C166 C164 1.406 . S
C166 N167 1.261 1_556 S
N167 Co118 2.214 . S
N167 C165 1.325 . S
N167 C166 1.261 1_554 S
C168 H138 0.931 . S
C168 C165 1.357 . S
C168 C169 1.312 1_565 S
C169 H140 0.930 . S
C169 C164 1.261 1_544 S
C169 C168 1.312 1_545 S
C170 O142 1.214 . S
C170 O150 1.234 . S
C171 H143 0.929 1_554 S
C171 C174 1.391 . S
C171 C176 1.391 . S
C172 H144 0.929 . S
C172 C173 1.390 . S
C172 N175 1.391 . S
C173 H145 0.930 . S
C173 C172 1.390 . S
C173 C174 1.392 . S
C174 H146 0.929 . S
C174 C171 1.391 . S
C174 C173 1.392 . S
N175 Co119 2.257 . S
N175 C172 1.391 . S
N175 C176 1.388 . S
C176 H147 0.930 1_554 S
C176 C171 1.391 . S
C176 N175 1.388 . S
Co177 O179 2.143 . S
Co177 O185 2.074 . S
Co177 O188 2.093 . S
Co177 O201 2.097 . S
Co177 N218 2.151 . S
Co177 N226 2.214 . S
Co178 O179 2.160 . S
Co178 O184 2.058 . S
Co178 O194 2.057 . S
Co178 O209 2.037 . S
Co178 N213 2.145 . S
Co178 N234 2.257 . S
O179 Co177 2.143 . S
O179 Co178 2.160 . S
C180 O181 1.278 . S
C180 O188 1.224 . S
O181 C180 1.278 . S
C182 O183 1.245 . S
C182 O194 1.232 . S
O183 C182 1.245 . S
O184 Co178 2.058 . S
O184 C210 1.269 . S
O185 Co177 2.074 . S
O185 C210 1.257 . S
H186 C211 0.930 . S
H187 C217 0.930 . S
O188 Co177 2.093 . S
O188 C180 1.224 . S
H189 C221 0.929 . S
H190 C223 0.930 . S
H191 C224 0.930 . S
H192 C222 0.929 . S
H193 C225 0.928 . S
O194 Co178 2.057 . S
O194 C182 1.232 . S
H195 C214 0.929 . S
H196 C215 0.929 . S
H197 C227 0.931 . S
H198 C219 0.929 . S
H199 C228 0.930 . S
H200 C220 0.931 . S
O201 Co177 2.097 . S
O201 C229 1.214 . S
H202 C230 0.929 . S
H203 C231 0.929 . S
H204 C232 0.930 . S
H205 C233 0.929 . S
H206 C235 0.930 . S
H207 C212 0.930 . S
H208 C216 0.930 . S
O209 Co178 2.037 . S
O209 C229 1.234 . S
C210 O184 1.269 . S
C210 O185 1.257 . S
C211 H186 0.930 . S
C211 C214 1.388 . S
C211 C216 1.418 . S
C212 H207 0.930 . S
C212 C215 1.404 . S
C212 C216 1.353 . S
N213 Co178 2.145 . S
N213 C214 1.397 . S
N213 C215 1.334 . S
C214 H195 0.929 . S
C214 C211 1.388 . S
C214 N213 1.397 . S
C215 H196 0.929 . S
C215 C212 1.404 . S
C215 N213 1.334 . S
C216 H208 0.930 . S
C216 C211 1.418 . S
C216 C212 1.353 . S
C217 H187 0.930 . S
C217 N218 1.330 . S
C217 C219 1.446 . S
N218 Co177 2.151 . S
N218 C217 1.330 . S
N218 C222 1.418 . S
C219 H198 0.929 . S
C219 C217 1.446 . S
C219 C220 1.332 . S
C220 H200 0.931 . S
C220 C219 1.332 . S
C220 C221 1.267 . S
C221 H189 0.929 . S
C221 C220 1.267 . S
C221 C222 1.251 . S
C222 H192 0.929 . S
C222 N218 1.418 . S
C222 C221 1.251 . S
C223 H190 0.930 . S
C223 C225 1.406 . S
C223 C228 1.261 . S
C224 H191 0.930 . S
C224 N226 1.325 . S
C224 C227 1.357 . S
C225 H193 0.928 . S
C225 C223 1.406 . S
C225 N226 1.261 . S
N226 Co177 2.214 . S
N226 C224 1.325 . S
N226 C225 1.261 . S
C227 H197 0.931 . S
C227 C224 1.357 . S
C227 C228 1.312 . S
C228 H199 0.930 . S
C228 C223 1.261 . S
C228 C227 1.312 . S
C229 O201 1.214 . S
C229 O209 1.234 . S
C230 H202 0.929 . S
C230 C233 1.391 . S
C230 C235 1.391 . S
C231 H203 0.929 . S
C231 C232 1.390 . S
C231 N234 1.391 . S
C232 H204 0.930 . S
C232 C231 1.390 . S
C232 C233 1.392 . S
C233 H205 0.929 . S
C233 C230 1.391 . S
C233 C232 1.392 . S
N234 Co178 2.257 . S
N234 C231 1.391 . S
N234 C235 1.388 . S
C235 H206 0.930 . S
C235 C230 1.391 . S
C235 N234 1.388 . S
Co236 O238 2.143 1_655 S
Co236 O244 2.074 . S
Co236 O247 2.093 1_656 S
Co236 O260 2.097 1_655 S
Co236 N277 2.151 1_556 S
Co236 N285 2.214 . S
Co237 O238 2.160 . S
Co237 O243 2.058 1_455 S
Co237 O253 2.057 1_455 S
Co237 O268 2.037 . S
Co237 N272 2.145 . S
Co237 N293 2.257 . S
O238 Co236 2.143 1_455 S
O238 Co237 2.160 . S
C239 O240 1.278 . S
C239 O247 1.224 . S
O240 C239 1.278 . S
C241 O242 1.245 1_556 S
C241 O253 1.232 . S
O242 C241 1.245 1_554 S
O243 Co237 2.058 1_655 S
O243 C269 1.269 . S
O244 Co236 2.074 . S
O244 C269 1.257 . S
H245 C270 0.930 . S
H246 C276 0.930 . S
O247 Co236 2.093 1_454 S
O247 C239 1.224 . S
H248 C280 0.929 . S
H249 C282 0.930 1_544 S
H250 C283 0.930 . S
H251 C281 0.929 1_556 S
H252 C284 0.928 . S
O253 Co237 2.057 1_655 S
O253 C241 1.232 . S
H254 C273 0.929 . S
H255 C274 0.929 . S
H256 C286 0.931 . S
H257 C278 0.929 . S
H258 C287 0.930 . S
H259 C279 0.931 . S
O260 Co236 2.097 1_455 S
O260 C288 1.214 . S
H261 C289 0.929 1_554 S
H262 C290 0.929 . S
H263 C291 0.930 . S
H264 C292 0.929 . S
H265 C294 0.930 . S
H266 C271 0.930 . S
H267 C275 0.930 . S
O268 Co237 2.037 . S
O268 C288 1.234 . S
C269 O243 1.269 . S
C269 O244 1.257 . S
C270 H245 0.930 . S
C270 C273 1.388 . S
C270 C275 1.418 . S
C271 H266 0.930 . S
C271 C274 1.404 . S
C271 C275 1.353 . S
N272 Co237 2.145 . S
N272 C273 1.397 . S
N272 C274 1.334 . S
C273 H254 0.929 . S
C273 C270 1.388 . S
C273 N272 1.397 . S
C274 H255 0.929 . S
C274 C271 1.404 . S
C274 N272 1.334 . S
C275 H267 0.930 . S
C275 C270 1.418 . S
C275 C271 1.353 . S
C276 H246 0.930 . S
C276 N277 1.330 . S
C276 C278 1.446 . S
N277 Co236 2.151 1_554 S
N277 C276 1.330 . S
N277 C281 1.418 . S
C278 H257 0.929 . S
C278 C276 1.446 . S
C278 C279 1.332 . S
C279 H259 0.931 . S
C279 C278 1.332 . S
C279 C280 1.267 . S
C280 H248 0.929 . S
C280 C279 1.267 . S
C280 C281 1.251 . S
C281 H251 0.929 1_554 S
C281 N277 1.418 . S
C281 C280 1.251 . S
C282 H249 0.930 1_566 S
C282 C284 1.406 1_556 S
C282 C287 1.261 1_565 S
C283 H250 0.930 . S
C283 N285 1.325 . S
C283 C286 1.357 . S
C284 H252 0.928 . S
C284 C282 1.406 1_554 S
C284 N285 1.261 1_554 S
N285 Co236 2.214 . S
N285 C283 1.325 . S
N285 C284 1.261 1_556 S
C286 H256 0.931 . S
C286 C283 1.357 . S
C286 C287 1.312 1_565 S
C287 H258 0.930 . S
C287 C282 1.261 1_545 S
C287 C286 1.312 1_545 S
C288 O260 1.214 . S
C288 O268 1.234 . S
C289 H261 0.929 1_556 S
C289 C292 1.391 . S
C289 C294 1.391 . S
C290 H262 0.929 . S
C290 C291 1.390 . S
C290 N293 1.391 . S
C291 H263 0.930 . S
C291 C290 1.390 . S
C291 C292 1.392 . S
C292 H264 0.929 . S
C292 C289 1.391 . S
C292 C291 1.392 . S
N293 Co237 2.257 . S
N293 C290 1.391 . S
N293 C294 1.388 . S
C294 H265 0.930 . S
C294 C289 1.391 . S
C294 N293 1.388 . S
Co295 O297 2.143 1_565 S
Co295 O303 2.074 . S
Co295 O306 2.093 1_565 S
Co295 O319 2.097 1_565 S
Co295 N336 2.151 . S
Co295 N344 2.214 . S
Co296 O297 2.160 . S
Co296 O302 2.058 1_545 S
Co296 O312 2.057 1_545 S
Co296 O327 2.037 . S
Co296 N331 2.145 . S
Co296 N352 2.257 . S
O297 Co295 2.143 1_545 S
O297 Co296 2.160 . S
C298 O299 1.278 . S
C298 O306 1.224 . S
O299 C298 1.278 . S
C300 O301 1.245 . S
C300 O312 1.232 . S
O301 C300 1.245 . S
O302 Co296 2.058 1_565 S
O302 C328 1.269 . S
O303 Co295 2.074 . S
O303 C328 1.257 . S
H304 C329 0.930 . S
H305 C335 0.930 . S
O306 Co295 2.093 1_545 S
O306 C298 1.224 . S
H307 C339 0.929 . S
H308 C341 0.930 . S
H309 C342 0.930 . S
H310 C340 0.929 . S
H311 C343 0.928 . S
O312 Co296 2.057 1_565 S
O312 C300 1.232 . S
H313 C332 0.929 . S
H314 C333 0.929 . S
H315 C345 0.931 . S
H316 C337 0.929 . S
H317 C346 0.930 . S
H318 C338 0.931 . S
O319 Co295 2.097 1_545 S
O319 C347 1.214 . S
H320 C348 0.929 . S
H321 C349 0.929 . S
H322 C350 0.930 . S
H323 C351 0.929 . S
H324 C353 0.930 . S
H325 C330 0.930 . S
H326 C334 0.930 . S
O327 Co296 2.037 . S
O327 C347 1.234 . S
C328 O302 1.269 . S
C328 O303 1.257 . S
C329 H304 0.930 . S
C329 C332 1.388 . S
C329 C334 1.418 . S
C330 H325 0.930 . S
C330 C333 1.404 . S
C330 C334 1.353 . S
N331 Co296 2.145 . S
N331 C332 1.397 . S
N331 C333 1.334 . S
C332 H313 0.929 . S
C332 C329 1.388 . S
C332 N331 1.397 . S
C333 H314 0.929 . S
C333 C330 1.404 . S
C333 N331 1.334 . S
C334 H326 0.930 . S
C334 C329 1.418 . S
C334 C330 1.353 . S
C335 H305 0.930 . S
C335 N336 1.330 . S
C335 C337 1.446 . S
N336 Co295 2.151 . S
N336 C335 1.330 . S
N336 C340 1.418 . S
C337 H316 0.929 . S
C337 C335 1.446 . S
C337 C338 1.332 . S
C338 H318 0.931 . S
C338 C337 1.332 . S
C338 C339 1.267 . S
C339 H307 0.929 . S
C339 C338 1.267 . S
C339 C340 1.251 . S
C340 H310 0.929 . S
C340 N336 1.418 . S
C340 C339 1.251 . S
C341 H308 0.930 . S
C341 C343 1.406 . S
C341 C346 1.261 . S
C342 H309 0.930 . S
C342 N344 1.325 . S
C342 C345 1.357 . S
C343 H311 0.928 . S
C343 C341 1.406 . S
C343 N344 1.261 . S
N344 Co295 2.214 . S
N344 C342 1.325 . S
N344 C343 1.261 . S
C345 H315 0.931 . S
C345 C342 1.357 . S
C345 C346 1.312 . S
C346 H317 0.930 . S
C346 C341 1.261 . S
C346 C345 1.312 . S
C347 O319 1.214 . S
C347 O327 1.234 . S
C348 H320 0.929 . S
C348 C351 1.391 . S
C348 C353 1.391 . S
C349 H321 0.929 . S
C349 C350 1.390 . S
C349 N352 1.391 . S
C350 H322 0.930 . S
C350 C349 1.390 . S
C350 C351 1.392 . S
C351 H323 0.929 . S
C351 C348 1.391 . S
C351 C350 1.392 . S
N352 Co296 2.257 . S
N352 C349 1.391 . S
N352 C353 1.388 . S
C353 H324 0.930 . S
C353 C348 1.391 . S
C353 N352 1.388 . S
Co354 O356 2.143 . S
Co354 O362 2.074 1_554 S
Co354 O365 2.093 . S
Co354 O378 2.097 1_554 S
Co354 N395 2.151 . S
Co354 N403 2.214 1_554 S
Co355 O356 2.160 1_556 S
Co355 O361 2.058 . S
Co355 O371 2.057 . S
Co355 O386 2.037 . S
Co355 N390 2.145 . S
Co355 N411 2.257 . S
O356 Co354 2.143 . S
O356 Co355 2.160 1_554 S
C357 O358 1.278 . S
C357 O365 1.224 . S
O358 C357 1.278 . S
C359 O360 1.245 . S
C359 O371 1.232 1_554 S
O360 C359 1.245 . S
O361 Co355 2.058 . S
O361 C387 1.269 . S
O362 Co354 2.074 1_556 S
O362 C387 1.257 . S
H363 C388 0.930 . S
H364 C394 0.930 . S
O365 Co354 2.093 . S
O365 C357 1.224 . S
H366 C398 0.929 . S
H367 C400 0.930 . S
H368 C401 0.930 . S
H369 C399 0.929 . S
H370 C402 0.928 . S
O371 Co355 2.057 . S
O371 C359 1.232 1_556 S
H372 C391 0.929 . S
H373 C392 0.929 . S
H374 C404 0.931 . S
H375 C396 0.929 . S
H376 C405 0.930 . S
H377 C397 0.931 . S
O378 Co354 2.097 1_556 S
O378 C406 1.214 . S
H379 C407 0.929 . S
H380 C408 0.929 . S
H381 C409 0.930 . S
H382 C410 0.929 1_554 S
H383 C412 0.930 . S
H384 C389 0.930 . S
H385 C393 0.930 . S
O386 Co355 2.037 . S
O386 C406 1.234 . S
C387 O361 1.269 . S
C387 O362 1.257 . S
C388 H363 0.930 . S
C388 C391 1.388 . S
C388 C393 1.418 . S
C389 H384 0.930 . S
C389 C392 1.404 . S
C389 C393 1.353 . S
N390 Co355 2.145 . S
N390 C391 1.397 . S
N390 C392 1.334 . S
C391 H372 0.929 . S
C391 C388 1.388 . S
C391 N390 1.397 . S
C392 H373 0.929 . S
C392 C389 1.404 . S
C392 N390 1.334 . S
C393 H385 0.930 . S
C393 C388 1.418 . S
C393 C389 1.353 . S
C394 H364 0.930 . S
C394 N395 1.330 . S
C394 C396 1.446 . S
N395 Co354 2.151 . S
N395 C394 1.330 . S
N395 C399 1.418 . S
C396 H375 0.929 . S
C396 C394 1.446 . S
C396 C397 1.332 . S
C397 H377 0.931 . S
C397 C396 1.332 . S
C397 C398 1.267 . S
C398 H366 0.929 . S
C398 C397 1.267 . S
C398 C399 1.251 . S
C399 H369 0.929 . S
C399 N395 1.418 . S
C399 C398 1.251 . S
C400 H367 0.930 . S
C400 C402 1.406 . S
C400 C405 1.261 1_554 S
C401 H368 0.930 . S
C401 N403 1.325 . S
C401 C404 1.357 . S
C402 H370 0.928 . S
C402 C400 1.406 . S
C402 N403 1.261 1_554 S
N403 Co354 2.214 1_556 S
N403 C401 1.325 . S
N403 C402 1.261 1_556 S
C404 H374 0.931 . S
C404 C401 1.357 . S
C404 C405 1.312 . S
C405 H376 0.930 . S
C405 C400 1.261 1_556 S
C405 C404 1.312 . S
C406 O378 1.214 . S
C406 O386 1.234 . S
C407 H379 0.929 . S
C407 C410 1.391 1_554 S
C407 C412 1.391 . S
C408 H380 0.929 . S
C408 C409 1.390 . S
C408 N411 1.391 . S
C409 H381 0.930 . S
C409 C408 1.390 . S
C409 C410 1.392 . S
C410 H382 0.929 1_556 S
C410 C407 1.391 1_556 S
C410 C409 1.392 . S
N411 Co355 2.257 . S
N411 C408 1.391 . S
N411 C412 1.388 1_556 S
C412 H383 0.930 . S
C412 C407 1.391 . S
C412 N411 1.388 1_554 S
Co413 O415 2.143 . S
Co413 O421 2.074 . S
Co413 O424 2.093 . S
Co413 O437 2.097 . S
Co413 N454 2.151 . S
Co413 N462 2.214 . S
Co414 O415 2.160 . S
Co414 O420 2.058 . S
Co414 O430 2.057 . S
Co414 O445 2.037 . S
Co414 N449 2.145 . S
Co414 N470 2.257 . S
O415 Co413 2.143 . S
O415 Co414 2.160 . S
C416 O417 1.278 . S
C416 O424 1.224 . S
O417 C416 1.278 . S
C418 O419 1.245 . S
C418 O430 1.232 . S
O419 C418 1.245 . S
O420 Co414 2.058 . S
O420 C446 1.269 . S
O421 Co413 2.074 . S
O421 C446 1.257 . S
H422 C447 0.930 . S
H423 C453 0.930 . S
O424 Co413 2.093 . S
O424 C416 1.224 . S
H425 C457 0.929 . S
H426 C459 0.930 1_455 S
H427 C460 0.930 . S
H428 C458 0.929 . S
H429 C461 0.928 . S
O430 Co414 2.057 . S
O430 C418 1.232 . S
H431 C450 0.929 . S
H432 C451 0.929 . S
H433 C463 0.931 . S
H434 C455 0.929 . S
H435 C464 0.930 . S
H436 C456 0.931 . S
O437 Co413 2.097 . S
O437 C465 1.214 . S
H438 C466 0.929 . S
H439 C467 0.929 . S
H440 C468 0.930 . S
H441 C469 0.929 . S
H442 C471 0.930 . S
H443 C448 0.930 . S
H444 C452 0.930 . S
O445 Co414 2.037 . S
O445 C465 1.234 . S
C446 O420 1.269 . S
C446 O421 1.257 . S
C447 H422 0.930 . S
C447 C450 1.388 . S
C447 C452 1.418 . S
C448 H443 0.930 . S
C448 C451 1.404 . S
C448 C452 1.353 . S
N449 Co414 2.145 . S
N449 C450 1.397 . S
N449 C451 1.334 . S
C450 H431 0.929 . S
C450 C447 1.388 . S
C450 N449 1.397 . S
C451 H432 0.929 . S
C451 C448 1.404 . S
C451 N449 1.334 . S
C452 H444 0.930 . S
C452 C447 1.418 . S
C452 C448 1.353 . S
C453 H423 0.930 . S
C453 N454 1.330 . S
C453 C455 1.446 . S
N454 Co413 2.151 . S
N454 C453 1.330 . S
N454 C458 1.418 . S
C455 H434 0.929 . S
C455 C453 1.446 . S
C455 C456 1.332 . S
C456 H436 0.931 . S
C456 C455 1.332 . S
C456 C457 1.267 . S
C457 H425 0.929 . S
C457 C456 1.267 . S
C457 C458 1.251 . S
C458 H428 0.929 . S
C458 N454 1.418 . S
C458 C457 1.251 . S
C459 H426 0.930 1_655 S
C459 C461 1.406 . S
C459 C464 1.261 1_655 S
C460 H427 0.930 . S
C460 N462 1.325 . S
C460 C463 1.357 . S
C461 H429 0.928 . S
C461 C459 1.406 . S
C461 N462 1.261 . S
N462 Co413 2.214 . S
N462 C460 1.325 . S
N462 C461 1.261 . S
C463 H433 0.931 . S
C463 C460 1.357 . S
C463 C464 1.312 1_655 S
C464 H435 0.930 . S
C464 C459 1.261 1_455 S
C464 C463 1.312 1_455 S
C465 O437 1.214 . S
C465 O445 1.234 . S
C466 H438 0.929 . S
C466 C469 1.391 . S
C466 C471 1.391 . S
C467 H439 0.929 . S
C467 C468 1.390 . S
C467 N470 1.391 . S
C468 H440 0.930 . S
C468 C467 1.390 . S
C468 C469 1.392 . S
C469 H441 0.929 . S
C469 C466 1.391 . S
C469 C468 1.392 . S
N470 Co414 2.257 . S
N470 C467 1.391 . S
N470 C471 1.388 . S
C471 H442 0.930 . S
C471 C466 1.391 . S
C471 N470 1.388 . S
Co472 O474 2.143 1_455 S
Co472 O480 2.074 . S
Co472 O483 2.093 1_456 S
Co472 O496 2.097 1_455 S
Co472 N513 2.151 1_556 S
Co472 N521 2.214 . S
Co473 O474 2.160 . S
Co473 O479 2.058 1_655 S
Co473 O489 2.057 1_655 S
Co473 O504 2.037 . S
Co473 N508 2.145 . S
Co473 N529 2.257 . S
O474 Co472 2.143 1_655 S
O474 Co473 2.160 . S
C475 O476 1.278 . S
C475 O483 1.224 . S
O476 C475 1.278 . S
C477 O478 1.245 1_556 S
C477 O489 1.232 . S
O478 C477 1.245 1_554 S
O479 Co473 2.058 1_455 S
O479 C505 1.269 . S
O480 Co472 2.074 . S
O480 C505 1.257 . S
H481 C506 0.930 . S
H482 C512 0.930 . S
O483 Co472 2.093 1_654 S
O483 C475 1.224 . S
H484 C516 0.929 . S
H485 C518 0.930 . S
H486 C519 0.930 . S
H487 C517 0.929 . S
H488 C520 0.928 . S
O489 Co473 2.057 1_455 S
O489 C477 1.232 . S
H490 C509 0.929 . S
H491 C510 0.929 . S
H492 C522 0.931 . S
H493 C514 0.929 . S
H494 C523 0.930 . S
H495 C515 0.931 . S
O496 Co472 2.097 1_655 S
O496 C524 1.214 . S
H497 C525 0.929 . S
H498 C526 0.929 . S
H499 C527 0.930 . S
H500 C528 0.929 . S
H501 C530 0.930 1_554 S
H502 C507 0.930 . S
H503 C511 0.930 . S
O504 Co473 2.037 . S
O504 C524 1.234 . S
C505 O479 1.269 . S
C505 O480 1.257 . S
C506 H481 0.930 . S
C506 C509 1.388 . S
C506 C511 1.418 . S
C507 H502 0.930 . S
C507 C510 1.404 . S
C507 C511 1.353 . S
N508 Co473 2.145 . S
N508 C509 1.397 . S
N508 C510 1.334 . S
C509 H490 0.929 . S
C509 C506 1.388 . S
C509 N508 1.397 . S
C510 H491 0.929 . S
C510 C507 1.404 . S
C510 N508 1.334 . S
C511 H503 0.930 . S
C511 C506 1.418 . S
C511 C507 1.353 . S
C512 H482 0.930 . S
C512 N513 1.330 . S
C512 C514 1.446 . S
N513 Co472 2.151 1_554 S
N513 C512 1.330 . S
N513 C517 1.418 . S
C514 H493 0.929 . S
C514 C512 1.446 . S
C514 C515 1.332 . S
C515 H495 0.931 . S
C515 C514 1.332 . S
C515 C516 1.267 . S
C516 H484 0.929 . S
C516 C515 1.267 . S
C516 C517 1.251 . S
C517 H487 0.929 . S
C517 N513 1.418 . S
C517 C516 1.251 . S
C518 H485 0.930 . S
C518 C520 1.406 . S
C518 C523 1.261 1_554 S
C519 H486 0.930 . S
C519 N521 1.325 . S
C519 C522 1.357 . S
C520 H488 0.928 . S
C520 C518 1.406 . S
C520 N521 1.261 1_554 S
N521 Co472 2.214 . S
N521 C519 1.325 . S
N521 C520 1.261 1_556 S
C522 H492 0.931 . S
C522 C519 1.357 . S
C522 C523 1.312 . S
C523 H494 0.930 . S
C523 C518 1.261 1_556 S
C523 C522 1.312 . S
C524 O496 1.214 . S
C524 O504 1.234 . S
C525 H497 0.929 . S
C525 C528 1.391 1_554 S
C525 C530 1.391 1_554 S
C526 H498 0.929 . S
C526 C527 1.390 . S
C526 N529 1.391 . S
C527 H499 0.930 . S
C527 C526 1.390 . S
C527 C528 1.392 . S
C528 H500 0.929 . S
C528 C525 1.391 1_556 S
C528 C527 1.392 . S
N529 Co473 2.257 . S
N529 C526 1.391 . S
N529 C530 1.388 . S
C530 H501 0.930 1_556 S
C530 C525 1.391 1_556 S
C530 N529 1.388 . S
Co531 O533 2.143 1_545 S
Co531 O539 2.074 . S
Co531 O542 2.093 1_545 S
Co531 O555 2.097 1_545 S
Co531 N572 2.151 . S
Co531 N580 2.214 . S
Co532 O533 2.160 . S
Co532 O538 2.058 1_565 S
Co532 O548 2.057 1_565 S
Co532 O563 2.037 . S
Co532 N567 2.145 . S
Co532 N588 2.257 . S
O533 Co531 2.143 1_565 S
O533 Co532 2.160 . S
C534 O535 1.278 . S
C534 O542 1.224 . S
O535 C534 1.278 . S
C536 O537 1.245 . S
C536 O548 1.232 . S
O537 C536 1.245 . S
O538 Co532 2.058 1_545 S
O538 C564 1.269 . S
O539 Co531 2.074 . S
O539 C564 1.257 . S
H540 C565 0.930 . S
H541 C571 0.930 . S
O542 Co531 2.093 1_565 S
O542 C534 1.224 . S
H543 C575 0.929 . S
H544 C577 0.930 1_655 S
H545 C578 0.930 . S
H546 C576 0.929 . S
H547 C579 0.928 . S
O548 Co532 2.057 1_545 S
O548 C536 1.232 . S
H549 C568 0.929 . S
H550 C569 0.929 . S
H551 C581 0.931 . S
H552 C573 0.929 . S
H553 C582 0.930 . S
H554 C574 0.931 . S
O555 Co531 2.097 1_565 S
O555 C583 1.214 . S
H556 C584 0.929 . S
H557 C585 0.929 . S
H558 C586 0.930 . S
H559 C587 0.929 . S
H560 C589 0.930 . S
H561 C566 0.930 . S
H562 C570 0.930 . S
O563 Co532 2.037 . S
O563 C583 1.234 . S
C564 O538 1.269 . S
C564 O539 1.257 . S
C565 H540 0.930 . S
C565 C568 1.388 . S
C565 C570 1.418 . S
C566 H561 0.930 . S
C566 C569 1.404 . S
C566 C570 1.353 . S
N567 Co532 2.145 . S
N567 C568 1.397 . S
N567 C569 1.334 . S
C568 H549 0.929 . S
C568 C565 1.388 . S
C568 N567 1.397 . S
C569 H550 0.929 . S
C569 C566 1.404 . S
C569 N567 1.334 . S
C570 H562 0.930 . S
C570 C565 1.418 . S
C570 C566 1.353 . S
C571 H541 0.930 . S
C571 N572 1.330 . S
C571 C573 1.446 . S
N572 Co531 2.151 . S
N572 C571 1.330 . S
N572 C576 1.418 . S
C573 H552 0.929 . S
C573 C571 1.446 . S
C573 C574 1.332 . S
C574 H554 0.931 . S
C574 C573 1.332 . S
C574 C575 1.267 . S
C575 H543 0.929 . S
C575 C574 1.267 . S
C575 C576 1.251 . S
C576 H546 0.929 . S
C576 N572 1.418 . S
C576 C575 1.251 . S
C577 H544 0.930 1_455 S
C577 C579 1.406 . S
C577 C582 1.261 1_455 S
C578 H545 0.930 . S
C578 N580 1.325 . S
C578 C581 1.357 . S
C579 H547 0.928 . S
C579 C577 1.406 . S
C579 N580 1.261 . S
N580 Co531 2.214 . S
N580 C578 1.325 . S
N580 C579 1.261 . S
C581 H551 0.931 . S
C581 C578 1.357 . S
C581 C582 1.312 1_455 S
C582 H553 0.930 . S
C582 C577 1.261 1_655 S
C582 C581 1.312 1_655 S
C583 O555 1.214 . S
C583 O563 1.234 . S
C584 H556 0.929 . S
C584 C587 1.391 . S
C584 C589 1.391 . S
C585 H557 0.929 . S
C585 C586 1.390 . S
C585 N588 1.391 . S
C586 H558 0.930 . S
C586 C585 1.390 . S
C586 C587 1.392 . S
C587 H559 0.929 . S
C587 C584 1.391 . S
C587 C586 1.392 . S
N588 Co532 2.257 . S
N588 C585 1.391 . S
N588 C589 1.388 . S
C589 H560 0.930 . S
C589 C584 1.391 . S
C589 N588 1.388 . S
Co590 O592 2.143 . S
Co590 O598 2.074 . S
Co590 O601 2.093 1_556 S
Co590 O614 2.097 . S
Co590 N631 2.151 1_556 S
Co590 N639 2.214 . S
Co591 O592 2.160 . S
Co591 O597 2.058 . S
Co591 O607 2.057 . S
Co591 O622 2.037 . S
Co591 N626 2.145 . S
Co591 N647 2.257 . S
O592 Co590 2.143 . S
O592 Co591 2.160 . S
C593 O594 1.278 . S
C593 O601 1.224 . S
O594 C593 1.278 . S
C595 O596 1.245 1_556 S
C595 O607 1.232 . S
O596 C595 1.245 1_554 S
O597 Co591 2.058 . S
O597 C623 1.269 . S
O598 Co590 2.074 . S
O598 C623 1.257 . S
H599 C624 0.930 . S
H600 C630 0.930 . S
O601 Co590 2.093 1_554 S
O601 C593 1.224 . S
H602 C634 0.929 . S
H603 C636 0.930 1_565 S
H604 C637 0.930 . S
H605 C635 0.929 1_556 S
H606 C638 0.928 . S
O607 Co591 2.057 . S
O607 C595 1.232 . S
H608 C627 0.929 . S
H609 C628 0.929 . S
H610 C640 0.931 . S
H611 C632 0.929 . S
H612 C641 0.930 . S
H613 C633 0.931 . S
O614 Co590 2.097 . S
O614 C642 1.214 . S
H615 C643 0.929 1_554 S
H616 C644 0.929 . S
H617 C645 0.930 . S
H618 C646 0.929 . S
H619 C648 0.930 1_554 S
H620 C625 0.930 . S
H621 C629 0.930 . S
O622 Co591 2.037 . S
O622 C642 1.234 . S
C623 O597 1.269 . S
C623 O598 1.257 . S
C624 H599 0.930 . S
C624 C627 1.388 . S
C624 C629 1.418 . S
C625 H620 0.930 . S
C625 C628 1.404 . S
C625 C629 1.353 . S
N626 Co591 2.145 . S
N626 C627 1.397 . S
N626 C628 1.334 . S
C627 H608 0.929 . S
C627 C624 1.388 . S
C627 N626 1.397 . S
C628 H609 0.929 . S
C628 C625 1.404 . S
C628 N626 1.334 . S
C629 H621 0.930 . S
C629 C624 1.418 . S
C629 C625 1.353 . S
C630 H600 0.930 . S
C630 N631 1.330 . S
C630 C632 1.446 . S
N631 Co590 2.151 1_554 S
N631 C630 1.330 . S
N631 C635 1.418 . S
C632 H611 0.929 . S
C632 C630 1.446 . S
C632 C633 1.332 . S
C633 H613 0.931 . S
C633 C632 1.332 . S
C633 C634 1.267 . S
C634 H602 0.929 . S
C634 C633 1.267 . S
C634 C635 1.251 . S
C635 H605 0.929 1_554 S
C635 N631 1.418 . S
C635 C634 1.251 . S
C636 H603 0.930 1_545 S
C636 C638 1.406 . S
C636 C641 1.261 1_544 S
C637 H604 0.930 . S
C637 N639 1.325 . S
C637 C640 1.357 . S
C638 H606 0.928 . S
C638 C636 1.406 . S
C638 N639 1.261 1_554 S
N639 Co590 2.214 . S
N639 C637 1.325 . S
N639 C638 1.261 1_556 S
C640 H610 0.931 . S
C640 C637 1.357 . S
C640 C641 1.312 1_545 S
C641 H612 0.930 . S
C641 C636 1.261 1_566 S
C641 C640 1.312 1_565 S
C642 O614 1.214 . S
C642 O622 1.234 . S
C643 H615 0.929 1_556 S
C643 C646 1.391 . S
C643 C648 1.391 . S
C644 H616 0.929 . S
C644 C645 1.390 . S
C644 N647 1.391 . S
C645 H617 0.930 . S
C645 C644 1.390 . S
C645 C646 1.392 . S
C646 H618 0.929 . S
C646 C643 1.391 . S
C646 C645 1.392 . S
N647 Co591 2.257 . S
N647 C644 1.391 . S
N647 C648 1.388 . S
C648 H619 0.930 1_556 S
C648 C643 1.391 . S
C648 N647 1.388 . S
Co649 O651 2.143 . S
Co649 O657 2.074 . S
Co649 O660 2.093 . S
Co649 O673 2.097 . S
Co649 N690 2.151 . S
Co649 N698 2.214 . S
Co650 O651 2.160 . S
Co650 O656 2.058 . S
Co650 O666 2.057 . S
Co650 O681 2.037 . S
Co650 N685 2.145 . S
Co650 N706 2.257 . S
O651 Co649 2.143 . S
O651 Co650 2.160 . S
C652 O653 1.278 . S
C652 O660 1.224 . S
O653 C652 1.278 . S
C654 O655 1.245 . S
C654 O666 1.232 . S
O655 C654 1.245 . S
O656 Co650 2.058 . S
O656 C682 1.269 . S
O657 Co649 2.074 . S
O657 C682 1.257 . S
H658 C683 0.930 . S
H659 C689 0.930 . S
O660 Co649 2.093 . S
O660 C652 1.224 . S
H661 C693 0.929 . S
H662 C695 0.930 . S
H663 C696 0.930 . S
H664 C694 0.929 . S
H665 C697 0.928 . S
O666 Co650 2.057 . S
O666 C654 1.232 . S
H667 C686 0.929 . S
H668 C687 0.929 . S
H669 C699 0.931 . S
H670 C691 0.929 . S
H671 C700 0.930 . S
H672 C692 0.931 . S
O673 Co649 2.097 . S
O673 C701 1.214 . S
H674 C702 0.929 . S
H675 C703 0.929 . S
H676 C704 0.930 . S
H677 C705 0.929 . S
H678 C707 0.930 . S
H679 C684 0.930 . S
H680 C688 0.930 . S
O681 Co650 2.037 . S
O681 C701 1.234 . S
C682 O656 1.269 . S
C682 O657 1.257 . S
C683 H658 0.930 . S
C683 C686 1.388 . S
C683 C688 1.418 . S
C684 H679 0.930 . S
C684 C687 1.404 . S
C684 C688 1.353 . S
N685 Co650 2.145 . S
N685 C686 1.397 . S
N685 C687 1.334 . S
C686 H667 0.929 . S
C686 C683 1.388 . S
C686 N685 1.397 . S
C687 H668 0.929 . S
C687 C684 1.404 . S
C687 N685 1.334 . S
C688 H680 0.930 . S
C688 C683 1.418 . S
C688 C684 1.353 . S
C689 H659 0.930 . S
C689 N690 1.330 . S
C689 C691 1.446 . S
N690 Co649 2.151 . S
N690 C689 1.330 . S
N690 C694 1.418 . S
C691 H670 0.929 . S
C691 C689 1.446 . S
C691 C692 1.332 . S
C692 H672 0.931 . S
C692 C691 1.332 . S
C692 C693 1.267 . S
C693 H661 0.929 . S
C693 C692 1.267 . S
C693 C694 1.251 . S
C694 H664 0.929 . S
C694 N690 1.418 . S
C694 C693 1.251 . S
C695 H662 0.930 . S
C695 C697 1.406 . S
C695 C700 1.261 . S
C696 H663 0.930 . S
C696 N698 1.325 . S
C696 C699 1.357 . S
C697 H665 0.928 . S
C697 C695 1.406 . S
C697 N698 1.261 . S
N698 Co649 2.214 . S
N698 C696 1.325 . S
N698 C697 1.261 . S
C699 H669 0.931 . S
C699 C696 1.357 . S
C699 C700 1.312 . S
C700 H671 0.930 . S
C700 C695 1.261 . S
C700 C699 1.312 . S
C701 O673 1.214 . S
C701 O681 1.234 . S
C702 H674 0.929 . S
C702 C705 1.391 . S
C702 C707 1.391 . S
C703 H675 0.929 . S
C703 C704 1.390 . S
C703 N706 1.391 . S
C704 H676 0.930 . S
C704 C703 1.390 . S
C704 C705 1.392 . S
C705 H677 0.929 . S
C705 C702 1.391 . S
C705 C704 1.392 . S
N706 Co650 2.257 . S
N706 C703 1.391 . S
N706 C707 1.388 . S
C707 H678 0.930 . S
C707 C702 1.391 . S
C707 N706 1.388 . S
Co708 O710 2.143 1_455 S
Co708 O716 2.074 . S
Co708 O719 2.093 1_454 S
Co708 O732 2.097 1_455 S
Co708 N749 2.151 1_554 S
Co708 N757 2.214 . S
Co709 O710 2.160 . S
Co709 O715 2.058 1_655 S
Co709 O725 2.057 1_655 S
Co709 O740 2.037 . S
Co709 N744 2.145 . S
Co709 N765 2.257 . S
O710 Co708 2.143 1_655 S
O710 Co709 2.160 . S
C711 O712 1.278 . S
C711 O719 1.224 . S
O712 C711 1.278 . S
C713 O714 1.245 1_554 S
C713 O725 1.232 . S
O714 C713 1.245 1_556 S
O715 Co709 2.058 1_455 S
O715 C741 1.269 . S
O716 Co708 2.074 . S
O716 C741 1.257 . S
H717 C742 0.930 . S
H718 C748 0.930 . S
O719 Co708 2.093 1_656 S
O719 C711 1.224 . S
H720 C752 0.929 . S
H721 C754 0.930 1_566 S
H722 C755 0.930 . S
H723 C753 0.929 1_554 S
H724 C756 0.928 . S
O725 Co709 2.057 1_455 S
O725 C713 1.232 . S
H726 C745 0.929 . S
H727 C746 0.929 . S
H728 C758 0.931 . S
H729 C750 0.929 . S
H730 C759 0.930 . S
H731 C751 0.931 . S
O732 Co708 2.097 1_655 S
O732 C760 1.214 . S
H733 C761 0.929 1_556 S
H734 C762 0.929 . S
H735 C763 0.930 . S
H736 C764 0.929 . S
H737 C766 0.930 . S
H738 C743 0.930 . S
H739 C747 0.930 . S
O740 Co709 2.037 . S
O740 C760 1.234 . S
C741 O715 1.269 . S
C741 O716 1.257 . S
C742 H717 0.930 . S
C742 C745 1.388 . S
C742 C747 1.418 . S
C743 H738 0.930 . S
C743 C746 1.404 . S
C743 C747 1.353 . S
N744 Co709 2.145 . S
N744 C745 1.397 . S
N744 C746 1.334 . S
C745 H726 0.929 . S
C745 C742 1.388 . S
C745 N744 1.397 . S
C746 H727 0.929 . S
C746 C743 1.404 . S
C746 N744 1.334 . S
C747 H739 0.930 . S
C747 C742 1.418 . S
C747 C743 1.353 . S
C748 H718 0.930 . S
C748 N749 1.330 . S
C748 C750 1.446 . S
N749 Co708 2.151 1_556 S
N749 C748 1.330 . S
N749 C753 1.418 . S
C750 H729 0.929 . S
C750 C748 1.446 . S
C750 C751 1.332 . S
C751 H731 0.931 . S
C751 C750 1.332 . S
C751 C752 1.267 . S
C752 H720 0.929 . S
C752 C751 1.267 . S
C752 C753 1.251 . S
C753 H723 0.929 1_556 S
C753 N749 1.418 . S
C753 C752 1.251 . S
C754 H721 0.930 1_544 S
C754 C756 1.406 1_554 S
C754 C759 1.261 1_545 S
C755 H722 0.930 . S
C755 N757 1.325 . S
C755 C758 1.357 . S
C756 H724 0.928 . S
C756 C754 1.406 1_556 S
C756 N757 1.261 1_556 S
N757 Co708 2.214 . S
N757 C755 1.325 . S
N757 C756 1.261 1_554 S
C758 H728 0.931 . S
C758 C755 1.357 . S
C758 C759 1.312 1_545 S
C759 H730 0.930 . S
C759 C754 1.261 1_565 S
C759 C758 1.312 1_565 S
C760 O732 1.214 . S
C760 O740 1.234 . S
C761 H733 0.929 1_554 S
C761 C764 1.391 . S
C761 C766 1.391 . S
C762 H734 0.929 . S
C762 C763 1.390 . S
C762 N765 1.391 . S
C763 H735 0.930 . S
C763 C762 1.390 . S
C763 C764 1.392 . S
C764 H736 0.929 . S
C764 C761 1.391 . S
C764 C763 1.392 . S
N765 Co709 2.257 . S
N765 C762 1.391 . S
N765 C766 1.388 . S
C766 H737 0.930 . S
C766 C761 1.391 . S
C766 N765 1.388 . S
Co767 O769 2.143 1_545 S
Co767 O775 2.074 . S
Co767 O778 2.093 1_545 S
Co767 O791 2.097 1_545 S
Co767 N808 2.151 . S
Co767 N816 2.214 . S
Co768 O769 2.160 . S
Co768 O774 2.058 1_565 S
Co768 O784 2.057 1_565 S
Co768 O799 2.037 . S
Co768 N803 2.145 . S
Co768 N824 2.257 . S
O769 Co767 2.143 1_565 S
O769 Co768 2.160 . S
C770 O771 1.278 . S
C770 O778 1.224 . S
O771 C770 1.278 . S
C772 O773 1.245 . S
C772 O784 1.232 . S
O773 C772 1.245 . S
O774 Co768 2.058 1_545 S
O774 C800 1.269 . S
O775 Co767 2.074 . S
O775 C800 1.257 . S
H776 C801 0.930 . S
H777 C807 0.930 . S
O778 Co767 2.093 1_565 S
O778 C770 1.224 . S
H779 C811 0.929 . S
H780 C813 0.930 . S
H781 C814 0.930 . S
H782 C812 0.929 . S
H783 C815 0.928 . S
O784 Co768 2.057 1_545 S
O784 C772 1.232 . S
H785 C804 0.929 . S
H786 C805 0.929 . S
H787 C817 0.931 . S
H788 C809 0.929 . S
H789 C818 0.930 . S
H790 C810 0.931 . S
O791 Co767 2.097 1_565 S
O791 C819 1.214 . S
H792 C820 0.929 . S
H793 C821 0.929 . S
H794 C822 0.930 . S
H795 C823 0.929 . S
H796 C825 0.930 . S
H797 C802 0.930 . S
H798 C806 0.930 . S
O799 Co768 2.037 . S
O799 C819 1.234 . S
C800 O774 1.269 . S
C800 O775 1.257 . S
C801 H776 0.930 . S
C801 C804 1.388 . S
C801 C806 1.418 . S
C802 H797 0.930 . S
C802 C805 1.404 . S
C802 C806 1.353 . S
N803 Co768 2.145 . S
N803 C804 1.397 . S
N803 C805 1.334 . S
C804 H785 0.929 . S
C804 C801 1.388 . S
C804 N803 1.397 . S
C805 H786 0.929 . S
C805 C802 1.404 . S
C805 N803 1.334 . S
C806 H798 0.930 . S
C806 C801 1.418 . S
C806 C802 1.353 . S
C807 H777 0.930 . S
C807 N808 1.330 . S
C807 C809 1.446 . S
N808 Co767 2.151 . S
N808 C807 1.330 . S
N808 C812 1.418 . S
C809 H788 0.929 . S
C809 C807 1.446 . S
C809 C810 1.332 . S
C810 H790 0.931 . S
C810 C809 1.332 . S
C810 C811 1.267 . S
C811 H779 0.929 . S
C811 C810 1.267 . S
C811 C812 1.251 . S
C812 H782 0.929 . S
C812 N808 1.418 . S
C812 C811 1.251 . S
C813 H780 0.930 . S
C813 C815 1.406 . S
C813 C818 1.261 . S
C814 H781 0.930 . S
C814 N816 1.325 . S
C814 C817 1.357 . S
C815 H783 0.928 . S
C815 C813 1.406 . S
C815 N816 1.261 . S
N816 Co767 2.214 . S
N816 C814 1.325 . S
N816 C815 1.261 . S
C817 H787 0.931 . S
C817 C814 1.357 . S
C817 C818 1.312 . S
C818 H789 0.930 . S
C818 C813 1.261 . S
C818 C817 1.312 . S
C819 O791 1.214 . S
C819 O799 1.234 . S
C820 H792 0.929 . S
C820 C823 1.391 . S
C820 C825 1.391 . S
C821 H793 0.929 . S
C821 C822 1.390 . S
C821 N824 1.391 . S
C822 H794 0.930 . S
C822 C821 1.390 . S
C822 C823 1.392 . S
C823 H795 0.929 . S
C823 C820 1.391 . S
C823 C822 1.392 . S
N824 Co768 2.257 . S
N824 C821 1.391 . S
N824 C825 1.388 . S
C825 H796 0.930 . S
C825 C820 1.391 . S
C825 N824 1.388 . S
Co826 O828 2.143 . S
Co826 O834 2.074 1_556 S
Co826 O837 2.093 . S
Co826 O850 2.097 1_556 S
Co826 N867 2.151 . S
Co826 N875 2.214 1_556 S
Co827 O828 2.160 1_554 S
Co827 O833 2.058 . S
Co827 O843 2.057 . S
Co827 O858 2.037 . S
Co827 N862 2.145 . S
Co827 N883 2.257 . S
O828 Co826 2.143 . S
O828 Co827 2.160 1_556 S
C829 O830 1.278 . S
C829 O837 1.224 . S
O830 C829 1.278 . S
C831 O832 1.245 . S
C831 O843 1.232 1_556 S
O832 C831 1.245 . S
O833 Co827 2.058 . S
O833 C859 1.269 . S
O834 Co826 2.074 1_554 S
O834 C859 1.257 . S
H835 C860 0.930 . S
H836 C866 0.930 . S
O837 Co826 2.093 . S
O837 C829 1.224 . S
H838 C870 0.929 . S
H839 C872 0.930 . S
H840 C873 0.930 . S
H841 C871 0.929 . S
H842 C874 0.928 . S
O843 Co827 2.057 . S
O843 C831 1.232 1_554 S
H844 C863 0.929 . S
H845 C864 0.929 . S
H846 C876 0.931 . S
H847 C868 0.929 . S
H848 C877 0.930 . S
H849 C869 0.931 . S
O850 Co826 2.097 1_554 S
O850 C878 1.214 . S
H851 C879 0.929 . S
H852 C880 0.929 . S
H853 C881 0.930 . S
H854 C882 0.929 1_556 S
H855 C884 0.930 . S
H856 C861 0.930 . S
H857 C865 0.930 . S
O858 Co827 2.037 . S
O858 C878 1.234 . S
C859 O833 1.269 . S
C859 O834 1.257 . S
C860 H835 0.930 . S
C860 C863 1.388 . S
C860 C865 1.418 . S
C861 H856 0.930 . S
C861 C864 1.404 . S
C861 C865 1.353 . S
N862 Co827 2.145 . S
N862 C863 1.397 . S
N862 C864 1.334 . S
C863 H844 0.929 . S
C863 C860 1.388 . S
C863 N862 1.397 . S
C864 H845 0.929 . S
C864 C861 1.404 . S
C864 N862 1.334 . S
C865 H857 0.930 . S
C865 C860 1.418 . S
C865 C861 1.353 . S
C866 H836 0.930 . S
C866 N867 1.330 . S
C866 C868 1.446 . S
N867 Co826 2.151 . S
N867 C866 1.330 . S
N867 C871 1.418 . S
C868 H847 0.929 . S
C868 C866 1.446 . S
C868 C869 1.332 . S
C869 H849 0.931 . S
C869 C868 1.332 . S
C869 C870 1.267 . S
C870 H838 0.929 . S
C870 C869 1.267 . S
C870 C871 1.251 . S
C871 H841 0.929 . S
C871 N867 1.418 . S
C871 C870 1.251 . S
C872 H839 0.930 . S
C872 C874 1.406 . S
C872 C877 1.261 1_556 S
C873 H840 0.930 . S
C873 N875 1.325 . S
C873 C876 1.357 . S
C874 H842 0.928 . S
C874 C872 1.406 . S
C874 N875 1.261 1_556 S
N875 Co826 2.214 1_554 S
N875 C873 1.325 . S
N875 C874 1.261 1_554 S
C876 H846 0.931 . S
C876 C873 1.357 . S
C876 C877 1.312 . S
C877 H848 0.930 . S
C877 C872 1.261 1_554 S
C877 C876 1.312 . S
C878 O850 1.214 . S
C878 O858 1.234 . S
C879 H851 0.929 . S
C879 C882 1.391 1_556 S
C879 C884 1.391 . S
C880 H852 0.929 . S
C880 C881 1.390 . S
C880 N883 1.391 . S
C881 H853 0.930 . S
C881 C880 1.390 . S
C881 C882 1.392 . S
C882 H854 0.929 1_554 S
C882 C879 1.391 1_554 S
C882 C881 1.392 . S
N883 Co827 2.257 . S
N883 C880 1.391 . S
N883 C884 1.388 1_554 S
C884 H855 0.930 . S
C884 C879 1.391 . S
C884 N883 1.388 1_556 S
Co885 O887 2.143 . S
Co885 O893 2.074 . S
Co885 O896 2.093 . S
Co885 O909 2.097 . S
Co885 N926 2.151 . S
Co885 N934 2.214 . S
Co886 O887 2.160 . S
Co886 O892 2.058 . S
Co886 O902 2.057 . S
Co886 O917 2.037 . S
Co886 N921 2.145 . S
Co886 N942 2.257 . S
O887 Co885 2.143 . S
O887 Co886 2.160 . S
C888 O889 1.278 . S
C888 O896 1.224 . S
O889 C888 1.278 . S
C890 O891 1.245 . S
C890 O902 1.232 . S
O891 C890 1.245 . S
O892 Co886 2.058 . S
O892 C918 1.269 . S
O893 Co885 2.074 . S
O893 C918 1.257 . S
H894 C919 0.930 . S
H895 C925 0.930 . S
O896 Co885 2.093 . S
O896 C888 1.224 . S
H897 C929 0.929 . S
H898 C931 0.930 1_655 S
H899 C932 0.930 . S
H900 C930 0.929 . S
H901 C933 0.928 . S
O902 Co886 2.057 . S
O902 C890 1.232 . S
H903 C922 0.929 . S
H904 C923 0.929 . S
H905 C935 0.931 . S
H906 C927 0.929 . S
H907 C936 0.930 . S
H908 C928 0.931 . S
O909 Co885 2.097 . S
O909 C937 1.214 . S
H910 C938 0.929 . S
H911 C939 0.929 . S
H912 C940 0.930 . S
H913 C941 0.929 . S
H914 C943 0.930 . S
H915 C920 0.930 . S
H916 C924 0.930 . S
O917 Co886 2.037 . S
O917 C937 1.234 . S
C918 O892 1.269 . S
C918 O893 1.257 . S
C919 H894 0.930 . S
C919 C922 1.388 . S
C919 C924 1.418 . S
C920 H915 0.930 . S
C920 C923 1.404 . S
C920 C924 1.353 . S
N921 Co886 2.145 . S
N921 C922 1.397 . S
N921 C923 1.334 . S
C922 H903 0.929 . S
C922 C919 1.388 . S
C922 N921 1.397 . S
C923 H904 0.929 . S
C923 C920 1.404 . S
C923 N921 1.334 . S
C924 H916 0.930 . S
C924 C919 1.418 . S
C924 C920 1.353 . S
C925 H895 0.930 . S
C925 N926 1.330 . S
C925 C927 1.446 . S
N926 Co885 2.151 . S
N926 C925 1.330 . S
N926 C930 1.418 . S
C927 H906 0.929 . S
C927 C925 1.446 . S
C927 C928 1.332 . S
C928 H908 0.931 . S
C928 C927 1.332 . S
C928 C929 1.267 . S
C929 H897 0.929 . S
C929 C928 1.267 . S
C929 C930 1.251 . S
C930 H900 0.929 . S
C930 N926 1.418 . S
C930 C929 1.251 . S
C931 H898 0.930 1_455 S
C931 C933 1.406 . S
C931 C936 1.261 1_455 S
C932 H899 0.930 . S
C932 N934 1.325 . S
C932 C935 1.357 . S
C933 H901 0.928 . S
C933 C931 1.406 . S
C933 N934 1.261 . S
N934 Co885 2.214 . S
N934 C932 1.325 . S
N934 C933 1.261 . S
C935 H905 0.931 . S
C935 C932 1.357 . S
C935 C936 1.312 1_455 S
C936 H907 0.930 . S
C936 C931 1.261 1_655 S
C936 C935 1.312 1_655 S
C937 O909 1.214 . S
C937 O917 1.234 . S
C938 H910 0.929 . S
C938 C941 1.391 . S
C938 C943 1.391 . S
C939 H911 0.929 . S
C939 C940 1.390 . S
C939 N942 1.391 . S
C940 H912 0.930 . S
C940 C939 1.390 . S
C940 C941 1.392 . S
C941 H913 0.929 . S
C941 C938 1.391 . S
C941 C940 1.392 . S
N942 Co886 2.257 . S
N942 C939 1.391 . S
N942 C943 1.388 . S
C943 H914 0.930 . S
C943 C938 1.391 . S
C943 N942 1.388 . S
H944 C950 0.930 1_455 S
H945 C953 0.930 . S
H946 C954 0.930 . S
H947 C955 0.930 . S
H948 C958 0.930 1_455 S
H949 C959 0.930 . S
C950 H944 0.930 1_655 S
C950 C951 1.355 . S
C950 C952 1.415 . S
C951 C950 1.355 . S
C951 C953 1.419 1_556 S
C952 C950 1.415 . S
C952 C957 1.425 1_556 S
C952 C959 1.409 1_655 S
C953 H945 0.930 . S
C953 C951 1.419 1_554 S
C953 C954 1.362 . S
C954 H946 0.930 . S
C954 C953 1.362 . S
C954 C957 1.409 . S
C955 H947 0.930 . S
C955 C956 1.355 1_554 S
C955 C957 1.415 . S
C956 C955 1.355 1_556 S
C956 C958 1.419 . S
C957 C952 1.425 1_554 S
C957 C954 1.409 . S
C957 C955 1.415 . S
C958 H948 0.930 1_655 S
C958 C956 1.419 . S
C958 C959 1.362 1_655 S
C959 H949 0.930 . S
C959 C952 1.409 1_455 S
C959 C958 1.362 1_455 S
H960 C966 0.930 . S
H961 C969 0.930 1_545 S
H962 C970 0.931 . S
H963 C971 0.930 1_545 S
H964 C974 0.930 . S
H965 C975 0.930 . S
C966 H960 0.930 . S
C966 C967 1.355 . S
C966 C968 1.415 . S
C967 C966 1.355 . S
C967 C969 1.419 . S
C968 C966 1.415 . S
C968 C973 1.425 . S
C968 C975 1.409 . S
C969 H961 0.930 1_565 S
C969 C967 1.419 . S
C969 C970 1.362 1_565 S
C970 H962 0.931 . S
C970 C969 1.362 1_545 S
C970 C973 1.409 1_545 S
C971 H963 0.930 1_565 S
C971 C972 1.355 . S
C971 C973 1.415 . S
C972 C971 1.355 . S
C972 C974 1.419 . S
C973 C968 1.425 . S
C973 C970 1.409 1_565 S
C973 C971 1.415 . S
C974 H964 0.930 . S
C974 C972 1.419 . S
C974 C975 1.362 . S
C975 H965 0.930 . S
C975 C968 1.409 . S
C975 C974 1.362 . S
H976 C982 0.930 . S
H977 C985 0.930 . S
H978 C986 0.930 . S
H979 C987 0.930 . S
H980 C990 0.930 . S
H981 C991 0.930 . S
C982 H976 0.930 . S
C982 C983 1.355 1_556 S
C982 C984 1.417 . S
C983 C982 1.355 1_554 S
C983 C985 1.419 . S
C984 C982 1.417 . S
C984 C989 1.416 1_556 S
C984 C991 1.416 . S
C985 H977 0.930 . S
C985 C983 1.419 . S
C985 C986 1.362 . S
C986 H978 0.930 . S
C986 C985 1.362 . S
C986 C989 1.409 . S
C987 H979 0.930 . S
C987 C988 1.355 . S
C987 C989 1.415 . S
C988 C987 1.355 . S
C988 C990 1.419 1_554 S
C989 C984 1.416 1_554 S
C989 C986 1.409 . S
C989 C987 1.415 . S
C990 H980 0.930 . S
C990 C988 1.419 1_556 S
C990 C991 1.362 . S
C991 H981 0.930 . S
C991 C984 1.416 . S
C991 C990 1.362 . S
H992 C998 0.930 . S
H993 C1001 0.930 . S
H994 C1002 0.930 . S
H995 C1003 0.930 . S
H996 C1006 0.930 . S
H997 C1007 0.930 . S
C998 H992 0.930 . S
C998 C999 1.355 . S
C998 C1000 1.415 . S
C999 C998 1.355 . S
C999 C1001 1.419 . S
C1000 C998 1.415 . S
C1000 C1005 1.425 . S
C1000 C1007 1.409 . S
C1001 H993 0.930 . S
C1001 C999 1.419 . S
C1001 C1002 1.362 . S
C1002 H994 0.930 . S
C1002 C1001 1.362 . S
C1002 C1005 1.409 . S
C1003 H995 0.930 . S
C1003 C1004 1.355 . S
C1003 C1005 1.415 . S
C1004 C1003 1.355 . S
C1004 C1006 1.419 . S
C1005 C1000 1.425 . S
C1005 C1002 1.409 . S
C1005 C1003 1.415 . S
C1006 H996 0.930 . S
C1006 C1004 1.419 . S
C1006 C1007 1.362 . S
C1007 H997 0.930 . S
C1007 C1000 1.409 . S
C1007 C1006 1.362 . S
H1008 C1014 0.930 . S
H1009 C1017 0.930 1_655 S
H1010 C1018 0.926 1_655 S
H1011 C1019 0.930 . S
H1012 C1022 0.930 . S
H1013 C1023 0.930 . S
C1014 H1008 0.930 . S
C1014 C1015 1.355 1_556 S
C1014 C1016 1.415 . S
C1015 C1014 1.355 1_554 S
C1015 C1017 1.419 . S
C1016 C1014 1.415 . S
C1016 C1021 1.425 1_556 S
C1016 C1023 1.409 . S
C1017 H1009 0.930 1_455 S
C1017 C1015 1.419 . S
C1017 C1018 1.363 . S
C1018 H1010 0.926 1_455 S
C1018 C1017 1.363 . S
C1018 C1021 1.412 . S
C1019 H1011 0.930 . S
C1019 C1020 1.355 . S
C1019 C1021 1.415 . S
C1020 C1019 1.355 . S
C1020 C1022 1.419 1_554 S
C1021 C1016 1.425 1_554 S
C1021 C1018 1.412 . S
C1021 C1019 1.415 . S
C1022 H1012 0.930 . S
C1022 C1020 1.419 1_556 S
C1022 C1023 1.362 . S
C1023 H1013 0.930 . S
C1023 C1016 1.409 . S
C1023 C1022 1.362 . S
H1024 C1030 0.971 . S
H1025 C1033 0.930 . S
H1026 C1034 0.930 . S
H1027 C1035 0.930 . S
H1028 C1038 0.930 . S
H1029 C1039 0.930 . S
C1030 H1024 0.971 . S
C1030 C1031 1.323 1_565 S
C1030 C1032 1.407 1_565 S
C1031 C1030 1.323 1_545 S
C1031 C1033 1.419 . S
C1032 C1030 1.407 1_545 S
C1032 C1037 1.425 . S
C1032 C1039 1.409 1_545 S
C1033 H1025 0.930 . S
C1033 C1031 1.419 . S
C1033 C1034 1.362 . S
C1034 H1026 0.930 . S
C1034 C1033 1.362 . S
C1034 C1037 1.409 . S
C1035 H1027 0.930 . S
C1035 C1036 1.355 . S
C1035 C1037 1.415 . S
C1036 C1035 1.355 . S
C1036 C1038 1.419 1_545 S
C1037 C1032 1.425 . S
C1037 C1034 1.409 . S
C1037 C1035 1.415 . S
C1038 H1028 0.930 . S
C1038 C1036 1.419 1_565 S
C1038 C1039 1.362 . S
C1039 H1029 0.930 . S
C1039 C1032 1.409 1_565 S
C1039 C1038 1.362 . S
H1040 C1046 0.930 . S
H1041 C1049 0.930 . S
H1042 C1050 0.930 . S
H1043 C1051 0.930 . S
H1044 C1054 0.930 . S
H1045 C1055 0.930 . S
C1046 H1040 0.930 . S
C1046 C1047 1.355 1_554 S
C1046 C1048 1.415 . S
C1047 C1046 1.355 1_556 S
C1047 C1049 1.419 . S
C1048 C1046 1.415 . S
C1048 C1053 1.425 1_554 S
C1048 C1055 1.409 . S
C1049 H1041 0.930 . S
C1049 C1047 1.419 . S
C1049 C1050 1.362 . S
C1050 H1042 0.930 . S
C1050 C1049 1.362 . S
C1050 C1053 1.409 . S
C1051 H1043 0.930 . S
C1051 C1052 1.355 . S
C1051 C1053 1.415 . S
C1052 C1051 1.355 . S
C1052 C1054 1.419 1_556 S
C1053 C1048 1.425 1_556 S
C1053 C1050 1.409 . S
C1053 C1051 1.415 . S
C1054 H1044 0.930 . S
C1054 C1052 1.419 1_554 S
C1054 C1055 1.362 . S
C1055 H1045 0.930 . S
C1055 C1048 1.409 . S
C1055 C1054 1.362 . S
H1056 C1062 0.930 . S
H1057 C1065 0.930 . S
H1058 C1066 0.930 . S
H1059 C1067 0.930 . S
H1060 C1070 0.930 . S
H1061 C1071 0.930 . S
C1062 H1056 0.930 . S
C1062 C1063 1.355 . S
C1062 C1064 1.415 . S
C1063 C1062 1.355 . S
C1063 C1065 1.419 . S
C1064 C1062 1.415 . S
C1064 C1069 1.425 . S
C1064 C1071 1.409 . S
C1065 H1057 0.930 . S
C1065 C1063 1.419 . S
C1065 C1066 1.362 . S
C1066 H1058 0.930 . S
C1066 C1065 1.362 . S
C1066 C1069 1.409 . S
C1067 H1059 0.930 . S
C1067 C1068 1.355 . S
C1067 C1069 1.415 . S
C1068 C1067 1.355 . S
C1068 C1070 1.419 . S
C1069 C1064 1.425 . S
C1069 C1066 1.409 . S
C1069 C1067 1.415 . S
C1070 H1060 0.930 . S
C1070 C1068 1.419 . S
C1070 C1071 1.362 . S
C1071 H1061 0.930 . S
C1071 C1064 1.409 . S
C1071 C1070 1.362 . S
H1072 C1078 0.930 . S
H1073 C1081 0.930 . S
H1074 C1082 0.930 . S
H1075 C1083 0.930 . S
H1076 C1086 0.930 . S
H1077 C1087 0.930 . S
C1078 H1072 0.930 . S
C1078 C1079 1.355 . S
C1078 C1080 1.415 . S
C1079 C1078 1.355 . S
C1079 C1081 1.419 . S
C1080 C1078 1.415 . S
C1080 C1085 1.425 . S
C1080 C1087 1.409 . S
C1081 H1073 0.930 . S
C1081 C1079 1.419 . S
C1081 C1082 1.362 . S
C1082 H1074 0.930 . S
C1082 C1081 1.362 . S
C1082 C1085 1.409 . S
C1083 H1075 0.930 . S
C1083 C1084 1.355 . S
C1083 C1085 1.415 . S
C1084 C1083 1.355 . S
C1084 C1086 1.419 . S
C1085 C1080 1.425 . S
C1085 C1082 1.409 . S
C1085 C1083 1.415 . S
C1086 H1076 0.930 . S
C1086 C1084 1.419 . S
C1086 C1087 1.362 . S
C1087 H1077 0.930 . S
C1087 C1080 1.409 . S
C1087 C1086 1.362 . S
H1088 C1094 0.930 . S
H1089 C1097 0.930 . S
H1090 C1098 0.930 . S
H1091 C1099 0.930 . S
H1092 C1102 0.930 . S
H1093 C1103 0.930 . S
C1094 H1088 0.930 . S
C1094 C1095 1.355 . S
C1094 C1096 1.415 . S
C1095 C1094 1.355 . S
C1095 C1097 1.419 . S
C1096 C1094 1.415 . S
C1096 C1101 1.425 . S
C1096 C1103 1.409 . S
C1097 H1089 0.930 . S
C1097 C1095 1.419 . S
C1097 C1098 1.362 . S
C1098 H1090 0.930 . S
C1098 C1097 1.362 . S
C1098 C1101 1.409 . S
C1099 H1091 0.930 . S
C1099 C1100 1.355 . S
C1099 C1101 1.415 . S
C1100 C1099 1.355 . S
C1100 C1102 1.419 . S
C1101 C1096 1.425 . S
C1101 C1098 1.409 . S
C1101 C1099 1.415 . S
C1102 H1092 0.930 . S
C1102 C1100 1.419 . S
C1102 C1103 1.362 . S
C1103 H1093 0.930 . S
C1103 C1096 1.409 . S
C1103 C1102 1.362 . S
H1104 C1110 0.930 . S
H1105 C1113 0.930 . S
H1106 C1114 0.930 . S
H1107 C1115 0.930 . S
H1108 C1118 0.930 . S
H1109 C1119 0.930 . S
C1110 H1104 0.930 . S
C1110 C1111 1.355 . S
C1110 C1112 1.415 . S
C1111 C1110 1.355 . S
C1111 C1113 1.419 . S
C1112 C1110 1.415 . S
C1112 C1117 1.425 . S
C1112 C1119 1.409 . S
C1113 H1105 0.930 . S
C1113 C1111 1.419 . S
C1113 C1114 1.362 . S
C1114 H1106 0.930 . S
C1114 C1113 1.362 . S
C1114 C1117 1.409 . S
C1115 H1107 0.930 . S
C1115 C1116 1.355 . S
C1115 C1117 1.415 . S
C1116 C1115 1.355 . S
C1116 C1118 1.419 . S
C1117 C1112 1.425 . S
C1117 C1114 1.409 . S
C1117 C1115 1.415 . S
C1118 H1108 0.930 . S
C1118 C1116 1.419 . S
C1118 C1119 1.362 . S
C1119 H1109 0.930 . S
C1119 C1112 1.409 . S
C1119 C1118 1.362 . S
H1120 C1126 0.930 . S
H1121 C1129 0.930 . S
H1122 C1130 0.930 . S
H1123 C1131 0.930 . S
H1124 C1134 0.930 . S
H1125 C1135 0.930 . S
C1126 H1120 0.930 . S
C1126 C1127 1.355 . S
C1126 C1128 1.415 . S
C1127 C1126 1.355 . S
C1127 C1129 1.419 . S
C1128 C1126 1.415 . S
C1128 C1133 1.425 . S
C1128 C1135 1.409 . S
C1129 H1121 0.930 . S
C1129 C1127 1.419 . S
C1129 C1130 1.362 . S
C1130 H1122 0.930 . S
C1130 C1129 1.362 . S
C1130 C1133 1.409 . S
C1131 H1123 0.930 . S
C1131 C1132 1.355 . S
C1131 C1133 1.415 . S
C1132 C1131 1.355 . S
C1132 C1134 1.419 . S
C1133 C1128 1.425 . S
C1133 C1130 1.409 . S
C1133 C1131 1.415 . S
C1134 H1124 0.930 . S
C1134 C1132 1.419 . S
C1134 C1135 1.362 . S
C1135 H1125 0.930 . S
C1135 C1128 1.409 . S
C1135 C1134 1.362 . S
H1136 C1142 0.930 . S
H1137 C1145 0.930 . S
H1138 C1146 0.930 . S
H1139 C1147 0.930 . S
H1140 C1150 0.930 . S
H1141 C1151 0.930 . S
C1142 H1136 0.930 . S
C1142 C1143 1.355 . S
C1142 C1144 1.415 . S
C1143 C1142 1.355 . S
C1143 C1145 1.419 . S
C1144 C1142 1.415 . S
C1144 C1149 1.425 . S
C1144 C1151 1.409 . S
C1145 H1137 0.930 . S
C1145 C1143 1.419 . S
C1145 C1146 1.362 . S
C1146 H1138 0.930 . S
C1146 C1145 1.362 . S
C1146 C1149 1.409 . S
C1147 H1139 0.930 . S
C1147 C1148 1.355 . S
C1147 C1149 1.415 . S
C1148 C1147 1.355 . S
C1148 C1150 1.419 . S
C1149 C1144 1.425 . S
C1149 C1146 1.409 . S
C1149 C1147 1.415 . S
C1150 H1140 0.930 . S
C1150 C1148 1.419 . S
C1150 C1151 1.362 . S
C1151 H1141 0.930 . S
C1151 C1144 1.409 . S
C1151 C1150 1.362 . S
H1152 C1158 0.930 . S
H1153 C1161 0.930 . S
H1154 C1162 0.930 . S
H1155 C1163 0.930 . S
H1156 C1166 0.930 . S
H1157 C1167 0.930 . S
C1158 H1152 0.930 . S
C1158 C1159 1.355 . S
C1158 C1160 1.415 . S
C1159 C1158 1.355 . S
C1159 C1161 1.419 . S
C1160 C1158 1.415 . S
C1160 C1165 1.425 . S
C1160 C1167 1.409 . S
C1161 H1153 0.930 . S
C1161 C1159 1.419 . S
C1161 C1162 1.362 . S
C1162 H1154 0.930 . S
C1162 C1161 1.362 . S
C1162 C1165 1.409 . S
C1163 H1155 0.930 . S
C1163 C1164 1.355 . S
C1163 C1165 1.415 . S
C1164 C1163 1.355 . S
C1164 C1166 1.419 . S
C1165 C1160 1.425 . S
C1165 C1162 1.409 . S
C1165 C1163 1.415 . S
C1166 H1156 0.930 . S
C1166 C1164 1.419 . S
C1166 C1167 1.362 . S
C1167 H1157 0.930 . S
C1167 C1160 1.409 . S
C1167 C1166 1.362 . S
H1168 C1174 0.930 . S
H1169 C1177 0.930 . S
H1170 C1178 0.930 . S
H1171 C1179 0.930 . S
H1172 C1182 0.930 . S
H1173 C1183 0.930 . S
C1174 H1168 0.930 . S
C1174 C1175 1.355 . S
C1174 C1176 1.415 . S
C1175 C1174 1.355 . S
C1175 C1177 1.419 . S
C1176 C1174 1.415 . S
C1176 C1181 1.425 . S
C1176 C1183 1.409 . S
C1177 H1169 0.930 . S
C1177 C1175 1.419 . S
C1177 C1178 1.362 . S
C1178 H1170 0.930 . S
C1178 C1177 1.362 . S
C1178 C1181 1.409 . S
C1179 H1171 0.930 . S
C1179 C1180 1.355 . S
C1179 C1181 1.415 . S
C1180 C1179 1.355 . S
C1180 C1182 1.419 . S
C1181 C1176 1.425 . S
C1181 C1178 1.409 . S
C1181 C1179 1.415 . S
C1182 H1172 0.930 . S
C1182 C1180 1.419 . S
C1182 C1183 1.362 . S
C1183 H1173 0.930 . S
C1183 C1176 1.409 . S
C1183 C1182 1.362 . S
H1184 C1190 0.930 . S
H1185 C1193 0.930 . S
H1186 C1194 0.930 . S
H1187 C1195 0.930 . S
H1188 C1198 0.930 . S
H1189 C1199 0.930 . S
C1190 H1184 0.930 . S
C1190 C1191 1.355 . S
C1190 C1192 1.415 . S
C1191 C1190 1.355 . S
C1191 C1193 1.419 . S
C1192 C1190 1.415 . S
C1192 C1197 1.425 . S
C1192 C1199 1.409 . S
C1193 H1185 0.930 . S
C1193 C1191 1.419 . S
C1193 C1194 1.362 . S
C1194 H1186 0.930 . S
C1194 C1193 1.362 . S
C1194 C1197 1.409 . S
C1195 H1187 0.930 . S
C1195 C1196 1.355 . S
C1195 C1197 1.415 . S
C1196 C1195 1.355 . S
C1196 C1198 1.419 . S
C1197 C1192 1.425 . S
C1197 C1194 1.409 . S
C1197 C1195 1.415 . S
C1198 H1188 0.930 . S
C1198 C1196 1.419 . S
C1198 C1199 1.362 . S
C1199 H1189 0.930 . S
C1199 C1192 1.409 . S
C1199 C1198 1.362 . S
H1200 C1206 0.930 . S
H1201 C1209 0.930 . S
H1202 C1210 0.930 . S
H1203 C1211 0.930 . S
H1204 C1214 0.930 . S
H1205 C1215 0.930 . S
C1206 H1200 0.930 . S
C1206 C1207 1.355 . S
C1206 C1208 1.415 . S
C1207 C1206 1.355 . S
C1207 C1209 1.419 . S
C1208 C1206 1.415 . S
C1208 C1213 1.425 . S
C1208 C1215 1.409 . S
C1209 H1201 0.930 . S
C1209 C1207 1.419 . S
C1209 C1210 1.362 . S
C1210 H1202 0.930 . S
C1210 C1209 1.362 . S
C1210 C1213 1.409 . S
C1211 H1203 0.930 . S
C1211 C1212 1.355 . S
C1211 C1213 1.415 . S
C1212 C1211 1.355 . S
C1212 C1214 1.419 . S
C1213 C1208 1.425 . S
C1213 C1210 1.409 . S
C1213 C1211 1.415 . S
C1214 H1204 0.930 . S
C1214 C1212 1.419 . S
C1214 C1215 1.362 . S
C1215 H1205 0.930 . S
C1215 C1208 1.409 . S
C1215 C1214 1.362 . S
H1216 C1222 0.930 . S
H1217 C1225 0.930 . S
H1218 C1226 0.930 . S
H1219 C1227 0.930 . S
H1220 C1230 0.930 . S
H1221 C1231 0.930 . S
C1222 H1216 0.930 . S
C1222 C1223 1.355 . S
C1222 C1224 1.415 . S
C1223 C1222 1.355 . S
C1223 C1225 1.419 . S
C1224 C1222 1.415 . S
C1224 C1229 1.425 . S
C1224 C1231 1.409 . S
C1225 H1217 0.930 . S
C1225 C1223 1.419 . S
C1225 C1226 1.362 . S
C1226 H1218 0.930 . S
C1226 C1225 1.362 . S
C1226 C1229 1.409 . S
C1227 H1219 0.930 . S
C1227 C1228 1.355 . S
C1227 C1229 1.415 . S
C1228 C1227 1.355 . S
C1228 C1230 1.419 . S
C1229 C1224 1.425 . S
C1229 C1226 1.409 . S
C1229 C1227 1.415 . S
C1230 H1220 0.930 . S
C1230 C1228 1.419 . S
C1230 C1231 1.362 . S
C1231 H1221 0.930 . S
C1231 C1224 1.409 . S
C1231 C1230 1.362 . S
H1232 C1238 0.930 . S
H1233 C1241 0.930 . S
H1234 C1242 0.930 . S
H1235 C1243 0.930 . S
H1236 C1246 0.930 . S
H1237 C1247 0.930 . S
C1238 H1232 0.930 . S
C1238 C1239 1.355 . S
C1238 C1240 1.415 . S
C1239 C1238 1.355 . S
C1239 C1241 1.419 . S
C1240 C1238 1.415 . S
C1240 C1245 1.425 . S
C1240 C1247 1.409 . S
C1241 H1233 0.930 . S
C1241 C1239 1.419 . S
C1241 C1242 1.362 . S
C1242 H1234 0.930 . S
C1242 C1241 1.362 . S
C1242 C1245 1.409 . S
C1243 H1235 0.930 . S
C1243 C1244 1.355 . S
C1243 C1245 1.415 . S
C1244 C1243 1.355 . S
C1244 C1246 1.419 . S
C1245 C1240 1.425 . S
C1245 C1242 1.409 . S
C1245 C1243 1.415 . S
C1246 H1236 0.930 . S
C1246 C1244 1.419 . S
C1246 C1247 1.362 . S
C1247 H1237 0.930 . S
C1247 C1240 1.409 . S
C1247 C1246 1.362 . S
H1248 C1254 0.930 . S
H1249 C1257 0.930 . S
H1250 C1258 0.930 . S
H1251 C1259 0.930 . S
H1252 C1262 0.930 . S
H1253 C1263 0.930 . S
C1254 H1248 0.930 . S
C1254 C1255 1.355 . S
C1254 C1256 1.415 . S
C1255 C1254 1.355 . S
C1255 C1257 1.419 . S
C1256 C1254 1.415 . S
C1256 C1261 1.425 . S
C1256 C1263 1.409 . S
C1257 H1249 0.930 . S
C1257 C1255 1.419 . S
C1257 C1258 1.362 . S
C1258 H1250 0.930 . S
C1258 C1257 1.362 . S
C1258 C1261 1.409 . S
C1259 H1251 0.930 . S
C1259 C1260 1.355 . S
C1259 C1261 1.415 . S
C1260 C1259 1.355 . S
C1260 C1262 1.419 . S
C1261 C1256 1.425 . S
C1261 C1258 1.409 . S
C1261 C1259 1.415 . S
C1262 H1252 0.930 . S
C1262 C1260 1.419 . S
C1262 C1263 1.362 . S
C1263 H1253 0.930 . S
C1263 C1256 1.409 . S
C1263 C1262 1.362 . S
H1264 C1270 0.930 . S
H1265 C1273 0.930 . S
H1266 C1274 0.930 . S
H1267 C1275 0.930 . S
H1268 C1278 0.930 . S
H1269 C1279 0.930 . S
C1270 H1264 0.930 . S
C1270 C1271 1.355 . S
C1270 C1272 1.415 . S
C1271 C1270 1.355 . S
C1271 C1273 1.419 . S
C1272 C1270 1.415 . S
C1272 C1277 1.425 . S
C1272 C1279 1.409 . S
C1273 H1265 0.930 . S
C1273 C1271 1.419 . S
C1273 C1274 1.362 . S
C1274 H1266 0.930 . S
C1274 C1273 1.362 . S
C1274 C1277 1.409 . S
C1275 H1267 0.930 . S
C1275 C1276 1.355 . S
C1275 C1277 1.415 . S
C1276 C1275 1.355 . S
C1276 C1278 1.419 . S
C1277 C1272 1.425 . S
C1277 C1274 1.409 . S
C1277 C1275 1.415 . S
C1278 H1268 0.930 . S
C1278 C1276 1.419 . S
C1278 C1279 1.362 . S
C1279 H1269 0.930 . S
C1279 C1272 1.409 . S
C1279 C1278 1.362 . S
H1280 C1286 0.930 . S
H1281 C1289 0.930 . S
H1282 C1290 0.930 . S
H1283 C1291 0.930 . S
H1284 C1294 0.930 . S
H1285 C1295 0.930 . S
C1286 H1280 0.930 . S
C1286 C1287 1.355 . S
C1286 C1288 1.415 . S
C1287 C1286 1.355 . S
C1287 C1289 1.419 . S
C1288 C1286 1.415 . S
C1288 C1293 1.425 . S
C1288 C1295 1.409 . S
C1289 H1281 0.930 . S
C1289 C1287 1.419 . S
C1289 C1290 1.362 . S
C1290 H1282 0.930 . S
C1290 C1289 1.362 . S
C1290 C1293 1.409 . S
C1291 H1283 0.930 . S
C1291 C1292 1.355 . S
C1291 C1293 1.415 . S
C1292 C1291 1.355 . S
C1292 C1294 1.419 . S
C1293 C1288 1.425 . S
C1293 C1290 1.409 . S
C1293 C1291 1.415 . S
C1294 H1284 0.930 . S
C1294 C1292 1.419 . S
C1294 C1295 1.362 . S
C1295 H1285 0.930 . S
C1295 C1288 1.409 . S
C1295 C1294 1.362 . S
H1296 C1302 0.930 . S
H1297 C1305 0.930 . S
H1298 C1306 0.930 . S
H1299 C1307 0.930 . S
H1300 C1310 0.930 . S
H1301 C1311 0.930 . S
C1302 H1296 0.930 . S
C1302 C1303 1.355 . S
C1302 C1304 1.415 . S
C1303 C1302 1.355 . S
C1303 C1305 1.419 . S
C1304 C1302 1.415 . S
C1304 C1309 1.425 . S
C1304 C1311 1.409 . S
C1305 H1297 0.930 . S
C1305 C1303 1.419 . S
C1305 C1306 1.362 . S
C1306 H1298 0.930 . S
C1306 C1305 1.362 . S
C1306 C1309 1.409 . S
C1307 H1299 0.930 . S
C1307 C1308 1.355 . S
C1307 C1309 1.415 . S
C1308 C1307 1.355 . S
C1308 C1310 1.419 . S
C1309 C1304 1.425 . S
C1309 C1306 1.409 . S
C1309 C1307 1.415 . S
C1310 H1300 0.930 . S
C1310 C1308 1.419 . S
C1310 C1311 1.362 . S
C1311 H1301 0.930 . S
C1311 C1304 1.409 . S
C1311 C1310 1.362 . S
H1312 C1318 0.930 . S
H1313 C1321 0.930 . S
H1314 C1322 0.930 . S
H1315 C1323 0.930 . S
H1316 C1326 0.930 . S
H1317 C1327 0.930 . S
C1318 H1312 0.930 . S
C1318 C1319 1.355 . S
C1318 C1320 1.415 . S
C1319 C1318 1.355 . S
C1319 C1321 1.419 . S
C1320 C1318 1.415 . S
C1320 C1325 1.425 . S
C1320 C1327 1.409 . S
C1321 H1313 0.930 . S
C1321 C1319 1.419 . S
C1321 C1322 1.362 . S
C1322 H1314 0.930 . S
C1322 C1321 1.362 . S
C1322 C1325 1.409 . S
C1323 H1315 0.930 . S
C1323 C1324 1.355 . S
C1323 C1325 1.415 . S
C1324 C1323 1.355 . S
C1324 C1326 1.419 . S
C1325 C1320 1.425 . S
C1325 C1322 1.409 . S
C1325 C1323 1.415 . S
C1326 H1316 0.930 . S
C1326 C1324 1.419 . S
C1326 C1327 1.362 . S
C1327 H1317 0.930 . S
C1327 C1320 1.409 . S
C1327 C1326 1.362 . S
H1328 C1334 0.930 . S
H1329 C1337 0.930 . S
H1330 C1338 0.930 . S
H1331 C1339 0.930 . S
H1332 C1342 0.930 . S
H1333 C1343 0.930 . S
C1334 H1328 0.930 . S
C1334 C1335 1.355 . S
C1334 C1336 1.415 . S
C1335 C1334 1.355 . S
C1335 C1337 1.419 . S
C1336 C1334 1.415 . S
C1336 C1341 1.425 . S
C1336 C1343 1.409 . S
C1337 H1329 0.930 . S
C1337 C1335 1.419 . S
C1337 C1338 1.362 . S
C1338 H1330 0.930 . S
C1338 C1337 1.362 . S
C1338 C1341 1.409 . S
C1339 H1331 0.930 . S
C1339 C1340 1.355 . S
C1339 C1341 1.415 . S
C1340 C1339 1.355 . S
C1340 C1342 1.419 . S
C1341 C1336 1.425 . S
C1341 C1338 1.409 . S
C1341 C1339 1.415 . S
C1342 H1332 0.930 . S
C1342 C1340 1.419 . S
C1342 C1343 1.362 . S
C1343 H1333 0.930 . S
C1343 C1336 1.409 . S
C1343 C1342 1.362 . S
H1344 C1350 0.930 . S
H1345 C1353 0.930 . S
H1346 C1354 0.930 . S
H1347 C1355 0.930 . S
H1348 C1358 0.930 . S
H1349 C1359 0.930 . S
C1350 H1344 0.930 . S
C1350 C1351 1.355 . S
C1350 C1352 1.415 . S
C1351 C1350 1.355 . S
C1351 C1353 1.419 . S
C1352 C1350 1.415 . S
C1352 C1357 1.425 . S
C1352 C1359 1.409 . S
C1353 H1345 0.930 . S
C1353 C1351 1.419 . S
C1353 C1354 1.362 . S
C1354 H1346 0.930 . S
C1354 C1353 1.362 . S
C1354 C1357 1.409 . S
C1355 H1347 0.930 . S
C1355 C1356 1.355 . S
C1355 C1357 1.415 . S
C1356 C1355 1.355 . S
C1356 C1358 1.419 . S
C1357 C1352 1.425 . S
C1357 C1354 1.409 . S
C1357 C1355 1.415 . S
C1358 H1348 0.930 . S
C1358 C1356 1.419 . S
C1358 C1359 1.362 . S
C1359 H1349 0.930 . S
C1359 C1352 1.409 . S
C1359 C1358 1.362 . S
H1360 C1366 0.930 . S
H1361 C1369 0.930 . S
H1362 C1370 0.930 . S
H1363 C1371 0.930 . S
H1364 C1374 0.930 . S
H1365 C1375 0.930 . S
C1366 H1360 0.930 . S
C1366 C1367 1.355 . S
C1366 C1368 1.415 . S
C1367 C1366 1.355 . S
C1367 C1369 1.419 . S
C1368 C1366 1.415 . S
C1368 C1373 1.425 . S
C1368 C1375 1.409 . S
C1369 H1361 0.930 . S
C1369 C1367 1.419 . S
C1369 C1370 1.362 . S
C1370 H1362 0.930 . S
C1370 C1369 1.362 . S
C1370 C1373 1.409 . S
C1371 H1363 0.930 . S
C1371 C1372 1.355 . S
C1371 C1373 1.415 . S
C1372 C1371 1.355 . S
C1372 C1374 1.419 . S
C1373 C1368 1.425 . S
C1373 C1370 1.409 . S
C1373 C1371 1.415 . S
C1374 H1364 0.930 . S
C1374 C1372 1.419 . S
C1374 C1375 1.362 . S
C1375 H1365 0.930 . S
C1375 C1368 1.409 . S
C1375 C1374 1.362 . S
H1376 C1382 0.930 . S
H1377 C1385 0.930 . S
H1378 C1386 0.930 . S
H1379 C1387 0.930 . S
H1380 C1390 0.930 . S
H1381 C1391 0.930 . S
C1382 H1376 0.930 . S
C1382 C1383 1.355 . S
C1382 C1384 1.415 . S
C1383 C1382 1.355 . S
C1383 C1385 1.419 . S
C1384 C1382 1.415 . S
C1384 C1389 1.425 . S
C1384 C1391 1.409 . S
C1385 H1377 0.930 . S
C1385 C1383 1.419 . S
C1385 C1386 1.362 . S
C1386 H1378 0.930 . S
C1386 C1385 1.362 . S
C1386 C1389 1.409 . S
C1387 H1379 0.930 . S
C1387 C1388 1.355 . S
C1387 C1389 1.415 . S
C1388 C1387 1.355 . S
C1388 C1390 1.419 . S
C1389 C1384 1.425 . S
C1389 C1386 1.409 . S
C1389 C1387 1.415 . S
C1390 H1380 0.930 . S
C1390 C1388 1.419 . S
C1390 C1391 1.362 . S
C1391 H1381 0.930 . S
C1391 C1384 1.409 . S
C1391 C1390 1.362 . S
H1392 C1398 0.930 . S
H1393 C1401 0.930 . S
H1394 C1402 0.930 . S
H1395 C1403 0.930 . S
H1396 C1406 0.930 . S
H1397 C1407 0.930 . S
C1398 H1392 0.930 . S
C1398 C1399 1.355 . S
C1398 C1400 1.415 . S
C1399 C1398 1.355 . S
C1399 C1401 1.419 . S
C1400 C1398 1.415 . S
C1400 C1405 1.425 . S
C1400 C1407 1.409 . S
C1401 H1393 0.930 . S
C1401 C1399 1.419 . S
C1401 C1402 1.362 . S
C1402 H1394 0.930 . S
C1402 C1401 1.362 . S
C1402 C1405 1.409 . S
C1403 H1395 0.930 . S
C1403 C1404 1.355 . S
C1403 C1405 1.415 . S
C1404 C1403 1.355 . S
C1404 C1406 1.419 . S
C1405 C1400 1.425 . S
C1405 C1402 1.409 . S
C1405 C1403 1.415 . S
C1406 H1396 0.930 . S
C1406 C1404 1.419 . S
C1406 C1407 1.362 . S
C1407 H1397 0.930 . S
C1407 C1400 1.409 . S
C1407 C1406 1.362 . S
H1408 C1414 0.930 . S
H1409 C1417 0.930 . S
H1410 C1418 0.930 . S
H1411 C1419 0.930 . S
H1412 C1422 0.930 . S
H1413 C1423 0.930 . S
C1414 H1408 0.930 . S
C1414 C1415 1.355 . S
C1414 C1416 1.415 . S
C1415 C1414 1.355 . S
C1415 C1417 1.419 . S
C1416 C1414 1.415 . S
C1416 C1421 1.425 . S
C1416 C1423 1.409 . S
C1417 H1409 0.930 . S
C1417 C1415 1.419 . S
C1417 C1418 1.362 . S
C1418 H1410 0.930 . S
C1418 C1417 1.362 . S
C1418 C1421 1.409 . S
C1419 H1411 0.930 . S
C1419 C1420 1.355 . S
C1419 C1421 1.415 . S
C1420 C1419 1.355 . S
C1420 C1422 1.419 . S
C1421 C1416 1.425 . S
C1421 C1418 1.409 . S
C1421 C1419 1.415 . S
C1422 H1412 0.930 . S
C1422 C1420 1.419 . S
C1422 C1423 1.362 . S
C1423 H1413 0.930 . S
C1423 C1416 1.409 . S
C1423 C1422 1.362 . S
H1424 C1430 0.930 . S
H1425 C1433 0.930 . S
H1426 C1434 0.930 . S
H1427 C1435 0.930 . S
H1428 C1438 0.930 . S
H1429 C1439 0.930 . S
C1430 H1424 0.930 . S
C1430 C1431 1.355 . S
C1430 C1432 1.415 . S
C1431 C1430 1.355 . S
C1431 C1433 1.419 . S
C1432 C1430 1.415 . S
C1432 C1437 1.425 . S
C1432 C1439 1.409 . S
C1433 H1425 0.930 . S
C1433 C1431 1.419 . S
C1433 C1434 1.362 . S
C1434 H1426 0.930 . S
C1434 C1433 1.362 . S
C1434 C1437 1.409 . S
C1435 H1427 0.930 . S
C1435 C1436 1.355 . S
C1435 C1437 1.415 . S
C1436 C1435 1.355 . S
C1436 C1438 1.419 . S
C1437 C1432 1.425 . S
C1437 C1434 1.409 . S
C1437 C1435 1.415 . S
C1438 H1428 0.930 . S
C1438 C1436 1.419 . S
C1438 C1439 1.362 . S
C1439 H1429 0.930 . S
C1439 C1432 1.409 . S
C1439 C1438 1.362 . S
H1440 C1446 0.930 . S
H1441 C1449 0.930 . S
H1442 C1450 0.930 . S
H1443 C1451 0.930 . S
H1444 C1454 0.930 . S
H1445 C1455 0.930 . S
C1446 H1440 0.930 . S
C1446 C1447 1.355 . S
C1446 C1448 1.415 . S
C1447 C1446 1.355 . S
C1447 C1449 1.419 . S
C1448 C1446 1.415 . S
C1448 C1453 1.425 . S
C1448 C1455 1.409 . S
C1449 H1441 0.930 . S
C1449 C1447 1.419 . S
C1449 C1450 1.362 . S
C1450 H1442 0.930 . S
C1450 C1449 1.362 . S
C1450 C1453 1.409 . S
C1451 H1443 0.930 . S
C1451 C1452 1.355 . S
C1451 C1453 1.415 . S
C1452 C1451 1.355 . S
C1452 C1454 1.419 . S
C1453 C1448 1.425 . S
C1453 C1450 1.409 . S
C1453 C1451 1.415 . S
C1454 H1444 0.930 . S
C1454 C1452 1.419 . S
C1454 C1455 1.362 . S
C1455 H1445 0.930 . S
C1455 C1448 1.409 . S
C1455 C1454 1.362 . S
C951 C5 1.373 1_556 S
C956 C241 1.365 . S
C967 C300 1.407 . S
C972 C64 1.407 . S
C983 C123 1.553 . S
C988 C359 1.574 . S
C999 C182 1.574 . S
C1004 C418 1.587 . S
C1015 C477 1.398 1_554 S
C1020 C713 1.408 . S
C1031 C772 1.405 . S
C1036 C536 1.386 . S
C1047 C595 1.551 . S
C1052 C831 1.553 . S
C1063 C654 1.570 . S
C1068 C890 1.550 . S
C1079 C3 1.501 . S
C1084 C937 1.539 . S
C1095 C760 1.508 . S
C1100 C62 1.451 . S
C1111 C121 1.549 . S
C1116 C819 1.612 . S
C1127 C878 1.656 . S
C1132 C180 1.643 . S
C1143 C583 1.508 . S
C1148 C239 1.451 . S
C1159 C642 1.538 . S
C1164 C298 1.517 . S
C1175 C701 1.659 . S
C1180 C357 1.623 . S
C1191 C524 1.614 . S
C1196 C416 1.583 . S
C1207 C475 1.487 . S
C1212 C465 1.539 . S
C1223 C288 1.510 . S
C1228 C534 1.449 . S
C1239 C347 1.608 . S
C1244 C593 1.567 . S
C1255 C652 1.613 . S
C1260 C406 1.662 . S
C1271 C111 1.504 . S
C1276 C711 1.460 . S
C1287 C770 1.515 . S
C1292 C170 1.536 . S
C1303 C829 1.647 . S
C1308 C229 1.656 . S
C1319 C888 1.596 . S
C1324 C52 1.610 . S
C1335 C446 1.040 . S
C1340 C33 1.110 . S
C1351 C92 1.123 . S
C1356 C269 1.172 . S
C1367 C151 1.135 . S
C1372 C328 1.114 . S
C1383 C210 1.080 . S
C1388 C387 0.997 . S
C1399 C918 1.038 . S
C1404 C505 1.114 . S
C1415 C741 1.158 . S
C1420 C564 1.189 . S
C1431 C800 1.094 . S
C1436 C623 1.142 . S
C1447 C859 1.009 . S
C1452 C682 1.096 . S
