# Generated by pormake.
# Topology tfs, (6)-cn, num edge types: 1
# Building blocks:
#     Node 0, Type 0, BuildingBlock: MIFKUJ_clean_sbu_0, # of connection points: 6
#     Node 1, Type 0, BuildingBlock: MIFKUJ_clean_sbu_0, # of connection points: 6
#     Node 2, Type 0, BuildingBlock: MIFKUJ_clean_sbu_0, # of connection points: 6
#     Node 3, Type 0, BuildingBlock: MIFKUJ_clean_sbu_0, # of connection points: 6
#     Node 4, Type 0, BuildingBlock: MIFKUJ_clean_sbu_0, # of connection points: 6
#     Node 5, Type 0, BuildingBlock: MIFKUJ_clean_sbu_0, # of connection points: 6
#     Edge 6, Type (0, 0), BuildingBlock: XUDNAN_clean_linker_2, # of connection points: 2
#     Edge 7, Type (0, 0), BuildingBlock: XUDNAN_clean_linker_2, # of connection points: 2
#     Edge 8, Type (0, 0), BuildingBlock: XUDNAN_clean_linker_2, # of connection points: 2
#     Edge 9, Type (0, 0), BuildingBlock: XUDNAN_clean_linker_2, # of connection points: 2
#     Edge 10, Type (0, 0), BuildingBlock: XUDNAN_clean_linker_2, # of connection points: 2
#     Edge 11, Type (0, 0), BuildingBlock: XUDNAN_clean_linker_2, # of connection points: 2
#     Edge 12, Type (0, 0), BuildingBlock: XUDNAN_clean_linker_2, # of connection points: 2
#     Edge 13, Type (0, 0), BuildingBlock: XUDNAN_clean_linker_2, # of connection points: 2
#     Edge 14, Type (0, 0), BuildingBlock: XUDNAN_clean_linker_2, # of connection points: 2
#     Edge 15, Type (0, 0), BuildingBlock: XUDNAN_clean_linker_2, # of connection points: 2
#     Edge 16, Type (0, 0), BuildingBlock: XUDNAN_clean_linker_2, # of connection points: 2
#     Edge 17, Type (0, 0), BuildingBlock: XUDNAN_clean_linker_2, # of connection points: 2
#     Edge 18, Type (0, 0), BuildingBlock: XUDNAN_clean_linker_2, # of connection points: 2
#     Edge 19, Type (0, 0), BuildingBlock: XUDNAN_clean_linker_2, # of connection points: 2
#     Edge 20, Type (0, 0), BuildingBlock: XUDNAN_clean_linker_2, # of connection points: 2
#     Edge 21, Type (0, 0), BuildingBlock: XUDNAN_clean_linker_2, # of connection points: 2
#     Edge 22, Type (0, 0), BuildingBlock: XUDNAN_clean_linker_2, # of connection points: 2
#     Edge 23, Type (0, 0), BuildingBlock: XUDNAN_clean_linker_2, # of connection points: 2
# Relax obj value: 0.417
# Max RMSD: 0.244
# Mean RMSD: 0.244
data_MOF--net-tfs--node1-MIFKUJ_clean_sbu_0--edge1-XUDNAN_clean_linker_2
_symmetry_space_group_name_H-M    P1
_symmetry_Int_Tables_number       1
_symmetry_cell_setting            triclinic
loop_
_symmetry_equiv_pos_as_xyz
'x, y, z'
_cell_length_a     47.524891
_cell_length_b     47.499356
_cell_length_c     13.977994
_cell_angle_alpha  90.020698
_cell_angle_beta   89.996129
_cell_angle_gamma 119.89613
loop_
_atom_site_label
_atom_site_type_symbol
_atom_site_fract_x
_atom_site_fract_y
_atom_site_fract_z
_atom_type_partial_charge
Zn0 Zn 0.24034 0.46376 0.96903 0.0
Zn1 Zn 0.18646 0.36116 0.02215 0.0
C2 C 0.31039 0.48856 0.9635 0.0
O3 O 0.30463 0.46885 0.03607 0.0
C4 C 0.11602 0.32277 0.01271 0.0
O5 O 0.12149 0.33009 0.92149 0.0
O6 O 0.22037 0.49188 0.94821 0.0
O7 O 0.21455 0.41921 0.92187 0.0
O8 O 0.18636 0.36965 0.87701 0.0
C9 C 0.19884 0.49016 0.89077 0.0
O10 O 0.18477 0.46573 0.8307 0.0
O11 O 0.28666 0.4887 0.92194 0.0
C12 C 0.21052 0.3158 0.08333 0.0
O13 O 0.18653 0.30185 0.14486 0.0
O14 O 0.21316 0.33899 0.03155 0.0
O15 O 0.20951 0.40256 0.10868 0.0
O16 O 0.23928 0.45648 0.10954 0.0
O17 O 0.14008 0.3326 0.06949 0.0
C18 C 0.20272 0.39927 0.85381 0.0
C19 C 0.22452 0.42952 0.1544 0.0
Zn20 Zn 0.74965 0.20916 0.00142 0.0
Zn21 Zn 0.8186 0.20298 0.03121 0.0
C22 C 0.7808 0.27687 0.05362 0.0
O23 O 0.76331 0.26475 0.13138 0.0
C24 C 0.80236 0.13493 0.0659 0.0
O25 O 0.83385 0.14643 0.06858 0.0
O26 O 0.70366 0.20187 0.99183 0.0
O27 O 0.75675 0.18585 0.89418 0.0
O28 O 0.81061 0.21109 0.89541 0.0
C29 C 0.69813 0.22354 0.95805 0.0
O30 O 0.72233 0.25059 0.92431 0.0
O31 O 0.78061 0.25749 0.99046 0.0
C32 C 0.88087 0.22112 0.12273 0.0
O33 O 0.86371 0.21304 0.20193 0.0
O34 O 0.86669 0.21835 0.04318 0.0
O35 O 0.80619 0.22421 0.13343 0.0
O36 O 0.7534 0.192 0.1262 0.0
O37 O 0.79156 0.15429 0.05189 0.0
C38 C 0.78358 0.19362 0.85359 0.0
C39 C 0.77957 0.2046 0.17363 0.0
Zn40 Zn 0.54412 0.76362 0.95063 0.0
Zn41 Zn 0.64436 0.82905 0.00794 0.0
C42 C 0.50443 0.7948 0.95908 0.0
O43 O 0.51913 0.80651 0.04115 0.0
C44 C 0.69922 0.81933 0.00997 0.0
O45 O 0.70874 0.84107 0.94129 0.0
O46 O 0.52278 0.71506 0.92914 0.0
O47 O 0.58538 0.78901 0.86465 0.0
O48 O 0.63865 0.82333 0.86574 0.0
C49 C 0.4999 0.70046 0.86892 0.0
O50 O 0.49217 0.7177 0.81258 0.0
O51 O 0.51178 0.77691 0.90983 0.0
C52 C 0.68942 0.89647 0.07116 0.0
O53 O 0.71009 0.88628 0.08737 0.0
O54 O 0.66106 0.87647 0.04101 0.0
O55 O 0.5997 0.80145 0.05089 0.0
O56 O 0.5509 0.77017 0.09699 0.0
O57 O 0.67253 0.81092 0.05233 0.0
C58 C 0.6123 0.8057 0.81986 0.0
C59 C 0.58015 0.7892 0.11968 0.0
Zn60 Zn 0.78622 0.53831 0.01433 0.0
Zn61 Zn 0.81513 0.63277 0.0632 0.0
C62 C 0.72083 0.49285 0.00078 0.0
O63 O 0.72972 0.48541 0.08158 0.0
C64 C 0.88552 0.66173 0.02119 0.0
O65 O 0.87733 0.65122 0.93304 0.0
O66 O 0.80185 0.50543 0.01433 0.0
O67 O 0.81755 0.57998 0.95231 0.0
O68 O 0.80286 0.61612 0.92814 0.0
C69 C 0.79356 0.48419 0.9486 0.0
O70 O 0.77505 0.48365 0.87816 0.0
O71 O 0.74189 0.51699 0.95318 0.0
C72 C 0.7774 0.66589 0.10431 0.0
O73 O 0.75348 0.6375 0.1314 0.0
O74 O 0.80395 0.66826 0.07644 0.0
O75 O 0.7953 0.60008 0.173 0.0
O76 O 0.78119 0.54802 0.15072 0.0
O77 O 0.86355 0.65579 0.08263 0.0
C78 C 0.80635 0.59306 0.89663 0.0
C79 C 0.78421 0.57113 0.20408 0.0
Zn80 Zn 0.23231 0.76735 0.91107 0.0
Zn81 Zn 0.18351 0.82026 0.96763 0.0
C82 C 0.21718 0.70334 0.93689 0.0
O83 O 0.23908 0.71897 0.00337 0.0
C84 C 0.21194 0.89025 0.96517 0.0
O85 O 0.20403 0.8853 0.87418 0.0
O86 O 0.27864 0.78265 0.87356 0.0
O87 O 0.21421 0.79077 0.82538 0.0
O88 O 0.18919 0.81978 0.82582 0.0
C89 C 0.30259 0.7995 0.92838 0.0
O90 O 0.29754 0.80945 0.01092 0.0
O91 O 0.20846 0.71931 0.88366 0.0
C92 C 0.12182 0.80276 0.06138 0.0
O93 O 0.13903 0.82895 0.11312 0.0
O94 O 0.13574 0.79497 -0.00246 0.0
O95 O 0.20566 0.7973 0.01214 0.0
O96 O 0.23056 0.77257 0.0575 0.0
O97 O 0.20527 0.8661 0.01866 0.0
C98 C 0.20228 0.80592 0.78028 0.0
C99 C 0.21619 0.78788 0.0806 0.0
Zn100 Zn 0.45261 0.25747 0.96605 0.0
Zn101 Zn 0.38696 0.18642 0.99118 0.0
C102 C 0.50524 0.24766 0.00488 0.0
O103 O 0.51352 0.27456 0.05225 0.0
C104 C 0.34122 0.20758 0.05853 0.0
O105 O 0.3314 0.1842 0.12213 0.0
O106 O 0.48655 0.30464 0.95494 0.0
O107 O 0.42217 0.24581 0.85683 0.0
O108 O 0.40471 0.19314 0.85832 0.0
C109 C 0.49878 0.31927 0.87668 0.0
O110 O 0.48651 0.30439 0.79519 0.0
O111 O 0.47789 0.23334 0.96251 0.0
C112 C 0.34737 0.12394 0.08524 0.0
O113 O 0.36065 0.14035 0.1639 0.0
O114 O 0.3548 0.13866 0.00531 0.0
O115 O 0.41914 0.2007 0.09771 0.0
O116 O 0.4307 0.25147 0.09036 0.0
O117 O 0.36341 0.21193 -0.00049 0.0
C118 C 0.40843 0.21836 0.81565 0.0
C119 C 0.42216 0.2259 0.13854 0.0
H120 H 0.28851 0.20154 0.15901 0.0
H121 H 0.36072 0.26146 0.94761 0.0
H122 H 0.336 0.2962 0.93592 0.0
H123 H 0.22186 0.20396 0.04938 0.0
H124 H 0.20356 0.20576 0.16047 0.0
H125 H 0.22768 0.18619 0.15618 0.0
H126 H 0.26433 0.22374 0.29181 0.0
H127 H 0.24029 0.24341 0.29664 0.0
H128 H 0.2835 0.26717 0.27795 0.0
H129 H 0.30314 0.32353 0.94284 0.0
H130 H 0.26364 0.34196 0.96689 0.0
H131 H 0.21179 0.26452 0.17318 0.0
C132 C 0.29925 0.2221 0.11077 0.0
C133 C 0.3266 0.22875 0.05425 0.0
C134 C 0.33978 0.25579 0.99157 0.0
C135 C 0.32595 0.27574 0.9845 0.0
C136 C 0.29892 0.26838 0.0405 0.0
C137 C 0.28565 0.24227 0.10247 0.0
C138 C 0.25595 0.23936 0.15247 0.0
C139 C 0.22546 0.20689 0.12813 0.0
C140 C 0.26135 0.24369 0.26117 0.0
C141 C 0.25451 0.26778 0.10817 0.0
C142 C 0.27967 0.2842 0.04416 0.0
C143 C 0.28338 0.31095 0.99299 0.0
C144 C 0.26072 0.32119 0.00718 0.0
C145 C 0.23451 0.30472 0.07196 0.0
C146 C 0.23155 0.2777 0.1234 0.0
H147 H 0.05995 0.29963 0.90868 0.0
H148 H 0.09537 0.30616 0.19874 0.0
H149 H 0.03886 0.27913 0.25852 0.0
H150 H 0.9975 0.31695 0.96412 0.0
H151 H 0.9693 0.28909 0.87736 0.0
H152 H 0.0123 0.30731 0.85738 0.0
H153 H 0.0062 0.25021 0.8395 0.0
H154 H 0.96313 0.2318 0.85916 0.0
H155 H 0.98706 0.22076 0.93369 0.0
H156 H 0.97818 0.25328 0.28675 0.0
H157 H 0.91874 0.23047 0.28103 0.0
H158 H 0.92364 0.24114 0.97202 0.0
C159 C 0.05592 0.29516 0.98476 0.0
C160 C 0.08217 0.30499 0.04898 0.0
C161 C 0.07569 0.29877 0.14805 0.0
C162 C 0.04366 0.28344 0.18268 0.0
C163 C 0.01838 0.27438 0.11734 0.0
C164 C 0.02419 0.27992 0.02041 0.0
C165 C 0.99294 0.26865 0.96523 0.0
C166 C 0.99303 0.29721 0.91298 0.0
C167 C 0.98699 0.24122 0.89528 0.0
C168 C 0.96859 0.25623 0.04629 0.0
C169 C 0.98368 0.2596 0.13348 0.0
C170 C 0.96613 0.25037 0.21876 0.0
C171 C 0.93235 0.23746 0.21476 0.0
C172 C 0.91643 0.23393 0.12609 0.0
C173 C 0.93497 0.24337 0.04096 0.0
H174 H 0.81708 0.08636 0.09302 0.0
H175 H 0.7359 0.1033 0.05851 0.0
H176 H 0.69794 0.04423 0.06561 0.0
H177 H 0.7862 0.01638 0.9478 0.0
H178 H 0.80129 0.99571 0.02172 0.0
H179 H 0.82195 0.03939 0.02012 0.0
H180 H 0.81614 0.04017 0.2043 0.0
H181 H 0.79545 0.99643 0.20649 0.0
H182 H 0.77648 0.01763 0.25795 0.0
H183 H 0.66899 0.98312 0.06616 0.0
H184 H 0.65126 0.92463 0.062 0.0
H185 H 0.75118 0.94751 0.09887 0.0
C186 C 0.79131 0.07771 0.08791 0.0
C187 C 0.77952 0.09954 0.0751 0.0
C188 C 0.74557 0.08712 0.06833 0.0
C189 C 0.72378 0.05358 0.07245 0.0
C190 C 0.73624 0.03273 0.08403 0.0
C191 C 0.7692 0.04431 0.09218 0.0
C192 C 0.77636 0.01669 0.10105 0.0
C193 C 0.7977 0.01707 0.0177 0.0
C194 C 0.79203 0.0178 0.19824 0.0
C195 C 0.74234 0.98775 0.09467 0.0
C196 C 0.71953 0.99753 0.08537 0.0
C197 C 0.68661 0.97518 0.07433 0.0
C198 C 0.67678 0.94199 0.0719 0.0
C199 C 0.69977 0.93141 0.08052 0.0
C200 C 0.73293 0.95473 0.09314 0.0
H201 H 0.72306 0.66995 0.14972 0.0
H202 H 0.82185 0.72692 0.04439 0.0
H203 H 0.81381 0.77381 0.02177 0.0
H204 H 0.68754 0.6992 0.988 0.0
H205 H 0.65925 0.70023 0.07187 0.0
H206 H 0.67354 0.67191 0.08884 0.0
H207 H 0.69347 0.69476 0.25914 0.0
H208 H 0.67915 0.72315 0.24272 0.0
H209 H 0.72089 0.73765 0.27488 0.0
H210 H 0.79367 0.81255 0.99437 0.0
H211 H 0.76301 0.84133 0.96967 0.0
H212 H 0.67787 0.76043 0.09756 0.0
C213 C 0.74317 0.69244 0.12342 0.0
C214 C 0.77308 0.69467 0.09884 0.0
C215 C 0.7987 0.72453 0.06387 0.0
C216 C 0.79442 0.75139 0.05089 0.0
C217 C 0.7645 0.74821 0.0741 0.0
C218 C 0.73938 0.71963 0.11046 0.0
C219 C 0.70917 0.72227 0.12526 0.0
C220 C 0.68071 0.6969 0.06487 0.0
C221 C 0.70015 0.71929 0.23185 0.0
C222 C 0.72099 0.75642 0.08884 0.0
C223 C 0.75304 0.77099 0.06017 0.0
C224 C 0.76872 0.80165 0.01801 0.0
C225 C 0.75109 0.81775 0.00397 0.0
C226 C 0.7182 0.80325 0.03244 0.0
C227 C 0.70317 0.77238 0.0767 0.0
H228 H 0.07729 0.75672 0.94051 0.0
H229 H 0.08633 0.8037 0.21428 0.0
H230 H 0.02698 0.7706 0.23714 0.0
H231 H 0.00445 0.7545 0.8692 0.0
H232 H 0.98767 0.7156 0.81068 0.0
H233 H 0.031 0.74147 0.81872 0.0
H234 H 0.03579 0.69513 0.90083 0.0
H235 H 0.99243 0.66908 0.89312 0.0
H236 H 0.01251 0.67645 0.00735 0.0
H237 H 0.96681 0.73302 0.22909 0.0
H238 H 0.90956 0.69589 0.18724 0.0
H239 H 0.93956 0.67479 0.91567 0.0
C240 C 0.06684 0.75985 0.00572 0.0
C241 C 0.08642 0.78266 0.07594 0.0
C242 C 0.07177 0.78637 0.15958 0.0
C243 C 0.03813 0.7676 0.17335 0.0
C244 C 0.01952 0.74542 0.10251 0.0
C245 C 0.03331 0.74159 0.0201 0.0
C246 C 0.00773 0.71719 0.95302 0.0
C247 C 0.00772 0.73316 0.85727 0.0
C248 C 0.0124 0.68771 0.93772 0.0
C249 C 0.97733 0.70809 0.01023 0.0
C250 C 0.98473 0.72437 0.09669 0.0
C251 C 0.96072 0.72011 0.16164 0.0
C252 C 0.92825 0.69891 0.13717 0.0
C253 C 0.92003 0.68245 0.04802 0.0
C254 C 0.94502 0.68702 0.98423 0.0
H255 H 0.23626 0.9474 0.86592 0.0
H256 H 0.22807 0.90864 0.15228 0.0
H257 H 0.25963 0.96446 0.21588 0.0
H258 H 0.31741 0.01106 0.88742 0.0
H259 H 0.31156 0.03969 0.81785 0.0
H260 H 0.28654 0.99682 0.79608 0.0
H261 H 0.23488 1.00114 0.82366 0.0
H262 H 0.25977 0.04408 0.84542 0.0
H263 H 0.2305 0.01845 0.9336 0.0
H264 H 0.29405 0.02465 0.24705 0.0
H265 H 0.32929 0.0843 0.24283 0.0
H266 H 0.31517 0.08316 0.93559 0.0
C267 C 0.24077 0.9506 0.94217 0.0
C268 C 0.2296 0.92365 0.00414 0.0
C269 C 0.23634 0.92893 0.10339 0.0
C270 C 0.2542 0.96054 0.14024 0.0
C271 C 0.2651 0.98657 0.07695 0.0
C272 C 0.25862 0.98192 0.98004 0.0
C273 C 0.27418 0.01389 0.92667 0.0
C274 C 0.29889 0.01544 0.85267 0.0
C275 C 0.24828 0.01973 0.87958 0.0
C276 C 0.29081 0.03725 0.00848 0.0
C277 C 0.2851 0.02109 0.09471 0.0
C278 C 0.29855 0.03757 0.17998 0.0
C279 C 0.31855 0.07146 0.17683 0.0
C280 C 0.32502 0.08843 0.08891 0.0
C281 C 0.31068 0.07096 0.00401 0.0
H282 H 0.23041 0.66361 0.0444 0.0
H283 H 0.17752 0.66424 0.79212 0.0
H284 H 0.16219 0.60707 0.75958 0.0
H285 H 0.2642 0.62052 0.94478 0.0
H286 H 0.26145 0.59818 0.0519 0.0
H287 H 0.26471 0.63745 0.06067 0.0
H288 H 0.21181 0.61274 0.1611 0.0
H289 H 0.20843 0.57331 0.15288 0.0
H290 H 0.17528 0.57879 0.11436 0.0
H291 H 0.15716 0.55098 0.74774 0.0
H292 H 0.16329 0.5022 0.75749 0.0
H293 H 0.21962 0.54002 0.01782 0.0
C294 C 0.21513 0.65166 0.98309 0.0
C295 C 0.20512 0.66837 0.92087 0.0
C296 C 0.18534 0.65183 0.84107 0.0
C297 C 0.1765 0.61936 0.8221 0.0
C298 C 0.18741 0.60382 0.8841 0.0
C299 C 0.20614 0.61947 0.96333 0.0
C300 C 0.21669 0.59848 0.0157 0.0
C301 C 0.25396 0.61462 0.01833 0.0
C302 C 0.20217 0.59035 0.117 0.0
C303 C 0.20177 0.56882 0.95222 0.0
C304 C 0.18464 0.57202 0.8772 0.0
C305 C 0.17019 0.5481 0.8069 0.0
C306 C 0.17379 0.52048 0.813 0.0
C307 C 0.19193 0.51728 0.88836 0.0
C308 C 0.20552 0.54161 0.95936 0.0
H309 H 0.57084 0.28513 0.00638 0.0
H310 H 0.49335 0.18527 0.97806 0.0
H311 H 0.5343 0.16752 0.964 0.0
H312 H 0.62355 0.27948 0.83225 0.0
H313 H 0.66004 0.30666 0.89654 0.0
H314 H 0.62455 0.31085 0.90734 0.0
H315 H 0.62607 0.30583 0.09139 0.0
H316 H 0.66154 0.30157 0.08137 0.0
H317 H 0.62602 0.27097 0.14261 0.0
H318 H 0.58465 0.16105 0.96184 0.0
H319 H 0.63947 0.16682 0.9555 0.0
H320 H 0.68283 0.2715 0.97204 0.0
C321 C 0.56245 0.25947 -0.00223 0.0
C322 C 0.52899 0.23643 0.99452 0.0
C323 C 0.51893 0.20321 0.98103 0.0
C324 C 0.54199 0.19297 0.97326 0.0
C325 C 0.57489 0.21638 0.97727 0.0
C326 C 0.58502 0.249 0.98779 0.0
C327 C 0.62164 0.26958 0.98616 0.0
C328 C 0.6331 0.29301 0.90045 0.0
C329 C 0.63456 0.28806 0.08104 0.0
C330 C 0.63069 0.24345 0.97431 0.0
C331 C 0.60349 0.21286 0.97037 0.0
C332 C 0.60607 0.18491 0.96371 0.0
C333 C 0.63723 0.18838 0.96043 0.0
C334 C 0.66527 0.21958 0.9621 0.0
C335 C 0.6618 0.24735 0.96895 0.0
H336 H 0.44103 0.66333 0.78202 0.0
H337 H 0.51026 0.65693 0.97015 0.0
H338 H 0.47127 0.59878 0.99688 0.0
H339 H 0.37412 0.61771 0.92049 0.0
H340 H 0.34613 0.59786 0.82342 0.0
H341 H 0.38136 0.63705 0.80507 0.0
H342 H 0.39911 0.61422 0.66342 0.0
H343 H 0.36372 0.57486 0.68107 0.0
H344 H 0.40357 0.57907 0.68146 0.0
H345 H 0.42211 0.54366 0.02084 0.0
H346 H 0.367 0.49659 0.04091 0.0
H347 H 0.32988 0.5392 0.8377 0.0
C348 C 0.44845 0.64951 0.82648 0.0
C349 C 0.47883 0.66468 0.87346 0.0
C350 C 0.48721 0.64582 0.93292 0.0
C351 C 0.46523 0.61273 0.94834 0.0
C352 C 0.43504 0.59878 0.90338 0.0
C353 C 0.42674 0.61654 0.84305 0.0
C354 C 0.39166 0.59687 0.8114 0.0
C355 C 0.37219 0.61335 0.84197 0.0
C356 C 0.3894 0.5909 0.70288 0.0
C357 C 0.38114 0.56572 0.8663 0.0
C358 C 0.40662 0.56705 0.9177 0.0
C359 C 0.40212 0.54211 0.97957 0.0
C360 C 0.37069 0.51547 0.99062 0.0
C361 C 0.34408 0.51407 0.94061 0.0
C362 C 0.34971 0.53925 0.87598 0.0
H363 H 0.78823 0.44684 0.10319 0.0
H364 H 0.8159 0.4624 0.80435 0.0
H365 H 0.82417 0.41493 0.8071 0.0
H366 H 0.84055 0.41297 0.18181 0.0
H367 H 0.80911 0.38309 0.25736 0.0
H368 H 0.81154 0.42175 0.2374 0.0
H369 H 0.7519 0.39225 0.17801 0.0
H370 H 0.74932 0.35364 0.19788 0.0
H371 H 0.74023 0.36337 0.08145 0.0
H372 H 0.82406 0.36307 0.83742 0.0
H373 H 0.81082 0.30807 0.88763 0.0
H374 H 0.77982 0.32407 0.16461 0.0
C375 C 0.79715 0.44082 0.03955 0.0
C376 C 0.80228 0.45855 0.95416 0.0
C377 C 0.81241 0.44927 0.87071 0.0
C378 C 0.81727 0.42248 0.8718 0.0
C379 C 0.81139 0.40498 0.95662 0.0
C380 C 0.80129 0.4136 0.03885 0.0
C381 C 0.79219 0.38817 0.11626 0.0
C382 C 0.8147 0.40235 0.20336 0.0
C383 C 0.75629 0.37349 0.14501 0.0
C384 C 0.79811 0.36361 0.06413 0.0
C385 C 0.80982 0.3741 0.97287 0.0
C386 C 0.81526 0.35475 0.90912 0.0
C387 C 0.80767 0.32351 0.9384 0.0
C388 C 0.79433 0.3117 0.03019 0.0
C389 C 0.79032 0.33245 0.09442 0.0
H390 H 0.35646 0.82482 0.04328 0.0
H391 H 0.32133 0.78277 0.76251 0.0
H392 H 0.37263 0.78309 0.73248 0.0
H393 H 0.44393 0.87572 0.97567 0.0
H394 H 0.45724 0.86804 0.08847 0.0
H395 H 0.41995 0.86921 0.08193 0.0
H396 H 0.38891 0.81172 0.15688 0.0
H397 H 0.42594 0.81027 0.16307 0.0
H398 H 0.3913 0.77877 0.10084 0.0
H399 H 0.4242 0.78124 0.74119 0.0
H400 H 0.47272 0.77817 0.78703 0.0
H401 H 0.47448 0.8216 0.06195 0.0
C402 C 0.35988 0.81651 0.97441 0.0
C403 C 0.33491 0.80388 0.90512 0.0
C404 C 0.34015 0.79267 0.8166 0.0
C405 C 0.36925 0.79283 0.79874 0.0
C406 C 0.39298 0.80453 0.86975 0.0
C407 C 0.38876 0.81645 0.95551 0.0
C408 C 0.41679 0.825 0.02313 0.0
C409 C 0.43559 0.86168 0.04347 0.0
C410 C 0.40502 0.80525 0.11644 0.0
C411 C 0.43678 0.81479 0.9635 0.0
C412 C 0.42287 0.80348 0.87475 0.0
C413 C 0.43565 0.79057 0.80979 0.0
C414 C 0.46315 0.78882 0.83667 0.0
C415 C 0.47749 0.79978 0.92793 0.0
C416 C 0.46437 0.81345 0.99122 0.0
H417 H 0.67058 0.44292 0.09467 0.0
H418 H 0.6955 0.49573 0.82603 0.0
H419 H 0.63988 0.45876 0.76603 0.0
H420 H 0.62309 0.36439 0.99512 0.0
H421 H 0.59416 0.34973 0.09173 0.0
H422 H 0.63531 0.38121 0.11349 0.0
H423 H 0.61445 0.41833 0.18177 0.0
H424 H 0.57321 0.38694 0.15997 0.0
H425 H 0.58807 0.42686 0.10995 0.0
H426 H 0.58203 0.41284 0.73265 0.0
H427 H 0.52734 0.36374 0.73137 0.0
H428 H 0.54131 0.34382 0.02511 0.0
C429 C 0.66438 0.44699 0.02343 0.0
C430 C 0.68735 0.47224 0.96506 0.0
C431 C 0.6782 0.47659 0.87216 0.0
C432 C 0.6467 0.45571 0.8375 0.0
C433 C 0.62472 0.43083 0.89694 0.0
C434 C 0.63322 0.42658 0.98813 0.0
C435 C 0.6057 0.39765 0.03741 0.0
C436 C 0.61513 0.37173 0.06076 0.0
C437 C 0.59471 0.40808 0.12759 0.0
C438 C 0.58024 0.38617 0.95985 0.0
C439 C 0.59157 0.40536 0.87896 0.0
C440 C 0.57279 0.39796 0.79613 0.0
C441 C 0.5418 0.37007 0.79601 0.0
C442 C 0.5299 0.35024 0.87851 0.0
C443 C 0.54936 0.35881 0.96151 0.0
H444 H 0.17907 0.36138 0.69188 0.0
H445 H 0.24064 0.46091 0.78613 0.0
H446 H 0.25274 0.4787 0.61847 0.0
H447 H 0.22895 0.36474 0.49367 0.0
H448 H 0.19531 0.33982 0.41598 0.0
H449 H 0.19072 0.33456 0.54375 0.0
H450 H 0.14144 0.34381 0.53824 0.0
H451 H 0.14579 0.34896 0.41039 0.0
H452 H 0.14591 0.38022 0.48381 0.0
H453 H 0.25894 0.4859 0.44288 0.0
H454 H 0.25818 0.48275 0.26765 0.0
H455 H 0.19265 0.37846 0.28246 0.0
C456 C 0.19498 0.38694 0.67716 0.0
C457 C 0.20883 0.40981 0.75245 0.0
C458 C 0.22964 0.44297 0.73007 0.0
C459 C 0.23671 0.45331 0.63489 0.0
C460 C 0.22285 0.4302 0.56259 0.0
C461 C 0.20235 0.39772 0.58218 0.0
C462 C 0.19087 0.378 0.49041 0.0
C463 C 0.20214 0.35279 0.48571 0.0
C464 C 0.1538 0.3618 0.48013 0.0
C465 C 0.20818 0.40454 0.41637 0.0
C466 C 0.22648 0.4344 0.46007 0.0
C467 C 0.24468 0.46269 0.40772 0.0
C468 C 0.24404 0.46056 0.30789 0.0
C469 C 0.22531 0.43033 0.26066 0.0
C470 C 0.20726 0.40191 0.31611 0.0
H471 H 0.82881 0.2269 0.71621 0.0
H472 H 0.73621 0.13989 0.76625 0.0
H473 H 0.73084 0.12781 0.59374 0.0
H474 H 0.80519 0.2523 0.52705 0.0
H475 H 0.84202 0.26846 0.45785 0.0
H476 H 0.84366 0.26591 0.58563 0.0
H477 H 0.87224 0.23179 0.56912 0.0
H478 H 0.87097 0.23447 0.44061 0.0
H479 H 0.8538 0.19533 0.49769 0.0
H480 H 0.72969 0.13077 0.42022 0.0
H481 H 0.73274 0.14852 0.25352 0.0
H482 H 0.82551 0.23452 0.31239 0.0
C483 C 0.8081 0.20466 0.69085 0.0
C484 C 0.78297 0.1842 0.75362 0.0
C485 C 0.75565 0.15582 0.71858 0.0
C486 C 0.75257 0.14861 0.62105 0.0
C487 C 0.77707 0.17001 0.56004 0.0
C488 C 0.80448 0.19738 0.59333 0.0
C489 C 0.8245 0.21907 0.51171 0.0
C490 C 0.82907 0.25343 0.52116 0.0
C491 C 0.85732 0.22022 0.50436 0.0
C492 C 0.80278 0.2008 0.42829 0.0
C493 C 0.7761 0.17209 0.4576 0.0
C494 C 0.75083 0.15275 0.39574 0.0
C495 C 0.75261 0.16324 0.30159 0.0
C496 C 0.77936 0.19291 0.27073 0.0
C497 C 0.80507 0.21151 0.33418 0.0
H498 H 0.56146 0.77348 0.69149 0.0
H499 H 0.66566 0.83904 0.70636 0.0
H500 H 0.66834 0.84184 0.53084 0.0
H501 H 0.56307 0.7293 0.48143 0.0
H502 H 0.5262 0.72517 0.43176 0.0
H503 H 0.53218 0.7279 0.55944 0.0
H504 H 0.52241 0.77685 0.56494 0.0
H505 H 0.51651 0.77436 0.43724 0.0
H506 H 0.54673 0.81184 0.49107 0.0
H507 H 0.66023 0.83883 0.35425 0.0
H508 H 0.64174 0.82867 0.18675 0.0
H509 H 0.54295 0.76466 0.28251 0.0
C510 C 0.58485 0.78832 0.65784 0.0
C511 C 0.61333 0.80606 0.7134 0.0
C512 C 0.64343 0.8252 0.66606 0.0
C513 C 0.64527 0.82701 0.56607 0.0
C514 C 0.61683 0.8095 0.51363 0.0
C515 C 0.58718 0.79039 0.55752 0.0
C516 C 0.56038 0.77407 0.48358 0.0
C517 C 0.54453 0.7369 0.48941 0.0
C518 C 0.53501 0.78494 0.49491 0.0
C519 C 0.57965 0.78712 0.39164 0.0
C520 C 0.61216 0.80755 0.41091 0.0
C521 C 0.63484 0.82278 0.33817 0.0
C522 C 0.62408 0.81684 0.24302 0.0
C523 C 0.59093 0.79578 0.22102 0.0
C524 C 0.56847 0.78085 0.29677 0.0
H525 H 0.79272 0.62279 0.74963 0.0
H526 H 0.80266 0.53922 0.81652 0.0
H527 H 0.78859 0.51989 0.65024 0.0
H528 H 0.72897 0.58593 0.56344 0.0
H529 H 0.74817 0.62152 0.48856 0.0
H530 H 0.75258 0.62556 0.61674 0.0
H531 H 0.81518 0.65652 0.59859 0.0
H532 H 0.81095 0.65267 0.47066 0.0
H533 H 0.83436 0.638 0.53271 0.0
H534 H 0.77685 0.51142 0.47634 0.0
H535 H 0.77669 0.51804 0.30199 0.0
H536 H 0.78074 0.61072 0.34234 0.0
C537 C 0.79104 0.59996 0.72979 0.0
C538 C 0.79715 0.58146 0.79721 0.0
C539 C 0.79635 0.55266 0.7673 0.0
C540 C 0.7886 0.54169 0.67283 0.0
C541 C 0.78258 0.56037 0.60822 0.0
C542 C 0.78436 0.58925 0.63481 0.0
C543 C 0.78163 0.60708 0.5485 0.0
C544 C 0.75101 0.61019 0.55471 0.0
C545 C 0.81236 0.64053 0.53696 0.0
C546 C 0.77875 0.58403 0.4692 0.0
C547 C 0.77843 0.55684 0.5057 0.0
C548 C 0.77696 0.53253 0.44678 0.0
C549 C 0.77681 0.53653 0.34764 0.0
C550 C 0.77885 0.565 0.30819 0.0
C551 C 0.7791 0.58867 0.37016 0.0
H552 H 0.23454 0.76807 0.24323 0.0
H553 H 0.1889 0.82256 0.1479 0.0
H554 H 0.18162 0.83382 0.31517 0.0
H555 H 0.18288 0.73116 0.44708 0.0
H556 H 0.21478 0.7337 0.52272 0.0
H557 H 0.21724 0.7305 0.39494 0.0
H558 H 0.27336 0.78307 0.39417 0.0
H559 H 0.27105 0.78643 0.52199 0.0
H560 H 0.27739 0.81969 0.44577 0.0
H561 H 0.17877 0.83884 0.49114 0.0
H562 H 0.17943 0.83679 0.66663 0.0
H563 H 0.22657 0.77853 0.65255 0.0
C564 C 0.22311 0.78246 0.25763 0.0
C565 C 0.21227 0.79457 0.18201 0.0
C566 C 0.19736 0.81314 0.20414 0.0
C567 C 0.19317 0.81967 0.29915 0.0
C568 C 0.20404 0.8074 0.3718 0.0
C569 C 0.21867 0.78915 0.35256 0.0
C570 C 0.22762 0.77849 0.44467 0.0
C571 C 0.20955 0.74125 0.4528 0.0
C572 C 0.26455 0.79278 0.45206 0.0
C573 C 0.21554 0.79348 0.51844 0.0
C574 C 0.20217 0.81013 0.4744 0.0
C575 C 0.18919 0.8259 0.52656 0.0
C576 C 0.18969 0.82455 0.62652 0.0
C577 C 0.20302 0.80746 0.67401 0.0
C578 C 0.21623 0.79182 0.61874 0.0
H579 H 0.40455 0.17599 0.6783 0.0
H580 H 0.38936 0.25741 0.73125 0.0
H581 H 0.37975 0.26036 0.55958 0.0
H582 H 0.4518 0.20731 0.49064 0.0
H583 H 0.43761 0.17101 0.41976 0.0
H584 H 0.4332 0.16799 0.54737 0.0
H585 H 0.37121 0.12938 0.52998 0.0
H586 H 0.37544 0.13191 0.40153 0.0
H587 H 0.34752 0.14175 0.45926 0.0
H588 H 0.3843 0.26306 0.3865 0.0
H589 H 0.40174 0.26464 0.21994 0.0
H590 H 0.41562 0.18251 0.27599 0.0
C591 C 0.39782 0.19346 0.65377 0.0
C592 C 0.39762 0.21644 0.71687 0.0
C593 C 0.38972 0.2397 0.68313 0.0
C594 C 0.38386 0.24131 0.58612 0.0
C595 C 0.3859 0.21941 0.52443 0.0
C596 C 0.39234 0.19564 0.55674 0.0
C597 C 0.39881 0.17895 0.47447 0.0
C598 C 0.43234 0.18151 0.48366 0.0
C599 C 0.37161 0.14339 0.46581 0.0
C600 C 0.39779 0.19897 0.39208 0.0
C601 C 0.38919 0.2214 0.42213 0.0
C602 C 0.39021 0.24508 0.36135 0.0
C603 C 0.40059 0.24608 0.26743 0.0
C604 C 0.41003 0.22369 0.23593 0.0
C605 C 0.408 0.19951 0.29837 0.0
loop_
_geom_bond_atom_site_label_1
_geom_bond_atom_site_label_2
_geom_bond_distance
_geom_bond_site_symmetry_2
_ccdc_geom_bond_type
Zn0 O6 1.969 . S
Zn0 O7 1.965 1_554 S
Zn0 O11 2.024 1_554 S
Zn0 O16 1.969 . S
Zn1 O8 1.969 . S
Zn1 O14 1.969 . S
Zn1 O15 1.965 1_556 S
Zn1 O17 2.024 1_556 S
C2 O3 1.229 . S
C2 O11 1.058 1_554 S
O3 C2 1.229 . S
C4 O5 1.229 . S
C4 O17 1.058 1_556 S
O5 C4 1.229 . S
O6 Zn0 1.969 . S
O6 C9 1.267 1_554 S
O7 Zn0 1.965 1_556 S
O7 C18 1.260 . S
O8 Zn1 1.969 . S
O8 C18 1.258 . S
C9 O6 1.267 1_556 S
C9 O10 1.228 . S
O10 C9 1.228 . S
O11 Zn0 2.024 1_556 S
O11 C2 1.058 1_556 S
C12 O13 1.228 . S
C12 O14 1.267 1_554 S
O13 C12 1.228 . S
O14 Zn1 1.969 . S
O14 C12 1.267 1_556 S
O15 Zn1 1.965 1_554 S
O15 C19 1.260 . S
O16 Zn0 1.969 . S
O16 C19 1.258 . S
O17 Zn1 2.024 1_554 S
O17 C4 1.058 1_554 S
C18 O7 1.260 . S
C18 O8 1.258 . S
C19 O15 1.260 . S
C19 O16 1.258 . S
Zn20 O26 1.969 . S
Zn20 O27 1.965 1_554 S
Zn20 O31 2.024 1_554 S
Zn20 O36 1.969 . S
Zn21 O28 1.969 . S
Zn21 O34 1.969 . S
Zn21 O35 1.965 1_556 S
Zn21 O37 2.024 1_556 S
C22 O23 1.229 . S
C22 O31 1.058 1_554 S
O23 C22 1.229 . S
C24 O25 1.229 . S
C24 O37 1.058 1_556 S
O25 C24 1.229 . S
O26 Zn20 1.969 . S
O26 C29 1.267 1_554 S
O27 Zn20 1.965 1_556 S
O27 C38 1.260 . S
O28 Zn21 1.969 . S
O28 C38 1.258 . S
C29 O26 1.267 1_556 S
C29 O30 1.228 . S
O30 C29 1.228 . S
O31 Zn20 2.024 1_556 S
O31 C22 1.058 1_556 S
C32 O33 1.228 . S
C32 O34 1.267 1_554 S
O33 C32 1.228 . S
O34 Zn21 1.969 . S
O34 C32 1.267 1_556 S
O35 Zn21 1.965 1_554 S
O35 C39 1.260 . S
O36 Zn20 1.969 . S
O36 C39 1.258 . S
O37 Zn21 2.024 1_554 S
O37 C24 1.058 1_554 S
C38 O27 1.260 . S
C38 O28 1.258 . S
C39 O35 1.260 . S
C39 O36 1.258 . S
Zn40 O46 1.969 . S
Zn40 O47 1.965 1_554 S
Zn40 O51 2.024 1_554 S
Zn40 O56 1.969 . S
Zn41 O48 1.969 . S
Zn41 O54 1.969 . S
Zn41 O55 1.965 1_556 S
Zn41 O57 2.024 1_556 S
C42 O43 1.229 . S
C42 O51 1.058 1_554 S
O43 C42 1.229 . S
C44 O45 1.229 . S
C44 O57 1.058 1_556 S
O45 C44 1.229 . S
O46 Zn40 1.969 . S
O46 C49 1.267 1_554 S
O47 Zn40 1.965 1_556 S
O47 C58 1.260 . S
O48 Zn41 1.969 . S
O48 C58 1.258 . S
C49 O46 1.267 1_556 S
C49 O50 1.228 . S
O50 C49 1.228 . S
O51 Zn40 2.024 1_556 S
O51 C42 1.058 1_556 S
C52 O53 1.228 . S
C52 O54 1.267 1_554 S
O53 C52 1.228 . S
O54 Zn41 1.969 . S
O54 C52 1.267 1_556 S
O55 Zn41 1.965 1_554 S
O55 C59 1.260 . S
O56 Zn40 1.969 . S
O56 C59 1.258 . S
O57 Zn41 2.024 1_554 S
O57 C44 1.058 1_554 S
C58 O47 1.260 . S
C58 O48 1.258 . S
C59 O55 1.260 . S
C59 O56 1.258 . S
Zn60 O66 1.969 . S
Zn60 O67 1.965 1_554 S
Zn60 O71 2.024 1_554 S
Zn60 O76 1.969 . S
Zn61 O68 1.969 . S
Zn61 O74 1.969 . S
Zn61 O75 1.965 1_556 S
Zn61 O77 2.024 1_556 S
C62 O63 1.229 . S
C62 O71 1.058 1_554 S
O63 C62 1.229 . S
C64 O65 1.229 . S
C64 O77 1.058 1_556 S
O65 C64 1.229 . S
O66 Zn60 1.969 . S
O66 C69 1.267 1_554 S
O67 Zn60 1.965 1_556 S
O67 C78 1.260 . S
O68 Zn61 1.969 . S
O68 C78 1.258 . S
C69 O66 1.267 1_556 S
C69 O70 1.228 . S
O70 C69 1.228 . S
O71 Zn60 2.024 1_556 S
O71 C62 1.058 1_556 S
C72 O73 1.228 . S
C72 O74 1.267 1_554 S
O73 C72 1.228 . S
O74 Zn61 1.969 . S
O74 C72 1.267 1_556 S
O75 Zn61 1.965 1_554 S
O75 C79 1.260 . S
O76 Zn60 1.969 . S
O76 C79 1.258 . S
O77 Zn61 2.024 1_554 S
O77 C64 1.058 1_554 S
C78 O67 1.260 . S
C78 O68 1.258 . S
C79 O75 1.260 . S
C79 O76 1.258 . S
Zn80 O86 1.969 . S
Zn80 O87 1.965 1_554 S
Zn80 O91 2.024 1_554 S
Zn80 O96 1.969 . S
Zn81 O88 1.969 . S
Zn81 O94 1.969 . S
Zn81 O95 1.965 1_556 S
Zn81 O97 2.024 1_556 S
C82 O83 1.229 . S
C82 O91 1.058 1_554 S
O83 C82 1.229 . S
C84 O85 1.229 . S
C84 O97 1.058 1_556 S
O85 C84 1.229 . S
O86 Zn80 1.969 . S
O86 C89 1.267 1_554 S
O87 Zn80 1.965 1_556 S
O87 C98 1.260 . S
O88 Zn81 1.969 . S
O88 C98 1.258 . S
C89 O86 1.267 1_556 S
C89 O90 1.228 . S
O90 C89 1.228 . S
O91 Zn80 2.024 1_556 S
O91 C82 1.058 1_556 S
C92 O93 1.228 . S
C92 O94 1.267 1_554 S
O93 C92 1.228 . S
O94 Zn81 1.969 . S
O94 C92 1.267 1_556 S
O95 Zn81 1.965 1_554 S
O95 C99 1.260 . S
O96 Zn80 1.969 . S
O96 C99 1.258 . S
O97 Zn81 2.024 1_554 S
O97 C84 1.058 1_554 S
C98 O87 1.260 . S
C98 O88 1.258 . S
C99 O95 1.260 . S
C99 O96 1.258 . S
Zn100 O106 1.969 . S
Zn100 O107 1.965 1_554 S
Zn100 O111 2.024 1_554 S
Zn100 O116 1.969 . S
Zn101 O108 1.969 . S
Zn101 O114 1.969 . S
Zn101 O115 1.965 1_556 S
Zn101 O117 2.024 1_556 S
C102 O103 1.229 . S
C102 O111 1.058 1_554 S
O103 C102 1.229 . S
C104 O105 1.229 . S
C104 O117 1.058 1_556 S
O105 C104 1.229 . S
O106 Zn100 1.969 . S
O106 C109 1.267 1_554 S
O107 Zn100 1.965 1_556 S
O107 C118 1.260 . S
O108 Zn101 1.969 . S
O108 C118 1.258 . S
C109 O106 1.267 1_556 S
C109 O110 1.228 . S
O110 C109 1.228 . S
O111 Zn100 2.024 1_556 S
O111 C102 1.058 1_556 S
C112 O113 1.228 . S
C112 O114 1.267 1_554 S
O113 C112 1.228 . S
O114 Zn101 1.969 . S
O114 C112 1.267 1_556 S
O115 Zn101 1.965 1_554 S
O115 C119 1.260 . S
O116 Zn100 1.969 . S
O116 C119 1.258 . S
O117 Zn101 2.024 1_554 S
O117 C104 1.058 1_554 S
C118 O107 1.260 . S
C118 O108 1.258 . S
C119 O115 1.260 . S
C119 O116 1.258 . S
H120 C132 0.930 . S
H121 C134 0.930 . S
H122 C135 0.930 . S
H123 C139 0.959 . S
H124 C139 0.959 . S
H125 C139 0.961 . S
H126 C140 0.960 . S
H127 C140 0.961 . S
H128 C140 0.959 . S
H129 C143 0.929 . S
H130 C144 0.931 . S
H131 C146 0.930 . S
C132 H120 0.930 . S
C132 C133 1.399 1_554 S
C132 C137 1.399 . S
C133 C132 1.399 1_556 S
C133 C134 1.376 . S
C134 H121 0.930 . S
C134 C133 1.376 . S
C134 C135 1.388 . S
C135 H122 0.930 . S
C135 C134 1.388 . S
C135 C136 1.390 . S
C136 C135 1.390 . S
C136 C137 1.394 1_556 S
C136 C142 1.465 . S
C137 C132 1.399 . S
C137 C136 1.394 1_554 S
C137 C138 1.516 . S
C138 C137 1.516 . S
C138 C139 1.502 . S
C138 C140 1.561 . S
C138 C141 1.526 . S
C139 H123 0.959 . S
C139 H124 0.959 . S
C139 H125 0.961 . S
C139 C138 1.502 . S
C140 H126 0.960 . S
C140 H127 0.961 . S
C140 H128 0.959 . S
C140 C138 1.561 . S
C141 C138 1.526 . S
C141 C142 1.396 1_554 S
C141 C146 1.390 . S
C142 C136 1.465 . S
C142 C141 1.396 1_556 S
C142 C143 1.399 . S
C143 H129 0.929 . S
C143 C142 1.399 . S
C143 C144 1.385 . S
C144 H130 0.931 . S
C144 C143 1.385 . S
C144 C145 1.389 1_556 S
C145 C144 1.389 1_554 S
C145 C146 1.387 . S
C146 H131 0.930 . S
C146 C141 1.390 . S
C146 C145 1.387 . S
H147 C159 0.930 . S
H148 C161 0.930 . S
H149 C162 0.930 . S
H150 C166 0.942 1_655 S
H151 C166 0.944 1_655 S
H152 C166 0.986 . S
H153 C167 0.960 . S
H154 C167 0.961 1_655 S
H155 C167 0.959 . S
H156 C170 0.929 . S
H157 C171 0.931 . S
H158 C173 0.930 . S
C159 H147 0.930 . S
C159 C160 1.399 1_556 S
C159 C164 1.399 . S
C160 C159 1.399 1_554 S
C160 C161 1.376 . S
C161 H148 0.930 . S
C161 C160 1.376 . S
C161 C162 1.388 . S
C162 H149 0.930 . S
C162 C161 1.388 . S
C162 C163 1.390 . S
C163 C162 1.390 . S
C163 C164 1.394 1_554 S
C163 C169 1.465 1_455 S
C164 C159 1.399 . S
C164 C163 1.394 1_556 S
C164 C165 1.516 . S
C165 C164 1.516 . S
C165 C166 1.510 . S
C165 C167 1.561 . S
C165 C168 1.526 1_455 S
C166 H150 0.942 1_455 S
C166 H151 0.944 1_455 S
C166 H152 0.986 . S
C166 C165 1.510 . S
C167 H153 0.960 . S
C167 H154 0.961 1_455 S
C167 H155 0.959 . S
C167 C165 1.561 . S
C168 C165 1.526 1_655 S
C168 C169 1.396 1_556 S
C168 C173 1.390 . S
C169 C163 1.465 1_655 S
C169 C168 1.396 1_554 S
C169 C170 1.399 . S
C170 H156 0.929 . S
C170 C169 1.399 . S
C170 C171 1.385 . S
C171 H157 0.931 . S
C171 C170 1.385 . S
C171 C172 1.389 . S
C172 C171 1.389 . S
C172 C173 1.387 1_554 S
C173 H158 0.930 . S
C173 C168 1.390 . S
C173 C172 1.387 1_556 S
H174 C186 0.930 . S
H175 C188 0.930 . S
H176 C189 0.930 . S
H177 C193 0.959 . S
H178 C193 0.959 1_565 S
H179 C193 0.961 . S
H180 C194 0.960 . S
H181 C194 0.961 1_565 S
H182 C194 0.959 . S
H183 C197 0.929 . S
H184 C198 0.931 . S
H185 C200 0.930 . S
C186 H174 0.930 . S
C186 C187 1.399 1_554 S
C186 C191 1.399 . S
C187 C186 1.399 1_556 S
C187 C188 1.376 . S
C188 H175 0.930 . S
C188 C187 1.376 . S
C188 C189 1.388 . S
C189 H176 0.930 . S
C189 C188 1.388 . S
C189 C190 1.390 . S
C190 C189 1.390 . S
C190 C191 1.394 1_556 S
C190 C196 1.465 1_545 S
C191 C186 1.399 . S
C191 C190 1.394 1_554 S
C191 C192 1.516 . S
C192 C191 1.516 . S
C192 C193 1.502 . S
C192 C194 1.561 . S
C192 C195 1.526 1_545 S
C193 H177 0.959 . S
C193 H178 0.959 1_545 S
C193 H179 0.961 . S
C193 C192 1.502 . S
C194 H180 0.960 . S
C194 H181 0.961 1_545 S
C194 H182 0.959 . S
C194 C192 1.561 . S
C195 C192 1.526 1_565 S
C195 C196 1.396 1_554 S
C195 C200 1.390 . S
C196 C190 1.465 1_565 S
C196 C195 1.396 1_556 S
C196 C197 1.399 . S
C197 H183 0.929 . S
C197 C196 1.399 . S
C197 C198 1.385 . S
C198 H184 0.931 . S
C198 C197 1.385 . S
C198 C199 1.389 1_556 S
C199 C198 1.389 1_554 S
C199 C200 1.387 . S
C200 H185 0.930 . S
C200 C195 1.390 . S
C200 C199 1.387 . S
H201 C213 0.930 . S
H202 C215 0.930 . S
H203 C216 0.930 . S
H204 C220 0.959 . S
H205 C220 0.959 . S
H206 C220 0.961 . S
H207 C221 0.960 . S
H208 C221 0.961 . S
H209 C221 0.959 . S
H210 C224 0.929 . S
H211 C225 0.931 . S
H212 C227 0.930 . S
C213 H201 0.930 . S
C213 C214 1.399 . S
C213 C218 1.399 . S
C214 C213 1.399 . S
C214 C215 1.376 1_554 S
C215 H202 0.930 . S
C215 C214 1.376 1_556 S
C215 C216 1.388 . S
C216 H203 0.930 . S
C216 C215 1.388 . S
C216 C217 1.390 . S
C217 C216 1.390 . S
C217 C218 1.394 1_556 S
C217 C223 1.465 . S
C218 C213 1.399 . S
C218 C217 1.394 1_554 S
C218 C219 1.516 . S
C219 C218 1.516 . S
C219 C220 1.502 . S
C219 C221 1.561 . S
C219 C222 1.526 . S
C220 H204 0.959 . S
C220 H205 0.959 . S
C220 H206 0.961 . S
C220 C219 1.502 . S
C221 H207 0.960 . S
C221 H208 0.961 . S
C221 H209 0.959 . S
C221 C219 1.561 . S
C222 C219 1.526 . S
C222 C223 1.396 1_554 S
C222 C227 1.390 . S
C223 C217 1.465 . S
C223 C222 1.396 1_556 S
C223 C224 1.399 . S
C224 H210 0.929 . S
C224 C223 1.399 . S
C224 C225 1.385 . S
C225 H211 0.931 . S
C225 C224 1.385 . S
C225 C226 1.389 . S
C226 C225 1.389 . S
C226 C227 1.387 1_556 S
C227 H212 0.930 . S
C227 C222 1.390 . S
C227 C226 1.387 1_554 S
H228 C240 0.930 . S
H229 C242 0.930 . S
H230 C243 0.930 . S
H231 C247 0.959 . S
H232 C247 0.959 . S
H233 C247 0.961 1_455 S
H234 C248 0.960 1_455 S
H235 C248 0.961 . S
H236 C248 0.959 . S
H237 C251 0.929 . S
H238 C252 0.931 . S
H239 C254 0.930 . S
C240 H228 0.930 . S
C240 C241 1.399 1_556 S
C240 C245 1.399 . S
C241 C240 1.399 1_554 S
C241 C242 1.376 . S
C242 H229 0.930 . S
C242 C241 1.376 . S
C242 C243 1.388 . S
C243 H230 0.930 . S
C243 C242 1.388 . S
C243 C244 1.390 . S
C244 C243 1.390 . S
C244 C245 1.394 1_554 S
C244 C250 1.465 1_455 S
C245 C240 1.399 . S
C245 C244 1.394 1_556 S
C245 C246 1.516 1_455 S
C246 C245 1.516 1_655 S
C246 C247 1.502 . S
C246 C248 1.561 . S
C246 C249 1.526 . S
C247 H231 0.959 . S
C247 H232 0.959 . S
C247 H233 0.961 1_655 S
C247 C246 1.502 . S
C248 H234 0.960 1_655 S
C248 H235 0.961 . S
C248 H236 0.959 . S
C248 C246 1.561 . S
C249 C246 1.526 . S
C249 C250 1.396 1_556 S
C249 C254 1.390 . S
C250 C244 1.465 1_655 S
C250 C249 1.396 1_554 S
C250 C251 1.399 . S
C251 H237 0.929 . S
C251 C250 1.399 . S
C251 C252 1.385 . S
C252 H238 0.931 . S
C252 C251 1.385 . S
C252 C253 1.389 . S
C253 C252 1.389 . S
C253 C254 1.387 1_554 S
C254 H239 0.930 . S
C254 C249 1.390 . S
C254 C253 1.387 1_556 S
H255 C267 0.930 . S
H256 C269 0.930 . S
H257 C270 0.930 . S
H258 C274 0.961 1_545 S
H259 C274 0.956 1_545 S
H260 C274 0.965 . S
H261 C275 0.960 . S
H262 C275 0.961 1_545 S
H263 C275 0.975 . S
H264 C278 0.929 . S
H265 C279 0.931 . S
H266 C281 0.930 . S
C267 H255 0.930 . S
C267 C268 1.399 1_556 S
C267 C272 1.399 . S
C268 C267 1.399 1_554 S
C268 C269 1.376 . S
C269 H256 0.930 . S
C269 C268 1.376 . S
C269 C270 1.388 . S
C270 H257 0.930 . S
C270 C269 1.388 . S
C270 C271 1.390 . S
C271 C270 1.390 . S
C271 C272 1.394 1_554 S
C271 C277 1.465 1_565 S
C272 C267 1.399 . S
C272 C271 1.394 1_556 S
C272 C273 1.516 . S
C273 C272 1.516 . S
C273 C274 1.500 . S
C273 C275 1.561 . S
C273 C276 1.526 1_565 S
C274 H258 0.961 1_565 S
C274 H259 0.956 1_565 S
C274 H260 0.965 . S
C274 C273 1.500 . S
C275 H261 0.960 . S
C275 H262 0.961 1_565 S
C275 H263 0.975 . S
C275 C273 1.561 . S
C276 C273 1.526 1_545 S
C276 C277 1.396 1_556 S
C276 C281 1.390 . S
C277 C271 1.465 1_545 S
C277 C276 1.396 1_554 S
C277 C278 1.399 . S
C278 H264 0.929 . S
C278 C277 1.399 . S
C278 C279 1.385 . S
C279 H265 0.931 . S
C279 C278 1.385 . S
C279 C280 1.389 . S
C280 C279 1.389 . S
C280 C281 1.387 1_554 S
C281 H266 0.930 . S
C281 C276 1.390 . S
C281 C280 1.387 1_556 S
H282 C294 0.930 . S
H283 C296 0.930 . S
H284 C297 0.930 . S
H285 C301 0.959 . S
H286 C301 0.959 . S
H287 C301 0.961 . S
H288 C302 0.960 . S
H289 C302 0.961 . S
H290 C302 0.959 . S
H291 C305 0.929 . S
H292 C306 0.931 . S
H293 C308 0.930 . S
C294 H282 0.930 . S
C294 C295 1.399 1_554 S
C294 C299 1.399 . S
C295 C294 1.399 1_556 S
C295 C296 1.376 . S
C296 H283 0.930 . S
C296 C295 1.376 . S
C296 C297 1.388 . S
C297 H284 0.930 . S
C297 C296 1.388 . S
C297 C298 1.390 . S
C298 C297 1.390 . S
C298 C299 1.394 1_556 S
C298 C304 1.465 . S
C299 C294 1.399 . S
C299 C298 1.394 1_554 S
C299 C300 1.516 . S
C300 C299 1.516 . S
C300 C301 1.502 . S
C300 C302 1.561 . S
C300 C303 1.526 . S
C301 H285 0.959 . S
C301 H286 0.959 . S
C301 H287 0.961 . S
C301 C300 1.502 . S
C302 H288 0.960 . S
C302 H289 0.961 . S
C302 H290 0.959 . S
C302 C300 1.561 . S
C303 C300 1.526 . S
C303 C304 1.396 1_554 S
C303 C308 1.390 . S
C304 C298 1.465 . S
C304 C303 1.396 1_556 S
C304 C305 1.399 . S
C305 H291 0.929 . S
C305 C304 1.399 . S
C305 C306 1.385 . S
C306 H292 0.931 . S
C306 C305 1.385 . S
C306 C307 1.389 . S
C307 C306 1.389 . S
C307 C308 1.387 1_556 S
C308 H293 0.930 . S
C308 C303 1.390 . S
C308 C307 1.387 1_554 S
H309 C321 0.930 . S
H310 C323 0.930 . S
H311 C324 0.930 . S
H312 C328 0.959 . S
H313 C328 0.959 . S
H314 C328 0.961 . S
H315 C329 0.960 . S
H316 C329 0.961 . S
H317 C329 0.959 . S
H318 C332 0.929 . S
H319 C333 0.931 . S
H320 C335 0.930 . S
C321 H309 0.930 . S
C321 C322 1.399 1_556 S
C321 C326 1.399 . S
C322 C321 1.399 1_554 S
C322 C323 1.376 . S
C323 H310 0.930 . S
C323 C322 1.376 . S
C323 C324 1.388 . S
C324 H311 0.930 . S
C324 C323 1.388 . S
C324 C325 1.390 . S
C325 C324 1.390 . S
C325 C326 1.394 1_554 S
C325 C331 1.465 1_554 S
C326 C321 1.399 . S
C326 C325 1.394 1_556 S
C326 C327 1.516 . S
C327 C326 1.516 . S
C327 C328 1.502 . S
C327 C329 1.561 1_556 S
C327 C330 1.526 . S
C328 H312 0.959 . S
C328 H313 0.959 . S
C328 H314 0.961 . S
C328 C327 1.502 . S
C329 H315 0.960 . S
C329 H316 0.961 . S
C329 H317 0.959 . S
C329 C327 1.561 1_554 S
C330 C327 1.526 . S
C330 C331 1.396 . S
C330 C335 1.390 . S
C331 C325 1.465 1_556 S
C331 C330 1.396 . S
C331 C332 1.399 1_556 S
C332 H318 0.929 . S
C332 C331 1.399 1_554 S
C332 C333 1.385 1_554 S
C333 H319 0.931 . S
C333 C332 1.385 1_556 S
C333 C334 1.389 . S
C334 C333 1.389 . S
C334 C335 1.387 . S
C335 H320 0.930 . S
C335 C330 1.390 . S
C335 C334 1.387 . S
H336 C348 0.930 . S
H337 C350 0.930 . S
H338 C351 0.930 . S
H339 C355 0.959 . S
H340 C355 0.959 . S
H341 C355 0.961 . S
H342 C356 0.960 . S
H343 C356 0.961 . S
H344 C356 0.959 . S
H345 C359 0.929 . S
H346 C360 0.931 . S
H347 C362 0.930 . S
C348 H336 0.930 . S
C348 C349 1.399 . S
C348 C353 1.399 . S
C349 C348 1.399 . S
C349 C350 1.376 1_556 S
C350 H337 0.930 . S
C350 C349 1.376 1_554 S
C350 C351 1.388 . S
C351 H338 0.930 . S
C351 C350 1.388 . S
C351 C352 1.390 . S
C352 C351 1.390 . S
C352 C353 1.394 1_554 S
C352 C358 1.465 . S
C353 C348 1.399 . S
C353 C352 1.394 1_556 S
C353 C354 1.516 . S
C354 C353 1.516 . S
C354 C355 1.502 . S
C354 C356 1.561 . S
C354 C357 1.526 . S
C355 H339 0.959 . S
C355 H340 0.959 . S
C355 H341 0.961 . S
C355 C354 1.502 . S
C356 H342 0.960 . S
C356 H343 0.961 . S
C356 H344 0.959 . S
C356 C354 1.561 . S
C357 C354 1.526 . S
C357 C358 1.396 1_556 S
C357 C362 1.390 . S
C358 C352 1.465 . S
C358 C357 1.396 1_554 S
C358 C359 1.399 . S
C359 H345 0.929 . S
C359 C358 1.399 . S
C359 C360 1.385 . S
C360 H346 0.931 . S
C360 C359 1.385 . S
C360 C361 1.389 . S
C361 C360 1.389 . S
C361 C362 1.387 1_554 S
C362 H347 0.930 . S
C362 C357 1.390 . S
C362 C361 1.387 1_556 S
H363 C375 0.930 . S
H364 C377 0.930 . S
H365 C378 0.930 . S
H366 C382 0.959 . S
H367 C382 0.959 . S
H368 C382 0.961 . S
H369 C383 0.960 . S
H370 C383 0.961 . S
H371 C383 0.959 . S
H372 C386 0.929 . S
H373 C387 0.931 . S
H374 C389 0.930 . S
C375 H363 0.930 . S
C375 C376 1.399 1_554 S
C375 C380 1.399 . S
C376 C375 1.399 1_556 S
C376 C377 1.376 . S
C377 H364 0.930 . S
C377 C376 1.376 . S
C377 C378 1.388 . S
C378 H365 0.930 . S
C378 C377 1.388 . S
C378 C379 1.390 . S
C379 C378 1.390 . S
C379 C380 1.394 1_556 S
C379 C385 1.465 . S
C380 C375 1.399 . S
C380 C379 1.394 1_554 S
C380 C381 1.516 . S
C381 C380 1.516 . S
C381 C382 1.502 . S
C381 C383 1.561 . S
C381 C384 1.526 . S
C382 H366 0.959 . S
C382 H367 0.959 . S
C382 H368 0.961 . S
C382 C381 1.502 . S
C383 H369 0.960 . S
C383 H370 0.961 . S
C383 H371 0.959 . S
C383 C381 1.561 . S
C384 C381 1.526 . S
C384 C385 1.396 1_554 S
C384 C389 1.390 . S
C385 C379 1.465 . S
C385 C384 1.396 1_556 S
C385 C386 1.399 . S
C386 H372 0.929 . S
C386 C385 1.399 . S
C386 C387 1.385 . S
C387 H373 0.931 . S
C387 C386 1.385 . S
C387 C388 1.389 . S
C388 C387 1.389 . S
C388 C389 1.387 1_556 S
C389 H374 0.930 . S
C389 C384 1.390 . S
C389 C388 1.387 1_554 S
H390 C402 0.930 . S
H391 C404 0.930 . S
H392 C405 0.930 . S
H393 C409 0.959 . S
H394 C409 0.959 . S
H395 C409 0.961 . S
H396 C410 0.960 . S
H397 C410 0.961 . S
H398 C410 0.959 . S
H399 C413 0.929 . S
H400 C414 0.931 . S
H401 C416 0.930 . S
C402 H390 0.930 . S
C402 C403 1.399 . S
C402 C407 1.399 . S
C403 C402 1.399 . S
C403 C404 1.376 1_556 S
C404 H391 0.930 . S
C404 C403 1.376 1_554 S
C404 C405 1.388 . S
C405 H392 0.930 . S
C405 C404 1.388 . S
C405 C406 1.390 . S
C406 C405 1.390 . S
C406 C407 1.394 1_554 S
C406 C412 1.465 . S
C407 C402 1.399 . S
C407 C406 1.394 1_556 S
C407 C408 1.516 . S
C408 C407 1.516 . S
C408 C409 1.502 . S
C408 C410 1.561 1_556 S
C408 C411 1.526 . S
C409 H393 0.959 . S
C409 H394 0.959 . S
C409 H395 0.961 . S
C409 C408 1.502 . S
C410 H396 0.960 . S
C410 H397 0.961 . S
C410 H398 0.959 . S
C410 C408 1.561 1_554 S
C411 C408 1.526 . S
C411 C412 1.396 1_556 S
C411 C416 1.390 . S
C412 C406 1.465 . S
C412 C411 1.396 1_554 S
C412 C413 1.399 . S
C413 H399 0.929 . S
C413 C412 1.399 . S
C413 C414 1.385 . S
C414 H400 0.931 . S
C414 C413 1.385 . S
C414 C415 1.389 . S
C415 C414 1.389 . S
C415 C416 1.387 1_554 S
C416 H401 0.930 . S
C416 C411 1.390 . S
C416 C415 1.387 1_556 S
H417 C429 0.930 . S
H418 C431 0.930 . S
H419 C432 0.930 . S
H420 C436 0.959 . S
H421 C436 0.959 . S
H422 C436 0.961 . S
H423 C437 0.960 . S
H424 C437 0.961 . S
H425 C437 0.959 . S
H426 C440 0.929 . S
H427 C441 0.931 . S
H428 C443 0.930 . S
C429 H417 0.930 . S
C429 C430 1.399 1_554 S
C429 C434 1.399 . S
C430 C429 1.399 1_556 S
C430 C431 1.376 . S
C431 H418 0.930 . S
C431 C430 1.376 . S
C431 C432 1.388 . S
C432 H419 0.930 . S
C432 C431 1.388 . S
C432 C433 1.390 . S
C433 C432 1.390 . S
C433 C434 1.394 1_556 S
C433 C439 1.465 . S
C434 C429 1.399 . S
C434 C433 1.394 1_554 S
C434 C435 1.516 . S
C435 C434 1.516 . S
C435 C436 1.502 . S
C435 C437 1.561 . S
C435 C438 1.526 . S
C436 H420 0.959 . S
C436 H421 0.959 . S
C436 H422 0.961 . S
C436 C435 1.502 . S
C437 H423 0.960 . S
C437 H424 0.961 . S
C437 H425 0.959 . S
C437 C435 1.561 . S
C438 C435 1.526 . S
C438 C439 1.396 1_554 S
C438 C443 1.390 . S
C439 C433 1.465 . S
C439 C438 1.396 1_556 S
C439 C440 1.399 . S
C440 H426 0.929 . S
C440 C439 1.399 . S
C440 C441 1.385 . S
C441 H427 0.931 . S
C441 C440 1.385 . S
C441 C442 1.389 . S
C442 C441 1.389 . S
C442 C443 1.387 1_556 S
C443 H428 0.930 . S
C443 C438 1.390 . S
C443 C442 1.387 1_554 S
H444 C456 0.930 . S
H445 C458 0.930 . S
H446 C459 0.930 . S
H447 C463 0.959 . S
H448 C463 0.959 . S
H449 C463 0.961 . S
H450 C464 0.960 . S
H451 C464 0.961 . S
H452 C464 0.959 . S
H453 C467 0.929 . S
H454 C468 0.931 . S
H455 C470 0.930 . S
C456 H444 0.930 . S
C456 C457 1.399 . S
C456 C461 1.399 . S
C457 C456 1.399 . S
C457 C458 1.376 . S
C458 H445 0.930 . S
C458 C457 1.376 . S
C458 C459 1.388 . S
C459 H446 0.930 . S
C459 C458 1.388 . S
C459 C460 1.390 . S
C460 C459 1.390 . S
C460 C461 1.394 . S
C460 C466 1.465 . S
C461 C456 1.399 . S
C461 C460 1.394 . S
C461 C462 1.516 . S
C462 C461 1.516 . S
C462 C463 1.502 . S
C462 C464 1.561 . S
C462 C465 1.526 . S
C463 H447 0.959 . S
C463 H448 0.959 . S
C463 H449 0.961 . S
C463 C462 1.502 . S
C464 H450 0.960 . S
C464 H451 0.961 . S
C464 H452 0.959 . S
C464 C462 1.561 . S
C465 C462 1.526 . S
C465 C466 1.396 . S
C465 C470 1.390 . S
C466 C460 1.465 . S
C466 C465 1.396 . S
C466 C467 1.399 . S
C467 H453 0.929 . S
C467 C466 1.399 . S
C467 C468 1.385 . S
C468 H454 0.931 . S
C468 C467 1.385 . S
C468 C469 1.389 . S
C469 C468 1.389 . S
C469 C470 1.387 . S
C470 H455 0.930 . S
C470 C465 1.390 . S
C470 C469 1.387 . S
H471 C483 0.930 . S
H472 C485 0.930 . S
H473 C486 0.930 . S
H474 C490 0.959 . S
H475 C490 0.959 . S
H476 C490 0.961 . S
H477 C491 0.960 . S
H478 C491 0.961 . S
H479 C491 0.959 . S
H480 C494 0.929 . S
H481 C495 0.931 . S
H482 C497 0.930 . S
C483 H471 0.930 . S
C483 C484 1.399 . S
C483 C488 1.399 . S
C484 C483 1.399 . S
C484 C485 1.376 . S
C485 H472 0.930 . S
C485 C484 1.376 . S
C485 C486 1.388 . S
C486 H473 0.930 . S
C486 C485 1.388 . S
C486 C487 1.390 . S
C487 C486 1.390 . S
C487 C488 1.394 . S
C487 C493 1.465 . S
C488 C483 1.399 . S
C488 C487 1.394 . S
C488 C489 1.516 . S
C489 C488 1.516 . S
C489 C490 1.502 . S
C489 C491 1.561 . S
C489 C492 1.526 . S
C490 H474 0.959 . S
C490 H475 0.959 . S
C490 H476 0.961 . S
C490 C489 1.502 . S
C491 H477 0.960 . S
C491 H478 0.961 . S
C491 H479 0.959 . S
C491 C489 1.561 . S
C492 C489 1.526 . S
C492 C493 1.396 . S
C492 C497 1.390 . S
C493 C487 1.465 . S
C493 C492 1.396 . S
C493 C494 1.399 . S
C494 H480 0.929 . S
C494 C493 1.399 . S
C494 C495 1.385 . S
C495 H481 0.931 . S
C495 C494 1.385 . S
C495 C496 1.389 . S
C496 C495 1.389 . S
C496 C497 1.387 . S
C497 H482 0.930 . S
C497 C492 1.390 . S
C497 C496 1.387 . S
H498 C510 0.930 . S
H499 C512 0.930 . S
H500 C513 0.930 . S
H501 C517 0.959 . S
H502 C517 0.959 . S
H503 C517 0.961 . S
H504 C518 0.960 . S
H505 C518 0.961 . S
H506 C518 0.959 . S
H507 C521 0.929 . S
H508 C522 0.931 . S
H509 C524 0.930 . S
C510 H498 0.930 . S
C510 C511 1.399 . S
C510 C515 1.399 . S
C511 C510 1.399 . S
C511 C512 1.376 . S
C512 H499 0.930 . S
C512 C511 1.376 . S
C512 C513 1.388 . S
C513 H500 0.930 . S
C513 C512 1.388 . S
C513 C514 1.390 . S
C514 C513 1.390 . S
C514 C515 1.394 . S
C514 C520 1.465 . S
C515 C510 1.399 . S
C515 C514 1.394 . S
C515 C516 1.516 . S
C516 C515 1.516 . S
C516 C517 1.502 . S
C516 C518 1.561 . S
C516 C519 1.526 . S
C517 H501 0.959 . S
C517 H502 0.959 . S
C517 H503 0.961 . S
C517 C516 1.502 . S
C518 H504 0.960 . S
C518 H505 0.961 . S
C518 H506 0.959 . S
C518 C516 1.561 . S
C519 C516 1.526 . S
C519 C520 1.396 . S
C519 C524 1.390 . S
C520 C514 1.465 . S
C520 C519 1.396 . S
C520 C521 1.399 . S
C521 H507 0.929 . S
C521 C520 1.399 . S
C521 C522 1.385 . S
C522 H508 0.931 . S
C522 C521 1.385 . S
C522 C523 1.389 . S
C523 C522 1.389 . S
C523 C524 1.387 . S
C524 H509 0.930 . S
C524 C519 1.390 . S
C524 C523 1.387 . S
H525 C537 0.930 . S
H526 C539 0.930 . S
H527 C540 0.930 . S
H528 C544 0.959 . S
H529 C544 0.959 . S
H530 C544 0.961 . S
H531 C545 0.960 . S
H532 C545 0.961 . S
H533 C545 0.959 . S
H534 C548 0.929 . S
H535 C549 0.931 . S
H536 C551 0.930 . S
C537 H525 0.930 . S
C537 C538 1.399 . S
C537 C542 1.399 . S
C538 C537 1.399 . S
C538 C539 1.376 . S
C539 H526 0.930 . S
C539 C538 1.376 . S
C539 C540 1.388 . S
C540 H527 0.930 . S
C540 C539 1.388 . S
C540 C541 1.390 . S
C541 C540 1.390 . S
C541 C542 1.394 . S
C541 C547 1.465 . S
C542 C537 1.399 . S
C542 C541 1.394 . S
C542 C543 1.516 . S
C543 C542 1.516 . S
C543 C544 1.502 . S
C543 C545 1.561 . S
C543 C546 1.526 . S
C544 H528 0.959 . S
C544 H529 0.959 . S
C544 H530 0.961 . S
C544 C543 1.502 . S
C545 H531 0.960 . S
C545 H532 0.961 . S
C545 H533 0.959 . S
C545 C543 1.561 . S
C546 C543 1.526 . S
C546 C547 1.396 . S
C546 C551 1.390 . S
C547 C541 1.465 . S
C547 C546 1.396 . S
C547 C548 1.399 . S
C548 H534 0.929 . S
C548 C547 1.399 . S
C548 C549 1.385 . S
C549 H535 0.931 . S
C549 C548 1.385 . S
C549 C550 1.389 . S
C550 C549 1.389 . S
C550 C551 1.387 . S
C551 H536 0.930 . S
C551 C546 1.390 . S
C551 C550 1.387 . S
H552 C564 0.930 . S
H553 C566 0.930 . S
H554 C567 0.930 . S
H555 C571 0.959 . S
H556 C571 0.959 . S
H557 C571 0.961 . S
H558 C572 0.960 . S
H559 C572 0.961 . S
H560 C572 0.959 . S
H561 C575 0.929 . S
H562 C576 0.931 . S
H563 C578 0.930 . S
C564 H552 0.930 . S
C564 C565 1.399 . S
C564 C569 1.399 . S
C565 C564 1.399 . S
C565 C566 1.376 . S
C566 H553 0.930 . S
C566 C565 1.376 . S
C566 C567 1.388 . S
C567 H554 0.930 . S
C567 C566 1.388 . S
C567 C568 1.390 . S
C568 C567 1.390 . S
C568 C569 1.394 . S
C568 C574 1.465 . S
C569 C564 1.399 . S
C569 C568 1.394 . S
C569 C570 1.516 . S
C570 C569 1.516 . S
C570 C571 1.502 . S
C570 C572 1.561 . S
C570 C573 1.526 . S
C571 H555 0.959 . S
C571 H556 0.959 . S
C571 H557 0.961 . S
C571 C570 1.502 . S
C572 H558 0.960 . S
C572 H559 0.961 . S
C572 H560 0.959 . S
C572 C570 1.561 . S
C573 C570 1.526 . S
C573 C574 1.396 . S
C573 C578 1.390 . S
C574 C568 1.465 . S
C574 C573 1.396 . S
C574 C575 1.399 . S
C575 H561 0.929 . S
C575 C574 1.399 . S
C575 C576 1.385 . S
C576 H562 0.931 . S
C576 C575 1.385 . S
C576 C577 1.389 . S
C577 C576 1.389 . S
C577 C578 1.387 . S
C578 H563 0.930 . S
C578 C573 1.390 . S
C578 C577 1.387 . S
H579 C591 0.930 . S
H580 C593 0.930 . S
H581 C594 0.930 . S
H582 C598 0.959 . S
H583 C598 0.959 . S
H584 C598 0.961 . S
H585 C599 0.960 . S
H586 C599 0.961 . S
H587 C599 0.959 . S
H588 C602 0.929 . S
H589 C603 0.931 . S
H590 C605 0.930 . S
C591 H579 0.930 . S
C591 C592 1.399 . S
C591 C596 1.399 . S
C592 C591 1.399 . S
C592 C593 1.376 . S
C593 H580 0.930 . S
C593 C592 1.376 . S
C593 C594 1.388 . S
C594 H581 0.930 . S
C594 C593 1.388 . S
C594 C595 1.390 . S
C595 C594 1.390 . S
C595 C596 1.394 . S
C595 C601 1.465 . S
C596 C591 1.399 . S
C596 C595 1.394 . S
C596 C597 1.516 . S
C597 C596 1.516 . S
C597 C598 1.502 . S
C597 C599 1.561 . S
C597 C600 1.526 . S
C598 H582 0.959 . S
C598 H583 0.959 . S
C598 H584 0.961 . S
C598 C597 1.502 . S
C599 H585 0.960 . S
C599 H586 0.961 . S
C599 H587 0.959 . S
C599 C597 1.561 . S
C600 C597 1.526 . S
C600 C601 1.396 . S
C600 C605 1.390 . S
C601 C595 1.465 . S
C601 C600 1.396 . S
C601 C602 1.399 . S
C602 H588 0.929 . S
C602 C601 1.399 . S
C602 C603 1.385 . S
C603 H589 0.931 . S
C603 C602 1.385 . S
C603 C604 1.389 . S
C604 C603 1.389 . S
C604 C605 1.387 . S
C605 H590 0.930 . S
C605 C600 1.390 . S
C605 C604 1.387 . S
C133 C104 1.454 . S
C145 C12 1.448 . S
C160 C4 1.446 1_554 S
C172 C32 1.448 . S
C187 C24 1.457 . S
C199 C52 1.447 . S
C214 C72 1.454 . S
C226 C44 1.437 . S
C241 C92 1.448 . S
C253 C64 1.445 1_554 S
C268 C84 1.433 1_554 S
C280 C112 1.452 . S
C295 C82 1.641 1_556 S
C307 C9 1.674 . S
C322 C102 1.643 . S
C334 C29 1.693 . S
C349 C49 1.688 . S
C361 C2 1.628 . S
C376 C69 1.638 . S
C388 C22 1.589 1_556 S
C403 C89 1.645 . S
C415 C42 1.569 . S
C430 C62 1.638 1_556 S
C442 C109 1.672 . S
C457 C18 1.499 . S
C469 C19 1.467 . S
C484 C38 1.459 . S
C496 C39 1.510 . S
C511 C58 1.499 . S
C523 C59 1.481 . S
C538 C78 1.503 . S
C550 C79 1.464 . S
C565 C99 1.499 . S
C577 C98 1.481 . S
C592 C118 1.472 . S
C604 C119 1.493 . S
