# Generated by pormake.
# Topology sod-e, (6)-cn, num edge types: 1
# Building blocks:
#     Node 0, Type 0, BuildingBlock: OJICUG_clean_sbu_0, # of connection points: 6
#     Node 1, Type 0, BuildingBlock: OJICUG_clean_sbu_0, # of connection points: 6
#     Node 2, Type 0, BuildingBlock: OJICUG_clean_sbu_0, # of connection points: 6
#     Node 3, Type 0, BuildingBlock: OJICUG_clean_sbu_0, # of connection points: 6
#     Node 4, Type 0, BuildingBlock: OJICUG_clean_sbu_0, # of connection points: 6
#     Node 5, Type 0, BuildingBlock: OJICUG_clean_sbu_0, # of connection points: 6
#     Node 6, Type 0, BuildingBlock: OJICUG_clean_sbu_0, # of connection points: 6
#     Node 7, Type 0, BuildingBlock: OJICUG_clean_sbu_0, # of connection points: 6
#     Node 8, Type 0, BuildingBlock: OJICUG_clean_sbu_0, # of connection points: 6
#     Node 9, Type 0, BuildingBlock: OJICUG_clean_sbu_0, # of connection points: 6
#     Node 10, Type 0, BuildingBlock: OJICUG_clean_sbu_0, # of connection points: 6
#     Node 11, Type 0, BuildingBlock: OJICUG_clean_sbu_0, # of connection points: 6
#     Node 12, Type 0, BuildingBlock: OJICUG_clean_sbu_0, # of connection points: 6
#     Node 13, Type 0, BuildingBlock: OJICUG_clean_sbu_0, # of connection points: 6
#     Node 14, Type 0, BuildingBlock: OJICUG_clean_sbu_0, # of connection points: 6
#     Node 15, Type 0, BuildingBlock: OJICUG_clean_sbu_0, # of connection points: 6
#     Node 16, Type 0, BuildingBlock: OJICUG_clean_sbu_0, # of connection points: 6
#     Node 17, Type 0, BuildingBlock: OJICUG_clean_sbu_0, # of connection points: 6
#     Node 18, Type 0, BuildingBlock: OJICUG_clean_sbu_0, # of connection points: 6
#     Node 19, Type 0, BuildingBlock: OJICUG_clean_sbu_0, # of connection points: 6
#     Node 20, Type 0, BuildingBlock: OJICUG_clean_sbu_0, # of connection points: 6
#     Node 21, Type 0, BuildingBlock: OJICUG_clean_sbu_0, # of connection points: 6
#     Node 22, Type 0, BuildingBlock: OJICUG_clean_sbu_0, # of connection points: 6
#     Node 23, Type 0, BuildingBlock: OJICUG_clean_sbu_0, # of connection points: 6
#     Edge 24, Type (0, 0), BuildingBlock: KIFKEQ_clean_linker_1, # of connection points: 2
#     Edge 25, Type (0, 0), BuildingBlock: KIFKEQ_clean_linker_1, # of connection points: 2
#     Edge 26, Type (0, 0), BuildingBlock: KIFKEQ_clean_linker_1, # of connection points: 2
#     Edge 27, Type (0, 0), BuildingBlock: KIFKEQ_clean_linker_1, # of connection points: 2
#     Edge 28, Type (0, 0), BuildingBlock: KIFKEQ_clean_linker_1, # of connection points: 2
#     Edge 29, Type (0, 0), BuildingBlock: KIFKEQ_clean_linker_1, # of connection points: 2
#     Edge 30, Type (0, 0), BuildingBlock: KIFKEQ_clean_linker_1, # of connection points: 2
#     Edge 31, Type (0, 0), BuildingBlock: KIFKEQ_clean_linker_1, # of connection points: 2
#     Edge 32, Type (0, 0), BuildingBlock: KIFKEQ_clean_linker_1, # of connection points: 2
#     Edge 33, Type (0, 0), BuildingBlock: KIFKEQ_clean_linker_1, # of connection points: 2
#     Edge 34, Type (0, 0), BuildingBlock: KIFKEQ_clean_linker_1, # of connection points: 2
#     Edge 35, Type (0, 0), BuildingBlock: KIFKEQ_clean_linker_1, # of connection points: 2
#     Edge 36, Type (0, 0), BuildingBlock: KIFKEQ_clean_linker_1, # of connection points: 2
#     Edge 37, Type (0, 0), BuildingBlock: KIFKEQ_clean_linker_1, # of connection points: 2
#     Edge 38, Type (0, 0), BuildingBlock: KIFKEQ_clean_linker_1, # of connection points: 2
#     Edge 39, Type (0, 0), BuildingBlock: KIFKEQ_clean_linker_1, # of connection points: 2
#     Edge 40, Type (0, 0), BuildingBlock: KIFKEQ_clean_linker_1, # of connection points: 2
#     Edge 41, Type (0, 0), BuildingBlock: KIFKEQ_clean_linker_1, # of connection points: 2
#     Edge 42, Type (0, 0), BuildingBlock: KIFKEQ_clean_linker_1, # of connection points: 2
#     Edge 43, Type (0, 0), BuildingBlock: KIFKEQ_clean_linker_1, # of connection points: 2
#     Edge 44, Type (0, 0), BuildingBlock: KIFKEQ_clean_linker_1, # of connection points: 2
#     Edge 45, Type (0, 0), BuildingBlock: KIFKEQ_clean_linker_1, # of connection points: 2
#     Edge 46, Type (0, 0), BuildingBlock: KIFKEQ_clean_linker_1, # of connection points: 2
#     Edge 47, Type (0, 0), BuildingBlock: KIFKEQ_clean_linker_1, # of connection points: 2
#     Edge 48, Type (0, 0), BuildingBlock: KIFKEQ_clean_linker_1, # of connection points: 2
#     Edge 49, Type (0, 0), BuildingBlock: KIFKEQ_clean_linker_1, # of connection points: 2
#     Edge 50, Type (0, 0), BuildingBlock: KIFKEQ_clean_linker_1, # of connection points: 2
#     Edge 51, Type (0, 0), BuildingBlock: KIFKEQ_clean_linker_1, # of connection points: 2
#     Edge 52, Type (0, 0), BuildingBlock: KIFKEQ_clean_linker_1, # of connection points: 2
#     Edge 53, Type (0, 0), BuildingBlock: KIFKEQ_clean_linker_1, # of connection points: 2
#     Edge 54, Type (0, 0), BuildingBlock: KIFKEQ_clean_linker_1, # of connection points: 2
#     Edge 55, Type (0, 0), BuildingBlock: KIFKEQ_clean_linker_1, # of connection points: 2
#     Edge 56, Type (0, 0), BuildingBlock: KIFKEQ_clean_linker_1, # of connection points: 2
#     Edge 57, Type (0, 0), BuildingBlock: KIFKEQ_clean_linker_1, # of connection points: 2
#     Edge 58, Type (0, 0), BuildingBlock: KIFKEQ_clean_linker_1, # of connection points: 2
#     Edge 59, Type (0, 0), BuildingBlock: KIFKEQ_clean_linker_1, # of connection points: 2
#     Edge 60, Type (0, 0), BuildingBlock: KIFKEQ_clean_linker_1, # of connection points: 2
#     Edge 61, Type (0, 0), BuildingBlock: KIFKEQ_clean_linker_1, # of connection points: 2
#     Edge 62, Type (0, 0), BuildingBlock: KIFKEQ_clean_linker_1, # of connection points: 2
#     Edge 63, Type (0, 0), BuildingBlock: KIFKEQ_clean_linker_1, # of connection points: 2
#     Edge 64, Type (0, 0), BuildingBlock: KIFKEQ_clean_linker_1, # of connection points: 2
#     Edge 65, Type (0, 0), BuildingBlock: KIFKEQ_clean_linker_1, # of connection points: 2
#     Edge 66, Type (0, 0), BuildingBlock: KIFKEQ_clean_linker_1, # of connection points: 2
#     Edge 67, Type (0, 0), BuildingBlock: KIFKEQ_clean_linker_1, # of connection points: 2
#     Edge 68, Type (0, 0), BuildingBlock: KIFKEQ_clean_linker_1, # of connection points: 2
#     Edge 69, Type (0, 0), BuildingBlock: KIFKEQ_clean_linker_1, # of connection points: 2
#     Edge 70, Type (0, 0), BuildingBlock: KIFKEQ_clean_linker_1, # of connection points: 2
#     Edge 71, Type (0, 0), BuildingBlock: KIFKEQ_clean_linker_1, # of connection points: 2
#     Edge 72, Type (0, 0), BuildingBlock: KIFKEQ_clean_linker_1, # of connection points: 2
#     Edge 73, Type (0, 0), BuildingBlock: KIFKEQ_clean_linker_1, # of connection points: 2
#     Edge 74, Type (0, 0), BuildingBlock: KIFKEQ_clean_linker_1, # of connection points: 2
#     Edge 75, Type (0, 0), BuildingBlock: KIFKEQ_clean_linker_1, # of connection points: 2
#     Edge 76, Type (0, 0), BuildingBlock: KIFKEQ_clean_linker_1, # of connection points: 2
#     Edge 77, Type (0, 0), BuildingBlock: KIFKEQ_clean_linker_1, # of connection points: 2
#     Edge 78, Type (0, 0), BuildingBlock: KIFKEQ_clean_linker_1, # of connection points: 2
#     Edge 79, Type (0, 0), BuildingBlock: KIFKEQ_clean_linker_1, # of connection points: 2
#     Edge 80, Type (0, 0), BuildingBlock: KIFKEQ_clean_linker_1, # of connection points: 2
#     Edge 81, Type (0, 0), BuildingBlock: KIFKEQ_clean_linker_1, # of connection points: 2
#     Edge 82, Type (0, 0), BuildingBlock: KIFKEQ_clean_linker_1, # of connection points: 2
#     Edge 83, Type (0, 0), BuildingBlock: KIFKEQ_clean_linker_1, # of connection points: 2
#     Edge 84, Type (0, 0), BuildingBlock: KIFKEQ_clean_linker_1, # of connection points: 2
#     Edge 85, Type (0, 0), BuildingBlock: KIFKEQ_clean_linker_1, # of connection points: 2
#     Edge 86, Type (0, 0), BuildingBlock: KIFKEQ_clean_linker_1, # of connection points: 2
#     Edge 87, Type (0, 0), BuildingBlock: KIFKEQ_clean_linker_1, # of connection points: 2
#     Edge 88, Type (0, 0), BuildingBlock: KIFKEQ_clean_linker_1, # of connection points: 2
#     Edge 89, Type (0, 0), BuildingBlock: KIFKEQ_clean_linker_1, # of connection points: 2
#     Edge 90, Type (0, 0), BuildingBlock: KIFKEQ_clean_linker_1, # of connection points: 2
#     Edge 91, Type (0, 0), BuildingBlock: KIFKEQ_clean_linker_1, # of connection points: 2
#     Edge 92, Type (0, 0), BuildingBlock: KIFKEQ_clean_linker_1, # of connection points: 2
#     Edge 93, Type (0, 0), BuildingBlock: KIFKEQ_clean_linker_1, # of connection points: 2
#     Edge 94, Type (0, 0), BuildingBlock: KIFKEQ_clean_linker_1, # of connection points: 2
#     Edge 95, Type (0, 0), BuildingBlock: KIFKEQ_clean_linker_1, # of connection points: 2
# Relax obj value: 0.275
# Max RMSD: 0.220
# Mean RMSD: 0.220
data_MOF--net-sod-e--node1-OJICUG_clean_sbu_0--edge1-KIFKEQ_clean_linker_1
_symmetry_space_group_name_H-M    P1
_symmetry_Int_Tables_number       1
_symmetry_cell_setting            triclinic
loop_
_symmetry_equiv_pos_as_xyz
'x, y, z'
_cell_length_a     52.286792
_cell_length_b     52.460578
_cell_length_c     52.292738
_cell_angle_alpha  89.996928
_cell_angle_beta   89.92234
_cell_angle_gamma 90.063587
loop_
_atom_site_label
_atom_site_type_symbol
_atom_site_fract_x
_atom_site_fract_y
_atom_site_fract_z
_atom_type_partial_charge
Sc0 Sc 0.96749 0.32357 0.32629 0.0
Sc1 Sc 0.98123 0.36641 0.37622 0.0
Sc2 Sc 0.91775 0.35341 0.36103 0.0
O3 O 0.95552 0.34752 0.35454 0.0
C4 C 0.92135 0.35435 0.30053 0.0
C5 C 0.00873 0.36802 0.32187 0.0
C6 C 0.94023 0.40909 0.36929 0.0
C7 C 0.00652 0.31186 0.37211 0.0
C8 C 0.91801 0.2946 0.34549 0.0
C9 C 0.93788 0.35198 0.41723 0.0
O10 O 0.94053 0.3394 0.29922 0.0
O11 O 0.00605 0.37494 0.34492 0.0
O12 O 0.92177 0.39344 0.36834 0.0
O13 O -0.00401 0.30606 0.35087 0.0
O14 O 0.90802 0.31475 0.35425 0.0
O15 O 0.9594 0.36111 0.41059 0.0
O16 O 0.94062 0.29389 0.33651 0.0
O17 O 0.00176 0.33233 0.38415 0.0
O18 O 0.92083 0.34511 0.40136 0.0
O19 O -0.00449 0.35028 0.3119 0.0
O20 O 0.91187 0.36207 0.32156 0.0
O21 O 0.96342 0.40219 0.36969 0.0
Sc22 Sc 0.71134 0.96017 0.31503 0.0
Sc23 Sc 0.65812 0.94029 0.35049 0.0
Sc24 Sc 0.67714 0.00326 0.35258 0.0
O25 O 0.68187 0.96796 0.33874 0.0
C26 C 0.73583 -0.00471 0.35806 0.0
C27 C 0.71199 0.91411 0.35414 0.0
C28 C 0.66304 0.97011 0.40139 0.0
C29 C 0.66501 0.92606 0.29284 0.0
C30 C 0.69589 0.01414 0.29527 0.0
C31 C 0.62124 0.9886 0.34206 0.0
O32 O 0.738 0.98456 0.33625 0.0
O33 O 0.68778 0.91211 0.35419 0.0
O34 O 0.66362 0.9912 0.38952 0.0
O35 O 0.68822 0.9338 0.29182 0.0
O36 O 0.69021 0.02092 0.31789 0.0
O37 O 0.62565 0.96559 0.34852 0.0
O38 O 0.70087 0.99107 0.28935 0.0
O39 O 0.65074 0.92959 0.31214 0.0
O40 O 0.6388 0.00507 0.33888 0.0
O41 O 0.72367 0.93075 0.34083 0.0
O42 O 0.71457 0.00176 0.36767 0.0
O43 O 0.6643 0.94883 0.39001 0.0
Sc44 Sc 0.93514 0.67812 0.32541 0.0
Sc45 Sc 0.89333 0.64863 0.37049 0.0
Sc46 Sc 0.9597 0.64289 0.37672 0.0
O47 O 0.92935 0.65655 0.35741 0.0
C48 C 0.97851 0.63495 0.31962 0.0
C49 C 0.88746 0.64271 0.31016 0.0
C50 C 0.92067 0.59646 0.38126 0.0
C51 C 0.88877 0.70656 0.35368 0.0
C52 C 0.9804 0.69779 0.36048 0.0
C53 C 0.92358 0.66017 0.42205 0.0
O54 O 0.96459 0.65267 0.3103 0.0
O55 O 0.87996 0.63925 0.33299 0.0
O56 O 0.94271 0.60639 0.38289 0.0
O57 O 0.90737 0.7064 0.3379 0.0
O58 O 0.98054 0.67735 0.37333 0.0
O59 O 0.90267 0.65655 0.41017 0.0
O60 O 0.96448 0.70191 0.34258 0.0
O61 O 0.88195 0.68719 0.36646 0.0
O62 O 0.94537 0.65686 0.41201 0.0
O63 O 0.90699 0.65615 0.3045 0.0
O64 O 0.97744 0.62834 0.34296 0.0
O65 O 0.90079 0.60898 0.37562 0.0
Sc66 Sc 0.39003 0.98821 0.3669 0.0
Sc67 Sc 0.38688 0.054 0.36214 0.0
Sc68 Sc 0.36218 0.01586 0.31363 0.0
O69 O 0.37919 0.01922 0.34773 0.0
C70 C 0.40293 0.97012 0.3119 0.0
C71 C 0.43765 0.02575 0.37228 0.0
C72 C 0.39989 0.0612 0.30453 0.0
C73 C 0.37326 0.022 0.41208 0.0
C74 C 0.33554 0.9718 0.34378 0.0
C75 C 0.33277 0.06215 0.34129 0.0
O76 O 0.41002 0.97292 0.33489 0.0
O77 O 0.42651 0.04519 0.36314 0.0
O78 O 0.39239 0.03922 0.29755 0.0
O79 O 0.37058 0.00113 0.40019 0.0
O80 O 0.33289 0.99102 0.32906 0.0
O81 O 0.34773 0.06359 0.36033 0.0
O82 O 0.35587 0.96753 0.35649 0.0
O83 O 0.38222 0.04194 0.40152 0.0
O84 O 0.33701 0.04823 0.32167 0.0
O85 O 0.4257 0.00557 0.37883 0.0
O86 O 0.38444 0.98268 0.30224 0.0
O87 O 0.39256 0.07136 0.32524 0.0
Sc88 Sc 0.04442 0.61009 0.61808 0.0
Sc89 Sc 0.99052 0.62964 0.65282 0.0
Sc90 Sc 0.05059 0.65775 0.66549 0.0
O91 O 0.02853 0.63263 0.64537 0.0
C92 C 0.08478 0.607 0.66366 0.0
C93 C 0.00373 0.57186 0.64226 0.0
C94 C 0.01423 0.63327 0.70824 0.0
C95 C 0.99234 0.62894 0.59216 0.0
C96 C 0.07467 0.66256 0.60949 0.0
C97 C -0.00072 0.6894 0.6581 0.0
O98 O 0.07401 0.59754 0.64399 0.0
O99 O 0.98982 0.58919 0.6516 0.0
O100 O 0.03429 0.64556 0.70192 0.0
O101 O 0.01531 0.62084 0.59068 0.0
O102 O 0.06989 0.67189 0.63147 0.0
O103 O 0.98581 0.66952 0.65571 0.0
O104 O 0.0673 0.64048 0.60284 0.0
O105 O 0.98084 0.63259 0.61325 0.0
O106 O 0.02348 0.68887 0.66077 0.0
O107 O 0.02385 0.57652 0.62953 0.0
O108 O 0.07933 0.62904 0.67231 0.0
O109 O -0.00282 0.62634 0.69256 0.0
Sc110 Sc 0.3515 0.94192 0.63536 0.0
Sc111 Sc 0.35096 0.00529 0.65499 0.0
Sc112 Sc 0.29726 0.9671 0.66553 0.0
O113 O 0.33331 0.97131 0.65213 0.0
C114 C 0.29631 0.93318 0.61455 0.0
C115 C 0.3664 0.989 0.59952 0.0
C116 C 0.29413 0.02042 0.63906 0.0
C117 C 0.39728 0.96649 0.66483 0.0
C118 C 0.32181 0.91564 0.68233 0.0
C119 C 0.32275 0.00408 0.70703 0.0
O120 O 0.32017 0.93446 0.61066 0.0
O121 O 0.35913 0.00603 0.61511 0.0
O122 O 0.28463 -0.00159 0.64272 0.0
O123 O 0.38512 0.94659 0.65827 0.0
O124 O 0.30825 0.93484 0.68851 0.0
O125 O 0.34365 0.00666 0.69501 0.0
O126 O 0.3367 0.9153 0.66302 0.0
O127 O 0.38775 0.98871 0.66315 0.0
O128 O 0.30334 -0.00732 0.69779 0.0
O129 O 0.36722 0.96542 0.60526 0.0
O130 O 0.2857 0.94195 0.63464 0.0
O131 O 0.31663 0.02646 0.6461 0.0
Sc132 Sc 0.97435 0.28832 0.67917 0.0
Sc133 Sc -0.00222 0.34118 0.64672 0.0
Sc134 Sc 0.93418 0.33814 0.66318 0.0
O135 O 0.96926 0.32265 0.66319 0.0
C136 C 0.92247 0.28319 0.65206 0.0
C137 C 0.01331 0.28564 0.63185 0.0
C138 C 0.95085 0.3445 0.60693 0.0
C139 C 0.02217 0.31955 0.69869 0.0
C140 C 0.93962 0.31984 0.71812 0.0
C141 C 0.9679 0.38764 0.66682 0.0
O142 O 0.94491 0.27396 0.65329 0.0
O143 O 0.01057 0.30887 0.62593 0.0
O144 O 0.93359 0.33655 0.62225 0.0
O145 O 0.00462 0.30316 0.70328 0.0
O146 O 0.93628 0.33892 0.7035 0.0
O147 O 0.98858 0.37522 0.66674 0.0
O148 O 0.94784 0.29817 0.71036 0.0
O149 O 0.02312 0.33261 0.67811 0.0
O150 O 0.94665 0.37737 0.66133 0.0
O151 O 0.00251 0.27562 0.65127 0.0
O152 O 0.91646 0.30154 0.66638 0.0
O153 O 0.97351 0.35044 0.61418 0.0
Sc154 Sc 0.62635 0.01665 0.63567 0.0
Sc155 Sc 0.64144 0.95351 0.64559 0.0
Sc156 Sc 0.66033 -0.00174 0.69011 0.0
O157 O 0.6432 0.99001 0.65682 0.0
C158 C 0.67881 0.04269 0.65382 0.0
C159 C 0.64421 0.98106 0.59209 0.0
C160 C 0.69692 0.95678 0.66205 0.0
C161 C 0.58537 0.97165 0.64074 0.0
C162 C 0.61236 0.03651 0.69067 0.0
C163 C 0.63254 0.94809 0.70241 0.0
O164 O 0.65828 0.04209 0.64067 0.0
O165 O 0.63877 0.96148 0.60523 0.0
O166 O 0.69072 0.96996 0.68185 0.0
O167 O 0.59276 -0.00742 0.63049 0.0
O168 O 0.63193 0.02668 0.70138 0.0
O169 O 0.64516 0.93945 0.6838 0.0
O170 O 0.60704 0.03308 0.66733 0.0
O171 O 0.60083 0.955 0.64933 0.0
O172 O 0.63517 0.97122 0.70891 0.0
O173 O 0.64456 0.0032 0.60168 0.0
O174 O 0.68384 0.02686 0.67168 0.0
O175 O 0.68181 0.95313 0.64332 0.0
Sc176 Sc 0.36588 0.3715 0.01329 0.0
Sc177 Sc 0.38426 0.36882 0.07752 0.0
Sc178 Sc 0.33658 0.32691 0.05402 0.0
O179 O 0.36215 0.35568 0.04832 0.0
C180 C 0.30599 0.36265 0.01476 0.0
C181 C 0.37339 0.42029 0.04729 0.0
C182 C 0.3287 0.36464 0.10206 0.0
C183 C 0.42355 0.366 0.03181 0.0
C184 C 0.36092 0.31232 0.00011 0.0
C185 C 0.38221 0.30979 0.091 0.0
O186 O 0.32591 0.37429 0.00748 0.0
O187 O 0.38213 0.40808 0.06624 0.0
O188 O 0.3213 0.34667 0.08726 0.0
O189 O 0.40653 0.37062 0.01521 0.0
O190 O 0.35001 0.3059 0.02097 0.0
O191 O 0.39054 0.33223 0.09366 0.0
O192 O 0.36721 0.33513 -0.00503 0.0
O193 O 0.41882 0.36316 0.05553 0.0
O194 O 0.36331 0.30442 0.07666 0.0
O195 O 0.36491 0.40944 0.02742 0.0
O196 O 0.30647 0.34462 0.0311 0.0
O197 O 0.35086 0.37472 0.10079 0.0
Sc198 Sc 0.29871 0.67178 0.00523 0.0
Sc199 Sc 0.34189 0.63224 0.97546 0.0
Sc200 Sc 0.35831 0.66136 0.03186 0.0
O201 O 0.33293 0.65455 0.00489 0.0
C202 C 0.33369 0.71411 0.03091 0.0
C203 C 0.31735 0.67788 0.95053 0.0
C204 C 0.39135 0.66425 0.97988 0.0
C205 C 0.28743 0.61604 0.98201 0.0
C206 C 0.30431 0.65303 0.06103 0.0
C207 C 0.37104 0.60509 0.02114 0.0
O208 O 0.31147 0.70495 0.0272 0.0
O209 O 0.31679 0.6538 0.95113 0.0
O210 O 0.38947 0.6644 0.00429 0.0
O211 O 0.28094 0.63947 0.98469 0.0
O212 O 0.32829 0.65833 0.06105 0.0
O213 O 0.36693 0.60799 -0.00266 0.0
O214 O 0.29036 0.65392 0.04099 0.0
O215 O 0.31031 0.60876 0.98549 0.0
O216 O 0.36513 0.62176 0.03764 0.0
O217 O 0.31021 0.69042 0.97011 0.0
O218 O 0.35371 0.70128 0.02701 0.0
O219 O 0.37375 0.65582 0.96536 0.0
Sc220 Sc 0.67905 0.31117 0.92155 0.0
Sc221 Sc 0.64619 0.35715 0.95563 0.0
Sc222 Sc 0.62568 0.34221 0.8942 0.0
O223 O 0.65011 0.33667 0.92356 0.0
C224 C 0.68133 0.34078 0.86831 0.0
C225 C 0.70435 0.35809 0.95202 0.0
C226 C 0.62845 0.39838 0.9145 0.0
C227 C 0.66109 0.30248 0.97755 0.0
C228 C 0.63504 0.28295 0.88975 0.0
C229 C 0.58999 0.33977 0.94415 0.0
O230 O 0.69248 0.3295 0.8869 0.0
O231 O 0.68399 0.37107 0.95195 0.0
O232 O 0.6269 0.38296 0.896 0.0
O233 O 0.66616 0.29244 0.95597 0.0
O234 O 0.62123 0.3026 0.88766 0.0
O235 O 0.60812 0.3441 0.95969 0.0
O236 O 0.65695 0.28308 0.90028 0.0
O237 O 0.65796 0.32634 0.98028 0.0
O238 O 0.59267 0.3404 0.91982 0.0
O239 O 0.70505 0.335 0.9443 0.0
O240 O 0.65723 0.34465 0.8676 0.0
O241 O 0.63358 0.39122 0.93704 0.0
Sc242 Sc 0.62086 0.62132 0.95979 0.0
Sc243 Sc 0.62152 0.64279 0.89616 0.0
Sc244 Sc 0.66749 0.66519 0.94042 0.0
O245 O 0.63673 0.64304 0.93196 0.0
C246 C 0.63405 0.6724 0.99007 0.0
C247 C 0.57245 0.64625 0.93253 0.0
C248 C 0.63873 0.70073 0.90078 0.0
C249 C 0.61313 0.58508 0.91164 0.0
C250 C 0.67857 0.61463 0.97345 0.0
C251 C 0.68185 0.64063 0.88626 0.0
O252 O 0.62507 0.65001 0.98847 0.0
O253 O 0.58297 0.64879 0.91063 0.0
O254 O 0.65505 0.69741 0.9183 0.0
O255 O 0.61385 0.58958 0.9354 0.0
O256 O 0.6843 0.63657 0.9648 0.0
O257 O 0.65868 0.63745 0.87943 0.0
O258 O 0.6567 0.60453 0.97039 0.0
O259 O 0.61663 0.60206 0.89477 0.0
O260 O 0.68825 0.64982 0.90797 0.0
O261 O 0.58398 0.63682 0.95171 0.0
O262 O 0.64831 0.68216 0.9729 0.0
O263 O 0.62488 0.68308 0.89177 0.0
Sc264 Sc 0.46595 0.80052 0.80284 0.0
Sc265 Sc 0.47858 0.85794 0.83305 0.0
Sc266 Sc 0.42448 0.82353 0.84921 0.0
O267 O 0.45635 0.82753 0.82837 0.0
C268 C 0.40807 0.80635 0.79322 0.0
C269 C 0.48649 0.85104 0.77546 0.0
C270 C 0.42172 0.88079 0.8352 0.0
C271 C 0.51804 0.81138 0.82879 0.0
C272 C 0.44255 0.7682 0.84841 0.0
C273 C 0.46258 0.84837 0.88972 0.0
O274 O 0.4305 0.80695 0.78368 0.0
O275 O 0.47841 0.86551 0.79302 0.0
O276 O 0.40983 0.85987 0.8379 0.0
O277 O 0.50154 0.79481 0.82193 0.0
O278 O 0.43836 0.78767 0.86207 0.0
O279 O 0.48012 0.85301 0.8736 0.0
O280 O 0.44828 0.76985 0.82481 0.0
O281 O 0.51314 0.83515 0.83072 0.0
O282 O 0.44061 0.84015 0.88337 0.0
O283 O 0.48559 0.82688 0.77735 0.0
O284 O 0.40397 0.80666 0.81728 0.0
O285 O 0.44599 0.88285 0.83563 0.0
Sc286 Sc 0.16237 0.4544 0.84281 0.0
Sc287 Sc 0.11536 0.43905 0.888 0.0
Sc288 Sc 0.12417 0.50184 0.8682 0.0
O289 O 0.13347 0.46465 0.86598 0.0
C290 C 0.18285 0.50516 0.86511 0.0
C291 C 0.1718 0.41735 0.89057 0.0
C292 C 0.12963 0.48578 0.92539 0.0
C293 C 0.12057 0.41135 0.83337 0.0
C294 C 0.13 0.4962 0.81031 0.0
C295 C 0.07002 0.47644 0.88011 0.0
O296 O 0.1868 0.48155 0.86186 0.0
O297 O 0.14974 0.42085 0.89986 0.0
O298 O 0.13419 0.50178 0.90766 0.0
O299 O 0.13887 0.42538 0.82521 0.0
O300 O 0.1149 0.50172 0.82861 0.0
O301 O 0.0782 0.45377 0.87945 0.0
O302 O 0.14959 0.48176 0.81334 0.0
O303 O 0.11088 0.41347 0.85574 0.0
O304 O 0.08474 0.49558 0.87842 0.0
O305 O 0.17875 0.42698 0.86932 0.0
O306 O 0.16191 0.51526 0.85859 0.0
O307 O 0.11988 0.4637 0.92135 0.0
Sc308 Sc 0.4433 0.15007 0.83085 0.0
Sc309 Sc 0.41497 0.11386 0.88059 0.0
Sc310 Sc 0.47677 0.09939 0.8594 0.0
O311 O 0.44507 0.12129 0.85699 0.0
C312 C 0.47534 0.10825 0.79974 0.0
C313 C 0.38852 0.12358 0.82645 0.0
C314 C 0.4323 0.05831 0.86444 0.0
C315 C 0.41288 0.17382 0.8787 0.0
C316 C 0.49963 0.15578 0.85325 0.0
C317 C 0.46199 0.10547 0.91793 0.0
O318 O 0.46318 0.12924 0.80064 0.0
O319 O 0.38848 0.11635 0.84964 0.0
O320 O 0.45506 0.06474 0.85894 0.0
O321 O 0.42406 0.17598 0.85716 0.0
O322 O 0.50147 0.1323 0.85917 0.0
O323 O 0.43861 0.11078 0.91415 0.0
O324 O 0.47942 0.16552 0.84369 0.0
O325 O 0.40954 0.1527 0.88985 0.0
O326 O 0.47753 0.10071 0.89999 0.0
O327 O 0.40726 0.13547 0.81624 0.0
O328 O 0.48011 0.09507 0.81936 0.0
O329 O 0.416 0.07378 0.87339 0.0
Sc330 Sc 0.83739 0.47863 0.85878 0.0
Sc331 Sc 0.85722 0.54056 0.84986 0.0
Sc332 Sc 0.84877 0.50079 0.79781 0.0
O333 O 0.84792 0.5065 0.83548 0.0
C334 C 0.87154 0.45001 0.81707 0.0
C335 C 0.88334 0.5023 0.88776 0.0
C336 C 0.89812 0.53607 0.80838 0.0
C337 C 0.8115 0.52792 0.88414 0.0
C338 C 0.79971 0.46847 0.81532 0.0
C339 C 0.82364 0.55401 0.8027 0.0
O340 O 0.85553 0.44972 0.83549 0.0
O341 O 0.87431 0.5245 0.88393 0.0
O342 O 0.88189 0.52636 0.79282 0.0
O343 O 0.81839 0.50462 0.88446 0.0
O344 O 0.81675 0.47377 0.79863 0.0
O345 O 0.8422 0.56044 0.81698 0.0
O346 O 0.80215 0.47418 0.83877 0.0
O347 O 0.821 0.54404 0.86869 0.0
O348 O 0.82145 0.53142 0.79408 0.0
O349 O 0.87294 0.48243 0.87855 0.0
O350 O 0.87476 0.46938 0.80264 0.0
O351 O 0.89356 0.53831 0.83208 0.0
Sc352 Sc 0.5922 0.12878 0.12508 0.0
Sc353 Sc 0.53048 0.12622 0.1506 0.0
Sc354 Sc 0.57238 0.17443 0.1713 0.0
O355 O 0.56501 0.14339 0.14888 0.0
C356 C 0.62266 0.1397 0.17675 0.0
C357 C 0.56744 0.07867 0.14812 0.0
C358 C 0.53782 0.14069 0.20873 0.0
C359 C 0.54246 0.12339 0.09104 0.0
C360 C 0.60332 0.18793 0.11979 0.0
C361 C 0.5158 0.18535 0.15061 0.0
O362 O 0.62002 0.12943 0.15491 0.0
O363 O 0.54682 0.08931 0.155 0.0
O364 O 0.55299 0.15934 0.20521 0.0
O365 O 0.5665 0.1265 0.09293 0.0
O366 O 0.59279 0.19444 0.1408 0.0
O367 O 0.51099 0.16183 0.14727 0.0
O368 O 0.60378 0.16517 0.11184 0.0
O369 O 0.52774 0.12237 0.11025 0.0
O370 O 0.5374 0.19348 0.15874 0.0
O371 O 0.58485 0.09005 0.13572 0.0
O372 O 0.60717 0.15639 0.18558 0.0
O373 O 0.52894 0.12738 0.19075 0.0
Sc374 Sc 0.85745 0.47069 0.09519 0.0
Sc375 Sc 0.84604 0.53307 0.11506 0.0
Sc376 Sc 0.80546 0.48444 0.13544 0.0
O377 O 0.83657 0.49572 0.11542 0.0
C378 C 0.80275 0.44609 0.08799 0.0
C379 C 0.84565 0.51743 0.05722 0.0
C380 C 0.78653 0.53474 0.1107 0.0
C381 C 0.90141 0.50874 0.11071 0.0
C382 C 0.84782 0.44302 0.14883 0.0
C383 C 0.83359 0.52524 0.17193 0.0
O384 O 0.82561 0.45009 0.0814 0.0
O385 O 0.84202 0.53381 0.07474 0.0
O386 O 0.78239 0.51133 0.11502 0.0
O387 O 0.89315 0.48658 0.1062 0.0
O388 O 0.82784 0.45582 0.15455 0.0
O389 O 0.84972 0.53229 0.15524 0.0
O390 O 0.86042 0.44593 0.12807 0.0
O391 O 0.88678 0.52786 0.11244 0.0
O392 O 0.8142 0.51122 0.16677 0.0
O393 O 0.85368 0.49475 0.06146 0.0
O394 O 0.79244 0.45682 0.10721 0.0
O395 O 0.80692 0.54566 0.11794 0.0
Sc396 Sc 0.50759 0.80572 0.15777 0.0
Sc397 Sc 0.54387 0.84341 0.11602 0.0
Sc398 Sc 0.48328 0.86294 0.13407 0.0
O399 O 0.51147 0.83721 0.13586 0.0
C400 C 0.45308 0.80992 0.13273 0.0
C401 C 0.53736 0.78529 0.10814 0.0
C402 C 0.5009 0.86208 0.07708 0.0
C403 C 0.56406 0.82313 0.16945 0.0
C404 C 0.48146 0.84893 0.19185 0.0
C405 C 0.53313 0.89776 0.13699 0.0
O406 O 0.47199 0.79572 0.13878 0.0
O407 O 0.54057 0.80721 0.09852 0.0
O408 O 0.48287 0.86165 0.0933 0.0
O409 O 0.54234 0.81572 0.17773 0.0
O410 O 0.48201 0.8657 0.17448 0.0
O411 O 0.54902 0.88007 0.13267 0.0
O412 O 0.4867 0.82553 0.18801 0.0
O413 O 0.56794 0.82869 0.14609 0.0
O414 O 0.50909 0.89482 0.13483 0.0
O415 O 0.52861 0.78173 0.13067 0.0
O416 O 0.45416 0.83412 0.13345 0.0
O417 O 0.52424 0.85901 0.08315 0.0
Sc418 Sc 0.13866 0.55465 0.15665 0.0
Sc419 Sc 0.1392 0.48797 0.15437 0.0
Sc420 Sc 0.16657 0.51927 0.20694 0.0
O421 O 0.14833 0.52069 0.17264 0.0
C422 C 0.19349 0.56682 0.17935 0.0
C423 C 0.15797 0.52197 0.10848 0.0
C424 C 0.19375 0.47382 0.17823 0.0
C425 C 0.09024 0.52225 0.14216 0.0
C426 C 0.1249 0.56312 0.21546 0.0
C427 C 0.12533 0.47395 0.21118 0.0
O428 O 0.17575 0.57003 0.16317 0.0
O429 O 0.15697 0.50061 0.11989 0.0
O430 O 0.19537 0.49283 0.19325 0.0
O431 O 0.10025 0.54315 0.14899 0.0
O432 O 0.13877 0.54497 0.22377 0.0
O433 O 0.12069 0.47312 0.1874 0.0
O434 O 0.12454 0.56979 0.19211 0.0
O435 O 0.10251 0.5014 0.14163 0.0
O436 O 0.14256 0.48825 0.22083 0.0
O437 O 0.15082 0.5428 0.1188 0.0
O438 O 0.1929 0.54984 0.19675 0.0
O439 O 0.1742 0.46936 0.16459 0.0
Sc440 Sc 0.86155 0.88756 0.50579 0.0
Sc441 Sc 0.8943 0.87299 0.56162 0.0
Sc442 Sc 0.84033 0.83782 0.54393 0.0
O443 O 0.86568 0.86612 0.53721 0.0
C444 C 0.8057 0.87895 0.51476 0.0
C445 C 0.88239 0.92915 0.54491 0.0
C446 C 0.84336 0.86763 0.59597 0.0
C447 C 0.92057 0.87512 0.50618 0.0
C448 C 0.85107 0.83057 0.48647 0.0
C449 C 0.89034 0.81442 0.56924 0.0
O450 O 0.82297 0.89581 0.51626 0.0
O451 O 0.88959 0.9131 0.56136 0.0
O452 O 0.82992 0.85642 0.57892 0.0
O453 O 0.89992 0.87983 0.4943 0.0
O454 O 0.85123 0.81991 0.50846 0.0
O455 O 0.90372 0.83394 0.56498 0.0
O456 O 0.85024 0.85469 0.48354 0.0
O457 O 0.92196 0.87378 0.53056 0.0
O458 O 0.86637 0.81377 0.56554 0.0
O459 O 0.87292 0.9228 0.52351 0.0
O460 O 0.80975 0.85637 0.52266 0.0
O461 O 0.86722 0.87265 0.59347 0.0
Sc462 Sc 0.88133 0.13175 0.48829 0.0
Sc463 Sc 0.86449 0.16056 0.54606 0.0
Sc464 Sc 0.8194 0.1565 0.49558 0.0
O465 O 0.85486 0.14947 0.51005 0.0
C466 C 0.85238 0.16381 0.44553 0.0
C467 C 0.91259 0.17719 0.51256 0.0
C468 C 0.83174 0.20751 0.526 0.0
C469 C 0.89502 0.10944 0.54346 0.0
C470 C 0.83226 0.09941 0.47622 0.0
C471 C 0.80753 0.14039 0.5535 0.0
O472 O 0.87003 0.1496 0.45376 0.0
O473 O 0.90052 0.1769 0.53372 0.0
O474 O 0.81902 0.19599 0.50876 0.0
O475 O 0.89732 0.11059 0.51936 0.0
O476 O 0.81698 0.11798 0.48036 0.0
O477 O 0.82961 0.14589 0.56197 0.0
O478 O 0.85623 0.1006 0.48022 0.0
O479 O 0.88177 0.12512 0.55615 0.0
O480 O 0.80122 0.14327 0.53017 0.0
O481 O 0.90726 0.16248 0.49404 0.0
O482 O 0.83326 0.17015 0.45913 0.0
O483 O 0.84807 0.19676 0.54019 0.0
Sc484 Sc 0.17762 0.81053 0.43571 0.0
Sc485 Sc 0.12881 0.84132 0.46768 0.0
Sc486 Sc 0.13426 0.84881 0.40192 0.0
O487 O 0.14712 0.834 0.43523 0.0
C488 C 0.19275 0.85409 0.39504 0.0
C489 C 0.1879 0.84334 0.48385 0.0
C490 C 0.12578 0.89439 0.44103 0.0
C491 C 0.14144 0.78454 0.47776 0.0
C492 C 0.14402 0.79271 0.39043 0.0
C493 C 0.08298 0.83392 0.42778 0.0
O494 O 0.19672 0.83235 0.40541 0.0
O495 O 0.16405 0.84402 0.48888 0.0
O496 O 0.12272 0.88462 0.41895 0.0
O497 O 0.16318 0.7864 0.46683 0.0
O498 O 0.14596 0.81509 0.38156 0.0
O499 O 0.09209 0.83903 0.44972 0.0
O500 O 0.15661 0.78617 0.41013 0.0
O501 O 0.12469 0.80189 0.47649 0.0
O502 O 0.09624 0.83386 0.40738 0.0
O503 O 0.19693 0.83436 0.46306 0.0
O504 O 0.17101 0.86485 0.39499 0.0
O505 O 0.13137 0.88129 0.46066 0.0
Sc506 Sc 0.12681 0.12602 0.5071 0.0
Sc507 Sc 0.12886 0.1382 0.44235 0.0
Sc508 Sc 0.17208 0.1684 0.48264 0.0
O509 O 0.14339 0.14364 0.47751 0.0
C510 C 0.13484 0.18078 0.52963 0.0
C511 C 0.08127 0.14799 0.47583 0.0
C512 C 0.14173 0.19594 0.43954 0.0
C513 C 0.1224 0.08335 0.46749 0.0
C514 C 0.18582 0.12643 0.52318 0.0
C515 C 0.1865 0.13546 0.43196 0.0
O516 O 0.12164 0.16068 0.52715 0.0
O517 O 0.09369 0.15421 0.45588 0.0
O518 O 0.15153 0.19709 0.46164 0.0
O519 O 0.13097 0.08998 0.48913 0.0
O520 O 0.19356 0.14189 0.50602 0.0
O521 O 0.16481 0.12463 0.42955 0.0
O522 O 0.16249 0.12024 0.52604 0.0
O523 O 0.11684 0.09936 0.45011 0.0
O524 O 0.19108 0.153 0.4485 0.0
O525 O 0.08916 0.13087 0.49113 0.0
O526 O 0.1547 0.18571 0.51632 0.0
O527 O 0.13911 0.17505 0.42781 0.0
H528 H 0.92006 0.31237 0.44668 0.0
H529 H 0.94349 0.3912 0.44942 0.0
H530 H 0.91911 0.31114 0.49373 0.0
H531 H 0.9416 0.39043 0.49586 0.0
H532 H 0.9092 0.32523 0.5812 0.0
H533 H 0.90078 0.32759 0.53516 0.0
H534 H 0.97109 0.36973 0.52474 0.0
H535 H 0.97921 0.3679 0.5702 0.0
C536 C 0.92428 0.32954 0.45738 0.0
C537 C 0.93229 0.35174 0.44472 0.0
C538 C 0.92369 0.3289 0.4842 0.0
C539 C 0.93086 0.35056 0.49843 0.0
C540 C 0.93668 0.37326 0.48545 0.0
C541 C 0.93767 0.37376 0.4589 0.0
C542 C 0.92266 0.33527 0.56905 0.0
C543 C 0.9448 0.34657 0.5794 0.0
C544 C 0.9179 0.33644 0.54271 0.0
C545 C 0.93509 0.34912 0.5264 0.0
C546 C 0.95715 0.36033 0.53685 0.0
C547 C 0.96192 0.35911 0.56297 0.0
H548 H 0.64772 0.00984 0.431 0.0
H549 H 0.6737 0.9317 0.43513 0.0
H550 H 0.64473 0.01138 0.47726 0.0
H551 H 0.67138 0.93352 0.48175 0.0
H552 H 0.63429 0.93964 0.56199 0.0
H553 H 0.63995 0.93617 0.51587 0.0
H554 H 0.67212 0.01209 0.51406 0.0
H555 H 0.66575 0.0159 0.55996 0.0
C556 C 0.65297 -0.00697 0.44182 0.0
C557 C 0.66092 0.97064 0.42945 0.0
C558 C 0.65142 -0.00602 0.46835 0.0
C559 C 0.65803 0.97264 0.48315 0.0
C560 C 0.66592 0.95018 0.47081 0.0
C561 C 0.66728 0.94916 0.44416 0.0
C562 C 0.64271 0.95553 0.55175 0.0
C563 C 0.64928 0.97817 0.56453 0.0
C564 C 0.64607 0.95347 0.52537 0.0
C565 C 0.65625 0.97395 0.51133 0.0
C566 C 0.6637 -0.0038 0.52429 0.0
C567 C 0.66014 -0.00166 0.55059 0.0
H568 H 0.94098 0.63679 0.58621 0.0
H569 H 0.01262 0.63709 0.54474 0.0
H570 H 0.91862 0.65059 0.54761 0.0
H571 H 0.99021 0.65078 0.50636 0.0
H572 H 0.95284 0.69422 0.44718 0.0
H573 H 0.96628 0.69012 0.4916 0.0
H574 H 0.90969 0.63122 0.50327 0.0
H575 H 0.89601 0.63562 0.45873 0.0
C576 C 0.95195 0.63976 0.56888 0.0
C577 C 0.97861 0.63581 0.5685 0.0
C578 C 0.93911 0.64768 0.54687 0.0
C579 C 0.95275 0.65215 0.52422 0.0
C580 C 0.97932 0.64801 0.52378 0.0
C581 C 0.99211 0.63984 0.54565 0.0
C582 C 0.94249 0.68127 0.45961 0.0
C583 C 0.92362 0.66504 0.44965 0.0
C584 C 0.95036 0.67872 0.48488 0.0
C585 C 0.93953 0.65983 0.5005 0.0
C586 C 0.91841 0.64585 0.49151 0.0
C587 C 0.91043 0.6485 0.46612 0.0
H588 H 0.34577 0.98736 0.43925 0.0
H589 H 0.39154 0.05557 0.44775 0.0
H590 H 0.34571 0.98162 0.48534 0.0
H591 H 0.39158 0.04958 0.49413 0.0
H592 H 0.3624 0.03665 0.57855 0.0
H593 H 0.36288 0.04746 0.53322 0.0
H594 H 0.38154 0.96944 0.51469 0.0
H595 H 0.38082 0.9584 0.55982 0.0
C596 C 0.35555 0.00131 0.45099 0.0
C597 C 0.36902 0.02168 0.43989 0.0
C598 C 0.35567 -0.00209 0.47733 0.0
C599 C 0.36923 0.01478 0.4931 0.0
C600 C 0.38113 0.03623 0.48228 0.0
C601 C 0.38102 0.03968 0.45579 0.0
C602 C 0.36702 0.02186 0.56486 0.0
C603 C 0.37122 -0.00345 0.57278 0.0
C604 C 0.36728 0.02811 0.53894 0.0
C605 C 0.37169 0.00915 0.52058 0.0
C606 C 0.37746 0.98425 0.52854 0.0
C607 C 0.37725 0.978 0.55439 0.0
H608 H 0.47015 0.05954 0.3492 0.0
H609 H 0.46874 0.99007 0.39383 0.0
H610 H 0.51516 0.05252 0.33952 0.0
H611 H 0.51385 0.9836 0.38477 0.0
H612 H 0.57901 0.95913 0.33585 0.0
H613 H 0.53499 0.97128 0.34444 0.0
H614 H 0.55896 0.04905 0.35752 0.0
H615 H 0.60313 0.03702 0.3484 0.0
C616 C 0.47956 0.04312 0.35746 0.0
C617 C 0.46577 0.02501 0.37179 0.0
C618 C 0.50533 0.03914 0.3519 0.0
C619 C 0.51767 0.01716 0.36081 0.0
C620 C 0.50448 0.00029 0.37699 0.0
C621 C 0.47873 0.00414 0.38239 0.0
C622 C 0.57484 0.97891 0.34013 0.0
C623 C 0.59448 -0.00294 0.34184 0.0
C624 C 0.54972 0.9858 0.34528 0.0
C625 C 0.54381 0.01092 0.35239 0.0
C626 C 0.56311 0.02952 0.35225 0.0
C627 C 0.58833 0.02264 0.34693 0.0
H628 H 0.95187 0.56629 0.40923 0.0
H629 H 0.88511 0.56454 0.36054 0.0
H630 H 0.95351 0.51997 0.40864 0.0
H631 H 0.88716 0.51801 0.35948 0.0
H632 H 0.89386 0.43166 0.37809 0.0
H633 H 0.88569 0.47703 0.38479 0.0
H634 H 0.96568 0.49319 0.37151 0.0
H635 H 0.974 0.44823 0.36518 0.0
C636 C 0.93739 0.55594 0.39866 0.0
C637 C 0.91869 0.56884 0.3845 0.0
C638 C 0.93835 0.52952 0.39829 0.0
C639 C 0.92082 0.51564 0.38353 0.0
C640 C 0.90088 0.5284 0.37098 0.0
C641 C 0.89976 0.55493 0.37154 0.0
C642 C 0.90965 0.44495 0.37648 0.0
C643 C 0.93462 0.43641 0.37135 0.0
C644 C 0.90495 0.47082 0.38035 0.0
C645 C 0.92516 0.48836 0.37915 0.0
C646 C 0.9499 0.47989 0.37324 0.0
C647 C 0.95461 0.45417 0.36942 0.0
H648 H 0.42985 0.00402 0.68073 0.0
H649 H 0.42753 0.92398 0.66086 0.0
H650 H 0.47629 0.00328 0.67806 0.0
H651 H 0.47404 0.92349 0.65797 0.0
H652 H 0.56195 0.93292 0.66719 0.0
H653 H 0.51694 0.93008 0.67939 0.0
H654 H 0.50145 -0.00071 0.63745 0.0
H655 H 0.54619 0.00237 0.62541 0.0
C656 C 0.43921 0.98613 0.67638 0.0
C657 C 0.42492 0.96424 0.67035 0.0
C658 C 0.4658 0.98577 0.67471 0.0
C659 C 0.4786 0.96352 0.66706 0.0
C660 C 0.46459 0.94094 0.66372 0.0
C661 C 0.43793 0.94128 0.66538 0.0
C662 C 0.5489 0.94737 0.66029 0.0
C663 C 0.55771 0.96789 0.64527 0.0
C664 C 0.52317 0.94577 0.66742 0.0
C665 C 0.50588 0.96472 0.65976 0.0
C666 C 0.51453 0.98476 0.64416 0.0
C667 C 0.54013 0.98633 0.63698 0.0
H668 H 0.00734 0.41444 0.68731 0.0
H669 H 0.93254 0.42356 0.65326 0.0
H670 H 0.01445 0.46014 0.68419 0.0
H671 H 0.93987 0.46943 0.65003 0.0
H672 H 0.95947 0.55426 0.6638 0.0
H673 H 0.94877 0.51031 0.67459 0.0
H674 H 0.02124 0.48543 0.64374 0.0
H675 H 0.03218 0.52925 0.63312 0.0
C676 C 0.99225 0.42626 0.67954 0.0
C677 C 0.96961 0.41542 0.66999 0.0
C678 C -0.00362 0.45236 0.6777 0.0
C679 C 0.97794 0.46805 0.66634 0.0
C680 C 0.95439 0.45761 0.65881 0.0
C681 C 0.95022 0.4314 0.66065 0.0
C682 C 0.97313 0.53942 0.65927 0.0
C683 C -0.0033 0.54521 0.64757 0.0
C684 C 0.96694 0.51432 0.66545 0.0
C685 C 0.9843 0.49468 0.66023 0.0
C686 C 0.00773 0.50039 0.64837 0.0
C687 C 0.01386 0.52542 0.64204 0.0
H688 H 0.35771 0.45229 0.00965 0.0
H689 H 0.39301 0.45163 0.08454 0.0
H690 H 0.36417 0.49785 0.00703 0.0
H691 H 0.39939 0.49784 0.08168 0.0
H692 H 0.36402 0.58313 0.06792 0.0
H693 H 0.36925 0.53793 0.07781 0.0
H694 H 0.40431 0.52599 0.00396 0.0
H695 H 0.39878 0.57093 0.99383 0.0
C696 C 0.3668 0.46183 0.02561 0.0
C697 C 0.37507 0.44828 0.04721 0.0
C698 C 0.37073 0.4879 0.02396 0.0
C699 C 0.38289 0.50104 0.04387 0.0
C700 C 0.39027 0.48788 0.06599 0.0
C701 C 0.3865 0.46157 0.06761 0.0
C702 C 0.3736 0.571 0.05416 0.0
C703 C 0.38032 0.58021 0.02982 0.0
C704 C 0.37666 0.54522 0.05988 0.0
C705 C 0.38659 0.52864 0.04135 0.0
C706 C 0.39611 0.53849 0.01829 0.0
C707 C 0.3929 0.56411 0.0125 0.0
H708 H 0.45754 0.32945 0.04637 0.0
H709 H 0.44679 0.39217 -0.00596 0.0
H710 H 0.49651 0.31727 0.02347 0.0
H711 H 0.48598 0.38082 0.97181 0.0
H712 H 0.57945 0.32636 0.99316 0.0
H713 H 0.53905 0.33085 0.01523 0.0
H714 H 0.50197 0.34865 0.94357 0.0
H715 H 0.54302 0.34541 0.92146 0.0
C716 C 0.46397 0.341 0.03043 0.0
C717 C 0.4494 0.36174 0.02194 0.0
C718 C 0.48608 0.33394 0.01717 0.0
C719 C 0.494 0.34775 -0.00454 0.0
C720 C 0.47995 0.36925 0.98788 0.0
C721 C 0.45779 0.37605 0.00088 0.0
C722 C 0.56263 0.33093 0.98198 0.0
C723 C 0.5645 0.33627 0.95566 0.0
C724 C 0.53939 0.33328 -0.00533 0.0
C725 C 0.51745 0.34072 0.98127 0.0
C726 C 0.5188 0.34363 0.95451 0.0
C727 C 0.5422 0.34148 0.94178 0.0
H728 H 0.62241 0.43517 0.95048 0.0
H729 H 0.62342 0.42345 0.86857 0.0
H730 H 0.61415 0.48003 0.94398 0.0
H731 H 0.61485 0.46897 0.86213 0.0
H732 H 0.57858 0.55273 0.93168 0.0
H733 H 0.57824 0.50652 0.92739 0.0
H734 H 0.63874 0.51124 0.87122 0.0
H735 H 0.63847 0.55789 0.87501 0.0
C736 C 0.62078 0.44213 0.93105 0.0
C737 C 0.62353 0.4257 0.91005 0.0
C738 C 0.61579 0.46784 0.92734 0.0
C739 C 0.61342 0.47783 0.90255 0.0
C740 C 0.61645 0.46162 0.88142 0.0
C741 C 0.6213 0.43565 0.88514 0.0
C742 C 0.59124 0.5439 0.91786 0.0
C743 C 0.60884 0.55858 0.90397 0.0
C744 C 0.5911 0.51754 0.91544 0.0
C745 C 0.60891 0.5054 0.89947 0.0
C746 C 0.62484 0.52021 0.88368 0.0
C747 C 0.62473 0.5468 0.88585 0.0
H748 H 0.53733 0.66301 0.89679 0.0
H749 H 0.54718 0.64952 0.97779 0.0
H750 H 0.49287 0.67576 0.90472 0.0
H751 H 0.50343 0.66145 0.98542 0.0
H752 H 0.42969 0.69249 0.00112 0.0
H753 H 0.4736 0.69579 0.98599 0.0
H754 H 0.45326 0.65444 0.9175 0.0
H755 H 0.40908 0.65215 0.93209 0.0
C756 C 0.53013 0.66287 0.91622 0.0
C757 C 0.54579 0.65496 0.93658 0.0
C758 C 0.5047 0.67015 0.92075 0.0
C759 C 0.49463 0.66985 0.94573 0.0
C760 C 0.5106 0.66253 0.96601 0.0
C761 C 0.53574 0.65527 0.96153 0.0
C762 C 0.43446 0.68462 0.98256 0.0
C763 C 0.41615 0.67128 0.96822 0.0
C764 C 0.45963 0.68646 0.9739 0.0
C765 C 0.46711 0.67457 0.95097 0.0
C766 C 0.44821 0.66366 0.93532 0.0
C767 C 0.42288 0.66217 0.94381 0.0
H768 H 0.50855 0.84533 0.91377 0.0
H769 H 0.42865 0.86157 0.92691 0.0
H770 H 0.51724 0.85117 0.95906 0.0
H771 H 0.43745 0.86897 0.972 0.0
H772 H 0.45634 0.84812 0.05447 0.0
H773 H 0.44696 0.84661 0.0091 0.0
H774 H 0.52085 0.88014 0.99268 0.0
H775 H 0.53074 0.88018 0.03822 0.0
C776 C 0.49292 0.85053 0.92636 0.0
C777 C 0.46792 0.8528 0.91696 0.0
C778 C 0.49791 0.85411 0.9523 0.0
C779 C 0.47806 0.86058 0.9693 0.0
C780 C 0.45312 0.86348 0.95963 0.0
C781 C 0.44806 0.85935 0.93378 0.0
C782 C 0.47045 0.85544 0.04117 0.0
C783 C 0.49431 0.86416 0.04981 0.0
C784 C 0.46504 0.8547 0.0151 0.0
C785 C 0.48318 0.86315 -0.00289 0.0
C786 C 0.50665 0.87292 0.00592 0.0
C787 C 0.51227 0.87316 0.032 0.0
H788 H 0.14516 0.55754 0.07245 0.0
H789 H 0.18253 0.48465 0.08181 0.0
H790 H 0.14246 0.55015 0.02651 0.0
H791 H 0.17998 0.47746 0.03591 0.0
H792 H 0.12642 0.45665 0.96869 0.0
H793 H 0.14002 0.46807 0.01166 0.0
H794 H 0.16431 0.54204 0.98462 0.0
H795 H 0.15054 0.53085 0.94157 0.0
C796 C 0.15363 0.54038 0.06463 0.0
C797 C 0.1635 0.5214 0.0808 0.0
C798 C 0.15203 0.53614 0.03831 0.0
C799 C 0.16038 0.51292 0.02784 0.0
C800 C 0.17278 0.49522 0.04364 0.0
C801 C 0.17437 0.49943 0.06989 0.0
C802 C 0.1346 0.47537 0.97184 0.0
C803 C 0.13714 0.49288 0.95169 0.0
C804 C 0.14269 0.4818 -0.0036 0.0
C805 C 0.15344 0.50587 0.00137 0.0
C806 C 0.15602 0.5234 0.9813 0.0
C807 C 0.14805 0.51695 0.95668 0.0
H808 H 0.50706 0.08555 0.93429 0.0
H809 H 0.44063 0.12723 0.96043 0.0
H810 H 0.52639 0.08988 0.97624 0.0
H811 H 0.46034 0.13197 0.00243 0.0
H812 H 0.49284 0.11163 0.08065 0.0
H813 H 0.47294 0.10643 0.0392 0.0
H814 H 0.54481 0.12402 0.00226 0.0
H815 H 0.56515 0.12872 0.04399 0.0
C816 C 0.49655 0.09561 0.94902 0.0
C817 C 0.47235 0.10615 0.94406 0.0
C818 C 0.50774 0.09824 0.97297 0.0
C819 C 0.49501 0.11152 0.99244 0.0
C820 C 0.47051 0.1215 0.98775 0.0
C821 C 0.45922 0.11877 0.96376 0.0
C822 C 0.50451 0.11445 0.06375 0.0
C823 C 0.53066 0.12058 0.06562 0.0
C824 C 0.49299 0.11159 0.03999 0.0
C825 C 0.5073 0.11486 0.01757 0.0
C826 C 0.53341 0.12108 0.01933 0.0
C827 C 0.54502 0.12388 0.04317 0.0
H828 H 0.81944 0.57293 0.90861 0.0
H829 H 0.7753 0.50344 0.91239 0.0
H830 H 0.82003 0.57508 0.95491 0.0
H831 H 0.77521 0.50601 0.95887 0.0
H832 H 0.84006 0.48571 0.01623 0.0
H833 H 0.81852 0.49495 0.97627 0.0
H834 H 0.80589 0.57266 0.00054 0.0
H835 H 0.82803 0.56367 0.04052 0.0
C836 C 0.80835 0.55906 0.91926 0.0
C837 C 0.79846 0.53728 0.90716 0.0
C838 C 0.80878 0.56025 0.9459 0.0
C839 C 0.79885 0.53991 0.9603 0.0
C840 C 0.78385 0.52138 0.94803 0.0
C841 C 0.78368 0.52004 0.92144 0.0
C842 C 0.83299 0.50485 0.01303 0.0
C843 C 0.83598 0.52394 0.03154 0.0
C844 C 0.82007 0.51001 0.99037 0.0
C845 C 0.80985 0.53437 0.98566 0.0
C846 C 0.81326 0.55366 0.00387 0.0
C847 C 0.82619 0.5485 0.0266 0.0
H848 H 0.91927 0.53972 0.89075 0.0
H849 H 0.90706 0.45971 0.90637 0.0
H850 H 0.96497 0.53344 0.89302 0.0
H851 H 0.95309 0.4536 0.91008 0.0
H852 H 0.03026 0.44454 0.86941 0.0
H853 H 0.98517 0.45127 0.87862 0.0
H854 H 0.0033 0.5239 0.91343 0.0
H855 H 0.04819 0.51766 0.90289 0.0
C856 C 0.9263 0.52096 0.8958 0.0
C857 C 0.90956 0.50009 0.89789 0.0
C858 C 0.95266 0.51733 0.89711 0.0
C859 C 0.96281 0.49284 0.90104 0.0
C860 C 0.94593 0.47255 0.90612 0.0
C861 C 0.91953 0.4761 0.90436 0.0
C862 C 0.02453 0.46196 0.87894 0.0
C863 C 0.04263 0.48072 0.8851 0.0
C864 C -0.00127 0.4657 0.88459 0.0
C865 C 0.99053 0.48809 0.89698 0.0
C866 C 0.00882 0.50662 0.90356 0.0
C867 C 0.03455 0.50308 0.89746 0.0
H868 H 0.45845 0.02272 0.83722 0.0
H869 H 0.38654 0.03541 0.87629 0.0
H870 H 0.44427 0.98062 0.82495 0.0
H871 H 0.37225 -0.00721 0.86367 0.0
H872 H 0.41934 0.9123 0.79471 0.0
H873 H 0.4122 0.95815 0.79789 0.0
H874 H 0.38767 0.94873 0.87628 0.0
H875 H 0.3939 0.90277 0.87259 0.0
C876 C 0.43958 0.01656 0.84318 0.0
C877 C 0.42377 0.03232 0.85799 0.0
C878 C 0.43124 -0.00743 0.83571 0.0
C879 C 0.40692 0.98368 0.84292 0.0
C880 C 0.39097 -0.00064 0.85768 0.0
C881 C 0.39927 0.0236 0.86503 0.0
C882 C 0.41097 0.91998 0.81204 0.0
C883 C 0.40734 0.90444 0.8335 0.0
C884 C 0.40705 0.94613 0.81396 0.0
C885 C 0.40022 0.95692 0.83758 0.0
C886 C 0.39302 0.94088 0.85788 0.0
C887 C 0.39656 0.91461 0.8558 0.0
H888 H 0.92936 0.55292 0.10838 0.0
H889 H 0.93607 0.47181 0.12146 0.0
H890 H 0.97557 0.55747 0.11366 0.0
H891 H 0.98173 0.47646 0.12758 0.0
H892 H 0.06516 0.48669 0.11371 0.0
H893 H 0.01971 0.48501 0.10406 0.0
H894 H 0.00812 0.55506 0.14608 0.0
H895 H 0.05381 0.55725 0.15488 0.0
C896 C 0.94067 0.53613 0.11252 0.0
C897 C 0.92915 0.512 0.11434 0.0
C898 C 0.96708 0.53873 0.11562 0.0
C899 C 0.98233 0.51728 0.12082 0.0
C900 C 0.97065 0.49327 0.12295 0.0
C901 C 0.94441 0.49063 0.1196 0.0
C902 C 0.05292 0.5018 0.12075 0.0
C903 C 0.06297 0.52198 0.13521 0.0
C904 C 0.02687 0.50079 0.11532 0.0
C905 C 0.01027 0.51974 0.12457 0.0
C906 C 0.02044 0.54031 0.13845 0.0
C907 C 0.04658 0.54149 0.14361 0.0
H908 H 0.58289 0.91419 0.13841 0.0
H909 H 0.50517 0.93779 0.1543 0.0
H910 H 0.59802 0.95696 0.14912 0.0
H911 H 0.52016 0.98013 0.16443 0.0
H912 H 0.54718 0.05277 0.1882 0.0
H913 H 0.54528 0.00665 0.19323 0.0
H914 H 0.59241 -0.00243 0.12584 0.0
H915 H 0.59504 0.0437 0.12136 0.0
C916 C 0.56909 0.92838 0.14438 0.0
C917 C 0.54278 0.92282 0.145 0.0
C918 C 0.57778 0.95276 0.15057 0.0
C919 C 0.56029 0.97177 0.15765 0.0
C920 C 0.53418 0.96576 0.15948 0.0
C921 C 0.52552 0.94156 0.15325 0.0
C922 C 0.5576 0.04087 0.17483 0.0
C923 C 0.57057 0.05156 0.15392 0.0
C924 C 0.55661 0.01456 0.17778 0.0
C925 C 0.56817 -0.00137 0.15958 0.0
C926 C 0.58336 0.00942 0.1402 0.0
C927 C 0.58467 0.0358 0.13747 0.0
H928 H 0.88682 0.96746 0.51032 0.0
H929 H 0.89005 0.95155 0.59144 0.0
H930 H 0.89881 0.01145 0.51861 0.0
H931 H 0.90199 -0.00401 0.59966 0.0
H932 H 0.93603 0.08081 0.52993 0.0
H933 H 0.93905 0.03505 0.53715 0.0
H934 H 0.87677 0.03927 0.59126 0.0
H935 H 0.87387 0.0851 0.58431 0.0
C936 C 0.88997 0.9734 0.52991 0.0
C937 C 0.88749 0.95615 0.55021 0.0
C938 C 0.89726 -0.00158 0.53462 0.0
C939 C 0.90197 0.00672 0.55972 0.0
C940 C 0.89889 0.98976 0.58016 0.0
C941 C 0.89192 0.96452 0.57541 0.0
C942 C 0.92384 0.07215 0.5443 0.0
C943 C 0.90412 0.08613 0.55589 0.0
C944 C 0.92557 0.04604 0.5484 0.0
C945 C 0.90755 0.0338 0.56404 0.0
C946 C 0.89072 0.0484 0.57894 0.0
C947 C 0.88907 0.07463 0.57495 0.0
H948 H 0.04964 0.86513 0.4039 0.0
H949 H 0.05459 0.79827 0.45156 0.0
H950 H 0.00642 0.87314 0.41973 0.0
H951 H 0.01118 0.80574 0.46698 0.0
H952 H 0.96644 0.85652 0.52292 0.0
H953 H 0.00178 0.84104 0.49701 0.0
H954 H 0.961 0.8614 0.42821 0.0
H955 H 0.92562 0.8773 0.45407 0.0
C956 C 0.04081 0.85128 0.41652 0.0
C957 C 0.05523 0.8312 0.42669 0.0
C958 C 0.01618 0.85597 0.4258 0.0
C959 C 0.00586 0.8405 0.44521 0.0
C960 C 0.01901 0.81834 0.45253 0.0
C961 C 0.04362 0.8138 0.44342 0.0
C962 C 0.96502 0.85793 0.5023 0.0
C963 C 0.94319 0.86823 0.49065 0.0
C964 C 0.98511 0.84867 0.48742 0.0
C965 C 0.98386 0.84951 0.46056 0.0
C966 C 0.96237 0.86036 0.44886 0.0
C967 C 0.9422 0.86956 0.46374 0.0
H968 H 0.14367 0.92331 0.48015 0.0
H969 H 0.10216 0.9282 0.40885 0.0
H970 H 0.14021 0.96899 0.48547 0.0
H971 H 0.09784 0.97421 0.4147 0.0
H972 H 0.12438 0.05873 0.42155 0.0
H973 H 0.12303 0.01273 0.41439 0.0
H974 H 0.10967 0.00083 0.49516 0.0
H975 H 0.1122 0.04651 0.50236 0.0
C976 C 0.13349 0.93413 0.46575 0.0
C977 C 0.12311 0.92216 0.44412 0.0
C978 C 0.13135 0.96034 0.46889 0.0
C979 C 0.11847 0.97521 0.45066 0.0
C980 C 0.10804 0.96328 0.42898 0.0
C981 C 0.11044 0.93696 0.42568 0.0
C982 C 0.12093 0.0462 0.43766 0.0
C983 C 0.11881 0.05603 0.46254 0.0
C984 C 0.12003 0.01991 0.43357 0.0
C985 C 0.11663 0.00313 0.45428 0.0
C986 C 0.11304 0.0132 0.47892 0.0
C987 C 0.11438 0.03936 0.48304 0.0
H988 H 0.04957 0.13871 0.51592 0.0
H989 H 0.06116 0.19033 0.45241 0.0
H990 H 0.01184 0.16191 0.5283 0.0
H991 H 0.023 0.21408 0.46519 0.0
H992 H 0.9333 0.19562 0.46875 0.0
H993 H 0.97864 0.20164 0.4621 0.0
H994 H 0.99076 0.20004 0.54383 0.0
H995 H 0.94511 0.19295 0.55043 0.0
C996 C 0.04414 0.15515 0.50464 0.0
C997 C 0.05794 0.16217 0.48271 0.0
C998 C 0.02274 0.16891 0.51213 0.0
C999 C 0.01449 0.19008 0.49789 0.0
C1000 C 0.0289 0.19784 0.47653 0.0
C1001 C 0.05048 0.18401 0.46901 0.0
C1002 C 0.94551 0.19758 0.48536 0.0
C1003 C 0.93611 0.19234 0.50999 0.0
C1004 C 0.97156 0.20135 0.48157 0.0
C1005 C 0.98837 0.19992 0.50242 0.0
C1006 C 0.9782 0.20019 0.52737 0.0
C1007 C 0.95206 0.1962 0.53117 0.0
H1008 H 0.13332 0.20699 0.38948 0.0
H1009 H 0.11805 0.23356 0.46616 0.0
H1010 H 0.10157 0.2366 0.37277 0.0
H1011 H 0.08561 0.26236 0.44972 0.0
H1012 H 0.03993 0.32362 0.41021 0.0
H1013 H 0.07593 0.29893 0.42521 0.0
H1014 H 0.05578 0.23816 0.37313 0.0
H1015 H 0.02007 0.26348 0.35719 0.0
C1016 C 0.12354 0.2196 0.40267 0.0
C1017 C 0.12812 0.21807 0.42907 0.0
C1018 C 0.1051 0.23625 0.39317 0.0
C1019 C 0.09066 0.25143 0.40996 0.0
C1020 C 0.09648 0.25107 0.43622 0.0
C1021 C 0.1152 0.23467 0.44567 0.0
C1022 C 0.04298 0.30492 0.40198 0.0
C1023 C 0.02702 0.29549 0.38247 0.0
C1024 C 0.0637 0.29075 0.41066 0.0
C1025 C 0.06884 0.26664 0.40032 0.0
C1026 C 0.05265 0.25694 0.38112 0.0
C1027 C 0.03201 0.27129 0.37218 0.0
H1028 H 0.85877 0.06728 0.445 0.0
H1029 H 0.78337 0.08101 0.47608 0.0
H1030 H 0.84108 0.03491 0.41639 0.0
H1031 H 0.76593 0.04826 0.44785 0.0
H1032 H 0.74207 0.97983 0.40638 0.0
H1033 H 0.77036 -0.00082 0.43796 0.0
H1034 H 0.80743 0.04231 0.37813 0.0
H1035 H 0.77878 0.02291 0.34636 0.0
C1036 C 0.83856 0.06288 0.44626 0.0
C1037 C 0.82238 0.07673 0.46274 0.0
C1038 C 0.82851 0.04448 0.42977 0.0
C1039 C 0.80225 0.03918 0.42998 0.0
C1040 C 0.78634 0.05188 0.44753 0.0
C1041 C 0.79626 0.07066 0.46361 0.0
C1042 C 0.75695 -0.00728 0.39988 0.0
C1043 C 0.75826 0.00016 0.37411 0.0
C1044 C 0.773 0.00382 0.41793 0.0
C1045 C 0.79067 0.02247 0.41046 0.0
C1046 C 0.79393 0.02786 0.38427 0.0
C1047 C 0.77769 0.01676 0.3661 0.0
H1048 H 0.91173 0.75315 0.35718 0.0
H1049 H 0.84009 0.71406 0.36986 0.0
H1050 H 0.89821 0.78689 0.38638 0.0
H1051 H 0.82666 0.74769 0.39906 0.0
H1052 H 0.84328 0.77908 0.48168 0.0
H1053 H 0.84741 0.75348 0.44289 0.0
H1054 H 0.86594 0.82107 0.39951 0.0
H1055 H 0.86184 0.84672 0.43809 0.0
C1056 C 0.89262 0.75242 0.36517 0.0
C1057 C 0.87713 0.73083 0.36166 0.0
C1058 C 0.88494 0.77162 0.38205 0.0
C1059 C 0.86171 0.76939 0.39548 0.0
C1060 C 0.8449 0.74948 0.38937 0.0
C1061 C 0.85251 0.7304 0.37249 0.0
C1062 C 0.84801 0.7885 0.46385 0.0
C1063 C 0.85228 0.81488 0.46303 0.0
C1064 C 0.85013 0.77392 0.4416 0.0
C1065 C 0.85681 0.78541 0.4182 0.0
C1066 C 0.86075 0.8118 0.41729 0.0
C1067 C 0.85834 0.82641 0.43943 0.0
H1068 H 0.33963 0.92098 0.352 0.0
H1069 H 0.28397 0.9809 0.34245 0.0
H1070 H 0.30561 0.89057 0.36057 0.0
H1071 H 0.24973 0.9508 0.35247 0.0
H1072 H 0.19077 0.88876 0.35634 0.0
H1073 H 0.22524 0.9156 0.34033 0.0
H1074 H 0.27754 0.87957 0.39319 0.0
H1075 H 0.24325 0.85189 0.40812 0.0
C1076 C 0.32002 0.92763 0.3518 0.0
C1077 C 0.31442 0.95332 0.34673 0.0
C1078 C 0.30049 0.91022 0.35692 0.0
C1079 C 0.27482 0.91816 0.35763 0.0
C1080 C 0.26919 0.94381 0.35179 0.0
C1081 C 0.28879 0.96116 0.34615 0.0
C1082 C 0.20976 0.88636 0.36424 0.0
C1083 C 0.21434 0.86822 0.38348 0.0
C1084 C 0.2295 0.90192 0.35523 0.0
C1085 C 0.25424 0.90007 0.36557 0.0
C1086 C 0.25891 0.88137 0.38438 0.0
C1087 C 0.23923 0.86548 0.39306 0.0
H1088 H 0.09681 0.75862 0.4796 0.0
H1089 H 0.17183 0.76188 0.51375 0.0
H1090 H 0.08352 0.72712 0.51136 0.0
H1091 H 0.15826 0.73057 0.54613 0.0
H1092 H 0.10287 0.70651 0.61639 0.0
H1093 H 0.12245 0.73321 0.58313 0.0
H1094 H 0.0958 0.68104 0.52523 0.0
H1095 H 0.07659 0.6543 0.55806 0.0
C1096 C 0.11058 0.75219 0.49367 0.0
C1097 C 0.13539 0.76245 0.49415 0.0
C1098 C 0.10298 0.73423 0.51185 0.0
C1099 C 0.11983 0.72654 0.53125 0.0
C1100 C 0.1449 0.7363 0.53141 0.0
C1101 C 0.15273 0.75393 0.51277 0.0
C1102 C 0.10143 0.70061 0.5966 0.0
C1103 C 0.08807 0.67828 0.58996 0.0
C1104 C 0.11279 0.71579 0.57761 0.0
C1105 C 0.11061 0.70914 0.55165 0.0
C1106 C 0.09771 0.68662 0.54509 0.0
C1107 C 0.08676 0.6713 0.56398 0.0
H1108 H 0.24363 0.01754 0.62674 0.0
H1109 H 0.3105 0.06537 0.61778 0.0
H1110 H 0.21948 0.04611 0.5995 0.0
H1111 H 0.28593 0.09432 0.59061 0.0
H1112 H 0.23715 0.11623 0.51674 0.0
H1113 H 0.26488 0.09311 0.54676 0.0
H1114 H 0.20284 0.08982 0.60131 0.0
H1115 H 0.17536 0.11217 0.57159 0.0
C1116 C 0.25311 0.03431 0.61922 0.0
C1117 C 0.27897 0.0392 0.62453 0.0
C1118 C 0.23923 0.05075 0.60367 0.0
C1119 C 0.25084 0.07247 0.59303 0.0
C1120 C 0.2766 0.07761 0.59848 0.0
C1121 C 0.29054 0.06117 0.61421 0.0
C1122 C 0.22968 0.11079 0.53528 0.0
C1123 C 0.204 0.11543 0.54162 0.0
C1124 C 0.24549 0.09768 0.55245 0.0
C1125 C 0.23578 0.08931 0.57613 0.0
C1126 C 0.21062 0.09548 0.58295 0.0
C1127 C 0.1949 0.10828 0.56589 0.0
H1128 H 0.80023 0.23021 0.56 0.0
H1129 H 0.85965 0.24562 0.50515 0.0
H1130 H 0.82214 0.25626 0.59136 0.0
H1131 H 0.88175 0.27214 0.53633 0.0
H1132 H 0.9327 0.25628 0.60816 0.0
H1133 H 0.90437 0.25018 0.57159 0.0
H1134 H 0.84462 0.29164 0.61068 0.0
H1135 H 0.87259 0.29716 0.64738 0.0
C1136 C 0.81692 0.24089 0.55392 0.0
C1137 C 0.82904 0.23482 0.53076 0.0
C1138 C 0.82988 0.25546 0.57216 0.0
C1139 C 0.85448 0.26497 0.56675 0.0
C1140 C 0.86335 0.26406 0.54138 0.0
C1141 C 0.85025 0.24949 0.52322 0.0
C1142 C 0.91344 0.26381 0.60905 0.0
C1143 C 0.90483 0.27685 0.63084 0.0
C1144 C 0.89735 0.26085 0.58788 0.0
C1145 C 0.87232 0.27085 0.58805 0.0
C1146 C 0.86376 0.2838 0.60989 0.0
C1147 C 0.87979 0.28676 0.63099 0.0
H1148 H 0.7441 0.96964 0.6824 0.0
H1149 H 0.70425 0.91103 0.64024 0.0
H1150 H 0.78449 0.94609 0.67653 0.0
H1151 H 0.74363 0.88817 0.63417 0.0
H1152 H 0.80918 0.84338 0.62655 0.0
H1153 H 0.77692 0.86386 0.65327 0.0
H1154 H 0.81226 0.93705 0.63918 0.0
H1155 H 0.84543 0.91617 0.6138 0.0
C1156 C 0.74392 0.95163 0.67228 0.0
C1157 C 0.72116 0.94235 0.66144 0.0
C1158 C 0.76695 0.9382 0.66887 0.0
C1159 C 0.76731 0.91511 0.65506 0.0
C1160 C 0.74418 0.90552 0.64539 0.0
C1161 C 0.72153 0.9189 0.64853 0.0
C1162 C 0.81063 0.86367 0.63016 0.0
C1163 C 0.82947 0.87829 0.61797 0.0
C1164 C 0.79211 0.87546 0.64529 0.0
C1165 C 0.79152 0.9022 0.64762 0.0
C1166 C 0.81211 0.91645 0.63778 0.0
C1167 C 0.83109 0.90451 0.62317 0.0
H1168 H 0.54318 0.09553 0.23174 0.0
H1169 H 0.50821 0.16929 0.24069 0.0
H1170 H 0.51065 0.07652 0.25827 0.0
H1171 H 0.47614 0.15074 0.26922 0.0
H1172 H 0.40152 0.10574 0.27777 0.0
H1173 H 0.43967 0.12754 0.26194 0.0
H1174 H 0.4866 0.06669 0.29245 0.0
H1175 H 0.44816 0.04417 0.30571 0.0
C1176 C 0.52937 0.10796 0.24089 0.0
C1177 C 0.5281 0.1338 0.23413 0.0
C1178 C 0.5104 0.09701 0.25607 0.0
C1179 C 0.48995 0.11182 0.26534 0.0
C1180 C 0.49092 0.13847 0.26158 0.0
C1181 C 0.50975 0.14935 0.24587 0.0
C1182 C 0.42006 0.09689 0.28031 0.0
C1183 C 0.42204 0.07298 0.292 0.0
C1184 C 0.44206 0.10961 0.27187 0.0
C1185 C 0.46658 0.09909 0.27589 0.0
C1186 C 0.46827 0.07528 0.28827 0.0
C1187 C 0.44624 0.06223 0.29584 0.0
H1188 H 0.93391 0.34202 0.25096 0.0
H1189 H 0.88207 0.38805 0.29603 0.0
H1190 H 0.91474 0.35891 0.21186 0.0
H1191 H 0.86364 0.40515 0.25735 0.0
H1192 H 0.89656 0.42499 0.15392 0.0
H1193 H 0.91347 0.39962 0.18911 0.0
H1194 H 0.83754 0.39379 0.2214 0.0
H1195 H 0.82081 0.41981 0.18677 0.0
C1196 C 0.91844 0.35563 0.25256 0.0
C1197 C 0.90956 0.36368 0.27664 0.0
C1198 C 0.90753 0.36534 0.23019 0.0
C1199 C 0.88758 0.38322 0.23154 0.0
C1200 C 0.87859 0.39099 0.25562 0.0
C1201 C 0.88938 0.3813 0.27785 0.0
C1202 C 0.88344 0.41794 0.16835 0.0
C1203 C 0.85746 0.42475 0.1679 0.0
C1204 C 0.8931 0.4033 0.18842 0.0
C1205 C 0.87688 0.39505 0.20821 0.0
C1206 C 0.8506 0.40041 0.20674 0.0
C1207 C 0.84102 0.41526 0.18689 0.0
H1208 H 0.61486 0.92198 0.28125 0.0
H1209 H 0.68933 0.89527 0.25744 0.0
H1210 H 0.59457 0.89215 0.25238 0.0
H1211 H 0.66862 0.86496 0.22803 0.0
H1212 H 0.61239 0.84087 0.15918 0.0
H1213 H 0.64011 0.86402 0.18853 0.0
H1214 H 0.58966 0.845 0.25109 0.0
H1215 H 0.56158 0.82226 0.22182 0.0
C1216 C 0.62696 0.90978 0.26969 0.0
C1217 C 0.65374 0.91081 0.27185 0.0
C1218 C 0.61527 0.89247 0.25332 0.0
C1219 C 0.62997 0.87565 0.23854 0.0
C1220 C 0.65683 0.87752 0.23948 0.0
C1221 C 0.66866 0.89498 0.2561 0.0
C1222 C 0.60749 0.841 0.17931 0.0
C1223 C 0.58435 0.83016 0.18801 0.0
C1224 C 0.62349 0.85426 0.19612 0.0
C1225 C 0.61669 0.85689 0.22194 0.0
C1226 C 0.59503 0.84379 0.23111 0.0
C1227 C 0.57903 0.83056 0.21435 0.0
H1228 H 0.01772 0.60506 0.3361 0.0
H1229 H 0.98619 0.6384 0.26744 0.0
H1230 H 0.05372 0.58916 0.31207 0.0
H1231 H 0.022 0.62115 0.24284 0.0
H1232 H 0.10175 0.60955 0.21031 0.0
H1233 H 0.06612 0.62642 0.23511 0.0
H1234 H 0.0675 0.55908 0.28282 0.0
H1235 H 0.10383 0.54294 0.25877 0.0
C1236 C 0.01815 0.60861 0.31569 0.0
C1237 C -0.00112 0.62307 0.30374 0.0
C1238 C 0.03892 0.59931 0.30182 0.0
C1239 C 0.04098 0.60378 0.27542 0.0
C1240 C 0.02139 0.6177 0.26324 0.0
C1241 C 0.00066 0.62738 0.27727 0.0
C1242 C 0.0947 0.59859 0.2264 0.0
C1243 C 0.10579 0.57499 0.23269 0.0
C1244 C 0.074 0.60809 0.24042 0.0
C1245 C 0.0636 0.59407 0.26089 0.0
C1246 C 0.07512 0.5707 0.26748 0.0
C1247 C 0.09606 0.56139 0.2537 0.0
H1248 H 0.35812 0.8155 0.80624 0.0
H1249 H 0.40806 0.80526 0.74106 0.0
H1250 H 0.32597 0.8345 0.77856 0.0
H1251 H 0.37636 0.82463 0.71371 0.0
H1252 H 0.32548 0.86655 0.66686 0.0
H1253 H 0.3358 0.82984 0.69345 0.0
H1254 H 0.32946 0.8771 0.76092 0.0
H1255 H 0.31811 0.91344 0.73429 0.0
C1256 C 0.36195 0.81652 0.7859 0.0
C1257 C 0.38601 0.80969 0.77594 0.0
C1258 C 0.34353 0.82752 0.77009 0.0
C1259 C 0.34886 0.83173 0.74411 0.0
C1260 C 0.37154 0.82174 0.73365 0.0
C1261 C 0.38992 0.81078 0.74942 0.0
C1262 C 0.32556 0.8688 0.68746 0.0
C1263 C 0.32171 0.89284 0.69862 0.0
C1264 C 0.33142 0.84781 0.70266 0.0
C1265 C 0.33408 0.85068 0.72921 0.0
C1266 C 0.32747 0.87415 0.74053 0.0
C1267 C 0.32116 0.89508 0.7253 0.0
H1268 H 0.02211 0.30512 0.74936 0.0
H1269 H 0.06458 0.34944 0.69399 0.0
H1270 H 0.04908 0.32216 0.78344 0.0
H1271 H 0.09047 0.36716 0.7278 0.0
H1272 H 0.14198 0.39086 0.79024 0.0
H1273 H 0.12186 0.36259 0.75925 0.0
H1274 H 0.05283 0.36183 0.80488 0.0
H1275 H 0.07337 0.38908 0.83634 0.0
C1276 C 0.03742 0.31813 0.74437 0.0
C1277 C 0.04096 0.32607 0.71893 0.0
C1278 C 0.05272 0.32814 0.76395 0.0
C1279 C 0.07182 0.34632 0.7585 0.0
C1280 C 0.07623 0.35302 0.73285 0.0
C1281 C 0.06113 0.34296 0.71336 0.0
C1282 C 0.12261 0.3844 0.79378 0.0
C1283 C 0.1092 0.39246 0.81562 0.0
C1284 C 0.11101 0.36824 0.77597 0.0
C1285 C 0.08556 0.36009 0.77932 0.0
C1286 C 0.07254 0.36736 0.80173 0.0
C1287 C 0.08428 0.38321 0.81973 0.0
H1288 H 0.58136 0.07458 0.6739 0.0
H1289 H 0.60038 0.03091 0.74128 0.0
H1290 H 0.54518 0.0937 0.69647 0.0
H1291 H 0.56404 0.04999 0.76377 0.0
H1292 H 0.48126 0.05987 0.7833 0.0
H1293 H 0.51538 0.04468 0.75547 0.0
H1294 H 0.53496 0.12235 0.73645 0.0
H1295 H 0.50071 0.13769 0.76469 0.0
C1296 C 0.57802 0.06938 0.69368 0.0
C1297 C 0.59361 0.05116 0.70585 0.0
C1298 C 0.55734 0.08034 0.70653 0.0
C1299 C 0.55161 0.07297 0.73163 0.0
C1300 C 0.56787 0.05566 0.74422 0.0
C1301 C 0.58881 0.04498 0.7315 0.0
C1302 C 0.49226 0.07369 0.77248 0.0
C1303 C 0.48847 0.09995 0.77623 0.0
C1304 C 0.512 0.06501 0.75688 0.0
C1305 C 0.52824 0.08239 0.74453 0.0
C1306 C 0.5228 0.1086 0.74602 0.0
C1307 C 0.50301 0.11736 0.76187 0.0
H1308 H 0.98678 0.65292 0.74744 0.0
H1309 H 0.03209 0.58829 0.72438 0.0
H1310 H 0.96376 0.62609 0.77801 0.0
H1311 H 0.00848 0.56118 0.75427 0.0
H1312 H 0.92068 0.53028 0.7612 0.0
H1313 H 0.9578 0.55352 0.74458 0.0
H1314 H 0.96631 0.59208 0.81694 0.0
H1315 H 0.9298 0.56866 0.83386 0.0
C1316 C 0.99291 0.63338 0.75014 0.0
C1317 C 0.01133 0.62268 0.73391 0.0
C1318 C 0.97954 0.61793 0.76735 0.0
C1319 C 0.98413 0.59154 0.76803 0.0
C1320 C 0.00457 0.58145 0.75392 0.0
C1321 C 0.01832 0.59704 0.73717 0.0
C1322 C 0.93073 0.54335 0.7737 0.0
C1323 C 0.92207 0.54776 0.79873 0.0
C1324 C 0.95208 0.55647 0.76429 0.0
C1325 C 0.96486 0.57447 0.77961 0.0
C1326 C 0.95681 0.57822 0.80486 0.0
C1327 C 0.93584 0.5648 0.81442 0.0
H1328 H 0.1912 0.42249 0.176 0.0
H1329 H 0.24463 0.48513 0.17348 0.0
H1330 H 0.22499 0.39303 0.16378 0.0
H1331 H 0.27841 0.45594 0.15978 0.0
H1332 H 0.33794 0.39714 0.14209 0.0
H1333 H 0.30666 0.42135 0.16667 0.0
H1334 H 0.24561 0.38415 0.12523 0.0
H1335 H 0.27671 0.35938 0.10154 0.0
C1336 C 0.21036 0.42985 0.17307 0.0
C1337 C 0.21536 0.45603 0.17548 0.0
C1338 C 0.22969 0.41304 0.16583 0.0
C1339 C 0.25437 0.42209 0.16017 0.0
C1340 C 0.25972 0.44817 0.16412 0.0
C1341 C 0.24039 0.46497 0.17192 0.0
C1342 C 0.3178 0.39379 0.1386 0.0
C1343 C 0.30985 0.37637 0.11972 0.0
C1344 C 0.29985 0.40784 0.15257 0.0
C1345 C 0.27354 0.40497 0.14787 0.0
C1346 C 0.26564 0.38668 0.12978 0.0
C1347 C 0.28355 0.37246 0.11603 0.0
H1348 H 0.29738 0.56676 0.96866 0.0
H1349 H 0.23814 0.62412 0.96547 0.0
H1350 H 0.27302 0.53986 0.94023 0.0
H1351 H 0.21287 0.59631 0.93789 0.0
H1352 H 0.18945 0.55669 0.86447 0.0
H1353 H 0.21338 0.5824 0.89499 0.0
H1354 H 0.23776 0.51371 0.93366 0.0
H1355 H 0.21493 0.48813 0.9023 0.0
C1356 C 0.27883 0.57345 0.96239 0.0
C1357 C 0.26992 0.59787 0.96912 0.0
C1358 C 0.26473 0.55784 0.94608 0.0
C1359 C 0.24109 0.56598 0.93634 0.0
C1360 C 0.23135 0.5897 0.94442 0.0
C1361 C 0.24567 0.60553 0.96054 0.0
C1362 C 0.2004 0.54714 0.87921 0.0
C1363 C 0.20061 0.52042 0.8808 0.0
C1364 C 0.21376 0.56186 0.89699 0.0
C1365 C 0.22727 0.55022 0.91709 0.0
C1366 C 0.22788 0.5234 0.9183 0.0
C1367 C 0.21489 0.50868 0.90023 0.0
H1368 H 0.36972 0.17633 0.90674 0.0
H1369 H 0.43365 0.22184 0.88108 0.0
H1370 H 0.35578 0.21074 0.93446 0.0
H1371 H 0.42011 0.25636 0.90966 0.0
H1372 H 0.3594 0.26039 0.00558 0.0
H1373 H 0.37105 0.22839 0.97391 0.0
H1374 H 0.38746 0.28785 0.91907 0.0
H1375 H 0.3765 0.31984 0.95083 0.0
C1376 C 0.3807 0.19386 0.90696 0.0
C1377 C 0.40289 0.19642 0.89201 0.0
C1378 C 0.37283 0.21348 0.92299 0.0
C1379 C 0.38713 0.23604 0.92471 0.0
C1380 C 0.40864 0.23919 0.90872 0.0
C1381 C 0.4164 0.21952 0.89235 0.0
C1382 C 0.36537 0.26663 0.98675 0.0
C1383 C 0.36701 0.29266 0.98079 0.0
C1384 C 0.37195 0.24831 0.96853 0.0
C1385 C 0.3801 0.25561 0.94391 0.0
C1386 C 0.38157 0.28162 0.93792 0.0
C1387 C 0.37514 0.29993 0.95615 0.0
H1388 H 0.74973 0.47278 0.82805 0.0
H1389 H 0.80383 0.42312 0.7907 0.0
H1390 H 0.71901 0.43787 0.83056 0.0
H1391 H 0.77322 0.38777 0.79378 0.0
H1392 H 0.73334 0.33767 0.86138 0.0
H1393 H 0.75991 0.36742 0.83731 0.0
H1394 H 0.69227 0.40366 0.8073 0.0
H1395 H 0.66556 0.37391 0.83106 0.0
C1396 C 0.75456 0.45463 0.81941 0.0
C1397 C 0.77898 0.4506 0.80907 0.0
C1398 C 0.73702 0.43463 0.82084 0.0
C1399 C 0.74384 0.41007 0.81251 0.0
C1400 C 0.76754 0.40652 0.80033 0.0
C1401 C 0.78491 0.42677 0.79836 0.0
C1402 C 0.72408 0.3514 0.84901 0.0
C1403 C 0.69728 0.35369 0.84866 0.0
C1404 C 0.73934 0.36837 0.83508 0.0
C1405 C 0.72809 0.38803 0.82071 0.0
C1406 C 0.70138 0.38879 0.8184 0.0
C1407 C 0.68612 0.37167 0.83206 0.0
H1408 H 0.61917 0.74159 0.92553 0.0
H1409 H 0.64792 0.71613 0.85257 0.0
H1410 H 0.59765 0.77719 0.9046 0.0
H1411 H 0.62741 0.75229 0.8316 0.0
H1412 H 0.55261 0.83393 0.86093 0.0
H1413 H 0.59261 0.81537 0.8766 0.0
H1414 H 0.58092 0.75018 0.82739 0.0
H1415 H 0.5415 0.7686 0.81182 0.0
C1416 C 0.62201 0.74453 0.90521 0.0
C1417 C 0.6347 0.72622 0.89044 0.0
C1418 C 0.60981 0.76493 0.89319 0.0
C1419 C 0.61037 0.76708 0.86637 0.0
C1420 C 0.62627 0.75073 0.85223 0.0
C1421 C 0.63805 0.73016 0.86417 0.0
C1422 C 0.55902 0.81592 0.85307 0.0
C1423 C 0.54381 0.80243 0.83551 0.0
C1424 C 0.58186 0.80536 0.86203 0.0
C1425 C 0.58992 0.78139 0.85321 0.0
C1426 C 0.57552 0.76888 0.83429 0.0
C1427 C 0.55268 0.77924 0.82561 0.0
H1428 H 0.7365 0.52436 0.09896 0.0
H1429 H 0.79909 0.57513 0.08093 0.0
H1430 H 0.71123 0.54345 0.06475 0.0
H1431 H 0.77487 0.59282 0.04585 0.0
H1432 H 0.68104 0.56412 0.98666 0.0
H1433 H 0.70735 0.54514 0.02011 0.0
H1434 H 0.74135 0.61889 0.035 0.0
H1435 H 0.71638 0.63725 0.00078 0.0
C1436 C 0.74474 0.53974 0.08783 0.0
C1437 C 0.76961 0.54848 0.09287 0.0
C1438 C 0.73047 0.5504 0.06793 0.0
C1439 C 0.74102 0.56961 0.05231 0.0
C1440 C 0.7658 0.5785 0.05771 0.0
C1441 C 0.77975 0.56832 0.07793 0.0
C1442 C 0.69454 0.57607 -0.00319 0.0
C1443 C 0.69672 0.60213 0.99101 0.0
C1444 C 0.70938 0.56531 0.01622 0.0
C1445 C 0.72632 0.5805 0.03057 0.0
C1446 C 0.72889 0.60642 0.0242 0.0
C1447 C 0.7145 0.61702 0.0045 0.0
H1448 H 0.43774 0.75958 0.1327 0.0
H1449 H 0.41441 0.83493 0.10852 0.0
H1450 H 0.40031 0.74156 0.11099 0.0
H1451 H 0.37767 0.81679 0.08673 0.0
H1452 H 0.35587 0.75858 0.01703 0.0
H1453 H 0.38015 0.78551 0.04644 0.0
H1454 H 0.34828 0.74444 0.11052 0.0
H1455 H 0.32324 0.71814 0.08101 0.0
C1456 C 0.42454 0.77229 0.12316 0.0
C1457 C 0.42925 0.79864 0.12227 0.0
C1458 C 0.40304 0.76203 0.11092 0.0
C1459 C 0.38616 0.7779 0.09731 0.0
C1460 C 0.39036 0.80423 0.09717 0.0
C1461 C 0.4115 0.81451 0.10968 0.0
C1462 C 0.35279 0.75651 0.03743 0.0
C1463 C 0.33742 0.7367 0.04685 0.0
C1464 C 0.36691 0.77163 0.05426 0.0
C1465 C 0.36631 0.76667 0.08066 0.0
C1466 C 0.3491 0.74847 0.09022 0.0
C1467 C 0.33446 0.73379 0.07339 0.0
H1468 H 0.5904 0.2383 0.11268 0.0
H1469 H 0.64408 0.18042 0.08895 0.0
H1470 H 0.60713 0.26685 0.07947 0.0
H1471 H 0.6611 0.20884 0.05648 0.0
H1472 H 0.65715 0.25039 0.97943 0.0
H1473 H 0.64544 0.22429 0.01613 0.0
H1474 H 0.64368 0.29142 0.06396 0.0
H1475 H 0.65492 0.31762 0.02722 0.0
C1476 C 0.60613 0.23194 0.1008 0.0
C1477 C 0.61569 0.20707 0.10314 0.0
C1478 C 0.61573 0.24822 0.08178 0.0
C1479 C 0.63516 0.23991 0.06501 0.0
C1480 C 0.64569 0.21559 0.06857 0.0
C1481 C 0.63602 0.19937 0.0873 0.0
C1482 C 0.65462 0.25956 -0.00219 0.0
C1483 C 0.65693 0.2861 0.00029 0.0
C1484 C 0.64794 0.24459 0.01891 0.0
C1485 C 0.64353 0.2558 0.043 0.0
C1486 C 0.64655 0.28225 0.04562 0.0
C1487 C 0.65318 0.29721 0.02454 0.0
H1488 H 0.95061 0.69974 0.67159 0.0
H1489 H 0.01643 0.73263 0.63409 0.0
H1490 H 0.92304 0.73038 0.65104 0.0
H1491 H 0.98892 0.76486 0.61462 0.0
H1492 H 0.93278 0.78958 0.55389 0.0
H1493 H 0.96038 0.76308 0.58029 0.0
H1494 H 0.90663 0.77014 0.64295 0.0
H1495 H 0.8784 0.79514 0.61565 0.0
C1496 C 0.95931 0.71432 0.65973 0.0
C1497 C 0.98556 0.71351 0.65395 0.0
C1498 C 0.94344 0.732 0.64792 0.0
C1499 C 0.95356 0.74965 0.63044 0.0
C1500 C 0.98035 0.75087 0.62722 0.0
C1501 C -0.00375 0.73281 0.63881 0.0
C1502 C 0.92661 0.78461 0.57305 0.0
C1503 C 0.90331 0.7937 0.58265 0.0
C1504 C 0.94268 0.77003 0.58844 0.0
C1505 C 0.9361 0.76488 0.61403 0.0
C1506 C 0.9123 0.77347 0.62332 0.0
C1507 C 0.89594 0.78756 0.60765 0.0
H1508 H 0.24422 0.93414 0.60909 0.0
H1509 H 0.31308 0.90248 0.57604 0.0
H1510 H 0.21878 0.91201 0.57695 0.0
H1511 H 0.28769 0.87976 0.54465 0.0
H1512 H 0.23554 0.86359 0.47615 0.0
H1513 H 0.26189 0.88595 0.50751 0.0
H1514 H 0.20577 0.86975 0.56614 0.0
H1515 H 0.17921 0.8483 0.53475 0.0
C1516 C 0.25389 0.92236 0.59509 0.0
C1517 C 0.28063 0.92009 0.59512 0.0
C1518 C 0.23934 0.90957 0.57675 0.0
C1519 C 0.25123 0.89403 0.55829 0.0
C1520 C 0.27796 0.89186 0.55833 0.0
C1521 C 0.2925 0.90482 0.57645 0.0
C1522 C 0.22904 0.86463 0.49581 0.0
C1523 C 0.2053 0.85438 0.503 0.0
C1524 C 0.24409 0.87742 0.51377 0.0
C1525 C 0.23576 0.87988 0.53927 0.0
C1526 C 0.21243 0.86878 0.54654 0.0
C1527 C 0.19731 0.8563 0.52859 0.0
H1528 H 0.05123 0.30449 0.6018 0.0
H1529 H 0.01856 0.23363 0.62864 0.0
H1530 H 0.08455 0.28131 0.57971 0.0
H1531 H 0.05139 0.21013 0.60525 0.0
H1532 H 0.12337 0.17357 0.57935 0.0
H1533 H 0.09536 0.20017 0.6054 0.0
H1534 H 0.09214 0.25549 0.54408 0.0
H1535 H 0.12131 0.22935 0.51885 0.0
C1536 C 0.05087 0.28386 0.60261 0.0
C1537 C 0.03213 0.27085 0.6169 0.0
C1538 C 0.07005 0.27056 0.58987 0.0
C1539 C 0.0708 0.24385 0.59071 0.0
C1540 C 0.05177 0.23076 0.60466 0.0
C1541 C 0.03276 0.24415 0.61783 0.0
C1542 C 0.11738 0.19194 0.572 0.0
C1543 C 0.12463 0.19973 0.54739 0.0
C1544 C 0.10096 0.20693 0.58664 0.0
C1545 C 0.09099 0.22971 0.57665 0.0
C1546 C 0.09958 0.23818 0.55253 0.0
C1547 C 0.11643 0.22336 0.53808 0.0
H1548 H 0.75783 0.12766 0.54365 0.0
H1549 H 0.81432 0.12812 0.60404 0.0
H1550 H 0.72742 0.10748 0.57231 0.0
H1551 H 0.7835 0.10824 0.6329 0.0
H1552 H 0.73086 0.03925 0.65839 0.0
H1553 H 0.76251 0.06622 0.63704 0.0
H1554 H 0.70207 0.11566 0.61046 0.0
H1555 H 0.67055 0.08849 0.63121 0.0
C1556 C 0.76371 0.12373 0.5631 0.0
C1557 C 0.78857 0.12947 0.57146 0.0
C1558 C 0.74618 0.11233 0.57963 0.0
C1559 C 0.75303 0.10641 0.60493 0.0
C1560 C 0.77774 0.11246 0.61347 0.0
C1561 C 0.79533 0.12394 0.59693 0.0
C1562 C 0.72445 0.05623 0.64852 0.0
C1563 C 0.69826 0.06155 0.64606 0.0
C1564 C 0.74255 0.07169 0.6363 0.0
C1565 C 0.73468 0.09275 0.62164 0.0
C1566 C 0.70864 0.09918 0.62107 0.0
C1567 C 0.69061 0.08369 0.63305 0.0
H1568 H 0.81759 0.18979 0.41588 0.0
H1569 H 0.89544 0.16213 0.41659 0.0
H1570 H 0.82714 0.21446 0.37748 0.0
H1571 H 0.90547 0.18779 0.38018 0.0
H1572 H 0.93061 0.24577 0.33043 0.0
H1573 H 0.90738 0.20686 0.34127 0.0
H1574 H 0.84777 0.25239 0.37626 0.0
H1575 H 0.86966 0.29038 0.36391 0.0
C1576 C 0.83663 0.18882 0.40774 0.0
C1577 C 0.85602 0.17494 0.41989 0.0
C1578 C 0.84217 0.20294 0.38575 0.0
C1579 C 0.86742 0.20416 0.37624 0.0
C1580 C 0.88583 0.18771 0.3867 0.0
C1581 C 0.88014 0.17316 0.40813 0.0
C1582 C 0.91221 0.2473 0.33989 0.0
C1583 C 0.90259 0.27109 0.34742 0.0
C1584 C 0.89888 0.22502 0.34614 0.0
C1585 C 0.87615 0.22625 0.36068 0.0
C1586 C 0.86518 0.25025 0.36526 0.0
C1587 C 0.87815 0.27234 0.35857 0.0
H1588 H 0.69365 0.87976 0.38935 0.0
H1589 H 0.76212 0.92073 0.36738 0.0
H1590 H 0.71275 0.8703 0.43084 0.0
H1591 H 0.78097 0.91112 0.4087 0.0
H1592 H 0.79167 0.92385 0.49236 0.0
H1593 H 0.76823 0.9284 0.45245 0.0
H1594 H 0.75019 0.84811 0.45341 0.0
H1595 H 0.77362 0.84336 0.49346 0.0
C1596 C 0.71303 0.88609 0.39298 0.0
C1597 C 0.72617 0.90136 0.37507 0.0
C1598 C 0.72386 0.88078 0.41684 0.0
C1599 C 0.74795 0.89069 0.4232 0.0
C1600 C 0.76201 0.9039 0.4045 0.0
C1601 C 0.75132 0.90905 0.38065 0.0
C1602 C 0.78217 0.90725 0.48449 0.0
C1603 C 0.785 0.88315 0.4959 0.0
C1604 C 0.76901 0.90982 0.46147 0.0
C1605 C 0.7582 0.88842 0.44947 0.0
C1606 C 0.75865 0.86484 0.46214 0.0
C1607 C 0.77194 0.86221 0.48519 0.0
H1608 H 0.01243 0.69669 0.40102 0.0
H1609 H -0.004 0.73982 0.33249 0.0
H1610 H 0.05104 0.72038 0.40716 0.0
H1611 H 0.03459 0.7654 0.33982 0.0
H1612 H 0.1218 0.78207 0.34429 0.0
H1613 H 0.07981 0.76239 0.33729 0.0
H1614 H 0.06883 0.75799 0.41925 0.0
H1615 H 0.11116 0.77521 0.42584 0.0
C1616 C 0.01676 0.71171 0.38746 0.0
C1617 C 0.00121 0.71607 0.366 0.0
C1618 C 0.03897 0.72563 0.39121 0.0
C1619 C 0.04611 0.74493 0.37402 0.0
C1620 C 0.0299 0.75036 0.3532 0.0
C1621 C 0.00763 0.73597 0.34917 0.0
C1622 C 0.11048 0.77619 0.36063 0.0
C1623 C 0.12 0.77911 0.38551 0.0
C1624 C 0.08627 0.76543 0.35671 0.0
C1625 C 0.07095 0.75824 0.3777 0.0
C1626 C 0.08033 0.7623 0.40257 0.0
C1627 C 0.1047 0.77211 0.4064 0.0
H1628 H 0.23795 0.14358 0.43633 0.0
H1629 H 0.18086 0.11036 0.38668 0.0
H1630 H 0.27138 0.12913 0.4074 0.0
H1631 H 0.2142 0.0967 0.35731 0.0
H1632 H 0.3284 0.11255 0.34968 0.0
H1633 H 0.29069 0.13421 0.36642 0.0
H1634 H 0.24683 0.06487 0.357 0.0
H1635 H 0.2844 0.0438 0.3391 0.0
C1636 C 0.23253 0.13352 0.41907 0.0
C1637 C 0.20684 0.12784 0.41398 0.0
C1638 C 0.25165 0.12545 0.40231 0.0
C1639 C 0.24543 0.11183 0.37995 0.0
C1640 C 0.21964 0.10686 0.3745 0.0
C1641 C 0.20056 0.11469 0.39138 0.0
C1642 C 0.31034 0.1024 0.35024 0.0
C1643 C 0.30904 0.07665 0.34324 0.0
C1644 C 0.28888 0.11463 0.36012 0.0
C1645 C 0.26599 0.10106 0.36372 0.0
C1646 C 0.26415 0.07592 0.35442 0.0
C1647 C 0.28558 0.06382 0.34409 0.0
H1648 H 0.52793 0.82997 0.7523 0.0
H1649 H 0.48363 0.8993 0.7563 0.0
H1650 H 0.56301 0.85328 0.73288 0.0
H1651 H 0.51841 0.9226 0.73572 0.0
H1652 H 0.59692 0.96112 0.73876 0.0
H1653 H 0.55903 0.93686 0.75108 0.0
H1654 H 0.58091 0.87666 0.69902 0.0
H1655 H 0.61914 0.90016 0.68771 0.0
C1656 C 0.52524 0.84998 0.74795 0.0
C1657 C 0.50317 0.86288 0.75607 0.0
C1658 C 0.54546 0.86345 0.73691 0.0
C1659 C 0.54381 0.88999 0.73339 0.0
C1660 C 0.52062 0.90234 0.739 0.0
C1661 C 0.50055 0.88893 0.75039 0.0
C1662 C 0.59383 0.94252 0.73031 0.0
C1663 C 0.6112 0.93252 0.71247 0.0
C1664 C 0.57188 0.92879 0.737 0.0
C1665 C 0.56676 0.90489 0.72581 0.0
C1666 C 0.58433 0.89484 0.70822 0.0
C1667 C 0.60633 0.90838 0.70177 0.0
H1668 H 0.11122 0.6199 0.70685 0.0
H1669 H 0.09352 0.55548 0.65833 0.0
H1670 H 0.12592 0.5909 0.74001 0.0
H1671 H 0.10867 0.52655 0.69175 0.0
H1672 H 0.15583 0.49014 0.76441 0.0
H1673 H 0.15085 0.51598 0.7254 0.0
H1674 H 0.09064 0.55877 0.76189 0.0
H1675 H 0.09497 0.5332 0.80018 0.0
C1676 C 0.11119 0.59964 0.70285 0.0
C1677 C 0.10067 0.59009 0.68002 0.0
C1678 C 0.11962 0.58305 0.72191 0.0
C1679 C 0.11805 0.55656 0.71849 0.0
C1680 C 0.11007 0.54693 0.69478 0.0
C1681 C 0.10141 0.56357 0.67567 0.0
C1682 C 0.14136 0.50488 0.76397 0.0
C1683 C 0.12593 0.5096 0.78558 0.0
C1684 C 0.13858 0.51964 0.7417 0.0
C1685 C 0.12069 0.53959 0.74095 0.0
C1686 C 0.10488 0.54377 0.76218 0.0
C1687 C 0.10732 0.52892 0.7841 0.0
H1688 H 0.3459 0.09753 0.84186 0.0
H1689 H 0.38435 0.12556 0.77407 0.0
H1690 H 0.32046 0.0689 0.81555 0.0
H1691 H 0.35796 0.09731 0.74787 0.0
H1692 H 0.34965 -0.00054 0.75086 0.0
H1693 H 0.3562 0.0335 0.78221 0.0
H1694 H 0.29946 0.07946 0.74417 0.0
H1695 H 0.29208 0.04485 0.71335 0.0
C1696 C 0.3483 0.09838 0.8213 0.0
C1697 C 0.36773 0.11341 0.81012 0.0
C1698 C 0.33356 0.08203 0.80633 0.0
C1699 C 0.33746 0.081 0.77991 0.0
C1700 C 0.35462 0.09807 0.76831 0.0
C1701 C 0.36972 0.11419 0.78332 0.0
C1702 C 0.33762 0.01625 0.75011 0.0
C1703 C 0.32009 0.01951 0.73015 0.0
C1704 C 0.34146 0.03572 0.76783 0.0
C1705 C 0.32831 0.05889 0.76534 0.0
C1706 C 0.30956 0.06158 0.74643 0.0
C1707 C 0.30521 0.04177 0.72907 0.0
H1708 H 0.91454 0.44448 0.78789 0.0
H1709 H 0.86045 0.40186 0.83369 0.0
H1710 H 0.93486 0.40481 0.77494 0.0
H1711 H 0.88085 0.36212 0.82057 0.0
H1712 H 0.89356 0.31552 0.7409 0.0
H1713 H 0.88004 0.34346 0.77556 0.0
H1714 H 0.95872 0.36483 0.78878 0.0
H1715 H 0.97211 0.33664 0.75407 0.0
C1716 C 0.90725 0.42669 0.79551 0.0
C1717 C 0.88567 0.4263 0.81146 0.0
C1718 C 0.91911 0.40397 0.7884 0.0
C1719 C 0.90948 0.38039 0.7969 0.0
C1720 C 0.88868 0.38004 0.81386 0.0
C1721 C 0.877 0.40281 0.82124 0.0
C1722 C 0.90803 0.32483 0.75242 0.0
C1723 C 0.93377 0.32405 0.74504 0.0
C1724 C 0.90033 0.34099 0.77217 0.0
C1725 C 0.91834 0.35673 0.78439 0.0
C1726 C 0.94448 0.35308 0.77941 0.0
C1727 C 0.95217 0.33675 0.7598 0.0
H1728 H 0.62534 0.14152 0.22913 0.0
H1729 H 0.66346 0.11036 0.16274 0.0
H1730 H 0.64964 0.11277 0.25644 0.0
H1731 H 0.6877 0.08168 0.19008 0.0
H1732 H 0.70253 0.06497 0.30217 0.0
H1733 H 0.69142 0.09914 0.27282 0.0
H1734 H 0.67397 0.04353 0.21448 0.0
H1735 H 0.68536 0.00913 0.24396 0.0
C1736 C 0.63951 0.12921 0.22041 0.0
C1737 C 0.64216 0.12807 0.19371 0.0
C1738 C 0.65342 0.11261 0.23607 0.0
C1739 C 0.67027 0.09459 0.22534 0.0
C1740 C 0.67448 0.09495 0.19886 0.0
C1741 C 0.66069 0.11157 0.18324 0.0
C1742 C 0.69677 0.06 0.28291 0.0
C1743 C 0.69446 0.03429 0.27548 0.0
C1744 C 0.69031 0.07963 0.26615 0.0
C1745 C 0.68141 0.07408 0.2415 0.0
C1746 C 0.6809 0.04845 0.23335 0.0
C1747 C 0.68743 0.02871 0.2502 0.0
H1748 H 0.90299 0.63625 0.26063 0.0
H1749 H 0.8434 0.61448 0.31384 0.0
H1750 H 0.88673 0.60534 0.22999 0.0
H1751 H 0.82732 0.58338 0.283 0.0
H1752 H 0.7981 0.54918 0.20209 0.0
H1753 H 0.80815 0.57898 0.23702 0.0
H1754 H 0.88758 0.55687 0.23277 0.0
H1755 H 0.87761 0.52753 0.19815 0.0
C1756 C 0.88617 0.62525 0.26566 0.0
C1757 C 0.87474 0.62766 0.28985 0.0
C1758 C 0.87701 0.60736 0.24819 0.0
C1759 C 0.85614 0.59161 0.25444 0.0
C1760 C 0.84354 0.59519 0.27783 0.0
C1761 C 0.85281 0.613 0.29543 0.0
C1762 C 0.81746 0.55005 0.20941 0.0
C1763 C 0.83714 0.53626 0.19749 0.0
C1764 C 0.82325 0.56723 0.22914 0.0
C1765 C 0.84876 0.5707 0.23695 0.0
C1766 C 0.86789 0.55506 0.22659 0.0
C1767 C 0.86214 0.53805 0.20704 0.0
H1768 H 0.43572 0.84013 0.21445 0.0
H1769 H 0.50745 0.87962 0.22367 0.0
H1770 H 0.41642 0.86726 0.24742 0.0
H1771 H 0.48844 0.90668 0.25653 0.0
H1772 H 0.44752 0.94529 0.32276 0.0
H1773 H 0.46709 0.91032 0.29913 0.0
H1774 H 0.40654 0.91416 0.24319 0.0
H1775 H 0.38675 0.94902 0.26686 0.0
C1776 C 0.44761 0.85379 0.22446 0.0
C1777 C 0.47304 0.85772 0.21698 0.0
C1778 C 0.43653 0.86955 0.24296 0.0
C1779 C 0.45086 0.8893 0.2542 0.0
C1780 C 0.47698 0.89155 0.2483 0.0
C1781 C 0.48792 0.876 0.22965 0.0
C1782 C 0.43835 0.9387 0.30541 0.0
C1783 C 0.41561 0.95005 0.29661 0.0
C1784 C 0.44955 0.91863 0.29196 0.0
C1785 C 0.43816 0.90933 0.26955 0.0
C1786 C 0.41545 0.92062 0.26072 0.0
C1787 C 0.40434 0.94085 0.27406 0.0
H1788 H 0.08237 0.44756 0.19831 0.0
H1789 H 0.13275 0.46292 0.26204 0.0
H1790 H 0.05612 0.42072 0.22534 0.0
H1791 H 0.10661 0.43523 0.28909 0.0
H1792 H 0.03529 0.41092 0.33477 0.0
H1793 H 0.06485 0.43514 0.30853 0.0
H1794 H 0.05557 0.38059 0.24729 0.0
H1795 H 0.02522 0.3566 0.27335 0.0
C1796 C 0.08804 0.44502 0.21807 0.0
C1797 C 0.10971 0.45745 0.22802 0.0
C1798 C 0.07303 0.42941 0.23352 0.0
C1799 C 0.07934 0.42566 0.25932 0.0
C1800 C 0.1011 0.43793 0.26932 0.0
C1801 C 0.11611 0.45375 0.25383 0.0
C1802 C 0.0396 0.40393 0.31575 0.0
C1803 C 0.02771 0.38187 0.30609 0.0
C1804 C 0.05675 0.41778 0.30078 0.0
C1805 C 0.06256 0.40984 0.27581 0.0
C1806 C 0.05118 0.38743 0.26634 0.0
C1807 C 0.03386 0.37362 0.28129 0.0
H1808 H 0.67585 0.6205 0.8383 0.0
H1809 H 0.7338 0.64245 0.89304 0.0
H1810 H 0.70892 0.60446 0.80973 0.0
H1811 H 0.76671 0.62604 0.86461 0.0
H1812 H 0.82428 0.60559 0.80863 0.0
H1813 H 0.78841 0.63134 0.82334 0.0
H1814 H 0.73753 0.56751 0.81143 0.0
H1815 H 0.77326 0.54193 0.79634 0.0
C1816 C 0.69563 0.62211 0.84421 0.0
C1817 C 0.70213 0.63258 0.86815 0.0
C1818 C 0.71456 0.61289 0.82777 0.0
C1819 C 0.7404 0.61402 0.83484 0.0
C1820 C 0.74698 0.62529 0.85836 0.0
C1821 C 0.72807 0.63448 0.87482 0.0
C1822 C 0.80526 0.59738 0.80821 0.0
C1823 C 0.80165 0.5716 0.80181 0.0
C1824 C 0.78477 0.61206 0.81687 0.0
C1825 C 0.76033 0.6012 0.81928 0.0
C1826 C 0.75616 0.57642 0.80987 0.0
C1827 C 0.77667 0.56175 0.8011 0.0
H1828 H 0.73808 0.33284 0.98284 0.0
H1829 H 0.71697 0.40794 0.95644 0.0
H1830 H 0.76226 0.35207 0.01799 0.0
H1831 H 0.74095 0.42703 0.99144 0.0
H1832 H 0.75251 0.45018 0.07402 0.0
H1833 H 0.73154 0.42703 0.03911 0.0
H1834 H 0.79938 0.38128 0.02861 0.0
H1835 H 0.82018 0.40424 0.06339 0.0
C1836 C 0.73944 0.35342 0.98395 0.0
C1837 C 0.72554 0.36892 0.96704 0.0
C1838 C 0.75296 0.36441 0.00425 0.0
C1839 C 0.75268 0.39098 0.00785 0.0
C1840 C 0.74076 0.40646 0.98956 0.0
C1841 C 0.72741 0.39555 0.96931 0.0
C1842 C 0.7626 0.43473 0.06468 0.0
C1843 C 0.78793 0.42905 0.07124 0.0
C1844 C 0.75081 0.42174 0.04452 0.0
C1845 C 0.7641 0.40272 0.03089 0.0
C1846 C 0.78876 0.39588 0.0387 0.0
C1847 C 0.80061 0.40903 0.05859 0.0
H1848 H 0.53559 0.78025 0.05688 0.0
H1849 H 0.56312 0.74323 0.12527 0.0
H1850 H 0.56174 0.75215 0.03076 0.0
H1851 H 0.58973 0.715 0.09894 0.0
H1852 H 0.61301 0.6559 0.0348 0.0
H1853 H 0.58851 0.68107 0.06529 0.0
H1854 H 0.60877 0.74967 0.02429 0.0
H1855 H 0.63292 0.72446 0.99336 0.0
C1856 C 0.54689 0.76568 0.06627 0.0
C1857 C 0.54749 0.76394 0.09305 0.0
C1858 C 0.56213 0.74987 0.05135 0.0
C1859 C 0.57838 0.732 0.06289 0.0
C1860 C 0.57753 0.72882 0.0896 0.0
C1861 C 0.56213 0.74473 0.10463 0.0
C1862 C 0.61262 0.67643 0.03252 0.0
C1863 C 0.62455 0.68819 0.01141 0.0
C1864 C 0.59864 0.6908 0.05006 0.0
C1865 C 0.59627 0.71719 0.0468 0.0
C1866 C 0.60982 0.72921 0.02686 0.0
C1867 C 0.6239 0.71484 0.00934 0.0
H1868 H 0.32663 0.63084 0.10302 0.0
H1869 H 0.25409 0.65691 0.07348 0.0
H1870 H 0.30478 0.61354 0.14082 0.0
H1871 H 0.23253 0.63979 0.11076 0.0
H1872 H 0.19532 0.61813 0.17937 0.0
H1873 H 0.22738 0.64386 0.15736 0.0
H1874 H 0.27384 0.57672 0.14629 0.0
H1875 H 0.24196 0.55118 0.16915 0.0
C1876 C 0.30614 0.63329 0.10482 0.0
C1877 C 0.29202 0.64506 0.08521 0.0
C1878 C 0.29368 0.62334 0.12638 0.0
C1879 C 0.26699 0.62545 0.12886 0.0
C1880 C 0.25316 0.63823 0.10972 0.0
C1881 C 0.26549 0.64781 0.08816 0.0
C1882 C 0.21302 0.6092 0.17337 0.0
C1883 C 0.21627 0.58278 0.1758 0.0
C1884 C 0.23124 0.62383 0.16057 0.0
C1885 C 0.25276 0.61217 0.14952 0.0
C1886 C 0.25747 0.58625 0.15463 0.0
C1887 C 0.23928 0.57162 0.16778 0.0
H1888 H 0.38759 0.25981 0.07625 0.0
H1889 H 0.41179 0.31411 0.13343 0.0
H1890 H 0.41932 0.22946 0.09208 0.0
H1891 H 0.44303 0.2838 0.14946 0.0
H1892 H 0.51793 0.2378 0.14734 0.0
H1893 H 0.48349 0.26668 0.13479 0.0
H1894 H 0.43195 0.20269 0.12748 0.0
H1895 H 0.46614 0.17395 0.13942 0.0
C1896 C 0.39917 0.26499 0.09261 0.0
C1897 C 0.39728 0.28939 0.10346 0.0
C1898 C 0.41745 0.24767 0.10164 0.0
C1899 C 0.43405 0.25439 0.12179 0.0
C1900 C 0.43105 0.27825 0.13352 0.0
C1901 C 0.41293 0.29552 0.12447 0.0
C1902 C 0.49923 0.22994 0.14318 0.0
C1903 C 0.49496 0.20353 0.14429 0.0
C1904 C 0.47943 0.24648 0.13608 0.0
C1905 C 0.45493 0.23697 0.13004 0.0
C1906 C 0.45063 0.21063 0.13157 0.0
C1907 C 0.47033 0.19416 0.13858 0.0
H1908 H 0.16217 0.38602 0.93125 0.0
H1909 H 0.22405 0.41888 0.8873 0.0
H1910 H 0.19273 0.37091 0.96305 0.0
H1911 H 0.25453 0.40358 0.91909 0.0
H1912 H 0.29366 0.40887 -0.00432 0.0
H1913 H 0.26062 0.41858 0.9646 0.0
H1914 H 0.23161 0.34175 0.97087 0.0
H1915 H 0.26516 0.33182 0.00226 0.0
C1916 C 0.18234 0.3896 0.9281 0.0
C1917 C 0.19066 0.40392 0.90684 0.0
C1918 C 0.1998 0.38085 0.94632 0.0
C1919 C 0.2259 0.38647 0.94377 0.0
C1920 C 0.23441 0.39938 0.92174 0.0
C1921 C 0.21699 0.40793 0.9034 0.0
C1922 C 0.28 0.3941 0.99079 0.0
C1923 C 0.28215 0.36949 0.00123 0.0
C1924 C 0.26126 0.39961 0.97277 0.0
C1925 C 0.24407 0.38071 0.96475 0.0
C1926 C 0.24484 0.3566 0.97656 0.0
C1927 C 0.26383 0.35099 -0.00532 0.0
H1928 H 0.61344 0.27504 0.84376 0.0
H1929 H 0.6295 0.23815 0.91567 0.0
H1930 H 0.58335 0.24129 0.83284 0.0
H1931 H 0.59863 0.20455 0.9052 0.0
H1932 H 0.54675 0.14213 0.87178 0.0
H1933 H 0.58417 0.16927 0.87772 0.0
H1934 H 0.54111 0.23397 0.85034 0.0
H1935 H 0.50396 0.20694 0.84393 0.0
C1936 C 0.61102 0.25921 0.85688 0.0
C1937 C 0.62366 0.25908 0.88052 0.0
C1938 C 0.59357 0.24009 0.8508 0.0
C1939 C 0.58808 0.22065 0.86846 0.0
C1940 C 0.60244 0.21929 0.8912 0.0
C1941 C 0.62021 0.23839 0.89716 0.0
C1942 C 0.54526 0.16214 0.86695 0.0
C1943 C 0.52228 0.17232 0.8573 0.0
C1944 C 0.56673 0.17767 0.87042 0.0
C1945 C 0.56573 0.20369 0.86424 0.0
C1946 C 0.54274 0.21386 0.85473 0.0
C1947 C 0.52131 0.19838 0.85127 0.0
H1948 H 0.41051 0.73444 0.82593 0.0
H1949 H 0.45232 0.74921 0.89548 0.0
H1950 H 0.3802 0.70821 0.84972 0.0
H1951 H 0.4225 0.72233 0.91923 0.0
H1952 H 0.34255 0.72333 0.95443 0.0
H1953 H 0.37815 0.73758 0.92803 0.0
H1954 H 0.36832 0.67231 0.87863 0.0
H1955 H 0.33231 0.65818 0.90481 0.0
C1956 C 0.41408 0.73079 0.846 0.0
C1957 C 0.43336 0.74408 0.85906 0.0
C1958 C 0.3966 0.71597 0.85969 0.0
C1959 C 0.39852 0.71418 0.88643 0.0
C1960 C 0.42017 0.7242 0.89872 0.0
C1961 C 0.43743 0.73921 0.88512 0.0
C1962 C 0.34754 0.71234 0.93761 0.0
C1963 C 0.33462 0.68967 0.93167 0.0
C1964 C 0.36829 0.72017 0.92282 0.0
C1965 C 0.37641 0.70558 0.90175 0.0
C1966 C 0.36262 0.68371 0.89494 0.0
C1967 C 0.34191 0.67581 0.90979 0.0
loop_
_geom_bond_atom_site_label_1
_geom_bond_atom_site_label_2
_geom_bond_distance
_geom_bond_site_symmetry_2
_ccdc_geom_bond_type
Sc0 O3 2.025 . S
Sc0 O10 2.105 1_455 S
Sc0 O13 2.105 . S
Sc0 O16 2.105 1_455 S
Sc0 O19 2.105 . S
Sc1 O3 2.025 . S
Sc1 O11 2.105 . S
Sc1 O15 2.105 . S
Sc1 O17 2.105 . S
Sc1 O21 2.105 . S
Sc2 O3 2.025 1_655 S
Sc2 O12 2.105 . S
Sc2 O14 2.105 . S
Sc2 O18 2.105 . S
Sc2 O20 2.105 . S
O3 Sc0 2.025 . S
O3 Sc1 2.025 . S
O3 Sc2 2.025 1_455 S
C4 O10 1.268 . S
C4 O20 1.268 . S
C5 O11 1.268 . S
C5 O19 1.268 . S
C6 O12 1.268 1_455 S
C6 O21 1.268 . S
C7 O13 1.268 . S
C7 O17 1.268 . S
C8 O14 1.268 . S
C8 O16 1.268 . S
C9 O15 1.268 . S
C9 O18 1.268 1_455 S
O10 Sc0 2.105 1_655 S
O10 C4 1.268 . S
O11 Sc1 2.105 . S
O11 C5 1.268 . S
O12 Sc2 2.105 . S
O12 C6 1.268 1_655 S
O13 Sc0 2.105 . S
O13 C7 1.268 . S
O14 Sc2 2.105 . S
O14 C8 1.268 . S
O15 Sc1 2.105 . S
O15 C9 1.268 . S
O16 Sc0 2.105 1_655 S
O16 C8 1.268 . S
O17 Sc1 2.105 . S
O17 C7 1.268 . S
O18 Sc2 2.105 . S
O18 C9 1.268 1_655 S
O19 Sc0 2.105 . S
O19 C5 1.268 . S
O20 Sc2 2.105 . S
O20 C4 1.268 . S
O21 Sc1 2.105 . S
O21 C6 1.268 . S
Sc22 O25 2.025 . S
Sc22 O32 2.105 . S
Sc22 O35 2.105 1_545 S
Sc22 O38 2.105 . S
Sc22 O41 2.105 1_545 S
Sc23 O25 2.025 1_565 S
Sc23 O33 2.105 . S
Sc23 O37 2.105 . S
Sc23 O39 2.105 . S
Sc23 O43 2.105 . S
Sc24 O25 2.025 . S
Sc24 O34 2.105 . S
Sc24 O36 2.105 . S
Sc24 O40 2.105 . S
Sc24 O42 2.105 . S
O25 Sc22 2.025 . S
O25 Sc23 2.025 1_545 S
O25 Sc24 2.025 . S
C26 O32 1.268 . S
C26 O42 1.268 . S
C27 O33 1.268 . S
C27 O41 1.268 . S
C28 O34 1.268 . S
C28 O43 1.268 1_545 S
C29 O35 1.268 . S
C29 O39 1.268 . S
C30 O36 1.268 . S
C30 O38 1.268 . S
C31 O37 1.268 1_545 S
C31 O40 1.268 . S
O32 Sc22 2.105 . S
O32 C26 1.268 . S
O33 Sc23 2.105 . S
O33 C27 1.268 . S
O34 Sc24 2.105 . S
O34 C28 1.268 . S
O35 Sc22 2.105 1_565 S
O35 C29 1.268 . S
O36 Sc24 2.105 . S
O36 C30 1.268 . S
O37 Sc23 2.105 . S
O37 C31 1.268 1_565 S
O38 Sc22 2.105 . S
O38 C30 1.268 . S
O39 Sc23 2.105 . S
O39 C29 1.268 . S
O40 Sc24 2.105 . S
O40 C31 1.268 . S
O41 Sc22 2.105 1_565 S
O41 C27 1.268 . S
O42 Sc24 2.105 . S
O42 C26 1.268 . S
O43 Sc23 2.105 . S
O43 C28 1.268 1_565 S
Sc44 O47 2.025 . S
Sc44 O54 2.105 . S
Sc44 O57 2.105 1_455 S
Sc44 O60 2.105 . S
Sc44 O63 2.105 1_455 S
Sc45 O47 2.025 1_655 S
Sc45 O55 2.105 . S
Sc45 O59 2.105 . S
Sc45 O61 2.105 . S
Sc45 O65 2.105 . S
Sc46 O47 2.025 . S
Sc46 O56 2.105 . S
Sc46 O58 2.105 . S
Sc46 O62 2.105 . S
Sc46 O64 2.105 . S
O47 Sc44 2.025 . S
O47 Sc45 2.025 1_455 S
O47 Sc46 2.025 . S
C48 O54 1.268 . S
C48 O64 1.268 . S
C49 O55 1.268 . S
C49 O63 1.268 . S
C50 O56 1.268 . S
C50 O65 1.268 1_455 S
C51 O57 1.268 . S
C51 O61 1.268 . S
C52 O58 1.268 . S
C52 O60 1.268 . S
C53 O59 1.268 1_455 S
C53 O62 1.268 . S
O54 Sc44 2.105 . S
O54 C48 1.268 . S
O55 Sc45 2.105 . S
O55 C49 1.268 . S
O56 Sc46 2.105 . S
O56 C50 1.268 . S
O57 Sc44 2.105 1_655 S
O57 C51 1.268 . S
O58 Sc46 2.105 . S
O58 C52 1.268 . S
O59 Sc45 2.105 . S
O59 C53 1.268 1_655 S
O60 Sc44 2.105 . S
O60 C52 1.268 . S
O61 Sc45 2.105 . S
O61 C51 1.268 . S
O62 Sc46 2.105 . S
O62 C53 1.268 . S
O63 Sc44 2.105 1_655 S
O63 C49 1.268 . S
O64 Sc46 2.105 . S
O64 C48 1.268 . S
O65 Sc45 2.105 . S
O65 C50 1.268 1_655 S
Sc66 O69 2.025 1_565 S
Sc66 O76 2.105 . S
Sc66 O79 2.105 . S
Sc66 O82 2.105 . S
Sc66 O85 2.105 . S
Sc67 O69 2.025 . S
Sc67 O77 2.105 . S
Sc67 O81 2.105 . S
Sc67 O83 2.105 . S
Sc67 O87 2.105 . S
Sc68 O69 2.025 . S
Sc68 O78 2.105 . S
Sc68 O80 2.105 1_545 S
Sc68 O84 2.105 . S
Sc68 O86 2.105 1_545 S
O69 Sc66 2.025 1_545 S
O69 Sc67 2.025 . S
O69 Sc68 2.025 . S
C70 O76 1.268 . S
C70 O86 1.268 . S
C71 O77 1.268 . S
C71 O85 1.268 1_545 S
C72 O78 1.268 . S
C72 O87 1.268 . S
C73 O79 1.268 1_545 S
C73 O83 1.268 . S
C74 O80 1.268 . S
C74 O82 1.268 . S
C75 O81 1.268 . S
C75 O84 1.268 . S
O76 Sc66 2.105 . S
O76 C70 1.268 . S
O77 Sc67 2.105 . S
O77 C71 1.268 . S
O78 Sc68 2.105 . S
O78 C72 1.268 . S
O79 Sc66 2.105 . S
O79 C73 1.268 1_565 S
O80 Sc68 2.105 1_565 S
O80 C74 1.268 . S
O81 Sc67 2.105 . S
O81 C75 1.268 . S
O82 Sc66 2.105 . S
O82 C74 1.268 . S
O83 Sc67 2.105 . S
O83 C73 1.268 . S
O84 Sc68 2.105 . S
O84 C75 1.268 . S
O85 Sc66 2.105 . S
O85 C71 1.268 1_565 S
O86 Sc68 2.105 1_565 S
O86 C70 1.268 . S
O87 Sc67 2.105 . S
O87 C72 1.268 . S
Sc88 O91 2.025 . S
Sc88 O98 2.105 . S
Sc88 O101 2.105 . S
Sc88 O104 2.105 . S
Sc88 O107 2.105 . S
Sc89 O91 2.025 1_655 S
Sc89 O99 2.105 . S
Sc89 O103 2.105 . S
Sc89 O105 2.105 . S
Sc89 O109 2.105 . S
Sc90 O91 2.025 . S
Sc90 O100 2.105 1_455 S
Sc90 O102 2.105 . S
Sc90 O106 2.105 1_455 S
Sc90 O108 2.105 . S
O91 Sc88 2.025 . S
O91 Sc89 2.025 1_455 S
O91 Sc90 2.025 . S
C92 O98 1.268 . S
C92 O108 1.268 . S
C93 O99 1.268 1_455 S
C93 O107 1.268 . S
C94 O100 1.268 . S
C94 O109 1.268 . S
C95 O101 1.268 . S
C95 O105 1.268 1_455 S
C96 O102 1.268 . S
C96 O104 1.268 . S
C97 O103 1.268 . S
C97 O106 1.268 . S
O98 Sc88 2.105 . S
O98 C92 1.268 . S
O99 Sc89 2.105 . S
O99 C93 1.268 1_655 S
O100 Sc90 2.105 1_655 S
O100 C94 1.268 . S
O101 Sc88 2.105 . S
O101 C95 1.268 . S
O102 Sc90 2.105 . S
O102 C96 1.268 . S
O103 Sc89 2.105 . S
O103 C97 1.268 . S
O104 Sc88 2.105 . S
O104 C96 1.268 . S
O105 Sc89 2.105 . S
O105 C95 1.268 1_655 S
O106 Sc90 2.105 1_655 S
O106 C97 1.268 . S
O107 Sc88 2.105 . S
O107 C93 1.268 . S
O108 Sc90 2.105 . S
O108 C92 1.268 . S
O109 Sc89 2.105 . S
O109 C94 1.268 . S
Sc110 O113 2.025 1_565 S
Sc110 O120 2.105 . S
Sc110 O123 2.105 . S
Sc110 O126 2.105 . S
Sc110 O129 2.105 . S
Sc111 O113 2.025 . S
Sc111 O121 2.105 . S
Sc111 O125 2.105 . S
Sc111 O127 2.105 . S
Sc111 O131 2.105 . S
Sc112 O113 2.025 . S
Sc112 O122 2.105 . S
Sc112 O124 2.105 1_545 S
Sc112 O128 2.105 . S
Sc112 O130 2.105 1_545 S
O113 Sc110 2.025 1_545 S
O113 Sc111 2.025 . S
O113 Sc112 2.025 . S
C114 O120 1.268 . S
C114 O130 1.268 . S
C115 O121 1.268 . S
C115 O129 1.268 1_545 S
C116 O122 1.268 . S
C116 O131 1.268 . S
C117 O123 1.268 1_545 S
C117 O127 1.268 . S
C118 O124 1.268 . S
C118 O126 1.268 . S
C119 O125 1.268 . S
C119 O128 1.268 . S
O120 Sc110 2.105 . S
O120 C114 1.268 . S
O121 Sc111 2.105 . S
O121 C115 1.268 . S
O122 Sc112 2.105 . S
O122 C116 1.268 . S
O123 Sc110 2.105 . S
O123 C117 1.268 1_565 S
O124 Sc112 2.105 1_565 S
O124 C118 1.268 . S
O125 Sc111 2.105 . S
O125 C119 1.268 . S
O126 Sc110 2.105 . S
O126 C118 1.268 . S
O127 Sc111 2.105 . S
O127 C117 1.268 . S
O128 Sc112 2.105 . S
O128 C119 1.268 . S
O129 Sc110 2.105 . S
O129 C115 1.268 1_565 S
O130 Sc112 2.105 1_565 S
O130 C114 1.268 . S
O131 Sc111 2.105 . S
O131 C116 1.268 . S
Sc132 O135 2.025 . S
Sc132 O142 2.105 1_455 S
Sc132 O145 2.105 . S
Sc132 O148 2.105 1_455 S
Sc132 O151 2.105 . S
Sc133 O135 2.025 . S
Sc133 O143 2.105 . S
Sc133 O147 2.105 . S
Sc133 O149 2.105 . S
Sc133 O153 2.105 . S
Sc134 O135 2.025 1_655 S
Sc134 O144 2.105 . S
Sc134 O146 2.105 . S
Sc134 O150 2.105 . S
Sc134 O152 2.105 . S
O135 Sc132 2.025 . S
O135 Sc133 2.025 . S
O135 Sc134 2.025 1_455 S
C136 O142 1.268 . S
C136 O152 1.268 . S
C137 O143 1.268 . S
C137 O151 1.268 . S
C138 O144 1.268 1_455 S
C138 O153 1.268 . S
C139 O145 1.268 . S
C139 O149 1.268 . S
C140 O146 1.268 . S
C140 O148 1.268 . S
C141 O147 1.268 . S
C141 O150 1.268 1_455 S
O142 Sc132 2.105 1_655 S
O142 C136 1.268 . S
O143 Sc133 2.105 . S
O143 C137 1.268 . S
O144 Sc134 2.105 . S
O144 C138 1.268 1_655 S
O145 Sc132 2.105 . S
O145 C139 1.268 . S
O146 Sc134 2.105 . S
O146 C140 1.268 . S
O147 Sc133 2.105 . S
O147 C141 1.268 . S
O148 Sc132 2.105 1_655 S
O148 C140 1.268 . S
O149 Sc133 2.105 . S
O149 C139 1.268 . S
O150 Sc134 2.105 . S
O150 C141 1.268 1_655 S
O151 Sc132 2.105 . S
O151 C137 1.268 . S
O152 Sc134 2.105 . S
O152 C136 1.268 . S
O153 Sc133 2.105 . S
O153 C138 1.268 . S
Sc154 O157 2.025 . S
Sc154 O164 2.105 . S
Sc154 O167 2.105 . S
Sc154 O170 2.105 . S
Sc154 O173 2.105 . S
Sc155 O157 2.025 1_565 S
Sc155 O165 2.105 . S
Sc155 O169 2.105 . S
Sc155 O171 2.105 . S
Sc155 O175 2.105 . S
Sc156 O157 2.025 . S
Sc156 O166 2.105 1_545 S
Sc156 O168 2.105 . S
Sc156 O172 2.105 1_545 S
Sc156 O174 2.105 . S
O157 Sc154 2.025 . S
O157 Sc155 2.025 1_545 S
O157 Sc156 2.025 . S
C158 O164 1.268 . S
C158 O174 1.268 . S
C159 O165 1.268 1_545 S
C159 O173 1.268 . S
C160 O166 1.268 . S
C160 O175 1.268 . S
C161 O167 1.268 . S
C161 O171 1.268 1_545 S
C162 O168 1.268 . S
C162 O170 1.268 . S
C163 O169 1.268 . S
C163 O172 1.268 . S
O164 Sc154 2.105 . S
O164 C158 1.268 . S
O165 Sc155 2.105 . S
O165 C159 1.268 1_565 S
O166 Sc156 2.105 1_565 S
O166 C160 1.268 . S
O167 Sc154 2.105 . S
O167 C161 1.268 . S
O168 Sc156 2.105 . S
O168 C162 1.268 . S
O169 Sc155 2.105 . S
O169 C163 1.268 . S
O170 Sc154 2.105 . S
O170 C162 1.268 . S
O171 Sc155 2.105 . S
O171 C161 1.268 1_565 S
O172 Sc156 2.105 1_565 S
O172 C163 1.268 . S
O173 Sc154 2.105 . S
O173 C159 1.268 . S
O174 Sc156 2.105 . S
O174 C158 1.268 . S
O175 Sc155 2.105 . S
O175 C160 1.268 . S
Sc176 O179 2.025 1_556 S
Sc176 O186 2.105 . S
Sc176 O189 2.105 . S
Sc176 O192 2.105 . S
Sc176 O195 2.105 . S
Sc177 O179 2.025 . S
Sc177 O187 2.105 . S
Sc177 O191 2.105 . S
Sc177 O193 2.105 . S
Sc177 O197 2.105 . S
Sc178 O179 2.025 . S
Sc178 O188 2.105 . S
Sc178 O190 2.105 1_554 S
Sc178 O194 2.105 . S
Sc178 O196 2.105 1_554 S
O179 Sc176 2.025 1_554 S
O179 Sc177 2.025 . S
O179 Sc178 2.025 . S
C180 O186 1.268 . S
C180 O196 1.268 . S
C181 O187 1.268 . S
C181 O195 1.268 1_554 S
C182 O188 1.268 . S
C182 O197 1.268 . S
C183 O189 1.268 1_554 S
C183 O193 1.268 . S
C184 O190 1.268 . S
C184 O192 1.268 . S
C185 O191 1.268 . S
C185 O194 1.268 . S
O186 Sc176 2.105 . S
O186 C180 1.268 . S
O187 Sc177 2.105 . S
O187 C181 1.268 . S
O188 Sc178 2.105 . S
O188 C182 1.268 . S
O189 Sc176 2.105 . S
O189 C183 1.268 1_556 S
O190 Sc178 2.105 1_556 S
O190 C184 1.268 . S
O191 Sc177 2.105 . S
O191 C185 1.268 . S
O192 Sc176 2.105 . S
O192 C184 1.268 . S
O193 Sc177 2.105 . S
O193 C183 1.268 . S
O194 Sc178 2.105 . S
O194 C185 1.268 . S
O195 Sc176 2.105 . S
O195 C181 1.268 1_556 S
O196 Sc178 2.105 1_556 S
O196 C180 1.268 . S
O197 Sc177 2.105 . S
O197 C182 1.268 . S
Sc198 O201 2.025 . S
Sc198 O208 2.105 . S
Sc198 O211 2.105 1_554 S
Sc198 O214 2.105 . S
Sc198 O217 2.105 1_554 S
Sc199 O201 2.025 1_556 S
Sc199 O209 2.105 . S
Sc199 O213 2.105 . S
Sc199 O215 2.105 . S
Sc199 O219 2.105 . S
Sc200 O201 2.025 . S
Sc200 O210 2.105 . S
Sc200 O212 2.105 . S
Sc200 O216 2.105 . S
Sc200 O218 2.105 . S
O201 Sc198 2.025 . S
O201 Sc199 2.025 1_554 S
O201 Sc200 2.025 . S
C202 O208 1.268 . S
C202 O218 1.268 . S
C203 O209 1.268 . S
C203 O217 1.268 . S
C204 O210 1.268 . S
C204 O219 1.268 1_554 S
C205 O211 1.268 . S
C205 O215 1.268 . S
C206 O212 1.268 . S
C206 O214 1.268 . S
C207 O213 1.268 1_554 S
C207 O216 1.268 . S
O208 Sc198 2.105 . S
O208 C202 1.268 . S
O209 Sc199 2.105 . S
O209 C203 1.268 . S
O210 Sc200 2.105 . S
O210 C204 1.268 . S
O211 Sc198 2.105 1_556 S
O211 C205 1.268 . S
O212 Sc200 2.105 . S
O212 C206 1.268 . S
O213 Sc199 2.105 . S
O213 C207 1.268 1_556 S
O214 Sc198 2.105 . S
O214 C206 1.268 . S
O215 Sc199 2.105 . S
O215 C205 1.268 . S
O216 Sc200 2.105 . S
O216 C207 1.268 . S
O217 Sc198 2.105 1_556 S
O217 C203 1.268 . S
O218 Sc200 2.105 . S
O218 C202 1.268 . S
O219 Sc199 2.105 . S
O219 C204 1.268 1_556 S
Sc220 O223 2.025 . S
Sc220 O230 2.105 1_554 S
Sc220 O233 2.105 . S
Sc220 O236 2.105 1_554 S
Sc220 O239 2.105 . S
Sc221 O223 2.025 . S
Sc221 O231 2.105 . S
Sc221 O235 2.105 . S
Sc221 O237 2.105 . S
Sc221 O241 2.105 . S
Sc222 O223 2.025 1_556 S
Sc222 O232 2.105 . S
Sc222 O234 2.105 . S
Sc222 O238 2.105 . S
Sc222 O240 2.105 . S
O223 Sc220 2.025 . S
O223 Sc221 2.025 . S
O223 Sc222 2.025 1_554 S
C224 O230 1.268 . S
C224 O240 1.268 . S
C225 O231 1.268 . S
C225 O239 1.268 . S
C226 O232 1.268 1_554 S
C226 O241 1.268 . S
C227 O233 1.268 . S
C227 O237 1.268 . S
C228 O234 1.268 . S
C228 O236 1.268 . S
C229 O235 1.268 . S
C229 O238 1.268 1_554 S
O230 Sc220 2.105 1_556 S
O230 C224 1.268 . S
O231 Sc221 2.105 . S
O231 C225 1.268 . S
O232 Sc222 2.105 . S
O232 C226 1.268 1_556 S
O233 Sc220 2.105 . S
O233 C227 1.268 . S
O234 Sc222 2.105 . S
O234 C228 1.268 . S
O235 Sc221 2.105 . S
O235 C229 1.268 . S
O236 Sc220 2.105 1_556 S
O236 C228 1.268 . S
O237 Sc221 2.105 . S
O237 C227 1.268 . S
O238 Sc222 2.105 . S
O238 C229 1.268 1_556 S
O239 Sc220 2.105 . S
O239 C225 1.268 . S
O240 Sc222 2.105 . S
O240 C224 1.268 . S
O241 Sc221 2.105 . S
O241 C226 1.268 . S
Sc242 O245 2.025 . S
Sc242 O252 2.105 . S
Sc242 O255 2.105 . S
Sc242 O258 2.105 . S
Sc242 O261 2.105 . S
Sc243 O245 2.025 1_556 S
Sc243 O253 2.105 . S
Sc243 O257 2.105 . S
Sc243 O259 2.105 . S
Sc243 O263 2.105 . S
Sc244 O245 2.025 . S
Sc244 O254 2.105 1_554 S
Sc244 O256 2.105 . S
Sc244 O260 2.105 1_554 S
Sc244 O262 2.105 . S
O245 Sc242 2.025 . S
O245 Sc243 2.025 1_554 S
O245 Sc244 2.025 . S
C246 O252 1.268 . S
C246 O262 1.268 . S
C247 O253 1.268 1_554 S
C247 O261 1.268 . S
C248 O254 1.268 . S
C248 O263 1.268 . S
C249 O255 1.268 . S
C249 O259 1.268 1_554 S
C250 O256 1.268 . S
C250 O258 1.268 . S
C251 O257 1.268 . S
C251 O260 1.268 . S
O252 Sc242 2.105 . S
O252 C246 1.268 . S
O253 Sc243 2.105 . S
O253 C247 1.268 1_556 S
O254 Sc244 2.105 1_556 S
O254 C248 1.268 . S
O255 Sc242 2.105 . S
O255 C249 1.268 . S
O256 Sc244 2.105 . S
O256 C250 1.268 . S
O257 Sc243 2.105 . S
O257 C251 1.268 . S
O258 Sc242 2.105 . S
O258 C250 1.268 . S
O259 Sc243 2.105 . S
O259 C249 1.268 1_556 S
O260 Sc244 2.105 1_556 S
O260 C251 1.268 . S
O261 Sc242 2.105 . S
O261 C247 1.268 . S
O262 Sc244 2.105 . S
O262 C246 1.268 . S
O263 Sc243 2.105 . S
O263 C248 1.268 . S
Sc264 O267 2.025 . S
Sc264 O274 2.105 . S
Sc264 O277 2.105 . S
Sc264 O280 2.105 . S
Sc264 O283 2.105 . S
Sc265 O267 2.025 . S
Sc265 O275 2.105 . S
Sc265 O279 2.105 . S
Sc265 O281 2.105 . S
Sc265 O285 2.105 . S
Sc266 O267 2.025 . S
Sc266 O276 2.105 . S
Sc266 O278 2.105 . S
Sc266 O282 2.105 . S
Sc266 O284 2.105 . S
O267 Sc264 2.025 . S
O267 Sc265 2.025 . S
O267 Sc266 2.025 . S
C268 O274 1.268 . S
C268 O284 1.268 . S
C269 O275 1.268 . S
C269 O283 1.268 . S
C270 O276 1.268 . S
C270 O285 1.268 . S
C271 O277 1.268 . S
C271 O281 1.268 . S
C272 O278 1.268 . S
C272 O280 1.268 . S
C273 O279 1.268 . S
C273 O282 1.268 . S
O274 Sc264 2.105 . S
O274 C268 1.268 . S
O275 Sc265 2.105 . S
O275 C269 1.268 . S
O276 Sc266 2.105 . S
O276 C270 1.268 . S
O277 Sc264 2.105 . S
O277 C271 1.268 . S
O278 Sc266 2.105 . S
O278 C272 1.268 . S
O279 Sc265 2.105 . S
O279 C273 1.268 . S
O280 Sc264 2.105 . S
O280 C272 1.268 . S
O281 Sc265 2.105 . S
O281 C271 1.268 . S
O282 Sc266 2.105 . S
O282 C273 1.268 . S
O283 Sc264 2.105 . S
O283 C269 1.268 . S
O284 Sc266 2.105 . S
O284 C268 1.268 . S
O285 Sc265 2.105 . S
O285 C270 1.268 . S
Sc286 O289 2.025 . S
Sc286 O296 2.105 . S
Sc286 O299 2.105 . S
Sc286 O302 2.105 . S
Sc286 O305 2.105 . S
Sc287 O289 2.025 . S
Sc287 O297 2.105 . S
Sc287 O301 2.105 . S
Sc287 O303 2.105 . S
Sc287 O307 2.105 . S
Sc288 O289 2.025 . S
Sc288 O298 2.105 . S
Sc288 O300 2.105 . S
Sc288 O304 2.105 . S
Sc288 O306 2.105 . S
O289 Sc286 2.025 . S
O289 Sc287 2.025 . S
O289 Sc288 2.025 . S
C290 O296 1.268 . S
C290 O306 1.268 . S
C291 O297 1.268 . S
C291 O305 1.268 . S
C292 O298 1.268 . S
C292 O307 1.268 . S
C293 O299 1.268 . S
C293 O303 1.268 . S
C294 O300 1.268 . S
C294 O302 1.268 . S
C295 O301 1.268 . S
C295 O304 1.268 . S
O296 Sc286 2.105 . S
O296 C290 1.268 . S
O297 Sc287 2.105 . S
O297 C291 1.268 . S
O298 Sc288 2.105 . S
O298 C292 1.268 . S
O299 Sc286 2.105 . S
O299 C293 1.268 . S
O300 Sc288 2.105 . S
O300 C294 1.268 . S
O301 Sc287 2.105 . S
O301 C295 1.268 . S
O302 Sc286 2.105 . S
O302 C294 1.268 . S
O303 Sc287 2.105 . S
O303 C293 1.268 . S
O304 Sc288 2.105 . S
O304 C295 1.268 . S
O305 Sc286 2.105 . S
O305 C291 1.268 . S
O306 Sc288 2.105 . S
O306 C290 1.268 . S
O307 Sc287 2.105 . S
O307 C292 1.268 . S
Sc308 O311 2.025 . S
Sc308 O318 2.105 . S
Sc308 O321 2.105 . S
Sc308 O324 2.105 . S
Sc308 O327 2.105 . S
Sc309 O311 2.025 . S
Sc309 O319 2.105 . S
Sc309 O323 2.105 . S
Sc309 O325 2.105 . S
Sc309 O329 2.105 . S
Sc310 O311 2.025 . S
Sc310 O320 2.105 . S
Sc310 O322 2.105 . S
Sc310 O326 2.105 . S
Sc310 O328 2.105 . S
O311 Sc308 2.025 . S
O311 Sc309 2.025 . S
O311 Sc310 2.025 . S
C312 O318 1.268 . S
C312 O328 1.268 . S
C313 O319 1.268 . S
C313 O327 1.268 . S
C314 O320 1.268 . S
C314 O329 1.268 . S
C315 O321 1.268 . S
C315 O325 1.268 . S
C316 O322 1.268 . S
C316 O324 1.268 . S
C317 O323 1.268 . S
C317 O326 1.268 . S
O318 Sc308 2.105 . S
O318 C312 1.268 . S
O319 Sc309 2.105 . S
O319 C313 1.268 . S
O320 Sc310 2.105 . S
O320 C314 1.268 . S
O321 Sc308 2.105 . S
O321 C315 1.268 . S
O322 Sc310 2.105 . S
O322 C316 1.268 . S
O323 Sc309 2.105 . S
O323 C317 1.268 . S
O324 Sc308 2.105 . S
O324 C316 1.268 . S
O325 Sc309 2.105 . S
O325 C315 1.268 . S
O326 Sc310 2.105 . S
O326 C317 1.268 . S
O327 Sc308 2.105 . S
O327 C313 1.268 . S
O328 Sc310 2.105 . S
O328 C312 1.268 . S
O329 Sc309 2.105 . S
O329 C314 1.268 . S
Sc330 O333 2.025 . S
Sc330 O340 2.105 . S
Sc330 O343 2.105 . S
Sc330 O346 2.105 . S
Sc330 O349 2.105 . S
Sc331 O333 2.025 . S
Sc331 O341 2.105 . S
Sc331 O345 2.105 . S
Sc331 O347 2.105 . S
Sc331 O351 2.105 . S
Sc332 O333 2.025 . S
Sc332 O342 2.105 . S
Sc332 O344 2.105 . S
Sc332 O348 2.105 . S
Sc332 O350 2.105 . S
O333 Sc330 2.025 . S
O333 Sc331 2.025 . S
O333 Sc332 2.025 . S
C334 O340 1.268 . S
C334 O350 1.268 . S
C335 O341 1.268 . S
C335 O349 1.268 . S
C336 O342 1.268 . S
C336 O351 1.268 . S
C337 O343 1.268 . S
C337 O347 1.268 . S
C338 O344 1.268 . S
C338 O346 1.268 . S
C339 O345 1.268 . S
C339 O348 1.268 . S
O340 Sc330 2.105 . S
O340 C334 1.268 . S
O341 Sc331 2.105 . S
O341 C335 1.268 . S
O342 Sc332 2.105 . S
O342 C336 1.268 . S
O343 Sc330 2.105 . S
O343 C337 1.268 . S
O344 Sc332 2.105 . S
O344 C338 1.268 . S
O345 Sc331 2.105 . S
O345 C339 1.268 . S
O346 Sc330 2.105 . S
O346 C338 1.268 . S
O347 Sc331 2.105 . S
O347 C337 1.268 . S
O348 Sc332 2.105 . S
O348 C339 1.268 . S
O349 Sc330 2.105 . S
O349 C335 1.268 . S
O350 Sc332 2.105 . S
O350 C334 1.268 . S
O351 Sc331 2.105 . S
O351 C336 1.268 . S
Sc352 O355 2.025 . S
Sc352 O362 2.105 . S
Sc352 O365 2.105 . S
Sc352 O368 2.105 . S
Sc352 O371 2.105 . S
Sc353 O355 2.025 . S
Sc353 O363 2.105 . S
Sc353 O367 2.105 . S
Sc353 O369 2.105 . S
Sc353 O373 2.105 . S
Sc354 O355 2.025 . S
Sc354 O364 2.105 . S
Sc354 O366 2.105 . S
Sc354 O370 2.105 . S
Sc354 O372 2.105 . S
O355 Sc352 2.025 . S
O355 Sc353 2.025 . S
O355 Sc354 2.025 . S
C356 O362 1.268 . S
C356 O372 1.268 . S
C357 O363 1.268 . S
C357 O371 1.268 . S
C358 O364 1.268 . S
C358 O373 1.268 . S
C359 O365 1.268 . S
C359 O369 1.268 . S
C360 O366 1.268 . S
C360 O368 1.268 . S
C361 O367 1.268 . S
C361 O370 1.268 . S
O362 Sc352 2.105 . S
O362 C356 1.268 . S
O363 Sc353 2.105 . S
O363 C357 1.268 . S
O364 Sc354 2.105 . S
O364 C358 1.268 . S
O365 Sc352 2.105 . S
O365 C359 1.268 . S
O366 Sc354 2.105 . S
O366 C360 1.268 . S
O367 Sc353 2.105 . S
O367 C361 1.268 . S
O368 Sc352 2.105 . S
O368 C360 1.268 . S
O369 Sc353 2.105 . S
O369 C359 1.268 . S
O370 Sc354 2.105 . S
O370 C361 1.268 . S
O371 Sc352 2.105 . S
O371 C357 1.268 . S
O372 Sc354 2.105 . S
O372 C356 1.268 . S
O373 Sc353 2.105 . S
O373 C358 1.268 . S
Sc374 O377 2.025 . S
Sc374 O384 2.105 . S
Sc374 O387 2.105 . S
Sc374 O390 2.105 . S
Sc374 O393 2.105 . S
Sc375 O377 2.025 . S
Sc375 O385 2.105 . S
Sc375 O389 2.105 . S
Sc375 O391 2.105 . S
Sc375 O395 2.105 . S
Sc376 O377 2.025 . S
Sc376 O386 2.105 . S
Sc376 O388 2.105 . S
Sc376 O392 2.105 . S
Sc376 O394 2.105 . S
O377 Sc374 2.025 . S
O377 Sc375 2.025 . S
O377 Sc376 2.025 . S
C378 O384 1.268 . S
C378 O394 1.268 . S
C379 O385 1.268 . S
C379 O393 1.268 . S
C380 O386 1.268 . S
C380 O395 1.268 . S
C381 O387 1.268 . S
C381 O391 1.268 . S
C382 O388 1.268 . S
C382 O390 1.268 . S
C383 O389 1.268 . S
C383 O392 1.268 . S
O384 Sc374 2.105 . S
O384 C378 1.268 . S
O385 Sc375 2.105 . S
O385 C379 1.268 . S
O386 Sc376 2.105 . S
O386 C380 1.268 . S
O387 Sc374 2.105 . S
O387 C381 1.268 . S
O388 Sc376 2.105 . S
O388 C382 1.268 . S
O389 Sc375 2.105 . S
O389 C383 1.268 . S
O390 Sc374 2.105 . S
O390 C382 1.268 . S
O391 Sc375 2.105 . S
O391 C381 1.268 . S
O392 Sc376 2.105 . S
O392 C383 1.268 . S
O393 Sc374 2.105 . S
O393 C379 1.268 . S
O394 Sc376 2.105 . S
O394 C378 1.268 . S
O395 Sc375 2.105 . S
O395 C380 1.268 . S
Sc396 O399 2.025 . S
Sc396 O406 2.105 . S
Sc396 O409 2.105 . S
Sc396 O412 2.105 . S
Sc396 O415 2.105 . S
Sc397 O399 2.025 . S
Sc397 O407 2.105 . S
Sc397 O411 2.105 . S
Sc397 O413 2.105 . S
Sc397 O417 2.105 . S
Sc398 O399 2.025 . S
Sc398 O408 2.105 . S
Sc398 O410 2.105 . S
Sc398 O414 2.105 . S
Sc398 O416 2.105 . S
O399 Sc396 2.025 . S
O399 Sc397 2.025 . S
O399 Sc398 2.025 . S
C400 O406 1.268 . S
C400 O416 1.268 . S
C401 O407 1.268 . S
C401 O415 1.268 . S
C402 O408 1.268 . S
C402 O417 1.268 . S
C403 O409 1.268 . S
C403 O413 1.268 . S
C404 O410 1.268 . S
C404 O412 1.268 . S
C405 O411 1.268 . S
C405 O414 1.268 . S
O406 Sc396 2.105 . S
O406 C400 1.268 . S
O407 Sc397 2.105 . S
O407 C401 1.268 . S
O408 Sc398 2.105 . S
O408 C402 1.268 . S
O409 Sc396 2.105 . S
O409 C403 1.268 . S
O410 Sc398 2.105 . S
O410 C404 1.268 . S
O411 Sc397 2.105 . S
O411 C405 1.268 . S
O412 Sc396 2.105 . S
O412 C404 1.268 . S
O413 Sc397 2.105 . S
O413 C403 1.268 . S
O414 Sc398 2.105 . S
O414 C405 1.268 . S
O415 Sc396 2.105 . S
O415 C401 1.268 . S
O416 Sc398 2.105 . S
O416 C400 1.268 . S
O417 Sc397 2.105 . S
O417 C402 1.268 . S
Sc418 O421 2.025 . S
Sc418 O428 2.105 . S
Sc418 O431 2.105 . S
Sc418 O434 2.105 . S
Sc418 O437 2.105 . S
Sc419 O421 2.025 . S
Sc419 O429 2.105 . S
Sc419 O433 2.105 . S
Sc419 O435 2.105 . S
Sc419 O439 2.105 . S
Sc420 O421 2.025 . S
Sc420 O430 2.105 . S
Sc420 O432 2.105 . S
Sc420 O436 2.105 . S
Sc420 O438 2.105 . S
O421 Sc418 2.025 . S
O421 Sc419 2.025 . S
O421 Sc420 2.025 . S
C422 O428 1.268 . S
C422 O438 1.268 . S
C423 O429 1.268 . S
C423 O437 1.268 . S
C424 O430 1.268 . S
C424 O439 1.268 . S
C425 O431 1.268 . S
C425 O435 1.268 . S
C426 O432 1.268 . S
C426 O434 1.268 . S
C427 O433 1.268 . S
C427 O436 1.268 . S
O428 Sc418 2.105 . S
O428 C422 1.268 . S
O429 Sc419 2.105 . S
O429 C423 1.268 . S
O430 Sc420 2.105 . S
O430 C424 1.268 . S
O431 Sc418 2.105 . S
O431 C425 1.268 . S
O432 Sc420 2.105 . S
O432 C426 1.268 . S
O433 Sc419 2.105 . S
O433 C427 1.268 . S
O434 Sc418 2.105 . S
O434 C426 1.268 . S
O435 Sc419 2.105 . S
O435 C425 1.268 . S
O436 Sc420 2.105 . S
O436 C427 1.268 . S
O437 Sc418 2.105 . S
O437 C423 1.268 . S
O438 Sc420 2.105 . S
O438 C422 1.268 . S
O439 Sc419 2.105 . S
O439 C424 1.268 . S
Sc440 O443 2.025 . S
Sc440 O450 2.105 . S
Sc440 O453 2.105 . S
Sc440 O456 2.105 . S
Sc440 O459 2.105 . S
Sc441 O443 2.025 . S
Sc441 O451 2.105 . S
Sc441 O455 2.105 . S
Sc441 O457 2.105 . S
Sc441 O461 2.105 . S
Sc442 O443 2.025 . S
Sc442 O452 2.105 . S
Sc442 O454 2.105 . S
Sc442 O458 2.105 . S
Sc442 O460 2.105 . S
O443 Sc440 2.025 . S
O443 Sc441 2.025 . S
O443 Sc442 2.025 . S
C444 O450 1.268 . S
C444 O460 1.268 . S
C445 O451 1.268 . S
C445 O459 1.268 . S
C446 O452 1.268 . S
C446 O461 1.268 . S
C447 O453 1.268 . S
C447 O457 1.268 . S
C448 O454 1.268 . S
C448 O456 1.268 . S
C449 O455 1.268 . S
C449 O458 1.268 . S
O450 Sc440 2.105 . S
O450 C444 1.268 . S
O451 Sc441 2.105 . S
O451 C445 1.268 . S
O452 Sc442 2.105 . S
O452 C446 1.268 . S
O453 Sc440 2.105 . S
O453 C447 1.268 . S
O454 Sc442 2.105 . S
O454 C448 1.268 . S
O455 Sc441 2.105 . S
O455 C449 1.268 . S
O456 Sc440 2.105 . S
O456 C448 1.268 . S
O457 Sc441 2.105 . S
O457 C447 1.268 . S
O458 Sc442 2.105 . S
O458 C449 1.268 . S
O459 Sc440 2.105 . S
O459 C445 1.268 . S
O460 Sc442 2.105 . S
O460 C444 1.268 . S
O461 Sc441 2.105 . S
O461 C446 1.268 . S
Sc462 O465 2.025 . S
Sc462 O472 2.105 . S
Sc462 O475 2.105 . S
Sc462 O478 2.105 . S
Sc462 O481 2.105 . S
Sc463 O465 2.025 . S
Sc463 O473 2.105 . S
Sc463 O477 2.105 . S
Sc463 O479 2.105 . S
Sc463 O483 2.105 . S
Sc464 O465 2.025 . S
Sc464 O474 2.105 . S
Sc464 O476 2.105 . S
Sc464 O480 2.105 . S
Sc464 O482 2.105 . S
O465 Sc462 2.025 . S
O465 Sc463 2.025 . S
O465 Sc464 2.025 . S
C466 O472 1.268 . S
C466 O482 1.268 . S
C467 O473 1.268 . S
C467 O481 1.268 . S
C468 O474 1.268 . S
C468 O483 1.268 . S
C469 O475 1.268 . S
C469 O479 1.268 . S
C470 O476 1.268 . S
C470 O478 1.268 . S
C471 O477 1.268 . S
C471 O480 1.268 . S
O472 Sc462 2.105 . S
O472 C466 1.268 . S
O473 Sc463 2.105 . S
O473 C467 1.268 . S
O474 Sc464 2.105 . S
O474 C468 1.268 . S
O475 Sc462 2.105 . S
O475 C469 1.268 . S
O476 Sc464 2.105 . S
O476 C470 1.268 . S
O477 Sc463 2.105 . S
O477 C471 1.268 . S
O478 Sc462 2.105 . S
O478 C470 1.268 . S
O479 Sc463 2.105 . S
O479 C469 1.268 . S
O480 Sc464 2.105 . S
O480 C471 1.268 . S
O481 Sc462 2.105 . S
O481 C467 1.268 . S
O482 Sc464 2.105 . S
O482 C466 1.268 . S
O483 Sc463 2.105 . S
O483 C468 1.268 . S
Sc484 O487 2.025 . S
Sc484 O494 2.105 . S
Sc484 O497 2.105 . S
Sc484 O500 2.105 . S
Sc484 O503 2.105 . S
Sc485 O487 2.025 . S
Sc485 O495 2.105 . S
Sc485 O499 2.105 . S
Sc485 O501 2.105 . S
Sc485 O505 2.105 . S
Sc486 O487 2.025 . S
Sc486 O496 2.105 . S
Sc486 O498 2.105 . S
Sc486 O502 2.105 . S
Sc486 O504 2.105 . S
O487 Sc484 2.025 . S
O487 Sc485 2.025 . S
O487 Sc486 2.025 . S
C488 O494 1.268 . S
C488 O504 1.268 . S
C489 O495 1.268 . S
C489 O503 1.268 . S
C490 O496 1.268 . S
C490 O505 1.268 . S
C491 O497 1.268 . S
C491 O501 1.268 . S
C492 O498 1.268 . S
C492 O500 1.268 . S
C493 O499 1.268 . S
C493 O502 1.268 . S
O494 Sc484 2.105 . S
O494 C488 1.268 . S
O495 Sc485 2.105 . S
O495 C489 1.268 . S
O496 Sc486 2.105 . S
O496 C490 1.268 . S
O497 Sc484 2.105 . S
O497 C491 1.268 . S
O498 Sc486 2.105 . S
O498 C492 1.268 . S
O499 Sc485 2.105 . S
O499 C493 1.268 . S
O500 Sc484 2.105 . S
O500 C492 1.268 . S
O501 Sc485 2.105 . S
O501 C491 1.268 . S
O502 Sc486 2.105 . S
O502 C493 1.268 . S
O503 Sc484 2.105 . S
O503 C489 1.268 . S
O504 Sc486 2.105 . S
O504 C488 1.268 . S
O505 Sc485 2.105 . S
O505 C490 1.268 . S
Sc506 O509 2.025 . S
Sc506 O516 2.105 . S
Sc506 O519 2.105 . S
Sc506 O522 2.105 . S
Sc506 O525 2.105 . S
Sc507 O509 2.025 . S
Sc507 O517 2.105 . S
Sc507 O521 2.105 . S
Sc507 O523 2.105 . S
Sc507 O527 2.105 . S
Sc508 O509 2.025 . S
Sc508 O518 2.105 . S
Sc508 O520 2.105 . S
Sc508 O524 2.105 . S
Sc508 O526 2.105 . S
O509 Sc506 2.025 . S
O509 Sc507 2.025 . S
O509 Sc508 2.025 . S
C510 O516 1.268 . S
C510 O526 1.268 . S
C511 O517 1.268 . S
C511 O525 1.268 . S
C512 O518 1.268 . S
C512 O527 1.268 . S
C513 O519 1.268 . S
C513 O523 1.268 . S
C514 O520 1.268 . S
C514 O522 1.268 . S
C515 O521 1.268 . S
C515 O524 1.268 . S
O516 Sc506 2.105 . S
O516 C510 1.268 . S
O517 Sc507 2.105 . S
O517 C511 1.268 . S
O518 Sc508 2.105 . S
O518 C512 1.268 . S
O519 Sc506 2.105 . S
O519 C513 1.268 . S
O520 Sc508 2.105 . S
O520 C514 1.268 . S
O521 Sc507 2.105 . S
O521 C515 1.268 . S
O522 Sc506 2.105 . S
O522 C514 1.268 . S
O523 Sc507 2.105 . S
O523 C513 1.268 . S
O524 Sc508 2.105 . S
O524 C515 1.268 . S
O525 Sc506 2.105 . S
O525 C511 1.268 . S
O526 Sc508 2.105 . S
O526 C510 1.268 . S
O527 Sc507 2.105 . S
O527 C512 1.268 . S
H528 C536 0.950 . S
H529 C541 0.950 . S
H530 C538 0.950 . S
H531 C540 0.950 . S
H532 C542 0.950 . S
H533 C544 0.950 . S
H534 C546 0.950 . S
H535 C547 0.950 . S
C536 H528 0.950 . S
C536 C537 1.386 . S
C536 C538 1.391 . S
C537 C536 1.386 . S
C537 C541 1.393 1_455 S
C538 H530 0.950 . S
C538 C536 1.391 . S
C538 C539 1.404 . S
C539 C538 1.404 . S
C539 C540 1.396 1_455 S
C539 C545 1.490 1_455 S
C540 H531 0.950 . S
C540 C539 1.396 1_655 S
C540 C541 1.391 . S
C541 H529 0.950 . S
C541 C537 1.393 1_655 S
C541 C540 1.391 . S
C542 H532 0.950 . S
C542 C543 1.391 . S
C542 C544 1.391 . S
C543 C542 1.391 . S
C543 C547 1.389 1_655 S
C544 H533 0.950 . S
C544 C542 1.391 . S
C544 C545 1.402 . S
C545 C539 1.490 1_655 S
C545 C544 1.402 . S
C545 C546 1.397 1_655 S
C546 H534 0.950 . S
C546 C545 1.397 1_455 S
C546 C547 1.391 . S
C547 H535 0.950 . S
C547 C543 1.389 1_455 S
C547 C546 1.391 . S
H548 C556 0.950 . S
H549 C561 0.950 . S
H550 C558 0.950 . S
H551 C560 0.950 . S
H552 C562 0.950 . S
H553 C564 0.950 . S
H554 C566 0.950 . S
H555 C567 0.950 . S
C556 H548 0.950 . S
C556 C557 1.369 1_545 S
C556 C558 1.391 . S
C557 C556 1.369 1_565 S
C557 C561 1.410 . S
C558 H550 0.950 . S
C558 C556 1.391 . S
C558 C559 1.395 1_545 S
C559 C558 1.395 1_565 S
C559 C560 1.404 . S
C559 C565 1.490 1_565 S
C560 H551 0.950 . S
C560 C559 1.404 . S
C560 C561 1.391 . S
C561 H549 0.950 . S
C561 C557 1.410 . S
C561 C560 1.391 . S
C562 H552 0.950 . S
C562 C563 1.362 1_565 S
C562 C564 1.391 . S
C563 C562 1.362 1_545 S
C563 C567 1.417 . S
C564 H553 0.950 . S
C564 C562 1.391 . S
C564 C565 1.389 1_565 S
C565 C559 1.490 1_545 S
C565 C564 1.389 1_545 S
C565 C566 1.411 . S
C566 H554 0.950 . S
C566 C565 1.411 . S
C566 C567 1.391 . S
C567 H555 0.950 . S
C567 C563 1.417 . S
C567 C566 1.391 . S
H568 C576 0.950 . S
H569 C581 0.950 . S
H570 C578 0.950 . S
H571 C580 0.950 . S
H572 C582 0.950 . S
H573 C584 0.950 . S
H574 C586 0.950 . S
H575 C587 0.950 . S
C576 H568 0.950 . S
C576 C577 1.398 . S
C576 C578 1.391 . S
C577 C576 1.398 . S
C577 C581 1.381 1_655 S
C578 H570 0.950 . S
C578 C576 1.391 . S
C578 C579 1.404 . S
C579 C578 1.404 . S
C579 C580 1.395 1_655 S
C579 C585 1.490 1_655 S
C580 H571 0.950 . S
C580 C579 1.395 1_455 S
C580 C581 1.391 . S
C581 H569 0.950 . S
C581 C577 1.381 1_455 S
C581 C580 1.391 . S
C582 H572 0.950 . S
C582 C583 1.404 . S
C582 C584 1.391 . S
C583 C582 1.404 . S
C583 C587 1.375 1_455 S
C584 H573 0.950 . S
C584 C582 1.391 . S
C584 C585 1.410 . S
C585 C579 1.490 1_455 S
C585 C584 1.410 . S
C585 C586 1.389 1_455 S
C586 H574 0.950 . S
C586 C585 1.389 1_655 S
C586 C587 1.391 . S
C587 H575 0.950 . S
C587 C583 1.375 1_655 S
C587 C586 1.391 . S
H588 C596 0.950 . S
H589 C601 0.950 . S
H590 C598 0.950 . S
H591 C600 0.950 . S
H592 C602 0.950 . S
H593 C604 0.950 . S
H594 C606 0.950 . S
H595 C607 0.950 . S
C596 H588 0.950 . S
C596 C597 1.388 . S
C596 C598 1.391 . S
C597 C596 1.388 . S
C597 C601 1.391 1_565 S
C598 H590 0.950 . S
C598 C596 1.391 . S
C598 C599 1.398 . S
C599 C598 1.398 . S
C599 C600 1.400 1_565 S
C599 C605 1.491 1_565 S
C600 H591 0.950 . S
C600 C599 1.400 1_545 S
C600 C601 1.391 . S
C601 H589 0.950 . S
C601 C597 1.391 1_545 S
C601 C600 1.391 . S
C602 H592 0.950 . S
C602 C603 1.396 . S
C602 C604 1.391 . S
C603 C602 1.396 . S
C603 C607 1.382 1_545 S
C604 H593 0.950 . S
C604 C602 1.391 . S
C604 C605 1.406 . S
C605 C599 1.491 1_545 S
C605 C604 1.406 . S
C605 C606 1.392 1_545 S
C606 H594 0.950 . S
C606 C605 1.392 1_565 S
C606 C607 1.391 . S
C607 H595 0.950 . S
C607 C603 1.382 1_565 S
C607 C606 1.391 . S
H608 C616 0.950 . S
H609 C621 0.950 . S
H610 C618 0.950 . S
H611 C620 0.950 . S
H612 C622 0.950 . S
H613 C624 0.950 . S
H614 C626 0.950 . S
H615 C627 0.950 . S
C616 H608 0.950 . S
C616 C617 1.403 . S
C616 C618 1.391 . S
C617 C616 1.403 . S
C617 C621 1.377 1_545 S
C618 H610 0.950 . S
C618 C616 1.391 . S
C618 C619 1.409 . S
C619 C618 1.409 . S
C619 C620 1.390 1_545 S
C619 C625 1.490 1_545 S
C620 H611 0.950 . S
C620 C619 1.390 1_565 S
C620 C621 1.391 . S
C621 H609 0.950 . S
C621 C617 1.377 1_565 S
C621 C620 1.391 . S
C622 H612 0.950 . S
C622 C623 1.398 . S
C622 C624 1.391 . S
C623 C622 1.398 . S
C623 C627 1.381 1_565 S
C624 H613 0.950 . S
C624 C622 1.391 . S
C624 C625 1.405 . S
C625 C619 1.490 1_565 S
C625 C624 1.405 . S
C625 C626 1.394 1_565 S
C626 H614 0.950 . S
C626 C625 1.394 1_545 S
C626 C627 1.391 . S
C627 H615 0.950 . S
C627 C623 1.381 1_545 S
C627 C626 1.391 . S
H628 C636 0.950 . S
H629 C641 0.950 . S
H630 C638 0.950 . S
H631 C640 0.950 . S
H632 C642 0.950 . S
H633 C644 0.950 . S
H634 C646 0.950 . S
H635 C647 0.950 . S
C636 H628 0.950 . S
C636 C637 1.369 1_455 S
C636 C638 1.391 . S
C637 C636 1.369 1_655 S
C637 C641 1.410 . S
C638 H630 0.950 . S
C638 C636 1.391 . S
C638 C639 1.395 1_455 S
C639 C638 1.395 1_655 S
C639 C640 1.404 . S
C639 C645 1.490 1_655 S
C640 H631 0.950 . S
C640 C639 1.404 . S
C640 C641 1.391 . S
C641 H629 0.950 . S
C641 C637 1.410 . S
C641 C640 1.391 . S
C642 H632 0.950 . S
C642 C643 1.362 1_655 S
C642 C644 1.391 . S
C643 C642 1.362 1_455 S
C643 C647 1.417 . S
C644 H633 0.950 . S
C644 C642 1.391 . S
C644 C645 1.388 1_655 S
C645 C639 1.490 1_455 S
C645 C644 1.388 1_455 S
C645 C646 1.411 . S
C646 H634 0.950 . S
C646 C645 1.411 . S
C646 C647 1.391 . S
C647 H635 0.950 . S
C647 C643 1.417 . S
C647 C646 1.391 . S
H648 C656 0.950 . S
H649 C661 0.950 . S
H650 C658 0.950 . S
H651 C660 0.950 . S
H652 C662 0.950 . S
H653 C664 0.950 . S
H654 C666 0.950 . S
H655 C667 0.950 . S
C656 H648 0.950 . S
C656 C657 1.399 . S
C656 C658 1.391 . S
C657 C656 1.399 . S
C657 C661 1.379 1_545 S
C658 H650 0.950 . S
C658 C656 1.391 . S
C658 C659 1.408 . S
C659 C658 1.408 . S
C659 C660 1.391 1_545 S
C659 C665 1.490 1_545 S
C660 H651 0.950 . S
C660 C659 1.391 1_565 S
C660 C661 1.391 . S
C661 H649 0.950 . S
C661 C657 1.379 1_565 S
C661 C660 1.391 . S
C662 H652 0.950 . S
C662 C663 1.392 . S
C662 C664 1.391 . S
C663 C662 1.392 . S
C663 C667 1.387 1_565 S
C664 H653 0.950 . S
C664 C662 1.391 . S
C664 C665 1.400 . S
C665 C659 1.490 1_565 S
C665 C664 1.400 . S
C665 C666 1.398 1_565 S
C666 H654 0.950 . S
C666 C665 1.398 1_545 S
C666 C667 1.391 . S
C667 H655 0.950 . S
C667 C663 1.387 1_545 S
C667 C666 1.391 . S
H668 C676 0.950 . S
H669 C681 0.950 . S
H670 C678 0.950 . S
H671 C680 0.950 . S
H672 C682 0.950 . S
H673 C684 0.950 . S
H674 C686 0.950 . S
H675 C687 0.950 . S
C676 H668 0.950 . S
C676 C677 1.394 . S
C676 C678 1.391 . S
C677 C676 1.394 . S
C677 C681 1.385 1_455 S
C678 H670 0.950 . S
C678 C676 1.391 . S
C678 C679 1.405 . S
C679 C678 1.405 . S
C679 C680 1.394 1_455 S
C679 C685 1.491 1_455 S
C680 H671 0.950 . S
C680 C679 1.394 1_655 S
C680 C681 1.391 . S
C681 H669 0.950 . S
C681 C677 1.385 1_655 S
C681 C680 1.391 . S
C682 H672 0.950 . S
C682 C683 1.385 . S
C682 C684 1.391 . S
C683 C682 1.385 . S
C683 C687 1.393 1_655 S
C684 H673 0.950 . S
C684 C682 1.391 . S
C684 C685 1.397 . S
C685 C679 1.491 1_655 S
C685 C684 1.397 . S
C685 C686 1.402 1_655 S
C686 H674 0.950 . S
C686 C685 1.402 1_455 S
C686 C687 1.391 . S
C687 H675 0.950 . S
C687 C683 1.393 1_455 S
C687 C686 1.391 . S
H688 C696 0.950 . S
H689 C701 0.950 . S
H690 C698 0.950 . S
H691 C700 0.950 . S
H692 C702 0.950 . S
H693 C704 0.950 . S
H694 C706 0.950 . S
H695 C707 0.950 . S
C696 H688 0.950 . S
C696 C697 1.394 . S
C696 C698 1.391 . S
C697 C696 1.394 . S
C697 C701 1.385 1_556 S
C698 H690 0.950 . S
C698 C696 1.391 . S
C698 C699 1.401 . S
C699 C698 1.401 . S
C699 C700 1.397 1_556 S
C699 C705 1.490 1_556 S
C700 H691 0.950 . S
C700 C699 1.397 1_554 S
C700 C701 1.391 . S
C701 H689 0.950 . S
C701 C697 1.385 1_554 S
C701 C700 1.391 . S
C702 H692 0.950 . S
C702 C703 1.401 . S
C702 C704 1.391 . S
C703 C702 1.401 . S
C703 C707 1.378 1_554 S
C704 H693 0.950 . S
C704 C702 1.391 . S
C704 C705 1.409 . S
C705 C699 1.490 1_554 S
C705 C704 1.409 . S
C705 C706 1.390 1_554 S
C706 H694 0.950 . S
C706 C705 1.390 1_556 S
C706 C707 1.391 . S
C707 H695 0.950 . S
C707 C703 1.378 1_556 S
C707 C706 1.391 . S
H708 C716 0.950 . S
H709 C721 0.949 1_554 S
H710 C718 0.950 . S
H711 C720 0.950 . S
H712 C722 0.950 . S
H713 C724 0.950 . S
H714 C726 0.950 . S
H715 C727 0.949 1_556 S
C716 H708 0.950 . S
C716 C717 1.388 . S
C716 C718 1.391 . S
C717 C716 1.388 . S
C717 C721 1.392 . S
C718 H710 0.950 . S
C718 C716 1.391 . S
C718 C719 1.401 . S
C719 C718 1.401 . S
C719 C720 1.398 . S
C719 C725 1.490 1_556 S
C720 H711 0.950 . S
C720 C719 1.398 . S
C720 C721 1.391 . S
C721 H709 0.949 1_556 S
C721 C717 1.392 . S
C721 C720 1.391 . S
C722 H712 0.950 . S
C722 C723 1.386 . S
C722 C724 1.391 . S
C723 C722 1.386 . S
C723 C727 1.393 . S
C724 H713 0.950 . S
C724 C722 1.391 . S
C724 C725 1.402 . S
C725 C719 1.490 1_554 S
C725 C724 1.402 . S
C725 C726 1.398 . S
C726 H714 0.950 . S
C726 C725 1.398 . S
C726 C727 1.391 . S
C727 H715 0.949 1_554 S
C727 C723 1.393 . S
C727 C726 1.391 . S
H728 C736 0.950 . S
H729 C741 0.950 . S
H730 C738 0.950 . S
H731 C740 0.950 . S
H732 C742 0.950 . S
H733 C744 0.950 . S
H734 C746 0.950 . S
H735 C747 0.950 . S
C736 H728 0.950 . S
C736 C737 1.373 1_554 S
C736 C738 1.391 . S
C737 C736 1.373 1_556 S
C737 C741 1.406 . S
C738 H730 0.950 . S
C738 C736 1.391 . S
C738 C739 1.396 1_554 S
C739 C738 1.396 1_556 S
C739 C740 1.404 . S
C739 C745 1.490 1_556 S
C740 H731 0.950 . S
C740 C739 1.404 . S
C740 C741 1.391 . S
C741 H729 0.950 . S
C741 C737 1.406 . S
C741 C740 1.391 . S
C742 H732 0.950 . S
C742 C743 1.386 1_556 S
C742 C744 1.391 . S
C743 C742 1.386 1_554 S
C743 C747 1.393 . S
C744 H733 0.950 . S
C744 C742 1.391 . S
C744 C745 1.392 1_556 S
C745 C739 1.490 1_554 S
C745 C744 1.392 1_554 S
C745 C746 1.408 . S
C746 H734 0.950 . S
C746 C745 1.408 . S
C746 C747 1.391 . S
C747 H735 0.950 . S
C747 C743 1.393 . S
C747 C746 1.391 . S
H748 C756 0.950 . S
H749 C761 0.950 . S
H750 C758 0.950 . S
H751 C760 0.950 . S
H752 C762 0.950 . S
H753 C764 0.950 . S
H754 C766 0.950 . S
H755 C767 0.950 . S
C756 H748 0.950 . S
C756 C757 1.398 . S
C756 C758 1.391 . S
C757 C756 1.398 . S
C757 C761 1.381 1_556 S
C758 H750 0.950 . S
C758 C756 1.391 . S
C758 C759 1.405 . S
C759 C758 1.405 . S
C759 C760 1.394 1_556 S
C759 C765 1.490 1_556 S
C760 H751 0.950 . S
C760 C759 1.394 1_554 S
C760 C761 1.391 . S
C761 H749 0.950 . S
C761 C757 1.381 1_554 S
C761 C760 1.391 . S
C762 H752 0.950 . S
C762 C763 1.402 . S
C762 C764 1.391 . S
C763 C762 1.402 . S
C763 C767 1.378 1_554 S
C764 H753 0.950 . S
C764 C762 1.391 . S
C764 C765 1.409 . S
C765 C759 1.490 1_554 S
C765 C764 1.409 . S
C765 C766 1.391 1_554 S
C766 H754 0.950 . S
C766 C765 1.391 1_556 S
C766 C767 1.391 . S
C767 H755 0.950 . S
C767 C763 1.378 1_556 S
C767 C766 1.391 . S
H768 C776 0.950 . S
H769 C781 0.950 . S
H770 C778 0.950 . S
H771 C780 0.950 . S
H772 C782 0.950 . S
H773 C784 0.950 . S
H774 C786 0.950 . S
H775 C787 0.950 . S
C776 H768 0.950 . S
C776 C777 1.386 . S
C776 C778 1.391 . S
C777 C776 1.386 . S
C777 C781 1.393 . S
C778 H770 0.950 . S
C778 C776 1.391 . S
C778 C779 1.400 . S
C779 C778 1.400 . S
C779 C780 1.398 . S
C779 C785 1.491 1_556 S
C780 H771 0.950 . S
C780 C779 1.398 . S
C780 C781 1.391 . S
C781 H769 0.950 . S
C781 C777 1.393 . S
C781 C780 1.391 . S
C782 H772 0.950 . S
C782 C783 1.386 . S
C782 C784 1.391 . S
C783 C782 1.386 . S
C783 C787 1.393 . S
C784 H773 0.950 . S
C784 C782 1.391 . S
C784 C785 1.400 . S
C785 C779 1.491 1_554 S
C785 C784 1.400 . S
C785 C786 1.398 . S
C786 H774 0.950 . S
C786 C785 1.398 . S
C786 C787 1.391 . S
C787 H775 0.950 . S
C787 C783 1.393 . S
C787 C786 1.391 . S
H788 C796 0.950 . S
H789 C801 0.950 . S
H790 C798 0.950 . S
H791 C800 0.950 . S
H792 C802 0.950 . S
H793 C804 0.950 . S
H794 C806 0.950 . S
H795 C807 0.950 . S
C796 H788 0.950 . S
C796 C797 1.386 . S
C796 C798 1.391 . S
C797 C796 1.386 . S
C797 C801 1.393 . S
C798 H790 0.950 . S
C798 C796 1.391 . S
C798 C799 1.400 . S
C799 C798 1.400 . S
C799 C800 1.398 . S
C799 C805 1.491 1_554 S
C800 H791 0.950 . S
C800 C799 1.398 . S
C800 C801 1.391 . S
C801 H789 0.950 . S
C801 C797 1.393 . S
C801 C800 1.391 . S
C802 H792 0.950 . S
C802 C803 1.386 . S
C802 C804 1.391 . S
C803 C802 1.386 . S
C803 C807 1.393 . S
C804 H793 0.950 . S
C804 C802 1.391 . S
C804 C805 1.400 . S
C805 C799 1.491 1_556 S
C805 C804 1.400 . S
C805 C806 1.398 . S
C806 H794 0.950 . S
C806 C805 1.398 . S
C806 C807 1.391 . S
C807 H795 0.950 . S
C807 C803 1.393 . S
C807 C806 1.391 . S
H808 C816 0.950 . S
H809 C821 0.950 . S
H810 C818 0.950 . S
H811 C820 0.950 . S
H812 C822 0.950 . S
H813 C824 0.950 . S
H814 C826 0.950 . S
H815 C827 0.950 . S
C816 H808 0.950 . S
C816 C817 1.386 . S
C816 C818 1.391 . S
C817 C816 1.386 . S
C817 C821 1.393 . S
C818 H810 0.950 . S
C818 C816 1.391 . S
C818 C819 1.400 . S
C819 C818 1.400 . S
C819 C820 1.398 . S
C819 C825 1.491 1_556 S
C820 H811 0.950 . S
C820 C819 1.398 . S
C820 C821 1.391 . S
C821 H809 0.950 . S
C821 C817 1.393 . S
C821 C820 1.391 . S
C822 H812 0.950 . S
C822 C823 1.386 . S
C822 C824 1.391 . S
C823 C822 1.386 . S
C823 C827 1.393 . S
C824 H813 0.950 . S
C824 C822 1.391 . S
C824 C825 1.400 . S
C825 C819 1.491 1_554 S
C825 C824 1.400 . S
C825 C826 1.398 . S
C826 H814 0.950 . S
C826 C825 1.398 . S
C826 C827 1.391 . S
C827 H815 0.950 . S
C827 C823 1.393 . S
C827 C826 1.391 . S
H828 C836 0.950 . S
H829 C841 0.950 . S
H830 C838 0.950 . S
H831 C840 0.950 . S
H832 C842 0.950 . S
H833 C844 0.950 . S
H834 C846 0.950 . S
H835 C847 0.950 . S
C836 H828 0.950 . S
C836 C837 1.386 . S
C836 C838 1.391 . S
C837 C836 1.386 . S
C837 C841 1.393 . S
C838 H830 0.950 . S
C838 C836 1.391 . S
C838 C839 1.400 . S
C839 C838 1.400 . S
C839 C840 1.398 . S
C839 C845 1.491 1_556 S
C840 H831 0.950 . S
C840 C839 1.398 . S
C840 C841 1.391 . S
C841 H829 0.950 . S
C841 C837 1.393 . S
C841 C840 1.391 . S
C842 H832 0.950 . S
C842 C843 1.386 . S
C842 C844 1.391 . S
C843 C842 1.386 . S
C843 C847 1.393 . S
C844 H833 0.950 . S
C844 C842 1.391 . S
C844 C845 1.400 . S
C845 C839 1.491 1_554 S
C845 C844 1.400 . S
C845 C846 1.398 . S
C846 H834 0.950 . S
C846 C845 1.398 . S
C846 C847 1.391 . S
C847 H835 0.950 . S
C847 C843 1.393 . S
C847 C846 1.391 . S
H848 C856 0.950 . S
H849 C861 0.950 . S
H850 C858 0.950 . S
H851 C860 0.950 . S
H852 C862 0.950 . S
H853 C864 0.950 . S
H854 C866 0.950 . S
H855 C867 0.950 . S
C856 H848 0.950 . S
C856 C857 1.386 . S
C856 C858 1.391 . S
C857 C856 1.386 . S
C857 C861 1.393 . S
C858 H850 0.950 . S
C858 C856 1.391 . S
C858 C859 1.400 . S
C859 C858 1.400 . S
C859 C860 1.398 . S
C859 C865 1.491 1_655 S
C860 H851 0.950 . S
C860 C859 1.398 . S
C860 C861 1.391 . S
C861 H849 0.950 . S
C861 C857 1.393 . S
C861 C860 1.391 . S
C862 H852 0.950 . S
C862 C863 1.386 . S
C862 C864 1.391 . S
C863 C862 1.386 . S
C863 C867 1.393 . S
C864 H853 0.950 . S
C864 C862 1.391 . S
C864 C865 1.400 . S
C865 C859 1.491 1_455 S
C865 C864 1.400 . S
C865 C866 1.398 . S
C866 H854 0.950 . S
C866 C865 1.398 . S
C866 C867 1.391 . S
C867 H855 0.950 . S
C867 C863 1.393 . S
C867 C866 1.391 . S
H868 C876 0.950 . S
H869 C881 0.950 . S
H870 C878 0.950 . S
H871 C880 0.950 . S
H872 C882 0.950 . S
H873 C884 0.950 . S
H874 C886 0.950 . S
H875 C887 0.950 . S
C876 H868 0.950 . S
C876 C877 1.386 . S
C876 C878 1.391 . S
C877 C876 1.386 . S
C877 C881 1.393 . S
C878 H870 0.950 . S
C878 C876 1.391 . S
C878 C879 1.400 . S
C879 C878 1.400 . S
C879 C880 1.398 . S
C879 C885 1.491 1_545 S
C880 H871 0.950 . S
C880 C879 1.398 . S
C880 C881 1.391 . S
C881 H869 0.950 . S
C881 C877 1.393 . S
C881 C880 1.391 . S
C882 H872 0.950 . S
C882 C883 1.386 . S
C882 C884 1.391 . S
C883 C882 1.386 . S
C883 C887 1.393 . S
C884 H873 0.950 . S
C884 C882 1.391 . S
C884 C885 1.400 . S
C885 C879 1.491 1_565 S
C885 C884 1.400 . S
C885 C886 1.398 . S
C886 H874 0.950 . S
C886 C885 1.398 . S
C886 C887 1.391 . S
C887 H875 0.950 . S
C887 C883 1.393 . S
C887 C886 1.391 . S
H888 C896 0.950 . S
H889 C901 0.950 . S
H890 C898 0.950 . S
H891 C900 0.950 . S
H892 C902 0.950 . S
H893 C904 0.950 . S
H894 C906 0.950 . S
H895 C907 0.950 . S
C896 H888 0.950 . S
C896 C897 1.386 . S
C896 C898 1.391 . S
C897 C896 1.386 . S
C897 C901 1.393 . S
C898 H890 0.950 . S
C898 C896 1.391 . S
C898 C899 1.400 . S
C899 C898 1.400 . S
C899 C900 1.398 . S
C899 C905 1.491 1_655 S
C900 H891 0.950 . S
C900 C899 1.398 . S
C900 C901 1.391 . S
C901 H889 0.950 . S
C901 C897 1.393 . S
C901 C900 1.391 . S
C902 H892 0.950 . S
C902 C903 1.386 . S
C902 C904 1.391 . S
C903 C902 1.386 . S
C903 C907 1.393 . S
C904 H893 0.950 . S
C904 C902 1.391 . S
C904 C905 1.400 . S
C905 C899 1.491 1_455 S
C905 C904 1.400 . S
C905 C906 1.398 . S
C906 H894 0.950 . S
C906 C905 1.398 . S
C906 C907 1.391 . S
C907 H895 0.950 . S
C907 C903 1.393 . S
C907 C906 1.391 . S
H908 C916 0.950 . S
H909 C921 0.950 . S
H910 C918 0.950 . S
H911 C920 0.950 . S
H912 C922 0.950 . S
H913 C924 0.950 . S
H914 C926 0.950 . S
H915 C927 0.950 . S
C916 H908 0.950 . S
C916 C917 1.386 . S
C916 C918 1.391 . S
C917 C916 1.386 . S
C917 C921 1.393 . S
C918 H910 0.950 . S
C918 C916 1.391 . S
C918 C919 1.400 . S
C919 C918 1.400 . S
C919 C920 1.398 . S
C919 C925 1.491 1_565 S
C920 H911 0.950 . S
C920 C919 1.398 . S
C920 C921 1.391 . S
C921 H909 0.950 . S
C921 C917 1.393 . S
C921 C920 1.391 . S
C922 H912 0.950 . S
C922 C923 1.386 . S
C922 C924 1.391 . S
C923 C922 1.386 . S
C923 C927 1.393 . S
C924 H913 0.950 . S
C924 C922 1.391 . S
C924 C925 1.400 . S
C925 C919 1.491 1_545 S
C925 C924 1.400 . S
C925 C926 1.398 . S
C926 H914 0.950 . S
C926 C925 1.398 . S
C926 C927 1.391 . S
C927 H915 0.950 . S
C927 C923 1.393 . S
C927 C926 1.391 . S
H928 C936 0.950 . S
H929 C941 0.950 . S
H930 C938 0.950 . S
H931 C940 0.950 . S
H932 C942 0.950 . S
H933 C944 0.950 . S
H934 C946 0.950 . S
H935 C947 0.950 . S
C936 H928 0.950 . S
C936 C937 1.386 . S
C936 C938 1.391 . S
C937 C936 1.386 . S
C937 C941 1.393 . S
C938 H930 0.950 . S
C938 C936 1.391 . S
C938 C939 1.400 . S
C939 C938 1.400 . S
C939 C940 1.398 . S
C939 C945 1.491 1_565 S
C940 H931 0.950 . S
C940 C939 1.398 . S
C940 C941 1.391 . S
C941 H929 0.950 . S
C941 C937 1.393 . S
C941 C940 1.391 . S
C942 H932 0.950 . S
C942 C943 1.386 . S
C942 C944 1.391 . S
C943 C942 1.386 . S
C943 C947 1.393 . S
C944 H933 0.950 . S
C944 C942 1.391 . S
C944 C945 1.400 . S
C945 C939 1.491 1_545 S
C945 C944 1.400 . S
C945 C946 1.398 . S
C946 H934 0.950 . S
C946 C945 1.398 . S
C946 C947 1.391 . S
C947 H935 0.950 . S
C947 C943 1.393 . S
C947 C946 1.391 . S
H948 C956 0.950 . S
H949 C961 0.950 . S
H950 C958 0.950 . S
H951 C960 0.950 . S
H952 C962 0.950 . S
H953 C964 0.950 . S
H954 C966 0.950 . S
H955 C967 0.950 . S
C956 H948 0.950 . S
C956 C957 1.386 . S
C956 C958 1.391 . S
C957 C956 1.386 . S
C957 C961 1.393 . S
C958 H950 0.950 . S
C958 C956 1.391 . S
C958 C959 1.400 . S
C959 C958 1.400 . S
C959 C960 1.398 . S
C959 C965 1.491 1_455 S
C960 H951 0.950 . S
C960 C959 1.398 . S
C960 C961 1.391 . S
C961 H949 0.950 . S
C961 C957 1.393 . S
C961 C960 1.391 . S
C962 H952 0.950 . S
C962 C963 1.386 . S
C962 C964 1.391 . S
C963 C962 1.386 . S
C963 C967 1.393 . S
C964 H953 0.950 . S
C964 C962 1.391 . S
C964 C965 1.400 . S
C965 C959 1.491 1_655 S
C965 C964 1.400 . S
C965 C966 1.398 . S
C966 H954 0.950 . S
C966 C965 1.398 . S
C966 C967 1.391 . S
C967 H955 0.950 . S
C967 C963 1.393 . S
C967 C966 1.391 . S
H968 C976 0.950 . S
H969 C981 0.950 . S
H970 C978 0.950 . S
H971 C980 0.950 . S
H972 C982 0.950 . S
H973 C984 0.950 . S
H974 C986 0.950 . S
H975 C987 0.950 . S
C976 H968 0.950 . S
C976 C977 1.386 . S
C976 C978 1.391 . S
C977 C976 1.386 . S
C977 C981 1.393 . S
C978 H970 0.950 . S
C978 C976 1.391 . S
C978 C979 1.400 . S
C979 C978 1.400 . S
C979 C980 1.398 . S
C979 C985 1.491 1_565 S
C980 H971 0.950 . S
C980 C979 1.398 . S
C980 C981 1.391 . S
C981 H969 0.950 . S
C981 C977 1.393 . S
C981 C980 1.391 . S
C982 H972 0.950 . S
C982 C983 1.386 . S
C982 C984 1.391 . S
C983 C982 1.386 . S
C983 C987 1.393 . S
C984 H973 0.950 . S
C984 C982 1.391 . S
C984 C985 1.400 . S
C985 C979 1.491 1_545 S
C985 C984 1.400 . S
C985 C986 1.398 . S
C986 H974 0.950 . S
C986 C985 1.398 . S
C986 C987 1.391 . S
C987 H975 0.950 . S
C987 C983 1.393 . S
C987 C986 1.391 . S
H988 C996 0.950 . S
H989 C1001 0.950 . S
H990 C998 0.950 . S
H991 C1000 0.950 . S
H992 C1002 0.950 . S
H993 C1004 0.950 . S
H994 C1006 0.950 . S
H995 C1007 0.950 . S
C996 H988 0.950 . S
C996 C997 1.386 . S
C996 C998 1.391 . S
C997 C996 1.386 . S
C997 C1001 1.393 . S
C998 H990 0.950 . S
C998 C996 1.391 . S
C998 C999 1.400 . S
C999 C998 1.400 . S
C999 C1000 1.398 . S
C999 C1005 1.491 1_455 S
C1000 H991 0.950 . S
C1000 C999 1.398 . S
C1000 C1001 1.391 . S
C1001 H989 0.950 . S
C1001 C997 1.393 . S
C1001 C1000 1.391 . S
C1002 H992 0.950 . S
C1002 C1003 1.386 . S
C1002 C1004 1.391 . S
C1003 C1002 1.386 . S
C1003 C1007 1.393 . S
C1004 H993 0.950 . S
C1004 C1002 1.391 . S
C1004 C1005 1.400 . S
C1005 C999 1.491 1_655 S
C1005 C1004 1.400 . S
C1005 C1006 1.398 . S
C1006 H994 0.950 . S
C1006 C1005 1.398 . S
C1006 C1007 1.391 . S
C1007 H995 0.950 . S
C1007 C1003 1.393 . S
C1007 C1006 1.391 . S
H1008 C1016 0.950 . S
H1009 C1021 0.950 . S
H1010 C1018 0.950 . S
H1011 C1020 0.950 . S
H1012 C1022 0.950 . S
H1013 C1024 0.950 . S
H1014 C1026 0.950 . S
H1015 C1027 0.950 . S
C1016 H1008 0.950 . S
C1016 C1017 1.386 . S
C1016 C1018 1.391 . S
C1017 C1016 1.386 . S
C1017 C1021 1.393 . S
C1018 H1010 0.950 . S
C1018 C1016 1.391 . S
C1018 C1019 1.400 . S
C1019 C1018 1.400 . S
C1019 C1020 1.398 . S
C1019 C1025 1.491 . S
C1020 H1011 0.950 . S
C1020 C1019 1.398 . S
C1020 C1021 1.391 . S
C1021 H1009 0.950 . S
C1021 C1017 1.393 . S
C1021 C1020 1.391 . S
C1022 H1012 0.950 . S
C1022 C1023 1.386 . S
C1022 C1024 1.391 . S
C1023 C1022 1.386 . S
C1023 C1027 1.393 . S
C1024 H1013 0.950 . S
C1024 C1022 1.391 . S
C1024 C1025 1.400 . S
C1025 C1019 1.491 . S
C1025 C1024 1.400 . S
C1025 C1026 1.398 . S
C1026 H1014 0.950 . S
C1026 C1025 1.398 . S
C1026 C1027 1.391 . S
C1027 H1015 0.950 . S
C1027 C1023 1.393 . S
C1027 C1026 1.391 . S
H1028 C1036 0.950 . S
H1029 C1041 0.950 . S
H1030 C1038 0.950 . S
H1031 C1040 0.950 . S
H1032 C1042 0.950 . S
H1033 C1044 0.950 . S
H1034 C1046 0.950 . S
H1035 C1047 0.950 . S
C1036 H1028 0.950 . S
C1036 C1037 1.386 . S
C1036 C1038 1.391 . S
C1037 C1036 1.386 . S
C1037 C1041 1.393 . S
C1038 H1030 0.950 . S
C1038 C1036 1.391 . S
C1038 C1039 1.400 . S
C1039 C1038 1.400 . S
C1039 C1040 1.398 . S
C1039 C1045 1.491 . S
C1040 H1031 0.950 . S
C1040 C1039 1.398 . S
C1040 C1041 1.391 . S
C1041 H1029 0.950 . S
C1041 C1037 1.393 . S
C1041 C1040 1.391 . S
C1042 H1032 0.950 . S
C1042 C1043 1.386 . S
C1042 C1044 1.391 . S
C1043 C1042 1.386 . S
C1043 C1047 1.393 . S
C1044 H1033 0.950 . S
C1044 C1042 1.391 . S
C1044 C1045 1.400 . S
C1045 C1039 1.491 . S
C1045 C1044 1.400 . S
C1045 C1046 1.398 . S
C1046 H1034 0.950 . S
C1046 C1045 1.398 . S
C1046 C1047 1.391 . S
C1047 H1035 0.950 . S
C1047 C1043 1.393 . S
C1047 C1046 1.391 . S
H1048 C1056 0.950 . S
H1049 C1061 0.950 . S
H1050 C1058 0.950 . S
H1051 C1060 0.950 . S
H1052 C1062 0.950 . S
H1053 C1064 0.950 . S
H1054 C1066 0.950 . S
H1055 C1067 0.950 . S
C1056 H1048 0.950 . S
C1056 C1057 1.386 . S
C1056 C1058 1.391 . S
C1057 C1056 1.386 . S
C1057 C1061 1.393 . S
C1058 H1050 0.950 . S
C1058 C1056 1.391 . S
C1058 C1059 1.400 . S
C1059 C1058 1.400 . S
C1059 C1060 1.398 . S
C1059 C1065 1.491 . S
C1060 H1051 0.950 . S
C1060 C1059 1.398 . S
C1060 C1061 1.391 . S
C1061 H1049 0.950 . S
C1061 C1057 1.393 . S
C1061 C1060 1.391 . S
C1062 H1052 0.950 . S
C1062 C1063 1.386 . S
C1062 C1064 1.391 . S
C1063 C1062 1.386 . S
C1063 C1067 1.393 . S
C1064 H1053 0.950 . S
C1064 C1062 1.391 . S
C1064 C1065 1.400 . S
C1065 C1059 1.491 . S
C1065 C1064 1.400 . S
C1065 C1066 1.398 . S
C1066 H1054 0.950 . S
C1066 C1065 1.398 . S
C1066 C1067 1.391 . S
C1067 H1055 0.950 . S
C1067 C1063 1.393 . S
C1067 C1066 1.391 . S
H1068 C1076 0.950 . S
H1069 C1081 0.950 . S
H1070 C1078 0.950 . S
H1071 C1080 0.950 . S
H1072 C1082 0.950 . S
H1073 C1084 0.950 . S
H1074 C1086 0.950 . S
H1075 C1087 0.950 . S
C1076 H1068 0.950 . S
C1076 C1077 1.386 . S
C1076 C1078 1.391 . S
C1077 C1076 1.386 . S
C1077 C1081 1.393 . S
C1078 H1070 0.950 . S
C1078 C1076 1.391 . S
C1078 C1079 1.400 . S
C1079 C1078 1.400 . S
C1079 C1080 1.398 . S
C1079 C1085 1.491 . S
C1080 H1071 0.950 . S
C1080 C1079 1.398 . S
C1080 C1081 1.391 . S
C1081 H1069 0.950 . S
C1081 C1077 1.393 . S
C1081 C1080 1.391 . S
C1082 H1072 0.950 . S
C1082 C1083 1.386 . S
C1082 C1084 1.391 . S
C1083 C1082 1.386 . S
C1083 C1087 1.393 . S
C1084 H1073 0.950 . S
C1084 C1082 1.391 . S
C1084 C1085 1.400 . S
C1085 C1079 1.491 . S
C1085 C1084 1.400 . S
C1085 C1086 1.398 . S
C1086 H1074 0.950 . S
C1086 C1085 1.398 . S
C1086 C1087 1.391 . S
C1087 H1075 0.950 . S
C1087 C1083 1.393 . S
C1087 C1086 1.391 . S
H1088 C1096 0.950 . S
H1089 C1101 0.950 . S
H1090 C1098 0.950 . S
H1091 C1100 0.950 . S
H1092 C1102 0.950 . S
H1093 C1104 0.950 . S
H1094 C1106 0.950 . S
H1095 C1107 0.950 . S
C1096 H1088 0.950 . S
C1096 C1097 1.386 . S
C1096 C1098 1.391 . S
C1097 C1096 1.386 . S
C1097 C1101 1.393 . S
C1098 H1090 0.950 . S
C1098 C1096 1.391 . S
C1098 C1099 1.400 . S
C1099 C1098 1.400 . S
C1099 C1100 1.398 . S
C1099 C1105 1.491 . S
C1100 H1091 0.950 . S
C1100 C1099 1.398 . S
C1100 C1101 1.391 . S
C1101 H1089 0.950 . S
C1101 C1097 1.393 . S
C1101 C1100 1.391 . S
C1102 H1092 0.950 . S
C1102 C1103 1.386 . S
C1102 C1104 1.391 . S
C1103 C1102 1.386 . S
C1103 C1107 1.393 . S
C1104 H1093 0.950 . S
C1104 C1102 1.391 . S
C1104 C1105 1.400 . S
C1105 C1099 1.491 . S
C1105 C1104 1.400 . S
C1105 C1106 1.398 . S
C1106 H1094 0.950 . S
C1106 C1105 1.398 . S
C1106 C1107 1.391 . S
C1107 H1095 0.950 . S
C1107 C1103 1.393 . S
C1107 C1106 1.391 . S
H1108 C1116 0.950 . S
H1109 C1121 0.950 . S
H1110 C1118 0.950 . S
H1111 C1120 0.950 . S
H1112 C1122 0.950 . S
H1113 C1124 0.950 . S
H1114 C1126 0.950 . S
H1115 C1127 0.950 . S
C1116 H1108 0.950 . S
C1116 C1117 1.386 . S
C1116 C1118 1.391 . S
C1117 C1116 1.386 . S
C1117 C1121 1.393 . S
C1118 H1110 0.950 . S
C1118 C1116 1.391 . S
C1118 C1119 1.400 . S
C1119 C1118 1.400 . S
C1119 C1120 1.398 . S
C1119 C1125 1.491 . S
C1120 H1111 0.950 . S
C1120 C1119 1.398 . S
C1120 C1121 1.391 . S
C1121 H1109 0.950 . S
C1121 C1117 1.393 . S
C1121 C1120 1.391 . S
C1122 H1112 0.950 . S
C1122 C1123 1.386 . S
C1122 C1124 1.391 . S
C1123 C1122 1.386 . S
C1123 C1127 1.393 . S
C1124 H1113 0.950 . S
C1124 C1122 1.391 . S
C1124 C1125 1.400 . S
C1125 C1119 1.491 . S
C1125 C1124 1.400 . S
C1125 C1126 1.398 . S
C1126 H1114 0.950 . S
C1126 C1125 1.398 . S
C1126 C1127 1.391 . S
C1127 H1115 0.950 . S
C1127 C1123 1.393 . S
C1127 C1126 1.391 . S
H1128 C1136 0.950 . S
H1129 C1141 0.950 . S
H1130 C1138 0.950 . S
H1131 C1140 0.950 . S
H1132 C1142 0.950 . S
H1133 C1144 0.950 . S
H1134 C1146 0.950 . S
H1135 C1147 0.950 . S
C1136 H1128 0.950 . S
C1136 C1137 1.386 . S
C1136 C1138 1.391 . S
C1137 C1136 1.386 . S
C1137 C1141 1.393 . S
C1138 H1130 0.950 . S
C1138 C1136 1.391 . S
C1138 C1139 1.400 . S
C1139 C1138 1.400 . S
C1139 C1140 1.398 . S
C1139 C1145 1.491 . S
C1140 H1131 0.950 . S
C1140 C1139 1.398 . S
C1140 C1141 1.391 . S
C1141 H1129 0.950 . S
C1141 C1137 1.393 . S
C1141 C1140 1.391 . S
C1142 H1132 0.950 . S
C1142 C1143 1.386 . S
C1142 C1144 1.391 . S
C1143 C1142 1.386 . S
C1143 C1147 1.393 . S
C1144 H1133 0.950 . S
C1144 C1142 1.391 . S
C1144 C1145 1.400 . S
C1145 C1139 1.491 . S
C1145 C1144 1.400 . S
C1145 C1146 1.398 . S
C1146 H1134 0.950 . S
C1146 C1145 1.398 . S
C1146 C1147 1.391 . S
C1147 H1135 0.950 . S
C1147 C1143 1.393 . S
C1147 C1146 1.391 . S
H1148 C1156 0.950 . S
H1149 C1161 0.950 . S
H1150 C1158 0.950 . S
H1151 C1160 0.950 . S
H1152 C1162 0.950 . S
H1153 C1164 0.950 . S
H1154 C1166 0.950 . S
H1155 C1167 0.950 . S
C1156 H1148 0.950 . S
C1156 C1157 1.386 . S
C1156 C1158 1.391 . S
C1157 C1156 1.386 . S
C1157 C1161 1.393 . S
C1158 H1150 0.950 . S
C1158 C1156 1.391 . S
C1158 C1159 1.400 . S
C1159 C1158 1.400 . S
C1159 C1160 1.398 . S
C1159 C1165 1.491 . S
C1160 H1151 0.950 . S
C1160 C1159 1.398 . S
C1160 C1161 1.391 . S
C1161 H1149 0.950 . S
C1161 C1157 1.393 . S
C1161 C1160 1.391 . S
C1162 H1152 0.950 . S
C1162 C1163 1.386 . S
C1162 C1164 1.391 . S
C1163 C1162 1.386 . S
C1163 C1167 1.393 . S
C1164 H1153 0.950 . S
C1164 C1162 1.391 . S
C1164 C1165 1.400 . S
C1165 C1159 1.491 . S
C1165 C1164 1.400 . S
C1165 C1166 1.398 . S
C1166 H1154 0.950 . S
C1166 C1165 1.398 . S
C1166 C1167 1.391 . S
C1167 H1155 0.950 . S
C1167 C1163 1.393 . S
C1167 C1166 1.391 . S
H1168 C1176 0.950 . S
H1169 C1181 0.950 . S
H1170 C1178 0.950 . S
H1171 C1180 0.950 . S
H1172 C1182 0.950 . S
H1173 C1184 0.950 . S
H1174 C1186 0.950 . S
H1175 C1187 0.950 . S
C1176 H1168 0.950 . S
C1176 C1177 1.386 . S
C1176 C1178 1.391 . S
C1177 C1176 1.386 . S
C1177 C1181 1.393 . S
C1178 H1170 0.950 . S
C1178 C1176 1.391 . S
C1178 C1179 1.400 . S
C1179 C1178 1.400 . S
C1179 C1180 1.398 . S
C1179 C1185 1.491 . S
C1180 H1171 0.950 . S
C1180 C1179 1.398 . S
C1180 C1181 1.391 . S
C1181 H1169 0.950 . S
C1181 C1177 1.393 . S
C1181 C1180 1.391 . S
C1182 H1172 0.950 . S
C1182 C1183 1.386 . S
C1182 C1184 1.391 . S
C1183 C1182 1.386 . S
C1183 C1187 1.393 . S
C1184 H1173 0.950 . S
C1184 C1182 1.391 . S
C1184 C1185 1.400 . S
C1185 C1179 1.491 . S
C1185 C1184 1.400 . S
C1185 C1186 1.398 . S
C1186 H1174 0.950 . S
C1186 C1185 1.398 . S
C1186 C1187 1.391 . S
C1187 H1175 0.950 . S
C1187 C1183 1.393 . S
C1187 C1186 1.391 . S
H1188 C1196 0.950 . S
H1189 C1201 0.950 . S
H1190 C1198 0.950 . S
H1191 C1200 0.950 . S
H1192 C1202 0.950 . S
H1193 C1204 0.950 . S
H1194 C1206 0.950 . S
H1195 C1207 0.950 . S
C1196 H1188 0.950 . S
C1196 C1197 1.386 . S
C1196 C1198 1.391 . S
C1197 C1196 1.386 . S
C1197 C1201 1.393 . S
C1198 H1190 0.950 . S
C1198 C1196 1.391 . S
C1198 C1199 1.400 . S
C1199 C1198 1.400 . S
C1199 C1200 1.398 . S
C1199 C1205 1.491 . S
C1200 H1191 0.950 . S
C1200 C1199 1.398 . S
C1200 C1201 1.391 . S
C1201 H1189 0.950 . S
C1201 C1197 1.393 . S
C1201 C1200 1.391 . S
C1202 H1192 0.950 . S
C1202 C1203 1.386 . S
C1202 C1204 1.391 . S
C1203 C1202 1.386 . S
C1203 C1207 1.393 . S
C1204 H1193 0.950 . S
C1204 C1202 1.391 . S
C1204 C1205 1.400 . S
C1205 C1199 1.491 . S
C1205 C1204 1.400 . S
C1205 C1206 1.398 . S
C1206 H1194 0.950 . S
C1206 C1205 1.398 . S
C1206 C1207 1.391 . S
C1207 H1195 0.950 . S
C1207 C1203 1.393 . S
C1207 C1206 1.391 . S
H1208 C1216 0.950 . S
H1209 C1221 0.950 . S
H1210 C1218 0.950 . S
H1211 C1220 0.950 . S
H1212 C1222 0.950 . S
H1213 C1224 0.950 . S
H1214 C1226 0.950 . S
H1215 C1227 0.950 . S
C1216 H1208 0.950 . S
C1216 C1217 1.386 . S
C1216 C1218 1.391 . S
C1217 C1216 1.386 . S
C1217 C1221 1.393 . S
C1218 H1210 0.950 . S
C1218 C1216 1.391 . S
C1218 C1219 1.400 . S
C1219 C1218 1.400 . S
C1219 C1220 1.398 . S
C1219 C1225 1.491 . S
C1220 H1211 0.950 . S
C1220 C1219 1.398 . S
C1220 C1221 1.391 . S
C1221 H1209 0.950 . S
C1221 C1217 1.393 . S
C1221 C1220 1.391 . S
C1222 H1212 0.950 . S
C1222 C1223 1.386 . S
C1222 C1224 1.391 . S
C1223 C1222 1.386 . S
C1223 C1227 1.393 . S
C1224 H1213 0.950 . S
C1224 C1222 1.391 . S
C1224 C1225 1.400 . S
C1225 C1219 1.491 . S
C1225 C1224 1.400 . S
C1225 C1226 1.398 . S
C1226 H1214 0.950 . S
C1226 C1225 1.398 . S
C1226 C1227 1.391 . S
C1227 H1215 0.950 . S
C1227 C1223 1.393 . S
C1227 C1226 1.391 . S
H1228 C1236 0.950 . S
H1229 C1241 0.950 . S
H1230 C1238 0.950 . S
H1231 C1240 0.950 . S
H1232 C1242 0.950 . S
H1233 C1244 0.950 . S
H1234 C1246 0.950 . S
H1235 C1247 0.950 . S
C1236 H1228 0.950 . S
C1236 C1237 1.386 . S
C1236 C1238 1.391 . S
C1237 C1236 1.386 . S
C1237 C1241 1.393 . S
C1238 H1230 0.950 . S
C1238 C1236 1.391 . S
C1238 C1239 1.400 . S
C1239 C1238 1.400 . S
C1239 C1240 1.398 . S
C1239 C1245 1.491 . S
C1240 H1231 0.950 . S
C1240 C1239 1.398 . S
C1240 C1241 1.391 . S
C1241 H1229 0.950 . S
C1241 C1237 1.393 . S
C1241 C1240 1.391 . S
C1242 H1232 0.950 . S
C1242 C1243 1.386 . S
C1242 C1244 1.391 . S
C1243 C1242 1.386 . S
C1243 C1247 1.393 . S
C1244 H1233 0.950 . S
C1244 C1242 1.391 . S
C1244 C1245 1.400 . S
C1245 C1239 1.491 . S
C1245 C1244 1.400 . S
C1245 C1246 1.398 . S
C1246 H1234 0.950 . S
C1246 C1245 1.398 . S
C1246 C1247 1.391 . S
C1247 H1235 0.950 . S
C1247 C1243 1.393 . S
C1247 C1246 1.391 . S
H1248 C1256 0.950 . S
H1249 C1261 0.950 . S
H1250 C1258 0.950 . S
H1251 C1260 0.950 . S
H1252 C1262 0.950 . S
H1253 C1264 0.950 . S
H1254 C1266 0.950 . S
H1255 C1267 0.950 . S
C1256 H1248 0.950 . S
C1256 C1257 1.386 . S
C1256 C1258 1.391 . S
C1257 C1256 1.386 . S
C1257 C1261 1.393 . S
C1258 H1250 0.950 . S
C1258 C1256 1.391 . S
C1258 C1259 1.400 . S
C1259 C1258 1.400 . S
C1259 C1260 1.398 . S
C1259 C1265 1.491 . S
C1260 H1251 0.950 . S
C1260 C1259 1.398 . S
C1260 C1261 1.391 . S
C1261 H1249 0.950 . S
C1261 C1257 1.393 . S
C1261 C1260 1.391 . S
C1262 H1252 0.950 . S
C1262 C1263 1.386 . S
C1262 C1264 1.391 . S
C1263 C1262 1.386 . S
C1263 C1267 1.393 . S
C1264 H1253 0.950 . S
C1264 C1262 1.391 . S
C1264 C1265 1.400 . S
C1265 C1259 1.491 . S
C1265 C1264 1.400 . S
C1265 C1266 1.398 . S
C1266 H1254 0.950 . S
C1266 C1265 1.398 . S
C1266 C1267 1.391 . S
C1267 H1255 0.950 . S
C1267 C1263 1.393 . S
C1267 C1266 1.391 . S
H1268 C1276 0.950 . S
H1269 C1281 0.950 . S
H1270 C1278 0.950 . S
H1271 C1280 0.950 . S
H1272 C1282 0.950 . S
H1273 C1284 0.950 . S
H1274 C1286 0.950 . S
H1275 C1287 0.950 . S
C1276 H1268 0.950 . S
C1276 C1277 1.386 . S
C1276 C1278 1.391 . S
C1277 C1276 1.386 . S
C1277 C1281 1.393 . S
C1278 H1270 0.950 . S
C1278 C1276 1.391 . S
C1278 C1279 1.400 . S
C1279 C1278 1.400 . S
C1279 C1280 1.398 . S
C1279 C1285 1.491 . S
C1280 H1271 0.950 . S
C1280 C1279 1.398 . S
C1280 C1281 1.391 . S
C1281 H1269 0.950 . S
C1281 C1277 1.393 . S
C1281 C1280 1.391 . S
C1282 H1272 0.950 . S
C1282 C1283 1.386 . S
C1282 C1284 1.391 . S
C1283 C1282 1.386 . S
C1283 C1287 1.393 . S
C1284 H1273 0.950 . S
C1284 C1282 1.391 . S
C1284 C1285 1.400 . S
C1285 C1279 1.491 . S
C1285 C1284 1.400 . S
C1285 C1286 1.398 . S
C1286 H1274 0.950 . S
C1286 C1285 1.398 . S
C1286 C1287 1.391 . S
C1287 H1275 0.950 . S
C1287 C1283 1.393 . S
C1287 C1286 1.391 . S
H1288 C1296 0.950 . S
H1289 C1301 0.950 . S
H1290 C1298 0.950 . S
H1291 C1300 0.950 . S
H1292 C1302 0.950 . S
H1293 C1304 0.950 . S
H1294 C1306 0.950 . S
H1295 C1307 0.950 . S
C1296 H1288 0.950 . S
C1296 C1297 1.386 . S
C1296 C1298 1.391 . S
C1297 C1296 1.386 . S
C1297 C1301 1.393 . S
C1298 H1290 0.950 . S
C1298 C1296 1.391 . S
C1298 C1299 1.400 . S
C1299 C1298 1.400 . S
C1299 C1300 1.398 . S
C1299 C1305 1.491 . S
C1300 H1291 0.950 . S
C1300 C1299 1.398 . S
C1300 C1301 1.391 . S
C1301 H1289 0.950 . S
C1301 C1297 1.393 . S
C1301 C1300 1.391 . S
C1302 H1292 0.950 . S
C1302 C1303 1.386 . S
C1302 C1304 1.391 . S
C1303 C1302 1.386 . S
C1303 C1307 1.393 . S
C1304 H1293 0.950 . S
C1304 C1302 1.391 . S
C1304 C1305 1.400 . S
C1305 C1299 1.491 . S
C1305 C1304 1.400 . S
C1305 C1306 1.398 . S
C1306 H1294 0.950 . S
C1306 C1305 1.398 . S
C1306 C1307 1.391 . S
C1307 H1295 0.950 . S
C1307 C1303 1.393 . S
C1307 C1306 1.391 . S
H1308 C1316 0.950 . S
H1309 C1321 0.950 . S
H1310 C1318 0.950 . S
H1311 C1320 0.950 . S
H1312 C1322 0.950 . S
H1313 C1324 0.950 . S
H1314 C1326 0.950 . S
H1315 C1327 0.950 . S
C1316 H1308 0.950 . S
C1316 C1317 1.386 . S
C1316 C1318 1.391 . S
C1317 C1316 1.386 . S
C1317 C1321 1.393 . S
C1318 H1310 0.950 . S
C1318 C1316 1.391 . S
C1318 C1319 1.400 . S
C1319 C1318 1.400 . S
C1319 C1320 1.398 . S
C1319 C1325 1.491 . S
C1320 H1311 0.950 . S
C1320 C1319 1.398 . S
C1320 C1321 1.391 . S
C1321 H1309 0.950 . S
C1321 C1317 1.393 . S
C1321 C1320 1.391 . S
C1322 H1312 0.950 . S
C1322 C1323 1.386 . S
C1322 C1324 1.391 . S
C1323 C1322 1.386 . S
C1323 C1327 1.393 . S
C1324 H1313 0.950 . S
C1324 C1322 1.391 . S
C1324 C1325 1.400 . S
C1325 C1319 1.491 . S
C1325 C1324 1.400 . S
C1325 C1326 1.398 . S
C1326 H1314 0.950 . S
C1326 C1325 1.398 . S
C1326 C1327 1.391 . S
C1327 H1315 0.950 . S
C1327 C1323 1.393 . S
C1327 C1326 1.391 . S
H1328 C1336 0.950 . S
H1329 C1341 0.950 . S
H1330 C1338 0.950 . S
H1331 C1340 0.950 . S
H1332 C1342 0.950 . S
H1333 C1344 0.950 . S
H1334 C1346 0.950 . S
H1335 C1347 0.950 . S
C1336 H1328 0.950 . S
C1336 C1337 1.386 . S
C1336 C1338 1.391 . S
C1337 C1336 1.386 . S
C1337 C1341 1.393 . S
C1338 H1330 0.950 . S
C1338 C1336 1.391 . S
C1338 C1339 1.400 . S
C1339 C1338 1.400 . S
C1339 C1340 1.398 . S
C1339 C1345 1.491 . S
C1340 H1331 0.950 . S
C1340 C1339 1.398 . S
C1340 C1341 1.391 . S
C1341 H1329 0.950 . S
C1341 C1337 1.393 . S
C1341 C1340 1.391 . S
C1342 H1332 0.950 . S
C1342 C1343 1.386 . S
C1342 C1344 1.391 . S
C1343 C1342 1.386 . S
C1343 C1347 1.393 . S
C1344 H1333 0.950 . S
C1344 C1342 1.391 . S
C1344 C1345 1.400 . S
C1345 C1339 1.491 . S
C1345 C1344 1.400 . S
C1345 C1346 1.398 . S
C1346 H1334 0.950 . S
C1346 C1345 1.398 . S
C1346 C1347 1.391 . S
C1347 H1335 0.950 . S
C1347 C1343 1.393 . S
C1347 C1346 1.391 . S
H1348 C1356 0.950 . S
H1349 C1361 0.950 . S
H1350 C1358 0.950 . S
H1351 C1360 0.950 . S
H1352 C1362 0.950 . S
H1353 C1364 0.950 . S
H1354 C1366 0.950 . S
H1355 C1367 0.950 . S
C1356 H1348 0.950 . S
C1356 C1357 1.386 . S
C1356 C1358 1.391 . S
C1357 C1356 1.386 . S
C1357 C1361 1.393 . S
C1358 H1350 0.950 . S
C1358 C1356 1.391 . S
C1358 C1359 1.400 . S
C1359 C1358 1.400 . S
C1359 C1360 1.398 . S
C1359 C1365 1.491 . S
C1360 H1351 0.950 . S
C1360 C1359 1.398 . S
C1360 C1361 1.391 . S
C1361 H1349 0.950 . S
C1361 C1357 1.393 . S
C1361 C1360 1.391 . S
C1362 H1352 0.950 . S
C1362 C1363 1.386 . S
C1362 C1364 1.391 . S
C1363 C1362 1.386 . S
C1363 C1367 1.393 . S
C1364 H1353 0.950 . S
C1364 C1362 1.391 . S
C1364 C1365 1.400 . S
C1365 C1359 1.491 . S
C1365 C1364 1.400 . S
C1365 C1366 1.398 . S
C1366 H1354 0.950 . S
C1366 C1365 1.398 . S
C1366 C1367 1.391 . S
C1367 H1355 0.950 . S
C1367 C1363 1.393 . S
C1367 C1366 1.391 . S
H1368 C1376 0.950 . S
H1369 C1381 0.950 . S
H1370 C1378 0.950 . S
H1371 C1380 0.950 . S
H1372 C1382 0.950 . S
H1373 C1384 0.950 . S
H1374 C1386 0.950 . S
H1375 C1387 0.950 . S
C1376 H1368 0.950 . S
C1376 C1377 1.386 . S
C1376 C1378 1.391 . S
C1377 C1376 1.386 . S
C1377 C1381 1.393 . S
C1378 H1370 0.950 . S
C1378 C1376 1.391 . S
C1378 C1379 1.400 . S
C1379 C1378 1.400 . S
C1379 C1380 1.398 . S
C1379 C1385 1.491 . S
C1380 H1371 0.950 . S
C1380 C1379 1.398 . S
C1380 C1381 1.391 . S
C1381 H1369 0.950 . S
C1381 C1377 1.393 . S
C1381 C1380 1.391 . S
C1382 H1372 0.950 . S
C1382 C1383 1.386 . S
C1382 C1384 1.391 . S
C1383 C1382 1.386 . S
C1383 C1387 1.393 . S
C1384 H1373 0.950 . S
C1384 C1382 1.391 . S
C1384 C1385 1.400 . S
C1385 C1379 1.491 . S
C1385 C1384 1.400 . S
C1385 C1386 1.398 . S
C1386 H1374 0.950 . S
C1386 C1385 1.398 . S
C1386 C1387 1.391 . S
C1387 H1375 0.950 . S
C1387 C1383 1.393 . S
C1387 C1386 1.391 . S
H1388 C1396 0.950 . S
H1389 C1401 0.950 . S
H1390 C1398 0.950 . S
H1391 C1400 0.950 . S
H1392 C1402 0.950 . S
H1393 C1404 0.950 . S
H1394 C1406 0.950 . S
H1395 C1407 0.950 . S
C1396 H1388 0.950 . S
C1396 C1397 1.386 . S
C1396 C1398 1.391 . S
C1397 C1396 1.386 . S
C1397 C1401 1.393 . S
C1398 H1390 0.950 . S
C1398 C1396 1.391 . S
C1398 C1399 1.400 . S
C1399 C1398 1.400 . S
C1399 C1400 1.398 . S
C1399 C1405 1.491 . S
C1400 H1391 0.950 . S
C1400 C1399 1.398 . S
C1400 C1401 1.391 . S
C1401 H1389 0.950 . S
C1401 C1397 1.393 . S
C1401 C1400 1.391 . S
C1402 H1392 0.950 . S
C1402 C1403 1.386 . S
C1402 C1404 1.391 . S
C1403 C1402 1.386 . S
C1403 C1407 1.393 . S
C1404 H1393 0.950 . S
C1404 C1402 1.391 . S
C1404 C1405 1.400 . S
C1405 C1399 1.491 . S
C1405 C1404 1.400 . S
C1405 C1406 1.398 . S
C1406 H1394 0.950 . S
C1406 C1405 1.398 . S
C1406 C1407 1.391 . S
C1407 H1395 0.950 . S
C1407 C1403 1.393 . S
C1407 C1406 1.391 . S
H1408 C1416 0.950 . S
H1409 C1421 0.950 . S
H1410 C1418 0.950 . S
H1411 C1420 0.950 . S
H1412 C1422 0.950 . S
H1413 C1424 0.950 . S
H1414 C1426 0.950 . S
H1415 C1427 0.950 . S
C1416 H1408 0.950 . S
C1416 C1417 1.386 . S
C1416 C1418 1.391 . S
C1417 C1416 1.386 . S
C1417 C1421 1.393 . S
C1418 H1410 0.950 . S
C1418 C1416 1.391 . S
C1418 C1419 1.400 . S
C1419 C1418 1.400 . S
C1419 C1420 1.398 . S
C1419 C1425 1.491 . S
C1420 H1411 0.950 . S
C1420 C1419 1.398 . S
C1420 C1421 1.391 . S
C1421 H1409 0.950 . S
C1421 C1417 1.393 . S
C1421 C1420 1.391 . S
C1422 H1412 0.950 . S
C1422 C1423 1.386 . S
C1422 C1424 1.391 . S
C1423 C1422 1.386 . S
C1423 C1427 1.393 . S
C1424 H1413 0.950 . S
C1424 C1422 1.391 . S
C1424 C1425 1.400 . S
C1425 C1419 1.491 . S
C1425 C1424 1.400 . S
C1425 C1426 1.398 . S
C1426 H1414 0.950 . S
C1426 C1425 1.398 . S
C1426 C1427 1.391 . S
C1427 H1415 0.950 . S
C1427 C1423 1.393 . S
C1427 C1426 1.391 . S
H1428 C1436 0.950 . S
H1429 C1441 0.950 . S
H1430 C1438 0.950 . S
H1431 C1440 0.950 . S
H1432 C1442 0.950 . S
H1433 C1444 0.950 . S
H1434 C1446 0.950 . S
H1435 C1447 0.950 . S
C1436 H1428 0.950 . S
C1436 C1437 1.386 . S
C1436 C1438 1.391 . S
C1437 C1436 1.386 . S
C1437 C1441 1.393 . S
C1438 H1430 0.950 . S
C1438 C1436 1.391 . S
C1438 C1439 1.400 . S
C1439 C1438 1.400 . S
C1439 C1440 1.398 . S
C1439 C1445 1.491 . S
C1440 H1431 0.950 . S
C1440 C1439 1.398 . S
C1440 C1441 1.391 . S
C1441 H1429 0.950 . S
C1441 C1437 1.393 . S
C1441 C1440 1.391 . S
C1442 H1432 0.950 . S
C1442 C1443 1.386 . S
C1442 C1444 1.391 . S
C1443 C1442 1.386 . S
C1443 C1447 1.393 . S
C1444 H1433 0.950 . S
C1444 C1442 1.391 . S
C1444 C1445 1.400 . S
C1445 C1439 1.491 . S
C1445 C1444 1.400 . S
C1445 C1446 1.398 . S
C1446 H1434 0.950 . S
C1446 C1445 1.398 . S
C1446 C1447 1.391 . S
C1447 H1435 0.950 . S
C1447 C1443 1.393 . S
C1447 C1446 1.391 . S
H1448 C1456 0.950 . S
H1449 C1461 0.950 . S
H1450 C1458 0.950 . S
H1451 C1460 0.950 . S
H1452 C1462 0.950 . S
H1453 C1464 0.950 . S
H1454 C1466 0.950 . S
H1455 C1467 0.950 . S
C1456 H1448 0.950 . S
C1456 C1457 1.386 . S
C1456 C1458 1.391 . S
C1457 C1456 1.386 . S
C1457 C1461 1.393 . S
C1458 H1450 0.950 . S
C1458 C1456 1.391 . S
C1458 C1459 1.400 . S
C1459 C1458 1.400 . S
C1459 C1460 1.398 . S
C1459 C1465 1.491 . S
C1460 H1451 0.950 . S
C1460 C1459 1.398 . S
C1460 C1461 1.391 . S
C1461 H1449 0.950 . S
C1461 C1457 1.393 . S
C1461 C1460 1.391 . S
C1462 H1452 0.950 . S
C1462 C1463 1.386 . S
C1462 C1464 1.391 . S
C1463 C1462 1.386 . S
C1463 C1467 1.393 . S
C1464 H1453 0.950 . S
C1464 C1462 1.391 . S
C1464 C1465 1.400 . S
C1465 C1459 1.491 . S
C1465 C1464 1.400 . S
C1465 C1466 1.398 . S
C1466 H1454 0.950 . S
C1466 C1465 1.398 . S
C1466 C1467 1.391 . S
C1467 H1455 0.950 . S
C1467 C1463 1.393 . S
C1467 C1466 1.391 . S
H1468 C1476 0.950 . S
H1469 C1481 0.950 . S
H1470 C1478 0.950 . S
H1471 C1480 0.950 . S
H1472 C1482 0.950 . S
H1473 C1484 0.950 . S
H1474 C1486 0.950 . S
H1475 C1487 0.950 . S
C1476 H1468 0.950 . S
C1476 C1477 1.386 . S
C1476 C1478 1.391 . S
C1477 C1476 1.386 . S
C1477 C1481 1.393 . S
C1478 H1470 0.950 . S
C1478 C1476 1.391 . S
C1478 C1479 1.400 . S
C1479 C1478 1.400 . S
C1479 C1480 1.398 . S
C1479 C1485 1.491 . S
C1480 H1471 0.950 . S
C1480 C1479 1.398 . S
C1480 C1481 1.391 . S
C1481 H1469 0.950 . S
C1481 C1477 1.393 . S
C1481 C1480 1.391 . S
C1482 H1472 0.950 . S
C1482 C1483 1.386 . S
C1482 C1484 1.391 . S
C1483 C1482 1.386 . S
C1483 C1487 1.393 . S
C1484 H1473 0.950 . S
C1484 C1482 1.391 . S
C1484 C1485 1.400 . S
C1485 C1479 1.491 . S
C1485 C1484 1.400 . S
C1485 C1486 1.398 . S
C1486 H1474 0.950 . S
C1486 C1485 1.398 . S
C1486 C1487 1.391 . S
C1487 H1475 0.950 . S
C1487 C1483 1.393 . S
C1487 C1486 1.391 . S
H1488 C1496 0.950 . S
H1489 C1501 0.950 . S
H1490 C1498 0.950 . S
H1491 C1500 0.950 . S
H1492 C1502 0.950 . S
H1493 C1504 0.950 . S
H1494 C1506 0.950 . S
H1495 C1507 0.950 . S
C1496 H1488 0.950 . S
C1496 C1497 1.386 . S
C1496 C1498 1.391 . S
C1497 C1496 1.386 . S
C1497 C1501 1.393 . S
C1498 H1490 0.950 . S
C1498 C1496 1.391 . S
C1498 C1499 1.400 . S
C1499 C1498 1.400 . S
C1499 C1500 1.398 . S
C1499 C1505 1.491 . S
C1500 H1491 0.950 . S
C1500 C1499 1.398 . S
C1500 C1501 1.391 . S
C1501 H1489 0.950 . S
C1501 C1497 1.393 . S
C1501 C1500 1.391 . S
C1502 H1492 0.950 . S
C1502 C1503 1.386 . S
C1502 C1504 1.391 . S
C1503 C1502 1.386 . S
C1503 C1507 1.393 . S
C1504 H1493 0.950 . S
C1504 C1502 1.391 . S
C1504 C1505 1.400 . S
C1505 C1499 1.491 . S
C1505 C1504 1.400 . S
C1505 C1506 1.398 . S
C1506 H1494 0.950 . S
C1506 C1505 1.398 . S
C1506 C1507 1.391 . S
C1507 H1495 0.950 . S
C1507 C1503 1.393 . S
C1507 C1506 1.391 . S
H1508 C1516 0.950 . S
H1509 C1521 0.950 . S
H1510 C1518 0.950 . S
H1511 C1520 0.950 . S
H1512 C1522 0.950 . S
H1513 C1524 0.950 . S
H1514 C1526 0.950 . S
H1515 C1527 0.950 . S
C1516 H1508 0.950 . S
C1516 C1517 1.386 . S
C1516 C1518 1.391 . S
C1517 C1516 1.386 . S
C1517 C1521 1.393 . S
C1518 H1510 0.950 . S
C1518 C1516 1.391 . S
C1518 C1519 1.400 . S
C1519 C1518 1.400 . S
C1519 C1520 1.398 . S
C1519 C1525 1.491 . S
C1520 H1511 0.950 . S
C1520 C1519 1.398 . S
C1520 C1521 1.391 . S
C1521 H1509 0.950 . S
C1521 C1517 1.393 . S
C1521 C1520 1.391 . S
C1522 H1512 0.950 . S
C1522 C1523 1.386 . S
C1522 C1524 1.391 . S
C1523 C1522 1.386 . S
C1523 C1527 1.393 . S
C1524 H1513 0.950 . S
C1524 C1522 1.391 . S
C1524 C1525 1.400 . S
C1525 C1519 1.491 . S
C1525 C1524 1.400 . S
C1525 C1526 1.398 . S
C1526 H1514 0.950 . S
C1526 C1525 1.398 . S
C1526 C1527 1.391 . S
C1527 H1515 0.950 . S
C1527 C1523 1.393 . S
C1527 C1526 1.391 . S
H1528 C1536 0.950 . S
H1529 C1541 0.950 . S
H1530 C1538 0.950 . S
H1531 C1540 0.950 . S
H1532 C1542 0.950 . S
H1533 C1544 0.950 . S
H1534 C1546 0.950 . S
H1535 C1547 0.950 . S
C1536 H1528 0.950 . S
C1536 C1537 1.386 . S
C1536 C1538 1.391 . S
C1537 C1536 1.386 . S
C1537 C1541 1.393 . S
C1538 H1530 0.950 . S
C1538 C1536 1.391 . S
C1538 C1539 1.400 . S
C1539 C1538 1.400 . S
C1539 C1540 1.398 . S
C1539 C1545 1.491 . S
C1540 H1531 0.950 . S
C1540 C1539 1.398 . S
C1540 C1541 1.391 . S
C1541 H1529 0.950 . S
C1541 C1537 1.393 . S
C1541 C1540 1.391 . S
C1542 H1532 0.950 . S
C1542 C1543 1.386 . S
C1542 C1544 1.391 . S
C1543 C1542 1.386 . S
C1543 C1547 1.393 . S
C1544 H1533 0.950 . S
C1544 C1542 1.391 . S
C1544 C1545 1.400 . S
C1545 C1539 1.491 . S
C1545 C1544 1.400 . S
C1545 C1546 1.398 . S
C1546 H1534 0.950 . S
C1546 C1545 1.398 . S
C1546 C1547 1.391 . S
C1547 H1535 0.950 . S
C1547 C1543 1.393 . S
C1547 C1546 1.391 . S
H1548 C1556 0.950 . S
H1549 C1561 0.950 . S
H1550 C1558 0.950 . S
H1551 C1560 0.950 . S
H1552 C1562 0.950 . S
H1553 C1564 0.950 . S
H1554 C1566 0.950 . S
H1555 C1567 0.950 . S
C1556 H1548 0.950 . S
C1556 C1557 1.386 . S
C1556 C1558 1.391 . S
C1557 C1556 1.386 . S
C1557 C1561 1.393 . S
C1558 H1550 0.950 . S
C1558 C1556 1.391 . S
C1558 C1559 1.400 . S
C1559 C1558 1.400 . S
C1559 C1560 1.398 . S
C1559 C1565 1.491 . S
C1560 H1551 0.950 . S
C1560 C1559 1.398 . S
C1560 C1561 1.391 . S
C1561 H1549 0.950 . S
C1561 C1557 1.393 . S
C1561 C1560 1.391 . S
C1562 H1552 0.950 . S
C1562 C1563 1.386 . S
C1562 C1564 1.391 . S
C1563 C1562 1.386 . S
C1563 C1567 1.393 . S
C1564 H1553 0.950 . S
C1564 C1562 1.391 . S
C1564 C1565 1.400 . S
C1565 C1559 1.491 . S
C1565 C1564 1.400 . S
C1565 C1566 1.398 . S
C1566 H1554 0.950 . S
C1566 C1565 1.398 . S
C1566 C1567 1.391 . S
C1567 H1555 0.950 . S
C1567 C1563 1.393 . S
C1567 C1566 1.391 . S
H1568 C1576 0.950 . S
H1569 C1581 0.950 . S
H1570 C1578 0.950 . S
H1571 C1580 0.950 . S
H1572 C1582 0.950 . S
H1573 C1584 0.950 . S
H1574 C1586 0.950 . S
H1575 C1587 0.950 . S
C1576 H1568 0.950 . S
C1576 C1577 1.386 . S
C1576 C1578 1.391 . S
C1577 C1576 1.386 . S
C1577 C1581 1.393 . S
C1578 H1570 0.950 . S
C1578 C1576 1.391 . S
C1578 C1579 1.400 . S
C1579 C1578 1.400 . S
C1579 C1580 1.398 . S
C1579 C1585 1.491 . S
C1580 H1571 0.950 . S
C1580 C1579 1.398 . S
C1580 C1581 1.391 . S
C1581 H1569 0.950 . S
C1581 C1577 1.393 . S
C1581 C1580 1.391 . S
C1582 H1572 0.950 . S
C1582 C1583 1.386 . S
C1582 C1584 1.391 . S
C1583 C1582 1.386 . S
C1583 C1587 1.393 . S
C1584 H1573 0.950 . S
C1584 C1582 1.391 . S
C1584 C1585 1.400 . S
C1585 C1579 1.491 . S
C1585 C1584 1.400 . S
C1585 C1586 1.398 . S
C1586 H1574 0.950 . S
C1586 C1585 1.398 . S
C1586 C1587 1.391 . S
C1587 H1575 0.950 . S
C1587 C1583 1.393 . S
C1587 C1586 1.391 . S
H1588 C1596 0.950 . S
H1589 C1601 0.950 . S
H1590 C1598 0.950 . S
H1591 C1600 0.950 . S
H1592 C1602 0.950 . S
H1593 C1604 0.950 . S
H1594 C1606 0.950 . S
H1595 C1607 0.950 . S
C1596 H1588 0.950 . S
C1596 C1597 1.386 . S
C1596 C1598 1.391 . S
C1597 C1596 1.386 . S
C1597 C1601 1.393 . S
C1598 H1590 0.950 . S
C1598 C1596 1.391 . S
C1598 C1599 1.400 . S
C1599 C1598 1.400 . S
C1599 C1600 1.398 . S
C1599 C1605 1.491 . S
C1600 H1591 0.950 . S
C1600 C1599 1.398 . S
C1600 C1601 1.391 . S
C1601 H1589 0.950 . S
C1601 C1597 1.393 . S
C1601 C1600 1.391 . S
C1602 H1592 0.950 . S
C1602 C1603 1.386 . S
C1602 C1604 1.391 . S
C1603 C1602 1.386 . S
C1603 C1607 1.393 . S
C1604 H1593 0.950 . S
C1604 C1602 1.391 . S
C1604 C1605 1.400 . S
C1605 C1599 1.491 . S
C1605 C1604 1.400 . S
C1605 C1606 1.398 . S
C1606 H1594 0.950 . S
C1606 C1605 1.398 . S
C1606 C1607 1.391 . S
C1607 H1595 0.950 . S
C1607 C1603 1.393 . S
C1607 C1606 1.391 . S
H1608 C1616 0.950 . S
H1609 C1621 0.950 . S
H1610 C1618 0.950 . S
H1611 C1620 0.950 . S
H1612 C1622 0.950 . S
H1613 C1624 0.950 . S
H1614 C1626 0.950 . S
H1615 C1627 0.950 . S
C1616 H1608 0.950 . S
C1616 C1617 1.386 . S
C1616 C1618 1.391 . S
C1617 C1616 1.386 . S
C1617 C1621 1.393 . S
C1618 H1610 0.950 . S
C1618 C1616 1.391 . S
C1618 C1619 1.400 . S
C1619 C1618 1.400 . S
C1619 C1620 1.398 . S
C1619 C1625 1.491 . S
C1620 H1611 0.950 . S
C1620 C1619 1.398 . S
C1620 C1621 1.391 . S
C1621 H1609 0.950 . S
C1621 C1617 1.393 . S
C1621 C1620 1.391 . S
C1622 H1612 0.950 . S
C1622 C1623 1.386 . S
C1622 C1624 1.391 . S
C1623 C1622 1.386 . S
C1623 C1627 1.393 . S
C1624 H1613 0.950 . S
C1624 C1622 1.391 . S
C1624 C1625 1.400 . S
C1625 C1619 1.491 . S
C1625 C1624 1.400 . S
C1625 C1626 1.398 . S
C1626 H1614 0.950 . S
C1626 C1625 1.398 . S
C1626 C1627 1.391 . S
C1627 H1615 0.950 . S
C1627 C1623 1.393 . S
C1627 C1626 1.391 . S
H1628 C1636 0.950 . S
H1629 C1641 0.950 . S
H1630 C1638 0.950 . S
H1631 C1640 0.950 . S
H1632 C1642 0.950 . S
H1633 C1644 0.950 . S
H1634 C1646 0.950 . S
H1635 C1647 0.950 . S
C1636 H1628 0.950 . S
C1636 C1637 1.386 . S
C1636 C1638 1.391 . S
C1637 C1636 1.386 . S
C1637 C1641 1.393 . S
C1638 H1630 0.950 . S
C1638 C1636 1.391 . S
C1638 C1639 1.400 . S
C1639 C1638 1.400 . S
C1639 C1640 1.398 . S
C1639 C1645 1.491 . S
C1640 H1631 0.950 . S
C1640 C1639 1.398 . S
C1640 C1641 1.391 . S
C1641 H1629 0.950 . S
C1641 C1637 1.393 . S
C1641 C1640 1.391 . S
C1642 H1632 0.950 . S
C1642 C1643 1.386 . S
C1642 C1644 1.391 . S
C1643 C1642 1.386 . S
C1643 C1647 1.393 . S
C1644 H1633 0.950 . S
C1644 C1642 1.391 . S
C1644 C1645 1.400 . S
C1645 C1639 1.491 . S
C1645 C1644 1.400 . S
C1645 C1646 1.398 . S
C1646 H1634 0.950 . S
C1646 C1645 1.398 . S
C1646 C1647 1.391 . S
C1647 H1635 0.950 . S
C1647 C1643 1.393 . S
C1647 C1646 1.391 . S
H1648 C1656 0.950 . S
H1649 C1661 0.950 . S
H1650 C1658 0.950 . S
H1651 C1660 0.950 . S
H1652 C1662 0.950 . S
H1653 C1664 0.950 . S
H1654 C1666 0.950 . S
H1655 C1667 0.950 . S
C1656 H1648 0.950 . S
C1656 C1657 1.386 . S
C1656 C1658 1.391 . S
C1657 C1656 1.386 . S
C1657 C1661 1.393 . S
C1658 H1650 0.950 . S
C1658 C1656 1.391 . S
C1658 C1659 1.400 . S
C1659 C1658 1.400 . S
C1659 C1660 1.398 . S
C1659 C1665 1.491 . S
C1660 H1651 0.950 . S
C1660 C1659 1.398 . S
C1660 C1661 1.391 . S
C1661 H1649 0.950 . S
C1661 C1657 1.393 . S
C1661 C1660 1.391 . S
C1662 H1652 0.950 . S
C1662 C1663 1.386 . S
C1662 C1664 1.391 . S
C1663 C1662 1.386 . S
C1663 C1667 1.393 . S
C1664 H1653 0.950 . S
C1664 C1662 1.391 . S
C1664 C1665 1.400 . S
C1665 C1659 1.491 . S
C1665 C1664 1.400 . S
C1665 C1666 1.398 . S
C1666 H1654 0.950 . S
C1666 C1665 1.398 . S
C1666 C1667 1.391 . S
C1667 H1655 0.950 . S
C1667 C1663 1.393 . S
C1667 C1666 1.391 . S
H1668 C1676 0.950 . S
H1669 C1681 0.950 . S
H1670 C1678 0.950 . S
H1671 C1680 0.950 . S
H1672 C1682 0.950 . S
H1673 C1684 0.950 . S
H1674 C1686 0.950 . S
H1675 C1687 0.950 . S
C1676 H1668 0.950 . S
C1676 C1677 1.386 . S
C1676 C1678 1.391 . S
C1677 C1676 1.386 . S
C1677 C1681 1.393 . S
C1678 H1670 0.950 . S
C1678 C1676 1.391 . S
C1678 C1679 1.400 . S
C1679 C1678 1.400 . S
C1679 C1680 1.398 . S
C1679 C1685 1.491 . S
C1680 H1671 0.950 . S
C1680 C1679 1.398 . S
C1680 C1681 1.391 . S
C1681 H1669 0.950 . S
C1681 C1677 1.393 . S
C1681 C1680 1.391 . S
C1682 H1672 0.950 . S
C1682 C1683 1.386 . S
C1682 C1684 1.391 . S
C1683 C1682 1.386 . S
C1683 C1687 1.393 . S
C1684 H1673 0.950 . S
C1684 C1682 1.391 . S
C1684 C1685 1.400 . S
C1685 C1679 1.491 . S
C1685 C1684 1.400 . S
C1685 C1686 1.398 . S
C1686 H1674 0.950 . S
C1686 C1685 1.398 . S
C1686 C1687 1.391 . S
C1687 H1675 0.950 . S
C1687 C1683 1.393 . S
C1687 C1686 1.391 . S
H1688 C1696 0.950 . S
H1689 C1701 0.950 . S
H1690 C1698 0.950 . S
H1691 C1700 0.950 . S
H1692 C1702 0.950 . S
H1693 C1704 0.950 . S
H1694 C1706 0.950 . S
H1695 C1707 0.950 . S
C1696 H1688 0.950 . S
C1696 C1697 1.386 . S
C1696 C1698 1.391 . S
C1697 C1696 1.386 . S
C1697 C1701 1.393 . S
C1698 H1690 0.950 . S
C1698 C1696 1.391 . S
C1698 C1699 1.400 . S
C1699 C1698 1.400 . S
C1699 C1700 1.398 . S
C1699 C1705 1.491 . S
C1700 H1691 0.950 . S
C1700 C1699 1.398 . S
C1700 C1701 1.391 . S
C1701 H1689 0.950 . S
C1701 C1697 1.393 . S
C1701 C1700 1.391 . S
C1702 H1692 0.950 . S
C1702 C1703 1.386 . S
C1702 C1704 1.391 . S
C1703 C1702 1.386 . S
C1703 C1707 1.393 . S
C1704 H1693 0.950 . S
C1704 C1702 1.391 . S
C1704 C1705 1.400 . S
C1705 C1699 1.491 . S
C1705 C1704 1.400 . S
C1705 C1706 1.398 . S
C1706 H1694 0.950 . S
C1706 C1705 1.398 . S
C1706 C1707 1.391 . S
C1707 H1695 0.950 . S
C1707 C1703 1.393 . S
C1707 C1706 1.391 . S
H1708 C1716 0.950 . S
H1709 C1721 0.950 . S
H1710 C1718 0.950 . S
H1711 C1720 0.950 . S
H1712 C1722 0.950 . S
H1713 C1724 0.950 . S
H1714 C1726 0.950 . S
H1715 C1727 0.950 . S
C1716 H1708 0.950 . S
C1716 C1717 1.386 . S
C1716 C1718 1.391 . S
C1717 C1716 1.386 . S
C1717 C1721 1.393 . S
C1718 H1710 0.950 . S
C1718 C1716 1.391 . S
C1718 C1719 1.400 . S
C1719 C1718 1.400 . S
C1719 C1720 1.398 . S
C1719 C1725 1.491 . S
C1720 H1711 0.950 . S
C1720 C1719 1.398 . S
C1720 C1721 1.391 . S
C1721 H1709 0.950 . S
C1721 C1717 1.393 . S
C1721 C1720 1.391 . S
C1722 H1712 0.950 . S
C1722 C1723 1.386 . S
C1722 C1724 1.391 . S
C1723 C1722 1.386 . S
C1723 C1727 1.393 . S
C1724 H1713 0.950 . S
C1724 C1722 1.391 . S
C1724 C1725 1.400 . S
C1725 C1719 1.491 . S
C1725 C1724 1.400 . S
C1725 C1726 1.398 . S
C1726 H1714 0.950 . S
C1726 C1725 1.398 . S
C1726 C1727 1.391 . S
C1727 H1715 0.950 . S
C1727 C1723 1.393 . S
C1727 C1726 1.391 . S
H1728 C1736 0.950 . S
H1729 C1741 0.950 . S
H1730 C1738 0.950 . S
H1731 C1740 0.950 . S
H1732 C1742 0.950 . S
H1733 C1744 0.950 . S
H1734 C1746 0.950 . S
H1735 C1747 0.950 . S
C1736 H1728 0.950 . S
C1736 C1737 1.386 . S
C1736 C1738 1.391 . S
C1737 C1736 1.386 . S
C1737 C1741 1.393 . S
C1738 H1730 0.950 . S
C1738 C1736 1.391 . S
C1738 C1739 1.400 . S
C1739 C1738 1.400 . S
C1739 C1740 1.398 . S
C1739 C1745 1.491 . S
C1740 H1731 0.950 . S
C1740 C1739 1.398 . S
C1740 C1741 1.391 . S
C1741 H1729 0.950 . S
C1741 C1737 1.393 . S
C1741 C1740 1.391 . S
C1742 H1732 0.950 . S
C1742 C1743 1.386 . S
C1742 C1744 1.391 . S
C1743 C1742 1.386 . S
C1743 C1747 1.393 . S
C1744 H1733 0.950 . S
C1744 C1742 1.391 . S
C1744 C1745 1.400 . S
C1745 C1739 1.491 . S
C1745 C1744 1.400 . S
C1745 C1746 1.398 . S
C1746 H1734 0.950 . S
C1746 C1745 1.398 . S
C1746 C1747 1.391 . S
C1747 H1735 0.950 . S
C1747 C1743 1.393 . S
C1747 C1746 1.391 . S
H1748 C1756 0.950 . S
H1749 C1761 0.950 . S
H1750 C1758 0.950 . S
H1751 C1760 0.950 . S
H1752 C1762 0.950 . S
H1753 C1764 0.950 . S
H1754 C1766 0.950 . S
H1755 C1767 0.950 . S
C1756 H1748 0.950 . S
C1756 C1757 1.386 . S
C1756 C1758 1.391 . S
C1757 C1756 1.386 . S
C1757 C1761 1.393 . S
C1758 H1750 0.950 . S
C1758 C1756 1.391 . S
C1758 C1759 1.400 . S
C1759 C1758 1.400 . S
C1759 C1760 1.398 . S
C1759 C1765 1.491 . S
C1760 H1751 0.950 . S
C1760 C1759 1.398 . S
C1760 C1761 1.391 . S
C1761 H1749 0.950 . S
C1761 C1757 1.393 . S
C1761 C1760 1.391 . S
C1762 H1752 0.950 . S
C1762 C1763 1.386 . S
C1762 C1764 1.391 . S
C1763 C1762 1.386 . S
C1763 C1767 1.393 . S
C1764 H1753 0.950 . S
C1764 C1762 1.391 . S
C1764 C1765 1.400 . S
C1765 C1759 1.491 . S
C1765 C1764 1.400 . S
C1765 C1766 1.398 . S
C1766 H1754 0.950 . S
C1766 C1765 1.398 . S
C1766 C1767 1.391 . S
C1767 H1755 0.950 . S
C1767 C1763 1.393 . S
C1767 C1766 1.391 . S
H1768 C1776 0.950 . S
H1769 C1781 0.950 . S
H1770 C1778 0.950 . S
H1771 C1780 0.950 . S
H1772 C1782 0.950 . S
H1773 C1784 0.950 . S
H1774 C1786 0.950 . S
H1775 C1787 0.950 . S
C1776 H1768 0.950 . S
C1776 C1777 1.386 . S
C1776 C1778 1.391 . S
C1777 C1776 1.386 . S
C1777 C1781 1.393 . S
C1778 H1770 0.950 . S
C1778 C1776 1.391 . S
C1778 C1779 1.400 . S
C1779 C1778 1.400 . S
C1779 C1780 1.398 . S
C1779 C1785 1.491 . S
C1780 H1771 0.950 . S
C1780 C1779 1.398 . S
C1780 C1781 1.391 . S
C1781 H1769 0.950 . S
C1781 C1777 1.393 . S
C1781 C1780 1.391 . S
C1782 H1772 0.950 . S
C1782 C1783 1.386 . S
C1782 C1784 1.391 . S
C1783 C1782 1.386 . S
C1783 C1787 1.393 . S
C1784 H1773 0.950 . S
C1784 C1782 1.391 . S
C1784 C1785 1.400 . S
C1785 C1779 1.491 . S
C1785 C1784 1.400 . S
C1785 C1786 1.398 . S
C1786 H1774 0.950 . S
C1786 C1785 1.398 . S
C1786 C1787 1.391 . S
C1787 H1775 0.950 . S
C1787 C1783 1.393 . S
C1787 C1786 1.391 . S
H1788 C1796 0.950 . S
H1789 C1801 0.950 . S
H1790 C1798 0.950 . S
H1791 C1800 0.950 . S
H1792 C1802 0.950 . S
H1793 C1804 0.950 . S
H1794 C1806 0.950 . S
H1795 C1807 0.950 . S
C1796 H1788 0.950 . S
C1796 C1797 1.386 . S
C1796 C1798 1.391 . S
C1797 C1796 1.386 . S
C1797 C1801 1.393 . S
C1798 H1790 0.950 . S
C1798 C1796 1.391 . S
C1798 C1799 1.400 . S
C1799 C1798 1.400 . S
C1799 C1800 1.398 . S
C1799 C1805 1.491 . S
C1800 H1791 0.950 . S
C1800 C1799 1.398 . S
C1800 C1801 1.391 . S
C1801 H1789 0.950 . S
C1801 C1797 1.393 . S
C1801 C1800 1.391 . S
C1802 H1792 0.950 . S
C1802 C1803 1.386 . S
C1802 C1804 1.391 . S
C1803 C1802 1.386 . S
C1803 C1807 1.393 . S
C1804 H1793 0.950 . S
C1804 C1802 1.391 . S
C1804 C1805 1.400 . S
C1805 C1799 1.491 . S
C1805 C1804 1.400 . S
C1805 C1806 1.398 . S
C1806 H1794 0.950 . S
C1806 C1805 1.398 . S
C1806 C1807 1.391 . S
C1807 H1795 0.950 . S
C1807 C1803 1.393 . S
C1807 C1806 1.391 . S
H1808 C1816 0.950 . S
H1809 C1821 0.950 . S
H1810 C1818 0.950 . S
H1811 C1820 0.950 . S
H1812 C1822 0.950 . S
H1813 C1824 0.950 . S
H1814 C1826 0.950 . S
H1815 C1827 0.950 . S
C1816 H1808 0.950 . S
C1816 C1817 1.386 . S
C1816 C1818 1.391 . S
C1817 C1816 1.386 . S
C1817 C1821 1.393 . S
C1818 H1810 0.950 . S
C1818 C1816 1.391 . S
C1818 C1819 1.400 . S
C1819 C1818 1.400 . S
C1819 C1820 1.398 . S
C1819 C1825 1.491 . S
C1820 H1811 0.950 . S
C1820 C1819 1.398 . S
C1820 C1821 1.391 . S
C1821 H1809 0.950 . S
C1821 C1817 1.393 . S
C1821 C1820 1.391 . S
C1822 H1812 0.950 . S
C1822 C1823 1.386 . S
C1822 C1824 1.391 . S
C1823 C1822 1.386 . S
C1823 C1827 1.393 . S
C1824 H1813 0.950 . S
C1824 C1822 1.391 . S
C1824 C1825 1.400 . S
C1825 C1819 1.491 . S
C1825 C1824 1.400 . S
C1825 C1826 1.398 . S
C1826 H1814 0.950 . S
C1826 C1825 1.398 . S
C1826 C1827 1.391 . S
C1827 H1815 0.950 . S
C1827 C1823 1.393 . S
C1827 C1826 1.391 . S
H1828 C1836 0.950 . S
H1829 C1841 0.950 . S
H1830 C1838 0.950 . S
H1831 C1840 0.950 . S
H1832 C1842 0.950 . S
H1833 C1844 0.950 . S
H1834 C1846 0.950 . S
H1835 C1847 0.950 . S
C1836 H1828 0.950 . S
C1836 C1837 1.386 . S
C1836 C1838 1.391 . S
C1837 C1836 1.386 . S
C1837 C1841 1.393 . S
C1838 H1830 0.950 . S
C1838 C1836 1.391 . S
C1838 C1839 1.400 . S
C1839 C1838 1.400 . S
C1839 C1840 1.398 . S
C1839 C1845 1.491 . S
C1840 H1831 0.950 . S
C1840 C1839 1.398 . S
C1840 C1841 1.391 . S
C1841 H1829 0.950 . S
C1841 C1837 1.393 . S
C1841 C1840 1.391 . S
C1842 H1832 0.950 . S
C1842 C1843 1.386 . S
C1842 C1844 1.391 . S
C1843 C1842 1.386 . S
C1843 C1847 1.393 . S
C1844 H1833 0.950 . S
C1844 C1842 1.391 . S
C1844 C1845 1.400 . S
C1845 C1839 1.491 . S
C1845 C1844 1.400 . S
C1845 C1846 1.398 . S
C1846 H1834 0.950 . S
C1846 C1845 1.398 . S
C1846 C1847 1.391 . S
C1847 H1835 0.950 . S
C1847 C1843 1.393 . S
C1847 C1846 1.391 . S
H1848 C1856 0.950 . S
H1849 C1861 0.950 . S
H1850 C1858 0.950 . S
H1851 C1860 0.950 . S
H1852 C1862 0.950 . S
H1853 C1864 0.950 . S
H1854 C1866 0.950 . S
H1855 C1867 0.950 . S
C1856 H1848 0.950 . S
C1856 C1857 1.386 . S
C1856 C1858 1.391 . S
C1857 C1856 1.386 . S
C1857 C1861 1.393 . S
C1858 H1850 0.950 . S
C1858 C1856 1.391 . S
C1858 C1859 1.400 . S
C1859 C1858 1.400 . S
C1859 C1860 1.398 . S
C1859 C1865 1.491 . S
C1860 H1851 0.950 . S
C1860 C1859 1.398 . S
C1860 C1861 1.391 . S
C1861 H1849 0.950 . S
C1861 C1857 1.393 . S
C1861 C1860 1.391 . S
C1862 H1852 0.950 . S
C1862 C1863 1.386 . S
C1862 C1864 1.391 . S
C1863 C1862 1.386 . S
C1863 C1867 1.393 . S
C1864 H1853 0.950 . S
C1864 C1862 1.391 . S
C1864 C1865 1.400 . S
C1865 C1859 1.491 . S
C1865 C1864 1.400 . S
C1865 C1866 1.398 . S
C1866 H1854 0.950 . S
C1866 C1865 1.398 . S
C1866 C1867 1.391 . S
C1867 H1855 0.950 . S
C1867 C1863 1.393 . S
C1867 C1866 1.391 . S
H1868 C1876 0.950 . S
H1869 C1881 0.950 . S
H1870 C1878 0.950 . S
H1871 C1880 0.950 . S
H1872 C1882 0.950 . S
H1873 C1884 0.950 . S
H1874 C1886 0.950 . S
H1875 C1887 0.950 . S
C1876 H1868 0.950 . S
C1876 C1877 1.386 . S
C1876 C1878 1.391 . S
C1877 C1876 1.386 . S
C1877 C1881 1.393 . S
C1878 H1870 0.950 . S
C1878 C1876 1.391 . S
C1878 C1879 1.400 . S
C1879 C1878 1.400 . S
C1879 C1880 1.398 . S
C1879 C1885 1.491 . S
C1880 H1871 0.950 . S
C1880 C1879 1.398 . S
C1880 C1881 1.391 . S
C1881 H1869 0.950 . S
C1881 C1877 1.393 . S
C1881 C1880 1.391 . S
C1882 H1872 0.950 . S
C1882 C1883 1.386 . S
C1882 C1884 1.391 . S
C1883 C1882 1.386 . S
C1883 C1887 1.393 . S
C1884 H1873 0.950 . S
C1884 C1882 1.391 . S
C1884 C1885 1.400 . S
C1885 C1879 1.491 . S
C1885 C1884 1.400 . S
C1885 C1886 1.398 . S
C1886 H1874 0.950 . S
C1886 C1885 1.398 . S
C1886 C1887 1.391 . S
C1887 H1875 0.950 . S
C1887 C1883 1.393 . S
C1887 C1886 1.391 . S
H1888 C1896 0.950 . S
H1889 C1901 0.950 . S
H1890 C1898 0.950 . S
H1891 C1900 0.950 . S
H1892 C1902 0.950 . S
H1893 C1904 0.950 . S
H1894 C1906 0.950 . S
H1895 C1907 0.950 . S
C1896 H1888 0.950 . S
C1896 C1897 1.386 . S
C1896 C1898 1.391 . S
C1897 C1896 1.386 . S
C1897 C1901 1.393 . S
C1898 H1890 0.950 . S
C1898 C1896 1.391 . S
C1898 C1899 1.400 . S
C1899 C1898 1.400 . S
C1899 C1900 1.398 . S
C1899 C1905 1.491 . S
C1900 H1891 0.950 . S
C1900 C1899 1.398 . S
C1900 C1901 1.391 . S
C1901 H1889 0.950 . S
C1901 C1897 1.393 . S
C1901 C1900 1.391 . S
C1902 H1892 0.950 . S
C1902 C1903 1.386 . S
C1902 C1904 1.391 . S
C1903 C1902 1.386 . S
C1903 C1907 1.393 . S
C1904 H1893 0.950 . S
C1904 C1902 1.391 . S
C1904 C1905 1.400 . S
C1905 C1899 1.491 . S
C1905 C1904 1.400 . S
C1905 C1906 1.398 . S
C1906 H1894 0.950 . S
C1906 C1905 1.398 . S
C1906 C1907 1.391 . S
C1907 H1895 0.950 . S
C1907 C1903 1.393 . S
C1907 C1906 1.391 . S
H1908 C1916 0.950 . S
H1909 C1921 0.950 . S
H1910 C1918 0.950 . S
H1911 C1920 0.950 . S
H1912 C1922 0.950 . S
H1913 C1924 0.950 . S
H1914 C1926 0.950 . S
H1915 C1927 0.950 . S
C1916 H1908 0.950 . S
C1916 C1917 1.386 . S
C1916 C1918 1.391 . S
C1917 C1916 1.386 . S
C1917 C1921 1.393 . S
C1918 H1910 0.950 . S
C1918 C1916 1.391 . S
C1918 C1919 1.400 . S
C1919 C1918 1.400 . S
C1919 C1920 1.398 . S
C1919 C1925 1.491 . S
C1920 H1911 0.950 . S
C1920 C1919 1.398 . S
C1920 C1921 1.391 . S
C1921 H1909 0.950 . S
C1921 C1917 1.393 . S
C1921 C1920 1.391 . S
C1922 H1912 0.950 . S
C1922 C1923 1.386 . S
C1922 C1924 1.391 . S
C1923 C1922 1.386 . S
C1923 C1927 1.393 . S
C1924 H1913 0.950 . S
C1924 C1922 1.391 . S
C1924 C1925 1.400 . S
C1925 C1919 1.491 . S
C1925 C1924 1.400 . S
C1925 C1926 1.398 . S
C1926 H1914 0.950 . S
C1926 C1925 1.398 . S
C1926 C1927 1.391 . S
C1927 H1915 0.950 . S
C1927 C1923 1.393 . S
C1927 C1926 1.391 . S
H1928 C1936 0.950 . S
H1929 C1941 0.950 . S
H1930 C1938 0.950 . S
H1931 C1940 0.950 . S
H1932 C1942 0.950 . S
H1933 C1944 0.950 . S
H1934 C1946 0.950 . S
H1935 C1947 0.950 . S
C1936 H1928 0.950 . S
C1936 C1937 1.386 . S
C1936 C1938 1.391 . S
C1937 C1936 1.386 . S
C1937 C1941 1.393 . S
C1938 H1930 0.950 . S
C1938 C1936 1.391 . S
C1938 C1939 1.400 . S
C1939 C1938 1.400 . S
C1939 C1940 1.398 . S
C1939 C1945 1.491 . S
C1940 H1931 0.950 . S
C1940 C1939 1.398 . S
C1940 C1941 1.391 . S
C1941 H1929 0.950 . S
C1941 C1937 1.393 . S
C1941 C1940 1.391 . S
C1942 H1932 0.950 . S
C1942 C1943 1.386 . S
C1942 C1944 1.391 . S
C1943 C1942 1.386 . S
C1943 C1947 1.393 . S
C1944 H1933 0.950 . S
C1944 C1942 1.391 . S
C1944 C1945 1.400 . S
C1945 C1939 1.491 . S
C1945 C1944 1.400 . S
C1945 C1946 1.398 . S
C1946 H1934 0.950 . S
C1946 C1945 1.398 . S
C1946 C1947 1.391 . S
C1947 H1935 0.950 . S
C1947 C1943 1.393 . S
C1947 C1946 1.391 . S
H1948 C1956 0.950 . S
H1949 C1961 0.950 . S
H1950 C1958 0.950 . S
H1951 C1960 0.950 . S
H1952 C1962 0.950 . S
H1953 C1964 0.950 . S
H1954 C1966 0.950 . S
H1955 C1967 0.950 . S
C1956 H1948 0.950 . S
C1956 C1957 1.386 . S
C1956 C1958 1.391 . S
C1957 C1956 1.386 . S
C1957 C1961 1.393 . S
C1958 H1950 0.950 . S
C1958 C1956 1.391 . S
C1958 C1959 1.400 . S
C1959 C1958 1.400 . S
C1959 C1960 1.398 . S
C1959 C1965 1.491 . S
C1960 H1951 0.950 . S
C1960 C1959 1.398 . S
C1960 C1961 1.391 . S
C1961 H1949 0.950 . S
C1961 C1957 1.393 . S
C1961 C1960 1.391 . S
C1962 H1952 0.950 . S
C1962 C1963 1.386 . S
C1962 C1964 1.391 . S
C1963 C1962 1.386 . S
C1963 C1967 1.393 . S
C1964 H1953 0.950 . S
C1964 C1962 1.391 . S
C1964 C1965 1.400 . S
C1965 C1959 1.491 . S
C1965 C1964 1.400 . S
C1965 C1966 1.398 . S
C1966 H1954 0.950 . S
C1966 C1965 1.398 . S
C1966 C1967 1.391 . S
C1967 H1955 0.950 . S
C1967 C1963 1.393 . S
C1967 C1966 1.391 . S
C537 C9 1.134 . S
C543 C138 1.138 1_655 S
C557 C28 1.131 1_565 S
C563 C159 1.141 . S
C577 C95 1.143 1_655 S
C583 C53 1.129 . S
C597 C73 1.128 1_565 S
C603 C115 1.144 . S
C617 C71 1.130 . S
C623 C31 1.141 1_565 S
C637 C50 1.130 1_655 S
C643 C6 1.141 . S
C657 C117 1.144 . S
C663 C161 1.128 1_565 S
C677 C141 1.128 . S
C683 C93 1.145 1_655 S
C697 C181 1.144 1_556 S
C703 C207 1.128 . S
C717 C183 1.134 1_556 S
C723 C229 1.138 . S
C737 C226 1.138 1_556 S
C743 C249 1.134 . S
C757 C247 1.131 1_556 S
C763 C204 1.140 . S
C777 C273 1.128 . S
C783 C402 1.145 . S
C797 C423 1.139 . S
C803 C292 1.134 . S
C817 C317 1.144 . S
C823 C359 1.129 . S
C837 C337 1.137 . S
C843 C379 1.136 . S
C857 C335 1.128 . S
C863 C295 1.145 . S
C877 C314 1.128 . S
C883 C270 1.145 . S
C897 C381 1.144 . S
C903 C425 1.129 . S
C917 C405 1.128 . S
C923 C357 1.144 . S
C937 C445 1.137 . S
C943 C469 1.135 . S
C957 C493 1.143 . S
C963 C447 1.130 . S
C977 C490 1.145 . S
C983 C513 1.128 . S
C997 C511 1.144 . S
C1003 C467 1.128 . S
C1017 C512 0.952 . S
C1023 C7 0.949 . S
C1037 C470 0.971 . S
C1043 C26 0.969 . S
C1057 C51 0.956 . S
C1063 C448 0.959 . S
C1077 C74 0.961 . S
C1083 C488 0.963 . S
C1097 C491 0.959 . S
C1103 C96 0.958 . S
C1117 C116 0.957 . S
C1123 C514 0.955 . S
C1137 C468 0.944 . S
C1143 C136 0.947 . S
C1157 C160 0.946 . S
C1163 C446 0.948 . S
C1177 C358 0.971 . S
C1183 C72 0.969 . S
C1197 C4 0.954 . S
C1203 C382 0.957 . S
C1217 C29 0.971 . S
C1223 C403 0.973 . S
C1237 C48 0.955 . S
C1243 C426 0.952 . S
C1257 C268 0.968 . S
C1263 C118 0.970 . S
C1277 C139 0.946 . S
C1283 C293 0.943 . S
C1297 C162 0.951 . S
C1303 C312 0.948 . S
C1317 C94 0.945 . S
C1323 C336 0.948 . S
C1337 C424 0.964 . S
C1343 C182 0.961 . S
C1357 C205 0.964 . S
C1363 C290 0.966 . S
C1377 C315 0.945 . S
C1383 C184 0.948 . S
C1397 C338 0.960 . S
C1403 C224 0.962 . S
C1417 C248 0.971 . S
C1423 C271 0.973 . S
C1437 C380 0.949 . S
C1443 C250 0.947 . S
C1457 C400 0.950 . S
C1463 C202 0.948 . S
C1477 C360 0.946 . S
C1483 C227 0.944 . S
C1497 C97 0.971 . S
C1503 C449 0.973 . S
C1517 C114 0.970 . S
C1523 C489 0.973 . S
C1537 C137 0.956 . S
C1543 C510 0.953 . S
C1557 C471 0.951 . S
C1563 C158 0.948 . S
C1577 C466 0.964 . S
C1583 C8 0.966 . S
C1597 C27 0.970 . S
C1603 C444 0.973 . S
C1617 C52 0.958 . S
C1623 C492 0.956 . S
C1637 C515 0.947 . S
C1643 C75 0.945 . S
C1657 C269 0.971 . S
C1663 C163 0.973 . S
C1677 C92 0.945 . S
C1683 C294 0.943 . S
C1697 C313 0.971 . S
C1703 C119 0.968 . S
C1717 C334 0.945 . S
C1723 C140 0.947 . S
C1737 C356 0.946 . S
C1743 C30 0.943 . S
C1757 C49 0.945 . S
C1763 C383 0.948 . S
C1777 C404 0.961 . S
C1783 C70 0.964 . S
C1797 C427 0.954 . S
C1803 C5 0.952 . S
C1817 C251 0.959 . S
C1823 C339 0.963 . S
C1837 C225 0.970 . S
C1843 C378 0.967 . S
C1857 C401 0.951 . S
C1863 C246 0.949 . S
C1877 C206 0.961 . S
C1883 C422 0.959 . S
C1897 C185 0.966 . S
C1903 C361 0.964 . S
C1917 C291 0.945 . S
C1923 C180 0.948 . S
C1937 C228 0.957 . S
C1943 C316 0.960 . S
C1957 C272 0.970 . S
C1963 C203 0.972 . S
