# Generated by pormake.
# Topology mon, (4)-cn, num edge types: 1
# Building blocks:
#     Node 0, Type 0, BuildingBlock: CEKHIL_clean_sbu_0, # of connection points: 4
#     Node 1, Type 0, BuildingBlock: CEKHIL_clean_sbu_0, # of connection points: 4
#     Node 2, Type 0, BuildingBlock: CEKHIL_clean_sbu_0, # of connection points: 4
#     Node 3, Type 0, BuildingBlock: CEKHIL_clean_sbu_0, # of connection points: 4
#     Node 4, Type 0, BuildingBlock: CEKHIL_clean_sbu_0, # of connection points: 4
#     Node 5, Type 0, BuildingBlock: CEKHIL_clean_sbu_0, # of connection points: 4
#     Node 6, Type 0, BuildingBlock: CEKHIL_clean_sbu_0, # of connection points: 4
#     Node 7, Type 0, BuildingBlock: CEKHIL_clean_sbu_0, # of connection points: 4
#     Node 8, Type 0, BuildingBlock: CEKHIL_clean_sbu_0, # of connection points: 4
#     Node 9, Type 0, BuildingBlock: CEKHIL_clean_sbu_0, # of connection points: 4
#     Node 10, Type 0, BuildingBlock: CEKHIL_clean_sbu_0, # of connection points: 4
#     Node 11, Type 0, BuildingBlock: CEKHIL_clean_sbu_0, # of connection points: 4
#     Node 12, Type 0, BuildingBlock: CEKHIL_clean_sbu_0, # of connection points: 4
#     Node 13, Type 0, BuildingBlock: CEKHIL_clean_sbu_0, # of connection points: 4
#     Node 14, Type 0, BuildingBlock: CEKHIL_clean_sbu_0, # of connection points: 4
#     Node 15, Type 0, BuildingBlock: CEKHIL_clean_sbu_0, # of connection points: 4
#     Edge 16, Type (0, 0), BuildingBlock: AJUNOK_clean_linker_0, # of connection points: 2
#     Edge 17, Type (0, 0), BuildingBlock: AJUNOK_clean_linker_0, # of connection points: 2
#     Edge 18, Type (0, 0), BuildingBlock: AJUNOK_clean_linker_0, # of connection points: 2
#     Edge 19, Type (0, 0), BuildingBlock: AJUNOK_clean_linker_0, # of connection points: 2
#     Edge 20, Type (0, 0), BuildingBlock: AJUNOK_clean_linker_0, # of connection points: 2
#     Edge 21, Type (0, 0), BuildingBlock: AJUNOK_clean_linker_0, # of connection points: 2
#     Edge 22, Type (0, 0), BuildingBlock: AJUNOK_clean_linker_0, # of connection points: 2
#     Edge 23, Type (0, 0), BuildingBlock: AJUNOK_clean_linker_0, # of connection points: 2
#     Edge 24, Type (0, 0), BuildingBlock: AJUNOK_clean_linker_0, # of connection points: 2
#     Edge 25, Type (0, 0), BuildingBlock: AJUNOK_clean_linker_0, # of connection points: 2
#     Edge 26, Type (0, 0), BuildingBlock: AJUNOK_clean_linker_0, # of connection points: 2
#     Edge 27, Type (0, 0), BuildingBlock: AJUNOK_clean_linker_0, # of connection points: 2
#     Edge 28, Type (0, 0), BuildingBlock: AJUNOK_clean_linker_0, # of connection points: 2
#     Edge 29, Type (0, 0), BuildingBlock: AJUNOK_clean_linker_0, # of connection points: 2
#     Edge 30, Type (0, 0), BuildingBlock: AJUNOK_clean_linker_0, # of connection points: 2
#     Edge 31, Type (0, 0), BuildingBlock: AJUNOK_clean_linker_0, # of connection points: 2
#     Edge 32, Type (0, 0), BuildingBlock: AJUNOK_clean_linker_0, # of connection points: 2
#     Edge 33, Type (0, 0), BuildingBlock: AJUNOK_clean_linker_0, # of connection points: 2
#     Edge 34, Type (0, 0), BuildingBlock: AJUNOK_clean_linker_0, # of connection points: 2
#     Edge 35, Type (0, 0), BuildingBlock: AJUNOK_clean_linker_0, # of connection points: 2
#     Edge 36, Type (0, 0), BuildingBlock: AJUNOK_clean_linker_0, # of connection points: 2
#     Edge 37, Type (0, 0), BuildingBlock: AJUNOK_clean_linker_0, # of connection points: 2
#     Edge 38, Type (0, 0), BuildingBlock: AJUNOK_clean_linker_0, # of connection points: 2
#     Edge 39, Type (0, 0), BuildingBlock: AJUNOK_clean_linker_0, # of connection points: 2
#     Edge 40, Type (0, 0), BuildingBlock: AJUNOK_clean_linker_0, # of connection points: 2
#     Edge 41, Type (0, 0), BuildingBlock: AJUNOK_clean_linker_0, # of connection points: 2
#     Edge 42, Type (0, 0), BuildingBlock: AJUNOK_clean_linker_0, # of connection points: 2
#     Edge 43, Type (0, 0), BuildingBlock: AJUNOK_clean_linker_0, # of connection points: 2
#     Edge 44, Type (0, 0), BuildingBlock: AJUNOK_clean_linker_0, # of connection points: 2
#     Edge 45, Type (0, 0), BuildingBlock: AJUNOK_clean_linker_0, # of connection points: 2
#     Edge 46, Type (0, 0), BuildingBlock: AJUNOK_clean_linker_0, # of connection points: 2
#     Edge 47, Type (0, 0), BuildingBlock: AJUNOK_clean_linker_0, # of connection points: 2
# Relax obj value: 0.188
# Max RMSD: 0.179
# Mean RMSD: 0.179
data_MOF--net-mon--node1-CEKHIL_clean_sbu_0--edge1-AJUNOK_clean_linker_0
_symmetry_space_group_name_H-M    P1
_symmetry_Int_Tables_number       1
_symmetry_cell_setting            triclinic
loop_
_symmetry_equiv_pos_as_xyz
'x, y, z'
_cell_length_a     24.239265
_cell_length_b     24.196894
_cell_length_c     62.539607
_cell_angle_alpha  90.016072
_cell_angle_beta   90.019899
_cell_angle_gamma 89.981886
loop_
_atom_site_label
_atom_site_type_symbol
_atom_site_fract_x
_atom_site_fract_y
_atom_site_fract_z
_atom_type_partial_charge
Co0 Co 0.04995 0.05147 0.5825 0.0
O1 O 0.08345 0.12058 0.57349 0.0
O2 O 1.00176 0.11426 0.58865 0.0
C3 C 0.12679 0.01684 0.5985 0.0
O4 O 1.00268 0.9884 0.59502 0.0
Co5 Co 0.09514 0.93661 0.56718 0.0
O6 O 0.05019 0.90904 0.59117 0.0
C7 C 0.02218 1.00278 0.53892 0.0
C8 C 0.0402 0.14587 0.5808 0.0
C9 C 1.00989 0.93638 0.59882 0.0
O10 O 0.01545 0.04049 0.55331 0.0
O11 O 0.05394 0.96097 0.54131 0.0
O12 O 0.09534 0.05178 0.60858 0.0
O13 O 0.11318 1.00779 0.57895 0.0
Co14 Co 0.24502 0.78905 0.83202 0.0
O15 O 0.1748 0.82297 0.8248 0.0
O16 O 0.18343 0.73928 0.83815 0.0
C17 C 0.28005 0.86471 0.84884 0.0
O18 O 0.30992 0.74066 0.84233 0.0
Co19 Co 0.35741 0.83878 0.81596 0.0
O20 O 0.39017 0.78436 0.83564 0.0
C21 C 0.29039 0.7669 0.78749 0.0
C22 C 0.15072 0.77841 0.83153 0.0
C23 C 0.36314 0.74385 0.84332 0.0
O24 O 0.25336 0.75849 0.802 0.0
O25 O 0.3315 0.79945 0.78988 0.0
O26 O 0.24731 0.83119 0.85903 0.0
O27 O 0.28716 0.85333 0.829 0.0
Co28 Co 0.51047 0.97551 0.08126 0.0
O29 O 0.47891 0.90564 0.07206 0.0
O30 O 0.55984 0.91415 0.08779 0.0
C31 C 0.43189 1.00844 0.0964 0.0
O32 O 0.55598 0.03943 0.09406 0.0
Co33 Co 0.46432 0.08986 0.06593 0.0
O34 O 0.50754 0.11821 0.09027 0.0
C35 C 0.5385 0.02429 0.03787 0.0
C36 C 0.52275 0.88164 0.07952 0.0
C37 C 0.54796 0.09122 0.09802 0.0
O38 O 0.5459 0.98689 0.05231 0.0
O39 O 0.50603 0.06558 0.04017 0.0
O40 O 0.46359 0.97464 0.10697 0.0
O41 O 0.44682 0.01785 0.07705 0.0
Co42 Co 0.31164 0.23754 0.33299 0.0
O43 O 0.3814 0.20251 0.32576 0.0
O44 O 0.37383 0.28734 0.33808 0.0
C45 C 0.27628 0.16382 0.35092 0.0
O46 O 0.24761 0.28747 0.34306 0.0
Co47 Co 0.19807 0.18767 0.31812 0.0
O48 O 0.16645 0.24483 0.3369 0.0
C49 C 0.26575 0.25483 0.28825 0.0
C50 C 0.40604 0.24755 0.3317 0.0
C51 C 0.19434 0.28535 0.34411 0.0
O52 O 0.30241 0.26547 0.30267 0.0
O53 O 0.22452 0.22277 0.29126 0.0
O54 O 0.31005 0.19758 0.36048 0.0
O55 O 0.26865 0.17355 0.33098 0.0
Co56 Co 0.04397 0.98031 0.40723 0.0
O57 O 0.07505 0.90991 0.41614 0.0
O58 O 0.99409 0.91936 0.40057 0.0
C59 C 0.12266 1.0129 0.39202 0.0
O60 O 0.99885 0.04487 0.39462 0.0
Co61 Co 0.09121 0.09407 0.42274 0.0
O62 O 0.04797 0.12313 0.39855 0.0
C63 C 0.01619 0.02931 0.45067 0.0
C64 C 0.03105 0.88635 0.40862 0.0
C65 C 1.00726 0.09666 0.39075 0.0
O66 O 1.00895 0.99157 0.43632 0.0
O67 O 0.04897 0.07031 0.44841 0.0
O68 O 0.09058 0.97949 0.38144 0.0
O69 O 0.10804 0.02208 0.41142 0.0
Co70 Co 0.3143 0.78753 0.65501 0.0
O71 O 0.38399 0.82046 0.66395 0.0
O72 O 0.37612 0.73829 0.64913 0.0
C73 C 0.28065 0.86482 0.639 0.0
O74 O 0.25148 0.7401 0.64245 0.0
Co75 Co 0.19878 0.83279 0.66916 0.0
O76 O 0.17194 0.78779 0.645 0.0
C77 C 0.26493 0.76288 0.69865 0.0
C78 C 0.40836 0.77619 0.65698 0.0
C79 C 0.20004 0.74737 0.63785 0.0
O80 O 0.30267 0.75431 0.68442 0.0
O81 O 0.22331 0.7945 0.69566 0.0
O82 O 0.31485 0.83278 0.62877 0.0
O83 O 0.27102 0.85087 0.65843 0.0
Co84 Co 0.51017 0.04905 0.90651 0.0
O85 O 0.47696 0.11781 0.9159 0.0
O86 O 0.55865 0.11177 0.90068 0.0
C87 C 0.43324 0.0155 0.89031 0.0
O88 O 0.55701 0.98614 0.89368 0.0
Co89 Co 0.46438 0.93393 0.92119 0.0
O90 O 0.50872 0.90706 0.89691 0.0
C91 C 0.53846 0.99825 0.94964 0.0
C92 C 0.52024 0.14318 0.90869 0.0
C93 C 0.54928 0.93442 0.88948 0.0
O94 O 0.54466 0.03691 0.93561 0.0
O95 O 0.50648 0.95671 0.94708 0.0
O96 O 0.46489 0.05061 0.88043 0.0
O97 O 0.44673 1.00565 0.90982 0.0
Co98 Co 0.24366 0.23461 0.15477 0.0
O99 O 0.17369 0.2003 0.16209 0.0
O100 O 0.18182 0.28463 0.14933 0.0
C101 C 0.2785 0.16009 0.13719 0.0
O102 O 0.30805 0.28369 0.14451 0.0
Co103 Co 0.35685 0.18436 0.16989 0.0
O104 O 0.3888 0.24028 0.15067 0.0
C105 C 0.29047 0.25445 0.19921 0.0
C106 C 0.14935 0.2452 0.15582 0.0
C107 C 0.36127 0.28095 0.14337 0.0
O108 O 0.25301 0.26364 0.18494 0.0
O109 O 0.33156 0.2221 0.19639 0.0
O110 O 0.245 0.19384 0.12748 0.0
O111 O 0.28619 0.17032 0.1571 0.0
Co112 Co 0.81383 0.28369 0.15488 0.0
O113 O 0.8852 0.31519 0.16222 0.0
O114 O 0.87363 0.23198 0.14872 0.0
C115 C 0.78061 0.36039 0.13824 0.0
O116 O 0.74765 0.23746 0.14435 0.0
Co117 Co 0.70273 0.33612 0.17093 0.0
O118 O 0.66944 0.28537 0.14995 0.0
C119 C 0.76821 0.26313 0.19946 0.0
C120 C 0.90766 0.26963 0.1556 0.0
C121 C 0.69488 0.24364 0.14239 0.0
O122 O 0.80456 0.25314 0.18485 0.0
O123 O 0.72782 0.29658 0.19703 0.0
O124 O 0.81263 0.3263 0.12796 0.0
O125 O 0.77347 0.34898 0.15807 0.0
Co126 Co 0.74466 0.74433 0.65708 0.0
O127 O 0.67472 0.71162 0.66527 0.0
O128 O 0.68286 0.79398 0.65075 0.0
C129 C 0.77817 0.66689 0.64104 0.0
O130 O 0.80977 0.79095 0.64568 0.0
Co131 Co 0.85709 0.69436 0.67308 0.0
O132 O 0.88831 0.74335 0.65109 0.0
C133 C 0.79235 0.76965 0.70098 0.0
C134 C 0.65038 0.75556 0.65811 0.0
C135 C 0.8625 0.78468 0.6434 0.0
O136 O 0.75471 0.77725 0.68663 0.0
O137 O 0.83308 0.73655 0.69871 0.0
O138 O 0.74523 0.69982 0.63064 0.0
O139 O 0.7862 0.67988 0.66067 0.0
Co140 Co 0.74159 0.28658 0.33209 0.0
O141 O 0.67021 0.31739 0.32427 0.0
O142 O 0.68195 0.23444 0.33795 0.0
C143 C 0.77362 0.36326 0.34907 0.0
O144 O 0.80779 0.24115 0.34315 0.0
Co145 Co 0.85274 0.33987 0.31658 0.0
O146 O 0.8855 0.29018 0.33806 0.0
C147 C 0.79026 0.26446 0.28803 0.0
C148 C 0.64783 0.27184 0.33093 0.0
C149 C 0.86034 0.24821 0.34555 0.0
O150 O 0.75261 0.25561 0.30225 0.0
O151 O 0.83027 0.29827 0.29058 0.0
O152 O 0.74093 0.32909 0.35895 0.0
O153 O 0.78162 0.35238 0.32922 0.0
Co154 Co 0.81526 0.74094 0.83336 0.0
O155 O 0.88642 0.70945 0.82574 0.0
O156 O 0.87528 0.7921 0.83982 0.0
C157 C 0.78184 0.66359 0.84947 0.0
O158 O 0.74933 0.78703 0.84415 0.0
Co159 Co 0.70398 0.68952 0.81693 0.0
O160 O 0.67081 0.74011 0.83799 0.0
C161 C 0.76907 0.76466 0.7891 0.0
C162 C 0.90909 0.75462 0.83264 0.0
C163 C 0.69646 0.78137 0.84582 0.0
O164 O 0.80585 0.77317 0.80369 0.0
O165 O 0.72858 0.73123 0.79127 0.0
O166 O 0.81405 0.69706 0.85996 0.0
O167 O 0.77466 0.67595 0.82973 0.0
Co168 Co 0.54811 0.54526 0.08141 0.0
O169 O 0.58345 0.61324 0.07213 0.0
O170 O 0.50142 0.60911 0.08721 0.0
C171 C 0.62394 0.50917 0.09755 0.0
O172 O 0.49881 0.48452 0.0943 0.0
Co173 Co 0.58842 0.42784 0.06727 0.0
O174 O 0.54303 0.4029 0.09161 0.0
C175 C 0.52006 0.4961 0.03803 0.0
C176 C 0.54059 0.63959 0.07928 0.0
C177 C 0.50408 0.43277 0.09886 0.0
O178 O 0.51382 0.5344 0.05221 0.0
O179 O 0.55023 0.4533 0.04081 0.0
O180 O 0.59341 0.54525 0.10747 0.0
O181 O 0.60984 0.49931 0.0781 0.0
Co182 Co 1.00631 0.48217 0.58222 0.0
O183 O 0.9737 0.41116 0.57505 0.0
O184 O 0.05776 0.42168 0.58775 0.0
C185 C 0.93129 0.51579 0.59972 0.0
O186 O 0.05363 0.54824 0.5923 0.0
Co187 Co 0.95348 0.59343 0.56639 0.0
O188 O 1.00647 0.62699 0.58645 0.0
C189 C 0.02465 0.52741 0.53739 0.0
C190 C 0.01934 0.38812 0.58118 0.0
C191 C 0.04842 0.60136 0.59367 0.0
O192 O 0.0352 0.49138 0.55206 0.0
O193 O 0.99133 0.56792 0.53992 0.0
O194 O 0.9657 0.4831 0.6095 0.0
O195 O 0.94111 0.5231 0.57976 0.0
Co196 Co 0.54861 0.47927 0.90565 0.0
O197 O 0.58239 0.41023 0.91484 0.0
O198 O 0.50037 0.41685 0.89982 0.0
C199 C 0.62503 0.51411 0.88959 0.0
O200 O 0.50047 0.54107 0.89286 0.0
Co201 Co 0.59098 0.59573 0.91995 0.0
O202 O 0.54579 0.62199 0.89573 0.0
C203 C 0.52242 0.52793 0.94926 0.0
C204 C 0.5385 0.38526 0.90786 0.0
C205 C 0.50641 0.5928 0.88842 0.0
O206 O 0.51463 0.49053 0.93485 0.0
O207 O 0.55337 0.57019 0.94651 0.0
O208 O 0.59389 0.47869 0.87958 0.0
O209 O 0.61115 0.52392 0.90906 0.0
Co210 Co 1.00527 0.54965 0.40546 0.0
O211 O 0.96993 0.61764 0.4149 0.0
O212 O 0.05156 0.61373 0.39952 0.0
C213 C 0.92855 0.51359 0.38988 0.0
O214 O 0.05472 0.48919 0.39238 0.0
Co215 Co 0.96577 0.43157 0.41922 0.0
O216 O 1.01176 0.40691 0.39503 0.0
C217 C 0.03385 0.49994 0.44861 0.0
C218 C 1.01257 0.64412 0.40765 0.0
C219 C 0.05035 0.43731 0.38786 0.0
O220 O 0.04008 0.53865 0.43458 0.0
O221 O 1.00383 0.45713 0.44565 0.0
O222 O 0.9588 0.54923 0.37958 0.0
O223 O 0.94401 0.50359 0.40912 0.0
C224 C 0.98407 0.23385 0.58181 0.0
C225 C 0.03589 0.20767 0.5807 0.0
C226 C 0.97924 0.29195 0.5817 0.0
C227 C 0.02606 0.32657 0.58101 0.0
H228 H 0.94677 0.20927 0.58254 0.0
H229 H 0.93833 0.30987 0.58247 0.0
S230 S 0.17147 0.27913 0.57826 0.0
N231 N 0.1352 0.22139 0.57882 0.0
N232 N 0.12606 0.32996 0.57921 0.0
C233 C 0.07813 0.30096 0.58009 0.0
C234 C 0.08303 0.24182 0.57977 0.0
C235 C 1.00562 0.71548 0.83215 0.0
C236 C 0.97048 0.762 0.83252 0.0
C237 C 0.06358 0.72099 0.83212 0.0
C238 C 0.08907 0.77329 0.83194 0.0
H239 H 0.98823 0.67425 0.83212 0.0
H240 H 0.08858 0.68388 0.83195 0.0
S241 S 0.01603 0.90841 0.83269 0.0
N242 N 0.96588 0.86225 0.83288 0.0
N243 N 0.07411 0.87272 0.83225 0.0
C244 C 0.05437 0.82016 0.83218 0.0
C245 C 0.99541 0.81451 0.83263 0.0
C246 C 0.48562 0.72808 0.07913 0.0
C247 C 0.53722 0.70132 0.07895 0.0
C248 C 0.48148 0.78618 0.07895 0.0
C249 C 0.52875 0.82014 0.07916 0.0
H250 H 0.44799 0.70395 0.07921 0.0
H251 H 0.44076 0.80462 0.07902 0.0
S252 S 0.67378 0.77103 0.07901 0.0
N253 N 0.63679 0.71371 0.07884 0.0
N254 N 0.62891 0.82241 0.07918 0.0
C255 C 0.58059 0.79397 0.07915 0.0
C256 C 0.58484 0.73481 0.07885 0.0
C257 C 0.5511 0.31064 0.33056 0.0
C258 C 0.5864 0.26423 0.33101 0.0
C259 C 0.49316 0.30502 0.33101 0.0
C260 C 0.46774 0.25269 0.33145 0.0
H261 H 0.56837 0.35191 0.33014 0.0
H262 H 0.4681 0.34209 0.33078 0.0
S263 S 0.54109 0.11777 0.33255 0.0
N264 N 0.59116 0.16401 0.33202 0.0
N265 N 0.48293 0.15333 0.3323 0.0
C266 C 0.50255 0.2059 0.3317 0.0
C267 C 0.56155 0.21168 0.33165 0.0
C268 C 0.07199 0.79062 0.4088 0.0
C269 C 0.02483 0.82479 0.40862 0.0
C270 C 0.06771 0.73252 0.4083 0.0
C271 C 0.01605 0.70589 0.4082 0.0
H272 H 0.11277 0.80891 0.40895 0.0
H273 H 0.10528 0.70827 0.40823 0.0
S274 S 0.87969 0.77604 0.40795 0.0
N275 N 0.92467 0.8273 0.4082 0.0
N276 N 0.91653 0.7186 0.40799 0.0
C277 C 0.96853 0.73954 0.40829 0.0
C278 C 0.97292 0.79873 0.40829 0.0
C279 C 0.50437 0.81706 0.6575 0.0
C280 C 0.46988 0.77005 0.65752 0.0
C281 C 0.56247 0.81228 0.65741 0.0
C282 C 0.58865 0.76028 0.6579 0.0
H283 H 0.48635 0.85802 0.6572 0.0
H284 H 0.58702 0.84966 0.65722 0.0
S285 S 0.51737 0.62426 0.65847 0.0
N286 N 0.46664 0.66979 0.65802 0.0
N287 N 0.57495 0.66069 0.65848 0.0
C288 C 0.55455 0.71301 0.65817 0.0
C289 C 0.49554 0.7179 0.65781 0.0
C290 C 0.5802 0.28968 0.90819 0.0
C291 C 0.53297 0.32374 0.90858 0.0
C292 C 0.57592 0.23152 0.90808 0.0
C293 C 0.52426 0.20492 0.90892 0.0
H294 H 0.62089 0.30809 0.90756 0.0
H295 H 0.61344 0.20724 0.90751 0.0
S296 S 0.38792 0.27511 0.9107 0.0
N297 N 0.4329 0.32629 0.90994 0.0
N298 N 0.42477 0.21771 0.91035 0.0
C299 C 0.47678 0.2386 0.90965 0.0
C300 C 0.48113 0.2977 0.9093 0.0
C301 C 0.06227 0.3028 0.15575 0.0
C302 C 0.08768 0.25043 0.15574 0.0
C303 C 1.00433 0.30847 0.15593 0.0
C304 C 0.96906 0.26205 0.15561 0.0
H305 H 0.08733 0.33985 0.15588 0.0
H306 H 0.98704 0.34975 0.15607 0.0
S307 S 0.01435 0.11552 0.15505 0.0
N308 N 0.0725 0.15105 0.15534 0.0
N309 N 0.96429 0.16182 0.15512 0.0
C310 C 0.99391 0.20947 0.15534 0.0
C311 C 0.05288 0.20366 0.15557 0.0
C312 C 0.99303 0.96927 0.4815 0.0
C313 C 0.99319 0.02209 0.47232 0.0
C314 C 0.9953 0.9631 0.50372 0.0
C315 C 0.99793 1.00954 0.51737 0.0
H316 H 0.99766 0.93282 0.47159 0.0
H317 H 1.0005 0.92178 0.51009 0.0
S318 S 0.98061 0.15572 0.50107 0.0
N319 N 0.98149 0.12078 0.47839 0.0
N320 N 0.98667 0.10915 0.52023 0.0
C321 C 0.9888 0.06195 0.50847 0.0
C322 C 0.98624 0.06821 0.48584 0.0
C323 C 0.2309 0.7421 0.75657 0.0
C324 C 0.28348 0.74366 0.76585 0.0
C325 C 0.22503 0.741 0.73431 0.0
C326 C 0.27155 0.74172 0.7207 0.0
H327 H 0.19437 0.74766 0.76633 0.0
H328 H 0.18383 0.74497 0.72776 0.0
S329 S 0.41737 0.72796 0.73764 0.0
N330 N 0.38219 0.73192 0.76021 0.0
N331 N 0.37108 0.73095 0.7183 0.0
C332 C 0.32381 0.73451 0.7299 0.0
C333 C 0.32978 0.73538 0.75257 0.0
C334 C 0.56459 0.06368 0.00263 0.0
C335 C 0.56209 0.01726 0.01626 0.0
C336 C 0.5646 0.05754 0.9804 0.0
C337 C 0.56228 1.00476 0.9712 0.0
H338 H 0.56078 0.10506 0.0091 0.0
H339 H 0.56004 0.09416 0.97058 0.0
S340 S 0.57487 0.8708 -0.00028 0.0
N341 N 0.57154 0.91746 0.01895 0.0
N342 N 0.57254 0.90579 0.97706 0.0
C343 C 0.5695 0.95843 0.98458 0.0
C344 C 0.56929 0.9647 0.00723 0.0
C345 C 0.2314 0.27715 0.23041 0.0
C346 C 0.2839 0.27622 0.22107 0.0
C347 C 0.22577 0.27687 0.25266 0.0
C348 C 0.27242 0.27553 0.26619 0.0
H349 H 0.19477 0.27224 0.22066 0.0
H350 H 0.18463 0.2727 0.25924 0.0
S351 S 0.41808 0.28999 0.24923 0.0
N352 N 0.3827 0.28741 0.22668 0.0
N353 N 0.37197 0.28591 0.2686 0.0
C354 C 0.32461 0.28309 0.25701 0.0
C355 C 0.33036 0.28356 0.23435 0.0
C356 C 0.72767 0.23772 0.23456 0.0
C357 C 0.77464 0.24048 0.22124 0.0
C358 C 0.73269 0.23794 0.25684 0.0
C359 C 0.78489 0.24077 0.26641 0.0
H360 H 0.68665 0.24099 0.22778 0.0
H361 H 0.69567 0.24218 0.26641 0.0
S362 S 0.92013 0.23014 0.23883 0.0
N363 N 0.87444 0.23265 0.21926 0.0
N364 N 0.8841 0.23201 0.26123 0.0
C365 C 0.83187 0.2342 0.25334 0.0
C366 C 0.82672 0.23419 0.23065 0.0
C367 C 0.73344 0.79364 0.73199 0.0
C368 C 0.78582 0.79322 0.72255 0.0
C369 C 0.72813 0.79182 0.75424 0.0
C370 C 0.77503 0.78929 0.76762 0.0
H371 H 0.69672 0.78877 0.72228 0.0
H372 H 0.68714 0.78666 0.76086 0.0
S373 S 0.92025 0.80647 0.75055 0.0
N374 N 0.88456 0.80523 0.72805 0.0
N375 N 0.87447 0.80064 0.76997 0.0
C376 C 0.82696 0.79837 0.75846 0.0
C377 C 0.83236 0.80056 0.73579 0.0
C378 C 0.49977 0.56546 0.98526 0.0
C379 C 0.50079 0.51992 0.97116 0.0
C380 C 0.49877 0.55792 0.00743 0.0
C381 C 0.49878 0.50455 0.01616 0.0
H382 H 0.50475 0.60714 0.97923 0.0
H383 H 0.50392 0.59377 0.01762 0.0
S384 S 0.48349 0.37282 0.98628 0.0
N385 N 0.48871 0.42054 0.96752 0.0
N386 N 0.48622 0.40631 0.00927 0.0
C387 C 0.49109 0.45929 0.00228 0.0
C388 C 0.49214 0.46698 0.97969 0.0
C389 C 0.04864 0.56708 0.50192 0.0
C390 C 0.04752 0.52078 0.51564 0.0
C391 C 0.052 0.56077 0.47974 0.0
C392 C 0.05428 0.5079 0.47062 0.0
H393 H 0.04203 0.60829 0.50821 0.0
H394 H 0.04669 0.59698 0.46975 0.0
S395 S 0.06992 0.37503 0.4997 0.0
N396 N 0.06166 0.42162 0.51873 0.0
N397 N 0.0687 0.40964 0.47694 0.0
C398 C 0.0619 0.46212 0.48426 0.0
C399 C 0.05836 0.46856 0.50687 0.0
C400 C 0.23852 0.90819 0.60639 0.0
C401 C 0.24657 0.90813 0.62861 0.0
C402 C 0.20079 0.94464 0.59682 0.0
C403 C 0.16978 0.9826 0.60907 0.0
H404 H 0.25993 0.87858 0.59639 0.0
H405 H 0.19506 0.94207 0.57967 0.0
S406 S 0.17941 1.00225 0.66775 0.0
N407 N 0.22326 0.95183 0.66252 0.0
N408 N 0.15248 0.01995 0.64449 0.0
C409 C 0.17917 0.98445 0.6312 0.0
C410 C 0.21748 0.94731 0.64096 0.0
C411 C 0.32199 0.907 0.88166 0.0
C412 C 0.31432 0.90753 0.85942 0.0
C413 C 0.35935 0.94331 0.89149 0.0
C414 C 0.39039 0.9817 0.87949 0.0
H415 H 0.30044 0.87714 0.89149 0.0
H416 H 0.36477 0.94029 0.90864 0.0
S417 S 0.38124 1.00349 0.82091 0.0
N418 N 0.33766 0.95264 0.82579 0.0
N419 N 0.40787 0.02043 0.84431 0.0
C420 C 0.38127 0.98429 0.85735 0.0
C421 C 0.34328 0.94731 0.84732 0.0
C422 C 0.38485 0.04684 0.12881 0.0
C423 C 0.388 0.04231 0.10649 0.0
C424 C 0.34798 0.08386 0.13847 0.0
C425 C 0.31269 0.11782 0.12621 0.0
H426 H 0.41232 0.02305 0.13892 0.0
H427 H 0.34819 0.08668 0.15575 0.0
S428 S 0.30086 0.11756 0.06713 0.0
N429 N 0.3495 0.07171 0.07233 0.0
N430 N 0.28063 0.14145 0.09058 0.0
C431 C 0.31364 0.11188 0.10391 0.0
C432 C 0.35121 0.07414 0.09404 0.0
C433 C 0.16967 0.05099 0.35956 0.0
C434 C 0.16651 0.04675 0.38189 0.0
C435 C 0.20658 0.08782 0.34983 0.0
C436 C 0.24193 0.1219 0.36202 0.0
H437 H 0.14222 0.02709 0.34949 0.0
H438 H 0.2064 0.09034 0.33254 0.0
S439 S 0.25366 0.12254 0.4211 0.0
N440 N 0.205 0.07666 0.41599 0.0
N441 N 0.27393 0.14605 0.3976 0.0
C442 C 0.24092 0.11632 0.38434 0.0
C443 C 0.20331 0.07876 0.39428 0.0
C444 C 0.98833 0.17558 0.36651 0.0
C445 C 0.96799 0.12932 0.37754 0.0
C446 C 0.95309 0.21262 0.35624 0.0
C447 C 0.89529 0.20566 0.35641 0.0
H448 H 0.03224 0.18403 0.36609 0.0
H449 H 0.97192 0.24756 0.34827 0.0
S450 S 0.8207 0.08946 0.38229 0.0
N451 N 0.88637 0.07697 0.3875 0.0
N452 N 0.81944 0.14689 0.36799 0.0
C453 C 0.87418 0.15844 0.36682 0.0
C454 C 0.91059 0.12023 0.37736 0.0
C455 C 0.56696 0.16745 0.12343 0.0
C456 C 0.5875 0.12326 0.11126 0.0
C457 C 0.6022 0.20477 0.13356 0.0
C458 C 0.6601 0.20026 0.13198 0.0
H459 H 0.52287 0.17413 0.12481 0.0
H460 H 0.58329 0.23806 0.14248 0.0
S461 S 0.73523 0.08968 0.10282 0.0
N462 N 0.66942 0.07508 0.09882 0.0
N463 N 0.73637 0.14568 0.11795 0.0
C464 C 0.68149 0.15486 0.12049 0.0
C465 C 0.6451 0.11629 0.11016 0.0
C466 C 0.60398 0.82185 0.85373 0.0
C467 C 0.66179 0.82507 0.85606 0.0
C468 C 0.56871 0.85951 0.86362 0.0
C469 C 0.58915 0.90276 0.87631 0.0
H470 H 0.58514 0.7893 0.84438 0.0
H471 H 0.52462 0.85374 0.86172 0.0
S472 S 0.73673 0.93316 0.88664 0.0
N473 N 0.73799 0.87768 0.87122 0.0
N474 N 0.67093 0.94891 0.88996 0.0
C475 C 0.64675 0.9086 0.87811 0.0
C476 C 0.68317 0.86968 0.868 0.0
C477 C 0.95515 0.82297 0.63422 0.0
C478 C 0.89722 0.8277 0.63271 0.0
C479 C 0.99046 0.86019 0.62412 0.0
C480 C 0.97005 0.9045 0.61198 0.0
H481 H 0.97411 0.7896 0.64312 0.0
H482 H 0.03453 0.85334 0.62549 0.0
S483 S 0.82239 0.93819 0.60341 0.0
N484 N 0.82109 0.88232 0.6186 0.0
N485 N 0.88823 0.95267 0.59943 0.0
C486 C 0.91245 0.91152 0.61082 0.0
C487 C 0.87594 0.87306 0.62118 0.0
C488 C 0.7364 0.40141 0.1056 0.0
C489 C 0.74567 0.40284 0.12774 0.0
C490 C 0.6979 0.43698 0.096 0.0
C491 C 0.66729 0.47548 0.10814 0.0
H492 H 0.75753 0.37138 0.0957 0.0
H493 H 0.69134 0.43335 0.07892 0.0
S494 S 0.67988 0.49901 0.16651 0.0
N495 N 0.7239 0.44865 0.1614 0.0
N496 N 0.65153 0.51493 0.14332 0.0
C497 C 0.67781 0.4788 0.13016 0.0
C498 C 0.71697 0.44264 0.13995 0.0
C499 C 0.84293 0.43978 0.34776 0.0
C500 C 0.80807 0.40541 0.36002 0.0
C501 C 0.88041 0.47626 0.35743 0.0
C502 C 0.88463 0.47974 0.37976 0.0
H503 H 0.84232 0.43768 0.33046 0.0
H504 H 0.90744 0.50048 0.34732 0.0
S505 S 0.79942 0.40261 0.41919 0.0
N506 N 0.77789 0.38004 0.39571 0.0
N507 N 0.84785 0.4486 0.41396 0.0
C508 C 0.84841 0.44734 0.39223 0.0
C509 C 0.81022 0.41024 0.38236 0.0
C510 C 0.85541 0.58579 0.59859 0.0
C511 C 0.88873 0.54957 0.61071 0.0
C512 C 0.81804 0.62211 0.60838 0.0
C513 C 0.81245 0.62369 0.63069 0.0
H514 H 0.85899 0.58715 0.58134 0.0
H515 H 0.79478 0.65034 0.5984 0.0
S516 S 0.88548 0.53338 0.66963 0.0
N517 N 0.91052 0.51487 0.64615 0.0
N518 N 0.84002 0.58252 0.66462 0.0
C519 C 0.84358 0.58588 0.64297 0.0
C520 C 0.88174 0.54898 0.63298 0.0
C521 C 0.73851 0.62081 0.88192 0.0
C522 C 0.74682 0.62082 0.85972 0.0
C523 C 0.70008 0.58501 0.89139 0.0
C524 C 0.66854 0.54767 0.87906 0.0
H525 H 0.76037 0.64991 0.89199 0.0
H526 H 0.69428 0.58757 0.90854 0.0
S527 S 0.67834 0.52803 0.82041 0.0
N528 N 0.72313 0.57752 0.82575 0.0
N529 N 0.65083 0.51083 0.8436 0.0
C530 C 0.67809 0.54572 0.85696 0.0
C531 C 0.71721 0.58213 0.84729 0.0
C532 C 0.41131 0.62967 0.88121 0.0
C533 C 0.46621 0.62141 0.87457 0.0
C534 C 0.37664 0.66746 0.87047 0.0
C535 C 0.39613 0.6982 0.85289 0.0
H536 H 0.39615 0.60929 0.89546 0.0
H537 H 0.33551 0.67471 0.87663 0.0
S538 S 0.53398 0.68364 0.82736 0.0
N539 N 0.53632 0.64175 0.84816 0.0
N540 N 0.47183 0.71156 0.82774 0.0
C541 C 0.44986 0.68696 0.84534 0.0
C542 C 0.48476 0.64894 0.85626 0.0
C543 C 0.12899 0.61574 0.61901 0.0
C544 C 0.09326 0.63605 0.60303 0.0
C545 C 0.16691 0.65101 0.62943 0.0
C546 C 0.17023 0.70749 0.62413 0.0
H547 H 0.12591 0.57313 0.62417 0.0
H548 H 0.19145 0.63474 0.64247 0.0
S549 S 0.09315 0.77912 0.58116 0.0
N550 N 0.06957 0.71517 0.58066 0.0
N551 N 0.13945 0.78056 0.60049 0.0
C552 C 0.13743 0.72725 0.60734 0.0
C553 C 0.09936 0.69177 0.59672 0.0
C554 C 0.14558 0.39982 0.38169 0.0
C555 C 0.09168 0.4098 0.37419 0.0
C556 C 0.18051 0.3617 0.37124 0.0
C557 C 0.16219 0.33225 0.35315 0.0
H558 H 0.15951 0.41888 0.39641 0.0
H559 H 0.22062 0.35289 0.37809 0.0
S560 S 0.02741 0.35066 0.32563 0.0
N561 N 0.02392 0.39204 0.34658 0.0
N562 N 0.08896 0.32154 0.32676 0.0
C563 C 0.10969 0.34521 0.34478 0.0
C564 C 0.07454 0.38362 0.35538 0.0
C565 C 0.40894 0.39597 0.10584 0.0
C566 C 0.46356 0.40477 0.11272 0.0
C567 C 0.37436 0.35787 0.11644 0.0
C568 C 0.39372 0.3273 0.13409 0.0
H569 H 0.39403 0.41603 0.09147 0.0
H570 H 0.33353 0.35009 0.11008 0.0
S571 S 0.53075 0.343 0.16018 0.0
N572 N 0.53318 0.38504 0.13943 0.0
N573 N 0.46885 0.31457 0.15955 0.0
C574 C 0.44707 0.33911 0.1419 0.0
C575 C 0.48186 0.3775 0.13113 0.0
loop_
_geom_bond_atom_site_label_1
_geom_bond_atom_site_label_2
_geom_bond_distance
_geom_bond_site_symmetry_2
_ccdc_geom_bond_type
Co0 O1 2.216 . S
Co0 O2 2.091 1_455 S
Co0 O4 1.999 1_445 S
Co0 O10 2.021 1_455 S
Co0 O12 2.137 . S
Co0 O13 2.244 1_545 S
O1 Co0 2.216 . S
O1 C8 1.247 . S
O2 Co0 2.091 1_655 S
O2 C8 1.261 1_655 S
C3 O12 1.247 1_565 S
C3 O13 1.272 . S
O4 Co0 1.999 1_665 S
O4 C9 1.270 . S
Co5 O6 2.061 1_455 S
Co5 O11 2.052 . S
Co5 O13 2.135 . S
O6 Co5 2.061 1_655 S
O6 C9 1.235 . S
C7 O10 1.238 1_455 S
C7 O11 1.241 1_545 S
C8 O1 1.247 . S
C8 O2 1.261 1_455 S
C9 O4 1.270 . S
C9 O6 1.235 . S
O10 Co0 2.021 1_655 S
O10 C7 1.238 1_655 S
O11 Co5 2.052 . S
O11 C7 1.241 1_565 S
O12 Co0 2.137 . S
O12 C3 1.247 1_545 S
O13 Co0 2.244 1_565 S
O13 C3 1.272 . S
O13 Co5 2.135 . S
Co14 O15 2.216 . S
Co14 O16 2.091 . S
Co14 O18 2.004 . S
Co14 O24 2.021 . S
Co14 O26 2.137 . S
Co14 O27 2.244 . S
O15 Co14 2.216 . S
O15 C22 1.247 . S
O16 Co14 2.091 . S
O16 C22 1.261 . S
C17 O26 1.247 . S
C17 O27 1.272 . S
O18 Co14 2.004 . S
O18 C23 1.259 . S
Co19 O20 2.061 . S
Co19 O25 2.052 . S
Co19 O27 2.135 . S
O20 Co19 2.061 . S
O20 C23 1.235 . S
C21 O24 1.238 . S
C21 O25 1.241 . S
C22 O15 1.247 . S
C22 O16 1.261 . S
C23 O18 1.259 . S
C23 O20 1.235 . S
O24 Co14 2.021 . S
O24 C21 1.238 . S
O25 Co19 2.052 . S
O25 C21 1.241 . S
O26 Co14 2.137 . S
O26 C17 1.247 . S
O27 Co14 2.244 . S
O27 C17 1.272 . S
O27 Co19 2.135 . S
Co28 O29 2.216 . S
Co28 O30 2.091 . S
Co28 O32 1.998 1_565 S
Co28 O38 2.021 . S
Co28 O40 2.137 . S
Co28 O41 2.244 1_565 S
O29 Co28 2.216 . S
O29 C36 1.247 . S
O30 Co28 2.091 . S
O30 C36 1.261 . S
C31 O40 1.247 1_545 S
C31 O41 1.272 . S
O32 Co28 1.998 1_545 S
O32 C37 1.270 . S
Co33 O34 2.061 . S
Co33 O39 2.052 . S
Co33 O41 2.135 . S
O34 Co33 2.061 . S
O34 C37 1.235 . S
C35 O38 1.238 . S
C35 O39 1.241 1_565 S
C36 O29 1.247 . S
C36 O30 1.261 . S
C37 O32 1.270 . S
C37 O34 1.235 . S
O38 Co28 2.021 . S
O38 C35 1.238 . S
O39 Co33 2.052 . S
O39 C35 1.241 1_545 S
O40 Co28 2.137 . S
O40 C31 1.247 1_565 S
O41 Co28 2.244 1_545 S
O41 C31 1.272 . S
O41 Co33 2.135 . S
Co42 O43 2.216 . S
Co42 O44 2.091 . S
Co42 O46 2.004 . S
Co42 O52 2.021 . S
Co42 O54 2.137 . S
Co42 O55 2.244 . S
O43 Co42 2.216 . S
O43 C50 1.247 . S
O44 Co42 2.091 . S
O44 C50 1.261 . S
C45 O54 1.247 . S
C45 O55 1.272 . S
O46 Co42 2.004 . S
O46 C51 1.259 . S
Co47 O48 2.061 . S
Co47 O53 2.052 . S
Co47 O55 2.135 . S
O48 Co47 2.061 . S
O48 C51 1.235 . S
C49 O52 1.238 . S
C49 O53 1.241 . S
C50 O43 1.247 . S
C50 O44 1.261 . S
C51 O46 1.259 . S
C51 O48 1.235 . S
O52 Co42 2.021 . S
O52 C49 1.238 . S
O53 Co47 2.052 . S
O53 C49 1.241 . S
O54 Co42 2.137 . S
O54 C45 1.247 . S
O55 Co42 2.244 . S
O55 C45 1.272 . S
O55 Co47 2.135 . S
Co56 O57 2.216 . S
Co56 O58 2.091 1_455 S
Co56 O60 1.999 1_465 S
Co56 O66 2.021 1_455 S
Co56 O68 2.137 . S
Co56 O69 2.244 1_565 S
O57 Co56 2.216 . S
O57 C64 1.247 . S
O58 Co56 2.091 1_655 S
O58 C64 1.261 1_655 S
C59 O68 1.247 1_545 S
C59 O69 1.272 . S
O60 Co56 1.999 1_645 S
O60 C65 1.270 . S
Co61 O62 2.061 1_455 S
Co61 O67 2.052 . S
Co61 O69 2.135 . S
O62 Co61 2.061 1_655 S
O62 C65 1.235 . S
C63 O66 1.238 1_455 S
C63 O67 1.241 1_565 S
C64 O57 1.247 . S
C64 O58 1.261 1_455 S
C65 O60 1.270 . S
C65 O62 1.235 . S
O66 Co56 2.021 1_655 S
O66 C63 1.238 1_655 S
O67 Co61 2.052 . S
O67 C63 1.241 1_545 S
O68 Co56 2.137 . S
O68 C59 1.247 1_565 S
O69 Co56 2.244 1_545 S
O69 C59 1.272 . S
O69 Co61 2.135 . S
Co70 O71 2.216 . S
Co70 O72 2.091 . S
Co70 O74 2.004 . S
Co70 O80 2.021 . S
Co70 O82 2.137 . S
Co70 O83 2.244 . S
O71 Co70 2.216 . S
O71 C78 1.247 . S
O72 Co70 2.091 . S
O72 C78 1.261 . S
C73 O82 1.247 . S
C73 O83 1.272 . S
O74 Co70 2.004 . S
O74 C79 1.259 . S
Co75 O76 2.061 . S
Co75 O81 2.052 . S
Co75 O83 2.135 . S
O76 Co75 2.061 . S
O76 C79 1.235 . S
C77 O80 1.238 . S
C77 O81 1.241 . S
C78 O71 1.247 . S
C78 O72 1.261 . S
C79 O74 1.259 . S
C79 O76 1.235 . S
O80 Co70 2.021 . S
O80 C77 1.238 . S
O81 Co75 2.052 . S
O81 C77 1.241 . S
O82 Co70 2.137 . S
O82 C73 1.247 . S
O83 Co70 2.244 . S
O83 C73 1.272 . S
O83 Co75 2.135 . S
Co84 O85 2.216 . S
Co84 O86 2.091 . S
Co84 O88 1.998 1_545 S
Co84 O94 2.021 . S
Co84 O96 2.137 . S
Co84 O97 2.244 1_545 S
O85 Co84 2.216 . S
O85 C92 1.247 . S
O86 Co84 2.091 . S
O86 C92 1.261 . S
C87 O96 1.247 1_565 S
C87 O97 1.272 . S
O88 Co84 1.998 1_565 S
O88 C93 1.270 . S
Co89 O90 2.061 . S
Co89 O95 2.052 . S
Co89 O97 2.135 . S
O90 Co89 2.061 . S
O90 C93 1.235 . S
C91 O94 1.238 . S
C91 O95 1.241 1_545 S
C92 O85 1.247 . S
C92 O86 1.261 . S
C93 O88 1.270 . S
C93 O90 1.235 . S
O94 Co84 2.021 . S
O94 C91 1.238 . S
O95 Co89 2.052 . S
O95 C91 1.241 1_565 S
O96 Co84 2.137 . S
O96 C87 1.247 1_545 S
O97 Co84 2.244 1_565 S
O97 C87 1.272 . S
O97 Co89 2.135 . S
Co98 O99 2.216 . S
Co98 O100 2.091 . S
Co98 O102 2.004 . S
Co98 O108 2.021 . S
Co98 O110 2.137 . S
Co98 O111 2.244 . S
O99 Co98 2.216 . S
O99 C106 1.247 . S
O100 Co98 2.091 . S
O100 C106 1.261 . S
C101 O110 1.247 . S
C101 O111 1.272 . S
O102 Co98 2.004 . S
O102 C107 1.259 . S
Co103 O104 2.061 . S
Co103 O109 2.052 . S
Co103 O111 2.135 . S
O104 Co103 2.061 . S
O104 C107 1.235 . S
C105 O108 1.238 . S
C105 O109 1.241 . S
C106 O99 1.247 . S
C106 O100 1.261 . S
C107 O102 1.259 . S
C107 O104 1.235 . S
O108 Co98 2.021 . S
O108 C105 1.238 . S
O109 Co103 2.052 . S
O109 C105 1.241 . S
O110 Co98 2.137 . S
O110 C101 1.247 . S
O111 Co98 2.244 . S
O111 C101 1.272 . S
O111 Co103 2.135 . S
Co112 O113 2.216 . S
Co112 O114 2.091 . S
Co112 O116 2.004 . S
Co112 O122 2.021 . S
Co112 O124 2.137 . S
Co112 O125 2.244 . S
O113 Co112 2.216 . S
O113 C120 1.247 . S
O114 Co112 2.091 . S
O114 C120 1.261 . S
C115 O124 1.247 . S
C115 O125 1.272 . S
O116 Co112 2.004 . S
O116 C121 1.259 . S
Co117 O118 2.061 . S
Co117 O123 2.052 . S
Co117 O125 2.135 . S
O118 Co117 2.061 . S
O118 C121 1.235 . S
C119 O122 1.238 . S
C119 O123 1.241 . S
C120 O113 1.247 . S
C120 O114 1.261 . S
C121 O116 1.259 . S
C121 O118 1.235 . S
O122 Co112 2.021 . S
O122 C119 1.238 . S
O123 Co117 2.052 . S
O123 C119 1.241 . S
O124 Co112 2.137 . S
O124 C115 1.247 . S
O125 Co112 2.244 . S
O125 C115 1.272 . S
O125 Co117 2.135 . S
Co126 O127 2.216 . S
Co126 O128 2.091 . S
Co126 O130 2.004 . S
Co126 O136 2.021 . S
Co126 O138 2.137 . S
Co126 O139 2.244 . S
O127 Co126 2.216 . S
O127 C134 1.247 . S
O128 Co126 2.091 . S
O128 C134 1.261 . S
C129 O138 1.247 . S
C129 O139 1.272 . S
O130 Co126 2.004 . S
O130 C135 1.259 . S
Co131 O132 2.061 . S
Co131 O137 2.052 . S
Co131 O139 2.135 . S
O132 Co131 2.061 . S
O132 C135 1.235 . S
C133 O136 1.238 . S
C133 O137 1.241 . S
C134 O127 1.247 . S
C134 O128 1.261 . S
C135 O130 1.259 . S
C135 O132 1.235 . S
O136 Co126 2.021 . S
O136 C133 1.238 . S
O137 Co131 2.052 . S
O137 C133 1.241 . S
O138 Co126 2.137 . S
O138 C129 1.247 . S
O139 Co126 2.244 . S
O139 C129 1.272 . S
O139 Co131 2.135 . S
Co140 O141 2.216 . S
Co140 O142 2.091 . S
Co140 O144 2.004 . S
Co140 O150 2.021 . S
Co140 O152 2.137 . S
Co140 O153 2.244 . S
O141 Co140 2.216 . S
O141 C148 1.247 . S
O142 Co140 2.091 . S
O142 C148 1.261 . S
C143 O152 1.247 . S
C143 O153 1.272 . S
O144 Co140 2.004 . S
O144 C149 1.259 . S
Co145 O146 2.061 . S
Co145 O151 2.052 . S
Co145 O153 2.135 . S
O146 Co145 2.061 . S
O146 C149 1.235 . S
C147 O150 1.238 . S
C147 O151 1.241 . S
C148 O141 1.247 . S
C148 O142 1.261 . S
C149 O144 1.259 . S
C149 O146 1.235 . S
O150 Co140 2.021 . S
O150 C147 1.238 . S
O151 Co145 2.052 . S
O151 C147 1.241 . S
O152 Co140 2.137 . S
O152 C143 1.247 . S
O153 Co140 2.244 . S
O153 C143 1.272 . S
O153 Co145 2.135 . S
Co154 O155 2.216 . S
Co154 O156 2.091 . S
Co154 O158 2.004 . S
Co154 O164 2.021 . S
Co154 O166 2.137 . S
Co154 O167 2.244 . S
O155 Co154 2.216 . S
O155 C162 1.247 . S
O156 Co154 2.091 . S
O156 C162 1.261 . S
C157 O166 1.247 . S
C157 O167 1.272 . S
O158 Co154 2.004 . S
O158 C163 1.259 . S
Co159 O160 2.061 . S
Co159 O165 2.052 . S
Co159 O167 2.135 . S
O160 Co159 2.061 . S
O160 C163 1.235 . S
C161 O164 1.238 . S
C161 O165 1.241 . S
C162 O155 1.247 . S
C162 O156 1.261 . S
C163 O158 1.259 . S
C163 O160 1.235 . S
O164 Co154 2.021 . S
O164 C161 1.238 . S
O165 Co159 2.052 . S
O165 C161 1.241 . S
O166 Co154 2.137 . S
O166 C157 1.247 . S
O167 Co154 2.244 . S
O167 C157 1.272 . S
O167 Co159 2.135 . S
Co168 O169 2.216 . S
Co168 O170 2.091 . S
Co168 O172 2.004 . S
Co168 O178 2.021 . S
Co168 O180 2.137 . S
Co168 O181 2.244 . S
O169 Co168 2.216 . S
O169 C176 1.247 . S
O170 Co168 2.091 . S
O170 C176 1.261 . S
C171 O180 1.247 . S
C171 O181 1.272 . S
O172 Co168 2.004 . S
O172 C177 1.259 . S
Co173 O174 2.061 . S
Co173 O179 2.052 . S
Co173 O181 2.135 . S
O174 Co173 2.061 . S
O174 C177 1.235 . S
C175 O178 1.238 . S
C175 O179 1.241 . S
C176 O169 1.247 . S
C176 O170 1.261 . S
C177 O172 1.259 . S
C177 O174 1.235 . S
O178 Co168 2.021 . S
O178 C175 1.238 . S
O179 Co173 2.052 . S
O179 C175 1.241 . S
O180 Co168 2.137 . S
O180 C171 1.247 . S
O181 Co168 2.244 . S
O181 C171 1.272 . S
O181 Co173 2.135 . S
Co182 O183 2.216 1_455 S
Co182 O184 2.091 . S
Co182 O186 2.004 . S
Co182 O192 2.021 . S
Co182 O194 2.137 1_455 S
Co182 O195 2.244 1_455 S
O183 Co182 2.216 1_655 S
O183 C190 1.247 . S
O184 Co182 2.091 . S
O184 C190 1.261 1_455 S
C185 O194 1.247 . S
C185 O195 1.272 . S
O186 Co182 2.004 . S
O186 C191 1.259 . S
Co187 O188 2.061 1_655 S
Co187 O193 2.052 . S
Co187 O195 2.135 . S
O188 Co187 2.061 1_455 S
O188 C191 1.235 . S
C189 O192 1.238 . S
C189 O193 1.241 1_455 S
C190 O183 1.247 . S
C190 O184 1.261 1_655 S
C191 O186 1.259 . S
C191 O188 1.235 . S
O192 Co182 2.021 . S
O192 C189 1.238 . S
O193 Co187 2.052 . S
O193 C189 1.241 1_655 S
O194 Co182 2.137 1_655 S
O194 C185 1.247 . S
O195 Co182 2.244 1_655 S
O195 C185 1.272 . S
O195 Co187 2.135 . S
Co196 O197 2.216 . S
Co196 O198 2.091 . S
Co196 O200 2.004 . S
Co196 O206 2.021 . S
Co196 O208 2.137 . S
Co196 O209 2.244 . S
O197 Co196 2.216 . S
O197 C204 1.247 . S
O198 Co196 2.091 . S
O198 C204 1.261 . S
C199 O208 1.247 . S
C199 O209 1.272 . S
O200 Co196 2.004 . S
O200 C205 1.259 . S
Co201 O202 2.061 . S
Co201 O207 2.052 . S
Co201 O209 2.135 . S
O202 Co201 2.061 . S
O202 C205 1.235 . S
C203 O206 1.238 . S
C203 O207 1.241 . S
C204 O197 1.247 . S
C204 O198 1.261 . S
C205 O200 1.259 . S
C205 O202 1.235 . S
O206 Co196 2.021 . S
O206 C203 1.238 . S
O207 Co201 2.052 . S
O207 C203 1.241 . S
O208 Co196 2.137 . S
O208 C199 1.247 . S
O209 Co196 2.244 . S
O209 C199 1.272 . S
O209 Co201 2.135 . S
Co210 O211 2.216 1_455 S
Co210 O212 2.091 . S
Co210 O214 2.004 . S
Co210 O220 2.021 . S
Co210 O222 2.137 1_455 S
Co210 O223 2.244 1_455 S
O211 Co210 2.216 1_655 S
O211 C218 1.247 . S
O212 Co210 2.091 . S
O212 C218 1.261 1_455 S
C213 O222 1.247 . S
C213 O223 1.272 . S
O214 Co210 2.004 . S
O214 C219 1.259 . S
Co215 O216 2.061 1_655 S
Co215 O221 2.052 . S
Co215 O223 2.135 . S
O216 Co215 2.061 1_455 S
O216 C219 1.235 . S
C217 O220 1.238 . S
C217 O221 1.241 1_455 S
C218 O211 1.247 . S
C218 O212 1.261 1_655 S
C219 O214 1.259 . S
C219 O216 1.235 . S
O220 Co210 2.021 . S
O220 C217 1.238 . S
O221 Co215 2.052 . S
O221 C217 1.241 1_655 S
O222 Co210 2.137 1_655 S
O222 C213 1.247 . S
O223 Co210 2.244 1_655 S
O223 C213 1.272 . S
O223 Co215 2.135 . S
C224 C225 1.369 . S
C224 C226 1.419 1_455 S
C224 H228 0.930 1_455 S
C225 C224 1.369 . S
C225 C234 1.429 . S
C226 C224 1.419 1_655 S
C226 C227 1.363 . S
C226 H229 0.929 . S
C227 C226 1.363 . S
C227 C233 1.428 1_655 S
H228 C224 0.930 1_655 S
H229 C226 0.929 . S
S230 N231 1.613 . S
S230 N232 1.610 . S
N231 S230 1.613 . S
N231 C234 1.350 . S
N232 S230 1.610 . S
N232 C233 1.351 . S
C233 C227 1.428 1_455 S
C233 N232 1.351 . S
C233 C234 1.434 . S
C234 C225 1.429 . S
C234 N231 1.350 . S
C234 C233 1.434 . S
C235 C236 1.369 1_455 S
C235 C237 1.419 . S
C235 H239 0.930 1_455 S
C236 C235 1.369 1_655 S
C236 C245 1.429 . S
C237 C235 1.419 . S
C237 C238 1.363 . S
C237 H240 0.929 . S
C238 C237 1.363 . S
C238 C244 1.428 . S
H239 C235 0.930 1_655 S
H240 C237 0.929 . S
S241 N242 1.613 . S
S241 N243 1.610 1_655 S
N242 S241 1.613 . S
N242 C245 1.350 . S
N243 S241 1.610 1_455 S
N243 C244 1.351 . S
C244 C238 1.428 . S
C244 N243 1.351 . S
C244 C245 1.434 1_455 S
C245 C236 1.429 . S
C245 N242 1.350 . S
C245 C244 1.434 1_655 S
C246 C247 1.369 . S
C246 C248 1.419 . S
C246 H250 0.930 . S
C247 C246 1.369 . S
C247 C256 1.429 . S
C248 C246 1.419 . S
C248 C249 1.363 . S
C248 H251 0.929 . S
C249 C248 1.363 . S
C249 C255 1.428 . S
H250 C246 0.930 . S
H251 C248 0.929 . S
S252 N253 1.613 . S
S252 N254 1.610 . S
N253 S252 1.613 . S
N253 C256 1.350 . S
N254 S252 1.610 . S
N254 C255 1.351 . S
C255 C249 1.428 . S
C255 N254 1.351 . S
C255 C256 1.434 . S
C256 C247 1.429 . S
C256 N253 1.350 . S
C256 C255 1.434 . S
C257 C258 1.369 . S
C257 C259 1.419 . S
C257 H261 0.930 . S
C258 C257 1.369 . S
C258 C267 1.429 . S
C259 C257 1.419 . S
C259 C260 1.363 . S
C259 H262 0.929 . S
C260 C259 1.363 . S
C260 C266 1.428 . S
H261 C257 0.930 . S
H262 C259 0.929 . S
S263 N264 1.613 . S
S263 N265 1.610 . S
N264 S263 1.613 . S
N264 C267 1.350 . S
N265 S263 1.610 . S
N265 C266 1.351 . S
C266 C260 1.428 . S
C266 N265 1.351 . S
C266 C267 1.434 . S
C267 C258 1.429 . S
C267 N264 1.350 . S
C267 C266 1.434 . S
C268 C269 1.369 . S
C268 C270 1.419 . S
C268 H272 0.930 . S
C269 C268 1.369 . S
C269 C278 1.429 1_455 S
C270 C268 1.419 . S
C270 C271 1.363 1_455 S
C270 H273 0.929 . S
C271 C270 1.363 1_655 S
C271 C277 1.428 . S
H272 C268 0.930 . S
H273 C270 0.929 . S
S274 N275 1.613 . S
S274 N276 1.610 . S
N275 S274 1.613 . S
N275 C278 1.350 . S
N276 S274 1.610 . S
N276 C277 1.351 . S
C277 C271 1.428 . S
C277 N276 1.351 . S
C277 C278 1.434 . S
C278 C269 1.429 1_655 S
C278 N275 1.350 . S
C278 C277 1.434 . S
C279 C280 1.369 . S
C279 C281 1.419 . S
C279 H283 0.930 . S
C280 C279 1.369 . S
C280 C289 1.429 . S
C281 C279 1.419 . S
C281 C282 1.363 . S
C281 H284 0.929 . S
C282 C281 1.363 . S
C282 C288 1.428 . S
H283 C279 0.930 . S
H284 C281 0.929 . S
S285 N286 1.613 . S
S285 N287 1.610 . S
N286 S285 1.613 . S
N286 C289 1.350 . S
N287 S285 1.610 . S
N287 C288 1.351 . S
C288 C282 1.428 . S
C288 N287 1.351 . S
C288 C289 1.434 . S
C289 C280 1.429 . S
C289 N286 1.350 . S
C289 C288 1.434 . S
C290 C291 1.369 . S
C290 C292 1.419 . S
C290 H294 0.930 . S
C291 C290 1.369 . S
C291 C300 1.429 . S
C292 C290 1.419 . S
C292 C293 1.363 . S
C292 H295 0.929 . S
C293 C292 1.363 . S
C293 C299 1.428 . S
H294 C290 0.930 . S
H295 C292 0.929 . S
S296 N297 1.613 . S
S296 N298 1.610 . S
N297 S296 1.613 . S
N297 C300 1.350 . S
N298 S296 1.610 . S
N298 C299 1.351 . S
C299 C293 1.428 . S
C299 N298 1.351 . S
C299 C300 1.434 . S
C300 C291 1.429 . S
C300 N297 1.350 . S
C300 C299 1.434 . S
C301 C302 1.369 . S
C301 C303 1.419 . S
C301 H305 0.930 . S
C302 C301 1.369 . S
C302 C311 1.429 . S
C303 C301 1.419 . S
C303 C304 1.363 1_455 S
C303 H306 0.929 1_455 S
C304 C303 1.363 1_655 S
C304 C310 1.428 . S
H305 C301 0.930 . S
H306 C303 0.929 1_655 S
S307 N308 1.613 1_655 S
S307 N309 1.610 . S
N308 S307 1.613 1_455 S
N308 C311 1.350 . S
N309 S307 1.610 . S
N309 C310 1.351 . S
C310 C304 1.428 . S
C310 N309 1.351 . S
C310 C311 1.434 1_655 S
C311 C302 1.429 . S
C311 N308 1.350 . S
C311 C310 1.434 1_455 S
C312 C313 1.369 . S
C312 C314 1.419 . S
C312 H316 0.930 . S
C313 C312 1.369 . S
C313 C322 1.429 1_465 S
C314 C312 1.419 . S
C314 C315 1.363 1_565 S
C314 H317 0.929 . S
C315 C314 1.363 1_545 S
C315 C321 1.428 1_455 S
H316 C312 0.930 . S
H317 C314 0.929 . S
S318 N319 1.613 . S
S318 N320 1.610 . S
N319 S318 1.613 . S
N319 C322 1.350 . S
N320 S318 1.610 . S
N320 C321 1.351 . S
C321 C315 1.428 1_655 S
C321 N320 1.351 . S
C321 C322 1.434 . S
C322 C313 1.429 1_645 S
C322 N319 1.350 . S
C322 C321 1.434 . S
C323 C324 1.369 . S
C323 C325 1.419 . S
C323 H327 0.930 . S
C324 C323 1.369 . S
C324 C333 1.429 . S
C325 C323 1.419 . S
C325 C326 1.363 . S
C325 H328 0.929 . S
C326 C325 1.363 . S
C326 C332 1.428 . S
H327 C323 0.930 . S
H328 C325 0.929 . S
S329 N330 1.613 . S
S329 N331 1.610 . S
N330 S329 1.613 . S
N330 C333 1.350 . S
N331 S329 1.610 . S
N331 C332 1.351 . S
C332 C326 1.428 . S
C332 N331 1.351 . S
C332 C333 1.434 . S
C333 C324 1.429 . S
C333 N330 1.350 . S
C333 C332 1.434 . S
C334 C335 1.369 1_545 S
C334 C336 1.419 1_554 S
C334 H338 0.930 . S
C335 C334 1.369 1_565 S
C335 C344 1.429 . S
C336 C334 1.419 1_556 S
C336 C337 1.363 . S
C336 H339 0.929 . S
C337 C336 1.363 . S
C337 C343 1.428 1_545 S
H338 C334 0.930 . S
H339 C336 0.929 . S
S340 N341 1.613 1_556 S
S340 N342 1.610 . S
N341 S340 1.613 1_554 S
N341 C344 1.350 . S
N342 S340 1.610 . S
N342 C343 1.351 . S
C343 C337 1.428 1_565 S
C343 N342 1.351 . S
C343 C344 1.434 1_556 S
C344 C335 1.429 . S
C344 N341 1.350 . S
C344 C343 1.434 1_554 S
C345 C346 1.369 . S
C345 C347 1.419 . S
C345 H349 0.930 . S
C346 C345 1.369 . S
C346 C355 1.429 . S
C347 C345 1.419 . S
C347 C348 1.363 . S
C347 H350 0.929 . S
C348 C347 1.363 . S
C348 C354 1.428 . S
H349 C345 0.930 . S
H350 C347 0.929 . S
S351 N352 1.613 . S
S351 N353 1.610 . S
N352 S351 1.613 . S
N352 C355 1.350 . S
N353 S351 1.610 . S
N353 C354 1.351 . S
C354 C348 1.428 . S
C354 N353 1.351 . S
C354 C355 1.434 . S
C355 C346 1.429 . S
C355 N352 1.350 . S
C355 C354 1.434 . S
C356 C357 1.369 . S
C356 C358 1.419 . S
C356 H360 0.930 . S
C357 C356 1.369 . S
C357 C366 1.429 . S
C358 C356 1.419 . S
C358 C359 1.363 . S
C358 H361 0.929 . S
C359 C358 1.363 . S
C359 C365 1.428 . S
H360 C356 0.930 . S
H361 C358 0.929 . S
S362 N363 1.613 . S
S362 N364 1.610 . S
N363 S362 1.613 . S
N363 C366 1.350 . S
N364 S362 1.610 . S
N364 C365 1.351 . S
C365 C359 1.428 . S
C365 N364 1.351 . S
C365 C366 1.434 . S
C366 C357 1.429 . S
C366 N363 1.350 . S
C366 C365 1.434 . S
C367 C368 1.369 . S
C367 C369 1.419 . S
C367 H371 0.930 . S
C368 C367 1.369 . S
C368 C377 1.429 . S
C369 C367 1.419 . S
C369 C370 1.363 . S
C369 H372 0.929 . S
C370 C369 1.363 . S
C370 C376 1.428 . S
H371 C367 0.930 . S
H372 C369 0.929 . S
S373 N374 1.613 . S
S373 N375 1.610 . S
N374 S373 1.613 . S
N374 C377 1.350 . S
N375 S373 1.610 . S
N375 C376 1.351 . S
C376 C370 1.428 . S
C376 N375 1.351 . S
C376 C377 1.434 . S
C377 C368 1.429 . S
C377 N374 1.350 . S
C377 C376 1.434 . S
C378 C379 1.369 . S
C378 C380 1.419 1_556 S
C378 H382 0.930 . S
C379 C378 1.369 . S
C379 C388 1.429 . S
C380 C378 1.419 1_554 S
C380 C381 1.363 . S
C380 H383 0.929 . S
C381 C380 1.363 . S
C381 C387 1.428 . S
H382 C378 0.930 . S
H383 C380 0.929 . S
S384 N385 1.613 1_554 S
S384 N386 1.610 . S
N385 S384 1.613 1_556 S
N385 C388 1.350 . S
N386 S384 1.610 . S
N386 C387 1.351 . S
C387 C381 1.428 . S
C387 N386 1.351 . S
C387 C388 1.434 1_554 S
C388 C379 1.429 . S
C388 N385 1.350 . S
C388 C387 1.434 1_556 S
C389 C390 1.369 . S
C389 C391 1.419 . S
C389 H393 0.930 . S
C390 C389 1.369 . S
C390 C399 1.429 1_455 S
C391 C389 1.419 . S
C391 C392 1.363 . S
C391 H394 0.929 . S
C392 C391 1.363 . S
C392 C398 1.428 1_455 S
H393 C389 0.930 . S
H394 C391 0.929 . S
S395 N396 1.613 . S
S395 N397 1.610 . S
N396 S395 1.613 . S
N396 C399 1.350 . S
N397 S395 1.610 . S
N397 C398 1.351 . S
C398 C392 1.428 1_655 S
C398 N397 1.351 . S
C398 C399 1.434 . S
C399 C390 1.429 1_655 S
C399 N396 1.350 . S
C399 C398 1.434 . S
C400 C401 1.369 . S
C400 C402 1.419 . S
C400 H404 0.930 . S
C401 C400 1.369 . S
C401 C410 1.429 . S
C402 C400 1.419 . S
C402 C403 1.363 . S
C402 H405 0.929 . S
C403 C402 1.363 . S
C403 C409 1.428 . S
H404 C400 0.930 . S
H405 C402 0.929 . S
S406 N407 1.613 . S
S406 N408 1.610 . S
N407 S406 1.613 . S
N407 C410 1.350 . S
N408 S406 1.610 . S
N408 C409 1.351 . S
C409 C403 1.428 . S
C409 N408 1.351 . S
C409 C410 1.434 . S
C410 C401 1.429 . S
C410 N407 1.350 . S
C410 C409 1.434 . S
C411 C412 1.369 . S
C411 C413 1.419 . S
C411 H415 0.930 . S
C412 C411 1.369 . S
C412 C421 1.429 . S
C413 C411 1.419 . S
C413 C414 1.363 . S
C413 H416 0.929 . S
C414 C413 1.363 . S
C414 C420 1.428 . S
H415 C411 0.930 . S
H416 C413 0.929 . S
S417 N418 1.613 . S
S417 N419 1.610 1_565 S
N418 S417 1.613 . S
N418 C421 1.350 . S
N419 S417 1.610 1_545 S
N419 C420 1.351 1_545 S
C420 C414 1.428 . S
C420 N419 1.351 1_565 S
C420 C421 1.434 . S
C421 C412 1.429 . S
C421 N418 1.350 . S
C421 C420 1.434 . S
C422 C423 1.369 . S
C422 C424 1.419 . S
C422 H426 0.930 . S
C423 C422 1.369 . S
C423 C432 1.429 . S
C424 C422 1.419 . S
C424 C425 1.363 . S
C424 H427 0.929 . S
C425 C424 1.363 . S
C425 C431 1.428 . S
H426 C422 0.930 . S
H427 C424 0.929 . S
S428 N429 1.613 . S
S428 N430 1.610 1_565 S
N429 S428 1.613 . S
N429 C432 1.350 1_565 S
N430 S428 1.610 1_545 S
N430 C431 1.351 . S
C431 C425 1.428 . S
C431 N430 1.351 . S
C431 C432 1.434 . S
C432 C423 1.429 . S
C432 N429 1.350 1_545 S
C432 C431 1.434 . S
C433 C434 1.369 . S
C433 C435 1.419 . S
C433 H437 0.930 . S
C434 C433 1.369 . S
C434 C443 1.429 . S
C435 C433 1.419 . S
C435 C436 1.363 . S
C435 H438 0.929 . S
C436 C435 1.363 . S
C436 C442 1.428 . S
H437 C433 0.930 . S
H438 C435 0.929 . S
S439 N440 1.613 . S
S439 N441 1.610 1_565 S
N440 S439 1.613 . S
N440 C443 1.350 1_565 S
N441 S439 1.610 1_545 S
N441 C442 1.351 . S
C442 C436 1.428 . S
C442 N441 1.351 . S
C442 C443 1.434 . S
C443 C434 1.429 . S
C443 N440 1.350 1_545 S
C443 C442 1.434 . S
C444 C445 1.369 . S
C444 C446 1.419 . S
C444 H448 0.930 . S
C445 C444 1.369 . S
C445 C454 1.429 . S
C446 C444 1.419 . S
C446 C447 1.363 . S
C446 H449 0.929 . S
C447 C446 1.363 . S
C447 C453 1.428 . S
H448 C444 0.930 . S
H449 C446 0.929 . S
S450 N451 1.613 . S
S450 N452 1.610 . S
N451 S450 1.613 . S
N451 C454 1.350 . S
N452 S450 1.610 . S
N452 C453 1.351 . S
C453 C447 1.428 . S
C453 N452 1.351 . S
C453 C454 1.434 . S
C454 C445 1.429 . S
C454 N451 1.350 . S
C454 C453 1.434 . S
C455 C456 1.369 . S
C455 C457 1.419 . S
C455 H459 0.930 . S
C456 C455 1.369 . S
C456 C465 1.429 . S
C457 C455 1.419 . S
C457 C458 1.363 . S
C457 H460 0.929 . S
C458 C457 1.363 . S
C458 C464 1.428 . S
H459 C455 0.930 . S
H460 C457 0.929 . S
S461 N462 1.613 . S
S461 N463 1.610 . S
N462 S461 1.613 . S
N462 C465 1.350 . S
N463 S461 1.610 . S
N463 C464 1.351 . S
C464 C458 1.428 . S
C464 N463 1.351 . S
C464 C465 1.434 . S
C465 C456 1.429 . S
C465 N462 1.350 . S
C465 C464 1.434 . S
C466 C467 1.369 . S
C466 C468 1.419 . S
C466 H470 0.930 . S
C467 C466 1.369 . S
C467 C476 1.429 . S
C468 C466 1.419 . S
C468 C469 1.363 . S
C468 H471 0.929 . S
C469 C468 1.363 . S
C469 C475 1.428 . S
H470 C466 0.930 . S
H471 C468 0.929 . S
S472 N473 1.613 . S
S472 N474 1.610 . S
N473 S472 1.613 . S
N473 C476 1.350 . S
N474 S472 1.610 . S
N474 C475 1.351 . S
C475 C469 1.428 . S
C475 N474 1.351 . S
C475 C476 1.434 . S
C476 C467 1.429 . S
C476 N473 1.350 . S
C476 C475 1.434 . S
C477 C478 1.369 . S
C477 C479 1.419 . S
C477 H481 0.930 . S
C478 C477 1.369 . S
C478 C487 1.429 . S
C479 C477 1.419 . S
C479 C480 1.363 . S
C479 H482 0.929 . S
C480 C479 1.363 . S
C480 C486 1.428 . S
H481 C477 0.930 . S
H482 C479 0.929 . S
S483 N484 1.613 . S
S483 N485 1.610 . S
N484 S483 1.613 . S
N484 C487 1.350 . S
N485 S483 1.610 . S
N485 C486 1.351 . S
C486 C480 1.428 . S
C486 N485 1.351 . S
C486 C487 1.434 . S
C487 C478 1.429 . S
C487 N484 1.350 . S
C487 C486 1.434 . S
C488 C489 1.369 . S
C488 C490 1.419 . S
C488 H492 0.930 . S
C489 C488 1.369 . S
C489 C498 1.429 . S
C490 C488 1.419 . S
C490 C491 1.363 . S
C490 H493 0.929 . S
C491 C490 1.363 . S
C491 C497 1.428 . S
H492 C488 0.930 . S
H493 C490 0.929 . S
S494 N495 1.613 . S
S494 N496 1.610 . S
N495 S494 1.613 . S
N495 C498 1.350 . S
N496 S494 1.610 . S
N496 C497 1.351 . S
C497 C491 1.428 . S
C497 N496 1.351 . S
C497 C498 1.434 . S
C498 C489 1.429 . S
C498 N495 1.350 . S
C498 C497 1.434 . S
C499 C500 1.369 . S
C499 C501 1.419 . S
C499 H503 0.930 . S
C500 C499 1.369 . S
C500 C509 1.429 . S
C501 C499 1.419 . S
C501 C502 1.363 . S
C501 H504 0.929 . S
C502 C501 1.363 . S
C502 C508 1.428 . S
H503 C499 0.930 . S
H504 C501 0.929 . S
S505 N506 1.613 . S
S505 N507 1.610 . S
N506 S505 1.613 . S
N506 C509 1.350 . S
N507 S505 1.610 . S
N507 C508 1.351 . S
C508 C502 1.428 . S
C508 N507 1.351 . S
C508 C509 1.434 . S
C509 C500 1.429 . S
C509 N506 1.350 . S
C509 C508 1.434 . S
C510 C511 1.369 . S
C510 C512 1.419 . S
C510 H514 0.930 . S
C511 C510 1.369 . S
C511 C520 1.429 . S
C512 C510 1.419 . S
C512 C513 1.363 . S
C512 H515 0.929 . S
C513 C512 1.363 . S
C513 C519 1.428 . S
H514 C510 0.930 . S
H515 C512 0.929 . S
S516 N517 1.613 . S
S516 N518 1.610 . S
N517 S516 1.613 . S
N517 C520 1.350 . S
N518 S516 1.610 . S
N518 C519 1.351 . S
C519 C513 1.428 . S
C519 N518 1.351 . S
C519 C520 1.434 . S
C520 C511 1.429 . S
C520 N517 1.350 . S
C520 C519 1.434 . S
C521 C522 1.369 . S
C521 C523 1.419 . S
C521 H525 0.930 . S
C522 C521 1.369 . S
C522 C531 1.429 . S
C523 C521 1.419 . S
C523 C524 1.363 . S
C523 H526 0.929 . S
C524 C523 1.363 . S
C524 C530 1.428 . S
H525 C521 0.930 . S
H526 C523 0.929 . S
S527 N528 1.613 . S
S527 N529 1.610 . S
N528 S527 1.613 . S
N528 C531 1.350 . S
N529 S527 1.610 . S
N529 C530 1.351 . S
C530 C524 1.428 . S
C530 N529 1.351 . S
C530 C531 1.434 . S
C531 C522 1.429 . S
C531 N528 1.350 . S
C531 C530 1.434 . S
C532 C533 1.369 . S
C532 C534 1.419 . S
C532 H536 0.930 . S
C533 C532 1.369 . S
C533 C542 1.429 . S
C534 C532 1.419 . S
C534 C535 1.363 . S
C534 H537 0.929 . S
C535 C534 1.363 . S
C535 C541 1.428 . S
H536 C532 0.930 . S
H537 C534 0.929 . S
S538 N539 1.613 . S
S538 N540 1.610 . S
N539 S538 1.613 . S
N539 C542 1.350 . S
N540 S538 1.610 . S
N540 C541 1.351 . S
C541 C535 1.428 . S
C541 N540 1.351 . S
C541 C542 1.434 . S
C542 C533 1.429 . S
C542 N539 1.350 . S
C542 C541 1.434 . S
C543 C544 1.369 . S
C543 C545 1.419 . S
C543 H547 0.930 . S
C544 C543 1.369 . S
C544 C553 1.429 . S
C545 C543 1.419 . S
C545 C546 1.363 . S
C545 H548 0.929 . S
C546 C545 1.363 . S
C546 C552 1.428 . S
H547 C543 0.930 . S
H548 C545 0.929 . S
S549 N550 1.613 . S
S549 N551 1.610 . S
N550 S549 1.613 . S
N550 C553 1.350 . S
N551 S549 1.610 . S
N551 C552 1.351 . S
C552 C546 1.428 . S
C552 N551 1.351 . S
C552 C553 1.434 . S
C553 C544 1.429 . S
C553 N550 1.350 . S
C553 C552 1.434 . S
C554 C555 1.369 . S
C554 C556 1.419 . S
C554 H558 0.930 . S
C555 C554 1.369 . S
C555 C564 1.429 . S
C556 C554 1.419 . S
C556 C557 1.363 . S
C556 H559 0.929 . S
C557 C556 1.363 . S
C557 C563 1.428 . S
H558 C554 0.930 . S
H559 C556 0.929 . S
S560 N561 1.613 . S
S560 N562 1.610 . S
N561 S560 1.613 . S
N561 C564 1.350 . S
N562 S560 1.610 . S
N562 C563 1.351 . S
C563 C557 1.428 . S
C563 N562 1.351 . S
C563 C564 1.434 . S
C564 C555 1.429 . S
C564 N561 1.350 . S
C564 C563 1.434 . S
C565 C566 1.369 . S
C565 C567 1.419 . S
C565 H569 0.930 . S
C566 C565 1.369 . S
C566 C575 1.429 . S
C567 C565 1.419 . S
C567 C568 1.363 . S
C567 H570 0.929 . S
C568 C567 1.363 . S
C568 C574 1.428 . S
H569 C565 0.930 . S
H570 C567 0.929 . S
S571 N572 1.613 . S
S571 N573 1.610 . S
N572 S571 1.613 . S
N572 C575 1.350 . S
N573 S571 1.610 . S
N573 C574 1.351 . S
C574 C568 1.428 . S
C574 N573 1.351 . S
C574 C575 1.434 . S
C575 C566 1.429 . S
C575 N572 1.350 . S
C575 C574 1.434 . S
C225 C8 1.401 . S
C227 C190 1.400 . S
C236 C162 1.396 . S
C238 C22 1.404 . S
C247 C176 1.400 . S
C249 C36 1.401 . S
C258 C148 1.398 . S
C260 C50 1.403 . S
C269 C64 1.396 . S
C271 C218 1.404 . S
C280 C78 1.399 . S
C282 C134 1.403 . S
C291 C204 1.399 . S
C293 C92 1.402 . S
C302 C106 1.405 . S
C304 C120 1.397 . S
C313 C63 1.553 . S
C315 C7 1.557 . S
C324 C21 1.553 . S
C326 C77 1.554 . S
C335 C35 1.558 . S
C337 C91 1.551 . S
C346 C105 1.553 . S
C348 C49 1.554 . S
C357 C119 1.556 . S
C359 C147 1.552 . S
C368 C133 1.551 . S
C370 C161 1.555 . S
C379 C203 1.558 . S
C381 C175 1.551 . S
C390 C189 1.557 . S
C392 C217 1.552 . S
C401 C73 1.514 . S
C403 C3 1.518 . S
C412 C17 1.515 . S
C414 C87 1.519 . S
C423 C31 1.517 . S
C425 C101 1.519 . S
C434 C59 1.517 . S
C436 C45 1.519 . S
C445 C65 1.315 . S
C447 C149 1.315 . S
C456 C37 1.316 . S
C458 C121 1.313 . S
C467 C163 1.314 . S
C469 C93 1.315 . S
C478 C135 1.311 . S
C480 C9 1.314 . S
C489 C115 1.517 . S
C491 C171 1.519 . S
C500 C143 1.519 . S
C502 C213 1.515 . S
C511 C185 1.520 . S
C513 C129 1.515 . S
C522 C157 1.518 . S
C524 C199 1.519 . S
C533 C205 1.308 . S
C535 C23 1.311 . S
C544 C191 1.313 . S
C546 C79 1.310 . S
C555 C219 1.308 . S
C557 C51 1.311 . S
C566 C177 1.308 . S
C568 C107 1.310 . S
