# Generated by pormake.
# Topology nfc, (4)-cn, num edge types: 1
# Building blocks:
#     Node 0, Type 0, BuildingBlock: KOZSID_clean_sbu_0, # of connection points: 4
#     Node 1, Type 0, BuildingBlock: KOZSID_clean_sbu_0, # of connection points: 4
#     Node 2, Type 0, BuildingBlock: KOZSID_clean_sbu_0, # of connection points: 4
#     Node 3, Type 0, BuildingBlock: KOZSID_clean_sbu_0, # of connection points: 4
#     Node 4, Type 0, BuildingBlock: KOZSID_clean_sbu_0, # of connection points: 4
#     Node 5, Type 0, BuildingBlock: KOZSID_clean_sbu_0, # of connection points: 4
#     Node 6, Type 0, BuildingBlock: KOZSID_clean_sbu_0, # of connection points: 4
#     Node 7, Type 0, BuildingBlock: KOZSID_clean_sbu_0, # of connection points: 4
#     Node 8, Type 0, BuildingBlock: KOZSID_clean_sbu_0, # of connection points: 4
#     Node 9, Type 0, BuildingBlock: KOZSID_clean_sbu_0, # of connection points: 4
#     Node 10, Type 0, BuildingBlock: KOZSID_clean_sbu_0, # of connection points: 4
#     Node 11, Type 0, BuildingBlock: KOZSID_clean_sbu_0, # of connection points: 4
#     Node 12, Type 0, BuildingBlock: KOZSID_clean_sbu_0, # of connection points: 4
#     Node 13, Type 0, BuildingBlock: KOZSID_clean_sbu_0, # of connection points: 4
#     Node 14, Type 0, BuildingBlock: KOZSID_clean_sbu_0, # of connection points: 4
#     Node 15, Type 0, BuildingBlock: KOZSID_clean_sbu_0, # of connection points: 4
#     Edge 16, Type (0, 0), BuildingBlock: XIVTED_clean_linker_0, # of connection points: 2
#     Edge 17, Type (0, 0), BuildingBlock: XIVTED_clean_linker_0, # of connection points: 2
#     Edge 18, Type (0, 0), BuildingBlock: XIVTED_clean_linker_0, # of connection points: 2
#     Edge 19, Type (0, 0), BuildingBlock: XIVTED_clean_linker_0, # of connection points: 2
#     Edge 20, Type (0, 0), BuildingBlock: XIVTED_clean_linker_0, # of connection points: 2
#     Edge 21, Type (0, 0), BuildingBlock: XIVTED_clean_linker_0, # of connection points: 2
#     Edge 22, Type (0, 0), BuildingBlock: XIVTED_clean_linker_0, # of connection points: 2
#     Edge 23, Type (0, 0), BuildingBlock: XIVTED_clean_linker_0, # of connection points: 2
#     Edge 24, Type (0, 0), BuildingBlock: XIVTED_clean_linker_0, # of connection points: 2
#     Edge 25, Type (0, 0), BuildingBlock: XIVTED_clean_linker_0, # of connection points: 2
#     Edge 26, Type (0, 0), BuildingBlock: XIVTED_clean_linker_0, # of connection points: 2
#     Edge 27, Type (0, 0), BuildingBlock: XIVTED_clean_linker_0, # of connection points: 2
#     Edge 28, Type (0, 0), BuildingBlock: XIVTED_clean_linker_0, # of connection points: 2
#     Edge 29, Type (0, 0), BuildingBlock: XIVTED_clean_linker_0, # of connection points: 2
#     Edge 30, Type (0, 0), BuildingBlock: XIVTED_clean_linker_0, # of connection points: 2
#     Edge 31, Type (0, 0), BuildingBlock: XIVTED_clean_linker_0, # of connection points: 2
#     Edge 32, Type (0, 0), BuildingBlock: XIVTED_clean_linker_0, # of connection points: 2
#     Edge 33, Type (0, 0), BuildingBlock: XIVTED_clean_linker_0, # of connection points: 2
#     Edge 34, Type (0, 0), BuildingBlock: XIVTED_clean_linker_0, # of connection points: 2
#     Edge 35, Type (0, 0), BuildingBlock: XIVTED_clean_linker_0, # of connection points: 2
#     Edge 36, Type (0, 0), BuildingBlock: XIVTED_clean_linker_0, # of connection points: 2
#     Edge 37, Type (0, 0), BuildingBlock: XIVTED_clean_linker_0, # of connection points: 2
#     Edge 38, Type (0, 0), BuildingBlock: XIVTED_clean_linker_0, # of connection points: 2
#     Edge 39, Type (0, 0), BuildingBlock: XIVTED_clean_linker_0, # of connection points: 2
#     Edge 40, Type (0, 0), BuildingBlock: XIVTED_clean_linker_0, # of connection points: 2
#     Edge 41, Type (0, 0), BuildingBlock: XIVTED_clean_linker_0, # of connection points: 2
#     Edge 42, Type (0, 0), BuildingBlock: XIVTED_clean_linker_0, # of connection points: 2
#     Edge 43, Type (0, 0), BuildingBlock: XIVTED_clean_linker_0, # of connection points: 2
#     Edge 44, Type (0, 0), BuildingBlock: XIVTED_clean_linker_0, # of connection points: 2
#     Edge 45, Type (0, 0), BuildingBlock: XIVTED_clean_linker_0, # of connection points: 2
#     Edge 46, Type (0, 0), BuildingBlock: XIVTED_clean_linker_0, # of connection points: 2
#     Edge 47, Type (0, 0), BuildingBlock: XIVTED_clean_linker_0, # of connection points: 2
# Relax obj value: 0.075
# Max RMSD: 0.147
# Mean RMSD: 0.115
data_MOF--net-nfc--node1-KOZSID_clean_sbu_0--edge1-XIVTED_clean_linker_0
_symmetry_space_group_name_H-M    P1
_symmetry_Int_Tables_number       1
_symmetry_cell_setting            triclinic
loop_
_symmetry_equiv_pos_as_xyz
'x, y, z'
_cell_length_a     43.293021
_cell_length_b     43.37845
_cell_length_c     35.582402
_cell_angle_alpha  84.245199
_cell_angle_beta   86.257263
_cell_angle_gamma 84.744243
loop_
_atom_site_label
_atom_site_type_symbol
_atom_site_fract_x
_atom_site_fract_y
_atom_site_fract_z
_atom_type_partial_charge
C0 C 0.97699 0.01883 0.08343 0.0
C1 C 0.95344 0.03826 0.09919 0.0
C2 C 0.93624 0.05197 0.07022 0.0
C3 C 0.95015 0.04061 0.03814 0.0
N4 N 0.97528 0.02034 0.04469 0.0
Co5 Co 0.00282 0.00074 1.00371 0.0
N6 N 0.97776 0.02184 0.96069 0.0
C7 C 0.95225 0.04185 0.96514 0.0
C8 C 0.93961 0.05346 0.93177 0.0
C9 C 0.95791 0.03992 0.90415 0.0
C10 C 0.98077 0.02035 0.92207 0.0
N11 N 0.03038 0.98115 0.96275 0.0
C12 C 0.02871 0.9827 0.92401 0.0
C13 C 0.05226 0.96327 0.90826 0.0
C14 C 0.06944 0.94954 0.93722 0.0
C15 C 0.0555 0.96088 0.9693 0.0
N16 N 0.02789 0.97964 0.04673 0.0
C17 C 0.05337 0.95959 0.04228 0.0
C18 C 0.066 0.94795 0.07564 0.0
C19 C 0.04772 0.9615 0.10326 0.0
C20 C 0.0249 0.98114 0.08534 0.0
N21 N 0.97671 0.96529 0.00735 0.0
C22 C 0.94114 0.91625 0.99678 0.0
C23 C 0.9726 0.91058 0.00377 0.0
C24 C 0.98981 0.93526 0.00907 0.0
C25 C 0.92712 0.94634 0.99929 0.0
C26 C 0.94518 0.97026 0.00504 0.0
N27 N 0.02892 0.0362 1.00011 0.0
C28 C 0.07839 0.05511 0.00891 0.0
C29 C 0.06426 0.08512 0.01174 0.0
C30 C 0.03288 0.09084 0.00435 0.0
C31 C 0.0158 0.06621 0.99849 0.0
C32 C 0.06044 0.03123 1.00263 0.0
H33 H 0.99183 0.07195 0.99425 0.0
H34 H 0.07234 0.00874 1.00169 0.0
H35 H 0.01382 0.92953 0.01304 0.0
H36 H 0.93331 0.99278 0.00582 0.0
C37 C 0.94091 0.04938 1.00124 0.0
C38 C 1.00082 0.00029 0.10667 0.0
C39 C 0.00494 0.0013 0.90073 0.0
C40 C 0.06473 0.95209 0.00619 0.0
H41 H 0.94934 0.04267 0.12854 0.0
H42 H 0.91626 0.06877 0.07225 0.0
H43 H 0.91948 0.06996 0.92794 0.0
H44 H 0.95477 0.04426 0.87414 0.0
H45 H 0.05638 0.95885 0.87891 0.0
H46 H 0.08942 0.93273 0.9352 0.0
H47 H 0.08609 0.93141 0.07948 0.0
H48 H 0.05084 0.95714 0.13328 0.0
H49 H 0.98427 0.88741 1.00353 0.0
H50 H 0.90272 0.95196 0.99448 0.0
H51 H 0.10275 0.04948 0.01395 0.0
H52 H 0.02117 0.11398 0.00479 0.0
C53 C 0.2614 0.79943 0.30002 0.0
C54 C 0.27838 0.82369 0.30704 0.0
C55 C 0.30649 0.81942 0.28786 0.0
C56 C 0.30519 0.79285 0.27044 0.0
N57 N 0.27786 0.77989 0.27714 0.0
Co58 Co 0.2665 0.74054 0.25835 0.0
N59 N 0.30883 0.73313 0.23249 0.0
C60 C 0.3328 0.7512 0.23165 0.0
C61 C 0.35888 0.74029 0.21157 0.0
C62 C 0.3512 0.71359 0.19873 0.0
C63 C 0.32074 0.70974 0.21189 0.0
N64 N 0.25502 0.70137 0.23922 0.0
C65 C 0.27191 0.68124 0.21749 0.0
C66 C 0.25493 0.6571 0.21011 0.0
C67 C 0.22619 0.66226 0.22757 0.0
C68 C 0.22727 0.68908 0.24458 0.0
N69 N 0.22434 0.74768 0.28477 0.0
C70 C 0.20028 0.72973 0.28536 0.0
C71 C 0.17442 0.74031 0.30609 0.0
C72 C 0.18247 0.76644 0.31999 0.0
C73 C 0.213 0.77019 0.30701 0.0
N74 N 0.25136 0.76464 0.21165 0.0
C75 C 0.23213 0.79375 0.14144 0.0
C76 C 0.21213 0.77643 0.16577 0.0
C77 C 0.22224 0.76194 0.2001 0.0
C78 C 0.26126 0.79783 0.15417 0.0
C79 C 0.27008 0.78364 0.18928 0.0
N80 N 0.28148 0.71657 0.30495 0.0
C81 C 0.27066 0.68314 0.36178 0.0
C82 C 0.29795 0.68986 0.37716 0.0
C83 C 0.31811 0.70805 0.35409 0.0
C84 C 0.30933 0.72134 0.3186 0.0
C85 C 0.2633 0.69612 0.32569 0.0
H86 H 0.32503 0.73614 0.30325 0.0
H87 H 0.24215 0.69019 0.31579 0.0
H88 H 0.20617 0.74819 0.2163 0.0
H89 H 0.29247 0.78782 0.19718 0.0
C90 C 0.32984 0.77864 0.24944 0.0
C91 C 0.23017 0.79542 0.31674 0.0
C92 C 0.304 0.68388 0.20332 0.0
C93 C 0.20277 0.70299 0.26615 0.0
H94 H 0.27141 0.84229 0.32473 0.0
H95 H 0.32586 0.8336 0.28739 0.0
H96 H 0.38078 0.75065 0.20659 0.0
H97 H 0.36627 0.69878 0.18135 0.0
H98 H 0.26255 0.63776 0.1938 0.0
H99 H 0.20683 0.64809 0.22789 0.0
H100 H 0.1524 0.73017 0.31068 0.0
H101 H 0.16752 0.781 0.33778 0.0
H102 H 0.18888 0.77333 0.15817 0.0
H103 H 0.27791 0.81086 0.13671 0.0
H104 H 0.25401 0.66924 0.37794 0.0
H105 H 0.34018 0.71302 0.36368 0.0
C106 C 0.44445 0.98606 0.55579 0.0
C107 C 0.41951 0.00034 0.57588 0.0
C108 C 0.42205 0.03161 0.57006 0.0
C109 C 0.4482 0.03484 0.54665 0.0
N110 N 0.46258 0.00753 0.53697 0.0
Co111 Co 0.50142 0.00249 0.50287 0.0
N112 N 0.50516 0.04874 0.49442 0.0
C113 C 0.48526 0.071 0.50892 0.0
C114 C 0.49278 0.10067 0.49782 0.0
C115 C 0.51907 0.09732 0.47474 0.0
C116 C 0.52635 0.06561 0.47318 0.0
N117 N 0.54036 0.99743 0.46895 0.0
C118 C 0.55848 0.01889 0.45013 0.0
C119 C 0.58369 0.0046 0.4305 0.0
C120 C 0.58132 0.97331 0.4366 0.0
C121 C 0.55502 0.97008 0.45974 0.0
N122 N 0.49757 0.95624 0.51111 0.0
C123 C 0.51732 0.93397 0.49635 0.0
C124 C 0.50957 0.90432 0.50709 0.0
C125 C 0.48325 0.90769 0.53012 0.0
C126 C 0.4762 0.93938 0.53206 0.0
N127 N 0.47583 0.00517 0.45824 0.0
C128 C 0.44218 0.01041 0.39252 0.0
C129 C 0.46544 0.98636 0.39914 0.0
C130 C 0.48184 0.98423 0.43179 0.0
C131 C 0.43538 0.03134 0.41985 0.0
C132 C 0.45219 0.02813 0.45245 0.0
N133 N 0.52695 0.99974 0.54758 0.0
C134 C 0.56453 0.97105 0.58805 0.0
C135 C 0.55769 0.99181 0.61549 0.0
C136 C 0.53667 0.01763 0.6075 0.0
C137 C 0.52163 0.02108 0.57367 0.0
C138 C 0.5493 0.97566 0.55432 0.0
H139 H 0.50512 0.04067 0.56984 0.0
H140 H 0.55547 0.95896 0.53464 0.0
H141 H 0.49968 0.96579 0.43459 0.0
H142 H 0.44589 0.04474 0.47224 0.0
C143 C 0.45962 0.0632 0.53284 0.0
C144 C 0.44937 0.95207 0.55503 0.0
C145 C 0.55327 0.05292 0.45037 0.0
C146 C 0.54334 0.94172 0.47305 0.0
H147 H 0.40117 0.98935 0.59281 0.0
H148 H 0.40653 0.04987 0.58137 0.0
H149 H 0.48046 0.12223 0.50539 0.0
H150 H 0.53129 0.11617 0.46039 0.0
H151 H 0.60205 0.01561 0.41362 0.0
H152 H 0.59697 0.95505 0.4255 0.0
H153 H 0.52181 0.88276 0.49941 0.0
H154 H 0.47089 0.88885 0.54425 0.0
H155 H 0.47192 0.96984 0.37848 0.0
H156 H 0.41737 0.05024 0.41597 0.0
H157 H 0.58104 0.95093 0.59295 0.0
H158 H 0.53055 0.03426 0.62811 0.0
C159 C 0.27314 0.17613 0.77739 0.0
C160 C 0.26154 0.14805 0.7907 0.0
C161 C 0.23023 0.15195 0.78687 0.0
C162 C 0.22458 0.18205 0.7715 0.0
N163 N 0.25048 0.19741 0.76441 0.0
Co164 Co 0.25279 0.24231 0.74533 0.0
N165 N 0.20643 0.24907 0.74327 0.0
C166 C 0.18563 0.22762 0.75196 0.0
C167 C 0.15556 0.23876 0.74571 0.0
C168 C 0.15729 0.26898 0.73144 0.0
C169 C 0.18844 0.27449 0.72983 0.0
N170 N 0.25506 0.28748 0.72754 0.0
C171 C 0.23224 0.30948 0.71682 0.0
C172 C 0.2438 0.33801 0.70582 0.0
C173 C 0.27516 0.33378 0.7092 0.0
C174 C 0.28091 0.30306 0.72205 0.0
N175 N 0.2992 0.2353 0.74623 0.0
C176 C 0.32011 0.25618 0.73498 0.0
C177 C 0.35029 0.2448 0.74004 0.0
C178 C 0.34855 0.21503 0.75604 0.0
C179 C 0.31726 0.20998 0.75981 0.0
N180 N 0.25524 0.23188 0.69207 0.0
C181 C 0.25446 0.22119 0.61527 0.0
C182 C 0.27343 0.24248 0.62674 0.0
C183 C 0.27361 0.24727 0.66493 0.0
C184 C 0.23675 0.20454 0.64313 0.0
C185 C 0.23749 0.21019 0.68098 0.0
N186 N 0.25032 0.25268 0.79852 0.0
C187 C 0.27305 0.27362 0.84971 0.0
C188 C 0.25064 0.26161 0.8758 0.0
C189 C 0.22728 0.24626 0.86221 0.0
C190 C 0.22755 0.24211 0.82382 0.0
C191 C 0.27234 0.26909 0.81151 0.0
H192 H 0.20941 0.22976 0.81544 0.0
H193 H 0.2903 0.27844 0.79319 0.0
H194 H 0.28833 0.26402 0.67162 0.0
H195 H 0.22312 0.19702 0.70061 0.0
C196 C 0.19516 0.19701 0.76509 0.0
C197 C 0.30556 0.18191 0.77944 0.0
C198 C 0.19989 0.30381 0.71381 0.0
C199 C 0.31046 0.28738 0.72496 0.0
H200 H 0.27434 0.1272 0.80281 0.0
H201 H 0.21347 0.13517 0.79535 0.0
H202 H 0.13494 0.22622 0.75023 0.0
H203 H 0.13792 0.28502 0.72249 0.0
H204 H 0.23105 0.35939 0.6952 0.0
H205 H 0.29191 0.35072 0.70159 0.0
H206 H 0.37096 0.2572 0.73468 0.0
H207 H 0.36803 0.19932 0.76531 0.0
H208 H 0.28746 0.25618 0.60631 0.0
H209 H 0.22218 0.18726 0.63585 0.0
H210 H 0.29173 0.2856 0.85877 0.0
H211 H 0.20893 0.2372 0.88113 0.0
C212 C 0.99139 0.975 0.5884 0.0
C213 C 0.9782 0.9504 0.60958 0.0
C214 C 0.96614 0.93335 0.58469 0.0
C215 C 0.9728 0.94803 0.54957 0.0
N216 N 0.98877 0.9733 0.55027 0.0
Co217 Co 0.00257 0.0006 0.50374 0.0
N218 N 0.98306 0.97638 0.46703 0.0
C219 C 0.96736 0.95104 0.47727 0.0
C220 C 0.95809 0.93746 0.44722 0.0
C221 C 0.96857 0.95498 0.41571 0.0
C222 C 0.98356 0.97875 0.42804 0.0
N223 N 0.01646 0.02784 0.4572 0.0
C224 C 0.01384 0.02613 0.41906 0.0
C225 C 0.02725 0.05058 0.39786 0.0
C226 C 0.03942 0.06756 0.42275 0.0
C227 C 0.03263 0.05298 0.45788 0.0
N228 N 0.02198 0.02488 0.54048 0.0
C229 C 0.03754 0.05032 0.53026 0.0
C230 C 0.04665 0.06399 0.56033 0.0
C231 C 0.03619 0.04645 0.59183 0.0
C232 C 0.02136 0.02259 0.57949 0.0
N233 N 0.04176 0.97345 0.49808 0.0
C234 C 0.09469 0.93631 0.47412 0.0
C235 C 0.096 0.96806 0.47683 0.0
C236 C 0.06956 0.98598 0.48931 0.0
C237 C 0.0673 0.92301 0.48695 0.0
C238 C 0.04138 0.94184 0.49895 0.0
N239 N 0.96339 0.02777 0.5094 0.0
C240 C 0.93786 0.07842 0.51944 0.0
C241 C 0.91062 0.06521 0.53315 0.0
C242 C 0.90935 0.03333 0.53148 0.0
C243 C 0.9357 0.01525 0.51906 0.0
C244 C 0.9637 0.05943 0.50759 0.0
H245 H 0.9334 0.99106 0.51882 0.0
H246 H 0.98396 0.07084 0.49854 0.0
H247 H 0.07189 0.01009 0.49032 0.0
H248 H 0.02103 0.93039 0.50731 0.0
C249 C 0.96361 0.93931 0.51533 0.0
C250 C 0.00613 0.99915 0.60624 0.0
C251 C 0.99882 0.00215 0.40125 0.0
C252 C 0.04154 0.06187 0.49216 0.0
H253 H 0.97726 0.94523 0.63997 0.0
H254 H 0.9537 0.91278 0.59146 0.0
H255 H 0.94598 0.91663 0.44807 0.0
H256 H 0.96611 0.95012 0.38691 0.0
H257 H 0.02822 0.05574 0.36746 0.0
H258 H 0.05195 0.08807 0.41597 0.0
H259 H 0.0587 0.08486 0.55948 0.0
H260 H 0.03856 0.05135 0.62064 0.0
H261 H 0.11708 0.97922 0.46837 0.0
H262 H 0.06518 0.89844 0.48577 0.0
H263 H 0.93991 0.10309 0.51981 0.0
H264 H 0.88838 0.02222 0.54068 0.0
C265 C 0.26974 0.81049 0.7038 0.0
C266 C 0.25546 0.83526 0.68173 0.0
C267 C 0.22432 0.83192 0.68506 0.0
C268 C 0.22117 0.80554 0.70912 0.0
N269 N 0.24839 0.79175 0.72152 0.0
Co270 Co 0.25338 0.75312 0.75784 0.0
N271 N 0.20758 0.74702 0.76059 0.0
C272 C 0.18559 0.7655 0.74182 0.0
C273 C 0.15615 0.75646 0.74933 0.0
C274 C 0.15938 0.73059 0.77441 0.0
C275 C 0.1908 0.72509 0.78077 0.0
N276 N 0.25828 0.71487 0.7948 0.0
C277 C 0.23691 0.69611 0.81245 0.0
C278 C 0.251 0.67234 0.83619 0.0
C279 C 0.28199 0.67638 0.83403 0.0
C280 C 0.28527 0.70221 0.80906 0.0
N281 N 0.29932 0.75875 0.75425 0.0
C282 C 0.32144 0.73977 0.77216 0.0
C283 C 0.35101 0.74808 0.76338 0.0
C284 C 0.34775 0.77384 0.73811 0.0
C285 C 0.31619 0.78007 0.73305 0.0
N286 N 0.24697 0.77905 0.80111 0.0
C287 C 0.2349 0.80918 0.86757 0.0
C288 C 0.2631 0.7918 0.86099 0.0
C289 C 0.26853 0.77694 0.82798 0.0
C290 C 0.21355 0.81286 0.83945 0.0
C291 C 0.22028 0.79815 0.8063 0.0
N292 N 0.25988 0.72721 0.71474 0.0
C293 C 0.29177 0.68919 0.68088 0.0
C294 C 0.27405 0.69628 0.64938 0.0
C295 C 0.24805 0.71764 0.65178 0.0
C296 C 0.24151 0.73286 0.68446 0.0
C297 C 0.28394 0.70442 0.71335 0.0
H298 H 0.2221 0.7498 0.68409 0.0
H299 H 0.29821 0.69792 0.73654 0.0
H300 H 0.28995 0.76307 0.82561 0.0
H301 H 0.20314 0.80197 0.78586 0.0
C302 C 0.19319 0.79227 0.7191 0.0
C303 C 0.30363 0.80616 0.70714 0.0
C304 C 0.2032 0.69938 0.80733 0.0
C305 C 0.31351 0.71449 0.79743 0.0
H306 H 0.26639 0.85385 0.66486 0.0
H307 H 0.20615 0.84681 0.67125 0.0
H308 H 0.13476 0.76775 0.73851 0.0
H309 H 0.14054 0.71764 0.78712 0.0
H310 H 0.24009 0.65379 0.85316 0.0
H311 H 0.30005 0.662 0.8487 0.0
H312 H 0.37244 0.73663 0.7739 0.0
H313 H 0.3666 0.7864 0.72467 0.0
H314 H 0.28024 0.78813 0.88222 0.0
H315 H 0.1915 0.82645 0.84336 0.0
H316 H 0.31191 0.67244 0.68018 0.0
H317 H 0.23377 0.72383 0.62781 0.0
C318 C 0.44374 0.01117 0.95787 0.0
C319 C 0.42103 0.99607 0.94308 0.0
C320 C 0.4255 0.96546 0.95627 0.0
C321 C 0.45056 0.96362 0.97824 0.0
N322 N 0.46222 0.99123 0.98022 0.0
Co323 Co 0.4998 0.99849 0.00712 0.0
N324 N 0.50453 0.95402 0.02933 0.0
C325 C 0.48546 0.9317 0.02533 0.0
C326 C 0.49335 0.9039 0.04565 0.0
C327 C 0.51891 0.90876 0.06399 0.0
C328 C 0.52536 0.93931 0.05338 0.0
N329 N 0.53853 0.0053 0.03199 0.0
C330 C 0.5573 0.98528 0.05391 0.0
C331 C 0.58296 0.99921 0.06347 0.0
C332 C 0.58015 0.02913 0.04734 0.0
C333 C 0.55319 0.03172 0.02868 0.0
N334 N 0.49367 0.04351 0.98739 0.0
C335 C 0.51153 0.06632 0.9935 0.0
C336 C 0.50125 0.09509 0.97728 0.0
C337 C 0.47514 0.09046 0.95986 0.0
C338 C 0.47105 0.05894 0.96644 0.0
N339 N 0.47384 0.00845 0.0528 0.0
C340 C 0.44049 0.0184 0.12164 0.0
C341 C 0.46596 0.03517 0.10936 0.0
C342 C 0.48204 0.03002 0.07503 0.0
C343 C 0.43099 0.99784 0.09774 0.0
C344 C 0.44787 0.99324 0.06369 0.0
N345 N 0.52579 0.98839 0.96108 0.0
C346 C 0.55485 0.00554 0.90365 0.0
C347 C 0.55559 0.97613 0.89055 0.0
C348 C 0.54326 0.9524 0.91486 0.0
C349 C 0.52833 0.95901 0.94943 0.0
C350 C 0.5405 0.01094 0.9389 0.0
H351 H 0.51845 0.93997 0.96561 0.0
H352 H 0.54092 0.0339 0.94687 0.0
H353 H 0.50159 0.04311 0.06755 0.0
H354 H 0.43992 0.97671 0.04708 0.0
C355 C 0.46172 0.93704 1.00023 0.0
C356 C 0.44638 0.04454 0.95045 0.0
C357 C 0.55176 0.95309 0.06643 0.0
C358 C 0.53938 0.05936 0.01138 0.0
H359 H 0.40286 0.00618 0.92499 0.0
H360 H 0.41168 0.94689 0.95115 0.0
H361 H 0.48208 0.88254 0.04666 0.0
H362 H 0.53151 0.89165 0.08281 0.0
H363 H 0.60165 0.9889 0.08064 0.0
H364 H 0.59552 0.04708 0.04971 0.0
H365 H 0.51195 0.11669 0.9772 0.0
H366 H 0.46116 0.10816 0.94338 0.0
H367 H 0.47452 0.05118 0.1269 0.0
H368 H 0.41104 0.98475 0.10562 0.0
H369 H 0.56399 0.02494 0.88629 0.0
H370 H 0.54421 0.92886 0.90696 0.0
C371 C 0.21328 0.24394 0.31931 0.0
C372 C 0.18902 0.26037 0.33815 0.0
C373 C 0.17946 0.28522 0.31379 0.0
C374 C 0.19842 0.28265 0.28169 0.0
N375 N 0.21898 0.25716 0.28368 0.0
Co376 Co 0.25295 0.24579 0.24516 0.0
N377 N 0.24163 0.28445 0.21125 0.0
C378 C 0.21879 0.30707 0.21768 0.0
C379 C 0.21506 0.3293 0.18773 0.0
C380 C 0.23616 0.31983 0.16012 0.0
C381 C 0.25164 0.29235 0.175 0.0
N382 N 0.28726 0.23473 0.20711 0.0
C383 C 0.29312 0.24804 0.17167 0.0
C384 C 0.31842 0.23271 0.15349 0.0
C385 C 0.32843 0.20817 0.17812 0.0
C386 C 0.30874 0.21002 0.20977 0.0
N387 N 0.26388 0.20687 0.27854 0.0
C388 C 0.286 0.18373 0.27147 0.0
C389 C 0.28862 0.16058 0.30061 0.0
C390 C 0.26743 0.16989 0.32824 0.0
C391 C 0.25319 0.19829 0.31427 0.0
N392 N 0.22426 0.22366 0.21855 0.0
C393 C 0.1875 0.19793 0.16964 0.0
C394 C 0.21642 0.18331 0.179 0.0
C395 C 0.2342 0.19636 0.20353 0.0
C396 C 0.17648 0.22458 0.18694 0.0
C397 C 0.19501 0.23682 0.21133 0.0
N398 N 0.28181 0.26812 0.27129 0.0
C399 C 0.33111 0.26999 0.29883 0.0
C400 C 0.32317 0.3007 0.30646 0.0
C401 C 0.29402 0.3146 0.29711 0.0
C402 C 0.27381 0.29798 0.27989 0.0
C403 C 0.31024 0.25425 0.28123 0.0
H404 H 0.25188 0.30982 0.27389 0.0
H405 H 0.3177 0.23098 0.27586 0.0
H406 H 0.25625 0.18442 0.20907 0.0
H407 H 0.18553 0.25747 0.22302 0.0
C408 C 0.19932 0.30512 0.25063 0.0
C409 C 0.23226 0.21781 0.33736 0.0
C410 C 0.27312 0.2727 0.15268 0.0
C411 C 0.30673 0.18661 0.23968 0.0
H412 H 0.17993 0.25568 0.36697 0.0
H413 H 0.16181 0.30376 0.31948 0.0
H414 H 0.19794 0.34912 0.18553 0.0
H415 H 0.23884 0.33115 0.13175 0.0
H416 H 0.32753 0.23785 0.12471 0.0
H417 H 0.34659 0.19003 0.17265 0.0
H418 H 0.30521 0.14032 0.30243 0.0
H419 H 0.26388 0.158 0.35622 0.0
H420 H 0.22549 0.16202 0.16718 0.0
H421 H 0.15408 0.23663 0.18077 0.0
H422 H 0.35353 0.25833 0.30568 0.0
H423 H 0.28666 0.33819 0.30333 0.0
C424 C 0.72727 0.31843 0.78889 0.0
C425 C 0.74347 0.3432 0.79602 0.0
C426 C 0.77218 0.33895 0.7782 0.0
C427 C 0.77189 0.31194 0.76133 0.0
N428 N 0.74467 0.29869 0.7671 0.0
Co429 Co 0.73441 0.25889 0.7484 0.0
N430 N 0.7767 0.25279 0.72198 0.0
C431 C 0.80016 0.27151 0.7212 0.0
C432 C 0.82639 0.26137 0.70082 0.0
C433 C 0.81925 0.23469 0.68742 0.0
C434 C 0.78885 0.23018 0.70031 0.0
N435 N 0.72422 0.21901 0.72989 0.0
C436 C 0.74134 0.19959 0.70742 0.0
C437 C 0.72505 0.17482 0.70042 0.0
C438 C 0.69672 0.17861 0.71923 0.0
C439 C 0.69721 0.20542 0.73641 0.0
N440 N 0.69203 0.26513 0.7745 0.0
C441 C 0.66856 0.24644 0.77531 0.0
C442 C 0.64224 0.25674 0.79541 0.0
C443 C 0.64925 0.28363 0.8084 0.0
C444 C 0.67965 0.2881 0.79547 0.0
N445 N 0.71875 0.28225 0.70172 0.0
C446 C 0.70099 0.30897 0.62997 0.0
C447 C 0.68152 0.29015 0.65321 0.0
C448 C 0.69093 0.27689 0.68846 0.0
C449 C 0.72833 0.3161 0.64486 0.0
C450 C 0.73635 0.30308 0.68069 0.0
N451 N 0.75017 0.23547 0.79514 0.0
C452 C 0.74121 0.20186 0.85249 0.0
C453 C 0.76984 0.20731 0.86556 0.0
C454 C 0.78921 0.22552 0.84144 0.0
C455 C 0.77887 0.23953 0.80698 0.0
C456 C 0.73219 0.2156 0.81728 0.0
H457 H 0.79435 0.25404 0.79091 0.0
H458 H 0.71019 0.21042 0.8091 0.0
H459 H 0.67568 0.26172 0.70394 0.0
H460 H 0.75749 0.30938 0.69018 0.0
C461 C 0.79679 0.29851 0.73995 0.0
C462 C 0.69569 0.31439 0.8041 0.0
C463 C 0.7726 0.20411 0.69114 0.0
C464 C 0.67221 0.21905 0.75741 0.0
H465 H 0.73541 0.36224 0.81264 0.0
H466 H 0.79107 0.35371 0.77775 0.0
H467 H 0.84808 0.27212 0.69619 0.0
H468 H 0.83474 0.22023 0.67007 0.0
H469 H 0.73264 0.15617 0.68304 0.0
H470 H 0.67778 0.1639 0.71971 0.0
H471 H 0.6206 0.24591 0.80023 0.0
H472 H 0.63377 0.29824 0.8256 0.0
H473 H 0.65948 0.28474 0.64395 0.0
H474 H 0.7445 0.33043 0.62848 0.0
H475 H 0.72505 0.1881 0.86977 0.0
H476 H 0.81209 0.2297 0.84929 0.0
C477 C 0.76843 0.68665 0.29428 0.0
C478 C 0.75672 0.65827 0.30582 0.0
C479 C 0.72537 0.6626 0.30249 0.0
C480 C 0.71974 0.69324 0.28922 0.0
N481 N 0.74568 0.70866 0.28327 0.0
Co482 Co 0.74812 0.75385 0.26571 0.0
N483 N 0.70173 0.76088 0.26417 0.0
C484 C 0.68072 0.73982 0.27404 0.0
C485 C 0.65064 0.75127 0.26841 0.0
C486 C 0.65256 0.78127 0.25336 0.0
C487 C 0.68385 0.78633 0.25068 0.0
N488 N 0.75055 0.79899 0.24786 0.0
C489 C 0.7279 0.82065 0.2357 0.0
C490 C 0.73951 0.84898 0.22373 0.0
C491 C 0.7708 0.84492 0.22778 0.0
C492 C 0.77644 0.81448 0.24192 0.0
N493 N 0.7945 0.74688 0.26743 0.0
C494 C 0.81545 0.76812 0.25822 0.0
C495 C 0.84556 0.75666 0.26367 0.0
C496 C 0.84373 0.72643 0.27783 0.0
C497 C 0.81246 0.72125 0.28026 0.0
N498 N 0.75074 0.74403 0.21223 0.0
C499 C 0.75095 0.73479 0.13489 0.0
C500 C 0.77293 0.75204 0.14825 0.0
C501 C 0.77238 0.75635 0.18663 0.0
C502 C 0.7296 0.72125 0.16123 0.0
C503 C 0.73003 0.72599 0.19943 0.0
N504 N 0.74554 0.76367 0.31925 0.0
C505 C 0.76642 0.78722 0.36985 0.0
C506 C 0.74598 0.77283 0.39662 0.0
C507 C 0.72449 0.75475 0.38369 0.0
C508 C 0.72469 0.75052 0.34528 0.0
C509 C 0.76567 0.78253 0.33168 0.0
H510 H 0.70807 0.73609 0.33749 0.0
H511 H 0.78208 0.7939 0.31294 0.0
H512 H 0.78942 0.77017 0.19475 0.0
H513 H 0.71294 0.71533 0.21793 0.0
C514 C 0.69025 0.70874 0.28499 0.0
C515 C 0.8009 0.69212 0.29675 0.0
C516 C 0.69562 0.81488 0.23267 0.0
C517 C 0.80593 0.79913 0.24681 0.0
H518 H 0.76941 0.63691 0.31659 0.0
H519 H 0.70856 0.64573 0.31016 0.0
H520 H 0.62992 0.73889 0.27315 0.0
H521 H 0.63327 0.79731 0.24419 0.0
H522 H 0.72678 0.87007 0.21219 0.0
H523 H 0.78758 0.8618 0.21994 0.0
H524 H 0.86627 0.76906 0.25899 0.0
H525 H 0.86309 0.7102 0.28634 0.0
H526 H 0.79047 0.76241 0.12919 0.0
H527 H 0.71196 0.7078 0.15239 0.0
H528 H 0.78368 0.80133 0.37829 0.0
H529 H 0.70763 0.74368 0.40311 0.0
C530 C 0.7643 0.31049 0.19401 0.0
C531 C 0.75003 0.33419 0.17034 0.0
C532 C 0.71909 0.32989 0.1725 0.0
C533 C 0.71602 0.304 0.19743 0.0
N534 N 0.74309 0.29154 0.21166 0.0
Co535 Co 0.74832 0.2533 0.24856 0.0
N536 N 0.70252 0.24703 0.25177 0.0
C537 C 0.68028 0.26567 0.23362 0.0
C538 C 0.65083 0.25694 0.24217 0.0
C539 C 0.65428 0.23127 0.26754 0.0
C540 C 0.68584 0.22552 0.27292 0.0
N541 N 0.75363 0.21474 0.28493 0.0
C542 C 0.73244 0.19582 0.30266 0.0
C543 C 0.74688 0.17131 0.32498 0.0
C544 C 0.77795 0.17501 0.32181 0.0
C545 C 0.78091 0.20135 0.29762 0.0
N546 N 0.794 0.25994 0.24604 0.0
C547 C 0.81612 0.2417 0.26488 0.0
C548 C 0.84545 0.25103 0.25739 0.0
C549 C 0.84202 0.2768 0.23219 0.0
C550 C 0.8106 0.28197 0.22576 0.0
N551 N 0.74124 0.27914 0.29169 0.0
C552 C 0.72642 0.30967 0.35725 0.0
C553 C 0.75296 0.28903 0.35457 0.0
C554 C 0.75981 0.274 0.32181 0.0
C555 C 0.70845 0.31629 0.32592 0.0
C556 C 0.7166 0.3013 0.29332 0.0
N557 N 0.75533 0.22743 0.20527 0.0
C558 C 0.78932 0.19371 0.16745 0.0
C559 C 0.7684 0.19746 0.13885 0.0
C560 C 0.74012 0.21484 0.14488 0.0
C561 C 0.73418 0.22963 0.1779 0.0
C562 C 0.78208 0.20833 0.20056 0.0
H563 H 0.71274 0.24352 0.1799 0.0
H564 H 0.79888 0.20444 0.2214 0.0
H565 H 0.77963 0.25758 0.32202 0.0
H566 H 0.70212 0.30742 0.27027 0.0
C567 C 0.68796 0.29124 0.20867 0.0
C568 C 0.79802 0.30742 0.19899 0.0
C569 C 0.69856 0.19978 0.29919 0.0
C570 C 0.80874 0.21491 0.28773 0.0
H571 H 0.7608 0.35282 0.15334 0.0
H572 H 0.70094 0.34408 0.15777 0.0
H573 H 0.62933 0.26812 0.23151 0.0
H574 H 0.63555 0.2185 0.28091 0.0
H575 H 0.7361 0.15266 0.34192 0.0
H576 H 0.7962 0.1604 0.33585 0.0
H577 H 0.86691 0.23997 0.26828 0.0
H578 H 0.86075 0.28988 0.21944 0.0
H579 H 0.76745 0.2832 0.37841 0.0
H580 H 0.68786 0.33247 0.32685 0.0
H581 H 0.8114 0.1801 0.16395 0.0
H582 H 0.7233 0.21852 0.12327 0.0
C583 C 0.71147 0.75062 0.83845 0.0
C584 C 0.68633 0.76582 0.85711 0.0
C585 C 0.6765 0.79088 0.83316 0.0
C586 C 0.69615 0.78948 0.80141 0.0
N587 N 0.71731 0.76449 0.80328 0.0
Co588 Co 0.75195 0.75424 0.76531 0.0
N589 N 0.7411 0.79367 0.73267 0.0
C590 C 0.7187 0.81649 0.73998 0.0
C591 C 0.71532 0.8394 0.71069 0.0
C592 C 0.73613 0.83017 0.68262 0.0
C593 C 0.75109 0.80212 0.69656 0.0
N594 N 0.78647 0.74391 0.72719 0.0
C595 C 0.79191 0.75748 0.69177 0.0
C596 C 0.81681 0.74215 0.67287 0.0
C597 C 0.82692 0.71726 0.69693 0.0
C598 C 0.80763 0.7189 0.72897 0.0
N599 N 0.7629 0.71484 0.79801 0.0
C600 C 0.78564 0.69225 0.79096 0.0
C601 C 0.78904 0.66937 0.82027 0.0
C602 C 0.76788 0.67836 0.8481 0.0
C603 C 0.75269 0.70625 0.83399 0.0
N604 N 0.7237 0.73264 0.73742 0.0
C605 C 0.68556 0.70385 0.69312 0.0
C606 C 0.71451 0.68959 0.70285 0.0
C607 C 0.733 0.70423 0.72492 0.0
C608 C 0.67567 0.73244 0.70655 0.0
C609 C 0.69497 0.74631 0.72852 0.0
N610 N 0.78017 0.77576 0.79344 0.0
C611 C 0.82722 0.77415 0.8267 0.0
C612 C 0.81653 0.80137 0.84294 0.0
C613 C 0.78803 0.81641 0.83258 0.0
C614 C 0.77045 0.80339 0.80778 0.0
C615 C 0.80891 0.76197 0.80204 0.0
H616 H 0.74878 0.81574 0.80136 0.0
H617 H 0.81819 0.74094 0.79117 0.0
H618 H 0.75486 0.69224 0.73109 0.0
H619 H 0.68631 0.76829 0.73746 0.0
C620 C 0.69811 0.81323 0.77188 0.0
C621 C 0.73153 0.72573 0.85693 0.0
C622 C 0.77166 0.78229 0.6734 0.0
C623 C 0.80602 0.69536 0.75882 0.0
H624 H 0.67729 0.76026 0.88585 0.0
H625 H 0.65851 0.80904 0.83915 0.0
H626 H 0.69827 0.85929 0.70895 0.0
H627 H 0.73874 0.84193 0.65448 0.0
H628 H 0.82551 0.74749 0.64395 0.0
H629 H 0.84484 0.69906 0.69086 0.0
H630 H 0.80619 0.64957 0.82211 0.0
H631 H 0.76508 0.66654 0.87618 0.0
H632 H 0.72286 0.66708 0.69369 0.0
H633 H 0.6534 0.74438 0.69956 0.0
H634 H 0.84924 0.76171 0.83377 0.0
H635 H 0.77922 0.83808 0.84366 0.0
C636 C 0.45706 0.50654 0.5678 0.0
C637 C 0.42895 0.52208 0.57865 0.0
C638 C 0.42045 0.54232 0.54847 0.0
C639 C 0.4437 0.53785 0.521 0.0
N640 N 0.46627 0.51557 0.53163 0.0
Co641 Co 0.50455 0.50156 0.50099 0.0
N642 N 0.49373 0.53342 0.45809 0.0
C643 C 0.46961 0.5556 0.45709 0.0
C644 C 0.46802 0.57342 0.42307 0.0
C645 C 0.49216 0.56145 0.40079 0.0
C646 C 0.507 0.53694 0.42265 0.0
N647 N 0.54247 0.48714 0.46983 0.0
C648 C 0.55038 0.49478 0.43286 0.0
C649 C 0.57739 0.47787 0.42099 0.0
C650 C 0.5866 0.45835 0.45147 0.0
C651 C 0.56469 0.46438 0.47997 0.0
N652 N 0.51567 0.47007 0.54426 0.0
C653 C 0.54088 0.44917 0.54589 0.0
C654 C 0.54316 0.4319 0.58014 0.0
C655 C 0.51827 0.44279 0.60199 0.0
C656 C 0.50206 0.46609 0.5796 0.0
N657 N 0.48107 0.47132 0.47915 0.0
C658 C 0.45029 0.43012 0.44182 0.0
C659 C 0.47795 0.42018 0.45908 0.0
C660 C 0.49285 0.44104 0.47751 0.0
C661 C 0.43772 0.46063 0.4447 0.0
C662 C 0.45332 0.48064 0.46342 0.0
N663 N 0.52813 0.53192 0.52263 0.0
C664 C 0.57501 0.54509 0.54815 0.0
C665 C 0.56157 0.57492 0.55345 0.0
C666 C 0.53113 0.58291 0.54324 0.0
C667 C 0.51498 0.56124 0.52794 0.0
C668 C 0.55797 0.52411 0.53295 0.0
H669 H 0.49189 0.56879 0.52079 0.0
H670 H 0.56941 0.50166 0.53015 0.0
H671 H 0.51414 0.43229 0.48953 0.0
H672 H 0.4427 0.50367 0.46422 0.0
C673 C 0.44661 0.55628 0.48656 0.0
C674 C 0.47537 0.48544 0.59383 0.0
C675 C 0.53136 0.51561 0.40739 0.0
C676 C 0.56288 0.44743 0.51546 0.0
H677 H 0.41653 0.51979 0.60606 0.0
H678 H 0.40042 0.55918 0.54725 0.0
H679 H 0.45039 0.59172 0.41476 0.0
H680 H 0.49743 0.56885 0.37128 0.0
H681 H 0.58863 0.47871 0.39289 0.0
H682 H 0.60613 0.44087 0.45226 0.0
H683 H 0.56132 0.41421 0.58861 0.0
H684 H 0.51327 0.43501 0.63139 0.0
H685 H 0.48855 0.3967 0.4575 0.0
H686 H 0.41592 0.46913 0.43247 0.0
H687 H 0.5984 0.53771 0.55634 0.0
H688 H 0.51986 0.60588 0.5467 0.0
C689 C 0.94297 0.48787 0.0557 0.0
C690 C 0.91888 0.5023 0.07699 0.0
C691 C 0.92316 0.53327 0.07357 0.0
C692 C 0.9494 0.5362 0.05024 0.0
N693 N 0.96217 0.509 0.03832 0.0
Co694 Co 1.00048 0.50368 1.00346 0.0
N695 N 0.00744 0.54932 0.99965 0.0
C696 C 0.98933 0.57149 0.01685 0.0
C697 C 0.99871 0.60082 0.0085 0.0
C698 C 0.02437 0.59736 0.98443 0.0
C699 C 0.02945 0.5659 0.97954 0.0
N700 N 0.0387 0.49838 0.96843 0.0
C701 C 0.05789 0.51952 0.95104 0.0
C702 C 0.08172 0.50515 0.92929 0.0
C703 C 0.07727 0.47423 0.93243 0.0
C704 C 0.05119 0.47126 0.95602 0.0
N705 N 0.99363 0.45798 0.00747 0.0
C706 C 0.01189 0.43578 0.99051 0.0
C707 C 0.00271 0.4064 0.99922 0.0
C708 C 0.97708 0.40987 0.02334 0.0
C709 C 0.97179 0.44137 0.02787 0.0
N710 N 0.97453 0.51142 0.95896 0.0
C711 C 0.94381 0.52579 0.89147 0.0
C712 C 0.96231 0.49794 0.89774 0.0
C713 C 0.97748 0.49135 0.93131 0.0
C714 C 0.93943 0.54556 0.92024 0.0
C715 C 0.95444 0.53765 0.95388 0.0
N716 N 0.02639 0.4959 0.04794 0.0
C717 C 0.06198 0.46177 0.08596 0.0
C718 C 0.05646 0.48049 0.11569 0.0
C719 C 0.03729 0.50799 0.11025 0.0
C720 C 0.02246 0.51512 0.07648 0.0
C721 C 0.04728 0.47022 0.05221 0.0
H722 H 0.00712 0.53573 0.07471 0.0
H723 H 0.05254 0.45513 0.03048 0.0
H724 H 0.99223 0.47037 0.93362 0.0
H725 H 0.95002 0.55355 0.97485 0.0
C726 C 0.96293 0.56406 0.03961 0.0
C727 C 0.94622 0.45406 0.05274 0.0
C728 C 0.05495 0.55326 0.95452 0.0
C729 C 0.0379 0.44332 0.9671 0.0
H730 H 0.90005 0.49161 0.09332 0.0
H731 H 0.90886 0.5515 0.08665 0.0
H732 H 0.98783 0.62229 0.01823 0.0
H733 H 0.0375 0.61606 0.97147 0.0
H734 H 0.10051 0.51585 0.91291 0.0
H735 H 0.09143 0.45604 0.91911 0.0
H736 H 0.01364 0.38492 0.98959 0.0
H737 H 0.96407 0.39114 0.03652 0.0
H738 H 0.9665 0.48206 0.87594 0.0
H739 H 0.925 0.56729 0.91648 0.0
H740 H 0.077 0.44038 0.08905 0.0
H741 H 0.03231 0.52308 0.13278 0.0
C742 C 0.46035 0.55944 0.01596 0.0
C743 C 0.46347 0.59118 0.01226 0.0
C744 C 0.49268 0.59506 0.99676 0.0
C745 C 0.50569 0.56561 0.9919 0.0
N746 N 0.48635 0.54316 1.00283 0.0
Co747 Co 0.49592 0.49711 1.00176 0.0
N748 N 0.54022 0.5025 0.98413 0.0
C749 C 0.5542 0.52938 0.97909 0.0
C750 C 0.58484 0.52567 0.96672 0.0
C751 C 0.59071 0.49463 0.96317 0.0
C752 C 0.56311 0.48122 0.9734 0.0
N753 N 0.50524 0.45112 0.99951 0.0
C754 C 0.53123 0.4349 0.98616 0.0
C755 C 0.52727 0.40341 0.98708 0.0
C756 C 0.49767 0.39963 1.00119 0.0
C757 C 0.48521 0.42888 0.00784 0.0
N758 N 0.45187 0.49169 0.02066 0.0
C759 C 0.43824 0.46469 0.0276 0.0
C760 C 0.40831 0.46822 0.04265 0.0
C761 C 0.40268 0.49926 0.04637 0.0
C762 C 0.42963 0.51284 0.03328 0.0
N763 N 0.48397 0.50067 0.94853 0.0
C764 C 0.47118 0.50201 0.87175 0.0
C765 C 0.45626 0.48249 0.89936 0.0
C766 C 0.46294 0.48219 0.93724 0.0
C767 C 0.49175 0.52166 0.88345 0.0
C768 C 0.49758 0.52076 0.92162 0.0
N769 N 0.50781 0.49355 0.05494 0.0
C770 C 0.50463 0.46803 0.11842 0.0
C771 C 0.51905 0.4918 0.13215 0.0
C772 C 0.52898 0.51575 0.10627 0.0
C773 C 0.52331 0.51608 0.06809 0.0
C774 C 0.49931 0.46934 0.08004 0.0
H775 H 0.53101 0.53522 0.04996 0.0
H776 H 0.48775 0.4508 0.07153 0.0
H777 H 0.45114 0.46645 0.9567 0.0
H778 H 0.51371 0.5361 0.9285 0.0
C779 C 0.53705 0.55802 0.98208 0.0
C780 C 0.43347 0.54561 0.03511 0.0
C781 C 0.55933 0.44859 0.97022 0.0
C782 C 0.45458 0.43631 0.02096 0.0
H783 H 0.44683 0.60953 0.02121 0.0
H784 H 0.50368 0.61663 0.99151 0.0
H785 H 0.60068 0.54357 0.95966 0.0
H786 H 0.61253 0.48324 0.95306 0.0
H787 H 0.54374 0.3851 0.97767 0.0
H788 H 0.48634 0.37822 0.00522 0.0
H789 H 0.39274 0.45026 0.05089 0.0
H790 H 0.38143 0.51059 0.05816 0.0
H791 H 0.43963 0.46727 0.89186 0.0
H792 H 0.50416 0.53704 0.86318 0.0
H793 H 0.49714 0.44859 0.13724 0.0
H794 H 0.54012 0.53483 0.1155 0.0
C795 C 0.94122 0.51272 0.46229 0.0
C796 C 0.91417 0.49981 0.45547 0.0
C797 C 0.91587 0.47055 0.47364 0.0
C798 C 0.94365 0.4673 0.49059 0.0
N799 N 0.95991 0.49269 0.48434 0.0
Co800 Co 0.00115 0.49812 0.50439 0.0
N801 N 0.00345 0.45501 0.53131 0.0
C802 C 0.9821 0.43397 0.53208 0.0
C803 C 0.98988 0.40651 0.55313 0.0
C804 C 0.01798 0.41006 0.56656 0.0
C805 C 0.0258 0.43959 0.55268 0.0
N806 N 0.0423 0.50361 0.52464 0.0
C807 C 0.06092 0.48363 0.54681 0.0
C808 C 0.08772 0.49674 0.55418 0.0
C809 C 0.0859 0.52608 0.53625 0.0
C810 C 0.05831 0.5292 0.51891 0.0
N811 N 0.99896 0.54114 0.47722 0.0
C812 C 0.02046 0.56205 0.47615 0.0
C813 C 0.01286 0.58936 0.45469 0.0
C814 C 0.98476 0.58581 0.44127 0.0
C815 C 0.97673 0.55645 0.45559 0.0
N816 N 0.97964 0.51487 0.54995 0.0
C817 C 0.95333 0.53586 0.61849 0.0
C818 C 0.97351 0.55356 0.59487 0.0
C819 C 0.98659 0.54254 0.56138 0.0
C820 C 0.94514 0.50837 0.6058 0.0
C821 C 0.958 0.49873 0.5715 0.0
N822 N 0.02262 0.48141 0.45883 0.0
C823 C 0.05773 0.48794 0.40357 0.0
C824 C 0.0483 0.46151 0.38948 0.0
C825 C 0.02734 0.44409 0.41227 0.0
C826 C 0.01461 0.45458 0.44622 0.0
C827 C 0.04516 0.497 0.43825 0.0
H828 H 0.99784 0.44091 0.46131 0.0
H829 H 0.05347 0.5172 0.44727 0.0
H830 H 0.00269 0.5566 0.54565 0.0
H831 H 0.9506 0.47773 0.56354 0.0
C832 C 0.95488 0.44082 0.51279 0.0
C833 C 0.94772 0.54428 0.44785 0.0
C834 C 0.05463 0.45191 0.56081 0.0
C835 C 0.04733 0.55549 0.49619 0.0
H836 H 0.89505 0.51049 0.43927 0.0
H837 H 0.89878 0.45373 0.47461 0.0
H838 H 0.97667 0.38633 0.55816 0.0
H839 H 0.03117 0.39283 0.58462 0.0
H840 H 0.10676 0.48611 0.57055 0.0
H841 H 0.10287 0.543 0.53556 0.0
H842 H 0.02613 0.60949 0.44954 0.0
H843 H 0.97165 0.60296 0.42301 0.0
H844 H 0.97993 0.57559 0.60238 0.0
H845 H 0.92981 0.49344 0.62272 0.0
H846 H 0.07375 0.50259 0.38744 0.0
H847 H 0.01999 0.42279 0.4037 0.0
H848 H 0.04793 0.01338 0.15188 0.0
H849 H 0.94879 0.00263 0.35447 0.0
H850 H 0.9536 0.98858 0.16341 0.0
H851 H 0.04844 0.00156 0.34596 0.0
H852 H 0.94914 0.00167 0.28524 0.0
H853 H 0.04777 0.01336 0.22124 0.0
C854 C 0.02708 0.00787 0.16874 0.0
C855 C 1.00075 0.00092 0.15055 0.0
C856 C 0.97103 0.00163 0.29833 0.0
C857 C 1.0002 0.0015 0.23209 0.0
C858 C 0.97088 0.00206 0.33833 0.0
C859 C 0.99865 0.00194 0.35734 0.0
C860 C 0.99915 0.00164 0.27577 0.0
C861 C 0.02626 0.0018 0.33351 0.0
C862 C 0.027 0.00795 0.20878 0.0
C863 C 0.97452 0.9944 0.17515 0.0
N864 N 0.02576 0.00179 0.2947 0.0
N865 N 0.9749 0.995 0.21388 0.0
H866 H 0.27909 0.6389 0.42359 0.0
H867 H 0.33027 0.70046 0.61167 0.0
H868 H 0.32913 0.72067 0.42502 0.0
H869 H 0.24076 0.66613 0.6039 0.0
H870 H 0.34365 0.69002 0.54581 0.0
H871 H 0.2786 0.63204 0.49267 0.0
C872 C 0.29028 0.65524 0.43806 0.0
C873 C 0.3034 0.68099 0.41799 0.0
C874 C 0.32141 0.68408 0.55893 0.0
C875 C 0.30409 0.67214 0.49688 0.0
C876 C 0.31383 0.68987 0.59638 0.0
C877 C 0.28431 0.68433 0.61285 0.0
C878 C 0.29948 0.67224 0.5382 0.0
C879 C 0.26365 0.67092 0.59188 0.0
C880 C 0.2902 0.65102 0.47747 0.0
C881 C 0.31873 0.70041 0.43866 0.0
N882 N 0.27154 0.6655 0.5554 0.0
N883 N 0.3184 0.69572 0.47694 0.0
H884 H 0.53407 0.93639 0.84466 0.0
H885 H 0.5829 0.03117 0.65837 0.0
H886 H 0.60074 0.00485 0.84445 0.0
H887 H 0.55794 0.93701 0.65997 0.0
H888 H 0.59209 0.02172 0.72597 0.0
H889 H 0.54503 0.93467 0.7773 0.0
C890 C 0.5516 0.95057 0.83089 0.0
C891 C 0.56609 0.9712 0.85068 0.0
C892 C 0.58535 0.00292 0.71128 0.0
C893 C 0.57781 0.97007 0.77258 0.0
C894 C 0.57998 0.00834 0.67284 0.0
C895 C 0.56937 0.98492 0.6538 0.0
C896 C 0.57932 0.97414 0.73081 0.0
C897 C 0.56613 0.95568 0.67364 0.0
C898 C 0.55769 0.94967 0.79212 0.0
C899 C 0.58813 0.98934 0.83043 0.0
N900 N 0.57045 0.9513 0.7113 0.0
N901 N 0.5928 0.98887 0.79234 0.0
H902 H 0.23818 0.21772 0.93435 0.0
H903 H 0.29066 0.3152 0.09495 0.0
H904 H 0.2674 0.31063 0.91123 0.0
H905 H 0.24726 0.22933 0.1182 0.0
H906 H 0.28405 0.31351 0.02712 0.0
H907 H 0.24255 0.22116 1.00166 0.0
C908 C 0.24519 0.23901 0.94341 0.0
C909 C 0.25233 0.26397 0.91697 0.0
C910 C 0.27586 0.2951 0.04705 0.0
C911 C 0.25803 0.26779 0.99421 0.0
C912 C 0.27962 0.29612 0.08558 0.0
C913 C 0.26927 0.27248 0.11174 0.0
C914 C 0.26192 0.27009 0.03486 0.0
C915 C 0.25545 0.24797 0.09861 0.0
C916 C 0.2479 0.24086 0.9819 0.0
C917 C 0.26202 0.29066 0.93049 0.0
N918 N 0.25219 0.24737 0.06103 0.0
N919 N 0.26466 0.29184 0.96816 0.0
H920 H 0.95575 0.9998 0.6601 0.0
H921 H 0.05269 0.01368 0.84532 0.0
H922 H 0.05533 0.99945 0.65446 0.0
H923 H 0.95844 0.98866 0.85397 0.0
H924 H 0.0533 0.01269 0.77607 0.0
H925 H 0.95534 0.99979 0.72948 0.0
C926 C 0.97765 0.99972 0.67317 0.0
C927 C 0.00562 0.99967 0.65016 0.0
C928 C 0.03239 0.0074 0.79294 0.0
C929 C 0.00525 0.00025 0.73169 0.0
C930 C 0.03203 0.00785 0.83295 0.0
C931 C 0.00551 0.00111 0.85676 0.0
C932 C 0.00583 0.00063 0.77522 0.0
C933 C 0.97952 0.99426 0.83768 0.0
C934 C 0.97736 0.99978 0.71323 0.0
C935 C 0.03299 0.99985 0.67002 0.0
N936 N 0.98032 0.99436 0.79877 0.0
N937 N 0.03207 0.0003 0.70887 0.0
H938 H 0.75896 0.34049 0.40276 0.0
H939 H 0.67027 0.27773 0.58214 0.0
H940 H 0.67064 0.30358 0.39544 0.0
H941 H 0.71781 0.36101 0.58415 0.0
H942 H 0.66876 0.28774 0.51407 0.0
H943 H 0.74466 0.34957 0.46887 0.0
C944 C 0.73629 0.335 0.41493 0.0
C945 C 0.71596 0.32116 0.39397 0.0
C946 C 0.67898 0.30414 0.52956 0.0
C947 C 0.69986 0.3307 0.46923 0.0
C948 C 0.67974 0.29858 0.56872 0.0
C949 C 0.69479 0.31817 0.58943 0.0
C950 C 0.69409 0.32892 0.51067 0.0
C951 C 0.70703 0.34448 0.56955 0.0
C952 C 0.7281 0.34026 0.45246 0.0
C953 C 0.68687 0.31437 0.4108 0.0
N954 N 0.70714 0.34865 0.53117 0.0
N955 N 0.67994 0.31852 0.44781 0.0
H956 H 0.42007 0.97064 0.17044 0.0
H957 H 0.43085 0.06457 0.34724 0.0
H958 H 0.42917 0.06944 0.16234 0.0
H959 H 0.4204 0.96618 0.35391 0.0
H960 H 0.41743 0.06939 0.28116 0.0
H961 H 0.40706 0.97132 0.23782 0.0
C962 C 0.4186 0.99268 0.18256 0.0
C963 C 0.42642 0.01993 0.16069 0.0
C964 C 0.41745 0.04684 0.29726 0.0
C965 C 0.4124 0.02064 0.23839 0.0
C966 C 0.42493 0.04412 0.33509 0.0
C967 C 0.4274 0.0148 0.35578 0.0
C968 C 0.41264 0.02002 0.28008 0.0
C969 C 0.41955 0.98908 0.3386 0.0
C970 C 0.41138 0.993 0.22125 0.0
C971 C 0.42427 0.04769 0.17829 0.0
N972 N 0.41304 0.9922 0.30156 0.0
N973 N 0.41804 0.04723 0.21625 0.0
H974 H 0.73771 0.68407 0.09996 0.0
H975 H 0.75749 0.7694 0.89073 0.0
H976 H 0.76096 0.77902 0.07579 0.0
H977 H 0.71541 0.68289 0.91518 0.0
H978 H 0.7638 0.77096 0.95837 0.0
H979 H 0.73386 0.68089 0.03221 0.0
C980 C 0.74195 0.70427 0.0805 0.0
C981 C 0.74966 0.73188 0.09374 0.0
C982 C 0.75324 0.75156 0.94905 0.0
C983 C 0.74569 0.7282 0.0161 0.0
C984 C 0.74971 0.7507 0.91055 0.0
C985 C 0.7361 0.72592 0.89775 0.0
C986 C 0.74305 0.72743 0.9749 0.0
C987 C 0.72627 0.7022 0.92421 0.0
C988 C 0.73988 0.70237 0.0418 0.0
C989 C 0.75544 0.75709 0.06701 0.0
N990 N 0.72996 0.7035 0.96167 0.0
N991 N 0.75331 0.75464 0.02955 0.0
H992 H 0.45395 0.44271 0.64895 0.0
H993 H 0.46786 0.55051 0.81583 0.0
H994 H 0.48516 0.53481 0.63113 0.0
H995 H 0.46421 0.45092 0.83444 0.0
H996 H 0.46522 0.5473 0.74801 0.0
H997 H 0.44859 0.4475 0.71738 0.0
C998 C 0.45957 0.46391 0.65964 0.0
C999 C 0.47043 0.48823 0.63492 0.0
C1000 C 0.46481 0.5262 0.76702 0.0
C1001 C 0.46398 0.49415 0.71232 0.0
C1002 C 0.46645 0.52797 0.80573 0.0
C1003 C 0.46658 0.5009 0.83094 0.0
C1004 C 0.4631 0.49719 0.75338 0.0
C1005 C 0.46391 0.47245 0.8162 0.0
C1006 C 0.4565 0.46669 0.69847 0.0
C1007 C 0.47696 0.51551 0.64963 0.0
N1008 N 0.46244 0.47132 0.77837 0.0
N1009 N 0.47373 0.51773 0.68747 0.0
H1010 H 0.75365 0.15456 0.91036 0.0
H1011 H 0.82072 0.20803 0.0947 0.0
H1012 H 0.80483 0.2355 0.91188 0.0
H1013 H 0.73513 0.16408 0.09693 0.0
H1014 H 0.82881 0.20171 0.02702 0.0
H1015 H 0.75999 0.14306 0.97827 0.0
C1016 C 0.76645 0.16978 0.9246 0.0
C1017 C 0.77809 0.19652 0.90508 0.0
C1018 C 0.80868 0.19276 0.0426 0.0
C1019 C 0.78639 0.18257 0.98246 0.0
C1020 C 0.80417 0.19613 0.08117 0.0
C1021 C 0.77705 0.18684 0.10113 0.0
C1022 C 0.78606 0.17976 0.02412 0.0
C1023 C 0.75614 0.17185 0.08227 0.0
C1024 C 0.77028 0.16294 0.9633 0.0
C1025 C 0.7955 0.21455 0.92516 0.0
N1026 N 0.76089 0.16906 0.0446 0.0
N1027 N 0.79887 0.20738 0.96274 0.0
H1028 H 0.08919 0.51158 0.16069 0.0
H1029 H 0.01547 0.43311 0.34089 0.0
H1030 H 0.04646 0.42604 0.15727 0.0
H1031 H 0.10269 0.47332 0.34692 0.0
H1032 H 0.02717 0.42914 0.27401 0.0
H1033 H 0.09596 0.49833 0.22851 0.0
C1034 C 0.082 0.48966 0.17412 0.0
C1035 C 0.06714 0.4699 0.1537 0.0
C1036 C 0.044 0.43828 0.29019 0.0
C1037 C 0.07399 0.45508 0.23082 0.0
C1038 C 0.03746 0.44045 0.3287 0.0
C1039 C 0.0578 0.45415 0.35006 0.0
C1040 C 0.07058 0.45067 0.27247 0.0
C1041 C 0.08562 0.4637 0.33166 0.0
C1042 C 0.08592 0.48207 0.21265 0.0
C1043 C 0.05809 0.4418 0.17218 0.0
N1044 N 0.09082 0.46252 0.29372 0.0
N1045 N 0.06095 0.43555 0.21 0.0
H1046 H 0.7454 0.73807 0.64081 0.0
H1047 H 0.75839 0.824 0.43127 0.0
H1048 H 0.78643 0.82499 0.61433 0.0
H1049 H 0.73809 0.72817 0.45594 0.0
H1050 H 0.76388 0.82709 0.49868 0.0
H1051 H 0.73749 0.73631 0.57354 0.0
C1052 C 0.75264 0.75681 0.62064 0.0
C1053 C 0.76637 0.7818 0.63278 0.0
C1054 C 0.75816 0.80543 0.48928 0.0
C1055 C 0.75748 0.78008 0.55608 0.0
C1056 C 0.75513 0.80358 0.45076 0.0
C1057 C 0.74783 0.77574 0.43772 0.0
C1058 C 0.75369 0.77933 0.51507 0.0
C1059 C 0.74329 0.75027 0.46456 0.0
C1060 C 0.74816 0.75583 0.58235 0.0
C1061 C 0.77545 0.80554 0.60586 0.0
N1062 N 0.74632 0.75268 0.50188 0.0
N1063 N 0.77079 0.80415 0.56865 0.0
H1064 H 0.47716 0.47597 0.1902 0.0
H1065 H 0.57427 0.53179 0.35075 0.0
H1066 H 0.56803 0.50963 0.16789 0.0
H1067 H 0.48882 0.48787 0.37323 0.0
H1068 H 0.57287 0.52385 0.28347 0.0
H1069 H 0.48153 0.47961 0.25744 0.0
C1070 C 0.49824 0.48375 0.19946 0.0
C1071 C 0.52229 0.49247 0.17329 0.0
C1072 C 0.55452 0.51579 0.30312 0.0
C1073 C 0.52716 0.49732 0.25038 0.0
C1074 C 0.55538 0.5203 0.34132 0.0
C1075 C 0.53171 0.51029 0.36704 0.0
C1076 C 0.52965 0.50141 0.29084 0.0
C1077 C 0.50747 0.49581 0.35392 0.0
C1078 C 0.50061 0.48605 0.2379 0.0
C1079 C 0.54874 0.50305 0.18698 0.0
N1080 N 0.50701 0.49185 0.31664 0.0
N1081 N 0.55042 0.50529 0.22459 0.0
H1082 H 0.19544 0.76719 0.09552 0.0
H1083 H 0.26915 0.84178 0.90926 0.0
H1084 H 0.25012 0.84569 0.09646 0.0
H1085 H 0.18284 0.79901 0.91241 0.0
H1086 H 0.26106 0.84699 0.9772 0.0
H1087 H 0.1881 0.78125 0.02897 0.0
C1088 C 0.20537 0.78784 0.08222 0.0
C1089 C 0.22387 0.80496 0.10205 0.0
C1090 C 0.24347 0.83725 0.96283 0.0
C1091 C 0.21632 0.82048 0.02474 0.0
C1092 C 0.24811 0.83424 0.92415 0.0
C1093 C 0.22677 0.81967 0.90547 0.0
C1094 C 0.21773 0.82486 0.98294 0.0
C1095 C 0.19983 0.81038 0.92584 0.0
C1096 C 0.20124 0.79576 0.04389 0.0
C1097 C 0.23653 0.8311 0.08235 0.0
N1098 N 0.19641 0.81246 0.96373 0.0
N1099 N 0.23308 0.83767 0.0446 0.0
H1100 H 0.91019 0.49364 0.84866 0.0
H1101 H 0.98467 0.56739 0.6654 0.0
H1102 H 0.95379 0.5792 0.84753 0.0
H1103 H 0.89928 0.52348 0.66138 0.0
H1104 H 0.9722 0.57375 0.7316 0.0
H1105 H 0.90348 0.50466 0.78058 0.0
C1106 C 0.91756 0.51514 0.83417 0.0
C1107 C 0.93274 0.53547 0.8534 0.0
C1108 C 0.9559 0.56327 0.716 0.0
C1109 C 0.92594 0.54777 0.77594 0.0
C1110 C 0.96289 0.55971 0.67788 0.0
C1111 C 0.94332 0.54432 0.65735 0.0
C1112 C 0.92963 0.55062 0.73425 0.0
C1113 C 0.91576 0.53444 0.67608 0.0
C1114 C 0.91369 0.52146 0.79547 0.0
C1115 C 0.94195 0.563 0.83358 0.0
N1116 N 0.91011 0.53706 0.71371 0.0
N1117 N 0.93911 0.568 0.79564 0.0
H1118 H 0.19035 0.19899 0.39413 0.0
H1119 H 0.30123 0.22147 0.55915 0.0
H1120 H 0.28202 0.23044 0.37375 0.0
H1121 H 0.20283 0.21212 0.57823 0.0
H1122 H 0.29641 0.21833 0.49169 0.0
H1123 H 0.1963 0.19704 0.46257 0.0
C1124 C 0.21168 0.20547 0.40427 0.0
C1125 C 0.23558 0.2153 0.37872 0.0
C1126 C 0.2759 0.21685 0.5107 0.0
C1127 C 0.24281 0.21275 0.45631 0.0
C1128 C 0.2786 0.21878 0.54922 0.0
C1129 C 0.25236 0.21726 0.57451 0.0
C1130 C 0.2468 0.21321 0.49727 0.0
C1131 C 0.22378 0.21306 0.55997 0.0
C1132 C 0.21512 0.20433 0.44314 0.0
C1133 C 0.26305 0.22295 0.39284 0.0
N1134 N 0.22175 0.21128 0.52232 0.0
N1135 N 0.26591 0.2216 0.43076 0.0
H1136 H 0.04133 0.12605 0.06216 0.0
H1137 H 0.20826 0.17498 0.10274 0.0
H1138 H 0.12541 0.0978 0.99776 0.0
H1139 H 0.12476 0.19327 0.17301 0.0
H1140 H 0.17753 0.15306 0.05831 0.0
H1141 H 0.07055 0.15867 0.09574 0.0
C1142 C 0.06583 0.12723 0.05439 0.0
C1143 C 0.08098 0.10891 0.02723 0.0
C1144 C 0.16594 0.16204 0.08335 0.0
C1145 C 0.11482 0.14561 0.06661 0.0
C1146 C 0.18348 0.1743 0.10886 0.0
C1147 C 0.16907 0.1856 0.14185 0.0
C1148 C 0.1338 0.16111 0.09091 0.0
C1149 C 0.1368 0.18493 0.14788 0.0
C1150 C 0.0826 0.14563 0.07397 0.0
C1151 C 0.11291 0.11108 0.01897 0.0
N1152 N 0.12029 0.17269 0.12277 0.0
N1153 N 0.12888 0.12883 0.03892 0.0
H1154 H 0.12871 0.95369 0.40935 0.0
H1155 H 0.21602 0.78433 0.39238 0.0
H1156 H 0.11867 0.87645 0.49437 0.0
H1157 H 0.21007 0.85635 0.29994 0.0
H1158 H 0.18735 0.82017 0.43416 0.0
H1159 H 0.16615 0.92093 0.37338 0.0
C1160 C 0.13482 0.93 0.42084 0.0
C1161 C 0.12041 0.91775 0.45487 0.0
C1162 C 0.19254 0.82824 0.40483 0.0
C1163 C 0.1629 0.87994 0.41342 0.0
C1164 C 0.20888 0.80787 0.38114 0.0
C1165 C 0.2152 0.81761 0.34292 0.0
C1166 C 0.18261 0.85853 0.39007 0.0
C1167 C 0.20558 0.84817 0.32938 0.0
C1168 C 0.15599 0.91122 0.40008 0.0
C1169 C 0.12891 0.88672 0.46803 0.0
N1170 N 0.18964 0.86757 0.35293 0.0
N1171 N 0.14947 0.86882 0.44717 0.0
H1172 H 0.34107 0.84646 0.73392 0.0
H1173 H 0.41037 0.91334 0.52813 0.0
H1174 H 0.31508 0.81647 0.62962 0.0
H1175 H 0.43793 0.94172 0.63256 0.0
H1176 H 0.37516 0.87838 0.5644 0.0
H1177 H 0.37599 0.88168 0.69761 0.0
C1178 C 0.34272 0.84726 0.70334 0.0
C1179 C 0.32503 0.82828 0.68495 0.0
C1180 C 0.38884 0.89222 0.57951 0.0
C1181 C 0.36522 0.869 0.64269 0.0
C1182 C 0.40902 0.91222 0.55873 0.0
C1183 C 0.42728 0.93062 0.57718 0.0
C1184 C 0.3866 0.89037 0.61938 0.0
C1185 C 0.42433 0.92812 0.61701 0.0
C1186 C 0.36269 0.86746 0.68253 0.0
C1187 C 0.32815 0.8306 0.64512 0.0
N1188 N 0.40455 0.90853 0.63661 0.0
N1189 N 0.34771 0.85041 0.62549 0.0
H1190 H 0.30369 0.17777 0.85615 0.0
H1191 H 0.44622 0.04606 0.87378 0.0
H1192 H 0.3524 0.13873 0.76019 0.0
H1193 H 0.39838 0.08634 0.96943 0.0
H1194 H 0.41131 0.07879 0.83161 0.0
H1195 H 0.33727 0.14349 0.89837 0.0
C1196 C 0.32154 0.16185 0.84415 0.0
C1197 C 0.32564 0.16097 0.80492 0.0
C1198 C 0.40835 0.08048 0.8618 0.0
C1199 C 0.36398 0.12181 0.8526 0.0
C1200 C 0.4282 0.06181 0.88573 0.0
C1201 C 0.42493 0.0637 0.92485 0.0
C1202 C 0.38513 0.10116 0.87723 0.0
C1203 C 0.40145 0.08438 0.9393 0.0
C1204 C 0.34067 0.14235 0.8681 0.0
C1205 C 0.34884 0.14004 0.79041 0.0
N1206 N 0.38242 0.10237 0.91547 0.0
N1207 N 0.36724 0.12128 0.81428 0.0
H1208 H 0.96352 0.87433 0.94728 0.0
H1209 H 0.79583 0.82622 0.90877 0.0
H1210 H 0.87993 0.90401 0.01169 0.0
H1211 H 0.87938 0.80486 0.83983 0.0
H1212 H 0.82685 0.84873 0.95245 0.0
H1213 H 0.93389 0.84123 0.91499 0.0
C1214 C 0.93905 0.87339 0.95533 0.0
C1215 C 0.92416 0.89225 0.98209 0.0
C1216 C 0.83838 0.83892 0.92789 0.0
C1217 C 0.88982 0.85498 0.94413 0.0
C1218 C 0.82069 0.82633 0.90281 0.0
C1219 C 0.83504 0.81399 0.87041 0.0
C1220 C 0.8706 0.83916 0.92045 0.0
C1221 C 0.86737 0.81399 0.86453 0.0
C1222 C 0.92204 0.85469 0.93648 0.0
C1223 C 0.89224 0.89033 0.99073 0.0
N1224 N 0.88402 0.82657 0.88918 0.0
N1225 N 0.87602 0.8723 0.97146 0.0
H1226 H 0.79371 0.14381 0.71002 0.0
H1227 H 0.88591 0.12441 0.51109 0.0
H1228 H 0.7878 0.21396 0.61554 0.0
H1229 H 0.87776 0.04919 0.59923 0.0
H1230 H 0.84855 0.1571 0.54763 0.0
H1231 H 0.82319 0.10809 0.66896 0.0
C1232 C 0.79844 0.15145 0.68045 0.0
C1233 C 0.7885 0.18164 0.66592 0.0
C1234 C 0.85465 0.13332 0.55875 0.0
C1235 C 0.82238 0.14139 0.61895 0.0
C1236 C 0.87603 0.1147 0.53795 0.0
C1237 C 0.88505 0.08407 0.5522 0.0
C1238 C 0.8425 0.12136 0.59426 0.0
C1239 C 0.87128 0.07257 0.58699 0.0
C1240 C 0.81522 0.13118 0.65703 0.0
C1241 C 0.79523 0.19075 0.62758 0.0
N1242 N 0.85097 0.09131 0.607 0.0
N1243 N 0.812 0.17077 0.60542 0.0
H1244 H 0.68744 0.19095 0.37672 0.0
H1245 H 0.56417 0.06198 0.3728 0.0
H1246 H 0.66119 0.15849 0.27395 0.0
H1247 H 0.59194 0.09292 0.47571 0.0
H1248 H 0.59923 0.09695 0.33628 0.0
H1249 H 0.65283 0.15554 0.41329 0.0
C1250 C 0.67441 0.17633 0.36182 0.0
C1251 C 0.67732 0.17788 0.32207 0.0
C1252 C 0.59775 0.09617 0.36684 0.0
C1253 C 0.63719 0.13694 0.36403 0.0
C1254 C 0.57769 0.07611 0.38775 0.0
C1255 C 0.57497 0.07437 0.42752 0.0
C1256 C 0.61547 0.11496 0.3856 0.0
C1257 C 0.59313 0.09345 0.44518 0.0
C1258 C 0.65455 0.15608 0.38275 0.0
C1259 C 0.65968 0.15829 0.30446 0.0
N1260 N 0.61242 0.11281 0.42426 0.0
N1261 N 0.64051 0.13882 0.32539 0.0
H1262 H 0.68871 0.81212 0.15794 0.0
H1263 H 0.56004 0.95759 0.14095 0.0
H1264 H 0.6574 0.86544 0.25101 0.0
H1265 H 0.59324 0.90519 0.04768 0.0
H1266 H 0.59608 0.92482 0.18172 0.0
H1267 H 0.65444 0.84655 0.11673 0.0
C1268 C 0.67459 0.83127 0.16948 0.0
C1269 C 0.67565 0.83623 0.20758 0.0
C1270 C 0.59556 0.92047 0.15234 0.0
C1271 C 0.63645 0.87552 0.16113 0.0
C1272 C 0.57506 0.93915 0.1292 0.0
C1273 C 0.57383 0.93383 0.09119 0.0
C1274 C 0.61487 0.89633 0.13723 0.0
C1275 C 0.5936 0.9098 0.07699 0.0
C1276 C 0.65506 0.85087 0.14611 0.0
C1277 C 0.65705 0.86111 0.22161 0.0
N1278 N 0.61328 0.89186 0.10005 0.0
N1279 N 0.63811 0.87986 0.19836 0.0
H1280 H 0.62208 0.58707 0.53745 0.0
H1281 H 0.6229 0.69894 0.70244 0.0
H1282 H 0.54081 0.61341 0.60775 0.0
H1283 H 0.70338 0.67442 0.62988 0.0
H1284 H 0.59143 0.67093 0.66505 0.0
H1285 H 0.65148 0.62171 0.5684 0.0
C1286 C 0.61045 0.6002 0.55941 0.0
C1287 C 0.57907 0.59724 0.5703 0.0
C1288 C 0.61594 0.67182 0.65718 0.0
C1289 C 0.61244 0.63698 0.60568 0.0
C1290 C 0.63386 0.68792 0.67839 0.0
C1291 C 0.66582 0.68869 0.66943 0.0
C1292 C 0.63012 0.65638 0.62686 0.0
C1293 C 0.67892 0.67383 0.63819 0.0
C1294 C 0.62717 0.62008 0.57692 0.0
C1295 C 0.56494 0.61517 0.59838 0.0
N1296 N 0.66104 0.65812 0.61815 0.0
N1297 N 0.58181 0.63414 0.61533 0.0
H1298 H 0.60109 0.40052 0.99367 0.0
H1299 H 0.66575 0.37068 0.7827 0.0
H1300 H 0.56977 0.45598 0.89391 0.0
H1301 H 0.68856 0.30854 0.88094 0.0
H1302 H 0.63486 0.40562 0.82369 0.0
H1303 H 0.6376 0.36954 0.95362 0.0
C1304 C 0.60209 0.4061 0.96327 0.0
C1305 C 0.58241 0.4304 0.94677 0.0
C1306 C 0.64679 0.38449 0.83638 0.0
C1307 C 0.62391 0.39555 0.90096 0.0
C1308 C 0.66444 0.36473 0.81304 0.0
C1309 C 0.67952 0.33701 0.82878 0.0
C1310 C 0.64428 0.37628 0.87565 0.0
C1311 C 0.67718 0.3299 0.86805 0.0
C1312 C 0.62283 0.38853 0.94045 0.0
C1313 C 0.58457 0.43718 0.90744 0.0
N1314 N 0.65974 0.34939 0.89022 0.0
N1315 N 0.60488 0.41975 0.88579 0.0
H1316 H 0.81058 0.31652 0.12166 0.0
H1317 H 0.93621 0.44235 0.13021 0.0
H1318 H 0.83435 0.34902 0.22554 0.0
H1319 H 0.90515 0.4172 0.02586 0.0
H1320 H 0.90024 0.40766 0.16551 0.0
H1321 H 0.8457 0.35206 0.08628 0.0
C1322 C 0.82313 0.3312 0.13706 0.0
C1323 C 0.81936 0.32963 0.17678 0.0
C1324 C 0.9012 0.40966 0.1349 0.0
C1325 C 0.8602 0.3706 0.1362 0.0
C1326 C 0.92178 0.42956 0.11468 0.0
C1327 C 0.92388 0.43283 0.07486 0.0
C1328 C 0.88239 0.39249 0.11538 0.0
C1329 C 0.90453 0.41543 0.05646 0.0
C1330 C 0.84329 0.35152 0.11681 0.0
C1331 C 0.8365 0.34925 0.19504 0.0
N1332 N 0.88482 0.39612 0.0767 0.0
N1333 N 0.85607 0.36869 0.17477 0.0
H1334 H 0.93194 0.53979 0.3757 0.0
H1335 H 0.81659 0.6957 0.36862 0.0
H1336 H 0.91157 0.59468 0.47002 0.0
H1337 H 0.83166 0.63792 0.27645 0.0
H1338 H 0.85134 0.65881 0.40633 0.0
H1339 H 0.89511 0.57505 0.33874 0.0
C1340 C 0.91947 0.55924 0.38855 0.0
C1341 C 0.92452 0.56452 0.42574 0.0
C1342 C 0.84704 0.65406 0.37792 0.0
C1343 C 0.88279 0.60494 0.38395 0.0
C1344 C 0.82728 0.67509 0.35653 0.0
C1345 C 0.82145 0.66954 0.3197 0.0
C1346 C 0.86113 0.62741 0.36219 0.0
C1347 C 0.83571 0.64274 0.30491 0.0
C1348 C 0.89855 0.57934 0.36756 0.0
C1349 C 0.90812 0.58998 0.44134 0.0
N1350 N 0.85499 0.62261 0.32621 0.0
N1351 N 0.88802 0.60934 0.42033 0.0
H1352 H 0.33751 0.35995 0.28523 0.0
H1353 H 0.44116 0.36863 0.46086 0.0
H1354 H 0.3585 0.28169 0.36701 0.0
H1355 H 0.4244 0.44391 0.37371 0.0
H1356 H 0.41326 0.33533 0.4257 0.0
H1357 H 0.37126 0.39026 0.31626 0.0
C1358 C 0.34928 0.34919 0.30978 0.0
C1359 C 0.34505 0.31843 0.32385 0.0
C1360 C 0.41582 0.3591 0.41423 0.0
C1361 C 0.38379 0.35287 0.35948 0.0
C1362 C 0.43182 0.37805 0.43419 0.0
C1363 C 0.43476 0.40914 0.42035 0.0
C1364 C 0.40273 0.3714 0.38025 0.0
C1365 C 0.42208 0.42026 0.3858 0.0
C1366 C 0.36866 0.36642 0.32739 0.0
C1367 C 0.36126 0.30535 0.35528 0.0
N1368 N 0.4065 0.40144 0.36704 0.0
N1369 N 0.37978 0.32275 0.37228 0.0
H1370 H 0.4325 0.5423 0.11165 0.0
H1371 H 0.29692 0.68007 0.12854 0.0
H1372 H 0.38656 0.58973 0.01585 0.0
H1373 H 0.34687 0.63612 0.22307 0.0
H1374 H 0.32643 0.64435 0.08731 0.0
H1375 H 0.39848 0.57368 0.15373 0.0
C1376 C 0.41506 0.55934 0.09968 0.0
C1377 C 0.41222 0.56382 0.06053 0.0
C1378 C 0.33082 0.64232 0.11711 0.0
C1379 C 0.37337 0.59967 0.10801 0.0
C1380 C 0.31393 0.66257 0.14051 0.0
C1381 C 0.31966 0.66074 0.17895 0.0
C1382 C 0.35357 0.62022 0.13241 0.0
C1383 C 0.34193 0.638 0.19345 0.0
C1384 C 0.3957 0.57722 0.12355 0.0
C1385 C 0.38937 0.58593 0.04602 0.0
N1386 N 0.35821 0.61866 0.17011 0.0
N1387 N 0.37084 0.60319 0.06979 0.0
H1388 H 0.16714 0.65849 0.77924 0.0
H1389 H 0.0962 0.58891 0.98288 0.0
H1390 H 0.19006 0.68901 0.88461 0.0
H1391 H 0.06563 0.56615 0.87714 0.0
H1392 H 0.13206 0.62382 0.94782 0.0
H1393 H 0.1317 0.62315 0.81433 0.0
C1394 C 0.16475 0.65775 0.8098 0.0
C1395 C 0.18173 0.67693 0.82884 0.0
C1396 C 0.11758 0.61122 0.93216 0.0
C1397 C 0.14097 0.63601 0.86971 0.0
C1398 C 0.09702 0.59124 0.95225 0.0
C1399 C 0.07766 0.57447 0.93309 0.0
C1400 C 0.11921 0.6146 0.89227 0.0
C1401 C 0.08005 0.57845 0.89324 0.0
C1402 C 0.14445 0.6375 0.82991 0.0
C1403 C 0.17762 0.67469 0.86861 0.0
N1404 N 0.10029 0.59792 0.87432 0.0
N1405 N 0.15784 0.65475 0.88756 0.0
H1406 H 0.06935 0.45609 0.63343 0.0
H1407 H 0.18534 0.30061 0.64141 0.0
H1408 H 0.09156 0.40196 0.53874 0.0
H1409 H 0.16833 0.35761 0.73416 0.0
H1410 H 0.15105 0.33763 0.60323 0.0
H1411 H 0.10577 0.42075 0.67091 0.0
C1412 C 0.08216 0.43681 0.62061 0.0
C1413 C 0.07773 0.43175 0.58316 0.0
C1414 C 0.15482 0.34217 0.63188 0.0
C1415 C 0.11897 0.39121 0.62554 0.0
C1416 C 0.17431 0.32107 0.65354 0.0
C1417 C 0.17947 0.32636 0.69067 0.0
C1418 C 0.14033 0.36865 0.64763 0.0
C1419 C 0.16479 0.35298 0.70549 0.0
C1420 C 0.10282 0.41664 0.64189 0.0
C1421 C 0.09453 0.40648 0.56761 0.0
N1422 N 0.14579 0.37319 0.68391 0.0
N1423 N 0.11437 0.38706 0.58891 0.0
loop_
_geom_bond_atom_site_label_1
_geom_bond_atom_site_label_2
_geom_bond_distance
_geom_bond_site_symmetry_2
_ccdc_geom_bond_type
C0 C1 1.443 . S
C0 N4 1.376 . S
C0 C38 1.389 1_545 S
C1 C0 1.443 . S
C1 C2 1.340 . S
C1 H41 0.951 . S
C2 C1 1.340 . S
C2 C3 1.439 . S
C2 H42 0.950 . S
C3 C2 1.439 . S
C3 N4 1.374 . S
C3 C37 1.395 1_554 S
N4 C0 1.376 . S
N4 C3 1.374 . S
N4 Co5 2.008 1_655 S
Co5 N4 2.008 1_455 S
Co5 N6 1.995 1_454 S
Co5 N11 2.008 1_544 S
Co5 N16 1.995 1_545 S
Co5 N21 2.282 1_444 S
Co5 N27 2.282 . S
N6 Co5 1.995 1_656 S
N6 C7 1.376 . S
N6 C10 1.383 . S
C7 N6 1.376 . S
C7 C8 1.446 . S
C7 C37 1.391 . S
C8 C7 1.446 . S
C8 C9 1.339 . S
C8 H43 0.949 . S
C9 C8 1.339 . S
C9 C10 1.439 . S
C9 H44 0.950 . S
C10 N6 1.383 . S
C10 C9 1.439 . S
C10 C39 1.392 1_655 S
N11 Co5 2.008 1_566 S
N11 C12 1.376 . S
N11 C15 1.374 . S
C12 N11 1.376 . S
C12 C13 1.443 . S
C12 C39 1.389 1_565 S
C13 C12 1.443 . S
C13 C14 1.340 . S
C13 H45 0.951 . S
C14 C13 1.340 . S
C14 C15 1.439 . S
C14 H46 0.950 . S
C15 N11 1.374 . S
C15 C14 1.439 . S
C15 C40 1.395 1_556 S
N16 Co5 1.995 1_565 S
N16 C17 1.376 . S
N16 C20 1.383 . S
C17 N16 1.376 . S
C17 C18 1.446 . S
C17 C40 1.391 . S
C18 C17 1.446 . S
C18 C19 1.339 . S
C18 H47 0.949 . S
C19 C18 1.339 . S
C19 C20 1.439 . S
C19 H48 0.950 . S
C20 N16 1.383 . S
C20 C19 1.439 . S
C20 C38 1.392 1_455 S
N21 Co5 2.282 1_666 S
N21 C24 1.332 . S
N21 C26 1.332 . S
C22 C23 1.386 . S
C22 C25 1.388 . S
C23 C22 1.386 . S
C23 C24 1.382 . S
C23 H49 0.950 . S
C24 N21 1.332 . S
C24 C23 1.382 . S
C24 H35 0.952 . S
C25 C22 1.388 . S
C25 C26 1.382 . S
C25 H50 0.950 . S
C26 N21 1.332 . S
C26 C25 1.382 . S
C26 H36 0.913 1_565 S
N27 Co5 2.282 . S
N27 C31 1.332 . S
N27 C32 1.332 . S
C28 C29 1.388 . S
C28 C32 1.382 . S
C28 H51 0.950 . S
C29 C28 1.388 . S
C29 C30 1.386 . S
C30 C29 1.386 . S
C30 C31 1.382 . S
C30 H52 0.950 . S
C31 N27 1.332 . S
C31 C30 1.382 . S
C31 H33 0.952 . S
C32 N27 1.332 . S
C32 C28 1.382 . S
C32 H34 0.921 1_545 S
H33 C31 0.952 . S
H34 C32 0.921 1_565 S
H35 C24 0.952 . S
H36 C26 0.913 1_545 S
C37 C3 1.395 1_556 S
C37 C7 1.391 . S
C38 C0 1.389 1_565 S
C38 C20 1.392 1_655 S
C39 C10 1.392 1_455 S
C39 C12 1.389 1_545 S
C40 C15 1.395 1_554 S
C40 C17 1.391 . S
H41 C1 0.951 . S
H42 C2 0.950 . S
H43 C8 0.949 . S
H44 C9 0.950 . S
H45 C13 0.951 . S
H46 C14 0.950 . S
H47 C18 0.949 . S
H48 C19 0.950 . S
H49 C23 0.950 . S
H50 C25 0.950 . S
H51 C28 0.950 . S
H52 C30 0.950 . S
C53 C54 1.443 . S
C53 N57 1.376 . S
C53 C91 1.389 . S
C54 C53 1.443 . S
C54 C55 1.340 . S
C54 H94 0.951 . S
C55 C54 1.340 . S
C55 C56 1.439 . S
C55 H95 0.950 . S
C56 C55 1.439 . S
C56 N57 1.374 . S
C56 C90 1.395 . S
N57 C53 1.376 . S
N57 C56 1.374 . S
N57 Co58 2.008 . S
Co58 N57 2.008 . S
Co58 N59 1.995 . S
Co58 N64 2.008 . S
Co58 N69 1.995 . S
Co58 N74 2.282 . S
Co58 N80 2.282 . S
N59 Co58 1.995 . S
N59 C60 1.376 . S
N59 C63 1.383 . S
C60 N59 1.376 . S
C60 C61 1.446 . S
C60 C90 1.391 . S
C61 C60 1.446 . S
C61 C62 1.339 . S
C61 H96 0.949 . S
C62 C61 1.339 . S
C62 C63 1.439 . S
C62 H97 0.950 . S
C63 N59 1.383 . S
C63 C62 1.439 . S
C63 C92 1.392 . S
N64 Co58 2.008 . S
N64 C65 1.376 . S
N64 C68 1.374 . S
C65 N64 1.376 . S
C65 C66 1.443 . S
C65 C92 1.389 . S
C66 C65 1.443 . S
C66 C67 1.340 . S
C66 H98 0.951 . S
C67 C66 1.340 . S
C67 C68 1.439 . S
C67 H99 0.950 . S
C68 N64 1.374 . S
C68 C67 1.439 . S
C68 C93 1.395 . S
N69 Co58 1.995 . S
N69 C70 1.376 . S
N69 C73 1.383 . S
C70 N69 1.376 . S
C70 C71 1.446 . S
C70 C93 1.391 . S
C71 C70 1.446 . S
C71 C72 1.339 . S
C71 H100 0.949 . S
C72 C71 1.339 . S
C72 C73 1.439 . S
C72 H101 0.950 . S
C73 N69 1.383 . S
C73 C72 1.439 . S
C73 C91 1.392 . S
N74 Co58 2.282 . S
N74 C77 1.332 . S
N74 C79 1.332 . S
C75 C76 1.386 . S
C75 C78 1.388 . S
C76 C75 1.386 . S
C76 C77 1.382 . S
C76 H102 0.950 . S
C77 N74 1.332 . S
C77 C76 1.382 . S
C77 H88 0.952 . S
C78 C75 1.388 . S
C78 C79 1.382 . S
C78 H103 0.950 . S
C79 N74 1.332 . S
C79 C78 1.382 . S
C79 H89 0.948 . S
N80 Co58 2.282 . S
N80 C84 1.332 . S
N80 C85 1.332 . S
C81 C82 1.388 . S
C81 C85 1.382 . S
C81 H104 0.950 . S
C82 C81 1.388 . S
C82 C83 1.386 . S
C83 C82 1.386 . S
C83 C84 1.382 . S
C83 H105 0.950 . S
C84 N80 1.332 . S
C84 C83 1.382 . S
C84 H86 0.952 . S
C85 N80 1.332 . S
C85 C81 1.382 . S
C85 H87 0.948 . S
H86 C84 0.952 . S
H87 C85 0.948 . S
H88 C77 0.952 . S
H89 C79 0.948 . S
C90 C56 1.395 . S
C90 C60 1.391 . S
C91 C53 1.389 . S
C91 C73 1.392 . S
C92 C63 1.392 . S
C92 C65 1.389 . S
C93 C68 1.395 . S
C93 C70 1.391 . S
H94 C54 0.951 . S
H95 C55 0.950 . S
H96 C61 0.949 . S
H97 C62 0.950 . S
H98 C66 0.951 . S
H99 C67 0.950 . S
H100 C71 0.949 . S
H101 C72 0.950 . S
H102 C76 0.950 . S
H103 C78 0.950 . S
H104 C81 0.950 . S
H105 C83 0.950 . S
C106 C107 1.443 . S
C106 N110 1.376 1_565 S
C106 C144 1.389 . S
C107 C106 1.443 . S
C107 C108 1.340 1_565 S
C107 H147 0.951 . S
C108 C107 1.340 1_545 S
C108 C109 1.439 . S
C108 H148 0.950 . S
C109 C108 1.439 . S
C109 N110 1.374 . S
C109 C143 1.395 . S
N110 C106 1.376 1_545 S
N110 C109 1.374 . S
N110 Co111 2.008 . S
Co111 N110 2.008 . S
Co111 N112 1.995 . S
Co111 N117 2.008 1_545 S
Co111 N122 1.995 1_545 S
Co111 N127 2.282 1_545 S
Co111 N133 2.282 . S
N112 Co111 1.995 . S
N112 C113 1.376 . S
N112 C116 1.383 . S
C113 N112 1.376 . S
C113 C114 1.446 . S
C113 C143 1.391 . S
C114 C113 1.446 . S
C114 C115 1.339 . S
C114 H149 0.949 . S
C115 C114 1.339 . S
C115 C116 1.439 . S
C115 H150 0.950 . S
C116 N112 1.383 . S
C116 C115 1.439 . S
C116 C145 1.392 . S
N117 Co111 2.008 1_565 S
N117 C118 1.376 1_565 S
N117 C121 1.374 . S
C118 N117 1.376 1_545 S
C118 C119 1.443 . S
C118 C145 1.389 . S
C119 C118 1.443 . S
C119 C120 1.340 1_545 S
C119 H151 0.951 . S
C120 C119 1.340 1_565 S
C120 C121 1.439 . S
C120 H152 0.950 . S
C121 N117 1.374 . S
C121 C120 1.439 . S
C121 C146 1.395 . S
N122 Co111 1.995 1_565 S
N122 C123 1.376 . S
N122 C126 1.383 . S
C123 N122 1.376 . S
C123 C124 1.446 . S
C123 C146 1.391 . S
C124 C123 1.446 . S
C124 C125 1.339 . S
C124 H153 0.949 . S
C125 C124 1.339 . S
C125 C126 1.439 . S
C125 H154 0.950 . S
C126 N122 1.383 . S
C126 C125 1.439 . S
C126 C144 1.392 . S
N127 Co111 2.282 1_565 S
N127 C130 1.332 . S
N127 C132 1.332 1_565 S
C128 C129 1.386 . S
C128 C131 1.388 1_565 S
C129 C128 1.386 . S
C129 C130 1.382 . S
C129 H155 0.950 . S
C130 N127 1.332 . S
C130 C129 1.382 . S
C130 H141 0.952 . S
C131 C128 1.388 1_545 S
C131 C132 1.382 . S
C131 H156 0.950 . S
C132 N127 1.332 1_545 S
C132 C131 1.382 . S
C132 H142 0.948 . S
N133 Co111 2.282 . S
N133 C137 1.332 . S
N133 C138 1.332 1_545 S
C134 C135 1.388 1_565 S
C134 C138 1.382 . S
C134 H157 0.950 . S
C135 C134 1.388 1_545 S
C135 C136 1.386 . S
C136 C135 1.386 . S
C136 C137 1.382 . S
C136 H158 0.950 . S
C137 N133 1.332 . S
C137 C136 1.382 . S
C137 H139 0.952 . S
C138 N133 1.332 1_565 S
C138 C134 1.382 . S
C138 H140 0.948 . S
H139 C137 0.952 . S
H140 C138 0.948 . S
H141 C130 0.952 . S
H142 C132 0.948 . S
C143 C109 1.395 . S
C143 C113 1.391 . S
C144 C106 1.389 . S
C144 C126 1.392 . S
C145 C116 1.392 . S
C145 C118 1.389 . S
C146 C121 1.395 . S
C146 C123 1.391 . S
H147 C107 0.951 . S
H148 C108 0.950 . S
H149 C114 0.949 . S
H150 C115 0.950 . S
H151 C119 0.951 . S
H152 C120 0.950 . S
H153 C124 0.949 . S
H154 C125 0.950 . S
H155 C129 0.950 . S
H156 C131 0.950 . S
H157 C134 0.950 . S
H158 C136 0.950 . S
C159 C160 1.443 . S
C159 N163 1.376 . S
C159 C197 1.389 . S
C160 C159 1.443 . S
C160 C161 1.340 . S
C160 H200 0.951 . S
C161 C160 1.340 . S
C161 C162 1.439 . S
C161 H201 0.950 . S
C162 C161 1.439 . S
C162 N163 1.374 . S
C162 C196 1.395 . S
N163 C159 1.376 . S
N163 C162 1.374 . S
N163 Co164 2.008 . S
Co164 N163 2.008 . S
Co164 N165 1.995 . S
Co164 N170 2.008 . S
Co164 N175 1.995 . S
Co164 N180 2.282 . S
Co164 N186 2.282 . S
N165 Co164 1.995 . S
N165 C166 1.376 . S
N165 C169 1.383 . S
C166 N165 1.376 . S
C166 C167 1.446 . S
C166 C196 1.391 . S
C167 C166 1.446 . S
C167 C168 1.339 . S
C167 H202 0.949 . S
C168 C167 1.339 . S
C168 C169 1.439 . S
C168 H203 0.950 . S
C169 N165 1.383 . S
C169 C168 1.439 . S
C169 C198 1.392 . S
N170 Co164 2.008 . S
N170 C171 1.376 . S
N170 C174 1.374 . S
C171 N170 1.376 . S
C171 C172 1.443 . S
C171 C198 1.389 . S
C172 C171 1.443 . S
C172 C173 1.340 . S
C172 H204 0.951 . S
C173 C172 1.340 . S
C173 C174 1.439 . S
C173 H205 0.950 . S
C174 N170 1.374 . S
C174 C173 1.439 . S
C174 C199 1.395 . S
N175 Co164 1.995 . S
N175 C176 1.376 . S
N175 C179 1.383 . S
C176 N175 1.376 . S
C176 C177 1.446 . S
C176 C199 1.391 . S
C177 C176 1.446 . S
C177 C178 1.339 . S
C177 H206 0.949 . S
C178 C177 1.339 . S
C178 C179 1.439 . S
C178 H207 0.950 . S
C179 N175 1.383 . S
C179 C178 1.439 . S
C179 C197 1.392 . S
N180 Co164 2.282 . S
N180 C183 1.332 . S
N180 C185 1.332 . S
C181 C182 1.386 . S
C181 C184 1.388 . S
C182 C181 1.386 . S
C182 C183 1.382 . S
C182 H208 0.950 . S
C183 N180 1.332 . S
C183 C182 1.382 . S
C183 H194 0.952 . S
C184 C181 1.388 . S
C184 C185 1.382 . S
C184 H209 0.950 . S
C185 N180 1.332 . S
C185 C184 1.382 . S
C185 H195 0.948 . S
N186 Co164 2.282 . S
N186 C190 1.332 . S
N186 C191 1.332 . S
C187 C188 1.388 . S
C187 C191 1.382 . S
C187 H210 0.950 . S
C188 C187 1.388 . S
C188 C189 1.386 . S
C189 C188 1.386 . S
C189 C190 1.382 . S
C189 H211 0.950 . S
C190 N186 1.332 . S
C190 C189 1.382 . S
C190 H192 0.952 . S
C191 N186 1.332 . S
C191 C187 1.382 . S
C191 H193 0.948 . S
H192 C190 0.952 . S
H193 C191 0.948 . S
H194 C183 0.952 . S
H195 C185 0.948 . S
C196 C162 1.395 . S
C196 C166 1.391 . S
C197 C159 1.389 . S
C197 C179 1.392 . S
C198 C169 1.392 . S
C198 C171 1.389 . S
C199 C174 1.395 . S
C199 C176 1.391 . S
H200 C160 0.951 . S
H201 C161 0.950 . S
H202 C167 0.949 . S
H203 C168 0.950 . S
H204 C172 0.951 . S
H205 C173 0.950 . S
H206 C177 0.949 . S
H207 C178 0.950 . S
H208 C182 0.950 . S
H209 C184 0.950 . S
H210 C187 0.950 . S
H211 C189 0.950 . S
C212 C213 1.443 . S
C212 N216 1.376 . S
C212 C250 1.389 1_655 S
C213 C212 1.443 . S
C213 C214 1.340 . S
C213 H253 0.951 . S
C214 C213 1.340 . S
C214 C215 1.439 . S
C214 H254 0.950 . S
C215 C214 1.439 . S
C215 N216 1.374 . S
C215 C249 1.395 . S
N216 C212 1.376 . S
N216 C215 1.374 . S
N216 Co217 2.008 1_665 S
Co217 N216 2.008 1_445 S
Co217 N218 1.995 1_445 S
Co217 N223 2.008 . S
Co217 N228 1.995 . S
Co217 N233 2.282 1_545 S
Co217 N239 2.282 1_455 S
N218 Co217 1.995 1_665 S
N218 C219 1.376 . S
N218 C222 1.383 . S
C219 N218 1.376 . S
C219 C220 1.446 . S
C219 C249 1.391 . S
C220 C219 1.446 . S
C220 C221 1.339 . S
C220 H255 0.949 . S
C221 C220 1.339 . S
C221 C222 1.439 . S
C221 H256 0.950 . S
C222 N218 1.383 . S
C222 C221 1.439 . S
C222 C251 1.392 1_565 S
N223 Co217 2.008 . S
N223 C224 1.376 . S
N223 C227 1.374 . S
C224 N223 1.376 . S
C224 C225 1.443 . S
C224 C251 1.389 1_455 S
C225 C224 1.443 . S
C225 C226 1.340 . S
C225 H257 0.951 . S
C226 C225 1.340 . S
C226 C227 1.439 . S
C226 H258 0.950 . S
C227 N223 1.374 . S
C227 C226 1.439 . S
C227 C252 1.395 . S
N228 Co217 1.995 . S
N228 C229 1.376 . S
N228 C232 1.383 . S
C229 N228 1.376 . S
C229 C230 1.446 . S
C229 C252 1.391 . S
C230 C229 1.446 . S
C230 C231 1.339 . S
C230 H259 0.949 . S
C231 C230 1.339 . S
C231 C232 1.439 . S
C231 H260 0.950 . S
C232 N228 1.383 . S
C232 C231 1.439 . S
C232 C250 1.392 1_545 S
N233 Co217 2.282 1_565 S
N233 C236 1.332 . S
N233 C238 1.332 . S
C234 C235 1.386 . S
C234 C237 1.388 . S
C235 C234 1.386 . S
C235 C236 1.382 . S
C235 H261 0.950 . S
C236 N233 1.332 . S
C236 C235 1.382 . S
C236 H247 0.952 . S
C237 C234 1.388 . S
C237 C238 1.382 . S
C237 H262 0.950 . S
C238 N233 1.332 . S
C238 C237 1.382 . S
C238 H248 0.948 . S
N239 Co217 2.282 1_655 S
N239 C243 1.332 . S
N239 C244 1.332 . S
C240 C241 1.388 . S
C240 C244 1.382 . S
C240 H263 0.950 . S
C241 C240 1.388 . S
C241 C242 1.386 . S
C242 C241 1.386 . S
C242 C243 1.382 . S
C242 H264 0.950 . S
C243 N239 1.332 . S
C243 C242 1.382 . S
C243 H245 0.952 . S
C244 N239 1.332 . S
C244 C240 1.382 . S
C244 H246 0.948 . S
H245 C243 0.952 . S
H246 C244 0.948 . S
H247 C236 0.952 . S
H248 C238 0.948 . S
C249 C215 1.395 . S
C249 C219 1.391 . S
C250 C212 1.389 1_455 S
C250 C232 1.392 1_565 S
C251 C222 1.392 1_545 S
C251 C224 1.389 1_655 S
C252 C227 1.395 . S
C252 C229 1.391 . S
H253 C213 0.951 . S
H254 C214 0.950 . S
H255 C220 0.949 . S
H256 C221 0.950 . S
H257 C225 0.951 . S
H258 C226 0.950 . S
H259 C230 0.949 . S
H260 C231 0.950 . S
H261 C235 0.950 . S
H262 C237 0.950 . S
H263 C240 0.950 . S
H264 C242 0.950 . S
C265 C266 1.443 . S
C265 N269 1.376 . S
C265 C303 1.389 . S
C266 C265 1.443 . S
C266 C267 1.340 . S
C266 H306 0.951 . S
C267 C266 1.340 . S
C267 C268 1.439 . S
C267 H307 0.950 . S
C268 C267 1.439 . S
C268 N269 1.374 . S
C268 C302 1.395 . S
N269 C265 1.376 . S
N269 C268 1.374 . S
N269 Co270 2.008 . S
Co270 N269 2.008 . S
Co270 N271 1.995 . S
Co270 N276 2.008 . S
Co270 N281 1.995 . S
Co270 N286 2.282 . S
Co270 N292 2.282 . S
N271 Co270 1.995 . S
N271 C272 1.376 . S
N271 C275 1.383 . S
C272 N271 1.376 . S
C272 C273 1.446 . S
C272 C302 1.391 . S
C273 C272 1.446 . S
C273 C274 1.339 . S
C273 H308 0.949 . S
C274 C273 1.339 . S
C274 C275 1.439 . S
C274 H309 0.950 . S
C275 N271 1.383 . S
C275 C274 1.439 . S
C275 C304 1.392 . S
N276 Co270 2.008 . S
N276 C277 1.376 . S
N276 C280 1.374 . S
C277 N276 1.376 . S
C277 C278 1.443 . S
C277 C304 1.389 . S
C278 C277 1.443 . S
C278 C279 1.340 . S
C278 H310 0.951 . S
C279 C278 1.340 . S
C279 C280 1.439 . S
C279 H311 0.950 . S
C280 N276 1.374 . S
C280 C279 1.439 . S
C280 C305 1.395 . S
N281 Co270 1.995 . S
N281 C282 1.376 . S
N281 C285 1.383 . S
C282 N281 1.376 . S
C282 C283 1.446 . S
C282 C305 1.391 . S
C283 C282 1.446 . S
C283 C284 1.339 . S
C283 H312 0.949 . S
C284 C283 1.339 . S
C284 C285 1.439 . S
C284 H313 0.950 . S
C285 N281 1.383 . S
C285 C284 1.439 . S
C285 C303 1.392 . S
N286 Co270 2.282 . S
N286 C289 1.332 . S
N286 C291 1.332 . S
C287 C288 1.386 . S
C287 C290 1.388 . S
C288 C287 1.386 . S
C288 C289 1.382 . S
C288 H314 0.950 . S
C289 N286 1.332 . S
C289 C288 1.382 . S
C289 H300 0.952 . S
C290 C287 1.388 . S
C290 C291 1.382 . S
C290 H315 0.950 . S
C291 N286 1.332 . S
C291 C290 1.382 . S
C291 H301 0.948 . S
N292 Co270 2.282 . S
N292 C296 1.332 . S
N292 C297 1.332 . S
C293 C294 1.388 . S
C293 C297 1.382 . S
C293 H316 0.950 . S
C294 C293 1.388 . S
C294 C295 1.386 . S
C295 C294 1.386 . S
C295 C296 1.382 . S
C295 H317 0.950 . S
C296 N292 1.332 . S
C296 C295 1.382 . S
C296 H298 0.952 . S
C297 N292 1.332 . S
C297 C293 1.382 . S
C297 H299 0.948 . S
H298 C296 0.952 . S
H299 C297 0.948 . S
H300 C289 0.952 . S
H301 C291 0.948 . S
C302 C268 1.395 . S
C302 C272 1.391 . S
C303 C265 1.389 . S
C303 C285 1.392 . S
C304 C275 1.392 . S
C304 C277 1.389 . S
C305 C280 1.395 . S
C305 C282 1.391 . S
H306 C266 0.951 . S
H307 C267 0.950 . S
H308 C273 0.949 . S
H309 C274 0.950 . S
H310 C278 0.951 . S
H311 C279 0.950 . S
H312 C283 0.949 . S
H313 C284 0.950 . S
H314 C288 0.950 . S
H315 C290 0.950 . S
H316 C293 0.950 . S
H317 C295 0.950 . S
C318 C319 1.443 . S
C318 N322 1.363 1_545 S
C318 C356 1.389 . S
C319 C318 1.443 . S
C319 C320 1.340 1_545 S
C319 H359 0.951 . S
C320 C319 1.340 1_565 S
C320 C321 1.439 . S
C320 H360 0.950 . S
C321 C320 1.439 . S
C321 N322 1.391 . S
C321 C355 1.395 1_556 S
N322 C318 1.363 1_565 S
N322 C321 1.391 . S
N322 Co323 2.006 1_566 S
Co323 N322 2.006 1_544 S
Co323 N324 1.995 1_545 S
Co323 N329 2.005 . S
Co323 N334 1.995 1_554 S
Co323 N339 2.282 . S
Co323 N345 2.282 1_544 S
N324 Co323 1.995 1_565 S
N324 C325 1.376 . S
N324 C328 1.383 . S
C325 N324 1.376 . S
C325 C326 1.446 . S
C325 C355 1.391 . S
C326 C325 1.446 . S
C326 C327 1.339 . S
C326 H361 0.949 . S
C327 C326 1.339 . S
C327 C328 1.439 . S
C327 H362 0.950 . S
C328 N324 1.383 . S
C328 C327 1.439 . S
C328 C357 1.392 . S
N329 Co323 2.005 . S
N329 C330 1.357 1_545 S
N329 C333 1.398 . S
C330 N329 1.357 1_565 S
C330 C331 1.443 . S
C330 C357 1.389 . S
C331 C330 1.443 . S
C331 C332 1.340 1_565 S
C331 H363 0.951 . S
C332 C331 1.340 1_545 S
C332 C333 1.439 . S
C332 H364 0.950 . S
C333 N329 1.398 . S
C333 C332 1.439 . S
C333 C358 1.395 1_554 S
N334 Co323 1.995 1_556 S
N334 C335 1.376 . S
N334 C338 1.383 . S
C335 N334 1.376 . S
C335 C336 1.446 . S
C335 C358 1.391 . S
C336 C335 1.446 . S
C336 C337 1.339 . S
C336 H365 0.949 . S
C337 C336 1.339 . S
C337 C338 1.439 . S
C337 H366 0.950 . S
C338 N334 1.383 . S
C338 C337 1.439 . S
C338 C356 1.392 . S
N339 Co323 2.282 . S
N339 C342 1.332 . S
N339 C344 1.332 1_545 S
C340 C341 1.386 . S
C340 C343 1.388 1_545 S
C341 C340 1.386 . S
C341 C342 1.382 . S
C341 H367 0.950 . S
C342 N339 1.332 . S
C342 C341 1.382 . S
C342 H353 0.952 . S
C343 C340 1.388 1_565 S
C343 C344 1.382 . S
C343 H368 0.950 . S
C344 N339 1.332 1_565 S
C344 C343 1.382 . S
C344 H354 0.948 . S
N345 Co323 2.282 1_566 S
N345 C349 1.332 . S
N345 C350 1.332 1_565 S
C346 C347 1.388 1_545 S
C346 C350 1.382 . S
C346 H369 0.950 . S
C347 C346 1.388 1_565 S
C347 C348 1.386 . S
C348 C347 1.386 . S
C348 C349 1.382 . S
C348 H370 0.950 . S
C349 N345 1.332 . S
C349 C348 1.382 . S
C349 H351 0.952 . S
C350 N345 1.332 1_545 S
C350 C346 1.382 . S
C350 H352 0.948 . S
H351 C349 0.952 . S
H352 C350 0.948 . S
H353 C342 0.952 . S
H354 C344 0.948 . S
C355 C321 1.395 1_554 S
C355 C325 1.391 . S
C356 C318 1.389 . S
C356 C338 1.392 . S
C357 C328 1.392 . S
C357 C330 1.389 . S
C358 C333 1.395 1_556 S
C358 C335 1.391 . S
H359 C319 0.951 . S
H360 C320 0.950 . S
H361 C326 0.949 . S
H362 C327 0.950 . S
H363 C331 0.951 . S
H364 C332 0.950 . S
H365 C336 0.949 . S
H366 C337 0.950 . S
H367 C341 0.950 . S
H368 C343 0.950 . S
H369 C346 0.950 . S
H370 C348 0.950 . S
C371 C372 1.443 . S
C371 N375 1.376 . S
C371 C409 1.389 . S
C372 C371 1.443 . S
C372 C373 1.340 . S
C372 H412 0.951 . S
C373 C372 1.340 . S
C373 C374 1.439 . S
C373 H413 0.950 . S
C374 C373 1.439 . S
C374 N375 1.374 . S
C374 C408 1.395 . S
N375 C371 1.376 . S
N375 C374 1.374 . S
N375 Co376 2.008 . S
Co376 N375 2.008 . S
Co376 N377 1.995 . S
Co376 N382 2.008 . S
Co376 N387 1.995 . S
Co376 N392 2.282 . S
Co376 N398 2.282 . S
N377 Co376 1.995 . S
N377 C378 1.376 . S
N377 C381 1.383 . S
C378 N377 1.376 . S
C378 C379 1.446 . S
C378 C408 1.391 . S
C379 C378 1.446 . S
C379 C380 1.339 . S
C379 H414 0.949 . S
C380 C379 1.339 . S
C380 C381 1.439 . S
C380 H415 0.950 . S
C381 N377 1.383 . S
C381 C380 1.439 . S
C381 C410 1.392 . S
N382 Co376 2.008 . S
N382 C383 1.376 . S
N382 C386 1.374 . S
C383 N382 1.376 . S
C383 C384 1.443 . S
C383 C410 1.389 . S
C384 C383 1.443 . S
C384 C385 1.340 . S
C384 H416 0.951 . S
C385 C384 1.340 . S
C385 C386 1.439 . S
C385 H417 0.950 . S
C386 N382 1.374 . S
C386 C385 1.439 . S
C386 C411 1.395 . S
N387 Co376 1.995 . S
N387 C388 1.376 . S
N387 C391 1.383 . S
C388 N387 1.376 . S
C388 C389 1.446 . S
C388 C411 1.391 . S
C389 C388 1.446 . S
C389 C390 1.339 . S
C389 H418 0.949 . S
C390 C389 1.339 . S
C390 C391 1.439 . S
C390 H419 0.950 . S
C391 N387 1.383 . S
C391 C390 1.439 . S
C391 C409 1.392 . S
N392 Co376 2.282 . S
N392 C395 1.332 . S
N392 C397 1.332 . S
C393 C394 1.386 . S
C393 C396 1.388 . S
C394 C393 1.386 . S
C394 C395 1.382 . S
C394 H420 0.950 . S
C395 N392 1.332 . S
C395 C394 1.382 . S
C395 H406 0.952 . S
C396 C393 1.388 . S
C396 C397 1.382 . S
C396 H421 0.950 . S
C397 N392 1.332 . S
C397 C396 1.382 . S
C397 H407 0.948 . S
N398 Co376 2.282 . S
N398 C402 1.332 . S
N398 C403 1.332 . S
C399 C400 1.388 . S
C399 C403 1.382 . S
C399 H422 0.950 . S
C400 C399 1.388 . S
C400 C401 1.386 . S
C401 C400 1.386 . S
C401 C402 1.382 . S
C401 H423 0.950 . S
C402 N398 1.332 . S
C402 C401 1.382 . S
C402 H404 0.952 . S
C403 N398 1.332 . S
C403 C399 1.382 . S
C403 H405 0.948 . S
H404 C402 0.952 . S
H405 C403 0.948 . S
H406 C395 0.952 . S
H407 C397 0.948 . S
C408 C374 1.395 . S
C408 C378 1.391 . S
C409 C371 1.389 . S
C409 C391 1.392 . S
C410 C381 1.392 . S
C410 C383 1.389 . S
C411 C386 1.395 . S
C411 C388 1.391 . S
H412 C372 0.951 . S
H413 C373 0.950 . S
H414 C379 0.949 . S
H415 C380 0.950 . S
H416 C384 0.951 . S
H417 C385 0.950 . S
H418 C389 0.949 . S
H419 C390 0.950 . S
H420 C394 0.950 . S
H421 C396 0.950 . S
H422 C399 0.950 . S
H423 C401 0.950 . S
C424 C425 1.443 . S
C424 N428 1.376 . S
C424 C462 1.389 . S
C425 C424 1.443 . S
C425 C426 1.340 . S
C425 H465 0.951 . S
C426 C425 1.340 . S
C426 C427 1.439 . S
C426 H466 0.950 . S
C427 C426 1.439 . S
C427 N428 1.374 . S
C427 C461 1.395 . S
N428 C424 1.376 . S
N428 C427 1.374 . S
N428 Co429 2.008 . S
Co429 N428 2.008 . S
Co429 N430 1.995 . S
Co429 N435 2.008 . S
Co429 N440 1.995 . S
Co429 N445 2.282 . S
Co429 N451 2.282 . S
N430 Co429 1.995 . S
N430 C431 1.376 . S
N430 C434 1.383 . S
C431 N430 1.376 . S
C431 C432 1.446 . S
C431 C461 1.391 . S
C432 C431 1.446 . S
C432 C433 1.339 . S
C432 H467 0.949 . S
C433 C432 1.339 . S
C433 C434 1.439 . S
C433 H468 0.950 . S
C434 N430 1.383 . S
C434 C433 1.439 . S
C434 C463 1.392 . S
N435 Co429 2.008 . S
N435 C436 1.376 . S
N435 C439 1.374 . S
C436 N435 1.376 . S
C436 C437 1.443 . S
C436 C463 1.389 . S
C437 C436 1.443 . S
C437 C438 1.340 . S
C437 H469 0.951 . S
C438 C437 1.340 . S
C438 C439 1.439 . S
C438 H470 0.950 . S
C439 N435 1.374 . S
C439 C438 1.439 . S
C439 C464 1.395 . S
N440 Co429 1.995 . S
N440 C441 1.376 . S
N440 C444 1.383 . S
C441 N440 1.376 . S
C441 C442 1.446 . S
C441 C464 1.391 . S
C442 C441 1.446 . S
C442 C443 1.339 . S
C442 H471 0.949 . S
C443 C442 1.339 . S
C443 C444 1.439 . S
C443 H472 0.950 . S
C444 N440 1.383 . S
C444 C443 1.439 . S
C444 C462 1.392 . S
N445 Co429 2.282 . S
N445 C448 1.332 . S
N445 C450 1.332 . S
C446 C447 1.386 . S
C446 C449 1.388 . S
C447 C446 1.386 . S
C447 C448 1.382 . S
C447 H473 0.950 . S
C448 N445 1.332 . S
C448 C447 1.382 . S
C448 H459 0.952 . S
C449 C446 1.388 . S
C449 C450 1.382 . S
C449 H474 0.950 . S
C450 N445 1.332 . S
C450 C449 1.382 . S
C450 H460 0.948 . S
N451 Co429 2.282 . S
N451 C455 1.332 . S
N451 C456 1.332 . S
C452 C453 1.388 . S
C452 C456 1.382 . S
C452 H475 0.950 . S
C453 C452 1.388 . S
C453 C454 1.386 . S
C454 C453 1.386 . S
C454 C455 1.382 . S
C454 H476 0.950 . S
C455 N451 1.332 . S
C455 C454 1.382 . S
C455 H457 0.952 . S
C456 N451 1.332 . S
C456 C452 1.382 . S
C456 H458 0.948 . S
H457 C455 0.952 . S
H458 C456 0.948 . S
H459 C448 0.952 . S
H460 C450 0.948 . S
C461 C427 1.395 . S
C461 C431 1.391 . S
C462 C424 1.389 . S
C462 C444 1.392 . S
C463 C434 1.392 . S
C463 C436 1.389 . S
C464 C439 1.395 . S
C464 C441 1.391 . S
H465 C425 0.951 . S
H466 C426 0.950 . S
H467 C432 0.949 . S
H468 C433 0.950 . S
H469 C437 0.951 . S
H470 C438 0.950 . S
H471 C442 0.949 . S
H472 C443 0.950 . S
H473 C447 0.950 . S
H474 C449 0.950 . S
H475 C452 0.950 . S
H476 C454 0.950 . S
C477 C478 1.443 . S
C477 N481 1.376 . S
C477 C515 1.389 . S
C478 C477 1.443 . S
C478 C479 1.340 . S
C478 H518 0.951 . S
C479 C478 1.340 . S
C479 C480 1.439 . S
C479 H519 0.950 . S
C480 C479 1.439 . S
C480 N481 1.374 . S
C480 C514 1.395 . S
N481 C477 1.376 . S
N481 C480 1.374 . S
N481 Co482 2.008 . S
Co482 N481 2.008 . S
Co482 N483 1.995 . S
Co482 N488 2.008 . S
Co482 N493 1.995 . S
Co482 N498 2.282 . S
Co482 N504 2.282 . S
N483 Co482 1.995 . S
N483 C484 1.376 . S
N483 C487 1.383 . S
C484 N483 1.376 . S
C484 C485 1.446 . S
C484 C514 1.391 . S
C485 C484 1.446 . S
C485 C486 1.339 . S
C485 H520 0.949 . S
C486 C485 1.339 . S
C486 C487 1.439 . S
C486 H521 0.950 . S
C487 N483 1.383 . S
C487 C486 1.439 . S
C487 C516 1.392 . S
N488 Co482 2.008 . S
N488 C489 1.376 . S
N488 C492 1.374 . S
C489 N488 1.376 . S
C489 C490 1.443 . S
C489 C516 1.389 . S
C490 C489 1.443 . S
C490 C491 1.340 . S
C490 H522 0.951 . S
C491 C490 1.340 . S
C491 C492 1.439 . S
C491 H523 0.950 . S
C492 N488 1.374 . S
C492 C491 1.439 . S
C492 C517 1.395 . S
N493 Co482 1.995 . S
N493 C494 1.376 . S
N493 C497 1.383 . S
C494 N493 1.376 . S
C494 C495 1.446 . S
C494 C517 1.391 . S
C495 C494 1.446 . S
C495 C496 1.339 . S
C495 H524 0.949 . S
C496 C495 1.339 . S
C496 C497 1.439 . S
C496 H525 0.950 . S
C497 N493 1.383 . S
C497 C496 1.439 . S
C497 C515 1.392 . S
N498 Co482 2.282 . S
N498 C501 1.332 . S
N498 C503 1.332 . S
C499 C500 1.386 . S
C499 C502 1.388 . S
C500 C499 1.386 . S
C500 C501 1.382 . S
C500 H526 0.950 . S
C501 N498 1.332 . S
C501 C500 1.382 . S
C501 H512 0.952 . S
C502 C499 1.388 . S
C502 C503 1.382 . S
C502 H527 0.950 . S
C503 N498 1.332 . S
C503 C502 1.382 . S
C503 H513 0.948 . S
N504 Co482 2.282 . S
N504 C508 1.332 . S
N504 C509 1.332 . S
C505 C506 1.388 . S
C505 C509 1.382 . S
C505 H528 0.950 . S
C506 C505 1.388 . S
C506 C507 1.386 . S
C507 C506 1.386 . S
C507 C508 1.382 . S
C507 H529 0.950 . S
C508 N504 1.332 . S
C508 C507 1.382 . S
C508 H510 0.952 . S
C509 N504 1.332 . S
C509 C505 1.382 . S
C509 H511 0.948 . S
H510 C508 0.952 . S
H511 C509 0.948 . S
H512 C501 0.952 . S
H513 C503 0.948 . S
C514 C480 1.395 . S
C514 C484 1.391 . S
C515 C477 1.389 . S
C515 C497 1.392 . S
C516 C487 1.392 . S
C516 C489 1.389 . S
C517 C492 1.395 . S
C517 C494 1.391 . S
H518 C478 0.951 . S
H519 C479 0.950 . S
H520 C485 0.949 . S
H521 C486 0.950 . S
H522 C490 0.951 . S
H523 C491 0.950 . S
H524 C495 0.949 . S
H525 C496 0.950 . S
H526 C500 0.950 . S
H527 C502 0.950 . S
H528 C505 0.950 . S
H529 C507 0.950 . S
C530 C531 1.443 . S
C530 N534 1.376 . S
C530 C568 1.389 . S
C531 C530 1.443 . S
C531 C532 1.340 . S
C531 H571 0.951 . S
C532 C531 1.340 . S
C532 C533 1.439 . S
C532 H572 0.950 . S
C533 C532 1.439 . S
C533 N534 1.374 . S
C533 C567 1.395 . S
N534 C530 1.376 . S
N534 C533 1.374 . S
N534 Co535 2.008 . S
Co535 N534 2.008 . S
Co535 N536 1.995 . S
Co535 N541 2.008 . S
Co535 N546 1.995 . S
Co535 N551 2.282 . S
Co535 N557 2.282 . S
N536 Co535 1.995 . S
N536 C537 1.376 . S
N536 C540 1.383 . S
C537 N536 1.376 . S
C537 C538 1.446 . S
C537 C567 1.391 . S
C538 C537 1.446 . S
C538 C539 1.339 . S
C538 H573 0.949 . S
C539 C538 1.339 . S
C539 C540 1.439 . S
C539 H574 0.950 . S
C540 N536 1.383 . S
C540 C539 1.439 . S
C540 C569 1.392 . S
N541 Co535 2.008 . S
N541 C542 1.376 . S
N541 C545 1.374 . S
C542 N541 1.376 . S
C542 C543 1.443 . S
C542 C569 1.389 . S
C543 C542 1.443 . S
C543 C544 1.340 . S
C543 H575 0.951 . S
C544 C543 1.340 . S
C544 C545 1.439 . S
C544 H576 0.950 . S
C545 N541 1.374 . S
C545 C544 1.439 . S
C545 C570 1.395 . S
N546 Co535 1.995 . S
N546 C547 1.376 . S
N546 C550 1.383 . S
C547 N546 1.376 . S
C547 C548 1.446 . S
C547 C570 1.391 . S
C548 C547 1.446 . S
C548 C549 1.339 . S
C548 H577 0.949 . S
C549 C548 1.339 . S
C549 C550 1.439 . S
C549 H578 0.950 . S
C550 N546 1.383 . S
C550 C549 1.439 . S
C550 C568 1.392 . S
N551 Co535 2.282 . S
N551 C554 1.332 . S
N551 C556 1.332 . S
C552 C553 1.386 . S
C552 C555 1.388 . S
C553 C552 1.386 . S
C553 C554 1.382 . S
C553 H579 0.950 . S
C554 N551 1.332 . S
C554 C553 1.382 . S
C554 H565 0.952 . S
C555 C552 1.388 . S
C555 C556 1.382 . S
C555 H580 0.950 . S
C556 N551 1.332 . S
C556 C555 1.382 . S
C556 H566 0.948 . S
N557 Co535 2.282 . S
N557 C561 1.332 . S
N557 C562 1.332 . S
C558 C559 1.388 . S
C558 C562 1.382 . S
C558 H581 0.950 . S
C559 C558 1.388 . S
C559 C560 1.386 . S
C560 C559 1.386 . S
C560 C561 1.382 . S
C560 H582 0.950 . S
C561 N557 1.332 . S
C561 C560 1.382 . S
C561 H563 0.952 . S
C562 N557 1.332 . S
C562 C558 1.382 . S
C562 H564 0.948 . S
H563 C561 0.952 . S
H564 C562 0.948 . S
H565 C554 0.952 . S
H566 C556 0.948 . S
C567 C533 1.395 . S
C567 C537 1.391 . S
C568 C530 1.389 . S
C568 C550 1.392 . S
C569 C540 1.392 . S
C569 C542 1.389 . S
C570 C545 1.395 . S
C570 C547 1.391 . S
H571 C531 0.951 . S
H572 C532 0.950 . S
H573 C538 0.949 . S
H574 C539 0.950 . S
H575 C543 0.951 . S
H576 C544 0.950 . S
H577 C548 0.949 . S
H578 C549 0.950 . S
H579 C553 0.950 . S
H580 C555 0.950 . S
H581 C558 0.950 . S
H582 C560 0.950 . S
C583 C584 1.443 . S
C583 N587 1.376 . S
C583 C621 1.389 . S
C584 C583 1.443 . S
C584 C585 1.340 . S
C584 H624 0.951 . S
C585 C584 1.340 . S
C585 C586 1.439 . S
C585 H625 0.950 . S
C586 C585 1.439 . S
C586 N587 1.374 . S
C586 C620 1.395 . S
N587 C583 1.376 . S
N587 C586 1.374 . S
N587 Co588 2.008 . S
Co588 N587 2.008 . S
Co588 N589 1.995 . S
Co588 N594 2.008 . S
Co588 N599 1.995 . S
Co588 N604 2.282 . S
Co588 N610 2.282 . S
N589 Co588 1.995 . S
N589 C590 1.376 . S
N589 C593 1.383 . S
C590 N589 1.376 . S
C590 C591 1.446 . S
C590 C620 1.391 . S
C591 C590 1.446 . S
C591 C592 1.339 . S
C591 H626 0.949 . S
C592 C591 1.339 . S
C592 C593 1.439 . S
C592 H627 0.950 . S
C593 N589 1.383 . S
C593 C592 1.439 . S
C593 C622 1.392 . S
N594 Co588 2.008 . S
N594 C595 1.376 . S
N594 C598 1.374 . S
C595 N594 1.376 . S
C595 C596 1.443 . S
C595 C622 1.389 . S
C596 C595 1.443 . S
C596 C597 1.340 . S
C596 H628 0.951 . S
C597 C596 1.340 . S
C597 C598 1.439 . S
C597 H629 0.950 . S
C598 N594 1.374 . S
C598 C597 1.439 . S
C598 C623 1.395 . S
N599 Co588 1.995 . S
N599 C600 1.376 . S
N599 C603 1.383 . S
C600 N599 1.376 . S
C600 C601 1.446 . S
C600 C623 1.391 . S
C601 C600 1.446 . S
C601 C602 1.339 . S
C601 H630 0.949 . S
C602 C601 1.339 . S
C602 C603 1.439 . S
C602 H631 0.950 . S
C603 N599 1.383 . S
C603 C602 1.439 . S
C603 C621 1.392 . S
N604 Co588 2.282 . S
N604 C607 1.332 . S
N604 C609 1.332 . S
C605 C606 1.386 . S
C605 C608 1.388 . S
C606 C605 1.386 . S
C606 C607 1.382 . S
C606 H632 0.950 . S
C607 N604 1.332 . S
C607 C606 1.382 . S
C607 H618 0.952 . S
C608 C605 1.388 . S
C608 C609 1.382 . S
C608 H633 0.950 . S
C609 N604 1.332 . S
C609 C608 1.382 . S
C609 H619 0.948 . S
N610 Co588 2.282 . S
N610 C614 1.332 . S
N610 C615 1.332 . S
C611 C612 1.388 . S
C611 C615 1.382 . S
C611 H634 0.950 . S
C612 C611 1.388 . S
C612 C613 1.386 . S
C613 C612 1.386 . S
C613 C614 1.382 . S
C613 H635 0.950 . S
C614 N610 1.332 . S
C614 C613 1.382 . S
C614 H616 0.952 . S
C615 N610 1.332 . S
C615 C611 1.382 . S
C615 H617 0.948 . S
H616 C614 0.952 . S
H617 C615 0.948 . S
H618 C607 0.952 . S
H619 C609 0.948 . S
C620 C586 1.395 . S
C620 C590 1.391 . S
C621 C583 1.389 . S
C621 C603 1.392 . S
C622 C593 1.392 . S
C622 C595 1.389 . S
C623 C598 1.395 . S
C623 C600 1.391 . S
H624 C584 0.951 . S
H625 C585 0.950 . S
H626 C591 0.949 . S
H627 C592 0.950 . S
H628 C596 0.951 . S
H629 C597 0.950 . S
H630 C601 0.949 . S
H631 C602 0.950 . S
H632 C606 0.950 . S
H633 C608 0.950 . S
H634 C611 0.950 . S
H635 C613 0.950 . S
C636 C637 1.443 . S
C636 N640 1.376 . S
C636 C674 1.389 . S
C637 C636 1.443 . S
C637 C638 1.340 . S
C637 H677 0.951 . S
C638 C637 1.340 . S
C638 C639 1.439 . S
C638 H678 0.950 . S
C639 C638 1.439 . S
C639 N640 1.374 . S
C639 C673 1.395 . S
N640 C636 1.376 . S
N640 C639 1.374 . S
N640 Co641 2.008 . S
Co641 N640 2.008 . S
Co641 N642 1.995 . S
Co641 N647 2.008 . S
Co641 N652 1.995 . S
Co641 N657 2.282 . S
Co641 N663 2.282 . S
N642 Co641 1.995 . S
N642 C643 1.376 . S
N642 C646 1.383 . S
C643 N642 1.376 . S
C643 C644 1.446 . S
C643 C673 1.391 . S
C644 C643 1.446 . S
C644 C645 1.339 . S
C644 H679 0.949 . S
C645 C644 1.339 . S
C645 C646 1.439 . S
C645 H680 0.950 . S
C646 N642 1.383 . S
C646 C645 1.439 . S
C646 C675 1.392 . S
N647 Co641 2.008 . S
N647 C648 1.376 . S
N647 C651 1.374 . S
C648 N647 1.376 . S
C648 C649 1.443 . S
C648 C675 1.389 . S
C649 C648 1.443 . S
C649 C650 1.340 . S
C649 H681 0.951 . S
C650 C649 1.340 . S
C650 C651 1.439 . S
C650 H682 0.950 . S
C651 N647 1.374 . S
C651 C650 1.439 . S
C651 C676 1.395 . S
N652 Co641 1.995 . S
N652 C653 1.376 . S
N652 C656 1.383 . S
C653 N652 1.376 . S
C653 C654 1.446 . S
C653 C676 1.391 . S
C654 C653 1.446 . S
C654 C655 1.339 . S
C654 H683 0.949 . S
C655 C654 1.339 . S
C655 C656 1.439 . S
C655 H684 0.950 . S
C656 N652 1.383 . S
C656 C655 1.439 . S
C656 C674 1.392 . S
N657 Co641 2.282 . S
N657 C660 1.332 . S
N657 C662 1.332 . S
C658 C659 1.386 . S
C658 C661 1.388 . S
C659 C658 1.386 . S
C659 C660 1.382 . S
C659 H685 0.950 . S
C660 N657 1.332 . S
C660 C659 1.382 . S
C660 H671 0.952 . S
C661 C658 1.388 . S
C661 C662 1.382 . S
C661 H686 0.950 . S
C662 N657 1.332 . S
C662 C661 1.382 . S
C662 H672 0.948 . S
N663 Co641 2.282 . S
N663 C667 1.332 . S
N663 C668 1.332 . S
C664 C665 1.388 . S
C664 C668 1.382 . S
C664 H687 0.950 . S
C665 C664 1.388 . S
C665 C666 1.386 . S
C666 C665 1.386 . S
C666 C667 1.382 . S
C666 H688 0.950 . S
C667 N663 1.332 . S
C667 C666 1.382 . S
C667 H669 0.952 . S
C668 N663 1.332 . S
C668 C664 1.382 . S
C668 H670 0.948 . S
H669 C667 0.952 . S
H670 C668 0.948 . S
H671 C660 0.952 . S
H672 C662 0.948 . S
C673 C639 1.395 . S
C673 C643 1.391 . S
C674 C636 1.389 . S
C674 C656 1.392 . S
C675 C646 1.392 . S
C675 C648 1.389 . S
C676 C651 1.395 . S
C676 C653 1.391 . S
H677 C637 0.951 . S
H678 C638 0.950 . S
H679 C644 0.949 . S
H680 C645 0.950 . S
H681 C649 0.951 . S
H682 C650 0.950 . S
H683 C654 0.949 . S
H684 C655 0.950 . S
H685 C659 0.950 . S
H686 C661 0.950 . S
H687 C664 0.950 . S
H688 C666 0.950 . S
C689 C690 1.443 . S
C689 N693 1.376 . S
C689 C727 1.389 . S
C690 C689 1.443 . S
C690 C691 1.340 . S
C690 H730 0.951 . S
C691 C690 1.340 . S
C691 C692 1.439 . S
C691 H731 0.950 . S
C692 C691 1.439 . S
C692 N693 1.374 . S
C692 C726 1.395 . S
N693 C689 1.376 . S
N693 C692 1.374 . S
N693 Co694 2.008 1_655 S
Co694 N693 2.008 1_455 S
Co694 N695 1.997 1_454 S
Co694 N700 2.008 1_554 S
Co694 N705 1.998 . S
Co694 N710 2.282 1_454 S
Co694 N716 2.282 . S
N695 Co694 1.997 1_656 S
N695 C696 1.397 . S
N695 C699 1.361 1_655 S
C696 N695 1.397 . S
C696 C697 1.446 . S
C696 C726 1.391 1_556 S
C697 C696 1.446 . S
C697 C698 1.339 1_655 S
C697 H732 0.949 . S
C698 C697 1.339 1_455 S
C698 C699 1.439 . S
C698 H733 0.950 . S
C699 N695 1.361 1_455 S
C699 C698 1.439 . S
C699 C728 1.392 . S
N700 Co694 2.008 1_556 S
N700 C701 1.376 . S
N700 C704 1.374 . S
C701 N700 1.376 . S
C701 C702 1.443 . S
C701 C728 1.389 . S
C702 C701 1.443 . S
C702 C703 1.340 . S
C702 H734 0.951 . S
C703 C702 1.340 . S
C703 C704 1.439 . S
C703 H735 0.950 . S
C704 N700 1.374 . S
C704 C703 1.439 . S
C704 C729 1.395 . S
N705 Co694 1.998 . S
N705 C706 1.403 . S
N705 C709 1.354 1_455 S
C706 N705 1.403 . S
C706 C707 1.446 . S
C706 C729 1.391 1_554 S
C707 C706 1.446 . S
C707 C708 1.339 1_455 S
C707 H736 0.949 . S
C708 C707 1.339 1_655 S
C708 C709 1.439 . S
C708 H737 0.950 . S
C709 N705 1.354 1_655 S
C709 C708 1.439 . S
C709 C727 1.392 . S
N710 Co694 2.282 1_656 S
N710 C713 1.332 1_655 S
N710 C715 1.332 . S
C711 C712 1.386 1_655 S
C711 C714 1.388 . S
C712 C711 1.386 1_455 S
C712 C713 1.382 . S
C712 H738 0.950 . S
C713 N710 1.332 1_455 S
C713 C712 1.382 . S
C713 H724 0.952 . S
C714 C711 1.388 . S
C714 C715 1.382 . S
C714 H739 0.950 . S
C715 N710 1.332 . S
C715 C714 1.382 . S
C715 H725 0.948 . S
N716 Co694 2.282 . S
N716 C720 1.332 1_455 S
N716 C721 1.332 . S
C717 C718 1.388 . S
C717 C721 1.382 . S
C717 H740 0.950 . S
C718 C717 1.388 . S
C718 C719 1.386 1_455 S
C719 C718 1.386 1_655 S
C719 C720 1.382 . S
C719 H741 0.950 . S
C720 N716 1.332 1_655 S
C720 C719 1.382 . S
C720 H722 0.952 . S
C721 N716 1.332 . S
C721 C717 1.382 . S
C721 H723 0.948 . S
H722 C720 0.952 . S
H723 C721 0.948 . S
H724 C713 0.952 . S
H725 C715 0.948 . S
C726 C692 1.395 . S
C726 C696 1.391 1_554 S
C727 C689 1.389 . S
C727 C709 1.392 . S
C728 C699 1.392 . S
C728 C701 1.389 . S
C729 C704 1.395 . S
C729 C706 1.391 1_556 S
H730 C690 0.951 . S
H731 C691 0.950 . S
H732 C697 0.949 . S
H733 C698 0.950 . S
H734 C702 0.951 . S
H735 C703 0.950 . S
H736 C707 0.949 . S
H737 C708 0.950 . S
H738 C712 0.950 . S
H739 C714 0.950 . S
H740 C717 0.950 . S
H741 C719 0.950 . S
C742 C743 1.443 . S
C742 N746 1.376 . S
C742 C780 1.389 . S
C743 C742 1.443 . S
C743 C744 1.340 . S
C743 H783 0.951 . S
C744 C743 1.340 . S
C744 C745 1.439 . S
C744 H784 0.950 . S
C745 C744 1.439 . S
C745 N746 1.374 . S
C745 C779 1.395 1_554 S
N746 C742 1.376 . S
N746 C745 1.374 . S
N746 Co747 2.008 . S
Co747 N746 2.008 . S
Co747 N748 1.995 1_554 S
Co747 N753 2.008 1_554 S
Co747 N758 1.995 . S
Co747 N763 2.282 1_554 S
Co747 N769 2.282 . S
N748 Co747 1.995 1_556 S
N748 C749 1.376 . S
N748 C752 1.383 . S
C749 N748 1.376 . S
C749 C750 1.446 . S
C749 C779 1.391 . S
C750 C749 1.446 . S
C750 C751 1.339 . S
C750 H785 0.949 . S
C751 C750 1.339 . S
C751 C752 1.439 . S
C751 H786 0.950 . S
C752 N748 1.383 . S
C752 C751 1.439 . S
C752 C781 1.392 . S
N753 Co747 2.008 1_556 S
N753 C754 1.376 . S
N753 C757 1.374 . S
C754 N753 1.376 . S
C754 C755 1.443 . S
C754 C781 1.389 . S
C755 C754 1.443 . S
C755 C756 1.340 . S
C755 H787 0.951 . S
C756 C755 1.340 . S
C756 C757 1.439 . S
C756 H788 0.950 . S
C757 N753 1.374 . S
C757 C756 1.439 . S
C757 C782 1.395 1_556 S
N758 Co747 1.995 . S
N758 C759 1.376 . S
N758 C762 1.383 . S
C759 N758 1.376 . S
C759 C760 1.446 . S
C759 C782 1.391 . S
C760 C759 1.446 . S
C760 C761 1.339 . S
C760 H789 0.949 . S
C761 C760 1.339 . S
C761 C762 1.439 . S
C761 H790 0.950 . S
C762 N758 1.383 . S
C762 C761 1.439 . S
C762 C780 1.392 . S
N763 Co747 2.282 1_556 S
N763 C766 1.332 . S
N763 C768 1.332 . S
C764 C765 1.386 . S
C764 C767 1.388 . S
C765 C764 1.386 . S
C765 C766 1.382 . S
C765 H791 0.950 . S
C766 N763 1.332 . S
C766 C765 1.382 . S
C766 H777 0.952 . S
C767 C764 1.388 . S
C767 C768 1.382 . S
C767 H792 0.950 . S
C768 N763 1.332 . S
C768 C767 1.382 . S
C768 H778 0.948 . S
N769 Co747 2.282 . S
N769 C773 1.332 . S
N769 C774 1.332 . S
C770 C771 1.388 . S
C770 C774 1.382 . S
C770 H793 0.950 . S
C771 C770 1.388 . S
C771 C772 1.386 . S
C772 C771 1.386 . S
C772 C773 1.382 . S
C772 H794 0.950 . S
C773 N769 1.332 . S
C773 C772 1.382 . S
C773 H775 0.952 . S
C774 N769 1.332 . S
C774 C770 1.382 . S
C774 H776 0.948 . S
H775 C773 0.952 . S
H776 C774 0.948 . S
H777 C766 0.952 . S
H778 C768 0.948 . S
C779 C745 1.395 1_556 S
C779 C749 1.391 . S
C780 C742 1.389 . S
C780 C762 1.392 . S
C781 C752 1.392 . S
C781 C754 1.389 . S
C782 C757 1.395 1_554 S
C782 C759 1.391 . S
H783 C743 0.951 . S
H784 C744 0.950 . S
H785 C750 0.949 . S
H786 C751 0.950 . S
H787 C755 0.951 . S
H788 C756 0.950 . S
H789 C760 0.949 . S
H790 C761 0.950 . S
H791 C765 0.950 . S
H792 C767 0.950 . S
H793 C770 0.950 . S
H794 C772 0.950 . S
C795 C796 1.443 . S
C795 N799 1.376 . S
C795 C833 1.389 . S
C796 C795 1.443 . S
C796 C797 1.340 . S
C796 H836 0.951 . S
C797 C796 1.340 . S
C797 C798 1.439 . S
C797 H837 0.950 . S
C798 C797 1.439 . S
C798 N799 1.374 . S
C798 C832 1.395 . S
N799 C795 1.376 . S
N799 C798 1.374 . S
N799 Co800 2.008 1_655 S
Co800 N799 2.008 1_455 S
Co800 N801 1.995 . S
Co800 N806 2.008 . S
Co800 N811 1.995 1_455 S
Co800 N816 2.282 1_455 S
Co800 N822 2.282 . S
N801 Co800 1.995 . S
N801 C802 1.376 1_455 S
N801 C805 1.383 . S
C802 N801 1.376 1_655 S
C802 C803 1.446 . S
C802 C832 1.391 . S
C803 C802 1.446 . S
C803 C804 1.339 1_655 S
C803 H838 0.949 . S
C804 C803 1.339 1_455 S
C804 C805 1.439 . S
C804 H839 0.950 . S
C805 N801 1.383 . S
C805 C804 1.439 . S
C805 C834 1.392 . S
N806 Co800 2.008 . S
N806 C807 1.376 . S
N806 C810 1.374 . S
C807 N806 1.376 . S
C807 C808 1.443 . S
C807 C834 1.389 . S
C808 C807 1.443 . S
C808 C809 1.340 . S
C808 H840 0.951 . S
C809 C808 1.340 . S
C809 C810 1.439 . S
C809 H841 0.950 . S
C810 N806 1.374 . S
C810 C809 1.439 . S
C810 C835 1.395 . S
N811 Co800 1.995 1_655 S
N811 C812 1.376 1_655 S
N811 C815 1.383 . S
C812 N811 1.376 1_455 S
C812 C813 1.446 . S
C812 C835 1.391 . S
C813 C812 1.446 . S
C813 C814 1.339 1_455 S
C813 H842 0.949 . S
C814 C813 1.339 1_655 S
C814 C815 1.439 . S
C814 H843 0.950 . S
C815 N811 1.383 . S
C815 C814 1.439 . S
C815 C833 1.392 . S
N816 Co800 2.282 1_655 S
N816 C819 1.332 1_655 S
N816 C821 1.332 . S
C817 C818 1.386 1_655 S
C817 C820 1.388 . S
C818 C817 1.386 1_455 S
C818 C819 1.382 . S
C818 H844 0.950 . S
C819 N816 1.332 1_455 S
C819 C818 1.382 . S
C819 H830 0.952 . S
C820 C817 1.388 . S
C820 C821 1.382 . S
C820 H845 0.950 . S
C821 N816 1.332 . S
C821 C820 1.382 . S
C821 H831 0.948 . S
N822 Co800 2.282 . S
N822 C826 1.332 1_455 S
N822 C827 1.332 . S
C823 C824 1.388 . S
C823 C827 1.382 . S
C823 H846 0.950 . S
C824 C823 1.388 . S
C824 C825 1.386 1_455 S
C825 C824 1.386 1_655 S
C825 C826 1.382 . S
C825 H847 0.950 . S
C826 N822 1.332 1_655 S
C826 C825 1.382 . S
C826 H828 0.952 . S
C827 N822 1.332 . S
C827 C823 1.382 . S
C827 H829 0.948 . S
H828 C826 0.952 . S
H829 C827 0.948 . S
H830 C819 0.952 . S
H831 C821 0.948 . S
C832 C798 1.395 . S
C832 C802 1.391 . S
C833 C795 1.389 . S
C833 C815 1.392 . S
C834 C805 1.392 . S
C834 C807 1.389 . S
C835 C810 1.395 . S
C835 C812 1.391 . S
H836 C796 0.951 . S
H837 C797 0.950 . S
H838 C803 0.949 . S
H839 C804 0.950 . S
H840 C808 0.951 . S
H841 C809 0.950 . S
H842 C813 0.949 . S
H843 C814 0.950 . S
H844 C818 0.950 . S
H845 C820 0.950 . S
H846 C823 0.950 . S
H847 C825 0.950 . S
H848 C854 0.930 . S
H849 C858 0.930 . S
H850 C863 0.929 . S
H851 C861 0.929 . S
H852 C856 0.929 . S
H853 C862 0.929 . S
C854 H848 0.930 . S
C854 C855 1.367 1_455 S
C854 C862 1.378 . S
C855 C854 1.367 1_655 S
C855 C863 1.433 1_565 S
C856 H852 0.929 . S
C856 C858 1.378 . S
C856 C860 1.350 . S
C857 C860 1.463 1_565 S
C857 C862 1.350 1_655 S
C857 N865 1.427 1_565 S
C858 H849 0.930 . S
C858 C856 1.378 . S
C858 C859 1.367 . S
C859 C858 1.367 . S
C859 C861 1.433 1_645 S
C860 C856 1.350 . S
C860 C857 1.463 1_545 S
C860 N864 1.427 1_645 S
C861 H851 0.929 . S
C861 C859 1.433 1_465 S
C861 N864 1.384 . S
C862 H853 0.929 . S
C862 C854 1.378 . S
C862 C857 1.350 1_455 S
C863 H850 0.929 . S
C863 C855 1.433 1_545 S
C863 N865 1.384 . S
N864 C860 1.427 1_465 S
N864 C861 1.384 . S
N865 C857 1.427 1_545 S
N865 C863 1.384 . S
H866 C872 0.930 . S
H867 C876 0.930 . S
H868 C881 0.929 . S
H869 C879 0.929 . S
H870 C874 0.929 . S
H871 C880 0.929 . S
C872 H866 0.930 . S
C872 C873 1.367 . S
C872 C880 1.378 . S
C873 C872 1.367 . S
C873 C881 1.433 . S
C874 H870 0.929 . S
C874 C876 1.378 . S
C874 C878 1.350 . S
C875 C878 1.463 . S
C875 C880 1.350 . S
C875 N883 1.427 . S
C876 H867 0.930 . S
C876 C874 1.378 . S
C876 C877 1.367 . S
C877 C876 1.367 . S
C877 C879 1.433 . S
C878 C874 1.350 . S
C878 C875 1.463 . S
C878 N882 1.427 . S
C879 H869 0.929 . S
C879 C877 1.433 . S
C879 N882 1.384 . S
C880 H871 0.929 . S
C880 C872 1.378 . S
C880 C875 1.350 . S
C881 H868 0.929 . S
C881 C873 1.433 . S
C881 N883 1.384 . S
N882 C878 1.427 . S
N882 C879 1.384 . S
N883 C875 1.427 . S
N883 C881 1.384 . S
H884 C890 0.930 . S
H885 C894 0.930 . S
H886 C899 0.929 . S
H887 C897 0.929 . S
H888 C892 0.929 . S
H889 C898 0.929 . S
C890 H884 0.930 . S
C890 C891 1.367 . S
C890 C898 1.378 . S
C891 C890 1.367 . S
C891 C899 1.433 1_565 S
C892 H888 0.929 . S
C892 C894 1.378 . S
C892 C896 1.349 1_545 S
C893 C896 1.463 . S
C893 C898 1.350 . S
C893 N901 1.427 1_565 S
C894 H885 0.930 . S
C894 C892 1.378 . S
C894 C895 1.367 . S
C895 C894 1.367 . S
C895 C897 1.433 1_545 S
C896 C892 1.349 1_565 S
C896 C893 1.463 . S
C896 N900 1.429 . S
C897 H887 0.929 . S
C897 C895 1.433 1_565 S
C897 N900 1.384 . S
C898 H889 0.929 . S
C898 C890 1.378 . S
C898 C893 1.350 . S
C899 H886 0.929 . S
C899 C891 1.433 1_545 S
C899 N901 1.384 . S
N900 C896 1.429 . S
N900 C897 1.384 . S
N901 C893 1.427 1_545 S
N901 C899 1.384 . S
H902 C908 0.930 . S
H903 C912 0.930 . S
H904 C917 0.929 . S
H905 C915 0.929 . S
H906 C910 0.929 . S
H907 C916 0.929 . S
C908 H902 0.930 . S
C908 C909 1.367 . S
C908 C916 1.378 . S
C909 C908 1.367 . S
C909 C917 1.433 . S
C910 H906 0.929 . S
C910 C912 1.378 . S
C910 C914 1.350 . S
C911 C914 1.464 1_556 S
C911 C916 1.349 . S
C911 N919 1.427 . S
C912 H903 0.930 . S
C912 C910 1.378 . S
C912 C913 1.367 . S
C913 C912 1.367 . S
C913 C915 1.433 . S
C914 C910 1.350 . S
C914 C911 1.464 1_554 S
C914 N918 1.427 . S
C915 H905 0.929 . S
C915 C913 1.433 . S
C915 N918 1.384 . S
C916 H907 0.929 . S
C916 C908 1.378 . S
C916 C911 1.349 . S
C917 H904 0.929 . S
C917 C909 1.433 . S
C917 N919 1.384 . S
N918 C914 1.427 . S
N918 C915 1.384 . S
N919 C911 1.427 . S
N919 C917 1.384 . S
H920 C926 0.930 . S
H921 C930 0.930 . S
H922 C935 0.929 . S
H923 C933 0.929 . S
H924 C928 0.928 . S
H925 C934 0.929 . S
C926 H920 0.930 . S
C926 C927 1.367 1_655 S
C926 C934 1.376 1_565 S
C927 C926 1.367 1_455 S
C927 C935 1.433 . S
C928 H924 0.928 . S
C928 C930 1.379 1_565 S
C928 C932 1.350 1_565 S
C929 C932 1.463 1_565 S
C929 C934 1.351 1_465 S
C929 N937 1.427 . S
C930 H921 0.930 . S
C930 C928 1.379 1_545 S
C930 C931 1.367 . S
C931 C930 1.367 . S
C931 C933 1.433 1_455 S
C932 C928 1.350 1_545 S
C932 C929 1.463 1_545 S
C932 N936 1.427 1_455 S
C933 H923 0.929 . S
C933 C931 1.433 1_655 S
C933 N936 1.384 . S
C934 H925 0.929 . S
C934 C926 1.376 1_545 S
C934 C929 1.351 1_645 S
C935 H922 0.929 . S
C935 C927 1.433 . S
C935 N937 1.384 . S
N936 C932 1.427 1_655 S
N936 C933 1.384 . S
N937 C929 1.427 . S
N937 C935 1.384 . S
H938 C944 0.930 . S
H939 C948 0.930 . S
H940 C953 0.929 . S
H941 C951 0.929 . S
H942 C946 0.929 . S
H943 C952 0.929 . S
C944 H938 0.930 . S
C944 C945 1.367 . S
C944 C952 1.378 . S
C945 C944 1.367 . S
C945 C953 1.433 . S
C946 H942 0.929 . S
C946 C948 1.378 . S
C946 C950 1.350 . S
C947 C950 1.463 . S
C947 C952 1.350 . S
C947 N955 1.427 . S
C948 H939 0.930 . S
C948 C946 1.378 . S
C948 C949 1.367 . S
C949 C948 1.367 . S
C949 C951 1.433 . S
C950 C946 1.350 . S
C950 C947 1.463 . S
C950 N954 1.427 . S
C951 H941 0.929 . S
C951 C949 1.433 . S
C951 N954 1.384 . S
C952 H943 0.929 . S
C952 C944 1.378 . S
C952 C947 1.350 . S
C953 H940 0.929 . S
C953 C945 1.433 . S
C953 N955 1.384 . S
N954 C950 1.427 . S
N954 C951 1.384 . S
N955 C947 1.427 . S
N955 C953 1.384 . S
H956 C962 0.930 . S
H957 C966 0.930 . S
H958 C971 0.929 . S
H959 C969 0.929 . S
H960 C964 0.929 . S
H961 C970 0.929 . S
C962 H956 0.930 . S
C962 C963 1.367 1_565 S
C962 C970 1.378 . S
C963 C962 1.367 1_545 S
C963 C971 1.433 . S
C964 H960 0.929 . S
C964 C966 1.378 . S
C964 C968 1.350 . S
C965 C968 1.463 . S
C965 C970 1.350 1_545 S
C965 N973 1.427 . S
C966 H957 0.930 . S
C966 C964 1.378 . S
C966 C967 1.367 1_545 S
C967 C966 1.367 1_565 S
C967 C969 1.433 . S
C968 C964 1.350 . S
C968 C965 1.463 . S
C968 N972 1.427 1_545 S
C969 H959 0.929 . S
C969 C967 1.433 . S
C969 N972 1.384 . S
C970 H961 0.929 . S
C970 C962 1.378 . S
C970 C965 1.350 1_565 S
C971 H958 0.929 . S
C971 C963 1.433 . S
C971 N973 1.384 . S
N972 C968 1.427 1_565 S
N972 C969 1.384 . S
N973 C965 1.427 . S
N973 C971 1.384 . S
H974 C980 0.930 . S
H975 C984 0.930 . S
H976 C989 0.929 . S
H977 C987 0.929 . S
H978 C982 0.929 . S
H979 C988 0.929 . S
C980 H974 0.930 . S
C980 C981 1.367 . S
C980 C988 1.378 . S
C981 C980 1.367 . S
C981 C989 1.433 . S
C982 H978 0.929 . S
C982 C984 1.378 . S
C982 C986 1.350 . S
C983 C986 1.451 1_554 S
C983 C988 1.356 . S
C983 N991 1.432 . S
C984 H975 0.930 . S
C984 C982 1.378 . S
C984 C985 1.367 . S
C985 C984 1.367 . S
C985 C987 1.433 . S
C986 C982 1.350 . S
C986 C983 1.451 1_556 S
C986 N990 1.427 . S
C987 H977 0.929 . S
C987 C985 1.433 . S
C987 N990 1.384 . S
C988 H979 0.929 . S
C988 C980 1.378 . S
C988 C983 1.356 . S
C989 H976 0.929 . S
C989 C981 1.433 . S
C989 N991 1.384 . S
N990 C986 1.427 . S
N990 C987 1.384 . S
N991 C983 1.432 . S
N991 C989 1.384 . S
H992 C998 0.930 . S
H993 C1002 0.930 . S
H994 C1007 0.929 . S
H995 C1005 0.929 . S
H996 C1000 0.929 . S
H997 C1006 0.929 . S
C998 H992 0.930 . S
C998 C999 1.367 . S
C998 C1006 1.378 . S
C999 C998 1.367 . S
C999 C1007 1.433 . S
C1000 H996 0.929 . S
C1000 C1002 1.378 . S
C1000 C1004 1.350 . S
C1001 C1004 1.463 . S
C1001 C1006 1.350 . S
C1001 N1009 1.427 . S
C1002 H993 0.930 . S
C1002 C1000 1.378 . S
C1002 C1003 1.367 . S
C1003 C1002 1.367 . S
C1003 C1005 1.433 . S
C1004 C1000 1.350 . S
C1004 C1001 1.463 . S
C1004 N1008 1.427 . S
C1005 H995 0.929 . S
C1005 C1003 1.433 . S
C1005 N1008 1.384 . S
C1006 H997 0.929 . S
C1006 C998 1.378 . S
C1006 C1001 1.350 . S
C1007 H994 0.929 . S
C1007 C999 1.433 . S
C1007 N1009 1.384 . S
N1008 C1004 1.427 . S
N1008 C1005 1.384 . S
N1009 C1001 1.427 . S
N1009 C1007 1.384 . S
H1010 C1016 0.930 . S
H1011 C1020 0.930 . S
H1012 C1025 0.929 . S
H1013 C1023 0.929 . S
H1014 C1018 0.929 . S
H1015 C1024 0.929 . S
C1016 H1010 0.930 . S
C1016 C1017 1.367 . S
C1016 C1024 1.378 . S
C1017 C1016 1.367 . S
C1017 C1025 1.433 . S
C1018 H1014 0.929 . S
C1018 C1020 1.378 . S
C1018 C1022 1.350 . S
C1019 C1022 1.463 1_556 S
C1019 C1024 1.350 . S
C1019 N1027 1.427 . S
C1020 H1011 0.930 . S
C1020 C1018 1.378 . S
C1020 C1021 1.367 . S
C1021 C1020 1.367 . S
C1021 C1023 1.433 . S
C1022 C1018 1.350 . S
C1022 C1019 1.463 1_554 S
C1022 N1026 1.427 . S
C1023 H1013 0.929 . S
C1023 C1021 1.433 . S
C1023 N1026 1.384 . S
C1024 H1015 0.929 . S
C1024 C1016 1.378 . S
C1024 C1019 1.350 . S
C1025 H1012 0.929 . S
C1025 C1017 1.433 . S
C1025 N1027 1.384 . S
N1026 C1022 1.427 . S
N1026 C1023 1.384 . S
N1027 C1019 1.427 . S
N1027 C1025 1.384 . S
H1028 C1034 0.930 . S
H1029 C1038 0.930 . S
H1030 C1043 0.929 . S
H1031 C1041 0.929 . S
H1032 C1036 0.929 . S
H1033 C1042 0.929 . S
C1034 H1028 0.930 . S
C1034 C1035 1.367 . S
C1034 C1042 1.378 . S
C1035 C1034 1.367 . S
C1035 C1043 1.433 1_455 S
C1036 H1032 0.929 . S
C1036 C1038 1.378 . S
C1036 C1040 1.350 1_655 S
C1037 C1040 1.463 . S
C1037 C1042 1.350 . S
C1037 N1045 1.427 1_455 S
C1038 H1029 0.930 . S
C1038 C1036 1.378 . S
C1038 C1039 1.367 1_655 S
C1039 C1038 1.367 1_455 S
C1039 C1041 1.433 . S
C1040 C1036 1.350 1_455 S
C1040 C1037 1.463 . S
C1040 N1044 1.427 . S
C1041 H1031 0.929 . S
C1041 C1039 1.433 . S
C1041 N1044 1.384 . S
C1042 H1033 0.929 . S
C1042 C1034 1.378 . S
C1042 C1037 1.350 . S
C1043 H1030 0.929 . S
C1043 C1035 1.433 1_655 S
C1043 N1045 1.384 . S
N1044 C1040 1.427 . S
N1044 C1041 1.384 . S
N1045 C1037 1.427 1_655 S
N1045 C1043 1.384 . S
H1046 C1052 0.930 . S
H1047 C1056 0.930 . S
H1048 C1061 0.929 . S
H1049 C1059 0.929 . S
H1050 C1054 0.929 . S
H1051 C1060 0.929 . S
C1052 H1046 0.930 . S
C1052 C1053 1.367 . S
C1052 C1060 1.378 . S
C1053 C1052 1.367 . S
C1053 C1061 1.433 . S
C1054 H1050 0.929 . S
C1054 C1056 1.378 . S
C1054 C1058 1.350 . S
C1055 C1058 1.463 . S
C1055 C1060 1.350 . S
C1055 N1063 1.427 . S
C1056 H1047 0.930 . S
C1056 C1054 1.378 . S
C1056 C1057 1.367 . S
C1057 C1056 1.367 . S
C1057 C1059 1.433 . S
C1058 C1054 1.350 . S
C1058 C1055 1.463 . S
C1058 N1062 1.427 . S
C1059 H1049 0.929 . S
C1059 C1057 1.433 . S
C1059 N1062 1.384 . S
C1060 H1051 0.929 . S
C1060 C1052 1.378 . S
C1060 C1055 1.350 . S
C1061 H1048 0.929 . S
C1061 C1053 1.433 . S
C1061 N1063 1.384 . S
N1062 C1058 1.427 . S
N1062 C1059 1.384 . S
N1063 C1055 1.427 . S
N1063 C1061 1.384 . S
H1064 C1070 0.930 . S
H1065 C1074 0.930 . S
H1066 C1079 0.929 . S
H1067 C1077 0.929 . S
H1068 C1072 0.929 . S
H1069 C1078 0.929 . S
C1070 H1064 0.930 . S
C1070 C1071 1.367 . S
C1070 C1078 1.378 . S
C1071 C1070 1.367 . S
C1071 C1079 1.433 . S
C1072 H1068 0.929 . S
C1072 C1074 1.378 . S
C1072 C1076 1.350 . S
C1073 C1076 1.463 . S
C1073 C1078 1.350 . S
C1073 N1081 1.427 . S
C1074 H1065 0.930 . S
C1074 C1072 1.378 . S
C1074 C1075 1.367 . S
C1075 C1074 1.367 . S
C1075 C1077 1.433 . S
C1076 C1072 1.350 . S
C1076 C1073 1.463 . S
C1076 N1080 1.427 . S
C1077 H1067 0.929 . S
C1077 C1075 1.433 . S
C1077 N1080 1.384 . S
C1078 H1069 0.929 . S
C1078 C1070 1.378 . S
C1078 C1073 1.350 . S
C1079 H1066 0.929 . S
C1079 C1071 1.433 . S
C1079 N1081 1.384 . S
N1080 C1076 1.427 . S
N1080 C1077 1.384 . S
N1081 C1073 1.427 . S
N1081 C1079 1.384 . S
H1082 C1088 0.930 . S
H1083 C1092 0.930 . S
H1084 C1097 0.929 . S
H1085 C1095 0.929 . S
H1086 C1090 0.929 . S
H1087 C1096 0.929 . S
C1088 H1082 0.930 . S
C1088 C1089 1.367 . S
C1088 C1096 1.378 . S
C1089 C1088 1.367 . S
C1089 C1097 1.433 . S
C1090 H1086 0.929 . S
C1090 C1092 1.378 . S
C1090 C1094 1.350 . S
C1091 C1094 1.463 1_554 S
C1091 C1096 1.350 . S
C1091 N1099 1.427 . S
C1092 H1083 0.930 . S
C1092 C1090 1.378 . S
C1092 C1093 1.367 . S
C1093 C1092 1.367 . S
C1093 C1095 1.433 . S
C1094 C1090 1.350 . S
C1094 C1091 1.463 1_556 S
C1094 N1098 1.427 . S
C1095 H1085 0.929 . S
C1095 C1093 1.433 . S
C1095 N1098 1.384 . S
C1096 H1087 0.929 . S
C1096 C1088 1.378 . S
C1096 C1091 1.350 . S
C1097 H1084 0.929 . S
C1097 C1089 1.433 . S
C1097 N1099 1.384 . S
N1098 C1094 1.427 . S
N1098 C1095 1.384 . S
N1099 C1091 1.427 . S
N1099 C1097 1.384 . S
H1100 C1106 0.930 . S
H1101 C1110 0.930 . S
H1102 C1115 0.929 . S
H1103 C1113 0.929 . S
H1104 C1108 0.929 . S
H1105 C1114 0.929 . S
C1106 H1100 0.930 . S
C1106 C1107 1.367 . S
C1106 C1114 1.378 . S
C1107 C1106 1.367 . S
C1107 C1115 1.433 1_655 S
C1108 H1104 0.929 . S
C1108 C1110 1.378 . S
C1108 C1112 1.350 1_455 S
C1109 C1112 1.463 . S
C1109 C1114 1.350 . S
C1109 N1117 1.427 1_655 S
C1110 H1101 0.930 . S
C1110 C1108 1.378 . S
C1110 C1111 1.367 1_455 S
C1111 C1110 1.367 1_655 S
C1111 C1113 1.433 . S
C1112 C1108 1.350 1_655 S
C1112 C1109 1.463 . S
C1112 N1116 1.427 . S
C1113 H1103 0.929 . S
C1113 C1111 1.433 . S
C1113 N1116 1.384 . S
C1114 H1105 0.929 . S
C1114 C1106 1.378 . S
C1114 C1109 1.350 . S
C1115 H1102 0.929 . S
C1115 C1107 1.433 1_455 S
C1115 N1117 1.384 . S
N1116 C1112 1.427 . S
N1116 C1113 1.384 . S
N1117 C1109 1.427 1_455 S
N1117 C1115 1.384 . S
H1118 C1124 0.930 . S
H1119 C1128 0.930 . S
H1120 C1133 0.929 . S
H1121 C1131 0.929 . S
H1122 C1126 0.929 . S
H1123 C1132 0.929 . S
C1124 H1118 0.930 . S
C1124 C1125 1.367 . S
C1124 C1132 1.378 . S
C1125 C1124 1.367 . S
C1125 C1133 1.433 . S
C1126 H1122 0.929 . S
C1126 C1128 1.378 . S
C1126 C1130 1.350 . S
C1127 C1130 1.463 . S
C1127 C1132 1.350 . S
C1127 N1135 1.427 . S
C1128 H1119 0.930 . S
C1128 C1126 1.378 . S
C1128 C1129 1.367 . S
C1129 C1128 1.367 . S
C1129 C1131 1.433 . S
C1130 C1126 1.350 . S
C1130 C1127 1.463 . S
C1130 N1134 1.427 . S
C1131 H1121 0.929 . S
C1131 C1129 1.433 . S
C1131 N1134 1.384 . S
C1132 H1123 0.929 . S
C1132 C1124 1.378 . S
C1132 C1127 1.350 . S
C1133 H1120 0.929 . S
C1133 C1125 1.433 . S
C1133 N1135 1.384 . S
N1134 C1130 1.427 . S
N1134 C1131 1.384 . S
N1135 C1127 1.427 . S
N1135 C1133 1.384 . S
H1136 C1142 0.930 . S
H1137 C1146 0.930 . S
H1138 C1151 0.929 . S
H1139 C1149 0.929 . S
H1140 C1144 0.929 . S
H1141 C1150 0.929 . S
C1142 H1136 0.930 . S
C1142 C1143 1.367 . S
C1142 C1150 1.378 . S
C1143 C1142 1.367 . S
C1143 C1151 1.433 . S
C1144 H1140 0.929 . S
C1144 C1146 1.378 . S
C1144 C1148 1.350 . S
C1145 C1148 1.463 . S
C1145 C1150 1.350 . S
C1145 N1153 1.427 . S
C1146 H1137 0.930 . S
C1146 C1144 1.378 . S
C1146 C1147 1.367 . S
C1147 C1146 1.367 . S
C1147 C1149 1.433 . S
C1148 C1144 1.350 . S
C1148 C1145 1.463 . S
C1148 N1152 1.427 . S
C1149 H1139 0.929 . S
C1149 C1147 1.433 . S
C1149 N1152 1.384 . S
C1150 H1141 0.929 . S
C1150 C1142 1.378 . S
C1150 C1145 1.350 . S
C1151 H1138 0.929 . S
C1151 C1143 1.433 . S
C1151 N1153 1.384 . S
N1152 C1148 1.427 . S
N1152 C1149 1.384 . S
N1153 C1145 1.427 . S
N1153 C1151 1.384 . S
H1154 C1160 0.930 . S
H1155 C1164 0.930 . S
H1156 C1169 0.929 . S
H1157 C1167 0.929 . S
H1158 C1162 0.929 . S
H1159 C1168 0.929 . S
C1160 H1154 0.930 . S
C1160 C1161 1.367 . S
C1160 C1168 1.378 . S
C1161 C1160 1.367 . S
C1161 C1169 1.433 . S
C1162 H1158 0.929 . S
C1162 C1164 1.378 . S
C1162 C1166 1.350 . S
C1163 C1166 1.463 . S
C1163 C1168 1.350 . S
C1163 N1171 1.427 . S
C1164 H1155 0.930 . S
C1164 C1162 1.378 . S
C1164 C1165 1.367 . S
C1165 C1164 1.367 . S
C1165 C1167 1.433 . S
C1166 C1162 1.350 . S
C1166 C1163 1.463 . S
C1166 N1170 1.427 . S
C1167 H1157 0.929 . S
C1167 C1165 1.433 . S
C1167 N1170 1.384 . S
C1168 H1159 0.929 . S
C1168 C1160 1.378 . S
C1168 C1163 1.350 . S
C1169 H1156 0.929 . S
C1169 C1161 1.433 . S
C1169 N1171 1.384 . S
N1170 C1166 1.427 . S
N1170 C1167 1.384 . S
N1171 C1163 1.427 . S
N1171 C1169 1.384 . S
H1172 C1178 0.930 . S
H1173 C1182 0.930 . S
H1174 C1187 0.929 . S
H1175 C1185 0.929 . S
H1176 C1180 0.929 . S
H1177 C1186 0.929 . S
C1178 H1172 0.930 . S
C1178 C1179 1.367 . S
C1178 C1186 1.378 . S
C1179 C1178 1.367 . S
C1179 C1187 1.433 . S
C1180 H1176 0.929 . S
C1180 C1182 1.378 . S
C1180 C1184 1.350 . S
C1181 C1184 1.463 . S
C1181 C1186 1.350 . S
C1181 N1189 1.427 . S
C1182 H1173 0.930 . S
C1182 C1180 1.378 . S
C1182 C1183 1.367 . S
C1183 C1182 1.367 . S
C1183 C1185 1.433 . S
C1184 C1180 1.350 . S
C1184 C1181 1.463 . S
C1184 N1188 1.427 . S
C1185 H1175 0.929 . S
C1185 C1183 1.433 . S
C1185 N1188 1.384 . S
C1186 H1177 0.929 . S
C1186 C1178 1.378 . S
C1186 C1181 1.350 . S
C1187 H1174 0.929 . S
C1187 C1179 1.433 . S
C1187 N1189 1.384 . S
N1188 C1184 1.427 . S
N1188 C1185 1.384 . S
N1189 C1181 1.427 . S
N1189 C1187 1.384 . S
H1190 C1196 0.930 . S
H1191 C1200 0.930 . S
H1192 C1205 0.929 . S
H1193 C1203 0.929 . S
H1194 C1198 0.929 . S
H1195 C1204 0.929 . S
C1196 H1190 0.930 . S
C1196 C1197 1.367 . S
C1196 C1204 1.378 . S
C1197 C1196 1.367 . S
C1197 C1205 1.433 . S
C1198 H1194 0.929 . S
C1198 C1200 1.378 . S
C1198 C1202 1.350 . S
C1199 C1202 1.463 . S
C1199 C1204 1.350 . S
C1199 N1207 1.427 . S
C1200 H1191 0.930 . S
C1200 C1198 1.378 . S
C1200 C1201 1.367 . S
C1201 C1200 1.367 . S
C1201 C1203 1.433 . S
C1202 C1198 1.350 . S
C1202 C1199 1.463 . S
C1202 N1206 1.427 . S
C1203 H1193 0.929 . S
C1203 C1201 1.433 . S
C1203 N1206 1.384 . S
C1204 H1195 0.929 . S
C1204 C1196 1.378 . S
C1204 C1199 1.350 . S
C1205 H1192 0.929 . S
C1205 C1197 1.433 . S
C1205 N1207 1.384 . S
N1206 C1202 1.427 . S
N1206 C1203 1.384 . S
N1207 C1199 1.427 . S
N1207 C1205 1.384 . S
H1208 C1214 0.930 . S
H1209 C1218 0.930 . S
H1210 C1223 0.929 . S
H1211 C1221 0.929 . S
H1212 C1216 0.929 . S
H1213 C1222 0.929 . S
C1214 H1208 0.930 . S
C1214 C1215 1.367 . S
C1214 C1222 1.378 . S
C1215 C1214 1.367 . S
C1215 C1223 1.433 . S
C1216 H1212 0.929 . S
C1216 C1218 1.378 . S
C1216 C1220 1.350 . S
C1217 C1220 1.463 . S
C1217 C1222 1.350 . S
C1217 N1225 1.427 . S
C1218 H1209 0.930 . S
C1218 C1216 1.378 . S
C1218 C1219 1.367 . S
C1219 C1218 1.367 . S
C1219 C1221 1.433 . S
C1220 C1216 1.350 . S
C1220 C1217 1.463 . S
C1220 N1224 1.427 . S
C1221 H1211 0.929 . S
C1221 C1219 1.433 . S
C1221 N1224 1.384 . S
C1222 H1213 0.929 . S
C1222 C1214 1.378 . S
C1222 C1217 1.350 . S
C1223 H1210 0.929 . S
C1223 C1215 1.433 . S
C1223 N1225 1.384 . S
N1224 C1220 1.427 . S
N1224 C1221 1.384 . S
N1225 C1217 1.427 . S
N1225 C1223 1.384 . S
H1226 C1232 0.930 . S
H1227 C1236 0.930 . S
H1228 C1241 0.929 . S
H1229 C1239 0.929 . S
H1230 C1234 0.929 . S
H1231 C1240 0.929 . S
C1232 H1226 0.930 . S
C1232 C1233 1.367 . S
C1232 C1240 1.378 . S
C1233 C1232 1.367 . S
C1233 C1241 1.433 . S
C1234 H1230 0.929 . S
C1234 C1236 1.378 . S
C1234 C1238 1.350 . S
C1235 C1238 1.463 . S
C1235 C1240 1.350 . S
C1235 N1243 1.427 . S
C1236 H1227 0.930 . S
C1236 C1234 1.378 . S
C1236 C1237 1.367 . S
C1237 C1236 1.367 . S
C1237 C1239 1.433 . S
C1238 C1234 1.350 . S
C1238 C1235 1.463 . S
C1238 N1242 1.427 . S
C1239 H1229 0.929 . S
C1239 C1237 1.433 . S
C1239 N1242 1.384 . S
C1240 H1231 0.929 . S
C1240 C1232 1.378 . S
C1240 C1235 1.350 . S
C1241 H1228 0.929 . S
C1241 C1233 1.433 . S
C1241 N1243 1.384 . S
N1242 C1238 1.427 . S
N1242 C1239 1.384 . S
N1243 C1235 1.427 . S
N1243 C1241 1.384 . S
H1244 C1250 0.930 . S
H1245 C1254 0.930 . S
H1246 C1259 0.929 . S
H1247 C1257 0.929 . S
H1248 C1252 0.929 . S
H1249 C1258 0.929 . S
C1250 H1244 0.930 . S
C1250 C1251 1.367 . S
C1250 C1258 1.378 . S
C1251 C1250 1.367 . S
C1251 C1259 1.433 . S
C1252 H1248 0.929 . S
C1252 C1254 1.378 . S
C1252 C1256 1.350 . S
C1253 C1256 1.463 . S
C1253 C1258 1.350 . S
C1253 N1261 1.427 . S
C1254 H1245 0.930 . S
C1254 C1252 1.378 . S
C1254 C1255 1.367 . S
C1255 C1254 1.367 . S
C1255 C1257 1.433 . S
C1256 C1252 1.350 . S
C1256 C1253 1.463 . S
C1256 N1260 1.427 . S
C1257 H1247 0.929 . S
C1257 C1255 1.433 . S
C1257 N1260 1.384 . S
C1258 H1249 0.929 . S
C1258 C1250 1.378 . S
C1258 C1253 1.350 . S
C1259 H1246 0.929 . S
C1259 C1251 1.433 . S
C1259 N1261 1.384 . S
N1260 C1256 1.427 . S
N1260 C1257 1.384 . S
N1261 C1253 1.427 . S
N1261 C1259 1.384 . S
H1262 C1268 0.930 . S
H1263 C1272 0.930 . S
H1264 C1277 0.929 . S
H1265 C1275 0.929 . S
H1266 C1270 0.929 . S
H1267 C1276 0.929 . S
C1268 H1262 0.930 . S
C1268 C1269 1.367 . S
C1268 C1276 1.378 . S
C1269 C1268 1.367 . S
C1269 C1277 1.433 . S
C1270 H1266 0.929 . S
C1270 C1272 1.378 . S
C1270 C1274 1.350 . S
C1271 C1274 1.463 . S
C1271 C1276 1.350 . S
C1271 N1279 1.427 . S
C1272 H1263 0.930 . S
C1272 C1270 1.378 . S
C1272 C1273 1.367 . S
C1273 C1272 1.367 . S
C1273 C1275 1.433 . S
C1274 C1270 1.350 . S
C1274 C1271 1.463 . S
C1274 N1278 1.427 . S
C1275 H1265 0.929 . S
C1275 C1273 1.433 . S
C1275 N1278 1.384 . S
C1276 H1267 0.929 . S
C1276 C1268 1.378 . S
C1276 C1271 1.350 . S
C1277 H1264 0.929 . S
C1277 C1269 1.433 . S
C1277 N1279 1.384 . S
N1278 C1274 1.427 . S
N1278 C1275 1.384 . S
N1279 C1271 1.427 . S
N1279 C1277 1.384 . S
H1280 C1286 0.930 . S
H1281 C1290 0.930 . S
H1282 C1295 0.929 . S
H1283 C1293 0.929 . S
H1284 C1288 0.929 . S
H1285 C1294 0.929 . S
C1286 H1280 0.930 . S
C1286 C1287 1.367 . S
C1286 C1294 1.378 . S
C1287 C1286 1.367 . S
C1287 C1295 1.433 . S
C1288 H1284 0.929 . S
C1288 C1290 1.378 . S
C1288 C1292 1.350 . S
C1289 C1292 1.463 . S
C1289 C1294 1.350 . S
C1289 N1297 1.427 . S
C1290 H1281 0.930 . S
C1290 C1288 1.378 . S
C1290 C1291 1.367 . S
C1291 C1290 1.367 . S
C1291 C1293 1.433 . S
C1292 C1288 1.350 . S
C1292 C1289 1.463 . S
C1292 N1296 1.427 . S
C1293 H1283 0.929 . S
C1293 C1291 1.433 . S
C1293 N1296 1.384 . S
C1294 H1285 0.929 . S
C1294 C1286 1.378 . S
C1294 C1289 1.350 . S
C1295 H1282 0.929 . S
C1295 C1287 1.433 . S
C1295 N1297 1.384 . S
N1296 C1292 1.427 . S
N1296 C1293 1.384 . S
N1297 C1289 1.427 . S
N1297 C1295 1.384 . S
H1298 C1304 0.930 . S
H1299 C1308 0.930 . S
H1300 C1313 0.929 . S
H1301 C1311 0.929 . S
H1302 C1306 0.929 . S
H1303 C1312 0.929 . S
C1304 H1298 0.930 . S
C1304 C1305 1.367 . S
C1304 C1312 1.378 . S
C1305 C1304 1.367 . S
C1305 C1313 1.433 . S
C1306 H1302 0.929 . S
C1306 C1308 1.378 . S
C1306 C1310 1.350 . S
C1307 C1310 1.463 . S
C1307 C1312 1.350 . S
C1307 N1315 1.427 . S
C1308 H1299 0.930 . S
C1308 C1306 1.378 . S
C1308 C1309 1.367 . S
C1309 C1308 1.367 . S
C1309 C1311 1.433 . S
C1310 C1306 1.350 . S
C1310 C1307 1.463 . S
C1310 N1314 1.427 . S
C1311 H1301 0.929 . S
C1311 C1309 1.433 . S
C1311 N1314 1.384 . S
C1312 H1303 0.929 . S
C1312 C1304 1.378 . S
C1312 C1307 1.350 . S
C1313 H1300 0.929 . S
C1313 C1305 1.433 . S
C1313 N1315 1.384 . S
N1314 C1310 1.427 . S
N1314 C1311 1.384 . S
N1315 C1307 1.427 . S
N1315 C1313 1.384 . S
H1316 C1322 0.930 . S
H1317 C1326 0.930 . S
H1318 C1331 0.929 . S
H1319 C1329 0.929 . S
H1320 C1324 0.929 . S
H1321 C1330 0.929 . S
C1322 H1316 0.930 . S
C1322 C1323 1.367 . S
C1322 C1330 1.378 . S
C1323 C1322 1.367 . S
C1323 C1331 1.433 . S
C1324 H1320 0.929 . S
C1324 C1326 1.378 . S
C1324 C1328 1.350 . S
C1325 C1328 1.463 . S
C1325 C1330 1.350 . S
C1325 N1333 1.427 . S
C1326 H1317 0.930 . S
C1326 C1324 1.378 . S
C1326 C1327 1.367 . S
C1327 C1326 1.367 . S
C1327 C1329 1.433 . S
C1328 C1324 1.350 . S
C1328 C1325 1.463 . S
C1328 N1332 1.427 . S
C1329 H1319 0.929 . S
C1329 C1327 1.433 . S
C1329 N1332 1.384 . S
C1330 H1321 0.929 . S
C1330 C1322 1.378 . S
C1330 C1325 1.350 . S
C1331 H1318 0.929 . S
C1331 C1323 1.433 . S
C1331 N1333 1.384 . S
N1332 C1328 1.427 . S
N1332 C1329 1.384 . S
N1333 C1325 1.427 . S
N1333 C1331 1.384 . S
H1334 C1340 0.930 . S
H1335 C1344 0.930 . S
H1336 C1349 0.929 . S
H1337 C1347 0.929 . S
H1338 C1342 0.929 . S
H1339 C1348 0.929 . S
C1340 H1334 0.930 . S
C1340 C1341 1.367 . S
C1340 C1348 1.378 . S
C1341 C1340 1.367 . S
C1341 C1349 1.433 . S
C1342 H1338 0.929 . S
C1342 C1344 1.378 . S
C1342 C1346 1.350 . S
C1343 C1346 1.463 . S
C1343 C1348 1.350 . S
C1343 N1351 1.427 . S
C1344 H1335 0.930 . S
C1344 C1342 1.378 . S
C1344 C1345 1.367 . S
C1345 C1344 1.367 . S
C1345 C1347 1.433 . S
C1346 C1342 1.350 . S
C1346 C1343 1.463 . S
C1346 N1350 1.427 . S
C1347 H1337 0.929 . S
C1347 C1345 1.433 . S
C1347 N1350 1.384 . S
C1348 H1339 0.929 . S
C1348 C1340 1.378 . S
C1348 C1343 1.350 . S
C1349 H1336 0.929 . S
C1349 C1341 1.433 . S
C1349 N1351 1.384 . S
N1350 C1346 1.427 . S
N1350 C1347 1.384 . S
N1351 C1343 1.427 . S
N1351 C1349 1.384 . S
H1352 C1358 0.930 . S
H1353 C1362 0.930 . S
H1354 C1367 0.929 . S
H1355 C1365 0.929 . S
H1356 C1360 0.929 . S
H1357 C1366 0.929 . S
C1358 H1352 0.930 . S
C1358 C1359 1.367 . S
C1358 C1366 1.378 . S
C1359 C1358 1.367 . S
C1359 C1367 1.433 . S
C1360 H1356 0.929 . S
C1360 C1362 1.378 . S
C1360 C1364 1.350 . S
C1361 C1364 1.463 . S
C1361 C1366 1.350 . S
C1361 N1369 1.427 . S
C1362 H1353 0.930 . S
C1362 C1360 1.378 . S
C1362 C1363 1.367 . S
C1363 C1362 1.367 . S
C1363 C1365 1.433 . S
C1364 C1360 1.350 . S
C1364 C1361 1.463 . S
C1364 N1368 1.427 . S
C1365 H1355 0.929 . S
C1365 C1363 1.433 . S
C1365 N1368 1.384 . S
C1366 H1357 0.929 . S
C1366 C1358 1.378 . S
C1366 C1361 1.350 . S
C1367 H1354 0.929 . S
C1367 C1359 1.433 . S
C1367 N1369 1.384 . S
N1368 C1364 1.427 . S
N1368 C1365 1.384 . S
N1369 C1361 1.427 . S
N1369 C1367 1.384 . S
H1370 C1376 0.930 . S
H1371 C1380 0.930 . S
H1372 C1385 0.929 . S
H1373 C1383 0.929 . S
H1374 C1378 0.929 . S
H1375 C1384 0.929 . S
C1376 H1370 0.930 . S
C1376 C1377 1.367 . S
C1376 C1384 1.378 . S
C1377 C1376 1.367 . S
C1377 C1385 1.433 . S
C1378 H1374 0.929 . S
C1378 C1380 1.378 . S
C1378 C1382 1.350 . S
C1379 C1382 1.463 . S
C1379 C1384 1.350 . S
C1379 N1387 1.427 . S
C1380 H1371 0.930 . S
C1380 C1378 1.378 . S
C1380 C1381 1.367 . S
C1381 C1380 1.367 . S
C1381 C1383 1.433 . S
C1382 C1378 1.350 . S
C1382 C1379 1.463 . S
C1382 N1386 1.427 . S
C1383 H1373 0.929 . S
C1383 C1381 1.433 . S
C1383 N1386 1.384 . S
C1384 H1375 0.929 . S
C1384 C1376 1.378 . S
C1384 C1379 1.350 . S
C1385 H1372 0.929 . S
C1385 C1377 1.433 . S
C1385 N1387 1.384 . S
N1386 C1382 1.427 . S
N1386 C1383 1.384 . S
N1387 C1379 1.427 . S
N1387 C1385 1.384 . S
H1388 C1394 0.930 . S
H1389 C1398 0.930 . S
H1390 C1403 0.929 . S
H1391 C1401 0.929 . S
H1392 C1396 0.929 . S
H1393 C1402 0.929 . S
C1394 H1388 0.930 . S
C1394 C1395 1.367 . S
C1394 C1402 1.378 . S
C1395 C1394 1.367 . S
C1395 C1403 1.433 . S
C1396 H1392 0.929 . S
C1396 C1398 1.378 . S
C1396 C1400 1.350 . S
C1397 C1400 1.463 . S
C1397 C1402 1.350 . S
C1397 N1405 1.427 . S
C1398 H1389 0.930 . S
C1398 C1396 1.378 . S
C1398 C1399 1.367 . S
C1399 C1398 1.367 . S
C1399 C1401 1.433 . S
C1400 C1396 1.350 . S
C1400 C1397 1.463 . S
C1400 N1404 1.427 . S
C1401 H1391 0.929 . S
C1401 C1399 1.433 . S
C1401 N1404 1.384 . S
C1402 H1393 0.929 . S
C1402 C1394 1.378 . S
C1402 C1397 1.350 . S
C1403 H1390 0.929 . S
C1403 C1395 1.433 . S
C1403 N1405 1.384 . S
N1404 C1400 1.427 . S
N1404 C1401 1.384 . S
N1405 C1397 1.427 . S
N1405 C1403 1.384 . S
H1406 C1412 0.930 . S
H1407 C1416 0.930 . S
H1408 C1421 0.929 . S
H1409 C1419 0.929 . S
H1410 C1414 0.929 . S
H1411 C1420 0.929 . S
C1412 H1406 0.930 . S
C1412 C1413 1.367 . S
C1412 C1420 1.378 . S
C1413 C1412 1.367 . S
C1413 C1421 1.433 . S
C1414 H1410 0.929 . S
C1414 C1416 1.378 . S
C1414 C1418 1.350 . S
C1415 C1418 1.463 . S
C1415 C1420 1.350 . S
C1415 N1423 1.427 . S
C1416 H1407 0.930 . S
C1416 C1414 1.378 . S
C1416 C1417 1.367 . S
C1417 C1416 1.367 . S
C1417 C1419 1.433 . S
C1418 C1414 1.350 . S
C1418 C1415 1.463 . S
C1418 N1422 1.427 . S
C1419 H1409 0.929 . S
C1419 C1417 1.433 . S
C1419 N1422 1.384 . S
C1420 H1411 0.929 . S
C1420 C1412 1.378 . S
C1420 C1415 1.350 . S
C1421 H1408 0.929 . S
C1421 C1413 1.433 . S
C1421 N1423 1.384 . S
N1422 C1418 1.427 . S
N1422 C1419 1.384 . S
N1423 C1415 1.427 . S
N1423 C1421 1.384 . S
C855 C38 2.154 . S
C859 C251 2.154 . S
C873 C82 0.554 . S
C877 C294 0.546 . S
C891 C347 0.507 . S
C895 C135 0.506 . S
C909 C188 1.322 . S
C913 C410 1.325 . S
C927 C250 2.155 . S
C931 C39 2.156 . S
C945 C552 0.534 . S
C949 C446 0.536 . S
C963 C340 0.496 . S
C967 C128 0.492 . S
C981 C499 1.322 . S
C985 C621 1.322 . S
C999 C674 1.359 . S
C1003 C764 1.361 . S
C1017 C453 0.501 . S
C1021 C559 0.494 . S
C1035 C718 0.501 . S
C1039 C824 0.502 . S
C1053 C622 1.348 . S
C1057 C506 1.348 . S
C1071 C771 1.353 . S
C1075 C675 1.353 . S
C1089 C75 0.496 . S
C1093 C287 0.494 . S
C1107 C711 0.501 . S
C1111 C817 0.505 . S
C1125 C409 1.353 . S
C1129 C181 1.352 . S
C1143 C29 1.203 . S
C1147 C393 1.199 . S
C1161 C234 1.453 . S
C1165 C91 1.455 . S
C1179 C303 1.995 . S
C1183 C144 1.999 . S
C1197 C197 1.656 . S
C1201 C356 1.656 . S
C1215 C22 1.205 . S
C1219 C612 1.210 . S
C1233 C463 1.458 . S
C1237 C241 1.457 . S
C1251 C569 1.993 . S
C1255 C145 1.993 . S
C1269 C516 1.658 . S
C1273 C357 1.658 . S
C1287 C665 1.216 . S
C1291 C605 1.216 . S
C1305 C781 1.489 . S
C1309 C462 1.489 . S
C1323 C568 1.999 . S
C1327 C727 2.001 . S
C1341 C833 1.656 . S
C1345 C515 1.659 . S
C1359 C400 1.222 . S
C1363 C658 1.222 . S
C1377 C780 1.484 . S
C1381 C92 1.481 . S
C1395 C304 1.999 . S
C1399 C728 1.997 . S
C1413 C834 1.656 . S
C1417 C198 1.654 . S
