# Generated by pormake.
# Topology ure, (4)-cn, num edge types: 1
# Building blocks:
#     Node 0, Type 0, BuildingBlock: QUQFOY_clean_sbu_3, # of connection points: 4
#     Node 1, Type 0, BuildingBlock: QUQFOY_clean_sbu_3, # of connection points: 4
#     Node 2, Type 0, BuildingBlock: QUQFOY_clean_sbu_3, # of connection points: 4
#     Node 3, Type 0, BuildingBlock: QUQFOY_clean_sbu_3, # of connection points: 4
#     Node 4, Type 0, BuildingBlock: QUQFOY_clean_sbu_3, # of connection points: 4
#     Node 5, Type 0, BuildingBlock: QUQFOY_clean_sbu_3, # of connection points: 4
#     Node 6, Type 0, BuildingBlock: QUQFOY_clean_sbu_3, # of connection points: 4
#     Node 7, Type 0, BuildingBlock: QUQFOY_clean_sbu_3, # of connection points: 4
#     Node 8, Type 0, BuildingBlock: QUQFOY_clean_sbu_3, # of connection points: 4
#     Node 9, Type 0, BuildingBlock: QUQFOY_clean_sbu_3, # of connection points: 4
#     Node 10, Type 0, BuildingBlock: QUQFOY_clean_sbu_3, # of connection points: 4
#     Node 11, Type 0, BuildingBlock: QUQFOY_clean_sbu_3, # of connection points: 4
#     Node 12, Type 0, BuildingBlock: QUQFOY_clean_sbu_3, # of connection points: 4
#     Node 13, Type 0, BuildingBlock: QUQFOY_clean_sbu_3, # of connection points: 4
#     Node 14, Type 0, BuildingBlock: QUQFOY_clean_sbu_3, # of connection points: 4
#     Node 15, Type 0, BuildingBlock: QUQFOY_clean_sbu_3, # of connection points: 4
#     Edge 16, Type (0, 0), BuildingBlock: TEMPAE_clean_linker_10, # of connection points: 2
#     Edge 17, Type (0, 0), BuildingBlock: TEMPAE_clean_linker_10, # of connection points: 2
#     Edge 18, Type (0, 0), BuildingBlock: TEMPAE_clean_linker_10, # of connection points: 2
#     Edge 19, Type (0, 0), BuildingBlock: TEMPAE_clean_linker_10, # of connection points: 2
#     Edge 20, Type (0, 0), BuildingBlock: TEMPAE_clean_linker_10, # of connection points: 2
#     Edge 21, Type (0, 0), BuildingBlock: TEMPAE_clean_linker_10, # of connection points: 2
#     Edge 22, Type (0, 0), BuildingBlock: TEMPAE_clean_linker_10, # of connection points: 2
#     Edge 23, Type (0, 0), BuildingBlock: TEMPAE_clean_linker_10, # of connection points: 2
#     Edge 24, Type (0, 0), BuildingBlock: TEMPAE_clean_linker_10, # of connection points: 2
#     Edge 25, Type (0, 0), BuildingBlock: TEMPAE_clean_linker_10, # of connection points: 2
#     Edge 26, Type (0, 0), BuildingBlock: TEMPAE_clean_linker_10, # of connection points: 2
#     Edge 27, Type (0, 0), BuildingBlock: TEMPAE_clean_linker_10, # of connection points: 2
#     Edge 28, Type (0, 0), BuildingBlock: TEMPAE_clean_linker_10, # of connection points: 2
#     Edge 29, Type (0, 0), BuildingBlock: TEMPAE_clean_linker_10, # of connection points: 2
#     Edge 30, Type (0, 0), BuildingBlock: TEMPAE_clean_linker_10, # of connection points: 2
#     Edge 31, Type (0, 0), BuildingBlock: TEMPAE_clean_linker_10, # of connection points: 2
#     Edge 32, Type (0, 0), BuildingBlock: TEMPAE_clean_linker_10, # of connection points: 2
#     Edge 33, Type (0, 0), BuildingBlock: TEMPAE_clean_linker_10, # of connection points: 2
#     Edge 34, Type (0, 0), BuildingBlock: TEMPAE_clean_linker_10, # of connection points: 2
#     Edge 35, Type (0, 0), BuildingBlock: TEMPAE_clean_linker_10, # of connection points: 2
#     Edge 36, Type (0, 0), BuildingBlock: TEMPAE_clean_linker_10, # of connection points: 2
#     Edge 37, Type (0, 0), BuildingBlock: TEMPAE_clean_linker_10, # of connection points: 2
#     Edge 38, Type (0, 0), BuildingBlock: TEMPAE_clean_linker_10, # of connection points: 2
#     Edge 39, Type (0, 0), BuildingBlock: TEMPAE_clean_linker_10, # of connection points: 2
#     Edge 40, Type (0, 0), BuildingBlock: TEMPAE_clean_linker_10, # of connection points: 2
#     Edge 41, Type (0, 0), BuildingBlock: TEMPAE_clean_linker_10, # of connection points: 2
#     Edge 42, Type (0, 0), BuildingBlock: TEMPAE_clean_linker_10, # of connection points: 2
#     Edge 43, Type (0, 0), BuildingBlock: TEMPAE_clean_linker_10, # of connection points: 2
#     Edge 44, Type (0, 0), BuildingBlock: TEMPAE_clean_linker_10, # of connection points: 2
#     Edge 45, Type (0, 0), BuildingBlock: TEMPAE_clean_linker_10, # of connection points: 2
#     Edge 46, Type (0, 0), BuildingBlock: TEMPAE_clean_linker_10, # of connection points: 2
#     Edge 47, Type (0, 0), BuildingBlock: TEMPAE_clean_linker_10, # of connection points: 2
# Relax obj value: 0.238
# Max RMSD: 0.173
# Mean RMSD: 0.173
data_MOF--net-ure--node1-QUQFOY_clean_sbu_3--edge1-TEMPAE_clean_linker_10
_symmetry_space_group_name_H-M    P1
_symmetry_Int_Tables_number       1
_symmetry_cell_setting            triclinic
loop_
_symmetry_equiv_pos_as_xyz
'x, y, z'
_cell_length_a     33.804675
_cell_length_b     32.014838
_cell_length_c     32.032053
_cell_angle_alpha  89.865804
_cell_angle_beta   89.879655
_cell_angle_gamma 89.996203
loop_
_atom_site_label
_atom_site_type_symbol
_atom_site_fract_x
_atom_site_fract_y
_atom_site_fract_z
_atom_type_partial_charge
C0 C 0.38115 0.17868 0.27626 0.0
O1 O 0.37878 0.17701 0.31582 0.0
Cd2 Cd 0.32185 0.17228 0.35925 0.0
O3 O 0.35028 0.17508 0.25351 0.0
Cd4 Cd 0.2778 0.16193 0.26847 0.0
C5 C 0.27472 0.25684 0.31637 0.0
O6 O 0.28458 0.11789 0.32938 0.0
O7 O 0.22793 0.14683 0.32401 0.0
O8 O 0.26423 0.11236 0.21111 0.0
C9 C 0.25046 0.12284 0.34468 0.0
O10 O 0.28857 0.24004 0.34938 0.0
C11 C 0.23655 0.13403 0.1951 0.0
O12 O 0.27109 0.23625 0.28261 0.0
O13 O 0.22897 0.16869 0.2126 0.0
C14 C 0.85864 0.03046 0.43561 0.0
O15 O 0.86074 0.06999 0.43803 0.0
Cd16 Cd 0.91608 0.11429 0.43216 0.0
O17 O 0.88953 0.00859 0.428 0.0
Cd18 Cd 0.96136 0.02754 0.41381 0.0
C19 C 0.96924 0.07041 0.51141 0.0
O20 O 0.9465 0.08703 0.3708 0.0
O21 O 0.00638 0.08616 0.39157 0.0
O22 O 0.97609 0.97019 0.36423 0.0
C23 C 0.98017 0.10377 0.36941 0.0
O24 O 0.95073 0.10268 0.49875 0.0
C25 C 0.00499 0.95604 0.38536 0.0
O26 O 0.97485 0.03956 0.48716 0.0
O27 O 0.01284 0.97482 0.41916 0.0
C28 C 0.10103 0.69984 0.73875 0.0
O29 O 0.09236 0.68218 0.77304 0.0
Cd30 Cd 0.1365 0.65621 0.82415 0.0
O31 O 0.13685 0.70622 0.72804 0.0
Cd32 Cd 0.20262 0.68873 0.75976 0.0
C33 C 0.18035 0.58508 0.75916 0.0
O34 O 0.18713 0.70741 0.83159 0.0
O35 O 0.23995 0.67088 0.82384 0.0
O36 O 0.22796 0.75579 0.73506 0.0
C37 C 0.21752 0.69137 0.84808 0.0
O38 O 0.15947 0.59243 0.79144 0.0
C39 C 0.25811 0.74128 0.71638 0.0
O40 O 0.19781 0.61469 0.73978 0.0
O41 O 0.2624 0.70183 0.71719 0.0
C42 C 0.64722 0.98623 0.04297 0.0
O43 O 0.64741 0.95147 0.06217 0.0
Cd44 Cd 0.59237 0.90946 0.08091 0.0
O45 O 0.61459 0.00368 0.03295 0.0
Cd46 Cd 0.54302 0.98585 0.04502 0.0
C47 C 0.54949 0.97621 0.15034 0.0
O48 O 0.54986 0.91408 0.02211 0.0
O49 O 0.49524 0.92759 0.05359 0.0
O50 O 0.52402 0.01817 0.97852 0.0
C51 C 0.51575 0.90191 0.03268 0.0
O52 O 0.56398 0.94018 0.14349 0.0
C53 C 0.4956 0.03946 -0.00668 0.0
O54 O 0.54266 0.00142 0.12034 0.0
O55 O 0.49039 0.0374 0.03254 0.0
C56 C 0.33822 0.6579 0.27512 0.0
O57 O 0.34408 0.63316 0.2448 0.0
Cd58 Cd 0.29643 0.61058 0.19583 0.0
O59 O 0.30361 0.67223 0.2825 0.0
Cd60 Cd 0.23613 0.66155 0.25128 0.0
C61 C 0.24057 0.55669 0.2657 0.0
O62 O 0.26053 0.67291 0.18099 0.0
O63 O 0.20088 0.65004 0.18357 0.0
O64 O 0.21956 0.73314 0.27209 0.0
C65 C 0.22882 0.66515 0.16178 0.0
O66 O 0.2618 0.55576 0.23295 0.0
C67 C 0.18563 0.72442 0.28677 0.0
O68 O 0.22931 0.59108 0.28157 0.0
O69 O 0.17559 0.6862 0.28615 0.0
C70 C 0.60079 0.00218 0.55037 0.0
O71 O 0.60522 0.03989 0.56148 0.0
Cd72 Cd 0.5551 0.08879 0.54508 0.0
O73 O 0.56643 0.98794 0.54188 0.0
Cd74 Cd 0.49557 0.01263 0.55078 0.0
C75 C 0.51715 0.04385 0.45442 0.0
O76 O 0.50252 0.07581 0.59208 0.0
O77 O 0.45153 0.07443 0.55233 0.0
O78 O 0.47755 0.96133 0.60474 0.0
C79 C 0.47145 0.09396 0.57955 0.0
O80 O 0.53959 0.07046 0.4721 0.0
C81 C 0.44875 0.94588 0.5845 0.0
O82 O 0.49632 0.0184 0.47561 0.0
O83 O 0.4421 0.96125 0.54858 0.0
C84 C 0.13151 0.18387 0.75846 0.0
O85 O 0.12366 0.17788 0.72018 0.0
Cd86 Cd 0.16853 0.18613 0.66386 0.0
O87 O 0.16721 0.18872 0.77047 0.0
Cd88 Cd 0.23441 0.18448 0.73646 0.0
C89 C 0.20867 0.27931 0.6979 0.0
O90 O 0.22074 0.13893 0.67775 0.0
O91 O 0.27256 0.17692 0.67066 0.0
O92 O 0.26082 0.13553 0.78832 0.0
C93 C 0.25043 0.14869 0.6557 0.0
O94 O 0.18715 0.26003 0.67158 0.0
C95 C 0.29013 0.15822 0.79846 0.0
O96 O 0.22822 0.25928 0.72539 0.0
O97 O 0.29316 0.19332 0.78012 0.0
C98 C 0.90459 0.97716 0.91317 0.0
O99 O 0.90313 0.94213 0.89483 0.0
Cd100 Cd 0.95695 0.9022 0.87196 0.0
O101 O 0.93792 -0.00632 0.92237 0.0
Cd102 Cd 0.00973 0.97262 0.9116 0.0
C103 C -0.00544 0.97877 0.80764 0.0
O104 O -0.00012 0.90047 0.93074 0.0
O105 O 0.05216 0.91036 0.89424 0.0
O106 O 0.02643 -0.00072 0.98117 0.0
C107 C 0.03174 0.8857 0.91661 0.0
O108 O 0.97768 0.94352 0.81224 0.0
C109 C 0.05783 0.01815 0.97029 0.0
O110 O 0.00856 -0.00182 0.83898 0.0
O111 O 0.06634 0.01728 0.93165 0.0
C112 C 0.89129 0.30423 0.76651 0.0
O113 O 0.89648 0.30072 0.7274 0.0
Cd114 Cd 0.84894 0.28998 0.67472 0.0
O115 O 0.8565 0.30483 0.78222 0.0
Cd116 Cd 0.78782 0.30532 0.75089 0.0
C117 C 0.80274 0.20484 0.71879 0.0
O118 O 0.8039 0.34497 0.6886 0.0
O119 O 0.74784 0.31425 0.6858 0.0
O120 O 0.76173 0.35794 0.7999 0.0
C121 C 0.7725 0.33858 0.66841 0.0
O122 O 0.82409 0.21903 0.68915 0.0
C123 C 0.7327 0.33567 0.81197 0.0
O124 O 0.78766 0.22943 0.74564 0.0
O125 O 0.72994 0.29947 0.79617 0.0
C126 C 0.11055 0.44232 0.90598 0.0
O127 O 0.12174 0.47232 0.88282 0.0
Cd128 Cd 0.08507 0.53149 0.86132 0.0
O129 O 0.07521 0.44057 0.92007 0.0
Cd130 Cd 0.0129 0.48225 0.90951 0.0
C131 C 0.01882 0.47528 0.80329 0.0
O132 O 0.04595 0.54836 0.92041 0.0
O133 O -0.01456 0.5543 0.90129 0.0
O134 O -0.00584 0.46308 0.98086 0.0
C135 C 0.01712 0.57218 0.91258 0.0
O136 O 0.04646 0.50209 0.80592 0.0
C137 C 0.95969 0.45011 0.97208 0.0
O138 O 0.00217 0.46075 0.83603 0.0
O139 O 0.94984 0.45146 0.93382 0.0
C140 C 0.56931 0.82479 0.26624 0.0
O141 O 0.56332 0.848 0.23471 0.0
Cd142 Cd 0.61064 0.87292 0.18652 0.0
O143 O 0.6044 0.81382 0.27614 0.0
Cd144 Cd 0.67185 0.82802 0.24597 0.0
C145 C 0.66632 0.9338 0.25052 0.0
O146 O 0.65092 0.81288 0.17553 0.0
O147 O 0.7088 0.84009 0.17945 0.0
O148 O 0.69379 0.75822 0.26756 0.0
C149 C 0.68256 0.82281 0.15717 0.0
O150 O 0.64357 0.93156 0.21904 0.0
C151 C 0.72515 0.77032 0.28558 0.0
O152 O 0.67871 0.90076 0.26842 0.0
O153 O 0.73124 0.80944 0.28628 0.0
C154 C 0.07523 0.49476 0.42422 0.0
O155 O 0.07868 0.45559 0.41906 0.0
Cd156 Cd 0.02863 0.40409 0.41356 0.0
O157 O 0.04126 0.51233 0.42391 0.0
Cd158 Cd 0.97145 0.48713 0.41043 0.0
C159 C 0.97685 0.43277 0.50196 0.0
O160 O -0.01328 0.43211 0.36188 0.0
O161 O 0.92915 0.42717 0.38901 0.0
O162 O 0.95204 0.54556 0.36488 0.0
C163 C 0.95467 0.41204 0.36422 0.0
O164 O -0.00233 0.40537 0.48318 0.0
C165 C 0.92258 0.55643 0.38711 0.0
O166 O 0.96548 0.46569 0.48304 0.0
O167 O 0.91654 0.53558 0.42029 0.0
C168 C 0.3549 0.49027 0.01722 0.0
O169 O 0.34774 0.52662 0.03108 0.0
Cd170 Cd 0.39197 0.57425 0.06175 0.0
O171 O 0.39002 0.47549 0.01719 0.0
Cd172 Cd 0.45721 0.50357 0.03687 0.0
C173 C 0.42903 0.50905 0.13834 0.0
O174 O 0.44479 0.57404 0.01337 0.0
O175 O 0.49675 0.56761 0.05106 0.0
O176 O 0.48582 0.47395 0.97331 0.0
C177 C 0.47502 0.59104 0.02887 0.0
O178 O 0.40879 0.54086 0.12765 0.0
C179 C 0.5148 0.45613 0.99113 0.0
O180 O 0.44864 0.48832 0.11141 0.0
O181 O 0.51632 0.45902 0.03065 0.0
C182 C 0.83407 0.77041 0.76112 0.0
O183 O 0.83745 0.78086 0.79916 0.0
Cd184 Cd 0.79103 0.81564 0.84147 0.0
O185 O 0.80151 0.7753 0.74144 0.0
Cd186 Cd 0.73189 0.79775 0.76037 0.0
C187 C 0.76789 0.89607 0.77198 0.0
O188 O 0.7346 0.77454 0.83119 0.0
O189 O 0.6863 0.81609 0.81926 0.0
O190 O 0.70743 0.73381 0.72845 0.0
C191 C 0.70458 0.79325 0.84522 0.0
O192 O 0.78334 0.88251 0.80568 0.0
C193 C 0.67987 0.7506 0.70743 0.0
O194 O 0.74828 0.87183 0.74807 0.0
O195 O 0.67718 0.79019 0.70948 0.0
C196 C 0.63286 0.31857 0.27997 0.0
O197 O 0.63146 0.32614 0.31886 0.0
Cd198 Cd 0.68613 0.32135 0.36519 0.0
O199 O 0.6661 0.31506 0.26116 0.0
Cd200 Cd 0.73853 0.32418 0.27883 0.0
C201 C 0.72429 0.22966 0.3235 0.0
O202 O 0.73489 0.36785 0.34017 0.0
O203 O 0.78783 0.33135 0.33547 0.0
O204 O 0.75518 0.37385 0.22266 0.0
C205 C 0.7677 0.3576 0.35616 0.0
O206 O 0.70648 0.24854 0.35313 0.0
C207 C 0.78149 0.35072 0.20613 0.0
O208 O 0.73801 0.24973 0.29228 0.0
O209 O 0.78729 0.31537 0.22315 0.0
C210 C 0.32789 0.49227 0.54259 0.0
O211 O 0.3263 0.45266 0.54146 0.0
Cd212 Cd 0.37882 0.40461 0.53323 0.0
O213 O 0.36114 0.51132 0.54288 0.0
Cd214 Cd 0.43277 0.48805 0.5462 0.0
C215 C 0.42121 0.45153 0.44705 0.0
O216 O 0.42355 0.42448 0.5862 0.0
O217 O 0.47879 0.42741 0.55374 0.0
O218 O 0.45298 0.5398 0.59905 0.0
C219 C 0.45633 0.40729 0.57834 0.0
O220 O 0.40298 0.42015 0.46235 0.0
C221 C 0.48087 0.55526 0.57723 0.0
O222 O 0.43342 0.48086 0.47055 0.0
O223 O 0.48575 0.53998 0.54103 0.0
C224 C 0.21817 0.07858 0.14322 0.0
C225 C 0.21293 0.11906 0.15898 0.0
C226 C 0.19402 0.0632 0.11099 0.0
C227 C 0.16398 0.08895 0.09393 0.0
C228 C 0.1593 0.13024 0.10892 0.0
C229 C 0.18371 0.14473 0.14128 0.0
C230 C 0.19995 0.01898 0.09597 0.0
C231 C 0.12785 0.15882 0.09146 0.0
C232 C 0.1191 0.05843 0.98912 0.0
C233 C 0.08413 0.03823 0.00153 0.0
C234 C 0.14521 0.07544 0.01874 0.0
C235 C 0.13625 0.07205 0.06186 0.0
C236 C 0.10074 0.05217 0.07451 0.0
C237 C 0.07514 0.03562 0.04426 0.0
C238 C 0.18261 0.09663 0.00394 0.0
C239 C 0.09002 0.04785 0.12011 0.0
H240 H 0.24062 0.05852 0.15668 0.0
H241 H 0.17948 0.1761 0.15313 0.0
H242 H 0.17305 0.00024 0.10269 0.0
H243 H 0.20446 0.01866 0.06166 0.0
H244 H 0.22568 0.0036 0.11108 0.0
H245 H 0.12947 0.19076 0.10481 0.0
H246 H 0.13078 0.16108 0.05703 0.0
H247 H 0.09813 0.14572 0.09822 0.0
H248 H 0.12633 0.06059 0.9562 0.0
H249 H 0.04826 0.02002 0.05421 0.0
H250 H 0.2088 0.07987 0.01638 0.0
H251 H 0.18384 0.12905 0.01604 0.0
H252 H 0.18481 0.09765 0.96935 0.0
H253 H 0.11324 0.02978 0.13664 0.0
H254 H 0.06115 0.03192 0.1248 0.0
H255 H 0.08857 0.07912 0.13489 0.0
C256 C 0.05769 0.90273 0.39809 0.0
C257 C 0.02925 0.92007 0.37128 0.0
C258 C 0.08221 0.86986 0.38504 0.0
C259 C 0.07854 0.85405 0.34401 0.0
C260 C 0.04956 0.87102 0.31691 0.0
C261 C 0.02513 0.90372 0.33093 0.0
C262 C 0.11247 0.85243 0.41504 0.0
C263 C 0.0449 0.85518 0.27284 0.0
C264 C 0.16859 0.79972 0.29784 0.0
C265 C 0.15854 0.75742 0.3023 0.0
C266 C 0.14267 0.83141 0.3109 0.0
C267 C 0.10587 0.82062 0.32918 0.0
C268 C 0.09564 0.77798 0.33402 0.0
C269 C 0.12203 0.7469 0.3204 0.0
C270 C 0.15465 0.8765 0.30504 0.0
C271 C 0.05685 0.7652 0.3537 0.0
H272 H 0.06098 0.91502 0.42939 0.0
H273 H 0.0033 0.917 0.31002 0.0
H274 H 0.10841 0.81821 0.41852 0.0
H275 H 0.14269 0.85762 0.40249 0.0
H276 H 0.1105 0.86704 0.4464 0.0
H277 H 0.02032 0.87091 0.25604 0.0
H278 H 0.07273 0.86037 0.25514 0.0
H279 H 0.03926 0.82105 0.27314 0.0
H280 H 0.19665 0.80815 0.2837 0.0
H281 H 0.11401 0.7143 0.32393 0.0
H282 H 0.15584 0.8924 0.33574 0.0
H283 H 0.13227 0.89306 0.28587 0.0
H284 H 0.18397 0.87968 0.28962 0.0
H285 H 0.05482 0.77786 0.38585 0.0
H286 H 0.05327 0.73073 0.35516 0.0
H287 H 0.03184 0.77853 0.33569 0.0
C288 C 0.42913 0.89834 0.64334 0.0
C289 C 0.42333 0.91249 0.60232 0.0
C290 C 0.40377 0.8685 0.66134 0.0
C291 C 0.3719 0.85231 0.63773 0.0
C292 C 0.36659 0.86558 0.59592 0.0
C293 C 0.3923 0.89555 0.57876 0.0
C294 C 0.41042 0.85518 0.70603 0.0
C295 C 0.33311 0.84893 0.56962 0.0
C296 C 0.32052 0.75305 0.67523 0.0
C297 C 0.28706 0.76929 0.69552 0.0
C298 C 0.34841 0.77962 0.65618 0.0
C299 C 0.34272 0.82344 0.65753 0.0
C300 C 0.30895 0.83995 0.67785 0.0
C301 C 0.28157 0.81272 0.69652 0.0
C302 C 0.384 0.76085 0.63473 0.0
C303 C 0.30179 0.88647 0.68005 0.0
H304 H 0.45307 0.91119 0.66174 0.0
H305 H 0.38769 0.90614 0.54697 0.0
H306 H 0.38488 0.86496 0.72551 0.0
H307 H 0.41247 0.82066 0.70811 0.0
H308 H 0.43777 0.86893 0.71939 0.0
H309 H 0.33449 0.86043 0.5369 0.0
H310 H 0.33371 0.81428 0.56933 0.0
H311 H 0.30438 0.85853 0.58337 0.0
H312 H 0.32501 0.71954 0.67433 0.0
H313 H 0.25586 0.82558 0.71216 0.0
H314 H 0.41154 0.77249 0.64945 0.0
H315 H 0.38474 0.77066 0.6015 0.0
H316 H 0.38399 0.72617 0.63616 0.0
H317 H 0.32692 0.90197 0.69596 0.0
H318 H 0.27409 0.89429 0.69705 0.0
H319 H 0.29998 0.89973 0.64808 0.0
C320 C 0.47198 0.06041 0.92228 0.0
C321 C 0.46797 0.06269 0.96582 0.0
C322 C 0.44367 0.07835 0.89569 0.0
C323 C 0.4106 0.09927 0.91301 0.0
C324 C 0.40714 0.10305 0.95691 0.0
C325 C 0.43582 0.08464 0.98279 0.0
C326 C 0.44846 0.07363 0.84905 0.0
C327 C 0.37248 0.12538 0.97657 0.0
C328 C 0.35145 0.17006 0.84073 0.0
C329 C 0.31996 0.14394 0.82926 0.0
C330 C 0.38078 0.15627 0.86856 0.0
C331 C 0.37871 0.1153 0.88517 0.0
C332 C 0.34668 0.08903 0.87419 0.0
C333 C 0.31767 0.10369 0.84647 0.0
C334 C 0.41431 0.1853 0.87972 0.0
C335 C 0.34341 0.0451 0.89116 0.0
H336 H 0.49671 0.04352 0.90887 0.0
H337 H 0.43251 0.0866 0.01639 0.0
H338 H 0.42377 0.05464 0.83646 0.0
H339 H 0.44713 0.10464 0.83359 0.0
H340 H 0.47684 0.05835 0.84049 0.0
H341 H 0.37555 0.12816 0.01098 0.0
H342 H 0.36935 0.15714 0.96305 0.0
H343 H 0.34477 0.10817 0.96972 0.0
H344 H 0.35339 0.20126 0.82767 0.0
H345 H 0.29345 0.08331 0.8378 0.0
H346 H 0.44279 0.17188 0.8689 0.0
H347 H 0.41626 0.18873 0.91411 0.0
H348 H 0.41075 0.21678 0.86554 0.0
H349 H 0.36948 0.02653 0.88121 0.0
H350 H 0.3162 0.02899 0.88036 0.0
H351 H 0.34333 0.04564 0.92578 0.0
C352 C 0.70371 0.39291 0.8558 0.0
C353 C 0.70255 0.35146 0.84175 0.0
C354 C 0.67384 0.40883 0.88189 0.0
C355 C 0.64212 0.38266 0.89435 0.0
C356 C 0.64138 0.34049 0.8812 0.0
C357 C 0.67153 0.32544 0.85502 0.0
C358 C 0.67567 0.45399 0.89523 0.0
C359 C 0.60823 0.3115 0.89397 0.0
C360 C 0.57892 0.41681 0.98676 0.0
C361 C 0.54633 0.43507 0.96669 0.0
C362 C 0.61014 0.39918 0.96367 0.0
C363 C 0.60878 0.39993 0.91949 0.0
C364 C 0.57565 0.4177 0.8991 0.0
C365 C 0.54484 0.43497 0.92292 0.0
C366 C 0.64483 0.38029 0.98654 0.0
C367 C 0.57303 0.41911 0.85205 0.0
H368 H 0.72756 0.41321 0.84574 0.0
H369 H 0.67046 0.29332 0.84445 0.0
H370 H 0.64987 0.47118 0.88246 0.0
H371 H 0.67406 0.45624 0.92974 0.0
H372 H 0.70315 0.46971 0.8844 0.0
H373 H 0.61312 0.27901 0.88302 0.0
H374 H 0.60507 0.31113 0.92845 0.0
H375 H 0.57985 0.32296 0.88091 0.0
H376 H 0.58032 0.41676 0.02056 0.0
H377 H 0.51982 0.44904 0.90713 0.0
H378 H 0.67228 0.39753 0.97849 0.0
H379 H 0.64916 0.34741 0.97666 0.0
H380 H 0.64084 0.38099 0.02097 0.0
H381 H 0.59817 0.43735 0.83917 0.0
H382 H 0.54499 0.43342 0.84101 0.0
H383 H 0.57523 0.38707 0.83914 0.0
C384 C 0.89522 0.41813 -0.00522 0.0
C385 C 0.9323 0.43487 0.00508 0.0
C386 C 0.86907 0.40399 0.02598 0.0
C387 C 0.88016 0.40687 0.06851 0.0
C388 C 0.91749 0.42384 0.07906 0.0
C389 C 0.94311 0.43749 0.04727 0.0
C390 C 0.82963 0.38584 0.01346 0.0
C391 C 0.93041 0.42766 0.12401 0.0
C392 C 0.80168 0.40545 0.15403 0.0
C393 C 0.8051 0.36457 0.16948 0.0
C394 C 0.82538 0.41943 0.12067 0.0
C395 C 0.85302 0.3918 0.10214 0.0
C396 C 0.85594 0.35022 0.11698 0.0
C397 C 0.83207 0.33716 0.15051 0.0
C398 C 0.82151 0.46406 0.10591 0.0
C399 C 0.88483 0.3197 0.09794 0.0
H400 H 0.88663 0.41597 0.96227 0.0
H401 H 0.97163 0.45048 0.05556 0.0
H402 H 0.8271 0.35328 0.02511 0.0
H403 H 0.80528 0.40401 0.02793 0.0
H404 H 0.82542 0.38578 0.97907 0.0
H405 H 0.96016 0.44206 0.12702 0.0
H406 H 0.90883 0.4469 0.14166 0.0
H407 H 0.93107 0.39635 0.13889 0.0
H408 H 0.78094 0.42684 0.16849 0.0
H409 H 0.83483 0.30547 0.16213 0.0
H410 H 0.81533 0.46488 0.07192 0.0
H411 H 0.84981 0.48084 0.11096 0.0
H412 H 0.79757 0.48112 0.12249 0.0
H413 H 0.88006 0.3176 0.06375 0.0
H414 H 0.88209 0.28792 0.11164 0.0
H415 H 0.91553 0.3309 0.1028 0.0
C416 C 0.86458 0.60311 0.40072 0.0
C417 C 0.89556 0.59061 0.37432 0.0
C418 C 0.83732 0.63374 0.38817 0.0
C419 C 0.84094 0.65217 0.34813 0.0
C420 C 0.87261 0.64031 0.32165 0.0
C421 C 0.8996 0.60976 0.33511 0.0
C422 C 0.80416 0.64577 0.41743 0.0
C423 C 0.8774 0.65913 0.27867 0.0
C424 C 0.74858 0.69711 0.29755 0.0
C425 C 0.75394 0.74017 0.30329 0.0
C426 C 0.77659 0.6682 0.31214 0.0
C427 C 0.8107 0.68261 0.33327 0.0
C428 C 0.81598 0.72599 0.3398 0.0
C429 C 0.7876 0.75426 0.32461 0.0
C430 C 0.76993 0.62221 0.30443 0.0
C431 C 0.85179 0.74254 0.36249 0.0
H432 H 0.86131 0.58859 0.43113 0.0
H433 H 0.92343 0.60027 0.31452 0.0
H434 H 0.80399 0.68007 0.42228 0.0
H435 H 0.77529 0.63724 0.40342 0.0
H436 H 0.80667 0.63012 0.44831 0.0
H437 H 0.90439 0.64767 0.2625 0.0
H438 H 0.85126 0.6514 0.25927 0.0
H439 H 0.87896 0.69367 0.28082 0.0
H440 H 0.72272 0.68595 0.28103 0.0
H441 H 0.79194 0.78748 0.32922 0.0
H442 H 0.76951 0.60497 0.33451 0.0
H443 H 0.79464 0.60936 0.28556 0.0
H444 H 0.74172 0.61607 0.2878 0.0
H445 H 0.8538 0.72815 0.39395 0.0
H446 H 0.851 0.77705 0.36601 0.0
H447 H 0.87909 0.73391 0.34526 0.0
C448 C 0.53793 0.60461 0.56852 0.0
C449 C 0.50758 0.58821 0.59366 0.0
C450 C 0.56521 0.63361 0.58442 0.0
C451 C 0.56222 0.64649 0.62657 0.0
C452 C 0.53093 0.63103 0.65175 0.0
C453 C 0.50398 0.60213 0.63499 0.0
C454 C 0.59798 0.64946 0.55647 0.0
C455 C 0.52668 0.64395 0.69683 0.0
C456 C 0.65543 0.68109 0.68301 0.0
C457 C 0.65106 0.72468 0.68395 0.0
C458 C 0.62706 0.65549 0.66393 0.0
C459 C 0.59333 0.6738 0.64518 0.0
C460 C 0.58912 0.71785 0.64513 0.0
C461 C 0.61804 0.74278 0.66452 0.0
C462 C 0.63281 0.6087 0.6646 0.0
C463 C 0.55367 0.73856 0.62534 0.0
H464 H 0.54088 0.5942 0.53649 0.0
H465 H 0.4806 0.58973 0.65462 0.0
H466 H 0.59883 0.6841 0.55689 0.0
H467 H 0.62692 0.6382 0.56825 0.0
H468 H 0.59449 0.63889 0.52367 0.0
H469 H 0.49942 0.63114 0.71148 0.0
H470 H 0.55262 0.63283 0.71488 0.0
H471 H 0.52602 0.6785 0.6993 0.0
H472 H 0.68083 0.66677 0.69788 0.0
H473 H 0.61437 0.7764 0.66515 0.0
H474 H 0.63231 0.59623 0.63233 0.0
H475 H 0.60814 0.5937 0.68194 0.0
H476 H 0.66114 0.59944 0.6795 0.0
H477 H 0.55078 0.72855 0.59235 0.0
H478 H 0.55561 0.77319 0.62626 0.0
H479 H 0.52631 0.72872 0.64182 0.0
C480 C 0.217 0.1407 0.41211 0.0
C481 C 0.24429 0.11619 0.39003 0.0
C482 C 0.21701 0.14146 0.45595 0.0
C483 C 0.24454 0.11659 0.47822 0.0
C484 C 0.27012 0.08947 0.45614 0.0
C485 C 0.26988 0.08981 0.41229 0.0
C486 C 0.18939 0.17102 0.4783 0.0
C487 C 0.29926 0.06175 0.4787 0.0
C488 C 0.2772 0.15874 0.58346 0.0
C489 C 0.25237 0.13692 0.61102 0.0
C490 C 0.27546 0.15179 0.54024 0.0
C491 C 0.24874 0.12173 0.52423 0.0
C492 C 0.225 0.09815 0.55207 0.0
C493 C 0.2269 0.10623 0.59511 0.0
C494 C 0.30126 0.17769 0.51163 0.0
C495 C 0.19675 0.06527 0.5363 0.0
H496 H 0.19723 0.1613 0.39518 0.0
H497 H 0.29093 0.07064 0.3954 0.0
H498 H 0.17288 0.15434 0.50322 0.0
H499 H 0.20686 0.19605 0.49354 0.0
H500 H 0.16777 0.18581 0.45676 0.0
H501 H 0.31316 0.03857 0.4575 0.0
H502 H 0.32299 0.08121 0.49253 0.0
H503 H 0.28447 0.04484 0.50467 0.0
H504 H 0.29699 0.18246 0.59549 0.0
H505 H 0.20778 0.08907 0.61627 0.0
H506 H 0.28261 0.19509 0.48903 0.0
H507 H 0.3211 0.15703 0.49334 0.0
H508 H 0.3197 0.20047 0.52901 0.0
H509 H 0.17291 0.0803 0.51787 0.0
H510 H 0.18297 0.04717 0.56214 0.0
H511 H 0.21239 0.04329 0.51522 0.0
C512 C 0.02215 0.02919 0.75458 0.0
C513 C -0.00524 -0.00188 0.76561 0.0
C514 C 0.0223 0.04655 0.71413 0.0
C515 C -0.0062 0.03319 0.68466 0.0
C516 C 0.96542 0.00277 0.69619 0.0
C517 C 0.9665 0.9854 0.73627 0.0
C518 C 0.05335 0.07842 0.70262 0.0
C519 C 0.9343 0.98778 0.66588 0.0
C520 C 0.96397 0.09162 0.58659 0.0
C521 C 0.98137 0.06658 0.55569 0.0
C522 C 0.96998 0.08301 0.62917 0.0
C523 C -0.0057 0.04893 0.64093 0.0
C524 C 0.0144 0.02577 0.60986 0.0
C525 C 0.00757 0.03477 0.56765 0.0
C526 C 0.94823 0.10852 0.66149 0.0
C527 C 0.04084 0.9894 0.62102 0.0
H528 H 0.04395 0.03922 0.7772 0.0
H529 H 0.94481 0.96189 0.74473 0.0
H530 H 0.07375 0.08509 0.72892 0.0
H531 H 0.07104 0.06711 0.67571 0.0
H532 H 0.03895 0.10795 0.69272 0.0
H533 H 0.91205 0.96715 0.68103 0.0
H534 H 0.91864 0.0147 0.65163 0.0
H535 H 0.94867 0.97018 0.6402 0.0
H536 H 0.94385 0.1164 0.5776 0.0
H537 H 0.02161 0.01566 0.54397 0.0
H538 H 0.96948 0.1213 0.68448 0.0
H539 H 0.92725 0.0883 0.67893 0.0
H540 H 0.93144 0.13481 0.64738 0.0
H541 H 0.06113 -0.00213 0.64681 0.0
H542 H 0.05873 0.97869 0.59395 0.0
H543 H 0.02239 0.96287 0.632 0.0
C544 C 0.20317 0.7192 0.91916 0.0
C545 C 0.22166 0.68926 0.89394 0.0
C546 C 0.20418 0.716 0.96286 0.0
C547 C 0.22395 0.68187 0.98171 0.0
C548 C 0.24325 0.65191 0.95637 0.0
C549 C 0.2421 0.65612 0.91274 0.0
C550 C 0.18394 0.74904 0.98881 0.0
C551 C 0.26441 0.61493 0.97531 0.0
C552 C 0.2569 0.69105 0.09449 0.0
C553 C 0.22669 0.66971 0.11582 0.0
C554 C 0.2562 0.69545 0.05094 0.0
C555 C 0.22474 0.67767 0.02799 0.0
C556 C 0.19418 0.65592 0.04925 0.0
C557 C 0.19533 0.65254 0.09302 0.0
C558 C 0.28917 0.71915 0.02951 0.0
C559 C 0.16013 0.63649 0.02585 0.0
H560 H 0.1876 0.74503 0.90466 0.0
H561 H 0.25625 0.63277 0.89332 0.0
H562 H 0.1618 0.73443 0.00987 0.0
H563 H 0.206 0.76499 0.00881 0.0
H564 H 0.16877 0.77286 0.96929 0.0
H565 H 0.27814 0.59461 0.95125 0.0
H566 H 0.28788 0.62575 -0.00312 0.0
H567 H 0.24327 0.59601 -0.00602 0.0
H568 H 0.28115 0.70457 0.11189 0.0
H569 H 0.1719 0.636 0.10933 0.0
H570 H 0.27675 0.74551 0.01119 0.0
H571 H 0.30483 0.69841 0.00725 0.0
H572 H 0.31109 0.73176 0.05199 0.0
H573 H 0.14081 0.66153 0.01335 0.0
H574 H 0.14192 0.61584 0.04614 0.0
H575 H 0.17108 0.61802 -0.00107 0.0
C576 C 0.48501 0.03745 0.38467 0.0
C577 C 0.51935 0.03869 0.40897 0.0
C578 C 0.48724 0.02975 0.34154 0.0
C579 C 0.52452 0.02151 0.323 0.0
C580 C 0.55905 0.02197 0.34791 0.0
C581 C 0.55618 0.03166 0.39039 0.0
C582 C 0.44977 0.02934 0.31604 0.0
C583 C 0.59901 0.01188 0.32974 0.0
C584 C 0.53322 0.9576 0.22395 0.0
C585 C 0.54073 0.98849 0.19386 0.0
C586 C 0.5262 0.9681 0.26576 0.0
C587 C 0.52759 0.01053 0.27801 0.0
C588 C 0.53472 0.04197 0.2477 0.0
C589 C 0.54081 0.03058 0.20582 0.0
C590 C 0.51879 0.93352 0.29698 0.0
C591 C 0.53685 0.08748 0.25969 0.0
H592 H 0.45652 0.0426 0.39941 0.0
H593 H 0.58264 0.03199 0.40952 0.0
H594 H 0.45235 0.05162 0.28958 0.0
H595 H 0.4452 -0.00219 0.30256 0.0
H596 H 0.42333 0.03775 0.33488 0.0
H597 H 0.59802 0.98224 0.31194 0.0
H598 H 0.60715 0.03706 0.30768 0.0
H599 H 0.62229 0.00908 0.35398 0.0
H600 H 0.5328 0.92505 0.21477 0.0
H601 H 0.54682 0.05453 0.18268 0.0
H602 H 0.49415 0.94173 0.31836 0.0
H603 H 0.54565 0.92885 0.31628 0.0
H604 H 0.51158 0.90349 0.28149 0.0
H605 H 0.50919 0.09687 0.27583 0.0
H606 H 0.54137 0.10823 0.23225 0.0
H607 H 0.56157 0.09241 0.28188 0.0
C608 C 0.45441 0.18065 0.27999 0.0
C609 C 0.41982 0.19069 0.25812 0.0
C610 C 0.49007 0.20135 0.2717 0.0
C611 C 0.49124 0.23282 0.24053 0.0
C612 C 0.45755 0.23973 0.21518 0.0
C613 C 0.42203 0.21855 0.22433 0.0
C614 C 0.52535 0.19244 0.29924 0.0
C615 C 0.45792 0.27193 0.18075 0.0
C616 C 0.55936 0.31856 0.27667 0.0
C617 C 0.59554 0.30584 0.2594 0.0
C618 C 0.52419 0.2973 0.26755 0.0
C619 C 0.52516 0.2626 0.24016 0.0
C620 C 0.56072 0.25277 0.21886 0.0
C621 C 0.59564 0.27454 0.22878 0.0
C622 C 0.48684 0.30937 0.29056 0.0
C623 C 0.56284 0.21684 0.18856 0.0
H624 H 0.45292 0.15859 0.30571 0.0
H625 H 0.39538 0.22637 0.20723 0.0
H626 H 0.55196 0.1863 0.27993 0.0
H627 H 0.53171 0.22014 0.3189 0.0
H628 H 0.52037 0.1652 0.32015 0.0
H629 H 0.43417 0.26598 0.15759 0.0
H630 H 0.45295 0.30334 0.19434 0.0
H631 H 0.48689 0.27243 0.1644 0.0
H632 H 0.55902 0.3432 0.29985 0.0
H633 H 0.62346 0.26456 0.21517 0.0
H634 H 0.47748 0.28344 0.31142 0.0
H635 H 0.46252 0.31502 0.26806 0.0
H636 H 0.49079 0.33783 0.30987 0.0
H637 H 0.56686 0.18724 0.20613 0.0
H638 H 0.58821 0.22035 0.16673 0.0
H639 H 0.53515 0.21417 0.1702 0.0
C640 C 0.98236 0.35152 0.32486 0.0
C641 C 0.9542 0.36724 0.35299 0.0
C642 C -0.01204 0.30833 0.32009 0.0
C643 C 0.96539 0.28031 0.34467 0.0
C644 C 0.93537 0.29599 0.37133 0.0
C645 C 0.92982 0.33928 0.3748 0.0
C646 C 0.01938 0.29284 0.29037 0.0
C647 C 0.91071 0.26716 0.39819 0.0
C648 C 0.95741 0.16373 0.3262 0.0
C649 C 0.9833 0.14799 0.35657 0.0
C650 C 0.95327 0.20689 0.31981 0.0
C651 C 0.97485 0.2349 0.34515 0.0
C652 C 0.00284 0.21911 0.37408 0.0
C653 C 0.00705 0.17574 0.37912 0.0
C654 C 0.92406 0.22242 0.28774 0.0
C655 C 0.0262 0.24794 0.40197 0.0
H656 H 0.00113 0.37305 0.30772 0.0
H657 H 0.90803 0.35119 0.39663 0.0
H658 H 0.00785 0.26676 0.27116 0.0
H659 H 0.03017 0.31798 0.26927 0.0
H660 H 0.0449 0.28066 0.30839 0.0
H661 H 0.88802 0.28433 0.41642 0.0
H662 H 0.89563 0.24358 0.37854 0.0
H663 H 0.93012 0.25004 0.42029 0.0
H664 H 0.9391 0.14226 0.30862 0.0
H665 H 0.02685 0.16371 0.40287 0.0
H666 H 0.93698 0.24835 0.26915 0.0
H667 H 0.8974 0.23476 0.30376 0.0
H668 H 0.91464 0.19721 0.26615 0.0
H669 H 0.04128 0.27234 0.38316 0.0
H670 H 0.04877 0.23094 0.4206 0.0
H671 H 0.00576 0.26409 0.42378 0.0
C672 C 0.8798 0.76505 0.69943 0.0
C673 C 0.86957 0.75356 0.74032 0.0
C674 C 0.9178 0.75623 0.68356 0.0
C675 C 0.9457 0.73561 0.70937 0.0
C676 C 0.93397 0.72075 0.74923 0.0
C677 C 0.89619 0.7301 0.76418 0.0
C678 C 0.92861 0.77138 0.64042 0.0
C679 C 0.96223 0.69774 0.77769 0.0
C680 C 0.04419 0.68596 0.69266 0.0
C681 C 0.06811 0.715 0.71327 0.0
C682 C 0.00445 0.6952 0.68398 0.0
C683 C -0.01163 0.73344 0.69821 0.0
C684 C 0.01402 0.76489 0.71356 0.0
C685 C 0.05393 0.75529 0.72054 0.0
C686 C 0.97857 0.66173 0.66539 0.0
C687 C -0.00166 0.80629 0.72878 0.0
H688 H 0.85916 0.78315 0.68089 0.0
H689 H 0.88803 0.72065 0.79559 0.0
H690 H 0.94182 0.80301 0.64268 0.0
H691 H 0.95057 0.75052 0.62531 0.0
H692 H 0.90204 0.77363 0.62019 0.0
H693 H 0.94714 0.68467 0.80562 0.0
H694 H 0.97674 0.67159 0.76103 0.0
H695 H -0.01428 0.71946 0.78821 0.0
H696 H 0.05537 0.65472 0.68702 0.0
H697 H 0.07272 0.77764 0.7364 0.0
H698 H 0.95478 0.67562 0.64599 0.0
H699 H 0.96438 0.64355 0.69088 0.0
H700 H -0.00384 0.63976 0.646 0.0
H701 H 0.97602 0.819 0.70687 0.0
H702 H 0.02237 0.82964 0.73263 0.0
H703 H 0.98372 0.80174 0.75954 0.0
C704 C 0.50815 0.65661 0.05285 0.0
C705 C 0.47988 0.63691 0.02777 0.0
C706 C 0.51165 0.70028 0.05322 0.0
C707 C 0.48632 0.72471 0.02778 0.0
C708 C 0.45766 0.70499 0.0025 0.0
C709 C 0.4548 0.66131 0.00277 0.0
C710 C 0.54182 0.7201 0.0817 0.0
C711 C 0.42983 0.73003 0.97538 0.0
C712 C 0.4772 0.83942 0.05609 0.0
C713 C 0.50479 0.85751 0.0288 0.0
C714 C 0.47012 0.79621 0.05553 0.0
C715 C 0.49081 0.77083 0.02665 0.0
C716 C 0.51743 0.78928 -0.00214 0.0
C717 C 0.5242 0.8324 -0.00058 0.0
C718 C 0.44156 0.77757 0.08671 0.0
C719 C 0.53926 0.76339 0.96587 0.0
H720 H 0.52722 0.63796 0.07267 0.0
H721 H 0.43272 0.64626 0.98346 0.0
H722 H 0.55637 0.74725 0.06659 0.0
H723 H 0.52665 0.73166 0.11016 0.0
H724 H 0.56494 0.69747 0.0915 0.0
H725 H 0.40858 0.70991 0.95828 0.0
H726 H 0.41287 0.75242 -0.00517 0.0
H727 H 0.44695 0.7486 0.95233 0.0
H728 H 0.46224 0.85876 0.07894 0.0
H729 H 0.54512 0.84647 0.97789 0.0
H730 H 0.45799 0.75765 0.10914 0.0
H731 H 0.41977 0.75731 0.07067 0.0
H732 H 0.42532 0.80189 0.10454 0.0
H733 H 0.55407 0.73642 0.98107 0.0
H734 H 0.56185 0.78186 0.94861 0.0
H735 H 0.51789 0.75058 0.943 0.0
C736 C 0.49749 0.80889 0.26739 0.0
C737 C 0.53451 0.80542 0.28678 0.0
C738 C 0.46579 0.7836 0.27939 0.0
C739 C 0.47049 0.75525 0.31306 0.0
C740 C 0.50631 0.75509 0.336 0.0
C741 C 0.5383 0.77964 0.32204 0.0
C742 C 0.4285 0.78472 0.25331 0.0
C743 C 0.51204 0.72757 0.37377 0.0
C744 C 0.3698 0.70802 0.32543 0.0
C745 C 0.37322 0.67465 0.29731 0.0
C746 C 0.40331 0.73132 0.33689 0.0
C747 C 0.44032 0.72187 0.31845 0.0
C748 C 0.44468 0.68463 0.29517 0.0
C749 C 0.41109 0.66111 0.28543 0.0
C750 C 0.39843 0.76837 0.36539 0.0
C751 C 0.48386 0.67235 0.27604 0.0
H752 H 0.49394 0.8292 0.24054 0.0
H753 H 0.56656 0.77739 0.33783 0.0
H754 H 0.40261 0.79228 0.27315 0.0
H755 H 0.43006 0.80818 0.22775 0.0
H756 H 0.42319 0.75361 0.23916 0.0
H757 H 0.52877 0.74464 0.39818 0.0
H758 H 0.48358 0.71671 0.38728 0.0
H759 H 0.52999 0.69994 0.36496 0.0
H760 H 0.34082 0.7178 0.33618 0.0
H761 H 0.41428 0.63421 0.26518 0.0
H762 H 0.39332 0.79693 0.3465 0.0
H763 H 0.42545 0.77334 0.3844 0.0
H764 H 0.37264 0.76419 0.38656 0.0
H765 H 0.49252 0.69569 0.252 0.0
H766 H 0.48273 0.64108 0.26111 0.0
H767 H 0.50725 0.67191 0.3002 0.0
C768 C 0.489 0.16049 0.61596 0.0
C769 C 0.46566 0.1393 0.58666 0.0
C770 C 0.48772 0.20422 0.61924 0.0
C771 C 0.4629 0.22736 0.59219 0.0
C772 C 0.43819 0.20603 0.5636 0.0
C773 C 0.4396 0.16224 0.56146 0.0
C774 C 0.51394 0.22573 0.65066 0.0
C775 C 0.41132 0.22953 0.53415 0.0
C776 C 0.43603 0.3407 0.61323 0.0
C777 C 0.46177 0.36197 0.5861 0.0
C778 C 0.43701 0.29697 0.61675 0.0
C779 C 0.4641 0.2739 0.59219 0.0
C780 C 0.49118 0.2953 0.56593 0.0
C781 C 0.48987 0.33911 0.56342 0.0
C782 C 0.40815 0.2754 0.64567 0.0
C783 C 0.52036 0.27183 0.539 0.0
H784 H 0.50906 0.14294 0.6357 0.0
H785 H 0.42142 0.14613 0.53878 0.0
H786 H 0.53693 0.24417 0.63411 0.0
H787 H 0.49636 0.24788 0.66977 0.0
H788 H 0.52886 0.20319 0.67183 0.0
H789 H 0.39483 0.20834 0.51299 0.0
H790 H 0.38968 0.24829 0.55222 0.0
H791 H 0.4289 0.25161 0.51485 0.0
H792 H 0.41433 0.35819 0.63101 0.0
H793 H 0.50977 0.35527 0.54229 0.0
H794 H 0.42392 0.25301 0.66623 0.0
H795 H 0.38653 0.25722 0.6271 0.0
H796 H 0.39162 0.29789 0.66549 0.0
H797 H 0.53843 0.25044 0.55847 0.0
H798 H 0.54053 0.29309 0.52165 0.0
H799 H 0.50413 0.25233 0.51612 0.0
C800 C 0.05994 0.18077 0.7745 0.0
C801 C 0.09788 0.19327 0.7866 0.0
C802 C 0.0263 0.20129 0.78945 0.0
C803 C 0.03073 0.23473 0.81806 0.0
C804 C 0.06841 0.24258 0.83571 0.0
C805 C 0.10184 0.22198 0.8194 0.0
C806 C -0.01323 0.19063 0.77017 0.0
C807 C 0.0743 0.27527 0.86892 0.0
C808 C 0.96279 0.31567 0.77632 0.0
C809 C 0.92692 0.30129 0.7929 0.0
C810 C -0.00123 0.29856 0.7893 0.0
C811 C -0.00137 0.26655 0.81995 0.0
C812 C 0.96337 0.25827 0.84248 0.0
C813 C 0.92745 0.27539 0.82826 0.0
C814 C 0.03587 0.31039 0.76567 0.0
C815 C 0.96271 0.22776 0.87836 0.0
H816 H 0.0567 0.15781 0.75 0.0
H817 H 0.13108 0.23123 0.82971 0.0
H818 H 0.96438 0.1849 0.7948 0.0
H819 H 0.9763 0.21718 0.75077 0.0
H820 H -0.01166 0.16242 0.7501 0.0
H821 H 0.09553 0.26378 0.89274 0.0
H822 H 0.08743 0.30372 0.85471 0.0
H823 H 0.04618 0.28385 0.88467 0.0
H824 H 0.96245 0.33673 0.74979 0.0
H825 H 0.89981 0.26495 0.84197 0.0
H826 H 0.04561 0.28377 0.74602 0.0
H827 H 0.06007 0.31769 0.78772 0.0
H828 H 0.03128 0.33796 0.74508 0.0
H829 H 0.95418 0.19639 0.86684 0.0
H830 H 0.94039 0.23731 0.90199 0.0
H831 H -0.00788 0.22535 0.89357 0.0
C832 C 0.05007 0.81924 0.88065 0.0
C833 C 0.03786 0.84011 0.91682 0.0
C834 C 0.04884 0.7754 0.87847 0.0
C835 C 0.03658 0.75205 0.9139 0.0
C836 C 0.02676 0.77313 0.95133 0.0
C837 C 0.02676 0.81692 0.95205 0.0
C838 C 0.0601 0.75468 0.83788 0.0
C839 C 0.01524 0.74946 0.99034 0.0
C840 C -0.00989 0.64451 0.90234 0.0
C841 C 0.02199 0.61819 0.91193 0.0
C842 C -0.00529 0.68815 0.90206 0.0
C843 C 0.03203 0.70583 0.91166 0.0
C844 C 0.06445 0.67937 0.92045 0.0
C845 C 0.05904 0.63592 0.92062 0.0
C846 C 0.9596 0.71543 0.89176 0.0
C847 C 0.10472 0.69698 0.93018 0.0
H848 H 0.05848 0.83719 0.85328 0.0
H849 H 0.01747 0.83316 0.98008 0.0
H850 H 0.04488 0.72436 0.83339 0.0
H851 H 0.05311 0.77525 0.81095 0.0
H852 H 0.09247 0.74895 0.83765 0.0
H853 H 0.0117 0.77036 0.01773 0.0
H854 H -0.01309 0.73279 0.98518 0.0
H855 H 0.03798 0.72557 -0.00225 0.0
H856 H 0.96149 0.63104 0.89526 0.0
H857 H 0.08396 0.61582 0.92772 0.0
H858 H 0.96737 0.73745 0.86621 0.0
H859 H 0.95143 0.73447 0.91935 0.0
H860 H 0.93334 0.69691 0.88225 0.0
H861 H 0.11481 0.7172 0.90411 0.0
H862 H 0.12713 0.67212 0.93529 0.0
H863 H 0.10297 0.71671 0.95855 0.0
C864 C 0.24412 0.31991 0.34924 0.0
C865 C 0.26509 0.30166 0.3162 0.0
C866 C 0.23413 0.36255 0.34825 0.0
C867 C 0.2472 0.38759 0.31438 0.0
C868 C 0.26939 0.36925 0.28158 0.0
C869 C 0.27731 0.32636 0.28251 0.0
C870 C 0.20976 0.38045 0.38345 0.0
C871 C 0.28484 0.39491 0.24536 0.0
C872 C 0.2055 0.48926 0.27453 0.0
C873 C 0.23448 0.51723 0.288 0.0
C874 C 0.2066 0.44725 0.28711 0.0
C875 C 0.23828 0.433 0.3123 0.0
C876 C 0.26564 0.4621 0.32872 0.0
C877 C 0.26318 0.50412 0.31656 0.0
C878 C 0.17582 0.41747 0.2706 0.0
C879 C 0.29912 0.44834 0.35668 0.0
H880 H 0.23469 0.30062 0.37529 0.0
H881 H 0.29392 0.3122 0.25723 0.0
H882 H 0.22974 0.39509 0.40659 0.0
H883 H 0.18893 0.40471 0.37205 0.0
H884 H 0.19256 0.35576 0.3998 0.0
H885 H 0.25969 0.40613 0.22618 0.0
H886 H 0.30088 0.42282 0.25689 0.0
H887 H 0.30511 0.37677 0.22495 0.0
H888 H 0.18343 0.49965 0.25228 0.0
H889 H 0.28552 0.52611 0.32684 0.0
H890 H 0.16602 0.39565 0.29554 0.0
H891 H 0.18882 0.39851 0.24506 0.0
H892 H 0.1496 0.43426 0.25814 0.0
H893 H 0.28712 0.43247 0.38477 0.0
H894 H 0.31788 0.4749 0.3669 0.0
H895 H 0.31798 0.42543 0.34005 0.0
C896 C 0.81771 0.13073 0.69848 0.0
C897 C 0.7964 0.15913 0.72317 0.0
C898 C 0.81331 0.08741 0.70399 0.0
C899 C 0.78688 0.07214 0.7348 0.0
C900 C 0.76481 0.10059 0.75931 0.0
C901 C 0.76988 0.14367 0.75325 0.0
C902 C 0.8377 0.05801 0.67761 0.0
C903 C 0.7363 0.08553 0.79248 0.0
C904 C 0.75029 0.95984 0.73004 0.0
C905 C 0.77347 0.94069 0.7609 0.0
C906 C 0.75462 0.00256 0.72084 0.0
C907 C 0.78319 0.02646 0.74258 0.0
C908 C 0.80729 0.00705 0.77305 0.0
C909 C 0.80195 0.96455 0.78201 0.0
C910 C 0.72802 0.02238 0.6886 0.0
C911 C 0.83834 0.03127 0.79672 0.0
H912 H 0.83845 0.1423 0.67533 0.0
H913 H 0.7532 0.16528 0.77244 0.0
H914 H 0.8587 0.04069 0.69783 0.0
H915 H 0.81837 0.03457 0.66239 0.0
H916 H 0.85482 0.07469 0.65307 0.0
H917 H 0.72002 0.11164 0.80752 0.0
H918 H 0.7145 0.06367 0.77869 0.0
H919 H 0.75261 0.06813 0.817 0.0
H920 H 0.72818 0.94167 0.71367 0.0
H921 H 0.82024 0.95001 0.8057 0.0
H922 H 0.74604 0.03794 0.66411 0.0
H923 H 0.70955 0.04685 0.70349 0.0
H924 H 0.70814 -0.00071 0.67352 0.0
H925 H 0.85609 0.01098 0.81774 0.0
H926 H 0.82396 0.05583 0.81584 0.0
H927 H 0.85867 0.04716 0.77457 0.0
C928 C 0.28942 0.48863 0.98335 0.0
C929 C 0.32149 0.46639 -0.00033 0.0
C930 C 0.25583 0.4682 0.96863 0.0
C931 C 0.25382 0.42397 0.97065 0.0
C932 C 0.28647 0.40101 0.9863 0.0
C933 C 0.3202 0.4226 0.00054 0.0
C934 C 0.22231 0.49441 0.95139 0.0
C935 C 0.28553 0.35402 0.98948 0.0
C936 C 0.14572 0.4097 0.96537 0.0
C937 C 0.14163 0.41452 0.92215 0.0
C938 C 0.18343 0.40402 0.98284 0.0
C939 C 0.2169 0.40341 0.95617 0.0
C940 C 0.21138 0.39843 0.91272 0.0
C941 C 0.17356 0.4046 0.89603 0.0
C942 C 0.18798 0.40652 0.02955 0.0
C943 C 0.24593 0.39468 0.88317 0.0
H944 H 0.29053 0.52244 0.98214 0.0
H945 H 0.34492 0.40533 0.01343 0.0
H946 H 0.21552 0.48489 0.91892 0.0
H947 H 0.19525 0.48976 0.97048 0.0
H948 H 0.2293 0.52829 0.95113 0.0
H949 H 0.31587 0.34069 0.98903 0.0
H950 H 0.27145 0.34503 0.01951 0.0
H951 H 0.26809 0.33978 0.9639 0.0
H952 H 0.12083 0.41643 0.98568 0.0
H953 H 0.17012 0.40707 0.86247 0.0
H954 H 0.19414 0.43937 0.0385 0.0
H955 H 0.2131 0.38698 0.04027 0.0
H956 H 0.16057 0.39634 0.04584 0.0
H957 H 0.25528 0.4264 0.87312 0.0
H958 H 0.2374 0.37683 0.85489 0.0
H959 H 0.27154 0.37905 0.89815 0.0
C960 C 0.74803 0.16213 0.29347 0.0
C961 C 0.72453 0.18346 0.32257 0.0
C962 C 0.74302 0.11919 0.28673 0.0
C963 C 0.71333 0.09735 0.30906 0.0
C964 C 0.69193 0.11797 0.341 0.0
C965 C 0.69789 0.1608 0.34745 0.0
C966 C 0.76776 0.09782 0.25382 0.0
C967 C 0.66041 0.09604 0.36623 0.0
C968 C 0.66304 0.01163 0.24753 0.0
C969 C 0.67851 0.97539 0.266 0.0
C970 C 0.67369 0.05135 0.26188 0.0
C971 C 0.70114 0.05506 0.29499 0.0
C972 C 0.71713 0.01867 0.31362 0.0
C973 C 0.70548 0.97921 0.29903 0.0
C974 C 0.6546 0.08932 0.24232 0.0
C975 C 0.74713 0.02128 0.34829 0.0
H976 H 0.76926 0.17929 0.27469 0.0
H977 H 0.67979 0.17695 0.37026 0.0
H978 H 0.77901 0.06747 0.26566 0.0
H979 H 0.74923 0.09127 0.22604 0.0
H980 H 0.79329 0.1173 0.24382 0.0
H981 H 0.65496 0.11207 0.39643 0.0
H982 H 0.63235 0.09633 0.34833 0.0
H983 H 0.66853 0.06314 0.37275 0.0
H984 H 0.6419 0.00907 0.22226 0.0
H985 H 0.71779 0.9514 0.31333 0.0
H986 H 0.67747 0.10892 0.22696 0.0
H987 H 0.64029 0.10862 0.26682 0.0
H988 H 0.6319 0.08088 0.21876 0.0
H989 H 0.77636 0.02968 0.33488 0.0
H990 H 0.75017 0.99114 0.36528 0.0
H991 H 0.73899 0.04598 0.3709 0.0
C992 C 0.8311 0.97805 0.91288 0.0
C993 C 0.86662 -0.00358 0.92612 0.0
C994 C 0.79493 0.98889 0.931 0.0
C995 C 0.79394 0.01983 0.96248 0.0
C996 C 0.82886 0.04232 0.97212 0.0
C997 C 0.86508 0.02993 0.95421 0.0
C998 C 0.75855 0.96404 0.91933 0.0
C999 C 0.82868 0.07736 0.00348 0.0
C1000 C 0.68781 0.03396 -0.00274 0.0
C1001 C 0.68565 0.00357 0.02886 0.0
C1002 C 0.72417 0.04354 0.978 0.0
C1003 C 0.75868 0.02166 0.99025 0.0
C1004 C 0.75719 -0.00562 0.02506 0.0
C1005 C 0.72077 0.98584 0.04399 0.0
C1006 C 0.72501 0.07474 0.94264 0.0
C1007 C 0.7934 0.97104 0.03991 0.0
H1008 H 0.83172 0.95306 0.89011 0.0
H1009 H 0.89223 0.04509 0.96384 0.0
H1010 H 0.7493 0.94436 0.9462 0.0
H1011 H 0.73364 0.9852 0.91176 0.0
H1012 H 0.76381 0.94332 0.89209 0.0
H1013 H 0.85223 0.1005 -0.00374 0.0
H1014 H 0.79969 0.09362 0.00431 0.0
H1015 H 0.83465 0.06454 0.03504 0.0
H1016 H 0.66092 0.04847 0.98588 0.0
H1017 H 0.71958 0.96313 0.06913 0.0
H1018 H 0.72148 0.05816 0.91251 0.0
H1019 H 0.75356 0.09185 0.94167 0.0
H1020 H 0.70047 0.09765 0.94549 0.0
H1021 H 0.80302 0.94861 0.01553 0.0
H1022 H 0.78783 0.9535 0.06931 0.0
H1023 H 0.81819 0.99298 0.04534 0.0
C1024 C 0.2103 0.53083 0.71221 0.0
C1025 C 0.18382 0.54143 0.74426 0.0
C1026 C 0.21471 0.48916 0.69937 0.0
C1027 C 0.19226 0.45745 0.71918 0.0
C1028 C 0.16436 0.46817 0.75035 0.0
C1029 C 0.16052 0.50997 0.76254 0.0
C1030 C 0.24403 0.47894 0.66531 0.0
C1031 C 0.139 0.43539 0.77136 0.0
C1032 C 0.18128 0.34831 0.67446 0.0
C1033 C 0.20801 0.32562 0.69922 0.0
C1034 C 0.1769 0.39165 0.67927 0.0
C1035 C 0.19973 0.41273 0.70964 0.0
C1036 C 0.22798 0.39035 0.73337 0.0
C1037 C 0.23182 0.34712 0.72784 0.0
C1038 C 0.14626 0.41419 0.65343 0.0
C1039 C 0.25293 0.41182 0.76597 0.0
H1040 H 0.22812 0.55495 0.69762 0.0
H1041 H 0.13941 0.51787 0.78679 0.0
H1042 H 0.26986 0.46256 0.67901 0.0
H1043 H 0.23048 0.45758 0.64217 0.0
H1044 H 0.25475 0.50738 0.64888 0.0
H1045 H 0.1198 0.4487 0.79618 0.0
H1046 H 0.11984 0.42008 0.74786 0.0
H1047 H 0.15793 0.41079 0.78537 0.0
H1048 H 0.16265 0.33205 0.65229 0.0
H1049 H 0.25271 0.32998 0.74696 0.0
H1050 H 0.11864 0.41706 0.67194 0.0
H1051 H 0.13921 0.39682 0.62439 0.0
H1052 H 0.15612 0.44615 0.6449 0.0
H1053 H 0.27001 0.43766 0.75149 0.0
H1054 H 0.27396 0.39009 0.78143 0.0
H1055 H 0.23352 0.4258 0.79018 0.0
C1056 C 0.14782 0.5033 0.4207 0.0
C1057 C 0.11142 0.51801 0.43552 0.0
C1058 C 0.18323 0.51424 0.44034 0.0
C1059 C 0.18229 0.54098 0.47552 0.0
C1060 C 0.14621 0.56045 0.48696 0.0
C1061 C 0.11091 0.54849 0.46691 0.0
C1062 C 0.22093 0.49317 0.42629 0.0
C1063 C 0.14409 0.59092 0.52269 0.0
C1064 C 0.25516 0.49543 0.55056 0.0
C1065 C 0.29012 0.51506 0.53757 0.0
C1066 C 0.21845 0.50748 0.53449 0.0
C1067 C 0.21669 0.54007 0.50454 0.0
C1068 C 0.2511 0.56394 0.49604 0.0
C1069 C 0.28772 0.55098 0.51256 0.0
C1070 C 0.18248 0.48166 0.54555 0.0
C1071 C 0.25011 0.60047 0.46628 0.0
H1072 H 0.1483 0.4804 0.39579 0.0
H1073 H 0.08283 0.56032 0.47825 0.0
H1074 H 0.24449 0.51661 0.42073 0.0
H1075 H 0.23147 0.47143 0.45092 0.0
H1076 H 0.21657 0.4751 0.3972 0.0
H1077 H 0.12007 0.61405 0.51761 0.0
H1078 H 0.13732 0.57377 0.55198 0.0
H1079 H 0.17248 0.6078 0.52692 0.0
H1080 H 0.25691 0.46805 0.57044 0.0
H1081 H 0.31463 0.56663 0.50275 0.0
H1082 H 0.1731 0.46323 0.51797 0.0
H1083 H 0.1575 0.50219 0.55452 0.0
H1084 H 0.18832 0.45965 0.57168 0.0
H1085 H 0.2552 0.58919 0.43399 0.0
H1086 H 0.27379 0.62332 0.47371 0.0
H1087 H 0.22104 0.61656 0.46716 0.0
C1088 C 0.67123 0.82526 0.90758 0.0
C1089 C 0.69845 0.79677 0.8908 0.0
C1090 C 0.66808 0.83082 0.95099 0.0
C1091 C 0.6928 0.80741 0.97794 0.0
C1092 C 0.71983 0.77821 0.96114 0.0
C1093 C 0.72224 0.77318 0.91785 0.0
C1094 C 0.63892 0.86221 0.96801 0.0
C1095 C 0.74638 0.7524 0.98898 0.0
C1096 C 0.71238 0.844 0.08874 0.0
C1097 C 0.686 0.81898 0.11147 0.0
C1098 C 0.71447 0.84113 0.04504 0.0
C1099 C 0.68988 0.8123 0.0239 0.0
C1100 C 0.66363 0.78663 0.04689 0.0
C1101 C 0.66158 0.79074 0.09032 0.0
C1102 C 0.74261 0.86935 0.02163 0.0
C1103 C 0.63715 0.75524 0.02572 0.0
H1104 H 0.6529 0.84373 0.88683 0.0
H1105 H 0.74332 0.75104 0.90515 0.0
H1106 H 0.61991 0.84747 0.99218 0.0
H1107 H 0.65519 0.88811 0.98326 0.0
H1108 H 0.61969 0.87552 0.94324 0.0
H1109 H 0.76599 0.7312 0.97093 0.0
H1110 H 0.76508 0.77325 0.00829 0.0
H1111 H 0.72815 0.73329 0.01065 0.0
H1112 H 0.73086 0.86627 0.105 0.0
H1113 H 0.64101 0.77141 0.10783 0.0
H1114 H 0.72552 0.89464 0.00625 0.0
H1115 H 0.75868 0.85201 -0.0031 0.0
H1116 H 0.76464 0.88377 0.04278 0.0
H1117 H 0.61198 0.77211 0.01141 0.0
H1118 H 0.62534 0.7318 0.04808 0.0
H1119 H 0.65296 0.73838 0.00048 0.0
C1120 C 0.44658 0.48961 0.38414 0.0
C1121 C 0.42644 0.4552 0.40118 0.0
C1122 C 0.44917 0.49545 0.34083 0.0
C1123 C 0.43109 0.46625 0.31381 0.0
C1124 C 0.41187 0.43069 0.33063 0.0
C1125 C 0.40983 0.42554 0.37414 0.0
C1126 C 0.47009 0.53369 0.32403 0.0
C1127 C 0.39268 0.39864 0.30268 0.0
C1128 C 0.3991 0.51049 0.20947 0.0
C1129 C 0.42905 0.49619 0.18273 0.0
C1130 C 0.39889 0.4999 0.25189 0.0
C1131 C 0.42972 0.47484 0.26822 0.0
C1132 C 0.45978 0.45973 0.24133 0.0
C1133 C 0.45895 0.47038 0.19875 0.0
C1134 C 0.36569 0.51566 0.27925 0.0
C1135 C 0.49353 0.43358 0.25773 0.0
H1136 H 0.45972 0.51259 0.40467 0.0
H1137 H 0.39436 0.39875 0.38694 0.0
H1138 H 0.49202 0.5246 0.29989 0.0
H1139 H 0.44834 0.55479 0.30892 0.0
H1140 H 0.48556 0.55139 0.34893 0.0
H1141 H 0.37117 0.41401 0.28154 0.0
H1142 H 0.41544 0.38366 0.28272 0.0
H1143 H 0.37708 0.3739 0.32067 0.0
H1144 H 0.37559 0.52999 0.19721 0.0
H1145 H 0.48225 0.45937 0.17825 0.0
H1146 H 0.3777 0.53544 0.30463 0.0
H1147 H 0.35046 0.48879 0.29409 0.0
H1148 H 0.34354 0.53416 0.26153 0.0
H1149 H 0.513 0.45331 0.27736 0.0
H1150 H 0.5116 0.41987 0.23219 0.0
H1151 H 0.48229 0.40794 0.27778 0.0
C1152 C 0.75274 0.39337 0.42365 0.0
C1153 C 0.77434 0.36324 0.40151 0.0
C1154 C 0.75346 0.39456 0.46749 0.0
C1155 C 0.77566 0.36433 0.48969 0.0
C1156 C 0.79882 0.33492 0.46745 0.0
C1157 C 0.79836 0.33515 0.42361 0.0
C1158 C 0.72908 0.42697 0.49003 0.0
C1159 C 0.82275 0.30202 0.48995 0.0
C1160 C 0.79902 0.37516 0.60522 0.0
C1161 C 0.77028 0.34912 0.62339 0.0
C1162 C 0.80035 0.38167 0.56186 0.0
C1163 C 0.77247 0.36136 0.53601 0.0
C1164 C 0.74258 0.33615 0.55431 0.0
C1165 C 0.7417 0.33056 0.59781 0.0
C1166 C 0.83234 0.40921 0.54367 0.0
C1167 C 0.71263 0.31348 0.52777 0.0
H1168 H 0.73427 0.41527 0.40672 0.0
H1169 H 0.81512 0.31174 0.40674 0.0
H1170 H 0.70395 0.41157 0.50623 0.0
H1171 H 0.74714 0.44275 0.51421 0.0
H1172 H 0.71706 0.45097 0.46841 0.0
H1173 H 0.83556 0.27865 0.46824 0.0
H1174 H 0.84722 0.31712 0.50729 0.0
H1175 H 0.80408 0.28527 0.51309 0.0
H1176 H 0.82113 0.38977 0.62483 0.0
H1177 H 0.71951 0.31032 0.61159 0.0
H1178 H 0.8193 0.4325 0.52199 0.0
H1179 H 0.85336 0.38993 0.52535 0.0
H1180 H 0.84921 0.426 0.56818 0.0
H1181 H 0.69685 0.3359 0.50727 0.0
H1182 H 0.69045 0.29633 0.54686 0.0
H1183 H 0.72803 0.2908 0.50722 0.0
C1184 C -0.01396 0.39538 0.57019 0.0
C1185 C 0.97001 0.42897 0.54757 0.0
C1186 C -0.01277 0.39612 0.61401 0.0
C1187 C 0.97236 0.43138 0.63549 0.0
C1188 C 0.95255 0.46324 0.61305 0.0
C1189 C 0.95145 0.46154 0.56936 0.0
C1190 C 0.00784 0.36111 0.63696 0.0
C1191 C 0.93622 0.50139 0.63471 0.0
C1192 C 0.97196 0.43879 0.75424 0.0
C1193 C 0.00716 0.46096 0.76115 0.0
C1194 C 0.96035 0.42792 0.71347 0.0
C1195 C 0.9847 0.43929 0.67924 0.0
C1196 C 0.02085 0.46037 0.68633 0.0
C1197 C 0.0316 0.4708 0.72706 0.0
C1198 C 0.92168 0.40533 0.70689 0.0
C1199 C 0.04777 0.47321 0.65076 0.0
H1200 H -0.00018 0.36965 0.55372 0.0
H1201 H 0.93831 0.48728 0.55227 0.0
H1202 H -0.00832 0.35286 0.66601 0.0
H1203 H 0.0107 0.33272 0.61731 0.0
H1204 H 0.03797 0.37141 0.64602 0.0
H1205 H 0.91577 0.51928 0.61427 0.0
H1206 H 0.9203 0.49264 0.66373 0.0
H1207 H 0.96105 0.52223 0.6436 0.0
H1208 H 0.95309 0.43082 0.78047 0.0
H1209 H 0.05921 0.48728 0.73205 0.0
H1210 H 0.92648 0.37694 0.68774 0.0
H1211 H 0.9009 0.42567 0.68944 0.0
H1212 H 0.90751 0.39614 0.73686 0.0
H1213 H 0.05566 0.44566 0.63154 0.0
H1214 H 0.07555 0.48803 0.66184 0.0
H1215 H 0.03219 0.49572 0.63015 0.0
C1216 C 0.81624 0.96879 0.45652 0.0
C1217 C 0.81979 0.01088 0.44476 0.0
C1218 C 0.78005 0.95301 0.47189 0.0
C1219 C 0.74709 0.98014 0.47577 0.0
C1220 C 0.74995 0.02174 0.461 0.0
C1221 C 0.78609 0.03642 0.44571 0.0
C1222 C 0.77787 0.90819 0.48624 0.0
C1223 C 0.71549 0.05181 0.46357 0.0
C1224 C 0.63922 0.96205 0.49779 0.0
C1225 C 0.63682 0.97932 0.53793 0.0
C1226 C 0.67615 0.9564 0.47827 0.0
C1227 C 0.71106 0.96801 0.49973 0.0
C1228 C 0.70874 0.97917 0.54246 0.0
C1229 C 0.67155 0.98513 0.56092 0.0
C1230 C 0.67729 0.94354 0.43298 0.0
C1231 C 0.7451 0.99097 0.56703 0.0
H1232 H 0.84207 0.94874 0.45567 0.0
H1233 H 0.78819 0.06875 0.43577 0.0
H1234 H 0.78155 0.9069 0.52062 0.0
H1235 H 0.74872 0.89423 0.47867 0.0
H1236 H 0.80157 0.88895 0.47181 0.0
H1237 H 0.72192 0.08214 0.44805 0.0
H1238 H 0.6889 0.03812 0.44874 0.0
H1239 H 0.70817 0.05797 0.49678 0.0
H1240 H 0.61239 0.9576 0.47983 0.0
H1241 H 0.6697 -0.00177 0.59208 0.0
H1242 H 0.70426 0.92509 0.42591 0.0
H1243 H 0.67774 0.97188 0.41295 0.0
H1244 H 0.65076 0.92492 0.42453 0.0
H1245 H 0.73986 0.98806 0.60112 0.0
H1246 H 0.7529 0.02396 0.56007 0.0
H1247 H 0.77077 0.97118 0.55852 0.0
loop_
_geom_bond_atom_site_label_1
_geom_bond_atom_site_label_2
_geom_bond_distance
_geom_bond_site_symmetry_2
_ccdc_geom_bond_type
C0 O1 1.306 . S
C0 O3 1.160 . S
O1 C0 1.306 . S
O1 Cd2 2.228 . S
Cd2 O1 2.228 . S
Cd2 O6 2.273 . S
Cd2 O10 2.277 . S
O3 C0 1.160 . S
O3 Cd4 2.203 . S
Cd4 O3 2.203 . S
Cd4 O6 2.411 . S
Cd4 O7 2.333 . S
Cd4 O8 2.352 . S
Cd4 O12 2.277 . S
Cd4 O13 2.356 . S
C5 O10 1.209 . S
C5 O12 1.226 . S
O6 Cd2 2.273 . S
O6 Cd4 2.411 . S
O6 C9 1.320 . S
O7 Cd4 2.333 . S
O7 C9 1.214 . S
O8 Cd4 2.352 . S
O8 C11 1.258 . S
C9 O6 1.320 . S
C9 O7 1.214 . S
O10 Cd2 2.277 . S
O10 C5 1.209 . S
C11 O8 1.258 . S
C11 O13 1.282 . S
O12 Cd4 2.277 . S
O12 C5 1.226 . S
O13 Cd4 2.356 . S
O13 C11 1.282 . S
C14 O15 1.306 1_565 S
C14 O17 1.160 . S
O15 C14 1.306 1_545 S
O15 Cd16 2.228 . S
Cd16 O15 2.228 . S
Cd16 O20 2.273 . S
Cd16 O24 2.277 . S
O17 C14 1.160 . S
O17 Cd18 2.203 1_565 S
Cd18 O17 2.203 1_545 S
Cd18 O20 2.411 . S
Cd18 O21 2.333 1_655 S
Cd18 O22 2.352 1_545 S
Cd18 O26 2.277 1_545 S
Cd18 O27 2.356 1_645 S
C19 O24 1.209 . S
C19 O26 1.226 1_545 S
O20 Cd16 2.273 . S
O20 Cd18 2.411 . S
O20 C23 1.320 . S
O21 Cd18 2.333 1_455 S
O21 C23 1.214 1_455 S
O22 Cd18 2.352 1_565 S
O22 C25 1.258 1_655 S
C23 O20 1.320 . S
C23 O21 1.214 1_655 S
O24 Cd16 2.277 . S
O24 C19 1.209 . S
C25 O22 1.258 1_455 S
C25 O27 1.282 . S
O26 Cd18 2.277 1_565 S
O26 C19 1.226 1_565 S
O27 Cd18 2.356 1_465 S
O27 C25 1.282 . S
C28 O29 1.306 . S
C28 O31 1.160 . S
O29 C28 1.306 . S
O29 Cd30 2.228 . S
Cd30 O29 2.228 . S
Cd30 O34 2.273 . S
Cd30 O38 2.277 . S
O31 C28 1.160 . S
O31 Cd32 2.203 . S
Cd32 O31 2.203 . S
Cd32 O34 2.411 . S
Cd32 O35 2.333 . S
Cd32 O36 2.352 . S
Cd32 O40 2.277 . S
Cd32 O41 2.356 . S
C33 O38 1.209 . S
C33 O40 1.226 . S
O34 Cd30 2.273 . S
O34 Cd32 2.411 . S
O34 C37 1.320 . S
O35 Cd32 2.333 . S
O35 C37 1.214 . S
O36 Cd32 2.352 . S
O36 C39 1.258 . S
C37 O34 1.320 . S
C37 O35 1.214 . S
O38 Cd30 2.277 . S
O38 C33 1.209 . S
C39 O36 1.258 . S
C39 O41 1.282 . S
O40 Cd32 2.277 . S
O40 C33 1.226 . S
O41 Cd32 2.356 . S
O41 C39 1.282 . S
C42 O43 1.306 1_546 S
C42 O45 1.160 1_556 S
O43 C42 1.306 1_564 S
O43 Cd44 2.228 . S
Cd44 O43 2.228 . S
Cd44 O48 2.273 1_554 S
Cd44 O52 2.277 . S
O45 C42 1.160 1_554 S
O45 Cd46 2.203 1_545 S
Cd46 O45 2.203 1_565 S
Cd46 O48 2.411 1_554 S
Cd46 O49 2.333 . S
Cd46 O50 2.352 1_564 S
Cd46 O54 2.277 1_565 S
Cd46 O55 2.356 1_564 S
C47 O52 1.209 . S
C47 O54 1.226 1_565 S
O48 Cd44 2.273 1_556 S
O48 Cd46 2.411 1_556 S
O48 C51 1.320 1_556 S
O49 Cd46 2.333 . S
O49 C51 1.214 . S
O50 Cd46 2.352 1_546 S
O50 C53 1.258 . S
C51 O48 1.320 1_554 S
C51 O49 1.214 . S
O52 Cd44 2.277 . S
O52 C47 1.209 . S
C53 O50 1.258 . S
C53 O55 1.282 . S
O54 Cd46 2.277 1_545 S
O54 C47 1.226 1_545 S
O55 Cd46 2.356 1_546 S
O55 C53 1.282 . S
C56 O57 1.306 . S
C56 O59 1.160 . S
O57 C56 1.306 . S
O57 Cd58 2.228 . S
Cd58 O57 2.228 . S
Cd58 O62 2.273 . S
Cd58 O66 2.277 . S
O59 C56 1.160 . S
O59 Cd60 2.203 . S
Cd60 O59 2.203 . S
Cd60 O62 2.411 . S
Cd60 O63 2.333 . S
Cd60 O64 2.352 . S
Cd60 O68 2.277 . S
Cd60 O69 2.356 . S
C61 O66 1.209 . S
C61 O68 1.226 . S
O62 Cd58 2.273 . S
O62 Cd60 2.411 . S
O62 C65 1.320 . S
O63 Cd60 2.333 . S
O63 C65 1.214 . S
O64 Cd60 2.352 . S
O64 C67 1.258 . S
C65 O62 1.320 . S
C65 O63 1.214 . S
O66 Cd58 2.277 . S
O66 C61 1.209 . S
C67 O64 1.258 . S
C67 O69 1.282 . S
O68 Cd60 2.277 . S
O68 C61 1.226 . S
O69 Cd60 2.356 . S
O69 C67 1.282 . S
C70 O71 1.306 1_565 S
C70 O73 1.160 . S
O71 C70 1.306 1_545 S
O71 Cd72 2.228 . S
Cd72 O71 2.228 . S
Cd72 O76 2.273 . S
Cd72 O80 2.277 . S
O73 C70 1.160 . S
O73 Cd74 2.203 1_565 S
Cd74 O73 2.203 1_545 S
Cd74 O76 2.411 . S
Cd74 O77 2.333 . S
Cd74 O78 2.352 1_545 S
Cd74 O82 2.277 1_545 S
Cd74 O83 2.356 1_545 S
C75 O80 1.209 . S
C75 O82 1.226 1_545 S
O76 Cd72 2.273 . S
O76 Cd74 2.411 . S
O76 C79 1.320 . S
O77 Cd74 2.333 . S
O77 C79 1.214 . S
O78 Cd74 2.352 1_565 S
O78 C81 1.258 . S
C79 O76 1.320 . S
C79 O77 1.214 . S
O80 Cd72 2.277 . S
O80 C75 1.209 . S
C81 O78 1.258 . S
C81 O83 1.282 . S
O82 Cd74 2.277 1_565 S
O82 C75 1.226 1_565 S
O83 Cd74 2.356 1_565 S
O83 C81 1.282 . S
C84 O85 1.306 . S
C84 O87 1.160 . S
O85 C84 1.306 . S
O85 Cd86 2.228 . S
Cd86 O85 2.228 . S
Cd86 O90 2.273 . S
Cd86 O94 2.277 . S
O87 C84 1.160 . S
O87 Cd88 2.203 . S
Cd88 O87 2.203 . S
Cd88 O90 2.411 . S
Cd88 O91 2.333 . S
Cd88 O92 2.352 . S
Cd88 O96 2.277 . S
Cd88 O97 2.356 . S
C89 O94 1.209 . S
C89 O96 1.226 . S
O90 Cd86 2.273 . S
O90 Cd88 2.411 . S
O90 C93 1.320 . S
O91 Cd88 2.333 . S
O91 C93 1.214 . S
O92 Cd88 2.352 . S
O92 C95 1.258 . S
C93 O90 1.320 . S
C93 O91 1.214 . S
O94 Cd86 2.277 . S
O94 C89 1.209 . S
C95 O92 1.258 . S
C95 O97 1.282 . S
O96 Cd88 2.277 . S
O96 C89 1.226 . S
O97 Cd88 2.356 . S
O97 C95 1.282 . S
C98 O99 1.306 1_544 S
C98 O101 1.160 1_554 S
O99 C98 1.306 1_566 S
O99 Cd100 2.228 . S
Cd100 O99 2.228 . S
Cd100 O104 2.273 1_556 S
Cd100 O108 2.277 . S
O101 C98 1.160 1_556 S
O101 Cd102 2.203 1_545 S
Cd102 O101 2.203 1_565 S
Cd102 O104 2.411 1_556 S
Cd102 O105 2.333 1_655 S
Cd102 O106 2.352 1_566 S
Cd102 O110 2.277 1_565 S
Cd102 O111 2.356 1_666 S
C103 O108 1.209 . S
C103 O110 1.226 1_565 S
O104 Cd100 2.273 1_554 S
O104 Cd102 2.411 1_554 S
O104 C107 1.320 1_554 S
O105 Cd102 2.333 1_455 S
O105 C107 1.214 1_455 S
O106 Cd102 2.352 1_544 S
O106 C109 1.258 1_655 S
C107 O104 1.320 1_556 S
C107 O105 1.214 1_655 S
O108 Cd100 2.277 . S
O108 C103 1.209 . S
C109 O106 1.258 1_455 S
C109 O111 1.282 . S
O110 Cd102 2.277 1_545 S
O110 C103 1.226 1_545 S
O111 Cd102 2.356 1_444 S
O111 C109 1.282 . S
C112 O113 1.306 . S
C112 O115 1.160 . S
O113 C112 1.306 . S
O113 Cd114 2.228 . S
Cd114 O113 2.228 . S
Cd114 O118 2.273 . S
Cd114 O122 2.277 . S
O115 C112 1.160 . S
O115 Cd116 2.203 . S
Cd116 O115 2.203 . S
Cd116 O118 2.411 . S
Cd116 O119 2.333 . S
Cd116 O120 2.352 . S
Cd116 O124 2.277 . S
Cd116 O125 2.356 . S
C117 O122 1.209 . S
C117 O124 1.226 . S
O118 Cd114 2.273 . S
O118 Cd116 2.411 . S
O118 C121 1.320 . S
O119 Cd116 2.333 . S
O119 C121 1.214 . S
O120 Cd116 2.352 . S
O120 C123 1.258 . S
C121 O118 1.320 . S
C121 O119 1.214 . S
O122 Cd114 2.277 . S
O122 C117 1.209 . S
C123 O120 1.258 . S
C123 O125 1.282 . S
O124 Cd116 2.277 . S
O124 C117 1.226 . S
O125 Cd116 2.356 . S
O125 C123 1.282 . S
C126 O127 1.306 1_554 S
C126 O129 1.160 1_554 S
O127 C126 1.306 1_556 S
O127 Cd128 2.228 . S
Cd128 O127 2.228 . S
Cd128 O132 2.273 1_556 S
Cd128 O136 2.277 . S
O129 C126 1.160 1_556 S
O129 Cd130 2.203 . S
Cd130 O129 2.203 . S
Cd130 O132 2.411 1_556 S
Cd130 O133 2.333 1_455 S
Cd130 O134 2.352 1_556 S
Cd130 O138 2.277 . S
Cd130 O139 2.356 1_456 S
C131 O136 1.209 . S
C131 O138 1.226 . S
O132 Cd128 2.273 1_554 S
O132 Cd130 2.411 1_554 S
O132 C135 1.320 1_554 S
O133 Cd130 2.333 1_655 S
O133 C135 1.214 1_655 S
O134 Cd130 2.352 1_554 S
O134 C137 1.258 1_455 S
C135 O132 1.320 1_556 S
C135 O133 1.214 1_455 S
O136 Cd128 2.277 . S
O136 C131 1.209 . S
C137 O134 1.258 1_655 S
C137 O139 1.282 . S
O138 Cd130 2.277 . S
O138 C131 1.226 . S
O139 Cd130 2.356 1_654 S
O139 C137 1.282 . S
C140 O141 1.306 . S
C140 O143 1.160 . S
O141 C140 1.306 . S
O141 Cd142 2.228 . S
Cd142 O141 2.228 . S
Cd142 O146 2.273 . S
Cd142 O150 2.277 . S
O143 C140 1.160 . S
O143 Cd144 2.203 . S
Cd144 O143 2.203 . S
Cd144 O146 2.411 . S
Cd144 O147 2.333 . S
Cd144 O148 2.352 . S
Cd144 O152 2.277 . S
Cd144 O153 2.356 . S
C145 O150 1.209 . S
C145 O152 1.226 . S
O146 Cd142 2.273 . S
O146 Cd144 2.411 . S
O146 C149 1.320 . S
O147 Cd144 2.333 . S
O147 C149 1.214 . S
O148 Cd144 2.352 . S
O148 C151 1.258 . S
C149 O146 1.320 . S
C149 O147 1.214 . S
O150 Cd142 2.277 . S
O150 C145 1.209 . S
C151 O148 1.258 . S
C151 O153 1.282 . S
O152 Cd144 2.277 . S
O152 C145 1.226 . S
O153 Cd144 2.356 . S
O153 C151 1.282 . S
C154 O155 1.306 . S
C154 O157 1.160 . S
O155 C154 1.306 . S
O155 Cd156 2.228 . S
Cd156 O155 2.228 . S
Cd156 O160 2.273 . S
Cd156 O164 2.277 . S
O157 C154 1.160 . S
O157 Cd158 2.203 . S
Cd158 O157 2.203 . S
Cd158 O160 2.411 . S
Cd158 O161 2.333 1_455 S
Cd158 O162 2.352 . S
Cd158 O166 2.277 . S
Cd158 O167 2.356 1_455 S
C159 O164 1.209 . S
C159 O166 1.226 . S
O160 Cd156 2.273 . S
O160 Cd158 2.411 . S
O160 C163 1.320 . S
O161 Cd158 2.333 1_655 S
O161 C163 1.214 1_655 S
O162 Cd158 2.352 . S
O162 C165 1.258 1_455 S
C163 O160 1.320 . S
C163 O161 1.214 1_455 S
O164 Cd156 2.277 . S
O164 C159 1.209 . S
C165 O162 1.258 1_655 S
C165 O167 1.282 . S
O166 Cd158 2.277 . S
O166 C159 1.226 . S
O167 Cd158 2.356 1_655 S
O167 C165 1.282 . S
C168 O169 1.306 1_556 S
C168 O171 1.160 1_556 S
O169 C168 1.306 1_554 S
O169 Cd170 2.228 . S
Cd170 O169 2.228 . S
Cd170 O174 2.273 1_554 S
Cd170 O178 2.277 . S
O171 C168 1.160 1_554 S
O171 Cd172 2.203 . S
Cd172 O171 2.203 . S
Cd172 O174 2.411 1_554 S
Cd172 O175 2.333 . S
Cd172 O176 2.352 1_554 S
Cd172 O180 2.277 . S
Cd172 O181 2.356 1_554 S
C173 O178 1.209 . S
C173 O180 1.226 . S
O174 Cd170 2.273 1_556 S
O174 Cd172 2.411 1_556 S
O174 C177 1.320 1_556 S
O175 Cd172 2.333 . S
O175 C177 1.214 . S
O176 Cd172 2.352 1_556 S
O176 C179 1.258 . S
C177 O174 1.320 1_554 S
C177 O175 1.214 . S
O178 Cd170 2.277 . S
O178 C173 1.209 . S
C179 O176 1.258 . S
C179 O181 1.282 . S
O180 Cd172 2.277 . S
O180 C173 1.226 . S
O181 Cd172 2.356 1_556 S
O181 C179 1.282 . S
C182 O183 1.306 . S
C182 O185 1.160 . S
O183 C182 1.306 . S
O183 Cd184 2.228 . S
Cd184 O183 2.228 . S
Cd184 O188 2.273 . S
Cd184 O192 2.277 . S
O185 C182 1.160 . S
O185 Cd186 2.203 . S
Cd186 O185 2.203 . S
Cd186 O188 2.411 . S
Cd186 O189 2.333 . S
Cd186 O190 2.352 . S
Cd186 O194 2.277 . S
Cd186 O195 2.356 . S
C187 O192 1.209 . S
C187 O194 1.226 . S
O188 Cd184 2.273 . S
O188 Cd186 2.411 . S
O188 C191 1.320 . S
O189 Cd186 2.333 . S
O189 C191 1.214 . S
O190 Cd186 2.352 . S
O190 C193 1.258 . S
C191 O188 1.320 . S
C191 O189 1.214 . S
O192 Cd184 2.277 . S
O192 C187 1.209 . S
C193 O190 1.258 . S
C193 O195 1.282 . S
O194 Cd186 2.277 . S
O194 C187 1.226 . S
O195 Cd186 2.356 . S
O195 C193 1.282 . S
C196 O197 1.306 . S
C196 O199 1.160 . S
O197 C196 1.306 . S
O197 Cd198 2.228 . S
Cd198 O197 2.228 . S
Cd198 O202 2.273 . S
Cd198 O206 2.277 . S
O199 C196 1.160 . S
O199 Cd200 2.203 . S
Cd200 O199 2.203 . S
Cd200 O202 2.411 . S
Cd200 O203 2.333 . S
Cd200 O204 2.352 . S
Cd200 O208 2.277 . S
Cd200 O209 2.356 . S
C201 O206 1.209 . S
C201 O208 1.226 . S
O202 Cd198 2.273 . S
O202 Cd200 2.411 . S
O202 C205 1.320 . S
O203 Cd200 2.333 . S
O203 C205 1.214 . S
O204 Cd200 2.352 . S
O204 C207 1.258 . S
C205 O202 1.320 . S
C205 O203 1.214 . S
O206 Cd198 2.277 . S
O206 C201 1.209 . S
C207 O204 1.258 . S
C207 O209 1.282 . S
O208 Cd200 2.277 . S
O208 C201 1.226 . S
O209 Cd200 2.356 . S
O209 C207 1.282 . S
C210 O211 1.306 . S
C210 O213 1.160 . S
O211 C210 1.306 . S
O211 Cd212 2.228 . S
Cd212 O211 2.228 . S
Cd212 O216 2.273 . S
Cd212 O220 2.277 . S
O213 C210 1.160 . S
O213 Cd214 2.203 . S
Cd214 O213 2.203 . S
Cd214 O216 2.411 . S
Cd214 O217 2.333 . S
Cd214 O218 2.352 . S
Cd214 O222 2.277 . S
Cd214 O223 2.356 . S
C215 O220 1.209 . S
C215 O222 1.226 . S
O216 Cd212 2.273 . S
O216 Cd214 2.411 . S
O216 C219 1.320 . S
O217 Cd214 2.333 . S
O217 C219 1.214 . S
O218 Cd214 2.352 . S
O218 C221 1.258 . S
C219 O216 1.320 . S
C219 O217 1.214 . S
O220 Cd212 2.277 . S
O220 C215 1.209 . S
C221 O218 1.258 . S
C221 O223 1.282 . S
O222 Cd214 2.277 . S
O222 C215 1.226 . S
O223 Cd214 2.356 . S
O223 C221 1.282 . S
C224 C225 1.391 . S
C224 C226 1.394 . S
C224 H240 0.931 . S
C225 C224 1.391 . S
C225 C229 1.376 . S
C226 C224 1.394 . S
C226 C227 1.369 . S
C226 C230 1.531 . S
C227 C226 1.369 . S
C227 C228 1.410 . S
C227 C235 1.503 . S
C228 C227 1.410 . S
C228 C229 1.392 . S
C228 C231 1.511 . S
C229 C225 1.376 . S
C229 C228 1.392 . S
C229 H241 0.929 . S
C230 C226 1.531 . S
C230 H242 0.960 . S
C230 H243 0.962 . S
C230 H244 0.960 . S
C231 C228 1.511 . S
C231 H245 0.961 . S
C231 H246 0.961 . S
C231 H247 0.961 . S
C232 C233 1.370 . S
C232 C234 1.363 . S
C232 H248 0.931 . S
C233 C232 1.370 . S
C233 C237 1.408 . S
C234 C232 1.363 . S
C234 C235 1.370 . S
C234 C238 1.524 . S
C235 C227 1.503 . S
C235 C234 1.370 . S
C235 C236 1.403 . S
C236 C235 1.403 . S
C236 C237 1.404 . S
C236 C239 1.539 . S
C237 C233 1.408 . S
C237 C236 1.404 . S
C237 H249 0.930 . S
C238 C234 1.524 . S
C238 H250 0.956 . S
C238 H251 0.961 . S
C238 H252 0.961 . S
C239 C236 1.539 . S
C239 H253 0.958 . S
C239 H254 0.961 . S
C239 H255 0.960 . S
H240 C224 0.931 . S
H241 C229 0.929 . S
H242 C230 0.960 . S
H243 C230 0.962 . S
H244 C230 0.960 . S
H245 C231 0.961 . S
H246 C231 0.961 . S
H247 C231 0.961 . S
H248 C232 0.931 . S
H249 C237 0.930 . S
H250 C238 0.956 . S
H251 C238 0.961 . S
H252 C238 0.961 . S
H253 C239 0.958 . S
H254 C239 0.961 . S
H255 C239 0.960 . S
C256 C257 1.391 . S
C256 C258 1.394 . S
C256 H272 0.931 . S
C257 C256 1.391 . S
C257 C261 1.376 . S
C258 C256 1.394 . S
C258 C259 1.369 . S
C258 C262 1.531 . S
C259 C258 1.369 . S
C259 C260 1.410 . S
C259 C267 1.503 . S
C260 C259 1.410 . S
C260 C261 1.392 . S
C260 C263 1.511 . S
C261 C257 1.376 . S
C261 C260 1.392 . S
C261 H273 0.929 . S
C262 C258 1.531 . S
C262 H274 0.960 . S
C262 H275 0.962 . S
C262 H276 0.960 . S
C263 C260 1.511 . S
C263 H277 0.961 . S
C263 H278 0.961 . S
C263 H279 0.961 . S
C264 C265 1.370 . S
C264 C266 1.363 . S
C264 H280 0.931 . S
C265 C264 1.370 . S
C265 C269 1.408 . S
C266 C264 1.363 . S
C266 C267 1.370 . S
C266 C270 1.524 . S
C267 C259 1.503 . S
C267 C266 1.370 . S
C267 C268 1.403 . S
C268 C267 1.403 . S
C268 C269 1.404 . S
C268 C271 1.539 . S
C269 C265 1.408 . S
C269 C268 1.404 . S
C269 H281 0.930 . S
C270 C266 1.524 . S
C270 H282 0.956 . S
C270 H283 0.961 . S
C270 H284 0.961 . S
C271 C268 1.539 . S
C271 H285 0.958 . S
C271 H286 0.961 . S
C271 H287 0.960 . S
H272 C256 0.931 . S
H273 C261 0.929 . S
H274 C262 0.960 . S
H275 C262 0.962 . S
H276 C262 0.960 . S
H277 C263 0.961 . S
H278 C263 0.961 . S
H279 C263 0.961 . S
H280 C264 0.931 . S
H281 C269 0.930 . S
H282 C270 0.956 . S
H283 C270 0.961 . S
H284 C270 0.961 . S
H285 C271 0.958 . S
H286 C271 0.961 . S
H287 C271 0.960 . S
C288 C289 1.391 . S
C288 C290 1.394 . S
C288 H304 0.931 . S
C289 C288 1.391 . S
C289 C293 1.376 . S
C290 C288 1.394 . S
C290 C291 1.369 . S
C290 C294 1.531 . S
C291 C290 1.369 . S
C291 C292 1.410 . S
C291 C299 1.503 . S
C292 C291 1.410 . S
C292 C293 1.392 . S
C292 C295 1.511 . S
C293 C289 1.376 . S
C293 C292 1.392 . S
C293 H305 0.929 . S
C294 C290 1.531 . S
C294 H306 0.960 . S
C294 H307 0.962 . S
C294 H308 0.960 . S
C295 C292 1.511 . S
C295 H309 0.961 . S
C295 H310 0.961 . S
C295 H311 0.961 . S
C296 C297 1.370 . S
C296 C298 1.363 . S
C296 H312 0.931 . S
C297 C296 1.370 . S
C297 C301 1.408 . S
C298 C296 1.363 . S
C298 C299 1.370 . S
C298 C302 1.524 . S
C299 C291 1.503 . S
C299 C298 1.370 . S
C299 C300 1.403 . S
C300 C299 1.403 . S
C300 C301 1.404 . S
C300 C303 1.539 . S
C301 C297 1.408 . S
C301 C300 1.404 . S
C301 H313 0.930 . S
C302 C298 1.524 . S
C302 H314 0.956 . S
C302 H315 0.961 . S
C302 H316 0.961 . S
C303 C300 1.539 . S
C303 H317 0.958 . S
C303 H318 0.961 . S
C303 H319 0.960 . S
H304 C288 0.931 . S
H305 C293 0.929 . S
H306 C294 0.960 . S
H307 C294 0.962 . S
H308 C294 0.960 . S
H309 C295 0.961 . S
H310 C295 0.961 . S
H311 C295 0.961 . S
H312 C296 0.931 . S
H313 C301 0.930 . S
H314 C302 0.956 . S
H315 C302 0.961 . S
H316 C302 0.961 . S
H317 C303 0.958 . S
H318 C303 0.961 . S
H319 C303 0.960 . S
C320 C321 1.391 . S
C320 C322 1.394 . S
C320 H336 0.931 . S
C321 C320 1.391 . S
C321 C325 1.376 . S
C322 C320 1.394 . S
C322 C323 1.369 . S
C322 C326 1.531 . S
C323 C322 1.369 . S
C323 C324 1.410 . S
C323 C331 1.503 . S
C324 C323 1.410 . S
C324 C325 1.392 . S
C324 C327 1.511 . S
C325 C321 1.376 . S
C325 C324 1.392 . S
C325 H337 0.929 . S
C326 C322 1.531 . S
C326 H338 0.960 . S
C326 H339 0.962 . S
C326 H340 0.960 . S
C327 C324 1.511 . S
C327 H341 0.961 . S
C327 H342 0.961 . S
C327 H343 0.961 . S
C328 C329 1.370 . S
C328 C330 1.363 . S
C328 H344 0.931 . S
C329 C328 1.370 . S
C329 C333 1.408 . S
C330 C328 1.363 . S
C330 C331 1.370 . S
C330 C334 1.524 . S
C331 C323 1.503 . S
C331 C330 1.370 . S
C331 C332 1.403 . S
C332 C331 1.403 . S
C332 C333 1.404 . S
C332 C335 1.539 . S
C333 C329 1.408 . S
C333 C332 1.404 . S
C333 H345 0.930 . S
C334 C330 1.524 . S
C334 H346 0.956 . S
C334 H347 0.961 . S
C334 H348 0.961 . S
C335 C332 1.539 . S
C335 H349 0.958 . S
C335 H350 0.961 . S
C335 H351 0.960 . S
H336 C320 0.931 . S
H337 C325 0.929 . S
H338 C326 0.960 . S
H339 C326 0.962 . S
H340 C326 0.960 . S
H341 C327 0.961 . S
H342 C327 0.961 . S
H343 C327 0.961 . S
H344 C328 0.931 . S
H345 C333 0.930 . S
H346 C334 0.956 . S
H347 C334 0.961 . S
H348 C334 0.961 . S
H349 C335 0.958 . S
H350 C335 0.961 . S
H351 C335 0.960 . S
C352 C353 1.391 . S
C352 C354 1.394 . S
C352 H368 0.931 . S
C353 C352 1.391 . S
C353 C357 1.376 . S
C354 C352 1.394 . S
C354 C355 1.369 . S
C354 C358 1.531 . S
C355 C354 1.369 . S
C355 C356 1.410 . S
C355 C363 1.503 . S
C356 C355 1.410 . S
C356 C357 1.392 . S
C356 C359 1.511 . S
C357 C353 1.376 . S
C357 C356 1.392 . S
C357 H369 0.929 . S
C358 C354 1.531 . S
C358 H370 0.960 . S
C358 H371 0.962 . S
C358 H372 0.960 . S
C359 C356 1.511 . S
C359 H373 0.961 . S
C359 H374 0.961 . S
C359 H375 0.961 . S
C360 C361 1.370 . S
C360 C362 1.363 . S
C360 H376 0.931 . S
C361 C360 1.370 . S
C361 C365 1.408 . S
C362 C360 1.363 . S
C362 C363 1.370 . S
C362 C366 1.524 . S
C363 C355 1.503 . S
C363 C362 1.370 . S
C363 C364 1.403 . S
C364 C363 1.403 . S
C364 C365 1.404 . S
C364 C367 1.539 . S
C365 C361 1.408 . S
C365 C364 1.404 . S
C365 H377 0.930 . S
C366 C362 1.524 . S
C366 H378 0.956 . S
C366 H379 0.961 . S
C366 H380 0.961 . S
C367 C364 1.539 . S
C367 H381 0.958 . S
C367 H382 0.961 . S
C367 H383 0.960 . S
H368 C352 0.931 . S
H369 C357 0.929 . S
H370 C358 0.960 . S
H371 C358 0.962 . S
H372 C358 0.960 . S
H373 C359 0.961 . S
H374 C359 0.961 . S
H375 C359 0.961 . S
H376 C360 0.931 . S
H377 C365 0.930 . S
H378 C366 0.956 . S
H379 C366 0.961 . S
H380 C366 0.961 . S
H381 C367 0.958 . S
H382 C367 0.961 . S
H383 C367 0.960 . S
C384 C385 1.391 . S
C384 C386 1.394 . S
C384 H400 0.931 . S
C385 C384 1.391 . S
C385 C389 1.376 . S
C386 C384 1.394 . S
C386 C387 1.369 . S
C386 C390 1.531 . S
C387 C386 1.369 . S
C387 C388 1.410 . S
C387 C395 1.503 . S
C388 C387 1.410 . S
C388 C389 1.392 . S
C388 C391 1.511 . S
C389 C385 1.376 . S
C389 C388 1.392 . S
C389 H401 0.929 . S
C390 C386 1.531 . S
C390 H402 0.960 . S
C390 H403 0.962 . S
C390 H404 0.960 . S
C391 C388 1.511 . S
C391 H405 0.961 . S
C391 H406 0.961 . S
C391 H407 0.961 . S
C392 C393 1.370 . S
C392 C394 1.363 . S
C392 H408 0.931 . S
C393 C392 1.370 . S
C393 C397 1.408 . S
C394 C392 1.363 . S
C394 C395 1.370 . S
C394 C398 1.524 . S
C395 C387 1.503 . S
C395 C394 1.370 . S
C395 C396 1.403 . S
C396 C395 1.403 . S
C396 C397 1.404 . S
C396 C399 1.539 . S
C397 C393 1.408 . S
C397 C396 1.404 . S
C397 H409 0.930 . S
C398 C394 1.524 . S
C398 H410 0.956 . S
C398 H411 0.961 . S
C398 H412 0.961 . S
C399 C396 1.539 . S
C399 H413 0.958 . S
C399 H414 0.961 . S
C399 H415 0.960 . S
H400 C384 0.931 . S
H401 C389 0.929 . S
H402 C390 0.960 . S
H403 C390 0.962 . S
H404 C390 0.960 . S
H405 C391 0.961 . S
H406 C391 0.961 . S
H407 C391 0.961 . S
H408 C392 0.931 . S
H409 C397 0.930 . S
H410 C398 0.956 . S
H411 C398 0.961 . S
H412 C398 0.961 . S
H413 C399 0.958 . S
H414 C399 0.961 . S
H415 C399 0.960 . S
C416 C417 1.391 . S
C416 C418 1.394 . S
C416 H432 0.931 . S
C417 C416 1.391 . S
C417 C421 1.376 . S
C418 C416 1.394 . S
C418 C419 1.369 . S
C418 C422 1.531 . S
C419 C418 1.369 . S
C419 C420 1.410 . S
C419 C427 1.503 . S
C420 C419 1.410 . S
C420 C421 1.392 . S
C420 C423 1.511 . S
C421 C417 1.376 . S
C421 C420 1.392 . S
C421 H433 0.929 . S
C422 C418 1.531 . S
C422 H434 0.960 . S
C422 H435 0.962 . S
C422 H436 0.960 . S
C423 C420 1.511 . S
C423 H437 0.961 . S
C423 H438 0.961 . S
C423 H439 0.961 . S
C424 C425 1.370 . S
C424 C426 1.363 . S
C424 H440 0.931 . S
C425 C424 1.370 . S
C425 C429 1.408 . S
C426 C424 1.363 . S
C426 C427 1.370 . S
C426 C430 1.524 . S
C427 C419 1.503 . S
C427 C426 1.370 . S
C427 C428 1.403 . S
C428 C427 1.403 . S
C428 C429 1.404 . S
C428 C431 1.539 . S
C429 C425 1.408 . S
C429 C428 1.404 . S
C429 H441 0.930 . S
C430 C426 1.524 . S
C430 H442 0.956 . S
C430 H443 0.961 . S
C430 H444 0.961 . S
C431 C428 1.539 . S
C431 H445 0.958 . S
C431 H446 0.961 . S
C431 H447 0.960 . S
H432 C416 0.931 . S
H433 C421 0.929 . S
H434 C422 0.960 . S
H435 C422 0.962 . S
H436 C422 0.960 . S
H437 C423 0.961 . S
H438 C423 0.961 . S
H439 C423 0.961 . S
H440 C424 0.931 . S
H441 C429 0.930 . S
H442 C430 0.956 . S
H443 C430 0.961 . S
H444 C430 0.961 . S
H445 C431 0.958 . S
H446 C431 0.961 . S
H447 C431 0.960 . S
C448 C449 1.391 . S
C448 C450 1.394 . S
C448 H464 0.931 . S
C449 C448 1.391 . S
C449 C453 1.376 . S
C450 C448 1.394 . S
C450 C451 1.369 . S
C450 C454 1.531 . S
C451 C450 1.369 . S
C451 C452 1.410 . S
C451 C459 1.503 . S
C452 C451 1.410 . S
C452 C453 1.392 . S
C452 C455 1.511 . S
C453 C449 1.376 . S
C453 C452 1.392 . S
C453 H465 0.929 . S
C454 C450 1.531 . S
C454 H466 0.960 . S
C454 H467 0.962 . S
C454 H468 0.960 . S
C455 C452 1.511 . S
C455 H469 0.961 . S
C455 H470 0.961 . S
C455 H471 0.961 . S
C456 C457 1.370 . S
C456 C458 1.363 . S
C456 H472 0.931 . S
C457 C456 1.370 . S
C457 C461 1.408 . S
C458 C456 1.363 . S
C458 C459 1.370 . S
C458 C462 1.524 . S
C459 C451 1.503 . S
C459 C458 1.370 . S
C459 C460 1.403 . S
C460 C459 1.403 . S
C460 C461 1.404 . S
C460 C463 1.539 . S
C461 C457 1.408 . S
C461 C460 1.404 . S
C461 H473 0.930 . S
C462 C458 1.524 . S
C462 H474 0.956 . S
C462 H475 0.961 . S
C462 H476 0.961 . S
C463 C460 1.539 . S
C463 H477 0.958 . S
C463 H478 0.961 . S
C463 H479 0.960 . S
H464 C448 0.931 . S
H465 C453 0.929 . S
H466 C454 0.960 . S
H467 C454 0.962 . S
H468 C454 0.960 . S
H469 C455 0.961 . S
H470 C455 0.961 . S
H471 C455 0.961 . S
H472 C456 0.931 . S
H473 C461 0.930 . S
H474 C462 0.956 . S
H475 C462 0.961 . S
H476 C462 0.961 . S
H477 C463 0.958 . S
H478 C463 0.961 . S
H479 C463 0.960 . S
C480 C481 1.391 . S
C480 C482 1.394 . S
C480 H496 0.931 . S
C481 C480 1.391 . S
C481 C485 1.376 . S
C482 C480 1.394 . S
C482 C483 1.369 . S
C482 C486 1.531 . S
C483 C482 1.369 . S
C483 C484 1.410 . S
C483 C491 1.503 . S
C484 C483 1.410 . S
C484 C485 1.392 . S
C484 C487 1.511 . S
C485 C481 1.376 . S
C485 C484 1.392 . S
C485 H497 0.929 . S
C486 C482 1.531 . S
C486 H498 0.960 . S
C486 H499 0.962 . S
C486 H500 0.960 . S
C487 C484 1.511 . S
C487 H501 0.961 . S
C487 H502 0.961 . S
C487 H503 0.961 . S
C488 C489 1.370 . S
C488 C490 1.363 . S
C488 H504 0.931 . S
C489 C488 1.370 . S
C489 C493 1.408 . S
C490 C488 1.363 . S
C490 C491 1.370 . S
C490 C494 1.524 . S
C491 C483 1.503 . S
C491 C490 1.370 . S
C491 C492 1.403 . S
C492 C491 1.403 . S
C492 C493 1.404 . S
C492 C495 1.539 . S
C493 C489 1.408 . S
C493 C492 1.404 . S
C493 H505 0.930 . S
C494 C490 1.524 . S
C494 H506 0.956 . S
C494 H507 0.961 . S
C494 H508 0.961 . S
C495 C492 1.539 . S
C495 H509 0.958 . S
C495 H510 0.961 . S
C495 H511 0.960 . S
H496 C480 0.931 . S
H497 C485 0.929 . S
H498 C486 0.960 . S
H499 C486 0.962 . S
H500 C486 0.960 . S
H501 C487 0.961 . S
H502 C487 0.961 . S
H503 C487 0.961 . S
H504 C488 0.931 . S
H505 C493 0.930 . S
H506 C494 0.956 . S
H507 C494 0.961 . S
H508 C494 0.961 . S
H509 C495 0.958 . S
H510 C495 0.961 . S
H511 C495 0.960 . S
C512 C513 1.391 1_545 S
C512 C514 1.394 . S
C512 H528 0.931 . S
C513 C512 1.391 1_565 S
C513 C517 1.376 . S
C514 C512 1.394 . S
C514 C515 1.369 . S
C514 C518 1.531 . S
C515 C514 1.369 . S
C515 C516 1.410 1_545 S
C515 C523 1.503 . S
C516 C515 1.410 1_565 S
C516 C517 1.392 . S
C516 C519 1.511 1_655 S
C517 C513 1.376 . S
C517 C516 1.392 . S
C517 H529 0.929 1_655 S
C518 C514 1.531 . S
C518 H530 0.960 . S
C518 H531 0.962 . S
C518 H532 0.960 . S
C519 C516 1.511 1_455 S
C519 H533 0.961 . S
C519 H534 0.961 . S
C519 H535 0.961 . S
C520 C521 1.370 1_565 S
C520 C522 1.363 . S
C520 H536 0.931 . S
C521 C520 1.370 1_545 S
C521 C525 1.408 . S
C522 C520 1.363 . S
C522 C523 1.370 1_565 S
C522 C526 1.524 . S
C523 C515 1.503 . S
C523 C522 1.370 1_545 S
C523 C524 1.403 . S
C524 C523 1.403 . S
C524 C525 1.404 . S
C524 C527 1.552 . S
C525 C521 1.408 . S
C525 C524 1.404 . S
C525 H537 0.930 . S
C526 C522 1.524 . S
C526 H538 0.956 . S
C526 H539 0.961 . S
C526 H540 0.961 . S
C527 C524 1.552 . S
C527 H541 0.973 . S
C527 H542 0.942 1_655 S
C527 H543 0.951 1_655 S
H528 C512 0.931 . S
H529 C517 0.929 1_455 S
H530 C518 0.960 . S
H531 C518 0.962 . S
H532 C518 0.960 . S
H533 C519 0.961 . S
H534 C519 0.961 . S
H535 C519 0.961 . S
H536 C520 0.931 . S
H537 C525 0.930 . S
H538 C526 0.956 . S
H539 C526 0.961 . S
H540 C526 0.961 . S
H541 C527 0.973 . S
H542 C527 0.942 1_455 S
H543 C527 0.951 1_455 S
C544 C545 1.391 . S
C544 C546 1.394 . S
C544 H560 0.931 . S
C545 C544 1.391 . S
C545 C549 1.376 . S
C546 C544 1.394 . S
C546 C547 1.369 . S
C546 C550 1.531 . S
C547 C546 1.369 . S
C547 C548 1.410 . S
C547 C555 1.503 1_556 S
C548 C547 1.410 . S
C548 C549 1.392 . S
C548 C551 1.511 . S
C549 C545 1.376 . S
C549 C548 1.392 . S
C549 H561 0.929 . S
C550 C546 1.531 . S
C550 H562 0.960 1_556 S
C550 H563 0.962 . S
C550 H564 0.960 . S
C551 C548 1.511 . S
C551 H565 0.961 . S
C551 H566 0.961 1_556 S
C551 H567 0.961 . S
C552 C553 1.370 . S
C552 C554 1.363 . S
C552 H568 0.931 . S
C553 C552 1.370 . S
C553 C557 1.408 . S
C554 C552 1.363 . S
C554 C555 1.370 . S
C554 C558 1.524 . S
C555 C547 1.503 1_554 S
C555 C554 1.370 . S
C555 C556 1.403 . S
C556 C555 1.403 . S
C556 C557 1.404 . S
C556 C559 1.539 . S
C557 C553 1.408 . S
C557 C556 1.404 . S
C557 H569 0.930 . S
C558 C554 1.524 . S
C558 H570 0.956 . S
C558 H571 0.961 1_554 S
C558 H572 0.961 . S
C559 C556 1.539 . S
C559 H573 0.958 . S
C559 H574 0.961 . S
C559 H575 0.954 1_554 S
H560 C544 0.931 . S
H561 C549 0.929 . S
H562 C550 0.960 1_554 S
H563 C550 0.962 . S
H564 C550 0.960 . S
H565 C551 0.961 . S
H566 C551 0.961 1_554 S
H567 C551 0.961 . S
H568 C552 0.931 . S
H569 C557 0.930 . S
H570 C558 0.956 . S
H571 C558 0.961 1_556 S
H572 C558 0.961 . S
H573 C559 0.958 . S
H574 C559 0.961 . S
H575 C559 0.954 1_556 S
C576 C577 1.391 . S
C576 C578 1.394 . S
C576 H592 0.931 . S
C577 C576 1.391 . S
C577 C581 1.376 1_545 S
C578 C576 1.394 . S
C578 C579 1.369 . S
C578 C582 1.531 . S
C579 C578 1.369 . S
C579 C580 1.410 1_545 S
C579 C587 1.503 . S
C580 C579 1.410 1_565 S
C580 C581 1.392 . S
C580 C583 1.511 . S
C581 C577 1.376 1_565 S
C581 C580 1.392 . S
C581 H593 0.929 . S
C582 C578 1.531 . S
C582 H594 0.960 . S
C582 H595 0.962 . S
C582 H596 0.960 . S
C583 C580 1.511 . S
C583 H597 0.961 . S
C583 H598 0.961 . S
C583 H599 0.961 . S
C584 C585 1.370 . S
C584 C586 1.363 . S
C584 H600 0.931 . S
C585 C584 1.370 . S
C585 C589 1.408 1_565 S
C586 C584 1.363 . S
C586 C587 1.370 1_565 S
C586 C590 1.524 . S
C587 C579 1.503 . S
C587 C586 1.370 1_545 S
C587 C588 1.403 . S
C588 C587 1.403 . S
C588 C589 1.404 . S
C588 C591 1.539 . S
C589 C585 1.408 1_545 S
C589 C588 1.404 . S
C589 H601 0.930 . S
C590 C586 1.524 . S
C590 H602 0.956 . S
C590 H603 0.961 . S
C590 H604 0.961 . S
C591 C588 1.539 . S
C591 H605 0.958 . S
C591 H606 0.961 . S
C591 H607 0.960 . S
H592 C576 0.931 . S
H593 C581 0.929 . S
H594 C582 0.960 . S
H595 C582 0.962 . S
H596 C582 0.960 . S
H597 C583 0.961 . S
H598 C583 0.961 . S
H599 C583 0.961 . S
H600 C584 0.931 . S
H601 C589 0.930 . S
H602 C590 0.956 . S
H603 C590 0.961 . S
H604 C590 0.961 . S
H605 C591 0.958 . S
H606 C591 0.961 . S
H607 C591 0.960 . S
C608 C609 1.391 . S
C608 C610 1.394 . S
C608 H624 0.931 . S
C609 C608 1.391 . S
C609 C613 1.376 . S
C610 C608 1.394 . S
C610 C611 1.369 . S
C610 C614 1.531 . S
C611 C610 1.369 . S
C611 C612 1.410 . S
C611 C619 1.503 . S
C612 C611 1.410 . S
C612 C613 1.392 . S
C612 C615 1.511 . S
C613 C609 1.376 . S
C613 C612 1.392 . S
C613 H625 0.929 . S
C614 C610 1.531 . S
C614 H626 0.960 . S
C614 H627 0.962 . S
C614 H628 0.960 . S
C615 C612 1.511 . S
C615 H629 0.961 . S
C615 H630 0.961 . S
C615 H631 0.961 . S
C616 C617 1.370 . S
C616 C618 1.363 . S
C616 H632 0.931 . S
C617 C616 1.370 . S
C617 C621 1.408 . S
C618 C616 1.363 . S
C618 C619 1.370 . S
C618 C622 1.524 . S
C619 C611 1.503 . S
C619 C618 1.370 . S
C619 C620 1.403 . S
C620 C619 1.403 . S
C620 C621 1.404 . S
C620 C623 1.539 . S
C621 C617 1.408 . S
C621 C620 1.404 . S
C621 H633 0.930 . S
C622 C618 1.524 . S
C622 H634 0.956 . S
C622 H635 0.961 . S
C622 H636 0.961 . S
C623 C620 1.539 . S
C623 H637 0.958 . S
C623 H638 0.961 . S
C623 H639 0.960 . S
H624 C608 0.931 . S
H625 C613 0.929 . S
H626 C614 0.960 . S
H627 C614 0.962 . S
H628 C614 0.960 . S
H629 C615 0.961 . S
H630 C615 0.961 . S
H631 C615 0.961 . S
H632 C616 0.931 . S
H633 C621 0.930 . S
H634 C622 0.956 . S
H635 C622 0.961 . S
H636 C622 0.961 . S
H637 C623 0.958 . S
H638 C623 0.961 . S
H639 C623 0.960 . S
C640 C641 1.397 . S
C640 C642 1.394 . S
C640 H656 0.931 . S
C641 C640 1.397 . S
C641 C645 1.369 1_455 S
C642 C640 1.394 . S
C642 C643 1.369 1_455 S
C642 C646 1.531 . S
C643 C642 1.369 1_655 S
C643 C644 1.410 . S
C643 C651 1.503 . S
C644 C643 1.410 . S
C644 C645 1.392 . S
C644 C647 1.511 . S
C645 C641 1.369 1_655 S
C645 C644 1.392 . S
C645 H657 0.929 . S
C646 C642 1.531 . S
C646 H658 0.960 . S
C646 H659 0.962 . S
C646 H660 0.960 . S
C647 C644 1.511 . S
C647 H661 0.961 . S
C647 H662 0.961 . S
C647 H663 0.961 . S
C648 C649 1.370 1_455 S
C648 C650 1.363 . S
C648 H664 0.931 . S
C649 C648 1.370 1_655 S
C649 C653 1.408 . S
C650 C648 1.363 . S
C650 C651 1.370 1_455 S
C650 C654 1.524 . S
C651 C643 1.503 . S
C651 C650 1.370 1_655 S
C651 C652 1.403 . S
C652 C651 1.403 . S
C652 C653 1.404 . S
C652 C655 1.539 . S
C653 C649 1.408 . S
C653 C652 1.404 . S
C653 H665 0.930 . S
C654 C650 1.524 . S
C654 H666 0.956 . S
C654 H667 0.961 . S
C654 H668 0.961 . S
C655 C652 1.539 . S
C655 H669 0.958 . S
C655 H670 0.961 . S
C655 H671 0.960 . S
H656 C640 0.931 . S
H657 C645 0.929 . S
H658 C646 0.960 . S
H659 C646 0.962 . S
H660 C646 0.960 . S
H661 C647 0.961 . S
H662 C647 0.961 . S
H663 C647 0.961 . S
H664 C648 0.931 . S
H665 C653 0.930 . S
H666 C654 0.956 . S
H667 C654 0.961 . S
H668 C654 0.961 . S
H669 C655 0.958 . S
H670 C655 0.961 . S
H671 C655 0.960 . S
C672 C673 1.391 . S
C672 C674 1.394 . S
C672 H688 0.931 . S
C673 C672 1.391 . S
C673 C677 1.376 . S
C674 C672 1.394 . S
C674 C675 1.369 . S
C674 C678 1.531 . S
C675 C674 1.369 . S
C675 C676 1.410 . S
C675 C683 1.503 1_655 S
C676 C675 1.410 . S
C676 C677 1.392 . S
C676 C679 1.511 . S
C677 C673 1.376 . S
C677 C676 1.392 . S
C677 H689 0.929 . S
C678 C674 1.531 . S
C678 H690 0.960 . S
C678 H691 0.962 . S
C678 H692 0.960 . S
C679 C676 1.511 . S
C679 H693 0.961 . S
C679 H694 0.961 1_655 S
C679 H695 0.961 . S
C680 C681 1.370 . S
C680 C682 1.363 . S
C680 H696 0.931 . S
C681 C680 1.370 . S
C681 C685 1.408 . S
C682 C680 1.363 . S
C682 C683 1.370 . S
C682 C686 1.524 . S
C683 C675 1.503 1_455 S
C683 C682 1.370 . S
C683 C684 1.403 . S
C684 C683 1.403 . S
C684 C685 1.404 . S
C684 C687 1.539 . S
C685 C681 1.408 . S
C685 C684 1.404 . S
C685 H697 0.930 . S
C686 C682 1.524 . S
C686 H698 0.964 . S
C686 H699 0.961 . S
C686 H700 0.961 . S
C687 C684 1.539 . S
C687 H701 0.958 . S
C687 H702 0.961 . S
C687 H703 0.983 . S
H688 C672 0.931 . S
H689 C677 0.929 . S
H690 C678 0.960 . S
H691 C678 0.962 . S
H692 C678 0.960 . S
H693 C679 0.961 . S
H694 C679 0.961 1_455 S
H695 C679 0.961 . S
H696 C680 0.931 . S
H697 C685 0.930 . S
H698 C686 0.964 . S
H699 C686 0.961 . S
H700 C686 0.961 . S
H701 C687 0.958 . S
H702 C687 0.961 . S
H703 C687 0.983 . S
C704 C705 1.399 . S
C704 C706 1.394 . S
C704 H720 0.931 . S
C705 C704 1.399 . S
C705 C709 1.367 1_554 S
C706 C704 1.394 . S
C706 C707 1.369 1_554 S
C706 C710 1.531 . S
C707 C706 1.369 1_556 S
C707 C708 1.410 . S
C707 C715 1.503 . S
C708 C707 1.410 . S
C708 C709 1.392 . S
C708 C711 1.511 . S
C709 C705 1.367 1_556 S
C709 C708 1.392 . S
C709 H721 0.929 . S
C710 C706 1.531 . S
C710 H722 0.960 . S
C710 H723 0.962 . S
C710 H724 0.960 . S
C711 C708 1.511 . S
C711 H725 0.961 . S
C711 H726 0.961 . S
C711 H727 0.961 . S
C712 C713 1.370 . S
C712 C714 1.363 . S
C712 H728 0.931 . S
C713 C712 1.370 . S
C713 C717 1.408 1_554 S
C714 C712 1.363 . S
C714 C715 1.370 1_554 S
C714 C718 1.524 . S
C715 C707 1.503 . S
C715 C714 1.370 1_556 S
C715 C716 1.403 . S
C716 C715 1.403 . S
C716 C717 1.404 . S
C716 C719 1.539 . S
C717 C713 1.408 1_556 S
C717 C716 1.404 . S
C717 H729 0.930 . S
C718 C714 1.524 . S
C718 H730 0.956 . S
C718 H731 0.961 . S
C718 H732 0.961 . S
C719 C716 1.539 . S
C719 H733 0.958 . S
C719 H734 0.961 . S
C719 H735 0.960 . S
H720 C704 0.931 . S
H721 C709 0.929 . S
H722 C710 0.960 . S
H723 C710 0.962 . S
H724 C710 0.960 . S
H725 C711 0.961 . S
H726 C711 0.961 . S
H727 C711 0.961 . S
H728 C712 0.931 . S
H729 C717 0.930 . S
H730 C718 0.956 . S
H731 C718 0.961 . S
H732 C718 0.961 . S
H733 C719 0.958 . S
H734 C719 0.961 . S
H735 C719 0.960 . S
C736 C737 1.391 . S
C736 C738 1.394 . S
C736 H752 0.931 . S
C737 C736 1.391 . S
C737 C741 1.376 . S
C738 C736 1.394 . S
C738 C739 1.369 . S
C738 C742 1.531 . S
C739 C738 1.369 . S
C739 C740 1.410 . S
C739 C747 1.503 . S
C740 C739 1.410 . S
C740 C741 1.392 . S
C740 C743 1.511 . S
C741 C737 1.376 . S
C741 C740 1.392 . S
C741 H753 0.929 . S
C742 C738 1.531 . S
C742 H754 0.960 . S
C742 H755 0.962 . S
C742 H756 0.960 . S
C743 C740 1.511 . S
C743 H757 0.961 . S
C743 H758 0.961 . S
C743 H759 0.961 . S
C744 C745 1.370 . S
C744 C746 1.363 . S
C744 H760 0.931 . S
C745 C744 1.370 . S
C745 C749 1.408 . S
C746 C744 1.363 . S
C746 C747 1.370 . S
C746 C750 1.524 . S
C747 C739 1.503 . S
C747 C746 1.370 . S
C747 C748 1.403 . S
C748 C747 1.403 . S
C748 C749 1.404 . S
C748 C751 1.539 . S
C749 C745 1.408 . S
C749 C748 1.404 . S
C749 H761 0.930 . S
C750 C746 1.524 . S
C750 H762 0.956 . S
C750 H763 0.961 . S
C750 H764 0.961 . S
C751 C748 1.539 . S
C751 H765 0.958 . S
C751 H766 0.961 . S
C751 H767 0.960 . S
H752 C736 0.931 . S
H753 C741 0.929 . S
H754 C742 0.960 . S
H755 C742 0.962 . S
H756 C742 0.960 . S
H757 C743 0.961 . S
H758 C743 0.961 . S
H759 C743 0.961 . S
H760 C744 0.931 . S
H761 C749 0.930 . S
H762 C750 0.956 . S
H763 C750 0.961 . S
H764 C750 0.961 . S
H765 C751 0.958 . S
H766 C751 0.961 . S
H767 C751 0.960 . S
C768 C769 1.391 . S
C768 C770 1.394 . S
C768 H784 0.931 . S
C769 C768 1.391 . S
C769 C773 1.376 . S
C770 C768 1.394 . S
C770 C771 1.369 . S
C770 C774 1.531 . S
C771 C770 1.369 . S
C771 C772 1.410 . S
C771 C779 1.503 . S
C772 C771 1.410 . S
C772 C773 1.392 . S
C772 C775 1.511 . S
C773 C769 1.376 . S
C773 C772 1.392 . S
C773 H785 0.929 . S
C774 C770 1.531 . S
C774 H786 0.960 . S
C774 H787 0.962 . S
C774 H788 0.960 . S
C775 C772 1.511 . S
C775 H789 0.961 . S
C775 H790 0.961 . S
C775 H791 0.961 . S
C776 C777 1.370 . S
C776 C778 1.363 . S
C776 H792 0.931 . S
C777 C776 1.370 . S
C777 C781 1.408 . S
C778 C776 1.363 . S
C778 C779 1.370 . S
C778 C782 1.524 . S
C779 C771 1.503 . S
C779 C778 1.370 . S
C779 C780 1.403 . S
C780 C779 1.403 . S
C780 C781 1.404 . S
C780 C783 1.539 . S
C781 C777 1.408 . S
C781 C780 1.404 . S
C781 H793 0.930 . S
C782 C778 1.524 . S
C782 H794 0.956 . S
C782 H795 0.961 . S
C782 H796 0.961 . S
C783 C780 1.539 . S
C783 H797 0.958 . S
C783 H798 0.961 . S
C783 H799 0.960 . S
H784 C768 0.931 . S
H785 C773 0.929 . S
H786 C774 0.960 . S
H787 C774 0.962 . S
H788 C774 0.960 . S
H789 C775 0.961 . S
H790 C775 0.961 . S
H791 C775 0.961 . S
H792 C776 0.931 . S
H793 C781 0.930 . S
H794 C782 0.956 . S
H795 C782 0.961 . S
H796 C782 0.961 . S
H797 C783 0.958 . S
H798 C783 0.961 . S
H799 C783 0.960 . S
C800 C801 1.391 . S
C800 C802 1.394 . S
C800 H816 0.931 . S
C801 C800 1.391 . S
C801 C805 1.376 . S
C802 C800 1.394 . S
C802 C803 1.369 . S
C802 C806 1.531 . S
C803 C802 1.369 . S
C803 C804 1.410 . S
C803 C811 1.503 1_455 S
C804 C803 1.410 . S
C804 C805 1.392 . S
C804 C807 1.511 . S
C805 C801 1.376 . S
C805 C804 1.392 . S
C805 H817 0.929 . S
C806 C802 1.531 . S
C806 H818 0.960 1_455 S
C806 H819 0.962 . S
C806 H820 0.960 . S
C807 C804 1.511 . S
C807 H821 0.961 . S
C807 H822 0.961 . S
C807 H823 0.961 . S
C808 C809 1.370 . S
C808 C810 1.363 . S
C808 H824 0.931 . S
C809 C808 1.370 . S
C809 C813 1.408 . S
C810 C808 1.363 . S
C810 C811 1.370 . S
C810 C814 1.524 . S
C811 C803 1.503 1_655 S
C811 C810 1.370 . S
C811 C812 1.403 . S
C812 C811 1.403 . S
C812 C813 1.404 . S
C812 C815 1.539 . S
C813 C809 1.408 . S
C813 C812 1.404 . S
C813 H825 0.930 . S
C814 C810 1.524 . S
C814 H826 0.956 . S
C814 H827 0.961 1_655 S
C814 H828 0.961 . S
C815 C812 1.539 . S
C815 H829 0.958 . S
C815 H830 0.961 . S
C815 H831 0.960 1_655 S
H816 C800 0.931 . S
H817 C805 0.929 . S
H818 C806 0.960 1_655 S
H819 C806 0.962 . S
H820 C806 0.960 . S
H821 C807 0.961 . S
H822 C807 0.961 . S
H823 C807 0.961 . S
H824 C808 0.931 . S
H825 C813 0.930 . S
H826 C814 0.956 . S
H827 C814 0.961 1_455 S
H828 C814 0.961 . S
H829 C815 0.958 . S
H830 C815 0.961 . S
H831 C815 0.960 1_455 S
C832 C833 1.390 1_655 S
C832 C834 1.394 . S
C832 H848 0.931 . S
C833 C832 1.390 1_455 S
C833 C837 1.377 1_556 S
C834 C832 1.394 . S
C834 C835 1.369 1_655 S
C834 C838 1.531 . S
C835 C834 1.369 1_455 S
C835 C836 1.410 1_556 S
C835 C843 1.503 . S
C836 C835 1.410 1_554 S
C836 C837 1.392 . S
C836 C839 1.511 . S
C837 C833 1.377 1_554 S
C837 C836 1.392 . S
C837 H849 0.929 . S
C838 C834 1.531 . S
C838 H850 0.960 . S
C838 H851 0.962 . S
C838 H852 0.960 . S
C839 C836 1.511 . S
C839 H853 0.961 . S
C839 H854 0.961 . S
C839 H855 0.961 . S
C840 C841 1.370 1_654 S
C840 C842 1.363 . S
C840 H856 0.931 . S
C841 C840 1.370 1_456 S
C841 C845 1.408 . S
C842 C840 1.363 . S
C842 C843 1.370 1_654 S
C842 C846 1.524 . S
C843 C835 1.503 . S
C843 C842 1.370 1_456 S
C843 C844 1.403 . S
C844 C843 1.403 . S
C844 C845 1.404 . S
C844 C847 1.539 . S
C845 C841 1.408 . S
C845 C844 1.404 . S
C845 H857 0.930 . S
C846 C842 1.524 . S
C846 H858 0.956 . S
C846 H859 0.961 . S
C846 H860 0.961 . S
C847 C844 1.539 . S
C847 H861 0.958 . S
C847 H862 0.961 . S
C847 H863 0.960 . S
H848 C832 0.931 . S
H849 C837 0.929 . S
H850 C838 0.960 . S
H851 C838 0.962 . S
H852 C838 0.960 . S
H853 C839 0.961 . S
H854 C839 0.961 . S
H855 C839 0.961 . S
H856 C840 0.931 . S
H857 C845 0.930 . S
H858 C846 0.956 . S
H859 C846 0.961 . S
H860 C846 0.961 . S
H861 C847 0.958 . S
H862 C847 0.961 . S
H863 C847 0.960 . S
C864 C865 1.391 . S
C864 C866 1.394 . S
C864 H880 0.931 . S
C865 C864 1.391 . S
C865 C869 1.376 . S
C866 C864 1.394 . S
C866 C867 1.369 . S
C866 C870 1.531 . S
C867 C866 1.369 . S
C867 C868 1.410 . S
C867 C875 1.503 . S
C868 C867 1.410 . S
C868 C869 1.392 . S
C868 C871 1.511 . S
C869 C865 1.376 . S
C869 C868 1.392 . S
C869 H881 0.929 . S
C870 C866 1.531 . S
C870 H882 0.960 . S
C870 H883 0.962 . S
C870 H884 0.960 . S
C871 C868 1.511 . S
C871 H885 0.961 . S
C871 H886 0.961 . S
C871 H887 0.961 . S
C872 C873 1.370 . S
C872 C874 1.363 . S
C872 H888 0.931 . S
C873 C872 1.370 . S
C873 C877 1.408 . S
C874 C872 1.363 . S
C874 C875 1.370 . S
C874 C878 1.524 . S
C875 C867 1.503 . S
C875 C874 1.370 . S
C875 C876 1.403 . S
C876 C875 1.403 . S
C876 C877 1.404 . S
C876 C879 1.539 . S
C877 C873 1.408 . S
C877 C876 1.404 . S
C877 H889 0.930 . S
C878 C874 1.524 . S
C878 H890 0.956 . S
C878 H891 0.961 . S
C878 H892 0.961 . S
C879 C876 1.539 . S
C879 H893 0.958 . S
C879 H894 0.961 . S
C879 H895 0.960 . S
H880 C864 0.931 . S
H881 C869 0.929 . S
H882 C870 0.960 . S
H883 C870 0.962 . S
H884 C870 0.960 . S
H885 C871 0.961 . S
H886 C871 0.961 . S
H887 C871 0.961 . S
H888 C872 0.931 . S
H889 C877 0.930 . S
H890 C878 0.956 . S
H891 C878 0.961 . S
H892 C878 0.961 . S
H893 C879 0.958 . S
H894 C879 0.961 . S
H895 C879 0.960 . S
C896 C897 1.391 . S
C896 C898 1.394 . S
C896 H912 0.931 . S
C897 C896 1.391 . S
C897 C901 1.376 . S
C898 C896 1.394 . S
C898 C899 1.369 . S
C898 C902 1.531 . S
C899 C898 1.369 . S
C899 C900 1.410 . S
C899 C907 1.503 1_545 S
C900 C899 1.410 . S
C900 C901 1.392 . S
C900 C903 1.511 . S
C901 C897 1.376 . S
C901 C900 1.392 . S
C901 H913 0.929 . S
C902 C898 1.531 . S
C902 H914 0.950 1_545 S
C902 H915 0.962 . S
C902 H916 0.960 . S
C903 C900 1.511 . S
C903 H917 0.961 . S
C903 H918 0.961 1_545 S
C903 H919 0.961 . S
C904 C905 1.370 . S
C904 C906 1.363 . S
C904 H920 0.931 . S
C905 C904 1.370 . S
C905 C909 1.408 . S
C906 C904 1.363 . S
C906 C907 1.370 . S
C906 C910 1.524 . S
C907 C899 1.503 1_565 S
C907 C906 1.370 . S
C907 C908 1.403 . S
C908 C907 1.403 . S
C908 C909 1.404 . S
C908 C911 1.539 . S
C909 C905 1.408 . S
C909 C908 1.404 . S
C909 H921 0.930 . S
C910 C906 1.524 . S
C910 H922 0.956 . S
C910 H923 0.961 . S
C910 H924 0.961 . S
C911 C908 1.539 . S
C911 H925 0.958 . S
C911 H926 0.961 . S
C911 H927 0.960 1_565 S
H912 C896 0.931 . S
H913 C901 0.929 . S
H914 C902 0.950 1_565 S
H915 C902 0.962 . S
H916 C902 0.960 . S
H917 C903 0.961 . S
H918 C903 0.961 1_565 S
H919 C903 0.961 . S
H920 C904 0.931 . S
H921 C909 0.930 . S
H922 C910 0.956 . S
H923 C910 0.961 . S
H924 C910 0.961 . S
H925 C911 0.958 . S
H926 C911 0.961 . S
H927 C911 0.960 1_545 S
C928 C929 1.391 . S
C928 C930 1.394 . S
C928 H944 0.931 . S
C929 C928 1.391 . S
C929 C933 1.376 . S
C930 C928 1.394 . S
C930 C931 1.369 . S
C930 C934 1.531 . S
C931 C930 1.369 . S
C931 C932 1.410 . S
C931 C939 1.503 . S
C932 C931 1.410 . S
C932 C933 1.392 . S
C932 C935 1.511 . S
C933 C929 1.376 . S
C933 C932 1.392 . S
C933 H945 0.929 . S
C934 C930 1.531 . S
C934 H946 0.960 . S
C934 H947 0.962 1_556 S
C934 H948 0.960 . S
C935 C932 1.511 . S
C935 H949 0.953 1_556 S
C935 H950 0.961 1_556 S
C935 H951 0.961 . S
C936 C937 1.370 . S
C936 C938 1.363 . S
C936 H952 0.931 . S
C937 C936 1.370 . S
C937 C941 1.408 1_554 S
C938 C936 1.363 . S
C938 C939 1.370 1_554 S
C938 C942 1.524 . S
C939 C931 1.503 . S
C939 C938 1.370 1_556 S
C939 C940 1.403 . S
C940 C939 1.403 . S
C940 C941 1.404 . S
C940 C943 1.539 . S
C941 C937 1.408 1_556 S
C941 C940 1.404 . S
C941 H953 0.930 . S
C942 C938 1.524 . S
C942 H954 0.956 . S
C942 H955 0.961 . S
C942 H956 0.961 . S
C943 C940 1.539 . S
C943 H957 0.958 . S
C943 H958 0.961 . S
C943 H959 0.960 . S
H944 C928 0.931 . S
H945 C933 0.929 . S
H946 C934 0.960 . S
H947 C934 0.962 1_554 S
H948 C934 0.960 . S
H949 C935 0.953 1_554 S
H950 C935 0.961 1_554 S
H951 C935 0.961 . S
H952 C936 0.931 . S
H953 C941 0.930 . S
H954 C942 0.956 . S
H955 C942 0.961 . S
H956 C942 0.961 . S
H957 C943 0.958 . S
H958 C943 0.961 . S
H959 C943 0.960 . S
C960 C961 1.391 . S
C960 C962 1.394 . S
C960 H976 0.931 . S
C961 C960 1.391 . S
C961 C965 1.376 . S
C962 C960 1.394 . S
C962 C963 1.369 . S
C962 C966 1.531 . S
C963 C962 1.369 . S
C963 C964 1.410 . S
C963 C971 1.503 1_545 S
C964 C963 1.410 . S
C964 C965 1.392 . S
C964 C967 1.511 . S
C965 C961 1.376 . S
C965 C964 1.392 . S
C965 H977 0.929 . S
C966 C962 1.531 . S
C966 H978 0.960 1_545 S
C966 H979 0.962 . S
C966 H980 0.960 . S
C967 C964 1.511 . S
C967 H981 0.961 . S
C967 H982 0.961 1_545 S
C967 H983 0.961 . S
C968 C969 1.370 . S
C968 C970 1.363 . S
C968 H984 0.931 . S
C969 C968 1.370 . S
C969 C973 1.408 . S
C970 C968 1.363 . S
C970 C971 1.370 . S
C970 C974 1.524 . S
C971 C963 1.503 1_565 S
C971 C970 1.370 . S
C971 C972 1.403 . S
C972 C971 1.403 . S
C972 C973 1.404 . S
C972 C975 1.539 . S
C973 C969 1.408 . S
C973 C972 1.404 . S
C973 H985 0.930 . S
C974 C970 1.524 . S
C974 H986 0.956 1_565 S
C974 H987 0.961 1_565 S
C974 H988 0.961 . S
C975 C972 1.539 . S
C975 H989 0.958 . S
C975 H990 0.961 . S
C975 H991 0.960 . S
H976 C960 0.931 . S
H977 C965 0.929 . S
H978 C966 0.960 1_565 S
H979 C966 0.962 . S
H980 C966 0.960 . S
H981 C967 0.961 . S
H982 C967 0.961 1_565 S
H983 C967 0.961 . S
H984 C968 0.931 . S
H985 C973 0.930 . S
H986 C974 0.956 1_545 S
H987 C974 0.961 1_545 S
H988 C974 0.961 . S
H989 C975 0.958 . S
H990 C975 0.961 . S
H991 C975 0.960 . S
C992 C993 1.391 1_566 S
C992 C994 1.394 . S
C992 H1008 0.931 . S
C993 C992 1.391 1_544 S
C993 C997 1.376 . S
C994 C992 1.394 . S
C994 C995 1.369 1_566 S
C994 C998 1.531 . S
C995 C994 1.369 1_544 S
C995 C996 1.410 . S
C995 C1003 1.503 . S
C996 C995 1.410 . S
C996 C997 1.392 . S
C996 C999 1.511 . S
C997 C993 1.376 . S
C997 C996 1.392 . S
C997 H1009 0.929 . S
C998 C994 1.531 . S
C998 H1010 0.960 . S
C998 H1011 0.962 . S
C998 H1012 0.960 . S
C999 C996 1.511 . S
C999 H1013 0.961 . S
C999 H1014 0.961 . S
C999 H1015 0.961 . S
C1000 C1001 1.370 . S
C1000 C1002 1.363 . S
C1000 H1016 0.931 . S
C1001 C1000 1.370 . S
C1001 C1005 1.408 1_546 S
C1002 C1000 1.363 . S
C1002 C1003 1.370 1_556 S
C1002 C1006 1.524 . S
C1003 C995 1.503 . S
C1003 C1002 1.370 1_554 S
C1003 C1004 1.403 1_545 S
C1004 C1003 1.403 1_565 S
C1004 C1005 1.404 . S
C1004 C1007 1.539 . S
C1005 C1001 1.408 1_564 S
C1005 C1004 1.404 . S
C1005 H1017 0.930 . S
C1006 C1002 1.524 . S
C1006 H1018 0.956 . S
C1006 H1019 0.961 . S
C1006 H1020 0.961 . S
C1007 C1004 1.539 . S
C1007 H1021 0.958 . S
C1007 H1022 0.961 . S
C1007 H1023 0.960 . S
H1008 C992 0.931 . S
H1009 C997 0.929 . S
H1010 C998 0.960 . S
H1011 C998 0.962 . S
H1012 C998 0.960 . S
H1013 C999 0.961 . S
H1014 C999 0.961 . S
H1015 C999 0.961 . S
H1016 C1000 0.931 . S
H1017 C1005 0.930 . S
H1018 C1006 0.956 . S
H1019 C1006 0.961 . S
H1020 C1006 0.961 . S
H1021 C1007 0.958 . S
H1022 C1007 0.961 . S
H1023 C1007 0.960 . S
C1024 C1025 1.391 . S
C1024 C1026 1.394 . S
C1024 H1040 0.931 . S
C1025 C1024 1.391 . S
C1025 C1029 1.376 . S
C1026 C1024 1.394 . S
C1026 C1027 1.369 . S
C1026 C1030 1.531 . S
C1027 C1026 1.369 . S
C1027 C1028 1.410 . S
C1027 C1035 1.503 . S
C1028 C1027 1.410 . S
C1028 C1029 1.392 . S
C1028 C1031 1.511 . S
C1029 C1025 1.376 . S
C1029 C1028 1.392 . S
C1029 H1041 0.929 . S
C1030 C1026 1.531 . S
C1030 H1042 0.960 . S
C1030 H1043 0.962 . S
C1030 H1044 0.960 . S
C1031 C1028 1.511 . S
C1031 H1045 0.961 . S
C1031 H1046 0.961 . S
C1031 H1047 0.961 . S
C1032 C1033 1.370 . S
C1032 C1034 1.363 . S
C1032 H1048 0.931 . S
C1033 C1032 1.370 . S
C1033 C1037 1.408 . S
C1034 C1032 1.363 . S
C1034 C1035 1.370 . S
C1034 C1038 1.524 . S
C1035 C1027 1.503 . S
C1035 C1034 1.370 . S
C1035 C1036 1.403 . S
C1036 C1035 1.403 . S
C1036 C1037 1.404 . S
C1036 C1039 1.539 . S
C1037 C1033 1.408 . S
C1037 C1036 1.404 . S
C1037 H1049 0.930 . S
C1038 C1034 1.524 . S
C1038 H1050 0.956 . S
C1038 H1051 0.961 . S
C1038 H1052 0.961 . S
C1039 C1036 1.539 . S
C1039 H1053 0.958 . S
C1039 H1054 0.961 . S
C1039 H1055 0.960 . S
H1040 C1024 0.931 . S
H1041 C1029 0.929 . S
H1042 C1030 0.960 . S
H1043 C1030 0.962 . S
H1044 C1030 0.960 . S
H1045 C1031 0.961 . S
H1046 C1031 0.961 . S
H1047 C1031 0.961 . S
H1048 C1032 0.931 . S
H1049 C1037 0.930 . S
H1050 C1038 0.956 . S
H1051 C1038 0.961 . S
H1052 C1038 0.961 . S
H1053 C1039 0.958 . S
H1054 C1039 0.961 . S
H1055 C1039 0.960 . S
C1056 C1057 1.391 . S
C1056 C1058 1.394 . S
C1056 H1072 0.931 . S
C1057 C1056 1.391 . S
C1057 C1061 1.376 . S
C1058 C1056 1.394 . S
C1058 C1059 1.369 . S
C1058 C1062 1.531 . S
C1059 C1058 1.369 . S
C1059 C1060 1.410 . S
C1059 C1067 1.503 . S
C1060 C1059 1.410 . S
C1060 C1061 1.392 . S
C1060 C1063 1.511 . S
C1061 C1057 1.376 . S
C1061 C1060 1.392 . S
C1061 H1073 0.929 . S
C1062 C1058 1.531 . S
C1062 H1074 0.960 . S
C1062 H1075 0.962 . S
C1062 H1076 0.960 . S
C1063 C1060 1.511 . S
C1063 H1077 0.961 . S
C1063 H1078 0.961 . S
C1063 H1079 0.961 . S
C1064 C1065 1.370 . S
C1064 C1066 1.363 . S
C1064 H1080 0.931 . S
C1065 C1064 1.370 . S
C1065 C1069 1.408 . S
C1066 C1064 1.363 . S
C1066 C1067 1.370 . S
C1066 C1070 1.524 . S
C1067 C1059 1.503 . S
C1067 C1066 1.370 . S
C1067 C1068 1.403 . S
C1068 C1067 1.403 . S
C1068 C1069 1.404 . S
C1068 C1071 1.539 . S
C1069 C1065 1.408 . S
C1069 C1068 1.404 . S
C1069 H1081 0.930 . S
C1070 C1066 1.524 . S
C1070 H1082 0.956 . S
C1070 H1083 0.961 . S
C1070 H1084 0.961 . S
C1071 C1068 1.539 . S
C1071 H1085 0.958 . S
C1071 H1086 0.961 . S
C1071 H1087 0.960 . S
H1072 C1056 0.931 . S
H1073 C1061 0.929 . S
H1074 C1062 0.960 . S
H1075 C1062 0.962 . S
H1076 C1062 0.960 . S
H1077 C1063 0.961 . S
H1078 C1063 0.961 . S
H1079 C1063 0.961 . S
H1080 C1064 0.931 . S
H1081 C1069 0.930 . S
H1082 C1070 0.956 . S
H1083 C1070 0.961 . S
H1084 C1070 0.961 . S
H1085 C1071 0.958 . S
H1086 C1071 0.961 . S
H1087 C1071 0.960 . S
C1088 C1089 1.391 . S
C1088 C1090 1.394 . S
C1088 H1104 0.931 . S
C1089 C1088 1.391 . S
C1089 C1093 1.376 . S
C1090 C1088 1.394 . S
C1090 C1091 1.369 . S
C1090 C1094 1.531 . S
C1091 C1090 1.369 . S
C1091 C1092 1.410 . S
C1091 C1099 1.503 1_556 S
C1092 C1091 1.410 . S
C1092 C1093 1.392 . S
C1092 C1095 1.511 . S
C1093 C1089 1.376 . S
C1093 C1092 1.392 . S
C1093 H1105 0.929 . S
C1094 C1090 1.531 . S
C1094 H1106 0.960 1_556 S
C1094 H1107 0.962 . S
C1094 H1108 0.960 . S
C1095 C1092 1.511 . S
C1095 H1109 0.961 . S
C1095 H1110 0.961 1_556 S
C1095 H1111 0.961 . S
C1096 C1097 1.370 . S
C1096 C1098 1.363 . S
C1096 H1112 0.931 . S
C1097 C1096 1.370 . S
C1097 C1101 1.408 . S
C1098 C1096 1.363 . S
C1098 C1099 1.370 . S
C1098 C1102 1.524 . S
C1099 C1091 1.503 1_554 S
C1099 C1098 1.370 . S
C1099 C1100 1.403 . S
C1100 C1099 1.403 . S
C1100 C1101 1.404 . S
C1100 C1103 1.539 . S
C1101 C1097 1.408 . S
C1101 C1100 1.404 . S
C1101 H1113 0.930 . S
C1102 C1098 1.524 . S
C1102 H1114 0.956 . S
C1102 H1115 0.961 1_554 S
C1102 H1116 0.961 . S
C1103 C1100 1.539 . S
C1103 H1117 0.958 . S
C1103 H1118 0.961 . S
C1103 H1119 0.938 1_554 S
H1104 C1088 0.931 . S
H1105 C1093 0.929 . S
H1106 C1094 0.960 1_554 S
H1107 C1094 0.962 . S
H1108 C1094 0.960 . S
H1109 C1095 0.961 . S
H1110 C1095 0.961 1_554 S
H1111 C1095 0.961 . S
H1112 C1096 0.931 . S
H1113 C1101 0.930 . S
H1114 C1102 0.956 . S
H1115 C1102 0.961 1_556 S
H1116 C1102 0.961 . S
H1117 C1103 0.958 . S
H1118 C1103 0.961 . S
H1119 C1103 0.938 1_556 S
C1120 C1121 1.391 . S
C1120 C1122 1.394 . S
C1120 H1136 0.931 . S
C1121 C1120 1.391 . S
C1121 C1125 1.376 . S
C1122 C1120 1.394 . S
C1122 C1123 1.369 . S
C1122 C1126 1.531 . S
C1123 C1122 1.369 . S
C1123 C1124 1.410 . S
C1123 C1131 1.503 . S
C1124 C1123 1.410 . S
C1124 C1125 1.392 . S
C1124 C1127 1.511 . S
C1125 C1121 1.376 . S
C1125 C1124 1.392 . S
C1125 H1137 0.929 . S
C1126 C1122 1.531 . S
C1126 H1138 0.960 . S
C1126 H1139 0.962 . S
C1126 H1140 0.960 . S
C1127 C1124 1.511 . S
C1127 H1141 0.961 . S
C1127 H1142 0.961 . S
C1127 H1143 0.961 . S
C1128 C1129 1.370 . S
C1128 C1130 1.363 . S
C1128 H1144 0.931 . S
C1129 C1128 1.370 . S
C1129 C1133 1.408 . S
C1130 C1128 1.363 . S
C1130 C1131 1.370 . S
C1130 C1134 1.524 . S
C1131 C1123 1.503 . S
C1131 C1130 1.370 . S
C1131 C1132 1.403 . S
C1132 C1131 1.403 . S
C1132 C1133 1.404 . S
C1132 C1135 1.539 . S
C1133 C1129 1.408 . S
C1133 C1132 1.404 . S
C1133 H1145 0.930 . S
C1134 C1130 1.524 . S
C1134 H1146 0.956 . S
C1134 H1147 0.961 . S
C1134 H1148 0.961 . S
C1135 C1132 1.539 . S
C1135 H1149 0.958 . S
C1135 H1150 0.961 . S
C1135 H1151 0.960 . S
H1136 C1120 0.931 . S
H1137 C1125 0.929 . S
H1138 C1126 0.960 . S
H1139 C1126 0.962 . S
H1140 C1126 0.960 . S
H1141 C1127 0.961 . S
H1142 C1127 0.961 . S
H1143 C1127 0.961 . S
H1144 C1128 0.931 . S
H1145 C1133 0.930 . S
H1146 C1134 0.956 . S
H1147 C1134 0.961 . S
H1148 C1134 0.961 . S
H1149 C1135 0.958 . S
H1150 C1135 0.961 . S
H1151 C1135 0.960 . S
C1152 C1153 1.391 . S
C1152 C1154 1.394 . S
C1152 H1168 0.931 . S
C1153 C1152 1.391 . S
C1153 C1157 1.376 . S
C1154 C1152 1.394 . S
C1154 C1155 1.369 . S
C1154 C1158 1.531 . S
C1155 C1154 1.369 . S
C1155 C1156 1.410 . S
C1155 C1163 1.503 . S
C1156 C1155 1.410 . S
C1156 C1157 1.392 . S
C1156 C1159 1.511 . S
C1157 C1153 1.376 . S
C1157 C1156 1.392 . S
C1157 H1169 0.929 . S
C1158 C1154 1.531 . S
C1158 H1170 0.960 . S
C1158 H1171 0.962 . S
C1158 H1172 0.960 . S
C1159 C1156 1.511 . S
C1159 H1173 0.961 . S
C1159 H1174 0.961 . S
C1159 H1175 0.961 . S
C1160 C1161 1.370 . S
C1160 C1162 1.363 . S
C1160 H1176 0.931 . S
C1161 C1160 1.370 . S
C1161 C1165 1.408 . S
C1162 C1160 1.363 . S
C1162 C1163 1.370 . S
C1162 C1166 1.524 . S
C1163 C1155 1.503 . S
C1163 C1162 1.370 . S
C1163 C1164 1.403 . S
C1164 C1163 1.403 . S
C1164 C1165 1.404 . S
C1164 C1167 1.539 . S
C1165 C1161 1.408 . S
C1165 C1164 1.404 . S
C1165 H1177 0.930 . S
C1166 C1162 1.524 . S
C1166 H1178 0.956 . S
C1166 H1179 0.961 . S
C1166 H1180 0.961 . S
C1167 C1164 1.539 . S
C1167 H1181 0.958 . S
C1167 H1182 0.961 . S
C1167 H1183 0.960 . S
H1168 C1152 0.931 . S
H1169 C1157 0.929 . S
H1170 C1158 0.960 . S
H1171 C1158 0.962 . S
H1172 C1158 0.960 . S
H1173 C1159 0.961 . S
H1174 C1159 0.961 . S
H1175 C1159 0.961 . S
H1176 C1160 0.931 . S
H1177 C1165 0.930 . S
H1178 C1166 0.956 . S
H1179 C1166 0.961 . S
H1180 C1166 0.961 . S
H1181 C1167 0.958 . S
H1182 C1167 0.961 . S
H1183 C1167 0.960 . S
C1184 C1185 1.391 . S
C1184 C1186 1.394 . S
C1184 H1200 0.931 . S
C1185 C1184 1.391 . S
C1185 C1189 1.376 . S
C1186 C1184 1.394 . S
C1186 C1187 1.369 . S
C1186 C1190 1.531 . S
C1187 C1186 1.369 . S
C1187 C1188 1.410 . S
C1187 C1195 1.503 . S
C1188 C1187 1.410 . S
C1188 C1189 1.392 . S
C1188 C1191 1.511 1_455 S
C1189 C1185 1.376 . S
C1189 C1188 1.392 . S
C1189 H1201 0.929 1_455 S
C1190 C1186 1.531 . S
C1190 H1202 0.960 . S
C1190 H1203 0.962 . S
C1190 H1204 0.960 . S
C1191 C1188 1.511 1_655 S
C1191 H1205 0.961 . S
C1191 H1206 0.961 . S
C1191 H1207 0.961 . S
C1192 C1193 1.370 . S
C1192 C1194 1.363 . S
C1192 H1208 0.931 . S
C1193 C1192 1.370 . S
C1193 C1197 1.408 . S
C1194 C1192 1.363 . S
C1194 C1195 1.370 . S
C1194 C1198 1.524 . S
C1195 C1187 1.503 . S
C1195 C1194 1.370 . S
C1195 C1196 1.403 . S
C1196 C1195 1.403 . S
C1196 C1197 1.404 . S
C1196 C1199 1.539 1_455 S
C1197 C1193 1.408 . S
C1197 C1196 1.404 . S
C1197 H1209 0.930 . S
C1198 C1194 1.524 . S
C1198 H1210 0.956 . S
C1198 H1211 0.961 . S
C1198 H1212 0.961 . S
C1199 C1196 1.539 1_655 S
C1199 H1213 0.958 1_655 S
C1199 H1214 0.961 . S
C1199 H1215 0.960 . S
H1200 C1184 0.931 . S
H1201 C1189 0.929 1_655 S
H1202 C1190 0.960 . S
H1203 C1190 0.962 . S
H1204 C1190 0.960 . S
H1205 C1191 0.961 . S
H1206 C1191 0.961 . S
H1207 C1191 0.961 . S
H1208 C1192 0.931 . S
H1209 C1197 0.930 . S
H1210 C1198 0.956 . S
H1211 C1198 0.961 . S
H1212 C1198 0.961 . S
H1213 C1199 0.958 1_455 S
H1214 C1199 0.961 . S
H1215 C1199 0.960 . S
C1216 C1217 1.391 . S
C1216 C1218 1.394 . S
C1216 H1232 0.931 . S
C1217 C1216 1.391 . S
C1217 C1221 1.376 . S
C1218 C1216 1.394 . S
C1218 C1219 1.369 . S
C1218 C1222 1.531 . S
C1219 C1218 1.369 . S
C1219 C1220 1.410 . S
C1219 C1227 1.503 . S
C1220 C1219 1.410 . S
C1220 C1221 1.392 . S
C1220 C1223 1.511 1_565 S
C1221 C1217 1.376 . S
C1221 C1220 1.392 . S
C1221 H1233 0.929 . S
C1222 C1218 1.531 . S
C1222 H1234 0.960 . S
C1222 H1235 0.962 . S
C1222 H1236 0.960 . S
C1223 C1220 1.511 1_545 S
C1223 H1237 0.961 1_545 S
C1223 H1238 0.961 1_545 S
C1223 H1239 0.961 . S
C1224 C1225 1.370 . S
C1224 C1226 1.363 . S
C1224 H1240 0.931 . S
C1225 C1224 1.370 . S
C1225 C1229 1.408 1_565 S
C1226 C1224 1.363 . S
C1226 C1227 1.370 . S
C1226 C1230 1.524 . S
C1227 C1219 1.503 . S
C1227 C1226 1.370 . S
C1227 C1228 1.403 1_565 S
C1228 C1227 1.403 1_545 S
C1228 C1229 1.404 . S
C1228 C1231 1.539 . S
C1229 C1225 1.408 1_545 S
C1229 C1228 1.404 . S
C1229 H1241 0.930 . S
C1230 C1226 1.524 . S
C1230 H1242 0.956 . S
C1230 H1243 0.961 . S
C1230 H1244 0.961 . S
C1231 C1228 1.539 . S
C1231 H1245 0.958 . S
C1231 H1246 0.961 . S
C1231 H1247 0.960 . S
H1232 C1216 0.931 . S
H1233 C1221 0.929 . S
H1234 C1222 0.960 . S
H1235 C1222 0.962 . S
H1236 C1222 0.960 . S
H1237 C1223 0.961 1_565 S
H1238 C1223 0.961 1_565 S
H1239 C1223 0.961 . S
H1240 C1224 0.931 . S
H1241 C1229 0.930 . S
H1242 C1230 0.956 . S
H1243 C1230 0.961 . S
H1244 C1230 0.961 . S
H1245 C1231 0.958 . S
H1246 C1231 0.961 . S
H1247 C1231 0.960 . S
C225 C11 1.804 . S
C233 C109 1.831 . S
C257 C25 1.819 . S
C265 C67 1.821 . S
C289 C81 1.824 . S
C297 C39 1.835 . S
C321 C53 1.840 . S
C329 C95 1.829 . S
C353 C123 1.804 . S
C361 C179 1.831 . S
C385 C137 1.832 . S
C393 C207 1.820 . S
C417 C165 1.809 . S
C425 C151 1.825 . S
C449 C221 1.833 . S
C457 C193 1.820 . S
C481 C9 1.606 . S
C489 C93 1.593 . S
C513 C103 1.295 . S
C521 C19 1.295 . S
C545 C37 1.598 . S
C553 C65 1.595 . S
C577 C75 1.291 . S
C585 C47 1.298 . S
C609 C0 0.910 . S
C617 C196 0.855 . S
C641 C163 1.598 . S
C649 C23 1.595 . S
C673 C182 0.809 . S
C681 C28 0.838 . S
C705 C177 1.605 . S
C713 C51 1.597 . S
C737 C140 0.847 . S
C745 C56 0.832 . S
C769 C79 1.582 . S
C777 C219 1.602 . S
C801 C84 0.889 . S
C809 C112 0.879 . S
C833 C107 1.599 1_455 S
C841 C135 1.594 . S
C865 C5 1.291 . S
C873 C61 1.298 . S
C897 C117 1.296 . S
C905 C187 1.295 . S
C929 C168 0.896 . S
C937 C126 0.844 . S
C961 C201 1.290 . S
C969 C145 1.298 . S
C993 C98 0.847 . S
C1001 C42 0.832 . S
C1025 C33 1.294 . S
C1033 C89 1.296 . S
C1057 C154 0.913 . S
C1065 C210 0.866 . S
C1089 C191 1.607 . S
C1097 C149 1.593 . S
C1121 C215 1.290 . S
C1129 C173 1.298 . S
C1153 C205 1.594 . S
C1161 C121 1.596 . S
C1185 C159 1.295 . S
C1193 C131 1.295 . S
C1217 C14 0.807 . S
C1225 C70 0.839 . S
