# Generated by pormake.
# Topology whz, (6)-cn, num edge types: 1
# Building blocks:
#     Node 0, Type 0, BuildingBlock: CUKXOW_clean_sbu_0, # of connection points: 6
#     Node 1, Type 0, BuildingBlock: CUKXOW_clean_sbu_0, # of connection points: 6
#     Node 2, Type 0, BuildingBlock: CUKXOW_clean_sbu_0, # of connection points: 6
#     Node 3, Type 0, BuildingBlock: CUKXOW_clean_sbu_0, # of connection points: 6
#     Node 4, Type 0, BuildingBlock: CUKXOW_clean_sbu_0, # of connection points: 6
#     Node 5, Type 0, BuildingBlock: CUKXOW_clean_sbu_0, # of connection points: 6
#     Node 6, Type 0, BuildingBlock: CUKXOW_clean_sbu_0, # of connection points: 6
#     Node 7, Type 0, BuildingBlock: CUKXOW_clean_sbu_0, # of connection points: 6
#     Node 8, Type 0, BuildingBlock: CUKXOW_clean_sbu_0, # of connection points: 6
#     Node 9, Type 0, BuildingBlock: CUKXOW_clean_sbu_0, # of connection points: 6
#     Node 10, Type 0, BuildingBlock: CUKXOW_clean_sbu_0, # of connection points: 6
#     Node 11, Type 0, BuildingBlock: CUKXOW_clean_sbu_0, # of connection points: 6
#     Node 12, Type 0, BuildingBlock: CUKXOW_clean_sbu_0, # of connection points: 6
#     Node 13, Type 0, BuildingBlock: CUKXOW_clean_sbu_0, # of connection points: 6
#     Node 14, Type 0, BuildingBlock: CUKXOW_clean_sbu_0, # of connection points: 6
#     Node 15, Type 0, BuildingBlock: CUKXOW_clean_sbu_0, # of connection points: 6
#     Edge 16, Type (0, 0), BuildingBlock: AJUNOK_clean_linker_0, # of connection points: 2
#     Edge 17, Type (0, 0), BuildingBlock: AJUNOK_clean_linker_0, # of connection points: 2
#     Edge 18, Type (0, 0), BuildingBlock: AJUNOK_clean_linker_0, # of connection points: 2
#     Edge 19, Type (0, 0), BuildingBlock: AJUNOK_clean_linker_0, # of connection points: 2
#     Edge 20, Type (0, 0), BuildingBlock: AJUNOK_clean_linker_0, # of connection points: 2
#     Edge 21, Type (0, 0), BuildingBlock: AJUNOK_clean_linker_0, # of connection points: 2
#     Edge 22, Type (0, 0), BuildingBlock: AJUNOK_clean_linker_0, # of connection points: 2
#     Edge 23, Type (0, 0), BuildingBlock: AJUNOK_clean_linker_0, # of connection points: 2
#     Edge 24, Type (0, 0), BuildingBlock: AJUNOK_clean_linker_0, # of connection points: 2
#     Edge 25, Type (0, 0), BuildingBlock: AJUNOK_clean_linker_0, # of connection points: 2
#     Edge 26, Type (0, 0), BuildingBlock: AJUNOK_clean_linker_0, # of connection points: 2
#     Edge 27, Type (0, 0), BuildingBlock: AJUNOK_clean_linker_0, # of connection points: 2
#     Edge 28, Type (0, 0), BuildingBlock: AJUNOK_clean_linker_0, # of connection points: 2
#     Edge 29, Type (0, 0), BuildingBlock: AJUNOK_clean_linker_0, # of connection points: 2
#     Edge 30, Type (0, 0), BuildingBlock: AJUNOK_clean_linker_0, # of connection points: 2
#     Edge 31, Type (0, 0), BuildingBlock: AJUNOK_clean_linker_0, # of connection points: 2
#     Edge 32, Type (0, 0), BuildingBlock: AJUNOK_clean_linker_0, # of connection points: 2
#     Edge 33, Type (0, 0), BuildingBlock: AJUNOK_clean_linker_0, # of connection points: 2
#     Edge 34, Type (0, 0), BuildingBlock: AJUNOK_clean_linker_0, # of connection points: 2
#     Edge 35, Type (0, 0), BuildingBlock: AJUNOK_clean_linker_0, # of connection points: 2
#     Edge 36, Type (0, 0), BuildingBlock: AJUNOK_clean_linker_0, # of connection points: 2
#     Edge 37, Type (0, 0), BuildingBlock: AJUNOK_clean_linker_0, # of connection points: 2
#     Edge 38, Type (0, 0), BuildingBlock: AJUNOK_clean_linker_0, # of connection points: 2
#     Edge 39, Type (0, 0), BuildingBlock: AJUNOK_clean_linker_0, # of connection points: 2
#     Edge 40, Type (0, 0), BuildingBlock: AJUNOK_clean_linker_0, # of connection points: 2
#     Edge 41, Type (0, 0), BuildingBlock: AJUNOK_clean_linker_0, # of connection points: 2
#     Edge 42, Type (0, 0), BuildingBlock: AJUNOK_clean_linker_0, # of connection points: 2
#     Edge 43, Type (0, 0), BuildingBlock: AJUNOK_clean_linker_0, # of connection points: 2
#     Edge 44, Type (0, 0), BuildingBlock: AJUNOK_clean_linker_0, # of connection points: 2
#     Edge 45, Type (0, 0), BuildingBlock: AJUNOK_clean_linker_0, # of connection points: 2
#     Edge 46, Type (0, 0), BuildingBlock: AJUNOK_clean_linker_0, # of connection points: 2
#     Edge 47, Type (0, 0), BuildingBlock: AJUNOK_clean_linker_0, # of connection points: 2
#     Edge 48, Type (0, 0), BuildingBlock: AJUNOK_clean_linker_0, # of connection points: 2
#     Edge 49, Type (0, 0), BuildingBlock: AJUNOK_clean_linker_0, # of connection points: 2
#     Edge 50, Type (0, 0), BuildingBlock: AJUNOK_clean_linker_0, # of connection points: 2
#     Edge 51, Type (0, 0), BuildingBlock: AJUNOK_clean_linker_0, # of connection points: 2
#     Edge 52, Type (0, 0), BuildingBlock: AJUNOK_clean_linker_0, # of connection points: 2
#     Edge 53, Type (0, 0), BuildingBlock: AJUNOK_clean_linker_0, # of connection points: 2
#     Edge 54, Type (0, 0), BuildingBlock: AJUNOK_clean_linker_0, # of connection points: 2
#     Edge 55, Type (0, 0), BuildingBlock: AJUNOK_clean_linker_0, # of connection points: 2
#     Edge 56, Type (0, 0), BuildingBlock: AJUNOK_clean_linker_0, # of connection points: 2
#     Edge 57, Type (0, 0), BuildingBlock: AJUNOK_clean_linker_0, # of connection points: 2
#     Edge 58, Type (0, 0), BuildingBlock: AJUNOK_clean_linker_0, # of connection points: 2
#     Edge 59, Type (0, 0), BuildingBlock: AJUNOK_clean_linker_0, # of connection points: 2
#     Edge 60, Type (0, 0), BuildingBlock: AJUNOK_clean_linker_0, # of connection points: 2
#     Edge 61, Type (0, 0), BuildingBlock: AJUNOK_clean_linker_0, # of connection points: 2
#     Edge 62, Type (0, 0), BuildingBlock: AJUNOK_clean_linker_0, # of connection points: 2
#     Edge 63, Type (0, 0), BuildingBlock: AJUNOK_clean_linker_0, # of connection points: 2
# Relax obj value: 0.220
# Max RMSD: 0.248
# Mean RMSD: 0.248
data_MOF--net-whz--node1-CUKXOW_clean_sbu_0--edge1-AJUNOK_clean_linker_0
_symmetry_space_group_name_H-M    P1
_symmetry_Int_Tables_number       1
_symmetry_cell_setting            triclinic
loop_
_symmetry_equiv_pos_as_xyz
'x, y, z'
_cell_length_a     28.444966
_cell_length_b     28.397546
_cell_length_c     35.843997
_cell_angle_alpha  90.423446
_cell_angle_beta   89.951777
_cell_angle_gamma 90.086499
loop_
_atom_site_label
_atom_site_type_symbol
_atom_site_fract_x
_atom_site_fract_y
_atom_site_fract_z
_atom_type_partial_charge
Tb0 Tb 0.33992 0.16167 0.18916 0.0
C1 C 0.25521 0.22115 0.15714 0.0
Tb2 Tb 0.23805 0.12265 0.19629 0.0
O3 O 0.33866 0.15073 0.12873 0.0
O4 O 0.29779 0.10812 0.1627 0.0
O5 O 0.29855 0.2218 0.17102 0.0
C6 C 0.15119 0.08822 0.18986 0.0
O7 O 0.22793 0.18299 0.15883 0.0
C8 C 0.26702 0.17578 0.2521 0.0
C9 C 0.31744 0.07732 0.24593 0.0
O10 O 0.16186 0.13166 0.19712 0.0
O11 O 0.18958 0.06411 0.18476 0.0
O12 O 0.23379 0.14463 0.25473 0.0
O13 O 0.27801 0.17761 0.21842 0.0
O14 O 0.27505 0.07173 0.23081 0.0
O15 O 0.34781 0.11027 0.23477 0.0
C16 C 0.42133 0.20986 0.19613 0.0
O17 O 0.41741 0.16652 0.18418 0.0
O18 O 0.37976 0.22487 0.20503 0.0
C19 C 0.30578 0.11906 0.12915 0.0
Tb20 Tb 0.61595 0.59653 0.43759 0.0
C21 C 0.55357 0.51345 0.40628 0.0
Tb22 Tb 0.65138 0.49408 0.44566 0.0
O23 O 0.63705 0.59906 0.37805 0.0
O24 O 0.66906 0.55287 0.41351 0.0
O25 O 0.55436 0.55633 0.4211 0.0
C26 C 0.68545 0.40817 0.4373 0.0
O27 O 0.59058 0.48513 0.40829 0.0
C28 C 0.59877 0.52393 0.5011 0.0
C29 C 0.69718 0.57216 0.49613 0.0
O30 O 0.64255 0.4181 0.44636 0.0
O31 O 0.70919 0.44659 0.43181 0.0
O32 O 0.63029 0.4911 0.50398 0.0
O33 O 0.59697 0.53527 0.46738 0.0
O34 O 0.70392 0.53096 0.47915 0.0
O35 O 0.66266 0.60161 0.48671 0.0
C36 C 0.56693 0.67765 0.44307 0.0
O37 O 0.61134 0.67277 0.45135 0.0
O38 O 0.55116 0.63734 0.4317 0.0
C39 C 0.66442 0.56267 0.37962 0.0
Tb40 Tb 0.17935 0.86803 0.68628 0.0
C41 C 0.26304 0.80771 0.65462 0.0
Tb42 Tb 0.28153 0.90461 0.69439 0.0
O43 O 0.17471 0.88978 0.6274 0.0
O44 O 0.22217 0.92189 0.66224 0.0
O45 O 0.22185 0.80685 0.67205 0.0
C46 C 0.36789 0.93865 0.68688 0.0
O47 O 0.28911 0.84654 0.65401 0.0
C48 C 0.2525 0.85057 0.74943 0.0
C49 C 0.20329 0.95024 0.74443 0.0
O50 O 0.35712 0.89455 0.68975 0.0
O51 O 0.33 0.96404 0.68737 0.0
O52 O 0.28616 0.88129 0.75223 0.0
O53 O 0.2409 0.84924 0.71575 0.0
O54 O 0.24427 0.95711 0.72753 0.0
O55 O 0.17381 0.91563 0.73485 0.0
C56 C 0.09715 0.82017 0.68933 0.0
O57 O 0.10555 0.86027 0.70601 0.0
O58 O 0.13474 0.80792 0.67146 0.0
C59 C 0.21126 0.91694 0.62842 0.0
Tb60 Tb 0.9047 0.42921 0.93847 0.0
C61 C 0.9696 0.50934 0.9099 0.0
Tb62 Tb 0.86996 0.531 0.94444 0.0
O63 O 0.89418 0.4287 0.87732 0.0
O64 O 0.85499 0.47274 0.91046 0.0
O65 O 0.96717 0.46778 0.92571 0.0
C66 C 0.82528 0.61296 0.9403 0.0
O67 O 0.93221 0.53741 0.90782 0.0
C68 C 0.93878 0.51678 0.98856 0.0
C69 C 0.82314 0.45325 0.99652 0.0
O70 O 0.8529 0.60052 0.96699 0.0
O71 O 0.82122 0.57847 0.91657 0.0
O72 O 0.92811 0.55718 0.97441 0.0
O73 O 0.9087 0.48507 0.97983 0.0
O74 O 0.82285 0.49753 0.98458 0.0
O75 O 0.85144 0.42013 0.98241 0.0
C76 C 0.95008 0.34627 0.94191 0.0
O77 O 0.90448 0.35112 0.93988 0.0
O78 O 0.96889 0.3877 0.94257 0.0
C79 C 0.86544 0.46379 0.87709 0.0
Tb80 Tb 0.78016 0.90193 0.88082 0.0
C81 C 0.70283 0.95076 0.83176 0.0
Tb82 Tb 0.67774 0.86698 0.88708 0.0
O83 O 0.78348 0.88422 0.82172 0.0
O84 O 0.7389 0.84878 0.85671 0.0
O85 O 0.74508 0.95511 0.8473 0.0
C86 C 0.59628 0.81988 0.8797 0.0
O87 O 0.67162 0.9183 0.84192 0.0
C88 C 0.71321 0.90699 0.94784 0.0
C89 C 0.75927 0.80249 0.91638 0.0
O90 O 0.60012 0.86441 0.88849 0.0
O91 O 0.63793 0.80291 0.87432 0.0
O92 O 0.67871 0.87712 0.94778 0.0
O93 O 0.72136 0.91809 0.91444 0.0
O94 O 0.71587 0.80507 0.9034 0.0
O95 O 0.78868 0.83901 0.91597 0.0
C96 C 0.8673 0.93406 0.88932 0.0
O97 O 0.85596 0.89268 0.87693 0.0
O98 O 0.8294 0.95735 0.8979 0.0
C99 C 0.75091 0.85223 0.82316 0.0
Tb100 Tb 0.36918 0.53201 0.62966 0.0
C101 C 0.32335 0.45247 0.5797 0.0
Tb102 Tb 0.4075 0.43014 0.63632 0.0
O103 O 0.39137 0.53625 0.57159 0.0
O104 O 0.42481 0.49246 0.60813 0.0
O105 O 0.31889 0.49568 0.59378 0.0
C106 C 0.45431 0.34773 0.63071 0.0
O107 O 0.35497 0.42143 0.59173 0.0
C108 C 0.36412 0.46364 0.69616 0.0
C109 C 0.46628 0.5145 0.67018 0.0
O110 O 0.41595 0.35502 0.64971 0.0
O111 O 0.46498 0.38645 0.61359 0.0
O112 O 0.39556 0.43067 0.69638 0.0
O113 O 0.35375 0.47222 0.66251 0.0
O114 O 0.46739 0.47136 0.6556 0.0
O115 O 0.42805 0.54142 0.6687 0.0
C116 C 0.33727 0.61967 0.63701 0.0
O117 O 0.38049 0.60793 0.6307 0.0
O118 O 0.31172 0.58185 0.63988 0.0
C119 C 0.42286 0.50356 0.5745 0.0
Tb120 Tb 0.74066 0.12216 0.37448 0.0
C121 C 0.82155 0.07413 0.33047 0.0
Tb122 Tb 0.84288 0.15645 0.39018 0.0
O123 O 0.74611 0.14308 0.31623 0.0
O124 O 0.78506 0.17662 0.35702 0.0
O125 O 0.77914 0.06764 0.34499 0.0
C126 C 0.92591 0.20272 0.3869 0.0
O127 O 0.85034 0.10881 0.34133 0.0
C128 C 0.80254 0.11134 0.44617 0.0
C129 C 0.75723 0.22122 0.41491 0.0
O130 O 0.92092 0.15703 0.38519 0.0
O131 O 0.88473 0.22103 0.39086 0.0
O132 O 0.83937 0.13796 0.44972 0.0
O133 O 0.79586 0.10483 0.41162 0.0
O134 O 0.80328 0.21687 0.4104 0.0
O135 O 0.7269 0.18807 0.40416 0.0
C136 C 0.65332 0.08885 0.38156 0.0
O137 O 0.66635 0.12126 0.35853 0.0
O138 O 0.68956 0.0751 0.40068 0.0
C139 C 0.77719 0.17604 0.32255 0.0
Tb140 Tb 0.15569 0.49983 0.13724 0.0
C141 C 0.20421 0.56948 0.08196 0.0
Tb142 Tb 0.1176 0.59063 0.13613 0.0
O143 O 0.10661 0.52764 0.09933 0.0
O144 O 0.10682 0.52754 0.09997 0.0
O145 O 0.2073 0.52725 0.09758 0.0
C146 C 0.07212 0.67438 0.12938 0.0
O147 O 0.1725 0.60096 0.09333 0.0
C148 C 0.1577 0.56647 0.20116 0.0
C149 C 0.05793 0.51084 0.17278 0.0
O150 O 0.11412 0.66827 0.14291 0.0
O151 O 0.05699 0.63356 0.11825 0.0
O152 O 0.11966 0.59076 0.19765 0.0
O153 O 0.17353 0.55877 0.16908 0.0
O154 O 0.0567 0.55114 0.15462 0.0
O155 O 0.09811 0.48739 0.17671 0.0
C156 C 0.18519 0.41008 0.13284 0.0
O157 O 0.14189 0.42389 0.1331 0.0
O158 O 0.21207 0.44694 0.13497 0.0
C159 C 0.11257 0.52271 0.0643 0.0
Tb160 Tb 0.84365 0.65814 0.68844 0.0
C161 C 0.75997 0.7185 0.65788 0.0
Tb162 Tb 0.74151 0.61995 0.6976 0.0
O163 O 0.84113 0.64438 0.628 0.0
O164 O 0.79996 0.60486 0.66374 0.0
O165 O 0.80399 0.71869 0.67 0.0
C166 C 0.65427 0.58776 0.68905 0.0
O167 O 0.73184 0.68125 0.66113 0.0
C168 C 0.77197 0.67294 0.75271 0.0
C169 C 0.82236 0.57215 0.74342 0.0
O170 O 0.66566 0.63031 0.69853 0.0
O171 O 0.69213 0.56294 0.68392 0.0
O172 O 0.73959 0.6409 0.75617 0.0
O173 O 0.78227 0.67499 0.71879 0.0
O174 O 0.77961 0.56671 0.72899 0.0
O175 O 0.8519 0.60626 0.73323 0.0
C176 C 0.92662 0.7039 0.69393 0.0
O177 O 0.91901 0.66517 0.67516 0.0
O178 O 0.88784 0.71568 0.71062 0.0
C179 C 0.80741 0.6137 0.62984 0.0
Tb180 Tb 0.11559 0.09612 0.93535 0.0
C181 C 0.05491 1.0107 0.90419 0.0
Tb182 Tb 0.15243 0.99389 0.94562 0.0
O183 O 0.13373 0.09586 0.87575 0.0
O184 O 0.16903 0.05219 0.91228 0.0
O185 O 0.0564 0.05587 0.91384 0.0
C186 C 0.18728 0.90772 0.93848 0.0
O187 O 0.09064 0.98164 0.91024 0.0
C188 C 0.09973 0.02621 0.99945 0.0
C189 C 0.19704 0.07429 0.995 0.0
O190 O 0.14714 0.9179 0.95351 0.0
O191 O 0.20746 0.94608 0.92686 0.0
O192 O 0.13209 0.99442 1.00388 0.0
O193 O 0.0974 0.0354 0.96539 0.0
O194 O 0.20307 0.03143 0.98047 0.0
O195 O 0.1644 0.1043 0.98283 0.0
C196 C 0.06525 0.17585 0.94104 0.0
O197 O 0.11012 0.17376 0.93351 0.0
O198 O 0.04988 0.13352 0.9463 0.0
C199 C 0.16246 0.06059 0.87823 0.0
Tb200 Tb 0.67686 0.36865 0.18755 0.0
C201 C 0.75899 0.30642 0.15378 0.0
Tb202 Tb 0.78044 0.40429 0.19381 0.0
O203 O 0.67658 0.38163 0.12744 0.0
O204 O 0.72008 0.42109 0.16204 0.0
O205 O 0.7157 0.30776 0.16761 0.0
C206 C 0.86927 0.43456 0.18713 0.0
O207 O 0.78783 0.34347 0.15553 0.0
C208 C 0.74974 0.35262 0.24939 0.0
C209 C 0.70399 0.45292 0.24408 0.0
O210 O 0.85648 0.3934 0.19871 0.0
O211 O 0.8319 0.45851 0.17848 0.0
O212 O 0.78238 0.38447 0.25245 0.0
O213 O 0.73885 0.35034 0.21567 0.0
O214 O 0.74497 0.45862 0.22673 0.0
O215 O 0.67368 0.41866 0.23504 0.0
C216 C 0.59404 0.3231 0.19508 0.0
O217 O 0.59895 0.36758 0.18696 0.0
O218 O 0.63551 0.30532 0.19968 0.0
C219 C 0.71085 0.41176 0.12838 0.0
Tb220 Tb 0.4054 0.92979 0.43749 0.0
C221 C 0.46662 1.01096 0.40392 0.0
Tb222 Tb 0.36817 0.03197 0.44096 0.0
O223 O 0.39741 0.93178 0.37635 0.0
O224 O 0.35287 0.97078 0.40977 0.0
O225 O 0.46633 0.96917 0.41999 0.0
C226 C 0.32527 0.11443 0.43566 0.0
O227 O 0.42844 0.03809 0.40253 0.0
C228 C 0.43865 0.01606 0.48381 0.0
C229 C 0.32063 0.95491 0.49333 0.0
O230 O 0.34385 0.09791 0.46578 0.0
O231 O 0.32919 0.08371 0.40869 0.0
O232 O 0.42879 0.0573 0.47085 0.0
O233 O 0.40667 0.98696 0.47592 0.0
O234 O 0.31797 0.99806 0.47901 0.0
O235 O 0.35183 0.92279 0.48175 0.0
C236 C 0.45013 0.84733 0.44724 0.0
O237 O 0.4086 0.8522 0.43219 0.0
O238 O 0.46524 0.8886 0.45732 0.0
C239 C 0.36418 0.96287 0.37635 0.0
Tb240 Tb 0.27913 0.40381 0.38104 0.0
C241 C 0.20158 0.45431 0.33255 0.0
Tb242 Tb 0.17562 0.36927 0.3867 0.0
O243 O 0.28234 0.38546 0.32207 0.0
O244 O 0.23731 0.35104 0.35731 0.0
O245 O 0.24432 0.4573 0.34752 0.0
C246 C 0.09474 0.32078 0.37891 0.0
O247 O 0.16957 0.42262 0.34289 0.0
C248 C 0.21121 0.4089 0.44737 0.0
C249 C 0.25718 0.30459 0.41709 0.0
O250 O 0.09869 0.36268 0.39385 0.0
O251 O 0.13582 0.30777 0.36714 0.0
O252 O 0.17667 0.37905 0.44732 0.0
O253 O 0.21971 0.42001 0.414 0.0
O254 O 0.21351 0.30767 0.40463 0.0
O255 O 0.28721 0.34067 0.41609 0.0
C256 C 0.36647 0.4362 0.38885 0.0
O257 O 0.355 0.39539 0.37534 0.0
O258 O 0.32863 0.45852 0.39917 0.0
C259 C 0.2492 0.35409 0.32375 0.0
Tb260 Tb 0.87008 0.03089 0.13024 0.0
C261 C 0.82698 0.95104 0.07957 0.0
Tb262 Tb 0.90667 0.92747 0.14051 0.0
O263 O 0.89509 0.03111 0.07287 0.0
O264 O 0.92693 0.98931 0.11212 0.0
O265 O 0.82062 0.99368 0.09425 0.0
C266 C 0.95637 0.84615 0.13521 0.0
O267 O 0.85964 0.92097 0.09159 0.0
C268 C 0.85719 0.96096 0.19701 0.0
C269 C 0.96293 0.01359 0.17705 0.0
O270 O 0.91065 0.84949 0.13391 0.0
O271 O 0.97318 0.88827 0.13891 0.0
O272 O 0.88345 0.92368 0.19867 0.0
O273 O 0.85307 0.97156 0.16298 0.0
O274 O 0.96281 0.96871 0.16623 0.0
O275 O 0.92741 0.04265 0.17008 0.0
C276 C 0.83514 0.11808 0.13425 0.0
O277 O 0.87715 0.10706 0.12329 0.0
O278 O 0.81282 0.07989 0.14366 0.0
C279 C 0.92736 0.99953 0.07816 0.0
Tb280 Tb 0.24221 0.62249 0.88052 0.0
C281 C 0.31848 0.57436 0.82931 0.0
Tb282 Tb 0.34465 0.657 0.88653 0.0
O283 O 0.23774 0.64333 0.82222 0.0
O284 O 0.28282 0.67702 0.85837 0.0
O285 O 0.27613 0.57016 0.84464 0.0
C286 C 0.4259 0.70449 0.87836 0.0
O287 O 0.34999 0.60635 0.84013 0.0
C288 C 0.3105 0.6142 0.94616 0.0
C289 C 0.26393 0.72015 0.92063 0.0
O290 O 0.42206 0.6619 0.8915 0.0
O291 O 0.38445 0.71892 0.86894 0.0
O292 O 0.34372 0.64552 0.94697 0.0
O293 O 0.30192 0.60433 0.91239 0.0
O294 O 0.30717 0.71766 0.90719 0.0
O295 O 0.23403 0.68407 0.91797 0.0
C296 C 0.15671 0.58727 0.8913 0.0
O297 O 0.16582 0.62742 0.87598 0.0
O298 O 0.19581 0.56733 0.90123 0.0
C299 C 0.27069 0.67491 0.82475 0.0
Tb300 Tb 0.65457 0.9927 0.6363 0.0
C301 C 0.69762 0.06855 0.58279 0.0
Tb302 Tb 0.61435 0.0941 0.64128 0.0
O303 O 0.60118 0.96442 0.59968 0.0
O304 O 0.61225 0.03673 0.60265 0.0
O305 O 0.70346 0.02641 0.59801 0.0
C306 C 0.57019 0.17753 0.63398 0.0
O307 O 0.66531 0.09931 0.59504 0.0
C308 C 0.65869 0.06297 0.70122 0.0
C309 C 0.55612 1.01025 0.67333 0.0
O310 O 0.61571 0.17208 0.63554 0.0
O311 O 0.55069 0.13652 0.63626 0.0
O312 O 0.62658 0.09508 0.70175 0.0
O313 O 0.6685 0.05422 0.66772 0.0
O314 O 0.55476 0.05261 0.65864 0.0
O315 O 0.59477 0.98432 0.67404 0.0
C316 C 0.69586 0.90993 0.64693 0.0
O317 O 0.66486 0.92891 0.66877 0.0
O318 O 0.70606 0.93896 0.62034 0.0
C319 C 0.58397 1.00527 0.59181 0.0
C320 C 0.22194 0.24695 0.26679 0.0
C321 C 0.26263 0.21976 0.27217 0.0
C322 C 0.21822 0.29184 0.2825 0.0
C323 C 0.25546 0.3105 0.30324 0.0
H324 H 0.19312 0.23354 0.25001 0.0
H325 H 0.18615 0.31179 0.27873 0.0
S326 S 0.36809 0.25186 0.32659 0.0
N327 N 0.33996 0.21343 0.29989 0.0
N328 N 0.33313 0.29811 0.33015 0.0
C329 C 0.29625 0.28346 0.3089 0.0
C330 C 0.29989 0.23785 0.29297 0.0
C331 C 0.49896 0.5428 0.56724 0.0
C332 C 0.46648 0.50886 0.55456 0.0
C333 C 0.54282 0.5472 0.55028 0.0
C334 C 0.55481 0.51747 0.52062 0.0
H335 H 0.4903 0.56586 0.59045 0.0
H336 H 0.56717 0.5739 0.56016 0.0
S337 S 0.48261 0.42162 0.47907 0.0
N338 N 0.449 0.44466 0.51203 0.0
N339 N 0.53223 0.45198 0.48003 0.0
C340 C 0.52283 0.48291 0.50817 0.0
C341 C 0.47819 0.47882 0.52525 0.0
C342 C 0.28981 0.77308 0.75693 0.0
C343 C 0.25677 0.80657 0.76938 0.0
C344 C 0.2939 0.72956 0.77455 0.0
C345 C 0.26476 0.71876 0.80471 0.0
H346 H 0.31255 0.7807 0.73344 0.0
H347 H 0.31996 0.70453 0.76478 0.0
S348 S 0.17169 0.79397 0.84639 0.0
N349 N 0.1942 0.82613 0.81257 0.0
N350 N 0.20107 0.7438 0.84572 0.0
C351 C 0.23121 0.75177 0.81701 0.0
C352 C 0.22739 0.79603 0.79925 0.0
C353 C 0.99687 0.55676 1.02693 0.0
C354 C 0.97969 0.51369 1.01269 0.0
C355 C 0.0421 0.56052 0.0408 0.0
C356 C 0.07131 0.52119 0.04131 0.0
H357 H 0.9757 0.58847 1.02627 0.0
H358 H 0.05407 0.59408 0.05177 0.0
S359 S 0.03959 0.39848 1.01694 0.0
N360 N 0.99226 0.42951 1.0067 0.0
N361 N 0.07886 0.43671 1.03251 0.0
C362 C 0.05392 0.4773 1.02968 0.0
C363 C 1.00733 0.47335 1.01582 0.0
C364 C 0.7186 0.78562 0.78699 0.0
C365 C 0.75758 0.8088 0.80222 0.0
C366 C 0.72337 0.74038 0.77201 0.0
C367 C 0.76699 0.71709 0.77277 0.0
H368 H 0.68436 0.8023 0.78703 0.0
H369 H 0.69292 0.72365 0.75944 0.0
S370 S 0.87856 0.76154 0.81204 0.0
N371 N 0.84057 0.8047 0.8189 0.0
N372 N 0.84908 0.71928 0.79043 0.0
C373 C 0.806 0.73966 0.78812 0.0
C374 C 0.80136 0.78573 0.80313 0.0
C375 C 0.73229 0.26788 0.25675 0.0
C376 C 0.75161 0.30969 0.27146 0.0
C377 C 0.74342 0.22423 0.27185 0.0
C378 C 0.77376 0.22094 0.30255 0.0
H379 H 0.70952 0.26856 0.23268 0.0
H380 H 0.72741 0.19303 0.25975 0.0
S381 S 0.83177 0.32086 0.35213 0.0
N382 N 0.80002 0.34585 0.3194 0.0
N383 N 0.82296 0.26381 0.34681 0.0
C384 C 0.79281 0.26279 0.31764 0.0
C385 C 0.78073 0.30723 0.30268 0.0
C386 C 0.97184 0.02622 1.02327 0.0
C387 C 0.9715 1.00243 0.0574 0.0
C388 C 0.01409 0.03735 1.00587 0.0
C389 C 0.05728 0.02469 1.02197 0.0
H390 H 0.93928 0.03692 1.01014 0.0
H391 H 0.01263 0.05462 0.97911 0.0
S392 S 0.0759 0.96199 0.11071 0.0
N393 N 0.01837 0.96568 0.10608 0.0
N394 N 0.0978 0.98875 0.07397 0.0
C395 C 0.05761 1.00175 0.05626 0.0
C396 C 0.01465 0.98955 0.07363 0.0
C397 C 0.51049 0.97945 0.50791 0.0
C398 C 0.47268 1.01013 0.51293 0.0
C399 C 0.54743 0.97952 0.5333 0.0
C400 C 0.54731 1.01053 0.56402 0.0
H401 H 0.51235 0.95644 0.48387 0.0
H402 H 0.57635 0.95532 0.5288 0.0
S403 S 0.45243 0.09369 0.59067 0.0
N404 N 0.43454 0.06949 0.55121 0.0
N405 N 0.504 0.06963 0.59927 0.0
C406 C 0.50881 0.04045 0.56956 0.0
C407 C 0.47125 0.04016 0.54384 0.0
C408 C 0.2357 0.05149 0.05546 0.0
C409 C 0.22416 0.08669 1.02933 0.0
C410 C 0.26024 0.06229 0.08863 0.0
C411 C 0.27542 0.10843 0.09635 0.0
H412 H 0.22523 0.0153 0.05046 0.0
H413 H 0.26863 0.03414 0.10773 0.0
S414 S 0.25108 0.21397 0.03892 0.0
N415 N 0.2266 0.17016 1.01539 0.0
N416 N 0.27501 0.18996 0.07615 0.0
C417 C 0.26336 0.14398 0.07086 0.0
C418 C 0.23711 0.13327 0.03782 0.0
C419 C 0.66616 0.48593 0.34306 0.0
C420 C 0.67891 0.53372 0.34659 0.0
C421 C 0.67268 0.4609 0.30939 0.0
C422 C 0.69482 0.4817 0.27842 0.0
H423 H 0.65062 0.46742 0.36601 0.0
H424 H 0.66138 0.42447 0.30801 0.0
S425 S 0.74406 0.60276 0.27613 0.0
N426 N 0.71905 0.59922 0.31762 0.0
N427 N 0.73534 0.55119 0.25559 0.0
C428 C 0.71115 0.52829 0.28265 0.0
C429 C 0.70233 0.55442 0.31636 0.0
C430 C 0.28877 0.93037 0.59496 0.0
C431 C 0.23923 0.92996 0.5947 0.0
C432 C 0.3148 0.93696 0.56181 0.0
C433 C 0.29229 0.94494 0.52737 0.0
H434 H 0.30766 0.92437 0.6206 0.0
H435 H 0.35285 0.93656 0.56325 0.0
S436 S 0.16375 0.95094 0.51214 0.0
N437 N 0.16906 0.93946 0.55705 0.0
N438 N 0.21786 0.95461 0.49561 0.0
C439 C 0.24303 0.9464 0.52706 0.0
C440 C 0.21659 0.93819 0.56045 0.0
C441 C 0.8503 0.56593 0.80916 0.0
C442 C 0.83472 0.54338 0.77639 0.0
C443 C 0.85898 0.54042 0.84186 0.0
C444 C 0.8529 0.49123 0.8432 0.0
H445 H 0.85511 0.60381 0.80975 0.0
H446 H 0.87191 0.55969 0.86556 0.0
S447 S 0.81475 0.41524 0.76435 0.0
N448 N 0.81408 0.46899 0.74699 0.0
N449 N 0.83212 0.42088 0.80813 0.0
C450 C 0.83826 0.46825 0.81034 0.0
C451 C 0.82846 0.49434 0.77716 0.0
C452 C 0.79878 0.96841 1.01466 0.0
C453 C 0.79895 0.93846 0.0459 0.0
C454 C 0.77202 0.95764 0.98256 0.0
C455 C 0.7435 0.91714 0.98093 0.0
H456 H 0.81975 1.00029 1.01495 0.0
H457 H 0.77283 0.98172 0.95928 0.0
S458 S 0.73275 0.82685 0.05499 0.0
N459 N 0.76969 0.86603 0.0726 0.0
N460 N 0.71842 0.84631 1.01322 0.0
C461 C 0.74388 0.88679 1.01192 0.0
C462 C 0.77188 0.89727 0.04413 0.0
C463 C 0.31364 0.55942 0.76044 0.0
C464 C 0.32921 0.5453 0.79594 0.0
C465 C 0.32391 0.53253 0.72822 0.0
C466 C 0.35046 0.49087 0.7303 0.0
H467 H 0.29357 0.5916 0.75756 0.0
H468 H 0.31119 0.54455 0.70164 0.0
S469 S 0.39758 0.43829 0.81731 0.0
N470 N 0.37098 0.48681 0.8316 0.0
N471 N 0.39065 0.43636 0.77159 0.0
C472 C 0.36561 0.47637 0.76594 0.0
C473 C 0.35499 0.50362 0.79858 0.0
C474 C 0.78359 0.05868 0.50027 0.0
C475 C 0.77172 0.09758 0.47814 0.0
C476 C 0.7599 0.04945 0.53413 0.0
C477 C 0.72374 0.07926 0.54755 0.0
H478 H 0.81213 0.03575 0.49178 0.0
H479 H 0.77047 0.01901 0.55005 0.0
S480 S 0.67839 0.18542 0.49972 0.0
N481 N 0.72119 0.16581 0.4729 0.0
N482 N 0.67601 0.14814 0.53458 0.0
C483 C 0.71108 0.11767 0.52524 0.0
C484 C 0.73531 0.12697 0.49116 0.0
C485 C 0.14821 0.50765 0.29625 0.0
C486 C 0.19136 0.484 0.29958 0.0
C487 C 0.13808 0.53513 0.26472 0.0
C488 C 0.17016 0.53888 0.23487 0.0
H489 H 0.12228 0.50522 0.3183 0.0
H490 H 0.10445 0.55288 0.26345 0.0
S491 S 0.28541 0.47844 0.22774 0.0
N492 N 0.26499 0.46334 0.26911 0.0
N493 N 0.24526 0.51333 0.20952 0.0
C494 C 0.21267 0.51388 0.23728 0.0
C495 C 0.22343 0.48688 0.2697 0.0
C496 C 0.72958 0.60464 0.59633 0.0
C497 C 0.77874 0.59867 0.59711 0.0
C498 C 0.70374 0.59773 0.56319 0.0
C499 C 0.72575 0.58245 0.53002 0.0
H500 H 0.71083 0.61567 0.62101 0.0
H501 H 0.66607 0.60339 0.56376 0.0
S502 S 0.85239 0.55486 0.51903 0.0
N503 N 0.84769 0.57367 0.56259 0.0
N504 N 0.79884 0.55703 0.5013 0.0
C505 C 0.77432 0.57354 0.53117 0.0
C506 C 0.80082 0.58252 0.56441 0.0
C507 C 0.16716 0.98312 0.84352 0.0
C508 C 0.17738 0.03158 0.84573 0.0
C509 C 0.1739 0.95754 0.81019 0.0
C510 C 0.19309 0.97896 0.7783 0.0
H511 H 0.15289 0.9648 0.86716 0.0
H512 H 0.16484 0.92049 0.80965 0.0
S513 S 0.23121 0.10353 0.77128 0.0
N514 N 0.20974 0.09928 0.81395 0.0
N515 N 0.22579 0.05064 0.75224 0.0
C516 C 0.2058 0.02674 0.78087 0.0
C517 C 0.19714 0.05312 0.81431 0.0
C518 C 0.74207 0.39129 0.06505 0.0
C519 C 0.7408 0.42273 0.09568 0.0
C520 C 0.76936 0.40075 1.03323 0.0
C521 C 0.7954 0.44262 1.03051 0.0
H522 H 0.722 0.35885 0.06573 0.0
H523 H 0.76933 0.37563 1.01035 0.0
S524 S 0.80674 0.53493 0.10396 0.0
N525 N 0.76995 0.49615 0.12195 0.0
N526 N 0.8208 0.51436 0.06219 0.0
C527 C 0.79522 0.47389 0.06127 0.0
C528 C 0.76808 0.46383 0.09386 0.0
C529 C 0.37481 0.03061 0.28483 0.0
C530 C 0.32918 0.04841 0.27938 0.0
C531 C 0.38574 1.00274 0.31609 0.0
C532 C 0.35194 0.99295 0.34382 0.0
H533 H 0.40204 0.03748 0.26443 0.0
H534 H 0.42114 0.98919 0.31879 0.0
S535 S 0.22861 0.03472 0.34474 0.0
N536 N 0.25057 0.05592 0.30562 0.0
N537 N 0.27182 1.00545 0.36472 0.0
C538 C 0.30683 0.0121 0.33949 0.0
C539 C 0.29529 0.0393 0.30723 0.0
C540 C 0.29354 0.4715 0.51569 0.0
C541 C 0.295 0.44035 0.54617 0.0
C542 C 0.26763 0.46069 0.48322 0.0
C543 C 0.24124 0.4189 0.48049 0.0
H544 H 0.31304 0.50429 0.5168 0.0
H545 H 0.26736 0.48569 0.46054 0.0
S546 S 0.23564 0.32455 0.55163 0.0
N547 N 0.2701 0.365 0.57057 0.0
N548 N 0.2202 0.3452 0.51048 0.0
C549 C 0.24318 0.38719 0.51056 0.0
C550 C 0.2704 0.39774 0.54313 0.0
C551 C 0.84412 0.03967 0.22928 0.0
C552 C 0.84607 0.99016 0.23058 0.0
C553 C 0.83826 0.06691 0.262 0.0
C554 C 0.83356 0.0455 0.29713 0.0
H555 H 0.84837 0.05763 0.20317 0.0
H556 H 0.8364 0.1049 0.25971 0.0
S557 S 0.83621 0.91763 0.31595 0.0
N558 N 0.84347 0.9213 0.27035 0.0
N559 N 0.83085 0.97235 0.33128 0.0
C560 C 0.83503 0.9963 0.29878 0.0
C561 C 0.84181 0.96871 0.26571 0.0
C562 C 0.24741 0.62576 0.03982 0.0
C563 C 0.232 0.57967 0.04737 0.0
C564 C 0.27227 0.63642 1.0069 0.0
C565 C 0.2813 0.60189 0.97935 0.0
H566 H 0.2408 0.65379 0.0598 0.0
H567 H 0.28428 0.67224 1.00285 0.0
S568 S 0.24389 0.47697 0.98309 0.0
N569 N 0.22521 0.49967 1.02301 0.0
N570 N 0.27015 0.52037 0.96072 0.0
C571 C 0.26428 0.55617 0.98562 0.0
C572 C 0.24017 0.5449 1.01969 0.0
C573 C 0.63732 0.0272 0.76243 0.0
C574 C 0.67039 0.03316 0.73356 0.0
C575 C 0.64778 1.00016 0.79402 0.0
C576 C 0.69228 0.97958 0.79848 0.0
H577 H 0.60284 0.04314 0.76041 0.0
H578 H 0.62116 0.99599 0.81538 0.0
S579 S 0.78957 0.98121 0.72928 0.0
N580 N 0.74776 0.01308 0.70992 0.0
N581 N 0.76852 0.96427 0.77001 0.0
C582 C 0.72531 0.98455 0.7694 0.0
C583 C 0.71406 1.01079 0.73673 0.0
C584 C 0.50964 0.21822 0.19391 0.0
C585 C 0.46499 0.23921 0.1967 0.0
C586 C 0.55099 0.24567 0.19401 0.0
C587 C 0.54943 0.29532 0.19611 0.0
H588 H 0.51271 0.18028 0.19182 0.0
H589 H 0.58451 0.22778 0.19189 0.0
S590 S 0.44141 0.3677 0.20317 0.0
N591 N 0.42187 0.31292 0.20166 0.0
N592 N 0.49929 0.36413 0.20079 0.0
C593 C 0.50505 0.31672 0.19859 0.0
C594 C 0.46298 0.28879 0.19918 0.0
C595 C 0.49562 0.72392 0.42484 0.0
C596 C 0.53779 0.7212 0.44541 0.0
C597 C 0.46682 0.7642 0.42626 0.0
C598 C 0.47884 0.80339 0.44851 0.0
H599 H 0.48501 0.69485 0.40699 0.0
H600 H 0.43541 0.76496 0.40921 0.0
S601 S 0.5828 0.81223 0.5109 0.0
N602 N 0.58828 0.76004 0.4907 0.0
N603 N 0.53437 0.83554 0.49361 0.0
C604 C 0.52025 0.80061 0.47003 0.0
C605 C 0.54967 0.75964 0.46842 0.0
C606 C 0.97832 0.76902 0.71959 0.0
C607 C 0.97033 0.7331 0.69288 0.0
C608 C 0.01892 0.79776 0.71825 0.0
C609 C 0.05292 0.79175 0.69003 0.0
H610 H 0.95318 0.77478 0.74186 0.0
H611 H 0.02398 0.82435 0.7397 0.0
S612 S 0.04602 0.70654 0.61108 0.0
N613 N 0.99836 0.6958 0.63593 0.0
N614 N 0.07392 0.74933 0.63329 0.0
C615 C 0.04461 0.75678 0.66271 0.0
C616 C 1.00357 0.7276 0.66416 0.0
C617 C 0.02737 0.30436 0.94448 0.0
C618 C 0.97789 0.30186 0.942 0.0
C619 C 0.05542 0.26365 0.94415 0.0
C620 C 0.03516 0.21866 0.94139 0.0
H621 H 0.04483 0.3382 0.94645 0.0
H622 H 0.09322 0.26747 0.94623 0.0
S623 S 0.9077 0.19253 0.93126 0.0
N624 N 0.91015 0.25052 0.93478 0.0
N625 N 0.96256 0.17398 0.93422 0.0
C626 C 0.98576 0.21556 0.93836 0.0
C627 C 0.95721 0.25712 0.93861 0.0
C628 C 0.55471 0.74203 0.88288 0.0
C629 C 0.55249 0.79132 0.87864 0.0
C630 C 0.51377 0.71405 0.88281 0.0
C631 C 0.46915 0.73417 0.87756 0.0
H632 H 0.58833 0.72493 0.88691 0.0
H633 H 0.51715 0.67643 0.88675 0.0
S634 S 0.44474 0.86138 0.86339 0.0
N635 N 0.5023 0.85886 0.86861 0.0
N636 N 0.42563 0.80663 0.86694 0.0
C637 C 0.46668 0.78338 0.87257 0.0
C638 C 0.50824 0.81186 0.87353 0.0
C639 C 0.52247 0.29862 0.60721 0.0
C640 C 0.48409 0.30443 0.63186 0.0
C641 C 0.55159 0.25834 0.60858 0.0
C642 C 0.54316 0.22237 0.63453 0.0
H643 H 0.52987 0.32522 0.5865 0.0
H644 H 0.57998 0.25477 0.5886 0.0
S645 S 0.45081 0.2224 0.70763 0.0
N646 N 0.44202 0.27193 0.68483 0.0
N647 N 0.49576 0.19649 0.68681 0.0
C648 C 0.50566 0.22824 0.65971 0.0
C649 C 0.47641 0.26917 0.65856 0.0
C650 C 1.00831 0.30868 0.39008 0.0
C651 C 0.05209 0.29009 0.37942 0.0
C652 C 0.96808 0.27994 0.39223 0.0
C653 C 0.96993 0.23118 0.38439 0.0
H654 H 1.00502 0.34576 0.39687 0.0
H655 H 0.93518 0.29619 0.40045 0.0
S656 S 0.07605 0.16489 0.35505 0.0
N657 N 0.09483 0.21958 0.36055 0.0
N658 N 0.01937 0.16577 0.36514 0.0
C659 C 0.01345 0.21208 0.37366 0.0
C660 C 0.05442 0.24146 0.37104 0.0
C661 C 0.99891 0.72063 0.11329 0.0
C662 C 0.0436 0.71885 0.13044 0.0
C663 C 0.97042 0.76138 0.11528 0.0
C664 C 0.9856 0.80227 0.13422 0.0
H665 H 0.9857 0.69017 0.09824 0.0
H666 H 0.93659 0.76106 0.10144 0.0
S667 S 0.09759 0.81506 0.18656 0.0
N668 N 0.09996 0.76119 0.169 0.0
N669 N 0.04728 0.83743 0.17214 0.0
C670 C 0.02989 0.80077 0.15181 0.0
C671 C 0.05861 0.75926 0.15009 0.0
C672 C 0.26632 0.30478 0.13796 0.0
C673 C 0.23548 0.26689 0.14477 0.0
C674 C 0.24958 0.35063 0.13278 0.0
C675 C 0.20128 0.36054 0.13402 0.0
H676 H 0.30402 0.29941 0.13791 0.0
H677 H 0.27486 0.37875 0.12887 0.0
S678 S 0.1052 0.274 0.14856 0.0
N679 N 0.15377 0.24237 0.1507 0.0
N680 N 0.12236 0.32854 0.14043 0.0
C681 C 0.16976 0.32284 0.13895 0.0
C682 C 0.18682 0.276 0.1444 0.0
C683 C 0.42149 0.50296 0.39889 0.0
C684 C 0.41464 0.45535 0.38994 0.0
C685 C 0.46667 0.522 0.40146 0.0
C686 C 0.507 0.49403 0.39566 0.0
H687 H 0.39171 0.52568 0.40454 0.0
H688 H 0.46973 0.55869 0.40958 0.0
S689 S 0.50762 0.3676 0.3685 0.0
N690 N 0.45136 0.38101 0.37255 0.0
N691 N 0.53669 0.4166 0.37801 0.0
C692 C 0.50054 0.44669 0.38489 0.0
C693 C 0.45426 0.42737 0.38198 0.0
C694 C 0.2537 0.72275 0.63962 0.0
C695 C 0.28381 0.76171 0.64455 0.0
C696 C 0.27137 0.67694 0.63699 0.0
C697 C 0.31983 0.66839 0.63896 0.0
H698 H 0.21592 0.72748 0.63889 0.0
H699 H 0.2468 0.64801 0.63378 0.0
S700 S 0.41399 0.75772 0.65143 0.0
N701 N 0.36479 0.7885 0.65111 0.0
N702 N 0.39803 0.70225 0.64544 0.0
C703 C 0.3506 0.70694 0.64279 0.0
C704 C 0.33259 0.7537 0.64567 0.0
C705 C 0.02409 0.5734 0.8885 0.0
C706 C 0.01748 0.52739 0.90176 0.0
C707 C 0.06938 0.59256 0.88493 0.0
C708 C 0.10949 0.56654 0.89489 0.0
H709 H 0.99415 0.59512 0.88148 0.0
H710 H 0.07293 0.62824 0.87481 0.0
S711 S 0.11229 0.44422 0.93007 0.0
N712 N 0.05611 0.45569 0.92369 0.0
N713 N 0.14025 0.4925 0.91764 0.0
C714 C 0.10363 0.52045 0.90762 0.0
C715 C 0.05787 0.50064 0.91084 0.0
C716 C 0.80873 0.74475 0.95138 0.0
C717 C 0.77715 0.75464 0.92249 0.0
C718 C 0.82349 0.69831 0.95767 0.0
C719 C 0.80759 0.6609 0.93484 0.0
H720 H 0.82132 0.77274 0.9695 0.0
H721 H 0.84781 0.69177 0.98028 0.0
S722 S 0.72766 0.66914 0.85379 0.0
N723 N 0.73258 0.72364 0.86955 0.0
N724 N 0.76059 0.63705 0.88152 0.0
C725 C 0.77709 0.67067 0.90538 0.0
C726 C 0.76185 0.71747 0.89911 0.0
C727 C 0.59541 0.52319 0.69345 0.0
C728 C 0.60572 0.57049 0.68601 0.0
C729 C 0.54932 0.50616 0.69072 0.0
C730 C 0.51202 0.53577 0.68018 0.0
H731 H 0.62315 0.49915 0.70136 0.0
H732 H 0.54307 0.46914 0.6959 0.0
S733 S 0.52189 0.66222 0.65548 0.0
N734 N 0.57586 0.64666 0.66691 0.0
N735 N 0.48921 0.61467 0.66106 0.0
C736 C 0.52199 0.58345 0.67301 0.0
C737 C 0.56893 0.60077 0.67602 0.0
C738 C 0.69079 0.27757 0.42074 0.0
C739 C 0.73867 0.26746 0.42639 0.0
C740 C 0.67371 0.32331 0.42511 0.0
C741 C 0.70403 0.36039 0.43474 0.0
H742 H 0.66652 0.25049 0.41148 0.0
H743 H 0.63685 0.32995 0.41962 0.0
S744 S 0.83021 0.3516 0.45898 0.0
N745 N 0.81466 0.29744 0.44732 0.0
N746 N 0.78244 0.38393 0.45411 0.0
C747 C 0.75124 0.35063 0.44248 0.0
C748 C 0.76856 0.30389 0.43879 0.0
C749 C 0.92588 0.50097 0.18226 0.0
C750 C 0.91816 0.45257 0.18645 0.0
C751 C 0.97143 0.51943 0.18079 0.0
C752 C 0.01152 0.49026 0.18279 0.0
H753 H 0.89646 0.52493 0.17972 0.0
H754 H 0.97503 0.55703 0.1767 0.0
S755 S 1.01017 0.36069 0.19521 0.0
N756 N 0.95404 0.37557 0.19443 0.0
N757 N 0.04004 0.41021 0.19035 0.0
C758 C 1.00432 0.44176 0.18814 0.0
C759 C 0.95758 0.42294 0.19016 0.0
C760 C 0.76811 0.79972 0.63354 0.0
C761 C 0.73946 0.76464 0.64923 0.0
C762 C 0.75337 0.84668 0.63235 0.0
C763 C 0.71015 0.86027 0.64784 0.0
H764 H 0.80282 0.79101 0.62311 0.0
H765 H 0.77664 0.87277 0.62037 0.0
S766 S 0.6207 0.78161 0.6901 0.0
N767 N 0.66453 0.74629 0.67865 0.0
N768 N 0.63722 0.83481 0.67708 0.0
C769 C 0.68039 0.82541 0.66254 0.0
C770 C 0.69494 0.77743 0.663 0.0
C771 C 0.92281 1.0011 0.89578 0.0
C772 C 0.91555 0.95267 0.89074 0.0
C773 C 0.96821 0.0198 0.89751 0.0
C774 C 1.00824 0.99067 0.89478 0.0
H775 H 0.8932 0.02481 0.89871 0.0
H776 H 0.97164 0.05732 0.90247 0.0
S777 S 1.00754 0.8611 0.87959 0.0
N778 N 0.95145 0.87583 0.88123 0.0
N779 N 0.0371 0.91072 0.88519 0.0
C780 C 1.0013 0.94212 0.88859 0.0
C781 C 0.95487 0.92318 0.88647 0.0
C782 C 0.77236 0.17373 0.15366 0.0
C783 C 0.81595 0.16638 0.13639 0.0
C784 C 0.75366 0.21896 0.15748 0.0
C785 C 0.77786 0.25905 0.1444 0.0
H786 H 0.75278 0.14437 0.16501 0.0
H787 H 0.72043 0.22231 0.17201 0.0
S788 S 0.89204 0.25831 0.09441 0.0
N789 N 0.88194 0.20235 0.10393 0.0
N790 N 0.84691 0.28785 0.11168 0.0
C791 C 0.8211 0.2521 0.1262 0.0
C792 C 0.84011 0.20569 0.12206 0.0
C793 C 0.55366 1.00971 0.4107 0.0
C794 C 0.51353 0.03053 0.39461 0.0
C795 C 0.59837 0.02912 0.40636 0.0
C796 C 0.6053 0.06965 0.38505 0.0
H797 H 0.55079 0.97851 0.42768 0.0
H798 H 0.62777 0.01208 0.4199 0.0
S799 S 0.51307 0.13655 0.33492 0.0
N800 N 0.48409 0.0935 0.35552 0.0
N801 N 0.56892 0.12938 0.34621 0.0
C802 C 0.566 0.09036 0.36779 0.0
C803 C 0.51996 0.07096 0.37285 0.0
C804 C 0.30741 0.24565 0.45053 0.0
C805 C 0.27478 0.25637 0.42252 0.0
C806 C 0.32288 0.19909 0.45539 0.0
C807 C 0.30712 0.1625 0.43168 0.0
H808 H 0.32039 0.27311 0.46899 0.0
H809 H 0.34794 0.19186 0.47735 0.0
S810 S 0.22298 0.17248 0.3536 0.0
N811 N 0.22784 0.22646 0.37047 0.0
N812 N 0.2581 0.14001 0.37933 0.0
C813 C 0.27534 0.17302 0.40333 0.0
C814 C 0.25888 0.21977 0.39879 0.0
C815 C 0.01877 0.08158 0.18048 0.0
C816 C 1.00894 0.03395 0.18811 0.0
C817 C 0.06491 0.099 0.18177 0.0
C818 C 0.1029 0.06933 0.19017 0.0
H819 H 0.99113 0.10509 0.17148 0.0
H820 H 0.07107 0.13555 0.17474 0.0
S821 S 0.09562 0.94417 0.21794 0.0
N822 N 0.04074 0.95908 0.20893 0.0
N823 N 0.12747 0.9918 0.21033 0.0
C824 C 0.09345 0.02254 0.19989 0.0
C825 C 0.04644 1.00493 0.19923 0.0
C826 C 0.18095 0.82031 0.94572 0.0
C827 C 0.20774 0.86026 0.93642 0.0
C828 C 0.19991 0.77481 0.94247 0.0
C829 C 0.24646 0.76795 0.93026 0.0
H830 H 0.14473 0.82411 0.95461 0.0
H831 H 0.17752 0.74491 0.94843 0.0
S832 S 0.33164 0.86259 0.90522 0.0
N833 N 0.28306 0.89075 0.91635 0.0
N834 N 0.31952 0.80635 0.91083 0.0
C835 C 0.27402 0.80828 0.92244 0.0
C836 C 0.2544 0.85415 0.92529 0.0
C837 C 0.43062 0.99567 0.70491 0.0
C838 C 0.41603 0.95631 0.68397 0.0
C839 C 0.47729 1.01153 0.70311 0.0
C840 C 0.51054 0.98804 0.68076 0.0
H841 H 0.40593 0.01415 0.72276 0.0
H842 H 0.48728 0.04279 0.71873 0.0
S843 S 0.48738 0.88696 0.61709 0.0
N844 N 0.43661 0.89675 0.63805 0.0
N845 N 0.5244 0.92573 0.63512 0.0
C846 C 0.49596 0.94882 0.65954 0.0
C847 C 0.44854 0.93311 0.66108 0.0
loop_
_geom_bond_atom_site_label_1
_geom_bond_atom_site_label_2
_geom_bond_distance
_geom_bond_site_symmetry_2
_ccdc_geom_bond_type
Tb0 O3 2.453 . S
Tb0 O4 2.596 . S
Tb0 O5 2.374 . S
Tb0 O13 2.343 . S
Tb0 O15 2.353 . S
Tb0 O17 2.427 . S
Tb0 O18 2.513 . S
C1 O5 1.251 . S
C1 O7 1.263 . S
Tb2 O4 2.343 . S
Tb2 O7 2.353 . S
Tb2 O10 2.427 . S
Tb2 O11 2.513 . S
Tb2 O12 2.453 . S
Tb2 O13 2.596 . S
Tb2 O14 2.374 . S
O3 Tb0 2.453 . S
O3 C19 1.245 . S
O4 Tb0 2.596 . S
O4 Tb2 2.343 . S
O4 C19 1.259 . S
O5 Tb0 2.374 . S
O5 C1 1.251 . S
C6 O10 1.275 . S
C6 O11 1.246 . S
O7 C1 1.263 . S
O7 Tb2 2.353 . S
C8 O12 1.245 . S
C8 O13 1.259 . S
C9 O14 1.250 . S
C9 O15 1.263 . S
O10 Tb2 2.427 . S
O10 C6 1.275 . S
O11 Tb2 2.513 . S
O11 C6 1.246 . S
O12 Tb2 2.453 . S
O12 C8 1.245 . S
O13 Tb0 2.343 . S
O13 Tb2 2.596 . S
O13 C8 1.259 . S
O14 Tb2 2.374 . S
O14 C9 1.250 . S
O15 Tb0 2.353 . S
O15 C9 1.263 . S
C16 O17 1.275 . S
C16 O18 1.246 . S
O17 Tb0 2.427 . S
O17 C16 1.275 . S
O18 Tb0 2.513 . S
O18 C16 1.246 . S
C19 O3 1.245 . S
C19 O4 1.259 . S
Tb20 O23 2.453 . S
Tb20 O24 2.596 . S
Tb20 O25 2.374 . S
Tb20 O33 2.343 . S
Tb20 O35 2.353 . S
Tb20 O37 2.427 . S
Tb20 O38 2.513 . S
C21 O25 1.251 . S
C21 O27 1.263 . S
Tb22 O24 2.343 . S
Tb22 O27 2.353 . S
Tb22 O30 2.427 . S
Tb22 O31 2.513 . S
Tb22 O32 2.453 . S
Tb22 O33 2.596 . S
Tb22 O34 2.374 . S
O23 Tb20 2.453 . S
O23 C39 1.245 . S
O24 Tb20 2.596 . S
O24 Tb22 2.343 . S
O24 C39 1.259 . S
O25 Tb20 2.374 . S
O25 C21 1.251 . S
C26 O30 1.275 . S
C26 O31 1.246 . S
O27 C21 1.263 . S
O27 Tb22 2.353 . S
C28 O32 1.245 . S
C28 O33 1.259 . S
C29 O34 1.250 . S
C29 O35 1.263 . S
O30 Tb22 2.427 . S
O30 C26 1.275 . S
O31 Tb22 2.513 . S
O31 C26 1.246 . S
O32 Tb22 2.453 . S
O32 C28 1.245 . S
O33 Tb20 2.343 . S
O33 Tb22 2.596 . S
O33 C28 1.259 . S
O34 Tb22 2.374 . S
O34 C29 1.250 . S
O35 Tb20 2.353 . S
O35 C29 1.263 . S
C36 O37 1.275 . S
C36 O38 1.246 . S
O37 Tb20 2.427 . S
O37 C36 1.275 . S
O38 Tb20 2.513 . S
O38 C36 1.246 . S
C39 O23 1.245 . S
C39 O24 1.259 . S
Tb40 O43 2.453 . S
Tb40 O44 2.596 . S
Tb40 O45 2.374 . S
Tb40 O53 2.343 . S
Tb40 O55 2.353 . S
Tb40 O57 2.427 . S
Tb40 O58 2.513 . S
C41 O45 1.251 . S
C41 O47 1.263 . S
Tb42 O44 2.343 . S
Tb42 O47 2.353 . S
Tb42 O50 2.427 . S
Tb42 O51 2.513 . S
Tb42 O52 2.453 . S
Tb42 O53 2.596 . S
Tb42 O54 2.374 . S
O43 Tb40 2.453 . S
O43 C59 1.245 . S
O44 Tb40 2.596 . S
O44 Tb42 2.343 . S
O44 C59 1.259 . S
O45 Tb40 2.374 . S
O45 C41 1.251 . S
C46 O50 1.275 . S
C46 O51 1.246 . S
O47 C41 1.263 . S
O47 Tb42 2.353 . S
C48 O52 1.245 . S
C48 O53 1.259 . S
C49 O54 1.250 . S
C49 O55 1.263 . S
O50 Tb42 2.427 . S
O50 C46 1.275 . S
O51 Tb42 2.513 . S
O51 C46 1.246 . S
O52 Tb42 2.453 . S
O52 C48 1.245 . S
O53 Tb40 2.343 . S
O53 Tb42 2.596 . S
O53 C48 1.259 . S
O54 Tb42 2.374 . S
O54 C49 1.250 . S
O55 Tb40 2.353 . S
O55 C49 1.263 . S
C56 O57 1.275 . S
C56 O58 1.246 . S
O57 Tb40 2.427 . S
O57 C56 1.275 . S
O58 Tb40 2.513 . S
O58 C56 1.246 . S
C59 O43 1.245 . S
C59 O44 1.259 . S
Tb60 O63 2.453 . S
Tb60 O64 2.596 . S
Tb60 O65 2.374 . S
Tb60 O73 2.343 . S
Tb60 O75 2.353 . S
Tb60 O77 2.427 . S
Tb60 O78 2.513 . S
C61 O65 1.251 . S
C61 O67 1.263 . S
Tb62 O64 2.343 . S
Tb62 O67 2.353 . S
Tb62 O70 2.427 . S
Tb62 O71 2.513 . S
Tb62 O72 2.453 . S
Tb62 O73 2.596 . S
Tb62 O74 2.374 . S
O63 Tb60 2.453 . S
O63 C79 1.245 . S
O64 Tb60 2.596 . S
O64 Tb62 2.343 . S
O64 C79 1.259 . S
O65 Tb60 2.374 . S
O65 C61 1.251 . S
C66 O70 1.275 . S
C66 O71 1.246 . S
O67 C61 1.263 . S
O67 Tb62 2.353 . S
C68 O72 1.245 . S
C68 O73 1.259 . S
C69 O74 1.250 . S
C69 O75 1.263 . S
O70 Tb62 2.427 . S
O70 C66 1.275 . S
O71 Tb62 2.513 . S
O71 C66 1.246 . S
O72 Tb62 2.453 . S
O72 C68 1.245 . S
O73 Tb60 2.343 . S
O73 Tb62 2.596 . S
O73 C68 1.259 . S
O74 Tb62 2.374 . S
O74 C69 1.250 . S
O75 Tb60 2.353 . S
O75 C69 1.263 . S
C76 O77 1.275 . S
C76 O78 1.246 . S
O77 Tb60 2.427 . S
O77 C76 1.275 . S
O78 Tb60 2.513 . S
O78 C76 1.246 . S
C79 O63 1.245 . S
C79 O64 1.259 . S
Tb80 O83 2.453 . S
Tb80 O84 2.596 . S
Tb80 O85 2.374 . S
Tb80 O93 2.343 . S
Tb80 O95 2.353 . S
Tb80 O97 2.427 . S
Tb80 O98 2.513 . S
C81 O85 1.251 . S
C81 O87 1.263 . S
Tb82 O84 2.343 . S
Tb82 O87 2.353 . S
Tb82 O90 2.427 . S
Tb82 O91 2.513 . S
Tb82 O92 2.453 . S
Tb82 O93 2.596 . S
Tb82 O94 2.374 . S
O83 Tb80 2.453 . S
O83 C99 1.245 . S
O84 Tb80 2.596 . S
O84 Tb82 2.343 . S
O84 C99 1.259 . S
O85 Tb80 2.374 . S
O85 C81 1.251 . S
C86 O90 1.275 . S
C86 O91 1.246 . S
O87 C81 1.263 . S
O87 Tb82 2.353 . S
C88 O92 1.245 . S
C88 O93 1.259 . S
C89 O94 1.250 . S
C89 O95 1.263 . S
O90 Tb82 2.427 . S
O90 C86 1.275 . S
O91 Tb82 2.513 . S
O91 C86 1.246 . S
O92 Tb82 2.453 . S
O92 C88 1.245 . S
O93 Tb80 2.343 . S
O93 Tb82 2.596 . S
O93 C88 1.259 . S
O94 Tb82 2.374 . S
O94 C89 1.250 . S
O95 Tb80 2.353 . S
O95 C89 1.263 . S
C96 O97 1.275 . S
C96 O98 1.246 . S
O97 Tb80 2.427 . S
O97 C96 1.275 . S
O98 Tb80 2.513 . S
O98 C96 1.246 . S
C99 O83 1.245 . S
C99 O84 1.259 . S
Tb100 O103 2.453 . S
Tb100 O104 2.596 . S
Tb100 O105 2.374 . S
Tb100 O113 2.343 . S
Tb100 O115 2.353 . S
Tb100 O117 2.427 . S
Tb100 O118 2.513 . S
C101 O105 1.251 . S
C101 O107 1.263 . S
Tb102 O104 2.343 . S
Tb102 O107 2.353 . S
Tb102 O110 2.427 . S
Tb102 O111 2.513 . S
Tb102 O112 2.453 . S
Tb102 O113 2.596 . S
Tb102 O114 2.374 . S
O103 Tb100 2.453 . S
O103 C119 1.245 . S
O104 Tb100 2.596 . S
O104 Tb102 2.343 . S
O104 C119 1.259 . S
O105 Tb100 2.374 . S
O105 C101 1.251 . S
C106 O110 1.275 . S
C106 O111 1.246 . S
O107 C101 1.263 . S
O107 Tb102 2.353 . S
C108 O112 1.245 . S
C108 O113 1.259 . S
C109 O114 1.250 . S
C109 O115 1.263 . S
O110 Tb102 2.427 . S
O110 C106 1.275 . S
O111 Tb102 2.513 . S
O111 C106 1.246 . S
O112 Tb102 2.453 . S
O112 C108 1.245 . S
O113 Tb100 2.343 . S
O113 Tb102 2.596 . S
O113 C108 1.259 . S
O114 Tb102 2.374 . S
O114 C109 1.250 . S
O115 Tb100 2.353 . S
O115 C109 1.263 . S
C116 O117 1.275 . S
C116 O118 1.246 . S
O117 Tb100 2.427 . S
O117 C116 1.275 . S
O118 Tb100 2.513 . S
O118 C116 1.246 . S
C119 O103 1.245 . S
C119 O104 1.259 . S
Tb120 O123 2.453 . S
Tb120 O124 2.596 . S
Tb120 O125 2.374 . S
Tb120 O133 2.343 . S
Tb120 O135 2.353 . S
Tb120 O137 2.427 . S
Tb120 O138 2.513 . S
C121 O125 1.251 . S
C121 O127 1.263 . S
Tb122 O124 2.343 . S
Tb122 O127 2.353 . S
Tb122 O130 2.427 . S
Tb122 O131 2.513 . S
Tb122 O132 2.453 . S
Tb122 O133 2.596 . S
Tb122 O134 2.374 . S
O123 Tb120 2.453 . S
O123 C139 1.245 . S
O124 Tb120 2.596 . S
O124 Tb122 2.343 . S
O124 C139 1.259 . S
O125 Tb120 2.374 . S
O125 C121 1.251 . S
C126 O130 1.275 . S
C126 O131 1.246 . S
O127 C121 1.263 . S
O127 Tb122 2.353 . S
C128 O132 1.245 . S
C128 O133 1.259 . S
C129 O134 1.250 . S
C129 O135 1.263 . S
O130 Tb122 2.427 . S
O130 C126 1.275 . S
O131 Tb122 2.513 . S
O131 C126 1.246 . S
O132 Tb122 2.453 . S
O132 C128 1.245 . S
O133 Tb120 2.343 . S
O133 Tb122 2.596 . S
O133 C128 1.259 . S
O134 Tb122 2.374 . S
O134 C129 1.250 . S
O135 Tb120 2.353 . S
O135 C129 1.263 . S
C136 O137 1.275 . S
C136 O138 1.246 . S
O137 Tb120 2.427 . S
O137 C136 1.275 . S
O138 Tb120 2.513 . S
O138 C136 1.246 . S
C139 O123 1.245 . S
C139 O124 1.259 . S
Tb140 O143 2.453 . S
Tb140 O144 2.596 . S
Tb140 O145 2.374 . S
Tb140 O153 2.343 . S
Tb140 O155 2.353 . S
Tb140 O157 2.427 . S
Tb140 O158 2.513 . S
C141 O145 1.251 . S
C141 O147 1.263 . S
Tb142 O144 2.343 . S
Tb142 O147 2.353 . S
Tb142 O150 2.427 . S
Tb142 O151 2.513 . S
Tb142 O152 2.453 . S
Tb142 O153 2.596 . S
Tb142 O154 2.374 . S
O143 Tb140 2.453 . S
O143 C159 1.245 . S
O144 Tb140 2.596 . S
O144 Tb142 2.343 . S
O144 C159 1.259 . S
O145 Tb140 2.374 . S
O145 C141 1.251 . S
C146 O150 1.275 . S
C146 O151 1.246 . S
O147 C141 1.263 . S
O147 Tb142 2.353 . S
C148 O152 1.245 . S
C148 O153 1.259 . S
C149 O154 1.250 . S
C149 O155 1.263 . S
O150 Tb142 2.427 . S
O150 C146 1.275 . S
O151 Tb142 2.513 . S
O151 C146 1.246 . S
O152 Tb142 2.453 . S
O152 C148 1.245 . S
O153 Tb140 2.343 . S
O153 Tb142 2.596 . S
O153 C148 1.259 . S
O154 Tb142 2.374 . S
O154 C149 1.250 . S
O155 Tb140 2.353 . S
O155 C149 1.263 . S
C156 O157 1.275 . S
C156 O158 1.246 . S
O157 Tb140 2.427 . S
O157 C156 1.275 . S
O158 Tb140 2.513 . S
O158 C156 1.246 . S
C159 O143 1.245 . S
C159 O144 1.259 . S
Tb160 O163 2.453 . S
Tb160 O164 2.596 . S
Tb160 O165 2.374 . S
Tb160 O173 2.343 . S
Tb160 O175 2.353 . S
Tb160 O177 2.427 . S
Tb160 O178 2.513 . S
C161 O165 1.251 . S
C161 O167 1.263 . S
Tb162 O164 2.343 . S
Tb162 O167 2.353 . S
Tb162 O170 2.427 . S
Tb162 O171 2.513 . S
Tb162 O172 2.453 . S
Tb162 O173 2.596 . S
Tb162 O174 2.374 . S
O163 Tb160 2.453 . S
O163 C179 1.245 . S
O164 Tb160 2.596 . S
O164 Tb162 2.343 . S
O164 C179 1.259 . S
O165 Tb160 2.374 . S
O165 C161 1.251 . S
C166 O170 1.275 . S
C166 O171 1.246 . S
O167 C161 1.263 . S
O167 Tb162 2.353 . S
C168 O172 1.245 . S
C168 O173 1.259 . S
C169 O174 1.250 . S
C169 O175 1.263 . S
O170 Tb162 2.427 . S
O170 C166 1.275 . S
O171 Tb162 2.513 . S
O171 C166 1.246 . S
O172 Tb162 2.453 . S
O172 C168 1.245 . S
O173 Tb160 2.343 . S
O173 Tb162 2.596 . S
O173 C168 1.259 . S
O174 Tb162 2.374 . S
O174 C169 1.250 . S
O175 Tb160 2.353 . S
O175 C169 1.263 . S
C176 O177 1.275 . S
C176 O178 1.246 . S
O177 Tb160 2.427 . S
O177 C176 1.275 . S
O178 Tb160 2.513 . S
O178 C176 1.246 . S
C179 O163 1.245 . S
C179 O164 1.259 . S
Tb180 O183 2.453 . S
Tb180 O184 2.596 1_545 S
Tb180 O185 2.374 . S
Tb180 O193 2.343 . S
Tb180 O195 2.353 . S
Tb180 O197 2.427 . S
Tb180 O198 2.513 . S
C181 O185 1.251 1_565 S
C181 O187 1.263 . S
Tb182 O184 2.343 . S
Tb182 O187 2.353 . S
Tb182 O190 2.427 . S
Tb182 O191 2.513 . S
Tb182 O192 2.453 . S
Tb182 O193 2.596 1_565 S
Tb182 O194 2.374 1_565 S
O183 Tb180 2.453 . S
O183 C199 1.245 . S
O184 Tb180 2.596 1_565 S
O184 Tb182 2.343 . S
O184 C199 1.259 1_565 S
O185 Tb180 2.374 . S
O185 C181 1.251 1_545 S
C186 O190 1.275 . S
C186 O191 1.246 . S
O187 C181 1.263 . S
O187 Tb182 2.353 . S
C188 O192 1.245 1_545 S
C188 O193 1.259 . S
C189 O194 1.250 . S
C189 O195 1.263 . S
O190 Tb182 2.427 . S
O190 C186 1.275 . S
O191 Tb182 2.513 . S
O191 C186 1.246 . S
O192 Tb182 2.453 . S
O192 C188 1.245 1_565 S
O193 Tb180 2.343 . S
O193 Tb182 2.596 1_545 S
O193 C188 1.259 . S
O194 Tb182 2.374 1_545 S
O194 C189 1.250 . S
O195 Tb180 2.353 . S
O195 C189 1.263 . S
C196 O197 1.275 . S
C196 O198 1.246 . S
O197 Tb180 2.427 . S
O197 C196 1.275 . S
O198 Tb180 2.513 . S
O198 C196 1.246 . S
C199 O183 1.245 . S
C199 O184 1.259 1_545 S
Tb200 O203 2.453 . S
Tb200 O204 2.596 . S
Tb200 O205 2.374 . S
Tb200 O213 2.343 . S
Tb200 O215 2.353 . S
Tb200 O217 2.427 . S
Tb200 O218 2.513 . S
C201 O205 1.251 . S
C201 O207 1.263 . S
Tb202 O204 2.343 . S
Tb202 O207 2.353 . S
Tb202 O210 2.427 . S
Tb202 O211 2.513 . S
Tb202 O212 2.453 . S
Tb202 O213 2.596 . S
Tb202 O214 2.374 . S
O203 Tb200 2.453 . S
O203 C219 1.245 . S
O204 Tb200 2.596 . S
O204 Tb202 2.343 . S
O204 C219 1.259 . S
O205 Tb200 2.374 . S
O205 C201 1.251 . S
C206 O210 1.275 . S
C206 O211 1.246 . S
O207 C201 1.263 . S
O207 Tb202 2.353 . S
C208 O212 1.245 . S
C208 O213 1.259 . S
C209 O214 1.250 . S
C209 O215 1.263 . S
O210 Tb202 2.427 . S
O210 C206 1.275 . S
O211 Tb202 2.513 . S
O211 C206 1.246 . S
O212 Tb202 2.453 . S
O212 C208 1.245 . S
O213 Tb200 2.343 . S
O213 Tb202 2.596 . S
O213 C208 1.259 . S
O214 Tb202 2.374 . S
O214 C209 1.250 . S
O215 Tb200 2.353 . S
O215 C209 1.263 . S
C216 O217 1.275 . S
C216 O218 1.246 . S
O217 Tb200 2.427 . S
O217 C216 1.275 . S
O218 Tb200 2.513 . S
O218 C216 1.246 . S
C219 O203 1.245 . S
C219 O204 1.259 . S
Tb220 O223 2.453 . S
Tb220 O224 2.596 1_565 S
Tb220 O225 2.374 . S
Tb220 O233 2.343 . S
Tb220 O235 2.353 . S
Tb220 O237 2.427 . S
Tb220 O238 2.513 . S
C221 O225 1.251 1_545 S
C221 O227 1.263 . S
Tb222 O224 2.343 . S
Tb222 O227 2.353 . S
Tb222 O230 2.427 . S
Tb222 O231 2.513 . S
Tb222 O232 2.453 . S
Tb222 O233 2.596 1_545 S
Tb222 O234 2.374 1_545 S
O223 Tb220 2.453 . S
O223 C239 1.245 . S
O224 Tb220 2.596 1_545 S
O224 Tb222 2.343 . S
O224 C239 1.259 1_545 S
O225 Tb220 2.374 . S
O225 C221 1.251 1_565 S
C226 O230 1.275 . S
C226 O231 1.246 . S
O227 C221 1.263 . S
O227 Tb222 2.353 . S
C228 O232 1.245 1_565 S
C228 O233 1.259 . S
C229 O234 1.250 . S
C229 O235 1.263 . S
O230 Tb222 2.427 . S
O230 C226 1.275 . S
O231 Tb222 2.513 . S
O231 C226 1.246 . S
O232 Tb222 2.453 . S
O232 C228 1.245 1_545 S
O233 Tb220 2.343 . S
O233 Tb222 2.596 1_565 S
O233 C228 1.259 . S
O234 Tb222 2.374 1_565 S
O234 C229 1.250 . S
O235 Tb220 2.353 . S
O235 C229 1.263 . S
C236 O237 1.275 . S
C236 O238 1.246 . S
O237 Tb220 2.427 . S
O237 C236 1.275 . S
O238 Tb220 2.513 . S
O238 C236 1.246 . S
C239 O223 1.245 . S
C239 O224 1.259 1_565 S
Tb240 O243 2.453 . S
Tb240 O244 2.596 . S
Tb240 O245 2.374 . S
Tb240 O253 2.343 . S
Tb240 O255 2.353 . S
Tb240 O257 2.427 . S
Tb240 O258 2.513 . S
C241 O245 1.251 . S
C241 O247 1.263 . S
Tb242 O244 2.343 . S
Tb242 O247 2.353 . S
Tb242 O250 2.427 . S
Tb242 O251 2.513 . S
Tb242 O252 2.453 . S
Tb242 O253 2.596 . S
Tb242 O254 2.374 . S
O243 Tb240 2.453 . S
O243 C259 1.245 . S
O244 Tb240 2.596 . S
O244 Tb242 2.343 . S
O244 C259 1.259 . S
O245 Tb240 2.374 . S
O245 C241 1.251 . S
C246 O250 1.275 . S
C246 O251 1.246 . S
O247 C241 1.263 . S
O247 Tb242 2.353 . S
C248 O252 1.245 . S
C248 O253 1.259 . S
C249 O254 1.250 . S
C249 O255 1.263 . S
O250 Tb242 2.427 . S
O250 C246 1.275 . S
O251 Tb242 2.513 . S
O251 C246 1.246 . S
O252 Tb242 2.453 . S
O252 C248 1.245 . S
O253 Tb240 2.343 . S
O253 Tb242 2.596 . S
O253 C248 1.259 . S
O254 Tb242 2.374 . S
O254 C249 1.250 . S
O255 Tb240 2.353 . S
O255 C249 1.263 . S
C256 O257 1.275 . S
C256 O258 1.246 . S
O257 Tb240 2.427 . S
O257 C256 1.275 . S
O258 Tb240 2.513 . S
O258 C256 1.246 . S
C259 O243 1.245 . S
C259 O244 1.259 . S
Tb260 O263 2.453 . S
Tb260 O264 2.596 1_545 S
Tb260 O265 2.374 1_545 S
Tb260 O273 2.343 . S
Tb260 O275 2.353 . S
Tb260 O277 2.427 . S
Tb260 O278 2.513 . S
C261 O265 1.251 . S
C261 O267 1.263 . S
Tb262 O264 2.343 . S
Tb262 O267 2.353 . S
Tb262 O270 2.427 . S
Tb262 O271 2.513 . S
Tb262 O272 2.453 . S
Tb262 O273 2.596 1_565 S
Tb262 O274 2.374 . S
O263 Tb260 2.453 . S
O263 C279 1.245 1_545 S
O264 Tb260 2.596 1_565 S
O264 Tb262 2.343 . S
O264 C279 1.259 . S
O265 Tb260 2.374 1_565 S
O265 C261 1.251 . S
C266 O270 1.275 . S
C266 O271 1.246 . S
O267 C261 1.263 . S
O267 Tb262 2.353 . S
C268 O272 1.245 . S
C268 O273 1.259 1_565 S
C269 O274 1.250 1_545 S
C269 O275 1.263 . S
O270 Tb262 2.427 . S
O270 C266 1.275 . S
O271 Tb262 2.513 . S
O271 C266 1.246 . S
O272 Tb262 2.453 . S
O272 C268 1.245 . S
O273 Tb260 2.343 . S
O273 Tb262 2.596 1_545 S
O273 C268 1.259 1_545 S
O274 Tb262 2.374 . S
O274 C269 1.250 1_565 S
O275 Tb260 2.353 . S
O275 C269 1.263 . S
C276 O277 1.275 . S
C276 O278 1.246 . S
O277 Tb260 2.427 . S
O277 C276 1.275 . S
O278 Tb260 2.513 . S
O278 C276 1.246 . S
C279 O263 1.245 1_565 S
C279 O264 1.259 . S
Tb280 O283 2.453 . S
Tb280 O284 2.596 . S
Tb280 O285 2.374 . S
Tb280 O293 2.343 . S
Tb280 O295 2.353 . S
Tb280 O297 2.427 . S
Tb280 O298 2.513 . S
C281 O285 1.251 . S
C281 O287 1.263 . S
Tb282 O284 2.343 . S
Tb282 O287 2.353 . S
Tb282 O290 2.427 . S
Tb282 O291 2.513 . S
Tb282 O292 2.453 . S
Tb282 O293 2.596 . S
Tb282 O294 2.374 . S
O283 Tb280 2.453 . S
O283 C299 1.245 . S
O284 Tb280 2.596 . S
O284 Tb282 2.343 . S
O284 C299 1.259 . S
O285 Tb280 2.374 . S
O285 C281 1.251 . S
C286 O290 1.275 . S
C286 O291 1.246 . S
O287 C281 1.263 . S
O287 Tb282 2.353 . S
C288 O292 1.245 . S
C288 O293 1.259 . S
C289 O294 1.250 . S
C289 O295 1.263 . S
O290 Tb282 2.427 . S
O290 C286 1.275 . S
O291 Tb282 2.513 . S
O291 C286 1.246 . S
O292 Tb282 2.453 . S
O292 C288 1.245 . S
O293 Tb280 2.343 . S
O293 Tb282 2.596 . S
O293 C288 1.259 . S
O294 Tb282 2.374 . S
O294 C289 1.250 . S
O295 Tb280 2.353 . S
O295 C289 1.263 . S
C296 O297 1.275 . S
C296 O298 1.246 . S
O297 Tb280 2.427 . S
O297 C296 1.275 . S
O298 Tb280 2.513 . S
O298 C296 1.246 . S
C299 O283 1.245 . S
C299 O284 1.259 . S
Tb300 O303 2.453 . S
Tb300 O304 2.596 1_565 S
Tb300 O305 2.374 1_565 S
Tb300 O313 2.343 . S
Tb300 O315 2.353 . S
Tb300 O317 2.427 . S
Tb300 O318 2.513 . S
C301 O305 1.251 . S
C301 O307 1.263 . S
Tb302 O304 2.343 . S
Tb302 O307 2.353 . S
Tb302 O310 2.427 . S
Tb302 O311 2.513 . S
Tb302 O312 2.453 . S
Tb302 O313 2.596 1_545 S
Tb302 O314 2.374 . S
O303 Tb300 2.453 . S
O303 C319 1.245 1_565 S
O304 Tb300 2.596 1_545 S
O304 Tb302 2.343 . S
O304 C319 1.259 . S
O305 Tb300 2.374 1_545 S
O305 C301 1.251 . S
C306 O310 1.275 . S
C306 O311 1.246 . S
O307 C301 1.263 . S
O307 Tb302 2.353 . S
C308 O312 1.245 . S
C308 O313 1.259 1_545 S
C309 O314 1.250 1_565 S
C309 O315 1.263 . S
O310 Tb302 2.427 . S
O310 C306 1.275 . S
O311 Tb302 2.513 . S
O311 C306 1.246 . S
O312 Tb302 2.453 . S
O312 C308 1.245 . S
O313 Tb300 2.343 . S
O313 Tb302 2.596 1_565 S
O313 C308 1.259 1_565 S
O314 Tb302 2.374 . S
O314 C309 1.250 1_545 S
O315 Tb300 2.353 . S
O315 C309 1.263 . S
C316 O317 1.275 . S
C316 O318 1.246 . S
O317 Tb300 2.427 . S
O317 C316 1.275 . S
O318 Tb300 2.513 . S
O318 C316 1.246 . S
C319 O303 1.245 1_545 S
C319 O304 1.259 . S
C320 C321 1.369 . S
C320 C322 1.419 . S
C320 H324 0.930 . S
C321 C320 1.369 . S
C321 C330 1.429 . S
C322 C320 1.419 . S
C322 C323 1.363 . S
C322 H325 0.929 . S
C323 C322 1.363 . S
C323 C329 1.428 . S
H324 C320 0.930 . S
H325 C322 0.929 . S
S326 N327 1.613 . S
S326 N328 1.610 . S
N327 S326 1.613 . S
N327 C330 1.350 . S
N328 S326 1.610 . S
N328 C329 1.351 . S
C329 C323 1.428 . S
C329 N328 1.351 . S
C329 C330 1.434 . S
C330 C321 1.429 . S
C330 N327 1.350 . S
C330 C329 1.434 . S
C331 C332 1.369 . S
C331 C333 1.419 . S
C331 H335 0.930 . S
C332 C331 1.369 . S
C332 C341 1.429 . S
C333 C331 1.419 . S
C333 C334 1.363 . S
C333 H336 0.929 . S
C334 C333 1.363 . S
C334 C340 1.428 . S
H335 C331 0.930 . S
H336 C333 0.929 . S
S337 N338 1.613 . S
S337 N339 1.610 . S
N338 S337 1.613 . S
N338 C341 1.350 . S
N339 S337 1.610 . S
N339 C340 1.351 . S
C340 C334 1.428 . S
C340 N339 1.351 . S
C340 C341 1.434 . S
C341 C332 1.429 . S
C341 N338 1.350 . S
C341 C340 1.434 . S
C342 C343 1.369 . S
C342 C344 1.419 . S
C342 H346 0.930 . S
C343 C342 1.369 . S
C343 C352 1.429 . S
C344 C342 1.419 . S
C344 C345 1.363 . S
C344 H347 0.929 . S
C345 C344 1.363 . S
C345 C351 1.428 . S
H346 C342 0.930 . S
H347 C344 0.929 . S
S348 N349 1.613 . S
S348 N350 1.610 . S
N349 S348 1.613 . S
N349 C352 1.350 . S
N350 S348 1.610 . S
N350 C351 1.351 . S
C351 C345 1.428 . S
C351 N350 1.351 . S
C351 C352 1.434 . S
C352 C343 1.429 . S
C352 N349 1.350 . S
C352 C351 1.434 . S
C353 C354 1.369 . S
C353 C355 1.408 1_556 S
C353 H357 0.930 . S
C354 C353 1.369 . S
C354 C363 1.425 1_656 S
C355 C353 1.408 1_554 S
C355 C356 1.374 1_655 S
C355 H358 0.930 . S
C356 C355 1.374 1_455 S
C356 C362 1.428 . S
H357 C353 0.930 . S
H358 C355 0.930 . S
S359 N360 1.613 . S
S359 N361 1.610 . S
N360 S359 1.613 . S
N360 C363 1.351 . S
N361 S359 1.610 . S
N361 C362 1.351 . S
C362 C356 1.428 . S
C362 N361 1.351 . S
C362 C363 1.438 . S
C363 C354 1.425 1_454 S
C363 N360 1.351 . S
C363 C362 1.438 . S
C364 C365 1.369 . S
C364 C366 1.419 . S
C364 H368 0.930 . S
C365 C364 1.369 . S
C365 C374 1.429 . S
C366 C364 1.419 . S
C366 C367 1.363 . S
C366 H369 0.929 . S
C367 C366 1.363 . S
C367 C373 1.428 . S
H368 C364 0.930 . S
H369 C366 0.929 . S
S370 N371 1.613 . S
S370 N372 1.610 . S
N371 S370 1.613 . S
N371 C374 1.350 . S
N372 S370 1.610 . S
N372 C373 1.351 . S
C373 C367 1.428 . S
C373 N372 1.351 . S
C373 C374 1.434 . S
C374 C365 1.429 . S
C374 N371 1.350 . S
C374 C373 1.434 . S
C375 C376 1.369 . S
C375 C377 1.419 . S
C375 H379 0.930 . S
C376 C375 1.369 . S
C376 C385 1.429 . S
C377 C375 1.419 . S
C377 C378 1.363 . S
C377 H380 0.929 . S
C378 C377 1.363 . S
C378 C384 1.428 . S
H379 C375 0.930 . S
H380 C377 0.929 . S
S381 N382 1.613 . S
S381 N383 1.610 . S
N382 S381 1.613 . S
N382 C385 1.350 . S
N383 S381 1.610 . S
N383 C384 1.351 . S
C384 C378 1.428 . S
C384 N383 1.351 . S
C384 C385 1.434 . S
C385 C376 1.429 . S
C385 N382 1.350 . S
C385 C384 1.434 . S
C386 C387 1.369 1_556 S
C386 C388 1.418 1_565 S
C386 H390 0.930 . S
C387 C386 1.369 1_554 S
C387 C396 1.411 1_655 S
C388 C386 1.418 1_545 S
C388 C389 1.364 1_655 S
C388 H391 0.929 . S
C389 C388 1.364 1_455 S
C389 C395 1.428 1_556 S
H390 C386 0.930 . S
H391 C388 0.929 . S
S392 N393 1.613 . S
S392 N394 1.610 1_565 S
N393 S392 1.613 . S
N393 C396 1.352 . S
N394 S392 1.610 1_545 S
N394 C395 1.351 . S
C395 C389 1.428 1_554 S
C395 N394 1.351 . S
C395 C396 1.451 1_545 S
C396 C387 1.411 1_455 S
C396 N393 1.352 . S
C396 C395 1.451 1_565 S
C397 C398 1.369 . S
C397 C399 1.419 . S
C397 H401 0.930 . S
C398 C397 1.369 . S
C398 C407 1.429 1_565 S
C399 C397 1.419 . S
C399 C400 1.363 1_565 S
C399 H402 0.929 . S
C400 C399 1.363 1_545 S
C400 C406 1.428 . S
H401 C397 0.930 . S
H402 C399 0.929 . S
S403 N404 1.613 . S
S403 N405 1.610 . S
N404 S403 1.613 . S
N404 C407 1.350 . S
N405 S403 1.610 . S
N405 C406 1.351 . S
C406 C400 1.428 . S
C406 N405 1.351 . S
C406 C407 1.434 . S
C407 C398 1.429 1_545 S
C407 N404 1.350 . S
C407 C406 1.434 . S
C408 C409 1.369 1_554 S
C408 C410 1.419 . S
C408 H412 0.930 . S
C409 C408 1.369 1_556 S
C409 C418 1.429 1_556 S
C410 C408 1.419 . S
C410 C411 1.363 . S
C410 H413 0.929 . S
C411 C410 1.363 . S
C411 C417 1.428 . S
H412 C408 0.930 . S
H413 C410 0.929 . S
S414 N415 1.613 1_554 S
S414 N416 1.610 . S
N415 S414 1.613 1_556 S
N415 C418 1.350 1_556 S
N416 S414 1.610 . S
N416 C417 1.351 . S
C417 C411 1.428 . S
C417 N416 1.351 . S
C417 C418 1.434 . S
C418 C409 1.429 1_554 S
C418 N415 1.350 1_554 S
C418 C417 1.434 . S
C419 C420 1.369 . S
C419 C421 1.419 . S
C419 H423 0.930 . S
C420 C419 1.369 . S
C420 C429 1.429 . S
C421 C419 1.419 . S
C421 C422 1.363 . S
C421 H424 0.929 . S
C422 C421 1.363 . S
C422 C428 1.428 . S
H423 C419 0.930 . S
H424 C421 0.929 . S
S425 N426 1.613 . S
S425 N427 1.610 . S
N426 S425 1.613 . S
N426 C429 1.350 . S
N427 S425 1.610 . S
N427 C428 1.351 . S
C428 C422 1.428 . S
C428 N427 1.351 . S
C428 C429 1.434 . S
C429 C420 1.429 . S
C429 N426 1.350 . S
C429 C428 1.434 . S
C430 C431 1.369 . S
C430 C432 1.419 . S
C430 H434 0.930 . S
C431 C430 1.369 . S
C431 C440 1.429 . S
C432 C430 1.419 . S
C432 C433 1.363 . S
C432 H435 0.929 . S
C433 C432 1.363 . S
C433 C439 1.428 . S
H434 C430 0.930 . S
H435 C432 0.929 . S
S436 N437 1.613 . S
S436 N438 1.610 . S
N437 S436 1.613 . S
N437 C440 1.350 . S
N438 S436 1.610 . S
N438 C439 1.351 . S
C439 C433 1.428 . S
C439 N438 1.351 . S
C439 C440 1.434 . S
C440 C431 1.429 . S
C440 N437 1.350 . S
C440 C439 1.434 . S
C441 C442 1.369 . S
C441 C443 1.419 . S
C441 H445 0.930 . S
C442 C441 1.369 . S
C442 C451 1.429 . S
C443 C441 1.419 . S
C443 C444 1.363 . S
C443 H446 0.929 . S
C444 C443 1.363 . S
C444 C450 1.428 . S
H445 C441 0.930 . S
H446 C443 0.929 . S
S447 N448 1.613 . S
S447 N449 1.610 . S
N448 S447 1.613 . S
N448 C451 1.350 . S
N449 S447 1.610 . S
N449 C450 1.351 . S
C450 C444 1.428 . S
C450 N449 1.351 . S
C450 C451 1.434 . S
C451 C442 1.429 . S
C451 N448 1.350 . S
C451 C450 1.434 . S
C452 C453 1.369 1_556 S
C452 C454 1.419 . S
C452 H456 0.930 . S
C453 C452 1.369 1_554 S
C453 C462 1.429 1_554 S
C454 C452 1.419 . S
C454 C455 1.363 . S
C454 H457 0.929 . S
C455 C454 1.363 . S
C455 C461 1.428 . S
H456 C452 0.930 . S
H457 C454 0.929 . S
S458 N459 1.626 . S
S458 N460 1.585 1_554 S
N459 S458 1.626 . S
N459 C462 1.350 1_554 S
N460 S458 1.585 1_556 S
N460 C461 1.351 . S
C461 C455 1.428 . S
C461 N460 1.351 . S
C461 C462 1.434 . S
C462 C453 1.429 1_556 S
C462 N459 1.350 1_556 S
C462 C461 1.434 . S
C463 C464 1.369 . S
C463 C465 1.419 . S
C463 H467 0.930 . S
C464 C463 1.369 . S
C464 C473 1.429 . S
C465 C463 1.419 . S
C465 C466 1.363 . S
C465 H468 0.929 . S
C466 C465 1.363 . S
C466 C472 1.428 . S
H467 C463 0.930 . S
H468 C465 0.929 . S
S469 N470 1.613 . S
S469 N471 1.610 . S
N470 S469 1.613 . S
N470 C473 1.350 . S
N471 S469 1.610 . S
N471 C472 1.351 . S
C472 C466 1.428 . S
C472 N471 1.351 . S
C472 C473 1.434 . S
C473 C464 1.429 . S
C473 N470 1.350 . S
C473 C472 1.434 . S
C474 C475 1.369 . S
C474 C476 1.419 . S
C474 H478 0.930 . S
C475 C474 1.369 . S
C475 C484 1.429 . S
C476 C474 1.419 . S
C476 C477 1.363 . S
C476 H479 0.929 . S
C477 C476 1.363 . S
C477 C483 1.428 . S
H478 C474 0.930 . S
H479 C476 0.929 . S
S480 N481 1.613 . S
S480 N482 1.610 . S
N481 S480 1.613 . S
N481 C484 1.350 . S
N482 S480 1.610 . S
N482 C483 1.351 . S
C483 C477 1.428 . S
C483 N482 1.351 . S
C483 C484 1.434 . S
C484 C475 1.429 . S
C484 N481 1.350 . S
C484 C483 1.434 . S
C485 C486 1.369 . S
C485 C487 1.419 . S
C485 H489 0.930 . S
C486 C485 1.369 . S
C486 C495 1.429 . S
C487 C485 1.419 . S
C487 C488 1.363 . S
C487 H490 0.929 . S
C488 C487 1.363 . S
C488 C494 1.428 . S
H489 C485 0.930 . S
H490 C487 0.929 . S
S491 N492 1.613 . S
S491 N493 1.610 . S
N492 S491 1.613 . S
N492 C495 1.350 . S
N493 S491 1.610 . S
N493 C494 1.351 . S
C494 C488 1.428 . S
C494 N493 1.351 . S
C494 C495 1.434 . S
C495 C486 1.429 . S
C495 N492 1.350 . S
C495 C494 1.434 . S
C496 C497 1.369 . S
C496 C498 1.419 . S
C496 H500 0.930 . S
C497 C496 1.369 . S
C497 C506 1.429 . S
C498 C496 1.419 . S
C498 C499 1.363 . S
C498 H501 0.929 . S
C499 C498 1.363 . S
C499 C505 1.428 . S
H500 C496 0.930 . S
H501 C498 0.929 . S
S502 N503 1.613 . S
S502 N504 1.610 . S
N503 S502 1.613 . S
N503 C506 1.350 . S
N504 S502 1.610 . S
N504 C505 1.351 . S
C505 C499 1.428 . S
C505 N504 1.351 . S
C505 C506 1.434 . S
C506 C497 1.429 . S
C506 N503 1.350 . S
C506 C505 1.434 . S
C507 C508 1.369 . S
C507 C509 1.419 . S
C507 H511 0.930 . S
C508 C507 1.369 . S
C508 C517 1.429 1_565 S
C509 C507 1.419 . S
C509 C510 1.363 . S
C509 H512 0.929 . S
C510 C509 1.363 . S
C510 C516 1.428 . S
H511 C507 0.930 . S
H512 C509 0.929 . S
S513 N514 1.613 . S
S513 N515 1.610 . S
N514 S513 1.613 . S
N514 C517 1.350 . S
N515 S513 1.610 . S
N515 C516 1.351 1_545 S
C516 C510 1.428 . S
C516 N515 1.351 1_565 S
C516 C517 1.434 1_565 S
C517 C508 1.429 1_545 S
C517 N514 1.350 . S
C517 C516 1.434 1_545 S
C518 C519 1.369 . S
C518 C520 1.419 . S
C518 H522 0.930 . S
C519 C518 1.369 . S
C519 C528 1.429 . S
C520 C518 1.419 . S
C520 C521 1.363 1_554 S
C520 H523 0.929 1_554 S
C521 C520 1.363 1_556 S
C521 C527 1.428 1_556 S
H522 C518 0.930 . S
H523 C520 0.929 1_556 S
S524 N525 1.613 . S
S524 N526 1.610 . S
N525 S524 1.613 . S
N525 C528 1.350 . S
N526 S524 1.610 . S
N526 C527 1.351 . S
C527 C521 1.428 1_554 S
C527 N526 1.351 . S
C527 C528 1.434 . S
C528 C519 1.429 . S
C528 N525 1.350 . S
C528 C527 1.434 . S
C529 C530 1.369 . S
C529 C531 1.419 . S
C529 H533 0.930 . S
C530 C529 1.369 . S
C530 C539 1.429 . S
C531 C529 1.419 . S
C531 C532 1.363 . S
C531 H534 0.929 1_545 S
C532 C531 1.363 . S
C532 C538 1.428 . S
H533 C529 0.930 . S
H534 C531 0.929 1_565 S
S535 N536 1.613 . S
S535 N537 1.610 . S
N536 S535 1.613 . S
N536 C539 1.350 . S
N537 S535 1.610 . S
N537 C538 1.351 . S
C538 C532 1.428 . S
C538 N537 1.351 . S
C538 C539 1.434 . S
C539 C530 1.429 . S
C539 N536 1.350 . S
C539 C538 1.434 . S
C540 C541 1.369 . S
C540 C542 1.419 . S
C540 H544 0.930 . S
C541 C540 1.369 . S
C541 C550 1.429 . S
C542 C540 1.419 . S
C542 C543 1.363 . S
C542 H545 0.929 . S
C543 C542 1.363 . S
C543 C549 1.428 . S
H544 C540 0.930 . S
H545 C542 0.929 . S
S546 N547 1.613 . S
S546 N548 1.610 . S
N547 S546 1.613 . S
N547 C550 1.350 . S
N548 S546 1.610 . S
N548 C549 1.351 . S
C549 C543 1.428 . S
C549 N548 1.351 . S
C549 C550 1.434 . S
C550 C541 1.429 . S
C550 N547 1.350 . S
C550 C549 1.434 . S
C551 C552 1.369 . S
C551 C553 1.419 . S
C551 H555 0.930 . S
C552 C551 1.369 . S
C552 C561 1.429 1_545 S
C553 C551 1.419 . S
C553 C554 1.363 . S
C553 H556 0.929 . S
C554 C553 1.363 . S
C554 C560 1.428 . S
H555 C551 0.930 . S
H556 C553 0.929 . S
S557 N558 1.613 . S
S557 N559 1.610 . S
N558 S557 1.613 . S
N558 C561 1.350 . S
N559 S557 1.610 . S
N559 C560 1.351 1_565 S
C560 C554 1.428 . S
C560 N559 1.351 1_545 S
C560 C561 1.434 1_545 S
C561 C552 1.429 1_565 S
C561 N558 1.350 . S
C561 C560 1.434 1_565 S
C562 C563 1.369 1_556 S
C562 C564 1.419 . S
C562 H566 0.930 1_556 S
C563 C562 1.369 1_554 S
C563 C572 1.429 1_554 S
C564 C562 1.419 . S
C564 C565 1.363 . S
C564 H567 0.929 . S
C565 C564 1.363 . S
C565 C571 1.428 . S
H566 C562 0.930 1_554 S
H567 C564 0.929 . S
S568 N569 1.613 . S
S568 N570 1.610 . S
N569 S568 1.613 . S
N569 C572 1.350 . S
N570 S568 1.610 . S
N570 C571 1.351 . S
C571 C565 1.428 . S
C571 N570 1.351 . S
C571 C572 1.434 . S
C572 C563 1.429 1_556 S
C572 N569 1.350 . S
C572 C571 1.434 . S
C573 C574 1.369 . S
C573 C575 1.419 . S
C573 H577 0.930 . S
C574 C573 1.369 . S
C574 C583 1.429 . S
C575 C573 1.419 . S
C575 C576 1.363 . S
C575 H578 0.929 . S
C576 C575 1.363 . S
C576 C582 1.428 . S
H577 C573 0.930 . S
H578 C575 0.929 . S
S579 N580 1.613 . S
S579 N581 1.610 . S
N580 S579 1.613 . S
N580 C583 1.350 . S
N581 S579 1.610 . S
N581 C582 1.351 . S
C582 C576 1.428 . S
C582 N581 1.351 . S
C582 C583 1.434 . S
C583 C574 1.429 . S
C583 N580 1.350 . S
C583 C582 1.434 . S
C584 C585 1.369 . S
C584 C586 1.419 . S
C584 H588 0.930 . S
C585 C584 1.369 . S
C585 C594 1.429 . S
C586 C584 1.419 . S
C586 C587 1.363 . S
C586 H589 0.929 . S
C587 C586 1.363 . S
C587 C593 1.428 . S
H588 C584 0.930 . S
H589 C586 0.929 . S
S590 N591 1.613 . S
S590 N592 1.610 . S
N591 S590 1.613 . S
N591 C594 1.350 . S
N592 S590 1.610 . S
N592 C593 1.351 . S
C593 C587 1.428 . S
C593 N592 1.351 . S
C593 C594 1.434 . S
C594 C585 1.429 . S
C594 N591 1.350 . S
C594 C593 1.434 . S
C595 C596 1.369 . S
C595 C597 1.419 . S
C595 H599 0.930 . S
C596 C595 1.369 . S
C596 C605 1.429 . S
C597 C595 1.419 . S
C597 C598 1.363 . S
C597 H600 0.929 . S
C598 C597 1.363 . S
C598 C604 1.428 . S
H599 C595 0.930 . S
H600 C597 0.929 . S
S601 N602 1.613 . S
S601 N603 1.610 . S
N602 S601 1.613 . S
N602 C605 1.350 . S
N603 S601 1.610 . S
N603 C604 1.351 . S
C604 C598 1.428 . S
C604 N603 1.351 . S
C604 C605 1.434 . S
C605 C596 1.429 . S
C605 N602 1.350 . S
C605 C604 1.434 . S
C606 C607 1.369 . S
C606 C608 1.419 1_655 S
C606 H610 0.930 . S
C607 C606 1.369 . S
C607 C616 1.429 . S
C608 C606 1.419 1_455 S
C608 C609 1.363 . S
C608 H611 0.929 . S
C609 C608 1.363 . S
C609 C615 1.428 . S
H610 C606 0.930 . S
H611 C608 0.929 . S
S612 N613 1.613 1_455 S
S612 N614 1.610 . S
N613 S612 1.613 1_655 S
N613 C616 1.350 . S
N614 S612 1.610 . S
N614 C615 1.351 . S
C615 C609 1.428 . S
C615 N614 1.351 . S
C615 C616 1.434 1_455 S
C616 C607 1.429 . S
C616 N613 1.350 . S
C616 C615 1.434 1_655 S
C617 C618 1.369 1_455 S
C617 C619 1.419 . S
C617 H621 0.930 . S
C618 C617 1.369 1_655 S
C618 C627 1.429 . S
C619 C617 1.419 . S
C619 C620 1.363 . S
C619 H622 0.929 . S
C620 C619 1.363 . S
C620 C626 1.428 1_455 S
H621 C617 0.930 . S
H622 C619 0.929 . S
S623 N624 1.613 . S
S623 N625 1.610 . S
N624 S623 1.613 . S
N624 C627 1.350 . S
N625 S623 1.610 . S
N625 C626 1.351 . S
C626 C620 1.428 1_655 S
C626 N625 1.351 . S
C626 C627 1.434 . S
C627 C618 1.429 . S
C627 N624 1.350 . S
C627 C626 1.434 . S
C628 C629 1.369 . S
C628 C630 1.419 . S
C628 H632 0.930 . S
C629 C628 1.369 . S
C629 C638 1.429 . S
C630 C628 1.419 . S
C630 C631 1.363 . S
C630 H633 0.929 . S
C631 C630 1.363 . S
C631 C637 1.428 . S
H632 C628 0.930 . S
H633 C630 0.929 . S
S634 N635 1.613 . S
S634 N636 1.610 . S
N635 S634 1.613 . S
N635 C638 1.350 . S
N636 S634 1.610 . S
N636 C637 1.351 . S
C637 C631 1.428 . S
C637 N636 1.351 . S
C637 C638 1.434 . S
C638 C629 1.429 . S
C638 N635 1.350 . S
C638 C637 1.434 . S
C639 C640 1.369 . S
C639 C641 1.419 . S
C639 H643 0.930 . S
C640 C639 1.369 . S
C640 C649 1.429 . S
C641 C639 1.419 . S
C641 C642 1.363 . S
C641 H644 0.929 . S
C642 C641 1.363 . S
C642 C648 1.428 . S
H643 C639 0.930 . S
H644 C641 0.929 . S
S645 N646 1.613 . S
S645 N647 1.610 . S
N646 S645 1.613 . S
N646 C649 1.350 . S
N647 S645 1.610 . S
N647 C648 1.351 . S
C648 C642 1.428 . S
C648 N647 1.351 . S
C648 C649 1.434 . S
C649 C640 1.429 . S
C649 N646 1.350 . S
C649 C648 1.434 . S
C650 C651 1.369 . S
C650 C652 1.419 1_455 S
C650 H654 0.930 . S
C651 C650 1.369 . S
C651 C660 1.429 . S
C652 C650 1.419 1_655 S
C652 C653 1.363 . S
C652 H655 0.929 . S
C653 C652 1.363 . S
C653 C659 1.428 . S
H654 C650 0.930 . S
H655 C652 0.929 . S
S656 N657 1.613 . S
S656 N658 1.610 1_455 S
N657 S656 1.613 . S
N657 C660 1.350 . S
N658 S656 1.610 1_655 S
N658 C659 1.351 . S
C659 C653 1.428 . S
C659 N658 1.351 . S
C659 C660 1.434 1_655 S
C660 C651 1.429 . S
C660 N657 1.350 . S
C660 C659 1.434 1_455 S
C661 C662 1.369 1_655 S
C661 C663 1.419 . S
C661 H665 0.930 . S
C662 C661 1.369 1_455 S
C662 C671 1.429 . S
C663 C661 1.419 . S
C663 C664 1.363 . S
C663 H666 0.929 . S
C664 C663 1.363 . S
C664 C670 1.428 1_655 S
H665 C661 0.930 . S
H666 C663 0.929 . S
S667 N668 1.613 . S
S667 N669 1.610 . S
N668 S667 1.613 . S
N668 C671 1.350 . S
N669 S667 1.610 . S
N669 C670 1.351 . S
C670 C664 1.428 1_455 S
C670 N669 1.351 . S
C670 C671 1.434 . S
C671 C662 1.429 . S
C671 N668 1.350 . S
C671 C670 1.434 . S
C672 C673 1.369 . S
C672 C674 1.419 . S
C672 H676 0.930 . S
C673 C672 1.369 . S
C673 C682 1.429 . S
C674 C672 1.419 . S
C674 C675 1.363 . S
C674 H677 0.929 . S
C675 C674 1.363 . S
C675 C681 1.428 . S
H676 C672 0.930 . S
H677 C674 0.929 . S
S678 N679 1.613 . S
S678 N680 1.610 . S
N679 S678 1.613 . S
N679 C682 1.350 . S
N680 S678 1.610 . S
N680 C681 1.351 . S
C681 C675 1.428 . S
C681 N680 1.351 . S
C681 C682 1.434 . S
C682 C673 1.429 . S
C682 N679 1.350 . S
C682 C681 1.434 . S
C683 C684 1.369 . S
C683 C685 1.419 . S
C683 H687 0.930 . S
C684 C683 1.369 . S
C684 C693 1.429 . S
C685 C683 1.419 . S
C685 C686 1.363 . S
C685 H688 0.929 . S
C686 C685 1.363 . S
C686 C692 1.428 . S
H687 C683 0.930 . S
H688 C685 0.929 . S
S689 N690 1.613 . S
S689 N691 1.610 . S
N690 S689 1.613 . S
N690 C693 1.350 . S
N691 S689 1.610 . S
N691 C692 1.351 . S
C692 C686 1.428 . S
C692 N691 1.351 . S
C692 C693 1.434 . S
C693 C684 1.429 . S
C693 N690 1.350 . S
C693 C692 1.434 . S
C694 C695 1.369 . S
C694 C696 1.419 . S
C694 H698 0.930 . S
C695 C694 1.369 . S
C695 C704 1.429 . S
C696 C694 1.419 . S
C696 C697 1.363 . S
C696 H699 0.929 . S
C697 C696 1.363 . S
C697 C703 1.428 . S
H698 C694 0.930 . S
H699 C696 0.929 . S
S700 N701 1.613 . S
S700 N702 1.610 . S
N701 S700 1.613 . S
N701 C704 1.350 . S
N702 S700 1.610 . S
N702 C703 1.351 . S
C703 C697 1.428 . S
C703 N702 1.351 . S
C703 C704 1.434 . S
C704 C695 1.429 . S
C704 N701 1.350 . S
C704 C703 1.434 . S
C705 C706 1.369 . S
C705 C707 1.419 . S
C705 H709 0.930 1_455 S
C706 C705 1.369 . S
C706 C715 1.429 . S
C707 C705 1.419 . S
C707 C708 1.363 . S
C707 H710 0.929 . S
C708 C707 1.363 . S
C708 C714 1.428 . S
H709 C705 0.930 1_655 S
H710 C707 0.929 . S
S711 N712 1.613 . S
S711 N713 1.610 . S
N712 S711 1.613 . S
N712 C715 1.350 . S
N713 S711 1.610 . S
N713 C714 1.351 . S
C714 C708 1.428 . S
C714 N713 1.351 . S
C714 C715 1.434 . S
C715 C706 1.429 . S
C715 N712 1.350 . S
C715 C714 1.434 . S
C716 C717 1.369 . S
C716 C718 1.419 . S
C716 H720 0.930 . S
C717 C716 1.369 . S
C717 C726 1.429 . S
C718 C716 1.419 . S
C718 C719 1.363 . S
C718 H721 0.929 . S
C719 C718 1.363 . S
C719 C725 1.428 . S
H720 C716 0.930 . S
H721 C718 0.929 . S
S722 N723 1.613 . S
S722 N724 1.610 . S
N723 S722 1.613 . S
N723 C726 1.350 . S
N724 S722 1.610 . S
N724 C725 1.351 . S
C725 C719 1.428 . S
C725 N724 1.351 . S
C725 C726 1.434 . S
C726 C717 1.429 . S
C726 N723 1.350 . S
C726 C725 1.434 . S
C727 C728 1.369 . S
C727 C729 1.419 . S
C727 H731 0.930 . S
C728 C727 1.369 . S
C728 C737 1.429 . S
C729 C727 1.419 . S
C729 C730 1.363 . S
C729 H732 0.929 . S
C730 C729 1.363 . S
C730 C736 1.428 . S
H731 C727 0.930 . S
H732 C729 0.929 . S
S733 N734 1.613 . S
S733 N735 1.610 . S
N734 S733 1.613 . S
N734 C737 1.350 . S
N735 S733 1.610 . S
N735 C736 1.351 . S
C736 C730 1.428 . S
C736 N735 1.351 . S
C736 C737 1.434 . S
C737 C728 1.429 . S
C737 N734 1.350 . S
C737 C736 1.434 . S
C738 C739 1.369 . S
C738 C740 1.419 . S
C738 H742 0.930 . S
C739 C738 1.369 . S
C739 C748 1.429 . S
C740 C738 1.419 . S
C740 C741 1.363 . S
C740 H743 0.929 . S
C741 C740 1.363 . S
C741 C747 1.428 . S
H742 C738 0.930 . S
H743 C740 0.929 . S
S744 N745 1.613 . S
S744 N746 1.610 . S
N745 S744 1.613 . S
N745 C748 1.350 . S
N746 S744 1.610 . S
N746 C747 1.351 . S
C747 C741 1.428 . S
C747 N746 1.351 . S
C747 C748 1.434 . S
C748 C739 1.429 . S
C748 N745 1.350 . S
C748 C747 1.434 . S
C749 C750 1.369 . S
C749 C751 1.419 . S
C749 H753 0.930 . S
C750 C749 1.369 . S
C750 C759 1.429 . S
C751 C749 1.419 . S
C751 C752 1.363 . S
C751 H754 0.929 . S
C752 C751 1.363 . S
C752 C758 1.428 . S
H753 C749 0.930 . S
H754 C751 0.929 . S
S755 N756 1.613 . S
S755 N757 1.610 1_655 S
N756 S755 1.613 . S
N756 C759 1.350 . S
N757 S755 1.610 1_455 S
N757 C758 1.351 1_455 S
C758 C752 1.428 . S
C758 N757 1.351 1_655 S
C758 C759 1.434 . S
C759 C750 1.429 . S
C759 N756 1.350 . S
C759 C758 1.434 . S
C760 C761 1.369 . S
C760 C762 1.419 . S
C760 H764 0.930 . S
C761 C760 1.369 . S
C761 C770 1.429 . S
C762 C760 1.419 . S
C762 C763 1.363 . S
C762 H765 0.929 . S
C763 C762 1.363 . S
C763 C769 1.428 . S
H764 C760 0.930 . S
H765 C762 0.929 . S
S766 N767 1.613 . S
S766 N768 1.610 . S
N767 S766 1.613 . S
N767 C770 1.350 . S
N768 S766 1.610 . S
N768 C769 1.351 . S
C769 C763 1.428 . S
C769 N768 1.351 . S
C769 C770 1.434 . S
C770 C761 1.429 . S
C770 N767 1.350 . S
C770 C769 1.434 . S
C771 C772 1.369 . S
C771 C773 1.419 . S
C771 H775 0.947 . S
C772 C771 1.369 . S
C772 C781 1.429 . S
C773 C771 1.419 . S
C773 C774 1.363 . S
C773 H776 0.929 1_565 S
C774 C773 1.363 . S
C774 C780 1.428 . S
H775 C771 0.947 . S
H776 C773 0.929 1_545 S
S777 N778 1.613 . S
S777 N779 1.610 1_655 S
N778 S777 1.613 . S
N778 C781 1.350 . S
N779 S777 1.610 1_455 S
N779 C780 1.351 1_455 S
C780 C774 1.428 . S
C780 N779 1.351 1_655 S
C780 C781 1.434 . S
C781 C772 1.429 . S
C781 N778 1.350 . S
C781 C780 1.434 . S
C782 C783 1.369 . S
C782 C784 1.419 . S
C782 H786 0.930 . S
C783 C782 1.369 . S
C783 C792 1.429 . S
C784 C782 1.419 . S
C784 C785 1.363 . S
C784 H787 0.929 . S
C785 C784 1.363 . S
C785 C791 1.428 . S
H786 C782 0.930 . S
H787 C784 0.929 . S
S788 N789 1.613 . S
S788 N790 1.610 . S
N789 S788 1.613 . S
N789 C792 1.350 . S
N790 S788 1.610 . S
N790 C791 1.351 . S
C791 C785 1.428 . S
C791 N790 1.351 . S
C791 C792 1.434 . S
C792 C783 1.429 . S
C792 N789 1.350 . S
C792 C791 1.434 . S
C793 C794 1.369 . S
C793 C795 1.419 . S
C793 H797 0.928 1_545 S
C794 C793 1.369 . S
C794 C803 1.429 . S
C795 C793 1.419 . S
C795 C796 1.363 . S
C795 H798 0.929 . S
C796 C795 1.363 . S
C796 C802 1.428 . S
H797 C793 0.928 1_565 S
H798 C795 0.929 . S
S799 N800 1.613 . S
S799 N801 1.610 . S
N800 S799 1.613 . S
N800 C803 1.350 . S
N801 S799 1.610 . S
N801 C802 1.351 . S
C802 C796 1.428 . S
C802 N801 1.351 . S
C802 C803 1.434 . S
C803 C794 1.429 . S
C803 N800 1.350 . S
C803 C802 1.434 . S
C804 C805 1.369 . S
C804 C806 1.419 . S
C804 H808 0.930 . S
C805 C804 1.369 . S
C805 C814 1.429 . S
C806 C804 1.419 . S
C806 C807 1.363 . S
C806 H809 0.929 . S
C807 C806 1.363 . S
C807 C813 1.428 . S
H808 C804 0.930 . S
H809 C806 0.929 . S
S810 N811 1.613 . S
S810 N812 1.610 . S
N811 S810 1.613 . S
N811 C814 1.350 . S
N812 S810 1.610 . S
N812 C813 1.351 . S
C813 C807 1.428 . S
C813 N812 1.351 . S
C813 C814 1.434 . S
C814 C805 1.429 . S
C814 N811 1.350 . S
C814 C813 1.434 . S
C815 C816 1.369 . S
C815 C817 1.419 . S
C815 H819 0.930 1_455 S
C816 C815 1.369 . S
C816 C825 1.429 . S
C817 C815 1.419 . S
C817 C818 1.363 . S
C817 H820 0.929 . S
C818 C817 1.363 . S
C818 C824 1.428 . S
H819 C815 0.930 1_655 S
H820 C817 0.929 . S
S821 N822 1.613 . S
S821 N823 1.610 . S
N822 S821 1.613 . S
N822 C825 1.350 1_565 S
N823 S821 1.610 . S
N823 C824 1.351 1_565 S
C824 C818 1.428 . S
C824 N823 1.351 1_545 S
C824 C825 1.434 . S
C825 C816 1.429 . S
C825 N822 1.350 1_545 S
C825 C824 1.434 . S
C826 C827 1.369 . S
C826 C828 1.419 . S
C826 H830 0.930 . S
C827 C826 1.369 . S
C827 C836 1.429 . S
C828 C826 1.419 . S
C828 C829 1.363 . S
C828 H831 0.929 . S
C829 C828 1.363 . S
C829 C835 1.428 . S
H830 C826 0.930 . S
H831 C828 0.929 . S
S832 N833 1.613 . S
S832 N834 1.610 . S
N833 S832 1.613 . S
N833 C836 1.350 . S
N834 S832 1.610 . S
N834 C835 1.351 . S
C835 C829 1.428 . S
C835 N834 1.351 . S
C835 C836 1.434 . S
C836 C827 1.429 . S
C836 N833 1.350 . S
C836 C835 1.434 . S
C837 C838 1.369 . S
C837 C839 1.419 . S
C837 H841 0.930 . S
C838 C837 1.369 . S
C838 C847 1.429 . S
C839 C837 1.419 . S
C839 C840 1.363 . S
C839 H842 0.929 . S
C840 C839 1.363 . S
C840 C846 1.428 . S
H841 C837 0.930 . S
H842 C839 0.929 . S
S843 N844 1.613 . S
S843 N845 1.610 . S
N844 S843 1.613 . S
N844 C847 1.350 . S
N845 S843 1.610 . S
N845 C846 1.351 . S
C846 C840 1.428 . S
C846 N845 1.351 . S
C846 C847 1.434 . S
C847 C838 1.429 . S
C847 N844 1.350 . S
C847 C846 1.434 . S
C321 C8 0.881 . S
C323 C259 0.855 . S
C332 C119 0.882 . S
C334 C28 0.855 . S
C343 C48 0.877 . S
C345 C299 0.858 . S
C354 C68 0.882 . S
C356 C159 0.855 . S
C365 C99 0.855 . S
C367 C168 0.876 . S
C376 C208 0.860 . S
C378 C139 0.872 . S
C387 C279 0.856 . S
C389 C188 0.874 . S
C398 C228 0.854 . S
C400 C319 0.876 . S
C409 C189 1.883 . S
C411 C19 1.841 . S
C420 C39 1.840 . S
C422 C209 1.882 . S
C431 C59 1.840 . S
C433 C229 1.883 . S
C442 C169 1.882 . S
C444 C79 1.841 . S
C453 C261 1.883 . S
C455 C88 1.841 . S
C464 C281 1.883 . S
C466 C108 1.841 . S
C475 C128 1.843 . S
C477 C301 1.882 . S
C486 C241 1.880 . S
C488 C148 1.844 . S
C497 C179 1.840 . S
C499 C29 1.882 . S
C508 C199 1.840 1_565 S
C510 C49 1.883 . S
C519 C219 1.844 . S
C521 C69 1.880 . S
C530 C9 1.879 . S
C532 C239 1.846 1_545 S
C541 C101 1.883 . S
C543 C248 1.842 . S
C552 C268 1.840 1_545 S
C554 C121 1.882 . S
C563 C141 1.881 . S
C565 C288 1.843 . S
C574 C308 1.846 1_565 S
C576 C81 1.880 . S
C585 C16 1.922 . S
C587 C216 1.919 . S
C596 C36 1.924 . S
C598 C236 1.924 . S
C607 C176 1.917 . S
C609 C56 1.920 . S
C618 C76 1.918 . S
C620 C196 1.922 . S
C629 C86 1.918 . S
C631 C286 1.922 . S
C640 C106 1.918 . S
C642 C306 1.919 . S
C651 C246 1.925 . S
C653 C126 1.921 . S
C662 C146 1.918 . S
C664 C266 1.919 . S
C673 C1 1.205 . S
C675 C156 1.273 . S
C684 C256 1.273 . S
C686 C21 1.202 . S
C695 C41 1.204 . S
C697 C116 1.273 . S
C706 C61 1.192 1_455 S
C708 C296 1.279 . S
C717 C89 1.192 . S
C719 C66 1.280 . S
C728 C166 1.273 . S
C730 C109 1.200 . S
C739 C129 1.203 . S
C741 C26 1.275 . S
C750 C206 1.271 . S
C752 C149 1.204 1_655 S
C761 C161 1.200 . S
C763 C316 1.275 . S
C772 C96 1.274 . S
C774 C181 1.201 1_655 S
C783 C276 1.271 . S
C785 C201 1.205 . S
C794 C221 1.208 . S
C796 C136 1.272 . S
C805 C249 1.193 . S
C807 C226 1.280 . S
C816 C269 1.203 1_455 S
C818 C6 1.275 . S
C827 C186 1.281 . S
C829 C289 1.194 . S
C838 C46 1.276 . S
C840 C309 1.197 . S
