# Generated by pormake.
# Topology uoe, (4)-cn, num edge types: 1
# Building blocks:
#     Node 0, Type 0, BuildingBlock: CEKHIL_clean_sbu_0, # of connection points: 4
#     Node 1, Type 0, BuildingBlock: CEKHIL_clean_sbu_0, # of connection points: 4
#     Node 2, Type 0, BuildingBlock: CEKHIL_clean_sbu_0, # of connection points: 4
#     Node 3, Type 0, BuildingBlock: CEKHIL_clean_sbu_0, # of connection points: 4
#     Node 4, Type 0, BuildingBlock: CEKHIL_clean_sbu_0, # of connection points: 4
#     Node 5, Type 0, BuildingBlock: CEKHIL_clean_sbu_0, # of connection points: 4
#     Node 6, Type 0, BuildingBlock: CEKHIL_clean_sbu_0, # of connection points: 4
#     Node 7, Type 0, BuildingBlock: CEKHIL_clean_sbu_0, # of connection points: 4
#     Node 8, Type 0, BuildingBlock: CEKHIL_clean_sbu_0, # of connection points: 4
#     Node 9, Type 0, BuildingBlock: CEKHIL_clean_sbu_0, # of connection points: 4
#     Node 10, Type 0, BuildingBlock: CEKHIL_clean_sbu_0, # of connection points: 4
#     Node 11, Type 0, BuildingBlock: CEKHIL_clean_sbu_0, # of connection points: 4
#     Node 12, Type 0, BuildingBlock: CEKHIL_clean_sbu_0, # of connection points: 4
#     Node 13, Type 0, BuildingBlock: CEKHIL_clean_sbu_0, # of connection points: 4
#     Node 14, Type 0, BuildingBlock: CEKHIL_clean_sbu_0, # of connection points: 4
#     Node 15, Type 0, BuildingBlock: CEKHIL_clean_sbu_0, # of connection points: 4
#     Node 16, Type 0, BuildingBlock: CEKHIL_clean_sbu_0, # of connection points: 4
#     Node 17, Type 0, BuildingBlock: CEKHIL_clean_sbu_0, # of connection points: 4
#     Node 18, Type 0, BuildingBlock: CEKHIL_clean_sbu_0, # of connection points: 4
#     Node 19, Type 0, BuildingBlock: CEKHIL_clean_sbu_0, # of connection points: 4
#     Node 20, Type 0, BuildingBlock: CEKHIL_clean_sbu_0, # of connection points: 4
#     Node 21, Type 0, BuildingBlock: CEKHIL_clean_sbu_0, # of connection points: 4
#     Node 22, Type 0, BuildingBlock: CEKHIL_clean_sbu_0, # of connection points: 4
#     Node 23, Type 0, BuildingBlock: CEKHIL_clean_sbu_0, # of connection points: 4
#     Node 24, Type 0, BuildingBlock: CEKHIL_clean_sbu_0, # of connection points: 4
#     Node 25, Type 0, BuildingBlock: CEKHIL_clean_sbu_0, # of connection points: 4
#     Node 26, Type 0, BuildingBlock: CEKHIL_clean_sbu_0, # of connection points: 4
#     Node 27, Type 0, BuildingBlock: CEKHIL_clean_sbu_0, # of connection points: 4
#     Node 28, Type 0, BuildingBlock: CEKHIL_clean_sbu_0, # of connection points: 4
#     Node 29, Type 0, BuildingBlock: CEKHIL_clean_sbu_0, # of connection points: 4
#     Node 30, Type 0, BuildingBlock: CEKHIL_clean_sbu_0, # of connection points: 4
#     Node 31, Type 0, BuildingBlock: CEKHIL_clean_sbu_0, # of connection points: 4
#     Edge 32, Type (0, 0), BuildingBlock: EZIPEK_clean_linker_0, # of connection points: 2
#     Edge 33, Type (0, 0), BuildingBlock: EZIPEK_clean_linker_0, # of connection points: 2
#     Edge 34, Type (0, 0), BuildingBlock: EZIPEK_clean_linker_0, # of connection points: 2
#     Edge 35, Type (0, 0), BuildingBlock: EZIPEK_clean_linker_0, # of connection points: 2
#     Edge 36, Type (0, 0), BuildingBlock: EZIPEK_clean_linker_0, # of connection points: 2
#     Edge 37, Type (0, 0), BuildingBlock: EZIPEK_clean_linker_0, # of connection points: 2
#     Edge 38, Type (0, 0), BuildingBlock: EZIPEK_clean_linker_0, # of connection points: 2
#     Edge 39, Type (0, 0), BuildingBlock: EZIPEK_clean_linker_0, # of connection points: 2
#     Edge 40, Type (0, 0), BuildingBlock: EZIPEK_clean_linker_0, # of connection points: 2
#     Edge 41, Type (0, 0), BuildingBlock: EZIPEK_clean_linker_0, # of connection points: 2
#     Edge 42, Type (0, 0), BuildingBlock: EZIPEK_clean_linker_0, # of connection points: 2
#     Edge 43, Type (0, 0), BuildingBlock: EZIPEK_clean_linker_0, # of connection points: 2
#     Edge 44, Type (0, 0), BuildingBlock: EZIPEK_clean_linker_0, # of connection points: 2
#     Edge 45, Type (0, 0), BuildingBlock: EZIPEK_clean_linker_0, # of connection points: 2
#     Edge 46, Type (0, 0), BuildingBlock: EZIPEK_clean_linker_0, # of connection points: 2
#     Edge 47, Type (0, 0), BuildingBlock: EZIPEK_clean_linker_0, # of connection points: 2
#     Edge 48, Type (0, 0), BuildingBlock: EZIPEK_clean_linker_0, # of connection points: 2
#     Edge 49, Type (0, 0), BuildingBlock: EZIPEK_clean_linker_0, # of connection points: 2
#     Edge 50, Type (0, 0), BuildingBlock: EZIPEK_clean_linker_0, # of connection points: 2
#     Edge 51, Type (0, 0), BuildingBlock: EZIPEK_clean_linker_0, # of connection points: 2
#     Edge 52, Type (0, 0), BuildingBlock: EZIPEK_clean_linker_0, # of connection points: 2
#     Edge 53, Type (0, 0), BuildingBlock: EZIPEK_clean_linker_0, # of connection points: 2
#     Edge 54, Type (0, 0), BuildingBlock: EZIPEK_clean_linker_0, # of connection points: 2
#     Edge 55, Type (0, 0), BuildingBlock: EZIPEK_clean_linker_0, # of connection points: 2
#     Edge 56, Type (0, 0), BuildingBlock: EZIPEK_clean_linker_0, # of connection points: 2
#     Edge 57, Type (0, 0), BuildingBlock: EZIPEK_clean_linker_0, # of connection points: 2
#     Edge 58, Type (0, 0), BuildingBlock: EZIPEK_clean_linker_0, # of connection points: 2
#     Edge 59, Type (0, 0), BuildingBlock: EZIPEK_clean_linker_0, # of connection points: 2
#     Edge 60, Type (0, 0), BuildingBlock: EZIPEK_clean_linker_0, # of connection points: 2
#     Edge 61, Type (0, 0), BuildingBlock: EZIPEK_clean_linker_0, # of connection points: 2
#     Edge 62, Type (0, 0), BuildingBlock: EZIPEK_clean_linker_0, # of connection points: 2
#     Edge 63, Type (0, 0), BuildingBlock: EZIPEK_clean_linker_0, # of connection points: 2
#     Edge 64, Type (0, 0), BuildingBlock: EZIPEK_clean_linker_0, # of connection points: 2
#     Edge 65, Type (0, 0), BuildingBlock: EZIPEK_clean_linker_0, # of connection points: 2
#     Edge 66, Type (0, 0), BuildingBlock: EZIPEK_clean_linker_0, # of connection points: 2
#     Edge 67, Type (0, 0), BuildingBlock: EZIPEK_clean_linker_0, # of connection points: 2
#     Edge 68, Type (0, 0), BuildingBlock: EZIPEK_clean_linker_0, # of connection points: 2
#     Edge 69, Type (0, 0), BuildingBlock: EZIPEK_clean_linker_0, # of connection points: 2
#     Edge 70, Type (0, 0), BuildingBlock: EZIPEK_clean_linker_0, # of connection points: 2
#     Edge 71, Type (0, 0), BuildingBlock: EZIPEK_clean_linker_0, # of connection points: 2
#     Edge 72, Type (0, 0), BuildingBlock: EZIPEK_clean_linker_0, # of connection points: 2
#     Edge 73, Type (0, 0), BuildingBlock: EZIPEK_clean_linker_0, # of connection points: 2
#     Edge 74, Type (0, 0), BuildingBlock: EZIPEK_clean_linker_0, # of connection points: 2
#     Edge 75, Type (0, 0), BuildingBlock: EZIPEK_clean_linker_0, # of connection points: 2
#     Edge 76, Type (0, 0), BuildingBlock: EZIPEK_clean_linker_0, # of connection points: 2
#     Edge 77, Type (0, 0), BuildingBlock: EZIPEK_clean_linker_0, # of connection points: 2
#     Edge 78, Type (0, 0), BuildingBlock: EZIPEK_clean_linker_0, # of connection points: 2
#     Edge 79, Type (0, 0), BuildingBlock: EZIPEK_clean_linker_0, # of connection points: 2
#     Edge 80, Type (0, 0), BuildingBlock: EZIPEK_clean_linker_0, # of connection points: 2
#     Edge 81, Type (0, 0), BuildingBlock: EZIPEK_clean_linker_0, # of connection points: 2
#     Edge 82, Type (0, 0), BuildingBlock: EZIPEK_clean_linker_0, # of connection points: 2
#     Edge 83, Type (0, 0), BuildingBlock: EZIPEK_clean_linker_0, # of connection points: 2
#     Edge 84, Type (0, 0), BuildingBlock: EZIPEK_clean_linker_0, # of connection points: 2
#     Edge 85, Type (0, 0), BuildingBlock: EZIPEK_clean_linker_0, # of connection points: 2
#     Edge 86, Type (0, 0), BuildingBlock: EZIPEK_clean_linker_0, # of connection points: 2
#     Edge 87, Type (0, 0), BuildingBlock: EZIPEK_clean_linker_0, # of connection points: 2
#     Edge 88, Type (0, 0), BuildingBlock: EZIPEK_clean_linker_0, # of connection points: 2
#     Edge 89, Type (0, 0), BuildingBlock: EZIPEK_clean_linker_0, # of connection points: 2
#     Edge 90, Type (0, 0), BuildingBlock: EZIPEK_clean_linker_0, # of connection points: 2
#     Edge 91, Type (0, 0), BuildingBlock: EZIPEK_clean_linker_0, # of connection points: 2
#     Edge 92, Type (0, 0), BuildingBlock: EZIPEK_clean_linker_0, # of connection points: 2
#     Edge 93, Type (0, 0), BuildingBlock: EZIPEK_clean_linker_0, # of connection points: 2
#     Edge 94, Type (0, 0), BuildingBlock: EZIPEK_clean_linker_0, # of connection points: 2
#     Edge 95, Type (0, 0), BuildingBlock: EZIPEK_clean_linker_0, # of connection points: 2
# Relax obj value: 0.174
# Max RMSD: 0.204
# Mean RMSD: 0.204
data_MOF--net-uoe--node1-CEKHIL_clean_sbu_0--edge1-EZIPEK_clean_linker_0
_symmetry_space_group_name_H-M    P1
_symmetry_Int_Tables_number       1
_symmetry_cell_setting            triclinic
loop_
_symmetry_equiv_pos_as_xyz
'x, y, z'
_cell_length_a     54.961629
_cell_length_b     55.040527
_cell_length_c     19.085435
_cell_angle_alpha  90.111045
_cell_angle_beta   90.044708
_cell_angle_gamma 89.945355
loop_
_atom_site_label
_atom_site_type_symbol
_atom_site_fract_x
_atom_site_fract_y
_atom_site_fract_z
_atom_type_partial_charge
Co0 Co 0.10903 0.47302 0.03289 0.0
O1 O 0.14001 0.45591 0.0348 0.0
O2 O 0.10714 0.44437 0.09216 0.0
C3 C 0.10757 0.48084 0.91634 0.0
O4 O 0.07406 0.48562 0.0467 0.0
Co5 Co 0.10626 0.52744 0.9889 0.0
O6 O 0.07094 0.5245 0.01118 0.0
C7 C 0.12846 0.51391 0.12195 0.0
C8 C 0.13021 0.44117 0.07983 0.0
C9 C 0.06167 0.50536 0.0377 0.0
O10 O 0.11964 0.4925 0.11524 0.0
O11 O 0.12803 0.52982 0.07329 0.0
O12 O 0.10068 0.45969 0.93969 0.0
O13 O 0.11687 0.49518 0.96224 0.0
Co14 Co 0.79978 0.85654 0.28609 0.0
O15 O 0.81783 0.88667 0.29591 0.0
O16 O 0.831 0.85077 0.33131 0.0
C17 C 0.78563 0.86148 0.17582 0.0
O18 O 0.78657 0.82171 0.28795 0.0
Co19 Co 0.74327 0.85709 0.26621 0.0
O20 O 0.74742 0.82145 0.25335 0.0
C21 C 0.76441 0.86665 0.40427 0.0
C22 C 0.83409 0.8742 0.33002 0.0
C23 C 0.7667 0.81039 0.27262 0.0
O24 O 0.78552 0.86214 0.37964 0.0
O25 O 0.74493 0.86707 0.36756 0.0
O26 O 0.80774 0.85353 0.18578 0.0
O27 O 0.77429 0.86852 0.23115 0.0
Co28 Co 0.39762 0.54398 0.51065 0.0
O29 O 0.36766 0.56135 0.53135 0.0
O30 O 0.40384 0.57139 0.57274 0.0
C31 C 0.39334 0.53791 0.39432 0.0
O32 O 0.43231 0.5304 0.50258 0.0
Co33 Co 0.39458 0.4898 0.45958 0.0
O34 O 0.43072 0.49157 0.46415 0.0
C35 C 0.38574 0.50143 0.60593 0.0
C36 C 0.38045 0.57508 0.57289 0.0
C37 C 0.44258 0.51006 0.48572 0.0
O38 O 0.39247 0.52328 0.59435 0.0
O39 O 0.38263 0.48546 0.55806 0.0
O40 O 0.40047 0.55902 0.41768 0.0
O41 O 0.38552 0.52322 0.44159 0.0
Co42 Co 0.71786 0.15571 0.79078 0.0
O43 O 0.70118 0.12486 0.80267 0.0
O44 O 0.68564 0.16057 0.83121 0.0
C45 C 0.73374 0.15023 0.68301 0.0
O46 O 0.72932 0.19128 0.78642 0.0
Co47 Co 0.77456 0.15656 0.78182 0.0
O48 O 0.77029 0.1924 0.78419 0.0
C49 C 0.75139 0.14622 0.91484 0.0
C50 C 0.68358 0.13701 0.83178 0.0
C51 C 0.74968 0.20305 0.78652 0.0
O52 O 0.73105 0.15231 0.88731 0.0
O53 O 0.77126 0.14459 0.88044 0.0
O54 O 0.71096 0.15646 0.68983 0.0
O55 O 0.74465 0.14433 0.7403 0.0
Co56 Co 0.10442 0.5448 0.53936 0.0
O57 O 0.13366 0.56448 0.53502 0.0
O58 O 0.09726 0.57673 0.50069 0.0
C59 C 0.10884 0.52855 0.64696 0.0
O60 O 0.07009 0.52982 0.53607 0.0
Co61 Co 0.10913 0.48857 0.54238 0.0
O62 O 0.07308 0.489 0.53553 0.0
C63 C 0.12018 0.51408 0.41373 0.0
C64 C 0.12053 0.58099 0.50429 0.0
C65 C 0.06041 0.5084 0.53395 0.0
O66 O 0.11165 0.5333 0.4425 0.0
O67 O 0.12272 0.49396 0.44618 0.0
O68 O 0.10042 0.55057 0.63998 0.0
O69 O 0.11732 0.51877 0.59044 0.0
Co70 Co 0.72227 0.85488 0.80246 0.0
O71 O 0.70563 0.88555 0.78661 0.0
O72 O 0.69273 0.85013 0.74707 0.0
C73 C 0.73174 0.86038 0.91653 0.0
O74 O 0.73502 0.81958 0.80677 0.0
Co75 Co 0.77777 0.85561 0.84121 0.0
O76 O 0.77476 0.81959 0.83759 0.0
C77 C 0.76163 0.86822 0.70059 0.0
C78 C 0.69019 0.87367 0.7481 0.0
C79 C 0.75538 0.80848 0.81946 0.0
O80 O 0.74056 0.85976 0.71444 0.0
O81 O 0.77857 0.87098 0.74587 0.0
O82 O 0.71005 0.85281 0.89942 0.0
O83 O 0.74537 0.86663 0.86507 0.0
Co84 Co 0.4188 0.47421 0.01916 0.0
O85 O 0.38661 0.46041 0.00582 0.0
O86 O 0.42101 0.44078 0.98598 0.0
C87 C 0.41228 0.4933 0.12325 0.0
O88 O 0.45535 0.482 0.02514 0.0
Co89 Co 0.42536 0.52979 0.0146 0.0
O90 O 0.46078 0.52229 0.01079 0.0
C91 C 0.40921 0.50389 0.89159 0.0
C92 C 0.39739 0.44117 0.98122 0.0
C93 C 0.46913 0.50085 0.0179 0.0
O94 O 0.41788 0.48475 0.91986 0.0
O95 O 0.4079 0.52427 0.92343 0.0
O96 O 0.41735 0.47016 0.12126 0.0
O97 O 0.40878 0.50332 0.06296 0.0
Co98 Co 0.79456 0.15891 0.3061 0.0
O99 O 0.81261 0.12882 0.29368 0.0
O100 O 0.82333 0.16416 0.24861 0.0
C101 C 0.78626 0.1551 0.42161 0.0
O102 O 0.78092 0.1937 0.30531 0.0
Co103 Co 0.73977 0.15822 0.35053 0.0
O104 O 0.74291 0.19429 0.34934 0.0
C105 C 0.7542 0.14266 0.2101 0.0
C106 C 0.82722 0.14089 0.25313 0.0
C107 C 0.76142 0.20514 0.32388 0.0
O108 O 0.77551 0.15141 0.22021 0.0
O109 O 0.73802 0.14085 0.25791 0.0
O110 O 0.80738 0.16348 0.40202 0.0
O111 O 0.77241 0.14749 0.37214 0.0
Co112 Co 0.91219 0.54775 0.07877 0.0
O113 O 0.8816 0.56348 0.05502 0.0
O114 O 0.91774 0.57713 0.0239 0.0
C115 C 0.90219 0.53916 0.19099 0.0
O116 O 0.94766 0.53602 0.09046 0.0
Co117 Co 0.91412 0.49308 0.12902 0.0
O118 O 0.94897 0.50002 0.1466 0.0
C119 C 0.90844 0.50565 0.9794 0.0
C120 C 0.89419 0.57938 0.02042 0.0
C121 C 0.95949 0.51771 0.11617 0.0
O122 O 0.91047 0.52839 0.99208 0.0
O123 O 0.90829 0.4889 0.02586 0.0
O124 O 0.91028 0.56071 0.17491 0.0
O125 O 0.89951 0.52469 0.13895 0.0
Co126 Co 0.23369 0.15766 0.77994 0.0
O127 O 0.21739 0.12649 0.77157 0.0
O128 O 0.19969 0.16205 0.75463 0.0
C129 C 0.25543 0.15222 0.87948 0.0
O130 O 0.24429 0.19332 0.78205 0.0
Co131 Co 0.2894 0.15966 0.75933 0.0
O132 O 0.28439 0.19545 0.75796 0.0
C133 C 0.25898 0.14916 0.64099 0.0
C134 C 0.19846 0.1385 0.74952 0.0
C135 C 0.26404 0.20544 0.7715 0.0
O136 O 0.24086 0.15545 0.67844 0.0
O137 O 0.28055 0.14695 0.66478 0.0
O138 O 0.23238 0.15774 0.88228 0.0
O139 O 0.26346 0.14645 0.81794 0.0
Co140 Co 0.59607 0.47099 0.53122 0.0
O141 O 0.62776 0.45567 0.52219 0.0
O142 O 0.59285 0.43759 0.49856 0.0
C143 C 0.6023 0.48993 0.63557 0.0
O144 O 0.55975 0.48041 0.53271 0.0
Co145 Co 0.59162 0.52685 0.52661 0.0
O146 O 0.55599 0.52093 0.51942 0.0
C147 C 0.60781 0.50047 0.40411 0.0
C148 C 0.61651 0.43686 0.49676 0.0
C149 C 0.54676 0.4998 0.52456 0.0
O150 O 0.59891 0.48135 0.43191 0.0
O151 O 0.6092 0.52083 0.43609 0.0
O152 O 0.59603 0.46709 0.63345 0.0
O153 O 0.60682 0.49969 0.57558 0.0
Co154 Co 0.29055 0.86421 0.32289 0.0
O155 O 0.30533 0.89546 0.30249 0.0
O156 O 0.31786 0.86039 0.25897 0.0
C157 C 0.28553 0.86846 0.44028 0.0
O158 O 0.28005 0.82845 0.33038 0.0
Co159 Co 0.23707 0.86206 0.3798 0.0
O160 O 0.2425 0.8263 0.37801 0.0
C161 C 0.24611 0.87453 0.23364 0.0
C162 C 0.31986 0.88394 0.26017 0.0
C163 C 0.26144 0.81628 0.35222 0.0
O164 O 0.26844 0.86836 0.24118 0.0
O165 O 0.23091 0.87597 0.28414 0.0
O166 O 0.30672 0.86256 0.41478 0.0
O167 O 0.26963 0.87448 0.39394 0.0
Co168 Co 0.90592 0.4715 0.55412 0.0
O169 O 0.87469 0.45761 0.57973 0.0
O170 O 0.90954 0.43762 0.58274 0.0
C171 C 0.89341 0.49176 0.45675 0.0
O172 O 0.94175 0.47976 0.53326 0.0
Co173 Co 0.91262 0.52777 0.55581 0.0
O174 O 0.94666 0.5205 0.53068 0.0
C175 C 0.90634 0.50114 0.68499 0.0
C176 C 0.88635 0.43793 0.59655 0.0
C177 C 0.95514 0.499 0.52748 0.0
O178 O 0.91074 0.48133 0.65269 0.0
O179 O 0.90367 0.52173 0.65539 0.0
O180 O 0.89876 0.46866 0.45361 0.0
O181 O 0.89395 0.50083 0.51877 0.0
Co182 Co 0.30082 0.16189 0.27243 0.0
O183 O 0.31702 0.13098 0.28868 0.0
O184 O 0.32818 0.16576 0.33674 0.0
C185 C 0.29622 0.15714 0.15588 0.0
O186 O 0.28886 0.19746 0.2696 0.0
Co187 Co 0.24775 0.1644 0.2115 0.0
O188 O 0.2516 0.2002 0.22026 0.0
C189 C 0.257 0.14664 0.35326 0.0
C190 C 0.33146 0.14242 0.33127 0.0
C191 C 0.27006 0.20987 0.24964 0.0
O192 O 0.27864 0.15531 0.35167 0.0
O193 O 0.24266 0.14575 0.30055 0.0
O194 O 0.3169 0.16498 0.18077 0.0
O195 O 0.28023 0.15132 0.20166 0.0
Co196 Co 0.61857 0.5417 0.02041 0.0
O197 O 0.64837 0.55919 0.04104 0.0
O198 O 0.61202 0.56947 0.08087 0.0
C199 C 0.62303 0.53523 0.90452 0.0
O200 O 0.58398 0.52804 0.01128 0.0
Co201 Co 0.62204 0.48733 0.97107 0.0
O202 O 0.58588 0.4893 0.97202 0.0
C203 C 0.63055 0.49958 0.11721 0.0
C204 C 0.63537 0.57334 0.08078 0.0
C205 C 0.57386 0.5078 0.99286 0.0
O206 O 0.62353 0.52134 0.10506 0.0
O207 O 0.63401 0.48355 0.06974 0.0
O208 O 0.61596 0.55645 0.92711 0.0
O209 O 0.63089 0.52072 0.95234 0.0
Co210 Co 0.21918 0.84734 0.81225 0.0
O211 O 0.20446 0.87928 0.82083 0.0
O212 O 0.18519 0.84473 0.83998 0.0
C213 C 0.23998 0.85329 0.71065 0.0
O214 O 0.22774 0.81091 0.80986 0.0
Co215 Co 0.27462 0.84158 0.82588 0.0
O216 O 0.26785 0.8061 0.82983 0.0
C217 C 0.2467 0.85696 0.94592 0.0
C218 C 0.18503 0.86835 0.84339 0.0
C219 C 0.24666 0.79742 0.82011 0.0
O220 O 0.22779 0.84948 0.91347 0.0
O221 O 0.26773 0.85786 0.91774 0.0
O222 O 0.21693 0.8477 0.70967 0.0
O223 O 0.2489 0.85755 0.77213 0.0
Co224 Co 0.61586 0.96872 0.50639 0.0
O225 O 0.64564 0.95074 0.52505 0.0
O226 O 0.60951 0.94072 0.56623 0.0
C227 C 0.62003 0.97569 0.39052 0.0
O228 O 0.58128 0.983 0.49922 0.0
Co229 Co 0.61988 0.02328 0.45932 0.0
O230 O 0.58371 0.02193 0.46217 0.0
C231 C 0.62852 0.01033 0.60476 0.0
C232 C 0.63283 0.9366 0.56508 0.0
C233 C 0.57142 1.00359 0.48254 0.0
O234 O 0.62134 0.98868 0.59179 0.0
O235 O 0.63211 0.02648 0.55789 0.0
O236 O 0.6127 0.95448 0.41226 0.0
O237 O 0.62815 0.98984 0.43891 0.0
Co238 Co 0.29691 0.35879 0.79185 0.0
O239 O 0.31253 0.39036 0.79954 0.0
O240 O 0.33093 0.35526 0.81817 0.0
C241 C 0.27546 0.36368 0.69154 0.0
O242 O 0.28731 0.32279 0.79016 0.0
Co243 Co 0.24127 0.35472 0.8097 0.0
O244 O 0.24758 0.31925 0.81757 0.0
C245 C 0.27057 0.36774 0.92863 0.0
C246 C 0.33172 0.37886 0.82192 0.0
C247 C 0.26818 0.30997 0.80307 0.0
O248 O 0.28916 0.36138 0.89311 0.0
O249 O 0.24916 0.36899 0.90308 0.0
O250 O 0.2986 0.35848 0.68949 0.0
O251 O 0.26702 0.36918 0.75278 0.0
Co252 Co 0.91014 0.04917 0.0261 0.0
O253 O 0.87922 0.06566 0.03904 0.0
O254 O 0.91423 0.07848 0.08228 0.0
C255 C 0.9062 0.04002 0.911 0.0
O256 O 0.94557 0.03704 0.02584 0.0
Co257 Co 0.91107 0.99412 0.98407 0.0
O258 O 0.94702 0.99872 0.98401 0.0
C259 C 0.89661 0.00881 0.12527 0.0
C260 C 0.89071 0.08105 0.07871 0.0
C261 C 0.95746 0.01772 0.00798 0.0
O262 O 0.90421 0.03039 0.11327 0.0
O263 O 0.89483 0.99231 0.07828 0.0
O264 O 0.91353 0.06163 0.92955 0.0
O265 O 0.89936 0.02621 0.96132 0.0
Co266 Co 0.21822 0.66536 0.31768 0.0
O267 O 0.20009 0.63522 0.32329 0.0
O268 O 0.18602 0.67101 0.35705 0.0
C269 C 0.23451 0.65996 0.20989 0.0
O270 O 0.23124 0.70034 0.32211 0.0
Co271 Co 0.2748 0.6648 0.30927 0.0
O272 O 0.27154 0.70065 0.30104 0.0
C273 C 0.2504 0.6521 0.44017 0.0
C274 C 0.18305 0.64756 0.3544 0.0
C275 C 0.25158 0.71169 0.3134 0.0
O276 O 0.23031 0.6593 0.41376 0.0
O277 O 0.27041 0.65098 0.40604 0.0
O278 O 0.21239 0.66831 0.21623 0.0
O279 O 0.2448 0.65317 0.26717 0.0
Co280 Co 0.59479 0.0411 0.01798 0.0
O281 O 0.627 0.05526 0.00774 0.0
O282 O 0.59264 0.07446 0.98432 0.0
C283 C 0.6006 0.02232 0.12274 0.0
O284 O 0.55819 0.03315 0.02074 0.0
Co285 Co 0.58819 0.98544 0.01488 0.0
O286 O 0.55281 0.9928 0.00774 0.0
C287 C 0.60531 0.0106 0.89184 0.0
C288 C 0.61631 0.0744 0.98232 0.0
C289 C 0.54443 0.01429 0.01314 0.0
O290 O 0.59692 0.03012 0.91898 0.0
O291 O 0.60611 0.99038 0.92446 0.0
O292 O 0.59524 0.04539 0.12025 0.0
O293 O 0.60456 0.01218 0.06284 0.0
Co294 Co 0.22703 0.36041 0.30039 0.0
O295 O 0.21081 0.39133 0.2856 0.0
O296 O 0.19932 0.35667 0.23741 0.0
C297 C 0.23235 0.36442 0.41679 0.0
O298 O 0.23909 0.32486 0.30222 0.0
Co299 Co 0.28059 0.35847 0.35751 0.0
O300 O 0.27735 0.32271 0.34513 0.0
C301 C 0.27015 0.37607 0.21666 0.0
C302 C 0.19618 0.38003 0.24322 0.0
C303 C 0.2585 0.31277 0.31864 0.0
O304 O 0.24865 0.36713 0.21979 0.0
O305 O 0.28469 0.3775 0.26879 0.0
O306 O 0.21147 0.35687 0.39259 0.0
O307 O 0.24797 0.37079 0.37052 0.0
Co308 Co 0.9138 0.97147 0.54107 0.0
O309 O 0.88339 0.95384 0.53048 0.0
O310 O 0.91939 0.93981 0.49835 0.0
C311 C 0.90816 0.98651 0.65025 0.0
O312 O 0.94905 0.98391 0.54123 0.0
Co313 Co 0.91429 0.02796 0.55697 0.0
O314 O 0.94976 0.02334 0.57257 0.0
C315 C 0.90398 1.006 0.42045 0.0
C316 C 0.89588 0.93707 0.49848 0.0
C317 C 0.96064 1.00361 0.55666 0.0
O318 O 0.90885 0.98513 0.44618 0.0
O319 O 0.90362 0.02567 0.45631 0.0
O320 O 0.91578 0.96423 0.64194 0.0
O321 O 0.90186 0.99757 0.59374 0.0
Co322 Co 0.2915 0.64945 0.83029 0.0
O323 O 0.30987 0.61999 0.81189 0.0
O324 O 0.31923 0.65616 0.76988 0.0
C325 C 0.28449 0.64573 0.94596 0.0
O326 O 0.27663 0.68363 0.83651 0.0
Co327 Co 0.23695 0.64444 0.8758 0.0
O328 O 0.23729 0.68055 0.86972 0.0
C329 C 0.25053 0.63515 0.73152 0.0
C330 C 0.32342 0.63287 0.77034 0.0
C331 C 0.25567 0.69312 0.85095 0.0
O332 O 0.2718 0.64322 0.74502 0.0
O333 O 0.23419 0.63145 0.77785 0.0
O334 O 0.30563 0.65339 0.92431 0.0
O335 O 0.27055 0.63695 0.89798 0.0
Co336 Co 0.41751 0.04437 0.51838 0.0
O337 O 0.38564 0.05938 0.51029 0.0
O338 O 0.42028 0.07817 0.48878 0.0
C339 C 0.41133 0.02454 0.62111 0.0
O340 O 0.45395 0.03506 0.51995 0.0
Co341 Co 0.42207 0.98865 0.50874 0.0
O342 O 0.45774 0.99455 0.5058 0.0
C343 C 0.4062 0.01617 0.38807 0.0
C344 C 0.39659 0.0786 0.48674 0.0
C345 C 0.46699 0.01563 0.51236 0.0
O346 O 0.41489 0.03504 0.41798 0.0
O347 O 0.40482 0.99549 0.41809 0.0
O348 O 0.41742 0.04743 0.62076 0.0
O349 O 0.40685 0.01524 0.56032 0.0
Co350 Co 0.72614 0.65758 0.29989 0.0
O351 O 0.71041 0.62621 0.29084 0.0
O352 O 0.69367 0.66118 0.26079 0.0
C353 C 0.74273 0.65299 0.40742 0.0
O354 O 0.7368 0.69337 0.2979 0.0
Co355 Co 0.7829 0.66039 0.30979 0.0
O356 O 0.77695 0.69579 0.3208 0.0
C357 C 0.75943 0.64936 0.17577 0.0
C358 C 0.69268 0.63755 0.25967 0.0
C359 C 0.75648 0.70574 0.3077 0.0
O360 O 0.7387 0.65339 0.20353 0.0
O361 O 0.77954 0.64949 0.20961 0.0
O362 O 0.71997 0.65939 0.40136 0.0
O363 O 0.75344 0.6471 0.34994 0.0
Co364 Co 0.10621 0.96785 0.05268 0.0
O365 O 0.13576 0.94878 0.042 0.0
O366 O 0.10018 0.93906 -0.00417 0.0
C367 C 0.11002 0.9766 0.16831 0.0
O368 O 0.07181 0.98247 0.0498 0.0
Co369 Co 0.10826 0.02268 0.09496 0.0
O370 O 0.07206 0.02099 0.08968 0.0
C371 C 0.12429 1.00702 0.95627 0.0
C372 C 0.1233 0.93442 0.00148 0.0
C373 C 0.06082 1.0025 0.06542 0.0
O374 O 0.11462 0.98617 0.96651 0.0
O375 O 0.12653 0.02328 0.00376 0.0
O376 O 0.10092 0.95575 0.149 0.0
O377 O 0.11815 0.98997 0.11859 0.0
Co378 Co 0.78929 0.35602 0.79968 0.0
O379 O 0.80611 0.38675 0.78735 0.0
O380 O 0.82142 0.35091 0.75909 0.0
C381 C 0.7735 0.36168 0.90744 0.0
O382 O 0.77757 0.32056 0.80417 0.0
Co383 Co 0.73262 0.35571 0.80828 0.0
O384 O 0.73658 0.31982 0.80613 0.0
C385 C 0.75599 0.36623 0.67578 0.0
C386 C 0.82352 0.37446 0.75771 0.0
C387 C 0.75709 0.30898 0.80393 0.0
O388 O 0.77614 0.35949 0.70318 0.0
O389 O 0.73616 0.36822 0.71019 0.0
O390 O 0.79623 0.35527 0.90059 0.0
O391 O 0.76261 0.36764 0.85015 0.0
Co392 Co 0.39434 0.97478 0.00699 0.0
O393 O 0.36407 0.95804 0.02725 0.0
O394 O 0.40001 0.94738 0.06922 0.0
C395 C 0.39038 0.98051 0.89061 0.0
O396 O 0.42925 0.98768 -0.00125 0.0
Co397 Co 0.3922 0.02884 0.95509 0.0
O398 O 0.42831 0.02618 0.95773 0.0
C399 C 0.3832 0.01789 0.10174 0.0
C400 C 0.37658 0.94402 0.06858 0.0
C401 C 0.43986 1.00761 0.98006 0.0
O402 O 0.38948 0.99583 0.09055 0.0
O403 O 0.38035 0.03372 0.05352 0.0
O404 O 0.39704 0.95934 0.91442 0.0
O405 O 0.3827 0.99552 0.93751 0.0
Co406 Co 0.80342 0.65923 0.78289 0.0
O407 O 0.8209 0.62911 0.79957 0.0
O408 O 0.8321 0.66485 0.84119 0.0
C409 C 0.79562 0.65397 0.66802 0.0
O410 O 0.78968 0.69409 0.77767 0.0
Co411 Co 0.74853 0.65675 0.73876 0.0
O412 O 0.74986 0.69276 0.74832 0.0
C413 C 0.76316 0.6443 0.88039 0.0
C414 C 0.83555 0.64143 0.83945 0.0
C415 C 0.7689 0.70451 0.76614 0.0
O416 O 0.78412 0.6535 0.86895 0.0
O417 O 0.74707 0.6408 0.83306 0.0
O418 O 0.81684 0.66213 0.68758 0.0
O419 O 0.78155 0.64693 0.71762 0.0
Co420 Co 0.11385 0.04421 0.54017 0.0
O421 O 0.14506 0.06054 0.54848 0.0
O422 O 0.11003 0.07595 0.58391 0.0
C423 C 0.11714 0.02914 0.4301 0.0
O424 O 0.07817 0.03304 0.5436 0.0
Co425 Co 0.11149 0.98779 0.52473 0.0
O426 O 0.07595 0.9935 0.51412 0.0
C427 C 0.12267 0.00935 0.66094 0.0
C428 C 0.13364 0.07763 0.58234 0.0
C429 C 0.06583 0.01358 0.53059 0.0
O430 O 0.11917 0.03035 0.63449 0.0
O431 O 0.12189 0.98957 0.62575 0.0
O432 O 0.1108 0.05175 0.43972 0.0
O433 O 0.12407 0.01777 0.48558 0.0
Co434 Co 0.71376 0.35506 0.28634 0.0
O435 O 0.69582 0.38526 0.29742 0.0
O436 O 0.68506 0.35023 0.34451 0.0
C437 C 0.72184 0.3582 0.17053 0.0
O438 O 0.72727 0.32021 0.28834 0.0
Co439 Co 0.76846 0.3553 0.24107 0.0
O440 O 0.76506 0.31926 0.24283 0.0
C441 C 0.75445 0.37142 0.38138 0.0
C442 C 0.68116 0.37345 0.33846 0.0
C443 C 0.7466 0.3086 0.26925 0.0
O444 O 0.733 0.36296 0.37162 0.0
O445 O 0.77065 0.37275 0.3335 0.0
O446 O 0.70074 0.35001 0.19087 0.0
O447 O 0.73583 0.36605 0.2194 0.0
C448 C 1.00371 0.53076 0.12248 0.0
C449 C 0.98581 0.51431 0.09785 0.0
C450 C 0.01777 0.49065 0.03659 0.0
C451 C 0.03575 0.50683 0.06263 0.0
N452 N 0.04651 0.53853 0.14411 0.0
N453 N 0.97592 0.47702 0.03623 0.0
C454 C 0.02885 0.52593 0.10918 0.0
C455 C 0.99293 0.49376 0.05663 0.0
N456 N 0.99673 0.55099 0.15897 0.0
N457 N 0.02414 0.47288 0.98989 0.0
H458 H 0.95724 0.47971 0.0405 0.0
H459 H 0.98025 0.45985 0.01704 0.0
H460 H 0.04204 0.46822 0.97872 0.0
H461 H 0.01169 0.46325 0.95955 0.0
H462 H 0.00843 0.56527 0.17098 0.0
H463 H 0.97876 0.55428 0.17378 0.0
H464 H 0.04301 0.55112 0.18358 0.0
H465 H 0.06494 0.53452 0.13875 0.0
C466 C 0.78034 0.7671 0.24877 0.0
C467 C 0.7648 0.78357 0.28459 0.0
C468 C 0.74187 0.74883 0.33369 0.0
C469 C 0.75679 0.73258 0.29482 0.0
N470 N 0.7852 0.72682 0.1999 0.0
N471 N 0.73123 0.79042 0.36393 0.0
C472 C 0.77458 0.74193 0.24804 0.0
C473 C 0.74564 0.77445 0.32772 0.0
N474 N 0.80106 0.77516 0.21685 0.0
N475 N 0.72449 0.73979 0.37761 0.0
H476 H 0.73534 0.8088 0.36942 0.0
H477 H 0.71497 0.78575 0.38821 0.0
H478 H 0.71896 0.72175 0.37667 0.0
H479 H 0.71548 0.74994 0.4156 0.0
H480 H 0.81431 0.76353 0.19685 0.0
H481 H 0.80653 0.79322 0.21675 0.0
H482 H 0.79608 0.73301 0.15899 0.0
H483 H 0.78096 0.70842 0.19572 0.0
C484 C 0.47946 0.51005 0.56495 0.0
C485 C 0.46932 0.50688 0.49684 0.0
C486 C 0.50888 0.49169 0.45476 0.0
C487 C 0.5197 0.49817 0.51955 0.0
N488 N 0.51569 0.51303 0.63747 0.0
N489 N 0.47508 0.49704 0.37461 0.0
C490 C 0.50505 0.50727 0.57493 0.0
C491 C 0.48421 0.49817 0.4412 0.0
N492 N 0.46451 0.51439 0.6209 0.0
N493 N 0.52209 0.4789 0.40661 0.0
H494 H 0.45719 0.50164 0.36227 0.0
H495 H 0.48573 0.4936 0.3306 0.0
H496 H 0.53986 0.47317 0.41624 0.0
H497 H 0.51473 0.47169 0.36079 0.0
H498 H 0.47046 0.51477 0.67264 0.0
H499 H 0.44566 0.51567 0.61676 0.0
H500 H 0.5071 0.52295 0.67683 0.0
H501 H 0.53358 0.50824 0.64915 0.0
C502 C 0.76469 0.24317 0.73937 0.0
C503 C 0.75002 0.23036 0.78854 0.0
C504 C 0.74186 0.26889 0.85065 0.0
C505 C 0.75655 0.2817 0.80152 0.0
N506 N 0.78509 0.28027 0.70507 0.0
N507 N 0.72114 0.23191 0.8842 0.0
C508 C 0.76888 0.26862 0.74771 0.0
C509 C 0.73757 0.24347 0.84209 0.0
N510 N 0.77328 0.23126 0.68138 0.0
N511 N 0.73335 0.28076 0.90879 0.0
H512 H 0.71806 0.21331 0.88352 0.0
H513 H 0.70893 0.24097 0.91672 0.0
H514 H 0.73611 0.29919 0.91797 0.0
H515 H 0.72558 0.27209 0.95167 0.0
H516 H 0.7811 0.23988 0.6385 0.0
H517 H 0.77057 0.21282 0.67233 0.0
H518 H 0.79731 0.2713 0.67242 0.0
H519 H 0.78788 0.29892 0.70518 0.0
C520 C 0.02142 0.49069 0.5828 0.0
C521 C 0.03324 0.50555 0.53184 0.0
C522 C 0.99432 0.50934 0.46839 0.0
C523 C 0.98216 0.49703 0.52328 0.0
N524 N 0.98368 0.47815 0.63728 0.0
N525 N 0.02978 0.53168 0.43035 0.0
C526 C 0.99562 0.48797 0.58122 0.0
C527 C 0.01935 0.51566 0.47588 0.0
N528 N 0.03473 0.47932 0.63374 0.0
N529 N 0.98189 0.51451 0.40812 0.0
H530 H 0.04793 0.5368 0.43281 0.0
H531 H 0.01995 0.54164 0.39363 0.0
H532 H 0.96367 0.50973 0.40094 0.0
H533 H 0.99009 0.52118 0.36293 0.0
H534 H 0.02782 0.46548 0.66507 0.0
H535 H 0.05305 0.48276 0.64318 0.0
H536 H 0.99194 0.47467 0.68534 0.0
H537 H 0.96503 0.47489 0.63803 0.0
C538 C 0.76931 0.74073 0.84827 0.0
C539 C 0.76598 0.73128 0.77933 0.0
C540 C 0.75539 0.77239 0.73731 0.0
C541 C 0.75756 0.78165 0.80666 0.0
N542 N 0.76526 0.77474 0.92915 0.0
N543 N 0.7522 0.73744 0.66044 0.0
C544 C 0.76433 0.76582 0.8623 0.0
C545 C 0.75786 0.74692 0.72467 0.0
N546 N 0.77693 0.72558 0.90075 0.0
N547 N 0.75245 0.78815 0.68254 0.0
H548 H 0.75498 0.71929 0.64725 0.0
H549 H 0.7432 0.74715 0.62147 0.0
H550 H 0.75053 0.80686 0.68894 0.0
H551 H 0.75399 0.78305 0.63017 0.0
H552 H 0.78267 0.73146 0.94985 0.0
H553 H 0.77832 0.70681 0.89506 0.0
H554 H 0.76726 0.76415 0.97383 0.0
H555 H 0.76274 0.79304 0.94074 0.0
C556 C 0.53601 0.5077 0.06768 0.0
C557 C 0.54699 0.50489 0.0006 0.0
C558 C 0.50755 0.49186 0.95213 0.0
C559 C 0.49609 0.49811 0.01614 0.0
N560 N 0.49889 0.51124 0.13602 0.0
N561 N 0.54288 0.49592 0.87718 0.0
C562 C 0.51023 0.50581 0.07428 0.0
C563 C 0.53269 0.49719 0.94243 0.0
N564 N 0.55031 0.51088 0.1257 0.0
N565 N 0.49443 0.48041 0.90102 0.0
H566 H 0.56122 0.49932 0.86772 0.0
H567 H 0.53286 0.49338 0.83145 0.0
H568 H 0.47621 0.47569 0.90764 0.0
H569 H 0.50206 0.47334 0.85542 0.0
H570 H 0.54369 0.51074 0.17675 0.0
H571 H 0.56924 0.51167 0.12372 0.0
H572 H 0.50729 0.52019 0.17759 0.0
H573 H 0.48064 0.50717 0.14481 0.0
C574 C 0.73315 0.26447 0.25798 0.0
C575 C 0.7493 0.28209 0.28608 0.0
C576 C 0.77476 0.24929 0.33587 0.0
C577 C 0.75865 0.23167 0.30753 0.0
N578 N 0.72646 0.22237 0.22595 0.0
N579 N 0.78163 0.29145 0.36704 0.0
C580 C 0.7388 0.23927 0.26472 0.0
C581 C 0.76918 0.2745 0.32878 0.0
N582 N 0.71195 0.27165 0.22681 0.0
N583 N 0.79586 0.2421 0.3676 0.0
H584 H 0.77731 0.30987 0.36595 0.0
H585 H 0.79436 0.2872 0.40553 0.0
H586 H 0.80079 0.22401 0.37388 0.0
H587 H 0.80972 0.254 0.38184 0.0
H588 H 0.6981 0.2597 0.2127 0.0
H589 H 0.70692 0.28974 0.22116 0.0
H590 H 0.71377 0.22671 0.18744 0.0
H591 H 0.73086 0.20397 0.22649 0.0
C592 C 0.27167 0.2726 0.72807 0.0
C593 C 0.26906 0.28314 0.79566 0.0
C594 C 0.26044 0.24293 0.84598 0.0
C595 C 0.26404 0.23228 0.77885 0.0
N596 N 0.27564 0.23618 0.65737 0.0
N597 N 0.26379 0.27869 0.9202 0.0
C598 C 0.27045 0.24691 0.72036 0.0
C599 C 0.26411 0.26837 0.85493 0.0
N600 N 0.27414 0.28724 0.67062 0.0
N601 N 0.25364 0.22868 0.90131 0.0
H602 H 0.26602 0.29727 0.9284 0.0
H603 H 0.26302 0.26894 0.96675 0.0
H604 H 0.25241 0.20982 0.89852 0.0
H605 H 0.24796 0.23545 0.94952 0.0
H606 H 0.27262 0.2811 0.61919 0.0
H607 H 0.27625 0.306 0.67387 0.0
H608 H 0.28351 0.24528 0.61536 0.0
H609 H 0.2733 0.21768 0.64784 0.0
C610 C 0.27413 0.7732 0.38027 0.0
C611 C 0.26016 0.78952 0.33944 0.0
C612 C 0.23891 0.75499 0.2838 0.0
C613 C 0.25292 0.73859 0.32491 0.0
N614 N 0.27938 0.73223 0.42428 0.0
N615 N 0.23295 0.79636 0.24269 0.0
C616 C 0.26945 0.74776 0.37613 0.0
C617 C 0.24342 0.78049 0.28886 0.0
N618 N 0.29241 0.78201 0.42159 0.0
N619 N 0.2208 0.74634 0.24143 0.0
H620 H 0.23648 0.81496 0.24353 0.0
H621 H 0.22262 0.79111 0.19958 0.0
H622 H 0.21693 0.72797 0.23551 0.0
H623 H 0.20812 0.75732 0.21624 0.0
H624 H 0.30513 0.77112 0.44702 0.0
H625 H 0.29627 0.80046 0.42523 0.0
H626 H 0.28935 0.73792 0.46768 0.0
H627 H 0.27563 0.71367 0.42535 0.0
C628 C 0.26454 0.24355 0.33839 0.0
C629 C 0.2683 0.23634 0.26756 0.0
C630 C 0.26256 0.27885 0.22972 0.0
C631 C 0.26026 0.28625 0.30103 0.0
N632 N 0.26213 0.27623 0.42384 0.0
N633 N 0.27341 0.24704 0.14637 0.0
C634 C 0.26223 0.26874 0.35548 0.0
C635 C 0.26786 0.25399 0.21334 0.0
N636 N 0.26193 0.22619 0.3891 0.0
N637 N 0.25983 0.29566 0.17754 0.0
H638 H 0.27723 0.22908 0.13281 0.0
H639 H 0.27598 0.25904 0.10502 0.0
H640 H 0.25756 0.31417 0.18704 0.0
H641 H 0.25852 0.2913 0.12461 0.0
H642 H 0.25624 0.22994 0.44 0.0
H643 H 0.26362 0.20763 0.37923 0.0
H644 H 0.26655 0.26499 0.46578 0.0
H645 H 0.25904 0.29421 0.43866 0.0
C646 C 0.24132 0.73409 0.89541 0.0
C647 C 0.25185 0.7198 0.84097 0.0
C648 C 0.25496 0.7563 0.76718 0.0
C649 C 0.2444 0.77043 0.82154 0.0
N650 N 0.22137 0.77177 0.92853 0.0
N651 N 0.26212 0.71624 0.71825 0.0
C652 C 0.23556 0.75896 0.88278 0.0
C653 C 0.25688 0.73061 0.77485 0.0
N654 N 0.23775 0.72427 0.96031 0.0
N655 N 0.26313 0.76753 0.70795 0.0
H656 H 0.26282 0.69733 0.72068 0.0
H657 H 0.26345 0.72278 0.66726 0.0
H658 H 0.25953 0.78575 0.69743 0.0
H659 H 0.27402 0.75902 0.6706 0.0
H660 H 0.23294 0.73448 0.00416 0.0
H661 H 0.24148 0.70621 0.97215 0.0
H662 H 0.21242 0.76396 0.97093 0.0
H663 H 0.21636 0.78977 0.9197 0.0
C664 C 0.50808 0.00774 0.56648 0.0
C665 C 0.49413 0.01702 0.50988 0.0
C666 C 0.53042 0.01631 0.43466 0.0
C667 C 0.54459 1.00725 0.49145 0.0
N668 N 0.54801 0.99965 0.61573 0.0
N669 N 0.4931 0.03596 0.39661 0.0
C670 C 0.5337 1.00434 0.55863 0.0
C671 C 0.50569 0.02316 0.44602 0.0
N672 N 0.49672 1.00231 0.6281 0.0
N673 N 0.54029 0.01746 0.36902 0.0
H674 H 0.47528 0.04184 0.4046 0.0
H675 H 0.50096 0.04298 0.35137 0.0
H676 H 0.55828 0.01283 0.3583 0.0
H677 H 0.53018 0.02106 0.32405 0.0
H678 H 0.50472 0.99233 0.66826 0.0
H679 H 0.47879 1.00743 0.63815 0.0
H680 H 0.5416 0.9996 0.667 0.0
H681 H 0.56684 0.99772 0.613 0.0
C682 C 0.99128 0.99629 0.07157 0.0
C683 C 0.98395 0.01536 0.0259 0.0
C684 C 0.02698 0.02492 0.00361 0.0
C685 C 0.0343 1.00556 0.04853 0.0
N686 N 0.02312 0.96934 0.11216 0.0
N687 N 0.99474 0.05132 0.96139 0.0
C688 C 0.01638 0.99023 0.07872 0.0
C689 C 1.00178 0.03072 -0.00434 0.0
N690 N 0.97422 0.9851 0.11238 0.0
N691 N 0.04412 0.0366 0.96423 0.0
H692 H 0.97662 0.05638 0.95569 0.0
H693 H 1.00676 0.06471 0.94469 0.0
H694 H 0.0625 0.03201 0.96573 0.0
H695 H 0.04006 0.04893 0.92465 0.0
H696 H 0.97842 0.97312 0.15276 0.0
H697 H 0.9559 0.98998 0.11142 0.0
H698 H 0.01083 0.95605 0.12783 0.0
H699 H 0.04109 0.96388 0.11819 0.0
C700 C 0.50278 0.00966 0.06638 0.0
C701 C 0.51747 0.01706 0.00918 0.0
C702 C 0.48156 0.01751 0.93249 0.0
C703 C 0.4667 0.01022 0.98975 0.0
N704 N 0.46223 1.00515 0.11483 0.0
N705 N 0.52007 0.03444 0.89403 0.0
C706 C 0.47706 0.00782 0.0578 0.0
C707 C 0.50657 0.02302 0.94416 0.0
N708 N 0.51352 1.00455 0.12919 0.0
N709 N 0.47203 0.01828 0.86634 0.0
H710 H 0.53811 0.03951 0.90239 0.0
H711 H 0.51281 0.04124 0.84763 0.0
H712 H 0.45383 0.01461 0.85545 0.0
H713 H 0.48252 0.02059 0.82144 0.0
H714 H 0.50471 0.99578 0.17027 0.0
H715 H 0.53167 0.0087 0.13944 0.0
H716 H 0.4684 1.00563 0.16635 0.0
H717 H 0.44332 1.00449 0.11143 0.0
C718 C 0.02282 0.02885 0.50612 0.0
C719 C 0.03885 0.01294 0.54219 0.0
C720 C 1.00367 0.9893 0.58489 0.0
C721 C 0.98769 1.00494 0.54764 0.0
N722 N 0.98265 0.03496 0.45685 0.0
N723 N 0.04409 0.98277 0.63237 0.0
C724 C 0.99745 0.02354 0.5042 0.0
C725 C 0.02911 0.99438 0.58586 0.0
N726 N 0.03146 0.04964 0.47615 0.0
N727 N 0.99484 0.96897 0.617 0.0
H728 H 0.06254 0.98682 0.63744 0.0
H729 H 0.0379 0.97115 0.67144 0.0
H730 H 0.97658 0.96414 0.61662 0.0
H731 H 1.00586 0.95542 0.63791 0.0
H732 H 0.02024 0.06318 0.45592 0.0
H733 H 0.04957 0.05495 0.47854 0.0
H734 H 0.98905 0.04656 0.41798 0.0
H735 H 0.96428 0.03069 0.45069 0.0
C736 C 0.0849 0.50062 0.81708 0.0
C737 C 0.10602 0.48856 0.8418 0.0
C738 C 0.12906 0.5033 0.74037 0.0
C739 C 0.10776 0.51492 0.71435 0.0
N740 N 0.06432 0.52146 0.72227 0.0
N741 N 0.14648 0.47379 0.82062 0.0
C742 C 0.08535 0.51274 0.75119 0.0
C743 C 0.12752 0.48838 0.8011 0.0
N744 N 0.06448 0.50084 0.85758 0.0
N745 N 0.15112 0.50782 0.70993 0.0
H746 H 0.14578 0.4627 0.8649 0.0
H747 H 0.1618 0.47085 0.7897 0.0
H748 H 0.15332 0.51949 0.66745 0.0
H749 H 0.16761 0.50197 0.73082 0.0
H750 H 0.04953 0.51207 0.84891 0.0
H751 H 0.063 0.4901 0.90199 0.0
H752 H 0.04709 0.51824 0.74274 0.0
H753 H 0.06361 0.53024 0.67412 0.0
C754 C 0.7515 0.88361 0.014 0.0
C755 C 0.74152 0.86139 0.98907 0.0
C756 C 0.76383 0.83914 0.07949 0.0
C757 C 0.77289 0.86133 0.107 0.0
N758 N 0.77302 0.90512 0.10639 0.0
N759 N 0.73258 0.81924 0.01093 0.0
C760 C 0.76593 0.88373 0.07609 0.0
C761 C 0.74581 0.83956 0.02605 0.0
N762 N 0.74729 0.9046 0.9777 0.0
N763 N 0.7731 0.81759 0.10243 0.0
H764 H 0.71948 0.81863 0.97154 0.0
H765 H 0.73308 0.80362 0.04169 0.0
H766 H 0.78726 0.81681 0.13839 0.0
H767 H 0.76874 0.80085 0.08022 0.0
H768 H 0.75648 0.92081 0.98712 0.0
H769 H 0.73499 0.90559 0.93611 0.0
H770 H 0.7662 0.92203 0.09186 0.0
H771 H 0.78501 0.90593 0.14874 0.0
C772 C 0.38503 0.50085 0.22742 0.0
C773 C 0.40663 0.50637 0.19 0.0
C774 C 0.41948 0.53361 0.28521 0.0
C775 C 0.39722 0.52927 0.32094 0.0
N776 N 0.35612 0.51396 0.31561 0.0
N777 N 0.44047 0.53363 0.17444 0.0
C778 C 0.37921 0.51434 0.28899 0.0
C779 C 0.42251 0.52461 0.21596 0.0
N780 N 0.36994 0.48283 0.20409 0.0
N781 N 0.43854 0.54477 0.31821 0.0
H782 H 0.44319 0.52741 0.12387 0.0
H783 H 0.45089 0.54877 0.18769 0.0
H784 H 0.4382 0.55046 0.37013 0.0
H785 H 0.4559 0.54581 0.29647 0.0
H786 H 0.35557 0.47603 0.23366 0.0
H787 H 0.37264 0.47361 0.15696 0.0
H788 H 0.34163 0.50525 0.29097 0.0
H789 H 0.35079 0.52464 0.35813 0.0
C790 C 0.74971 0.1739 0.57959 0.0
C791 C 0.74732 0.15142 0.61556 0.0
C792 C 0.77397 0.13187 0.52831 0.0
C793 C 0.77727 0.15463 0.49497 0.0
N794 N 0.7733 0.19802 0.49811 0.0
N795 N 0.75861 0.1092 0.6278 0.0
C796 C 0.76664 0.17586 0.52352 0.0
C797 C 0.76007 0.1305 0.59123 0.0
N798 N 0.73568 0.19341 0.59807 0.0
N799 N 0.7836 0.11142 0.49832 0.0
H800 H 0.74664 0.10658 0.66946 0.0
H801 H 0.76985 0.0943 0.61862 0.0
H802 H 0.79522 0.11204 0.45512 0.0
H803 H 0.77942 0.09383 0.51411 0.0
H804 H 0.7344 0.20912 0.56795 0.0
H805 H 0.72419 0.19363 0.64131 0.0
H806 H 0.76799 0.21448 0.52034 0.0
H807 H 0.78645 0.19979 0.45931 0.0
C808 C 0.87869 0.51129 0.2697 0.0
C809 C 0.89596 0.53053 0.26275 0.0
C810 C 0.89916 0.53089 0.38963 0.0
C811 C 0.88951 0.50704 0.39301 0.0
N812 N 0.86642 0.47565 0.33469 0.0
N813 N 0.92528 0.55666 0.322 0.0
C814 C 0.87833 0.49737 0.33228 0.0
C815 C 0.90703 0.53991 0.32426 0.0
N816 N 0.86151 0.50742 0.21909 0.0
N817 N 0.8984 0.54595 0.44611 0.0
H818 H 0.93319 0.56279 0.27588 0.0
H819 H 0.9343 0.56233 0.36732 0.0
H820 H 0.88705 0.54221 0.48845 0.0
H821 H 0.9047 0.56382 0.44417 0.0
H822 H 0.84758 0.49471 0.22421 0.0
H823 H 0.85903 0.51921 0.17695 0.0
H824 H 0.86064 0.46654 0.28972 0.0
H825 H 0.86272 0.46663 0.38147 0.0
C826 C 0.26553 0.13207 0.99409 0.0
C827 C 0.27053 0.15041 0.94432 0.0
C828 C 0.29492 0.17246 0.03125 0.0
C829 C 0.29058 0.15382 0.08053 0.0
N830 N 0.27869 0.11214 0.1006 0.0
N831 N 0.29868 0.18146 0.90874 0.0
C832 C 0.27799 0.13241 0.05938 0.0
C833 C 0.28786 0.16866 0.96074 0.0
N834 N 0.24888 0.11437 0.97927 0.0
N835 N 0.30474 0.19416 0.05141 0.0
H836 H 0.29711 0.17563 0.85754 0.0
H837 H 0.31235 0.19424 0.91727 0.0
H838 H 0.30989 0.19805 0.10271 0.0
H839 H 0.30564 0.20911 0.01804 0.0
H840 H 0.2424 0.10224 0.01672 0.0
H841 H 0.24062 0.11263 0.93027 0.0
H842 H 0.27155 0.09544 0.08514 0.0
H843 H 0.28888 0.11128 0.14669 0.0
C844 C 0.59653 0.53117 0.79586 0.0
C845 C 0.61867 0.52619 0.83178 0.0
C846 C 0.62957 0.49658 0.74009 0.0
C847 C 0.60822 0.50278 0.70233 0.0
N848 N 0.57549 0.53131 0.68507 0.0
N849 N 0.65918 0.50927 0.82681 0.0
C850 C 0.59311 0.52186 0.72714 0.0
C851 C 0.63605 0.51032 0.80063 0.0
N852 N 0.57788 0.54323 0.82822 0.0
N853 N 0.64384 0.47771 0.71804 0.0
H854 H 0.66507 0.52016 0.86826 0.0
H855 H 0.67326 0.49978 0.80255 0.0
H856 H 0.64062 0.46813 0.67177 0.0
H857 H 0.65796 0.47055 0.74805 0.0
H858 H 0.5606 0.54485 0.80621 0.0
H859 H 0.57827 0.54899 0.88006 0.0
H860 H 0.56573 0.547 0.69736 0.0
H861 H 0.57241 0.52479 0.63496 0.0
C862 C 0.24729 0.87861 0.60257 0.0
C863 C 0.25402 0.85861 0.64524 0.0
C864 C 0.28556 0.84713 0.55943 0.0
C865 C 0.27849 0.86693 0.51605 0.0
N866 N 0.25923 0.90622 0.51001 0.0
N867 N 0.28413 0.82832 0.67339 0.0
C868 C 0.26127 0.88407 0.5418 0.0
C869 C 0.27463 0.84438 0.62657 0.0
N870 N 0.22764 0.89259 0.62011 0.0
N871 N 0.30184 0.83016 0.53631 0.0
H872 H 0.27606 0.82506 0.72129 0.0
H873 H 0.30092 0.81978 0.66722 0.0
H874 H 0.31248 0.83206 0.49185 0.0
H875 H 0.30418 0.81333 0.5603 0.0
H876 H 0.21999 0.90535 0.58639 0.0
H877 H 0.21809 0.8906 0.66692 0.0
H878 H 0.24867 0.92038 0.5297 0.0
H879 H 0.27043 0.91146 0.46858 0.0
C880 C 0.59021 0.99078 0.21422 0.0
C881 C 0.60597 0.00933 0.18967 0.0
C882 C 0.63366 1.00054 0.28745 0.0
C883 C 0.61586 0.98512 0.31815 0.0
N884 N 0.5746 0.96939 0.3146 0.0
N885 N 0.64242 0.03309 0.20584 0.0
C886 C 0.5935 0.98103 0.28243 0.0
C887 C 0.62756 0.01467 0.22743 0.0
N888 N 0.57207 0.98222 0.17235 0.0
N889 N 0.65683 1.00078 0.31353 0.0
H890 H 0.63946 0.04292 0.15996 0.0
H891 H 0.65681 0.03968 0.23592 0.0
H892 H 0.66241 0.98961 0.35462 0.0
H893 H 0.67118 0.00987 0.28952 0.0
H894 H 0.56181 0.96685 0.18407 0.0
H895 H 0.56894 0.98921 0.12291 0.0
H896 H 0.5572 0.96846 0.29306 0.0
H897 H 0.57504 0.96324 0.366 0.0
C898 C 0.23555 0.34584 0.53717 0.0
C899 C 0.2389 0.36589 0.49198 0.0
C900 C 0.2647 0.38572 0.5804 0.0
C901 C 0.26063 0.36599 0.62641 0.0
N902 N 0.23455 0.33249 0.65683 0.0
N903 N 0.25022 0.40803 0.4793 0.0
C904 C 0.24365 0.34768 0.60743 0.0
C905 C 0.25153 0.38683 0.51633 0.0
N906 N 0.22596 0.32453 0.51284 0.0
N907 N 0.28117 0.40333 0.59758 0.0
H908 H 0.23967 0.40983 0.43413 0.0
H909 H 0.2573 0.42443 0.49744 0.0
H910 H 0.29006 0.40392 0.64589 0.0
H911 H 0.28699 0.41656 0.56241 0.0
H912 H 0.22585 0.30862 0.54239 0.0
H913 H 0.22029 0.32194 0.46133 0.0
H914 H 0.22073 0.31997 0.64715 0.0
H915 H 0.23853 0.33511 0.70907 0.0
C916 C 0.92914 0.02361 0.80775 0.0
C917 C 0.90662 0.0303 0.83823 0.0
C918 C 0.88493 0.00841 0.74459 0.0
C919 C 0.90752 0.99951 0.71882 0.0
N920 N 0.95095 0.99556 0.73287 0.0
N921 N 0.86286 0.02857 0.83846 0.0
C922 C 0.92958 1.0062 0.75252 0.0
C923 C 0.88444 0.02261 0.80714 0.0
N924 N 0.9501 0.0342 0.83089 0.0
N925 N 0.86391 1.00323 0.70921 0.0
H926 H 0.86176 0.04052 0.88089 0.0
H927 H 0.84618 0.02107 0.82441 0.0
H928 H 0.86319 0.9912 0.66696 0.0
H929 H 0.8473 0.01158 0.71964 0.0
H930 H 0.96696 0.03179 0.80704 0.0
H931 H 0.95011 0.04762 0.86929 0.0
H932 H 0.96729 0.99782 0.75975 0.0
H933 H 0.95187 0.98251 0.69365 0.0
C934 C 0.27298 0.6731 0.04756 0.0
C935 C 0.27496 0.64938 0.01832 0.0
C936 C 0.24988 0.6329 0.11389 0.0
C937 C 0.2471 0.65669 0.14151 0.0
N938 N 0.25315 0.69977 0.1316 0.0
N939 N 0.27025 0.60616 0.03104 0.0
C940 C 0.25805 0.67687 0.10778 0.0
C941 C 0.26471 0.62913 0.0536 0.0
N942 N 0.28545 0.69204 0.01837 0.0
N943 N 0.23737 0.61407 0.14365 0.0
H944 H 0.28175 0.6028 0.98864 0.0
H945 H 0.26544 0.59039 0.05754 0.0
H946 H 0.22627 0.6162 0.18755 0.0
H947 H 0.23634 0.59671 0.12226 0.0
H948 H 0.28726 0.70903 0.04171 0.0
H949 H 0.29536 0.69074 0.97221 0.0
H950 H 0.25849 0.71568 0.1067 0.0
H951 H 0.24186 0.70298 0.17422 0.0
C952 C 0.41667 0.98352 0.78135 0.0
C953 C 0.3946 0.98882 0.81721 0.0
C954 C 0.38357 0.01775 0.72423 0.0
C955 C 0.40498 0.01144 0.68695 0.0
N956 N 0.43756 0.9827 0.67033 0.0
N957 N 0.35403 1.00554 0.81148 0.0
C958 C 0.42006 0.99245 0.71227 0.0
C959 C 0.37715 1.00439 0.78531 0.0
N960 N 0.43527 0.97152 0.81405 0.0
N961 N 0.36921 0.03641 0.7013 0.0
H962 H 0.34823 0.99493 0.85349 0.0
H963 H 0.3399 0.01481 0.7868 0.0
H964 H 0.37232 0.04563 0.65448 0.0
H965 H 0.35506 0.04371 0.73093 0.0
H966 H 0.45253 0.96969 0.79208 0.0
H967 H 0.4348 0.96592 0.86598 0.0
H968 H 0.44739 0.96713 0.68324 0.0
H969 H 0.44038 0.98875 0.61964 0.0
C970 C 0.76343 0.67551 0.50577 0.0
C971 C 0.7564 0.65311 0.47474 0.0
C972 C 0.77912 0.63103 0.56546 0.0
C973 C 0.7867 0.65353 0.59475 0.0
N974 N 0.79141 0.6968 0.58251 0.0
N975 N 0.76016 0.60948 0.46869 0.0
C976 C 0.78066 0.67565 0.56136 0.0
C977 C 0.76518 0.63083 0.50251 0.0
N978 N 0.75297 0.69665 0.48387 0.0
N979 N 0.78494 0.60985 0.5989 0.0
H980 H 0.74853 0.60836 0.42559 0.0
H981 H 0.76838 0.59299 0.48103 0.0
H982 H 0.79678 0.60922 0.64164 0.0
H983 H 0.77744 0.59305 0.58616 0.0
H984 H 0.75555 0.71335 0.50848 0.0
H985 H 0.73971 0.69699 0.44522 0.0
H986 H 0.7898 0.71307 0.55511 0.0
H987 H 0.80374 0.69771 0.6239 0.0
C988 C 0.13592 1.00466 0.33299 0.0
C989 C 0.11494 0.01604 0.36173 0.0
C990 C 0.08958 0.99719 0.26998 0.0
C991 C 0.11055 0.98588 0.2416 0.0
N992 N 0.15263 0.97479 0.25202 0.0
N993 N 0.07153 0.02241 0.36033 0.0
C994 C 0.13342 0.98842 0.27511 0.0
C995 C 0.09169 0.01216 0.33073 0.0
N996 N 0.1584 0.01039 0.35899 0.0
N997 N 0.0677 0.99395 0.23742 0.0
H998 H 0.07263 0.03517 0.40021 0.0
H999 H 0.05371 0.01807 0.34701 0.0
H1000 H 0.0654 0.98106 0.19815 0.0
H1001 H 0.05204 1.0039 0.24807 0.0
H1002 H 0.17468 1.00471 0.33653 0.0
H1003 H 0.16096 0.02269 0.39999 0.0
H1004 H 0.16935 0.97383 0.27747 0.0
H1005 H 0.15111 0.96258 0.21031 0.0
C1006 C 0.74073 0.3369 0.0683 0.0
C1007 C 0.7306 0.35837 0.09691 0.0
C1008 C 0.74775 0.382 -0.00048 0.0
C1009 C 0.76003 0.36082 0.9751 0.0
N1010 N 0.77097 0.31866 0.99268 0.0
N1011 N 0.72495 0.40167 0.09294 0.0
C1012 C 0.75739 0.33844 0.01147 0.0
C1013 C 0.73412 0.381 0.063 0.0
N1014 N 0.73384 0.3149 0.09443 0.0
N1015 N 0.74939 0.40319 0.96252 0.0
H1016 H 0.7135 0.40134 0.13654 0.0
H1017 H 0.72935 0.41916 0.07668 0.0
H1018 H 0.76119 0.40553 0.92032 0.0
H1019 H 0.73846 0.4183 0.97186 0.0
H1020 H 0.73872 0.29831 0.07218 0.0
H1021 H 0.72092 0.31342 0.13395 0.0
H1022 H 0.77212 0.30297 0.02292 0.0
H1023 H 0.78225 0.31819 0.94897 0.0
C1024 C 0.10856 0.52837 0.29507 0.0
C1025 C 0.12527 0.51553 0.33789 0.0
C1026 C 0.15009 0.50713 0.23447 0.0
C1027 C 0.13388 0.52141 0.19401 0.0
N1028 N 0.10426 0.55374 0.1933 0.0
N1029 N 0.16547 0.49799 0.3505 0.0
C1030 C 0.11565 0.53515 0.22728 0.0
C1031 C 0.14726 0.5065 0.30848 0.0
N1032 N 0.08526 0.53242 0.31682 0.0
N1033 N 0.16755 0.49362 0.20172 0.0
H1034 H 0.16437 0.49808 0.40501 0.0
H1035 H 0.18251 0.49301 0.33137 0.0
H1036 H 0.17058 0.49486 0.14782 0.0
H1037 H 0.17802 0.48059 0.22741 0.0
H1038 H 0.07206 0.54037 0.28497 0.0
H1039 H 0.07841 0.52479 0.3626 0.0
H1040 H 0.09136 0.56481 0.21769 0.0
H1041 H 0.10973 0.55982 0.14412 0.0
C1042 C 0.7773 0.85116 0.59131 0.0
C1043 C 0.76693 0.87125 0.62641 0.0
C1044 C 0.75536 0.88957 0.5147 0.0
C1045 C 0.76301 0.868 0.48067 0.0
N1046 N 0.77624 0.82614 0.48761 0.0
N1047 N 0.74398 0.90858 0.62456 0.0
C1048 C 0.77267 0.8482 0.51925 0.0
C1049 C 0.75541 0.89028 0.58895 0.0
N1050 N 0.79115 0.83467 0.62709 0.0
N1051 N 0.7488 0.90946 0.47635 0.0
H1052 H 0.7449 0.91026 0.67899 0.0
H1053 H 0.73265 0.92126 0.60056 0.0
H1054 H 0.7484 0.90945 0.42171 0.0
H1055 H 0.74544 0.92644 0.49849 0.0
H1056 H 0.8011 0.82098 0.60247 0.0
H1057 H 0.79457 0.83598 0.68068 0.0
H1058 H 0.78081 0.81043 0.51498 0.0
H1059 H 0.77211 0.82286 0.43511 0.0
C1060 C 0.37049 0.50577 0.727 0.0
C1061 C 0.38649 0.49417 0.67949 0.0
C1062 C 0.41752 0.49085 0.76949 0.0
C1063 C 0.40139 0.50176 0.81821 0.0
N1064 N 0.36033 0.51376 0.84823 0.0
N1065 N 0.42163 0.46878 0.6606 0.0
C1066 C 0.37712 0.50746 0.79864 0.0
C1067 C 0.40863 0.48402 0.70298 0.0
N1068 N 0.34947 0.51599 0.70275 0.0
N1069 N 0.44167 0.48844 0.78517 0.0
H1070 H 0.41551 0.46345 0.61124 0.0
H1071 H 0.43703 0.4594 0.67745 0.0
H1072 H 0.44927 0.49546 0.83097 0.0
H1073 H 0.45459 0.48206 0.74972 0.0
H1074 H 0.33857 0.52746 0.73283 0.0
H1075 H 0.34367 0.51377 0.65101 0.0
H1076 H 0.34189 0.51591 0.83718 0.0
H1077 H 0.36439 0.5148 0.90152 0.0
C1078 C 0.76144 0.12087 0.0979 0.0
C1079 C 0.74767 0.13795 0.13698 0.0
C1080 C 0.7395 0.16116 0.03224 0.0
C1081 C 0.75155 0.14331 0.99142 0.0
N1082 N 0.76931 0.10317 0.98382 0.0
N1083 N 0.71653 0.16889 0.13717 0.0
C1084 C 0.76117 0.12215 0.02361 0.0
C1085 C 0.73407 0.15607 0.10257 0.0
N1086 N 0.77517 0.1039 0.13197 0.0
N1087 N 0.73476 0.18365 0.00535 0.0
H1088 H 0.71161 0.16522 0.18876 0.0
H1089 H 0.70505 0.18117 0.11188 0.0
H1090 H 0.741 0.18899 0.95618 0.0
H1091 H 0.72766 0.19786 0.03527 0.0
H1092 H 0.78791 0.09293 0.10675 0.0
H1093 H 0.77451 0.10174 0.18628 0.0
H1094 H 0.77451 0.08653 0.00507 0.0
H1095 H 0.76885 0.10326 0.92922 0.0
C1096 C 0.88657 0.49238 0.79829 0.0
C1097 C 0.9073 0.50026 0.76065 0.0
C1098 C 0.9305 0.50575 0.86769 0.0
C1099 C 0.90943 0.49894 0.90582 0.0
N1100 N 0.86932 0.48138 0.91088 0.0
N1101 N 0.95005 0.51002 0.75485 0.0
C1102 C 0.88807 0.4906 0.87212 0.0
C1103 C 0.92966 0.50552 0.79396 0.0
N1104 N 0.86536 0.48749 0.76334 0.0
N1105 N 0.9509 0.51343 0.90246 0.0
H1106 H 0.9498 0.51142 0.70037 0.0
H1107 H 0.96754 0.51104 0.77548 0.0
H1108 H 0.9527 0.51243 0.95671 0.0
H1109 H 0.96573 0.52167 0.87847 0.0
H1110 H 0.84888 0.48374 0.78771 0.0
H1111 H 0.86386 0.48832 0.70889 0.0
H1112 H 0.85403 0.47308 0.88949 0.0
H1113 H 0.86973 0.48047 0.96541 0.0
C1114 C 0.24154 0.1637 0.52832 0.0
C1115 C 0.25427 0.14547 0.56633 0.0
C1116 C 0.25993 0.12188 0.45961 0.0
C1117 C 0.24788 0.1405 0.42241 0.0
N1118 N 0.21918 0.17341 0.42288 0.0
N1119 N 0.2687 0.10401 0.57261 0.0
C1120 C 0.23553 0.15921 0.45782 0.0
C1121 C 0.26123 0.1234 0.53349 0.0
N1122 N 0.23692 0.18597 0.55737 0.0
N1123 N 0.27124 0.10364 0.42358 0.0
H1124 H 0.2693 0.10439 0.62723 0.0
H1125 H 0.27215 0.08692 0.55132 0.0
H1126 H 0.26943 0.10179 0.36934 0.0
H1127 H 0.28303 0.0912 0.44681 0.0
H1128 H 0.22992 0.20052 0.52889 0.0
H1129 H 0.24225 0.19086 0.60781 0.0
H1130 H 0.20828 0.18629 0.44781 0.0
H1131 H 0.21468 0.17034 0.37053 0.0
C1132 C 0.60769 0.48205 0.2142 0.0
C1133 C 0.62974 0.49237 0.19081 0.0
C1134 C 0.63961 0.50457 0.31061 0.0
C1135 C 0.61548 0.49859 0.33057 0.0
N1136 N 0.57498 0.48603 0.29735 0.0
N1137 N 0.66675 0.51416 0.21448 0.0
C1138 C 0.59912 0.48825 0.28147 0.0
C1139 C 0.6459 0.50362 0.23861 0.0
N1140 N 0.59446 0.46725 0.17114 0.0
N1141 N 0.6566 0.51045 0.36012 0.0
H1142 H 0.67232 0.5125 0.16239 0.0
H1143 H 0.67774 0.52535 0.24514 0.0
H1144 H 0.65277 0.51087 0.41361 0.0
H1145 H 0.67497 0.5128 0.34865 0.0
H1146 H 0.57918 0.45772 0.18801 0.0
H1147 H 0.60021 0.46245 0.12099 0.0
H1148 H 0.5619 0.48028 0.26146 0.0
H1149 H 0.56759 0.49274 0.34377 0.0
C1150 C 0.23067 0.8486 0.06564 0.0
C1151 C 0.2436 0.86419 0.0197 0.0
C1152 C 0.25067 0.89261 0.11594 0.0
C1153 C 0.23775 0.8768 0.16096 0.0
N1154 N 0.20707 0.84587 0.17198 0.0
N1155 N 0.25941 0.90438 -0.0036 0.0
C1156 C 0.22462 0.85704 0.13318 0.0
C1157 C 0.25157 0.88735 0.04321 0.0
N1158 N 0.22577 0.82513 0.04699 0.0
N1159 N 0.26283 0.91201 0.14358 0.0
H1160 H 0.25962 0.9014 0.94244 0.0
H1161 H 0.26352 0.9222 0.01051 0.0
H1162 H 0.2612 0.91686 0.19632 0.0
H1163 H 0.27515 0.92247 0.11521 0.0
H1164 H 0.21807 0.81257 0.08117 0.0
H1165 H 0.23207 0.81743 0.00054 0.0
H1166 H 0.19582 0.83234 0.15165 0.0
H1167 H 0.20196 0.85207 0.22144 0.0
C1168 C 0.64341 1.00607 0.72658 0.0
C1169 C 0.62744 0.01742 0.6785 0.0
C1170 C 0.59673 0.02213 0.76883 0.0
C1171 C 0.61297 0.01184 0.81824 0.0
N1172 N 0.65389 0.99944 0.84828 0.0
N1173 N 0.59226 0.0427 0.65802 0.0
C1174 C 0.63704 1.00543 0.79853 0.0
C1175 C 0.60539 0.02797 0.70146 0.0
N1176 N 0.66419 0.99521 0.70281 0.0
N1177 N 0.57262 0.02475 0.78472 0.0
H1178 H 0.59801 0.04725 0.60774 0.0
H1179 H 0.57703 0.05242 0.67457 0.0
H1180 H 0.56518 0.01834 0.83135 0.0
H1181 H 0.55958 0.03053 0.74879 0.0
H1182 H 0.67501 0.98396 0.73372 0.0
H1183 H 0.66985 0.99666 0.65077 0.0
H1184 H 0.67224 0.9968 0.83702 0.0
H1185 H 0.64998 0.99915 0.90172 0.0
C1186 C 0.29325 0.36318 0.11479 0.0
C1187 C 0.27905 0.3814 0.14653 0.0
C1188 C 0.26548 0.39523 0.03186 0.0
C1189 C 0.27449 0.37322 0.00295 0.0
N1190 N 0.29461 0.33435 0.02029 0.0
N1191 N 0.25243 0.41589 0.1376 0.0
C1192 C 0.28815 0.3568 0.04489 0.0
C1193 C 0.26574 0.39812 0.1055 0.0
N1194 N 0.31068 0.35122 0.15232 0.0
N1195 N 0.25718 0.41337 0.9893 0.0
H1196 H 0.25344 0.41893 0.19158 0.0
H1197 H 0.2398 0.42669 0.11139 0.0
H1198 H 0.25755 0.41217 0.93476 0.0
H1199 H 0.25219 0.43048 0.00787 0.0
H1200 H 0.32276 0.3389 0.12964 0.0
H1201 H 0.3149 0.35579 0.20392 0.0
H1202 H 0.3022 0.32094 0.05201 0.0
H1203 H 0.29027 0.3281 0.97039 0.0
C1204 C 0.9175 0.9941 0.30184 0.0
C1205 C 0.90046 1.00672 0.34416 0.0
C1206 C 0.87671 0.01675 0.23993 0.0
C1207 C 0.89305 1.00263 0.19922 0.0
N1208 N 0.92328 0.97077 0.19644 0.0
N1209 N 0.86088 0.02555 0.3557 0.0
C1210 C 0.91143 0.98879 0.2319 0.0
C1211 C 0.8791 0.01678 0.31403 0.0
N1212 N 0.94002 0.98822 0.32729 0.0
N1213 N 0.85928 0.0304 0.20747 0.0
H1214 H 0.86181 0.02546 0.41024 0.0
H1215 H 0.84403 0.03101 0.33633 0.0
H1216 H 0.85619 0.02941 0.15355 0.0
H1217 H 0.8488 0.04338 0.2334 0.0
H1218 H 0.95373 0.98091 0.29594 0.0
H1219 H 0.94593 0.99322 0.37723 0.0
H1220 H 0.93556 0.95903 0.22066 0.0
H1221 H 0.91881 0.96572 0.14545 0.0
C1222 C 0.25577 0.61809 0.61232 0.0
C1223 C 0.24413 0.63496 0.65728 0.0
C1224 C 0.23955 0.66362 0.56156 0.0
C1225 C 0.24987 0.64629 0.51516 0.0
N1226 N 0.26289 0.60502 0.49288 0.0
N1227 N 0.21918 0.67067 0.67177 0.0
C1228 C 0.25655 0.62285 0.53935 0.0
C1229 C 0.23382 0.65655 0.63055 0.0
N1230 N 0.26676 0.598 0.63993 0.0
N1231 N 0.23652 0.68723 0.54096 0.0
H1232 H 0.21476 0.66611 0.72317 0.0
H1233 H 0.20946 0.68552 0.65269 0.0
H1234 H 0.24167 0.69356 0.4917 0.0
H1235 H 0.23136 0.7011 0.57509 0.0
H1236 H 0.27824 0.58667 0.61123 0.0
H1237 H 0.26525 0.59345 0.69284 0.0
H1238 H 0.26566 0.587 0.50746 0.0
H1239 H 0.26342 0.60775 0.43887 0.0
C1240 C 0.36776 0.01398 0.22287 0.0
C1241 C 0.38379 0.02543 0.1753 0.0
C1242 C 0.41441 0.0298 0.26621 0.0
C1243 C 0.39831 0.01885 0.31481 0.0
N1244 N 0.35733 1.00655 0.34416 0.0
N1245 N 0.41858 0.05126 0.15661 0.0
C1246 C 0.37418 0.01279 0.29476 0.0
C1247 C 0.40566 0.03607 0.19912 0.0
N1248 N 0.34691 1.00345 0.1985 0.0
N1249 N 0.43849 0.03257 0.28225 0.0
H1250 H 0.41263 0.05618 0.10678 0.0
H1251 H 0.4337 0.06101 0.17374 0.0
H1252 H 0.44608 0.02602 0.32855 0.0
H1253 H 0.45142 0.03869 0.24656 0.0
H1254 H 0.33602 0.99208 0.22873 0.0
H1255 H 0.34124 1.00532 0.14655 0.0
H1256 H 0.33896 1.00408 0.33276 0.0
H1257 H 0.36123 1.00599 0.3976 0.0
C1258 C 0.74801 0.66475 0.05853 0.0
C1259 C 0.75954 0.64654 0.09946 0.0
C1260 C 0.76934 0.62351 0.9939 0.0
C1261 C 0.75679 0.6412 0.95393 0.0
N1262 N 0.729 0.6751 0.94849 0.0
N1263 N 0.7765 0.60617 0.10861 0.0
C1264 C 0.74415 0.66047 0.98657 0.0
C1265 C 0.76885 0.62513 0.06799 0.0
N1266 N 0.74216 0.68678 0.08739 0.0
N1267 N 0.78231 0.60569 0.96074 0.0
H1268 H 0.77618 0.60666 0.16323 0.0
H1269 H 0.78129 0.58926 0.08828 0.0
H1270 H 0.7818 0.60327 0.90649 0.0
H1271 H 0.79441 0.59419 0.98652 0.0
H1272 H 0.73624 0.70158 0.05798 0.0
H1273 H 0.74555 0.69124 0.13957 0.0
H1274 H 0.71748 0.6879 0.97131 0.0
H1275 H 0.72607 0.67284 0.89494 0.0
C1276 C 0.11199 0.02709 0.84769 0.0
C1277 C 0.12953 0.01305 0.8832 0.0
C1278 C 0.14534 0.99831 0.77105 0.0
C1279 C 0.12481 0.00877 0.73757 0.0
N1280 N 0.08546 0.02834 0.74761 0.0
N1281 N 0.16304 0.9849 0.88096 0.0
C1282 C 0.10727 0.0219 0.77686 0.0
C1283 C 0.14643 0.99864 0.84542 0.0
N1284 N 0.09956 0.04509 0.88159 0.0
N1285 N 0.16391 0.98876 0.73223 0.0
H1286 H 0.16504 0.98599 0.9353 0.0
H1287 H 0.17394 0.97178 0.85713 0.0
H1288 H 0.16371 0.98838 0.67761 0.0
H1289 H 0.18028 0.98291 0.75395 0.0
H1290 H 0.08793 0.05707 0.85572 0.0
H1291 H 0.10296 0.04984 0.93351 0.0
H1292 H 0.07127 0.03593 0.7765 0.0
H1293 H 0.08049 0.02359 0.69665 0.0
C1294 C 0.74752 0.39137 0.56806 0.0
C1295 C 0.75607 0.3696 0.59936 0.0
C1296 C 0.77396 0.35716 0.48852 0.0
C1297 C 0.76119 0.37591 0.45446 0.0
N1298 N 0.7352 0.41106 0.45998 0.0
N1299 N 0.77166 0.32884 0.58374 0.0
C1300 C 0.74789 0.39326 0.49383 0.0
C1301 C 0.7678 0.35167 0.55807 0.0
N1302 N 0.73975 0.41031 0.60864 0.0
N1303 N 0.79149 0.34422 0.45431 0.0
H1304 H 0.76494 0.32335 0.63225 0.0
H1305 H 0.77856 0.31468 0.55329 0.0
H1306 H 0.79701 0.34833 0.4035 0.0
H1307 H 0.80239 0.33139 0.47949 0.0
H1308 H 0.73535 0.4273 0.58828 0.0
H1309 H 0.73969 0.40972 0.66323 0.0
H1310 H 0.72282 0.42248 0.48506 0.0
H1311 H 0.73636 0.4135 0.40584 0.0
C1312 C 0.14565 0.42494 0.19629 0.0
C1313 C 0.14547 0.42374 0.12162 0.0
C1314 C 0.17899 0.39392 0.12639 0.0
C1315 C 0.1777 0.39369 0.20087 0.0
N1316 N 0.15634 0.40531 0.30582 0.0
N1317 N 0.1589 0.40351 0.01646 0.0
C1318 C 0.15996 0.40809 0.23544 0.0
C1319 C 0.16126 0.40715 0.08698 0.0
N1320 N 0.1334 0.4431 0.23026 0.0
N1321 N 0.19788 0.38258 0.09311 0.0
H1322 H 0.14592 0.41253 0.98619 0.0
H1323 H 0.16813 0.38991 0.9893 0.0
H1324 H 0.21131 0.37287 0.11958 0.0
H1325 H 0.20146 0.38459 0.03985 0.0
H1326 H 0.13539 0.44663 0.2836 0.0
H1327 H 0.12311 0.45624 0.20466 0.0
H1328 H 0.14193 0.41335 0.33272 0.0
H1329 H 0.16629 0.39305 0.33611 0.0
C1330 C 0.88503 0.91799 0.38109 0.0
C1331 C 0.88341 0.91778 0.45574 0.0
C1332 C 0.85173 0.88621 0.44833 0.0
C1333 C 0.85308 0.88673 0.37364 0.0
N1334 N 0.87459 0.89881 0.27001 0.0
N1335 N 0.86936 0.8981 0.56032 0.0
C1336 C 0.87085 0.90135 0.34048 0.0
C1337 C 0.86797 0.90078 0.48921 0.0
N1338 N 0.89924 0.93487 0.34848 0.0
N1339 N 0.83419 0.87263 0.48045 0.0
H1340 H 0.88114 0.90838 0.59139 0.0
H1341 H 0.8606 0.88437 0.58791 0.0
H1342 H 0.82314 0.86041 0.45379 0.0
H1343 H 0.82977 0.8742 0.53329 0.0
H1344 H 0.89846 0.93843 0.29501 0.0
H1345 H 0.91107 0.94634 0.37516 0.0
H1346 H 0.88894 0.90687 0.24314 0.0
H1347 H 0.86458 0.88675 0.23917 0.0
C1348 C 0.35251 0.61052 0.59821 0.0
C1349 C 0.36837 0.59218 0.62357 0.0
C1350 C 0.3587 0.60475 0.74478 0.0
C1351 C 0.3405 0.62082 0.7195 0.0
N1352 N 0.31786 0.63658 0.62064 0.0
N1353 N 0.38416 0.56964 0.72237 0.0
C1354 C 0.33696 0.62326 0.64576 0.0
C1355 C 0.37102 0.58885 0.69727 0.0
N1356 N 0.3527 0.61622 0.52853 0.0
N1357 N 0.36463 0.60506 0.81434 0.0
H1358 H 0.39355 0.55753 0.69033 0.0
H1359 H 0.38415 0.56446 0.77482 0.0
H1360 H 0.3562 0.61663 0.85028 0.0
H1361 H 0.37944 0.5957 0.83511 0.0
H1362 H 0.34354 0.63113 0.50769 0.0
H1363 H 0.36395 0.60745 0.49245 0.0
H1364 H 0.31246 0.63635 0.56832 0.0
H1365 H 0.30607 0.64642 0.65247 0.0
C1366 C 0.66406 0.12338 0.94562 0.0
C1367 C 0.66365 0.12425 0.87093 0.0
C1368 C 0.62966 0.09507 0.86984 0.0
C1369 C 0.6306 0.09358 0.94446 0.0
N1370 N 0.64515 0.10953 0.05389 0.0
N1371 N 0.64326 0.11499 0.76288 0.0
C1372 C 0.64681 0.10871 0.98242 0.0
C1373 C 0.64559 0.11125 0.83341 0.0
N1374 N 0.68151 0.13601 0.98139 0.0
N1375 N 0.61417 0.0803 0.83342 0.0
H1376 H 0.65462 0.12669 0.73506 0.0
H1377 H 0.62905 0.10818 0.73267 0.0
H1378 H 0.60089 0.06979 0.85745 0.0
H1379 H 0.61492 0.0777 0.77946 0.0
H1380 H 0.68527 0.13367 0.03437 0.0
H1381 H 0.69295 0.14849 0.95738 0.0
H1382 H 0.65461 0.12177 0.08529 0.0
H1383 H 0.63268 0.09909 0.08197 0.0
C1384 C 0.16328 0.63419 0.46821 0.0
C1385 C 0.16317 0.63478 0.39349 0.0
C1386 C 0.1317 0.60301 0.39191 0.0
C1387 C 0.13238 0.60177 0.46654 0.0
N1388 N 0.14436 0.61984 0.57582 0.0
N1389 N 0.14333 0.62441 0.28553 0.0
C1390 C 0.14684 0.61853 0.50463 0.0
C1391 C 0.1461 0.62061 0.35587 0.0
N1392 N 0.17983 0.64778 0.50453 0.0
N1393 N 0.11834 0.5865 0.35486 0.0
H1394 H 0.15357 0.6372 0.2581 0.0
H1395 H 0.1295 0.61669 0.25558 0.0
H1396 H 0.10646 0.57425 0.37805 0.0
H1397 H 0.11999 0.58406 0.30106 0.0
H1398 H 0.18343 0.6456 0.55768 0.0
H1399 H 0.19078 0.66082 0.481 0.0
H1400 H 0.15243 0.63316 0.60682 0.0
H1401 H 0.13233 0.60878 0.60351 0.0
C1402 C 0.64357 0.92077 0.6864 0.0
C1403 C 0.64488 0.91828 0.61214 0.0
C1404 C 0.67495 0.88534 0.6267 0.0
C1405 C 0.67275 0.88703 0.70103 0.0
N1406 N 0.6513 0.903 0.80081 0.0
N1407 N 0.658 0.89494 0.51237 0.0
C1408 C 0.65591 0.90374 0.73048 0.0
C1409 C 0.65943 0.89955 0.58266 0.0
N1410 N 0.63169 0.94021 0.71515 0.0
N1411 N 0.6928 0.87123 0.59775 0.0
H1412 H 0.64678 0.90485 0.47877 0.0
H1413 H 0.66608 0.87994 0.48852 0.0
H1414 H 0.70429 0.86018 0.62705 0.0
H1415 H 0.69749 0.87186 0.54493 0.0
H1416 H 0.63276 0.9448 0.76802 0.0
H1417 H 0.6223 0.95302 0.68553 0.0
H1418 H 0.63744 0.91288 0.82477 0.0
H1419 H 0.65984 0.89069 0.83431 0.0
C1420 C 0.35331 0.38941 0.93572 0.0
C1421 C 0.35141 0.39201 0.86147 0.0
C1422 C 0.38435 0.42231 0.86586 0.0
C1423 C 0.3834 0.42245 0.94051 0.0
N1424 N 0.36527 0.40753 0.04671 0.0
N1425 N 0.36401 0.41251 0.75628 0.0
C1426 C 0.36739 0.40637 0.97542 0.0
C1427 C 0.36664 0.40893 0.82673 0.0
N1428 N 0.34203 0.37053 0.96869 0.0
N1429 N 0.40243 0.43459 0.83203 0.0
H1430 H 0.35233 0.40208 0.72534 0.0
H1431 H 0.37227 0.42673 0.72936 0.0
H1432 H 0.41599 0.44412 0.8583 0.0
H1433 H 0.40551 0.43326 0.77833 0.0
H1434 H 0.34477 0.36632 0.02128 0.0
H1435 H 0.3319 0.35745 0.94241 0.0
H1436 H 0.35165 0.39863 0.0746 0.0
H1437 H 0.37618 0.41872 0.07775 0.0
C1438 C 0.86399 0.11365 0.23998 0.0
C1439 C 0.84562 0.12804 0.20824 0.0
C1440 C 0.8607 0.11553 0.09172 0.0
C1441 C 0.87699 0.09884 0.12354 0.0
N1442 N 0.892 0.07983 0.22925 0.0
N1443 N 0.82442 0.14025 0.10295 0.0
C1444 C 0.87825 0.09747 0.19807 0.0
C1445 C 0.84355 0.12851 0.13379 0.0
N1446 N 0.86821 0.11585 0.3103 0.0
N1447 N 0.86201 0.11942 0.02111 0.0
H1448 H 0.81154 0.15017 0.13093 0.0
H1449 H 0.82011 0.13853 0.05003 0.0
H1450 H 0.87447 0.11044 0.98895 0.0
H1451 H 0.85248 0.13317 -0.00446 0.0
H1452 H 0.88299 0.10789 0.33561 0.0
H1453 H 0.85823 0.12755 0.34236 0.0
H1454 H 0.89114 0.07586 0.28252 0.0
H1455 H 0.90284 0.06767 0.20144 0.0
C1456 C 0.88442 0.59662 0.90032 0.0
C1457 C 0.88189 0.5978 0.97451 0.0
C1458 C 0.85013 0.62914 0.96076 0.0
C1459 C 0.85328 0.6286 0.88663 0.0
N1460 N 0.87683 0.61553 0.78731 0.0
N1461 N 0.866 0.61855 0.07567 0.0
C1462 C 0.87151 0.61345 0.85699 0.0
C1463 C 0.86584 0.61512 0.00471 0.0
N1464 N 0.89809 0.57854 0.87075 0.0
N1465 N 0.83128 0.64199 0.98932 0.0
H1466 H 0.87729 0.60869 0.1092 0.0
H1467 H 0.85671 0.63259 0.10067 0.0
H1468 H 0.81968 0.65294 0.96002 0.0
H1469 H 0.82597 0.64046 0.04149 0.0
H1470 H 0.89822 0.57479 0.81727 0.0
H1471 H 0.90795 0.56597 0.90001 0.0
H1472 H 0.89156 0.60693 0.76356 0.0
H1473 H 0.86784 0.62773 0.75443 0.0
C1474 C 0.16244 0.11335 0.59311 0.0
C1475 C 0.14731 0.0959 0.62588 0.0
C1476 C 0.16416 0.10786 0.74119 0.0
C1477 C 0.17869 0.12589 0.70866 0.0
N1478 N 0.1872 0.1495 0.60449 0.0
N1479 N 0.12999 0.08017 0.7331 0.0
C1480 C 0.17637 0.12984 0.63496 0.0
C1481 C 0.14693 0.09437 0.70055 0.0
N1482 N 0.16389 0.11393 0.52161 0.0
N1483 N 0.16712 0.10328 0.81108 0.0
H1484 H 0.11724 0.06981 0.70622 0.0
H1485 H 0.12707 0.0803 0.78698 0.0
H1486 H 0.1782 0.11385 0.8434 0.0
H1487 H 0.15969 0.08826 0.8363 0.0
H1488 H 0.17703 0.12374 0.49443 0.0
H1489 H 0.15285 0.10335 0.48922 0.0
H1490 H 0.18403 0.15475 0.5529 0.0
H1491 H 0.19757 0.16209 0.63191 0.0
C1492 C 0.64235 0.39774 0.34684 0.0
C1493 C 0.66231 0.38654 0.38101 0.0
C1494 C 0.64839 0.40377 0.49379 0.0
C1495 C 0.63028 0.4174 0.45818 0.0
N1496 N 0.61092 0.42859 0.34895 0.0
N1497 N 0.68523 0.37947 0.48694 0.0
C1498 C 0.62729 0.41447 0.38432 0.0
C1499 C 0.66541 0.38948 0.45468 0.0
N1500 N 0.63743 0.39187 0.27863 0.0
N1501 N 0.6489 0.40406 0.56542 0.0
H1502 H 0.69753 0.36818 0.4612 0.0
H1503 H 0.6904 0.38345 0.53816 0.0
H1504 H 0.63661 0.41417 0.5953 0.0
H1505 H 0.65993 0.39277 0.59547 0.0
H1506 H 0.62168 0.39718 0.25249 0.0
H1507 H 0.6481 0.37975 0.24982 0.0
H1508 H 0.6104 0.42998 0.29458 0.0
H1509 H 0.59861 0.44012 0.37357 0.0
C1510 C 0.36619 0.93005 0.19168 0.0
C1511 C 0.36417 0.9268 0.11779 0.0
C1512 C 0.33323 0.89512 0.13705 0.0
C1513 C 0.33628 0.8974 0.21094 0.0
N1514 N 0.35922 0.91354 0.30789 0.0
N1515 N 0.34941 0.90297 0.02085 0.0
C1516 C 0.35383 0.91385 0.23795 0.0
C1517 C 0.34876 0.90834 0.09079 0.0
N1518 N 0.37885 0.94939 0.21802 0.0
N1519 N 0.31466 0.88134 0.1107 0.0
H1520 H 0.36066 0.91212 0.98567 0.0
H1521 H 0.34063 0.88804 -0.00119 0.0
H1522 H 0.30283 0.87136 0.14198 0.0
H1523 H 0.30961 0.88141 0.0581 0.0
H1524 H 0.37835 0.95452 0.27056 0.0
H1525 H 0.38831 0.96164 0.18679 0.0
H1526 H 0.37364 0.92317 0.32986 0.0
H1527 H 0.35073 0.90182 0.34311 0.0
C1528 C 0.84245 0.38642 0.64147 0.0
C1529 C 0.84297 0.3871 0.71623 0.0
C1530 C 0.87564 0.41774 0.71173 0.0
C1531 C 0.87396 0.41817 0.6372 0.0
N1532 N 0.85996 0.39973 0.5306 0.0
N1533 N 0.86265 0.39981 0.82246 0.0
C1534 C 0.8586 0.40149 0.602 0.0
C1535 C 0.86039 0.40175 0.75129 0.0
N1536 N 0.82577 0.37209 0.60809 0.0
N1537 N 0.8916 0.43299 0.74461 0.0
H1538 H 0.85197 0.38803 0.85216 0.0
H1539 H 0.87592 0.40849 0.85215 0.0
H1540 H 0.9046 0.44294 0.71746 0.0
H1541 H 0.89204 0.43611 0.79832 0.0
H1542 H 0.82186 0.37314 0.55488 0.0
H1543 H 0.81511 0.3594 0.63407 0.0
H1544 H 0.85116 0.38651 0.50103 0.0
H1545 H 0.8716 0.41053 0.50077 0.0
C1546 C 0.36307 0.11013 0.48497 0.0
C1547 C 0.38244 0.09814 0.44965 0.0
C1548 C 0.37105 0.11949 0.34051 0.0
C1549 C 0.35004 0.12901 0.37377 0.0
N1550 N 0.32491 0.13235 0.47675 0.0
N1551 N 0.40332 0.08955 0.34065 0.0
C1552 C 0.34586 0.12422 0.44599 0.0
C1553 C 0.38622 0.10256 0.37675 0.0
N1554 N 0.36152 0.10848 0.55628 0.0
N1555 N 0.37677 0.12703 0.27433 0.0
H1556 H 0.4154 0.07754 0.36421 0.0
H1557 H 0.4045 0.08934 0.2862 0.0
H1558 H 0.36599 0.13921 0.24618 0.0
H1559 H 0.39321 0.12302 0.24977 0.0
H1560 H 0.34937 0.11856 0.58644 0.0
H1561 H 0.37395 0.09859 0.58619 0.0
H1562 H 0.31917 0.12703 0.52635 0.0
H1563 H 0.31235 0.14333 0.45083 0.0
C1564 C 0.64716 0.58898 0.2013 0.0
C1565 C 0.6471 0.59198 0.12716 0.0
C1566 C 0.67388 0.62779 0.14061 0.0
C1567 C 0.67488 0.62381 0.2147 0.0
N1568 N 0.66056 0.60177 0.31573 0.0
N1569 N 0.66034 0.61394 0.02538 0.0
C1570 C 0.6609 0.60484 0.24468 0.0
C1571 C 0.6603 0.61149 0.09676 0.0
N1572 N 0.63488 0.57051 0.23286 0.0
N1573 N 0.68599 0.64706 0.11186 0.0
H1574 H 0.64928 0.60357 0.99248 0.0
H1575 H 0.67169 0.62554 -0.00233 0.0
H1576 H 0.69735 0.65856 0.13994 0.0
H1577 H 0.68419 0.65268 0.06018 0.0
H1578 H 0.62455 0.55752 0.20638 0.0
H1579 H 0.62455 0.55752 0.20638 0.0
H1580 H 0.65076 0.58789 0.33999 0.0
H1581 H 0.66947 0.61346 0.35033 0.0
C1582 C 0.16193 0.87892 0.95479 0.0
C1583 C 0.16554 0.8823 0.88134 0.0
C1584 C 0.1387 0.91824 0.88504 0.0
C1585 C 0.1356 0.91513 0.95862 0.0
N1586 N 0.13952 0.8898 0.06029 0.0
N1587 N 0.15353 0.90183 0.7743 0.0
C1588 C 0.14581 0.89462 0.9924 0.0
C1589 C 0.15272 0.901 0.84588 0.0
N1590 N 0.1748 0.86147 0.98968 0.0
N1591 N 0.129 0.9382 0.85293 0.0
H1592 H 0.16342 0.88935 0.74452 0.0
H1593 H 0.14292 0.9134 0.74392 0.0
H1594 H 0.11772 0.95053 0.87858 0.0
H1595 H 0.13301 0.94336 0.80182 0.0
H1596 H 0.17584 0.86041 0.04403 0.0
H1597 H 0.18549 0.84851 0.96474 0.0
H1598 H 0.14402 0.8738 0.08626 0.0
H1599 H 0.12784 0.90095 0.0891 0.0
loop_
_geom_bond_atom_site_label_1
_geom_bond_atom_site_label_2
_geom_bond_distance
_geom_bond_site_symmetry_2
_ccdc_geom_bond_type
Co0 O1 2.216 . S
Co0 O2 2.091 . S
Co0 O4 2.004 . S
Co0 O10 2.021 . S
Co0 O12 2.137 1_554 S
Co0 O13 2.244 1_554 S
O1 Co0 2.216 . S
O1 C8 1.247 . S
O2 Co0 2.091 . S
O2 C8 1.261 . S
C3 O12 1.247 . S
C3 O13 1.272 . S
O4 Co0 2.004 . S
O4 C9 1.259 . S
Co5 O6 2.061 . S
Co5 O11 2.052 . S
Co5 O13 2.135 1_554 S
O6 Co5 2.061 . S
O6 C9 1.235 . S
C7 O10 1.238 . S
C7 O11 1.241 . S
C8 O1 1.247 . S
C8 O2 1.261 . S
C9 O4 1.259 . S
C9 O6 1.235 . S
O10 Co0 2.021 . S
O10 C7 1.238 . S
O11 Co5 2.052 . S
O11 C7 1.241 . S
O12 Co0 2.137 1_556 S
O12 C3 1.247 . S
O13 Co0 2.244 1_556 S
O13 C3 1.272 . S
O13 Co5 2.135 1_556 S
Co14 O15 2.216 . S
Co14 O16 2.091 . S
Co14 O18 2.004 . S
Co14 O24 2.021 . S
Co14 O26 2.137 . S
Co14 O27 2.244 . S
O15 Co14 2.216 . S
O15 C22 1.247 . S
O16 Co14 2.091 . S
O16 C22 1.261 . S
C17 O26 1.247 . S
C17 O27 1.272 . S
O18 Co14 2.004 . S
O18 C23 1.259 . S
Co19 O20 2.061 . S
Co19 O25 2.052 . S
Co19 O27 2.135 . S
O20 Co19 2.061 . S
O20 C23 1.235 . S
C21 O24 1.238 . S
C21 O25 1.241 . S
C22 O15 1.247 . S
C22 O16 1.261 . S
C23 O18 1.259 . S
C23 O20 1.235 . S
O24 Co14 2.021 . S
O24 C21 1.238 . S
O25 Co19 2.052 . S
O25 C21 1.241 . S
O26 Co14 2.137 . S
O26 C17 1.247 . S
O27 Co14 2.244 . S
O27 C17 1.272 . S
O27 Co19 2.135 . S
Co28 O29 2.216 . S
Co28 O30 2.091 . S
Co28 O32 2.004 . S
Co28 O38 2.021 . S
Co28 O40 2.137 . S
Co28 O41 2.244 . S
O29 Co28 2.216 . S
O29 C36 1.247 . S
O30 Co28 2.091 . S
O30 C36 1.261 . S
C31 O40 1.247 . S
C31 O41 1.272 . S
O32 Co28 2.004 . S
O32 C37 1.259 . S
Co33 O34 2.061 . S
Co33 O39 2.052 . S
Co33 O41 2.135 . S
O34 Co33 2.061 . S
O34 C37 1.235 . S
C35 O38 1.238 . S
C35 O39 1.241 . S
C36 O29 1.247 . S
C36 O30 1.261 . S
C37 O32 1.259 . S
C37 O34 1.235 . S
O38 Co28 2.021 . S
O38 C35 1.238 . S
O39 Co33 2.052 . S
O39 C35 1.241 . S
O40 Co28 2.137 . S
O40 C31 1.247 . S
O41 Co28 2.244 . S
O41 C31 1.272 . S
O41 Co33 2.135 . S
Co42 O43 2.216 . S
Co42 O44 2.091 . S
Co42 O46 2.004 . S
Co42 O52 2.021 . S
Co42 O54 2.137 . S
Co42 O55 2.244 . S
O43 Co42 2.216 . S
O43 C50 1.247 . S
O44 Co42 2.091 . S
O44 C50 1.261 . S
C45 O54 1.247 . S
C45 O55 1.272 . S
O46 Co42 2.004 . S
O46 C51 1.259 . S
Co47 O48 2.061 . S
Co47 O53 2.052 . S
Co47 O55 2.135 . S
O48 Co47 2.061 . S
O48 C51 1.235 . S
C49 O52 1.238 . S
C49 O53 1.241 . S
C50 O43 1.247 . S
C50 O44 1.261 . S
C51 O46 1.259 . S
C51 O48 1.235 . S
O52 Co42 2.021 . S
O52 C49 1.238 . S
O53 Co47 2.052 . S
O53 C49 1.241 . S
O54 Co42 2.137 . S
O54 C45 1.247 . S
O55 Co42 2.244 . S
O55 C45 1.272 . S
O55 Co47 2.135 . S
Co56 O57 2.216 . S
Co56 O58 2.091 . S
Co56 O60 2.004 . S
Co56 O66 2.021 . S
Co56 O68 2.137 . S
Co56 O69 2.244 . S
O57 Co56 2.216 . S
O57 C64 1.247 . S
O58 Co56 2.091 . S
O58 C64 1.261 . S
C59 O68 1.247 . S
C59 O69 1.272 . S
O60 Co56 2.004 . S
O60 C65 1.259 . S
Co61 O62 2.061 . S
Co61 O67 2.052 . S
Co61 O69 2.135 . S
O62 Co61 2.061 . S
O62 C65 1.235 . S
C63 O66 1.238 . S
C63 O67 1.241 . S
C64 O57 1.247 . S
C64 O58 1.261 . S
C65 O60 1.259 . S
C65 O62 1.235 . S
O66 Co56 2.021 . S
O66 C63 1.238 . S
O67 Co61 2.052 . S
O67 C63 1.241 . S
O68 Co56 2.137 . S
O68 C59 1.247 . S
O69 Co56 2.244 . S
O69 C59 1.272 . S
O69 Co61 2.135 . S
Co70 O71 2.216 . S
Co70 O72 2.091 . S
Co70 O74 2.004 . S
Co70 O80 2.021 . S
Co70 O82 2.137 . S
Co70 O83 2.244 . S
O71 Co70 2.216 . S
O71 C78 1.247 . S
O72 Co70 2.091 . S
O72 C78 1.261 . S
C73 O82 1.247 . S
C73 O83 1.272 . S
O74 Co70 2.004 . S
O74 C79 1.259 . S
Co75 O76 2.061 . S
Co75 O81 2.052 . S
Co75 O83 2.135 . S
O76 Co75 2.061 . S
O76 C79 1.235 . S
C77 O80 1.238 . S
C77 O81 1.241 . S
C78 O71 1.247 . S
C78 O72 1.261 . S
C79 O74 1.259 . S
C79 O76 1.235 . S
O80 Co70 2.021 . S
O80 C77 1.238 . S
O81 Co75 2.052 . S
O81 C77 1.241 . S
O82 Co70 2.137 . S
O82 C73 1.247 . S
O83 Co70 2.244 . S
O83 C73 1.272 . S
O83 Co75 2.135 . S
Co84 O85 2.216 . S
Co84 O86 2.091 . S
Co84 O88 2.004 . S
Co84 O94 2.021 1_554 S
Co84 O96 2.137 . S
Co84 O97 2.244 . S
O85 Co84 2.216 . S
O85 C92 1.247 . S
O86 Co84 2.091 . S
O86 C92 1.261 . S
C87 O96 1.247 . S
C87 O97 1.272 . S
O88 Co84 2.004 . S
O88 C93 1.259 . S
Co89 O90 2.061 . S
Co89 O95 2.052 1_554 S
Co89 O97 2.135 . S
O90 Co89 2.061 . S
O90 C93 1.235 . S
C91 O94 1.238 . S
C91 O95 1.241 . S
C92 O85 1.247 . S
C92 O86 1.261 . S
C93 O88 1.259 . S
C93 O90 1.235 . S
O94 Co84 2.021 1_556 S
O94 C91 1.238 . S
O95 Co89 2.052 1_556 S
O95 C91 1.241 . S
O96 Co84 2.137 . S
O96 C87 1.247 . S
O97 Co84 2.244 . S
O97 C87 1.272 . S
O97 Co89 2.135 . S
Co98 O99 2.216 . S
Co98 O100 2.091 . S
Co98 O102 2.004 . S
Co98 O108 2.021 . S
Co98 O110 2.137 . S
Co98 O111 2.244 . S
O99 Co98 2.216 . S
O99 C106 1.247 . S
O100 Co98 2.091 . S
O100 C106 1.261 . S
C101 O110 1.247 . S
C101 O111 1.272 . S
O102 Co98 2.004 . S
O102 C107 1.259 . S
Co103 O104 2.061 . S
Co103 O109 2.052 . S
Co103 O111 2.135 . S
O104 Co103 2.061 . S
O104 C107 1.235 . S
C105 O108 1.238 . S
C105 O109 1.241 . S
C106 O99 1.247 . S
C106 O100 1.261 . S
C107 O102 1.259 . S
C107 O104 1.235 . S
O108 Co98 2.021 . S
O108 C105 1.238 . S
O109 Co103 2.052 . S
O109 C105 1.241 . S
O110 Co98 2.137 . S
O110 C101 1.247 . S
O111 Co98 2.244 . S
O111 C101 1.272 . S
O111 Co103 2.135 . S
Co112 O113 2.216 . S
Co112 O114 2.091 . S
Co112 O116 2.004 . S
Co112 O122 2.021 1_554 S
Co112 O124 2.137 . S
Co112 O125 2.244 . S
O113 Co112 2.216 . S
O113 C120 1.247 . S
O114 Co112 2.091 . S
O114 C120 1.261 . S
C115 O124 1.247 . S
C115 O125 1.272 . S
O116 Co112 2.004 . S
O116 C121 1.259 . S
Co117 O118 2.061 . S
Co117 O123 2.052 1_554 S
Co117 O125 2.135 . S
O118 Co117 2.061 . S
O118 C121 1.235 . S
C119 O122 1.238 . S
C119 O123 1.241 . S
C120 O113 1.247 . S
C120 O114 1.261 . S
C121 O116 1.259 . S
C121 O118 1.235 . S
O122 Co112 2.021 1_556 S
O122 C119 1.238 . S
O123 Co117 2.052 1_556 S
O123 C119 1.241 . S
O124 Co112 2.137 . S
O124 C115 1.247 . S
O125 Co112 2.244 . S
O125 C115 1.272 . S
O125 Co117 2.135 . S
Co126 O127 2.216 . S
Co126 O128 2.091 . S
Co126 O130 2.004 . S
Co126 O136 2.021 . S
Co126 O138 2.137 . S
Co126 O139 2.244 . S
O127 Co126 2.216 . S
O127 C134 1.247 . S
O128 Co126 2.091 . S
O128 C134 1.261 . S
C129 O138 1.247 . S
C129 O139 1.272 . S
O130 Co126 2.004 . S
O130 C135 1.259 . S
Co131 O132 2.061 . S
Co131 O137 2.052 . S
Co131 O139 2.135 . S
O132 Co131 2.061 . S
O132 C135 1.235 . S
C133 O136 1.238 . S
C133 O137 1.241 . S
C134 O127 1.247 . S
C134 O128 1.261 . S
C135 O130 1.259 . S
C135 O132 1.235 . S
O136 Co126 2.021 . S
O136 C133 1.238 . S
O137 Co131 2.052 . S
O137 C133 1.241 . S
O138 Co126 2.137 . S
O138 C129 1.247 . S
O139 Co126 2.244 . S
O139 C129 1.272 . S
O139 Co131 2.135 . S
Co140 O141 2.216 . S
Co140 O142 2.091 . S
Co140 O144 2.004 . S
Co140 O150 2.021 . S
Co140 O152 2.137 . S
Co140 O153 2.244 . S
O141 Co140 2.216 . S
O141 C148 1.247 . S
O142 Co140 2.091 . S
O142 C148 1.261 . S
C143 O152 1.247 . S
C143 O153 1.272 . S
O144 Co140 2.004 . S
O144 C149 1.259 . S
Co145 O146 2.061 . S
Co145 O151 2.052 . S
Co145 O153 2.135 . S
O146 Co145 2.061 . S
O146 C149 1.235 . S
C147 O150 1.238 . S
C147 O151 1.241 . S
C148 O141 1.247 . S
C148 O142 1.261 . S
C149 O144 1.259 . S
C149 O146 1.235 . S
O150 Co140 2.021 . S
O150 C147 1.238 . S
O151 Co145 2.052 . S
O151 C147 1.241 . S
O152 Co140 2.137 . S
O152 C143 1.247 . S
O153 Co140 2.244 . S
O153 C143 1.272 . S
O153 Co145 2.135 . S
Co154 O155 2.216 . S
Co154 O156 2.091 . S
Co154 O158 2.004 . S
Co154 O164 2.021 . S
Co154 O166 2.137 . S
Co154 O167 2.244 . S
O155 Co154 2.216 . S
O155 C162 1.247 . S
O156 Co154 2.091 . S
O156 C162 1.261 . S
C157 O166 1.247 . S
C157 O167 1.272 . S
O158 Co154 2.004 . S
O158 C163 1.259 . S
Co159 O160 2.061 . S
Co159 O165 2.052 . S
Co159 O167 2.135 . S
O160 Co159 2.061 . S
O160 C163 1.235 . S
C161 O164 1.238 . S
C161 O165 1.241 . S
C162 O155 1.247 . S
C162 O156 1.261 . S
C163 O158 1.259 . S
C163 O160 1.235 . S
O164 Co154 2.021 . S
O164 C161 1.238 . S
O165 Co159 2.052 . S
O165 C161 1.241 . S
O166 Co154 2.137 . S
O166 C157 1.247 . S
O167 Co154 2.244 . S
O167 C157 1.272 . S
O167 Co159 2.135 . S
Co168 O169 2.216 . S
Co168 O170 2.091 . S
Co168 O172 2.004 . S
Co168 O178 2.021 . S
Co168 O180 2.137 . S
Co168 O181 2.244 . S
O169 Co168 2.216 . S
O169 C176 1.247 . S
O170 Co168 2.091 . S
O170 C176 1.261 . S
C171 O180 1.247 . S
C171 O181 1.272 . S
O172 Co168 2.004 . S
O172 C177 1.259 . S
Co173 O174 2.061 . S
Co173 O179 2.052 . S
Co173 O181 2.135 . S
O174 Co173 2.061 . S
O174 C177 1.235 . S
C175 O178 1.238 . S
C175 O179 1.241 . S
C176 O169 1.247 . S
C176 O170 1.261 . S
C177 O172 1.259 . S
C177 O174 1.235 . S
O178 Co168 2.021 . S
O178 C175 1.238 . S
O179 Co173 2.052 . S
O179 C175 1.241 . S
O180 Co168 2.137 . S
O180 C171 1.247 . S
O181 Co168 2.244 . S
O181 C171 1.272 . S
O181 Co173 2.135 . S
Co182 O183 2.216 . S
Co182 O184 2.091 . S
Co182 O186 2.004 . S
Co182 O192 2.021 . S
Co182 O194 2.137 . S
Co182 O195 2.244 . S
O183 Co182 2.216 . S
O183 C190 1.247 . S
O184 Co182 2.091 . S
O184 C190 1.261 . S
C185 O194 1.247 . S
C185 O195 1.272 . S
O186 Co182 2.004 . S
O186 C191 1.259 . S
Co187 O188 2.061 . S
Co187 O193 2.052 . S
Co187 O195 2.135 . S
O188 Co187 2.061 . S
O188 C191 1.235 . S
C189 O192 1.238 . S
C189 O193 1.241 . S
C190 O183 1.247 . S
C190 O184 1.261 . S
C191 O186 1.259 . S
C191 O188 1.235 . S
O192 Co182 2.021 . S
O192 C189 1.238 . S
O193 Co187 2.052 . S
O193 C189 1.241 . S
O194 Co182 2.137 . S
O194 C185 1.247 . S
O195 Co182 2.244 . S
O195 C185 1.272 . S
O195 Co187 2.135 . S
Co196 O197 2.216 . S
Co196 O198 2.091 . S
Co196 O200 2.004 . S
Co196 O206 2.021 . S
Co196 O208 2.137 1_554 S
Co196 O209 2.244 1_554 S
O197 Co196 2.216 . S
O197 C204 1.247 . S
O198 Co196 2.091 . S
O198 C204 1.261 . S
C199 O208 1.247 . S
C199 O209 1.272 . S
O200 Co196 2.004 . S
O200 C205 1.259 . S
Co201 O202 2.061 . S
Co201 O207 2.052 . S
Co201 O209 2.135 1_554 S
O202 Co201 2.061 . S
O202 C205 1.235 . S
C203 O206 1.238 . S
C203 O207 1.241 . S
C204 O197 1.247 . S
C204 O198 1.261 . S
C205 O200 1.259 . S
C205 O202 1.235 . S
O206 Co196 2.021 . S
O206 C203 1.238 . S
O207 Co201 2.052 . S
O207 C203 1.241 . S
O208 Co196 2.137 1_556 S
O208 C199 1.247 . S
O209 Co196 2.244 1_556 S
O209 C199 1.272 . S
O209 Co201 2.135 1_556 S
Co210 O211 2.216 . S
Co210 O212 2.091 . S
Co210 O214 2.004 . S
Co210 O220 2.021 . S
Co210 O222 2.137 . S
Co210 O223 2.244 . S
O211 Co210 2.216 . S
O211 C218 1.247 . S
O212 Co210 2.091 . S
O212 C218 1.261 . S
C213 O222 1.247 . S
C213 O223 1.272 . S
O214 Co210 2.004 . S
O214 C219 1.259 . S
Co215 O216 2.061 . S
Co215 O221 2.052 . S
Co215 O223 2.135 . S
O216 Co215 2.061 . S
O216 C219 1.235 . S
C217 O220 1.238 . S
C217 O221 1.241 . S
C218 O211 1.247 . S
C218 O212 1.261 . S
C219 O214 1.259 . S
C219 O216 1.235 . S
O220 Co210 2.021 . S
O220 C217 1.238 . S
O221 Co215 2.052 . S
O221 C217 1.241 . S
O222 Co210 2.137 . S
O222 C213 1.247 . S
O223 Co210 2.244 . S
O223 C213 1.272 . S
O223 Co215 2.135 . S
Co224 O225 2.216 . S
Co224 O226 2.091 . S
Co224 O228 2.004 . S
Co224 O234 2.021 . S
Co224 O236 2.137 . S
Co224 O237 2.244 1_565 S
O225 Co224 2.216 . S
O225 C232 1.247 . S
O226 Co224 2.091 . S
O226 C232 1.261 . S
C227 O236 1.247 . S
C227 O237 1.272 1_565 S
O228 Co224 2.004 . S
O228 C233 1.259 . S
Co229 O230 2.061 . S
Co229 O235 2.052 . S
Co229 O237 2.135 . S
O230 Co229 2.061 . S
O230 C233 1.235 1_545 S
C231 O234 1.238 1_545 S
C231 O235 1.241 . S
C232 O225 1.247 . S
C232 O226 1.261 . S
C233 O228 1.259 . S
C233 O230 1.235 1_565 S
O234 Co224 2.021 . S
O234 C231 1.238 1_565 S
O235 Co229 2.052 . S
O235 C231 1.241 . S
O236 Co224 2.137 . S
O236 C227 1.247 . S
O237 Co224 2.244 1_545 S
O237 C227 1.272 1_545 S
O237 Co229 2.135 . S
Co238 O239 2.216 . S
Co238 O240 2.091 . S
Co238 O242 2.004 . S
Co238 O248 2.021 . S
Co238 O250 2.137 . S
Co238 O251 2.244 . S
O239 Co238 2.216 . S
O239 C246 1.247 . S
O240 Co238 2.091 . S
O240 C246 1.261 . S
C241 O250 1.247 . S
C241 O251 1.272 . S
O242 Co238 2.004 . S
O242 C247 1.259 . S
Co243 O244 2.061 . S
Co243 O249 2.052 . S
Co243 O251 2.135 . S
O244 Co243 2.061 . S
O244 C247 1.235 . S
C245 O248 1.238 . S
C245 O249 1.241 . S
C246 O239 1.247 . S
C246 O240 1.261 . S
C247 O242 1.259 . S
C247 O244 1.235 . S
O248 Co238 2.021 . S
O248 C245 1.238 . S
O249 Co243 2.052 . S
O249 C245 1.241 . S
O250 Co238 2.137 . S
O250 C241 1.247 . S
O251 Co238 2.244 . S
O251 C241 1.272 . S
O251 Co243 2.135 . S
Co252 O253 2.216 . S
Co252 O254 2.091 . S
Co252 O256 2.004 . S
Co252 O262 2.021 . S
Co252 O264 2.137 1_554 S
Co252 O265 2.244 1_544 S
O253 Co252 2.216 . S
O253 C260 1.247 . S
O254 Co252 2.091 . S
O254 C260 1.261 . S
C255 O264 1.247 . S
C255 O265 1.272 1_545 S
O256 Co252 2.004 . S
O256 C261 1.259 . S
Co257 O258 2.061 . S
Co257 O263 2.052 . S
Co257 O265 2.135 1_554 S
O258 Co257 2.061 . S
O258 C261 1.235 1_565 S
C259 O262 1.238 1_565 S
C259 O263 1.241 . S
C260 O253 1.247 . S
C260 O254 1.261 . S
C261 O256 1.259 . S
C261 O258 1.235 1_545 S
O262 Co252 2.021 . S
O262 C259 1.238 1_545 S
O263 Co257 2.052 . S
O263 C259 1.241 . S
O264 Co252 2.137 1_556 S
O264 C255 1.247 . S
O265 Co252 2.244 1_566 S
O265 C255 1.272 1_565 S
O265 Co257 2.135 1_556 S
Co266 O267 2.216 . S
Co266 O268 2.091 . S
Co266 O270 2.004 . S
Co266 O276 2.021 . S
Co266 O278 2.137 . S
Co266 O279 2.244 . S
O267 Co266 2.216 . S
O267 C274 1.247 . S
O268 Co266 2.091 . S
O268 C274 1.261 . S
C269 O278 1.247 . S
C269 O279 1.272 . S
O270 Co266 2.004 . S
O270 C275 1.259 . S
Co271 O272 2.061 . S
Co271 O277 2.052 . S
Co271 O279 2.135 . S
O272 Co271 2.061 . S
O272 C275 1.235 . S
C273 O276 1.238 . S
C273 O277 1.241 . S
C274 O267 1.247 . S
C274 O268 1.261 . S
C275 O270 1.259 . S
C275 O272 1.235 . S
O276 Co266 2.021 . S
O276 C273 1.238 . S
O277 Co271 2.052 . S
O277 C273 1.241 . S
O278 Co266 2.137 . S
O278 C269 1.247 . S
O279 Co266 2.244 . S
O279 C269 1.272 . S
O279 Co271 2.135 . S
Co280 O281 2.216 . S
Co280 O282 2.091 . S
Co280 O284 2.004 . S
Co280 O290 2.021 1_554 S
Co280 O292 2.137 . S
Co280 O293 2.244 1_545 S
O281 Co280 2.216 . S
O281 C288 1.247 . S
O282 Co280 2.091 . S
O282 C288 1.261 . S
C283 O292 1.247 . S
C283 O293 1.272 1_545 S
O284 Co280 2.004 . S
O284 C289 1.259 . S
Co285 O286 2.061 . S
Co285 O291 2.052 1_554 S
Co285 O293 2.135 . S
O286 Co285 2.061 . S
O286 C289 1.235 1_565 S
C287 O290 1.238 1_565 S
C287 O291 1.241 . S
C288 O281 1.247 . S
C288 O282 1.261 . S
C289 O284 1.259 . S
C289 O286 1.235 1_545 S
O290 Co280 2.021 1_556 S
O290 C287 1.238 1_545 S
O291 Co285 2.052 1_556 S
O291 C287 1.241 . S
O292 Co280 2.137 . S
O292 C283 1.247 . S
O293 Co280 2.244 1_565 S
O293 C283 1.272 1_565 S
O293 Co285 2.135 . S
Co294 O295 2.216 . S
Co294 O296 2.091 . S
Co294 O298 2.004 . S
Co294 O304 2.021 . S
Co294 O306 2.137 . S
Co294 O307 2.244 . S
O295 Co294 2.216 . S
O295 C302 1.247 . S
O296 Co294 2.091 . S
O296 C302 1.261 . S
C297 O306 1.247 . S
C297 O307 1.272 . S
O298 Co294 2.004 . S
O298 C303 1.259 . S
Co299 O300 2.061 . S
Co299 O305 2.052 . S
Co299 O307 2.135 . S
O300 Co299 2.061 . S
O300 C303 1.235 . S
C301 O304 1.238 . S
C301 O305 1.241 . S
C302 O295 1.247 . S
C302 O296 1.261 . S
C303 O298 1.259 . S
C303 O300 1.235 . S
O304 Co294 2.021 . S
O304 C301 1.238 . S
O305 Co299 2.052 . S
O305 C301 1.241 . S
O306 Co294 2.137 . S
O306 C297 1.247 . S
O307 Co294 2.244 . S
O307 C297 1.272 . S
O307 Co299 2.135 . S
Co308 O309 2.216 . S
Co308 O310 2.091 . S
Co308 O312 2.004 . S
Co308 O318 2.021 . S
Co308 O320 2.137 . S
Co308 O321 2.244 1_565 S
O309 Co308 2.216 . S
O309 C316 1.247 . S
O310 Co308 2.091 . S
O310 C316 1.261 . S
C311 O320 1.247 . S
C311 O321 1.272 1_565 S
O312 Co308 2.004 . S
O312 C317 1.259 . S
Co313 O314 2.061 . S
Co313 O319 2.052 . S
Co313 O321 2.135 . S
O314 Co313 2.061 . S
O314 C317 1.235 1_545 S
C315 O318 1.238 1_545 S
C315 O319 1.241 . S
C316 O309 1.247 . S
C316 O310 1.261 . S
C317 O312 1.259 . S
C317 O314 1.235 1_565 S
O318 Co308 2.021 . S
O318 C315 1.238 1_565 S
O319 Co313 2.052 . S
O319 C315 1.241 . S
O320 Co308 2.137 . S
O320 C311 1.247 . S
O321 Co308 2.244 1_545 S
O321 C311 1.272 1_545 S
O321 Co313 2.135 . S
Co322 O323 2.216 . S
Co322 O324 2.091 . S
Co322 O326 2.004 . S
Co322 O332 2.021 . S
Co322 O334 2.137 . S
Co322 O335 2.244 . S
O323 Co322 2.216 . S
O323 C330 1.247 . S
O324 Co322 2.091 . S
O324 C330 1.261 . S
C325 O334 1.247 . S
C325 O335 1.272 . S
O326 Co322 2.004 . S
O326 C331 1.259 . S
Co327 O328 2.061 . S
Co327 O333 2.052 . S
Co327 O335 2.135 . S
O328 Co327 2.061 . S
O328 C331 1.235 . S
C329 O332 1.238 . S
C329 O333 1.241 . S
C330 O323 1.247 . S
C330 O324 1.261 . S
C331 O326 1.259 . S
C331 O328 1.235 . S
O332 Co322 2.021 . S
O332 C329 1.238 . S
O333 Co327 2.052 . S
O333 C329 1.241 . S
O334 Co322 2.137 . S
O334 C325 1.247 . S
O335 Co322 2.244 . S
O335 C325 1.272 . S
O335 Co327 2.135 . S
Co336 O337 2.216 . S
Co336 O338 2.091 . S
Co336 O340 2.004 . S
Co336 O346 2.021 . S
Co336 O348 2.137 . S
Co336 O349 2.244 1_545 S
O337 Co336 2.216 . S
O337 C344 1.247 . S
O338 Co336 2.091 . S
O338 C344 1.261 . S
C339 O348 1.247 . S
C339 O349 1.272 1_545 S
O340 Co336 2.004 . S
O340 C345 1.259 . S
Co341 O342 2.061 . S
Co341 O347 2.052 . S
Co341 O349 2.135 . S
O342 Co341 2.061 . S
O342 C345 1.235 1_565 S
C343 O346 1.238 1_565 S
C343 O347 1.241 . S
C344 O337 1.247 . S
C344 O338 1.261 . S
C345 O340 1.259 . S
C345 O342 1.235 1_545 S
O346 Co336 2.021 . S
O346 C343 1.238 1_545 S
O347 Co341 2.052 . S
O347 C343 1.241 . S
O348 Co336 2.137 . S
O348 C339 1.247 . S
O349 Co336 2.244 1_565 S
O349 C339 1.272 1_565 S
O349 Co341 2.135 . S
Co350 O351 2.216 . S
Co350 O352 2.091 . S
Co350 O354 2.004 . S
Co350 O360 2.021 . S
Co350 O362 2.137 . S
Co350 O363 2.244 . S
O351 Co350 2.216 . S
O351 C358 1.247 . S
O352 Co350 2.091 . S
O352 C358 1.261 . S
C353 O362 1.247 . S
C353 O363 1.272 . S
O354 Co350 2.004 . S
O354 C359 1.259 . S
Co355 O356 2.061 . S
Co355 O361 2.052 . S
Co355 O363 2.135 . S
O356 Co355 2.061 . S
O356 C359 1.235 . S
C357 O360 1.238 . S
C357 O361 1.241 . S
C358 O351 1.247 . S
C358 O352 1.261 . S
C359 O354 1.259 . S
C359 O356 1.235 . S
O360 Co350 2.021 . S
O360 C357 1.238 . S
O361 Co355 2.052 . S
O361 C357 1.241 . S
O362 Co350 2.137 . S
O362 C353 1.247 . S
O363 Co350 2.244 . S
O363 C353 1.272 . S
O363 Co355 2.135 . S
Co364 O365 2.216 . S
Co364 O366 2.091 . S
Co364 O368 2.004 . S
Co364 O374 2.021 1_554 S
Co364 O376 2.137 . S
Co364 O377 2.244 1_565 S
O365 Co364 2.216 . S
O365 C372 1.247 . S
O366 Co364 2.091 . S
O366 C372 1.261 . S
C367 O376 1.247 . S
C367 O377 1.272 1_565 S
O368 Co364 2.004 . S
O368 C373 1.259 . S
Co369 O370 2.061 . S
Co369 O375 2.052 1_554 S
Co369 O377 2.135 . S
O370 Co369 2.061 . S
O370 C373 1.235 1_545 S
C371 O374 1.238 1_545 S
C371 O375 1.241 . S
C372 O365 1.247 . S
C372 O366 1.261 . S
C373 O368 1.259 . S
C373 O370 1.235 1_565 S
O374 Co364 2.021 1_556 S
O374 C371 1.238 1_565 S
O375 Co369 2.052 1_556 S
O375 C371 1.241 . S
O376 Co364 2.137 . S
O376 C367 1.247 . S
O377 Co364 2.244 1_545 S
O377 C367 1.272 1_545 S
O377 Co369 2.135 . S
Co378 O379 2.216 . S
Co378 O380 2.091 . S
Co378 O382 2.004 . S
Co378 O388 2.021 . S
Co378 O390 2.137 . S
Co378 O391 2.244 . S
O379 Co378 2.216 . S
O379 C386 1.247 . S
O380 Co378 2.091 . S
O380 C386 1.261 . S
C381 O390 1.247 . S
C381 O391 1.272 . S
O382 Co378 2.004 . S
O382 C387 1.259 . S
Co383 O384 2.061 . S
Co383 O389 2.052 . S
Co383 O391 2.135 . S
O384 Co383 2.061 . S
O384 C387 1.235 . S
C385 O388 1.238 . S
C385 O389 1.241 . S
C386 O379 1.247 . S
C386 O380 1.261 . S
C387 O382 1.259 . S
C387 O384 1.235 . S
O388 Co378 2.021 . S
O388 C385 1.238 . S
O389 Co383 2.052 . S
O389 C385 1.241 . S
O390 Co378 2.137 . S
O390 C381 1.247 . S
O391 Co378 2.244 . S
O391 C381 1.272 . S
O391 Co383 2.135 . S
Co392 O393 2.216 . S
Co392 O394 2.091 . S
Co392 O396 2.004 . S
Co392 O402 2.021 . S
Co392 O404 2.137 1_554 S
Co392 O405 2.244 1_564 S
O393 Co392 2.216 . S
O393 C400 1.247 . S
O394 Co392 2.091 . S
O394 C400 1.261 . S
C395 O404 1.247 . S
C395 O405 1.272 1_565 S
O396 Co392 2.004 . S
O396 C401 1.259 . S
Co397 O398 2.061 . S
Co397 O403 2.052 . S
Co397 O405 2.135 1_554 S
O398 Co397 2.061 . S
O398 C401 1.235 1_545 S
C399 O402 1.238 1_545 S
C399 O403 1.241 . S
C400 O393 1.247 . S
C400 O394 1.261 . S
C401 O396 1.259 . S
C401 O398 1.235 1_565 S
O402 Co392 2.021 . S
O402 C399 1.238 1_565 S
O403 Co397 2.052 . S
O403 C399 1.241 . S
O404 Co392 2.137 1_556 S
O404 C395 1.247 . S
O405 Co392 2.244 1_546 S
O405 C395 1.272 1_545 S
O405 Co397 2.135 1_556 S
Co406 O407 2.216 . S
Co406 O408 2.091 . S
Co406 O410 2.004 . S
Co406 O416 2.021 . S
Co406 O418 2.137 . S
Co406 O419 2.244 . S
O407 Co406 2.216 . S
O407 C414 1.247 . S
O408 Co406 2.091 . S
O408 C414 1.261 . S
C409 O418 1.247 . S
C409 O419 1.272 . S
O410 Co406 2.004 . S
O410 C415 1.259 . S
Co411 O412 2.061 . S
Co411 O417 2.052 . S
Co411 O419 2.135 . S
O412 Co411 2.061 . S
O412 C415 1.235 . S
C413 O416 1.238 . S
C413 O417 1.241 . S
C414 O407 1.247 . S
C414 O408 1.261 . S
C415 O410 1.259 . S
C415 O412 1.235 . S
O416 Co406 2.021 . S
O416 C413 1.238 . S
O417 Co411 2.052 . S
O417 C413 1.241 . S
O418 Co406 2.137 . S
O418 C409 1.247 . S
O419 Co406 2.244 . S
O419 C409 1.272 . S
O419 Co411 2.135 . S
Co420 O421 2.216 . S
Co420 O422 2.091 . S
Co420 O424 2.004 . S
Co420 O430 2.021 . S
Co420 O432 2.137 . S
Co420 O433 2.244 1_545 S
O421 Co420 2.216 . S
O421 C428 1.247 . S
O422 Co420 2.091 . S
O422 C428 1.261 . S
C423 O432 1.247 . S
C423 O433 1.272 1_545 S
O424 Co420 2.004 . S
O424 C429 1.259 . S
Co425 O426 2.061 . S
Co425 O431 2.052 . S
Co425 O433 2.135 . S
O426 Co425 2.061 . S
O426 C429 1.235 1_565 S
C427 O430 1.238 1_565 S
C427 O431 1.241 . S
C428 O421 1.247 . S
C428 O422 1.261 . S
C429 O424 1.259 . S
C429 O426 1.235 1_545 S
O430 Co420 2.021 . S
O430 C427 1.238 1_545 S
O431 Co425 2.052 . S
O431 C427 1.241 . S
O432 Co420 2.137 . S
O432 C423 1.247 . S
O433 Co420 2.244 1_565 S
O433 C423 1.272 1_565 S
O433 Co425 2.135 . S
Co434 O435 2.216 . S
Co434 O436 2.091 . S
Co434 O438 2.004 . S
Co434 O444 2.021 . S
Co434 O446 2.137 . S
Co434 O447 2.244 . S
O435 Co434 2.216 . S
O435 C442 1.247 . S
O436 Co434 2.091 . S
O436 C442 1.261 . S
C437 O446 1.247 . S
C437 O447 1.272 . S
O438 Co434 2.004 . S
O438 C443 1.259 . S
Co439 O440 2.061 . S
Co439 O445 2.052 . S
Co439 O447 2.135 . S
O440 Co439 2.061 . S
O440 C443 1.235 . S
C441 O444 1.238 . S
C441 O445 1.241 . S
C442 O435 1.247 . S
C442 O436 1.261 . S
C443 O438 1.259 . S
C443 O440 1.235 . S
O444 Co434 2.021 . S
O444 C441 1.238 . S
O445 Co439 2.052 . S
O445 C441 1.241 . S
O446 Co434 2.137 . S
O446 C437 1.247 . S
O447 Co434 2.244 . S
O447 C437 1.272 . S
O447 Co439 2.135 . S
C448 C449 1.363 . S
C448 C454 1.379 1_655 S
C448 N456 1.356 . S
C449 C448 1.363 . S
C449 C455 1.363 1_554 S
C450 C451 1.363 1_556 S
C450 C455 1.379 1_455 S
C450 N457 1.356 . S
C451 C450 1.363 1_554 S
C451 C454 1.363 . S
N452 C454 1.356 . S
N452 H464 0.984 . S
N452 H465 0.985 . S
N453 C455 1.356 . S
N453 H458 0.984 . S
N453 H459 0.985 . S
C454 C448 1.379 1_455 S
C454 C451 1.363 . S
C454 N452 1.356 . S
C455 C449 1.363 1_556 S
C455 C450 1.379 1_655 S
C455 N453 1.356 . S
N456 C448 1.356 . S
N456 H462 0.984 . S
N456 H463 0.984 . S
N457 C450 1.356 . S
N457 H460 0.984 . S
N457 H461 0.985 . S
H458 N453 0.984 . S
H459 N453 0.985 . S
H460 N457 0.984 . S
H461 N457 0.985 . S
H462 N456 0.984 . S
H463 N456 0.984 . S
H464 N452 0.984 . S
H465 N452 0.985 . S
C466 C467 1.363 . S
C466 C472 1.379 . S
C466 N474 1.356 . S
C467 C466 1.363 . S
C467 C473 1.363 . S
C468 C469 1.363 . S
C468 C473 1.379 . S
C468 N475 1.356 . S
C469 C468 1.363 . S
C469 C472 1.363 . S
N470 C472 1.356 . S
N470 H482 0.984 . S
N470 H483 0.985 . S
N471 C473 1.356 . S
N471 H476 0.984 . S
N471 H477 0.985 . S
C472 C466 1.379 . S
C472 C469 1.363 . S
C472 N470 1.356 . S
C473 C467 1.363 . S
C473 C468 1.379 . S
C473 N471 1.356 . S
N474 C466 1.356 . S
N474 H480 0.984 . S
N474 H481 0.984 . S
N475 C468 1.356 . S
N475 H478 0.984 . S
N475 H479 0.985 . S
H476 N471 0.984 . S
H477 N471 0.985 . S
H478 N475 0.984 . S
H479 N475 0.985 . S
H480 N474 0.984 . S
H481 N474 0.984 . S
H482 N470 0.984 . S
H483 N470 0.985 . S
C484 C485 1.363 . S
C484 C490 1.379 . S
C484 N492 1.356 . S
C485 C484 1.363 . S
C485 C491 1.363 . S
C486 C487 1.363 . S
C486 C491 1.379 . S
C486 N493 1.356 . S
C487 C486 1.363 . S
C487 C490 1.363 . S
N488 C490 1.356 . S
N488 H500 0.984 . S
N488 H501 0.985 . S
N489 C491 1.356 . S
N489 H494 0.984 . S
N489 H495 0.985 . S
C490 C484 1.379 . S
C490 C487 1.363 . S
C490 N488 1.356 . S
C491 C485 1.363 . S
C491 C486 1.379 . S
C491 N489 1.356 . S
N492 C484 1.356 . S
N492 H498 0.984 . S
N492 H499 0.984 . S
N493 C486 1.356 . S
N493 H496 0.984 . S
N493 H497 0.985 . S
H494 N489 0.984 . S
H495 N489 0.985 . S
H496 N493 0.984 . S
H497 N493 0.985 . S
H498 N492 0.984 . S
H499 N492 0.984 . S
H500 N488 0.984 . S
H501 N488 0.985 . S
C502 C503 1.363 . S
C502 C508 1.379 . S
C502 N510 1.356 . S
C503 C502 1.363 . S
C503 C509 1.363 . S
C504 C505 1.363 . S
C504 C509 1.379 . S
C504 N511 1.356 . S
C505 C504 1.363 . S
C505 C508 1.363 . S
N506 C508 1.356 . S
N506 H518 0.984 . S
N506 H519 0.985 . S
N507 C509 1.356 . S
N507 H512 0.984 . S
N507 H513 0.985 . S
C508 C502 1.379 . S
C508 C505 1.363 . S
C508 N506 1.356 . S
C509 C503 1.363 . S
C509 C504 1.379 . S
C509 N507 1.356 . S
N510 C502 1.356 . S
N510 H516 0.984 . S
N510 H517 0.984 . S
N511 C504 1.356 . S
N511 H514 0.984 . S
N511 H515 0.985 . S
H512 N507 0.984 . S
H513 N507 0.985 . S
H514 N511 0.984 . S
H515 N511 0.985 . S
H516 N510 0.984 . S
H517 N510 0.984 . S
H518 N506 0.984 . S
H519 N506 0.985 . S
C520 C521 1.363 . S
C520 C526 1.379 1_455 S
C520 N528 1.356 . S
C521 C520 1.363 . S
C521 C527 1.363 . S
C522 C523 1.363 . S
C522 C527 1.379 1_655 S
C522 N529 1.356 . S
C523 C522 1.363 . S
C523 C526 1.363 . S
N524 C526 1.356 . S
N524 H536 0.984 . S
N524 H537 0.985 . S
N525 C527 1.356 . S
N525 H530 0.984 . S
N525 H531 0.985 . S
C526 C520 1.379 1_655 S
C526 C523 1.363 . S
C526 N524 1.356 . S
C527 C521 1.363 . S
C527 C522 1.379 1_455 S
C527 N525 1.356 . S
N528 C520 1.356 . S
N528 H534 0.984 . S
N528 H535 0.984 . S
N529 C522 1.356 . S
N529 H532 0.984 . S
N529 H533 0.985 . S
H530 N525 0.984 . S
H531 N525 0.985 . S
H532 N529 0.984 . S
H533 N529 0.985 . S
H534 N528 0.984 . S
H535 N528 0.984 . S
H536 N524 0.984 . S
H537 N524 0.985 . S
C538 C539 1.363 . S
C538 C544 1.379 . S
C538 N546 1.356 . S
C539 C538 1.363 . S
C539 C545 1.363 . S
C540 C541 1.363 . S
C540 C545 1.379 . S
C540 N547 1.356 . S
C541 C540 1.363 . S
C541 C544 1.363 . S
N542 C544 1.356 . S
N542 H554 0.984 . S
N542 H555 0.985 . S
N543 C545 1.356 . S
N543 H548 0.984 . S
N543 H549 0.985 . S
C544 C538 1.379 . S
C544 C541 1.363 . S
C544 N542 1.356 . S
C545 C539 1.363 . S
C545 C540 1.379 . S
C545 N543 1.356 . S
N546 C538 1.356 . S
N546 H552 0.984 . S
N546 H553 0.984 . S
N547 C540 1.356 . S
N547 H550 0.984 . S
N547 H551 0.985 . S
H548 N543 0.984 . S
H549 N543 0.985 . S
H550 N547 0.984 . S
H551 N547 0.985 . S
H552 N546 0.984 . S
H553 N546 0.984 . S
H554 N542 0.984 . S
H555 N542 0.985 . S
C556 C557 1.363 . S
C556 C562 1.379 . S
C556 N564 1.356 . S
C557 C556 1.363 . S
C557 C563 1.363 1_554 S
C558 C559 1.363 1_556 S
C558 C563 1.379 . S
C558 N565 1.356 . S
C559 C558 1.363 1_554 S
C559 C562 1.363 . S
N560 C562 1.356 . S
N560 H572 0.984 . S
N560 H573 0.985 . S
N561 C563 1.356 . S
N561 H566 0.984 . S
N561 H567 0.985 . S
C562 C556 1.379 . S
C562 C559 1.363 . S
C562 N560 1.356 . S
C563 C557 1.363 1_556 S
C563 C558 1.379 . S
C563 N561 1.356 . S
N564 C556 1.356 . S
N564 H570 0.984 . S
N564 H571 0.984 . S
N565 C558 1.356 . S
N565 H568 0.984 . S
N565 H569 0.985 . S
H566 N561 0.984 . S
H567 N561 0.985 . S
H568 N565 0.984 . S
H569 N565 0.985 . S
H570 N564 0.984 . S
H571 N564 0.984 . S
H572 N560 0.984 . S
H573 N560 0.985 . S
C574 C575 1.363 . S
C574 C580 1.379 . S
C574 N582 1.356 . S
C575 C574 1.363 . S
C575 C581 1.363 . S
C576 C577 1.363 . S
C576 C581 1.379 . S
C576 N583 1.356 . S
C577 C576 1.363 . S
C577 C580 1.363 . S
N578 C580 1.356 . S
N578 H590 0.984 . S
N578 H591 0.985 . S
N579 C581 1.356 . S
N579 H584 0.984 . S
N579 H585 0.985 . S
C580 C574 1.379 . S
C580 C577 1.363 . S
C580 N578 1.356 . S
C581 C575 1.363 . S
C581 C576 1.379 . S
C581 N579 1.356 . S
N582 C574 1.356 . S
N582 H588 0.984 . S
N582 H589 0.984 . S
N583 C576 1.356 . S
N583 H586 0.984 . S
N583 H587 0.985 . S
H584 N579 0.984 . S
H585 N579 0.985 . S
H586 N583 0.984 . S
H587 N583 0.985 . S
H588 N582 0.984 . S
H589 N582 0.984 . S
H590 N578 0.984 . S
H591 N578 0.985 . S
C592 C593 1.363 . S
C592 C598 1.379 . S
C592 N600 1.356 . S
C593 C592 1.363 . S
C593 C599 1.363 . S
C594 C595 1.363 . S
C594 C599 1.379 . S
C594 N601 1.356 . S
C595 C594 1.363 . S
C595 C598 1.363 . S
N596 C598 1.356 . S
N596 H608 0.984 . S
N596 H609 0.985 . S
N597 C599 1.356 . S
N597 H602 0.984 . S
N597 H603 0.985 . S
C598 C592 1.379 . S
C598 C595 1.363 . S
C598 N596 1.356 . S
C599 C593 1.363 . S
C599 C594 1.379 . S
C599 N597 1.356 . S
N600 C592 1.356 . S
N600 H606 0.984 . S
N600 H607 0.984 . S
N601 C594 1.356 . S
N601 H604 0.984 . S
N601 H605 0.985 . S
H602 N597 0.984 . S
H603 N597 0.985 . S
H604 N601 0.984 . S
H605 N601 0.985 . S
H606 N600 0.984 . S
H607 N600 0.984 . S
H608 N596 0.984 . S
H609 N596 0.985 . S
C610 C611 1.363 . S
C610 C616 1.379 . S
C610 N618 1.356 . S
C611 C610 1.363 . S
C611 C617 1.363 . S
C612 C613 1.363 . S
C612 C617 1.379 . S
C612 N619 1.356 . S
C613 C612 1.363 . S
C613 C616 1.363 . S
N614 C616 1.356 . S
N614 H626 0.984 . S
N614 H627 0.985 . S
N615 C617 1.356 . S
N615 H620 0.984 . S
N615 H621 0.985 . S
C616 C610 1.379 . S
C616 C613 1.363 . S
C616 N614 1.356 . S
C617 C611 1.363 . S
C617 C612 1.379 . S
C617 N615 1.356 . S
N618 C610 1.356 . S
N618 H624 0.984 . S
N618 H625 0.984 . S
N619 C612 1.356 . S
N619 H622 0.984 . S
N619 H623 0.985 . S
H620 N615 0.984 . S
H621 N615 0.985 . S
H622 N619 0.984 . S
H623 N619 0.985 . S
H624 N618 0.984 . S
H625 N618 0.984 . S
H626 N614 0.984 . S
H627 N614 0.985 . S
C628 C629 1.363 . S
C628 C634 1.379 . S
C628 N636 1.356 . S
C629 C628 1.363 . S
C629 C635 1.363 . S
C630 C631 1.363 . S
C630 C635 1.379 . S
C630 N637 1.356 . S
C631 C630 1.363 . S
C631 C634 1.363 . S
N632 C634 1.356 . S
N632 H644 0.984 . S
N632 H645 0.985 . S
N633 C635 1.356 . S
N633 H638 0.984 . S
N633 H639 0.985 . S
C634 C628 1.379 . S
C634 C631 1.363 . S
C634 N632 1.356 . S
C635 C629 1.363 . S
C635 C630 1.379 . S
C635 N633 1.356 . S
N636 C628 1.356 . S
N636 H642 0.984 . S
N636 H643 0.984 . S
N637 C630 1.356 . S
N637 H640 0.984 . S
N637 H641 0.985 . S
H638 N633 0.984 . S
H639 N633 0.985 . S
H640 N637 0.984 . S
H641 N637 0.985 . S
H642 N636 0.984 . S
H643 N636 0.984 . S
H644 N632 0.984 . S
H645 N632 0.985 . S
C646 C647 1.363 . S
C646 C652 1.379 . S
C646 N654 1.356 . S
C647 C646 1.363 . S
C647 C653 1.363 . S
C648 C649 1.363 . S
C648 C653 1.379 . S
C648 N655 1.356 . S
C649 C648 1.363 . S
C649 C652 1.363 . S
N650 C652 1.356 . S
N650 H662 0.984 . S
N650 H663 0.985 . S
N651 C653 1.356 . S
N651 H656 0.984 . S
N651 H657 0.985 . S
C652 C646 1.379 . S
C652 C649 1.363 . S
C652 N650 1.356 . S
C653 C647 1.363 . S
C653 C648 1.379 . S
C653 N651 1.356 . S
N654 C646 1.356 . S
N654 H660 0.984 . S
N654 H661 0.984 . S
N655 C648 1.356 . S
N655 H658 0.984 . S
N655 H659 0.985 . S
H656 N651 0.984 . S
H657 N651 0.985 . S
H658 N655 0.984 . S
H659 N655 0.985 . S
H660 N654 0.984 . S
H661 N654 0.984 . S
H662 N650 0.984 . S
H663 N650 0.985 . S
C664 C665 1.363 . S
C664 C670 1.379 . S
C664 N672 1.356 . S
C665 C664 1.363 . S
C665 C671 1.363 1_545 S
C666 C667 1.363 . S
C666 C671 1.379 . S
C666 N673 1.356 . S
C667 C666 1.363 . S
C667 C670 1.363 1_565 S
N668 C670 1.356 . S
N668 H680 0.984 . S
N668 H681 0.985 . S
N669 C671 1.356 . S
N669 H674 0.984 . S
N669 H675 0.985 . S
C670 C664 1.379 . S
C670 C667 1.363 1_545 S
C670 N668 1.356 . S
C671 C665 1.363 1_565 S
C671 C666 1.379 . S
C671 N669 1.356 . S
N672 C664 1.356 . S
N672 H678 0.984 . S
N672 H679 0.984 . S
N673 C666 1.356 . S
N673 H676 0.984 . S
N673 H677 0.985 . S
H674 N669 0.984 . S
H675 N669 0.985 . S
H676 N673 0.984 . S
H677 N673 0.985 . S
H678 N672 0.984 . S
H679 N672 0.984 . S
H680 N668 0.984 . S
H681 N668 0.985 . S
C682 C683 1.363 . S
C682 C688 1.379 1_655 S
C682 N690 1.356 . S
C683 C682 1.363 . S
C683 C689 1.368 1_545 S
C684 C685 1.363 1_556 S
C684 C689 1.379 1_456 S
C684 N691 1.356 . S
C685 C684 1.363 1_554 S
C685 C688 1.363 1_565 S
N686 C688 1.356 . S
N686 H698 0.984 . S
N686 H699 0.966 1_545 S
N687 C689 1.353 1_556 S
N687 H692 0.967 1_565 S
N687 H693 0.985 . S
C688 C682 1.379 1_455 S
C688 C685 1.363 1_545 S
C688 N686 1.356 . S
C689 C683 1.368 1_565 S
C689 C684 1.379 1_654 S
C689 N687 1.353 1_554 S
N690 C682 1.356 . S
N690 H696 0.984 . S
N690 H697 0.984 . S
N691 C684 1.356 . S
N691 H694 0.984 . S
N691 H695 0.985 . S
H692 N687 0.967 1_545 S
H693 N687 0.985 . S
H694 N691 0.984 . S
H695 N691 0.985 . S
H696 N690 0.984 . S
H697 N690 0.984 . S
H698 N686 0.984 . S
H699 N686 0.966 1_565 S
C700 C701 1.363 1_565 S
C700 C706 1.379 . S
C700 N708 1.356 . S
C701 C700 1.363 1_545 S
C701 C707 1.363 1_554 S
C702 C703 1.363 1_546 S
C702 C707 1.379 . S
C702 N709 1.356 . S
C703 C702 1.363 1_564 S
C703 C706 1.363 . S
N704 C706 1.356 . S
N704 H716 0.984 . S
N704 H717 0.985 . S
N705 C707 1.356 . S
N705 H710 0.984 . S
N705 H711 0.985 . S
C706 C700 1.379 . S
C706 C703 1.363 . S
C706 N704 1.356 . S
C707 C701 1.363 1_556 S
C707 C702 1.379 . S
C707 N705 1.356 . S
N708 C700 1.356 . S
N708 H714 0.984 . S
N708 H715 0.984 1_565 S
N709 C702 1.356 . S
N709 H712 0.984 1_545 S
N709 H713 0.985 . S
H710 N705 0.984 . S
H711 N705 0.985 . S
H712 N709 0.984 1_565 S
H713 N709 0.985 . S
H714 N708 0.984 . S
H715 N708 0.984 1_545 S
H716 N704 0.984 . S
H717 N704 0.985 . S
C718 C719 1.363 . S
C718 C724 1.379 1_455 S
C718 N726 1.356 . S
C719 C718 1.363 . S
C719 C725 1.363 1_545 S
C720 C721 1.363 . S
C720 C725 1.379 1_655 S
C720 N727 1.356 . S
C721 C720 1.363 . S
C721 C724 1.363 1_565 S
N722 C724 1.356 . S
N722 H734 0.984 . S
N722 H735 0.985 1_545 S
N723 C725 1.356 . S
N723 H728 0.984 1_565 S
N723 H729 0.985 . S
C724 C718 1.379 1_655 S
C724 C721 1.363 1_545 S
C724 N722 1.356 . S
C725 C719 1.363 1_565 S
C725 C720 1.379 1_455 S
C725 N723 1.356 . S
N726 C718 1.356 . S
N726 H732 0.984 . S
N726 H733 0.984 . S
N727 C720 1.356 . S
N727 H730 0.984 . S
N727 H731 0.985 . S
H728 N723 0.984 1_545 S
H729 N723 0.985 . S
H730 N727 0.984 . S
H731 N727 0.985 . S
H732 N726 0.984 . S
H733 N726 0.984 . S
H734 N722 0.984 . S
H735 N722 0.985 1_565 S
C736 C737 1.363 . S
C736 C742 1.379 . S
C736 N744 1.356 . S
C737 C736 1.363 . S
C737 C743 1.363 . S
C738 C739 1.363 . S
C738 C743 1.379 . S
C738 N745 1.356 . S
C739 C738 1.363 . S
C739 C742 1.363 . S
N740 C742 1.356 . S
N740 H752 0.984 . S
N740 H753 0.985 . S
N741 C743 1.356 . S
N741 H746 0.984 . S
N741 H747 0.985 . S
C742 C736 1.379 . S
C742 C739 1.363 . S
C742 N740 1.356 . S
C743 C737 1.363 . S
C743 C738 1.379 . S
C743 N741 1.356 . S
N744 C736 1.356 . S
N744 H750 0.984 . S
N744 H751 0.984 . S
N745 C738 1.356 . S
N745 H748 0.984 . S
N745 H749 0.985 . S
H746 N741 0.984 . S
H747 N741 0.985 . S
H748 N745 0.984 . S
H749 N745 0.985 . S
H750 N744 0.984 . S
H751 N744 0.984 . S
H752 N740 0.984 . S
H753 N740 0.985 . S
C754 C755 1.363 1_554 S
C754 C760 1.379 . S
C754 N762 1.356 1_554 S
C755 C754 1.363 1_556 S
C755 C761 1.363 1_556 S
C756 C757 1.363 . S
C756 C761 1.379 . S
C756 N763 1.356 . S
C757 C756 1.363 . S
C757 C760 1.363 . S
N758 C760 1.356 . S
N758 H770 0.984 . S
N758 H771 0.985 . S
N759 C761 1.356 1_556 S
N759 H764 0.984 . S
N759 H765 0.985 . S
C760 C754 1.379 . S
C760 C757 1.363 . S
C760 N758 1.356 . S
C761 C755 1.363 1_554 S
C761 C756 1.379 . S
C761 N759 1.356 1_554 S
N762 C754 1.356 1_556 S
N762 H768 0.984 . S
N762 H769 0.984 . S
N763 C756 1.356 . S
N763 H766 0.984 . S
N763 H767 0.985 . S
H764 N759 0.984 . S
H765 N759 0.985 . S
H766 N763 0.984 . S
H767 N763 0.985 . S
H768 N762 0.984 . S
H769 N762 0.984 . S
H770 N758 0.984 . S
H771 N758 0.985 . S
C772 C773 1.363 . S
C772 C778 1.379 . S
C772 N780 1.356 . S
C773 C772 1.363 . S
C773 C779 1.363 . S
C774 C775 1.363 . S
C774 C779 1.379 . S
C774 N781 1.356 . S
C775 C774 1.363 . S
C775 C778 1.363 . S
N776 C778 1.356 . S
N776 H788 0.984 . S
N776 H789 0.985 . S
N777 C779 1.356 . S
N777 H782 0.984 . S
N777 H783 0.985 . S
C778 C772 1.379 . S
C778 C775 1.363 . S
C778 N776 1.356 . S
C779 C773 1.363 . S
C779 C774 1.379 . S
C779 N777 1.356 . S
N780 C772 1.356 . S
N780 H786 0.984 . S
N780 H787 0.984 . S
N781 C774 1.356 . S
N781 H784 0.984 . S
N781 H785 0.985 . S
H782 N777 0.984 . S
H783 N777 0.985 . S
H784 N781 0.984 . S
H785 N781 0.985 . S
H786 N780 0.984 . S
H787 N780 0.984 . S
H788 N776 0.984 . S
H789 N776 0.985 . S
C790 C791 1.363 . S
C790 C796 1.379 . S
C790 N798 1.356 . S
C791 C790 1.363 . S
C791 C797 1.363 . S
C792 C793 1.363 . S
C792 C797 1.379 . S
C792 N799 1.356 . S
C793 C792 1.363 . S
C793 C796 1.363 . S
N794 C796 1.356 . S
N794 H806 0.984 . S
N794 H807 0.985 . S
N795 C797 1.356 . S
N795 H800 0.984 . S
N795 H801 0.985 . S
C796 C790 1.379 . S
C796 C793 1.363 . S
C796 N794 1.356 . S
C797 C791 1.363 . S
C797 C792 1.379 . S
C797 N795 1.356 . S
N798 C790 1.356 . S
N798 H804 0.984 . S
N798 H805 0.984 . S
N799 C792 1.356 . S
N799 H802 0.984 . S
N799 H803 0.985 . S
H800 N795 0.984 . S
H801 N795 0.985 . S
H802 N799 0.984 . S
H803 N799 0.985 . S
H804 N798 0.984 . S
H805 N798 0.984 . S
H806 N794 0.984 . S
H807 N794 0.985 . S
C808 C809 1.363 . S
C808 C814 1.379 . S
C808 N816 1.356 . S
C809 C808 1.363 . S
C809 C815 1.363 . S
C810 C811 1.363 . S
C810 C815 1.379 . S
C810 N817 1.356 . S
C811 C810 1.363 . S
C811 C814 1.363 . S
N812 C814 1.356 . S
N812 H824 0.984 . S
N812 H825 0.985 . S
N813 C815 1.356 . S
N813 H818 0.984 . S
N813 H819 0.985 . S
C814 C808 1.379 . S
C814 C811 1.363 . S
C814 N812 1.356 . S
C815 C809 1.363 . S
C815 C810 1.379 . S
C815 N813 1.356 . S
N816 C808 1.356 . S
N816 H822 0.984 . S
N816 H823 0.984 . S
N817 C810 1.356 . S
N817 H820 0.984 . S
N817 H821 0.985 . S
H818 N813 0.984 . S
H819 N813 0.985 . S
H820 N817 0.984 . S
H821 N817 0.985 . S
H822 N816 0.984 . S
H823 N816 0.984 . S
H824 N812 0.984 . S
H825 N812 0.985 . S
C826 C827 1.363 1_554 S
C826 C832 1.379 . S
C826 N834 1.356 1_554 S
C827 C826 1.363 1_556 S
C827 C833 1.363 1_556 S
C828 C829 1.363 . S
C828 C833 1.379 . S
C828 N835 1.356 . S
C829 C828 1.363 . S
C829 C832 1.363 . S
N830 C832 1.356 . S
N830 H842 0.984 . S
N830 H843 0.985 . S
N831 C833 1.356 1_556 S
N831 H836 0.984 . S
N831 H837 0.985 . S
C832 C826 1.379 . S
C832 C829 1.363 . S
C832 N830 1.356 . S
C833 C827 1.363 1_554 S
C833 C828 1.379 . S
C833 N831 1.356 1_554 S
N834 C826 1.356 1_556 S
N834 H840 0.984 . S
N834 H841 0.984 . S
N835 C828 1.356 . S
N835 H838 0.984 . S
N835 H839 0.985 . S
H836 N831 0.984 . S
H837 N831 0.985 . S
H838 N835 0.984 . S
H839 N835 0.985 . S
H840 N834 0.984 . S
H841 N834 0.984 . S
H842 N830 0.984 . S
H843 N830 0.985 . S
C844 C845 1.363 . S
C844 C850 1.379 . S
C844 N852 1.356 . S
C845 C844 1.363 . S
C845 C851 1.363 . S
C846 C847 1.363 . S
C846 C851 1.379 . S
C846 N853 1.356 . S
C847 C846 1.363 . S
C847 C850 1.363 . S
N848 C850 1.356 . S
N848 H860 0.984 . S
N848 H861 0.985 . S
N849 C851 1.356 . S
N849 H854 0.984 . S
N849 H855 0.985 . S
C850 C844 1.379 . S
C850 C847 1.363 . S
C850 N848 1.356 . S
C851 C845 1.363 . S
C851 C846 1.379 . S
C851 N849 1.356 . S
N852 C844 1.356 . S
N852 H858 0.984 . S
N852 H859 0.984 . S
N853 C846 1.356 . S
N853 H856 0.984 . S
N853 H857 0.985 . S
H854 N849 0.984 . S
H855 N849 0.985 . S
H856 N853 0.984 . S
H857 N853 0.985 . S
H858 N852 0.984 . S
H859 N852 0.984 . S
H860 N848 0.984 . S
H861 N848 0.985 . S
C862 C863 1.363 . S
C862 C868 1.379 . S
C862 N870 1.356 . S
C863 C862 1.363 . S
C863 C869 1.363 . S
C864 C865 1.363 . S
C864 C869 1.379 . S
C864 N871 1.356 . S
C865 C864 1.363 . S
C865 C868 1.363 . S
N866 C868 1.356 . S
N866 H878 0.984 . S
N866 H879 0.985 . S
N867 C869 1.356 . S
N867 H872 0.984 . S
N867 H873 0.985 . S
C868 C862 1.379 . S
C868 C865 1.363 . S
C868 N866 1.356 . S
C869 C863 1.363 . S
C869 C864 1.379 . S
C869 N867 1.356 . S
N870 C862 1.356 . S
N870 H876 0.984 . S
N870 H877 0.984 . S
N871 C864 1.356 . S
N871 H874 0.984 . S
N871 H875 0.985 . S
H872 N867 0.984 . S
H873 N867 0.985 . S
H874 N871 0.984 . S
H875 N871 0.985 . S
H876 N870 0.984 . S
H877 N870 0.984 . S
H878 N866 0.984 . S
H879 N866 0.985 . S
C880 C881 1.363 1_565 S
C880 C886 1.379 . S
C880 N888 1.356 . S
C881 C880 1.363 1_545 S
C881 C887 1.363 . S
C882 C883 1.363 1_545 S
C882 C887 1.379 . S
C882 N889 1.356 . S
C883 C882 1.363 1_565 S
C883 C886 1.363 . S
N884 C886 1.356 . S
N884 H896 0.984 . S
N884 H897 0.985 . S
N885 C887 1.356 . S
N885 H890 0.984 . S
N885 H891 0.985 . S
C886 C880 1.379 . S
C886 C883 1.363 . S
C886 N884 1.356 . S
C887 C881 1.363 . S
C887 C882 1.379 . S
C887 N885 1.356 . S
N888 C880 1.356 . S
N888 H894 0.984 . S
N888 H895 0.984 . S
N889 C882 1.356 . S
N889 H892 0.984 . S
N889 H893 0.985 . S
H890 N885 0.984 . S
H891 N885 0.985 . S
H892 N889 0.984 . S
H893 N889 0.985 . S
H894 N888 0.984 . S
H895 N888 0.984 . S
H896 N884 0.984 . S
H897 N884 0.985 . S
C898 C899 1.363 . S
C898 C904 1.379 . S
C898 N906 1.356 . S
C899 C898 1.363 . S
C899 C905 1.363 . S
C900 C901 1.363 . S
C900 C905 1.379 . S
C900 N907 1.356 . S
C901 C900 1.363 . S
C901 C904 1.363 . S
N902 C904 1.356 . S
N902 H914 0.984 . S
N902 H915 0.985 . S
N903 C905 1.356 . S
N903 H908 0.984 . S
N903 H909 0.985 . S
C904 C898 1.379 . S
C904 C901 1.363 . S
C904 N902 1.356 . S
C905 C899 1.363 . S
C905 C900 1.379 . S
C905 N903 1.356 . S
N906 C898 1.356 . S
N906 H912 0.984 . S
N906 H913 0.984 . S
N907 C900 1.356 . S
N907 H910 0.984 . S
N907 H911 0.985 . S
H908 N903 0.984 . S
H909 N903 0.985 . S
H910 N907 0.984 . S
H911 N907 0.985 . S
H912 N906 0.984 . S
H913 N906 0.984 . S
H914 N902 0.984 . S
H915 N902 0.985 . S
C916 C917 1.363 1_565 S
C916 C922 1.379 . S
C916 N924 1.356 . S
C917 C916 1.363 1_545 S
C917 C923 1.363 . S
C918 C919 1.363 1_545 S
C918 C923 1.379 . S
C918 N925 1.356 . S
C919 C918 1.363 1_565 S
C919 C922 1.363 . S
N920 C922 1.356 . S
N920 H932 0.984 . S
N920 H933 0.985 . S
N921 C923 1.356 . S
N921 H926 0.984 . S
N921 H927 0.985 . S
C922 C916 1.379 . S
C922 C919 1.363 . S
C922 N920 1.356 . S
C923 C917 1.363 . S
C923 C918 1.379 . S
C923 N921 1.356 . S
N924 C916 1.356 . S
N924 H930 0.984 . S
N924 H931 0.984 . S
N925 C918 1.356 . S
N925 H928 0.984 . S
N925 H929 0.985 . S
H926 N921 0.984 . S
H927 N921 0.985 . S
H928 N925 0.984 . S
H929 N925 0.985 . S
H930 N924 0.984 . S
H931 N924 0.984 . S
H932 N920 0.984 . S
H933 N920 0.985 . S
C934 C935 1.363 1_554 S
C934 C940 1.379 . S
C934 N942 1.356 1_554 S
C935 C934 1.363 1_556 S
C935 C941 1.363 1_556 S
C936 C937 1.363 . S
C936 C941 1.379 . S
C936 N943 1.356 . S
C937 C936 1.363 . S
C937 C940 1.363 . S
N938 C940 1.356 . S
N938 H950 0.984 . S
N938 H951 0.985 . S
N939 C941 1.356 1_556 S
N939 H944 0.984 . S
N939 H945 0.985 . S
C940 C934 1.379 . S
C940 C937 1.363 . S
C940 N938 1.356 . S
C941 C935 1.363 1_554 S
C941 C936 1.379 . S
C941 N939 1.356 1_554 S
N942 C934 1.356 1_556 S
N942 H948 0.984 . S
N942 H949 0.984 . S
N943 C936 1.356 . S
N943 H946 0.984 . S
N943 H947 0.985 . S
H944 N939 0.984 . S
H945 N939 0.985 . S
H946 N943 0.984 . S
H947 N943 0.985 . S
H948 N942 0.984 . S
H949 N942 0.984 . S
H950 N938 0.984 . S
H951 N938 0.985 . S
C952 C953 1.363 . S
C952 C958 1.379 . S
C952 N960 1.356 . S
C953 C952 1.363 . S
C953 C959 1.363 1_565 S
C954 C955 1.363 . S
C954 C959 1.379 . S
C954 N961 1.356 . S
C955 C954 1.363 . S
C955 C958 1.363 1_545 S
N956 C958 1.356 . S
N956 H968 0.984 . S
N956 H969 0.985 . S
N957 C959 1.356 . S
N957 H962 0.984 . S
N957 H963 0.985 . S
C958 C952 1.379 . S
C958 C955 1.363 1_565 S
C958 N956 1.356 . S
C959 C953 1.363 1_545 S
C959 C954 1.379 . S
C959 N957 1.356 . S
N960 C952 1.356 . S
N960 H966 0.984 . S
N960 H967 0.984 . S
N961 C954 1.356 . S
N961 H964 0.984 . S
N961 H965 0.985 . S
H962 N957 0.984 . S
H963 N957 0.985 . S
H964 N961 0.984 . S
H965 N961 0.985 . S
H966 N960 0.984 . S
H967 N960 0.984 . S
H968 N956 0.984 . S
H969 N956 0.985 . S
C970 C971 1.363 . S
C970 C976 1.379 . S
C970 N978 1.356 . S
C971 C970 1.363 . S
C971 C977 1.363 . S
C972 C973 1.363 . S
C972 C977 1.379 . S
C972 N979 1.356 . S
C973 C972 1.363 . S
C973 C976 1.363 . S
N974 C976 1.356 . S
N974 H986 0.984 . S
N974 H987 0.985 . S
N975 C977 1.356 . S
N975 H980 0.984 . S
N975 H981 0.985 . S
C976 C970 1.379 . S
C976 C973 1.363 . S
C976 N974 1.356 . S
C977 C971 1.363 . S
C977 C972 1.379 . S
C977 N975 1.356 . S
N978 C970 1.356 . S
N978 H984 0.984 . S
N978 H985 0.984 . S
N979 C972 1.356 . S
N979 H982 0.984 . S
N979 H983 0.985 . S
H980 N975 0.984 . S
H981 N975 0.985 . S
H982 N979 0.984 . S
H983 N979 0.985 . S
H984 N978 0.984 . S
H985 N978 0.984 . S
H986 N974 0.984 . S
H987 N974 0.985 . S
C988 C989 1.363 1_565 S
C988 C994 1.379 . S
C988 N996 1.356 . S
C989 C988 1.363 1_545 S
C989 C995 1.363 . S
C990 C991 1.363 1_545 S
C990 C995 1.379 . S
C990 N997 1.356 . S
C991 C990 1.363 1_565 S
C991 C994 1.363 . S
N992 C994 1.356 . S
N992 H1004 0.984 . S
N992 H1005 0.985 . S
N993 C995 1.356 . S
N993 H998 0.984 . S
N993 H999 0.985 . S
C994 C988 1.379 . S
C994 C991 1.363 . S
C994 N992 1.356 . S
C995 C989 1.363 . S
C995 C990 1.379 . S
C995 N993 1.356 . S
N996 C988 1.356 . S
N996 H1002 0.984 . S
N996 H1003 0.984 . S
N997 C990 1.356 . S
N997 H1000 0.984 . S
N997 H1001 0.985 . S
H998 N993 0.984 . S
H999 N993 0.985 . S
H1000 N997 0.984 . S
H1001 N997 0.985 . S
H1002 N996 0.984 . S
H1003 N996 0.984 . S
H1004 N992 0.984 . S
H1005 N992 0.985 . S
C1006 C1007 1.363 . S
C1006 C1012 1.379 . S
C1006 N1014 1.356 . S
C1007 C1006 1.363 . S
C1007 C1013 1.363 . S
C1008 C1009 1.363 1_554 S
C1008 C1013 1.379 . S
C1008 N1015 1.356 1_554 S
C1009 C1008 1.363 1_556 S
C1009 C1012 1.363 1_556 S
N1010 C1012 1.356 1_556 S
N1010 H1022 0.984 . S
N1010 H1023 0.985 . S
N1011 C1013 1.356 . S
N1011 H1016 0.984 . S
N1011 H1017 0.985 . S
C1012 C1006 1.379 . S
C1012 C1009 1.363 1_554 S
C1012 N1010 1.356 1_554 S
C1013 C1007 1.363 . S
C1013 C1008 1.379 . S
C1013 N1011 1.356 . S
N1014 C1006 1.356 . S
N1014 H1020 0.984 . S
N1014 H1021 0.984 . S
N1015 C1008 1.356 1_556 S
N1015 H1018 0.984 . S
N1015 H1019 0.985 . S
H1016 N1011 0.984 . S
H1017 N1011 0.985 . S
H1018 N1015 0.984 . S
H1019 N1015 0.985 . S
H1020 N1014 0.984 . S
H1021 N1014 0.984 . S
H1022 N1010 0.984 . S
H1023 N1010 0.985 . S
C1024 C1025 1.363 . S
C1024 C1030 1.379 . S
C1024 N1032 1.356 . S
C1025 C1024 1.363 . S
C1025 C1031 1.363 . S
C1026 C1027 1.363 . S
C1026 C1031 1.379 . S
C1026 N1033 1.356 . S
C1027 C1026 1.363 . S
C1027 C1030 1.363 . S
N1028 C1030 1.356 . S
N1028 H1040 0.984 . S
N1028 H1041 0.985 . S
N1029 C1031 1.356 . S
N1029 H1034 0.984 . S
N1029 H1035 0.985 . S
C1030 C1024 1.379 . S
C1030 C1027 1.363 . S
C1030 N1028 1.356 . S
C1031 C1025 1.363 . S
C1031 C1026 1.379 . S
C1031 N1029 1.356 . S
N1032 C1024 1.356 . S
N1032 H1038 0.984 . S
N1032 H1039 0.984 . S
N1033 C1026 1.356 . S
N1033 H1036 0.984 . S
N1033 H1037 0.985 . S
H1034 N1029 0.984 . S
H1035 N1029 0.985 . S
H1036 N1033 0.984 . S
H1037 N1033 0.985 . S
H1038 N1032 0.984 . S
H1039 N1032 0.984 . S
H1040 N1028 0.984 . S
H1041 N1028 0.985 . S
C1042 C1043 1.363 . S
C1042 C1048 1.379 . S
C1042 N1050 1.356 . S
C1043 C1042 1.363 . S
C1043 C1049 1.363 . S
C1044 C1045 1.363 . S
C1044 C1049 1.379 . S
C1044 N1051 1.356 . S
C1045 C1044 1.363 . S
C1045 C1048 1.363 . S
N1046 C1048 1.356 . S
N1046 H1058 0.984 . S
N1046 H1059 0.985 . S
N1047 C1049 1.356 . S
N1047 H1052 0.984 . S
N1047 H1053 0.985 . S
C1048 C1042 1.379 . S
C1048 C1045 1.363 . S
C1048 N1046 1.356 . S
C1049 C1043 1.363 . S
C1049 C1044 1.379 . S
C1049 N1047 1.356 . S
N1050 C1042 1.356 . S
N1050 H1056 0.984 . S
N1050 H1057 0.984 . S
N1051 C1044 1.356 . S
N1051 H1054 0.984 . S
N1051 H1055 0.985 . S
H1052 N1047 0.984 . S
H1053 N1047 0.985 . S
H1054 N1051 0.984 . S
H1055 N1051 0.985 . S
H1056 N1050 0.984 . S
H1057 N1050 0.984 . S
H1058 N1046 0.984 . S
H1059 N1046 0.985 . S
C1060 C1061 1.363 . S
C1060 C1066 1.379 . S
C1060 N1068 1.356 . S
C1061 C1060 1.363 . S
C1061 C1067 1.363 . S
C1062 C1063 1.363 . S
C1062 C1067 1.379 . S
C1062 N1069 1.356 . S
C1063 C1062 1.363 . S
C1063 C1066 1.363 . S
N1064 C1066 1.356 . S
N1064 H1076 0.984 . S
N1064 H1077 0.985 . S
N1065 C1067 1.356 . S
N1065 H1070 0.984 . S
N1065 H1071 0.985 . S
C1066 C1060 1.379 . S
C1066 C1063 1.363 . S
C1066 N1064 1.356 . S
C1067 C1061 1.363 . S
C1067 C1062 1.379 . S
C1067 N1065 1.356 . S
N1068 C1060 1.356 . S
N1068 H1074 0.984 . S
N1068 H1075 0.984 . S
N1069 C1062 1.356 . S
N1069 H1072 0.984 . S
N1069 H1073 0.985 . S
H1070 N1065 0.984 . S
H1071 N1065 0.985 . S
H1072 N1069 0.984 . S
H1073 N1069 0.985 . S
H1074 N1068 0.984 . S
H1075 N1068 0.984 . S
H1076 N1064 0.984 . S
H1077 N1064 0.985 . S
C1078 C1079 1.363 . S
C1078 C1084 1.379 . S
C1078 N1086 1.356 . S
C1079 C1078 1.363 . S
C1079 C1085 1.363 . S
C1080 C1081 1.362 1_554 S
C1080 C1085 1.381 . S
C1080 N1087 1.354 1_554 S
C1081 C1080 1.362 1_556 S
C1081 C1084 1.363 1_556 S
N1082 C1084 1.356 1_556 S
N1082 H1094 0.984 . S
N1082 H1095 0.985 . S
N1083 C1085 1.356 . S
N1083 H1088 0.984 . S
N1083 H1089 0.985 . S
C1084 C1078 1.379 . S
C1084 C1081 1.363 1_554 S
C1084 N1082 1.356 1_554 S
C1085 C1079 1.363 . S
C1085 C1080 1.381 . S
C1085 N1083 1.356 . S
N1086 C1078 1.356 . S
N1086 H1092 0.984 . S
N1086 H1093 0.984 . S
N1087 C1080 1.354 1_556 S
N1087 H1090 0.984 . S
N1087 H1091 0.985 . S
H1088 N1083 0.984 . S
H1089 N1083 0.985 . S
H1090 N1087 0.984 . S
H1091 N1087 0.985 . S
H1092 N1086 0.984 . S
H1093 N1086 0.984 . S
H1094 N1082 0.984 . S
H1095 N1082 0.985 . S
C1096 C1097 1.363 . S
C1096 C1102 1.379 . S
C1096 N1104 1.356 . S
C1097 C1096 1.363 . S
C1097 C1103 1.363 . S
C1098 C1099 1.363 . S
C1098 C1103 1.379 . S
C1098 N1105 1.356 . S
C1099 C1098 1.363 . S
C1099 C1102 1.363 . S
N1100 C1102 1.356 . S
N1100 H1112 0.984 . S
N1100 H1113 0.985 . S
N1101 C1103 1.356 . S
N1101 H1106 0.984 . S
N1101 H1107 0.985 . S
C1102 C1096 1.379 . S
C1102 C1099 1.363 . S
C1102 N1100 1.356 . S
C1103 C1097 1.363 . S
C1103 C1098 1.379 . S
C1103 N1101 1.356 . S
N1104 C1096 1.356 . S
N1104 H1110 0.984 . S
N1104 H1111 0.984 . S
N1105 C1098 1.356 . S
N1105 H1108 0.984 . S
N1105 H1109 0.985 . S
H1106 N1101 0.984 . S
H1107 N1101 0.985 . S
H1108 N1105 0.984 . S
H1109 N1105 0.985 . S
H1110 N1104 0.984 . S
H1111 N1104 0.984 . S
H1112 N1100 0.984 . S
H1113 N1100 0.985 . S
C1114 C1115 1.363 . S
C1114 C1120 1.379 . S
C1114 N1122 1.356 . S
C1115 C1114 1.363 . S
C1115 C1121 1.363 . S
C1116 C1117 1.363 . S
C1116 C1121 1.379 . S
C1116 N1123 1.356 . S
C1117 C1116 1.363 . S
C1117 C1120 1.363 . S
N1118 C1120 1.356 . S
N1118 H1130 0.984 . S
N1118 H1131 0.985 . S
N1119 C1121 1.356 . S
N1119 H1124 0.984 . S
N1119 H1125 0.985 . S
C1120 C1114 1.379 . S
C1120 C1117 1.363 . S
C1120 N1118 1.356 . S
C1121 C1115 1.363 . S
C1121 C1116 1.379 . S
C1121 N1119 1.356 . S
N1122 C1114 1.356 . S
N1122 H1128 0.984 . S
N1122 H1129 0.984 . S
N1123 C1116 1.356 . S
N1123 H1126 0.984 . S
N1123 H1127 0.985 . S
H1124 N1119 0.984 . S
H1125 N1119 0.985 . S
H1126 N1123 0.984 . S
H1127 N1123 0.985 . S
H1128 N1122 0.984 . S
H1129 N1122 0.984 . S
H1130 N1118 0.984 . S
H1131 N1118 0.985 . S
C1132 C1133 1.363 . S
C1132 C1138 1.379 . S
C1132 N1140 1.356 . S
C1133 C1132 1.363 . S
C1133 C1139 1.363 . S
C1134 C1135 1.363 . S
C1134 C1139 1.379 . S
C1134 N1141 1.356 . S
C1135 C1134 1.363 . S
C1135 C1138 1.363 . S
N1136 C1138 1.356 . S
N1136 H1148 0.984 . S
N1136 H1149 0.985 . S
N1137 C1139 1.356 . S
N1137 H1142 0.984 . S
N1137 H1143 0.985 . S
C1138 C1132 1.379 . S
C1138 C1135 1.363 . S
C1138 N1136 1.356 . S
C1139 C1133 1.363 . S
C1139 C1134 1.379 . S
C1139 N1137 1.356 . S
N1140 C1132 1.356 . S
N1140 H1146 0.984 . S
N1140 H1147 0.984 . S
N1141 C1134 1.356 . S
N1141 H1144 0.984 . S
N1141 H1145 0.985 . S
H1142 N1137 0.984 . S
H1143 N1137 0.985 . S
H1144 N1141 0.984 . S
H1145 N1141 0.985 . S
H1146 N1140 0.984 . S
H1147 N1140 0.984 . S
H1148 N1136 0.984 . S
H1149 N1136 0.985 . S
C1150 C1151 1.362 1_554 S
C1150 C1156 1.381 . S
C1150 N1158 1.354 1_554 S
C1151 C1150 1.362 1_556 S
C1151 C1157 1.363 1_556 S
C1152 C1153 1.363 . S
C1152 C1157 1.379 . S
C1152 N1159 1.356 . S
C1153 C1152 1.363 . S
C1153 C1156 1.363 . S
N1154 C1156 1.356 . S
N1154 H1166 0.984 . S
N1154 H1167 0.985 . S
N1155 C1157 1.356 1_556 S
N1155 H1160 0.984 . S
N1155 H1161 0.985 . S
C1156 C1150 1.381 . S
C1156 C1153 1.363 . S
C1156 N1154 1.356 . S
C1157 C1151 1.363 1_554 S
C1157 C1152 1.379 . S
C1157 N1155 1.356 1_554 S
N1158 C1150 1.354 1_556 S
N1158 H1164 0.984 . S
N1158 H1165 0.984 . S
N1159 C1152 1.356 . S
N1159 H1162 0.984 . S
N1159 H1163 0.985 . S
H1160 N1155 0.984 . S
H1161 N1155 0.985 . S
H1162 N1159 0.984 . S
H1163 N1159 0.985 . S
H1164 N1158 0.984 . S
H1165 N1158 0.984 . S
H1166 N1154 0.984 . S
H1167 N1154 0.985 . S
C1168 C1169 1.363 1_565 S
C1168 C1174 1.379 . S
C1168 N1176 1.356 . S
C1169 C1168 1.363 1_545 S
C1169 C1175 1.363 . S
C1170 C1171 1.363 1_545 S
C1170 C1175 1.379 . S
C1170 N1177 1.356 . S
C1171 C1170 1.363 1_565 S
C1171 C1174 1.363 . S
N1172 C1174 1.356 . S
N1172 H1184 0.984 . S
N1172 H1185 0.985 . S
N1173 C1175 1.356 . S
N1173 H1178 0.984 . S
N1173 H1179 0.985 . S
C1174 C1168 1.379 . S
C1174 C1171 1.363 . S
C1174 N1172 1.356 . S
C1175 C1169 1.363 . S
C1175 C1170 1.379 . S
C1175 N1173 1.356 . S
N1176 C1168 1.356 . S
N1176 H1182 0.984 . S
N1176 H1183 1.004 . S
N1177 C1170 1.356 . S
N1177 H1180 1.005 . S
N1177 H1181 0.985 . S
H1178 N1173 0.984 . S
H1179 N1173 0.985 . S
H1180 N1177 1.005 . S
H1181 N1177 0.985 . S
H1182 N1176 0.984 . S
H1183 N1176 1.004 . S
H1184 N1172 0.984 . S
H1185 N1172 0.985 . S
C1186 C1187 1.363 . S
C1186 C1192 1.382 . S
C1186 N1194 1.356 . S
C1187 C1186 1.363 . S
C1187 C1193 1.363 . S
C1188 C1189 1.363 1_554 S
C1188 C1193 1.379 . S
C1188 N1195 1.356 1_554 S
C1189 C1188 1.363 1_556 S
C1189 C1192 1.362 1_556 S
N1190 C1192 1.353 1_556 S
N1190 H1202 0.984 . S
N1190 H1203 0.985 . S
N1191 C1193 1.356 . S
N1191 H1196 0.984 . S
N1191 H1197 0.985 . S
C1192 C1186 1.382 . S
C1192 C1189 1.362 1_554 S
C1192 N1190 1.353 1_554 S
C1193 C1187 1.363 . S
C1193 C1188 1.379 . S
C1193 N1191 1.356 . S
N1194 C1186 1.356 . S
N1194 H1200 0.984 . S
N1194 H1201 0.984 . S
N1195 C1188 1.356 1_556 S
N1195 H1198 0.984 . S
N1195 H1199 0.985 . S
H1196 N1191 0.984 . S
H1197 N1191 0.985 . S
H1198 N1195 0.984 . S
H1199 N1195 0.985 . S
H1200 N1194 0.984 . S
H1201 N1194 0.984 . S
H1202 N1190 0.984 . S
H1203 N1190 0.985 . S
C1204 C1205 1.363 1_565 S
C1204 C1210 1.379 . S
C1204 N1212 1.356 . S
C1205 C1204 1.363 1_545 S
C1205 C1211 1.363 . S
C1206 C1207 1.363 1_545 S
C1206 C1211 1.379 . S
C1206 N1213 1.356 . S
C1207 C1206 1.363 1_565 S
C1207 C1210 1.363 . S
N1208 C1210 1.356 . S
N1208 H1220 0.984 . S
N1208 H1221 0.985 . S
N1209 C1211 1.356 . S
N1209 H1214 0.984 . S
N1209 H1215 0.985 . S
C1210 C1204 1.379 . S
C1210 C1207 1.363 . S
C1210 N1208 1.356 . S
C1211 C1205 1.363 . S
C1211 C1206 1.379 . S
C1211 N1209 1.356 . S
N1212 C1204 1.356 . S
N1212 H1218 0.984 . S
N1212 H1219 0.984 . S
N1213 C1206 1.356 . S
N1213 H1216 0.984 . S
N1213 H1217 0.985 . S
H1214 N1209 0.984 . S
H1215 N1209 0.985 . S
H1216 N1213 0.984 . S
H1217 N1213 0.985 . S
H1218 N1212 0.984 . S
H1219 N1212 0.984 . S
H1220 N1208 0.984 . S
H1221 N1208 0.985 . S
C1222 C1223 1.363 . S
C1222 C1228 1.379 . S
C1222 N1230 1.356 . S
C1223 C1222 1.363 . S
C1223 C1229 1.363 . S
C1224 C1225 1.363 . S
C1224 C1229 1.379 . S
C1224 N1231 1.356 . S
C1225 C1224 1.363 . S
C1225 C1228 1.363 . S
N1226 C1228 1.356 . S
N1226 H1238 0.984 . S
N1226 H1239 0.985 . S
N1227 C1229 1.356 . S
N1227 H1232 0.984 . S
N1227 H1233 0.985 . S
C1228 C1222 1.379 . S
C1228 C1225 1.363 . S
C1228 N1226 1.356 . S
C1229 C1223 1.363 . S
C1229 C1224 1.379 . S
C1229 N1227 1.356 . S
N1230 C1222 1.356 . S
N1230 H1236 0.984 . S
N1230 H1237 0.984 . S
N1231 C1224 1.356 . S
N1231 H1234 0.984 . S
N1231 H1235 0.985 . S
H1232 N1227 0.984 . S
H1233 N1227 0.985 . S
H1234 N1231 0.984 . S
H1235 N1231 0.985 . S
H1236 N1230 0.984 . S
H1237 N1230 0.984 . S
H1238 N1226 0.984 . S
H1239 N1226 0.985 . S
C1240 C1241 1.363 . S
C1240 C1246 1.379 . S
C1240 N1248 1.356 . S
C1241 C1240 1.363 . S
C1241 C1247 1.363 1_545 S
C1242 C1243 1.363 . S
C1242 C1247 1.379 . S
C1242 N1249 1.356 . S
C1243 C1242 1.363 . S
C1243 C1246 1.363 1_565 S
N1244 C1246 1.356 . S
N1244 H1256 0.984 . S
N1244 H1257 0.985 . S
N1245 C1247 1.356 . S
N1245 H1250 0.984 . S
N1245 H1251 0.985 . S
C1246 C1240 1.379 . S
C1246 C1243 1.363 1_545 S
C1246 N1244 1.356 . S
C1247 C1241 1.363 1_565 S
C1247 C1242 1.379 . S
C1247 N1245 1.356 . S
N1248 C1240 1.356 . S
N1248 H1254 0.984 . S
N1248 H1255 0.984 . S
N1249 C1242 1.356 . S
N1249 H1252 0.984 . S
N1249 H1253 0.985 . S
H1250 N1245 0.984 . S
H1251 N1245 0.985 . S
H1252 N1249 0.984 . S
H1253 N1249 0.985 . S
H1254 N1248 0.984 . S
H1255 N1248 0.984 . S
H1256 N1244 0.984 . S
H1257 N1244 0.985 . S
C1258 C1259 1.363 . S
C1258 C1264 1.379 . S
C1258 N1266 1.356 . S
C1259 C1258 1.363 . S
C1259 C1265 1.363 . S
C1260 C1261 1.362 1_554 S
C1260 C1265 1.382 . S
C1260 N1267 1.353 1_554 S
C1261 C1260 1.362 1_556 S
C1261 C1264 1.363 1_556 S
N1262 C1264 1.356 1_556 S
N1262 H1274 0.984 . S
N1262 H1275 0.985 . S
N1263 C1265 1.356 . S
N1263 H1268 0.984 . S
N1263 H1269 0.985 . S
C1264 C1258 1.379 . S
C1264 C1261 1.363 1_554 S
C1264 N1262 1.356 1_554 S
C1265 C1259 1.363 . S
C1265 C1260 1.382 . S
C1265 N1263 1.356 . S
N1266 C1258 1.356 . S
N1266 H1272 0.984 . S
N1266 H1273 0.984 . S
N1267 C1260 1.353 1_556 S
N1267 H1270 0.984 . S
N1267 H1271 0.985 . S
H1268 N1263 0.984 . S
H1269 N1263 0.985 . S
H1270 N1267 0.984 . S
H1271 N1267 0.985 . S
H1272 N1266 0.984 . S
H1273 N1266 0.984 . S
H1274 N1262 0.984 . S
H1275 N1262 0.985 . S
C1276 C1277 1.363 . S
C1276 C1282 1.379 . S
C1276 N1284 1.356 . S
C1277 C1276 1.363 . S
C1277 C1283 1.363 1_545 S
C1278 C1279 1.363 . S
C1278 C1283 1.379 . S
C1278 N1285 1.356 . S
C1279 C1278 1.363 . S
C1279 C1282 1.363 1_565 S
N1280 C1282 1.356 . S
N1280 H1292 0.984 . S
N1280 H1293 0.985 . S
N1281 C1283 1.356 . S
N1281 H1286 0.984 . S
N1281 H1287 0.985 . S
C1282 C1276 1.379 . S
C1282 C1279 1.363 1_545 S
C1282 N1280 1.356 . S
C1283 C1277 1.363 1_565 S
C1283 C1278 1.379 . S
C1283 N1281 1.356 . S
N1284 C1276 1.356 . S
N1284 H1290 0.984 . S
N1284 H1291 0.984 . S
N1285 C1278 1.356 . S
N1285 H1288 0.984 . S
N1285 H1289 0.985 . S
H1286 N1281 0.984 . S
H1287 N1281 0.985 . S
H1288 N1285 0.984 . S
H1289 N1285 0.985 . S
H1290 N1284 0.984 . S
H1291 N1284 0.984 . S
H1292 N1280 0.984 . S
H1293 N1280 0.985 . S
C1294 C1295 1.363 . S
C1294 C1300 1.379 . S
C1294 N1302 1.356 . S
C1295 C1294 1.363 . S
C1295 C1301 1.363 . S
C1296 C1297 1.363 . S
C1296 C1301 1.379 . S
C1296 N1303 1.356 . S
C1297 C1296 1.363 . S
C1297 C1300 1.363 . S
N1298 C1300 1.356 . S
N1298 H1310 0.984 . S
N1298 H1311 0.985 . S
N1299 C1301 1.356 . S
N1299 H1304 0.984 . S
N1299 H1305 0.985 . S
C1300 C1294 1.379 . S
C1300 C1297 1.363 . S
C1300 N1298 1.356 . S
C1301 C1295 1.363 . S
C1301 C1296 1.379 . S
C1301 N1299 1.356 . S
N1302 C1294 1.356 . S
N1302 H1308 0.984 . S
N1302 H1309 0.984 . S
N1303 C1296 1.356 . S
N1303 H1306 0.984 . S
N1303 H1307 0.985 . S
H1304 N1299 0.984 . S
H1305 N1299 0.985 . S
H1306 N1303 0.984 . S
H1307 N1303 0.985 . S
H1308 N1302 0.984 . S
H1309 N1302 0.984 . S
H1310 N1298 0.984 . S
H1311 N1298 0.985 . S
C1312 C1313 1.363 . S
C1312 C1318 1.379 . S
C1312 N1320 1.356 . S
C1313 C1312 1.363 . S
C1313 C1319 1.363 . S
C1314 C1315 1.363 . S
C1314 C1319 1.379 . S
C1314 N1321 1.356 . S
C1315 C1314 1.363 . S
C1315 C1318 1.363 . S
N1316 C1318 1.356 . S
N1316 H1328 0.984 . S
N1316 H1329 0.985 . S
N1317 C1319 1.356 . S
N1317 H1322 0.984 . S
N1317 H1323 0.985 . S
C1318 C1312 1.379 . S
C1318 C1315 1.363 . S
C1318 N1316 1.356 . S
C1319 C1313 1.363 . S
C1319 C1314 1.379 . S
C1319 N1317 1.356 . S
N1320 C1312 1.356 . S
N1320 H1326 0.984 . S
N1320 H1327 0.984 . S
N1321 C1314 1.356 . S
N1321 H1324 0.984 . S
N1321 H1325 0.985 . S
H1322 N1317 0.984 . S
H1323 N1317 0.985 . S
H1324 N1321 0.984 . S
H1325 N1321 0.985 . S
H1326 N1320 0.984 . S
H1327 N1320 0.984 . S
H1328 N1316 0.984 . S
H1329 N1316 0.985 . S
C1330 C1331 1.363 . S
C1330 C1336 1.379 . S
C1330 N1338 1.356 . S
C1331 C1330 1.363 . S
C1331 C1337 1.363 . S
C1332 C1333 1.363 . S
C1332 C1337 1.379 . S
C1332 N1339 1.356 . S
C1333 C1332 1.363 . S
C1333 C1336 1.363 . S
N1334 C1336 1.356 . S
N1334 H1346 0.984 . S
N1334 H1347 0.985 . S
N1335 C1337 1.356 . S
N1335 H1340 0.984 . S
N1335 H1341 0.985 . S
C1336 C1330 1.379 . S
C1336 C1333 1.363 . S
C1336 N1334 1.356 . S
C1337 C1331 1.363 . S
C1337 C1332 1.379 . S
C1337 N1335 1.356 . S
N1338 C1330 1.356 . S
N1338 H1344 0.984 . S
N1338 H1345 0.984 . S
N1339 C1332 1.356 . S
N1339 H1342 0.984 . S
N1339 H1343 0.985 . S
H1340 N1335 0.984 . S
H1341 N1335 0.985 . S
H1342 N1339 0.984 . S
H1343 N1339 0.985 . S
H1344 N1338 0.984 . S
H1345 N1338 0.984 . S
H1346 N1334 0.984 . S
H1347 N1334 0.985 . S
C1348 C1349 1.363 . S
C1348 C1354 1.379 . S
C1348 N1356 1.356 . S
C1349 C1348 1.363 . S
C1349 C1355 1.363 . S
C1350 C1351 1.363 . S
C1350 C1355 1.379 . S
C1350 N1357 1.356 . S
C1351 C1350 1.363 . S
C1351 C1354 1.363 . S
N1352 C1354 1.356 . S
N1352 H1364 0.984 . S
N1352 H1365 0.985 . S
N1353 C1355 1.356 . S
N1353 H1358 0.984 . S
N1353 H1359 0.985 . S
C1354 C1348 1.379 . S
C1354 C1351 1.363 . S
C1354 N1352 1.356 . S
C1355 C1349 1.363 . S
C1355 C1350 1.379 . S
C1355 N1353 1.356 . S
N1356 C1348 1.356 . S
N1356 H1362 0.984 . S
N1356 H1363 0.984 . S
N1357 C1350 1.356 . S
N1357 H1360 0.984 . S
N1357 H1361 0.985 . S
H1358 N1353 0.984 . S
H1359 N1353 0.985 . S
H1360 N1357 0.984 . S
H1361 N1357 0.985 . S
H1362 N1356 0.984 . S
H1363 N1356 0.984 . S
H1364 N1352 0.984 . S
H1365 N1352 0.985 . S
C1366 C1367 1.363 . S
C1366 C1372 1.379 . S
C1366 N1374 1.356 . S
C1367 C1366 1.363 . S
C1367 C1373 1.363 . S
C1368 C1369 1.363 . S
C1368 C1373 1.379 . S
C1368 N1375 1.356 . S
C1369 C1368 1.363 . S
C1369 C1372 1.363 . S
N1370 C1372 1.356 1_554 S
N1370 H1382 0.984 . S
N1370 H1383 0.985 . S
N1371 C1373 1.356 . S
N1371 H1376 0.984 . S
N1371 H1377 0.985 . S
C1372 C1366 1.379 . S
C1372 C1369 1.363 . S
C1372 N1370 1.356 1_556 S
C1373 C1367 1.363 . S
C1373 C1368 1.379 . S
C1373 N1371 1.356 . S
N1374 C1366 1.356 . S
N1374 H1380 0.984 . S
N1374 H1381 0.984 . S
N1375 C1368 1.356 . S
N1375 H1378 0.984 . S
N1375 H1379 0.985 . S
H1376 N1371 0.984 . S
H1377 N1371 0.985 . S
H1378 N1375 0.984 . S
H1379 N1375 0.985 . S
H1380 N1374 0.984 . S
H1381 N1374 0.984 . S
H1382 N1370 0.984 . S
H1383 N1370 0.985 . S
C1384 C1385 1.363 . S
C1384 C1390 1.379 . S
C1384 N1392 1.356 . S
C1385 C1384 1.363 . S
C1385 C1391 1.363 . S
C1386 C1387 1.363 . S
C1386 C1391 1.379 . S
C1386 N1393 1.356 . S
C1387 C1386 1.363 . S
C1387 C1390 1.363 . S
N1388 C1390 1.356 . S
N1388 H1400 0.984 . S
N1388 H1401 0.985 . S
N1389 C1391 1.356 . S
N1389 H1394 0.984 . S
N1389 H1395 0.985 . S
C1390 C1384 1.379 . S
C1390 C1387 1.363 . S
C1390 N1388 1.356 . S
C1391 C1385 1.363 . S
C1391 C1386 1.379 . S
C1391 N1389 1.356 . S
N1392 C1384 1.356 . S
N1392 H1398 0.984 . S
N1392 H1399 0.984 . S
N1393 C1386 1.356 . S
N1393 H1396 0.984 . S
N1393 H1397 0.985 . S
H1394 N1389 0.984 . S
H1395 N1389 0.985 . S
H1396 N1393 0.984 . S
H1397 N1393 0.985 . S
H1398 N1392 0.984 . S
H1399 N1392 0.984 . S
H1400 N1388 0.984 . S
H1401 N1388 0.985 . S
C1402 C1403 1.363 . S
C1402 C1408 1.379 . S
C1402 N1410 1.356 . S
C1403 C1402 1.363 . S
C1403 C1409 1.363 . S
C1404 C1405 1.363 . S
C1404 C1409 1.379 . S
C1404 N1411 1.356 . S
C1405 C1404 1.363 . S
C1405 C1408 1.363 . S
N1406 C1408 1.356 . S
N1406 H1418 0.984 . S
N1406 H1419 0.985 . S
N1407 C1409 1.356 . S
N1407 H1412 0.984 . S
N1407 H1413 0.985 . S
C1408 C1402 1.379 . S
C1408 C1405 1.363 . S
C1408 N1406 1.356 . S
C1409 C1403 1.363 . S
C1409 C1404 1.379 . S
C1409 N1407 1.356 . S
N1410 C1402 1.356 . S
N1410 H1416 0.984 . S
N1410 H1417 0.984 . S
N1411 C1404 1.356 . S
N1411 H1414 0.984 . S
N1411 H1415 0.985 . S
H1412 N1407 0.984 . S
H1413 N1407 0.985 . S
H1414 N1411 0.984 . S
H1415 N1411 0.985 . S
H1416 N1410 0.984 . S
H1417 N1410 0.984 . S
H1418 N1406 0.984 . S
H1419 N1406 0.985 . S
C1420 C1421 1.363 . S
C1420 C1426 1.379 . S
C1420 N1428 1.356 . S
C1421 C1420 1.363 . S
C1421 C1427 1.363 . S
C1422 C1423 1.363 . S
C1422 C1427 1.379 . S
C1422 N1429 1.356 . S
C1423 C1422 1.363 . S
C1423 C1426 1.363 . S
N1424 C1426 1.356 1_554 S
N1424 H1436 0.984 . S
N1424 H1437 0.985 . S
N1425 C1427 1.356 . S
N1425 H1430 0.984 . S
N1425 H1431 0.985 . S
C1426 C1420 1.379 . S
C1426 C1423 1.363 . S
C1426 N1424 1.356 1_556 S
C1427 C1421 1.363 . S
C1427 C1422 1.379 . S
C1427 N1425 1.356 . S
N1428 C1420 1.356 . S
N1428 H1434 0.984 . S
N1428 H1435 0.984 . S
N1429 C1422 1.356 . S
N1429 H1432 0.984 . S
N1429 H1433 0.985 . S
H1430 N1425 0.984 . S
H1431 N1425 0.985 . S
H1432 N1429 0.984 . S
H1433 N1429 0.985 . S
H1434 N1428 0.984 . S
H1435 N1428 0.984 . S
H1436 N1424 0.984 . S
H1437 N1424 0.985 . S
C1438 C1439 1.363 . S
C1438 C1444 1.379 . S
C1438 N1446 1.356 . S
C1439 C1438 1.363 . S
C1439 C1445 1.363 . S
C1440 C1441 1.363 . S
C1440 C1445 1.379 . S
C1440 N1447 1.356 . S
C1441 C1440 1.363 . S
C1441 C1444 1.363 . S
N1442 C1444 1.356 . S
N1442 H1454 0.984 . S
N1442 H1455 0.985 . S
N1443 C1445 1.356 . S
N1443 H1448 0.984 . S
N1443 H1449 0.985 . S
C1444 C1438 1.379 . S
C1444 C1441 1.363 . S
C1444 N1442 1.356 . S
C1445 C1439 1.363 . S
C1445 C1440 1.379 . S
C1445 N1443 1.356 . S
N1446 C1438 1.356 . S
N1446 H1452 0.984 . S
N1446 H1453 0.984 . S
N1447 C1440 1.356 . S
N1447 H1450 0.984 . S
N1447 H1451 0.985 . S
H1448 N1443 0.984 . S
H1449 N1443 0.985 . S
H1450 N1447 0.984 . S
H1451 N1447 0.985 . S
H1452 N1446 0.984 . S
H1453 N1446 0.984 . S
H1454 N1442 0.984 . S
H1455 N1442 0.985 . S
C1456 C1457 1.363 . S
C1456 C1462 1.379 . S
C1456 N1464 1.356 . S
C1457 C1456 1.363 . S
C1457 C1463 1.363 . S
C1458 C1459 1.363 . S
C1458 C1463 1.379 . S
C1458 N1465 1.356 . S
C1459 C1458 1.363 . S
C1459 C1462 1.363 . S
N1460 C1462 1.356 . S
N1460 H1472 0.984 . S
N1460 H1473 0.985 . S
N1461 C1463 1.356 1_554 S
N1461 H1466 0.984 . S
N1461 H1467 0.985 . S
C1462 C1456 1.379 . S
C1462 C1459 1.363 . S
C1462 N1460 1.356 . S
C1463 C1457 1.363 . S
C1463 C1458 1.379 . S
C1463 N1461 1.356 1_556 S
N1464 C1456 1.356 . S
N1464 H1470 0.984 . S
N1464 H1471 0.984 . S
N1465 C1458 1.356 . S
N1465 H1468 0.984 . S
N1465 H1469 0.985 . S
H1466 N1461 0.984 . S
H1467 N1461 0.985 . S
H1468 N1465 0.984 . S
H1469 N1465 0.985 . S
H1470 N1464 0.984 . S
H1471 N1464 0.984 . S
H1472 N1460 0.984 . S
H1473 N1460 0.985 . S
C1474 C1475 1.363 . S
C1474 C1480 1.379 . S
C1474 N1482 1.356 . S
C1475 C1474 1.363 . S
C1475 C1481 1.363 . S
C1476 C1477 1.363 . S
C1476 C1481 1.379 . S
C1476 N1483 1.356 . S
C1477 C1476 1.363 . S
C1477 C1480 1.363 . S
N1478 C1480 1.356 . S
N1478 H1490 0.984 . S
N1478 H1491 0.985 . S
N1479 C1481 1.356 . S
N1479 H1484 0.984 . S
N1479 H1485 0.985 . S
C1480 C1474 1.379 . S
C1480 C1477 1.363 . S
C1480 N1478 1.356 . S
C1481 C1475 1.363 . S
C1481 C1476 1.379 . S
C1481 N1479 1.356 . S
N1482 C1474 1.356 . S
N1482 H1488 0.984 . S
N1482 H1489 0.984 . S
N1483 C1476 1.356 . S
N1483 H1486 0.984 . S
N1483 H1487 0.985 . S
H1484 N1479 0.984 . S
H1485 N1479 0.985 . S
H1486 N1483 0.984 . S
H1487 N1483 0.985 . S
H1488 N1482 0.984 . S
H1489 N1482 0.984 . S
H1490 N1478 0.984 . S
H1491 N1478 0.985 . S
C1492 C1493 1.363 . S
C1492 C1498 1.379 . S
C1492 N1500 1.356 . S
C1493 C1492 1.363 . S
C1493 C1499 1.363 . S
C1494 C1495 1.363 . S
C1494 C1499 1.379 . S
C1494 N1501 1.356 . S
C1495 C1494 1.363 . S
C1495 C1498 1.363 . S
N1496 C1498 1.356 . S
N1496 H1508 0.984 . S
N1496 H1509 0.985 . S
N1497 C1499 1.356 . S
N1497 H1502 0.984 . S
N1497 H1503 0.985 . S
C1498 C1492 1.379 . S
C1498 C1495 1.363 . S
C1498 N1496 1.356 . S
C1499 C1493 1.363 . S
C1499 C1494 1.379 . S
C1499 N1497 1.356 . S
N1500 C1492 1.356 . S
N1500 H1506 0.984 . S
N1500 H1507 0.984 . S
N1501 C1494 1.356 . S
N1501 H1504 0.984 . S
N1501 H1505 0.985 . S
H1502 N1497 0.984 . S
H1503 N1497 0.985 . S
H1504 N1501 0.984 . S
H1505 N1501 0.985 . S
H1506 N1500 0.984 . S
H1507 N1500 0.984 . S
H1508 N1496 0.984 . S
H1509 N1496 0.985 . S
C1510 C1511 1.363 . S
C1510 C1516 1.379 . S
C1510 N1518 1.356 . S
C1511 C1510 1.363 . S
C1511 C1517 1.363 . S
C1512 C1513 1.363 . S
C1512 C1517 1.379 . S
C1512 N1519 1.356 . S
C1513 C1512 1.363 . S
C1513 C1516 1.363 . S
N1514 C1516 1.356 . S
N1514 H1526 0.984 . S
N1514 H1527 0.985 . S
N1515 C1517 1.356 . S
N1515 H1520 0.984 . S
N1515 H1521 0.983 1_554 S
C1516 C1510 1.379 . S
C1516 C1513 1.363 . S
C1516 N1514 1.356 . S
C1517 C1511 1.363 . S
C1517 C1512 1.379 . S
C1517 N1515 1.356 . S
N1518 C1510 1.356 . S
N1518 H1524 0.984 . S
N1518 H1525 0.984 . S
N1519 C1512 1.356 . S
N1519 H1522 0.984 . S
N1519 H1523 0.985 . S
H1520 N1515 0.984 . S
H1521 N1515 0.983 1_556 S
H1522 N1519 0.984 . S
H1523 N1519 0.985 . S
H1524 N1518 0.984 . S
H1525 N1518 0.984 . S
H1526 N1514 0.984 . S
H1527 N1514 0.985 . S
C1528 C1529 1.363 . S
C1528 C1534 1.379 . S
C1528 N1536 1.356 . S
C1529 C1528 1.363 . S
C1529 C1535 1.363 . S
C1530 C1531 1.363 . S
C1530 C1535 1.379 . S
C1530 N1537 1.356 . S
C1531 C1530 1.363 . S
C1531 C1534 1.363 . S
N1532 C1534 1.356 . S
N1532 H1544 0.984 . S
N1532 H1545 0.985 . S
N1533 C1535 1.356 . S
N1533 H1538 0.984 . S
N1533 H1539 0.985 . S
C1534 C1528 1.379 . S
C1534 C1531 1.363 . S
C1534 N1532 1.356 . S
C1535 C1529 1.363 . S
C1535 C1530 1.379 . S
C1535 N1533 1.356 . S
N1536 C1528 1.356 . S
N1536 H1542 0.984 . S
N1536 H1543 0.984 . S
N1537 C1530 1.356 . S
N1537 H1540 0.984 . S
N1537 H1541 0.985 . S
H1538 N1533 0.984 . S
H1539 N1533 0.985 . S
H1540 N1537 0.984 . S
H1541 N1537 0.985 . S
H1542 N1536 0.984 . S
H1543 N1536 0.984 . S
H1544 N1532 0.984 . S
H1545 N1532 0.985 . S
C1546 C1547 1.363 . S
C1546 C1552 1.379 . S
C1546 N1554 1.356 . S
C1547 C1546 1.363 . S
C1547 C1553 1.363 . S
C1548 C1549 1.363 . S
C1548 C1553 1.379 . S
C1548 N1555 1.356 . S
C1549 C1548 1.363 . S
C1549 C1552 1.363 . S
N1550 C1552 1.356 . S
N1550 H1562 0.984 . S
N1550 H1563 0.985 . S
N1551 C1553 1.356 . S
N1551 H1556 0.984 . S
N1551 H1557 0.985 . S
C1552 C1546 1.379 . S
C1552 C1549 1.363 . S
C1552 N1550 1.356 . S
C1553 C1547 1.363 . S
C1553 C1548 1.379 . S
C1553 N1551 1.356 . S
N1554 C1546 1.356 . S
N1554 H1560 0.984 . S
N1554 H1561 0.984 . S
N1555 C1548 1.356 . S
N1555 H1558 0.984 . S
N1555 H1559 0.985 . S
H1556 N1551 0.984 . S
H1557 N1551 0.985 . S
H1558 N1555 0.984 . S
H1559 N1555 0.985 . S
H1560 N1554 0.984 . S
H1561 N1554 0.984 . S
H1562 N1550 0.984 . S
H1563 N1550 0.985 . S
C1564 C1565 1.363 . S
C1564 C1570 1.379 . S
C1564 N1572 1.356 . S
C1565 C1564 1.363 . S
C1565 C1571 1.363 . S
C1566 C1567 1.363 . S
C1566 C1571 1.379 . S
C1566 N1573 1.356 . S
C1567 C1566 1.363 . S
C1567 C1570 1.363 . S
N1568 C1570 1.356 . S
N1568 H1580 0.984 . S
N1568 H1581 0.985 . S
N1569 C1571 1.356 . S
N1569 H1574 0.984 . S
N1569 H1575 0.985 1_554 S
C1570 C1564 1.379 . S
C1570 C1567 1.363 . S
C1570 N1568 1.356 . S
C1571 C1565 1.363 . S
C1571 C1566 1.379 . S
C1571 N1569 1.356 . S
N1572 C1564 1.356 . S
N1572 H1578 0.984 . S
N1572 H1579 0.984 . S
N1573 C1566 1.356 . S
N1573 H1576 0.984 . S
N1573 H1577 0.985 . S
H1574 N1569 0.984 . S
H1575 N1569 0.985 1_556 S
H1576 N1573 0.984 . S
H1577 N1573 0.985 . S
H1578 N1572 0.984 . S
H1579 N1572 0.984 . S
H1580 N1568 0.984 . S
H1581 N1568 0.985 . S
C1582 C1583 1.363 . S
C1582 C1588 1.379 . S
C1582 N1590 1.356 . S
C1583 C1582 1.363 . S
C1583 C1589 1.363 . S
C1584 C1585 1.363 . S
C1584 C1589 1.379 . S
C1584 N1591 1.356 . S
C1585 C1584 1.363 . S
C1585 C1588 1.363 . S
N1586 C1588 1.356 1_554 S
N1586 H1598 0.984 . S
N1586 H1599 0.985 . S
N1587 C1589 1.356 . S
N1587 H1592 0.984 . S
N1587 H1593 0.985 . S
C1588 C1582 1.379 . S
C1588 C1585 1.363 . S
C1588 N1586 1.356 1_556 S
C1589 C1583 1.363 . S
C1589 C1584 1.379 . S
C1589 N1587 1.356 . S
N1590 C1582 1.356 . S
N1590 H1596 0.984 . S
N1590 H1597 0.984 . S
N1591 C1584 1.356 . S
N1591 H1594 0.984 . S
N1591 H1595 0.985 . S
H1592 N1587 0.984 . S
H1593 N1587 0.985 . S
H1594 N1591 0.984 . S
H1595 N1591 0.985 . S
H1596 N1590 0.984 . S
H1597 N1590 0.984 . S
H1598 N1586 0.984 . S
H1599 N1586 0.985 . S
C449 C121 1.424 . S
C451 C9 1.424 . S
C467 C23 1.424 . S
C469 C359 1.424 . S
C485 C37 1.424 . S
C487 C149 1.424 . S
C503 C51 1.424 . S
C505 C387 1.424 . S
C521 C65 1.424 . S
C523 C177 1.424 . S
C539 C415 1.424 . S
C541 C79 1.424 . S
C557 C205 1.424 . S
C559 C93 1.424 . S
C575 C443 1.424 . S
C577 C107 1.424 . S
C593 C247 1.424 . S
C595 C135 1.424 . S
C611 C163 1.424 . S
C613 C275 1.424 . S
C629 C191 1.424 . S
C631 C303 1.424 . S
C647 C331 1.424 . S
C649 C219 1.424 . S
C665 C345 1.424 . S
C667 C233 1.424 . S
C683 C261 1.424 . S
C685 C373 1.424 . S
C701 C289 1.424 . S
C703 C401 1.424 . S
C719 C429 1.424 . S
C721 C317 1.424 . S
C737 C3 1.406 . S
C739 C59 1.406 . S
C755 C73 1.406 . S
C757 C17 1.406 . S
C773 C87 1.406 . S
C775 C31 1.406 . S
C791 C45 1.406 . S
C793 C101 1.406 . S
C809 C115 1.406 . S
C811 C171 1.406 . S
C827 C129 1.406 . S
C829 C185 1.406 . S
C845 C199 1.406 . S
C847 C143 1.406 . S
C863 C213 1.406 . S
C865 C157 1.406 . S
C881 C283 1.405 . S
C883 C227 1.405 . S
C899 C297 1.406 . S
C901 C241 1.406 . S
C917 C255 1.406 . S
C919 C311 1.406 . S
C935 C325 1.406 . S
C937 C269 1.406 . S
C953 C395 1.406 . S
C955 C339 1.406 . S
C971 C353 1.406 . S
C973 C409 1.406 . S
C989 C423 1.405 . S
C991 C367 1.405 . S
C1007 C437 1.406 . S
C1009 C381 1.406 . S
C1025 C63 0.925 . S
C1027 C7 0.925 . S
C1043 C77 0.925 . S
C1045 C21 0.925 . S
C1061 C35 0.925 . S
C1063 C91 0.925 . S
C1079 C105 0.925 . S
C1081 C49 0.925 . S
C1097 C175 0.925 . S
C1099 C119 0.925 . S
C1115 C133 0.925 . S
C1117 C189 0.925 . S
C1133 C203 0.925 . S
C1135 C147 0.925 . S
C1151 C217 0.925 . S
C1153 C161 0.925 . S
C1169 C231 0.925 . S
C1171 C287 0.925 . S
C1187 C301 0.925 . S
C1189 C245 0.925 . S
C1205 C315 0.925 . S
C1207 C259 0.925 . S
C1223 C329 0.925 . S
C1225 C273 0.925 . S
C1241 C399 0.925 . S
C1243 C343 0.925 . S
C1259 C357 0.925 . S
C1261 C413 0.925 . S
C1277 C371 0.925 . S
C1279 C427 0.925 . S
C1295 C385 0.925 . S
C1297 C441 0.925 . S
C1313 C8 1.577 . S
C1315 C302 1.577 . S
C1331 C316 1.577 . S
C1333 C22 1.577 . S
C1349 C36 1.577 . S
C1351 C330 1.577 . S
C1367 C50 1.577 . S
C1369 C288 1.577 1_556 S
C1385 C274 1.577 . S
C1387 C64 1.577 . S
C1403 C232 1.577 . S
C1405 C78 1.577 . S
C1421 C246 1.577 . S
C1423 C92 1.577 1_556 S
C1439 C106 1.577 . S
C1441 C260 1.577 . S
C1457 C120 1.577 1_556 S
C1459 C414 1.577 . S
C1475 C428 1.577 . S
C1477 C134 1.577 . S
C1493 C442 1.577 . S
C1495 C148 1.577 . S
C1511 C400 1.577 . S
C1513 C162 1.577 . S
C1529 C386 1.577 . S
C1531 C176 1.577 . S
C1547 C344 1.577 . S
C1549 C190 1.577 . S
C1565 C204 1.577 . S
C1567 C358 1.577 . S
C1583 C218 1.577 . S
C1585 C372 1.577 1_556 S
